untitled-dbase-145345_36
  -OEChem-06232314393D

 30 32  0     1  0  0  0  0  0999 V2000
  -11.8797   14.1381  -40.7126 C   0  0  0  0  0  0  0  0  0  0  0  0
  -11.1996   13.3303  -39.6330 C   0  0  0  0  0  0  0  0  0  0  0  0
  -12.7836   14.5412  -37.0582 C   0  0  0  0  0  0  0  0  0  0  0  0
  -13.3172   14.4881  -38.5105 C   0  0  1  0  0  0  0  0  0  0  0  0
  -11.4801   15.8074  -38.6793 C   0  0  1  0  0  0  0  0  0  0  0  0
  -13.9064   15.8803  -38.8638 C   0  0  1  0  0  0  0  0  0  0  0  0
  -12.6463   16.7792  -39.0107 C   0  0  2  0  0  0  0  0  0  0  0  0
  -11.5691   15.4976  -37.1631 C   0  0  2  0  0  0  0  0  0  0  0  0
  -12.0226   14.5331  -39.2690 C   0  0  0  0  0  0  0  0  0  0  0  0
  -10.2672   13.1834  -37.1338 N   0  0  0  0  0  0  0  0  0  0  0  0
   -8.9584   15.3969  -37.2022 O   0  0  0  0  0  0  0  0  0  0  0  0
  -10.1749   14.7392  -35.0873 O   0  0  0  0  0  0  0  0  0  0  0  0
  -14.6538   15.7907  -40.0660 O   0  0  0  0  0  0  0  0  0  0  0  0
  -12.4837   17.2836  -40.3270 O   0  0  0  0  0  0  0  0  0  0  0  0
  -10.0875   14.7703  -36.5369 S   0  0  0  0  0  0  0  0  0  0  0  0
  -11.2511   14.7454  -41.3520 H   0  0  0  0  0  0  0  0  0  0  0  0
  -12.7315   13.6909  -41.2097 H   0  0  0  0  0  0  0  0  0  0  0  0
  -11.6016   12.3495  -39.4113 H   0  0  0  0  0  0  0  0  0  0  0  0
  -10.1210   13.4018  -39.5694 H   0  0  0  0  0  0  0  0  0  0  0  0
  -13.5379   14.9168  -36.3592 H   0  0  0  0  0  0  0  0  0  0  0  0
  -12.4833   13.5402  -36.7278 H   0  0  0  0  0  0  0  0  0  0  0  0
  -13.9743   13.6433  -38.7286 H   0  0  0  0  0  0  0  0  0  0  0  0
  -10.5018   16.1223  -39.0504 H   0  0  0  0  0  0  0  0  0  0  0  0
  -14.5704   16.2366  -38.0688 H   0  0  0  0  0  0  0  0  0  0  0  0
  -12.6661   17.6269  -38.3175 H   0  0  0  0  0  0  0  0  0  0  0  0
  -11.7205   16.4059  -36.5696 H   0  0  0  0  0  0  0  0  0  0  0  0
   -9.6475   12.8868  -37.8977 H   0  0  0  0  0  0  0  0  0  0  0  0
  -10.4762   12.4389  -36.4573 H   0  0  0  0  0  0  0  0  0  0  0  0
  -14.0410   15.4923  -40.7586 H   0  0  0  0  0  0  0  0  0  0  0  0
  -13.2294   17.8837  -40.4936 H   0  0  0  0  0  0  0  0  0  0  0  0
  1  2  1  0  0  0  0
  1  9  1  0  0  0  0
  2  9  1  0  0  0  0
  3  4  1  6  0  0  0
  3  8  1  0  0  0  0
  4  6  1  0  0  0  0
  4  9  1  0  0  0  0
  5  7  1  0  0  0  0
  5  8  1  0  0  0  0
  5  9  1  1  0  0  0
  6  7  1  0  0  0  0
  6 13  1  1  0  0  0
  7 14  1  1  0  0  0
  8 15  1  1  0  0  0
 10 15  1  0  0  0  0
 11 15  2  0  0  0  0
 12 15  2  0  0  0  0
  1 16  1  0  0  0  0
  1 17  1  0  0  0  0
  2 18  1  0  0  0  0
  2 19  1  0  0  0  0
  3 20  1  0  0  0  0
  3 21  1  0  0  0  0
  4 22  1  0  0  0  0
  5 23  1  0  0  0  0
  6 24  1  0  0  0  0
  7 25  1  0  0  0  0
  8 26  1  0  0  0  0
 10 27  1  0  0  0  0
 10 28  1  0  0  0  0
 13 29  1  0  0  0  0
 14 30  1  0  0  0  0
M  END
> <id>
EN300-27734386

> <smiles>
NS(=O)(=O)[C@@H]1C[C@H]2[C@H](O)[C@H](O)[C@@H]1C32CC3 |&1:4,6,7,9,11,r|

> <IUPAC Name>
rac-(1R,2S,3R,4S,6S)-2,3-dihydroxyspiro[bicyclo[2.2.1]heptane-7,1'-cyclopropane]-6-sulfonamide

> <CAS>
2580113-88-6

> <URL>
https://www.enaminestore.com/catalog/EN300-27734386

> <ROCS_ShapeQuery>
_x1247relevant_x1083L0AP1_x1305L0BP1_

> <ROCS_TanimotoCombo>
0.938 

> <ROCS_ShapeTanimoto>
0.504 

> <ROCS_ColorTanimoto>
0.434 

> <ROCS_RefTversky>
0.423 

> <ROCS_RefColorTversky>
0.497 

> <ROCS_RefTverskyCombo>
0.920 

> <ROCS_FitTversky>
1.610 

> <ROCS_FitColorTversky>
0.773 

> <ROCS_FitTverskyCombo>
2.383 

> <ROCS_ColorScore>
-10.646

> <ROCS_Overlap>
1246.680

> <ROCS_Rank>
1                   

$$$$
untitled-dbase-180346_6
  -OEChem-06232314393D

 25 26  0     1  0  0  0  0  0999 V2000
  -10.4925   14.8713  -36.4167 C   0  0  0  0  0  0  0  0  0  0  0  0
  -11.7878   16.3487  -38.8462 C   0  0  0  0  0  0  0  0  0  0  0  0
  -13.8779   16.0715  -37.7618 C   0  0  0  0  0  0  0  0  0  0  0  0
  -11.8568   14.8235  -37.0265 C   0  0  1  0  0  0  0  0  0  0  0  0
  -12.3749   16.2059  -37.4444 C   0  0  1  0  0  0  0  0  0  0  0  0
  -12.3599   15.0132  -39.3048 C   0  0  2  0  0  0  0  0  0  0  0  0
  -13.8639   15.1750  -39.0133 C   0  0  2  0  0  0  0  0  0  0  0  0
   -8.2839   15.6149  -36.8082 C   0  0  0  0  0  0  0  0  0  0  0  0
  -11.7860   14.0803  -38.3060 N   0  0  0  0  0  0  0  0  0  0  0  0
  -10.2167   14.4100  -35.3175 O   0  0  0  0  0  0  0  0  0  0  0  0
  -14.5117   15.8409  -40.0878 O   0  0  0  0  0  0  0  0  0  0  0  0
   -9.6336   15.4987  -37.2698 O   0  0  0  0  0  0  0  0  0  0  0  0
  -12.1878   17.2074  -39.3962 H   0  0  0  0  0  0  0  0  0  0  0  0
  -10.6935   16.3874  -38.8668 H   0  0  0  0  0  0  0  0  0  0  0  0
  -14.4263   15.6077  -36.9355 H   0  0  0  0  0  0  0  0  0  0  0  0
  -14.3260   17.0500  -37.9678 H   0  0  0  0  0  0  0  0  0  0  0  0
  -12.5242   14.3164  -36.3220 H   0  0  0  0  0  0  0  0  0  0  0  0
  -12.1327   17.0199  -36.7579 H   0  0  0  0  0  0  0  0  0  0  0  0
  -12.1227   14.7478  -40.3380 H   0  0  0  0  0  0  0  0  0  0  0  0
  -14.3726   14.2202  -38.8417 H   0  0  0  0  0  0  0  0  0  0  0  0
   -7.6833   16.1297  -37.5621 H   0  0  0  0  0  0  0  0  0  0  0  0
   -7.8755   14.6190  -36.6193 H   0  0  0  0  0  0  0  0  0  0  0  0
   -8.2739   16.1927  -35.8810 H   0  0  0  0  0  0  0  0  0  0  0  0
  -10.8113   13.9053  -38.5525 H   0  0  0  0  0  0  0  0  0  0  0  0
  -14.4787   15.2411  -40.8508 H   0  0  0  0  0  0  0  0  0  0  0  0
  1  4  1  1  0  0  0
  1 10  2  0  0  0  0
  1 12  1  0  0  0  0
  2  5  1  0  0  0  0
  2  6  1  0  0  0  0
  3  5  1  6  0  0  0
  3  7  1  0  0  0  0
  4  5  1  0  0  0  0
  4  9  1  0  0  0  0
  6  7  1  0  0  0  0
  6  9  1  6  0  0  0
  7 11  1  1  0  0  0
  8 12  1  0  0  0  0
  2 13  1  0  0  0  0
  2 14  1  0  0  0  0
  3 15  1  0  0  0  0
  3 16  1  0  0  0  0
  4 17  1  0  0  0  0
  5 18  1  0  0  0  0
  6 19  1  0  0  0  0
  7 20  1  0  0  0  0
  8 21  1  0  0  0  0
  8 22  1  0  0  0  0
  8 23  1  0  0  0  0
  9 24  1  0  0  0  0
 11 25  1  0  0  0  0
M  END
> <id>
EN300-27727966

> <smiles>
COC(=O)[C@@H]1N[C@@H]2C[C@H]1C[C@H]2O |&1:4,6,8,10,r|

> <IUPAC Name>
rac-methyl (1R,3R,4S,6R)-6-hydroxy-2-azabicyclo[2.2.1]heptane-3-carboxylate

> <CAS>
2580103-67-7

> <URL>
https://www.enaminestore.com/catalog/EN300-27727966

> <ROCS_ShapeQuery>
_x1247relevant_x1083L0AP1_x1305L0BP1_

> <ROCS_TanimotoCombo>
0.917 

> <ROCS_ShapeTanimoto>
0.462 

> <ROCS_ColorTanimoto>
0.455 

> <ROCS_RefTversky>
0.387 

> <ROCS_RefColorTversky>
0.487 

> <ROCS_RefTverskyCombo>
0.874 

> <ROCS_FitTversky>
1.719 

> <ROCS_FitColorTversky>
0.874 

> <ROCS_FitTverskyCombo>
2.593 

> <ROCS_ColorScore>
-10.391

> <ROCS_Overlap>
1137.371

> <ROCS_Rank>
2                   

$$$$
untitled-dbase-142996_83
  -OEChem-06232314393D

 34 35  0     1  0  0  0  0  0999 V2000
  -10.4892   14.6483  -36.4582 C   0  0  0  0  0  0  0  0  0  0  0  0
  -11.7787   16.3404  -38.7467 C   0  0  0  0  0  0  0  0  0  0  0  0
  -13.8710   15.9687  -37.6954 C   0  0  0  0  0  0  0  0  0  0  0  0
  -11.8524   14.6573  -37.0722 C   0  0  1  0  0  0  0  0  0  0  0  0
  -12.3685   16.0723  -37.3645 C   0  0  1  0  0  0  0  0  0  0  0  0
  -12.3511   15.0524  -39.3250 C   0  0  2  0  0  0  0  0  0  0  0  0
  -13.8555   15.1889  -39.0227 C   0  0  2  0  0  0  0  0  0  0  0  0
   -7.6974   14.6035  -35.9099 C   0  0  0  0  0  0  0  0  0  0  0  0
   -7.4050   15.3361  -38.2946 C   0  0  0  0  0  0  0  0  0  0  0  0
   -8.6397   16.8078  -36.6767 C   0  0  0  0  0  0  0  0  0  0  0  0
   -8.3244   15.3669  -37.0756 C   0  0  0  0  0  0  0  0  0  0  0  0
  -11.7799   14.0326  -38.4135 N   0  0  0  0  0  0  0  0  0  0  0  0
  -10.2804   14.5879  -35.2541 O   0  0  0  0  0  0  0  0  0  0  0  0
  -14.5007   15.9498  -40.0339 O   0  0  0  0  0  0  0  0  0  0  0  0
   -9.5463   14.7174  -37.4407 O   0  0  0  0  0  0  0  0  0  0  0  0
  -12.1768   17.2457  -39.2176 H   0  0  0  0  0  0  0  0  0  0  0  0
  -10.6843   16.3797  -38.7618 H   0  0  0  0  0  0  0  0  0  0  0  0
  -14.4214   15.4328  -36.9153 H   0  0  0  0  0  0  0  0  0  0  0  0
  -14.3178   16.9623  -37.8130 H   0  0  0  0  0  0  0  0  0  0  0  0
  -12.5216   14.0893  -36.4176 H   0  0  0  0  0  0  0  0  0  0  0  0
  -12.1268   16.8207  -36.6069 H   0  0  0  0  0  0  0  0  0  0  0  0
  -12.1122   14.8812  -40.3775 H   0  0  0  0  0  0  0  0  0  0  0  0
  -14.3654   14.2230  -38.9389 H   0  0  0  0  0  0  0  0  0  0  0  0
   -8.3543   14.6233  -35.0329 H   0  0  0  0  0  0  0  0  0  0  0  0
   -7.4986   13.5592  -36.1719 H   0  0  0  0  0  0  0  0  0  0  0  0
   -6.7544   15.0683  -35.6002 H   0  0  0  0  0  0  0  0  0  0  0  0
   -7.8509   15.8826  -39.1335 H   0  0  0  0  0  0  0  0  0  0  0  0
   -7.2522   14.3080  -38.6424 H   0  0  0  0  0  0  0  0  0  0  0  0
   -6.4272   15.7765  -38.0744 H   0  0  0  0  0  0  0  0  0  0  0  0
   -9.0894   17.3555  -37.5127 H   0  0  0  0  0  0  0  0  0  0  0  0
   -9.3279   16.8494  -35.8262 H   0  0  0  0  0  0  0  0  0  0  0  0
   -7.7238   17.3476  -36.4103 H   0  0  0  0  0  0  0  0  0  0  0  0
  -10.8049   13.8795  -38.6731 H   0  0  0  0  0  0  0  0  0  0  0  0
  -14.4668   15.4213  -40.8479 H   0  0  0  0  0  0  0  0  0  0  0  0
  1  4  1  1  0  0  0
  1 13  2  0  0  0  0
  1 15  1  0  0  0  0
  2  5  1  0  0  0  0
  2  6  1  0  0  0  0
  3  5  1  6  0  0  0
  3  7  1  0  0  0  0
  4  5  1  0  0  0  0
  4 12  1  0  0  0  0
  6  7  1  0  0  0  0
  6 12  1  6  0  0  0
  7 14  1  1  0  0  0
  8 11  1  0  0  0  0
  9 11  1  0  0  0  0
 10 11  1  0  0  0  0
 11 15  1  0  0  0  0
  2 16  1  0  0  0  0
  2 17  1  0  0  0  0
  3 18  1  0  0  0  0
  3 19  1  0  0  0  0
  4 20  1  0  0  0  0
  5 21  1  0  0  0  0
  6 22  1  0  0  0  0
  7 23  1  0  0  0  0
  8 24  1  0  0  0  0
  8 25  1  0  0  0  0
  8 26  1  0  0  0  0
  9 27  1  0  0  0  0
  9 28  1  0  0  0  0
  9 29  1  0  0  0  0
 10 30  1  0  0  0  0
 10 31  1  0  0  0  0
 10 32  1  0  0  0  0
 12 33  1  0  0  0  0
 14 34  1  0  0  0  0
M  END
> <id>
EN300-27727968

> <smiles>
CC(C)(C)OC(=O)[C@@H]1N[C@@H]2C[C@H]1C[C@H]2O |&1:7,9,11,13,r|

> <IUPAC Name>
rac-tert-butyl (1R,3R,4S,6R)-6-hydroxy-2-azabicyclo[2.2.1]heptane-3-carboxylate

> <CAS>
2580102-01-6

> <URL>
https://www.enaminestore.com/catalog/EN300-27727968

> <ROCS_ShapeQuery>
_x1247relevant_x1083L0AP1_x1305L0BP1_

> <ROCS_TanimotoCombo>
0.916 

> <ROCS_ShapeTanimoto>
0.475 

> <ROCS_ColorTanimoto>
0.441 

> <ROCS_RefTversky>
0.408 

> <ROCS_RefColorTversky>
0.490 

> <ROCS_RefTverskyCombo>
0.898 

> <ROCS_FitTversky>
1.528 

> <ROCS_FitColorTversky>
0.816 

> <ROCS_FitTverskyCombo>
2.344 

> <ROCS_ColorScore>
-10.472

> <ROCS_Overlap>
1202.206

> <ROCS_Rank>
3                   

$$$$
untitled-dbase-144592_3
  -OEChem-06232314393D

 26 28  0     1  0  0  0  0  0999 V2000
  -12.4338   13.8814  -39.4010 C   0  0  0  0  0  0  0  0  0  0  0  0
  -11.3916   15.0166  -39.4642 C   0  0  0  0  0  0  0  0  0  0  0  0
  -12.6803   14.2106  -36.9422 C   0  0  0  0  0  0  0  0  0  0  0  0
  -13.4583   14.1614  -38.2802 C   0  0  1  0  0  0  0  0  0  0  0  0
  -11.6765   16.0639  -38.3619 C   0  0  1  0  0  0  0  0  0  0  0  0
  -14.1069   15.5194  -38.4745 C   0  0  1  0  0  0  0  0  0  0  0  0
  -13.0820   16.6183  -38.5325 C   0  0  2  0  0  0  0  0  0  0  0  0
  -11.6597   15.3746  -36.9720 C   0  0  2  0  0  0  0  0  0  0  0  0
   -9.9900   13.3334  -37.2824 N   0  0  0  0  0  0  0  0  0  0  0  0
   -9.0754   15.7319  -37.1169 O   0  0  0  0  0  0  0  0  0  0  0  0
  -10.0428   14.6277  -35.0600 O   0  0  0  0  0  0  0  0  0  0  0  0
  -13.8335   16.2288  -39.6860 O   0  0  0  0  0  0  0  0  0  0  0  0
  -10.0418   14.8444  -36.4955 S   0  0  0  0  0  0  0  0  0  0  0  0
  -12.9427   13.7968  -40.3688 H   0  0  0  0  0  0  0  0  0  0  0  0
  -11.9299   12.9236  -39.2249 H   0  0  0  0  0  0  0  0  0  0  0  0
  -10.3819   14.6038  -39.3680 H   0  0  0  0  0  0  0  0  0  0  0  0
  -11.4304   15.4924  -40.4522 H   0  0  0  0  0  0  0  0  0  0  0  0
  -13.3835   14.3745  -36.1159 H   0  0  0  0  0  0  0  0  0  0  0  0
  -12.1947   13.2456  -36.7558 H   0  0  0  0  0  0  0  0  0  0  0  0
  -14.2199   13.3755  -38.2547 H   0  0  0  0  0  0  0  0  0  0  0  0
  -10.9424   16.8748  -38.4140 H   0  0  0  0  0  0  0  0  0  0  0  0
  -15.0311   15.6847  -37.9427 H   0  0  0  0  0  0  0  0  0  0  0  0
  -13.2849   17.5581  -38.0427 H   0  0  0  0  0  0  0  0  0  0  0  0
  -11.9426   16.1075  -36.2047 H   0  0  0  0  0  0  0  0  0  0  0  0
   -9.3753   13.2403  -38.1004 H   0  0  0  0  0  0  0  0  0  0  0  0
  -10.0343   12.4884  -36.6996 H   0  0  0  0  0  0  0  0  0  0  0  0
  1  2  1  0  0  0  0
  1  4  1  0  0  0  0
  2  5  1  6  0  0  0
  3  4  1  1  0  0  0
  3  8  1  0  0  0  0
  4  6  1  0  0  0  0
  5  7  1  0  0  0  0
  5  8  1  0  0  0  0
  6  7  1  0  0  0  0
  6 12  1  6  0  0  0
  7 12  1  6  0  0  0
  8 13  1  6  0  0  0
  9 13  1  0  0  0  0
 10 13  2  0  0  0  0
 11 13  2  0  0  0  0
  1 14  1  0  0  0  0
  1 15  1  0  0  0  0
  2 16  1  0  0  0  0
  2 17  1  0  0  0  0
  3 18  1  0  0  0  0
  3 19  1  0  0  0  0
  4 20  1  0  0  0  0
  5 21  1  0  0  0  0
  6 22  1  0  0  0  0
  7 23  1  0  0  0  0
  8 24  1  0  0  0  0
  9 25  1  0  0  0  0
  9 26  1  0  0  0  0
M  END
> <id>
EN300-27734501

> <smiles>
NS(=O)(=O)[C@@H]1C[C@@H]2CC[C@H]1[C@H]3O[C@H]32 |&1:4,6,9,10,12,r|

> <IUPAC Name>
rac-(1R,2R,4S,5R,6S)-3-oxatricyclo[3.2.2.0,2,4]nonane-6-sulfonamide

> <CAS>
2580095-37-8

> <URL>
https://www.enaminestore.com/catalog/EN300-27734501

> <ROCS_ShapeQuery>
_x1247relevant_x1083L0AP1_x1305L0BP1_

> <ROCS_TanimotoCombo>
0.915 

> <ROCS_ShapeTanimoto>
0.487 

> <ROCS_ColorTanimoto>
0.428 

> <ROCS_RefTversky>
0.404 

> <ROCS_RefColorTversky>
0.580 

> <ROCS_RefTverskyCombo>
0.985 

> <ROCS_FitTversky>
1.727 

> <ROCS_FitColorTversky>
0.619 

> <ROCS_FitTverskyCombo>
2.345 

> <ROCS_ColorScore>
-12.640

> <ROCS_Overlap>
1188.020

> <ROCS_Rank>
4                   

$$$$
untitled-dbase-20936_6
  -OEChem-06232314393D

 34 36  0     1  0  0  0  0  0999 V2000
   -9.9916   15.2106  -36.5712 C   0  0  0  0  0  0  0  0  0  0  0  0
  -12.9004   15.9856  -36.6818 C   0  0  0  0  0  0  0  0  0  0  0  0
  -11.5466   16.7315  -38.6611 C   0  0  0  0  0  0  0  0  0  0  0  0
  -13.9182   15.9859  -38.9711 C   0  0  0  0  0  0  0  0  0  0  0  0
  -13.3881   13.8175  -37.8229 C   0  0  0  0  0  0  0  0  0  0  0  0
  -12.0261   14.5678  -39.8141 C   0  0  0  0  0  0  0  0  0  0  0  0
  -12.9485   16.7203  -38.0310 C   0  0  0  0  0  0  0  0  0  0  0  0
  -12.3982   14.5377  -36.8779 C   0  0  1  0  0  0  0  0  0  0  0  0
  -11.0393   15.2864  -38.8646 C   0  0  2  0  0  0  0  0  0  0  0  0
  -10.9785   14.5467  -37.5026 C   0  0  0  0  0  0  0  0  0  0  0  0
  -13.4458   14.5310  -39.1963 C   0  0  0  0  0  0  0  0  0  0  0  0
  -14.4119   13.8002  -40.1329 C   0  0  0  0  0  0  0  0  0  0  0  0
  -10.4336   13.1913  -37.6356 N   0  0  0  0  0  0  0  0  0  0  0  0
   -8.9953   15.8232  -36.9252 O   0  0  0  0  0  0  0  0  0  0  0  0
  -10.3591   15.0330  -35.2786 O   0  0  0  0  0  0  0  0  0  0  0  0
  -14.4623   14.4282  -41.3160 F   0  0  0  0  0  0  0  0  0  0  0  0
  -13.9965   12.5403  -40.3234 F   0  0  0  0  0  0  0  0  0  0  0  0
  -15.6396   13.7799  -39.5957 F   0  0  0  0  0  0  0  0  0  0  0  0
  -12.2539   16.5283  -35.9825 H   0  0  0  0  0  0  0  0  0  0  0  0
  -13.9003   15.9729  -36.2298 H   0  0  0  0  0  0  0  0  0  0  0  0
  -11.5773   17.2525  -39.6264 H   0  0  0  0  0  0  0  0  0  0  0  0
  -10.8552   17.2987  -38.0271 H   0  0  0  0  0  0  0  0  0  0  0  0
  -14.9279   15.9956  -38.5404 H   0  0  0  0  0  0  0  0  0  0  0  0
  -13.9804   16.5190  -39.9285 H   0  0  0  0  0  0  0  0  0  0  0  0
  -13.1134   12.7637  -37.9470 H   0  0  0  0  0  0  0  0  0  0  0  0
  -14.3862   13.8125  -37.3640 H   0  0  0  0  0  0  0  0  0  0  0  0
  -12.0515   15.0962  -40.7766 H   0  0  0  0  0  0  0  0  0  0  0  0
  -11.6775   13.5529  -40.0383 H   0  0  0  0  0  0  0  0  0  0  0  0
  -13.2935   17.7493  -37.8792 H   0  0  0  0  0  0  0  0  0  0  0  0
  -12.3897   14.0320  -35.9040 H   0  0  0  0  0  0  0  0  0  0  0  0
  -10.0464   15.3243  -39.3304 H   0  0  0  0  0  0  0  0  0  0  0  0
  -11.1190   12.5546  -37.3103 H   0  0  0  0  0  0  0  0  0  0  0  0
  -10.2319   13.0379  -38.5932 H   0  0  0  0  0  0  0  0  0  0  0  0
   -9.7288   15.4558  -34.6571 H   0  0  0  0  0  0  0  0  0  0  0  0
  1 10  1  0  0  0  0
  1 14  2  0  0  0  0
  1 15  1  0  0  0  0
  2  7  1  0  0  0  0
  2  8  1  0  0  0  0
  3  7  1  0  0  0  0
  3  9  1  0  0  0  0
  4  7  1  0  0  0  0
  4 11  1  0  0  0  0
  5  8  1  0  0  0  0
  5 11  1  0  0  0  0
  6  9  1  0  0  0  0
  6 11  1  0  0  0  0
  8 10  1  0  0  0  0
  9 10  1  0  0  0  0
 10 13  1  0  0  0  0
 11 12  1  0  0  0  0
 12 16  1  0  0  0  0
 12 17  1  0  0  0  0
 12 18  1  0  0  0  0
  2 19  1  0  0  0  0
  2 20  1  0  0  0  0
  3 21  1  0  0  0  0
  3 22  1  0  0  0  0
  4 23  1  0  0  0  0
  4 24  1  0  0  0  0
  5 25  1  0  0  0  0
  5 26  1  0  0  0  0
  6 27  1  0  0  0  0
  6 28  1  0  0  0  0
  7 29  1  0  0  0  0
  8 30  1  0  0  0  0
  9 31  1  0  0  0  0
 13 32  1  0  0  0  0
 13 33  1  0  0  0  0
 15 34  1  0  0  0  0
M  END
> <id>
EN300-295820

> <smiles>
Cl.NC1(C2CC3CC1CC(C3)(C2)C(F)(F)F)C(=O)O

> <IUPAC Name>
2-amino-5-(trifluoromethyl)adamantane-2-carboxylic acid hydrochloride

> <CAS>
1303974-01-7

> <URL>
https://www.enaminestore.com/catalog/EN300-295820

> <Saltdate>
Cl

> <ROCS_ShapeQuery>
_x1247relevant_x1083L0AP1_x1305L0BP1_

> <ROCS_TanimotoCombo>
0.907 

> <ROCS_ShapeTanimoto>
0.543 

> <ROCS_ColorTanimoto>
0.363 

> <ROCS_RefTversky>
0.465 

> <ROCS_RefColorTversky>
0.416 

> <ROCS_RefTverskyCombo>
0.881 

> <ROCS_FitTversky>
1.449 

> <ROCS_FitColorTversky>
0.741 

> <ROCS_FitTverskyCombo>
2.191 

> <ROCS_ColorScore>
-8.876

> <ROCS_Overlap>
1373.196

> <ROCS_Rank>
5                   

$$$$
untitled-dbase-110540_6
  -OEChem-06232314393D

 34 36  0     1  0  0  0  0  0999 V2000
   -9.9907   15.2110  -36.5694 C   0  0  0  0  0  0  0  0  0  0  0  0
  -11.5508   16.7319  -38.6573 C   0  0  0  0  0  0  0  0  0  0  0  0
  -12.9033   15.9788  -36.6783 C   0  0  0  0  0  0  0  0  0  0  0  0
  -13.9237   15.9877  -38.9656 C   0  0  0  0  0  0  0  0  0  0  0  0
  -12.0325   14.5785  -39.8193 C   0  0  0  0  0  0  0  0  0  0  0  0
  -13.3908   13.8165  -37.8255 C   0  0  0  0  0  0  0  0  0  0  0  0
  -12.9520   16.7187  -38.0248 C   0  0  0  0  0  0  0  0  0  0  0  0
  -11.0421   15.2863  -38.8653 C   0  0  2  0  0  0  0  0  0  0  0  0
  -12.3986   14.5315  -36.8796 C   0  0  1  0  0  0  0  0  0  0  0  0
  -10.9760   14.5468  -37.5013 C   0  0  0  0  0  0  0  0  0  0  0  0
  -13.4499   14.5342  -39.1969 C   0  0  0  0  0  0  0  0  0  0  0  0
  -14.4175   13.8066  -40.1344 C   0  0  0  0  0  0  0  0  0  0  0  0
  -10.4304   13.1924  -37.6395 N   0  0  0  0  0  0  0  0  0  0  0  0
   -8.9892   15.8159  -36.9222 O   0  0  0  0  0  0  0  0  0  0  0  0
  -10.3660   15.0438  -35.2777 O   0  0  0  0  0  0  0  0  0  0  0  0
  -14.4709   14.4391  -41.3148 F   0  0  0  0  0  0  0  0  0  0  0  0
  -14.0019   12.5476  -40.3308 F   0  0  0  0  0  0  0  0  0  0  0  0
  -15.6441   13.7833  -39.5946 F   0  0  0  0  0  0  0  0  0  0  0  0
  -11.5828   17.2561  -39.6210 H   0  0  0  0  0  0  0  0  0  0  0  0
  -10.8586   17.2972  -38.0225 H   0  0  0  0  0  0  0  0  0  0  0  0
  -12.2570   16.5197  -35.9773 H   0  0  0  0  0  0  0  0  0  0  0  0
  -13.9031   15.9636  -36.2263 H   0  0  0  0  0  0  0  0  0  0  0  0
  -14.9329   15.9958  -38.5340 H   0  0  0  0  0  0  0  0  0  0  0  0
  -13.9870   16.5245  -39.9210 H   0  0  0  0  0  0  0  0  0  0  0  0
  -12.0604   15.1139  -40.7778 H   0  0  0  0  0  0  0  0  0  0  0  0
  -11.6841   13.5651  -40.0511 H   0  0  0  0  0  0  0  0  0  0  0  0
  -13.1159   12.7633  -37.9537 H   0  0  0  0  0  0  0  0  0  0  0  0
  -14.3882   13.8102  -37.3651 H   0  0  0  0  0  0  0  0  0  0  0  0
  -13.2963   17.7473  -37.8688 H   0  0  0  0  0  0  0  0  0  0  0  0
  -10.0498   15.3264  -39.3324 H   0  0  0  0  0  0  0  0  0  0  0  0
  -12.3897   14.0229  -35.9072 H   0  0  0  0  0  0  0  0  0  0  0  0
  -11.1149   12.5540  -37.3154 H   0  0  0  0  0  0  0  0  0  0  0  0
  -10.2296   13.0422  -38.5978 H   0  0  0  0  0  0  0  0  0  0  0  0
   -9.7366   15.4672  -34.6556 H   0  0  0  0  0  0  0  0  0  0  0  0
  1 10  1  0  0  0  0
  1 14  2  0  0  0  0
  1 15  1  0  0  0  0
  2  7  1  0  0  0  0
  2  8  1  0  0  0  0
  3  7  1  0  0  0  0
  3  9  1  0  0  0  0
  4  7  1  0  0  0  0
  4 11  1  0  0  0  0
  5  8  1  0  0  0  0
  5 11  1  0  0  0  0
  6  9  1  0  0  0  0
  6 11  1  0  0  0  0
  8 10  1  0  0  0  0
  9 10  1  0  0  0  0
 10 13  1  6  0  0  0
 11 12  1  6  0  0  0
 12 16  1  0  0  0  0
 12 17  1  0  0  0  0
 12 18  1  0  0  0  0
  2 19  1  0  0  0  0
  2 20  1  0  0  0  0
  3 21  1  0  0  0  0
  3 22  1  0  0  0  0
  4 23  1  0  0  0  0
  4 24  1  0  0  0  0
  5 25  1  0  0  0  0
  5 26  1  0  0  0  0
  6 27  1  0  0  0  0
  6 28  1  0  0  0  0
  7 29  1  0  0  0  0
  8 30  1  0  0  0  0
  9 31  1  0  0  0  0
 13 32  1  0  0  0  0
 13 33  1  0  0  0  0
 15 34  1  0  0  0  0
M  END
> <id>
EN300-146974

> <smiles>
N[C@]1(C2CC3CC1C[C@@](C3)(C2)C(F)(F)F)C(=O)O

> <IUPAC Name>
(2r,5s)-2-amino-5-(trifluoromethyl)adamantane-2-carboxylic acid

> <CAS>
1304192-59-3

> <URL>
https://www.enaminestore.com/catalog/EN300-146974

> <ROCS_ShapeQuery>
_x1247relevant_x1083L0AP1_x1305L0BP1_

> <ROCS_TanimotoCombo>
0.906 

> <ROCS_ShapeTanimoto>
0.544 

> <ROCS_ColorTanimoto>
0.363 

> <ROCS_RefTversky>
0.465 

> <ROCS_RefColorTversky>
0.416 

> <ROCS_RefTverskyCombo>
0.881 

> <ROCS_FitTversky>
1.450 

> <ROCS_FitColorTversky>
0.741 

> <ROCS_FitTverskyCombo>
2.191 

> <ROCS_ColorScore>
-8.869

> <ROCS_Overlap>
1373.342

> <ROCS_Rank>
6                   

$$$$
untitled-dbase-110101_6
  -OEChem-06232314393D

 34 36  0     1  0  0  0  0  0999 V2000
   -9.9907   15.2110  -36.5694 C   0  0  0  0  0  0  0  0  0  0  0  0
  -11.5508   16.7319  -38.6573 C   0  0  0  0  0  0  0  0  0  0  0  0
  -12.9033   15.9788  -36.6783 C   0  0  0  0  0  0  0  0  0  0  0  0
  -13.9237   15.9877  -38.9656 C   0  0  0  0  0  0  0  0  0  0  0  0
  -12.0325   14.5785  -39.8193 C   0  0  0  0  0  0  0  0  0  0  0  0
  -13.3908   13.8165  -37.8255 C   0  0  0  0  0  0  0  0  0  0  0  0
  -12.9520   16.7187  -38.0248 C   0  0  0  0  0  0  0  0  0  0  0  0
  -11.0421   15.2863  -38.8653 C   0  0  2  0  0  0  0  0  0  0  0  0
  -12.3986   14.5315  -36.8796 C   0  0  1  0  0  0  0  0  0  0  0  0
  -10.9760   14.5468  -37.5013 C   0  0  0  0  0  0  0  0  0  0  0  0
  -13.4499   14.5342  -39.1969 C   0  0  0  0  0  0  0  0  0  0  0  0
  -14.4175   13.8066  -40.1344 C   0  0  0  0  0  0  0  0  0  0  0  0
  -10.4304   13.1924  -37.6395 N   0  0  0  0  0  0  0  0  0  0  0  0
   -8.9892   15.8159  -36.9222 O   0  0  0  0  0  0  0  0  0  0  0  0
  -10.3660   15.0438  -35.2777 O   0  0  0  0  0  0  0  0  0  0  0  0
  -14.4709   14.4391  -41.3148 F   0  0  0  0  0  0  0  0  0  0  0  0
  -14.0019   12.5476  -40.3308 F   0  0  0  0  0  0  0  0  0  0  0  0
  -15.6441   13.7833  -39.5946 F   0  0  0  0  0  0  0  0  0  0  0  0
  -11.5828   17.2561  -39.6210 H   0  0  0  0  0  0  0  0  0  0  0  0
  -10.8586   17.2972  -38.0225 H   0  0  0  0  0  0  0  0  0  0  0  0
  -12.2570   16.5197  -35.9773 H   0  0  0  0  0  0  0  0  0  0  0  0
  -13.9031   15.9636  -36.2263 H   0  0  0  0  0  0  0  0  0  0  0  0
  -14.9329   15.9958  -38.5340 H   0  0  0  0  0  0  0  0  0  0  0  0
  -13.9870   16.5245  -39.9210 H   0  0  0  0  0  0  0  0  0  0  0  0
  -12.0604   15.1139  -40.7778 H   0  0  0  0  0  0  0  0  0  0  0  0
  -11.6841   13.5651  -40.0511 H   0  0  0  0  0  0  0  0  0  0  0  0
  -13.1159   12.7633  -37.9537 H   0  0  0  0  0  0  0  0  0  0  0  0
  -14.3882   13.8102  -37.3651 H   0  0  0  0  0  0  0  0  0  0  0  0
  -13.2963   17.7473  -37.8688 H   0  0  0  0  0  0  0  0  0  0  0  0
  -10.0498   15.3264  -39.3324 H   0  0  0  0  0  0  0  0  0  0  0  0
  -12.3897   14.0229  -35.9072 H   0  0  0  0  0  0  0  0  0  0  0  0
  -11.1149   12.5540  -37.3154 H   0  0  0  0  0  0  0  0  0  0  0  0
  -10.2296   13.0422  -38.5978 H   0  0  0  0  0  0  0  0  0  0  0  0
   -9.7366   15.4672  -34.6556 H   0  0  0  0  0  0  0  0  0  0  0  0
  1 10  1  0  0  0  0
  1 14  2  0  0  0  0
  1 15  1  0  0  0  0
  2  7  1  0  0  0  0
  2  8  1  0  0  0  0
  3  7  1  0  0  0  0
  3  9  1  0  0  0  0
  4  7  1  0  0  0  0
  4 11  1  0  0  0  0
  5  8  1  0  0  0  0
  5 11  1  0  0  0  0
  6  9  1  0  0  0  0
  6 11  1  0  0  0  0
  8 10  1  0  0  0  0
  9 10  1  0  0  0  0
 10 13  1  6  0  0  0
 11 12  1  6  0  0  0
 12 16  1  0  0  0  0
 12 17  1  0  0  0  0
 12 18  1  0  0  0  0
  2 19  1  0  0  0  0
  2 20  1  0  0  0  0
  3 21  1  0  0  0  0
  3 22  1  0  0  0  0
  4 23  1  0  0  0  0
  4 24  1  0  0  0  0
  5 25  1  0  0  0  0
  5 26  1  0  0  0  0
  6 27  1  0  0  0  0
  6 28  1  0  0  0  0
  7 29  1  0  0  0  0
  8 30  1  0  0  0  0
  9 31  1  0  0  0  0
 13 32  1  0  0  0  0
 13 33  1  0  0  0  0
 15 34  1  0  0  0  0
M  END
> <id>
EN300-88784

> <smiles>
Cl.N[C@]1(C2CC3CC1C[C@@](C3)(C2)C(F)(F)F)C(=O)O

> <IUPAC Name>
(2r,5s)-2-amino-5-(trifluoromethyl)adamantane-2-carboxylic acid hydrochloride

> <URL>
https://www.enaminestore.com/catalog/EN300-88784

> <Saltdate>
Cl

> <ROCS_ShapeQuery>
_x1247relevant_x1083L0AP1_x1305L0BP1_

> <ROCS_TanimotoCombo>
0.906 

> <ROCS_ShapeTanimoto>
0.544 

> <ROCS_ColorTanimoto>
0.363 

> <ROCS_RefTversky>
0.465 

> <ROCS_RefColorTversky>
0.416 

> <ROCS_RefTverskyCombo>
0.881 

> <ROCS_FitTversky>
1.450 

> <ROCS_FitColorTversky>
0.741 

> <ROCS_FitTverskyCombo>
2.191 

> <ROCS_ColorScore>
-8.869

> <ROCS_Overlap>
1373.342

> <ROCS_Rank>
7                   

$$$$
untitled-dbase-59238_78
  -OEChem-06232314393D

 32 33  0     1  0  0  0  0  0999 V2000
  -12.2594   14.9346  -37.8724 C   0  0  0  0  0  0  0  0  0  0  0  0
   -9.3648   13.8158  -38.2456 C   0  0  0  0  0  0  0  0  0  0  0  0
   -8.9213   15.2691  -38.1206 C   0  0  0  0  0  0  0  0  0  0  0  0
  -10.3257   15.6462  -36.2298 C   0  0  0  0  0  0  0  0  0  0  0  0
  -11.2220   14.5369  -36.8250 C   0  0  2  0  0  0  0  0  0  0  0  0
  -15.5426   13.2254  -39.4400 C   0  0  0  0  0  0  0  0  0  0  0  0
  -14.2479   13.9920  -41.4687 C   0  0  0  0  0  0  0  0  0  0  0  0
  -15.9104   15.4906  -40.3919 C   0  0  0  0  0  0  0  0  0  0  0  0
  -14.8262   14.4231  -40.1024 C   0  0  0  0  0  0  0  0  0  0  0  0
  -12.4001   16.2102  -38.3325 N   0  0  0  0  0  0  0  0  0  0  0  0
  -13.1031   14.0596  -38.4255 N   0  0  0  0  0  0  0  0  0  0  0  0
  -13.3797   16.1702  -39.2271 N   0  0  0  0  0  0  0  0  0  0  0  0
  -13.7633   14.8862  -39.2486 N   0  0  0  0  0  0  0  0  0  0  0  0
  -10.3661   13.4293  -37.2582 N   0  0  0  0  0  0  0  0  0  0  0  0
   -9.0013   15.7053  -36.7716 O   0  0  0  0  0  0  0  0  0  0  0  0
   -9.7647   13.6321  -39.2620 H   0  0  0  0  0  0  0  0  0  0  0  0
   -8.4871   13.1455  -38.1444 H   0  0  0  0  0  0  0  0  0  0  0  0
   -7.8772   15.3659  -38.4441 H   0  0  0  0  0  0  0  0  0  0  0  0
   -9.5222   15.9314  -38.7606 H   0  0  0  0  0  0  0  0  0  0  0  0
  -10.7997   16.6527  -36.3317 H   0  0  0  0  0  0  0  0  0  0  0  0
  -10.2221   15.4955  -35.1316 H   0  0  0  0  0  0  0  0  0  0  0  0
  -11.8325   14.1114  -35.9371 H   0  0  0  0  0  0  0  0  0  0  0  0
  -15.9629   13.5050  -38.4670 H   0  0  0  0  0  0  0  0  0  0  0  0
  -16.3711   12.8486  -40.0491 H   0  0  0  0  0  0  0  0  0  0  0  0
  -14.8478   12.3929  -39.2784 H   0  0  0  0  0  0  0  0  0  0  0  0
  -13.7290   14.8114  -41.9771 H   0  0  0  0  0  0  0  0  0  0  0  0
  -13.5224   13.1785  -41.3521 H   0  0  0  0  0  0  0  0  0  0  0  0
  -15.0419   13.6399  -42.1376 H   0  0  0  0  0  0  0  0  0  0  0  0
  -15.4730   16.3775  -40.8662 H   0  0  0  0  0  0  0  0  0  0  0  0
  -16.6799   15.1104  -41.0737 H   0  0  0  0  0  0  0  0  0  0  0  0
  -16.4004   15.8284  -39.4714 H   0  0  0  0  0  0  0  0  0  0  0  0
  -10.9594   12.6917  -37.6764 H   0  0  0  0  0  0  0  0  0  0  0  0
  1  5  1  0  0  0  0
  1 10  1  0  0  0  0
  1 11  2  0  0  0  0
  2  3  1  0  0  0  0
  2 14  1  0  0  0  0
  3 15  1  0  0  0  0
  4  5  1  0  0  0  0
  4 15  1  0  0  0  0
  5 14  1  0  0  0  0
  6  9  1  0  0  0  0
  7  9  1  0  0  0  0
  8  9  1  0  0  0  0
  9 13  1  0  0  0  0
 10 12  2  0  0  0  0
 11 13  1  0  0  0  0
 12 13  1  0  0  0  0
  2 16  1  0  0  0  0
  2 17  1  0  0  0  0
  3 18  1  0  0  0  0
  3 19  1  0  0  0  0
  4 20  1  0  0  0  0
  4 21  1  0  0  0  0
  5 22  1  0  0  0  0
  6 23  1  0  0  0  0
  6 24  1  0  0  0  0
  6 25  1  0  0  0  0
  7 26  1  0  0  0  0
  7 27  1  0  0  0  0
  7 28  1  0  0  0  0
  8 29  1  0  0  0  0
  8 30  1  0  0  0  0
  8 31  1  0  0  0  0
 14 32  1  0  0  0  0
M  END
> <id>
EN300-1751998

> <smiles>
CC(C)(C)N1N=NC(=N1)C2COCCN2

> <IUPAC Name>
3-(2-tert-butyl-2H-1,2,3,4-tetrazol-5-yl)morpholine

> <CAS>
2228608-43-1

> <URL>
https://www.enaminestore.com/catalog/EN300-1751998

> <ROCS_ShapeQuery>
_x1247relevant_x1083L0AP1_x1305L0BP1_

> <ROCS_TanimotoCombo>
0.895 

> <ROCS_ShapeTanimoto>
0.487 

> <ROCS_ColorTanimoto>
0.408 

> <ROCS_RefTversky>
0.415 

> <ROCS_RefColorTversky>
0.426 

> <ROCS_RefTverskyCombo>
0.841 

> <ROCS_FitTversky>
1.553 

> <ROCS_FitColorTversky>
0.906 

> <ROCS_FitTverskyCombo>
2.459 

> <ROCS_ColorScore>
-9.051

> <ROCS_Overlap>
1221.808

> <ROCS_Rank>
8                   

$$$$
untitled-dbase-107783_82
  -OEChem-06232314393D

 40 41  0     1  0  0  0  0  0999 V2000
   -9.3679   14.6028  -36.4192 C   0  0  0  0  0  0  0  0  0  0  0  0
  -13.2281   15.3285  -37.3861 C   0  0  0  0  0  0  0  0  0  0  0  0
  -11.1209   15.9217  -38.2939 C   0  0  0  0  0  0  0  0  0  0  0  0
  -13.2554   14.2407  -39.5104 C   0  0  0  0  0  0  0  0  0  0  0  0
  -12.6106   16.2916  -38.4115 C   0  0  1  0  0  0  0  0  0  0  0  0
  -12.6715   14.0880  -38.0876 C   0  0  1  0  0  0  0  0  0  0  0  0
  -11.1540   14.3858  -38.1407 C   0  0  2  0  0  0  0  0  0  0  0  0
  -13.2299   15.7689  -39.7315 C   0  0  1  0  0  0  0  0  0  0  0  0
  -10.0752   15.7540  -34.1787 C   0  0  0  0  0  0  0  0  0  0  0  0
   -9.2099   13.7531  -32.9309 C   0  0  0  0  0  0  0  0  0  0  0  0
   -7.5961   15.3984  -33.9293 C   0  0  0  0  0  0  0  0  0  0  0  0
  -12.5122   16.1786  -41.0105 C   0  0  0  0  0  0  0  0  0  0  0  0
   -8.9555   14.7184  -34.0866 C   0  0  0  0  0  0  0  0  0  0  0  0
  -10.4653   13.9540  -36.9528 N   0  0  0  0  0  0  0  0  0  0  0  0
   -8.8443   15.6131  -36.8772 O   0  0  0  0  0  0  0  0  0  0  0  0
  -14.5788   16.2366  -39.8236 O   0  0  0  0  0  0  0  0  0  0  0  0
   -8.9442   13.9508  -35.2954 O   0  0  0  0  0  0  0  0  0  0  0  0
  -13.1186   15.6340  -42.0781 F   0  0  0  0  0  0  0  0  0  0  0  0
  -12.5254   17.5152  -41.1424 F   0  0  0  0  0  0  0  0  0  0  0  0
  -11.2358   15.7611  -40.9805 F   0  0  0  0  0  0  0  0  0  0  0  0
  -12.8401   15.4708  -36.3722 H   0  0  0  0  0  0  0  0  0  0  0  0
  -14.3224   15.3558  -37.3599 H   0  0  0  0  0  0  0  0  0  0  0  0
  -10.5214   16.2396  -39.1508 H   0  0  0  0  0  0  0  0  0  0  0  0
  -10.6901   16.3993  -37.4047 H   0  0  0  0  0  0  0  0  0  0  0  0
  -12.6553   13.6903  -40.2427 H   0  0  0  0  0  0  0  0  0  0  0  0
  -14.2791   13.8495  -39.5420 H   0  0  0  0  0  0  0  0  0  0  0  0
  -12.8241   17.3436  -38.2061 H   0  0  0  0  0  0  0  0  0  0  0  0
  -12.9227   13.1301  -37.6261 H   0  0  0  0  0  0  0  0  0  0  0  0
  -10.6706   13.8869  -38.9872 H   0  0  0  0  0  0  0  0  0  0  0  0
   -9.8963   16.4488  -35.0070 H   0  0  0  0  0  0  0  0  0  0  0  0
  -11.0513   15.2806  -34.3266 H   0  0  0  0  0  0  0  0  0  0  0  0
  -10.1204   16.3631  -33.2686 H   0  0  0  0  0  0  0  0  0  0  0  0
   -8.4089   13.0083  -32.8611 H   0  0  0  0  0  0  0  0  0  0  0  0
  -10.1391   13.1933  -33.0874 H   0  0  0  0  0  0  0  0  0  0  0  0
   -9.2790   14.2788  -31.9731 H   0  0  0  0  0  0  0  0  0  0  0  0
   -6.7928   14.6558  -33.8633 H   0  0  0  0  0  0  0  0  0  0  0  0
   -7.3803   16.0673  -34.7687 H   0  0  0  0  0  0  0  0  0  0  0  0
   -7.5565   15.9802  -33.0013 H   0  0  0  0  0  0  0  0  0  0  0  0
  -10.8069   13.1213  -36.4775 H   0  0  0  0  0  0  0  0  0  0  0  0
  -14.5248   17.1934  -39.9614 H   0  0  0  0  0  0  0  0  0  0  0  0
  1 14  1  0  0  0  0
  1 15  2  0  0  0  0
  1 17  1  0  0  0  0
  2  5  1  0  0  0  0
  2  6  1  0  0  0  0
  3  5  1  0  0  0  0
  3  7  1  0  0  0  0
  4  6  1  0  0  0  0
  4  8  1  0  0  0  0
  5  8  1  0  0  0  0
  6  7  1  0  0  0  0
  7 14  1  0  0  0  0
  8 12  1  0  0  0  0
  8 16  1  0  0  0  0
  9 13  1  0  0  0  0
 10 13  1  0  0  0  0
 11 13  1  0  0  0  0
 12 18  1  0  0  0  0
 12 19  1  0  0  0  0
 12 20  1  0  0  0  0
 13 17  1  0  0  0  0
  2 21  1  0  0  0  0
  2 22  1  0  0  0  0
  3 23  1  0  0  0  0
  3 24  1  0  0  0  0
  4 25  1  0  0  0  0
  4 26  1  0  0  0  0
  5 27  1  0  0  0  0
  6 28  1  0  0  0  0
  7 29  1  0  0  0  0
  9 30  1  0  0  0  0
  9 31  1  0  0  0  0
  9 32  1  0  0  0  0
 10 33  1  0  0  0  0
 10 34  1  0  0  0  0
 10 35  1  0  0  0  0
 11 36  1  0  0  0  0
 11 37  1  0  0  0  0
 11 38  1  0  0  0  0
 14 39  1  0  0  0  0
 16 40  1  0  0  0  0
M  END
> <id>
EN300-7548570

> <smiles>
CC(C)(C)OC(=O)NC1CC2CC1CC2(O)C(F)(F)F

> <IUPAC Name>
tert-butyl N-[5-hydroxy-5-(trifluoromethyl)bicyclo[2.2.1]heptan-2-yl]carbamate

> <CAS>
2408974-12-7

> <URL>
https://www.enaminestore.com/catalog/EN300-7548570

> <ROCS_ShapeQuery>
_x1247relevant_x1083L0AP1_x1305L0BP1_

> <ROCS_TanimotoCombo>
0.890 

> <ROCS_ShapeTanimoto>
0.506 

> <ROCS_ColorTanimoto>
0.384 

> <ROCS_RefTversky>
0.451 

> <ROCS_RefColorTversky>
0.431 

> <ROCS_RefTverskyCombo>
0.883 

> <ROCS_FitTversky>
1.317 

> <ROCS_FitColorTversky>
0.778 

> <ROCS_FitTverskyCombo>
2.095 

> <ROCS_ColorScore>
-9.199

> <ROCS_Overlap>
1333.865

> <ROCS_Rank>
9                   

$$$$
untitled-dbase-96982_6
  -OEChem-06232314393D

 28 30  0     0  0  0  0  0  0999 V2000
  -10.7211   15.2662  -35.7136 C   0  0  0  0  0  0  0  0  0  0  0  0
   -9.9155   13.6592  -37.4665 C   0  0  0  0  0  0  0  0  0  0  0  0
  -12.8459   14.1067  -38.9518 C   0  0  0  0  0  0  0  0  0  0  0  0
  -13.5306   15.4693  -37.4644 C   0  0  0  0  0  0  0  0  0  0  0  0
  -11.9162   16.0121  -38.7450 C   0  0  0  0  0  0  0  0  0  0  0  0
   -9.7201   16.2700  -36.2749 C   0  0  0  0  0  0  0  0  0  0  0  0
   -8.9595   14.7533  -37.9288 C   0  0  0  0  0  0  0  0  0  0  0  0
  -11.1521   14.2328  -36.7625 C   0  0  0  0  0  0  0  0  0  0  0  0
  -12.1458   14.8268  -37.7640 C   0  0  0  0  0  0  0  0  0  0  0  0
  -13.3745   15.5609  -39.0020 C   0  0  0  0  0  0  0  0  0  0  0  0
   -8.5943   15.6001  -36.8402 O   0  0  0  0  0  0  0  0  0  0  0  0
  -14.2869   16.1016  -39.9236 O   0  0  0  0  0  0  0  0  0  0  0  0
  -10.2968   14.7619  -34.8305 H   0  0  0  0  0  0  0  0  0  0  0  0
  -11.6120   15.8123  -35.3589 H   0  0  0  0  0  0  0  0  0  0  0  0
  -10.2399   13.0757  -38.3451 H   0  0  0  0  0  0  0  0  0  0  0  0
   -9.3904   12.9526  -36.8036 H   0  0  0  0  0  0  0  0  0  0  0  0
  -12.2122   13.7748  -39.7807 H   0  0  0  0  0  0  0  0  0  0  0  0
  -13.5664   13.3196  -38.7067 H   0  0  0  0  0  0  0  0  0  0  0  0
  -14.3164   14.8117  -37.0785 H   0  0  0  0  0  0  0  0  0  0  0  0
  -13.5365   16.4099  -36.9041 H   0  0  0  0  0  0  0  0  0  0  0  0
  -11.7682   17.0043  -38.3066 H   0  0  0  0  0  0  0  0  0  0  0  0
  -11.1945   15.8612  -39.5544 H   0  0  0  0  0  0  0  0  0  0  0  0
  -10.1901   16.8598  -37.0682 H   0  0  0  0  0  0  0  0  0  0  0  0
   -9.3791   16.9673  -35.5007 H   0  0  0  0  0  0  0  0  0  0  0  0
   -8.0553   14.3275  -38.3797 H   0  0  0  0  0  0  0  0  0  0  0  0
   -9.4454   15.3756  -38.6871 H   0  0  0  0  0  0  0  0  0  0  0  0
  -11.6576   13.3952  -36.2273 H   0  0  0  0  0  0  0  0  0  0  0  0
  -15.1192   15.5983  -39.8467 H   0  0  0  0  0  0  0  0  0  0  0  0
  1  6  1  0  0  0  0
  1  8  1  0  0  0  0
  2  7  1  0  0  0  0
  2  8  1  0  0  0  0
  3  9  1  0  0  0  0
  3 10  1  0  0  0  0
  4  9  1  0  0  0  0
  4 10  1  0  0  0  0
  5  9  1  0  0  0  0
  5 10  1  0  0  0  0
  6 11  1  0  0  0  0
  7 11  1  0  0  0  0
  8  9  1  0  0  0  0
 10 12  1  0  0  0  0
  1 13  1  0  0  0  0
  1 14  1  0  0  0  0
  2 15  1  0  0  0  0
  2 16  1  0  0  0  0
  3 17  1  0  0  0  0
  3 18  1  0  0  0  0
  4 19  1  0  0  0  0
  4 20  1  0  0  0  0
  5 21  1  0  0  0  0
  5 22  1  0  0  0  0
  6 23  1  0  0  0  0
  6 24  1  0  0  0  0
  7 25  1  0  0  0  0
  7 26  1  0  0  0  0
  8 27  1  0  0  0  0
 12 28  1  0  0  0  0
M  END
> <id>
EN300-37148835

> <smiles>
OC1(CC2(C1)C3CCOCC3)C2

> <MDLNUMBER>
MFCD34594968

> <IUPAC Name>
3-(oxan-4-yl)bicyclo[1.1.1]pentan-1-ol

> <CAS>
2751614-34-1

> <Purity>
95

> <URL>
https://www.enaminestore.com/catalog/EN300-37148835

> <ROCS_ShapeQuery>
_x1247relevant_x1083L0AP1_x1305L0BP1_

> <ROCS_TanimotoCombo>
0.889 

> <ROCS_ShapeTanimoto>
0.462 

> <ROCS_ColorTanimoto>
0.427 

> <ROCS_RefTversky>
0.386 

> <ROCS_RefColorTversky>
0.468 

> <ROCS_RefTverskyCombo>
0.854 

> <ROCS_FitTversky>
1.737 

> <ROCS_FitColorTversky>
0.830 

> <ROCS_FitTverskyCombo>
2.567 

> <ROCS_ColorScore>
-9.991

> <ROCS_Overlap>
1134.171

> <ROCS_Rank>
10                  

$$$$
untitled-dbase-169832_6
  -OEChem-06232314393D

 28 30  0     0  0  0  0  0  0999 V2000
  -10.7207   15.2731  -35.7130 C   0  0  0  0  0  0  0  0  0  0  0  0
   -9.9147   13.6610  -37.4611 C   0  0  0  0  0  0  0  0  0  0  0  0
  -13.5291   15.4723  -37.4654 C   0  0  0  0  0  0  0  0  0  0  0  0
  -12.8453   14.1045  -38.9484 C   0  0  0  0  0  0  0  0  0  0  0  0
  -11.9147   16.0110  -38.7464 C   0  0  0  0  0  0  0  0  0  0  0  0
   -9.7194   16.2751  -36.2768 C   0  0  0  0  0  0  0  0  0  0  0  0
   -8.9585   14.7537  -37.9262 C   0  0  0  0  0  0  0  0  0  0  0  0
  -11.1515   14.2367  -36.7591 C   0  0  0  0  0  0  0  0  0  0  0  0
  -12.1448   14.8281  -37.7626 C   0  0  0  0  0  0  0  0  0  0  0  0
  -13.3728   15.5589  -39.0032 C   0  0  0  0  0  0  0  0  0  0  0  0
   -8.5935   15.6035  -36.8398 O   0  0  0  0  0  0  0  0  0  0  0  0
  -14.2876   16.1027  -39.9206 O   0  0  0  0  0  0  0  0  0  0  0  0
  -10.2968   14.7712  -34.8284 H   0  0  0  0  0  0  0  0  0  0  0  0
  -11.6116   15.8203  -35.3601 H   0  0  0  0  0  0  0  0  0  0  0  0
  -10.2390   13.0750  -38.3382 H   0  0  0  0  0  0  0  0  0  0  0  0
   -9.3900   12.9563  -36.7960 H   0  0  0  0  0  0  0  0  0  0  0  0
  -14.3149   14.8159  -37.0777 H   0  0  0  0  0  0  0  0  0  0  0  0
  -13.5344   16.4148  -36.9082 H   0  0  0  0  0  0  0  0  0  0  0  0
  -12.2126   13.7699  -39.7770 H   0  0  0  0  0  0  0  0  0  0  0  0
  -13.5655   13.3180  -38.7007 H   0  0  0  0  0  0  0  0  0  0  0  0
  -11.7662   17.0041  -38.3102 H   0  0  0  0  0  0  0  0  0  0  0  0
  -11.1932   15.8581  -39.5558 H   0  0  0  0  0  0  0  0  0  0  0  0
  -10.1891   16.8627  -37.0720 H   0  0  0  0  0  0  0  0  0  0  0  0
   -9.3785   16.9746  -35.5045 H   0  0  0  0  0  0  0  0  0  0  0  0
   -8.0542   14.3265  -38.3756 H   0  0  0  0  0  0  0  0  0  0  0  0
   -9.4440   15.3739  -38.6863 H   0  0  0  0  0  0  0  0  0  0  0  0
  -11.6573   13.4007  -36.2218 H   0  0  0  0  0  0  0  0  0  0  0  0
  -15.1207   15.6011  -39.8411 H   0  0  0  0  0  0  0  0  0  0  0  0
  1  6  1  0  0  0  0
  1  8  1  0  0  0  0
  2  7  1  0  0  0  0
  2  8  1  0  0  0  0
  3  9  1  0  0  0  0
  3 10  1  0  0  0  0
  4  9  1  0  0  0  0
  4 10  1  0  0  0  0
  5  9  1  0  0  0  0
  5 10  1  0  0  0  0
  6 11  1  0  0  0  0
  7 11  1  0  0  0  0
  8  9  1  6  0  0  0
 10 12  1  6  0  0  0
  1 13  1  0  0  0  0
  1 14  1  0  0  0  0
  2 15  1  0  0  0  0
  2 16  1  0  0  0  0
  3 17  1  0  0  0  0
  3 18  1  0  0  0  0
  4 19  1  0  0  0  0
  4 20  1  0  0  0  0
  5 21  1  0  0  0  0
  5 22  1  0  0  0  0
  6 23  1  0  0  0  0
  6 24  1  0  0  0  0
  7 25  1  0  0  0  0
  7 26  1  0  0  0  0
  8 27  1  0  0  0  0
 12 28  1  0  0  0  0
M  END
> <id>
EN300-37334809

> <smiles>
O[C@]1(C[C@]2(C1)C3CCOCC3)C2

> <IUPAC Name>
3-(oxan-4-yl)bicyclo[1.1.1]pentan-1-ol

> <CAS>
2751614-34-1

> <URL>
https://www.enaminestore.com/catalog/EN300-37334809

> <ROCS_ShapeQuery>
_x1247relevant_x1083L0AP1_x1305L0BP1_

> <ROCS_TanimotoCombo>
0.889 

> <ROCS_ShapeTanimoto>
0.462 

> <ROCS_ColorTanimoto>
0.427 

> <ROCS_RefTversky>
0.386 

> <ROCS_RefColorTversky>
0.468 

> <ROCS_RefTverskyCombo>
0.854 

> <ROCS_FitTversky>
1.736 

> <ROCS_FitColorTversky>
0.830 

> <ROCS_FitTverskyCombo>
2.566 

> <ROCS_ColorScore>
-9.990

> <ROCS_Overlap>
1133.959

> <ROCS_Rank>
11                  

$$$$
untitled-dbase-142995_14
  -OEChem-06232314393D

 22 23  0     1  0  0  0  0  0999 V2000
  -10.3115   14.9796  -36.5119 C   0  0  0  0  0  0  0  0  0  0  0  0
  -11.7291   16.3476  -38.9373 C   0  0  0  0  0  0  0  0  0  0  0  0
  -13.7608   16.1273  -37.7352 C   0  0  0  0  0  0  0  0  0  0  0  0
  -11.7055   14.9082  -37.0479 C   0  0  1  0  0  0  0  0  0  0  0  0
  -12.2434   16.2715  -37.5020 C   0  0  1  0  0  0  0  0  0  0  0  0
  -12.3250   14.9942  -39.3037 C   0  0  2  0  0  0  0  0  0  0  0  0
  -13.8119   15.1740  -38.9430 C   0  0  2  0  0  0  0  0  0  0  0  0
  -11.7012   14.1065  -38.2937 N   0  0  0  0  0  0  0  0  0  0  0  0
   -9.3540   15.4511  -37.1072 O   0  0  0  0  0  0  0  0  0  0  0  0
  -10.2490   14.4451  -35.2679 O   0  0  0  0  0  0  0  0  0  0  0  0
  -14.5136   15.7917  -40.0124 O   0  0  0  0  0  0  0  0  0  0  0  0
  -12.1561   17.1812  -39.5051 H   0  0  0  0  0  0  0  0  0  0  0  0
  -10.6373   16.3818  -39.0158 H   0  0  0  0  0  0  0  0  0  0  0  0
  -14.2663   15.7038  -36.8613 H   0  0  0  0  0  0  0  0  0  0  0  0
  -14.2181   17.0967  -37.9629 H   0  0  0  0  0  0  0  0  0  0  0  0
  -12.3361   14.4361  -36.2873 H   0  0  0  0  0  0  0  0  0  0  0  0
  -11.9655   17.1154  -36.8672 H   0  0  0  0  0  0  0  0  0  0  0  0
  -12.1415   14.6807  -40.3343 H   0  0  0  0  0  0  0  0  0  0  0  0
  -14.3118   14.2297  -38.7016 H   0  0  0  0  0  0  0  0  0  0  0  0
  -10.7406   13.9173  -38.5815 H   0  0  0  0  0  0  0  0  0  0  0  0
   -9.3407   14.4808  -34.8990 H   0  0  0  0  0  0  0  0  0  0  0  0
  -14.5204   15.1573  -40.7476 H   0  0  0  0  0  0  0  0  0  0  0  0
  1  4  1  1  0  0  0
  1  9  2  0  0  0  0
  1 10  1  0  0  0  0
  2  5  1  0  0  0  0
  2  6  1  0  0  0  0
  3  5  1  6  0  0  0
  3  7  1  0  0  0  0
  4  5  1  0  0  0  0
  4  8  1  0  0  0  0
  6  7  1  0  0  0  0
  6  8  1  6  0  0  0
  7 11  1  1  0  0  0
  2 12  1  0  0  0  0
  2 13  1  0  0  0  0
  3 14  1  0  0  0  0
  3 15  1  0  0  0  0
  4 16  1  0  0  0  0
  5 17  1  0  0  0  0
  6 18  1  0  0  0  0
  7 19  1  0  0  0  0
  8 20  1  0  0  0  0
 10 21  1  0  0  0  0
 11 22  1  0  0  0  0
M  END
> <id>
EN300-27727965

> <smiles>
O[C@@H]1C[C@@H]2C[C@H]1N[C@H]2C(=O)O |&1:1,3,5,7,r|

> <IUPAC Name>
rac-(1R,3R,4S,6R)-6-hydroxy-2-azabicyclo[2.2.1]heptane-3-carboxylic acid

> <CAS>
2580098-64-0

> <URL>
https://www.enaminestore.com/catalog/EN300-27727965

> <ROCS_ShapeQuery>
_x1247relevant_x1083L0AP1_x1305L0BP1_

> <ROCS_TanimotoCombo>
0.889 

> <ROCS_ShapeTanimoto>
0.443 

> <ROCS_ColorTanimoto>
0.446 

> <ROCS_RefTversky>
0.372 

> <ROCS_RefColorTversky>
0.507 

> <ROCS_RefTverskyCombo>
0.879 

> <ROCS_FitTversky>
1.758 

> <ROCS_FitColorTversky>
0.787 

> <ROCS_FitTverskyCombo>
2.545 

> <ROCS_ColorScore>
-10.858

> <ROCS_Overlap>
1092.145

> <ROCS_Rank>
12                  

$$$$
untitled-dbase-92098_13
  -OEChem-06232314393D

 22 23  0     1  0  0  0  0  0999 V2000
  -10.1562   14.9160  -36.6030 C   0  0  0  0  0  0  0  0  0  0  0  0
  -12.2468   13.9937  -37.6003 C   0  0  0  0  0  0  0  0  0  0  0  0
  -10.9454   14.7572  -37.8665 C   0  0  1  0  0  0  0  0  0  0  0  0
  -13.3031   15.0058  -38.0440 C   0  0  2  0  0  0  0  0  0  0  0  0
  -11.4628   16.1167  -38.3531 C   0  0  1  0  0  0  0  0  0  0  0  0
  -13.2762   15.1782  -39.5678 C   0  0  2  0  0  0  0  0  0  0  0  0
  -12.0287   16.0450  -39.7734 C   0  0  2  0  0  0  0  0  0  0  0  0
  -10.4666   14.4471  -35.5181 O   0  0  0  0  0  0  0  0  0  0  0  0
  -12.6951   16.2453  -37.6004 O   0  0  0  0  0  0  0  0  0  0  0  0
   -9.0434   15.6578  -36.8237 O   0  0  0  0  0  0  0  0  0  0  0  0
  -14.4352   15.8989  -39.9682 O   0  0  0  0  0  0  0  0  0  0  0  0
  -11.1127   15.4632  -40.6778 O   0  0  0  0  0  0  0  0  0  0  0  0
  -12.3089   13.0586  -38.1656 H   0  0  0  0  0  0  0  0  0  0  0  0
  -12.3653   13.7593  -36.5361 H   0  0  0  0  0  0  0  0  0  0  0  0
  -10.3031   14.2530  -38.5947 H   0  0  0  0  0  0  0  0  0  0  0  0
  -14.2940   14.8674  -37.6054 H   0  0  0  0  0  0  0  0  0  0  0  0
  -10.7886   16.9595  -38.1790 H   0  0  0  0  0  0  0  0  0  0  0  0
  -13.2612   14.2234  -40.1028 H   0  0  0  0  0  0  0  0  0  0  0  0
  -12.2931   17.0471  -40.1311 H   0  0  0  0  0  0  0  0  0  0  0  0
   -8.5133   15.7750  -36.0066 H   0  0  0  0  0  0  0  0  0  0  0  0
  -14.3990   16.7580  -39.5180 H   0  0  0  0  0  0  0  0  0  0  0  0
  -11.5389   15.4515  -41.5529 H   0  0  0  0  0  0  0  0  0  0  0  0
  1  3  1  0  0  0  0
  1  8  2  0  0  0  0
  1 10  1  0  0  0  0
  2  3  1  0  0  0  0
  2  4  1  0  0  0  0
  3  5  1  0  0  0  0
  4  6  1  0  0  0  0
  4  9  1  0  0  0  0
  5  7  1  0  0  0  0
  5  9  1  0  0  0  0
  6  7  1  0  0  0  0
  6 11  1  0  0  0  0
  7 12  1  0  0  0  0
  2 13  1  0  0  0  0
  2 14  1  0  0  0  0
  3 15  1  0  0  0  0
  4 16  1  0  0  0  0
  5 17  1  0  0  0  0
  6 18  1  0  0  0  0
  7 19  1  0  0  0  0
 10 20  1  0  0  0  0
 11 21  1  0  0  0  0
 12 22  1  0  0  0  0
M  END
> <id>
EN300-6764836

> <smiles>
OC1C(O)C2OC1CC2C(=O)O

> <MDLNUMBER>
MFCD24531237

> <IUPAC Name>
5,6-dihydroxy-7-oxabicyclo[2.2.1]heptane-2-carboxylic acid

> <CAS>
1822577-96-7

> <Purity>
95

> <URL>
https://www.enaminestore.com/catalog/EN300-6764836

> <ROCS_ShapeQuery>
_x1247relevant_x1083L0AP1_x1305L0BP1_

> <ROCS_TanimotoCombo>
0.888 

> <ROCS_ShapeTanimoto>
0.497 

> <ROCS_ColorTanimoto>
0.391 

> <ROCS_RefTversky>
0.408 

> <ROCS_RefColorTversky>
0.474 

> <ROCS_RefTverskyCombo>
0.882 

> <ROCS_FitTversky>
1.792 

> <ROCS_FitColorTversky>
0.691 

> <ROCS_FitTverskyCombo>
2.483 

> <ROCS_ColorScore>
-10.179

> <ROCS_Overlap>
1197.564

> <ROCS_Rank>
13                  

$$$$
untitled-dbase-142055_191
  -OEChem-06232314393D

 35 36  0     1  0  0  0  0  0999 V2000
  -10.4846   14.6402  -36.4646 C   0  0  0  0  0  0  0  0  0  0  0  0
  -11.7749   16.3514  -38.7285 C   0  0  0  0  0  0  0  0  0  0  0  0
  -11.8524   14.6522  -37.0698 C   0  0  1  0  0  0  0  0  0  0  0  0
  -12.3686   16.0718  -37.3497 C   0  0  2  0  0  0  0  0  0  0  0  0
  -12.3551   15.0700  -39.3183 C   0  0  2  0  0  0  0  0  0  0  0  0
  -13.8707   16.0123  -37.7019 C   0  0  1  0  0  0  0  0  0  0  0  0
  -13.8620   15.1969  -39.0082 C   0  0  1  0  0  0  0  0  0  0  0  0
   -7.6892   14.5997  -35.9349 C   0  0  0  0  0  0  0  0  0  0  0  0
   -7.4155   15.3685  -38.3105 C   0  0  0  0  0  0  0  0  0  0  0  0
   -8.6460   16.8108  -36.6632 C   0  0  0  0  0  0  0  0  0  0  0  0
   -8.3270   15.3773  -37.0853 C   0  0  0  0  0  0  0  0  0  0  0  0
  -11.7841   14.0405  -38.4173 N   0  0  0  0  0  0  0  0  0  0  0  0
  -10.2678   14.5630  -35.2629 O   0  0  0  0  0  0  0  0  0  0  0  0
  -14.6253   15.3795  -36.6863 O   0  0  0  0  0  0  0  0  0  0  0  0
  -14.4965   15.9275  -40.0493 O   0  0  0  0  0  0  0  0  0  0  0  0
   -9.5484   14.7279  -37.4520 O   0  0  0  0  0  0  0  0  0  0  0  0
  -12.1670   17.2624  -39.1934 H   0  0  0  0  0  0  0  0  0  0  0  0
  -10.6806   16.3836  -38.7426 H   0  0  0  0  0  0  0  0  0  0  0  0
  -12.5099   14.0711  -36.4163 H   0  0  0  0  0  0  0  0  0  0  0  0
  -12.1211   16.8031  -36.5767 H   0  0  0  0  0  0  0  0  0  0  0  0
  -12.1209   14.9064  -40.3731 H   0  0  0  0  0  0  0  0  0  0  0  0
  -14.2726   17.0215  -37.8523 H   0  0  0  0  0  0  0  0  0  0  0  0
  -14.3560   14.2225  -38.9228 H   0  0  0  0  0  0  0  0  0  0  0  0
   -8.3405   14.6037  -35.0536 H   0  0  0  0  0  0  0  0  0  0  0  0
   -7.4876   13.5603  -36.2136 H   0  0  0  0  0  0  0  0  0  0  0  0
   -6.7462   15.0641  -35.6245 H   0  0  0  0  0  0  0  0  0  0  0  0
   -7.8691   15.9253  -39.1384 H   0  0  0  0  0  0  0  0  0  0  0  0
   -7.2605   14.3463  -38.6743 H   0  0  0  0  0  0  0  0  0  0  0  0
   -6.4382   15.8100  -38.0902 H   0  0  0  0  0  0  0  0  0  0  0  0
   -9.1035   17.3688  -37.4881 H   0  0  0  0  0  0  0  0  0  0  0  0
   -9.3288   16.8369  -35.8078 H   0  0  0  0  0  0  0  0  0  0  0  0
   -7.7307   17.3508  -36.3948 H   0  0  0  0  0  0  0  0  0  0  0  0
  -10.8103   13.8863  -38.6806 H   0  0  0  0  0  0  0  0  0  0  0  0
  -15.5537   15.3795  -36.9768 H   0  0  0  0  0  0  0  0  0  0  0  0
  -14.3530   15.4283  -40.8694 H   0  0  0  0  0  0  0  0  0  0  0  0
  1  3  1  0  0  0  0
  1 13  2  0  0  0  0
  1 16  1  0  0  0  0
  2  4  1  0  0  0  0
  2  5  1  0  0  0  0
  3  4  1  0  0  0  0
  3 12  1  0  0  0  0
  4  6  1  0  0  0  0
  5  7  1  0  0  0  0
  5 12  1  0  0  0  0
  6  7  1  0  0  0  0
  6 14  1  0  0  0  0
  7 15  1  0  0  0  0
  8 11  1  0  0  0  0
  9 11  1  0  0  0  0
 10 11  1  0  0  0  0
 11 16  1  0  0  0  0
  2 17  1  0  0  0  0
  2 18  1  0  0  0  0
  3 19  1  0  0  0  0
  4 20  1  0  0  0  0
  5 21  1  0  0  0  0
  6 22  1  0  0  0  0
  7 23  1  0  0  0  0
  8 24  1  0  0  0  0
  8 25  1  0  0  0  0
  8 26  1  0  0  0  0
  9 27  1  0  0  0  0
  9 28  1  0  0  0  0
  9 29  1  0  0  0  0
 10 30  1  0  0  0  0
 10 31  1  0  0  0  0
 10 32  1  0  0  0  0
 12 33  1  0  0  0  0
 14 34  1  0  0  0  0
 15 35  1  0  0  0  0
M  END
> <id>
EN300-27727917

> <smiles>
CC(C)(C)OC(=O)C1NC2CC1C(O)C2O

> <IUPAC Name>
tert-butyl 5,6-dihydroxy-2-azabicyclo[2.2.1]heptane-3-carboxylate

> <CAS>
2580183-35-1

> <URL>
https://www.enaminestore.com/catalog/EN300-27727917

> <ROCS_ShapeQuery>
_x1247relevant_x1083L0AP1_x1305L0BP1_

> <ROCS_TanimotoCombo>
0.888 

> <ROCS_ShapeTanimoto>
0.483 

> <ROCS_ColorTanimoto>
0.405 

> <ROCS_RefTversky>
0.417 

> <ROCS_RefColorTversky>
0.486 

> <ROCS_RefTverskyCombo>
0.903 

> <ROCS_FitTversky>
1.481 

> <ROCS_FitColorTversky>
0.709 

> <ROCS_FitTverskyCombo>
2.190 

> <ROCS_ColorScore>
-10.439

> <ROCS_Overlap>
1229.799

> <ROCS_Rank>
14                  

$$$$
untitled-dbase-122645_5
  -OEChem-06232314393D

 30 32  0     1  0  0  0  0  0999 V2000
  -13.9618   15.8805  -39.0835 C   0  0  0  0  0  0  0  0  0  0  0  0
  -12.8423   16.8260  -38.6465 C   0  0  0  0  0  0  0  0  0  0  0  0
  -13.2171   14.1844  -37.3810 C   0  0  0  0  0  0  0  0  0  0  0  0
   -8.9995   13.3842  -37.4027 C   0  0  0  0  0  0  0  0  0  0  0  0
   -8.4352   14.7724  -37.7034 C   0  0  0  0  0  0  0  0  0  0  0  0
   -9.8228   15.3638  -35.8658 C   0  0  0  0  0  0  0  0  0  0  0  0
  -12.1112   15.1474  -36.9181 C   0  0  1  0  0  0  0  0  0  0  0  0
  -10.9227   14.3938  -36.3215 C   0  0  1  0  0  0  0  0  0  0  0  0
  -13.3226   14.5101  -38.8708 C   0  0  2  0  0  0  0  0  0  0  0  0
  -11.7416   15.8490  -38.2337 C   0  0  1  0  0  0  0  0  0  0  0  0
  -10.4525   13.4421  -37.3366 N   0  0  0  0  0  0  0  0  0  0  0  0
   -9.0764   15.8301  -36.9851 O   0  0  0  0  0  0  0  0  0  0  0  0
  -11.9415   14.7871  -39.1973 O   0  0  0  0  0  0  0  0  0  0  0  0
  -14.8852   16.0162  -38.5129 H   0  0  0  0  0  0  0  0  0  0  0  0
  -14.1833   16.0428  -40.1443 H   0  0  0  0  0  0  0  0  0  0  0  0
  -12.5195   17.4297  -39.5024 H   0  0  0  0  0  0  0  0  0  0  0  0
  -13.1406   17.5026  -37.8405 H   0  0  0  0  0  0  0  0  0  0  0  0
  -12.9165   13.1399  -37.2413 H   0  0  0  0  0  0  0  0  0  0  0  0
  -14.1614   14.3416  -36.8503 H   0  0  0  0  0  0  0  0  0  0  0  0
   -8.6905   12.6791  -38.1798 H   0  0  0  0  0  0  0  0  0  0  0  0
   -8.6054   13.0173  -36.4486 H   0  0  0  0  0  0  0  0  0  0  0  0
   -7.3587   14.8003  -37.4382 H   0  0  0  0  0  0  0  0  0  0  0  0
   -8.4791   14.9974  -38.7920 H   0  0  0  0  0  0  0  0  0  0  0  0
  -10.2337   16.2215  -35.3169 H   0  0  0  0  0  0  0  0  0  0  0  0
   -9.1256   14.8502  -35.1941 H   0  0  0  0  0  0  0  0  0  0  0  0
  -12.4834   15.8607  -36.1743 H   0  0  0  0  0  0  0  0  0  0  0  0
  -11.2934   13.8184  -35.4560 H   0  0  0  0  0  0  0  0  0  0  0  0
  -13.7462   13.7105  -39.4824 H   0  0  0  0  0  0  0  0  0  0  0  0
  -10.7317   16.2639  -38.2764 H   0  0  0  0  0  0  0  0  0  0  0  0
  -10.8188   13.7261  -38.2545 H   0  0  0  0  0  0  0  0  0  0  0  0
  1  2  1  0  0  0  0
  1  9  1  0  0  0  0
  2 10  1  0  0  0  0
  3  7  1  0  0  0  0
  3  9  1  0  0  0  0
  4  5  1  0  0  0  0
  4 11  1  0  0  0  0
  5 12  1  0  0  0  0
  6  8  1  0  0  0  0
  6 12  1  0  0  0  0
  7  8  1  0  0  0  0
  7 10  1  0  0  0  0
  8 11  1  0  0  0  0
  9 13  1  0  0  0  0
 10 13  1  0  0  0  0
  1 14  1  0  0  0  0
  1 15  1  0  0  0  0
  2 16  1  0  0  0  0
  2 17  1  0  0  0  0
  3 18  1  0  0  0  0
  3 19  1  0  0  0  0
  4 20  1  0  0  0  0
  4 21  1  0  0  0  0
  5 22  1  0  0  0  0
  5 23  1  0  0  0  0
  6 24  1  0  0  0  0
  6 25  1  0  0  0  0
  7 26  1  0  0  0  0
  8 27  1  0  0  0  0
  9 28  1  0  0  0  0
 10 29  1  0  0  0  0
 11 30  1  0  0  0  0
M  END
> <id>
EN300-1756188

> <smiles>
C1CC2OC1CC2C3COCCN3

> <IUPAC Name>
3-{7-oxabicyclo[2.2.1]heptan-2-yl}morpholine

> <CAS>
2228308-43-6

> <URL>
https://www.enaminestore.com/catalog/EN300-1756188

> <ROCS_ShapeQuery>
_x1247relevant_x1083L0AP1_x1305L0BP1_

> <ROCS_TanimotoCombo>
0.887 

> <ROCS_ShapeTanimoto>
0.490 

> <ROCS_ColorTanimoto>
0.396 

> <ROCS_RefTversky>
0.408 

> <ROCS_RefColorTversky>
0.442 

> <ROCS_RefTverskyCombo>
0.850 

> <ROCS_FitTversky>
1.695 

> <ROCS_FitColorTversky>
0.793 

> <ROCS_FitTverskyCombo>
2.489 

> <ROCS_ColorScore>
-9.424

> <ROCS_Overlap>
1200.479

> <ROCS_Rank>
15                  

$$$$
untitled-dbase-147864_0
  -OEChem-06232314393D

 30 32  0     1  0  0  0  0  0999 V2000
  -10.1043   15.2683  -36.4117 C   0  0  0  0  0  0  0  0  0  0  0  0
  -14.1994   14.6323  -38.2915 C   0  0  0  0  0  0  0  0  0  0  0  0
  -13.0631   16.4802  -39.5844 C   0  0  0  0  0  0  0  0  0  0  0  0
  -12.0642   14.3616  -39.6418 C   0  0  0  0  0  0  0  0  0  0  0  0
  -12.8961   16.4473  -37.1246 C   0  0  0  0  0  0  0  0  0  0  0  0
  -12.3114   14.0559  -36.6354 C   0  0  0  0  0  0  0  0  0  0  0  0
  -13.4471   15.0042  -39.5920 C   0  0  1  0  0  0  0  0  0  0  0  0
  -13.4624   15.0322  -36.9819 C   0  0  2  0  0  0  0  0  0  0  0  0
  -12.0683   16.5017  -38.4214 C   0  0  1  0  0  0  0  0  0  0  0  0
  -11.2255   15.1923  -38.6373 C   0  0  1  0  0  0  0  0  0  0  0  0
  -10.9857   14.4202  -37.3294 C   0  0  1  0  0  0  0  0  0  0  0  0
  -10.1609   13.2250  -37.5069 N   0  0  0  0  0  0  0  0  0  0  0  0
   -8.9932   15.6144  -36.9004 O   0  5  0  0  0  0  0  0  0  0  0  0
  -10.6031   15.5147  -35.2778 O   0  0  0  0  0  0  0  0  0  0  0  0
  -15.1682   15.1490  -38.3056 H   0  0  0  0  0  0  0  0  0  0  0  0
  -14.4215   13.5586  -38.2845 H   0  0  0  0  0  0  0  0  0  0  0  0
  -12.5719   16.7664  -40.5225 H   0  0  0  0  0  0  0  0  0  0  0  0
  -13.9223   17.1423  -39.4373 H   0  0  0  0  0  0  0  0  0  0  0  0
  -12.1003   13.2888  -39.4338 H   0  0  0  0  0  0  0  0  0  0  0  0
  -11.6383   14.4782  -40.6469 H   0  0  0  0  0  0  0  0  0  0  0  0
  -13.7097   17.1828  -37.1551 H   0  0  0  0  0  0  0  0  0  0  0  0
  -12.2858   16.7119  -36.2543 H   0  0  0  0  0  0  0  0  0  0  0  0
  -12.1755   14.0552  -35.5456 H   0  0  0  0  0  0  0  0  0  0  0  0
  -12.6274   13.0359  -36.8910 H   0  0  0  0  0  0  0  0  0  0  0  0
  -14.0475   14.7409  -40.4683 H   0  0  0  0  0  0  0  0  0  0  0  0
  -14.1886   15.0004  -36.1604 H   0  0  0  0  0  0  0  0  0  0  0  0
  -11.4465   17.4023  -38.4401 H   0  0  0  0  0  0  0  0  0  0  0  0
  -10.2701   15.4565  -39.1106 H   0  0  0  0  0  0  0  0  0  0  0  0
   -9.3027   13.5014  -37.9198 H   0  0  0  0  0  0  0  0  0  0  0  0
  -10.0088   12.8210  -36.6141 H   0  0  0  0  0  0  0  0  0  0  0  0
  1 11  1  0  0  0  0
  1 13  1  0  0  0  0
  1 14  2  0  0  0  0
  2  7  1  0  0  0  0
  2  8  1  0  0  0  0
  3  7  1  0  0  0  0
  3  9  1  0  0  0  0
  4  7  1  0  0  0  0
  4 10  1  0  0  0  0
  5  8  1  0  0  0  0
  5  9  1  0  0  0  0
  6  8  1  0  0  0  0
  6 11  1  0  0  0  0
  9 10  1  0  0  0  0
 10 11  1  0  0  0  0
 11 12  1  0  0  0  0
  2 15  1  0  0  0  0
  2 16  1  0  0  0  0
  3 17  1  0  0  0  0
  3 18  1  0  0  0  0
  4 19  1  0  0  0  0
  4 20  1  0  0  0  0
  5 21  1  0  0  0  0
  5 22  1  0  0  0  0
  6 23  1  0  0  0  0
  6 24  1  0  0  0  0
  7 25  1  0  0  0  0
  8 26  1  0  0  0  0
  9 27  1  0  0  0  0
 10 28  1  0  0  0  0
 12 29  1  0  0  0  0
 12 30  1  0  0  0  0
M  CHG  1  13  -1
M  END
> <id>
EN300-27777693

> <smiles>
[K+].NC1(CC2CC3CC(C2)C1C3)C(=O)[O-]

> <MDLNUMBER>
MFCD33549569

> <IUPAC Name>
potassium 4-aminotricyclo[4.3.1.0,3,8]decane-4-carboxylate

> <CAS>
2639426-25-6

> <Purity>
95

> <URL>
https://www.enaminestore.com/catalog/EN300-27777693

> <Saltdate>
[K+]

> <ROCS_ShapeQuery>
_x1247relevant_x1083L0AP1_x1305L0BP1_

> <ROCS_TanimotoCombo>
0.886 

> <ROCS_ShapeTanimoto>
0.507 

> <ROCS_ColorTanimoto>
0.380 

> <ROCS_RefTversky>
0.423 

> <ROCS_RefColorTversky>
0.491 

> <ROCS_RefTverskyCombo>
0.914 

> <ROCS_FitTversky>
1.640 

> <ROCS_FitColorTversky>
0.625 

> <ROCS_FitTverskyCombo>
2.265 

> <ROCS_ColorScore>
-10.607

> <ROCS_Overlap>
1245.224

> <ROCS_Rank>
16                  

$$$$
untitled-dbase-155460_2
  -OEChem-06232314393D

 24 25  0     1  0  0  0  0  0999 V2000
  -13.2817   16.3540  -40.2589 C   0  0  0  0  0  0  0  0  0  0  0  0
  -10.1300   14.9810  -36.6559 C   0  0  0  0  0  0  0  0  0  0  0  0
  -13.3465   16.1794  -37.7162 C   0  0  0  0  0  0  0  0  0  0  0  0
  -11.3114   15.6232  -38.8272 C   0  0  0  0  0  0  0  0  0  0  0  0
  -13.2091   13.8600  -37.6205 C   0  0  0  0  0  0  0  0  0  0  0  0
  -12.6291   15.0957  -36.9303 C   0  0  1  0  0  0  0  0  0  0  0  0
  -12.8300   15.6271  -39.0392 C   0  0  2  0  0  0  0  0  0  0  0  0
   -8.8170   15.1193  -37.3829 C   0  0  0  0  0  0  0  0  0  0  0  0
  -11.2509   15.2366  -37.4155 N   0  0  0  0  0  0  0  0  0  0  0  0
  -12.5424   16.8979  -41.0658 O   0  0  0  0  0  0  0  0  0  0  0  0
  -10.1581   14.6590  -35.4676 O   0  0  0  0  0  0  0  0  0  0  0  0
  -13.2762   14.2581  -39.0193 O   0  0  0  0  0  0  0  0  0  0  0  0
  -14.6336   16.3343  -40.3548 O   0  0  0  0  0  0  0  0  0  0  0  0
   -9.0210   15.4752  -38.6639 F   0  0  0  0  0  0  0  0  0  0  0  0
   -8.0494   16.0588  -36.8017 F   0  0  0  0  0  0  0  0  0  0  0  0
   -8.1405   13.9566  -37.3712 F   0  0  0  0  0  0  0  0  0  0  0  0
  -14.4365   16.1251  -37.6191 H   0  0  0  0  0  0  0  0  0  0  0  0
  -13.0049   17.1960  -37.4942 H   0  0  0  0  0  0  0  0  0  0  0  0
  -10.7909   14.8749  -39.4324 H   0  0  0  0  0  0  0  0  0  0  0  0
  -10.8473   16.6064  -38.9526 H   0  0  0  0  0  0  0  0  0  0  0  0
  -12.5861   12.9658  -37.5226 H   0  0  0  0  0  0  0  0  0  0  0  0
  -14.2264   13.6356  -37.2840 H   0  0  0  0  0  0  0  0  0  0  0  0
  -12.7138   15.1101  -35.8428 H   0  0  0  0  0  0  0  0  0  0  0  0
  -15.0467   15.8478  -39.6098 H   0  0  0  0  0  0  0  0  0  0  0  0
  1  7  1  1  0  0  0
  1 10  2  0  0  0  0
  1 13  1  0  0  0  0
  2  8  1  0  0  0  0
  2  9  1  0  0  0  0
  2 11  2  0  0  0  0
  3  6  1  0  0  0  0
  3  7  1  0  0  0  0
  4  7  1  0  0  0  0
  4  9  1  0  0  0  0
  5  6  1  6  0  0  0
  5 12  1  0  0  0  0
  6  9  1  0  0  0  0
  7 12  1  0  0  0  0
  8 14  1  0  0  0  0
  8 15  1  0  0  0  0
  8 16  1  0  0  0  0
  3 17  1  0  0  0  0
  3 18  1  0  0  0  0
  4 19  1  0  0  0  0
  4 20  1  0  0  0  0
  5 21  1  0  0  0  0
  5 22  1  0  0  0  0
  6 23  1  0  0  0  0
 13 24  1  0  0  0  0
M  END
> <id>
EN300-28276565

> <smiles>
OC(=O)[C@]1(C[C@H]2CO1)CN2C(=O)C(F)(F)F

> <IUPAC Name>
(1S,4S)-5-(2,2,2-trifluoroacetyl)-2-oxa-5-azabicyclo[2.2.1]heptane-1-carboxylic acid

> <CAS>
2679832-28-9

> <URL>
https://www.enaminestore.com/catalog/EN300-28276565

> <ROCS_ShapeQuery>
_x1247relevant_x1083L0AP1_x1305L0BP1_

> <ROCS_TanimotoCombo>
0.886 

> <ROCS_ShapeTanimoto>
0.527 

> <ROCS_ColorTanimoto>
0.358 

> <ROCS_RefTversky>
0.447 

> <ROCS_RefColorTversky>
0.412 

> <ROCS_RefTverskyCombo>
0.859 

> <ROCS_FitTversky>
1.519 

> <ROCS_FitColorTversky>
0.734 

> <ROCS_FitTverskyCombo>
2.253 

> <ROCS_ColorScore>
-8.784

> <ROCS_Overlap>
1317.735

> <ROCS_Rank>
17                  

$$$$
untitled-dbase-144211_18
  -OEChem-06232314393D

 26 27  0     1  0  0  0  0  0999 V2000
  -10.4913   14.8594  -36.4190 C   0  0  0  0  0  0  0  0  0  0  0  0
  -11.7837   16.3605  -38.8262 C   0  0  0  0  0  0  0  0  0  0  0  0
  -11.8593   14.8163  -37.0222 C   0  0  1  0  0  0  0  0  0  0  0  0
  -12.3767   16.2049  -37.4276 C   0  0  2  0  0  0  0  0  0  0  0  0
  -12.3632   15.0312  -39.2989 C   0  0  2  0  0  0  0  0  0  0  0  0
  -13.8788   16.1132  -37.7724 C   0  0  1  0  0  0  0  0  0  0  0  0
  -13.8701   15.1843  -39.0006 C   0  0  1  0  0  0  0  0  0  0  0  0
   -8.2876   15.6169  -36.8108 C   0  0  0  0  0  0  0  0  0  0  0  0
  -11.7912   14.0866  -38.3097 N   0  0  0  0  0  0  0  0  0  0  0  0
  -10.2080   14.3820  -35.3286 O   0  0  0  0  0  0  0  0  0  0  0  0
  -14.6326   15.5732  -36.7040 O   0  0  0  0  0  0  0  0  0  0  0  0
  -14.5056   15.8185  -40.1025 O   0  0  0  0  0  0  0  0  0  0  0  0
   -9.6393   15.5031  -37.2668 O   0  0  0  0  0  0  0  0  0  0  0  0
  -12.1766   17.2260  -39.3705 H   0  0  0  0  0  0  0  0  0  0  0  0
  -10.6894   16.3920  -38.8436 H   0  0  0  0  0  0  0  0  0  0  0  0
  -12.5162   14.2956  -36.3190 H   0  0  0  0  0  0  0  0  0  0  0  0
  -12.1293   17.0025  -36.7233 H   0  0  0  0  0  0  0  0  0  0  0  0
  -12.1293   14.7741  -40.3348 H   0  0  0  0  0  0  0  0  0  0  0  0
  -14.2815   17.1047  -38.0123 H   0  0  0  0  0  0  0  0  0  0  0  0
  -14.3634   14.2211  -38.8282 H   0  0  0  0  0  0  0  0  0  0  0  0
   -7.6928   16.1454  -37.5599 H   0  0  0  0  0  0  0  0  0  0  0  0
   -7.8746   14.6196  -36.6396 H   0  0  0  0  0  0  0  0  0  0  0  0
   -8.2744   16.1801  -35.8747 H   0  0  0  0  0  0  0  0  0  0  0  0
  -10.8173   13.9102  -38.5585 H   0  0  0  0  0  0  0  0  0  0  0  0
  -15.5611   15.5466  -36.9929 H   0  0  0  0  0  0  0  0  0  0  0  0
  -14.3620   15.2480  -40.8749 H   0  0  0  0  0  0  0  0  0  0  0  0
  1  3  1  0  0  0  0
  1 10  2  0  0  0  0
  1 13  1  0  0  0  0
  2  4  1  0  0  0  0
  2  5  1  0  0  0  0
  3  4  1  0  0  0  0
  3  9  1  0  0  0  0
  4  6  1  0  0  0  0
  5  7  1  0  0  0  0
  5  9  1  0  0  0  0
  6  7  1  0  0  0  0
  6 11  1  0  0  0  0
  7 12  1  0  0  0  0
  8 13  1  0  0  0  0
  2 14  1  0  0  0  0
  2 15  1  0  0  0  0
  3 16  1  0  0  0  0
  4 17  1  0  0  0  0
  5 18  1  0  0  0  0
  6 19  1  0  0  0  0
  7 20  1  0  0  0  0
  8 21  1  0  0  0  0
  8 22  1  0  0  0  0
  8 23  1  0  0  0  0
  9 24  1  0  0  0  0
 11 25  1  0  0  0  0
 12 26  1  0  0  0  0
M  END
> <id>
EN300-27727916

> <smiles>
COC(=O)C1NC2CC1C(O)C2O

> <IUPAC Name>
methyl 5,6-dihydroxy-2-azabicyclo[2.2.1]heptane-3-carboxylate

> <CAS>
2580177-71-3

> <URL>
https://www.enaminestore.com/catalog/EN300-27727916

> <ROCS_ShapeQuery>
_x1247relevant_x1083L0AP1_x1305L0BP1_

> <ROCS_TanimotoCombo>
0.884 

> <ROCS_ShapeTanimoto>
0.469 

> <ROCS_ColorTanimoto>
0.415 

> <ROCS_RefTversky>
0.396 

> <ROCS_RefColorTversky>
0.482 

> <ROCS_RefTverskyCombo>
0.878 

> <ROCS_FitTversky>
1.650 

> <ROCS_FitColorTversky>
0.750 

> <ROCS_FitTverskyCombo>
2.400 

> <ROCS_ColorScore>
-10.329

> <ROCS_Overlap>
1163.795

> <ROCS_Rank>
18                  

$$$$
untitled-dbase-102978_44
  -OEChem-06232314393D

 26 27  0     1  0  0  0  0  0999 V2000
  -10.1802   14.9072  -36.6239 C   0  0  0  0  0  0  0  0  0  0  0  0
  -12.7777   16.4218  -37.6115 C   0  0  0  0  0  0  0  0  0  0  0  0
  -11.1350   14.6735  -37.7594 C   0  0  2  0  0  0  0  0  0  0  0  0
  -11.5358   16.0145  -38.4154 C   0  0  1  0  0  0  0  0  0  0  0  0
  -13.5065   15.1049  -37.8923 C   0  0  2  0  0  0  0  0  0  0  0  0
  -12.5008   14.0541  -37.3591 C   0  0  2  0  0  0  0  0  0  0  0  0
  -12.1483   15.7151  -39.8000 C   0  0  1  0  0  0  0  0  0  0  0  0
  -13.5018   15.0681  -39.4388 C   0  0  2  0  0  0  0  0  0  0  0  0
  -12.6689   13.8597  -35.9218 N   0  0  0  0  0  0  0  0  0  0  0  0
  -10.3909   14.6103  -35.4573 O   0  0  0  0  0  0  0  0  0  0  0  0
   -9.0443   15.4989  -37.0676 O   0  0  0  0  0  0  0  0  0  0  0  0
  -12.2982   16.9263  -40.5239 O   0  0  0  0  0  0  0  0  0  0  0  0
  -14.6064   15.8076  -39.9350 O   0  0  0  0  0  0  0  0  0  0  0  0
  -12.5747   16.5936  -36.5498 H   0  0  0  0  0  0  0  0  0  0  0  0
  -13.2916   17.2976  -38.0213 H   0  0  0  0  0  0  0  0  0  0  0  0
  -10.6136   14.0183  -38.4675 H   0  0  0  0  0  0  0  0  0  0  0  0
  -10.7549   16.7796  -38.4282 H   0  0  0  0  0  0  0  0  0  0  0  0
  -14.5089   15.0472  -37.4586 H   0  0  0  0  0  0  0  0  0  0  0  0
  -12.6471   13.0907  -37.8610 H   0  0  0  0  0  0  0  0  0  0  0  0
  -11.5116   15.0390  -40.3805 H   0  0  0  0  0  0  0  0  0  0  0  0
  -13.5766   14.0401  -39.8091 H   0  0  0  0  0  0  0  0  0  0  0  0
  -13.5867   13.5183  -35.7595 H   0  0  0  0  0  0  0  0  0  0  0  0
  -11.9911   13.2020  -35.6162 H   0  0  0  0  0  0  0  0  0  0  0  0
   -8.4075   15.6619  -36.3394 H   0  0  0  0  0  0  0  0  0  0  0  0
  -12.6846   16.6949  -41.3847 H   0  0  0  0  0  0  0  0  0  0  0  0
  -14.5042   16.7185  -39.6130 H   0  0  0  0  0  0  0  0  0  0  0  0
  1  3  1  1  0  0  0
  1 10  2  0  0  0  0
  1 11  1  0  0  0  0
  2  4  1  1  0  0  0
  2  5  1  1  0  0  0
  3  4  1  0  0  0  0
  3  6  1  0  0  0  0
  4  7  1  0  0  0  0
  5  6  1  0  0  0  0
  5  8  1  0  0  0  0
  6  9  1  1  0  0  0
  7  8  1  0  0  0  0
  7 12  1  1  0  0  0
  8 13  1  1  0  0  0
  2 14  1  0  0  0  0
  2 15  1  0  0  0  0
  3 16  1  0  0  0  0
  4 17  1  0  0  0  0
  5 18  1  0  0  0  0
  6 19  1  0  0  0  0
  7 20  1  0  0  0  0
  8 21  1  0  0  0  0
  9 22  1  0  0  0  0
  9 23  1  0  0  0  0
 11 24  1  0  0  0  0
 12 25  1  0  0  0  0
 13 26  1  0  0  0  0
M  END
> <id>
EN300-26978993

> <smiles>
N[C@@H]1[C@@H]([C@@H]2C[C@H]1[C@@H](O)[C@H]2O)C(=O)O |&1:1,2,3,5,6,8,r|

> <IUPAC Name>
rac-(1R,2S,3R,4S,5S,6R)-3-amino-5,6-dihydroxybicyclo[2.2.1]heptane-2-carboxylic acid

> <CAS>
2490344-54-0

> <Purity>
95

> <URL>
https://www.enaminestore.com/catalog/EN300-26978993

> <ROCS_ShapeQuery>
_x1247relevant_x1083L0AP1_x1305L0BP1_

> <ROCS_TanimotoCombo>
0.882 

> <ROCS_ShapeTanimoto>
0.511 

> <ROCS_ColorTanimoto>
0.372 

> <ROCS_RefTversky>
0.419 

> <ROCS_RefColorTversky>
0.468 

> <ROCS_RefTverskyCombo>
0.887 

> <ROCS_FitTversky>
1.751 

> <ROCS_FitColorTversky>
0.644 

> <ROCS_FitTverskyCombo>
2.395 

> <ROCS_ColorScore>
-10.073

> <ROCS_Overlap>
1231.575

> <ROCS_Rank>
19                  

$$$$
untitled-dbase-68579_13
  -OEChem-06232314393D

 32 34  0     1  0  0  0  0  0999 V2000
  -14.2415   15.6056  -38.1418 C   0  0  0  0  0  0  0  0  0  0  0  0
  -12.3172   16.2443  -39.6034 C   0  0  0  0  0  0  0  0  0  0  0  0
  -13.2928   15.4821  -36.9399 C   0  0  0  0  0  0  0  0  0  0  0  0
  -11.3621   16.1225  -38.4063 C   0  0  0  0  0  0  0  0  0  0  0  0
  -12.5171   14.0543  -38.6862 C   0  0  0  0  0  0  0  0  0  0  0  0
   -9.2266   13.7568  -38.1382 C   0  0  0  0  0  0  0  0  0  0  0  0
   -8.3430   14.7888  -37.4495 C   0  0  0  0  0  0  0  0  0  0  0  0
  -10.0706   15.3524  -35.9595 C   0  0  0  0  0  0  0  0  0  0  0  0
  -13.3658   15.1553  -39.3227 C   0  0  0  0  0  0  0  0  0  0  0  0
  -11.0156   14.3252  -36.5910 C   0  0  1  0  0  0  0  0  0  0  0  0
  -11.9843   14.9742  -37.5830 C   0  0  0  0  0  0  0  0  0  0  0  0
  -10.2494   13.2392  -37.2237 N   0  0  0  0  0  0  0  0  0  0  0  0
   -9.1394   15.8502  -36.9219 O   0  0  0  0  0  0  0  0  0  0  0  0
  -15.0980   14.9340  -38.0149 H   0  0  0  0  0  0  0  0  0  0  0  0
  -14.6219   16.6248  -38.2627 H   0  0  0  0  0  0  0  0  0  0  0  0
  -12.7565   17.2439  -39.6792 H   0  0  0  0  0  0  0  0  0  0  0  0
  -11.7799   16.0352  -40.5354 H   0  0  0  0  0  0  0  0  0  0  0  0
  -13.1623   16.4391  -36.4237 H   0  0  0  0  0  0  0  0  0  0  0  0
  -13.6948   14.7612  -36.2183 H   0  0  0  0  0  0  0  0  0  0  0  0
  -10.3547   15.8685  -38.7560 H   0  0  0  0  0  0  0  0  0  0  0  0
  -11.2982   17.0574  -37.8396 H   0  0  0  0  0  0  0  0  0  0  0  0
  -13.1122   13.2171  -38.3053 H   0  0  0  0  0  0  0  0  0  0  0  0
  -11.7343   13.6742  -39.3518 H   0  0  0  0  0  0  0  0  0  0  0  0
   -9.7145   14.2023  -39.0159 H   0  0  0  0  0  0  0  0  0  0  0  0
   -8.6165   12.9174  -38.5038 H   0  0  0  0  0  0  0  0  0  0  0  0
   -7.8106   14.3251  -36.6129 H   0  0  0  0  0  0  0  0  0  0  0  0
   -7.5909   15.2008  -38.1334 H   0  0  0  0  0  0  0  0  0  0  0  0
  -10.6172   16.1972  -35.5140 H   0  0  0  0  0  0  0  0  0  0  0  0
   -9.4895   14.8849  -35.1536 H   0  0  0  0  0  0  0  0  0  0  0  0
  -13.9377   14.8605  -40.2046 H   0  0  0  0  0  0  0  0  0  0  0  0
  -11.6319   13.8685  -35.7765 H   0  0  0  0  0  0  0  0  0  0  0  0
  -10.8924   12.6396  -37.7511 H   0  0  0  0  0  0  0  0  0  0  0  0
  1  3  1  0  0  0  0
  1  9  1  0  0  0  0
  2  4  1  0  0  0  0
  2  9  1  0  0  0  0
  3 11  1  0  0  0  0
  4 11  1  0  0  0  0
  5  9  1  0  0  0  0
  5 11  1  0  0  0  0
  6  7  1  0  0  0  0
  6 12  1  0  0  0  0
  7 13  1  0  0  0  0
  8 10  1  0  0  0  0
  8 13  1  0  0  0  0
 10 11  1  0  0  0  0
 10 12  1  0  0  0  0
  1 14  1  0  0  0  0
  1 15  1  0  0  0  0
  2 16  1  0  0  0  0
  2 17  1  0  0  0  0
  3 18  1  0  0  0  0
  3 19  1  0  0  0  0
  4 20  1  0  0  0  0
  4 21  1  0  0  0  0
  5 22  1  0  0  0  0
  5 23  1  0  0  0  0
  6 24  1  0  0  0  0
  6 25  1  0  0  0  0
  7 26  1  0  0  0  0
  7 27  1  0  0  0  0
  8 28  1  0  0  0  0
  8 29  1  0  0  0  0
  9 30  1  0  0  0  0
 10 31  1  0  0  0  0
 12 32  1  0  0  0  0
M  END
> <id>
EN300-37409318

> <smiles>
Cl.C1CC2(CCC1C2)C3COCCN3

> <IUPAC Name>
3-{bicyclo[2.2.1]heptan-1-yl}morpholine hydrochloride

> <URL>
https://www.enaminestore.com/catalog/EN300-37409318

> <ROCS_ShapeQuery>
_x1247relevant_x1083L0AP1_x1305L0BP1_

> <ROCS_TanimotoCombo>
0.882 

> <ROCS_ShapeTanimoto>
0.492 

> <ROCS_ColorTanimoto>
0.390 

> <ROCS_RefTversky>
0.409 

> <ROCS_RefColorTversky>
0.424 

> <ROCS_RefTverskyCombo>
0.833 

> <ROCS_FitTversky>
1.709 

> <ROCS_FitColorTversky>
0.828 

> <ROCS_FitTverskyCombo>
2.537 

> <ROCS_ColorScore>
-9.024

> <ROCS_Overlap>
1202.036

> <ROCS_Rank>
20                  

$$$$
untitled-dbase-75071_13
  -OEChem-06232314393D

 32 34  0     1  0  0  0  0  0999 V2000
  -14.2415   15.6056  -38.1418 C   0  0  0  0  0  0  0  0  0  0  0  0
  -12.3172   16.2443  -39.6034 C   0  0  0  0  0  0  0  0  0  0  0  0
  -13.2928   15.4821  -36.9399 C   0  0  0  0  0  0  0  0  0  0  0  0
  -11.3621   16.1225  -38.4063 C   0  0  0  0  0  0  0  0  0  0  0  0
  -12.5171   14.0543  -38.6862 C   0  0  0  0  0  0  0  0  0  0  0  0
   -9.2266   13.7568  -38.1382 C   0  0  0  0  0  0  0  0  0  0  0  0
   -8.3430   14.7888  -37.4495 C   0  0  0  0  0  0  0  0  0  0  0  0
  -10.0706   15.3524  -35.9595 C   0  0  0  0  0  0  0  0  0  0  0  0
  -13.3658   15.1553  -39.3227 C   0  0  0  0  0  0  0  0  0  0  0  0
  -11.0156   14.3252  -36.5910 C   0  0  1  0  0  0  0  0  0  0  0  0
  -11.9843   14.9742  -37.5830 C   0  0  0  0  0  0  0  0  0  0  0  0
  -10.2494   13.2392  -37.2237 N   0  0  0  0  0  0  0  0  0  0  0  0
   -9.1394   15.8502  -36.9219 O   0  0  0  0  0  0  0  0  0  0  0  0
  -15.0980   14.9340  -38.0149 H   0  0  0  0  0  0  0  0  0  0  0  0
  -14.6219   16.6248  -38.2627 H   0  0  0  0  0  0  0  0  0  0  0  0
  -12.7565   17.2439  -39.6792 H   0  0  0  0  0  0  0  0  0  0  0  0
  -11.7799   16.0352  -40.5354 H   0  0  0  0  0  0  0  0  0  0  0  0
  -13.1623   16.4391  -36.4237 H   0  0  0  0  0  0  0  0  0  0  0  0
  -13.6948   14.7612  -36.2183 H   0  0  0  0  0  0  0  0  0  0  0  0
  -10.3547   15.8685  -38.7560 H   0  0  0  0  0  0  0  0  0  0  0  0
  -11.2982   17.0574  -37.8396 H   0  0  0  0  0  0  0  0  0  0  0  0
  -13.1122   13.2171  -38.3053 H   0  0  0  0  0  0  0  0  0  0  0  0
  -11.7343   13.6742  -39.3518 H   0  0  0  0  0  0  0  0  0  0  0  0
   -9.7145   14.2023  -39.0159 H   0  0  0  0  0  0  0  0  0  0  0  0
   -8.6165   12.9174  -38.5038 H   0  0  0  0  0  0  0  0  0  0  0  0
   -7.8106   14.3251  -36.6129 H   0  0  0  0  0  0  0  0  0  0  0  0
   -7.5909   15.2008  -38.1334 H   0  0  0  0  0  0  0  0  0  0  0  0
  -10.6172   16.1972  -35.5140 H   0  0  0  0  0  0  0  0  0  0  0  0
   -9.4895   14.8849  -35.1536 H   0  0  0  0  0  0  0  0  0  0  0  0
  -13.9377   14.8605  -40.2046 H   0  0  0  0  0  0  0  0  0  0  0  0
  -11.6319   13.8685  -35.7765 H   0  0  0  0  0  0  0  0  0  0  0  0
  -10.8924   12.6396  -37.7511 H   0  0  0  0  0  0  0  0  0  0  0  0
  1  3  1  0  0  0  0
  1  9  1  0  0  0  0
  2  4  1  0  0  0  0
  2  9  1  0  0  0  0
  3 11  1  0  0  0  0
  4 11  1  0  0  0  0
  5  9  1  0  0  0  0
  5 11  1  0  0  0  0
  6  7  1  0  0  0  0
  6 12  1  0  0  0  0
  7 13  1  0  0  0  0
  8 10  1  0  0  0  0
  8 13  1  0  0  0  0
 10 11  1  0  0  0  0
 10 12  1  0  0  0  0
  1 14  1  0  0  0  0
  1 15  1  0  0  0  0
  2 16  1  0  0  0  0
  2 17  1  0  0  0  0
  3 18  1  0  0  0  0
  3 19  1  0  0  0  0
  4 20  1  0  0  0  0
  4 21  1  0  0  0  0
  5 22  1  0  0  0  0
  5 23  1  0  0  0  0
  6 24  1  0  0  0  0
  6 25  1  0  0  0  0
  7 26  1  0  0  0  0
  7 27  1  0  0  0  0
  8 28  1  0  0  0  0
  8 29  1  0  0  0  0
  9 30  1  0  0  0  0
 10 31  1  0  0  0  0
 12 32  1  0  0  0  0
M  END
> <id>
EN300-37409319

> <smiles>
C1CC2(CCC1C2)C3COCCN3

> <IUPAC Name>
3-{bicyclo[2.2.1]heptan-1-yl}morpholine

> <CAS>
2803852-08-4

> <Purity>
95

> <URL>
https://www.enaminestore.com/catalog/EN300-37409319

> <ROCS_ShapeQuery>
_x1247relevant_x1083L0AP1_x1305L0BP1_

> <ROCS_TanimotoCombo>
0.882 

> <ROCS_ShapeTanimoto>
0.492 

> <ROCS_ColorTanimoto>
0.390 

> <ROCS_RefTversky>
0.409 

> <ROCS_RefColorTversky>
0.424 

> <ROCS_RefTverskyCombo>
0.833 

> <ROCS_FitTversky>
1.709 

> <ROCS_FitColorTversky>
0.828 

> <ROCS_FitTverskyCombo>
2.537 

> <ROCS_ColorScore>
-9.024

> <ROCS_Overlap>
1202.036

> <ROCS_Rank>
21                  

$$$$
untitled-dbase-143154_22
  -OEChem-06232314393D

 44 46  0     1  0  0  0  0  0999 V2000
   -8.9851   14.2352  -37.0379 C   0  0  0  0  0  0  0  0  0  0  0  0
  -14.1802   15.1443  -37.4091 C   0  0  0  0  0  0  0  0  0  0  0  0
  -12.7101   17.0562  -38.1004 C   0  0  0  0  0  0  0  0  0  0  0  0
  -11.8103   15.2631  -36.5947 C   0  0  0  0  0  0  0  0  0  0  0  0
  -12.4794   13.5165  -38.2757 C   0  0  0  0  0  0  0  0  0  0  0  0
  -11.0036   15.4368  -38.9705 C   0  0  0  0  0  0  0  0  0  0  0  0
  -13.0573   16.0915  -36.9541 C   0  0  0  0  0  0  0  0  0  0  0  0
  -13.7268   14.3412  -38.6436 C   0  0  2  0  0  0  0  0  0  0  0  0
  -12.2505   16.2622  -39.3388 C   0  0  1  0  0  0  0  0  0  0  0  0
  -13.3648   15.3008  -39.7944 C   0  0  0  0  0  0  0  0  0  0  0  0
  -11.3376   14.4552  -37.8243 C   0  0  0  0  0  0  0  0  0  0  0  0
   -8.6773   13.6505  -34.5063 C   0  0  0  0  0  0  0  0  0  0  0  0
   -7.2498   11.6962  -35.1787 C   0  0  0  0  0  0  0  0  0  0  0  0
   -6.3321   14.0287  -35.3378 C   0  0  0  0  0  0  0  0  0  0  0  0
   -7.5841   13.1605  -35.4547 C   0  0  0  0  0  0  0  0  0  0  0  0
  -10.1654   13.6791  -37.4799 N   0  0  0  0  0  0  0  0  0  0  0  0
   -8.7705   15.4325  -36.8796 O   0  0  0  0  0  0  0  0  0  0  0  0
  -14.5221   16.0268  -40.1954 O   0  0  0  0  0  0  0  0  0  0  0  0
   -8.0740   13.2455  -36.7976 O   0  0  0  0  0  0  0  0  0  0  0  0
  -14.4427   14.4580  -36.5942 H   0  0  0  0  0  0  0  0  0  0  0  0
  -15.0857   15.7188  -37.6383 H   0  0  0  0  0  0  0  0  0  0  0  0
  -13.5813   17.6750  -38.3466 H   0  0  0  0  0  0  0  0  0  0  0  0
  -11.9161   17.7434  -37.7826 H   0  0  0  0  0  0  0  0  0  0  0  0
  -11.0126   15.9328  -36.2481 H   0  0  0  0  0  0  0  0  0  0  0  0
  -12.0460   14.5880  -35.7617 H   0  0  0  0  0  0  0  0  0  0  0  0
  -12.7319   12.8086  -37.4755 H   0  0  0  0  0  0  0  0  0  0  0  0
  -12.1642   12.9209  -39.1423 H   0  0  0  0  0  0  0  0  0  0  0  0
  -10.6526   14.8875  -39.8538 H   0  0  0  0  0  0  0  0  0  0  0  0
  -10.1925   16.1133  -38.6710 H   0  0  0  0  0  0  0  0  0  0  0  0
  -13.3863   16.6613  -36.0780 H   0  0  0  0  0  0  0  0  0  0  0  0
  -14.5431   13.6781  -38.9527 H   0  0  0  0  0  0  0  0  0  0  0  0
  -12.0124   16.9685  -40.1426 H   0  0  0  0  0  0  0  0  0  0  0  0
  -13.0308   14.7224  -40.6644 H   0  0  0  0  0  0  0  0  0  0  0  0
   -8.9201   14.7012  -34.7012 H   0  0  0  0  0  0  0  0  0  0  0  0
   -9.5927   13.0579  -34.6054 H   0  0  0  0  0  0  0  0  0  0  0  0
   -8.3428   13.5988  -33.4639 H   0  0  0  0  0  0  0  0  0  0  0  0
   -6.4658   11.3404  -35.8569 H   0  0  0  0  0  0  0  0  0  0  0  0
   -8.1227   11.0569  -35.3537 H   0  0  0  0  0  0  0  0  0  0  0  0
   -6.9112   11.5463  -34.1484 H   0  0  0  0  0  0  0  0  0  0  0  0
   -5.5477   13.6775  -36.0180 H   0  0  0  0  0  0  0  0  0  0  0  0
   -6.5455   15.0774  -35.5687 H   0  0  0  0  0  0  0  0  0  0  0  0
   -5.9124   13.9731  -34.3269 H   0  0  0  0  0  0  0  0  0  0  0  0
  -10.2159   12.6702  -37.5687 H   0  0  0  0  0  0  0  0  0  0  0  0
  -14.2456   16.6134  -40.9170 H   0  0  0  0  0  0  0  0  0  0  0  0
  1 16  1  0  0  0  0
  1 17  2  0  0  0  0
  1 19  1  0  0  0  0
  2  7  1  0  0  0  0
  2  8  1  0  0  0  0
  3  7  1  0  0  0  0
  3  9  1  0  0  0  0
  4  7  1  0  0  0  0
  4 11  1  0  0  0  0
  5  8  1  0  0  0  0
  5 11  1  0  0  0  0
  6  9  1  0  0  0  0
  6 11  1  0  0  0  0
  8 10  1  0  0  0  0
  9 10  1  0  0  0  0
 10 18  1  0  0  0  0
 11 16  1  0  0  0  0
 12 15  1  0  0  0  0
 13 15  1  0  0  0  0
 14 15  1  0  0  0  0
 15 19  1  0  0  0  0
  2 20  1  0  0  0  0
  2 21  1  0  0  0  0
  3 22  1  0  0  0  0
  3 23  1  0  0  0  0
  4 24  1  0  0  0  0
  4 25  1  0  0  0  0
  5 26  1  0  0  0  0
  5 27  1  0  0  0  0
  6 28  1  0  0  0  0
  6 29  1  0  0  0  0
  7 30  1  0  0  0  0
  8 31  1  0  0  0  0
  9 32  1  0  0  0  0
 10 33  1  0  0  0  0
 12 34  1  0  0  0  0
 12 35  1  0  0  0  0
 12 36  1  0  0  0  0
 13 37  1  0  0  0  0
 13 38  1  0  0  0  0
 13 39  1  0  0  0  0
 14 40  1  0  0  0  0
 14 41  1  0  0  0  0
 14 42  1  0  0  0  0
 16 43  1  0  0  0  0
 18 44  1  0  0  0  0
M  END
> <id>
EN300-27718406

> <smiles>
CC(C)(C)OC(=O)NC1(CC2CC3C1)CC(C2)C3O

> <IUPAC Name>
tert-butyl N-(4-hydroxyadamantan-1-yl)carbamate

> <CAS>
2136254-89-0

> <URL>
https://www.enaminestore.com/catalog/EN300-27718406

> <ROCS_ShapeQuery>
_x1247relevant_x1083L0AP1_x1305L0BP1_

> <ROCS_TanimotoCombo>
0.880 

> <ROCS_ShapeTanimoto>
0.499 

> <ROCS_ColorTanimoto>
0.381 

> <ROCS_RefTversky>
0.442 

> <ROCS_RefColorTversky>
0.431 

> <ROCS_RefTverskyCombo>
0.872 

> <ROCS_FitTversky>
1.353 

> <ROCS_FitColorTversky>
0.767 

> <ROCS_FitTverskyCombo>
2.120 

> <ROCS_ColorScore>
-9.190

> <ROCS_Overlap>
1304.509

> <ROCS_Rank>
22                  

$$$$
untitled-dbase-112657_5
  -OEChem-06232314393D

 31 33  0     1  0  0  0  0  0999 V2000
  -13.8786   15.1519  -37.2782 C   0  0  0  0  0  0  0  0  0  0  0  0
  -13.5900   13.9169  -38.1641 C   0  0  0  0  0  0  0  0  0  0  0  0
  -11.6832   16.4489  -37.4542 C   0  0  0  0  0  0  0  0  0  0  0  0
  -11.2004   14.3733  -38.9466 C   0  0  0  0  0  0  0  0  0  0  0  0
   -9.0158   15.2791  -36.3399 C   0  0  0  0  0  0  0  0  0  0  0  0
  -13.1575   16.3673  -37.8884 C   0  0  1  0  0  0  0  0  0  0  0  0
  -12.6900   14.3566  -39.3331 C   0  0  2  0  0  0  0  0  0  0  0  0
   -9.8403   14.1082  -35.8657 C   0  0  2  0  0  0  0  0  0  0  0  0
  -10.8690   15.1441  -37.6482 C   0  0  0  0  0  0  0  0  0  0  0  0
   -9.2545   12.7637  -36.2762 C   0  0  0  0  0  0  0  0  0  0  0  0
  -14.6049   16.0279  -40.0816 O   0  0  0  0  0  0  0  0  0  0  0  0
  -12.2040   16.7781  -40.3488 O   0  0  0  0  0  0  0  0  0  0  0  0
   -9.4676   15.4825  -37.6764 O   0  0  0  0  0  0  0  0  0  0  0  0
  -11.1038   14.2894  -36.5106 O   0  0  0  0  0  0  0  0  0  0  0  0
  -13.2245   16.0340  -39.6433 S   0  0  0  0  0  0  0  0  0  0  0  0
   -8.6250   12.8387  -37.9362 Cl  0  0  0  0  0  0  0  0  0  0  0  0
  -14.9609   15.3334  -37.2812 H   0  0  0  0  0  0  0  0  0  0  0  0
  -13.5984   14.9834  -36.2335 H   0  0  0  0  0  0  0  0  0  0  0  0
  -13.1549   13.0919  -37.5913 H   0  0  0  0  0  0  0  0  0  0  0  0
  -14.5439   13.5464  -38.5607 H   0  0  0  0  0  0  0  0  0  0  0  0
  -11.1910   17.2652  -37.9987 H   0  0  0  0  0  0  0  0  0  0  0  0
  -11.6490   16.7355  -36.3949 H   0  0  0  0  0  0  0  0  0  0  0  0
  -10.8589   13.3341  -38.8426 H   0  0  0  0  0  0  0  0  0  0  0  0
  -10.6176   14.7944  -39.7770 H   0  0  0  0  0  0  0  0  0  0  0  0
   -9.1675   16.1845  -35.7421 H   0  0  0  0  0  0  0  0  0  0  0  0
   -7.9422   15.0509  -36.3733 H   0  0  0  0  0  0  0  0  0  0  0  0
  -13.6816   17.3046  -37.6825 H   0  0  0  0  0  0  0  0  0  0  0  0
  -12.8572   13.7561  -40.2315 H   0  0  0  0  0  0  0  0  0  0  0  0
   -9.9981   14.1387  -34.7892 H   0  0  0  0  0  0  0  0  0  0  0  0
  -10.0167   11.9800  -36.2400 H   0  0  0  0  0  0  0  0  0  0  0  0
   -8.4300   12.4806  -35.6156 H   0  0  0  0  0  0  0  0  0  0  0  0
  1  2  1  0  0  0  0
  1  6  1  0  0  0  0
  2  7  1  0  0  0  0
  3  6  1  0  0  0  0
  3  9  1  0  0  0  0
  4  7  1  0  0  0  0
  4  9  1  0  0  0  0
  5  8  1  0  0  0  0
  5 13  1  0  0  0  0
  6 15  1  0  0  0  0
  7 15  1  0  0  0  0
  8 10  1  0  0  0  0
  8 14  1  0  0  0  0
  9 13  1  0  0  0  0
  9 14  1  0  0  0  0
 10 16  1  0  0  0  0
 11 15  2  0  0  0  0
 12 15  2  0  0  0  0
  1 17  1  0  0  0  0
  1 18  1  0  0  0  0
  2 19  1  0  0  0  0
  2 20  1  0  0  0  0
  3 21  1  0  0  0  0
  3 22  1  0  0  0  0
  4 23  1  0  0  0  0
  4 24  1  0  0  0  0
  5 25  1  0  0  0  0
  5 26  1  0  0  0  0
  6 27  1  0  0  0  0
  7 28  1  0  0  0  0
  8 29  1  0  0  0  0
 10 30  1  0  0  0  0
 10 31  1  0  0  0  0
M  END
> <id>
EN300-1614734

> <smiles>
ClCC1COC2(CC3CCC(C2)S3(=O)=O)O1

> <IUPAC Name>
4'-(chloromethyl)-8lambda6-thiaspiro[bicyclo[3.2.1]octane-3,2'-[1,3]dioxolane]-8,8-dione

> <CAS>
2172251-80-6

> <URL>
https://www.enaminestore.com/catalog/EN300-1614734

> <ROCS_ShapeQuery>
_x1247relevant_x1083L0AP1_x1305L0BP1_

> <ROCS_TanimotoCombo>
0.879 

> <ROCS_ShapeTanimoto>
0.519 

> <ROCS_ColorTanimoto>
0.360 

> <ROCS_RefTversky>
0.436 

> <ROCS_RefColorTversky>
0.405 

> <ROCS_RefTverskyCombo>
0.840 

> <ROCS_FitTversky>
1.585 

> <ROCS_FitColorTversky>
0.765 

> <ROCS_FitTverskyCombo>
2.350 

> <ROCS_ColorScore>
-8.614

> <ROCS_Overlap>
1283.090

> <ROCS_Rank>
23                  

$$$$
untitled-dbase-110471_12
  -OEChem-06232314393D

 27 28  0     1  0  0  0  0  0999 V2000
  -10.1462   15.2615  -36.6715 C   0  0  0  0  0  0  0  0  0  0  0  0
  -13.9471   15.4483  -37.1797 C   0  0  0  0  0  0  0  0  0  0  0  0
  -12.5929   15.4903  -36.4820 C   0  0  0  0  0  0  0  0  0  0  0  0
  -11.3338   16.5402  -38.4375 C   0  0  0  0  0  0  0  0  0  0  0  0
  -12.0758   16.3664  -39.7625 C   0  0  0  0  0  0  0  0  0  0  0  0
  -12.8554   13.6962  -38.6177 C   0  0  0  0  0  0  0  0  0  0  0  0
  -13.8590   14.8619  -38.5956 C   0  0  2  0  0  0  0  0  0  0  0  0
  -11.4257   15.3368  -37.4664 C   0  0  1  0  0  0  0  0  0  0  0  0
  -13.5269   15.9286  -39.6481 C   0  0  0  0  0  0  0  0  0  0  0  0
  -11.5042   14.0447  -38.1591 N   0  0  0  0  0  0  0  0  0  0  0  0
   -9.0541   15.6470  -37.0613 O   0  0  0  0  0  0  0  0  0  0  0  0
  -10.3693   14.7020  -35.4572 O   0  0  0  0  0  0  0  0  0  0  0  0
  -13.8970   15.4447  -40.8712 F   0  0  0  0  0  0  0  0  0  0  0  0
  -14.3092   17.0224  -39.4436 F   0  0  0  0  0  0  0  0  0  0  0  0
  -14.6341   14.8304  -36.5814 H   0  0  0  0  0  0  0  0  0  0  0  0
  -14.4025   16.4491  -37.2047 H   0  0  0  0  0  0  0  0  0  0  0  0
  -12.4953   16.4213  -35.9167 H   0  0  0  0  0  0  0  0  0  0  0  0
  -12.5607   14.6872  -35.7382 H   0  0  0  0  0  0  0  0  0  0  0  0
  -10.2806   16.7643  -38.6465 H   0  0  0  0  0  0  0  0  0  0  0  0
  -11.7281   17.4412  -37.9526 H   0  0  0  0  0  0  0  0  0  0  0  0
  -12.0241   17.3047  -40.3279 H   0  0  0  0  0  0  0  0  0  0  0  0
  -11.5331   15.6336  -40.3717 H   0  0  0  0  0  0  0  0  0  0  0  0
  -13.2382   12.9032  -37.9694 H   0  0  0  0  0  0  0  0  0  0  0  0
  -12.7854   13.2688  -39.6186 H   0  0  0  0  0  0  0  0  0  0  0  0
  -14.8446   14.4522  -38.8598 H   0  0  0  0  0  0  0  0  0  0  0  0
  -11.1738   13.2987  -37.5563 H   0  0  0  0  0  0  0  0  0  0  0  0
   -9.5475   14.6422  -34.9248 H   0  0  0  0  0  0  0  0  0  0  0  0
  1  8  1  0  0  0  0
  1 11  2  0  0  0  0
  1 12  1  0  0  0  0
  2  3  1  0  0  0  0
  2  7  1  0  0  0  0
  3  8  1  0  0  0  0
  4  5  1  0  0  0  0
  4  8  1  0  0  0  0
  5  9  1  0  0  0  0
  6  7  1  0  0  0  0
  6 10  1  0  0  0  0
  7  9  1  0  0  0  0
  8 10  1  0  0  0  0
  9 13  1  0  0  0  0
  9 14  1  0  0  0  0
  2 15  1  0  0  0  0
  2 16  1  0  0  0  0
  3 17  1  0  0  0  0
  3 18  1  0  0  0  0
  4 19  1  0  0  0  0
  4 20  1  0  0  0  0
  5 21  1  0  0  0  0
  5 22  1  0  0  0  0
  6 23  1  0  0  0  0
  6 24  1  0  0  0  0
  7 25  1  0  0  0  0
 10 26  1  0  0  0  0
 12 27  1  0  0  0  0
M  END
> <id>
EN300-109610

> <smiles>
OC(=O)C1(CCC2CN1)CCC2(F)F

> <MDLNUMBER>
MFCD27919992

> <IUPAC Name>
2,2-difluoro-6-azabicyclo[3.2.2]nonane-5-carboxylic acid

> <CAS>
1394116-73-4

> <URL>
https://www.enaminestore.com/catalog/EN300-109610

> <ROCS_ShapeQuery>
_x1247relevant_x1083L0AP1_x1305L0BP1_

> <ROCS_TanimotoCombo>
0.878 

> <ROCS_ShapeTanimoto>
0.496 

> <ROCS_ColorTanimoto>
0.382 

> <ROCS_RefTversky>
0.416 

> <ROCS_RefColorTversky>
0.421 

> <ROCS_RefTverskyCombo>
0.837 

> <ROCS_FitTversky>
1.632 

> <ROCS_FitColorTversky>
0.805 

> <ROCS_FitTverskyCombo>
2.437 

> <ROCS_ColorScore>
-8.962

> <ROCS_Overlap>
1224.901

> <ROCS_Rank>
24                  

$$$$
untitled-dbase-110099_12
  -OEChem-06232314393D

 27 28  0     1  0  0  0  0  0999 V2000
  -10.1462   15.2615  -36.6715 C   0  0  0  0  0  0  0  0  0  0  0  0
  -13.9471   15.4483  -37.1797 C   0  0  0  0  0  0  0  0  0  0  0  0
  -12.5929   15.4903  -36.4820 C   0  0  0  0  0  0  0  0  0  0  0  0
  -11.3338   16.5402  -38.4375 C   0  0  0  0  0  0  0  0  0  0  0  0
  -12.0758   16.3664  -39.7625 C   0  0  0  0  0  0  0  0  0  0  0  0
  -12.8554   13.6962  -38.6177 C   0  0  0  0  0  0  0  0  0  0  0  0
  -13.8590   14.8619  -38.5956 C   0  0  2  0  0  0  0  0  0  0  0  0
  -11.4257   15.3368  -37.4664 C   0  0  1  0  0  0  0  0  0  0  0  0
  -13.5269   15.9286  -39.6481 C   0  0  0  0  0  0  0  0  0  0  0  0
  -11.5042   14.0447  -38.1591 N   0  0  0  0  0  0  0  0  0  0  0  0
   -9.0541   15.6470  -37.0613 O   0  0  0  0  0  0  0  0  0  0  0  0
  -10.3693   14.7020  -35.4572 O   0  0  0  0  0  0  0  0  0  0  0  0
  -13.8970   15.4447  -40.8712 F   0  0  0  0  0  0  0  0  0  0  0  0
  -14.3092   17.0224  -39.4436 F   0  0  0  0  0  0  0  0  0  0  0  0
  -14.6341   14.8304  -36.5814 H   0  0  0  0  0  0  0  0  0  0  0  0
  -14.4025   16.4491  -37.2047 H   0  0  0  0  0  0  0  0  0  0  0  0
  -12.4953   16.4213  -35.9167 H   0  0  0  0  0  0  0  0  0  0  0  0
  -12.5607   14.6872  -35.7382 H   0  0  0  0  0  0  0  0  0  0  0  0
  -10.2806   16.7643  -38.6465 H   0  0  0  0  0  0  0  0  0  0  0  0
  -11.7281   17.4412  -37.9526 H   0  0  0  0  0  0  0  0  0  0  0  0
  -12.0241   17.3047  -40.3279 H   0  0  0  0  0  0  0  0  0  0  0  0
  -11.5331   15.6336  -40.3717 H   0  0  0  0  0  0  0  0  0  0  0  0
  -13.2382   12.9032  -37.9694 H   0  0  0  0  0  0  0  0  0  0  0  0
  -12.7854   13.2688  -39.6186 H   0  0  0  0  0  0  0  0  0  0  0  0
  -14.8446   14.4522  -38.8598 H   0  0  0  0  0  0  0  0  0  0  0  0
  -11.1738   13.2987  -37.5563 H   0  0  0  0  0  0  0  0  0  0  0  0
   -9.5475   14.6422  -34.9248 H   0  0  0  0  0  0  0  0  0  0  0  0
  1  8  1  0  0  0  0
  1 11  2  0  0  0  0
  1 12  1  0  0  0  0
  2  3  1  0  0  0  0
  2  7  1  0  0  0  0
  3  8  1  0  0  0  0
  4  5  1  0  0  0  0
  4  8  1  0  0  0  0
  5  9  1  0  0  0  0
  6  7  1  0  0  0  0
  6 10  1  0  0  0  0
  7  9  1  0  0  0  0
  8 10  1  0  0  0  0
  9 13  1  0  0  0  0
  9 14  1  0  0  0  0
  2 15  1  0  0  0  0
  2 16  1  0  0  0  0
  3 17  1  0  0  0  0
  3 18  1  0  0  0  0
  4 19  1  0  0  0  0
  4 20  1  0  0  0  0
  5 21  1  0  0  0  0
  5 22  1  0  0  0  0
  6 23  1  0  0  0  0
  6 24  1  0  0  0  0
  7 25  1  0  0  0  0
 10 26  1  0  0  0  0
 12 27  1  0  0  0  0
M  END
> <id>
EN300-109778

> <smiles>
Cl.OC(=O)C1(CCC2CN1)CCC2(F)F

> <MDLNUMBER>
MFCD22378703

> <IUPAC Name>
2,2-difluoro-6-azabicyclo[3.2.2]nonane-5-carboxylic acid hydrochloride

> <CAS>
1394042-78-4

> <URL>
https://www.enaminestore.com/catalog/EN300-109778

> <Saltdate>
Cl

> <ROCS_ShapeQuery>
_x1247relevant_x1083L0AP1_x1305L0BP1_

> <ROCS_TanimotoCombo>
0.878 

> <ROCS_ShapeTanimoto>
0.496 

> <ROCS_ColorTanimoto>
0.382 

> <ROCS_RefTversky>
0.416 

> <ROCS_RefColorTversky>
0.421 

> <ROCS_RefTverskyCombo>
0.837 

> <ROCS_FitTversky>
1.632 

> <ROCS_FitColorTversky>
0.805 

> <ROCS_FitTverskyCombo>
2.437 

> <ROCS_ColorScore>
-8.962

> <ROCS_Overlap>
1224.901

> <ROCS_Rank>
25                  

$$$$
untitled-dbase-176752_22
  -OEChem-06232314393D

 25 26  0     1  0  0  0  0  0999 V2000
   -9.8319   15.2745  -36.4951 C   0  0  0  0  0  0  0  0  0  0  0  0
  -13.2569   16.5337  -39.1099 C   0  0  0  0  0  0  0  0  0  0  0  0
  -14.0515   16.0903  -37.8934 C   0  0  0  0  0  0  0  0  0  0  0  0
  -10.9800   15.4704  -38.7038 C   0  0  0  0  0  0  0  0  0  0  0  0
  -12.2764   14.7842  -36.6226 C   0  0  0  0  0  0  0  0  0  0  0  0
  -12.3428   15.3492  -39.4105 C   0  0  1  0  0  0  0  0  0  0  0  0
  -13.4896   14.7112  -37.5693 C   0  0  2  0  0  0  0  0  0  0  0  0
  -10.9253   14.7141  -37.3611 C   0  0  0  0  0  0  0  0  0  0  0  0
  -10.5728   13.3099  -37.6033 N   0  0  0  0  0  0  0  0  0  0  0  0
   -8.7992   15.7808  -36.9083 O   0  0  0  0  0  0  0  0  0  0  0  0
  -13.0559   14.2310  -38.8539 O   0  0  0  0  0  0  0  0  0  0  0  0
  -10.1444   15.1405  -35.1830 O   0  0  0  0  0  0  0  0  0  0  0  0
  -13.9472   16.6882  -39.9482 H   0  0  0  0  0  0  0  0  0  0  0  0
  -12.7150   17.4728  -38.9660 H   0  0  0  0  0  0  0  0  0  0  0  0
  -13.9993   16.7889  -37.0540 H   0  0  0  0  0  0  0  0  0  0  0  0
  -15.1087   16.0023  -38.1714 H   0  0  0  0  0  0  0  0  0  0  0  0
  -10.2322   15.0369  -39.3832 H   0  0  0  0  0  0  0  0  0  0  0  0
  -10.7206   16.5295  -38.5805 H   0  0  0  0  0  0  0  0  0  0  0  0
  -12.3492   15.6845  -35.9988 H   0  0  0  0  0  0  0  0  0  0  0  0
  -12.3548   13.9216  -35.9448 H   0  0  0  0  0  0  0  0  0  0  0  0
  -12.2045   15.2118  -40.4824 H   0  0  0  0  0  0  0  0  0  0  0  0
  -14.2545   14.0530  -37.1597 H   0  0  0  0  0  0  0  0  0  0  0  0
  -11.3053   12.7460  -37.2470 H   0  0  0  0  0  0  0  0  0  0  0  0
  -10.4725   13.1858  -38.5811 H   0  0  0  0  0  0  0  0  0  0  0  0
   -9.4413   15.4991  -34.6004 H   0  0  0  0  0  0  0  0  0  0  0  0
  1  8  1  0  0  0  0
  1 10  2  0  0  0  0
  1 12  1  0  0  0  0
  2  3  1  0  0  0  0
  2  6  1  0  0  0  0
  3  7  1  0  0  0  0
  4  6  1  0  0  0  0
  4  8  1  0  0  0  0
  5  7  1  0  0  0  0
  5  8  1  0  0  0  0
  6 11  1  0  0  0  0
  7 11  1  0  0  0  0
  8  9  1  0  0  0  0
  2 13  1  0  0  0  0
  2 14  1  0  0  0  0
  3 15  1  0  0  0  0
  3 16  1  0  0  0  0
  4 17  1  0  0  0  0
  4 18  1  0  0  0  0
  5 19  1  0  0  0  0
  5 20  1  0  0  0  0
  6 21  1  0  0  0  0
  7 22  1  0  0  0  0
  9 23  1  0  0  0  0
  9 24  1  0  0  0  0
 12 25  1  0  0  0  0
M  END
> <id>
EN300-25382033

> <smiles>
NC1(CC2CCC(C1)O2)C(=O)O

> <MDLNUMBER>
MFCD31654894

> <IUPAC Name>
3-amino-8-oxabicyclo[3.2.1]octane-3-carboxylic acid

> <URL>
https://www.enaminestore.com/catalog/EN300-25382033

> <ROCS_ShapeQuery>
_x1247relevant_x1083L0AP1_x1305L0BP1_

> <ROCS_TanimotoCombo>
0.878 

> <ROCS_ShapeTanimoto>
0.464 

> <ROCS_ColorTanimoto>
0.414 

> <ROCS_RefTversky>
0.389 

> <ROCS_RefColorTversky>
0.462 

> <ROCS_RefTverskyCombo>
0.850 

> <ROCS_FitTversky>
1.720 

> <ROCS_FitColorTversky>
0.800 

> <ROCS_FitTverskyCombo>
2.520 

> <ROCS_ColorScore>
-9.857

> <ROCS_Overlap>
1141.517

> <ROCS_Rank>
26                  

$$$$
untitled-dbase-26352_3
  -OEChem-06232314393D

 21 23  0     1  0  0  0  0  0999 V2000
  -10.0347   15.0284  -36.6828 C   0  0  0  0  0  0  0  0  0  0  0  0
  -10.9336   14.9770  -39.0227 C   0  0  0  0  0  0  0  0  0  0  0  0
  -11.1443   14.5331  -37.5577 C   0  0  2  0  0  0  0  0  0  0  0  0
  -13.4021   14.8923  -39.3423 C   0  0  2  0  0  0  0  0  0  0  0  0
  -13.5983   14.4964  -37.9081 C   0  0  1  0  0  0  0  0  0  0  0  0
  -12.1991   15.8072  -39.2806 C   0  0  1  0  0  0  0  0  0  0  0  0
  -12.4728   15.2236  -37.2059 C   0  0  2  0  0  0  0  0  0  0  0  0
  -14.6826   15.1993  -38.6480 C   0  0  0  0  0  0  0  0  0  0  0  0
   -9.0553   15.6462  -37.0734 O   0  0  0  0  0  0  0  0  0  0  0  0
  -12.3388   16.4426  -37.9863 O   0  0  0  0  0  0  0  0  0  0  0  0
  -10.2607   14.6954  -35.3885 O   0  0  0  0  0  0  0  0  0  0  0  0
  -15.8356   14.5291  -38.9906 F   0  0  0  0  0  0  0  0  0  0  0  0
  -15.0381   16.4924  -38.3391 F   0  0  0  0  0  0  0  0  0  0  0  0
  -10.0367   15.5983  -39.1256 H   0  0  0  0  0  0  0  0  0  0  0  0
  -10.8505   14.1249  -39.7047 H   0  0  0  0  0  0  0  0  0  0  0  0
  -11.1938   13.4436  -37.4609 H   0  0  0  0  0  0  0  0  0  0  0  0
  -13.3712   14.1309  -40.1061 H   0  0  0  0  0  0  0  0  0  0  0  0
  -13.7098   13.4537  -37.6535 H   0  0  0  0  0  0  0  0  0  0  0  0
  -12.1303   16.5328  -40.0935 H   0  0  0  0  0  0  0  0  0  0  0  0
  -12.6475   15.4410  -36.1497 H   0  0  0  0  0  0  0  0  0  0  0  0
   -9.5427   15.0099  -34.7985 H   0  0  0  0  0  0  0  0  0  0  0  0
  1  3  1  0  0  0  0
  1  9  2  0  0  0  0
  1 11  1  0  0  0  0
  2  3  1  0  0  0  0
  2  6  1  0  0  0  0
  3  7  1  0  0  0  0
  4  5  1  0  0  0  0
  4  6  1  0  0  0  0
  4  8  1  0  0  0  0
  5  7  1  0  0  0  0
  5  8  1  0  0  0  0
  6 10  1  0  0  0  0
  7 10  1  0  0  0  0
  8 12  1  0  0  0  0
  8 13  1  0  0  0  0
  2 14  1  0  0  0  0
  2 15  1  0  0  0  0
  3 16  1  0  0  0  0
  4 17  1  0  0  0  0
  5 18  1  0  0  0  0
  6 19  1  0  0  0  0
  7 20  1  0  0  0  0
 11 21  1  0  0  0  0
M  END
> <id>
EN300-367172

> <smiles>
OC(=O)C1CC2OC1C3C2C3(F)F

> <MDLNUMBER>
MFCD30730707

> <IUPAC Name>
3,3-difluoro-8-oxatricyclo[3.2.1.0,2,4]octane-6-carboxylic acid

> <CAS>
2095410-32-3

> <Purity>
95

> <URL>
https://www.enaminestore.com/catalog/EN300-367172

> <ROCS_ShapeQuery>
_x1247relevant_x1083L0AP1_x1305L0BP1_

> <ROCS_TanimotoCombo>
0.877 

> <ROCS_ShapeTanimoto>
0.476 

> <ROCS_ColorTanimoto>
0.401 

> <ROCS_RefTversky>
0.402 

> <ROCS_RefColorTversky>
0.565 

> <ROCS_RefTverskyCombo>
0.968 

> <ROCS_FitTversky>
1.621 

> <ROCS_FitColorTversky>
0.581 

> <ROCS_FitTverskyCombo>
2.202 

> <ROCS_ColorScore>
-12.335

> <ROCS_Overlap>
1183.907

> <ROCS_Rank>
27                  

$$$$
untitled-dbase-110826_4
  -OEChem-06232314393D

 24 25  0     1  0  0  0  0  0999 V2000
  -10.1274   15.1852  -36.7979 C   0  0  0  0  0  0  0  0  0  0  0  0
  -12.9766   16.2799  -37.0193 C   0  0  0  0  0  0  0  0  0  0  0  0
  -13.6929   14.9340  -37.1942 C   0  0  0  0  0  0  0  0  0  0  0  0
  -13.2705   15.0276  -39.6748 C   0  0  0  0  0  0  0  0  0  0  0  0
  -10.9354   15.2144  -38.0557 C   0  0  2  0  0  0  0  0  0  0  0  0
  -11.8926   16.4232  -38.1048 C   0  0  1  0  0  0  0  0  0  0  0  0
  -13.1065   14.1769  -38.3986 C   0  0  1  0  0  0  0  0  0  0  0  0
  -12.5881   16.3812  -39.4723 C   0  0  0  0  0  0  0  0  0  0  0  0
  -11.6732   13.9433  -38.1338 N   0  0  0  0  0  0  0  0  0  0  0  0
  -10.4603   14.6274  -35.7628 O   0  0  0  0  0  0  0  0  0  0  0  0
   -8.9674   15.8678  -36.9581 O   0  0  0  0  0  0  0  0  0  0  0  0
  -11.6835   16.5899  -40.4609 F   0  0  0  0  0  0  0  0  0  0  0  0
  -13.4968   17.3817  -39.5674 F   0  0  0  0  0  0  0  0  0  0  0  0
  -13.7008   17.1003  -37.0899 H   0  0  0  0  0  0  0  0  0  0  0  0
  -12.5374   16.3437  -36.0173 H   0  0  0  0  0  0  0  0  0  0  0  0
  -13.5912   14.3370  -36.2794 H   0  0  0  0  0  0  0  0  0  0  0  0
  -14.7667   15.1022  -37.3404 H   0  0  0  0  0  0  0  0  0  0  0  0
  -12.8313   14.5045  -40.5325 H   0  0  0  0  0  0  0  0  0  0  0  0
  -14.3358   15.1718  -39.8886 H   0  0  0  0  0  0  0  0  0  0  0  0
  -10.2235   15.2747  -38.8883 H   0  0  0  0  0  0  0  0  0  0  0  0
  -11.3498   17.3655  -37.9734 H   0  0  0  0  0  0  0  0  0  0  0  0
  -13.6158   13.2147  -38.5168 H   0  0  0  0  0  0  0  0  0  0  0  0
  -11.2776   13.3726  -38.8808 H   0  0  0  0  0  0  0  0  0  0  0  0
   -8.8846   16.2427  -37.8608 H   0  0  0  0  0  0  0  0  0  0  0  0
  1  5  1  1  0  0  0
  1 10  2  0  0  0  0
  1 11  1  0  0  0  0
  2  3  1  0  0  0  0
  2  6  1  0  0  0  0
  3  7  1  0  0  0  0
  4  7  1  0  0  0  0
  4  8  1  0  0  0  0
  5  6  1  0  0  0  0
  5  9  1  0  0  0  0
  6  8  1  0  0  0  0
  7  9  1  0  0  0  0
  8 12  1  0  0  0  0
  8 13  1  0  0  0  0
  2 14  1  0  0  0  0
  2 15  1  0  0  0  0
  3 16  1  0  0  0  0
  3 17  1  0  0  0  0
  4 18  1  0  0  0  0
  4 19  1  0  0  0  0
  5 20  1  0  0  0  0
  6 21  1  0  0  0  0
  7 22  1  0  0  0  0
  9 23  1  0  0  0  0
 11 24  1  0  0  0  0
M  END
> <id>
EN300-109781

> <smiles>
Cl.OC(=O)[C@H]1NC2CCC1C(F)(F)C2

> <MDLNUMBER>
MFCD22378706

> <IUPAC Name>
(3S)-5,5-difluoro-2-azabicyclo[2.2.2]octane-3-carboxylic acid hydrochloride

> <CAS>
1394052-54-0

> <URL>
https://www.enaminestore.com/catalog/EN300-109781

> <Saltdate>
Cl

> <ROCS_ShapeQuery>
_x1247relevant_x1083L0AP1_x1305L0BP1_

> <ROCS_TanimotoCombo>
0.876 

> <ROCS_ShapeTanimoto>
0.491 

> <ROCS_ColorTanimoto>
0.385 

> <ROCS_RefTversky>
0.409 

> <ROCS_RefColorTversky>
0.429 

> <ROCS_RefTverskyCombo>
0.838 

> <ROCS_FitTversky>
1.689 

> <ROCS_FitColorTversky>
0.790 

> <ROCS_FitTverskyCombo>
2.478 

> <ROCS_ColorScore>
-9.140

> <ROCS_Overlap>
1203.270

> <ROCS_Rank>
28                  

$$$$
untitled-dbase-110468_4
  -OEChem-06232314393D

 24 25  0     1  0  0  0  0  0999 V2000
  -10.1274   15.1852  -36.7979 C   0  0  0  0  0  0  0  0  0  0  0  0
  -12.9766   16.2799  -37.0193 C   0  0  0  0  0  0  0  0  0  0  0  0
  -13.6929   14.9340  -37.1942 C   0  0  0  0  0  0  0  0  0  0  0  0
  -13.2705   15.0276  -39.6748 C   0  0  0  0  0  0  0  0  0  0  0  0
  -10.9354   15.2144  -38.0557 C   0  0  2  0  0  0  0  0  0  0  0  0
  -11.8926   16.4232  -38.1048 C   0  0  1  0  0  0  0  0  0  0  0  0
  -13.1065   14.1769  -38.3986 C   0  0  1  0  0  0  0  0  0  0  0  0
  -12.5881   16.3812  -39.4723 C   0  0  0  0  0  0  0  0  0  0  0  0
  -11.6732   13.9433  -38.1338 N   0  0  0  0  0  0  0  0  0  0  0  0
  -10.4603   14.6274  -35.7628 O   0  0  0  0  0  0  0  0  0  0  0  0
   -8.9674   15.8678  -36.9581 O   0  0  0  0  0  0  0  0  0  0  0  0
  -11.6835   16.5899  -40.4609 F   0  0  0  0  0  0  0  0  0  0  0  0
  -13.4968   17.3817  -39.5674 F   0  0  0  0  0  0  0  0  0  0  0  0
  -13.7008   17.1003  -37.0899 H   0  0  0  0  0  0  0  0  0  0  0  0
  -12.5374   16.3437  -36.0173 H   0  0  0  0  0  0  0  0  0  0  0  0
  -13.5912   14.3370  -36.2794 H   0  0  0  0  0  0  0  0  0  0  0  0
  -14.7667   15.1022  -37.3404 H   0  0  0  0  0  0  0  0  0  0  0  0
  -12.8313   14.5045  -40.5325 H   0  0  0  0  0  0  0  0  0  0  0  0
  -14.3358   15.1718  -39.8886 H   0  0  0  0  0  0  0  0  0  0  0  0
  -10.2235   15.2747  -38.8883 H   0  0  0  0  0  0  0  0  0  0  0  0
  -11.3498   17.3655  -37.9734 H   0  0  0  0  0  0  0  0  0  0  0  0
  -13.6158   13.2147  -38.5168 H   0  0  0  0  0  0  0  0  0  0  0  0
  -11.2776   13.3726  -38.8808 H   0  0  0  0  0  0  0  0  0  0  0  0
   -8.8846   16.2427  -37.8608 H   0  0  0  0  0  0  0  0  0  0  0  0
  1  5  1  1  0  0  0
  1 10  2  0  0  0  0
  1 11  1  0  0  0  0
  2  3  1  0  0  0  0
  2  6  1  0  0  0  0
  3  7  1  0  0  0  0
  4  7  1  0  0  0  0
  4  8  1  0  0  0  0
  5  6  1  0  0  0  0
  5  9  1  0  0  0  0
  6  8  1  0  0  0  0
  7  9  1  0  0  0  0
  8 12  1  0  0  0  0
  8 13  1  0  0  0  0
  2 14  1  0  0  0  0
  2 15  1  0  0  0  0
  3 16  1  0  0  0  0
  3 17  1  0  0  0  0
  4 18  1  0  0  0  0
  4 19  1  0  0  0  0
  5 20  1  0  0  0  0
  6 21  1  0  0  0  0
  7 22  1  0  0  0  0
  9 23  1  0  0  0  0
 11 24  1  0  0  0  0
M  END
> <id>
EN300-109614

> <smiles>
OC(=O)[C@H]1NC2CCC1C(F)(F)C2

> <MDLNUMBER>
MFCD27919995

> <IUPAC Name>
(3S)-5,5-difluoro-2-azabicyclo[2.2.2]octane-3-carboxylic acid

> <CAS>
1394117-04-4

> <URL>
https://www.enaminestore.com/catalog/EN300-109614

> <ROCS_ShapeQuery>
_x1247relevant_x1083L0AP1_x1305L0BP1_

> <ROCS_TanimotoCombo>
0.876 

> <ROCS_ShapeTanimoto>
0.491 

> <ROCS_ColorTanimoto>
0.385 

> <ROCS_RefTversky>
0.409 

> <ROCS_RefColorTversky>
0.429 

> <ROCS_RefTverskyCombo>
0.838 

> <ROCS_FitTversky>
1.689 

> <ROCS_FitColorTversky>
0.790 

> <ROCS_FitTverskyCombo>
2.478 

> <ROCS_ColorScore>
-9.140

> <ROCS_Overlap>
1203.270

> <ROCS_Rank>
29                  

$$$$
untitled-dbase-20957_4
  -OEChem-06232314393D

 24 25  0     1  0  0  0  0  0999 V2000
  -10.1275   15.1851  -36.7981 C   0  0  0  0  0  0  0  0  0  0  0  0
  -12.9761   16.2803  -37.0193 C   0  0  0  0  0  0  0  0  0  0  0  0
  -13.6923   14.9342  -37.1935 C   0  0  0  0  0  0  0  0  0  0  0  0
  -13.2712   15.0278  -39.6743 C   0  0  0  0  0  0  0  0  0  0  0  0
  -10.9352   15.2140  -38.0561 C   0  0  2  0  0  0  0  0  0  0  0  0
  -11.8922   16.4231  -38.1050 C   0  0  1  0  0  0  0  0  0  0  0  0
  -13.1068   14.1771  -38.3983 C   0  0  1  0  0  0  0  0  0  0  0  0
  -12.5880   16.3811  -39.4723 C   0  0  0  0  0  0  0  0  0  0  0  0
  -11.6734   13.9432  -38.1342 N   0  0  0  0  0  0  0  0  0  0  0  0
  -10.4604   14.6275  -35.7629 O   0  0  0  0  0  0  0  0  0  0  0  0
   -8.9675   15.8679  -36.9582 O   0  0  0  0  0  0  0  0  0  0  0  0
  -11.6835   16.5888  -40.4611 F   0  0  0  0  0  0  0  0  0  0  0  0
  -13.4961   17.3821  -39.5676 F   0  0  0  0  0  0  0  0  0  0  0  0
  -13.7002   17.1007  -37.0900 H   0  0  0  0  0  0  0  0  0  0  0  0
  -12.5365   16.3444  -36.0174 H   0  0  0  0  0  0  0  0  0  0  0  0
  -13.5898   14.3373  -36.2787 H   0  0  0  0  0  0  0  0  0  0  0  0
  -14.7662   15.1023  -37.3388 H   0  0  0  0  0  0  0  0  0  0  0  0
  -12.8330   14.5045  -40.5323 H   0  0  0  0  0  0  0  0  0  0  0  0
  -14.3366   15.1726  -39.8872 H   0  0  0  0  0  0  0  0  0  0  0  0
  -10.2234   15.2742  -38.8887 H   0  0  0  0  0  0  0  0  0  0  0  0
  -11.3492   17.3653  -37.9738 H   0  0  0  0  0  0  0  0  0  0  0  0
  -13.6164   13.2150  -38.5163 H   0  0  0  0  0  0  0  0  0  0  0  0
  -11.2783   13.3724  -38.8814 H   0  0  0  0  0  0  0  0  0  0  0  0
   -8.8846   16.2426  -37.8610 H   0  0  0  0  0  0  0  0  0  0  0  0
  1  5  1  0  0  0  0
  1 10  2  0  0  0  0
  1 11  1  0  0  0  0
  2  3  1  0  0  0  0
  2  6  1  0  0  0  0
  3  7  1  0  0  0  0
  4  7  1  0  0  0  0
  4  8  1  0  0  0  0
  5  6  1  0  0  0  0
  5  9  1  0  0  0  0
  6  8  1  0  0  0  0
  7  9  1  0  0  0  0
  8 12  1  0  0  0  0
  8 13  1  0  0  0  0
  2 14  1  0  0  0  0
  2 15  1  0  0  0  0
  3 16  1  0  0  0  0
  3 17  1  0  0  0  0
  4 18  1  0  0  0  0
  4 19  1  0  0  0  0
  5 20  1  0  0  0  0
  6 21  1  0  0  0  0
  7 22  1  0  0  0  0
  9 23  1  0  0  0  0
 11 24  1  0  0  0  0
M  END
> <id>
EN300-295921

> <smiles>
Cl.OC(=O)C1NC2CCC1C(F)(F)C2

> <MDLNUMBER>
MFCD24529235

> <IUPAC Name>
5,5-difluoro-2-azabicyclo[2.2.2]octane-3-carboxylic acid hydrochloride

> <CAS>
1822554-55-1

> <URL>
https://www.enaminestore.com/catalog/EN300-295921

> <Saltdate>
Cl

> <ROCS_ShapeQuery>
_x1247relevant_x1083L0AP1_x1305L0BP1_

> <ROCS_TanimotoCombo>
0.876 

> <ROCS_ShapeTanimoto>
0.491 

> <ROCS_ColorTanimoto>
0.385 

> <ROCS_RefTversky>
0.409 

> <ROCS_RefColorTversky>
0.429 

> <ROCS_RefTverskyCombo>
0.838 

> <ROCS_FitTversky>
1.689 

> <ROCS_FitColorTversky>
0.790 

> <ROCS_FitTverskyCombo>
2.478 

> <ROCS_ColorScore>
-9.140

> <ROCS_Overlap>
1203.303

> <ROCS_Rank>
30                  

$$$$
untitled-dbase-148785_96
  -OEChem-06232314393D

 38 39  0     1  0  0  0  0  0999 V2000
   -9.3412   14.7015  -36.3104 C   0  0  0  0  0  0  0  0  0  0  0  0
  -13.0336   15.7712  -37.3566 C   0  0  0  0  0  0  0  0  0  0  0  0
  -12.4713   13.5935  -38.1454 C   0  0  0  0  0  0  0  0  0  0  0  0
  -13.5388   14.6894  -38.3191 C   0  0  2  0  0  0  0  0  0  0  0  0
  -11.6673   15.8628  -38.0406 C   0  0  1  0  0  0  0  0  0  0  0  0
  -11.1646   14.3995  -37.9791 C   0  0  1  0  0  0  0  0  0  0  0  0
  -13.3385   15.3500  -39.6990 C   0  0  2  0  0  0  0  0  0  0  0  0
  -12.0957   16.2284  -39.4789 C   0  0  2  0  0  0  0  0  0  0  0  0
   -9.8894   16.2732  -34.2918 C   0  0  0  0  0  0  0  0  0  0  0  0
   -9.2252   14.4220  -32.7294 C   0  0  0  0  0  0  0  0  0  0  0  0
   -7.4592   15.6981  -33.9788 C   0  0  0  0  0  0  0  0  0  0  0  0
   -8.8855   15.1521  -34.0270 C   0  0  0  0  0  0  0  0  0  0  0  0
  -10.5086   14.0960  -36.7331 N   0  0  0  0  0  0  0  0  0  0  0  0
   -8.7192   15.5608  -36.9262 O   0  0  0  0  0  0  0  0  0  0  0  0
  -14.4662   16.1626  -39.9985 O   0  0  0  0  0  0  0  0  0  0  0  0
  -11.0756   15.9455  -40.4178 O   0  0  0  0  0  0  0  0  0  0  0  0
   -8.9735   14.2004  -35.0934 O   0  0  0  0  0  0  0  0  0  0  0  0
  -13.6085   16.7018  -37.4089 H   0  0  0  0  0  0  0  0  0  0  0  0
  -12.9847   15.4335  -36.3167 H   0  0  0  0  0  0  0  0  0  0  0  0
  -12.6886   12.9910  -37.2551 H   0  0  0  0  0  0  0  0  0  0  0  0
  -12.4242   12.9161  -39.0045 H   0  0  0  0  0  0  0  0  0  0  0  0
  -14.5608   14.3556  -38.1264 H   0  0  0  0  0  0  0  0  0  0  0  0
  -10.9657   16.5836  -37.6132 H   0  0  0  0  0  0  0  0  0  0  0  0
  -10.4473   14.1686  -38.7722 H   0  0  0  0  0  0  0  0  0  0  0  0
  -13.2214   14.6145  -40.5017 H   0  0  0  0  0  0  0  0  0  0  0  0
  -12.3365   17.2962  -39.5447 H   0  0  0  0  0  0  0  0  0  0  0  0
   -9.6490   16.7998  -35.2224 H   0  0  0  0  0  0  0  0  0  0  0  0
  -10.9125   15.8900  -34.3635 H   0  0  0  0  0  0  0  0  0  0  0  0
   -9.8562   17.0243  -33.4943 H   0  0  0  0  0  0  0  0  0  0  0  0
   -8.5074   13.6168  -32.5355 H   0  0  0  0  0  0  0  0  0  0  0  0
  -10.2110   13.9476  -32.7951 H   0  0  0  0  0  0  0  0  0  0  0  0
   -9.2240   15.1017  -31.8712 H   0  0  0  0  0  0  0  0  0  0  0  0
   -6.7389   14.8942  -33.7889 H   0  0  0  0  0  0  0  0  0  0  0  0
   -7.1850   16.1934  -34.9159 H   0  0  0  0  0  0  0  0  0  0  0  0
   -7.3444   16.4162  -33.1588 H   0  0  0  0  0  0  0  0  0  0  0  0
  -10.9300   13.3945  -36.1288 H   0  0  0  0  0  0  0  0  0  0  0  0
  -14.3022   16.5582  -40.8697 H   0  0  0  0  0  0  0  0  0  0  0  0
  -10.2992   16.4741  -40.1651 H   0  0  0  0  0  0  0  0  0  0  0  0
  1 13  1  0  0  0  0
  1 14  2  0  0  0  0
  1 17  1  0  0  0  0
  2  4  1  0  0  0  0
  2  5  1  0  0  0  0
  3  4  1  0  0  0  0
  3  6  1  0  0  0  0
  4  7  1  0  0  0  0
  5  6  1  0  0  0  0
  5  8  1  0  0  0  0
  6 13  1  0  0  0  0
  7  8  1  0  0  0  0
  7 15  1  0  0  0  0
  8 16  1  0  0  0  0
  9 12  1  0  0  0  0
 10 12  1  0  0  0  0
 11 12  1  0  0  0  0
 12 17  1  0  0  0  0
  2 18  1  0  0  0  0
  2 19  1  0  0  0  0
  3 20  1  0  0  0  0
  3 21  1  0  0  0  0
  4 22  1  0  0  0  0
  5 23  1  0  0  0  0
  6 24  1  0  0  0  0
  7 25  1  0  0  0  0
  8 26  1  0  0  0  0
  9 27  1  0  0  0  0
  9 28  1  0  0  0  0
  9 29  1  0  0  0  0
 10 30  1  0  0  0  0
 10 31  1  0  0  0  0
 10 32  1  0  0  0  0
 11 33  1  0  0  0  0
 11 34  1  0  0  0  0
 11 35  1  0  0  0  0
 13 36  1  0  0  0  0
 15 37  1  0  0  0  0
 16 38  1  0  0  0  0
M  END
> <id>
EN300-28228704

> <smiles>
CC(C)(C)OC(=O)NC1CC2CC1C(O)C2O

> <IUPAC Name>
tert-butyl N-{5,6-dihydroxybicyclo[2.2.1]heptan-2-yl}carbamate

> <CAS>
2639462-62-5

> <URL>
https://www.enaminestore.com/catalog/EN300-28228704

> <ROCS_ShapeQuery>
_x1247relevant_x1083L0AP1_x1305L0BP1_

> <ROCS_TanimotoCombo>
0.875 

> <ROCS_ShapeTanimoto>
0.491 

> <ROCS_ColorTanimoto>
0.384 

> <ROCS_RefTversky>
0.426 

> <ROCS_RefColorTversky>
0.455 

> <ROCS_RefTverskyCombo>
0.881 

> <ROCS_FitTversky>
1.452 

> <ROCS_FitColorTversky>
0.711 

> <ROCS_FitTverskyCombo>
2.162 

> <ROCS_ColorScore>
-9.757

> <ROCS_Overlap>
1255.757

> <ROCS_Rank>
31                  

$$$$
untitled-dbase-123296_1
  -OEChem-06232314393D

 22 24  0     1  0  0  0  0  0999 V2000
  -10.2208   14.4366  -36.8428 C   0  0  0  0  0  0  0  0  0  0  0  0
  -12.7268   14.4777  -36.7563 C   0  0  0  0  0  0  0  0  0  0  0  0
  -11.4766   14.2253  -37.6300 C   0  0  1  0  0  0  0  0  0  0  0  0
  -13.4122   15.6210  -37.5179 C   0  0  2  0  0  0  0  0  0  0  0  0
  -11.6305   15.2992  -38.7201 C   0  0  1  0  0  0  0  0  0  0  0  0
  -13.9634   15.0969  -38.8204 C   0  0  2  0  0  0  0  0  0  0  0  0
  -12.7467   14.8853  -39.6467 C   0  0  1  0  0  0  0  0  0  0  0  0
   -7.8654   14.4560  -37.0312 C   0  0  0  0  0  0  0  0  0  0  0  0
  -10.1974   14.7081  -35.6499 O   0  0  0  0  0  0  0  0  0  0  0  0
  -12.2415   16.3652  -37.9404 O   0  0  0  0  0  0  0  0  0  0  0  0
  -13.7150   15.8806  -39.9914 O   0  0  0  0  0  0  0  0  0  0  0  0
   -9.1396   14.2799  -37.6585 O   0  0  0  0  0  0  0  0  0  0  0  0
  -13.3636   13.5905  -36.6810 H   0  0  0  0  0  0  0  0  0  0  0  0
  -12.4486   14.7983  -35.7460 H   0  0  0  0  0  0  0  0  0  0  0  0
  -11.4574   13.2091  -38.0373 H   0  0  0  0  0  0  0  0  0  0  0  0
  -14.1025   16.2329  -36.9341 H   0  0  0  0  0  0  0  0  0  0  0  0
  -10.7152   15.6363  -39.2117 H   0  0  0  0  0  0  0  0  0  0  0  0
  -14.7492   14.3624  -38.7894 H   0  0  0  0  0  0  0  0  0  0  0  0
  -12.6232   13.9924  -40.2346 H   0  0  0  0  0  0  0  0  0  0  0  0
   -7.0722   14.3096  -37.7684 H   0  0  0  0  0  0  0  0  0  0  0  0
   -7.7571   13.7363  -36.2159 H   0  0  0  0  0  0  0  0  0  0  0  0
   -7.8039   15.4703  -36.6298 H   0  0  0  0  0  0  0  0  0  0  0  0
  1  3  1  0  0  0  0
  1  9  2  0  0  0  0
  1 12  1  0  0  0  0
  2  3  1  0  0  0  0
  2  4  1  0  0  0  0
  3  5  1  0  0  0  0
  4  6  1  0  0  0  0
  4 10  1  0  0  0  0
  5  7  1  0  0  0  0
  5 10  1  0  0  0  0
  6  7  1  0  0  0  0
  6 11  1  0  0  0  0
  7 11  1  0  0  0  0
  8 12  1  0  0  0  0
  2 13  1  0  0  0  0
  2 14  1  0  0  0  0
  3 15  1  0  0  0  0
  4 16  1  0  0  0  0
  5 17  1  0  0  0  0
  6 18  1  0  0  0  0
  7 19  1  0  0  0  0
  8 20  1  0  0  0  0
  8 21  1  0  0  0  0
  8 22  1  0  0  0  0
M  END
> <id>
EN300-718776

> <smiles>
COC(=O)C1CC2OC1C3OC32

> <MDLNUMBER>
MFCD00599873

> <IUPAC Name>
methyl 3,8-dioxatricyclo[3.2.1.0,2,4]octane-6-carboxylate

> <CAS>
827607-30-7

> <URL>
https://www.enaminestore.com/catalog/EN300-718776

> <ROCS_ShapeQuery>
_x1247relevant_x1083L0AP1_x1305L0BP1_

> <ROCS_TanimotoCombo>
0.873 

> <ROCS_ShapeTanimoto>
0.477 

> <ROCS_ColorTanimoto>
0.396 

> <ROCS_RefTversky>
0.398 

> <ROCS_RefColorTversky>
0.550 

> <ROCS_RefTverskyCombo>
0.948 

> <ROCS_FitTversky>
1.712 

> <ROCS_FitColorTversky>
0.587 

> <ROCS_FitTverskyCombo>
2.298 

> <ROCS_ColorScore>
-11.980

> <ROCS_Overlap>
1169.535

> <ROCS_Rank>
32                  

$$$$
untitled-dbase-101608_45
  -OEChem-06232314393D

 33 35  0     1  0  0  0  0  0999 V2000
   -9.9519   13.5683  -36.1209 C   0  0  0  0  0  0  0  0  0  0  0  0
  -11.9846   15.4847  -36.8409 C   0  0  0  0  0  0  0  0  0  0  0  0
  -11.0909   14.8444  -37.9306 C   0  0  2  0  0  0  0  0  0  0  0  0
  -13.3743   15.3978  -37.4862 C   0  0  1  0  0  0  0  0  0  0  0  0
  -12.1288   14.4630  -39.0004 C   0  0  2  0  0  0  0  0  0  0  0  0
  -13.4516   16.3656  -38.6394 C   0  0  1  0  0  0  0  0  0  0  0  0
  -12.6054   15.7252  -39.6782 C   0  0  2  0  0  0  0  0  0  0  0  0
  -10.8818   11.5723  -34.3040 C   0  0  0  0  0  0  0  0  0  0  0  0
   -8.6584   10.4638  -34.6741 C   0  0  0  0  0  0  0  0  0  0  0  0
   -8.7585   12.7554  -33.6510 C   0  0  0  0  0  0  0  0  0  0  0  0
   -9.4088   11.7936  -34.6444 C   0  0  0  0  0  0  0  0  0  0  0  0
  -10.3901   13.6928  -37.4255 N   0  0  0  0  0  0  0  0  0  0  0  0
  -10.0983   14.4054  -35.2363 O   0  0  0  0  0  0  0  0  0  0  0  0
  -13.2526   14.1120  -38.1494 O   0  0  0  0  0  0  0  0  0  0  0  0
  -14.0165   15.8768  -39.8597 O   0  0  0  0  0  0  0  0  0  0  0  0
   -9.3248   12.3656  -35.9546 O   0  0  0  0  0  0  0  0  0  0  0  0
  -11.9580   14.8979  -35.9153 H   0  0  0  0  0  0  0  0  0  0  0  0
  -11.6863   16.5124  -36.6107 H   0  0  0  0  0  0  0  0  0  0  0  0
  -10.3378   15.5433  -38.3091 H   0  0  0  0  0  0  0  0  0  0  0  0
  -14.2200   15.4285  -36.7966 H   0  0  0  0  0  0  0  0  0  0  0  0
  -11.8546   13.6550  -39.6825 H   0  0  0  0  0  0  0  0  0  0  0  0
  -13.3778   17.4193  -38.4340 H   0  0  0  0  0  0  0  0  0  0  0  0
  -11.8991   16.2999  -40.2517 H   0  0  0  0  0  0  0  0  0  0  0  0
  -11.4239   12.5245  -34.2817 H   0  0  0  0  0  0  0  0  0  0  0  0
  -11.3686   10.9120  -35.0290 H   0  0  0  0  0  0  0  0  0  0  0  0
  -10.9907   11.1313  -33.3066 H   0  0  0  0  0  0  0  0  0  0  0  0
   -7.6011   10.6178  -34.9179 H   0  0  0  0  0  0  0  0  0  0  0  0
   -9.0618    9.8053  -35.4518 H   0  0  0  0  0  0  0  0  0  0  0  0
   -8.7203    9.9435  -33.7128 H   0  0  0  0  0  0  0  0  0  0  0  0
   -7.7019   12.9143  -33.8950 H   0  0  0  0  0  0  0  0  0  0  0  0
   -9.2613   13.7279  -33.6431 H   0  0  0  0  0  0  0  0  0  0  0  0
   -8.7828   12.3426  -32.6360 H   0  0  0  0  0  0  0  0  0  0  0  0
  -10.2065   12.9246  -38.0674 H   0  0  0  0  0  0  0  0  0  0  0  0
  1 12  1  0  0  0  0
  1 13  2  0  0  0  0
  1 16  1  0  0  0  0
  2  3  1  0  0  0  0
  2  4  1  0  0  0  0
  3  5  1  0  0  0  0
  3 12  1  0  0  0  0
  4  6  1  0  0  0  0
  4 14  1  0  0  0  0
  5  7  1  0  0  0  0
  5 14  1  0  0  0  0
  6  7  1  0  0  0  0
  6 15  1  0  0  0  0
  7 15  1  0  0  0  0
  8 11  1  0  0  0  0
  9 11  1  0  0  0  0
 10 11  1  0  0  0  0
 11 16  1  0  0  0  0
  2 17  1  0  0  0  0
  2 18  1  0  0  0  0
  3 19  1  0  0  0  0
  4 20  1  0  0  0  0
  5 21  1  0  0  0  0
  6 22  1  0  0  0  0
  7 23  1  0  0  0  0
  8 24  1  0  0  0  0
  8 25  1  0  0  0  0
  8 26  1  0  0  0  0
  9 27  1  0  0  0  0
  9 28  1  0  0  0  0
  9 29  1  0  0  0  0
 10 30  1  0  0  0  0
 10 31  1  0  0  0  0
 10 32  1  0  0  0  0
 12 33  1  0  0  0  0
M  END
> <id>
EN300-1708451

> <smiles>
CC(C)(C)OC(=O)NC1CC2OC1C3OC32

> <MDLNUMBER>
MFCD32760821

> <IUPAC Name>
tert-butyl N-{3,8-dioxatricyclo[3.2.1.0,2,4]octan-6-yl}carbamate

> <CAS>
2219369-54-5

> <URL>
https://www.enaminestore.com/catalog/EN300-1708451

> <ROCS_ShapeQuery>
_x1247relevant_x1083L0AP1_x1305L0BP1_

> <ROCS_TanimotoCombo>
0.873 

> <ROCS_ShapeTanimoto>
0.440 

> <ROCS_ColorTanimoto>
0.433 

> <ROCS_RefTversky>
0.393 

> <ROCS_RefColorTversky>
0.610 

> <ROCS_RefTverskyCombo>
1.004 

> <ROCS_FitTversky>
1.367 

> <ROCS_FitColorTversky>
0.598 

> <ROCS_FitTverskyCombo>
1.965 

> <ROCS_ColorScore>
-13.351

> <ROCS_Overlap>
1159.375

> <ROCS_Rank>
33                  

$$$$
untitled-dbase-91935_5
  -OEChem-06232314393D

 24 25  0     1  0  0  0  0  0999 V2000
  -10.1469   14.8865  -36.5670 C   0  0  0  0  0  0  0  0  0  0  0  0
  -12.2385   13.9729  -37.6066 C   0  0  0  0  0  0  0  0  0  0  0  0
  -12.8172   16.2734  -37.4463 C   0  0  0  0  0  0  0  0  0  0  0  0
  -10.9602   14.8007  -37.8227 C   0  0  1  0  0  0  0  0  0  0  0  0
  -13.3550   14.9543  -38.0089 C   0  0  1  0  0  0  0  0  0  0  0  0
  -11.5107   16.1835  -38.2406 C   0  0  1  0  0  0  0  0  0  0  0  0
  -13.2814   15.1901  -39.5331 C   0  0  2  0  0  0  0  0  0  0  0  0
  -12.0654   16.1234  -39.6796 C   0  0  2  0  0  0  0  0  0  0  0  0
  -10.4304   14.3449  -35.5088 O   0  0  0  0  0  0  0  0  0  0  0  0
   -9.0463   15.6535  -36.7609 O   0  0  0  0  0  0  0  0  0  0  0  0
  -14.4626   15.8550  -39.9622 O   0  0  0  0  0  0  0  0  0  0  0  0
  -11.1118   15.6106  -40.5905 O   0  0  0  0  0  0  0  0  0  0  0  0
  -12.2481   13.0715  -38.2285 H   0  0  0  0  0  0  0  0  0  0  0  0
  -12.3547   13.6641  -36.5611 H   0  0  0  0  0  0  0  0  0  0  0  0
  -13.4280   17.1420  -37.7145 H   0  0  0  0  0  0  0  0  0  0  0  0
  -12.6766   16.2530  -36.3611 H   0  0  0  0  0  0  0  0  0  0  0  0
  -10.3200   14.3511  -38.5885 H   0  0  0  0  0  0  0  0  0  0  0  0
  -14.3471   14.6785  -37.6447 H   0  0  0  0  0  0  0  0  0  0  0  0
  -10.8109   17.0069  -38.0776 H   0  0  0  0  0  0  0  0  0  0  0  0
  -13.1884   14.2556  -40.0963 H   0  0  0  0  0  0  0  0  0  0  0  0
  -12.3604   17.1241  -40.0177 H   0  0  0  0  0  0  0  0  0  0  0  0
   -8.9967   15.9980  -37.6781 H   0  0  0  0  0  0  0  0  0  0  0  0
  -14.3782   15.9842  -40.9206 H   0  0  0  0  0  0  0  0  0  0  0  0
  -11.5299   15.6029  -41.4688 H   0  0  0  0  0  0  0  0  0  0  0  0
  1  4  1  0  0  0  0
  1  9  2  0  0  0  0
  1 10  1  0  0  0  0
  2  4  1  0  0  0  0
  2  5  1  0  0  0  0
  3  5  1  0  0  0  0
  3  6  1  0  0  0  0
  4  6  1  0  0  0  0
  5  7  1  0  0  0  0
  6  8  1  0  0  0  0
  7  8  1  0  0  0  0
  7 11  1  0  0  0  0
  8 12  1  0  0  0  0
  2 13  1  0  0  0  0
  2 14  1  0  0  0  0
  3 15  1  0  0  0  0
  3 16  1  0  0  0  0
  4 17  1  0  0  0  0
  5 18  1  0  0  0  0
  6 19  1  0  0  0  0
  7 20  1  0  0  0  0
  8 21  1  0  0  0  0
 10 22  1  0  0  0  0
 11 23  1  0  0  0  0
 12 24  1  0  0  0  0
M  END
> <id>
EN300-6744028

> <smiles>
OC1C(O)C2CC1CC2C(=O)O

> <MDLNUMBER>
MFCD24531129

> <IUPAC Name>
5,6-dihydroxybicyclo[2.2.1]heptane-2-carboxylic acid

> <CAS>
232919-97-0

> <URL>
https://www.enaminestore.com/catalog/EN300-6744028

> <ROCS_ShapeQuery>
_x1247relevant_x1083L0AP1_x1305L0BP1_

> <ROCS_TanimotoCombo>
0.872 

> <ROCS_ShapeTanimoto>
0.494 

> <ROCS_ColorTanimoto>
0.378 

> <ROCS_RefTversky>
0.405 

> <ROCS_RefColorTversky>
0.451 

> <ROCS_RefTverskyCombo>
0.855 

> <ROCS_FitTversky>
1.804 

> <ROCS_FitColorTversky>
0.702 

> <ROCS_FitTverskyCombo>
2.507 

> <ROCS_ColorScore>
-9.652

> <ROCS_Overlap>
1189.134

> <ROCS_Rank>
34                  

$$$$
untitled-dbase-122553_7
  -OEChem-06232314393D

 33 35  0     1  0  0  0  0  0999 V2000
  -13.8139   15.4072  -37.1780 C   0  0  0  0  0  0  0  0  0  0  0  0
  -13.5394   14.0370  -37.8418 C   0  0  0  0  0  0  0  0  0  0  0  0
  -11.6025   16.6296  -37.5629 C   0  0  0  0  0  0  0  0  0  0  0  0
  -11.1433   14.3263  -38.6820 C   0  0  0  0  0  0  0  0  0  0  0  0
   -8.9512   15.6331  -36.2581 C   0  0  0  0  0  0  0  0  0  0  0  0
  -13.0771   16.4934  -37.9821 C   0  0  1  0  0  0  0  0  0  0  0  0
  -12.6325   14.2623  -39.0651 C   0  0  2  0  0  0  0  0  0  0  0  0
   -9.7907   14.5689  -35.5959 C   0  0  2  0  0  0  0  0  0  0  0  0
  -10.8041   15.3012  -37.5312 C   0  0  0  0  0  0  0  0  0  0  0  0
   -9.2209   13.1675  -35.7716 C   0  0  0  0  0  0  0  0  0  0  0  0
   -9.7502   12.2889  -34.7770 N   0  0  0  0  0  0  0  0  0  0  0  0
  -14.5256   15.8059  -40.0915 O   0  0  0  0  0  0  0  0  0  0  0  0
  -12.1154   16.4716  -40.4733 O   0  0  0  0  0  0  0  0  0  0  0  0
   -9.3987   15.6133  -37.6114 O   0  0  0  0  0  0  0  0  0  0  0  0
  -11.0510   14.6536  -36.2665 O   0  0  0  0  0  0  0  0  0  0  0  0
  -13.1458   15.8695  -39.6558 S   0  0  0  0  0  0  0  0  0  0  0  0
  -14.8939   15.5984  -37.2153 H   0  0  0  0  0  0  0  0  0  0  0  0
  -13.5372   15.4141  -36.1189 H   0  0  0  0  0  0  0  0  0  0  0  0
  -13.1152   13.3154  -37.1364 H   0  0  0  0  0  0  0  0  0  0  0  0
  -14.4972   13.6162  -38.1734 H   0  0  0  0  0  0  0  0  0  0  0  0
  -11.0996   17.3364  -38.2357 H   0  0  0  0  0  0  0  0  0  0  0  0
  -11.5662   17.0905  -36.5671 H   0  0  0  0  0  0  0  0  0  0  0  0
  -10.8147   13.3156  -38.4029 H   0  0  0  0  0  0  0  0  0  0  0  0
  -10.5542   14.5942  -39.5695 H   0  0  0  0  0  0  0  0  0  0  0  0
   -9.0926   16.6282  -35.8223 H   0  0  0  0  0  0  0  0  0  0  0  0
   -7.8804   15.3897  -36.2489 H   0  0  0  0  0  0  0  0  0  0  0  0
  -13.5900   17.4582  -37.9391 H   0  0  0  0  0  0  0  0  0  0  0  0
  -12.8059   13.5207  -39.8499 H   0  0  0  0  0  0  0  0  0  0  0  0
   -9.9495   14.7825  -34.5406 H   0  0  0  0  0  0  0  0  0  0  0  0
   -9.4970   12.8147  -36.7684 H   0  0  0  0  0  0  0  0  0  0  0  0
   -8.1343   13.2317  -35.6749 H   0  0  0  0  0  0  0  0  0  0  0  0
   -9.0038   11.9001  -34.2316 H   0  0  0  0  0  0  0  0  0  0  0  0
  -10.3695   12.7931  -34.1704 H   0  0  0  0  0  0  0  0  0  0  0  0
  1  2  1  0  0  0  0
  1  6  1  0  0  0  0
  2  7  1  0  0  0  0
  3  6  1  0  0  0  0
  3  9  1  0  0  0  0
  4  7  1  0  0  0  0
  4  9  1  0  0  0  0
  5  8  1  0  0  0  0
  5 14  1  0  0  0  0
  6 16  1  0  0  0  0
  7 16  1  0  0  0  0
  8 10  1  0  0  0  0
  8 15  1  0  0  0  0
  9 14  1  0  0  0  0
  9 15  1  0  0  0  0
 10 11  1  0  0  0  0
 12 16  2  0  0  0  0
 13 16  2  0  0  0  0
  1 17  1  0  0  0  0
  1 18  1  0  0  0  0
  2 19  1  0  0  0  0
  2 20  1  0  0  0  0
  3 21  1  0  0  0  0
  3 22  1  0  0  0  0
  4 23  1  0  0  0  0
  4 24  1  0  0  0  0
  5 25  1  0  0  0  0
  5 26  1  0  0  0  0
  6 27  1  0  0  0  0
  7 28  1  0  0  0  0
  8 29  1  0  0  0  0
 10 30  1  0  0  0  0
 10 31  1  0  0  0  0
 11 32  1  0  0  0  0
 11 33  1  0  0  0  0
M  END
> <id>
EN300-1614855

> <smiles>
NCC1COC2(CC3CCC(C2)S3(=O)=O)O1

> <IUPAC Name>
4'-(aminomethyl)-8lambda6-thiaspiro[bicyclo[3.2.1]octane-3,2'-[1,3]dioxolane]-8,8-dione

> <CAS>
2172473-58-2

> <URL>
https://www.enaminestore.com/catalog/EN300-1614855

> <ROCS_ShapeQuery>
_x1247relevant_x1083L0AP1_x1305L0BP1_

> <ROCS_TanimotoCombo>
0.872 

> <ROCS_ShapeTanimoto>
0.511 

> <ROCS_ColorTanimoto>
0.360 

> <ROCS_RefTversky>
0.432 

> <ROCS_RefColorTversky>
0.428 

> <ROCS_RefTverskyCombo>
0.860 

> <ROCS_FitTversky>
1.558 

> <ROCS_FitColorTversky>
0.696 

> <ROCS_FitTverskyCombo>
2.253 

> <ROCS_ColorScore>
-9.154

> <ROCS_Overlap>
1273.463

> <ROCS_Rank>
35                  

$$$$
untitled-dbase-177722_15
  -OEChem-06232314393D

 28 29  0     1  0  0  0  0  0999 V2000
   -9.8157   15.5252  -36.5911 C   0  0  0  0  0  0  0  0  0  0  0  0
  -13.2455   16.4112  -39.3488 C   0  0  0  0  0  0  0  0  0  0  0  0
  -14.0363   16.1655  -38.0752 C   0  0  0  0  0  0  0  0  0  0  0  0
  -10.9765   15.3972  -38.7981 C   0  0  0  0  0  0  0  0  0  0  0  0
  -12.2657   15.0476  -36.6305 C   0  0  0  0  0  0  0  0  0  0  0  0
  -12.3451   15.1852  -39.4714 C   0  0  1  0  0  0  0  0  0  0  0  0
  -13.4859   14.8452  -37.5491 C   0  0  2  0  0  0  0  0  0  0  0  0
  -10.9203   14.8521  -37.3568 C   0  0  0  0  0  0  0  0  0  0  0  0
   -9.1775   16.2046  -34.4197 C   0  0  0  0  0  0  0  0  0  0  0  0
  -10.5833   13.4238  -37.3856 N   0  0  0  0  0  0  0  0  0  0  0  0
   -8.7862   15.9462  -37.1011 O   0  0  0  0  0  0  0  0  0  0  0  0
  -13.0655   14.1717  -38.7484 O   0  0  0  0  0  0  0  0  0  0  0  0
  -10.1473   15.5843  -35.2699 O   0  0  0  0  0  0  0  0  0  0  0  0
  -13.9398   16.4446  -40.1974 H   0  0  0  0  0  0  0  0  0  0  0  0
  -12.6934   17.3554  -39.3514 H   0  0  0  0  0  0  0  0  0  0  0  0
  -13.9717   16.9823  -37.3515 H   0  0  0  0  0  0  0  0  0  0  0  0
  -15.0961   16.0478  -38.3313 H   0  0  0  0  0  0  0  0  0  0  0  0
  -10.2376   14.8580  -39.4080 H   0  0  0  0  0  0  0  0  0  0  0  0
  -10.7059   16.4599  -38.8377 H   0  0  0  0  0  0  0  0  0  0  0  0
  -12.3255   16.0325  -36.1497 H   0  0  0  0  0  0  0  0  0  0  0  0
  -12.3481   14.2982  -35.8296 H   0  0  0  0  0  0  0  0  0  0  0  0
  -12.2153   14.8858  -40.5109 H   0  0  0  0  0  0  0  0  0  0  0  0
  -14.2544   14.2648  -37.0408 H   0  0  0  0  0  0  0  0  0  0  0  0
   -9.5395   16.1999  -33.3887 H   0  0  0  0  0  0  0  0  0  0  0  0
   -9.0043   17.2314  -34.7516 H   0  0  0  0  0  0  0  0  0  0  0  0
   -8.2425   15.6425  -34.4777 H   0  0  0  0  0  0  0  0  0  0  0  0
  -11.3189   12.9281  -36.9444 H   0  0  0  0  0  0  0  0  0  0  0  0
  -10.4908   13.1521  -38.3338 H   0  0  0  0  0  0  0  0  0  0  0  0
  1  8  1  0  0  0  0
  1 11  2  0  0  0  0
  1 13  1  0  0  0  0
  2  3  1  0  0  0  0
  2  6  1  0  0  0  0
  3  7  1  0  0  0  0
  4  6  1  0  0  0  0
  4  8  1  0  0  0  0
  5  7  1  0  0  0  0
  5  8  1  0  0  0  0
  6 12  1  0  0  0  0
  7 12  1  0  0  0  0
  8 10  1  0  0  0  0
  9 13  1  0  0  0  0
  2 14  1  0  0  0  0
  2 15  1  0  0  0  0
  3 16  1  0  0  0  0
  3 17  1  0  0  0  0
  4 18  1  0  0  0  0
  4 19  1  0  0  0  0
  5 20  1  0  0  0  0
  5 21  1  0  0  0  0
  6 22  1  0  0  0  0
  7 23  1  0  0  0  0
  9 24  1  0  0  0  0
  9 25  1  0  0  0  0
  9 26  1  0  0  0  0
 10 27  1  0  0  0  0
 10 28  1  0  0  0  0
M  END
> <id>
EN300-22811974

> <smiles>
COC(=O)C1(N)CC2CCC(C1)O2

> <MDLNUMBER>
MFCD31654896

> <IUPAC Name>
methyl 3-amino-8-oxabicyclo[3.2.1]octane-3-carboxylate

> <URL>
https://www.enaminestore.com/catalog/EN300-22811974

> <ROCS_ShapeQuery>
_x1247relevant_x1083L0AP1_x1305L0BP1_

> <ROCS_TanimotoCombo>
0.872 

> <ROCS_ShapeTanimoto>
0.456 

> <ROCS_ColorTanimoto>
0.416 

> <ROCS_RefTversky>
0.388 

> <ROCS_RefColorTversky>
0.438 

> <ROCS_RefTverskyCombo>
0.826 

> <ROCS_FitTversky>
1.619 

> <ROCS_FitColorTversky>
0.894 

> <ROCS_FitTverskyCombo>
2.513 

> <ROCS_ColorScore>
-9.300

> <ROCS_Overlap>
1140.755

> <ROCS_Rank>
36                  

$$$$
untitled-dbase-147901_161
  -OEChem-06232314393D

 38 39  0     1  0  0  0  0  0999 V2000
  -10.3916   14.6925  -36.5569 C   0  0  0  0  0  0  0  0  0  0  0  0
  -12.2861   14.2191  -39.0525 C   0  0  0  0  0  0  0  0  0  0  0  0
  -11.5577   15.4512  -37.1226 C   0  0  1  0  0  0  0  0  0  0  0  0
  -11.4925   15.4748  -38.6672 C   0  0  2  0  0  0  0  0  0  0  0  0
  -13.5274   14.6472  -38.2640 C   0  0  1  0  0  0  0  0  0  0  0  0
  -12.9520   14.8303  -36.8362 C   0  0  1  0  0  0  0  0  0  0  0  0
  -12.4199   16.5960  -39.1805 C   0  0  2  0  0  0  0  0  0  0  0  0
  -13.8247   16.0438  -38.8616 C   0  0  1  0  0  0  0  0  0  0  0  0
   -7.5937   14.2833  -36.2397 C   0  0  0  0  0  0  0  0  0  0  0  0
   -7.5169   14.1462  -38.7466 C   0  0  0  0  0  0  0  0  0  0  0  0
   -8.2714   16.2670  -37.6326 C   0  0  0  0  0  0  0  0  0  0  0  0
   -8.2451   14.7418  -37.5437 C   0  0  0  0  0  0  0  0  0  0  0  0
  -12.9038   13.5534  -36.1297 N   0  0  0  0  0  0  0  0  0  0  0  0
  -10.2107   14.5058  -35.3612 O   0  0  0  0  0  0  0  0  0  0  0  0
  -12.2158   16.7821  -40.5726 O   0  0  0  0  0  0  0  0  0  0  0  0
  -14.6482   15.9414  -40.0123 O   0  0  0  0  0  0  0  0  0  0  0  0
   -9.5925   14.2604  -37.5735 O   0  0  0  0  0  0  0  0  0  0  0  0
  -12.4681   14.1365  -40.1293 H   0  0  0  0  0  0  0  0  0  0  0  0
  -11.8315   13.2889  -38.7000 H   0  0  0  0  0  0  0  0  0  0  0  0
  -11.4969   16.4618  -36.7027 H   0  0  0  0  0  0  0  0  0  0  0  0
  -10.4852   15.5002  -39.0911 H   0  0  0  0  0  0  0  0  0  0  0  0
  -14.3680   13.9518  -38.3367 H   0  0  0  0  0  0  0  0  0  0  0  0
  -13.5637   15.5152  -36.2568 H   0  0  0  0  0  0  0  0  0  0  0  0
  -12.2251   17.5433  -38.6697 H   0  0  0  0  0  0  0  0  0  0  0  0
  -14.3466   16.6814  -38.1231 H   0  0  0  0  0  0  0  0  0  0  0  0
   -8.1135   14.7087  -35.3738 H   0  0  0  0  0  0  0  0  0  0  0  0
   -7.5999   13.1923  -36.1476 H   0  0  0  0  0  0  0  0  0  0  0  0
   -6.5558   14.6299  -36.1782 H   0  0  0  0  0  0  0  0  0  0  0  0
   -7.9810   14.4726  -39.6844 H   0  0  0  0  0  0  0  0  0  0  0  0
   -7.5773   13.0519  -38.7369 H   0  0  0  0  0  0  0  0  0  0  0  0
   -6.4611   14.4350  -38.7634 H   0  0  0  0  0  0  0  0  0  0  0  0
   -8.7386   16.5962  -38.5678 H   0  0  0  0  0  0  0  0  0  0  0  0
   -8.8220   16.7103  -36.7966 H   0  0  0  0  0  0  0  0  0  0  0  0
   -7.2541   16.6748  -37.6350 H   0  0  0  0  0  0  0  0  0  0  0  0
  -12.5051   13.7089  -35.2342 H   0  0  0  0  0  0  0  0  0  0  0  0
  -13.8313   13.2103  -36.0461 H   0  0  0  0  0  0  0  0  0  0  0  0
  -12.8158   17.4927  -40.8534 H   0  0  0  0  0  0  0  0  0  0  0  0
  -14.1650   15.3998  -40.6582 H   0  0  0  0  0  0  0  0  0  0  0  0
  1  3  1  1  0  0  0
  1 14  2  0  0  0  0
  1 17  1  0  0  0  0
  2  4  1  1  0  0  0
  2  5  1  1  0  0  0
  3  4  1  0  0  0  0
  3  6  1  0  0  0  0
  4  7  1  0  0  0  0
  5  6  1  0  0  0  0
  5  8  1  0  0  0  0
  6 13  1  1  0  0  0
  7  8  1  0  0  0  0
  7 15  1  1  0  0  0
  8 16  1  1  0  0  0
  9 12  1  0  0  0  0
 10 12  1  0  0  0  0
 11 12  1  0  0  0  0
 12 17  1  0  0  0  0
  2 18  1  0  0  0  0
  2 19  1  0  0  0  0
  3 20  1  0  0  0  0
  4 21  1  0  0  0  0
  5 22  1  0  0  0  0
  6 23  1  0  0  0  0
  7 24  1  0  0  0  0
  8 25  1  0  0  0  0
  9 26  1  0  0  0  0
  9 27  1  0  0  0  0
  9 28  1  0  0  0  0
 10 29  1  0  0  0  0
 10 30  1  0  0  0  0
 10 31  1  0  0  0  0
 11 32  1  0  0  0  0
 11 33  1  0  0  0  0
 11 34  1  0  0  0  0
 13 35  1  0  0  0  0
 13 36  1  0  0  0  0
 15 37  1  0  0  0  0
 16 38  1  0  0  0  0
M  END
> <id>
EN300-27730074

> <smiles>
CC(C)(C)OC(=O)[C@@H]1[C@H](N)[C@@H]2C[C@H]1[C@@H](O)[C@H]2O |&1:7,8,10,12,13,15,r|

> <IUPAC Name>
rac-tert-butyl (1R,2S,3R,4S,5S,6R)-3-amino-5,6-dihydroxybicyclo[2.2.1]heptane-2-carboxylate

> <CAS>
2639389-01-6

> <URL>
https://www.enaminestore.com/catalog/EN300-27730074

> <ROCS_ShapeQuery>
_x1247relevant_x1083L0AP1_x1305L0BP1_

> <ROCS_TanimotoCombo>
0.872 

> <ROCS_ShapeTanimoto>
0.518 

> <ROCS_ColorTanimoto>
0.354 

> <ROCS_RefTversky>
0.442 

> <ROCS_RefColorTversky>
0.440 

> <ROCS_RefTverskyCombo>
0.882 

> <ROCS_FitTversky>
1.499 

> <ROCS_FitColorTversky>
0.643 

> <ROCS_FitTverskyCombo>
2.142 

> <ROCS_ColorScore>
-9.449

> <ROCS_Overlap>
1302.562

> <ROCS_Rank>
37                  

$$$$
untitled-dbase-20908_3
  -OEChem-06232314393D

 24 25  0     1  0  0  0  0  0999 V2000
  -10.1269   15.1834  -36.7985 C   0  0  0  0  0  0  0  0  0  0  0  0
  -12.9797   16.2736  -37.0124 C   0  0  0  0  0  0  0  0  0  0  0  0
  -13.6921   14.9257  -37.1904 C   0  0  0  0  0  0  0  0  0  0  0  0
  -12.5931   16.4111  -39.4732 C   0  0  0  0  0  0  0  0  0  0  0  0
  -10.9372   15.2191  -38.0546 C   0  0  2  0  0  0  0  0  0  0  0  0
  -11.8948   16.4289  -38.0980 C   0  0  2  0  0  0  0  0  0  0  0  0
  -13.1059   14.1820  -38.4014 C   0  0  1  0  0  0  0  0  0  0  0  0
  -13.2626   15.0490  -39.6564 C   0  0  0  0  0  0  0  0  0  0  0  0
  -11.6741   13.9473  -38.1393 N   0  0  0  0  0  0  0  0  0  0  0  0
  -10.4569   14.6187  -35.7663 O   0  0  0  0  0  0  0  0  0  0  0  0
   -8.9683   15.8688  -36.9567 O   0  0  0  0  0  0  0  0  0  0  0  0
  -12.7276   14.4114  -40.7276 F   0  0  0  0  0  0  0  0  0  0  0  0
  -14.5792   15.2222  -39.9344 F   0  0  0  0  0  0  0  0  0  0  0  0
  -13.7071   17.0913  -37.0837 H   0  0  0  0  0  0  0  0  0  0  0  0
  -12.5419   16.3372  -36.0098 H   0  0  0  0  0  0  0  0  0  0  0  0
  -13.5823   14.3236  -36.2799 H   0  0  0  0  0  0  0  0  0  0  0  0
  -14.7675   15.0900  -37.3290 H   0  0  0  0  0  0  0  0  0  0  0  0
  -13.3346   17.2161  -39.5309 H   0  0  0  0  0  0  0  0  0  0  0  0
  -11.8584   16.5822  -40.2682 H   0  0  0  0  0  0  0  0  0  0  0  0
  -10.2282   15.2858  -38.8893 H   0  0  0  0  0  0  0  0  0  0  0  0
  -11.3530   17.3703  -37.9534 H   0  0  0  0  0  0  0  0  0  0  0  0
  -13.6161   13.2221  -38.5326 H   0  0  0  0  0  0  0  0  0  0  0  0
  -11.2792   13.3831  -38.8917 H   0  0  0  0  0  0  0  0  0  0  0  0
   -8.8877   16.2495  -37.8572 H   0  0  0  0  0  0  0  0  0  0  0  0
  1  5  1  0  0  0  0
  1 10  2  0  0  0  0
  1 11  1  0  0  0  0
  2  3  1  0  0  0  0
  2  6  1  0  0  0  0
  3  7  1  0  0  0  0
  4  6  1  0  0  0  0
  4  8  1  0  0  0  0
  5  6  1  0  0  0  0
  5  9  1  0  0  0  0
  7  8  1  0  0  0  0
  7  9  1  0  0  0  0
  8 12  1  0  0  0  0
  8 13  1  0  0  0  0
  2 14  1  0  0  0  0
  2 15  1  0  0  0  0
  3 16  1  0  0  0  0
  3 17  1  0  0  0  0
  4 18  1  0  0  0  0
  4 19  1  0  0  0  0
  5 20  1  0  0  0  0
  6 21  1  0  0  0  0
  7 22  1  0  0  0  0
  9 23  1  0  0  0  0
 11 24  1  0  0  0  0
M  END
> <id>
EN300-295932

> <smiles>
Cl.OC(=O)C1NC2CCC1CC2(F)F

> <MDLNUMBER>
MFCD24528908

> <IUPAC Name>
6,6-difluoro-2-azabicyclo[2.2.2]octane-3-carboxylic acid hydrochloride

> <CAS>
1822526-41-9

> <URL>
https://www.enaminestore.com/catalog/EN300-295932

> <Saltdate>
Cl

> <ROCS_ShapeQuery>
_x1247relevant_x1083L0AP1_x1305L0BP1_

> <ROCS_TanimotoCombo>
0.872 

> <ROCS_ShapeTanimoto>
0.487 

> <ROCS_ColorTanimoto>
0.385 

> <ROCS_RefTversky>
0.407 

> <ROCS_RefColorTversky>
0.429 

> <ROCS_RefTverskyCombo>
0.836 

> <ROCS_FitTversky>
1.678 

> <ROCS_FitColorTversky>
0.789 

> <ROCS_FitTverskyCombo>
2.468 

> <ROCS_ColorScore>
-9.137

> <ROCS_Overlap>
1196.113

> <ROCS_Rank>
38                  

$$$$
untitled-dbase-97390_7
  -OEChem-06232314393D

 31 33  0     1  0  0  0  0  0999 V2000
  -14.3188   16.3320  -41.1684 C   0  0  0  0  0  0  0  0  0  0  0  0
  -14.8992   15.5526  -39.9979 C   0  0  0  0  0  0  0  0  0  0  0  0
  -12.8165   16.1826  -40.9818 C   0  0  0  0  0  0  0  0  0  0  0  0
  -12.4597   14.0129  -38.7563 C   0  0  0  0  0  0  0  0  0  0  0  0
  -12.7767   15.2013  -36.7305 C   0  0  0  0  0  0  0  0  0  0  0  0
  -13.9672   15.8815  -38.8304 C   0  0  2  0  0  0  0  0  0  0  0  0
  -12.6187   16.2988  -39.4699 C   0  0  1  0  0  0  0  0  0  0  0  0
  -13.5728   14.6795  -37.9455 C   0  0  1  0  0  0  0  0  0  0  0  0
  -11.6221   15.2951  -38.8499 C   0  0  1  0  0  0  0  0  0  0  0  0
  -11.4536   15.6717  -37.3619 C   0  0  2  0  0  0  0  0  0  0  0  0
  -10.0839   13.3983  -37.4419 N   0  0  0  0  0  0  0  0  0  0  0  0
   -8.8602   15.6263  -37.0479 O   0  0  0  0  0  0  0  0  0  0  0  0
  -10.3286   14.6772  -35.2235 O   0  0  0  0  0  0  0  0  0  0  0  0
  -10.0453   14.8974  -36.6309 S   0  0  0  0  0  0  0  0  0  0  0  0
  -14.6578   15.9456  -42.1337 H   0  0  0  0  0  0  0  0  0  0  0  0
  -14.6063   17.3880  -41.1010 H   0  0  0  0  0  0  0  0  0  0  0  0
  -15.9316   15.8487  -39.7866 H   0  0  0  0  0  0  0  0  0  0  0  0
  -14.9075   14.4800  -40.2226 H   0  0  0  0  0  0  0  0  0  0  0  0
  -12.4790   15.2134  -41.3654 H   0  0  0  0  0  0  0  0  0  0  0  0
  -12.2620   16.9564  -41.5221 H   0  0  0  0  0  0  0  0  0  0  0  0
  -11.9625   13.2024  -38.2143 H   0  0  0  0  0  0  0  0  0  0  0  0
  -12.7899   13.6293  -39.7254 H   0  0  0  0  0  0  0  0  0  0  0  0
  -13.2974   16.0213  -36.2250 H   0  0  0  0  0  0  0  0  0  0  0  0
  -12.6231   14.3979  -36.0012 H   0  0  0  0  0  0  0  0  0  0  0  0
  -14.3891   16.7009  -38.2363 H   0  0  0  0  0  0  0  0  0  0  0  0
  -12.3675   17.3343  -39.2103 H   0  0  0  0  0  0  0  0  0  0  0  0
  -14.4088   14.0320  -37.6730 H   0  0  0  0  0  0  0  0  0  0  0  0
  -10.6859   15.1959  -39.4040 H   0  0  0  0  0  0  0  0  0  0  0  0
  -11.3028   16.7477  -37.2236 H   0  0  0  0  0  0  0  0  0  0  0  0
   -9.3556   13.2149  -38.1430 H   0  0  0  0  0  0  0  0  0  0  0  0
  -10.3559   12.5685  -36.9006 H   0  0  0  0  0  0  0  0  0  0  0  0
  1  2  1  0  0  0  0
  1  3  1  0  0  0  0
  2  6  1  0  0  0  0
  3  7  1  0  0  0  0
  4  8  1  0  0  0  0
  4  9  1  0  0  0  0
  5  8  1  0  0  0  0
  5 10  1  0  0  0  0
  6  7  1  0  0  0  0
  6  8  1  0  0  0  0
  7  9  1  0  0  0  0
  9 10  1  0  0  0  0
 10 14  1  0  0  0  0
 11 14  1  0  0  0  0
 12 14  2  0  0  0  0
 13 14  2  0  0  0  0
  1 15  1  0  0  0  0
  1 16  1  0  0  0  0
  2 17  1  0  0  0  0
  2 18  1  0  0  0  0
  3 19  1  0  0  0  0
  3 20  1  0  0  0  0
  4 21  1  0  0  0  0
  4 22  1  0  0  0  0
  5 23  1  0  0  0  0
  5 24  1  0  0  0  0
  6 25  1  0  0  0  0
  7 26  1  0  0  0  0
  8 27  1  0  0  0  0
  9 28  1  0  0  0  0
 10 29  1  0  0  0  0
 11 30  1  0  0  0  0
 11 31  1  0  0  0  0
M  END
> <id>
EN300-274081

> <smiles>
NS(=O)(=O)C1CC2CC1C3CCCC23

> <MDLNUMBER>
MFCD16671964

> <IUPAC Name>
tricyclo[5.2.1.0,2,6]decane-8-sulfonamide

> <CAS>
1251092-93-9

> <URL>
https://www.enaminestore.com/catalog/EN300-274081

> <ROCS_ShapeQuery>
_x1247relevant_x1083L0AP1_x1305L0BP1_

> <ROCS_TanimotoCombo>
0.871 

> <ROCS_ShapeTanimoto>
0.505 

> <ROCS_ColorTanimoto>
0.366 

> <ROCS_RefTversky>
0.419 

> <ROCS_RefColorTversky>
0.406 

> <ROCS_RefTverskyCombo>
0.825 

> <ROCS_FitTversky>
1.689 

> <ROCS_FitColorTversky>
0.786 

> <ROCS_FitTverskyCombo>
2.475 

> <ROCS_ColorScore>
-8.645

> <ROCS_Overlap>
1231.840

> <ROCS_Rank>
39                  

$$$$
untitled-dbase-4263_85
  -OEChem-06232314393D

 43 44  0     1  0  0  0  0  0999 V2000
   -8.8573   14.4295  -37.1177 C   0  0  0  0  0  0  0  0  0  0  0  0
  -14.2523   14.9444  -37.5892 C   0  0  0  0  0  0  0  0  0  0  0  0
  -13.5929   16.3193  -37.3819 C   0  0  0  0  0  0  0  0  0  0  0  0
  -12.2784   13.5295  -38.3254 C   0  0  0  0  0  0  0  0  0  0  0  0
  -11.1750   15.8271  -37.9803 C   0  0  0  0  0  0  0  0  0  0  0  0
  -13.5172   14.3195  -38.7956 C   0  0  2  0  0  0  0  0  0  0  0  0
  -12.5098   16.4192  -38.4781 C   0  0  1  0  0  0  0  0  0  0  0  0
  -11.3223   14.3816  -37.4675 C   0  0  0  0  0  0  0  0  0  0  0  0
  -13.1117   15.5627  -39.6066 C   0  0  0  0  0  0  0  0  0  0  0  0
   -8.0396   13.9322  -34.6826 C   0  0  0  0  0  0  0  0  0  0  0  0
   -6.5521   12.1279  -35.5999 C   0  0  0  0  0  0  0  0  0  0  0  0
   -5.9362   14.5413  -35.9234 C   0  0  0  0  0  0  0  0  0  0  0  0
  -12.2114   15.3061  -40.8106 C   0  0  0  0  0  0  0  0  0  0  0  0
   -7.0872   13.5424  -35.8121 C   0  0  0  0  0  0  0  0  0  0  0  0
  -10.0337   13.7437  -37.3397 N   0  0  0  0  0  0  0  0  0  0  0  0
   -8.7490   15.6458  -37.0015 O   0  0  0  0  0  0  0  0  0  0  0  0
  -14.2978   16.1917  -40.1096 O   0  0  0  0  0  0  0  0  0  0  0  0
   -7.8160   13.5475  -37.0448 O   0  0  0  0  0  0  0  0  0  0  0  0
  -12.8243   14.4864  -41.6793 F   0  0  0  0  0  0  0  0  0  0  0  0
  -11.9297   16.4624  -41.4315 F   0  0  0  0  0  0  0  0  0  0  0  0
  -11.0623   14.7361  -40.4149 F   0  0  0  0  0  0  0  0  0  0  0  0
  -14.1962   14.3216  -36.6903 H   0  0  0  0  0  0  0  0  0  0  0  0
  -15.3156   15.0814  -37.8208 H   0  0  0  0  0  0  0  0  0  0  0  0
  -14.3434   17.1075  -37.5156 H   0  0  0  0  0  0  0  0  0  0  0  0
  -13.1844   16.4313  -36.3722 H   0  0  0  0  0  0  0  0  0  0  0  0
  -12.6043   12.6600  -37.7399 H   0  0  0  0  0  0  0  0  0  0  0  0
  -11.7517   13.1247  -39.1978 H   0  0  0  0  0  0  0  0  0  0  0  0
  -10.4337   15.8731  -38.7868 H   0  0  0  0  0  0  0  0  0  0  0  0
  -10.7803   16.4545  -37.1706 H   0  0  0  0  0  0  0  0  0  0  0  0
  -14.1962   13.6645  -39.3528 H   0  0  0  0  0  0  0  0  0  0  0  0
  -12.3725   17.4638  -38.7784 H   0  0  0  0  0  0  0  0  0  0  0  0
  -11.7195   14.4186  -36.4458 H   0  0  0  0  0  0  0  0  0  0  0  0
   -8.4259   14.9469  -34.8313 H   0  0  0  0  0  0  0  0  0  0  0  0
   -8.8881   13.2436  -34.6148 H   0  0  0  0  0  0  0  0  0  0  0  0
   -7.5202   13.9375  -33.7175 H   0  0  0  0  0  0  0  0  0  0  0  0
   -5.8683   11.8441  -36.4080 H   0  0  0  0  0  0  0  0  0  0  0  0
   -7.3677   11.3959  -35.6143 H   0  0  0  0  0  0  0  0  0  0  0  0
   -6.0203   12.0358  -34.6474 H   0  0  0  0  0  0  0  0  0  0  0  0
   -5.2529   14.2619  -36.7335 H   0  0  0  0  0  0  0  0  0  0  0  0
   -6.3000   15.5564  -36.1127 H   0  0  0  0  0  0  0  0  0  0  0  0
   -5.3388   14.5512  -35.0046 H   0  0  0  0  0  0  0  0  0  0  0  0
   -9.9906   12.7317  -37.4176 H   0  0  0  0  0  0  0  0  0  0  0  0
  -13.9995   16.9638  -40.6103 H   0  0  0  0  0  0  0  0  0  0  0  0
  1 15  1  0  0  0  0
  1 16  2  0  0  0  0
  1 18  1  0  0  0  0
  2  3  1  0  0  0  0
  2  6  1  0  0  0  0
  3  7  1  0  0  0  0
  4  6  1  0  0  0  0
  4  8  1  0  0  0  0
  5  7  1  0  0  0  0
  5  8  1  0  0  0  0
  6  9  1  0  0  0  0
  7  9  1  0  0  0  0
  8 15  1  0  0  0  0
  9 13  1  0  0  0  0
  9 17  1  0  0  0  0
 10 14  1  0  0  0  0
 11 14  1  0  0  0  0
 12 14  1  0  0  0  0
 13 19  1  0  0  0  0
 13 20  1  0  0  0  0
 13 21  1  0  0  0  0
 14 18  1  0  0  0  0
  2 22  1  0  0  0  0
  2 23  1  0  0  0  0
  3 24  1  0  0  0  0
  3 25  1  0  0  0  0
  4 26  1  0  0  0  0
  4 27  1  0  0  0  0
  5 28  1  0  0  0  0
  5 29  1  0  0  0  0
  6 30  1  0  0  0  0
  7 31  1  0  0  0  0
  8 32  1  0  0  0  0
 10 33  1  0  0  0  0
 10 34  1  0  0  0  0
 10 35  1  0  0  0  0
 11 36  1  0  0  0  0
 11 37  1  0  0  0  0
 11 38  1  0  0  0  0
 12 39  1  0  0  0  0
 12 40  1  0  0  0  0
 12 41  1  0  0  0  0
 15 42  1  0  0  0  0
 17 43  1  0  0  0  0
M  END
> <id>
EN300-89653

> <smiles>
CC(C)(C)OC(=O)NC1CC2CCC(C1)C2(O)C(F)(F)F

> <MDLNUMBER>
MFCD19442744

> <IUPAC Name>
tert-butyl N-[8-hydroxy-8-(trifluoromethyl)bicyclo[3.2.1]octan-3-yl]carbamate

> <CAS>
1251924-94-3

> <URL>
https://www.enaminestore.com/catalog/EN300-89653

> <ROCS_ShapeQuery>
_x1247relevant_x1083L0AP1_x1305L0BP1_

> <ROCS_TanimotoCombo>
0.868 

> <ROCS_ShapeTanimoto>
0.477 

> <ROCS_ColorTanimoto>
0.391 

> <ROCS_RefTversky>
0.438 

> <ROCS_RefColorTversky>
0.431 

> <ROCS_RefTverskyCombo>
0.869 

> <ROCS_FitTversky>
1.231 

> <ROCS_FitColorTversky>
0.809 

> <ROCS_FitTverskyCombo>
2.040 

> <ROCS_ColorScore>
-9.181

> <ROCS_Overlap>
1294.960

> <ROCS_Rank>
40                  

$$$$
untitled-dbase-169560_24
  -OEChem-06232314393D

 34 36  0     1  0  0  0  0  0999 V2000
  -12.3821   16.0417  -39.5670 C   0  0  0  0  0  0  0  0  0  0  0  0
  -10.2914   14.8315  -36.7779 C   0  0  0  0  0  0  0  0  0  0  0  0
  -14.2487   14.7358  -38.7205 C   0  0  0  0  0  0  0  0  0  0  0  0
  -14.0445   15.3064  -37.2962 C   0  0  0  0  0  0  0  0  0  0  0  0
  -11.8610   13.9284  -38.6290 C   0  0  0  0  0  0  0  0  0  0  0  0
  -12.9293   14.6289  -39.5012 C   0  0  2  0  0  0  0  0  0  0  0  0
  -11.8274   16.3212  -38.2211 C   0  0  1  0  0  0  0  0  0  0  0  0
  -12.6418   15.8080  -37.0556 C   0  0  2  0  0  0  0  0  0  0  0  0
  -11.4995   14.9814  -37.5987 C   0  0  2  0  0  0  0  0  0  0  0  0
   -9.3468   12.4268  -37.1190 C   0  0  0  0  0  0  0  0  0  0  0  0
   -7.7785   13.3378  -38.8568 C   0  0  0  0  0  0  0  0  0  0  0  0
   -7.3431   13.7818  -36.4234 C   0  0  0  0  0  0  0  0  0  0  0  0
   -8.4174   13.5812  -37.4912 C   0  0  0  0  0  0  0  0  0  0  0  0
  -12.4377   16.8402  -40.4831 O   0  0  0  0  0  0  0  0  0  0  0  0
  -10.2970   14.7665  -35.5561 O   0  0  0  0  0  0  0  0  0  0  0  0
   -9.1947   14.7791  -37.5863 O   0  0  0  0  0  0  0  0  0  0  0  0
  -14.7251   13.7507  -38.6493 H   0  0  0  0  0  0  0  0  0  0  0  0
  -14.9491   15.3819  -39.2650 H   0  0  0  0  0  0  0  0  0  0  0  0
  -14.7582   16.1200  -37.1232 H   0  0  0  0  0  0  0  0  0  0  0  0
  -14.2698   14.5275  -36.5580 H   0  0  0  0  0  0  0  0  0  0  0  0
  -12.2395   13.0128  -38.1632 H   0  0  0  0  0  0  0  0  0  0  0  0
  -10.9795   13.6812  -39.2325 H   0  0  0  0  0  0  0  0  0  0  0  0
  -13.0421   14.1767  -40.4882 H   0  0  0  0  0  0  0  0  0  0  0  0
  -11.1497   17.1513  -38.0838 H   0  0  0  0  0  0  0  0  0  0  0  0
  -12.5266   16.2938  -36.0954 H   0  0  0  0  0  0  0  0  0  0  0  0
   -9.8074   12.5978  -36.1394 H   0  0  0  0  0  0  0  0  0  0  0  0
  -10.1427   12.2949  -37.8592 H   0  0  0  0  0  0  0  0  0  0  0  0
   -8.7895   11.4865  -37.0387 H   0  0  0  0  0  0  0  0  0  0  0  0
   -7.1108   14.1636  -39.1279 H   0  0  0  0  0  0  0  0  0  0  0  0
   -8.5419   13.2877  -39.6415 H   0  0  0  0  0  0  0  0  0  0  0  0
   -7.2027   12.4068  -38.8732 H   0  0  0  0  0  0  0  0  0  0  0  0
   -6.6763   14.6098  -36.6901 H   0  0  0  0  0  0  0  0  0  0  0  0
   -7.7830   13.9943  -35.4436 H   0  0  0  0  0  0  0  0  0  0  0  0
   -6.7103   12.8913  -36.3352 H   0  0  0  0  0  0  0  0  0  0  0  0
  1  6  1  0  0  0  0
  1  7  1  0  0  0  0
  1 14  2  0  0  0  0
  2  9  1  0  0  0  0
  2 15  2  0  0  0  0
  2 16  1  0  0  0  0
  3  4  1  0  0  0  0
  3  6  1  0  0  0  0
  4  8  1  0  0  0  0
  5  6  1  0  0  0  0
  5  9  1  0  0  0  0
  7  8  1  0  0  0  0
  7  9  1  0  0  0  0
  8  9  1  0  0  0  0
 10 13  1  0  0  0  0
 11 13  1  0  0  0  0
 12 13  1  0  0  0  0
 13 16  1  0  0  0  0
  3 17  1  0  0  0  0
  3 18  1  0  0  0  0
  4 19  1  0  0  0  0
  4 20  1  0  0  0  0
  5 21  1  0  0  0  0
  5 22  1  0  0  0  0
  6 23  1  0  0  0  0
  7 24  1  0  0  0  0
  8 25  1  0  0  0  0
 10 26  1  0  0  0  0
 10 27  1  0  0  0  0
 10 28  1  0  0  0  0
 11 29  1  0  0  0  0
 11 30  1  0  0  0  0
 11 31  1  0  0  0  0
 12 32  1  0  0  0  0
 12 33  1  0  0  0  0
 12 34  1  0  0  0  0
M  END
> <id>
EN300-37354083

> <smiles>
CC(C)(C)OC(=O)C12CC3CCC2C1C3=O

> <IUPAC Name>
tert-butyl 6-oxotricyclo[3.2.1.0,2,7]octane-1-carboxylate

> <Purity>
95

> <URL>
https://www.enaminestore.com/catalog/EN300-37354083

> <ROCS_ShapeQuery>
_x1247relevant_x1083L0AP1_x1305L0BP1_

> <ROCS_TanimotoCombo>
0.868 

> <ROCS_ShapeTanimoto>
0.495 

> <ROCS_ColorTanimoto>
0.373 

> <ROCS_RefTversky>
0.425 

> <ROCS_RefColorTversky>
0.620 

> <ROCS_RefTverskyCombo>
1.045 

> <ROCS_FitTversky>
1.490 

> <ROCS_FitColorTversky>
0.484 

> <ROCS_FitTverskyCombo>
1.974 

> <ROCS_ColorScore>
-13.755

> <ROCS_Overlap>
1254.084

> <ROCS_Rank>
41                  

$$$$
untitled-dbase-21027_5
  -OEChem-06232314393D

 21 22  0     1  0  0  0  0  0999 V2000
  -10.1894   15.2545  -36.7304 C   0  0  0  0  0  0  0  0  0  0  0  0
  -13.2775   15.1608  -37.1122 C   0  0  0  0  0  0  0  0  0  0  0  0
  -12.9791   16.5560  -39.0198 C   0  0  0  0  0  0  0  0  0  0  0  0
  -11.0592   15.4167  -37.9338 C   0  0  2  0  0  0  0  0  0  0  0  0
  -12.3291   16.2322  -37.6566 C   0  0  2  0  0  0  0  0  0  0  0  0
  -13.0532   14.2505  -38.3103 C   0  0  1  0  0  0  0  0  0  0  0  0
  -13.4528   15.1721  -39.4680 C   0  0  0  0  0  0  0  0  0  0  0  0
  -11.5843   14.0826  -38.2830 N   0  0  0  0  0  0  0  0  0  0  0  0
  -10.5577   14.8106  -35.6530 O   0  0  0  0  0  0  0  0  0  0  0  0
   -8.9265   15.6710  -36.9928 O   0  0  0  0  0  0  0  0  0  0  0  0
  -12.8977   14.7936  -40.6342 F   0  0  0  0  0  0  0  0  0  0  0  0
  -14.7951   15.1681  -39.6328 F   0  0  0  0  0  0  0  0  0  0  0  0
  -12.9539   14.7238  -36.1617 H   0  0  0  0  0  0  0  0  0  0  0  0
  -14.3113   15.5101  -37.0154 H   0  0  0  0  0  0  0  0  0  0  0  0
  -13.8299   17.2325  -38.8857 H   0  0  0  0  0  0  0  0  0  0  0  0
  -12.2698   17.0057  -39.7209 H   0  0  0  0  0  0  0  0  0  0  0  0
  -10.4527   15.8362  -38.7436 H   0  0  0  0  0  0  0  0  0  0  0  0
  -12.1913   17.0992  -37.0070 H   0  0  0  0  0  0  0  0  0  0  0  0
  -13.5982   13.3050  -38.2799 H   0  0  0  0  0  0  0  0  0  0  0  0
  -11.2518   13.8104  -39.2075 H   0  0  0  0  0  0  0  0  0  0  0  0
   -8.3393   15.5741  -36.2129 H   0  0  0  0  0  0  0  0  0  0  0  0
  1  4  1  0  0  0  0
  1  9  2  0  0  0  0
  1 10  1  0  0  0  0
  2  5  1  0  0  0  0
  2  6  1  0  0  0  0
  3  5  1  0  0  0  0
  3  7  1  0  0  0  0
  4  5  1  0  0  0  0
  4  8  1  0  0  0  0
  6  7  1  0  0  0  0
  6  8  1  0  0  0  0
  7 11  1  0  0  0  0
  7 12  1  0  0  0  0
  2 13  1  0  0  0  0
  2 14  1  0  0  0  0
  3 15  1  0  0  0  0
  3 16  1  0  0  0  0
  4 17  1  0  0  0  0
  5 18  1  0  0  0  0
  6 19  1  0  0  0  0
  8 20  1  0  0  0  0
 10 21  1  0  0  0  0
M  END
> <id>
EN300-296019

> <smiles>
Cl.OC(=O)C1NC2CC1CC2(F)F

> <MDLNUMBER>
MFCD24529458

> <IUPAC Name>
6,6-difluoro-2-azabicyclo[2.2.1]heptane-3-carboxylic acid hydrochloride

> <CAS>
1822562-03-7

> <URL>
https://www.enaminestore.com/catalog/EN300-296019

> <Saltdate>
Cl

> <ROCS_ShapeQuery>
_x1247relevant_x1083L0AP1_x1305L0BP1_

> <ROCS_TanimotoCombo>
0.867 

> <ROCS_ShapeTanimoto>
0.474 

> <ROCS_ColorTanimoto>
0.393 

> <ROCS_RefTversky>
0.396 

> <ROCS_RefColorTversky>
0.440 

> <ROCS_RefTverskyCombo>
0.836 

> <ROCS_FitTversky>
1.715 

> <ROCS_FitColorTversky>
0.789 

> <ROCS_FitTverskyCombo>
2.504 

> <ROCS_ColorScore>
-9.380

> <ROCS_Overlap>
1162.725

> <ROCS_Rank>
42                  

$$$$
untitled-dbase-147761_5
  -OEChem-06232314393D

 21 22  0     1  0  0  0  0  0999 V2000
  -10.1905   15.2533  -36.7279 C   0  0  0  0  0  0  0  0  0  0  0  0
  -13.2782   15.1602  -37.1111 C   0  0  0  0  0  0  0  0  0  0  0  0
  -12.9791   16.5566  -39.0178 C   0  0  0  0  0  0  0  0  0  0  0  0
  -11.0597   15.4168  -37.9316 C   0  0  2  0  0  0  0  0  0  0  0  0
  -12.3297   16.2320  -37.6544 C   0  0  2  0  0  0  0  0  0  0  0  0
  -13.0535   14.2507  -38.3098 C   0  0  1  0  0  0  0  0  0  0  0  0
  -13.4531   15.1730  -39.4668 C   0  0  0  0  0  0  0  0  0  0  0  0
  -11.5847   14.0830  -38.2825 N   0  0  0  0  0  0  0  0  0  0  0  0
  -10.5593   14.8083  -35.6511 O   0  0  0  0  0  0  0  0  0  0  0  0
   -8.9275   15.6702  -36.9892 O   0  0  0  0  0  0  0  0  0  0  0  0
  -12.8984   14.7951  -40.6334 F   0  0  0  0  0  0  0  0  0  0  0  0
  -14.7955   15.1691  -39.6313 F   0  0  0  0  0  0  0  0  0  0  0  0
  -12.9549   14.7224  -36.1608 H   0  0  0  0  0  0  0  0  0  0  0  0
  -14.3120   15.5094  -37.0143 H   0  0  0  0  0  0  0  0  0  0  0  0
  -13.8297   17.2335  -38.8836 H   0  0  0  0  0  0  0  0  0  0  0  0
  -12.2694   17.0064  -39.7184 H   0  0  0  0  0  0  0  0  0  0  0  0
  -10.4527   15.8372  -38.7406 H   0  0  0  0  0  0  0  0  0  0  0  0
  -12.1921   17.0985  -37.0041 H   0  0  0  0  0  0  0  0  0  0  0  0
  -13.5984   13.3051  -38.2800 H   0  0  0  0  0  0  0  0  0  0  0  0
  -11.2519   13.8120  -39.2072 H   0  0  0  0  0  0  0  0  0  0  0  0
   -8.3407   15.5726  -36.2092 H   0  0  0  0  0  0  0  0  0  0  0  0
  1  4  1  6  0  0  0
  1  9  2  0  0  0  0
  1 10  1  0  0  0  0
  2  5  1  0  0  0  0
  2  6  1  0  0  0  0
  3  5  1  0  0  0  0
  3  7  1  0  0  0  0
  4  5  1  0  0  0  0
  4  8  1  0  0  0  0
  6  7  1  0  0  0  0
  6  8  1  0  0  0  0
  7 11  1  0  0  0  0
  7 12  1  0  0  0  0
  2 13  1  0  0  0  0
  2 14  1  0  0  0  0
  3 15  1  0  0  0  0
  3 16  1  0  0  0  0
  4 17  1  0  0  0  0
  5 18  1  0  0  0  0
  6 19  1  0  0  0  0
  8 20  1  0  0  0  0
 10 21  1  0  0  0  0
M  END
> <id>
EN300-109613

> <smiles>
OC(=O)[C@H]1NC2CC1CC2(F)F

> <MDLNUMBER>
MFCD27919994

> <IUPAC Name>
(3S)-6,6-difluoro-2-azabicyclo[2.2.1]heptane-3-carboxylic acid

> <CAS>
1394117-06-6

> <URL>
https://www.enaminestore.com/catalog/EN300-109613

> <ROCS_ShapeQuery>
_x1247relevant_x1083L0AP1_x1305L0BP1_

> <ROCS_TanimotoCombo>
0.867 

> <ROCS_ShapeTanimoto>
0.474 

> <ROCS_ColorTanimoto>
0.393 

> <ROCS_RefTversky>
0.396 

> <ROCS_RefColorTversky>
0.440 

> <ROCS_RefTverskyCombo>
0.835 

> <ROCS_FitTversky>
1.715 

> <ROCS_FitColorTversky>
0.789 

> <ROCS_FitTverskyCombo>
2.504 

> <ROCS_ColorScore>
-9.380

> <ROCS_Overlap>
1162.698

> <ROCS_Rank>
43                  

$$$$
untitled-dbase-6985_5
  -OEChem-06232314393D

 21 22  0     1  0  0  0  0  0999 V2000
  -10.1905   15.2533  -36.7279 C   0  0  0  0  0  0  0  0  0  0  0  0
  -13.2782   15.1602  -37.1111 C   0  0  0  0  0  0  0  0  0  0  0  0
  -12.9791   16.5566  -39.0178 C   0  0  0  0  0  0  0  0  0  0  0  0
  -11.0597   15.4168  -37.9316 C   0  0  2  0  0  0  0  0  0  0  0  0
  -12.3297   16.2320  -37.6544 C   0  0  2  0  0  0  0  0  0  0  0  0
  -13.0535   14.2507  -38.3098 C   0  0  1  0  0  0  0  0  0  0  0  0
  -13.4531   15.1730  -39.4668 C   0  0  0  0  0  0  0  0  0  0  0  0
  -11.5847   14.0830  -38.2825 N   0  0  0  0  0  0  0  0  0  0  0  0
  -10.5593   14.8083  -35.6511 O   0  0  0  0  0  0  0  0  0  0  0  0
   -8.9275   15.6702  -36.9892 O   0  0  0  0  0  0  0  0  0  0  0  0
  -12.8984   14.7951  -40.6334 F   0  0  0  0  0  0  0  0  0  0  0  0
  -14.7955   15.1691  -39.6313 F   0  0  0  0  0  0  0  0  0  0  0  0
  -12.9549   14.7224  -36.1608 H   0  0  0  0  0  0  0  0  0  0  0  0
  -14.3120   15.5094  -37.0143 H   0  0  0  0  0  0  0  0  0  0  0  0
  -13.8297   17.2335  -38.8836 H   0  0  0  0  0  0  0  0  0  0  0  0
  -12.2694   17.0064  -39.7184 H   0  0  0  0  0  0  0  0  0  0  0  0
  -10.4527   15.8372  -38.7406 H   0  0  0  0  0  0  0  0  0  0  0  0
  -12.1921   17.0985  -37.0041 H   0  0  0  0  0  0  0  0  0  0  0  0
  -13.5984   13.3051  -38.2800 H   0  0  0  0  0  0  0  0  0  0  0  0
  -11.2519   13.8120  -39.2072 H   0  0  0  0  0  0  0  0  0  0  0  0
   -8.3407   15.5726  -36.2092 H   0  0  0  0  0  0  0  0  0  0  0  0
  1  4  1  6  0  0  0
  1  9  2  0  0  0  0
  1 10  1  0  0  0  0
  2  5  1  0  0  0  0
  2  6  1  0  0  0  0
  3  5  1  0  0  0  0
  3  7  1  0  0  0  0
  4  5  1  0  0  0  0
  4  8  1  0  0  0  0
  6  7  1  0  0  0  0
  6  8  1  0  0  0  0
  7 11  1  0  0  0  0
  7 12  1  0  0  0  0
  2 13  1  0  0  0  0
  2 14  1  0  0  0  0
  3 15  1  0  0  0  0
  3 16  1  0  0  0  0
  4 17  1  0  0  0  0
  5 18  1  0  0  0  0
  6 19  1  0  0  0  0
  8 20  1  0  0  0  0
 10 21  1  0  0  0  0
M  END
> <id>
EN300-109780

> <smiles>
Cl.OC(=O)[C@H]1NC2CC1CC2(F)F

> <MDLNUMBER>
MFCD22378705

> <IUPAC Name>
(3S)-6,6-difluoro-2-azabicyclo[2.2.1]heptane-3-carboxylic acid hydrochloride

> <CAS>
1394052-57-3

> <URL>
https://www.enaminestore.com/catalog/EN300-109780

> <Saltdate>
Cl

> <ROCS_ShapeQuery>
_x1247relevant_x1083L0AP1_x1305L0BP1_

> <ROCS_TanimotoCombo>
0.867 

> <ROCS_ShapeTanimoto>
0.474 

> <ROCS_ColorTanimoto>
0.393 

> <ROCS_RefTversky>
0.396 

> <ROCS_RefColorTversky>
0.440 

> <ROCS_RefTverskyCombo>
0.835 

> <ROCS_FitTversky>
1.715 

> <ROCS_FitColorTversky>
0.789 

> <ROCS_FitTverskyCombo>
2.504 

> <ROCS_ColorScore>
-9.380

> <ROCS_Overlap>
1162.698

> <ROCS_Rank>
44                  

$$$$
untitled-dbase-93274_1
  -OEChem-06232314393D

 28 30  0     1  0  0  0  0  0999 V2000
  -10.0183   15.2893  -36.6759 C   0  0  0  0  0  0  0  0  0  0  0  0
  -13.5015   16.7651  -38.7776 C   0  0  0  0  0  0  0  0  0  0  0  0
  -12.5982   14.7730  -40.0102 C   0  0  0  0  0  0  0  0  0  0  0  0
  -13.9864   14.4469  -37.9421 C   0  0  0  0  0  0  0  0  0  0  0  0
  -11.0464   16.2395  -38.7383 C   0  0  0  0  0  0  0  0  0  0  0  0
  -12.4397   15.9109  -36.6690 C   0  0  0  0  0  0  0  0  0  0  0  0
  -12.3166   16.2288  -39.6042 C   0  0  2  0  0  0  0  0  0  0  0  0
  -13.7183   15.9000  -37.5207 C   0  0  1  0  0  0  0  0  0  0  0  0
  -12.7895   13.9155  -38.7473 C   0  0  0  0  0  0  0  0  0  0  0  0
  -11.2700   15.3540  -37.4993 C   0  0  0  0  0  0  0  0  0  0  0  0
  -11.5694   13.9693  -37.9146 N   0  0  0  0  0  0  0  0  0  0  0  0
   -8.9702   15.8564  -36.9463 O   0  0  0  0  0  0  0  0  0  0  0  0
  -10.2040   14.5092  -35.5831 O   0  0  0  0  0  0  0  0  0  0  0  0
  -13.3111   17.8051  -38.4854 H   0  0  0  0  0  0  0  0  0  0  0  0
  -14.4117   16.7665  -39.3898 H   0  0  0  0  0  0  0  0  0  0  0  0
  -13.4962   14.7243  -40.6383 H   0  0  0  0  0  0  0  0  0  0  0  0
  -11.7671   14.3816  -40.6103 H   0  0  0  0  0  0  0  0  0  0  0  0
  -14.1561   13.8219  -37.0561 H   0  0  0  0  0  0  0  0  0  0  0  0
  -14.8998   14.3941  -38.5473 H   0  0  0  0  0  0  0  0  0  0  0  0
  -10.1902   15.8801  -39.3249 H   0  0  0  0  0  0  0  0  0  0  0  0
  -10.8031   17.2667  -38.4368 H   0  0  0  0  0  0  0  0  0  0  0  0
  -12.2181   16.9327  -36.3342 H   0  0  0  0  0  0  0  0  0  0  0  0
  -12.5901   15.3166  -35.7576 H   0  0  0  0  0  0  0  0  0  0  0  0
  -12.1707   16.8480  -40.4959 H   0  0  0  0  0  0  0  0  0  0  0  0
  -14.5625   16.2872  -36.9401 H   0  0  0  0  0  0  0  0  0  0  0  0
  -12.9735   12.8759  -39.0391 H   0  0  0  0  0  0  0  0  0  0  0  0
  -11.7180   13.3941  -37.0845 H   0  0  0  0  0  0  0  0  0  0  0  0
   -9.3948   14.4525  -35.0315 H   0  0  0  0  0  0  0  0  0  0  0  0
  1 10  1  0  0  0  0
  1 12  2  0  0  0  0
  1 13  1  0  0  0  0
  2  7  1  0  0  0  0
  2  8  1  0  0  0  0
  3  7  1  0  0  0  0
  3  9  1  0  0  0  0
  4  8  1  0  0  0  0
  4  9  1  0  0  0  0
  5  7  1  0  0  0  0
  5 10  1  0  0  0  0
  6  8  1  0  0  0  0
  6 10  1  0  0  0  0
  9 11  1  0  0  0  0
 10 11  1  0  0  0  0
  2 14  1  0  0  0  0
  2 15  1  0  0  0  0
  3 16  1  0  0  0  0
  3 17  1  0  0  0  0
  4 18  1  0  0  0  0
  4 19  1  0  0  0  0
  5 20  1  0  0  0  0
  5 21  1  0  0  0  0
  6 22  1  0  0  0  0
  6 23  1  0  0  0  0
  7 24  1  0  0  0  0
  8 25  1  0  0  0  0
  9 26  1  0  0  0  0
 11 27  1  0  0  0  0
 13 28  1  0  0  0  0
M  END
> <id>
EN300-8097399

> <smiles>
OC(=O)C1(CC2CC3CC(C2)N1)C3

> <MDLNUMBER>
MFCD18909754

> <IUPAC Name>
2-azatricyclo[3.3.1.1,3,7]decane-1-carboxylic acid

> <CAS>
1303973-99-0

> <URL>
https://www.enaminestore.com/catalog/EN300-8097399

> <ROCS_ShapeQuery>
_x1247relevant_x1083L0AP1_x1305L0BP1_

> <ROCS_TanimotoCombo>
0.867 

> <ROCS_ShapeTanimoto>
0.482 

> <ROCS_ColorTanimoto>
0.386 

> <ROCS_RefTversky>
0.405 

> <ROCS_RefColorTversky>
0.435 

> <ROCS_RefTverskyCombo>
0.840 

> <ROCS_FitTversky>
1.655 

> <ROCS_FitColorTversky>
0.771 

> <ROCS_FitTverskyCombo>
2.425 

> <ROCS_ColorScore>
-9.291

> <ROCS_Overlap>
1190.026

> <ROCS_Rank>
45                  

$$$$
untitled-dbase-98438_1
  -OEChem-06232314393D

 28 30  0     1  0  0  0  0  0999 V2000
  -10.0183   15.2893  -36.6759 C   0  0  0  0  0  0  0  0  0  0  0  0
  -13.5015   16.7651  -38.7776 C   0  0  0  0  0  0  0  0  0  0  0  0
  -12.5982   14.7730  -40.0102 C   0  0  0  0  0  0  0  0  0  0  0  0
  -13.9864   14.4469  -37.9421 C   0  0  0  0  0  0  0  0  0  0  0  0
  -11.0464   16.2395  -38.7383 C   0  0  0  0  0  0  0  0  0  0  0  0
  -12.4397   15.9109  -36.6690 C   0  0  0  0  0  0  0  0  0  0  0  0
  -12.3166   16.2288  -39.6042 C   0  0  2  0  0  0  0  0  0  0  0  0
  -13.7183   15.9000  -37.5207 C   0  0  1  0  0  0  0  0  0  0  0  0
  -12.7895   13.9155  -38.7473 C   0  0  0  0  0  0  0  0  0  0  0  0
  -11.2700   15.3540  -37.4993 C   0  0  0  0  0  0  0  0  0  0  0  0
  -11.5694   13.9693  -37.9146 N   0  0  0  0  0  0  0  0  0  0  0  0
   -8.9702   15.8564  -36.9463 O   0  0  0  0  0  0  0  0  0  0  0  0
  -10.2040   14.5092  -35.5831 O   0  0  0  0  0  0  0  0  0  0  0  0
  -13.3111   17.8051  -38.4854 H   0  0  0  0  0  0  0  0  0  0  0  0
  -14.4117   16.7665  -39.3898 H   0  0  0  0  0  0  0  0  0  0  0  0
  -13.4962   14.7243  -40.6383 H   0  0  0  0  0  0  0  0  0  0  0  0
  -11.7671   14.3816  -40.6103 H   0  0  0  0  0  0  0  0  0  0  0  0
  -14.1561   13.8219  -37.0561 H   0  0  0  0  0  0  0  0  0  0  0  0
  -14.8998   14.3941  -38.5473 H   0  0  0  0  0  0  0  0  0  0  0  0
  -10.1902   15.8801  -39.3249 H   0  0  0  0  0  0  0  0  0  0  0  0
  -10.8031   17.2667  -38.4368 H   0  0  0  0  0  0  0  0  0  0  0  0
  -12.2181   16.9327  -36.3342 H   0  0  0  0  0  0  0  0  0  0  0  0
  -12.5901   15.3166  -35.7576 H   0  0  0  0  0  0  0  0  0  0  0  0
  -12.1707   16.8480  -40.4959 H   0  0  0  0  0  0  0  0  0  0  0  0
  -14.5625   16.2872  -36.9401 H   0  0  0  0  0  0  0  0  0  0  0  0
  -12.9735   12.8759  -39.0391 H   0  0  0  0  0  0  0  0  0  0  0  0
  -11.7180   13.3941  -37.0845 H   0  0  0  0  0  0  0  0  0  0  0  0
   -9.3948   14.4525  -35.0315 H   0  0  0  0  0  0  0  0  0  0  0  0
  1 10  1  0  0  0  0
  1 12  2  0  0  0  0
  1 13  1  0  0  0  0
  2  7  1  0  0  0  0
  2  8  1  0  0  0  0
  3  7  1  0  0  0  0
  3  9  1  0  0  0  0
  4  8  1  0  0  0  0
  4  9  1  0  0  0  0
  5  7  1  0  0  0  0
  5 10  1  0  0  0  0
  6  8  1  0  0  0  0
  6 10  1  0  0  0  0
  9 11  1  0  0  0  0
 10 11  1  0  0  0  0
  2 14  1  0  0  0  0
  2 15  1  0  0  0  0
  3 16  1  0  0  0  0
  3 17  1  0  0  0  0
  4 18  1  0  0  0  0
  4 19  1  0  0  0  0
  5 20  1  0  0  0  0
  5 21  1  0  0  0  0
  6 22  1  0  0  0  0
  6 23  1  0  0  0  0
  7 24  1  0  0  0  0
  8 25  1  0  0  0  0
  9 26  1  0  0  0  0
 11 27  1  0  0  0  0
 13 28  1  0  0  0  0
M  END
> <id>
EN300-37300147

> <smiles>
Cl.OC(=O)C1(CC2CC3CC(C2)N1)C3

> <IUPAC Name>
2-azatricyclo[3.3.1.1,3,7]decane-1-carboxylic acid hydrochloride

> <CAS>
2751621-74-4

> <Purity>
95

> <URL>
https://www.enaminestore.com/catalog/EN300-37300147

> <Saltdate>
Cl

> <ROCS_ShapeQuery>
_x1247relevant_x1083L0AP1_x1305L0BP1_

> <ROCS_TanimotoCombo>
0.867 

> <ROCS_ShapeTanimoto>
0.482 

> <ROCS_ColorTanimoto>
0.386 

> <ROCS_RefTversky>
0.405 

> <ROCS_RefColorTversky>
0.435 

> <ROCS_RefTverskyCombo>
0.840 

> <ROCS_FitTversky>
1.655 

> <ROCS_FitColorTversky>
0.771 

> <ROCS_FitTverskyCombo>
2.425 

> <ROCS_ColorScore>
-9.291

> <ROCS_Overlap>
1190.026

> <ROCS_Rank>
46                  

$$$$
untitled-dbase-43955_2
  -OEChem-06232314393D

 33 35  0     1  0  0  0  0  0999 V2000
  -13.8812   15.2704  -37.2417 C   0  0  0  0  0  0  0  0  0  0  0  0
  -13.7044   13.9857  -38.0803 C   0  0  0  0  0  0  0  0  0  0  0  0
  -10.7614   14.2291  -36.6094 C   0  0  0  0  0  0  0  0  0  0  0  0
  -11.6148   16.4138  -37.6216 C   0  0  0  0  0  0  0  0  0  0  0  0
  -11.3828   14.2672  -39.1045 C   0  0  0  0  0  0  0  0  0  0  0  0
   -9.6342   14.8592  -35.8097 C   0  0  0  0  0  0  0  0  0  0  0  0
  -13.1231   16.4075  -37.9404 C   0  0  1  0  0  0  0  0  0  0  0  0
  -12.8989   14.3375  -39.3429 C   0  0  2  0  0  0  0  0  0  0  0  0
   -9.3057   15.3043  -38.0615 C   0  0  1  0  0  0  0  0  0  0  0  0
  -10.8346   15.0795  -37.8921 C   0  0  0  0  0  0  0  0  0  0  0  0
   -8.8497   16.4369  -38.9676 C   0  0  0  0  0  0  0  0  0  0  0  0
  -14.7630   16.0987  -39.9970 O   0  0  0  0  0  0  0  0  0  0  0  0
  -12.3514   16.6908  -40.4791 O   0  0  0  0  0  0  0  0  0  0  0  0
   -8.7761   15.5211  -36.7434 O   0  0  0  0  0  0  0  0  0  0  0  0
  -13.3536   16.0320  -39.6704 S   0  0  0  0  0  0  0  0  0  0  0  0
   -8.9829   15.8687  -41.0172 I   0  0  0  0  0  0  0  0  0  0  0  0
  -14.9510   15.5160  -37.2146 H   0  0  0  0  0  0  0  0  0  0  0  0
  -13.5792   15.1405  -36.1992 H   0  0  0  0  0  0  0  0  0  0  0  0
  -13.2430   13.1761  -37.5066 H   0  0  0  0  0  0  0  0  0  0  0  0
  -14.6989   13.6251  -38.3725 H   0  0  0  0  0  0  0  0  0  0  0  0
  -10.4825   13.1947  -36.8489 H   0  0  0  0  0  0  0  0  0  0  0  0
  -11.6761   14.1787  -36.0191 H   0  0  0  0  0  0  0  0  0  0  0  0
  -11.1788   17.2225  -38.2163 H   0  0  0  0  0  0  0  0  0  0  0  0
  -11.4877   16.7220  -36.5768 H   0  0  0  0  0  0  0  0  0  0  0  0
  -11.0972   13.2122  -39.0017 H   0  0  0  0  0  0  0  0  0  0  0  0
  -10.8836   14.6098  -40.0197 H   0  0  0  0  0  0  0  0  0  0  0  0
  -10.0064   15.6068  -35.1023 H   0  0  0  0  0  0  0  0  0  0  0  0
   -9.0608   14.1135  -35.2508 H   0  0  0  0  0  0  0  0  0  0  0  0
  -13.5691   17.3834  -37.7285 H   0  0  0  0  0  0  0  0  0  0  0  0
  -13.1889   13.7208  -40.1981 H   0  0  0  0  0  0  0  0  0  0  0  0
   -8.8434   14.3775  -38.4303 H   0  0  0  0  0  0  0  0  0  0  0  0
   -7.8171   16.7059  -38.7233 H   0  0  0  0  0  0  0  0  0  0  0  0
   -9.4692   17.3211  -38.7861 H   0  0  0  0  0  0  0  0  0  0  0  0
  1  2  1  0  0  0  0
  1  7  1  0  0  0  0
  2  8  1  0  0  0  0
  3  6  1  0  0  0  0
  3 10  1  0  0  0  0
  4  7  1  0  0  0  0
  4 10  1  0  0  0  0
  5  8  1  0  0  0  0
  5 10  1  0  0  0  0
  6 14  1  0  0  0  0
  7 15  1  0  0  0  0
  8 15  1  0  0  0  0
  9 10  1  0  0  0  0
  9 11  1  0  0  0  0
  9 14  1  0  0  0  0
 11 16  1  0  0  0  0
 12 15  2  0  0  0  0
 13 15  2  0  0  0  0
  1 17  1  0  0  0  0
  1 18  1  0  0  0  0
  2 19  1  0  0  0  0
  2 20  1  0  0  0  0
  3 21  1  0  0  0  0
  3 22  1  0  0  0  0
  4 23  1  0  0  0  0
  4 24  1  0  0  0  0
  5 25  1  0  0  0  0
  5 26  1  0  0  0  0
  6 27  1  0  0  0  0
  6 28  1  0  0  0  0
  7 29  1  0  0  0  0
  8 30  1  0  0  0  0
  9 31  1  0  0  0  0
 11 32  1  0  0  0  0
 11 33  1  0  0  0  0
M  END
> <id>
EN300-1479348

> <smiles>
ICC1OCCC21CC3CCC(C2)S3(=O)=O

> <IUPAC Name>
2'-(iodomethyl)-8lambda6-thiaspiro[bicyclo[3.2.1]octane-3,3'-oxolane]-8,8-dione

> <CAS>
2169602-52-0

> <URL>
https://www.enaminestore.com/catalog/EN300-1479348

> <ROCS_ShapeQuery>
_x1247relevant_x1083L0AP1_x1305L0BP1_

> <ROCS_TanimotoCombo>
0.867 

> <ROCS_ShapeTanimoto>
0.483 

> <ROCS_ColorTanimoto>
0.385 

> <ROCS_RefTversky>
0.413 

> <ROCS_RefColorTversky>
0.424 

> <ROCS_RefTverskyCombo>
0.837 

> <ROCS_FitTversky>
1.537 

> <ROCS_FitColorTversky>
0.805 

> <ROCS_FitTverskyCombo>
2.341 

> <ROCS_ColorScore>
-9.034

> <ROCS_Overlap>
1215.932

> <ROCS_Rank>
47                  

$$$$
untitled-dbase-122235_6
  -OEChem-06232314393D

 35 37  0     1  0  0  0  0  0999 V2000
  -13.9041   15.3589  -37.1858 C   0  0  0  0  0  0  0  0  0  0  0  0
  -13.7867   14.0357  -37.9734 C   0  0  0  0  0  0  0  0  0  0  0  0
  -10.7959   14.2581  -36.5989 C   0  0  0  0  0  0  0  0  0  0  0  0
  -11.6202   16.4215  -37.6788 C   0  0  0  0  0  0  0  0  0  0  0  0
  -11.4898   14.2088  -39.0745 C   0  0  0  0  0  0  0  0  0  0  0  0
   -9.6290   14.8894  -35.8593 C   0  0  0  0  0  0  0  0  0  0  0  0
  -13.1369   16.4441  -37.9539 C   0  0  1  0  0  0  0  0  0  0  0  0
  -13.0099   14.3115  -39.2724 C   0  0  2  0  0  0  0  0  0  0  0  0
   -9.3557   15.2303  -38.1365 C   0  0  1  0  0  0  0  0  0  0  0  0
  -10.8844   15.0557  -37.9142 C   0  0  0  0  0  0  0  0  0  0  0  0
   -8.8967   16.3107  -39.1029 C   0  0  0  0  0  0  0  0  0  0  0  0
   -9.4224   16.0577  -40.4045 N   0  0  0  0  0  0  0  0  0  0  0  0
  -14.8449   16.0952  -39.9478 O   0  0  0  0  0  0  0  0  0  0  0  0
  -12.4336   16.5988  -40.5234 O   0  0  0  0  0  0  0  0  0  0  0  0
   -8.7816   15.4873  -36.8446 O   0  0  0  0  0  0  0  0  0  0  0  0
  -13.4287   16.0028  -39.6590 S   0  0  0  0  0  0  0  0  0  0  0  0
  -14.9657   15.6353  -37.1388 H   0  0  0  0  0  0  0  0  0  0  0  0
  -13.5749   15.2645  -36.1478 H   0  0  0  0  0  0  0  0  0  0  0  0
  -13.3304   13.2383  -37.3791 H   0  0  0  0  0  0  0  0  0  0  0  0
  -14.7988   13.6911  -38.2215 H   0  0  0  0  0  0  0  0  0  0  0  0
  -10.5520   13.2072  -36.8018 H   0  0  0  0  0  0  0  0  0  0  0  0
  -11.6937   14.2582  -35.9811 H   0  0  0  0  0  0  0  0  0  0  0  0
  -11.1806   17.1920  -38.3198 H   0  0  0  0  0  0  0  0  0  0  0  0
  -11.4539   16.7695  -36.6522 H   0  0  0  0  0  0  0  0  0  0  0  0
  -11.2297   13.1516  -38.9349 H   0  0  0  0  0  0  0  0  0  0  0  0
  -11.0091   14.4986  -40.0175 H   0  0  0  0  0  0  0  0  0  0  0  0
   -9.9599   15.6762  -35.1742 H   0  0  0  0  0  0  0  0  0  0  0  0
   -9.0595   14.1521  -35.2856 H   0  0  0  0  0  0  0  0  0  0  0  0
  -13.5502   17.4400  -37.7713 H   0  0  0  0  0  0  0  0  0  0  0  0
  -13.3416   13.6679  -40.0918 H   0  0  0  0  0  0  0  0  0  0  0  0
   -8.9295   14.2762  -38.4784 H   0  0  0  0  0  0  0  0  0  0  0  0
   -9.2617   17.2667  -38.7256 H   0  0  0  0  0  0  0  0  0  0  0  0
   -7.8064   16.2921  -39.1240 H   0  0  0  0  0  0  0  0  0  0  0  0
  -10.4252   16.0297  -40.3717 H   0  0  0  0  0  0  0  0  0  0  0  0
   -9.1383   16.7831  -41.0373 H   0  0  0  0  0  0  0  0  0  0  0  0
  1  2  1  0  0  0  0
  1  7  1  0  0  0  0
  2  8  1  0  0  0  0
  3  6  1  0  0  0  0
  3 10  1  0  0  0  0
  4  7  1  0  0  0  0
  4 10  1  0  0  0  0
  5  8  1  0  0  0  0
  5 10  1  0  0  0  0
  6 15  1  0  0  0  0
  7 16  1  0  0  0  0
  8 16  1  0  0  0  0
  9 10  1  0  0  0  0
  9 11  1  0  0  0  0
  9 15  1  0  0  0  0
 11 12  1  0  0  0  0
 13 16  2  0  0  0  0
 14 16  2  0  0  0  0
  1 17  1  0  0  0  0
  1 18  1  0  0  0  0
  2 19  1  0  0  0  0
  2 20  1  0  0  0  0
  3 21  1  0  0  0  0
  3 22  1  0  0  0  0
  4 23  1  0  0  0  0
  4 24  1  0  0  0  0
  5 25  1  0  0  0  0
  5 26  1  0  0  0  0
  6 27  1  0  0  0  0
  6 28  1  0  0  0  0
  7 29  1  0  0  0  0
  8 30  1  0  0  0  0
  9 31  1  0  0  0  0
 11 32  1  0  0  0  0
 11 33  1  0  0  0  0
 12 34  1  0  0  0  0
 12 35  1  0  0  0  0
M  END
> <id>
EN300-1479088

> <smiles>
NCC1OCCC21CC3CCC(C2)S3(=O)=O

> <IUPAC Name>
2'-(aminomethyl)-8lambda6-thiaspiro[bicyclo[3.2.1]octane-3,3'-oxolane]-8,8-dione

> <CAS>
2167068-25-7

> <URL>
https://www.enaminestore.com/catalog/EN300-1479088

> <ROCS_ShapeQuery>
_x1247relevant_x1083L0AP1_x1305L0BP1_

> <ROCS_TanimotoCombo>
0.867 

> <ROCS_ShapeTanimoto>
0.486 

> <ROCS_ColorTanimoto>
0.381 

> <ROCS_RefTversky>
0.416 

> <ROCS_RefColorTversky>
0.434 

> <ROCS_RefTverskyCombo>
0.850 

> <ROCS_FitTversky>
1.523 

> <ROCS_FitColorTversky>
0.760 

> <ROCS_FitTverskyCombo>
2.283 

> <ROCS_ColorScore>
-9.251

> <ROCS_Overlap>
1226.064

> <ROCS_Rank>
48                  

$$$$
untitled-dbase-110294_2
  -OEChem-06232314393D

 21 22  0     1  0  0  0  0  0999 V2000
  -10.0292   15.2988  -36.9806 C   0  0  0  0  0  0  0  0  0  0  0  0
  -13.1286   15.5836  -37.1567 C   0  0  0  0  0  0  0  0  0  0  0  0
  -13.4999   14.9956  -39.4496 C   0  0  0  0  0  0  0  0  0  0  0  0
  -10.9804   15.2748  -38.1316 C   0  0  2  0  0  0  0  0  0  0  0  0
  -12.0962   16.3181  -38.0134 C   0  0  1  0  0  0  0  0  0  0  0  0
  -13.1435   14.3736  -38.0821 C   0  0  1  0  0  0  0  0  0  0  0  0
  -12.8429   16.3735  -39.3517 C   0  0  0  0  0  0  0  0  0  0  0  0
  -11.7112   13.9942  -38.0730 N   0  0  0  0  0  0  0  0  0  0  0  0
   -8.9604   15.8912  -36.9656 O   0  0  0  0  0  0  0  0  0  0  0  0
  -10.5111   14.5677  -35.9459 O   0  0  0  0  0  0  0  0  0  0  0  0
  -13.7858   17.3430  -39.3250 F   0  0  0  0  0  0  0  0  0  0  0  0
  -12.0255   16.6279  -40.3888 F   0  0  0  0  0  0  0  0  0  0  0  0
  -12.7829   15.3569  -36.1426 H   0  0  0  0  0  0  0  0  0  0  0  0
  -14.0939   16.0985  -37.1010 H   0  0  0  0  0  0  0  0  0  0  0  0
  -13.1176   14.4038  -40.2873 H   0  0  0  0  0  0  0  0  0  0  0  0
  -14.5861   15.0942  -39.5501 H   0  0  0  0  0  0  0  0  0  0  0  0
  -10.4040   15.3691  -39.0578 H   0  0  0  0  0  0  0  0  0  0  0  0
  -11.7944   17.2917  -37.6217 H   0  0  0  0  0  0  0  0  0  0  0  0
  -13.7995   13.5554  -37.7784 H   0  0  0  0  0  0  0  0  0  0  0  0
  -11.4942   13.4306  -38.8941 H   0  0  0  0  0  0  0  0  0  0  0  0
  -11.3840   14.1707  -36.1530 H   0  0  0  0  0  0  0  0  0  0  0  0
  1  4  1  0  0  0  0
  1  9  2  0  0  0  0
  1 10  1  0  0  0  0
  2  5  1  0  0  0  0
  2  6  1  0  0  0  0
  3  6  1  0  0  0  0
  3  7  1  0  0  0  0
  4  5  1  0  0  0  0
  4  8  1  0  0  0  0
  5  7  1  0  0  0  0
  6  8  1  0  0  0  0
  7 11  1  0  0  0  0
  7 12  1  0  0  0  0
  2 13  1  0  0  0  0
  2 14  1  0  0  0  0
  3 15  1  0  0  0  0
  3 16  1  0  0  0  0
  4 17  1  0  0  0  0
  5 18  1  0  0  0  0
  6 19  1  0  0  0  0
  8 20  1  0  0  0  0
 10 21  1  0  0  0  0
M  END
> <id>
EN300-295916

> <smiles>
Cl.OC(=O)C1NC2CC1C(F)(F)C2

> <MDLNUMBER>
MFCD24528907

> <IUPAC Name>
5,5-difluoro-2-azabicyclo[2.2.1]heptane-3-carboxylic acid hydrochloride

> <CAS>
1822524-20-8

> <URL>
https://www.enaminestore.com/catalog/EN300-295916

> <Saltdate>
Cl

> <ROCS_ShapeQuery>
_x1247relevant_x1083L0AP1_x1305L0BP1_

> <ROCS_TanimotoCombo>
0.867 

> <ROCS_ShapeTanimoto>
0.486 

> <ROCS_ColorTanimoto>
0.381 

> <ROCS_RefTversky>
0.402 

> <ROCS_RefColorTversky>
0.430 

> <ROCS_RefTverskyCombo>
0.832 

> <ROCS_FitTversky>
1.745 

> <ROCS_FitColorTversky>
0.770 

> <ROCS_FitTverskyCombo>
2.515 

> <ROCS_ColorScore>
-9.164

> <ROCS_Overlap>
1182.452

> <ROCS_Rank>
49                  

$$$$
untitled-dbase-178788_2
  -OEChem-06232314393D

 21 22  0     1  0  0  0  0  0999 V2000
  -10.0316   15.3072  -36.9816 C   0  0  0  0  0  0  0  0  0  0  0  0
  -13.1212   15.5980  -37.1501 C   0  0  0  0  0  0  0  0  0  0  0  0
  -13.5051   14.9712  -39.4324 C   0  0  0  0  0  0  0  0  0  0  0  0
  -10.9805   15.2783  -38.1348 C   0  0  2  0  0  0  0  0  0  0  0  0
  -12.0981   16.3207  -38.0266 C   0  0  1  0  0  0  0  0  0  0  0  0
  -13.1417   14.3740  -38.0567 C   0  0  1  0  0  0  0  0  0  0  0  0
  -12.8541   16.3533  -39.3599 C   0  0  0  0  0  0  0  0  0  0  0  0
  -11.7081   13.9890  -38.0778 N   0  0  0  0  0  0  0  0  0  0  0  0
   -8.9630   15.8999  -36.9668 O   0  0  0  0  0  0  0  0  0  0  0  0
  -10.5155   14.5802  -35.9450 O   0  0  0  0  0  0  0  0  0  0  0  0
  -13.8007   17.3191  -39.3407 F   0  0  0  0  0  0  0  0  0  0  0  0
  -12.0451   16.5955  -40.4063 F   0  0  0  0  0  0  0  0  0  0  0  0
  -12.7667   15.3857  -36.1361 H   0  0  0  0  0  0  0  0  0  0  0  0
  -14.0871   16.1118  -37.0943 H   0  0  0  0  0  0  0  0  0  0  0  0
  -13.1270   14.3685  -40.2643 H   0  0  0  0  0  0  0  0  0  0  0  0
  -14.5921   15.0646  -39.5290 H   0  0  0  0  0  0  0  0  0  0  0  0
  -10.4011   15.3691  -39.0596 H   0  0  0  0  0  0  0  0  0  0  0  0
  -11.7952   17.3009  -37.6525 H   0  0  0  0  0  0  0  0  0  0  0  0
  -13.7927   13.5578  -37.7375 H   0  0  0  0  0  0  0  0  0  0  0  0
  -11.5061   13.4378  -38.9110 H   0  0  0  0  0  0  0  0  0  0  0  0
  -11.3878   14.1821  -36.1524 H   0  0  0  0  0  0  0  0  0  0  0  0
  1  4  1  6  0  0  0
  1  9  2  0  0  0  0
  1 10  1  0  0  0  0
  2  5  1  0  0  0  0
  2  6  1  0  0  0  0
  3  6  1  0  0  0  0
  3  7  1  0  0  0  0
  4  5  1  0  0  0  0
  4  8  1  0  0  0  0
  5  7  1  0  0  0  0
  6  8  1  0  0  0  0
  7 11  1  0  0  0  0
  7 12  1  0  0  0  0
  2 13  1  0  0  0  0
  2 14  1  0  0  0  0
  3 15  1  0  0  0  0
  3 16  1  0  0  0  0
  4 17  1  0  0  0  0
  5 18  1  0  0  0  0
  6 19  1  0  0  0  0
  8 20  1  0  0  0  0
 10 21  1  0  0  0  0
M  END
> <id>
EN300-109611

> <smiles>
OC(=O)[C@H]1NC2CC1C(F)(F)C2

> <MDLNUMBER>
MFCD27919993

> <IUPAC Name>
(3S)-5,5-difluoro-2-azabicyclo[2.2.1]heptane-3-carboxylic acid

> <CAS>
1394117-05-5

> <URL>
https://www.enaminestore.com/catalog/EN300-109611

> <ROCS_ShapeQuery>
_x1247relevant_x1083L0AP1_x1305L0BP1_

> <ROCS_TanimotoCombo>
0.867 

> <ROCS_ShapeTanimoto>
0.486 

> <ROCS_ColorTanimoto>
0.381 

> <ROCS_RefTversky>
0.402 

> <ROCS_RefColorTversky>
0.430 

> <ROCS_RefTverskyCombo>
0.832 

> <ROCS_FitTversky>
1.746 

> <ROCS_FitColorTversky>
0.770 

> <ROCS_FitTverskyCombo>
2.516 

> <ROCS_ColorScore>
-9.160

> <ROCS_Overlap>
1182.764

> <ROCS_Rank>
50                  

$$$$
untitled-dbase-109965_2
  -OEChem-06232314393D

 21 22  0     1  0  0  0  0  0999 V2000
  -10.0316   15.3072  -36.9816 C   0  0  0  0  0  0  0  0  0  0  0  0
  -13.1212   15.5980  -37.1501 C   0  0  0  0  0  0  0  0  0  0  0  0
  -13.5051   14.9712  -39.4324 C   0  0  0  0  0  0  0  0  0  0  0  0
  -10.9805   15.2783  -38.1348 C   0  0  2  0  0  0  0  0  0  0  0  0
  -12.0981   16.3207  -38.0266 C   0  0  1  0  0  0  0  0  0  0  0  0
  -13.1417   14.3740  -38.0567 C   0  0  1  0  0  0  0  0  0  0  0  0
  -12.8541   16.3533  -39.3599 C   0  0  0  0  0  0  0  0  0  0  0  0
  -11.7081   13.9890  -38.0778 N   0  0  0  0  0  0  0  0  0  0  0  0
   -8.9630   15.8999  -36.9668 O   0  0  0  0  0  0  0  0  0  0  0  0
  -10.5155   14.5802  -35.9450 O   0  0  0  0  0  0  0  0  0  0  0  0
  -13.8007   17.3191  -39.3407 F   0  0  0  0  0  0  0  0  0  0  0  0
  -12.0451   16.5955  -40.4063 F   0  0  0  0  0  0  0  0  0  0  0  0
  -12.7667   15.3857  -36.1361 H   0  0  0  0  0  0  0  0  0  0  0  0
  -14.0871   16.1118  -37.0943 H   0  0  0  0  0  0  0  0  0  0  0  0
  -13.1270   14.3685  -40.2643 H   0  0  0  0  0  0  0  0  0  0  0  0
  -14.5921   15.0646  -39.5290 H   0  0  0  0  0  0  0  0  0  0  0  0
  -10.4011   15.3691  -39.0596 H   0  0  0  0  0  0  0  0  0  0  0  0
  -11.7952   17.3009  -37.6525 H   0  0  0  0  0  0  0  0  0  0  0  0
  -13.7927   13.5578  -37.7375 H   0  0  0  0  0  0  0  0  0  0  0  0
  -11.5061   13.4378  -38.9110 H   0  0  0  0  0  0  0  0  0  0  0  0
  -11.3878   14.1821  -36.1524 H   0  0  0  0  0  0  0  0  0  0  0  0
  1  4  1  6  0  0  0
  1  9  2  0  0  0  0
  1 10  1  0  0  0  0
  2  5  1  0  0  0  0
  2  6  1  0  0  0  0
  3  6  1  0  0  0  0
  3  7  1  0  0  0  0
  4  5  1  0  0  0  0
  4  8  1  0  0  0  0
  5  7  1  0  0  0  0
  6  8  1  0  0  0  0
  7 11  1  0  0  0  0
  7 12  1  0  0  0  0
  2 13  1  0  0  0  0
  2 14  1  0  0  0  0
  3 15  1  0  0  0  0
  3 16  1  0  0  0  0
  4 17  1  0  0  0  0
  5 18  1  0  0  0  0
  6 19  1  0  0  0  0
  8 20  1  0  0  0  0
 10 21  1  0  0  0  0
M  END
> <id>
EN300-109779

> <smiles>
Cl.OC(=O)[C@H]1NC2CC1C(F)(F)C2

> <MDLNUMBER>
MFCD22378704

> <IUPAC Name>
(3S)-5,5-difluoro-2-azabicyclo[2.2.1]heptane-3-carboxylic acid hydrochloride

> <CAS>
1394052-55-1

> <URL>
https://www.enaminestore.com/catalog/EN300-109779

> <Saltdate>
Cl

> <ROCS_ShapeQuery>
_x1247relevant_x1083L0AP1_x1305L0BP1_

> <ROCS_TanimotoCombo>
0.867 

> <ROCS_ShapeTanimoto>
0.486 

> <ROCS_ColorTanimoto>
0.381 

> <ROCS_RefTversky>
0.402 

> <ROCS_RefColorTversky>
0.430 

> <ROCS_RefTverskyCombo>
0.832 

> <ROCS_FitTversky>
1.746 

> <ROCS_FitColorTversky>
0.770 

> <ROCS_FitTverskyCombo>
2.516 

> <ROCS_ColorScore>
-9.160

> <ROCS_Overlap>
1182.764

> <ROCS_Rank>
51                  

$$$$
untitled-dbase-55981_6
  -OEChem-06232314393D

 34 36  0     0  0  0  0  0  0999 V2000
  -10.0908   15.6347  -36.7171 C   0  0  0  0  0  0  0  0  0  0  0  0
  -14.0568   15.7470  -39.1754 C   0  0  0  0  0  0  0  0  0  0  0  0
  -13.0427   16.2212  -36.9367 C   0  0  0  0  0  0  0  0  0  0  0  0
  -11.7291   16.6670  -39.0359 C   0  0  0  0  0  0  0  0  0  0  0  0
  -13.3984   13.8593  -37.6642 C   0  0  0  0  0  0  0  0  0  0  0  0
  -12.0933   14.3148  -39.7712 C   0  0  0  0  0  0  0  0  0  0  0  0
  -13.1298   16.6954  -38.3977 C   0  0  0  0  0  0  0  0  0  0  0  0
  -13.4934   14.3171  -39.1315 C   0  0  0  0  0  0  0  0  0  0  0  0
  -12.4536   14.7927  -36.8707 C   0  0  0  0  0  0  0  0  0  0  0  0
  -11.1394   15.2367  -38.9742 C   0  0  0  0  0  0  0  0  0  0  0  0
  -11.0399   14.7597  -37.5017 C   0  0  0  0  0  0  0  0  0  0  0  0
   -9.9698   17.0646  -34.8397 C   0  0  0  0  0  0  0  0  0  0  0  0
  -10.4211   13.4343  -37.3932 N   0  0  0  0  0  0  0  0  0  0  0  0
   -8.9101   15.7895  -36.9986 O   0  0  0  0  0  0  0  0  0  0  0  0
  -10.7552   16.2053  -35.6721 O   0  0  0  0  0  0  0  0  0  0  0  0
  -15.0648   15.7676  -38.7433 H   0  0  0  0  0  0  0  0  0  0  0  0
  -14.1506   16.0823  -40.2155 H   0  0  0  0  0  0  0  0  0  0  0  0
  -12.4290   16.9179  -36.3539 H   0  0  0  0  0  0  0  0  0  0  0  0
  -14.0407   16.2328  -36.4806 H   0  0  0  0  0  0  0  0  0  0  0  0
  -11.7886   16.9992  -40.0802 H   0  0  0  0  0  0  0  0  0  0  0  0
  -11.0704   17.3771  -38.5228 H   0  0  0  0  0  0  0  0  0  0  0  0
  -14.3974   13.8780  -37.2094 H   0  0  0  0  0  0  0  0  0  0  0  0
  -13.0651   12.8173  -37.6121 H   0  0  0  0  0  0  0  0  0  0  0  0
  -11.7008   13.2927  -39.8155 H   0  0  0  0  0  0  0  0  0  0  0  0
  -12.1595   14.6607  -40.8107 H   0  0  0  0  0  0  0  0  0  0  0  0
  -13.5320   17.7143  -38.4329 H   0  0  0  0  0  0  0  0  0  0  0  0
  -14.1557   13.6440  -39.6874 H   0  0  0  0  0  0  0  0  0  0  0  0
  -12.4190   14.4723  -35.8218 H   0  0  0  0  0  0  0  0  0  0  0  0
  -10.1509   15.2416  -39.4507 H   0  0  0  0  0  0  0  0  0  0  0  0
  -10.5941   17.4669  -34.0381 H   0  0  0  0  0  0  0  0  0  0  0  0
   -9.5595   17.8801  -35.4406 H   0  0  0  0  0  0  0  0  0  0  0  0
   -9.1505   16.4869  -34.4052 H   0  0  0  0  0  0  0  0  0  0  0  0
  -11.0700   12.8309  -36.9504 H   0  0  0  0  0  0  0  0  0  0  0  0
  -10.2122   13.1208  -38.3093 H   0  0  0  0  0  0  0  0  0  0  0  0
  1 11  1  0  0  0  0
  1 14  2  0  0  0  0
  1 15  1  0  0  0  0
  2  7  1  0  0  0  0
  2  8  1  0  0  0  0
  3  7  1  0  0  0  0
  3  9  1  0  0  0  0
  4  7  1  0  0  0  0
  4 10  1  0  0  0  0
  5  8  1  0  0  0  0
  5  9  1  0  0  0  0
  6  8  1  0  0  0  0
  6 10  1  0  0  0  0
  9 11  1  0  0  0  0
 10 11  1  0  0  0  0
 11 13  1  0  0  0  0
 12 15  1  0  0  0  0
  2 16  1  0  0  0  0
  2 17  1  0  0  0  0
  3 18  1  0  0  0  0
  3 19  1  0  0  0  0
  4 20  1  0  0  0  0
  4 21  1  0  0  0  0
  5 22  1  0  0  0  0
  5 23  1  0  0  0  0
  6 24  1  0  0  0  0
  6 25  1  0  0  0  0
  7 26  1  0  0  0  0
  8 27  1  0  0  0  0
  9 28  1  0  0  0  0
 10 29  1  0  0  0  0
 12 30  1  0  0  0  0
 12 31  1  0  0  0  0
 12 32  1  0  0  0  0
 13 33  1  0  0  0  0
 13 34  1  0  0  0  0
M  END
> <id>
EN300-1068732

> <smiles>
COC(=O)C1(N)C2CC3CC(C2)CC1C3

> <MDLNUMBER>
MFCD09264354

> <IUPAC Name>
methyl 2-aminoadamantane-2-carboxylate

> <CAS>
144876-68-6

> <Purity>
95

> <URL>
https://www.enaminestore.com/catalog/EN300-1068732

> <ROCS_ShapeQuery>
_x1247relevant_x1083L0AP1_x1305L0BP1_

> <ROCS_TanimotoCombo>
0.867 

> <ROCS_ShapeTanimoto>
0.492 

> <ROCS_ColorTanimoto>
0.374 

> <ROCS_RefTversky>
0.419 

> <ROCS_RefColorTversky>
0.402 

> <ROCS_RefTverskyCombo>
0.821 

> <ROCS_FitTversky>
1.547 

> <ROCS_FitColorTversky>
0.847 

> <ROCS_FitTverskyCombo>
2.393 

> <ROCS_ColorScore>
-8.528

> <ROCS_Overlap>
1234.833

> <ROCS_Rank>
52                  

$$$$
untitled-dbase-91162_0
  -OEChem-06232314393D

 31 33  0     1  0  0  0  0  0999 V2000
  -10.0502   15.0176  -36.5803 C   0  0  0  0  0  0  0  0  0  0  0  0
  -11.1521   16.5225  -38.2660 C   0  0  0  0  0  0  0  0  0  0  0  0
  -13.0628   15.5627  -37.2366 C   0  0  0  0  0  0  0  0  0  0  0  0
  -10.8068   15.0730  -37.8720 C   0  0  2  0  0  0  0  0  0  0  0  0
  -12.6876   16.4881  -38.3956 C   0  0  2  0  0  0  0  0  0  0  0  0
  -12.1945   14.4070  -37.7546 C   0  0  2  0  0  0  0  0  0  0  0  0
  -13.0623   15.6392  -39.6265 C   0  0  1  0  0  0  0  0  0  0  0  0
  -12.7452   14.2128  -39.1805 C   0  0  2  0  0  0  0  0  0  0  0  0
  -14.8976   14.3186  -39.9161 C   0  0  0  0  0  0  0  0  0  0  0  0
  -14.9376   13.8371  -41.3661 C   0  0  0  0  0  0  0  0  0  0  0  0
  -16.2754   14.2228  -39.2772 C   0  0  0  0  0  0  0  0  0  0  0  0
  -10.4384   14.4632  -35.5628 O   0  0  0  0  0  0  0  0  0  0  0  0
  -14.4618   15.6798  -39.8843 O   0  0  0  0  0  0  0  0  0  0  0  0
  -13.9821   13.5082  -39.1752 O   0  0  0  0  0  0  0  0  0  0  0  0
   -8.8682   15.6721  -36.6893 O   0  0  0  0  0  0  0  0  0  0  0  0
  -10.8458   17.2391  -37.4949 H   0  0  0  0  0  0  0  0  0  0  0  0
  -10.6719   16.8114  -39.2070 H   0  0  0  0  0  0  0  0  0  0  0  0
  -12.7466   15.9470  -36.2613 H   0  0  0  0  0  0  0  0  0  0  0  0
  -14.1292   15.3243  -37.1924 H   0  0  0  0  0  0  0  0  0  0  0  0
  -10.1838   14.5928  -38.6349 H   0  0  0  0  0  0  0  0  0  0  0  0
  -13.1679   17.4683  -38.3651 H   0  0  0  0  0  0  0  0  0  0  0  0
  -12.2372   13.5124  -37.1288 H   0  0  0  0  0  0  0  0  0  0  0  0
  -12.5158   15.9425  -40.5255 H   0  0  0  0  0  0  0  0  0  0  0  0
  -12.0371   13.7009  -39.8402 H   0  0  0  0  0  0  0  0  0  0  0  0
  -13.9452   13.9125  -41.8065 H   0  0  0  0  0  0  0  0  0  0  0  0
  -15.6303   14.4511  -41.9386 H   0  0  0  0  0  0  0  0  0  0  0  0
  -15.2663   12.8001  -41.4005 H   0  0  0  0  0  0  0  0  0  0  0  0
  -16.2341   14.5688  -38.2437 H   0  0  0  0  0  0  0  0  0  0  0  0
  -16.6227   13.1890  -39.2889 H   0  0  0  0  0  0  0  0  0  0  0  0
  -16.9870   14.8399  -39.8272 H   0  0  0  0  0  0  0  0  0  0  0  0
   -8.7395   16.0492  -37.5857 H   0  0  0  0  0  0  0  0  0  0  0  0
  1  4  1  0  0  0  0
  1 12  2  0  0  0  0
  1 15  1  0  0  0  0
  2  4  1  0  0  0  0
  2  5  1  0  0  0  0
  3  5  1  0  0  0  0
  3  6  1  0  0  0  0
  4  6  1  0  0  0  0
  5  7  1  0  0  0  0
  6  8  1  0  0  0  0
  7  8  1  0  0  0  0
  7 13  1  0  0  0  0
  8 14  1  0  0  0  0
  9 10  1  0  0  0  0
  9 11  1  0  0  0  0
  9 13  1  0  0  0  0
  9 14  1  0  0  0  0
  2 16  1  0  0  0  0
  2 17  1  0  0  0  0
  3 18  1  0  0  0  0
  3 19  1  0  0  0  0
  4 20  1  0  0  0  0
  5 21  1  0  0  0  0
  6 22  1  0  0  0  0
  7 23  1  0  0  0  0
  8 24  1  0  0  0  0
 10 25  1  0  0  0  0
 10 26  1  0  0  0  0
 10 27  1  0  0  0  0
 11 28  1  0  0  0  0
 11 29  1  0  0  0  0
 11 30  1  0  0  0  0
 15 31  1  0  0  0  0
M  END
> <id>
EN300-6744027

> <smiles>
CC1(C)OC2C3CC(C(C3)C2O1)C(=O)O

> <MDLNUMBER>
MFCD31810696

> <IUPAC Name>
4,4-dimethyl-3,5-dioxatricyclo[5.2.1.0,2,6]decane-8-carboxylic acid

> <CAS>
2305251-72-1

> <Purity>
95

> <URL>
https://www.enaminestore.com/catalog/EN300-6744027

> <ROCS_ShapeQuery>
_x1247relevant_x1083L0AP1_x1305L0BP1_

> <ROCS_TanimotoCombo>
0.866 

> <ROCS_ShapeTanimoto>
0.506 

> <ROCS_ColorTanimoto>
0.360 

> <ROCS_RefTversky>
0.429 

> <ROCS_RefColorTversky>
0.436 

> <ROCS_RefTverskyCombo>
0.865 

> <ROCS_FitTversky>
1.558 

> <ROCS_FitColorTversky>
0.672 

> <ROCS_FitTverskyCombo>
2.230 

> <ROCS_ColorScore>
-9.353

> <ROCS_Overlap>
1262.494

> <ROCS_Rank>
53                  

$$$$
untitled-dbase-56603_2
  -OEChem-06232314393D

 23 25  0     1  0  0  0  0  0999 V2000
  -10.0753   14.9823  -36.5598 C   0  0  0  0  0  0  0  0  0  0  0  0
  -12.2721   13.9001  -37.1730 C   0  0  0  0  0  0  0  0  0  0  0  0
  -12.8447   16.1902  -37.3086 C   0  0  0  0  0  0  0  0  0  0  0  0
  -11.0308   14.6846  -37.6740 C   0  0  1  0  0  0  0  0  0  0  0  0
  -13.4488   14.8117  -37.6061 C   0  0  1  0  0  0  0  0  0  0  0  0
  -11.6605   15.9738  -38.2686 C   0  0  1  0  0  0  0  0  0  0  0  0
  -13.5265   14.7623  -39.1299 C   0  0  2  0  0  0  0  0  0  0  0  0
  -12.3257   15.5611  -39.5803 C   0  0  1  0  0  0  0  0  0  0  0  0
  -13.6976   15.9433  -40.0226 C   0  0  0  0  0  0  0  0  0  0  0  0
  -10.2209   14.6324  -35.3981 O   0  0  0  0  0  0  0  0  0  0  0  0
   -9.0190   15.7002  -37.0140 O   0  0  0  0  0  0  0  0  0  0  0  0
  -14.0667   15.7554  -41.3376 F   0  0  0  0  0  0  0  0  0  0  0  0
  -14.3101   17.0996  -39.6031 F   0  0  0  0  0  0  0  0  0  0  0  0
  -12.3315   12.9108  -37.6400 H   0  0  0  0  0  0  0  0  0  0  0  0
  -12.2600   13.7702  -36.0848 H   0  0  0  0  0  0  0  0  0  0  0  0
  -13.4891   17.0269  -37.5846 H   0  0  0  0  0  0  0  0  0  0  0  0
  -12.5513   16.3174  -36.2613 H   0  0  0  0  0  0  0  0  0  0  0  0
  -10.4862   14.1060  -38.4289 H   0  0  0  0  0  0  0  0  0  0  0  0
  -14.3950   14.5948  -37.1077 H   0  0  0  0  0  0  0  0  0  0  0  0
  -10.9837   16.8260  -38.3593 H   0  0  0  0  0  0  0  0  0  0  0  0
  -13.6864   13.7744  -39.5377 H   0  0  0  0  0  0  0  0  0  0  0  0
  -11.6494   15.1342  -40.3076 H   0  0  0  0  0  0  0  0  0  0  0  0
   -9.0854   15.8811  -37.9759 H   0  0  0  0  0  0  0  0  0  0  0  0
  1  4  1  0  0  0  0
  1 10  2  0  0  0  0
  1 11  1  0  0  0  0
  2  4  1  0  0  0  0
  2  5  1  0  0  0  0
  3  5  1  0  0  0  0
  3  6  1  0  0  0  0
  4  6  1  0  0  0  0
  5  7  1  0  0  0  0
  6  8  1  0  0  0  0
  7  8  1  0  0  0  0
  7  9  1  0  0  0  0
  8  9  1  0  0  0  0
  9 12  1  0  0  0  0
  9 13  1  0  0  0  0
  2 14  1  0  0  0  0
  2 15  1  0  0  0  0
  3 16  1  0  0  0  0
  3 17  1  0  0  0  0
  4 18  1  0  0  0  0
  5 19  1  0  0  0  0
  6 20  1  0  0  0  0
  7 21  1  0  0  0  0
  8 22  1  0  0  0  0
 11 23  1  0  0  0  0
M  END
> <id>
EN300-367535

> <smiles>
OC(=O)C1CC2CC1C3C2C3(F)F

> <MDLNUMBER>
MFCD31665811

> <IUPAC Name>
3,3-difluorotricyclo[3.2.1.0,2,4]octane-6-carboxylic acid

> <CAS>
2167718-13-8

> <Purity>
95

> <URL>
https://www.enaminestore.com/catalog/EN300-367535

> <ROCS_ShapeQuery>
_x1247relevant_x1083L0AP1_x1305L0BP1_

> <ROCS_TanimotoCombo>
0.866 

> <ROCS_ShapeTanimoto>
0.494 

> <ROCS_ColorTanimoto>
0.372 

> <ROCS_RefTversky>
0.411 

> <ROCS_RefColorTversky>
0.522 

> <ROCS_RefTverskyCombo>
0.934 

> <ROCS_FitTversky>
1.683 

> <ROCS_FitColorTversky>
0.564 

> <ROCS_FitTverskyCombo>
2.247 

> <ROCS_ColorScore>
-11.363

> <ROCS_Overlap>
1210.023

> <ROCS_Rank>
54                  

$$$$
untitled-dbase-122425_17
  -OEChem-06232314393D

 34 36  0     1  0  0  0  0  0999 V2000
  -12.0280   14.9166  -39.8088 C   0  0  0  0  0  0  0  0  0  0  0  0
  -12.3782   16.8260  -38.2872 C   0  0  0  0  0  0  0  0  0  0  0  0
   -8.7699   15.1261  -36.6777 C   0  0  0  0  0  0  0  0  0  0  0  0
  -13.4685   14.4936  -39.4793 C   0  0  0  0  0  0  0  0  0  0  0  0
  -13.7485   16.2688  -37.8749 C   0  0  0  0  0  0  0  0  0  0  0  0
   -9.0926   13.9019  -37.5315 C   0  0  0  0  0  0  0  0  0  0  0  0
  -12.8520   14.1358  -37.1836 C   0  0  0  0  0  0  0  0  0  0  0  0
  -11.4284   15.6484  -38.5940 C   0  0  0  0  0  0  0  0  0  0  0  0
   -9.8285   15.3861  -35.6103 C   0  0  2  0  0  0  0  0  0  0  0  0
  -11.4044   14.6933  -37.3566 C   0  0  2  0  0  0  0  0  0  0  0  0
   -9.8252   14.3502  -34.4887 C   0  0  0  0  0  0  0  0  0  0  0  0
  -10.5047   13.5463  -37.5085 N   0  0  0  0  0  0  0  0  0  0  0  0
  -13.8266   14.8075  -38.0782 N   0  0  0  0  0  0  0  0  0  0  0  0
  -11.1405   15.4774  -36.1707 O   0  0  0  0  0  0  0  0  0  0  0  0
   -8.8112   14.6446  -33.6573 F   0  0  0  0  0  0  0  0  0  0  0  0
   -9.5851   13.1472  -35.0376 F   0  0  0  0  0  0  0  0  0  0  0  0
  -11.4264   14.0498  -40.0985 H   0  0  0  0  0  0  0  0  0  0  0  0
  -12.0380   15.5890  -40.6755 H   0  0  0  0  0  0  0  0  0  0  0  0
  -12.4838   17.4586  -39.1766 H   0  0  0  0  0  0  0  0  0  0  0  0
  -11.9747   17.4610  -37.4915 H   0  0  0  0  0  0  0  0  0  0  0  0
   -7.7870   14.9636  -36.1951 H   0  0  0  0  0  0  0  0  0  0  0  0
   -8.6504   16.0133  -37.3259 H   0  0  0  0  0  0  0  0  0  0  0  0
  -14.1727   14.9876  -40.1612 H   0  0  0  0  0  0  0  0  0  0  0  0
  -13.5907   13.4183  -39.6613 H   0  0  0  0  0  0  0  0  0  0  0  0
  -13.9526   16.5075  -36.8231 H   0  0  0  0  0  0  0  0  0  0  0  0
  -14.5402   16.7668  -38.4482 H   0  0  0  0  0  0  0  0  0  0  0  0
   -8.7479   14.0616  -38.5711 H   0  0  0  0  0  0  0  0  0  0  0  0
   -8.5045   13.0426  -37.1596 H   0  0  0  0  0  0  0  0  0  0  0  0
  -12.8995   13.0569  -37.3869 H   0  0  0  0  0  0  0  0  0  0  0  0
  -13.1888   14.2451  -36.1439 H   0  0  0  0  0  0  0  0  0  0  0  0
  -10.4378   16.0456  -38.8398 H   0  0  0  0  0  0  0  0  0  0  0  0
   -9.6046   16.3835  -35.1191 H   0  0  0  0  0  0  0  0  0  0  0  0
  -10.7679   14.3545  -33.9648 H   0  0  0  0  0  0  0  0  0  0  0  0
  -10.7386   12.9981  -38.3459 H   0  0  0  0  0  0  0  0  0  0  0  0
  1  4  1  0  0  0  0
  1  8  1  0  0  0  0
  2  5  1  0  0  0  0
  2  8  1  0  0  0  0
  3  6  1  0  0  0  0
  3  9  1  0  0  0  0
  4 13  1  0  0  0  0
  5 13  1  0  0  0  0
  6 12  1  0  0  0  0
  7 10  1  0  0  0  0
  7 13  1  0  0  0  0
  8 10  1  0  0  0  0
  9 11  1  0  0  0  0
  9 14  1  0  0  0  0
 10 12  1  0  0  0  0
 10 14  1  0  0  0  0
 11 15  1  0  0  0  0
 11 16  1  0  0  0  0
  1 17  1  0  0  0  0
  1 18  1  0  0  0  0
  2 19  1  0  0  0  0
  2 20  1  0  0  0  0
  3 21  1  0  0  0  0
  3 22  1  0  0  0  0
  4 23  1  0  0  0  0
  4 24  1  0  0  0  0
  5 25  1  0  0  0  0
  5 26  1  0  0  0  0
  6 27  1  0  0  0  0
  6 28  1  0  0  0  0
  7 29  1  0  0  0  0
  7 30  1  0  0  0  0
  8 31  1  0  0  0  0
  9 32  1  0  0  0  0
 11 33  1  0  0  0  0
 12 34  1  0  0  0  0
M  END
> <id>
EN300-1280424

> <smiles>
FC(F)C1CCNC2(CN3CCC2CC3)O1

> <IUPAC Name>
6'-(difluoromethyl)-4-azaspiro[bicyclo[2.2.2]octane-2,2'-[1,3]oxazinane]

> <CAS>
2166690-02-2

> <URL>
https://www.enaminestore.com/catalog/EN300-1280424

> <ROCS_ShapeQuery>
_x1247relevant_x1083L0AP1_x1305L0BP1_

> <ROCS_TanimotoCombo>
0.864 

> <ROCS_ShapeTanimoto>
0.501 

> <ROCS_ColorTanimoto>
0.363 

> <ROCS_RefTversky>
0.429 

> <ROCS_RefColorTversky>
0.411 

> <ROCS_RefTverskyCombo>
0.841 

> <ROCS_FitTversky>
1.503 

> <ROCS_FitColorTversky>
0.755 

> <ROCS_FitTverskyCombo>
2.258 

> <ROCS_ColorScore>
-8.768

> <ROCS_Overlap>
1265.180

> <ROCS_Rank>
55                  

$$$$
untitled-dbase-14726_10
  -OEChem-06232314393D

 34 36  0     1  0  0  0  0  0999 V2000
  -10.1333   14.7603  -37.5473 C   0  0  0  0  0  0  0  0  0  0  0  0
  -14.1339   14.2981  -37.2938 C   0  0  0  0  0  0  0  0  0  0  0  0
  -13.1785   15.1177  -36.4209 C   0  0  0  0  0  0  0  0  0  0  0  0
  -12.2332   13.9943  -38.8226 C   0  0  0  0  0  0  0  0  0  0  0  0
  -12.3994   16.5953  -39.7976 C   0  0  0  0  0  0  0  0  0  0  0  0
  -13.6377   14.6217  -38.7061 C   0  0  2  0  0  0  0  0  0  0  0  0
  -11.3674   15.1574  -38.2860 C   0  0  1  0  0  0  0  0  0  0  0  0
  -12.3846   15.9824  -37.4312 C   0  0  1  0  0  0  0  0  0  0  0  0
  -13.3269   16.1498  -38.6424 C   0  0  1  0  0  0  0  0  0  0  0  0
  -11.8585   17.2598  -36.7799 C   0  0  0  0  0  0  0  0  0  0  0  0
  -14.5382   17.0566  -38.4898 C   0  0  0  0  0  0  0  0  0  0  0  0
  -11.0669   16.1346  -39.3556 N   0  0  1  0  0  0  0  0  0  0  0  0
   -9.9547   13.4000  -37.4569 N   0  0  0  0  0  0  0  0  0  0  0  0
  -10.3597   15.5474  -40.4506 N   0  0  0  0  0  0  0  0  0  0  0  0
   -9.3536   15.5897  -37.0854 O   0  0  0  0  0  0  0  0  0  0  0  0
  -14.0893   13.2300  -37.0573 H   0  0  0  0  0  0  0  0  0  0  0  0
  -15.1700   14.6223  -37.1508 H   0  0  0  0  0  0  0  0  0  0  0  0
  -13.7549   15.7294  -35.7177 H   0  0  0  0  0  0  0  0  0  0  0  0
  -12.5138   14.4736  -35.8353 H   0  0  0  0  0  0  0  0  0  0  0  0
  -12.1244   13.0794  -38.2283 H   0  0  0  0  0  0  0  0  0  0  0  0
  -12.0164   13.7120  -39.8563 H   0  0  0  0  0  0  0  0  0  0  0  0
  -12.7349   16.1589  -40.7472 H   0  0  0  0  0  0  0  0  0  0  0  0
  -12.3751   17.6851  -39.9071 H   0  0  0  0  0  0  0  0  0  0  0  0
  -14.3237   14.3097  -39.4968 H   0  0  0  0  0  0  0  0  0  0  0  0
  -11.3058   17.8466  -37.5118 H   0  0  0  0  0  0  0  0  0  0  0  0
  -11.1972   17.0069  -35.9528 H   0  0  0  0  0  0  0  0  0  0  0  0
  -12.6910   17.8518  -36.4031 H   0  0  0  0  0  0  0  0  0  0  0  0
  -15.1656   16.7101  -37.6673 H   0  0  0  0  0  0  0  0  0  0  0  0
  -15.1281   17.0528  -39.4076 H   0  0  0  0  0  0  0  0  0  0  0  0
  -14.2183   18.0787  -38.2816 H   0  0  0  0  0  0  0  0  0  0  0  0
   -9.1378   13.0475  -36.9690 H   0  0  0  0  0  0  0  0  0  0  0  0
  -10.6071   12.7344  -37.8585 H   0  0  0  0  0  0  0  0  0  0  0  0
  -10.2837   16.2310  -41.2012 H   0  0  0  0  0  0  0  0  0  0  0  0
  -10.9098   14.7757  -40.8221 H   0  0  0  0  0  0  0  0  0  0  0  0
  1  7  1  0  0  0  0
  1 13  1  0  0  0  0
  1 15  2  0  0  0  0
  2  3  1  0  0  0  0
  2  6  1  0  0  0  0
  3  8  1  0  0  0  0
  4  6  1  0  0  0  0
  4  7  1  0  0  0  0
  5  9  1  0  0  0  0
  5 12  1  0  0  0  0
  6  9  1  0  0  0  0
  7  8  1  0  0  0  0
  7 12  1  0  0  0  0
  8  9  1  0  0  0  0
  8 10  1  0  0  0  0
  9 11  1  0  0  0  0
 12 14  1  0  0  0  0
  2 16  1  0  0  0  0
  2 17  1  0  0  0  0
  3 18  1  0  0  0  0
  3 19  1  0  0  0  0
  4 20  1  0  0  0  0
  4 21  1  0  0  0  0
  5 22  1  0  0  0  0
  5 23  1  0  0  0  0
  6 24  1  0  0  0  0
 10 25  1  0  0  0  0
 10 26  1  0  0  0  0
 10 27  1  0  0  0  0
 11 28  1  0  0  0  0
 11 29  1  0  0  0  0
 11 30  1  0  0  0  0
 13 31  1  0  0  0  0
 13 32  1  0  0  0  0
 14 33  1  0  0  0  0
 14 34  1  0  0  0  0
M  END
> <id>
EN300-236460

> <smiles>
CC12CN(N)C3(CC2CCC13C)C(=O)N

> <MDLNUMBER>
MFCD03731244

> <IUPAC Name>
4-amino-6,7-dimethyl-4-azatricyclo[4.3.0.0,3,7]nonane-3-carboxamide

> <CAS>
1212089-56-9

> <URL>
https://www.enaminestore.com/catalog/EN300-236460

> <ROCS_ShapeQuery>
_x1247relevant_x1083L0AP1_x1305L0BP1_

> <ROCS_TanimotoCombo>
0.864 

> <ROCS_ShapeTanimoto>
0.501 

> <ROCS_ColorTanimoto>
0.364 

> <ROCS_RefTversky>
0.426 

> <ROCS_RefColorTversky>
0.461 

> <ROCS_RefTverskyCombo>
0.887 

> <ROCS_FitTversky>
1.543 

> <ROCS_FitColorTversky>
0.633 

> <ROCS_FitTverskyCombo>
2.175 

> <ROCS_ColorScore>
-9.922

> <ROCS_Overlap>
1253.934

> <ROCS_Rank>
56                  

$$$$
untitled-dbase-28909_10
  -OEChem-06232314393D

 25 26  0     1  0  0  0  0  0999 V2000
  -14.0781   15.5878  -39.1253 C   0  0  0  0  0  0  0  0  0  0  0  0
  -14.0507   15.7408  -37.6094 C   0  0  0  0  0  0  0  0  0  0  0  0
  -11.5882   15.5221  -39.6999 C   0  0  0  0  0  0  0  0  0  0  0  0
  -11.2583   16.4755  -38.5448 C   0  0  0  0  0  0  0  0  0  0  0  0
  -12.8654   14.7174  -39.4340 C   0  0  1  0  0  0  0  0  0  0  0  0
  -12.8048   14.9734  -37.1788 C   0  0  2  0  0  0  0  0  0  0  0  0
  -11.5433   15.8531  -37.1710 C   0  0  1  0  0  0  0  0  0  0  0  0
  -10.3986   13.4816  -37.5121 N   0  0  0  0  0  0  0  0  0  0  0  0
   -8.9473   15.5651  -37.1006 O   0  0  0  0  0  0  0  0  0  0  0  0
  -10.3328   14.6241  -35.2084 O   0  0  0  0  0  0  0  0  0  0  0  0
  -12.6591   13.9852  -38.2151 O   0  0  0  0  0  0  0  0  0  0  0  0
  -10.1428   14.9065  -36.6161 S   0  0  0  0  0  0  0  0  0  0  0  0
  -14.9978   15.0664  -39.4158 H   0  0  0  0  0  0  0  0  0  0  0  0
  -14.0664   16.5452  -39.6550 H   0  0  0  0  0  0  0  0  0  0  0  0
  -14.0494   16.7849  -37.2818 H   0  0  0  0  0  0  0  0  0  0  0  0
  -14.9445   15.2667  -37.1870 H   0  0  0  0  0  0  0  0  0  0  0  0
  -11.6753   16.0866  -40.6347 H   0  0  0  0  0  0  0  0  0  0  0  0
  -10.7514   14.8220  -39.8164 H   0  0  0  0  0  0  0  0  0  0  0  0
  -10.2196   16.8160  -38.6262 H   0  0  0  0  0  0  0  0  0  0  0  0
  -11.8804   17.3730  -38.6541 H   0  0  0  0  0  0  0  0  0  0  0  0
  -13.0560   14.0189  -40.2545 H   0  0  0  0  0  0  0  0  0  0  0  0
  -12.9461   14.4713  -36.2162 H   0  0  0  0  0  0  0  0  0  0  0  0
  -11.6489   16.6515  -36.4268 H   0  0  0  0  0  0  0  0  0  0  0  0
  -11.1813   12.8752  -37.2376 H   0  0  0  0  0  0  0  0  0  0  0  0
  -10.2375   13.5161  -38.5262 H   0  0  0  0  0  0  0  0  0  0  0  0
  1  2  1  0  0  0  0
  1  5  1  0  0  0  0
  2  6  1  0  0  0  0
  3  4  1  0  0  0  0
  3  5  1  0  0  0  0
  4  7  1  0  0  0  0
  5 11  1  0  0  0  0
  6  7  1  0  0  0  0
  6 11  1  0  0  0  0
  7 12  1  0  0  0  0
  8 12  1  0  0  0  0
  9 12  2  0  0  0  0
 10 12  2  0  0  0  0
  1 13  1  0  0  0  0
  1 14  1  0  0  0  0
  2 15  1  0  0  0  0
  2 16  1  0  0  0  0
  3 17  1  0  0  0  0
  3 18  1  0  0  0  0
  4 19  1  0  0  0  0
  4 20  1  0  0  0  0
  5 21  1  0  0  0  0
  6 22  1  0  0  0  0
  7 23  1  0  0  0  0
  8 24  1  0  0  0  0
  8 25  1  0  0  0  0
M  END
> <id>
EN300-679912

> <smiles>
NS(=O)(=O)C1CCC2CCC1O2

> <MDLNUMBER>
MFCD31425581

> <IUPAC Name>
8-oxabicyclo[3.2.1]octane-2-sulfonamide

> <CAS>
1935968-48-1

> <URL>
https://www.enaminestore.com/catalog/EN300-679912

> <ROCS_ShapeQuery>
_x1247relevant_x1083L0AP1_x1305L0BP1_

> <ROCS_TanimotoCombo>
0.864 

> <ROCS_ShapeTanimoto>
0.463 

> <ROCS_ColorTanimoto>
0.401 

> <ROCS_RefTversky>
0.385 

> <ROCS_RefColorTversky>
0.427 

> <ROCS_RefTverskyCombo>
0.812 

> <ROCS_FitTversky>
1.775 

> <ROCS_FitColorTversky>
0.869 

> <ROCS_FitTverskyCombo>
2.644 

> <ROCS_ColorScore>
-9.071

> <ROCS_Overlap>
1130.418

> <ROCS_Rank>
57                  

$$$$
untitled-dbase-52588_1
  -OEChem-06232314393D

 31 33  0     1  0  0  0  0  0999 V2000
   -9.9283   15.1565  -36.0723 C   0  0  0  0  0  0  0  0  0  0  0  0
  -13.8889   16.1569  -38.0632 C   0  0  0  0  0  0  0  0  0  0  0  0
  -11.0697   15.5501  -36.9091 C   0  0  2  0  0  0  0  0  0  0  0  0
  -13.4980   14.6718  -37.7191 C   0  0  2  0  0  0  0  0  0  0  0  0
  -13.2802   15.8374  -39.4672 C   0  0  1  0  0  0  0  0  0  0  0  0
  -12.0143   14.4822  -37.3945 C   0  0  1  0  0  0  0  0  0  0  0  0
  -11.0692   15.1610  -38.3721 C   0  0  1  0  0  0  0  0  0  0  0  0
  -11.7345   16.0299  -39.4374 C   0  0  1  0  0  0  0  0  0  0  0  0
  -13.8733   14.3666  -39.2467 C   0  0  0  0  0  0  0  0  0  0  0  0
  -15.3761   14.2123  -39.5550 C   0  0  0  0  0  0  0  0  0  0  0  0
  -13.1534   13.1832  -39.9030 C   0  0  0  0  0  0  0  0  0  0  0  0
  -11.1756   15.7636  -40.7626 N   0  0  0  0  0  0  0  0  0  0  0  0
  -10.0081   14.5305  -35.0258 O   0  0  0  0  0  0  0  0  0  0  0  0
   -8.7641   15.5857  -36.6180 O   0  0  0  0  0  0  0  0  0  0  0  0
  -14.9600   16.3817  -38.0412 H   0  0  0  0  0  0  0  0  0  0  0  0
  -13.4077   16.9549  -37.4921 H   0  0  0  0  0  0  0  0  0  0  0  0
  -11.4785   16.5177  -36.6489 H   0  0  0  0  0  0  0  0  0  0  0  0
  -14.1414   14.1960  -36.9719 H   0  0  0  0  0  0  0  0  0  0  0  0
  -13.7460   16.4054  -40.2817 H   0  0  0  0  0  0  0  0  0  0  0  0
  -11.8194   13.4467  -37.1430 H   0  0  0  0  0  0  0  0  0  0  0  0
  -10.2214   14.5907  -38.7342 H   0  0  0  0  0  0  0  0  0  0  0  0
  -11.5219   17.0813  -39.2088 H   0  0  0  0  0  0  0  0  0  0  0  0
  -15.5021   14.0098  -40.6124 H   0  0  0  0  0  0  0  0  0  0  0  0
  -15.8879   15.1311  -39.2929 H   0  0  0  0  0  0  0  0  0  0  0  0
  -15.7749   13.3897  -38.9726 H   0  0  0  0  0  0  0  0  0  0  0  0
  -13.4898   13.0778  -40.9311 H   0  0  0  0  0  0  0  0  0  0  0  0
  -13.3775   12.2719  -39.3546 H   0  0  0  0  0  0  0  0  0  0  0  0
  -12.0806   13.3578  -39.8901 H   0  0  0  0  0  0  0  0  0  0  0  0
  -11.6159   16.3715  -41.4108 H   0  0  0  0  0  0  0  0  0  0  0  0
  -10.1995   15.9355  -40.7251 H   0  0  0  0  0  0  0  0  0  0  0  0
   -7.9889   15.3340  -36.0721 H   0  0  0  0  0  0  0  0  0  0  0  0
  1  3  1  0  0  0  0
  1 13  2  0  0  0  0
  1 14  1  0  0  0  0
  2  4  1  6  0  0  0
  2  5  1  6  0  0  0
  3  6  1  0  0  0  0
  3  7  1  0  0  0  0
  4  6  1  0  0  0  0
  4  9  1  0  0  0  0
  5  8  1  0  0  0  0
  5  9  1  0  0  0  0
  6  7  1  0  0  0  0
  7  8  1  0  0  0  0
  8 12  1  0  0  0  0
  9 10  1  0  0  0  0
  9 11  1  0  0  0  0
  2 15  1  0  0  0  0
  2 16  1  0  0  0  0
  3 17  1  0  0  0  0
  4 18  1  0  0  0  0
  5 19  1  0  0  0  0
  6 20  1  0  0  0  0
  7 21  1  0  0  0  0
  8 22  1  0  0  0  0
 10 23  1  0  0  0  0
 10 24  1  0  0  0  0
 10 25  1  0  0  0  0
 11 26  1  0  0  0  0
 11 27  1  0  0  0  0
 11 28  1  0  0  0  0
 12 29  1  0  0  0  0
 12 30  1  0  0  0  0
 14 31  1  0  0  0  0
M  END
> <id>
EN300-1652888

> <smiles>
CC1(C)[C@@H]2C[C@H]1C(N)C3C(C32)C(=O)O

> <IUPAC Name>
(1R,6R)-5-amino-7,7-dimethyltricyclo[4.1.1.0,2,4]octane-3-carboxylic acid

> <CAS>
2171393-90-9

> <URL>
https://www.enaminestore.com/catalog/EN300-1652888

> <ROCS_ShapeQuery>
_x1247relevant_x1083L0AP1_x1305L0BP1_

> <ROCS_TanimotoCombo>
0.863 

> <ROCS_ShapeTanimoto>
0.495 

> <ROCS_ColorTanimoto>
0.368 

> <ROCS_RefTversky>
0.414 

> <ROCS_RefColorTversky>
0.556 

> <ROCS_RefTverskyCombo>
0.969 

> <ROCS_FitTversky>
1.656 

> <ROCS_FitColorTversky>
0.522 

> <ROCS_FitTverskyCombo>
2.178 

> <ROCS_ColorScore>
-12.187

> <ROCS_Overlap>
1217.016

> <ROCS_Rank>
58                  

$$$$
untitled-dbase-16243_6
  -OEChem-06232314393D

 31 33  0     0  0  0  0  0  0999 V2000
   -9.9964   15.2152  -36.5733 C   0  0  0  0  0  0  0  0  0  0  0  0
  -13.9264   15.9639  -38.9774 C   0  0  0  0  0  0  0  0  0  0  0  0
  -12.9133   15.9799  -36.6887 C   0  0  0  0  0  0  0  0  0  0  0  0
  -11.5576   16.7254  -38.6730 C   0  0  0  0  0  0  0  0  0  0  0  0
  -13.3779   13.8063  -37.8263 C   0  0  0  0  0  0  0  0  0  0  0  0
  -12.0302   14.5633  -39.8165 C   0  0  0  0  0  0  0  0  0  0  0  0
  -12.9617   16.7105  -38.0418 C   0  0  0  0  0  0  0  0  0  0  0  0
  -13.4350   14.5224  -39.1885 C   0  0  0  0  0  0  0  0  0  0  0  0
  -12.3964   14.5345  -36.8778 C   0  0  0  0  0  0  0  0  0  0  0  0
  -11.0401   15.2791  -38.8666 C   0  0  0  0  0  0  0  0  0  0  0  0
  -10.9796   14.5430  -37.5027 C   0  0  0  0  0  0  0  0  0  0  0  0
  -10.4283   13.1899  -37.6316 N   0  0  0  0  0  0  0  0  0  0  0  0
   -9.0017   15.8294  -36.9290 O   0  0  0  0  0  0  0  0  0  0  0  0
  -10.3654   15.0431  -35.2804 O   0  0  0  0  0  0  0  0  0  0  0  0
  -14.9366   15.9581  -38.5499 H   0  0  0  0  0  0  0  0  0  0  0  0
  -13.9927   16.4834  -39.9411 H   0  0  0  0  0  0  0  0  0  0  0  0
  -12.2719   16.5297  -35.9902 H   0  0  0  0  0  0  0  0  0  0  0  0
  -13.9141   15.9605  -36.2391 H   0  0  0  0  0  0  0  0  0  0  0  0
  -11.5898   17.2409  -39.6413 H   0  0  0  0  0  0  0  0  0  0  0  0
  -10.8699   17.2986  -38.0405 H   0  0  0  0  0  0  0  0  0  0  0  0
  -14.3794   13.7942  -37.3768 H   0  0  0  0  0  0  0  0  0  0  0  0
  -13.0972   12.7562  -37.9605 H   0  0  0  0  0  0  0  0  0  0  0  0
  -11.6884   13.5469  -40.0419 H   0  0  0  0  0  0  0  0  0  0  0  0
  -12.0685   15.0917  -40.7778 H   0  0  0  0  0  0  0  0  0  0  0  0
  -13.3126   17.7384  -37.8951 H   0  0  0  0  0  0  0  0  0  0  0  0
  -14.1241   13.9934  -39.8564 H   0  0  0  0  0  0  0  0  0  0  0  0
  -12.3885   14.0311  -35.9029 H   0  0  0  0  0  0  0  0  0  0  0  0
  -10.0477   15.3187  -39.3333 H   0  0  0  0  0  0  0  0  0  0  0  0
  -11.1108   12.5509  -37.3044 H   0  0  0  0  0  0  0  0  0  0  0  0
  -10.2257   13.0344  -38.5886 H   0  0  0  0  0  0  0  0  0  0  0  0
   -9.7376   15.4714  -34.6601 H   0  0  0  0  0  0  0  0  0  0  0  0
  1 11  1  0  0  0  0
  1 13  2  0  0  0  0
  1 14  1  0  0  0  0
  2  7  1  0  0  0  0
  2  8  1  0  0  0  0
  3  7  1  0  0  0  0
  3  9  1  0  0  0  0
  4  7  1  0  0  0  0
  4 10  1  0  0  0  0
  5  8  1  0  0  0  0
  5  9  1  0  0  0  0
  6  8  1  0  0  0  0
  6 10  1  0  0  0  0
  9 11  1  0  0  0  0
 10 11  1  0  0  0  0
 11 12  1  0  0  0  0
  2 15  1  0  0  0  0
  2 16  1  0  0  0  0
  3 17  1  0  0  0  0
  3 18  1  0  0  0  0
  4 19  1  0  0  0  0
  4 20  1  0  0  0  0
  5 21  1  0  0  0  0
  5 22  1  0  0  0  0
  6 23  1  0  0  0  0
  6 24  1  0  0  0  0
  7 25  1  0  0  0  0
  8 26  1  0  0  0  0
  9 27  1  0  0  0  0
 10 28  1  0  0  0  0
 12 29  1  0  0  0  0
 12 30  1  0  0  0  0
 14 31  1  0  0  0  0
M  END
> <id>
EN300-42043

> <smiles>
Cl.NC1(C2CC3CC(C2)CC1C3)C(=O)O

> <IUPAC Name>
2-aminoadamantane-2-carboxylic acid hydrochloride

> <CAS>
50294-51-4

> <Purity>
95

> <URL>
https://www.enaminestore.com/catalog/EN300-42043

> <Saltdate>
Cl

> <ROCS_ShapeQuery>
_x1247relevant_x1083L0AP1_x1305L0BP1_

> <ROCS_TanimotoCombo>
0.863 

> <ROCS_ShapeTanimoto>
0.500 

> <ROCS_ColorTanimoto>
0.363 

> <ROCS_RefTversky>
0.419 

> <ROCS_RefColorTversky>
0.416 

> <ROCS_RefTverskyCombo>
0.835 

> <ROCS_FitTversky>
1.624 

> <ROCS_FitColorTversky>
0.741 

> <ROCS_FitTverskyCombo>
2.364 

> <ROCS_ColorScore>
-8.875

> <ROCS_Overlap>
1233.692

> <ROCS_Rank>
59                  

$$$$
untitled-dbase-97939_6
  -OEChem-06232314393D

 31 33  0     0  0  0  0  0  0999 V2000
   -9.9964   15.2152  -36.5733 C   0  0  0  0  0  0  0  0  0  0  0  0
  -13.9264   15.9639  -38.9774 C   0  0  0  0  0  0  0  0  0  0  0  0
  -12.9133   15.9799  -36.6887 C   0  0  0  0  0  0  0  0  0  0  0  0
  -11.5576   16.7254  -38.6730 C   0  0  0  0  0  0  0  0  0  0  0  0
  -13.3779   13.8063  -37.8263 C   0  0  0  0  0  0  0  0  0  0  0  0
  -12.0302   14.5633  -39.8165 C   0  0  0  0  0  0  0  0  0  0  0  0
  -12.9617   16.7105  -38.0418 C   0  0  0  0  0  0  0  0  0  0  0  0
  -13.4350   14.5224  -39.1885 C   0  0  0  0  0  0  0  0  0  0  0  0
  -12.3964   14.5345  -36.8778 C   0  0  0  0  0  0  0  0  0  0  0  0
  -11.0401   15.2791  -38.8666 C   0  0  0  0  0  0  0  0  0  0  0  0
  -10.9796   14.5430  -37.5027 C   0  0  0  0  0  0  0  0  0  0  0  0
  -10.4283   13.1899  -37.6316 N   0  0  0  0  0  0  0  0  0  0  0  0
   -9.0017   15.8294  -36.9290 O   0  0  0  0  0  0  0  0  0  0  0  0
  -10.3654   15.0431  -35.2804 O   0  0  0  0  0  0  0  0  0  0  0  0
  -14.9366   15.9581  -38.5499 H   0  0  0  0  0  0  0  0  0  0  0  0
  -13.9927   16.4834  -39.9411 H   0  0  0  0  0  0  0  0  0  0  0  0
  -12.2719   16.5297  -35.9902 H   0  0  0  0  0  0  0  0  0  0  0  0
  -13.9141   15.9605  -36.2391 H   0  0  0  0  0  0  0  0  0  0  0  0
  -11.5898   17.2409  -39.6413 H   0  0  0  0  0  0  0  0  0  0  0  0
  -10.8699   17.2986  -38.0405 H   0  0  0  0  0  0  0  0  0  0  0  0
  -14.3794   13.7942  -37.3768 H   0  0  0  0  0  0  0  0  0  0  0  0
  -13.0972   12.7562  -37.9605 H   0  0  0  0  0  0  0  0  0  0  0  0
  -11.6884   13.5469  -40.0419 H   0  0  0  0  0  0  0  0  0  0  0  0
  -12.0685   15.0917  -40.7778 H   0  0  0  0  0  0  0  0  0  0  0  0
  -13.3126   17.7384  -37.8951 H   0  0  0  0  0  0  0  0  0  0  0  0
  -14.1241   13.9934  -39.8564 H   0  0  0  0  0  0  0  0  0  0  0  0
  -12.3885   14.0311  -35.9029 H   0  0  0  0  0  0  0  0  0  0  0  0
  -10.0477   15.3187  -39.3333 H   0  0  0  0  0  0  0  0  0  0  0  0
  -11.1108   12.5509  -37.3044 H   0  0  0  0  0  0  0  0  0  0  0  0
  -10.2257   13.0344  -38.5886 H   0  0  0  0  0  0  0  0  0  0  0  0
   -9.7376   15.4714  -34.6601 H   0  0  0  0  0  0  0  0  0  0  0  0
  1 11  1  0  0  0  0
  1 13  2  0  0  0  0
  1 14  1  0  0  0  0
  2  7  1  0  0  0  0
  2  8  1  0  0  0  0
  3  7  1  0  0  0  0
  3  9  1  0  0  0  0
  4  7  1  0  0  0  0
  4 10  1  0  0  0  0
  5  8  1  0  0  0  0
  5  9  1  0  0  0  0
  6  8  1  0  0  0  0
  6 10  1  0  0  0  0
  9 11  1  0  0  0  0
 10 11  1  0  0  0  0
 11 12  1  0  0  0  0
  2 15  1  0  0  0  0
  2 16  1  0  0  0  0
  3 17  1  0  0  0  0
  3 18  1  0  0  0  0
  4 19  1  0  0  0  0
  4 20  1  0  0  0  0
  5 21  1  0  0  0  0
  5 22  1  0  0  0  0
  6 23  1  0  0  0  0
  6 24  1  0  0  0  0
  7 25  1  0  0  0  0
  8 26  1  0  0  0  0
  9 27  1  0  0  0  0
 10 28  1  0  0  0  0
 12 29  1  0  0  0  0
 12 30  1  0  0  0  0
 14 31  1  0  0  0  0
M  END
> <id>
EN300-43496

> <smiles>
NC1(C2CC3CC(C2)CC1C3)C(=O)O

> <IUPAC Name>
2-aminoadamantane-2-carboxylic acid

> <CAS>
42381-05-5

> <Purity>
95

> <URL>
https://www.enaminestore.com/catalog/EN300-43496

> <MP>
312-314

> <ROCS_ShapeQuery>
_x1247relevant_x1083L0AP1_x1305L0BP1_

> <ROCS_TanimotoCombo>
0.863 

> <ROCS_ShapeTanimoto>
0.500 

> <ROCS_ColorTanimoto>
0.363 

> <ROCS_RefTversky>
0.419 

> <ROCS_RefColorTversky>
0.416 

> <ROCS_RefTverskyCombo>
0.835 

> <ROCS_FitTversky>
1.624 

> <ROCS_FitColorTversky>
0.741 

> <ROCS_FitTverskyCombo>
2.364 

> <ROCS_ColorScore>
-8.875

> <ROCS_Overlap>
1233.692

> <ROCS_Rank>
60                  

$$$$
untitled-dbase-67013_13
  -OEChem-06232314393D

 24 25  0     1  0  0  0  0  0999 V2000
  -10.0580   14.9782  -36.5673 C   0  0  0  0  0  0  0  0  0  0  0  0
  -12.9633   16.0248  -37.3614 C   0  0  0  0  0  0  0  0  0  0  0  0
  -10.8205   14.9102  -37.8487 C   0  0  2  0  0  0  0  0  0  0  0  0
  -11.6368   16.2030  -38.1184 C   0  0  1  0  0  0  0  0  0  0  0  0
  -12.1648   16.2639  -39.5712 C   0  0  2  0  0  0  0  0  0  0  0  0
  -13.3184   15.2403  -39.5945 C   0  0  1  0  0  0  0  0  0  0  0  0
  -13.4171   14.7757  -38.1316 C   0  0  1  0  0  0  0  0  0  0  0  0
  -10.5098   14.7006  -35.4663 O   0  0  0  0  0  0  0  0  0  0  0  0
  -11.8907   12.7233  -38.9164 O   0  0  0  0  0  0  0  0  0  0  0  0
  -12.2250   13.1251  -36.4414 O   0  0  0  0  0  0  0  0  0  0  0  0
   -8.7872   15.3949  -36.7879 O   0  0  0  0  0  0  0  0  0  0  0  0
  -11.1577   15.9435  -40.5130 O   0  0  0  0  0  0  0  0  0  0  0  0
  -14.5223   15.8986  -39.9714 O   0  0  0  0  0  0  0  0  0  0  0  0
  -12.0715   13.6196  -37.7943 S   0  0  0  0  0  0  0  0  0  0  0  0
  -12.8260   15.8489  -36.2901 H   0  0  0  0  0  0  0  0  0  0  0  0
  -13.6442   16.8726  -37.4966 H   0  0  0  0  0  0  0  0  0  0  0  0
  -10.1175   14.6798  -38.6530 H   0  0  0  0  0  0  0  0  0  0  0  0
  -11.0851   17.1060  -37.8419 H   0  0  0  0  0  0  0  0  0  0  0  0
  -12.5275   17.2749  -39.7949 H   0  0  0  0  0  0  0  0  0  0  0  0
  -13.1467   14.4269  -40.3055 H   0  0  0  0  0  0  0  0  0  0  0  0
  -14.3807   14.3710  -37.8213 H   0  0  0  0  0  0  0  0  0  0  0  0
   -8.2695   15.4480  -35.9564 H   0  0  0  0  0  0  0  0  0  0  0  0
  -11.5622   16.0029  -41.3954 H   0  0  0  0  0  0  0  0  0  0  0  0
  -14.3711   16.2712  -40.8546 H   0  0  0  0  0  0  0  0  0  0  0  0
  1  3  1  0  0  0  0
  1  8  2  0  0  0  0
  1 11  1  0  0  0  0
  2  4  1  0  0  0  0
  2  7  1  0  0  0  0
  3  4  1  0  0  0  0
  3 14  1  0  0  0  0
  4  5  1  0  0  0  0
  5  6  1  0  0  0  0
  5 12  1  0  0  0  0
  6  7  1  0  0  0  0
  6 13  1  0  0  0  0
  7 14  1  0  0  0  0
  9 14  2  0  0  0  0
 10 14  2  0  0  0  0
  2 15  1  0  0  0  0
  2 16  1  0  0  0  0
  3 17  1  0  0  0  0
  4 18  1  0  0  0  0
  5 19  1  0  0  0  0
  6 20  1  0  0  0  0
  7 21  1  0  0  0  0
 11 22  1  0  0  0  0
 12 23  1  0  0  0  0
 13 24  1  0  0  0  0
M  END
> <id>
EN300-27081549

> <smiles>
OC1C(O)C2CC1C(C(=O)O)S2(=O)=O

> <MDLNUMBER>
MFCD32710862

> <IUPAC Name>
5,6-dihydroxy-2,2-dioxo-2lambda6-thiabicyclo[2.2.1]heptane-3-carboxylic acid

> <CAS>
2470440-16-3

> <Purity>
95

> <URL>
https://www.enaminestore.com/catalog/EN300-27081549

> <ROCS_ShapeQuery>
_x1247relevant_x1083L0AP1_x1305L0BP1_

> <ROCS_TanimotoCombo>
0.863 

> <ROCS_ShapeTanimoto>
0.505 

> <ROCS_ColorTanimoto>
0.358 

> <ROCS_RefTversky>
0.418 

> <ROCS_RefColorTversky>
0.453 

> <ROCS_RefTverskyCombo>
0.872 

> <ROCS_FitTversky>
1.694 

> <ROCS_FitColorTversky>
0.629 

> <ROCS_FitTverskyCombo>
2.323 

> <ROCS_ColorScore>
-9.757

> <ROCS_Overlap>
1230.421

> <ROCS_Rank>
61                  

$$$$
untitled-dbase-149714_3
  -OEChem-06232314393D

 25 27  0     1  0  0  0  0  0999 V2000
  -11.9257   13.8640  -37.7455 C   0  0  0  0  0  0  0  0  0  0  0  0
  -10.0823   15.2209  -36.6419 C   0  0  0  0  0  0  0  0  0  0  0  0
  -13.0477   14.4546  -39.7677 C   0  0  0  0  0  0  0  0  0  0  0  0
  -13.6720   16.4682  -38.7502 C   0  0  0  0  0  0  0  0  0  0  0  0
  -11.2066   15.9377  -38.8092 C   0  0  0  0  0  0  0  0  0  0  0  0
  -12.5524   15.7429  -36.6568 C   0  0  0  0  0  0  0  0  0  0  0  0
  -13.3127   14.0840  -38.3060 C   0  0  2  0  0  0  0  0  0  0  0  0
  -12.5462   15.9040  -39.6169 C   0  0  1  0  0  0  0  0  0  0  0  0
  -13.7139   15.4319  -37.6178 C   0  0  2  0  0  0  0  0  0  0  0  0
  -11.3431   15.2165  -37.4363 C   0  0  1  0  0  0  0  0  0  0  0  0
  -11.3633   12.7865  -37.6406 O   0  0  0  0  0  0  0  0  0  0  0  0
   -9.0185   15.6914  -37.0164 O   0  0  0  0  0  0  0  0  0  0  0  0
  -10.2724   14.6261  -35.4388 O   0  0  0  0  0  0  0  0  0  0  0  0
  -12.3062   13.8121  -40.2549 H   0  0  0  0  0  0  0  0  0  0  0  0
  -13.9751   14.4199  -40.3514 H   0  0  0  0  0  0  0  0  0  0  0  0
  -13.4719   17.4861  -38.4003 H   0  0  0  0  0  0  0  0  0  0  0  0
  -14.6214   16.4783  -39.2992 H   0  0  0  0  0  0  0  0  0  0  0  0
  -10.4182   15.4607  -39.4054 H   0  0  0  0  0  0  0  0  0  0  0  0
  -10.9045   16.9807  -38.6504 H   0  0  0  0  0  0  0  0  0  0  0  0
  -12.4686   16.8090  -36.4187 H   0  0  0  0  0  0  0  0  0  0  0  0
  -12.6863   15.2022  -35.7100 H   0  0  0  0  0  0  0  0  0  0  0  0
  -13.9826   13.2441  -38.1225 H   0  0  0  0  0  0  0  0  0  0  0  0
  -12.4499   16.4177  -40.5771 H   0  0  0  0  0  0  0  0  0  0  0  0
  -14.6835   15.4065  -37.1141 H   0  0  0  0  0  0  0  0  0  0  0  0
   -9.4522   14.6173  -34.9008 H   0  0  0  0  0  0  0  0  0  0  0  0
  1  7  1  0  0  0  0
  1 10  1  0  0  0  0
  1 11  2  0  0  0  0
  2 10  1  0  0  0  0
  2 12  2  0  0  0  0
  2 13  1  0  0  0  0
  3  7  1  0  0  0  0
  3  8  1  0  0  0  0
  4  8  1  0  0  0  0
  4  9  1  0  0  0  0
  5  8  1  0  0  0  0
  5 10  1  0  0  0  0
  6  9  1  0  0  0  0
  6 10  1  0  0  0  0
  7  9  1  0  0  0  0
  3 14  1  0  0  0  0
  3 15  1  0  0  0  0
  4 16  1  0  0  0  0
  4 17  1  0  0  0  0
  5 18  1  0  0  0  0
  5 19  1  0  0  0  0
  6 20  1  0  0  0  0
  6 21  1  0  0  0  0
  7 22  1  0  0  0  0
  8 23  1  0  0  0  0
  9 24  1  0  0  0  0
 13 25  1  0  0  0  0
M  END
> <id>
EN300-27750833

> <smiles>
OC(=O)C1(CC2CC3CC2C1=O)C3

> <MDLNUMBER>
MFCD33550595

> <IUPAC Name>
2-oxotricyclo[3.3.1.0,3,7]nonane-1-carboxylic acid

> <CAS>
2649069-74-7

> <Purity>
95

> <URL>
https://www.enaminestore.com/catalog/EN300-27750833

> <ROCS_ShapeQuery>
_x1247relevant_x1083L0AP1_x1305L0BP1_

> <ROCS_TanimotoCombo>
0.862 

> <ROCS_ShapeTanimoto>
0.498 

> <ROCS_ColorTanimoto>
0.364 

> <ROCS_RefTversky>
0.415 

> <ROCS_RefColorTversky>
0.567 

> <ROCS_RefTverskyCombo>
0.982 

> <ROCS_FitTversky>
1.673 

> <ROCS_FitColorTversky>
0.504 

> <ROCS_FitTverskyCombo>
2.177 

> <ROCS_ColorScore>
-12.487

> <ROCS_Overlap>
1220.035

> <ROCS_Rank>
62                  

$$$$
untitled-dbase-111870_5
  -OEChem-06232314393D

 26 27  0     0  0  0  0  0  0999 V2000
  -10.2913   15.1169  -36.5538 C   0  0  0  0  0  0  0  0  0  0  0  0
  -11.0623   15.8339  -38.8240 C   0  0  0  0  0  0  0  0  0  0  0  0
  -12.5480   16.1285  -36.8451 C   0  0  0  0  0  0  0  0  0  0  0  0
  -12.2757   15.8472  -39.7606 C   0  0  0  0  0  0  0  0  0  0  0  0
  -13.7830   16.1465  -37.7530 C   0  0  0  0  0  0  0  0  0  0  0  0
  -12.0994   13.8548  -37.7377 C   0  0  0  0  0  0  0  0  0  0  0  0
  -11.4711   15.2298  -37.4717 C   0  0  0  0  0  0  0  0  0  0  0  0
  -13.5122   15.3089  -39.0170 C   0  0  0  0  0  0  0  0  0  0  0  0
  -14.7334   15.2813  -39.9299 C   0  0  0  0  0  0  0  0  0  0  0  0
  -10.3270   14.6715  -35.4164 O   0  0  0  0  0  0  0  0  0  0  0  0
  -13.2362   13.9550  -38.6091 O   0  0  0  0  0  0  0  0  0  0  0  0
   -9.1695   15.5807  -37.1569 O   0  0  0  0  0  0  0  0  0  0  0  0
  -14.5009   14.4899  -40.9890 F   0  0  0  0  0  0  0  0  0  0  0  0
  -15.7986   14.8097  -39.2627 F   0  0  0  0  0  0  0  0  0  0  0  0
  -15.0107   16.5197  -40.3679 F   0  0  0  0  0  0  0  0  0  0  0  0
  -10.2465   15.2571  -39.2782 H   0  0  0  0  0  0  0  0  0  0  0  0
  -10.6766   16.8534  -38.6958 H   0  0  0  0  0  0  0  0  0  0  0  0
  -12.1700   17.1492  -36.7038 H   0  0  0  0  0  0  0  0  0  0  0  0
  -12.8252   15.7685  -35.8459 H   0  0  0  0  0  0  0  0  0  0  0  0
  -12.4510   16.8634  -40.1330 H   0  0  0  0  0  0  0  0  0  0  0  0
  -12.0539   15.2152  -40.6297 H   0  0  0  0  0  0  0  0  0  0  0  0
  -14.6315   15.7269  -37.1981 H   0  0  0  0  0  0  0  0  0  0  0  0
  -14.0427   17.1795  -38.0128 H   0  0  0  0  0  0  0  0  0  0  0  0
  -11.3801   13.1702  -38.2024 H   0  0  0  0  0  0  0  0  0  0  0  0
  -12.4332   13.3798  -36.8077 H   0  0  0  0  0  0  0  0  0  0  0  0
   -8.3854   15.5170  -36.5709 H   0  0  0  0  0  0  0  0  0  0  0  0
  1  7  1  0  0  0  0
  1 10  2  0  0  0  0
  1 12  1  0  0  0  0
  2  4  1  0  0  0  0
  2  7  1  0  0  0  0
  3  5  1  0  0  0  0
  3  7  1  0  0  0  0
  4  8  1  0  0  0  0
  5  8  1  0  0  0  0
  6  7  1  0  0  0  0
  6 11  1  0  0  0  0
  8  9  1  0  0  0  0
  8 11  1  0  0  0  0
  9 13  1  0  0  0  0
  9 14  1  0  0  0  0
  9 15  1  0  0  0  0
  2 16  1  0  0  0  0
  2 17  1  0  0  0  0
  3 18  1  0  0  0  0
  3 19  1  0  0  0  0
  4 20  1  0  0  0  0
  4 21  1  0  0  0  0
  5 22  1  0  0  0  0
  5 23  1  0  0  0  0
  6 24  1  0  0  0  0
  6 25  1  0  0  0  0
 12 26  1  0  0  0  0
M  END
> <id>
EN300-37385129

> <smiles>
OC(=O)C1(CCC2(CC1)C(F)(F)F)CO2

> <IUPAC Name>
1-(trifluoromethyl)-2-oxabicyclo[2.2.2]octane-4-carboxylic acid

> <CAS>
2825012-62-0

> <Purity>
95

> <URL>
https://www.enaminestore.com/catalog/EN300-37385129

> <ROCS_ShapeQuery>
_x1247relevant_x1083L0AP1_x1305L0BP1_

> <ROCS_TanimotoCombo>
0.862 

> <ROCS_ShapeTanimoto>
0.516 

> <ROCS_ColorTanimoto>
0.346 

> <ROCS_RefTversky>
0.434 

> <ROCS_RefColorTversky>
0.386 

> <ROCS_RefTverskyCombo>
0.819 

> <ROCS_FitTversky>
1.582 

> <ROCS_FitColorTversky>
0.770 

> <ROCS_FitTverskyCombo>
2.351 

> <ROCS_ColorScore>
-8.197

> <ROCS_Overlap>
1278.049

> <ROCS_Rank>
63                  

$$$$
untitled-dbase-106596_89
  -OEChem-06232314393D

 31 33  0     0  0  0  0  0  0999 V2000
  -10.2232   14.0242  -38.0232 C   0  0  0  0  0  0  0  0  0  0  0  0
  -11.0985   15.4091  -36.0984 C   0  0  0  0  0  0  0  0  0  0  0  0
  -13.8050   15.4072  -37.5781 C   0  0  0  0  0  0  0  0  0  0  0  0
  -13.1311   14.2778  -39.1934 C   0  0  0  0  0  0  0  0  0  0  0  0
   -8.8844   14.7621  -37.9281 C   0  0  0  0  0  0  0  0  0  0  0  0
   -9.6100   15.3760  -35.7538 C   0  0  0  0  0  0  0  0  0  0  0  0
  -12.7513   14.2574  -37.6768 C   0  0  0  0  0  0  0  0  0  0  0  0
  -11.3698   14.8934  -37.5185 C   0  0  0  0  0  0  0  0  0  0  0  0
  -12.9558   15.8193  -38.8570 C   0  0  0  0  0  0  0  0  0  0  0  0
  -13.4287   16.8831  -39.7995 C   0  0  0  0  0  0  0  0  0  0  0  0
  -13.1478   13.0522  -36.9973 N   0  0  0  0  0  0  0  0  0  0  0  0
   -8.8386   15.7425  -36.8906 O   0  0  0  0  0  0  0  0  0  0  0  0
  -11.5710   16.0139  -38.4162 O   0  0  0  0  0  0  0  0  0  0  0  0
  -14.6807   16.5010  -40.3626 O   0  0  0  0  0  0  0  0  0  0  0  0
  -10.3656   13.7156  -39.0647 H   0  0  0  0  0  0  0  0  0  0  0  0
  -10.1629   13.1130  -37.4135 H   0  0  0  0  0  0  0  0  0  0  0  0
  -11.6406   14.7774  -35.3792 H   0  0  0  0  0  0  0  0  0  0  0  0
  -11.4573   16.4375  -35.9626 H   0  0  0  0  0  0  0  0  0  0  0  0
  -14.8602   15.1581  -37.7461 H   0  0  0  0  0  0  0  0  0  0  0  0
  -13.7403   16.0838  -36.7227 H   0  0  0  0  0  0  0  0  0  0  0  0
  -12.4128   13.8564  -39.9012 H   0  0  0  0  0  0  0  0  0  0  0  0
  -14.1371   13.9451  -39.4790 H   0  0  0  0  0  0  0  0  0  0  0  0
   -8.0764   14.0332  -37.7293 H   0  0  0  0  0  0  0  0  0  0  0  0
   -8.6259   15.2430  -38.8931 H   0  0  0  0  0  0  0  0  0  0  0  0
   -9.3788   16.0427  -34.9190 H   0  0  0  0  0  0  0  0  0  0  0  0
   -9.3217   14.3637  -35.4640 H   0  0  0  0  0  0  0  0  0  0  0  0
  -12.7154   17.0333  -40.6229 H   0  0  0  0  0  0  0  0  0  0  0  0
  -13.5659   17.8437  -39.2819 H   0  0  0  0  0  0  0  0  0  0  0  0
  -13.2870   13.2476  -36.0268 H   0  0  0  0  0  0  0  0  0  0  0  0
  -13.9994   12.7113  -37.3947 H   0  0  0  0  0  0  0  0  0  0  0  0
  -14.5292   15.6662  -40.8324 H   0  0  0  0  0  0  0  0  0  0  0  0
  1  5  1  0  0  0  0
  1  8  1  0  0  0  0
  2  6  1  0  0  0  0
  2  8  1  0  0  0  0
  3  7  1  0  0  0  0
  3  9  1  0  0  0  0
  4  7  1  0  0  0  0
  4  9  1  0  0  0  0
  5 12  1  0  0  0  0
  6 12  1  0  0  0  0
  7  8  1  0  0  0  0
  7 11  1  0  0  0  0
  8 13  1  0  0  0  0
  9 10  1  0  0  0  0
  9 13  1  0  0  0  0
 10 14  1  0  0  0  0
  1 15  1  0  0  0  0
  1 16  1  0  0  0  0
  2 17  1  0  0  0  0
  2 18  1  0  0  0  0
  3 19  1  0  0  0  0
  3 20  1  0  0  0  0
  4 21  1  0  0  0  0
  4 22  1  0  0  0  0
  5 23  1  0  0  0  0
  5 24  1  0  0  0  0
  6 25  1  0  0  0  0
  6 26  1  0  0  0  0
 10 27  1  0  0  0  0
 10 28  1  0  0  0  0
 11 29  1  0  0  0  0
 11 30  1  0  0  0  0
 14 31  1  0  0  0  0
M  END
> <id>
EN300-6505021

> <smiles>
NC1(CC2(CO)C1)C3(CCOCC3)O2

> <MDLNUMBER>
MFCD31719452

> <IUPAC Name>
{1-amino-3-oxaspiro[bicyclo[2.1.1]hexane-2,4'-oxane]-4-yl}methanol

> <CAS>
2253629-55-7

> <Purity>
95

> <URL>
https://www.enaminestore.com/catalog/EN300-6505021

> <ROCS_ShapeQuery>
_x1247relevant_x1083L0AP1_x1305L0BP1_

> <ROCS_TanimotoCombo>
0.862 

> <ROCS_ShapeTanimoto>
0.502 

> <ROCS_ColorTanimoto>
0.360 

> <ROCS_RefTversky>
0.420 

> <ROCS_RefColorTversky>
0.439 

> <ROCS_RefTverskyCombo>
0.859 

> <ROCS_FitTversky>
1.643 

> <ROCS_FitColorTversky>
0.666 

> <ROCS_FitTverskyCombo>
2.309 

> <ROCS_ColorScore>
-9.417

> <ROCS_Overlap>
1234.939

> <ROCS_Rank>
64                  

$$$$
untitled-dbase-91956_166
  -OEChem-06232314393D

 34 35  0     1  0  0  0  0  0999 V2000
  -13.3249   16.3375  -40.2619 C   0  0  0  0  0  0  0  0  0  0  0  0
   -9.9785   15.1075  -36.7867 C   0  0  0  0  0  0  0  0  0  0  0  0
  -13.2727   16.2034  -37.7161 C   0  0  0  0  0  0  0  0  0  0  0  0
  -11.2668   15.6849  -38.9002 C   0  0  0  0  0  0  0  0  0  0  0  0
  -13.0729   13.8900  -37.6012 C   0  0  0  0  0  0  0  0  0  0  0  0
  -12.4980   15.1473  -36.9468 C   0  0  1  0  0  0  0  0  0  0  0  0
  -12.7915   15.6505  -39.0525 C   0  0  2  0  0  0  0  0  0  0  0  0
   -7.8860   14.3605  -34.9895 C   0  0  0  0  0  0  0  0  0  0  0  0
   -9.3986   12.4760  -34.3040 C   0  0  0  0  0  0  0  0  0  0  0  0
   -8.5697   12.6168  -36.6707 C   0  0  0  0  0  0  0  0  0  0  0  0
   -8.9983   13.4147  -35.4401 C   0  0  0  0  0  0  0  0  0  0  0  0
  -11.1457   15.3178  -37.4892 N   0  0  0  0  0  0  0  0  0  0  0  0
  -12.6444   16.8974  -41.1085 O   0  0  0  0  0  0  0  0  0  0  0  0
   -8.9129   15.6681  -37.0305 O   0  0  0  0  0  0  0  0  0  0  0  0
  -13.2039   14.2704  -39.0008 O   0  0  0  0  0  0  0  0  0  0  0  0
  -14.6778   16.2612  -40.2983 O   0  0  0  0  0  0  0  0  0  0  0  0
  -10.1496   14.1950  -35.7809 O   0  0  0  0  0  0  0  0  0  0  0  0
  -14.3565   16.1223  -37.5771 H   0  0  0  0  0  0  0  0  0  0  0  0
  -12.9495   17.2307  -37.5172 H   0  0  0  0  0  0  0  0  0  0  0  0
  -10.7478   14.9410  -39.5126 H   0  0  0  0  0  0  0  0  0  0  0  0
  -10.8272   16.6757  -39.0524 H   0  0  0  0  0  0  0  0  0  0  0  0
  -12.4244   13.0126  -37.5184 H   0  0  0  0  0  0  0  0  0  0  0  0
  -14.0706   13.6446  -37.2234 H   0  0  0  0  0  0  0  0  0  0  0  0
  -12.5381   15.1723  -35.8572 H   0  0  0  0  0  0  0  0  0  0  0  0
   -7.5958   15.0360  -35.8021 H   0  0  0  0  0  0  0  0  0  0  0  0
   -8.1934   14.9637  -34.1290 H   0  0  0  0  0  0  0  0  0  0  0  0
   -6.9841   13.8011  -34.7156 H   0  0  0  0  0  0  0  0  0  0  0  0
  -10.1965   11.7956  -34.6229 H   0  0  0  0  0  0  0  0  0  0  0  0
   -9.7963   13.0406  -33.4530 H   0  0  0  0  0  0  0  0  0  0  0  0
   -8.5504   11.8771  -33.9569 H   0  0  0  0  0  0  0  0  0  0  0  0
   -9.3674   11.9383  -36.9942 H   0  0  0  0  0  0  0  0  0  0  0  0
   -8.3140   13.2737  -37.5084 H   0  0  0  0  0  0  0  0  0  0  0  0
   -7.7015   11.9874  -36.4441 H   0  0  0  0  0  0  0  0  0  0  0  0
  -15.0379   15.7710  -39.5286 H   0  0  0  0  0  0  0  0  0  0  0  0
  1  7  1  1  0  0  0
  1 13  2  0  0  0  0
  1 16  1  0  0  0  0
  2 12  1  0  0  0  0
  2 14  2  0  0  0  0
  2 17  1  0  0  0  0
  3  6  1  0  0  0  0
  3  7  1  0  0  0  0
  4  7  1  0  0  0  0
  4 12  1  0  0  0  0
  5  6  1  6  0  0  0
  5 15  1  0  0  0  0
  6 12  1  0  0  0  0
  7 15  1  0  0  0  0
  8 11  1  0  0  0  0
  9 11  1  0  0  0  0
 10 11  1  0  0  0  0
 11 17  1  0  0  0  0
  3 18  1  0  0  0  0
  3 19  1  0  0  0  0
  4 20  1  0  0  0  0
  4 21  1  0  0  0  0
  5 22  1  0  0  0  0
  5 23  1  0  0  0  0
  6 24  1  0  0  0  0
  8 25  1  0  0  0  0
  8 26  1  0  0  0  0
  8 27  1  0  0  0  0
  9 28  1  0  0  0  0
  9 29  1  0  0  0  0
  9 30  1  0  0  0  0
 10 31  1  0  0  0  0
 10 32  1  0  0  0  0
 10 33  1  0  0  0  0
 16 34  1  0  0  0  0
M  END
> <id>
EN300-6738751

> <smiles>
CC(C)(C)OC(=O)N1C[C@@]2(C[C@H]1CO2)C(=O)O

> <MDLNUMBER>
MFCD31802546

> <IUPAC Name>
(1S,4S)-5-[(tert-butoxy)carbonyl]-2-oxa-5-azabicyclo[2.2.1]heptane-1-carboxylic acid

> <CAS>
1932599-21-7

> <Purity>
95

> <URL>
https://www.enaminestore.com/catalog/EN300-6738751

> <ROCS_ShapeQuery>
_x1247relevant_x1083L0AP1_x1305L0BP1_

> <ROCS_TanimotoCombo>
0.862 

> <ROCS_ShapeTanimoto>
0.518 

> <ROCS_ColorTanimoto>
0.344 

> <ROCS_RefTversky>
0.444 

> <ROCS_RefColorTversky>
0.411 

> <ROCS_RefTverskyCombo>
0.855 

> <ROCS_FitTversky>
1.473 

> <ROCS_FitColorTversky>
0.679 

> <ROCS_FitTverskyCombo>
2.152 

> <ROCS_ColorScore>
-8.777

> <ROCS_Overlap>
1310.304

> <ROCS_Rank>
65                  

$$$$
untitled-dbase-172416_88
  -OEChem-06232314393D

 31 33  0     0  0  0  0  0  0999 V2000
  -10.2222   14.0258  -38.0276 C   0  0  0  0  0  0  0  0  0  0  0  0
  -11.0974   15.4044  -36.0984 C   0  0  0  0  0  0  0  0  0  0  0  0
  -13.1312   14.2805  -39.1952 C   0  0  0  0  0  0  0  0  0  0  0  0
  -13.8051   15.4042  -37.5758 C   0  0  0  0  0  0  0  0  0  0  0  0
   -8.8841   14.7646  -37.9315 C   0  0  0  0  0  0  0  0  0  0  0  0
   -9.6085   15.3728  -35.7553 C   0  0  0  0  0  0  0  0  0  0  0  0
  -12.7502   14.2557  -37.6789 C   0  0  0  0  0  0  0  0  0  0  0  0
  -11.3693   14.8925  -37.5197 C   0  0  0  0  0  0  0  0  0  0  0  0
  -12.9572   15.8211  -38.8541 C   0  0  0  0  0  0  0  0  0  0  0  0
  -13.4316   16.8875  -39.7929 C   0  0  0  0  0  0  0  0  0  0  0  0
  -13.1448   13.0479  -37.0030 N   0  0  0  0  0  0  0  0  0  0  0  0
   -8.8387   15.7428  -36.8920 O   0  0  0  0  0  0  0  0  0  0  0  0
  -11.5721   16.0156  -38.4139 O   0  0  0  0  0  0  0  0  0  0  0  0
  -14.6787   16.5015  -40.3641 O   0  0  0  0  0  0  0  0  0  0  0  0
  -10.3651   13.7202  -39.0699 H   0  0  0  0  0  0  0  0  0  0  0  0
  -10.1619   13.1126  -37.4210 H   0  0  0  0  0  0  0  0  0  0  0  0
  -11.6374   14.7696  -35.3804 H   0  0  0  0  0  0  0  0  0  0  0  0
  -11.4578   16.4319  -35.9591 H   0  0  0  0  0  0  0  0  0  0  0  0
  -12.4133   13.8628  -39.9053 H   0  0  0  0  0  0  0  0  0  0  0  0
  -14.1371   13.9484  -39.4815 H   0  0  0  0  0  0  0  0  0  0  0  0
  -14.8602   15.1555  -37.7445 H   0  0  0  0  0  0  0  0  0  0  0  0
  -13.7405   16.0777  -36.7180 H   0  0  0  0  0  0  0  0  0  0  0  0
   -8.0753   14.0360  -37.7349 H   0  0  0  0  0  0  0  0  0  0  0  0
   -8.6264   15.2478  -38.8958 H   0  0  0  0  0  0  0  0  0  0  0  0
   -9.3774   16.0382  -34.9193 H   0  0  0  0  0  0  0  0  0  0  0  0
   -9.3186   14.3601  -35.4682 H   0  0  0  0  0  0  0  0  0  0  0  0
  -12.7153   17.0462  -40.6121 H   0  0  0  0  0  0  0  0  0  0  0  0
  -13.5766   17.8444  -39.2707 H   0  0  0  0  0  0  0  0  0  0  0  0
  -14.1368   12.9425  -37.0633 H   0  0  0  0  0  0  0  0  0  0  0  0
  -12.6983   12.2652  -37.4353 H   0  0  0  0  0  0  0  0  0  0  0  0
  -14.5204   15.6702  -40.8378 H   0  0  0  0  0  0  0  0  0  0  0  0
  1  5  1  0  0  0  0
  1  8  1  0  0  0  0
  2  6  1  0  0  0  0
  2  8  1  0  0  0  0
  3  7  1  0  0  0  0
  3  9  1  0  0  0  0
  4  7  1  0  0  0  0
  4  9  1  0  0  0  0
  5 12  1  0  0  0  0
  6 12  1  0  0  0  0
  7  8  1  0  0  0  0
  7 11  1  1  0  0  0
  8 13  1  0  0  0  0
  9 10  1  1  0  0  0
  9 13  1  0  0  0  0
 10 14  1  0  0  0  0
  1 15  1  0  0  0  0
  1 16  1  0  0  0  0
  2 17  1  0  0  0  0
  2 18  1  0  0  0  0
  3 19  1  0  0  0  0
  3 20  1  0  0  0  0
  4 21  1  0  0  0  0
  4 22  1  0  0  0  0
  5 23  1  0  0  0  0
  5 24  1  0  0  0  0
  6 25  1  0  0  0  0
  6 26  1  0  0  0  0
 10 27  1  0  0  0  0
 10 28  1  0  0  0  0
 11 29  1  0  0  0  0
 11 30  1  0  0  0  0
 14 31  1  0  0  0  0
M  END
> <id>
EN300-37375290

> <smiles>
N[C@]1(C[C@@]2(CO)C1)C3(CCOCC3)O2

> <IUPAC Name>
{1-amino-3-oxaspiro[bicyclo[2.1.1]hexane-2,4'-oxan]-4-yl}methanol

> <CAS>
2253629-55-7

> <URL>
https://www.enaminestore.com/catalog/EN300-37375290

> <ROCS_ShapeQuery>
_x1247relevant_x1083L0AP1_x1305L0BP1_

> <ROCS_TanimotoCombo>
0.862 

> <ROCS_ShapeTanimoto>
0.502 

> <ROCS_ColorTanimoto>
0.360 

> <ROCS_RefTversky>
0.420 

> <ROCS_RefColorTversky>
0.439 

> <ROCS_RefTverskyCombo>
0.859 

> <ROCS_FitTversky>
1.643 

> <ROCS_FitColorTversky>
0.666 

> <ROCS_FitTverskyCombo>
2.309 

> <ROCS_ColorScore>
-9.417

> <ROCS_Overlap>
1234.689

> <ROCS_Rank>
66                  

$$$$
untitled-dbase-83565_7
  -OEChem-06232314393D

 50 55  0     1  0  0  0  0  0999 V2000
   -8.8255   12.6875  -34.5220 C   0  0  0  0  0  0  0  0  0  0  0  0
   -7.7290   13.4671  -34.9178 C   0  0  0  0  0  0  0  0  0  0  0  0
  -10.0814   12.8761  -35.1010 C   0  0  0  0  0  0  0  0  0  0  0  0
   -7.8689   14.4539  -35.8972 C   0  0  0  0  0  0  0  0  0  0  0  0
  -10.2183   13.8615  -36.0626 C   0  0  0  0  0  0  0  0  0  0  0  0
   -9.1188   14.6570  -36.4646 C   0  0  0  0  0  0  0  0  0  0  0  0
  -13.0933   16.8224  -37.8988 C   0  0  0  0  0  0  0  0  0  0  0  0
  -11.4273   13.3602  -38.1633 C   0  0  0  0  0  0  0  0  0  0  0  0
  -14.1872   15.7780  -38.1640 C   0  0  2  0  0  0  0  0  0  0  0  0
  -13.6319   14.3602  -37.8417 C   0  0  1  0  0  0  0  0  0  0  0  0
  -14.4857   15.9145  -39.6852 C   0  0  1  0  0  0  0  0  0  0  0  0
  -11.7583   16.2723  -38.4771 C   0  0  1  0  0  0  0  0  0  0  0  0
  -12.5607   14.0150  -38.9243 C   0  0  1  0  0  0  0  0  0  0  0  0
  -10.9468   15.6916  -37.2912 C   0  0  1  0  0  0  0  0  0  0  0  0
  -12.8691   14.2373  -36.4820 C   0  0  2  0  0  0  0  0  0  0  0  0
  -13.1405   15.7384  -40.4551 C   0  0  2  0  0  0  0  0  0  0  0  0
  -11.3899   14.2409  -36.9098 C   0  0  2  0  0  0  0  0  0  0  0  0
  -15.8585   15.1098  -41.6130 C   0  0  0  0  0  0  0  0  0  0  0  0
   -8.8455   15.5858  -38.7498 C   0  0  0  0  0  0  0  0  0  0  0  0
  -15.5593   14.9346  -40.1612 C   0  0  0  0  0  0  0  0  0  0  0  0
   -9.4867   15.6007  -37.4535 N   0  0  2  0  0  0  0  0  0  0  0  0
  -12.0548   15.2680  -39.5495 N   0  0  1  0  0  0  0  0  0  0  0  0
  -13.2336   12.9846  -35.9066 O   0  0  0  0  0  0  0  0  0  0  0  0
  -12.8086   16.9732  -41.0948 O   0  0  0  0  0  0  0  0  0  0  0  0
   -8.6914   11.9192  -33.7651 H   0  0  0  0  0  0  0  0  0  0  0  0
   -6.7582   13.2986  -34.4589 H   0  0  0  0  0  0  0  0  0  0  0  0
  -10.9096   12.2430  -34.8071 H   0  0  0  0  0  0  0  0  0  0  0  0
   -7.0063   15.0435  -36.1888 H   0  0  0  0  0  0  0  0  0  0  0  0
  -13.3467   17.7735  -38.3859 H   0  0  0  0  0  0  0  0  0  0  0  0
  -13.0314   17.0535  -36.8301 H   0  0  0  0  0  0  0  0  0  0  0  0
  -11.6664   12.3174  -37.9171 H   0  0  0  0  0  0  0  0  0  0  0  0
  -10.4928   13.3448  -38.7381 H   0  0  0  0  0  0  0  0  0  0  0  0
  -15.0798   15.9955  -37.5677 H   0  0  0  0  0  0  0  0  0  0  0  0
  -14.4482   13.6291  -37.8869 H   0  0  0  0  0  0  0  0  0  0  0  0
  -14.8783   16.9249  -39.8661 H   0  0  0  0  0  0  0  0  0  0  0  0
  -11.2138   17.1178  -38.9108 H   0  0  0  0  0  0  0  0  0  0  0  0
  -12.9387   13.3212  -39.6842 H   0  0  0  0  0  0  0  0  0  0  0  0
  -11.1024   16.3483  -36.4187 H   0  0  0  0  0  0  0  0  0  0  0  0
  -13.1336   15.0212  -35.7662 H   0  0  0  0  0  0  0  0  0  0  0  0
  -13.2610   15.0147  -41.2705 H   0  0  0  0  0  0  0  0  0  0  0  0
  -16.2029   16.1347  -41.7950 H   0  0  0  0  0  0  0  0  0  0  0  0
  -16.6488   14.4238  -41.9355 H   0  0  0  0  0  0  0  0  0  0  0  0
  -14.9632   14.9395  -42.2203 H   0  0  0  0  0  0  0  0  0  0  0  0
   -9.2630   16.3886  -39.3753 H   0  0  0  0  0  0  0  0  0  0  0  0
   -7.7639   15.7429  -38.6256 H   0  0  0  0  0  0  0  0  0  0  0  0
   -9.0215   14.6142  -39.2347 H   0  0  0  0  0  0  0  0  0  0  0  0
  -15.2157   13.9143  -39.9763 H   0  0  0  0  0  0  0  0  0  0  0  0
  -16.4682   15.0923  -39.5761 H   0  0  0  0  0  0  0  0  0  0  0  0
  -14.1949   13.0078  -35.7825 H   0  0  0  0  0  0  0  0  0  0  0  0
  -13.5379   17.1698  -41.7010 H   0  0  0  0  0  0  0  0  0  0  0  0
  1  2  2  0  0  0  0
  1  3  1  0  0  0  0
  2  4  1  0  0  0  0
  3  5  2  0  0  0  0
  4  6  2  0  0  0  0
  5  6  1  0  0  0  0
  5 17  1  1  0  0  0
  6 21  1  0  0  0  0
  7  9  1  1  0  0  0
  7 12  1  6  0  0  0
  8 13  1  1  0  0  0
  8 17  1  0  0  0  0
  9 10  1  0  0  0  0
  9 11  1  0  0  0  0
 10 13  1  0  0  0  0
 10 15  1  0  0  0  0
 11 16  1  0  0  0  0
 11 20  1  6  0  0  0
 12 14  1  0  0  0  0
 12 22  1  0  0  0  0
 13 22  1  0  0  0  0
 14 17  1  0  0  0  0
 14 21  1  1  0  0  0
 15 17  1  0  0  0  0
 15 23  1  1  0  0  0
 16 22  1  0  0  0  0
 16 24  1  1  0  0  0
 18 20  1  0  0  0  0
 19 21  1  0  0  0  0
  1 25  1  0  0  0  0
  2 26  1  0  0  0  0
  3 27  1  0  0  0  0
  4 28  1  0  0  0  0
  7 29  1  0  0  0  0
  7 30  1  0  0  0  0
  8 31  1  0  0  0  0
  8 32  1  0  0  0  0
  9 33  1  0  0  0  0
 10 34  1  0  0  0  0
 11 35  1  0  0  0  0
 12 36  1  0  0  0  0
 13 37  1  0  0  0  0
 14 38  1  0  0  0  0
 15 39  1  0  0  0  0
 16 40  1  0  0  0  0
 18 41  1  0  0  0  0
 18 42  1  0  0  0  0
 18 43  1  0  0  0  0
 19 44  1  0  0  0  0
 19 45  1  0  0  0  0
 19 46  1  0  0  0  0
 20 47  1  0  0  0  0
 20 48  1  0  0  0  0
 23 49  1  0  0  0  0
 24 50  1  0  0  0  0
M  END
> <id>
EN300-26869018

> <smiles>
CC[C@@H]1[C@@H](O)N2[C@H]3C[C@@]45[C@H](O)C3[C@H]1C[C@H]2[C@@H]5N(C)C=6C=CC=CC64

> <IUPAC Name>
(1R,9R,10S,12R,13S,14R,16S,18R)-13-ethyl-8-methyl-8,15-diazahexacyclo[14.2.1.0^{1,9}.0^{2,7}.0^{10,15}.0^{12,17}]nonadeca-2(7),3,5-triene-14,18-diol

> <URL>
https://www.enaminestore.com/catalog/EN300-26869018

> <ROCS_ShapeQuery>
_x1247relevant_x1083L0AP1_x1305L0BP1_

> <ROCS_TanimotoCombo>
0.862 

> <ROCS_ShapeTanimoto>
0.587 

> <ROCS_ColorTanimoto>
0.274 

> <ROCS_RefTversky>
0.524 

> <ROCS_RefColorTversky>
0.462 

> <ROCS_RefTverskyCombo>
0.986 

> <ROCS_FitTversky>
1.259 

> <ROCS_FitColorTversky>
0.403 

> <ROCS_FitTverskyCombo>
1.661 

> <ROCS_ColorScore>
-10.186

> <ROCS_Overlap>
1555.658

> <ROCS_Rank>
67                  

$$$$
untitled-dbase-97675_3
  -OEChem-06232314393D

 21 23  0     1  0  0  0  0  0999 V2000
  -10.0349   15.0277  -36.6853 C   0  0  0  0  0  0  0  0  0  0  0  0
  -10.9377   14.9745  -39.0244 C   0  0  0  0  0  0  0  0  0  0  0  0
  -14.7023   15.2174  -38.6413 C   0  0  0  0  0  0  0  0  0  0  0  0
  -11.1450   14.5313  -37.5591 C   0  0  2  0  0  0  0  0  0  0  0  0
  -13.4068   14.8938  -39.3367 C   0  0  2  0  0  0  0  0  0  0  0  0
  -13.5995   14.4971  -37.9115 C   0  0  1  0  0  0  0  0  0  0  0  0
  -12.2023   15.8073  -39.2785 C   0  0  1  0  0  0  0  0  0  0  0  0
  -12.4738   15.2208  -37.2057 C   0  0  2  0  0  0  0  0  0  0  0  0
   -9.0562   15.6459  -37.0770 O   0  0  0  0  0  0  0  0  0  0  0  0
  -12.3394   16.4417  -37.9834 O   0  0  0  0  0  0  0  0  0  0  0  0
  -10.2597   14.6954  -35.3905 O   0  0  0  0  0  0  0  0  0  0  0  0
  -10.0401   15.5943  -39.1305 H   0  0  0  0  0  0  0  0  0  0  0  0
  -10.8588   14.1222  -39.7067 H   0  0  0  0  0  0  0  0  0  0  0  0
  -14.9148   16.2473  -38.3834 H   0  0  0  0  0  0  0  0  0  0  0  0
  -15.5774   14.6427  -38.9201 H   0  0  0  0  0  0  0  0  0  0  0  0
  -11.1940   13.4417  -37.4617 H   0  0  0  0  0  0  0  0  0  0  0  0
  -13.3830   14.1372  -40.1056 H   0  0  0  0  0  0  0  0  0  0  0  0
  -13.7160   13.4549  -37.6566 H   0  0  0  0  0  0  0  0  0  0  0  0
  -12.1342   16.5335  -40.0908 H   0  0  0  0  0  0  0  0  0  0  0  0
  -12.6484   15.4360  -36.1490 H   0  0  0  0  0  0  0  0  0  0  0  0
   -9.5415   15.0106  -34.8014 H   0  0  0  0  0  0  0  0  0  0  0  0
  1  4  1  0  0  0  0
  1  9  2  0  0  0  0
  1 11  1  0  0  0  0
  2  4  1  0  0  0  0
  2  7  1  0  0  0  0
  3  5  1  0  0  0  0
  3  6  1  0  0  0  0
  4  8  1  0  0  0  0
  5  6  1  0  0  0  0
  5  7  1  0  0  0  0
  6  8  1  0  0  0  0
  7 10  1  0  0  0  0
  8 10  1  0  0  0  0
  2 12  1  0  0  0  0
  2 13  1  0  0  0  0
  3 14  1  0  0  0  0
  3 15  1  0  0  0  0
  4 16  1  0  0  0  0
  5 17  1  0  0  0  0
  6 18  1  0  0  0  0
  7 19  1  0  0  0  0
  8 20  1  0  0  0  0
 11 21  1  0  0  0  0
M  END
> <id>
EN300-367594

> <smiles>
OC(=O)C1CC2OC1C3CC32

> <MDLNUMBER>
MFCD30724178

> <IUPAC Name>
8-oxatricyclo[3.2.1.0,2,4]octane-6-carboxylic acid

> <CAS>
2089277-37-0

> <URL>
https://www.enaminestore.com/catalog/EN300-367594

> <ROCS_ShapeQuery>
_x1247relevant_x1083L0AP1_x1305L0BP1_

> <ROCS_TanimotoCombo>
0.861 

> <ROCS_ShapeTanimoto>
0.460 

> <ROCS_ColorTanimoto>
0.401 

> <ROCS_RefTversky>
0.383 

> <ROCS_RefColorTversky>
0.565 

> <ROCS_RefTverskyCombo>
0.949 

> <ROCS_FitTversky>
1.767 

> <ROCS_FitColorTversky>
0.581 

> <ROCS_FitTverskyCombo>
2.348 

> <ROCS_ColorScore>
-12.331

> <ROCS_Overlap>
1125.837

> <ROCS_Rank>
68                  

$$$$
untitled-dbase-57550_3
  -OEChem-06232314393D

 21 23  0     1  0  0  0  0  0999 V2000
  -10.0350   15.0278  -36.6847 C   0  0  0  0  0  0  0  0  0  0  0  0
  -10.9380   14.9741  -39.0240 C   0  0  0  0  0  0  0  0  0  0  0  0
  -14.7024   15.2184  -38.6430 C   0  0  0  0  0  0  0  0  0  0  0  0
  -11.1455   14.5315  -37.5578 C   0  0  2  0  0  0  0  0  0  0  0  0
  -13.4066   14.8945  -39.3377 C   0  0  2  0  0  0  0  0  0  0  0  0
  -13.6004   14.4972  -37.9131 C   0  0  1  0  0  0  0  0  0  0  0  0
  -12.2020   15.8073  -39.2782 C   0  0  1  0  0  0  0  0  0  0  0  0
  -12.4751   15.2203  -37.2057 C   0  0  2  0  0  0  0  0  0  0  0  0
   -9.0565   15.6460  -37.0771 O   0  0  0  0  0  0  0  0  0  0  0  0
  -12.3384   16.4412  -37.9826 O   0  0  0  0  0  0  0  0  0  0  0  0
  -10.2590   14.6954  -35.3899 O   0  0  0  0  0  0  0  0  0  0  0  0
  -10.0401   15.5933  -39.1305 H   0  0  0  0  0  0  0  0  0  0  0  0
  -10.8591   14.1216  -39.7062 H   0  0  0  0  0  0  0  0  0  0  0  0
  -14.9141   16.2484  -38.3858 H   0  0  0  0  0  0  0  0  0  0  0  0
  -15.5782   14.6443  -38.9216 H   0  0  0  0  0  0  0  0  0  0  0  0
  -11.1945   13.4420  -37.4605 H   0  0  0  0  0  0  0  0  0  0  0  0
  -13.3821   14.1377  -40.1064 H   0  0  0  0  0  0  0  0  0  0  0  0
  -13.7175   13.4550  -37.6588 H   0  0  0  0  0  0  0  0  0  0  0  0
  -12.1334   16.5338  -40.0904 H   0  0  0  0  0  0  0  0  0  0  0  0
  -12.6514   15.4349  -36.1492 H   0  0  0  0  0  0  0  0  0  0  0  0
   -9.5404   15.0106  -34.8011 H   0  0  0  0  0  0  0  0  0  0  0  0
  1  4  1  1  0  0  0
  1  9  2  0  0  0  0
  1 11  1  0  0  0  0
  2  4  1  0  0  0  0
  2  7  1  6  0  0  0
  3  5  1  1  0  0  0
  3  6  1  1  0  0  0
  4  8  1  0  0  0  0
  5  6  1  0  0  0  0
  5  7  1  0  0  0  0
  6  8  1  0  0  0  0
  7 10  1  0  0  0  0
  8 10  1  1  0  0  0
  2 12  1  0  0  0  0
  2 13  1  0  0  0  0
  3 14  1  0  0  0  0
  3 15  1  0  0  0  0
  4 16  1  0  0  0  0
  5 17  1  0  0  0  0
  6 18  1  0  0  0  0
  7 19  1  0  0  0  0
  8 20  1  0  0  0  0
 11 21  1  0  0  0  0
M  END
> <id>
EN300-373400

> <smiles>
OC(=O)[C@@H]1C[C@@H]2O[C@H]1[C@H]3C[C@H]32 |&1:3,5,7,8,10,r|

> <IUPAC Name>
rac-(1R,2S,4R,5R,6S)-8-oxatricyclo[3.2.1.0,2,4]octane-6-carboxylic acid

> <CAS>
2089245-77-0

> <Purity>
95

> <URL>
https://www.enaminestore.com/catalog/EN300-373400

> <ROCS_ShapeQuery>
_x1247relevant_x1083L0AP1_x1305L0BP1_

> <ROCS_TanimotoCombo>
0.861 

> <ROCS_ShapeTanimoto>
0.460 

> <ROCS_ColorTanimoto>
0.401 

> <ROCS_RefTversky>
0.383 

> <ROCS_RefColorTversky>
0.565 

> <ROCS_RefTverskyCombo>
0.949 

> <ROCS_FitTversky>
1.767 

> <ROCS_FitColorTversky>
0.581 

> <ROCS_FitTverskyCombo>
2.348 

> <ROCS_ColorScore>
-12.330

> <ROCS_Overlap>
1125.830

> <ROCS_Rank>
69                  

$$$$
untitled-dbase-110727_18
  -OEChem-06232314393D

 32 34  0     1  0  0  0  0  0999 V2000
   -9.9838   15.2103  -36.5679 C   0  0  0  0  0  0  0  0  0  0  0  0
  -11.5458   16.7408  -38.6480 C   0  0  0  0  0  0  0  0  0  0  0  0
  -12.8928   15.9888  -36.6652 C   0  0  0  0  0  0  0  0  0  0  0  0
  -13.9177   15.9961  -38.9499 C   0  0  0  0  0  0  0  0  0  0  0  0
  -12.0302   14.5807  -39.8040 C   0  0  0  0  0  0  0  0  0  0  0  0
  -13.3838   13.8271  -37.8147 C   0  0  0  0  0  0  0  0  0  0  0  0
  -12.9468   16.7297  -38.0124 C   0  0  0  0  0  0  0  0  0  0  0  0
  -11.0382   15.2953  -38.8593 C   0  0  2  0  0  0  0  0  0  0  0  0
  -12.3926   14.5397  -36.8678 C   0  0  1  0  0  0  0  0  0  0  0  0
  -10.9742   14.5510  -37.4985 C   0  0  0  0  0  0  0  0  0  0  0  0
  -13.4352   14.5526  -39.1721 C   0  0  0  0  0  0  0  0  0  0  0  0
  -10.4317   13.1953  -37.6388 N   0  0  0  0  0  0  0  0  0  0  0  0
   -8.9810   15.8121  -36.9223 O   0  0  0  0  0  0  0  0  0  0  0  0
  -10.3564   15.0424  -35.2755 O   0  0  0  0  0  0  0  0  0  0  0  0
  -14.3442   13.8919  -40.0411 O   0  0  0  0  0  0  0  0  0  0  0  0
  -11.5797   17.2650  -39.6115 H   0  0  0  0  0  0  0  0  0  0  0  0
  -10.8522   17.3053  -38.0142 H   0  0  0  0  0  0  0  0  0  0  0  0
  -12.2425   16.5282  -35.9666 H   0  0  0  0  0  0  0  0  0  0  0  0
  -13.8909   15.9751  -36.2097 H   0  0  0  0  0  0  0  0  0  0  0  0
  -14.9322   15.9969  -38.5305 H   0  0  0  0  0  0  0  0  0  0  0  0
  -13.9947   16.5214  -39.9111 H   0  0  0  0  0  0  0  0  0  0  0  0
  -12.0690   15.0992  -40.7715 H   0  0  0  0  0  0  0  0  0  0  0  0
  -11.6956   13.5641  -40.0424 H   0  0  0  0  0  0  0  0  0  0  0  0
  -13.1240   12.7710  -37.9516 H   0  0  0  0  0  0  0  0  0  0  0  0
  -14.3863   13.8119  -37.3659 H   0  0  0  0  0  0  0  0  0  0  0  0
  -13.2910   17.7581  -37.8565 H   0  0  0  0  0  0  0  0  0  0  0  0
  -10.0469   15.3336  -39.3283 H   0  0  0  0  0  0  0  0  0  0  0  0
  -12.3822   14.0298  -35.8961 H   0  0  0  0  0  0  0  0  0  0  0  0
  -11.1170   12.5583  -37.3137 H   0  0  0  0  0  0  0  0  0  0  0  0
  -10.2334   13.0455  -38.5976 H   0  0  0  0  0  0  0  0  0  0  0  0
   -9.7239   15.4625  -34.6544 H   0  0  0  0  0  0  0  0  0  0  0  0
  -14.0118   12.9872  -40.1600 H   0  0  0  0  0  0  0  0  0  0  0  0
  1 10  1  0  0  0  0
  1 13  2  0  0  0  0
  1 14  1  0  0  0  0
  2  7  1  0  0  0  0
  2  8  1  0  0  0  0
  3  7  1  0  0  0  0
  3  9  1  0  0  0  0
  4  7  1  0  0  0  0
  4 11  1  0  0  0  0
  5  8  1  0  0  0  0
  5 11  1  0  0  0  0
  6  9  1  0  0  0  0
  6 11  1  0  0  0  0
  8 10  1  0  0  0  0
  9 10  1  0  0  0  0
 10 12  1  0  0  0  0
 11 15  1  0  0  0  0
  2 16  1  0  0  0  0
  2 17  1  0  0  0  0
  3 18  1  0  0  0  0
  3 19  1  0  0  0  0
  4 20  1  0  0  0  0
  4 21  1  0  0  0  0
  5 22  1  0  0  0  0
  5 23  1  0  0  0  0
  6 24  1  0  0  0  0
  6 25  1  0  0  0  0
  7 26  1  0  0  0  0
  8 27  1  0  0  0  0
  9 28  1  0  0  0  0
 12 29  1  0  0  0  0
 12 30  1  0  0  0  0
 14 31  1  0  0  0  0
 15 32  1  0  0  0  0
M  END
> <id>
EN300-295714

> <smiles>
NC1(C2CC3CC1CC(O)(C3)C2)C(=O)O

> <IUPAC Name>
2-amino-5-hydroxyadamantane-2-carboxylic acid

> <CAS>
908857-83-0

> <URL>
https://www.enaminestore.com/catalog/EN300-295714

> <ROCS_ShapeQuery>
_x1247relevant_x1083L0AP1_x1305L0BP1_

> <ROCS_TanimotoCombo>
0.861 

> <ROCS_ShapeTanimoto>
0.523 

> <ROCS_ColorTanimoto>
0.338 

> <ROCS_RefTversky>
0.437 

> <ROCS_RefColorTversky>
0.416 

> <ROCS_RefTverskyCombo>
0.854 

> <ROCS_FitTversky>
1.599 

> <ROCS_FitColorTversky>
0.642 

> <ROCS_FitTverskyCombo>
2.241 

> <ROCS_ColorScore>
-8.917

> <ROCS_Overlap>
1288.498

> <ROCS_Rank>
70                  

$$$$
untitled-dbase-110291_18
  -OEChem-06232314393D

 32 34  0     1  0  0  0  0  0999 V2000
   -9.9838   15.2103  -36.5679 C   0  0  0  0  0  0  0  0  0  0  0  0
  -11.5458   16.7408  -38.6480 C   0  0  0  0  0  0  0  0  0  0  0  0
  -12.8928   15.9888  -36.6652 C   0  0  0  0  0  0  0  0  0  0  0  0
  -13.9177   15.9961  -38.9499 C   0  0  0  0  0  0  0  0  0  0  0  0
  -12.0302   14.5807  -39.8040 C   0  0  0  0  0  0  0  0  0  0  0  0
  -13.3838   13.8271  -37.8147 C   0  0  0  0  0  0  0  0  0  0  0  0
  -12.9468   16.7297  -38.0124 C   0  0  0  0  0  0  0  0  0  0  0  0
  -11.0382   15.2953  -38.8593 C   0  0  2  0  0  0  0  0  0  0  0  0
  -12.3926   14.5397  -36.8678 C   0  0  1  0  0  0  0  0  0  0  0  0
  -10.9742   14.5510  -37.4985 C   0  0  0  0  0  0  0  0  0  0  0  0
  -13.4352   14.5526  -39.1721 C   0  0  0  0  0  0  0  0  0  0  0  0
  -10.4317   13.1953  -37.6388 N   0  0  0  0  0  0  0  0  0  0  0  0
   -8.9810   15.8121  -36.9223 O   0  0  0  0  0  0  0  0  0  0  0  0
  -10.3564   15.0424  -35.2755 O   0  0  0  0  0  0  0  0  0  0  0  0
  -14.3442   13.8919  -40.0411 O   0  0  0  0  0  0  0  0  0  0  0  0
  -11.5797   17.2650  -39.6115 H   0  0  0  0  0  0  0  0  0  0  0  0
  -10.8522   17.3053  -38.0142 H   0  0  0  0  0  0  0  0  0  0  0  0
  -12.2425   16.5282  -35.9666 H   0  0  0  0  0  0  0  0  0  0  0  0
  -13.8909   15.9751  -36.2097 H   0  0  0  0  0  0  0  0  0  0  0  0
  -14.9322   15.9969  -38.5305 H   0  0  0  0  0  0  0  0  0  0  0  0
  -13.9947   16.5214  -39.9111 H   0  0  0  0  0  0  0  0  0  0  0  0
  -12.0690   15.0992  -40.7715 H   0  0  0  0  0  0  0  0  0  0  0  0
  -11.6956   13.5641  -40.0424 H   0  0  0  0  0  0  0  0  0  0  0  0
  -13.1240   12.7710  -37.9516 H   0  0  0  0  0  0  0  0  0  0  0  0
  -14.3863   13.8119  -37.3659 H   0  0  0  0  0  0  0  0  0  0  0  0
  -13.2910   17.7581  -37.8565 H   0  0  0  0  0  0  0  0  0  0  0  0
  -10.0469   15.3336  -39.3283 H   0  0  0  0  0  0  0  0  0  0  0  0
  -12.3822   14.0298  -35.8961 H   0  0  0  0  0  0  0  0  0  0  0  0
  -11.1170   12.5583  -37.3137 H   0  0  0  0  0  0  0  0  0  0  0  0
  -10.2334   13.0455  -38.5976 H   0  0  0  0  0  0  0  0  0  0  0  0
   -9.7239   15.4625  -34.6544 H   0  0  0  0  0  0  0  0  0  0  0  0
  -14.0118   12.9872  -40.1600 H   0  0  0  0  0  0  0  0  0  0  0  0
  1 10  1  0  0  0  0
  1 13  2  0  0  0  0
  1 14  1  0  0  0  0
  2  7  1  0  0  0  0
  2  8  1  0  0  0  0
  3  7  1  0  0  0  0
  3  9  1  0  0  0  0
  4  7  1  0  0  0  0
  4 11  1  0  0  0  0
  5  8  1  0  0  0  0
  5 11  1  0  0  0  0
  6  9  1  0  0  0  0
  6 11  1  0  0  0  0
  8 10  1  0  0  0  0
  9 10  1  0  0  0  0
 10 12  1  0  0  0  0
 11 15  1  0  0  0  0
  2 16  1  0  0  0  0
  2 17  1  0  0  0  0
  3 18  1  0  0  0  0
  3 19  1  0  0  0  0
  4 20  1  0  0  0  0
  4 21  1  0  0  0  0
  5 22  1  0  0  0  0
  5 23  1  0  0  0  0
  6 24  1  0  0  0  0
  6 25  1  0  0  0  0
  7 26  1  0  0  0  0
  8 27  1  0  0  0  0
  9 28  1  0  0  0  0
 12 29  1  0  0  0  0
 12 30  1  0  0  0  0
 14 31  1  0  0  0  0
 15 32  1  0  0  0  0
M  END
> <id>
EN300-295713

> <smiles>
Cl.NC1(C2CC3CC1CC(O)(C3)C2)C(=O)O

> <IUPAC Name>
2-amino-5-hydroxyadamantane-2-carboxylic acid hydrochloride

> <CAS>
1212484-85-9

> <URL>
https://www.enaminestore.com/catalog/EN300-295713

> <Saltdate>
Cl

> <ROCS_ShapeQuery>
_x1247relevant_x1083L0AP1_x1305L0BP1_

> <ROCS_TanimotoCombo>
0.861 

> <ROCS_ShapeTanimoto>
0.523 

> <ROCS_ColorTanimoto>
0.338 

> <ROCS_RefTversky>
0.437 

> <ROCS_RefColorTversky>
0.416 

> <ROCS_RefTverskyCombo>
0.854 

> <ROCS_FitTversky>
1.599 

> <ROCS_FitColorTversky>
0.642 

> <ROCS_FitTverskyCombo>
2.241 

> <ROCS_ColorScore>
-8.917

> <ROCS_Overlap>
1288.498

> <ROCS_Rank>
71                  

$$$$
untitled-dbase-110474_18
  -OEChem-06232314393D

 32 34  0     1  0  0  0  0  0999 V2000
   -9.9837   15.2102  -36.5679 C   0  0  0  0  0  0  0  0  0  0  0  0
  -11.5459   16.7410  -38.6476 C   0  0  0  0  0  0  0  0  0  0  0  0
  -12.8932   15.9886  -36.6653 C   0  0  0  0  0  0  0  0  0  0  0  0
  -13.9178   15.9961  -38.9501 C   0  0  0  0  0  0  0  0  0  0  0  0
  -12.0299   14.5811  -39.8041 C   0  0  0  0  0  0  0  0  0  0  0  0
  -13.3838   13.8269  -37.8151 C   0  0  0  0  0  0  0  0  0  0  0  0
  -12.9471   16.7296  -38.0123 C   0  0  0  0  0  0  0  0  0  0  0  0
  -11.0380   15.2956  -38.8591 C   0  0  2  0  0  0  0  0  0  0  0  0
  -12.3927   14.5395  -36.8679 C   0  0  1  0  0  0  0  0  0  0  0  0
  -10.9742   14.5509  -37.4985 C   0  0  0  0  0  0  0  0  0  0  0  0
  -13.4350   14.5526  -39.1724 C   0  0  0  0  0  0  0  0  0  0  0  0
  -10.4317   13.1952  -37.6388 N   0  0  0  0  0  0  0  0  0  0  0  0
   -8.9810   15.8122  -36.9223 O   0  0  0  0  0  0  0  0  0  0  0  0
  -10.3562   15.0422  -35.2754 O   0  0  0  0  0  0  0  0  0  0  0  0
  -14.3438   13.8919  -40.0416 O   0  0  0  0  0  0  0  0  0  0  0  0
  -11.5805   17.2648  -39.6113 H   0  0  0  0  0  0  0  0  0  0  0  0
  -10.8521   17.3054  -38.0138 H   0  0  0  0  0  0  0  0  0  0  0  0
  -12.2431   16.5282  -35.9670 H   0  0  0  0  0  0  0  0  0  0  0  0
  -13.8912   15.9749  -36.2090 H   0  0  0  0  0  0  0  0  0  0  0  0
  -14.9324   15.9964  -38.5309 H   0  0  0  0  0  0  0  0  0  0  0  0
  -13.9948   16.5215  -39.9108 H   0  0  0  0  0  0  0  0  0  0  0  0
  -12.0688   15.1001  -40.7713 H   0  0  0  0  0  0  0  0  0  0  0  0
  -11.6949   13.5650  -40.0437 H   0  0  0  0  0  0  0  0  0  0  0  0
  -13.1233   12.7711  -37.9527 H   0  0  0  0  0  0  0  0  0  0  0  0
  -14.3863   13.8110  -37.3664 H   0  0  0  0  0  0  0  0  0  0  0  0
  -13.2917   17.7580  -37.8561 H   0  0  0  0  0  0  0  0  0  0  0  0
  -10.0470   15.3347  -39.3286 H   0  0  0  0  0  0  0  0  0  0  0  0
  -12.3818   14.0292  -35.8966 H   0  0  0  0  0  0  0  0  0  0  0  0
  -11.1170   12.5582  -37.3137 H   0  0  0  0  0  0  0  0  0  0  0  0
  -10.2334   13.0454  -38.5976 H   0  0  0  0  0  0  0  0  0  0  0  0
   -9.7237   15.4623  -34.6543 H   0  0  0  0  0  0  0  0  0  0  0  0
  -14.0113   12.9873  -40.1606 H   0  0  0  0  0  0  0  0  0  0  0  0
  1 10  1  0  0  0  0
  1 13  2  0  0  0  0
  1 14  1  0  0  0  0
  2  7  1  0  0  0  0
  2  8  1  0  0  0  0
  3  7  1  0  0  0  0
  3  9  1  0  0  0  0
  4  7  1  0  0  0  0
  4 11  1  0  0  0  0
  5  8  1  0  0  0  0
  5 11  1  0  0  0  0
  6  9  1  0  0  0  0
  6 11  1  0  0  0  0
  8 10  1  0  0  0  0
  9 10  1  0  0  0  0
 10 12  1  6  0  0  0
 11 15  1  6  0  0  0
  2 16  1  0  0  0  0
  2 17  1  0  0  0  0
  3 18  1  0  0  0  0
  3 19  1  0  0  0  0
  4 20  1  0  0  0  0
  4 21  1  0  0  0  0
  5 22  1  0  0  0  0
  5 23  1  0  0  0  0
  6 24  1  0  0  0  0
  6 25  1  0  0  0  0
  7 26  1  0  0  0  0
  8 27  1  0  0  0  0
  9 28  1  0  0  0  0
 12 29  1  0  0  0  0
 12 30  1  0  0  0  0
 14 31  1  0  0  0  0
 15 32  1  0  0  0  0
M  END
> <id>
EN300-146822

> <smiles>
N[C@]1(C2CC3CC1C[C@@](O)(C3)C2)C(=O)O

> <IUPAC Name>
(2r,5s)-2-amino-5-hydroxyadamantane-2-carboxylic acid

> <URL>
https://www.enaminestore.com/catalog/EN300-146822

> <ROCS_ShapeQuery>
_x1247relevant_x1083L0AP1_x1305L0BP1_

> <ROCS_TanimotoCombo>
0.861 

> <ROCS_ShapeTanimoto>
0.523 

> <ROCS_ColorTanimoto>
0.338 

> <ROCS_RefTversky>
0.437 

> <ROCS_RefColorTversky>
0.416 

> <ROCS_RefTverskyCombo>
0.854 

> <ROCS_FitTversky>
1.599 

> <ROCS_FitColorTversky>
0.642 

> <ROCS_FitTverskyCombo>
2.241 

> <ROCS_ColorScore>
-8.917

> <ROCS_Overlap>
1288.464

> <ROCS_Rank>
72                  

$$$$
untitled-dbase-110598_18
  -OEChem-06232314393D

 32 34  0     1  0  0  0  0  0999 V2000
   -9.9837   15.2102  -36.5679 C   0  0  0  0  0  0  0  0  0  0  0  0
  -11.5459   16.7410  -38.6476 C   0  0  0  0  0  0  0  0  0  0  0  0
  -12.8932   15.9886  -36.6653 C   0  0  0  0  0  0  0  0  0  0  0  0
  -13.9178   15.9961  -38.9501 C   0  0  0  0  0  0  0  0  0  0  0  0
  -12.0299   14.5811  -39.8041 C   0  0  0  0  0  0  0  0  0  0  0  0
  -13.3838   13.8269  -37.8151 C   0  0  0  0  0  0  0  0  0  0  0  0
  -12.9471   16.7296  -38.0123 C   0  0  0  0  0  0  0  0  0  0  0  0
  -11.0380   15.2956  -38.8591 C   0  0  2  0  0  0  0  0  0  0  0  0
  -12.3927   14.5395  -36.8679 C   0  0  1  0  0  0  0  0  0  0  0  0
  -10.9742   14.5509  -37.4985 C   0  0  0  0  0  0  0  0  0  0  0  0
  -13.4350   14.5526  -39.1724 C   0  0  0  0  0  0  0  0  0  0  0  0
  -10.4317   13.1952  -37.6388 N   0  0  0  0  0  0  0  0  0  0  0  0
   -8.9810   15.8122  -36.9223 O   0  0  0  0  0  0  0  0  0  0  0  0
  -10.3562   15.0422  -35.2754 O   0  0  0  0  0  0  0  0  0  0  0  0
  -14.3438   13.8919  -40.0416 O   0  0  0  0  0  0  0  0  0  0  0  0
  -11.5805   17.2648  -39.6113 H   0  0  0  0  0  0  0  0  0  0  0  0
  -10.8521   17.3054  -38.0138 H   0  0  0  0  0  0  0  0  0  0  0  0
  -12.2431   16.5282  -35.9670 H   0  0  0  0  0  0  0  0  0  0  0  0
  -13.8912   15.9749  -36.2090 H   0  0  0  0  0  0  0  0  0  0  0  0
  -14.9324   15.9964  -38.5309 H   0  0  0  0  0  0  0  0  0  0  0  0
  -13.9948   16.5215  -39.9108 H   0  0  0  0  0  0  0  0  0  0  0  0
  -12.0688   15.1001  -40.7713 H   0  0  0  0  0  0  0  0  0  0  0  0
  -11.6949   13.5650  -40.0437 H   0  0  0  0  0  0  0  0  0  0  0  0
  -13.1233   12.7711  -37.9527 H   0  0  0  0  0  0  0  0  0  0  0  0
  -14.3863   13.8110  -37.3664 H   0  0  0  0  0  0  0  0  0  0  0  0
  -13.2917   17.7580  -37.8561 H   0  0  0  0  0  0  0  0  0  0  0  0
  -10.0470   15.3347  -39.3286 H   0  0  0  0  0  0  0  0  0  0  0  0
  -12.3818   14.0292  -35.8966 H   0  0  0  0  0  0  0  0  0  0  0  0
  -11.1170   12.5582  -37.3137 H   0  0  0  0  0  0  0  0  0  0  0  0
  -10.2334   13.0454  -38.5976 H   0  0  0  0  0  0  0  0  0  0  0  0
   -9.7237   15.4623  -34.6543 H   0  0  0  0  0  0  0  0  0  0  0  0
  -14.0113   12.9873  -40.1606 H   0  0  0  0  0  0  0  0  0  0  0  0
  1 10  1  0  0  0  0
  1 13  2  0  0  0  0
  1 14  1  0  0  0  0
  2  7  1  0  0  0  0
  2  8  1  0  0  0  0
  3  7  1  0  0  0  0
  3  9  1  0  0  0  0
  4  7  1  0  0  0  0
  4 11  1  0  0  0  0
  5  8  1  0  0  0  0
  5 11  1  0  0  0  0
  6  9  1  0  0  0  0
  6 11  1  0  0  0  0
  8 10  1  0  0  0  0
  9 10  1  0  0  0  0
 10 12  1  6  0  0  0
 11 15  1  6  0  0  0
  2 16  1  0  0  0  0
  2 17  1  0  0  0  0
  3 18  1  0  0  0  0
  3 19  1  0  0  0  0
  4 20  1  0  0  0  0
  4 21  1  0  0  0  0
  5 22  1  0  0  0  0
  5 23  1  0  0  0  0
  6 24  1  0  0  0  0
  6 25  1  0  0  0  0
  7 26  1  0  0  0  0
  8 27  1  0  0  0  0
  9 28  1  0  0  0  0
 12 29  1  0  0  0  0
 12 30  1  0  0  0  0
 14 31  1  0  0  0  0
 15 32  1  0  0  0  0
M  END
> <id>
EN300-88875

> <smiles>
Cl.N[C@]1(C2CC3CC1C[C@@](O)(C3)C2)C(=O)O

> <IUPAC Name>
(2r,5s)-2-amino-5-hydroxyadamantane-2-carboxylic acid hydrochloride

> <CAS>
1212484-85-9

> <URL>
https://www.enaminestore.com/catalog/EN300-88875

> <Saltdate>
Cl

> <ROCS_ShapeQuery>
_x1247relevant_x1083L0AP1_x1305L0BP1_

> <ROCS_TanimotoCombo>
0.861 

> <ROCS_ShapeTanimoto>
0.523 

> <ROCS_ColorTanimoto>
0.338 

> <ROCS_RefTversky>
0.437 

> <ROCS_RefColorTversky>
0.416 

> <ROCS_RefTverskyCombo>
0.854 

> <ROCS_FitTversky>
1.599 

> <ROCS_FitColorTversky>
0.642 

> <ROCS_FitTverskyCombo>
2.241 

> <ROCS_ColorScore>
-8.917

> <ROCS_Overlap>
1288.464

> <ROCS_Rank>
73                  

$$$$
untitled-dbase-48912_1
  -OEChem-06232314393D

 32 34  0     1  0  0  0  0  0999 V2000
  -13.8342   15.4273  -37.1827 C   0  0  0  0  0  0  0  0  0  0  0  0
  -13.5736   14.0491  -37.8363 C   0  0  0  0  0  0  0  0  0  0  0  0
  -11.5975   16.6133  -37.5381 C   0  0  0  0  0  0  0  0  0  0  0  0
  -11.1576   14.2935  -38.6355 C   0  0  0  0  0  0  0  0  0  0  0  0
   -8.8292   14.8081  -36.4906 C   0  0  0  0  0  0  0  0  0  0  0  0
  -13.0672   16.4976  -37.9807 C   0  0  1  0  0  0  0  0  0  0  0  0
  -12.6409   14.2514  -39.0444 C   0  0  2  0  0  0  0  0  0  0  0  0
   -9.9179   14.7815  -35.4500 C   0  0  2  0  0  0  0  0  0  0  0  0
  -10.8258   15.2743  -37.4861 C   0  0  0  0  0  0  0  0  0  0  0  0
   -9.7829   13.6567  -34.4463 C   0  0  0  0  0  0  0  0  0  0  0  0
  -14.4906   15.8211  -40.1115 O   0  0  0  0  0  0  0  0  0  0  0  0
  -12.0635   16.4443  -40.4557 O   0  0  0  0  0  0  0  0  0  0  0  0
   -9.4146   15.5772  -37.5400 O   0  0  0  0  0  0  0  0  0  0  0  0
  -11.1015   14.6149  -36.2322 O   0  0  0  0  0  0  0  0  0  0  0  0
   -9.8333   12.4151  -35.1331 O   0  0  0  0  0  0  0  0  0  0  0  0
  -13.1175   15.8642  -39.6525 S   0  0  0  0  0  0  0  0  0  0  0  0
  -14.9101   15.6367  -37.2367 H   0  0  0  0  0  0  0  0  0  0  0  0
  -13.5729   15.4344  -36.1197 H   0  0  0  0  0  0  0  0  0  0  0  0
  -13.1759   13.3227  -37.1205 H   0  0  0  0  0  0  0  0  0  0  0  0
  -14.5333   13.6450  -38.1832 H   0  0  0  0  0  0  0  0  0  0  0  0
  -11.0735   17.3078  -38.2071 H   0  0  0  0  0  0  0  0  0  0  0  0
  -11.5712   17.0801  -36.5449 H   0  0  0  0  0  0  0  0  0  0  0  0
  -10.8514   13.2811  -38.3408 H   0  0  0  0  0  0  0  0  0  0  0  0
  -10.5486   14.5449  -39.5133 H   0  0  0  0  0  0  0  0  0  0  0  0
   -7.9066   15.2783  -36.1405 H   0  0  0  0  0  0  0  0  0  0  0  0
   -8.5995   13.8121  -36.8854 H   0  0  0  0  0  0  0  0  0  0  0  0
  -13.5656   17.4701  -37.9523 H   0  0  0  0  0  0  0  0  0  0  0  0
  -12.8131   13.5090  -39.8282 H   0  0  0  0  0  0  0  0  0  0  0  0
   -9.9914   15.7473  -34.9362 H   0  0  0  0  0  0  0  0  0  0  0  0
  -10.6000   13.6906  -33.7193 H   0  0  0  0  0  0  0  0  0  0  0  0
   -8.8284   13.7275  -33.9159 H   0  0  0  0  0  0  0  0  0  0  0  0
  -10.6927   12.3774  -35.5839 H   0  0  0  0  0  0  0  0  0  0  0  0
  1  2  1  0  0  0  0
  1  6  1  0  0  0  0
  2  7  1  0  0  0  0
  3  6  1  0  0  0  0
  3  9  1  0  0  0  0
  4  7  1  0  0  0  0
  4  9  1  0  0  0  0
  5  8  1  0  0  0  0
  5 13  1  0  0  0  0
  6 16  1  0  0  0  0
  7 16  1  0  0  0  0
  8 10  1  0  0  0  0
  8 14  1  0  0  0  0
  9 13  1  0  0  0  0
  9 14  1  0  0  0  0
 10 15  1  0  0  0  0
 11 16  2  0  0  0  0
 12 16  2  0  0  0  0
  1 17  1  0  0  0  0
  1 18  1  0  0  0  0
  2 19  1  0  0  0  0
  2 20  1  0  0  0  0
  3 21  1  0  0  0  0
  3 22  1  0  0  0  0
  4 23  1  0  0  0  0
  4 24  1  0  0  0  0
  5 25  1  0  0  0  0
  5 26  1  0  0  0  0
  6 27  1  0  0  0  0
  7 28  1  0  0  0  0
  8 29  1  0  0  0  0
 10 30  1  0  0  0  0
 10 31  1  0  0  0  0
 15 32  1  0  0  0  0
M  END
> <id>
EN300-1614614

> <smiles>
OCC1COC2(CC3CCC(C2)S3(=O)=O)O1

> <IUPAC Name>
4'-(hydroxymethyl)-8lambda6-thiaspiro[bicyclo[3.2.1]octane-3,2'-[1,3]dioxolane]-8,8-dione

> <CAS>
2172263-42-0

> <URL>
https://www.enaminestore.com/catalog/EN300-1614614

> <ROCS_ShapeQuery>
_x1247relevant_x1083L0AP1_x1305L0BP1_

> <ROCS_TanimotoCombo>
0.861 

> <ROCS_ShapeTanimoto>
0.511 

> <ROCS_ColorTanimoto>
0.350 

> <ROCS_RefTversky>
0.432 

> <ROCS_RefColorTversky>
0.419 

> <ROCS_RefTverskyCombo>
0.851 

> <ROCS_FitTversky>
1.556 

> <ROCS_FitColorTversky>
0.681 

> <ROCS_FitTverskyCombo>
2.237 

> <ROCS_ColorScore>
-8.956

> <ROCS_Overlap>
1273.133

> <ROCS_Rank>
74                  

$$$$
untitled-dbase-30817_9
  -OEChem-06232314393D

 32 34  0     1  0  0  0  0  0999 V2000
   -9.3496   14.0565  -36.7970 C   0  0  0  0  0  0  0  0  0  0  0  0
   -9.9375   15.3034  -36.2039 C   0  0  0  0  0  0  0  0  0  0  0  0
  -12.5773   16.5679  -37.5305 C   0  0  0  0  0  0  0  0  0  0  0  0
  -13.5657   15.4921  -37.0786 C   0  0  0  0  0  0  0  0  0  0  0  0
  -12.0094   15.7865  -39.9036 C   0  0  0  0  0  0  0  0  0  0  0  0
  -13.6683   13.9860  -39.1497 C   0  0  0  0  0  0  0  0  0  0  0  0
  -10.8426   14.2216  -36.7255 C   0  0  0  0  0  0  0  0  0  0  0  0
  -11.5779   15.8231  -38.4203 C   0  0  2  0  0  0  0  0  0  0  0  0
  -13.0657   14.2065  -37.7436 C   0  0  1  0  0  0  0  0  0  0  0  0
  -13.4024   15.1525  -40.1289 C   0  0  0  0  0  0  0  0  0  0  0  0
  -13.5609   14.6847  -41.5782 C   0  0  0  0  0  0  0  0  0  0  0  0
  -11.6224   14.4293  -37.9430 N   0  0  0  0  0  0  0  0  0  0  0  0
  -14.4096   16.1474  -39.9101 O   0  0  0  0  0  0  0  0  0  0  0  0
   -8.8615   14.1402  -37.7605 H   0  0  0  0  0  0  0  0  0  0  0  0
   -8.8877   13.3457  -36.1226 H   0  0  0  0  0  0  0  0  0  0  0  0
   -9.8710   15.4313  -35.1303 H   0  0  0  0  0  0  0  0  0  0  0  0
   -9.8438   16.2219  -36.7706 H   0  0  0  0  0  0  0  0  0  0  0  0
  -13.0716   17.3986  -38.0432 H   0  0  0  0  0  0  0  0  0  0  0  0
  -12.0705   16.9844  -36.6516 H   0  0  0  0  0  0  0  0  0  0  0  0
  -13.5247   15.3995  -35.9866 H   0  0  0  0  0  0  0  0  0  0  0  0
  -14.5978   15.7390  -37.3450 H   0  0  0  0  0  0  0  0  0  0  0  0
  -11.9963   16.8094  -40.3012 H   0  0  0  0  0  0  0  0  0  0  0  0
  -11.2527   15.2164  -40.4599 H   0  0  0  0  0  0  0  0  0  0  0  0
  -13.2377   13.0612  -39.5576 H   0  0  0  0  0  0  0  0  0  0  0  0
  -14.7479   13.8183  -39.0483 H   0  0  0  0  0  0  0  0  0  0  0  0
  -11.3576   13.6227  -35.9810 H   0  0  0  0  0  0  0  0  0  0  0  0
  -10.5747   16.2597  -38.3559 H   0  0  0  0  0  0  0  0  0  0  0  0
  -13.2747   13.3246  -37.1272 H   0  0  0  0  0  0  0  0  0  0  0  0
  -14.5454   14.2431  -41.7141 H   0  0  0  0  0  0  0  0  0  0  0  0
  -12.7995   13.9431  -41.8082 H   0  0  0  0  0  0  0  0  0  0  0  0
  -13.4514   15.5329  -42.2500 H   0  0  0  0  0  0  0  0  0  0  0  0
  -14.2359   16.8514  -40.5508 H   0  0  0  0  0  0  0  0  0  0  0  0
  1  2  1  0  0  0  0
  1  7  1  0  0  0  0
  2  7  1  0  0  0  0
  3  4  1  0  0  0  0
  3  8  1  0  0  0  0
  4  9  1  0  0  0  0
  5  8  1  0  0  0  0
  5 10  1  0  0  0  0
  6  9  1  0  0  0  0
  6 10  1  0  0  0  0
  7 12  1  0  0  0  0
  8 12  1  0  0  0  0
  9 12  1  0  0  0  0
 10 11  1  0  0  0  0
 10 13  1  0  0  0  0
  1 14  1  0  0  0  0
  1 15  1  0  0  0  0
  2 16  1  0  0  0  0
  2 17  1  0  0  0  0
  3 18  1  0  0  0  0
  3 19  1  0  0  0  0
  4 20  1  0  0  0  0
  4 21  1  0  0  0  0
  5 22  1  0  0  0  0
  5 23  1  0  0  0  0
  6 24  1  0  0  0  0
  6 25  1  0  0  0  0
  7 26  1  0  0  0  0
  8 27  1  0  0  0  0
  9 28  1  0  0  0  0
 11 29  1  0  0  0  0
 11 30  1  0  0  0  0
 11 31  1  0  0  0  0
 13 32  1  0  0  0  0
M  END
> <id>
EN300-89068

> <smiles>
CC1(O)CC2CCC(C1)N2C3CC3

> <MDLNUMBER>
MFCD13196436

> <IUPAC Name>
8-cyclopropyl-3-methyl-8-azabicyclo[3.2.1]octan-3-ol

> <CAS>
1210342-66-7

> <URL>
https://www.enaminestore.com/catalog/EN300-89068

> <ROCS_ShapeQuery>
_x1247relevant_x1083L0AP1_x1305L0BP1_

> <ROCS_TanimotoCombo>
0.860 

> <ROCS_ShapeTanimoto>
0.487 

> <ROCS_ColorTanimoto>
0.373 

> <ROCS_RefTversky>
0.405 

> <ROCS_RefColorTversky>
0.393 

> <ROCS_RefTverskyCombo>
0.798 

> <ROCS_FitTversky>
1.708 

> <ROCS_FitColorTversky>
0.882 

> <ROCS_FitTverskyCombo>
2.590 

> <ROCS_ColorScore>
-8.330

> <ROCS_Overlap>
1191.192

> <ROCS_Rank>
75                  

$$$$
untitled-dbase-109966_5
  -OEChem-06232314393D

 24 25  0     1  0  0  0  0  0999 V2000
  -10.1665   15.3157  -36.8043 C   0  0  0  0  0  0  0  0  0  0  0  0
  -11.1282   16.1640  -38.9575 C   0  0  0  0  0  0  0  0  0  0  0  0
  -12.3122   16.1119  -39.9320 C   0  0  0  0  0  0  0  0  0  0  0  0
  -12.6225   15.8310  -36.9681 C   0  0  0  0  0  0  0  0  0  0  0  0
  -13.1908   13.8747  -38.1464 C   0  0  0  0  0  0  0  0  0  0  0  0
  -13.6854   15.3047  -37.9196 C   0  0  2  0  0  0  0  0  0  0  0  0
  -11.3768   15.3318  -37.6842 C   0  0  2  0  0  0  0  0  0  0  0  0
  -13.6568   16.1343  -39.2104 C   0  0  0  0  0  0  0  0  0  0  0  0
  -11.7136   13.9354  -38.0386 N   0  0  0  0  0  0  0  0  0  0  0  0
   -9.1125   15.8831  -37.0501 O   0  0  0  0  0  0  0  0  0  0  0  0
  -10.3950   14.5793  -35.6895 O   0  0  0  0  0  0  0  0  0  0  0  0
  -14.6225   15.6942  -40.0572 F   0  0  0  0  0  0  0  0  0  0  0  0
  -13.9777   17.4216  -38.9102 F   0  0  0  0  0  0  0  0  0  0  0  0
  -10.2196   15.8293  -39.4738 H   0  0  0  0  0  0  0  0  0  0  0  0
  -10.9475   17.2098  -38.6737 H   0  0  0  0  0  0  0  0  0  0  0  0
  -12.2484   16.9502  -40.6349 H   0  0  0  0  0  0  0  0  0  0  0  0
  -12.2425   15.2005  -40.5388 H   0  0  0  0  0  0  0  0  0  0  0  0
  -12.6473   16.9199  -36.8511 H   0  0  0  0  0  0  0  0  0  0  0  0
  -12.7279   15.3856  -35.9702 H   0  0  0  0  0  0  0  0  0  0  0  0
  -13.5768   13.2160  -37.3593 H   0  0  0  0  0  0  0  0  0  0  0  0
  -13.4991   13.4630  -39.1121 H   0  0  0  0  0  0  0  0  0  0  0  0
  -14.6843   15.3287  -37.4737 H   0  0  0  0  0  0  0  0  0  0  0  0
  -11.4336   13.3084  -37.2833 H   0  0  0  0  0  0  0  0  0  0  0  0
  -11.3019   14.2058  -35.6766 H   0  0  0  0  0  0  0  0  0  0  0  0
  1  7  1  0  0  0  0
  1 10  2  0  0  0  0
  1 11  1  0  0  0  0
  2  3  1  0  0  0  0
  2  7  1  0  0  0  0
  3  8  1  0  0  0  0
  4  6  1  0  0  0  0
  4  7  1  0  0  0  0
  5  6  1  0  0  0  0
  5  9  1  0  0  0  0
  6  8  1  0  0  0  0
  7  9  1  0  0  0  0
  8 12  1  0  0  0  0
  8 13  1  0  0  0  0
  2 14  1  0  0  0  0
  2 15  1  0  0  0  0
  3 16  1  0  0  0  0
  3 17  1  0  0  0  0
  4 18  1  0  0  0  0
  4 19  1  0  0  0  0
  5 20  1  0  0  0  0
  5 21  1  0  0  0  0
  6 22  1  0  0  0  0
  9 23  1  0  0  0  0
 11 24  1  0  0  0  0
M  END
> <id>
EN300-109777

> <smiles>
Cl.OC(=O)C1(CC2CN1)CCC2(F)F

> <MDLNUMBER>
MFCD22378702

> <IUPAC Name>
2,2-difluoro-6-azabicyclo[3.2.1]octane-5-carboxylic acid hydrochloride

> <CAS>
1394040-76-6

> <URL>
https://www.enaminestore.com/catalog/EN300-109777

> <Saltdate>
Cl

> <ROCS_ShapeQuery>
_x1247relevant_x1083L0AP1_x1305L0BP1_

> <ROCS_TanimotoCombo>
0.860 

> <ROCS_ShapeTanimoto>
0.497 

> <ROCS_ColorTanimoto>
0.363 

> <ROCS_RefTversky>
0.413 

> <ROCS_RefColorTversky>
0.409 

> <ROCS_RefTverskyCombo>
0.822 

> <ROCS_FitTversky>
1.698 

> <ROCS_FitColorTversky>
0.764 

> <ROCS_FitTverskyCombo>
2.462 

> <ROCS_ColorScore>
-8.712

> <ROCS_Overlap>
1213.406

> <ROCS_Rank>
76                  

$$$$
untitled-dbase-110472_5
  -OEChem-06232314393D

 24 25  0     1  0  0  0  0  0999 V2000
  -10.1665   15.3157  -36.8043 C   0  0  0  0  0  0  0  0  0  0  0  0
  -11.1282   16.1640  -38.9575 C   0  0  0  0  0  0  0  0  0  0  0  0
  -12.3122   16.1119  -39.9320 C   0  0  0  0  0  0  0  0  0  0  0  0
  -12.6225   15.8310  -36.9681 C   0  0  0  0  0  0  0  0  0  0  0  0
  -13.1908   13.8747  -38.1464 C   0  0  0  0  0  0  0  0  0  0  0  0
  -13.6854   15.3047  -37.9196 C   0  0  2  0  0  0  0  0  0  0  0  0
  -11.3768   15.3318  -37.6842 C   0  0  2  0  0  0  0  0  0  0  0  0
  -13.6568   16.1343  -39.2104 C   0  0  0  0  0  0  0  0  0  0  0  0
  -11.7136   13.9354  -38.0386 N   0  0  0  0  0  0  0  0  0  0  0  0
   -9.1125   15.8831  -37.0501 O   0  0  0  0  0  0  0  0  0  0  0  0
  -10.3950   14.5793  -35.6895 O   0  0  0  0  0  0  0  0  0  0  0  0
  -14.6225   15.6942  -40.0572 F   0  0  0  0  0  0  0  0  0  0  0  0
  -13.9777   17.4216  -38.9102 F   0  0  0  0  0  0  0  0  0  0  0  0
  -10.2196   15.8293  -39.4738 H   0  0  0  0  0  0  0  0  0  0  0  0
  -10.9475   17.2098  -38.6737 H   0  0  0  0  0  0  0  0  0  0  0  0
  -12.2484   16.9502  -40.6349 H   0  0  0  0  0  0  0  0  0  0  0  0
  -12.2425   15.2005  -40.5388 H   0  0  0  0  0  0  0  0  0  0  0  0
  -12.6473   16.9199  -36.8511 H   0  0  0  0  0  0  0  0  0  0  0  0
  -12.7279   15.3856  -35.9702 H   0  0  0  0  0  0  0  0  0  0  0  0
  -13.5768   13.2160  -37.3593 H   0  0  0  0  0  0  0  0  0  0  0  0
  -13.4991   13.4630  -39.1121 H   0  0  0  0  0  0  0  0  0  0  0  0
  -14.6843   15.3287  -37.4737 H   0  0  0  0  0  0  0  0  0  0  0  0
  -11.4336   13.3084  -37.2833 H   0  0  0  0  0  0  0  0  0  0  0  0
  -11.3019   14.2058  -35.6766 H   0  0  0  0  0  0  0  0  0  0  0  0
  1  7  1  0  0  0  0
  1 10  2  0  0  0  0
  1 11  1  0  0  0  0
  2  3  1  0  0  0  0
  2  7  1  0  0  0  0
  3  8  1  0  0  0  0
  4  6  1  0  0  0  0
  4  7  1  0  0  0  0
  5  6  1  0  0  0  0
  5  9  1  0  0  0  0
  6  8  1  0  0  0  0
  7  9  1  0  0  0  0
  8 12  1  0  0  0  0
  8 13  1  0  0  0  0
  2 14  1  0  0  0  0
  2 15  1  0  0  0  0
  3 16  1  0  0  0  0
  3 17  1  0  0  0  0
  4 18  1  0  0  0  0
  4 19  1  0  0  0  0
  5 20  1  0  0  0  0
  5 21  1  0  0  0  0
  6 22  1  0  0  0  0
  9 23  1  0  0  0  0
 11 24  1  0  0  0  0
M  END
> <id>
EN300-109609

> <smiles>
OC(=O)C1(CC2CN1)CCC2(F)F

> <MDLNUMBER>
MFCD27919991

> <IUPAC Name>
2,2-difluoro-6-azabicyclo[3.2.1]octane-5-carboxylic acid

> <CAS>
1394116-55-2

> <URL>
https://www.enaminestore.com/catalog/EN300-109609

> <ROCS_ShapeQuery>
_x1247relevant_x1083L0AP1_x1305L0BP1_

> <ROCS_TanimotoCombo>
0.860 

> <ROCS_ShapeTanimoto>
0.497 

> <ROCS_ColorTanimoto>
0.363 

> <ROCS_RefTversky>
0.413 

> <ROCS_RefColorTversky>
0.409 

> <ROCS_RefTverskyCombo>
0.822 

> <ROCS_FitTversky>
1.698 

> <ROCS_FitColorTversky>
0.764 

> <ROCS_FitTverskyCombo>
2.462 

> <ROCS_ColorScore>
-8.712

> <ROCS_Overlap>
1213.406

> <ROCS_Rank>
77                  

$$$$
untitled-dbase-69070_17
  -OEChem-06232314393D

 31 32  0     1  0  0  0  0  0999 V2000
  -12.3225   14.9080  -37.8535 C   0  0  0  0  0  0  0  0  0  0  0  0
   -9.1106   15.4846  -37.0598 C   0  0  0  0  0  0  0  0  0  0  0  0
  -10.3953   15.5910  -36.2437 C   0  0  0  0  0  0  0  0  0  0  0  0
   -9.2590   14.2178  -37.8864 C   0  0  0  0  0  0  0  0  0  0  0  0
  -11.3195   14.4998  -36.7877 C   0  0  2  0  0  0  0  0  0  0  0  0
  -15.0133   12.8972  -40.0078 C   0  0  0  0  0  0  0  0  0  0  0  0
  -14.4115   14.7350  -41.6327 C   0  0  0  0  0  0  0  0  0  0  0  0
  -16.1912   15.0835  -39.9355 C   0  0  0  0  0  0  0  0  0  0  0  0
  -14.8123   14.4199  -40.1742 C   0  0  0  0  0  0  0  0  0  0  0  0
  -12.4617   16.1917  -38.2906 N   0  0  0  0  0  0  0  0  0  0  0  0
  -13.1392   14.0370  -38.4515 N   0  0  0  0  0  0  0  0  0  0  0  0
  -13.4122   16.1616  -39.2165 N   0  0  0  0  0  0  0  0  0  0  0  0
  -13.7817   14.8747  -39.2775 N   0  0  0  0  0  0  0  0  0  0  0  0
  -10.3605   13.4921  -37.2628 N   0  0  0  0  0  0  0  0  0  0  0  0
   -9.0167   16.3618  -37.7222 H   0  0  0  0  0  0  0  0  0  0  0  0
   -8.2150   15.4623  -36.4201 H   0  0  0  0  0  0  0  0  0  0  0  0
  -10.1688   15.3912  -35.1864 H   0  0  0  0  0  0  0  0  0  0  0  0
  -10.8124   16.6054  -36.3057 H   0  0  0  0  0  0  0  0  0  0  0  0
   -9.4636   14.4390  -38.9467 H   0  0  0  0  0  0  0  0  0  0  0  0
   -8.3372   13.6118  -37.8495 H   0  0  0  0  0  0  0  0  0  0  0  0
  -11.8900   14.0577  -35.9353 H   0  0  0  0  0  0  0  0  0  0  0  0
  -15.2988   12.6462  -38.9797 H   0  0  0  0  0  0  0  0  0  0  0  0
  -15.8012   12.5087  -40.6618 H   0  0  0  0  0  0  0  0  0  0  0  0
  -14.0919   12.3517  -40.2427 H   0  0  0  0  0  0  0  0  0  0  0  0
  -14.2577   15.8065  -41.7987 H   0  0  0  0  0  0  0  0  0  0  0  0
  -13.4754   14.2327  -41.9029 H   0  0  0  0  0  0  0  0  0  0  0  0
  -15.1856   14.4011  -42.3333 H   0  0  0  0  0  0  0  0  0  0  0  0
  -16.1266   16.1736  -40.0377 H   0  0  0  0  0  0  0  0  0  0  0  0
  -16.9369   14.7382  -40.6610 H   0  0  0  0  0  0  0  0  0  0  0  0
  -16.5690   14.8783  -38.9271 H   0  0  0  0  0  0  0  0  0  0  0  0
  -10.8016   12.9173  -37.9858 H   0  0  0  0  0  0  0  0  0  0  0  0
  1  5  1  0  0  0  0
  1 10  1  0  0  0  0
  1 11  2  0  0  0  0
  2  3  1  0  0  0  0
  2  4  1  0  0  0  0
  3  5  1  0  0  0  0
  4 14  1  0  0  0  0
  5 14  1  0  0  0  0
  6  9  1  0  0  0  0
  7  9  1  0  0  0  0
  8  9  1  0  0  0  0
  9 13  1  0  0  0  0
 10 12  2  0  0  0  0
 11 13  1  0  0  0  0
 12 13  1  0  0  0  0
  2 15  1  0  0  0  0
  2 16  1  0  0  0  0
  3 17  1  0  0  0  0
  3 18  1  0  0  0  0
  4 19  1  0  0  0  0
  4 20  1  0  0  0  0
  5 21  1  0  0  0  0
  6 22  1  0  0  0  0
  6 23  1  0  0  0  0
  6 24  1  0  0  0  0
  7 25  1  0  0  0  0
  7 26  1  0  0  0  0
  7 27  1  0  0  0  0
  8 28  1  0  0  0  0
  8 29  1  0  0  0  0
  8 30  1  0  0  0  0
 14 31  1  0  0  0  0
M  END
> <id>
EN300-1827135

> <smiles>
CC(C)(C)N1N=NC(=N1)C2CCCN2

> <MDLNUMBER>
MFCD24509724

> <IUPAC Name>
2-tert-butyl-5-(pyrrolidin-2-yl)-2H-1,2,3,4-tetrazole

> <CAS>
1824320-61-7

> <URL>
https://www.enaminestore.com/catalog/EN300-1827135

> <ROCS_ShapeQuery>
_x1247relevant_x1083L0AP1_x1305L0BP1_

> <ROCS_TanimotoCombo>
0.860 

> <ROCS_ShapeTanimoto>
0.480 

> <ROCS_ColorTanimoto>
0.380 

> <ROCS_RefTversky>
0.406 

> <ROCS_RefColorTversky>
0.393 

> <ROCS_RefTverskyCombo>
0.799 

> <ROCS_FitTversky>
1.605 

> <ROCS_FitColorTversky>
0.921 

> <ROCS_FitTverskyCombo>
2.526 

> <ROCS_ColorScore>
-8.327

> <ROCS_Overlap>
1195.152

> <ROCS_Rank>
78                  

$$$$
untitled-dbase-98636_12
  -OEChem-06232314393D

 40 42  0     1  0  0  0  0  0999 V2000
   -9.3003   14.3378  -36.9587 C   0  0  0  0  0  0  0  0  0  0  0  0
  -13.6527   15.5713  -39.4965 C   0  0  0  0  0  0  0  0  0  0  0  0
  -12.1033   16.8357  -37.9556 C   0  0  0  0  0  0  0  0  0  0  0  0
  -13.6822   15.1942  -37.0001 C   0  0  0  0  0  0  0  0  0  0  0  0
  -11.1686   15.1684  -39.2895 C   0  0  0  0  0  0  0  0  0  0  0  0
  -12.7541   13.5200  -38.3299 C   0  0  0  0  0  0  0  0  0  0  0  0
  -12.2565   16.2429  -39.3592 C   0  0  1  0  0  0  0  0  0  0  0  0
  -13.9005   14.5337  -38.3644 C   0  0  2  0  0  0  0  0  0  0  0  0
  -12.1934   15.5687  -37.0888 C   0  0  0  0  0  0  0  0  0  0  0  0
  -11.5651   14.4400  -37.9888 C   0  0  0  0  0  0  0  0  0  0  0  0
   -9.2360   14.3015  -34.3433 C   0  0  0  0  0  0  0  0  0  0  0  0
   -7.8414   12.2153  -34.4525 C   0  0  0  0  0  0  0  0  0  0  0  0
   -6.8140   14.4371  -35.0145 C   0  0  0  0  0  0  0  0  0  0  0  0
   -8.0875   13.5940  -35.0612 C   0  0  0  0  0  0  0  0  0  0  0  0
  -10.4743   13.7365  -37.3881 N   0  0  0  0  0  0  0  0  0  0  0  0
   -9.0488   15.5358  -37.0375 O   0  0  0  0  0  0  0  0  0  0  0  0
   -8.4566   13.4011  -36.4314 O   0  0  0  0  0  0  0  0  0  0  0  0
  -14.4325   16.3414  -39.4622 H   0  0  0  0  0  0  0  0  0  0  0  0
  -13.7234   15.0726  -40.4705 H   0  0  0  0  0  0  0  0  0  0  0  0
  -11.1244   17.3158  -37.8361 H   0  0  0  0  0  0  0  0  0  0  0  0
  -12.8734   17.5778  -37.7217 H   0  0  0  0  0  0  0  0  0  0  0  0
  -14.3384   16.0547  -36.8353 H   0  0  0  0  0  0  0  0  0  0  0  0
  -13.8510   14.4791  -36.1859 H   0  0  0  0  0  0  0  0  0  0  0  0
  -11.1629   14.5153  -40.1687 H   0  0  0  0  0  0  0  0  0  0  0  0
  -10.1765   15.6299  -39.2042 H   0  0  0  0  0  0  0  0  0  0  0  0
  -12.9238   12.7744  -37.5426 H   0  0  0  0  0  0  0  0  0  0  0  0
  -12.6337   12.9872  -39.2791 H   0  0  0  0  0  0  0  0  0  0  0  0
  -12.0785   16.9756  -40.1507 H   0  0  0  0  0  0  0  0  0  0  0  0
  -14.8817   14.0606  -38.4542 H   0  0  0  0  0  0  0  0  0  0  0  0
  -11.7333   15.6993  -36.1058 H   0  0  0  0  0  0  0  0  0  0  0  0
   -9.4158   15.2916  -34.7773 H   0  0  0  0  0  0  0  0  0  0  0  0
  -10.1641   13.7234  -34.3997 H   0  0  0  0  0  0  0  0  0  0  0  0
   -8.9945   14.4663  -33.2870 H   0  0  0  0  0  0  0  0  0  0  0  0
   -7.0182   11.7040  -34.9645 H   0  0  0  0  0  0  0  0  0  0  0  0
   -8.7228   11.5742  -34.5688 H   0  0  0  0  0  0  0  0  0  0  0  0
   -7.5991   12.2815  -33.3869 H   0  0  0  0  0  0  0  0  0  0  0  0
   -5.9901   13.9299  -35.5293 H   0  0  0  0  0  0  0  0  0  0  0  0
   -6.9616   15.4169  -35.4803 H   0  0  0  0  0  0  0  0  0  0  0  0
   -6.4853   14.5894  -33.9801 H   0  0  0  0  0  0  0  0  0  0  0  0
  -10.5657   12.7256  -37.2675 H   0  0  0  0  0  0  0  0  0  0  0  0
  1 15  1  0  0  0  0
  1 16  2  0  0  0  0
  1 17  1  0  0  0  0
  2  7  1  0  0  0  0
  2  8  1  0  0  0  0
  3  7  1  0  0  0  0
  3  9  1  0  0  0  0
  4  8  1  0  0  0  0
  4  9  1  0  0  0  0
  5  7  1  0  0  0  0
  5 10  1  0  0  0  0
  6  8  1  0  0  0  0
  6 10  1  0  0  0  0
  9 10  1  0  0  0  0
 10 15  1  0  0  0  0
 11 14  1  0  0  0  0
 12 14  1  0  0  0  0
 13 14  1  0  0  0  0
 14 17  1  0  0  0  0
  2 18  1  0  0  0  0
  2 19  1  0  0  0  0
  3 20  1  0  0  0  0
  3 21  1  0  0  0  0
  4 22  1  0  0  0  0
  4 23  1  0  0  0  0
  5 24  1  0  0  0  0
  5 25  1  0  0  0  0
  6 26  1  0  0  0  0
  6 27  1  0  0  0  0
  7 28  1  0  0  0  0
  8 29  1  0  0  0  0
  9 30  1  0  0  0  0
 11 31  1  0  0  0  0
 11 32  1  0  0  0  0
 11 33  1  0  0  0  0
 12 34  1  0  0  0  0
 12 35  1  0  0  0  0
 12 36  1  0  0  0  0
 13 37  1  0  0  0  0
 13 38  1  0  0  0  0
 13 39  1  0  0  0  0
 15 40  1  0  0  0  0
M  END
> <id>
EN300-37447151

> <smiles>
CC(C)(C)OC(=O)NC12CC3CC2CC(C1)C3

> <IUPAC Name>
tert-butyl N-{tricyclo[3.3.1.0,3,7]nonan-3-yl}carbamate

> <URL>
https://www.enaminestore.com/catalog/EN300-37447151

> <ROCS_ShapeQuery>
_x1247relevant_x1083L0AP1_x1305L0BP1_

> <ROCS_TanimotoCombo>
0.860 

> <ROCS_ShapeTanimoto>
0.486 

> <ROCS_ColorTanimoto>
0.374 

> <ROCS_RefTversky>
0.425 

> <ROCS_RefColorTversky>
0.566 

> <ROCS_RefTverskyCombo>
0.991 

> <ROCS_FitTversky>
1.418 

> <ROCS_FitColorTversky>
0.524 

> <ROCS_FitTverskyCombo>
1.942 

> <ROCS_ColorScore>
-12.421

> <ROCS_Overlap>
1254.492

> <ROCS_Rank>
79                  

$$$$
untitled-dbase-30078_9
  -OEChem-06232314393D

 26 29  0     1  0  0  0  0  0999 V2000
  -10.3767   15.0527  -36.6345 C   0  0  0  0  0  0  0  0  0  0  0  0
  -14.7193   16.5161  -38.7378 C   0  0  0  0  0  0  0  0  0  0  0  0
  -13.3323   15.9520  -40.6194 C   0  0  0  0  0  0  0  0  0  0  0  0
  -13.8624   15.6279  -37.8420 C   0  0  2  0  0  0  0  0  0  0  0  0
  -12.4773   15.0647  -39.7208 C   0  0  1  0  0  0  0  0  0  0  0  0
  -12.4896   16.2321  -37.5943 C   0  0  2  0  0  0  0  0  0  0  0  0
  -11.6310   15.8830  -38.7590 C   0  0  1  0  0  0  0  0  0  0  0  0
  -13.3238   14.3784  -38.6048 C   0  0  0  0  0  0  0  0  0  0  0  0
  -11.5346   15.0891  -37.4988 C   0  0  0  0  0  0  0  0  0  0  0  0
   -8.0757   15.5842  -36.5519 C   0  0  0  0  0  0  0  0  0  0  0  0
  -10.3909   14.6265  -35.4876 O   0  0  0  0  0  0  0  0  0  0  0  0
  -14.6568   16.1222  -40.1102 O   0  0  0  0  0  0  0  0  0  0  0  0
  -12.3004   13.8647  -37.6964 O   0  0  0  0  0  0  0  0  0  0  0  0
   -9.2979   15.5600  -37.2961 O   0  0  0  0  0  0  0  0  0  0  0  0
  -15.7650   16.5018  -38.4133 H   0  0  0  0  0  0  0  0  0  0  0  0
  -14.3646   17.5496  -38.6868 H   0  0  0  0  0  0  0  0  0  0  0  0
  -12.8877   16.9491  -40.6910 H   0  0  0  0  0  0  0  0  0  0  0  0
  -13.3932   15.5368  -41.6306 H   0  0  0  0  0  0  0  0  0  0  0  0
  -14.3518   15.3626  -36.9014 H   0  0  0  0  0  0  0  0  0  0  0  0
  -11.8637   14.3509  -40.2763 H   0  0  0  0  0  0  0  0  0  0  0  0
  -12.3864   17.1412  -37.0328 H   0  0  0  0  0  0  0  0  0  0  0  0
  -10.8439   16.5143  -39.1254 H   0  0  0  0  0  0  0  0  0  0  0  0
  -14.0499   13.6291  -38.9155 H   0  0  0  0  0  0  0  0  0  0  0  0
   -7.2799   16.0064  -37.1703 H   0  0  0  0  0  0  0  0  0  0  0  0
   -7.8140   14.5680  -36.2463 H   0  0  0  0  0  0  0  0  0  0  0  0
   -8.2126   16.2057  -35.6638 H   0  0  0  0  0  0  0  0  0  0  0  0
  1  9  1  0  0  0  0
  1 11  2  0  0  0  0
  1 14  1  0  0  0  0
  2  4  1  0  0  0  0
  2 12  1  0  0  0  0
  3  5  1  0  0  0  0
  3 12  1  0  0  0  0
  4  6  1  0  0  0  0
  4  8  1  0  0  0  0
  5  7  1  0  0  0  0
  5  8  1  0  0  0  0
  6  7  1  0  0  0  0
  6  9  1  0  0  0  0
  7  9  1  0  0  0  0
  8 13  1  0  0  0  0
  9 13  1  0  0  0  0
 10 14  1  0  0  0  0
  2 15  1  0  0  0  0
  2 16  1  0  0  0  0
  3 17  1  0  0  0  0
  3 18  1  0  0  0  0
  4 19  1  0  0  0  0
  5 20  1  0  0  0  0
  6 21  1  0  0  0  0
  7 22  1  0  0  0  0
  8 23  1  0  0  0  0
 10 24  1  0  0  0  0
 10 25  1  0  0  0  0
 10 26  1  0  0  0  0
M  END
> <id>
EN300-696464

> <smiles>
COC(=O)C12OC3C4COCC3C2C41

> <IUPAC Name>
methyl 5,9-dioxatetracyclo[4.4.0.0^{2,4}.0^{3,7}]decane-4-carboxylate

> <CAS>
135922-86-0

> <URL>
https://www.enaminestore.com/catalog/EN300-696464

> <ROCS_ShapeQuery>
_x1247relevant_x1083L0AP1_x1305L0BP1_

> <ROCS_TanimotoCombo>
0.860 

> <ROCS_ShapeTanimoto>
0.516 

> <ROCS_ColorTanimoto>
0.343 

> <ROCS_RefTversky>
0.432 

> <ROCS_RefColorTversky>
0.674 

> <ROCS_RefTverskyCombo>
1.105 

> <ROCS_FitTversky>
1.614 

> <ROCS_FitColorTversky>
0.412 

> <ROCS_FitTverskyCombo>
2.025 

> <ROCS_ColorScore>
-15.262

> <ROCS_Overlap>
1270.814

> <ROCS_Rank>
80                  

$$$$
untitled-dbase-127473_5
  -OEChem-06232314393D

 29 31  0     1  0  0  0  0  0999 V2000
   -8.6777   14.9221  -35.7794 C   0  0  0  0  0  0  0  0  0  0  0  0
  -14.0509   16.0061  -39.0670 C   0  0  0  0  0  0  0  0  0  0  0  0
  -12.8231   15.7499  -39.9416 C   0  0  0  0  0  0  0  0  0  0  0  0
  -10.2109   14.9992  -35.6193 C   0  0  0  0  0  0  0  0  0  0  0  0
   -8.8618   15.2265  -37.2812 C   0  0  0  0  0  0  0  0  0  0  0  0
  -12.6285   15.8569  -36.9971 C   0  0  0  0  0  0  0  0  0  0  0  0
  -11.3874   15.6317  -37.8766 C   0  0  2  0  0  0  0  0  0  0  0  0
  -13.7295   15.1868  -37.8190 C   0  0  2  0  0  0  0  0  0  0  0  0
  -11.9803   14.8379  -39.0504 C   0  0  1  0  0  0  0  0  0  0  0  0
  -10.3481   14.8111  -37.1504 C   0  0  0  0  0  0  0  0  0  0  0  0
  -10.4684   13.3761  -37.4401 N   0  0  0  0  0  0  0  0  0  0  0  0
  -13.0135   14.0680  -38.3902 O   0  0  0  0  0  0  0  0  0  0  0  0
   -8.1349   15.7048  -35.2321 H   0  0  0  0  0  0  0  0  0  0  0  0
   -8.2236   13.9532  -35.5433 H   0  0  0  0  0  0  0  0  0  0  0  0
  -14.2127   17.0666  -38.8536 H   0  0  0  0  0  0  0  0  0  0  0  0
  -14.9439   15.6147  -39.5672 H   0  0  0  0  0  0  0  0  0  0  0  0
  -13.1279   15.2228  -40.8528 H   0  0  0  0  0  0  0  0  0  0  0  0
  -12.3026   16.6674  -40.2313 H   0  0  0  0  0  0  0  0  0  0  0  0
  -10.6159   14.1823  -35.0002 H   0  0  0  0  0  0  0  0  0  0  0  0
  -10.5877   15.9468  -35.2092 H   0  0  0  0  0  0  0  0  0  0  0  0
   -8.6720   16.2700  -37.5698 H   0  0  0  0  0  0  0  0  0  0  0  0
   -8.2420   14.5825  -37.9260 H   0  0  0  0  0  0  0  0  0  0  0  0
  -12.5235   15.3622  -36.0249 H   0  0  0  0  0  0  0  0  0  0  0  0
  -12.8311   16.9180  -36.8208 H   0  0  0  0  0  0  0  0  0  0  0  0
  -10.9419   16.5766  -38.2065 H   0  0  0  0  0  0  0  0  0  0  0  0
  -14.6024   14.8752  -37.2413 H   0  0  0  0  0  0  0  0  0  0  0  0
  -11.2760   14.2005  -39.5904 H   0  0  0  0  0  0  0  0  0  0  0  0
   -9.6513   12.9208  -37.1067 H   0  0  0  0  0  0  0  0  0  0  0  0
  -11.2752   13.0310  -36.9754 H   0  0  0  0  0  0  0  0  0  0  0  0
  1  4  1  0  0  0  0
  1  5  1  0  0  0  0
  2  3  1  0  0  0  0
  2  8  1  0  0  0  0
  3  9  1  0  0  0  0
  4 10  1  0  0  0  0
  5 10  1  0  0  0  0
  6  7  1  0  0  0  0
  6  8  1  0  0  0  0
  7  9  1  0  0  0  0
  7 10  1  0  0  0  0
  8 12  1  0  0  0  0
  9 12  1  0  0  0  0
 10 11  1  0  0  0  0
  1 13  1  0  0  0  0
  1 14  1  0  0  0  0
  2 15  1  0  0  0  0
  2 16  1  0  0  0  0
  3 17  1  0  0  0  0
  3 18  1  0  0  0  0
  4 19  1  0  0  0  0
  4 20  1  0  0  0  0
  5 21  1  0  0  0  0
  5 22  1  0  0  0  0
  6 23  1  0  0  0  0
  6 24  1  0  0  0  0
  7 25  1  0  0  0  0
  8 26  1  0  0  0  0
  9 27  1  0  0  0  0
 11 28  1  0  0  0  0
 11 29  1  0  0  0  0
M  END
> <id>
EN300-1754116

> <smiles>
NC1(CCC1)C2CC3CCC2O3

> <IUPAC Name>
1-{7-oxabicyclo[2.2.1]heptan-2-yl}cyclobutan-1-amine

> <CAS>
2228276-88-6

> <URL>
https://www.enaminestore.com/catalog/EN300-1754116

> <ROCS_ShapeQuery>
_x1247relevant_x1083L0AP1_x1305L0BP1_

> <ROCS_TanimotoCombo>
0.859 

> <ROCS_ShapeTanimoto>
0.467 

> <ROCS_ColorTanimoto>
0.393 

> <ROCS_RefTversky>
0.390 

> <ROCS_RefColorTversky>
0.427 

> <ROCS_RefTverskyCombo>
0.817 

> <ROCS_FitTversky>
1.717 

> <ROCS_FitColorTversky>
0.831 

> <ROCS_FitTverskyCombo>
2.548 

> <ROCS_ColorScore>
-9.084

> <ROCS_Overlap>
1147.302

> <ROCS_Rank>
81                  

$$$$
untitled-dbase-55228_4
  -OEChem-06232314393D

 22 23  0     1  0  0  0  0  0999 V2000
  -13.8504   15.9221  -39.1422 C   0  0  0  0  0  0  0  0  0  0  0  0
  -13.9905   15.7842  -37.6248 C   0  0  0  0  0  0  0  0  0  0  0  0
  -11.3431   15.8324  -38.9376 C   0  0  0  0  0  0  0  0  0  0  0  0
  -12.5941   15.0991  -39.4235 C   0  0  1  0  0  0  0  0  0  0  0  0
  -12.7809   14.9206  -37.2702 C   0  0  2  0  0  0  0  0  0  0  0  0
  -11.4904   15.7298  -37.4172 C   0  0  1  0  0  0  0  0  0  0  0  0
  -10.2467   13.3843  -37.4703 N   0  0  0  0  0  0  0  0  0  0  0  0
   -8.9018   15.5475  -37.1118 O   0  0  0  0  0  0  0  0  0  0  0  0
  -10.4119   14.7050  -35.2691 O   0  0  0  0  0  0  0  0  0  0  0  0
  -12.7133   14.0557  -38.4306 O   0  0  0  0  0  0  0  0  0  0  0  0
  -10.1211   14.8888  -36.6794 S   0  0  0  0  0  0  0  0  0  0  0  0
  -14.7226   15.4743  -39.6315 H   0  0  0  0  0  0  0  0  0  0  0  0
  -13.7650   16.9615  -39.4724 H   0  0  0  0  0  0  0  0  0  0  0  0
  -13.9987   16.7465  -37.1047 H   0  0  0  0  0  0  0  0  0  0  0  0
  -14.9223   15.2568  -37.3913 H   0  0  0  0  0  0  0  0  0  0  0  0
  -10.4417   15.3217  -39.2936 H   0  0  0  0  0  0  0  0  0  0  0  0
  -11.3102   16.8686  -39.2883 H   0  0  0  0  0  0  0  0  0  0  0  0
  -12.5250   14.7059  -40.4401 H   0  0  0  0  0  0  0  0  0  0  0  0
  -12.8844   14.3537  -36.3420 H   0  0  0  0  0  0  0  0  0  0  0  0
  -11.5470   16.7078  -36.9295 H   0  0  0  0  0  0  0  0  0  0  0  0
  -11.0303   12.7718  -37.2125 H   0  0  0  0  0  0  0  0  0  0  0  0
  -10.0016   13.3456  -38.4673 H   0  0  0  0  0  0  0  0  0  0  0  0
  1  2  1  0  0  0  0
  1  4  1  0  0  0  0
  2  5  1  0  0  0  0
  3  4  1  0  0  0  0
  3  6  1  0  0  0  0
  4 10  1  0  0  0  0
  5  6  1  0  0  0  0
  5 10  1  0  0  0  0
  6 11  1  0  0  0  0
  7 11  1  0  0  0  0
  8 11  2  0  0  0  0
  9 11  2  0  0  0  0
  1 12  1  0  0  0  0
  1 13  1  0  0  0  0
  2 14  1  0  0  0  0
  2 15  1  0  0  0  0
  3 16  1  0  0  0  0
  3 17  1  0  0  0  0
  4 18  1  0  0  0  0
  5 19  1  0  0  0  0
  6 20  1  0  0  0  0
  7 21  1  0  0  0  0
  7 22  1  0  0  0  0
M  END
> <id>
EN300-245165

> <smiles>
NS(=O)(=O)C1CC2CCC1O2

> <MDLNUMBER>
MFCD29041209

> <IUPAC Name>
7-oxabicyclo[2.2.1]heptane-2-sulfonamide

> <CAS>
1864058-40-1

> <Purity>
95

> <URL>
https://www.enaminestore.com/catalog/EN300-245165

> <ROCS_ShapeQuery>
_x1247relevant_x1083L0AP1_x1305L0BP1_

> <ROCS_TanimotoCombo>
0.859 

> <ROCS_ShapeTanimoto>
0.448 

> <ROCS_ColorTanimoto>
0.411 

> <ROCS_RefTversky>
0.373 

> <ROCS_RefColorTversky>
0.441 

> <ROCS_RefTverskyCombo>
0.814 

> <ROCS_FitTversky>
1.821 

> <ROCS_FitColorTversky>
0.858 

> <ROCS_FitTverskyCombo>
2.679 

> <ROCS_ColorScore>
-9.385

> <ROCS_Overlap>
1093.424

> <ROCS_Rank>
82                  

$$$$
untitled-dbase-4167_7
  -OEChem-06232314393D

 33 35  0     1  0  0  0  0  0999 V2000
   -9.9917   15.2104  -36.5697 C   0  0  0  0  0  0  0  0  0  0  0  0
  -11.5502   16.7344  -38.6576 C   0  0  0  0  0  0  0  0  0  0  0  0
  -12.9038   15.9787  -36.6797 C   0  0  0  0  0  0  0  0  0  0  0  0
  -13.9226   15.9923  -38.9698 C   0  0  0  0  0  0  0  0  0  0  0  0
  -12.0302   14.5766  -39.8194 C   0  0  0  0  0  0  0  0  0  0  0  0
  -13.3968   13.8193  -37.8284 C   0  0  0  0  0  0  0  0  0  0  0  0
  -12.9517   16.7212  -38.0256 C   0  0  0  0  0  0  0  0  0  0  0  0
  -11.0413   15.2891  -38.8665 C   0  0  2  0  0  0  0  0  0  0  0  0
  -12.3997   14.5302  -36.8822 C   0  0  1  0  0  0  0  0  0  0  0  0
  -10.9761   14.5476  -37.5034 C   0  0  0  0  0  0  0  0  0  0  0  0
  -13.4439   14.5412  -39.1946 C   0  0  0  0  0  0  0  0  0  0  0  0
  -10.4313   13.1928  -37.6418 N   0  0  0  0  0  0  0  0  0  0  0  0
  -14.3664   13.8580  -40.1001 N   0  0  0  0  0  0  0  0  0  0  0  0
   -8.9900   15.8161  -36.9207 O   0  0  0  0  0  0  0  0  0  0  0  0
  -10.3680   15.0410  -35.2786 O   0  0  0  0  0  0  0  0  0  0  0  0
  -11.5816   17.2591  -39.6209 H   0  0  0  0  0  0  0  0  0  0  0  0
  -10.8584   17.2993  -38.0220 H   0  0  0  0  0  0  0  0  0  0  0  0
  -12.2572   16.5180  -35.9778 H   0  0  0  0  0  0  0  0  0  0  0  0
  -13.9037   15.9635  -36.2275 H   0  0  0  0  0  0  0  0  0  0  0  0
  -14.9328   16.0040  -38.5395 H   0  0  0  0  0  0  0  0  0  0  0  0
  -13.9810   16.5305  -39.9254 H   0  0  0  0  0  0  0  0  0  0  0  0
  -12.0545   15.1091  -40.7801 H   0  0  0  0  0  0  0  0  0  0  0  0
  -11.6797   13.5625  -40.0466 H   0  0  0  0  0  0  0  0  0  0  0  0
  -13.1236   12.7649  -37.9545 H   0  0  0  0  0  0  0  0  0  0  0  0
  -14.3939   13.8167  -37.3668 H   0  0  0  0  0  0  0  0  0  0  0  0
  -13.2959   17.7496  -37.8685 H   0  0  0  0  0  0  0  0  0  0  0  0
  -10.0489   15.3294  -39.3331 H   0  0  0  0  0  0  0  0  0  0  0  0
  -12.3914   14.0204  -35.9104 H   0  0  0  0  0  0  0  0  0  0  0  0
   -9.5197   13.2687  -38.0217 H   0  0  0  0  0  0  0  0  0  0  0  0
  -10.4077   12.7815  -36.7409 H   0  0  0  0  0  0  0  0  0  0  0  0
  -13.8560   13.5671  -40.8994 H   0  0  0  0  0  0  0  0  0  0  0  0
  -14.7463   13.0766  -39.6215 H   0  0  0  0  0  0  0  0  0  0  0  0
   -9.7392   15.4635  -34.6553 H   0  0  0  0  0  0  0  0  0  0  0  0
  1 10  1  0  0  0  0
  1 14  2  0  0  0  0
  1 15  1  0  0  0  0
  2  7  1  0  0  0  0
  2  8  1  0  0  0  0
  3  7  1  0  0  0  0
  3  9  1  0  0  0  0
  4  7  1  0  0  0  0
  4 11  1  0  0  0  0
  5  8  1  0  0  0  0
  5 11  1  0  0  0  0
  6  9  1  0  0  0  0
  6 11  1  0  0  0  0
  8 10  1  0  0  0  0
  9 10  1  0  0  0  0
 10 12  1  6  0  0  0
 11 13  1  6  0  0  0
  2 16  1  0  0  0  0
  2 17  1  0  0  0  0
  3 18  1  0  0  0  0
  3 19  1  0  0  0  0
  4 20  1  0  0  0  0
  4 21  1  0  0  0  0
  5 22  1  0  0  0  0
  5 23  1  0  0  0  0
  6 24  1  0  0  0  0
  6 25  1  0  0  0  0
  7 26  1  0  0  0  0
  8 27  1  0  0  0  0
  9 28  1  0  0  0  0
 12 29  1  0  0  0  0
 12 30  1  0  0  0  0
 13 31  1  0  0  0  0
 13 32  1  0  0  0  0
 15 33  1  0  0  0  0
M  END
> <id>
EN300-88876

> <smiles>
Cl.Cl.N[C@]1(C2CC3CC1C[C@@](N)(C3)C2)C(=O)O

> <IUPAC Name>
(2r,5s)-2,5-diaminoadamantane-2-carboxylic acid dihydrochloride

> <URL>
https://www.enaminestore.com/catalog/EN300-88876

> <Saltdate>
Cl

> <ROCS_ShapeQuery>
_x1247relevant_x1083L0AP1_x1305L0BP1_

> <ROCS_TanimotoCombo>
0.859 

> <ROCS_ShapeTanimoto>
0.523 

> <ROCS_ColorTanimoto>
0.336 

> <ROCS_RefTversky>
0.437 

> <ROCS_RefColorTversky>
0.414 

> <ROCS_RefTverskyCombo>
0.851 

> <ROCS_FitTversky>
1.602 

> <ROCS_FitColorTversky>
0.640 

> <ROCS_FitTverskyCombo>
2.242 

> <ROCS_ColorScore>
-8.876

> <ROCS_Overlap>
1286.758

> <ROCS_Rank>
83                  

$$$$
untitled-dbase-9976_7
  -OEChem-06232314393D

 33 35  0     1  0  0  0  0  0999 V2000
   -9.9917   15.2104  -36.5697 C   0  0  0  0  0  0  0  0  0  0  0  0
  -11.5502   16.7344  -38.6576 C   0  0  0  0  0  0  0  0  0  0  0  0
  -12.9038   15.9787  -36.6797 C   0  0  0  0  0  0  0  0  0  0  0  0
  -13.9226   15.9923  -38.9698 C   0  0  0  0  0  0  0  0  0  0  0  0
  -12.0302   14.5766  -39.8194 C   0  0  0  0  0  0  0  0  0  0  0  0
  -13.3968   13.8193  -37.8284 C   0  0  0  0  0  0  0  0  0  0  0  0
  -12.9517   16.7212  -38.0256 C   0  0  0  0  0  0  0  0  0  0  0  0
  -11.0413   15.2891  -38.8665 C   0  0  2  0  0  0  0  0  0  0  0  0
  -12.3997   14.5302  -36.8822 C   0  0  1  0  0  0  0  0  0  0  0  0
  -10.9761   14.5476  -37.5034 C   0  0  0  0  0  0  0  0  0  0  0  0
  -13.4439   14.5412  -39.1946 C   0  0  0  0  0  0  0  0  0  0  0  0
  -10.4313   13.1928  -37.6418 N   0  0  0  0  0  0  0  0  0  0  0  0
  -14.3664   13.8580  -40.1001 N   0  0  0  0  0  0  0  0  0  0  0  0
   -8.9900   15.8161  -36.9207 O   0  0  0  0  0  0  0  0  0  0  0  0
  -10.3680   15.0410  -35.2786 O   0  0  0  0  0  0  0  0  0  0  0  0
  -11.5816   17.2591  -39.6209 H   0  0  0  0  0  0  0  0  0  0  0  0
  -10.8584   17.2993  -38.0220 H   0  0  0  0  0  0  0  0  0  0  0  0
  -12.2572   16.5180  -35.9778 H   0  0  0  0  0  0  0  0  0  0  0  0
  -13.9037   15.9635  -36.2275 H   0  0  0  0  0  0  0  0  0  0  0  0
  -14.9328   16.0040  -38.5395 H   0  0  0  0  0  0  0  0  0  0  0  0
  -13.9810   16.5305  -39.9254 H   0  0  0  0  0  0  0  0  0  0  0  0
  -12.0545   15.1091  -40.7801 H   0  0  0  0  0  0  0  0  0  0  0  0
  -11.6797   13.5625  -40.0466 H   0  0  0  0  0  0  0  0  0  0  0  0
  -13.1236   12.7649  -37.9545 H   0  0  0  0  0  0  0  0  0  0  0  0
  -14.3939   13.8167  -37.3668 H   0  0  0  0  0  0  0  0  0  0  0  0
  -13.2959   17.7496  -37.8685 H   0  0  0  0  0  0  0  0  0  0  0  0
  -10.0489   15.3294  -39.3331 H   0  0  0  0  0  0  0  0  0  0  0  0
  -12.3914   14.0204  -35.9104 H   0  0  0  0  0  0  0  0  0  0  0  0
   -9.5197   13.2687  -38.0217 H   0  0  0  0  0  0  0  0  0  0  0  0
  -10.4077   12.7815  -36.7409 H   0  0  0  0  0  0  0  0  0  0  0  0
  -13.8560   13.5671  -40.8994 H   0  0  0  0  0  0  0  0  0  0  0  0
  -14.7463   13.0766  -39.6215 H   0  0  0  0  0  0  0  0  0  0  0  0
   -9.7392   15.4635  -34.6553 H   0  0  0  0  0  0  0  0  0  0  0  0
  1 10  1  0  0  0  0
  1 14  2  0  0  0  0
  1 15  1  0  0  0  0
  2  7  1  0  0  0  0
  2  8  1  0  0  0  0
  3  7  1  0  0  0  0
  3  9  1  0  0  0  0
  4  7  1  0  0  0  0
  4 11  1  0  0  0  0
  5  8  1  0  0  0  0
  5 11  1  0  0  0  0
  6  9  1  0  0  0  0
  6 11  1  0  0  0  0
  8 10  1  0  0  0  0
  9 10  1  0  0  0  0
 10 12  1  6  0  0  0
 11 13  1  6  0  0  0
  2 16  1  0  0  0  0
  2 17  1  0  0  0  0
  3 18  1  0  0  0  0
  3 19  1  0  0  0  0
  4 20  1  0  0  0  0
  4 21  1  0  0  0  0
  5 22  1  0  0  0  0
  5 23  1  0  0  0  0
  6 24  1  0  0  0  0
  6 25  1  0  0  0  0
  7 26  1  0  0  0  0
  8 27  1  0  0  0  0
  9 28  1  0  0  0  0
 12 29  1  0  0  0  0
 12 30  1  0  0  0  0
 13 31  1  0  0  0  0
 13 32  1  0  0  0  0
 15 33  1  0  0  0  0
M  END
> <id>
EN300-146823

> <smiles>
N[C@]1(C2CC3CC1C[C@@](N)(C3)C2)C(=O)O

> <IUPAC Name>
(2r,5s)-2,5-diaminoadamantane-2-carboxylic acid

> <CAS>
1822968-48-8

> <URL>
https://www.enaminestore.com/catalog/EN300-146823

> <ROCS_ShapeQuery>
_x1247relevant_x1083L0AP1_x1305L0BP1_

> <ROCS_TanimotoCombo>
0.859 

> <ROCS_ShapeTanimoto>
0.523 

> <ROCS_ColorTanimoto>
0.336 

> <ROCS_RefTversky>
0.437 

> <ROCS_RefColorTversky>
0.414 

> <ROCS_RefTverskyCombo>
0.851 

> <ROCS_FitTversky>
1.602 

> <ROCS_FitColorTversky>
0.640 

> <ROCS_FitTverskyCombo>
2.242 

> <ROCS_ColorScore>
-8.876

> <ROCS_Overlap>
1286.758

> <ROCS_Rank>
84                  

$$$$
untitled-dbase-134007_88
  -OEChem-06232314393D

 34 35  0     1  0  0  0  0  0999 V2000
  -12.3482   14.9265  -37.8967 C   0  0  0  0  0  0  0  0  0  0  0  0
   -9.2689   16.0457  -36.9758 C   0  0  0  0  0  0  0  0  0  0  0  0
   -8.3765   14.8024  -36.9927 C   0  0  0  0  0  0  0  0  0  0  0  0
  -10.5976   15.7803  -36.2751 C   0  0  0  0  0  0  0  0  0  0  0  0
   -9.1273   13.5121  -36.6635 C   0  0  0  0  0  0  0  0  0  0  0  0
  -11.3287   14.5395  -36.8375 C   0  0  2  0  0  0  0  0  0  0  0  0
  -15.0355   12.8646  -40.0066 C   0  0  0  0  0  0  0  0  0  0  0  0
  -14.4735   14.6962  -41.6525 C   0  0  0  0  0  0  0  0  0  0  0  0
  -16.2400   15.0365  -39.9399 C   0  0  0  0  0  0  0  0  0  0  0  0
  -14.8553   14.3882  -40.1875 C   0  0  0  0  0  0  0  0  0  0  0  0
  -12.5081   16.2048  -38.3428 N   0  0  0  0  0  0  0  0  0  0  0  0
  -13.1600   14.0405  -38.4792 N   0  0  0  0  0  0  0  0  0  0  0  0
  -13.4675   16.1551  -39.2586 N   0  0  0  0  0  0  0  0  0  0  0  0
  -13.8214   14.8632  -39.3052 N   0  0  0  0  0  0  0  0  0  0  0  0
  -10.4221   13.4878  -37.3299 N   0  0  0  0  0  0  0  0  0  0  0  0
   -8.7400   16.8659  -36.4636 H   0  0  0  0  0  0  0  0  0  0  0  0
   -9.4489   16.3884  -38.0065 H   0  0  0  0  0  0  0  0  0  0  0  0
   -7.9028   14.7097  -37.9879 H   0  0  0  0  0  0  0  0  0  0  0  0
   -7.5460   14.9389  -36.2772 H   0  0  0  0  0  0  0  0  0  0  0  0
  -10.4239   15.6520  -35.1940 H   0  0  0  0  0  0  0  0  0  0  0  0
  -11.2419   16.6718  -36.3700 H   0  0  0  0  0  0  0  0  0  0  0  0
   -8.5376   12.6548  -36.9928 H   0  0  0  0  0  0  0  0  0  0  0  0
   -9.2599   13.4169  -35.5834 H   0  0  0  0  0  0  0  0  0  0  0  0
  -11.9444   14.0996  -35.9925 H   0  0  0  0  0  0  0  0  0  0  0  0
  -15.3072   12.6185  -38.9736 H   0  0  0  0  0  0  0  0  0  0  0  0
  -15.8251   12.4608  -40.6492 H   0  0  0  0  0  0  0  0  0  0  0  0
  -14.1098   12.3287  -40.2466 H   0  0  0  0  0  0  0  0  0  0  0  0
  -14.3349   15.7681  -41.8289 H   0  0  0  0  0  0  0  0  0  0  0  0
  -13.5341   14.2034  -41.9284 H   0  0  0  0  0  0  0  0  0  0  0  0
  -15.2506   14.3469  -42.3424 H   0  0  0  0  0  0  0  0  0  0  0  0
  -16.1901   16.1264  -40.0517 H   0  0  0  0  0  0  0  0  0  0  0  0
  -16.9886   14.6760  -40.6548 H   0  0  0  0  0  0  0  0  0  0  0  0
  -16.6048   14.8350  -38.9261 H   0  0  0  0  0  0  0  0  0  0  0  0
  -10.2723   13.6238  -38.3342 H   0  0  0  0  0  0  0  0  0  0  0  0
  1  6  1  0  0  0  0
  1 11  1  0  0  0  0
  1 12  2  0  0  0  0
  2  3  1  0  0  0  0
  2  4  1  0  0  0  0
  3  5  1  0  0  0  0
  4  6  1  0  0  0  0
  5 15  1  0  0  0  0
  6 15  1  0  0  0  0
  7 10  1  0  0  0  0
  8 10  1  0  0  0  0
  9 10  1  0  0  0  0
 10 14  1  0  0  0  0
 11 13  2  0  0  0  0
 12 14  1  0  0  0  0
 13 14  1  0  0  0  0
  2 16  1  0  0  0  0
  2 17  1  0  0  0  0
  3 18  1  0  0  0  0
  3 19  1  0  0  0  0
  4 20  1  0  0  0  0
  4 21  1  0  0  0  0
  5 22  1  0  0  0  0
  5 23  1  0  0  0  0
  6 24  1  0  0  0  0
  7 25  1  0  0  0  0
  7 26  1  0  0  0  0
  7 27  1  0  0  0  0
  8 28  1  0  0  0  0
  8 29  1  0  0  0  0
  8 30  1  0  0  0  0
  9 31  1  0  0  0  0
  9 32  1  0  0  0  0
  9 33  1  0  0  0  0
 15 34  1  0  0  0  0
M  END
> <id>
EN300-1752000

> <smiles>
CC(C)(C)N1N=NC(=N1)C2CCCCN2

> <IUPAC Name>
2-(2-tert-butyl-2H-1,2,3,4-tetrazol-5-yl)piperidine

> <CAS>
2229248-49-9

> <URL>
https://www.enaminestore.com/catalog/EN300-1752000

> <ROCS_ShapeQuery>
_x1247relevant_x1083L0AP1_x1305L0BP1_

> <ROCS_TanimotoCombo>
0.858 

> <ROCS_ShapeTanimoto>
0.485 

> <ROCS_ColorTanimoto>
0.373 

> <ROCS_RefTversky>
0.413 

> <ROCS_RefColorTversky>
0.388 

> <ROCS_RefTverskyCombo>
0.801 

> <ROCS_FitTversky>
1.560 

> <ROCS_FitColorTversky>
0.909 

> <ROCS_FitTverskyCombo>
2.468 

> <ROCS_ColorScore>
-8.216

> <ROCS_Overlap>
1216.062

> <ROCS_Rank>
85                  

$$$$
untitled-dbase-29888_1
  -OEChem-06232314393D

 34 36  0     1  0  0  0  0  0999 V2000
   -9.8044   13.6627  -35.1877 C   0  0  0  0  0  0  0  0  0  0  0  0
  -12.6748   14.1390  -39.5775 C   0  0  0  0  0  0  0  0  0  0  0  0
  -12.2023   16.5384  -39.2290 C   0  0  0  0  0  0  0  0  0  0  0  0
  -13.9301   14.3479  -38.7133 C   0  0  0  0  0  0  0  0  0  0  0  0
  -13.3775   16.6444  -38.2455 C   0  0  0  0  0  0  0  0  0  0  0  0
  -12.5486   14.8832  -36.8173 C   0  0  0  0  0  0  0  0  0  0  0  0
   -9.0989   15.3137  -36.9255 C   0  0  0  0  0  0  0  0  0  0  0  0
   -9.3968   13.8686  -36.6126 C   0  0  2  0  0  0  0  0  0  0  0  0
  -11.5857   15.1285  -39.1267 C   0  0  0  0  0  0  0  0  0  0  0  0
  -11.2327   14.8539  -37.6392 C   0  0  2  0  0  0  0  0  0  0  0  0
  -10.5726   12.0215  -33.6711 C   0  0  0  0  0  0  0  0  0  0  0  0
  -10.5492   13.5577  -37.4538 N   0  0  0  0  0  0  0  0  0  0  0  0
  -13.7002   15.3371  -37.6359 N   0  0  0  0  0  0  0  0  0  0  0  0
   -9.8091   14.5468  -34.3418 O   0  0  0  0  0  0  0  0  0  0  0  0
  -10.3762   15.9103  -37.1645 O   0  0  0  0  0  0  0  0  0  0  0  0
  -10.1589   12.3598  -34.9987 O   0  0  0  0  0  0  0  0  0  0  0  0
  -12.3234   13.1047  -39.4918 H   0  0  0  0  0  0  0  0  0  0  0  0
  -12.9209   14.3059  -40.6331 H   0  0  0  0  0  0  0  0  0  0  0  0
  -12.5528   16.7181  -40.2529 H   0  0  0  0  0  0  0  0  0  0  0  0
  -11.4557   17.3100  -39.0093 H   0  0  0  0  0  0  0  0  0  0  0  0
  -14.7684   14.6747  -39.3415 H   0  0  0  0  0  0  0  0  0  0  0  0
  -14.2458   13.3915  -38.2781 H   0  0  0  0  0  0  0  0  0  0  0  0
  -13.1462   17.3726  -37.4579 H   0  0  0  0  0  0  0  0  0  0  0  0
  -14.2602   17.0407  -38.7625 H   0  0  0  0  0  0  0  0  0  0  0  0
  -12.7919   13.8912  -36.4133 H   0  0  0  0  0  0  0  0  0  0  0  0
  -12.4481   15.5391  -35.9429 H   0  0  0  0  0  0  0  0  0  0  0  0
   -8.6038   15.8488  -36.1101 H   0  0  0  0  0  0  0  0  0  0  0  0
   -8.5018   15.4156  -37.8386 H   0  0  0  0  0  0  0  0  0  0  0  0
   -8.5464   13.2104  -36.8147 H   0  0  0  0  0  0  0  0  0  0  0  0
  -10.7001   15.0687  -39.7696 H   0  0  0  0  0  0  0  0  0  0  0  0
  -10.8330   10.9611  -33.6288 H   0  0  0  0  0  0  0  0  0  0  0  0
  -11.4355   12.6310  -33.3910 H   0  0  0  0  0  0  0  0  0  0  0  0
   -9.7493   12.2200  -32.9808 H   0  0  0  0  0  0  0  0  0  0  0  0
  -10.1982   13.2423  -38.3588 H   0  0  0  0  0  0  0  0  0  0  0  0
  1  8  1  0  0  0  0
  1 14  2  0  0  0  0
  1 16  1  0  0  0  0
  2  4  1  0  0  0  0
  2  9  1  0  0  0  0
  3  5  1  0  0  0  0
  3  9  1  0  0  0  0
  4 13  1  0  0  0  0
  5 13  1  0  0  0  0
  6 10  1  0  0  0  0
  6 13  1  0  0  0  0
  7  8  1  0  0  0  0
  7 15  1  0  0  0  0
  8 12  1  0  0  0  0
  9 10  1  0  0  0  0
 10 12  1  0  0  0  0
 10 15  1  0  0  0  0
 11 16  1  0  0  0  0
  2 17  1  0  0  0  0
  2 18  1  0  0  0  0
  3 19  1  0  0  0  0
  3 20  1  0  0  0  0
  4 21  1  0  0  0  0
  4 22  1  0  0  0  0
  5 23  1  0  0  0  0
  5 24  1  0  0  0  0
  6 25  1  0  0  0  0
  6 26  1  0  0  0  0
  7 27  1  0  0  0  0
  7 28  1  0  0  0  0
  8 29  1  0  0  0  0
  9 30  1  0  0  0  0
 11 31  1  0  0  0  0
 11 32  1  0  0  0  0
 11 33  1  0  0  0  0
 12 34  1  0  0  0  0
M  END
> <id>
EN300-691617

> <smiles>
COC(=O)C1COC2(CN3CCC2CC3)N1

> <IUPAC Name>
methyl 4-azaspiro[bicyclo[2.2.2]octane-2,2'-[1,3]oxazolidine]-4'-carboxylate

> <CAS>
2137458-16-1

> <URL>
https://www.enaminestore.com/catalog/EN300-691617

> <ROCS_ShapeQuery>
_x1247relevant_x1083L0AP1_x1305L0BP1_

> <ROCS_TanimotoCombo>
0.858 

> <ROCS_ShapeTanimoto>
0.492 

> <ROCS_ColorTanimoto>
0.367 

> <ROCS_RefTversky>
0.424 

> <ROCS_RefColorTversky>
0.426 

> <ROCS_RefTverskyCombo>
0.850 

> <ROCS_FitTversky>
1.475 

> <ROCS_FitColorTversky>
0.724 

> <ROCS_FitTverskyCombo>
2.199 

> <ROCS_ColorScore>
-9.099

> <ROCS_Overlap>
1251.233

> <ROCS_Rank>
86                  

$$$$
untitled-dbase-112804_2
  -OEChem-06232314393D

 31 33  0     1  0  0  0  0  0999 V2000
  -13.8847   15.1564  -37.2788 C   0  0  0  0  0  0  0  0  0  0  0  0
  -13.5802   13.9181  -38.1554 C   0  0  0  0  0  0  0  0  0  0  0  0
  -11.6997   16.4729  -37.4446 C   0  0  0  0  0  0  0  0  0  0  0  0
  -11.1857   14.3883  -38.9175 C   0  0  0  0  0  0  0  0  0  0  0  0
   -8.8514   14.6297  -36.7314 C   0  0  0  0  0  0  0  0  0  0  0  0
  -13.1694   16.3745  -37.8912 C   0  0  1  0  0  0  0  0  0  0  0  0
  -12.6714   14.3562  -39.3184 C   0  0  2  0  0  0  0  0  0  0  0  0
   -9.9248   14.3865  -35.7031 C   0  0  2  0  0  0  0  0  0  0  0  0
  -10.8769   15.1758  -37.6223 C   0  0  0  0  0  0  0  0  0  0  0  0
   -9.7342   13.1162  -34.9026 C   0  0  0  0  0  0  0  0  0  0  0  0
  -14.5932   16.0072  -40.0962 O   0  0  0  0  0  0  0  0  0  0  0  0
  -12.1962   16.7752  -40.3464 O   0  0  0  0  0  0  0  0  0  0  0  0
   -9.4790   15.5393  -37.6336 O   0  0  0  0  0  0  0  0  0  0  0  0
  -11.1112   14.3059  -36.4947 O   0  0  0  0  0  0  0  0  0  0  0  0
  -13.2170   16.0276  -39.6451 S   0  0  0  0  0  0  0  0  0  0  0  0
   -8.3891   13.3990  -33.5285 Br  0  0  0  0  0  0  0  0  0  0  0  0
  -14.9685   15.3289  -37.2902 H   0  0  0  0  0  0  0  0  0  0  0  0
  -13.6104   14.9963  -36.2312 H   0  0  0  0  0  0  0  0  0  0  0  0
  -13.1460   13.0988  -37.5737 H   0  0  0  0  0  0  0  0  0  0  0  0
  -14.5282   13.5398  -38.5590 H   0  0  0  0  0  0  0  0  0  0  0  0
  -11.2112   17.2897  -37.9913 H   0  0  0  0  0  0  0  0  0  0  0  0
  -11.6785   16.7681  -36.3875 H   0  0  0  0  0  0  0  0  0  0  0  0
  -10.8374   13.3539  -38.7983 H   0  0  0  0  0  0  0  0  0  0  0  0
  -10.5980   14.8068  -39.7447 H   0  0  0  0  0  0  0  0  0  0  0  0
   -7.9430   15.0711  -36.3132 H   0  0  0  0  0  0  0  0  0  0  0  0
   -8.5889   13.7235  -37.2887 H   0  0  0  0  0  0  0  0  0  0  0  0
  -13.7041   17.3081  -37.6973 H   0  0  0  0  0  0  0  0  0  0  0  0
  -12.8252   13.7488  -40.2143 H   0  0  0  0  0  0  0  0  0  0  0  0
  -10.0285   15.2493  -35.0344 H   0  0  0  0  0  0  0  0  0  0  0  0
   -9.3815   12.2960  -35.5311 H   0  0  0  0  0  0  0  0  0  0  0  0
  -10.6542   12.8219  -34.3935 H   0  0  0  0  0  0  0  0  0  0  0  0
  1  2  1  0  0  0  0
  1  6  1  0  0  0  0
  2  7  1  0  0  0  0
  3  6  1  0  0  0  0
  3  9  1  0  0  0  0
  4  7  1  0  0  0  0
  4  9  1  0  0  0  0
  5  8  1  0  0  0  0
  5 13  1  0  0  0  0
  6 15  1  0  0  0  0
  7 15  1  0  0  0  0
  8 10  1  0  0  0  0
  8 14  1  0  0  0  0
  9 13  1  0  0  0  0
  9 14  1  0  0  0  0
 10 16  1  0  0  0  0
 11 15  2  0  0  0  0
 12 15  2  0  0  0  0
  1 17  1  0  0  0  0
  1 18  1  0  0  0  0
  2 19  1  0  0  0  0
  2 20  1  0  0  0  0
  3 21  1  0  0  0  0
  3 22  1  0  0  0  0
  4 23  1  0  0  0  0
  4 24  1  0  0  0  0
  5 25  1  0  0  0  0
  5 26  1  0  0  0  0
  6 27  1  0  0  0  0
  7 28  1  0  0  0  0
  8 29  1  0  0  0  0
 10 30  1  0  0  0  0
 10 31  1  0  0  0  0
M  END
> <id>
EN300-1614797

> <smiles>
BrCC1COC2(CC3CCC(C2)S3(=O)=O)O1

> <IUPAC Name>
4'-(bromomethyl)-8lambda6-thiaspiro[bicyclo[3.2.1]octane-3,2'-[1,3]dioxolane]-8,8-dione

> <CAS>
2171989-64-1

> <URL>
https://www.enaminestore.com/catalog/EN300-1614797

> <ROCS_ShapeQuery>
_x1247relevant_x1083L0AP1_x1305L0BP1_

> <ROCS_TanimotoCombo>
0.858 

> <ROCS_ShapeTanimoto>
0.511 

> <ROCS_ColorTanimoto>
0.347 

> <ROCS_RefTversky>
0.431 

> <ROCS_RefColorTversky>
0.405 

> <ROCS_RefTverskyCombo>
0.836 

> <ROCS_FitTversky>
1.573 

> <ROCS_FitColorTversky>
0.708 

> <ROCS_FitTverskyCombo>
2.282 

> <ROCS_ColorScore>
-8.650

> <ROCS_Overlap>
1268.626

> <ROCS_Rank>
87                  

$$$$
untitled-dbase-43881_6
  -OEChem-06232314393D

 34 36  0     1  0  0  0  0  0999 V2000
   -9.8088   14.5744  -35.8908 C   0  0  0  0  0  0  0  0  0  0  0  0
  -11.0481   14.1127  -36.6040 C   0  0  0  0  0  0  0  0  0  0  0  0
  -14.0495   15.4255  -37.2643 C   0  0  0  0  0  0  0  0  0  0  0  0
  -13.9883   14.1011  -38.0559 C   0  0  0  0  0  0  0  0  0  0  0  0
  -11.6815   16.3344  -37.6817 C   0  0  0  0  0  0  0  0  0  0  0  0
  -11.6594   14.1319  -39.1012 C   0  0  0  0  0  0  0  0  0  0  0  0
  -13.1860   16.4619  -37.9962 C   0  0  1  0  0  0  0  0  0  0  0  0
  -13.1640   14.3366  -39.3340 C   0  0  2  0  0  0  0  0  0  0  0  0
   -9.4950   14.9933  -38.1015 C   0  0  1  0  0  0  0  0  0  0  0  0
  -11.0309   14.9246  -37.9154 C   0  0  0  0  0  0  0  0  0  0  0  0
   -8.9391   16.0846  -39.0031 C   0  0  0  0  0  0  0  0  0  0  0  0
   -9.4596   15.9314  -40.3190 N   0  0  0  0  0  0  0  0  0  0  0  0
   -9.5790   14.4323  -34.7001 O   0  0  0  0  0  0  0  0  0  0  0  0
  -12.4042   16.5923  -40.5448 O   0  0  0  0  0  0  0  0  0  0  0  0
  -14.8581   16.2438  -40.0398 O   0  0  0  0  0  0  0  0  0  0  0  0
   -8.9595   15.1607  -36.7826 O   0  0  0  0  0  0  0  0  0  0  0  0
  -13.4595   16.0557  -39.7137 S   0  0  0  0  0  0  0  0  0  0  0  0
  -10.9900   13.0356  -36.7530 H   0  0  0  0  0  0  0  0  0  0  0  0
  -11.9116   14.3493  -35.9746 H   0  0  0  0  0  0  0  0  0  0  0  0
  -15.0920   15.7668  -37.2445 H   0  0  0  0  0  0  0  0  0  0  0  0
  -13.7498   15.2969  -36.2201 H   0  0  0  0  0  0  0  0  0  0  0  0
  -13.6103   13.2668  -37.4583 H   0  0  0  0  0  0  0  0  0  0  0  0
  -15.0129   13.8236  -38.3387 H   0  0  0  0  0  0  0  0  0  0  0  0
  -11.1545   17.0692  -38.3017 H   0  0  0  0  0  0  0  0  0  0  0  0
  -11.5172   16.6460  -36.6434 H   0  0  0  0  0  0  0  0  0  0  0  0
  -11.4756   13.0570  -38.9825 H   0  0  0  0  0  0  0  0  0  0  0  0
  -11.1496   14.4132  -40.0314 H   0  0  0  0  0  0  0  0  0  0  0  0
  -13.5370   17.4848  -37.8200 H   0  0  0  0  0  0  0  0  0  0  0  0
  -13.5158   13.7214  -40.1644 H   0  0  0  0  0  0  0  0  0  0  0  0
   -9.1126   14.0167  -38.4863 H   0  0  0  0  0  0  0  0  0  0  0  0
   -9.2436   17.0384  -38.5771 H   0  0  0  0  0  0  0  0  0  0  0  0
   -7.8561   15.9799  -39.0027 H   0  0  0  0  0  0  0  0  0  0  0  0
  -10.4636   15.9662  -40.3019 H   0  0  0  0  0  0  0  0  0  0  0  0
   -9.1217   16.6673  -40.9137 H   0  0  0  0  0  0  0  0  0  0  0  0
  1  2  1  0  0  0  0
  1 13  2  0  0  0  0
  1 16  1  0  0  0  0
  2 10  1  0  0  0  0
  3  4  1  0  0  0  0
  3  7  1  0  0  0  0
  4  8  1  0  0  0  0
  5  7  1  0  0  0  0
  5 10  1  0  0  0  0
  6  8  1  0  0  0  0
  6 10  1  0  0  0  0
  7 17  1  0  0  0  0
  8 17  1  0  0  0  0
  9 10  1  0  0  0  0
  9 11  1  0  0  0  0
  9 16  1  0  0  0  0
 11 12  1  0  0  0  0
 14 17  2  0  0  0  0
 15 17  2  0  0  0  0
  2 18  1  0  0  0  0
  2 19  1  0  0  0  0
  3 20  1  0  0  0  0
  3 21  1  0  0  0  0
  4 22  1  0  0  0  0
  4 23  1  0  0  0  0
  5 24  1  0  0  0  0
  5 25  1  0  0  0  0
  6 26  1  0  0  0  0
  6 27  1  0  0  0  0
  7 28  1  0  0  0  0
  8 29  1  0  0  0  0
  9 30  1  0  0  0  0
 11 31  1  0  0  0  0
 11 32  1  0  0  0  0
 12 33  1  0  0  0  0
 12 34  1  0  0  0  0
M  END
> <id>
EN300-1479120

> <smiles>
NCC1OC(=O)CC21CC3CCC(C2)S3(=O)=O

> <IUPAC Name>
2'-(aminomethyl)-8lambda6-thiaspiro[bicyclo[3.2.1]octane-3,3'-oxolane]-5',8,8-trione

> <CAS>
2172527-59-0

> <URL>
https://www.enaminestore.com/catalog/EN300-1479120

> <ROCS_ShapeQuery>
_x1247relevant_x1083L0AP1_x1305L0BP1_

> <ROCS_TanimotoCombo>
0.858 

> <ROCS_ShapeTanimoto>
0.500 

> <ROCS_ColorTanimoto>
0.358 

> <ROCS_RefTversky>
0.430 

> <ROCS_RefColorTversky>
0.414 

> <ROCS_RefTverskyCombo>
0.844 

> <ROCS_FitTversky>
1.481 

> <ROCS_FitColorTversky>
0.725 

> <ROCS_FitTverskyCombo>
2.207 

> <ROCS_ColorScore>
-8.828

> <ROCS_Overlap>
1269.081

> <ROCS_Rank>
88                  

$$$$
untitled-dbase-81113_96
  -OEChem-06232314393D

 44 46  0     1  0  0  0  0  0999 V2000
   -9.1200   14.4448  -36.8585 C   0  0  0  0  0  0  0  0  0  0  0  0
  -11.9424   16.1101  -36.7812 C   0  0  0  0  0  0  0  0  0  0  0  0
  -13.1470   13.9139  -36.9264 C   0  0  0  0  0  0  0  0  0  0  0  0
  -14.2024   15.9875  -37.8562 C   0  0  0  0  0  0  0  0  0  0  0  0
  -12.1646   16.4005  -39.2582 C   0  0  0  0  0  0  0  0  0  0  0  0
  -13.3732   14.1970  -39.4039 C   0  0  0  0  0  0  0  0  0  0  0  0
  -13.3210   15.4295  -36.7274 C   0  0  0  0  0  0  0  0  0  0  0  0
  -11.2664   15.8392  -38.1404 C   0  0  2  0  0  0  0  0  0  0  0  0
  -12.4795   13.6276  -38.2867 C   0  0  1  0  0  0  0  0  0  0  0  0
  -11.0996   14.3191  -38.3640 C   0  0  0  0  0  0  0  0  0  0  0  0
  -13.5440   15.7165  -39.2195 C   0  0  0  0  0  0  0  0  0  0  0  0
   -8.8671   14.9564  -34.0614 C   0  0  0  0  0  0  0  0  0  0  0  0
   -7.0786   13.1930  -34.0891 C   0  0  0  0  0  0  0  0  0  0  0  0
   -6.7863   15.2920  -35.4369 C   0  0  0  0  0  0  0  0  0  0  0  0
   -7.7904   14.2719  -34.9023 C   0  0  0  0  0  0  0  0  0  0  0  0
  -10.1652   13.7448  -37.4230 N   0  0  0  0  0  0  0  0  0  0  0  0
   -8.8471   15.6214  -37.0725 O   0  0  0  0  0  0  0  0  0  0  0  0
  -14.3736   16.2394  -40.2469 O   0  0  0  0  0  0  0  0  0  0  0  0
   -8.4219   13.6277  -36.0145 O   0  0  0  0  0  0  0  0  0  0  0  0
  -12.0559   17.1911  -36.6328 H   0  0  0  0  0  0  0  0  0  0  0  0
  -11.3119   15.7461  -35.9613 H   0  0  0  0  0  0  0  0  0  0  0  0
  -12.5470   13.4947  -36.1101 H   0  0  0  0  0  0  0  0  0  0  0  0
  -14.1250   13.4189  -36.8821 H   0  0  0  0  0  0  0  0  0  0  0  0
  -15.2017   15.5343  -37.8223 H   0  0  0  0  0  0  0  0  0  0  0  0
  -14.3616   17.0653  -37.7211 H   0  0  0  0  0  0  0  0  0  0  0  0
  -12.2792   17.4870  -39.1499 H   0  0  0  0  0  0  0  0  0  0  0  0
  -11.6948   16.2496  -40.2388 H   0  0  0  0  0  0  0  0  0  0  0  0
  -12.9390   13.9816  -40.3888 H   0  0  0  0  0  0  0  0  0  0  0  0
  -14.3542   13.7042  -39.3994 H   0  0  0  0  0  0  0  0  0  0  0  0
  -13.7933   15.6245  -35.7583 H   0  0  0  0  0  0  0  0  0  0  0  0
  -10.2909   16.3386  -38.1774 H   0  0  0  0  0  0  0  0  0  0  0  0
  -12.3714   12.5456  -38.4282 H   0  0  0  0  0  0  0  0  0  0  0  0
  -10.6590   14.1429  -39.3530 H   0  0  0  0  0  0  0  0  0  0  0  0
   -9.3804   15.7316  -34.6415 H   0  0  0  0  0  0  0  0  0  0  0  0
   -9.6131   14.2406  -33.7009 H   0  0  0  0  0  0  0  0  0  0  0  0
   -8.4245   15.4609  -33.1949 H   0  0  0  0  0  0  0  0  0  0  0  0
   -6.3052   12.6992  -34.6885 H   0  0  0  0  0  0  0  0  0  0  0  0
   -7.7799   12.4082  -33.7833 H   0  0  0  0  0  0  0  0  0  0  0  0
   -6.6092   13.6076  -33.1911 H   0  0  0  0  0  0  0  0  0  0  0  0
   -6.0139   14.8013  -36.0401 H   0  0  0  0  0  0  0  0  0  0  0  0
   -7.2745   16.0535  -36.0537 H   0  0  0  0  0  0  0  0  0  0  0  0
   -6.2640   15.7929  -34.6138 H   0  0  0  0  0  0  0  0  0  0  0  0
  -10.2851   12.7709  -37.1629 H   0  0  0  0  0  0  0  0  0  0  0  0
  -15.2285   15.7839  -40.1770 H   0  0  0  0  0  0  0  0  0  0  0  0
  1 16  1  0  0  0  0
  1 17  2  0  0  0  0
  1 19  1  0  0  0  0
  2  7  1  0  0  0  0
  2  8  1  0  0  0  0
  3  7  1  0  0  0  0
  3  9  1  0  0  0  0
  4  7  1  0  0  0  0
  4 11  1  0  0  0  0
  5  8  1  0  0  0  0
  5 11  1  0  0  0  0
  6  9  1  0  0  0  0
  6 11  1  0  0  0  0
  8 10  1  0  0  0  0
  9 10  1  0  0  0  0
 10 16  1  0  0  0  0
 11 18  1  0  0  0  0
 12 15  1  0  0  0  0
 13 15  1  0  0  0  0
 14 15  1  0  0  0  0
 15 19  1  0  0  0  0
  2 20  1  0  0  0  0
  2 21  1  0  0  0  0
  3 22  1  0  0  0  0
  3 23  1  0  0  0  0
  4 24  1  0  0  0  0
  4 25  1  0  0  0  0
  5 26  1  0  0  0  0
  5 27  1  0  0  0  0
  6 28  1  0  0  0  0
  6 29  1  0  0  0  0
  7 30  1  0  0  0  0
  8 31  1  0  0  0  0
  9 32  1  0  0  0  0
 10 33  1  0  0  0  0
 12 34  1  0  0  0  0
 12 35  1  0  0  0  0
 12 36  1  0  0  0  0
 13 37  1  0  0  0  0
 13 38  1  0  0  0  0
 13 39  1  0  0  0  0
 14 40  1  0  0  0  0
 14 41  1  0  0  0  0
 14 42  1  0  0  0  0
 16 43  1  0  0  0  0
 18 44  1  0  0  0  0
M  END
> <id>
EN300-7542895

> <smiles>
CC(C)(C)OC(=O)NC1C2CC3CC1CC(O)(C3)C2

> <IUPAC Name>
tert-butyl N-(5-hydroxyadamantan-2-yl)carbamate

> <CAS>
1049682-78-1

> <URL>
https://www.enaminestore.com/catalog/EN300-7542895

> <ROCS_ShapeQuery>
_x1247relevant_x1083L0AP1_x1305L0BP1_

> <ROCS_TanimotoCombo>
0.857 

> <ROCS_ShapeTanimoto>
0.489 

> <ROCS_ColorTanimoto>
0.368 

> <ROCS_RefTversky>
0.435 

> <ROCS_RefColorTversky>
0.420 

> <ROCS_RefTverskyCombo>
0.856 

> <ROCS_FitTversky>
1.337 

> <ROCS_FitColorTversky>
0.748 

> <ROCS_FitTverskyCombo>
2.086 

> <ROCS_ColorScore>
-8.968

> <ROCS_Overlap>
1285.662

> <ROCS_Rank>
89                  

$$$$
untitled-dbase-46588_2
  -OEChem-06232314393D

 32 34  0     1  0  0  0  0  0999 V2000
   -9.8292   14.5848  -35.7884 C   0  0  0  0  0  0  0  0  0  0  0  0
  -11.0060   14.0987  -36.5861 C   0  0  0  0  0  0  0  0  0  0  0  0
  -14.0355   15.2925  -37.3376 C   0  0  0  0  0  0  0  0  0  0  0  0
  -13.8664   14.0144  -38.1874 C   0  0  0  0  0  0  0  0  0  0  0  0
  -11.7005   16.3378  -37.5876 C   0  0  0  0  0  0  0  0  0  0  0  0
  -11.4935   14.2135  -39.1079 C   0  0  0  0  0  0  0  0  0  0  0  0
  -13.1922   16.4061  -37.9733 C   0  0  1  0  0  0  0  0  0  0  0  0
  -12.9935   14.3547  -39.4083 C   0  0  2  0  0  0  0  0  0  0  0  0
   -9.4289   15.1298  -37.9572 C   0  0  1  0  0  0  0  0  0  0  0  0
  -10.9665   14.9756  -37.8545 C   0  0  0  0  0  0  0  0  0  0  0  0
   -8.8869   16.2914  -38.7756 C   0  0  0  0  0  0  0  0  0  0  0  0
   -9.6513   14.3945  -34.5956 O   0  0  0  0  0  0  0  0  0  0  0  0
  -12.2935   16.7036  -40.4688 O   0  0  0  0  0  0  0  0  0  0  0  0
  -14.7478   16.2087  -40.1089 O   0  0  0  0  0  0  0  0  0  0  0  0
   -8.9686   15.2568  -36.6059 O   0  0  0  0  0  0  0  0  0  0  0  0
  -13.3591   16.0739  -39.7202 S   0  0  0  0  0  0  0  0  0  0  0  0
   -8.9773   15.8496  -40.8552 I   0  0  0  0  0  0  0  0  0  0  0  0
  -10.8845   13.0347  -36.7833 H   0  0  0  0  0  0  0  0  0  0  0  0
  -11.9107   14.2601  -35.9917 H   0  0  0  0  0  0  0  0  0  0  0  0
  -15.0942   15.5802  -37.3555 H   0  0  0  0  0  0  0  0  0  0  0  0
  -13.7814   15.1265  -36.2866 H   0  0  0  0  0  0  0  0  0  0  0  0
  -13.4753   13.1708  -37.6117 H   0  0  0  0  0  0  0  0  0  0  0  0
  -14.8600   13.7010  -38.5359 H   0  0  0  0  0  0  0  0  0  0  0  0
  -11.1825   17.1281  -38.1436 H   0  0  0  0  0  0  0  0  0  0  0  0
  -11.6040   16.6044  -36.5286 H   0  0  0  0  0  0  0  0  0  0  0  0
  -11.2600   13.1444  -39.0314 H   0  0  0  0  0  0  0  0  0  0  0  0
  -10.9539   14.5663  -39.9959 H   0  0  0  0  0  0  0  0  0  0  0  0
  -13.6043   17.4001  -37.7667 H   0  0  0  0  0  0  0  0  0  0  0  0
  -13.2714   13.7654  -40.2843 H   0  0  0  0  0  0  0  0  0  0  0  0
   -8.9776   14.1940  -38.3681 H   0  0  0  0  0  0  0  0  0  0  0  0
   -7.8550   16.4860  -38.4766 H   0  0  0  0  0  0  0  0  0  0  0  0
   -9.4723   17.1861  -38.5547 H   0  0  0  0  0  0  0  0  0  0  0  0
  1  2  1  0  0  0  0
  1 12  2  0  0  0  0
  1 15  1  0  0  0  0
  2 10  1  0  0  0  0
  3  4  1  0  0  0  0
  3  7  1  0  0  0  0
  4  8  1  0  0  0  0
  5  7  1  0  0  0  0
  5 10  1  0  0  0  0
  6  8  1  0  0  0  0
  6 10  1  0  0  0  0
  7 16  1  0  0  0  0
  8 16  1  0  0  0  0
  9 10  1  0  0  0  0
  9 11  1  0  0  0  0
  9 15  1  0  0  0  0
 11 17  1  0  0  0  0
 13 16  2  0  0  0  0
 14 16  2  0  0  0  0
  2 18  1  0  0  0  0
  2 19  1  0  0  0  0
  3 20  1  0  0  0  0
  3 21  1  0  0  0  0
  4 22  1  0  0  0  0
  4 23  1  0  0  0  0
  5 24  1  0  0  0  0
  5 25  1  0  0  0  0
  6 26  1  0  0  0  0
  6 27  1  0  0  0  0
  7 28  1  0  0  0  0
  8 29  1  0  0  0  0
  9 30  1  0  0  0  0
 11 31  1  0  0  0  0
 11 32  1  0  0  0  0
M  END
> <id>
EN300-1478881

> <smiles>
ICC1OC(=O)CC21CC3CCC(C2)S3(=O)=O

> <IUPAC Name>
2'-(iodomethyl)-8lambda6-thiaspiro[bicyclo[3.2.1]octane-3,3'-oxolane]-5',8,8-trione

> <CAS>
2172178-88-8

> <URL>
https://www.enaminestore.com/catalog/EN300-1478881

> <ROCS_ShapeQuery>
_x1247relevant_x1083L0AP1_x1305L0BP1_

> <ROCS_TanimotoCombo>
0.857 

> <ROCS_ShapeTanimoto>
0.497 

> <ROCS_ColorTanimoto>
0.360 

> <ROCS_RefTversky>
0.427 

> <ROCS_RefColorTversky>
0.404 

> <ROCS_RefTverskyCombo>
0.831 

> <ROCS_FitTversky>
1.494 

> <ROCS_FitColorTversky>
0.766 

> <ROCS_FitTverskyCombo>
2.261 

> <ROCS_ColorScore>
-8.603

> <ROCS_Overlap>
1258.736

> <ROCS_Rank>
90                  

$$$$
untitled-dbase-155709_67
  -OEChem-06232314393D

 27 28  0     1  0  0  0  0  0999 V2000
  -10.2791   14.8383  -36.5418 C   0  0  0  0  0  0  0  0  0  0  0  0
  -10.0868   14.6005  -39.6649 C   0  0  0  0  0  0  0  0  0  0  0  0
  -12.5498   16.5235  -37.7507 C   0  0  0  0  0  0  0  0  0  0  0  0
  -13.7911   14.5368  -38.1211 C   0  0  0  0  0  0  0  0  0  0  0  0
  -11.3584   14.4641  -37.5114 C   0  0  1  0  0  0  0  0  0  0  0  0
  -12.7168   15.1119  -37.1684 C   0  0  1  0  0  0  0  0  0  0  0  0
  -12.1623   15.9994  -39.1341 C   0  0  2  0  0  0  0  0  0  0  0  0
  -13.3904   15.1366  -39.4889 C   0  0  2  0  0  0  0  0  0  0  0  0
   -9.3268   13.3928  -39.1808 C   0  0  0  0  0  0  0  0  0  0  0  0
  -11.0673   15.0687  -38.8102 N   0  0  0  0  0  0  0  0  0  0  0  0
  -10.2421   14.5002  -35.3680 O   0  0  0  0  0  0  0  0  0  0  0  0
   -9.8310   15.1000  -40.7616 O   0  0  0  0  0  0  0  0  0  0  0  0
   -9.3419   15.6108  -37.1434 O   0  0  0  0  0  0  0  0  0  0  0  0
  -14.4266   15.9617  -40.0007 O   0  0  0  0  0  0  0  0  0  0  0  0
   -9.7746   13.0046  -37.9730 F   0  0  0  0  0  0  0  0  0  0  0  0
   -9.4750   12.3643  -40.0353 F   0  0  0  0  0  0  0  0  0  0  0  0
   -8.0136   13.6658  -39.0750 F   0  0  0  0  0  0  0  0  0  0  0  0
  -13.4772   17.1060  -37.7439 H   0  0  0  0  0  0  0  0  0  0  0  0
  -11.7563   17.1078  -37.2747 H   0  0  0  0  0  0  0  0  0  0  0  0
  -13.7643   13.4423  -38.1362 H   0  0  0  0  0  0  0  0  0  0  0  0
  -14.7946   14.8572  -37.8195 H   0  0  0  0  0  0  0  0  0  0  0  0
  -11.3991   13.3713  -37.5966 H   0  0  0  0  0  0  0  0  0  0  0  0
  -12.9881   15.0793  -36.1111 H   0  0  0  0  0  0  0  0  0  0  0  0
  -11.9036   16.7653  -39.8668 H   0  0  0  0  0  0  0  0  0  0  0  0
  -13.1674   14.3629  -40.2311 H   0  0  0  0  0  0  0  0  0  0  0  0
   -8.6264   15.8683  -36.5237 H   0  0  0  0  0  0  0  0  0  0  0  0
  -15.2118   15.3986  -40.0994 H   0  0  0  0  0  0  0  0  0  0  0  0
  1  5  1  1  0  0  0
  1 11  2  0  0  0  0
  1 13  1  0  0  0  0
  2  9  1  0  0  0  0
  2 10  1  0  0  0  0
  2 12  2  0  0  0  0
  3  6  1  0  0  0  0
  3  7  1  0  0  0  0
  4  6  1  6  0  0  0
  4  8  1  0  0  0  0
  5  6  1  0  0  0  0
  5 10  1  0  0  0  0
  7  8  1  0  0  0  0
  7 10  1  6  0  0  0
  8 14  1  1  0  0  0
  9 15  1  0  0  0  0
  9 16  1  0  0  0  0
  9 17  1  0  0  0  0
  3 18  1  0  0  0  0
  3 19  1  0  0  0  0
  4 20  1  0  0  0  0
  4 21  1  0  0  0  0
  5 22  1  0  0  0  0
  6 23  1  0  0  0  0
  7 24  1  0  0  0  0
  8 25  1  0  0  0  0
 13 26  1  0  0  0  0
 14 27  1  0  0  0  0
M  END
> <id>
EN300-28279177

> <smiles>
O[C@@H]1C[C@@H]2C[C@H]1N([C@H]2C(=O)O)C(=O)C(F)(F)F |&1:1,3,5,7,r|

> <IUPAC Name>
rac-(1R,3R,4S,6R)-6-hydroxy-2-(2,2,2-trifluoroacetyl)-2-azabicyclo[2.2.1]heptane-3-carboxylic acid

> <CAS>
2679825-85-3

> <URL>
https://www.enaminestore.com/catalog/EN300-28279177

> <ROCS_ShapeQuery>
_x1247relevant_x1083L0AP1_x1305L0BP1_

> <ROCS_TanimotoCombo>
0.857 

> <ROCS_ShapeTanimoto>
0.484 

> <ROCS_ColorTanimoto>
0.373 

> <ROCS_RefTversky>
0.425 

> <ROCS_RefColorTversky>
0.435 

> <ROCS_RefTverskyCombo>
0.860 

> <ROCS_FitTversky>
1.397 

> <ROCS_FitColorTversky>
0.724 

> <ROCS_FitTverskyCombo>
2.121 

> <ROCS_ColorScore>
-9.301

> <ROCS_Overlap>
1254.888

> <ROCS_Rank>
91                  

$$$$
untitled-dbase-119032_3
  -OEChem-06232314393D

 28 30  0     1  0  0  0  0  0999 V2000
  -10.1267   14.8134  -37.2808 C   0  0  0  0  0  0  0  0  0  0  0  0
  -12.4639   13.8117  -37.5896 C   0  0  0  0  0  0  0  0  0  0  0  0
  -12.3599   16.0194  -36.9334 C   0  0  0  0  0  0  0  0  0  0  0  0
  -12.8091   14.4743  -39.7687 C   0  0  0  0  0  0  0  0  0  0  0  0
  -12.7060   16.6844  -39.1114 C   0  0  0  0  0  0  0  0  0  0  0  0
  -13.5567   14.4802  -38.4310 C   0  0  2  0  0  0  0  0  0  0  0  0
  -13.4847   16.0146  -37.9746 C   0  0  1  0  0  0  0  0  0  0  0  0
  -11.5279   15.0156  -37.7379 C   0  0  0  0  0  0  0  0  0  0  0  0
  -11.7619   15.4787  -39.2599 C   0  0  0  0  0  0  0  0  0  0  0  0
   -8.6712   13.2100  -36.3351 C   0  0  0  0  0  0  0  0  0  0  0  0
  -10.6354   15.6838  -40.1275 N   0  0  0  0  0  0  0  0  0  0  0  0
   -9.2585   15.6741  -37.3316 O   0  0  0  0  0  0  0  0  0  0  0  0
   -9.9797   13.5423  -36.8100 O   0  0  0  0  0  0  0  0  0  0  0  0
  -12.7758   13.6049  -36.5598 H   0  0  0  0  0  0  0  0  0  0  0  0
  -12.0611   12.8838  -38.0108 H   0  0  0  0  0  0  0  0  0  0  0  0
  -11.8680   16.9883  -36.7909 H   0  0  0  0  0  0  0  0  0  0  0  0
  -12.6787   15.6574  -35.9496 H   0  0  0  0  0  0  0  0  0  0  0  0
  -12.3907   13.5001  -40.0460 H   0  0  0  0  0  0  0  0  0  0  0  0
  -13.4166   14.8357  -40.6060 H   0  0  0  0  0  0  0  0  0  0  0  0
  -13.3208   16.8916  -39.9944 H   0  0  0  0  0  0  0  0  0  0  0  0
  -12.1981   17.6119  -38.8236 H   0  0  0  0  0  0  0  0  0  0  0  0
  -14.5372   14.0047  -38.4202 H   0  0  0  0  0  0  0  0  0  0  0  0
  -14.4205   16.4894  -37.6808 H   0  0  0  0  0  0  0  0  0  0  0  0
   -8.6624   12.1757  -35.9827 H   0  0  0  0  0  0  0  0  0  0  0  0
   -8.3953   13.8857  -35.5216 H   0  0  0  0  0  0  0  0  0  0  0  0
   -7.9572   13.3192  -37.1549 H   0  0  0  0  0  0  0  0  0  0  0  0
  -10.1548   14.8171  -40.2623 H   0  0  0  0  0  0  0  0  0  0  0  0
  -10.9529   16.0292  -41.0109 H   0  0  0  0  0  0  0  0  0  0  0  0
  1  8  1  0  0  0  0
  1 12  2  0  0  0  0
  1 13  1  0  0  0  0
  2  6  1  0  0  0  0
  2  8  1  0  0  0  0
  3  7  1  0  0  0  0
  3  8  1  0  0  0  0
  4  6  1  0  0  0  0
  4  9  1  0  0  0  0
  5  7  1  0  0  0  0
  5  9  1  0  0  0  0
  6  7  1  0  0  0  0
  8  9  1  0  0  0  0
  9 11  1  0  0  0  0
 10 13  1  0  0  0  0
  2 14  1  0  0  0  0
  2 15  1  0  0  0  0
  3 16  1  0  0  0  0
  3 17  1  0  0  0  0
  4 18  1  0  0  0  0
  4 19  1  0  0  0  0
  5 20  1  0  0  0  0
  5 21  1  0  0  0  0
  6 22  1  0  0  0  0
  7 23  1  0  0  0  0
 10 24  1  0  0  0  0
 10 25  1  0  0  0  0
 10 26  1  0  0  0  0
 11 27  1  0  0  0  0
 11 28  1  0  0  0  0
M  END
> <id>
EN300-26865948

> <smiles>
COC(=O)C12CC3CC2(N)CC3C1

> <IUPAC Name>
methyl 5-aminotricyclo[3.3.0.0,3,7]octane-1-carboxylate

> <CAS>
2445784-81-4

> <URL>
https://www.enaminestore.com/catalog/EN300-26865948

> <ROCS_ShapeQuery>
_x1247relevant_x1083L0AP1_x1305L0BP1_

> <ROCS_TanimotoCombo>
0.856 

> <ROCS_ShapeTanimoto>
0.504 

> <ROCS_ColorTanimoto>
0.352 

> <ROCS_RefTversky>
0.418 

> <ROCS_RefColorTversky>
0.560 

> <ROCS_RefTverskyCombo>
0.978 

> <ROCS_FitTversky>
1.689 

> <ROCS_FitColorTversky>
0.487 

> <ROCS_FitTverskyCombo>
2.176 

> <ROCS_ColorScore>
-12.347

> <ROCS_Overlap>
1229.512

> <ROCS_Rank>
92                  

$$$$
untitled-dbase-81046_95
  -OEChem-06232314393D

 44 46  0     1  0  0  0  0  0999 V2000
   -9.1158   14.4457  -36.8585 C   0  0  0  0  0  0  0  0  0  0  0  0
  -13.1579   13.9160  -36.9282 C   0  0  0  0  0  0  0  0  0  0  0  0
  -11.9504   16.1174  -36.7801 C   0  0  0  0  0  0  0  0  0  0  0  0
  -14.2075   15.9911  -37.8581 C   0  0  0  0  0  0  0  0  0  0  0  0
  -13.3696   14.1985  -39.4041 C   0  0  0  0  0  0  0  0  0  0  0  0
  -12.1666   16.3994  -39.2559 C   0  0  0  0  0  0  0  0  0  0  0  0
  -13.3277   15.4326  -36.7281 C   0  0  0  0  0  0  0  0  0  0  0  0
  -12.4771   13.6293  -38.2833 C   0  0  1  0  0  0  0  0  0  0  0  0
  -11.2678   15.8397  -38.1357 C   0  0  2  0  0  0  0  0  0  0  0  0
  -11.0919   14.3177  -38.3683 C   0  0  0  0  0  0  0  0  0  0  0  0
  -13.5454   15.7170  -39.2196 C   0  0  0  0  0  0  0  0  0  0  0  0
   -8.8695   14.9586  -34.0610 C   0  0  0  0  0  0  0  0  0  0  0  0
   -7.0794   13.1967  -34.0840 C   0  0  0  0  0  0  0  0  0  0  0  0
   -6.7859   15.2955  -35.4321 C   0  0  0  0  0  0  0  0  0  0  0  0
   -7.7904   14.2747  -34.8992 C   0  0  0  0  0  0  0  0  0  0  0  0
  -10.1595   13.7448  -37.4254 N   0  0  0  0  0  0  0  0  0  0  0  0
   -8.8434   15.6224  -37.0723 O   0  0  0  0  0  0  0  0  0  0  0  0
  -14.3726   16.2386  -40.2497 O   0  0  0  0  0  0  0  0  0  0  0  0
   -8.4189   13.6295  -36.0125 O   0  0  0  0  0  0  0  0  0  0  0  0
  -12.5631   13.4954  -36.1088 H   0  0  0  0  0  0  0  0  0  0  0  0
  -14.1372   13.4225  -36.8914 H   0  0  0  0  0  0  0  0  0  0  0  0
  -12.0653   17.1989  -36.6360 H   0  0  0  0  0  0  0  0  0  0  0  0
  -11.3222   15.7558  -35.9572 H   0  0  0  0  0  0  0  0  0  0  0  0
  -15.2070   15.5380  -37.8263 H   0  0  0  0  0  0  0  0  0  0  0  0
  -14.3666   17.0690  -37.7247 H   0  0  0  0  0  0  0  0  0  0  0  0
  -12.9315   13.9841  -40.3875 H   0  0  0  0  0  0  0  0  0  0  0  0
  -14.3492   13.7032  -39.4038 H   0  0  0  0  0  0  0  0  0  0  0  0
  -12.2809   17.4860  -39.1490 H   0  0  0  0  0  0  0  0  0  0  0  0
  -11.6950   16.2484  -40.2357 H   0  0  0  0  0  0  0  0  0  0  0  0
  -13.8022   15.6277  -35.7601 H   0  0  0  0  0  0  0  0  0  0  0  0
  -12.3707   12.5470  -38.4237 H   0  0  0  0  0  0  0  0  0  0  0  0
  -10.2940   16.3422  -38.1714 H   0  0  0  0  0  0  0  0  0  0  0  0
  -10.6535   14.1440  -39.3586 H   0  0  0  0  0  0  0  0  0  0  0  0
   -9.3822   15.7331  -34.6426 H   0  0  0  0  0  0  0  0  0  0  0  0
   -9.6156   14.2424  -33.7019 H   0  0  0  0  0  0  0  0  0  0  0  0
   -8.4292   15.4639  -33.1938 H   0  0  0  0  0  0  0  0  0  0  0  0
   -6.3043   12.7034  -34.6816 H   0  0  0  0  0  0  0  0  0  0  0  0
   -7.7808   12.4115  -33.7795 H   0  0  0  0  0  0  0  0  0  0  0  0
   -6.6123   13.6121  -33.1852 H   0  0  0  0  0  0  0  0  0  0  0  0
   -6.0118   14.8052  -36.0334 H   0  0  0  0  0  0  0  0  0  0  0  0
   -7.2734   16.0563  -36.0503 H   0  0  0  0  0  0  0  0  0  0  0  0
   -6.2658   15.7972  -34.6081 H   0  0  0  0  0  0  0  0  0  0  0  0
  -10.2794   12.7706  -37.1651 H   0  0  0  0  0  0  0  0  0  0  0  0
  -15.2279   15.7836  -40.1808 H   0  0  0  0  0  0  0  0  0  0  0  0
  1 16  1  0  0  0  0
  1 17  2  0  0  0  0
  1 19  1  0  0  0  0
  2  7  1  0  0  0  0
  2  8  1  0  0  0  0
  3  7  1  0  0  0  0
  3  9  1  0  0  0  0
  4  7  1  0  0  0  0
  4 11  1  0  0  0  0
  5  8  1  0  0  0  0
  5 11  1  0  0  0  0
  6  9  1  0  0  0  0
  6 11  1  0  0  0  0
  8 10  1  0  0  0  0
  9 10  1  0  0  0  0
 10 16  1  6  0  0  0
 11 18  1  1  0  0  0
 12 15  1  0  0  0  0
 13 15  1  0  0  0  0
 14 15  1  0  0  0  0
 15 19  1  0  0  0  0
  2 20  1  0  0  0  0
  2 21  1  0  0  0  0
  3 22  1  0  0  0  0
  3 23  1  0  0  0  0
  4 24  1  0  0  0  0
  4 25  1  0  0  0  0
  5 26  1  0  0  0  0
  5 27  1  0  0  0  0
  6 28  1  0  0  0  0
  6 29  1  0  0  0  0
  7 30  1  0  0  0  0
  8 31  1  0  0  0  0
  9 32  1  0  0  0  0
 10 33  1  0  0  0  0
 12 34  1  0  0  0  0
 12 35  1  0  0  0  0
 12 36  1  0  0  0  0
 13 37  1  0  0  0  0
 13 38  1  0  0  0  0
 13 39  1  0  0  0  0
 14 40  1  0  0  0  0
 14 41  1  0  0  0  0
 14 42  1  0  0  0  0
 16 43  1  0  0  0  0
 18 44  1  0  0  0  0
M  END
> <id>
EN300-7548431

> <smiles>
CC(C)(C)OC(=O)N[C@H]1C2CC3CC1C[C@](O)(C3)C2

> <IUPAC Name>
tert-butyl N-[(2s,5r)-5-hydroxyadamantan-2-yl]carbamate

> <URL>
https://www.enaminestore.com/catalog/EN300-7548431

> <ROCS_ShapeQuery>
_x1247relevant_x1083L0AP1_x1305L0BP1_

> <ROCS_TanimotoCombo>
0.856 

> <ROCS_ShapeTanimoto>
0.488 

> <ROCS_ColorTanimoto>
0.368 

> <ROCS_RefTversky>
0.435 

> <ROCS_RefColorTversky>
0.420 

> <ROCS_RefTverskyCombo>
0.855 

> <ROCS_FitTversky>
1.337 

> <ROCS_FitColorTversky>
0.748 

> <ROCS_FitTverskyCombo>
2.084 

> <ROCS_ColorScore>
-8.960

> <ROCS_Overlap>
1283.989

> <ROCS_Rank>
93                  

$$$$
untitled-dbase-152970_17
  -OEChem-06232314393D

 30 32  0     1  0  0  0  0  0999 V2000
   -9.9274   15.1795  -36.8183 C   0  0  0  0  0  0  0  0  0  0  0  0
  -13.5993   15.0863  -40.6666 C   0  0  0  0  0  0  0  0  0  0  0  0
  -13.8435   14.7096  -37.0755 C   0  0  0  0  0  0  0  0  0  0  0  0
  -13.8688   16.2316  -37.3240 C   0  0  0  0  0  0  0  0  0  0  0  0
  -10.5202   15.9347  -39.1859 C   0  0  0  0  0  0  0  0  0  0  0  0
  -11.6927   13.8540  -38.1367 C   0  0  0  0  0  0  0  0  0  0  0  0
  -11.5926   16.4682  -38.2803 C   0  0  1  0  0  0  0  0  0  0  0  0
  -13.2026   14.1039  -38.3375 C   0  0  2  0  0  0  0  0  0  0  0  0
  -13.0672   16.4183  -38.6154 C   0  0  1  0  0  0  0  0  0  0  0  0
  -10.8966   15.1503  -37.9361 C   0  0  1  0  0  0  0  0  0  0  0  0
  -14.4091   13.8937  -41.1041 C   0  0  0  0  0  0  0  0  0  0  0  0
  -13.3505   15.1757  -39.3125 N   0  0  0  0  0  0  0  0  0  0  0  0
   -8.8629   15.7796  -36.8279 O   0  0  0  0  0  0  0  0  0  0  0  0
  -13.2084   15.9098  -41.4956 O   0  0  0  0  0  0  0  0  0  0  0  0
  -10.3793   14.4436  -35.7735 O   0  0  0  0  0  0  0  0  0  0  0  0
  -14.7372   13.1301  -40.0461 F   0  0  0  0  0  0  0  0  0  0  0  0
  -15.5455   14.2865  -41.7080 F   0  0  0  0  0  0  0  0  0  0  0  0
  -13.7131   13.1354  -41.9707 F   0  0  0  0  0  0  0  0  0  0  0  0
  -13.2919   14.4631  -36.1623 H   0  0  0  0  0  0  0  0  0  0  0  0
  -14.8706   14.3468  -36.9536 H   0  0  0  0  0  0  0  0  0  0  0  0
  -14.9056   16.5566  -37.4720 H   0  0  0  0  0  0  0  0  0  0  0  0
  -13.4573   16.7833  -36.4726 H   0  0  0  0  0  0  0  0  0  0  0  0
  -10.7911   15.5362  -40.1555 H   0  0  0  0  0  0  0  0  0  0  0  0
   -9.5703   16.4592  -39.1964 H   0  0  0  0  0  0  0  0  0  0  0  0
  -11.5483   13.1941  -37.2724 H   0  0  0  0  0  0  0  0  0  0  0  0
  -11.2861   13.3220  -39.0059 H   0  0  0  0  0  0  0  0  0  0  0  0
  -11.3432   17.3519  -37.7023 H   0  0  0  0  0  0  0  0  0  0  0  0
  -13.7046   13.1814  -38.6401 H   0  0  0  0  0  0  0  0  0  0  0  0
  -13.3710   17.2989  -39.1887 H   0  0  0  0  0  0  0  0  0  0  0  0
   -9.7490   14.4488  -35.0219 H   0  0  0  0  0  0  0  0  0  0  0  0
  1 10  1  1  0  0  0
  1 13  2  0  0  0  0
  1 15  1  0  0  0  0
  2 11  1  0  0  0  0
  2 12  1  0  0  0  0
  2 14  2  0  0  0  0
  3  4  1  0  0  0  0
  3  8  1  1  0  0  0
  4  9  1  1  0  0  0
  5  7  1  6  0  0  0
  5 10  1  0  0  0  0
  6  8  1  0  0  0  0
  6 10  1  0  0  0  0
  7  9  1  0  0  0  0
  7 10  1  0  0  0  0
  8 12  1  0  0  0  0
  9 12  1  0  0  0  0
 11 16  1  0  0  0  0
 11 17  1  0  0  0  0
 11 18  1  0  0  0  0
  3 19  1  0  0  0  0
  3 20  1  0  0  0  0
  4 21  1  0  0  0  0
  4 22  1  0  0  0  0
  5 23  1  0  0  0  0
  5 24  1  0  0  0  0
  6 25  1  0  0  0  0
  6 26  1  0  0  0  0
  7 27  1  0  0  0  0
  8 28  1  0  0  0  0
  9 29  1  0  0  0  0
 15 30  1  0  0  0  0
M  END
> <id>
EN300-28281385

> <smiles>
OC(=O)[C@@]12C[C@H]2[C@@H]3CC[C@H](C1)N3C(=O)C(F)(F)F |&1:3,5,6,9,r|

> <IUPAC Name>
rac-(1R,2S,4R,6S)-9-(trifluoroacetyl)-9-azatricyclo[4.2.1.0,2,4]nonane-4-carboxylic acid

> <CAS>
2679827-94-0

> <URL>
https://www.enaminestore.com/catalog/EN300-28281385

> <ROCS_ShapeQuery>
_x1247relevant_x1083L0AP1_x1305L0BP1_

> <ROCS_TanimotoCombo>
0.856 

> <ROCS_ShapeTanimoto>
0.517 

> <ROCS_ColorTanimoto>
0.339 

> <ROCS_RefTversky>
0.450 

> <ROCS_RefColorTversky>
0.422 

> <ROCS_RefTverskyCombo>
0.872 

> <ROCS_FitTversky>
1.405 

> <ROCS_FitColorTversky>
0.632 

> <ROCS_FitTverskyCombo>
2.037 

> <ROCS_ColorScore>
-9.060

> <ROCS_Overlap>
1328.486

> <ROCS_Rank>
94                  

$$$$
untitled-dbase-181413_112
  -OEChem-06232314393D

 37 38  0     1  0  0  0  0  0999 V2000
  -13.2566   16.4501  -40.3048 C   0  0  0  0  0  0  0  0  0  0  0  0
   -9.8729   14.8553  -37.0225 C   0  0  0  0  0  0  0  0  0  0  0  0
  -12.8756   14.2761  -39.0355 C   0  0  0  0  0  0  0  0  0  0  0  0
  -11.2373   15.9824  -38.8191 C   0  0  0  0  0  0  0  0  0  0  0  0
  -13.2320   15.1665  -36.9152 C   0  0  0  0  0  0  0  0  0  0  0  0
  -12.7326   15.7880  -39.0778 C   0  0  1  0  0  0  0  0  0  0  0  0
  -12.2758   14.2054  -37.6313 C   0  0  1  0  0  0  0  0  0  0  0  0
  -12.1943   12.8083  -37.0577 C   0  0  0  0  0  0  0  0  0  0  0  0
   -9.8507   15.1249  -34.1746 C   0  0  0  0  0  0  0  0  0  0  0  0
   -9.4463   12.6463  -34.1273 C   0  0  0  0  0  0  0  0  0  0  0  0
   -7.7641   14.1675  -35.2062 C   0  0  0  0  0  0  0  0  0  0  0  0
   -9.2472   13.9358  -34.9208 C   0  0  0  0  0  0  0  0  0  0  0  0
  -11.0059   14.9420  -37.8130 N   0  0  0  0  0  0  0  0  0  0  0  0
  -12.5913   17.1237  -41.0775 O   0  0  0  0  0  0  0  0  0  0  0  0
   -8.9238   15.6333  -37.0629 O   0  0  0  0  0  0  0  0  0  0  0  0
  -13.4431   16.2204  -37.8997 O   0  0  0  0  0  0  0  0  0  0  0  0
  -14.5820   16.2069  -40.4512 O   0  0  0  0  0  0  0  0  0  0  0  0
   -9.9335   13.7849  -36.1686 O   0  0  0  0  0  0  0  0  0  0  0  0
  -13.9183   13.9394  -39.0735 H   0  0  0  0  0  0  0  0  0  0  0  0
  -12.2932   13.7504  -39.8003 H   0  0  0  0  0  0  0  0  0  0  0  0
  -10.6077   15.7810  -39.6917 H   0  0  0  0  0  0  0  0  0  0  0  0
  -10.9969   16.9632  -38.3965 H   0  0  0  0  0  0  0  0  0  0  0  0
  -14.2041   14.7133  -36.6941 H   0  0  0  0  0  0  0  0  0  0  0  0
  -12.8181   15.6001  -35.9994 H   0  0  0  0  0  0  0  0  0  0  0  0
  -11.7574   12.8297  -36.0551 H   0  0  0  0  0  0  0  0  0  0  0  0
  -11.5724   12.1689  -37.6911 H   0  0  0  0  0  0  0  0  0  0  0  0
  -13.1908   12.3622  -36.9902 H   0  0  0  0  0  0  0  0  0  0  0  0
   -9.7099   16.0525  -34.7409 H   0  0  0  0  0  0  0  0  0  0  0  0
  -10.9218   14.9866  -33.9946 H   0  0  0  0  0  0  0  0  0  0  0  0
   -9.3539   15.2737  -33.2091 H   0  0  0  0  0  0  0  0  0  0  0  0
   -9.0148   11.7905  -34.6590 H   0  0  0  0  0  0  0  0  0  0  0  0
  -10.5126   12.4259  -34.0018 H   0  0  0  0  0  0  0  0  0  0  0  0
   -8.9857   12.7066  -33.1360 H   0  0  0  0  0  0  0  0  0  0  0  0
   -7.3310   13.3148  -35.7414 H   0  0  0  0  0  0  0  0  0  0  0  0
   -7.6050   15.0692  -35.8064 H   0  0  0  0  0  0  0  0  0  0  0  0
   -7.1984   14.2663  -34.2726 H   0  0  0  0  0  0  0  0  0  0  0  0
  -14.9336   15.6455  -39.7276 H   0  0  0  0  0  0  0  0  0  0  0  0
  1  6  1  0  0  0  0
  1 14  2  0  0  0  0
  1 17  1  0  0  0  0
  2 13  1  0  0  0  0
  2 15  2  0  0  0  0
  2 18  1  0  0  0  0
  3  6  1  0  0  0  0
  3  7  1  0  0  0  0
  4  6  1  0  0  0  0
  4 13  1  0  0  0  0
  5  7  1  0  0  0  0
  5 16  1  0  0  0  0
  6 16  1  0  0  0  0
  7  8  1  0  0  0  0
  7 13  1  0  0  0  0
  9 12  1  0  0  0  0
 10 12  1  0  0  0  0
 11 12  1  0  0  0  0
 12 18  1  0  0  0  0
  3 19  1  0  0  0  0
  3 20  1  0  0  0  0
  4 21  1  0  0  0  0
  4 22  1  0  0  0  0
  5 23  1  0  0  0  0
  5 24  1  0  0  0  0
  8 25  1  0  0  0  0
  8 26  1  0  0  0  0
  8 27  1  0  0  0  0
  9 28  1  0  0  0  0
  9 29  1  0  0  0  0
  9 30  1  0  0  0  0
 10 31  1  0  0  0  0
 10 32  1  0  0  0  0
 10 33  1  0  0  0  0
 11 34  1  0  0  0  0
 11 35  1  0  0  0  0
 11 36  1  0  0  0  0
 17 37  1  0  0  0  0
M  END
> <id>
EN300-45274164

> <smiles>
CC(C)(C)OC(=O)N1CC2(CC1(C)CO2)C(=O)O

> <IUPAC Name>
5-[(tert-butoxy)carbonyl]-4-methyl-2-oxa-5-azabicyclo[2.2.1]heptane-1-carboxylic acid

> <Purity>
95

> <URL>
https://www.enaminestore.com/catalog/EN300-45274164

> <ROCS_ShapeQuery>
_x1247relevant_x1083L0AP1_x1305L0BP1_

> <ROCS_TanimotoCombo>
0.856 

> <ROCS_ShapeTanimoto>
0.532 

> <ROCS_ColorTanimoto>
0.324 

> <ROCS_RefTversky>
0.457 

> <ROCS_RefColorTversky>
0.392 

> <ROCS_RefTverskyCombo>
0.849 

> <ROCS_FitTversky>
1.447 

> <ROCS_FitColorTversky>
0.649 

> <ROCS_FitTverskyCombo>
2.096 

> <ROCS_ColorScore>
-8.391

> <ROCS_Overlap>
1348.579

> <ROCS_Rank>
95                  

$$$$
untitled-dbase-127348_2
  -OEChem-06232314393D

 25 26  0     1  0  0  0  0  0999 V2000
  -14.1085   16.0273  -38.6575 C   0  0  0  0  0  0  0  0  0  0  0  0
  -13.1416   15.8291  -39.8254 C   0  0  0  0  0  0  0  0  0  0  0  0
  -12.2124   15.7757  -37.0230 C   0  0  0  0  0  0  0  0  0  0  0  0
  -11.2337   15.6089  -38.1972 C   0  0  2  0  0  0  0  0  0  0  0  0
  -13.4889   15.1433  -37.5774 C   0  0  2  0  0  0  0  0  0  0  0  0
  -12.1076   14.8760  -39.2262 C   0  0  1  0  0  0  0  0  0  0  0  0
  -10.0137   14.7846  -37.7983 C   0  0  1  0  0  0  0  0  0  0  0  0
   -9.2490   15.4413  -36.6616 C   0  0  0  0  0  0  0  0  0  0  0  0
  -10.4416   13.4459  -37.3966 N   0  0  0  0  0  0  0  0  0  0  0  0
  -12.9465   14.0631  -38.3710 O   0  0  0  0  0  0  0  0  0  0  0  0
   -8.8182   16.6720  -37.0199 F   0  0  0  0  0  0  0  0  0  0  0  0
  -10.0110   15.5803  -35.5554 F   0  0  0  0  0  0  0  0  0  0  0  0
   -8.1582   14.7173  -36.3249 F   0  0  0  0  0  0  0  0  0  0  0  0
  -14.2043   17.0734  -38.3526 H   0  0  0  0  0  0  0  0  0  0  0  0
  -15.1006   15.6562  -38.9380 H   0  0  0  0  0  0  0  0  0  0  0  0
  -13.6688   15.3502  -40.6585 H   0  0  0  0  0  0  0  0  0  0  0  0
  -12.7052   16.7648  -40.1863 H   0  0  0  0  0  0  0  0  0  0  0  0
  -11.8688   15.2252  -36.1400 H   0  0  0  0  0  0  0  0  0  0  0  0
  -12.3538   16.8231  -36.7384 H   0  0  0  0  0  0  0  0  0  0  0  0
  -10.8929   16.5779  -38.5785 H   0  0  0  0  0  0  0  0  0  0  0  0
  -14.1909   14.7940  -36.8171 H   0  0  0  0  0  0  0  0  0  0  0  0
  -11.5643   14.2797  -39.9632 H   0  0  0  0  0  0  0  0  0  0  0  0
   -9.3494   14.6944  -38.6653 H   0  0  0  0  0  0  0  0  0  0  0  0
  -10.9202   13.0319  -38.1607 H   0  0  0  0  0  0  0  0  0  0  0  0
   -9.6331   12.9209  -37.1619 H   0  0  0  0  0  0  0  0  0  0  0  0
  1  2  1  0  0  0  0
  1  5  1  0  0  0  0
  2  6  1  0  0  0  0
  3  4  1  0  0  0  0
  3  5  1  0  0  0  0
  4  6  1  0  0  0  0
  4  7  1  0  0  0  0
  5 10  1  0  0  0  0
  6 10  1  0  0  0  0
  7  8  1  0  0  0  0
  7  9  1  0  0  0  0
  8 11  1  0  0  0  0
  8 12  1  0  0  0  0
  8 13  1  0  0  0  0
  1 14  1  0  0  0  0
  1 15  1  0  0  0  0
  2 16  1  0  0  0  0
  2 17  1  0  0  0  0
  3 18  1  0  0  0  0
  3 19  1  0  0  0  0
  4 20  1  0  0  0  0
  5 21  1  0  0  0  0
  6 22  1  0  0  0  0
  7 23  1  0  0  0  0
  9 24  1  0  0  0  0
  9 25  1  0  0  0  0
M  END
> <id>
EN300-1932956

> <smiles>
NC(C1CC2CCC1O2)C(F)(F)F

> <IUPAC Name>
2,2,2-trifluoro-1-{7-oxabicyclo[2.2.1]heptan-2-yl}ethan-1-amine

> <CAS>
2167076-63-1

> <URL>
https://www.enaminestore.com/catalog/EN300-1932956

> <ROCS_ShapeQuery>
_x1247relevant_x1083L0AP1_x1305L0BP1_

> <ROCS_TanimotoCombo>
0.855 

> <ROCS_ShapeTanimoto>
0.466 

> <ROCS_ColorTanimoto>
0.389 

> <ROCS_RefTversky>
0.395 

> <ROCS_RefColorTversky>
0.412 

> <ROCS_RefTverskyCombo>
0.807 

> <ROCS_FitTversky>
1.630 

> <ROCS_FitColorTversky>
0.876 

> <ROCS_FitTverskyCombo>
2.506 

> <ROCS_ColorScore>
-8.739

> <ROCS_Overlap>
1161.734

> <ROCS_Rank>
96                  

$$$$
untitled-dbase-177402_2
  -OEChem-06232314393D

 28 31  0     1  0  0  0  0  0999 V2000
  -11.7177   15.0659  -39.4660 C   0  0  0  0  0  0  0  0  0  0  0  0
  -10.5064   13.4145  -37.1115 C   0  0  0  0  0  0  0  0  0  0  0  0
   -9.8857   15.7280  -37.0280 C   0  0  0  0  0  0  0  0  0  0  0  0
  -12.5413   14.0934  -38.5956 C   0  0  1  0  0  0  0  0  0  0  0  0
  -11.9603   16.2588  -38.5175 C   0  0  2  0  0  0  0  0  0  0  0  0
  -11.8121   14.2011  -37.2310 C   0  0  2  0  0  0  0  0  0  0  0  0
  -11.4073   15.7097  -37.1766 C   0  0  1  0  0  0  0  0  0  0  0  0
   -9.5624   14.3768  -36.3902 C   0  0  0  0  0  0  0  0  0  0  0  0
  -13.8671   14.8301  -38.4349 C   0  0  1  0  0  0  0  0  0  0  0  0
  -13.4796   16.2747  -38.3829 C   0  0  2  0  0  0  0  0  0  0  0  0
   -8.1001   13.9891  -36.5271 C   0  0  0  0  0  0  0  0  0  0  0  0
  -14.2573   15.7468  -39.4614 O   0  0  0  0  0  0  0  0  0  0  0  0
   -7.6261   13.9603  -38.2375 Cl  0  0  0  0  0  0  0  0  0  0  0  0
  -10.6666   14.7879  -39.5779 H   0  0  0  0  0  0  0  0  0  0  0  0
  -12.1435   15.2161  -40.4640 H   0  0  0  0  0  0  0  0  0  0  0  0
  -10.6496   12.4893  -36.5432 H   0  0  0  0  0  0  0  0  0  0  0  0
  -10.1113   13.1309  -38.0936 H   0  0  0  0  0  0  0  0  0  0  0  0
   -9.3846   15.8406  -37.9962 H   0  0  0  0  0  0  0  0  0  0  0  0
   -9.5572   16.5604  -36.3966 H   0  0  0  0  0  0  0  0  0  0  0  0
  -12.6410   13.0812  -38.9912 H   0  0  0  0  0  0  0  0  0  0  0  0
  -11.5335   17.2093  -38.8425 H   0  0  0  0  0  0  0  0  0  0  0  0
  -12.4788   13.9542  -36.3954 H   0  0  0  0  0  0  0  0  0  0  0  0
  -11.8763   16.2001  -36.3145 H   0  0  0  0  0  0  0  0  0  0  0  0
   -9.8255   14.4090  -35.3245 H   0  0  0  0  0  0  0  0  0  0  0  0
  -14.5893   14.4282  -37.7445 H   0  0  0  0  0  0  0  0  0  0  0  0
  -13.9155   16.9359  -37.6531 H   0  0  0  0  0  0  0  0  0  0  0  0
   -7.9259   12.9957  -36.1088 H   0  0  0  0  0  0  0  0  0  0  0  0
   -7.4625   14.7084  -36.0092 H   0  0  0  0  0  0  0  0  0  0  0  0
  1  4  1  0  0  0  0
  1  5  1  0  0  0  0
  2  6  1  0  0  0  0
  2  8  1  0  0  0  0
  3  7  1  0  0  0  0
  3  8  1  0  0  0  0
  4  6  1  0  0  0  0
  4  9  1  0  0  0  0
  5  7  1  0  0  0  0
  5 10  1  0  0  0  0
  6  7  1  0  0  0  0
  8 11  1  0  0  0  0
  9 10  1  0  0  0  0
  9 12  1  0  0  0  0
 10 12  1  0  0  0  0
 11 13  1  0  0  0  0
  1 14  1  0  0  0  0
  1 15  1  0  0  0  0
  2 16  1  0  0  0  0
  2 17  1  0  0  0  0
  3 18  1  0  0  0  0
  3 19  1  0  0  0  0
  4 20  1  0  0  0  0
  5 21  1  0  0  0  0
  6 22  1  0  0  0  0
  7 23  1  0  0  0  0
  8 24  1  0  0  0  0
  9 25  1  0  0  0  0
 10 26  1  0  0  0  0
 11 27  1  0  0  0  0
 11 28  1  0  0  0  0
M  END
> <id>
EN300-8214141

> <smiles>
ClCC1CC2C3CC(C4OC43)C2C1

> <MDLNUMBER>
MFCD24512656

> <IUPAC Name>
4-(chloromethyl)-9-oxatetracyclo[5.3.1.0^{2,6}.0^{8,10}]undecane

> <URL>
https://www.enaminestore.com/catalog/EN300-8214141

> <ROCS_ShapeQuery>
_x1247relevant_x1083L0AP1_x1305L0BP1_

> <ROCS_TanimotoCombo>
0.855 

> <ROCS_ShapeTanimoto>
0.477 

> <ROCS_ColorTanimoto>
0.378 

> <ROCS_RefTversky>
0.401 

> <ROCS_RefColorTversky>
0.520 

> <ROCS_RefTverskyCombo>
0.921 

> <ROCS_FitTversky>
1.663 

> <ROCS_FitColorTversky>
0.581 

> <ROCS_FitTverskyCombo>
2.244 

> <ROCS_ColorScore>
-11.291

> <ROCS_Overlap>
1178.844

> <ROCS_Rank>
97                  

$$$$
untitled-dbase-55873_2
  -OEChem-06232314393D

 29 30  0     0  0  0  0  0  0999 V2000
  -10.5153   14.2711  -36.5843 C   0  0  0  0  0  0  0  0  0  0  0  0
  -10.9608   15.3830  -38.7795 C   0  0  0  0  0  0  0  0  0  0  0  0
  -12.5153   13.6211  -37.9131 C   0  0  0  0  0  0  0  0  0  0  0  0
  -12.4282   15.8659  -36.8066 C   0  0  0  0  0  0  0  0  0  0  0  0
  -12.0613   15.8884  -39.7210 C   0  0  0  0  0  0  0  0  0  0  0  0
  -13.6146   14.1316  -38.8535 C   0  0  0  0  0  0  0  0  0  0  0  0
  -13.5259   16.3735  -37.7502 C   0  0  0  0  0  0  0  0  0  0  0  0
  -11.5852   14.7803  -37.5051 C   0  0  0  0  0  0  0  0  0  0  0  0
  -13.4464   15.6400  -39.0999 C   0  0  0  0  0  0  0  0  0  0  0  0
   -8.7273   12.7319  -36.4502 C   0  0  0  0  0  0  0  0  0  0  0  0
  -10.3434   14.6770  -35.4429 O   0  0  0  0  0  0  0  0  0  0  0  0
  -14.4523   16.1126  -39.9805 O   0  0  0  0  0  0  0  0  0  0  0  0
   -9.7887   13.3074  -37.2186 O   0  0  0  0  0  0  0  0  0  0  0  0
  -10.3444   14.6380  -39.2990 H   0  0  0  0  0  0  0  0  0  0  0  0
  -10.2838   16.2079  -38.5232 H   0  0  0  0  0  0  0  0  0  0  0  0
  -12.9701   13.1603  -37.0267 H   0  0  0  0  0  0  0  0  0  0  0  0
  -11.9450   12.8243  -38.4078 H   0  0  0  0  0  0  0  0  0  0  0  0
  -11.7930   16.7036  -36.4915 H   0  0  0  0  0  0  0  0  0  0  0  0
  -12.8842   15.4719  -35.8892 H   0  0  0  0  0  0  0  0  0  0  0  0
  -11.9224   16.9569  -39.9289 H   0  0  0  0  0  0  0  0  0  0  0  0
  -11.9849   15.3909  -40.6962 H   0  0  0  0  0  0  0  0  0  0  0  0
  -13.5856   13.5839  -39.8042 H   0  0  0  0  0  0  0  0  0  0  0  0
  -14.6042   13.9211  -38.4283 H   0  0  0  0  0  0  0  0  0  0  0  0
  -14.5137   16.2309  -37.2941 H   0  0  0  0  0  0  0  0  0  0  0  0
  -13.4286   17.4564  -37.8993 H   0  0  0  0  0  0  0  0  0  0  0  0
   -8.2121   11.9760  -37.0479 H   0  0  0  0  0  0  0  0  0  0  0  0
   -9.1369   12.2783  -35.5441 H   0  0  0  0  0  0  0  0  0  0  0  0
   -8.0211   13.5186  -36.1743 H   0  0  0  0  0  0  0  0  0  0  0  0
  -15.3076   15.9380  -39.5535 H   0  0  0  0  0  0  0  0  0  0  0  0
  1  8  1  0  0  0  0
  1 11  2  0  0  0  0
  1 13  1  0  0  0  0
  2  5  1  0  0  0  0
  2  8  1  0  0  0  0
  3  6  1  0  0  0  0
  3  8  1  0  0  0  0
  4  7  1  0  0  0  0
  4  8  1  0  0  0  0
  5  9  1  0  0  0  0
  6  9  1  0  0  0  0
  7  9  1  0  0  0  0
  9 12  1  0  0  0  0
 10 13  1  0  0  0  0
  2 14  1  0  0  0  0
  2 15  1  0  0  0  0
  3 16  1  0  0  0  0
  3 17  1  0  0  0  0
  4 18  1  0  0  0  0
  4 19  1  0  0  0  0
  5 20  1  0  0  0  0
  5 21  1  0  0  0  0
  6 22  1  0  0  0  0
  6 23  1  0  0  0  0
  7 24  1  0  0  0  0
  7 25  1  0  0  0  0
 10 26  1  0  0  0  0
 10 27  1  0  0  0  0
 10 28  1  0  0  0  0
 12 29  1  0  0  0  0
M  END
> <id>
EN300-107122

> <smiles>
COC(=O)C1(CCC2(O)CC1)CC2

> <MDLNUMBER>
MFCD22689519

> <IUPAC Name>
methyl 4-hydroxybicyclo[2.2.2]octane-1-carboxylate

> <CAS>
23062-53-5

> <Purity>
95

> <URL>
https://www.enaminestore.com/catalog/EN300-107122

> <MP>
72-74

> <ROCS_ShapeQuery>
_x1247relevant_x1083L0AP1_x1305L0BP1_

> <ROCS_TanimotoCombo>
0.855 

> <ROCS_ShapeTanimoto>
0.475 

> <ROCS_ColorTanimoto>
0.380 

> <ROCS_RefTversky>
0.398 

> <ROCS_RefColorTversky>
0.400 

> <ROCS_RefTverskyCombo>
0.799 

> <ROCS_FitTversky>
1.680 

> <ROCS_FitColorTversky>
0.881 

> <ROCS_FitTverskyCombo>
2.561 

> <ROCS_ColorScore>
-8.487

> <ROCS_Overlap>
1171.429

> <ROCS_Rank>
98                  

$$$$
untitled-dbase-135811_1
  -OEChem-06232314393D

 22 24  0     1  0  0  0  0  0999 V2000
  -12.6101   16.0492  -39.5097 C   0  0  0  0  0  0  0  0  0  0  0  0
  -10.4109   14.7149  -36.8234 C   0  0  0  0  0  0  0  0  0  0  0  0
  -14.0092   15.0972  -37.8663 C   0  0  0  0  0  0  0  0  0  0  0  0
  -12.0702   13.9055  -38.6920 C   0  0  0  0  0  0  0  0  0  0  0  0
  -13.2979   14.7229  -39.2034 C   0  0  2  0  0  0  0  0  0  0  0  0
  -11.9143   16.2877  -38.2205 C   0  0  1  0  0  0  0  0  0  0  0  0
  -12.7837   15.6544  -37.1682 C   0  0  2  0  0  0  0  0  0  0  0  0
  -11.5823   14.9208  -37.6668 C   0  0  2  0  0  0  0  0  0  0  0  0
   -8.0792   14.3400  -36.9045 C   0  0  0  0  0  0  0  0  0  0  0  0
  -12.6001   16.7472  -40.5004 O   0  0  0  0  0  0  0  0  0  0  0  0
  -10.4418   14.6965  -35.6004 O   0  0  0  0  0  0  0  0  0  0  0  0
   -9.3075   14.5518  -37.6077 O   0  0  0  0  0  0  0  0  0  0  0  0
  -14.7803   15.8625  -37.9990 H   0  0  0  0  0  0  0  0  0  0  0  0
  -14.4142   14.2235  -37.3475 H   0  0  0  0  0  0  0  0  0  0  0  0
  -12.3649   12.9603  -38.2260 H   0  0  0  0  0  0  0  0  0  0  0  0
  -11.3255   13.7345  -39.4763 H   0  0  0  0  0  0  0  0  0  0  0  0
  -13.9003   14.2941  -40.0002 H   0  0  0  0  0  0  0  0  0  0  0  0
  -11.3194   17.1596  -38.0129 H   0  0  0  0  0  0  0  0  0  0  0  0
  -12.8704   16.0522  -36.1760 H   0  0  0  0  0  0  0  0  0  0  0  0
   -7.2634   14.2220  -37.6219 H   0  0  0  0  0  0  0  0  0  0  0  0
   -8.1639   13.4453  -36.2825 H   0  0  0  0  0  0  0  0  0  0  0  0
   -7.8798   15.2058  -36.2686 H   0  0  0  0  0  0  0  0  0  0  0  0
  1  5  1  0  0  0  0
  1  6  1  0  0  0  0
  1 10  2  0  0  0  0
  2  8  1  0  0  0  0
  2 11  2  0  0  0  0
  2 12  1  0  0  0  0
  3  5  1  0  0  0  0
  3  7  1  0  0  0  0
  4  5  1  0  0  0  0
  4  8  1  0  0  0  0
  6  7  1  0  0  0  0
  6  8  1  0  0  0  0
  7  8  1  0  0  0  0
  9 12  1  0  0  0  0
  3 13  1  0  0  0  0
  3 14  1  0  0  0  0
  4 15  1  0  0  0  0
  4 16  1  0  0  0  0
  5 17  1  0  0  0  0
  6 18  1  0  0  0  0
  7 19  1  0  0  0  0
  9 20  1  0  0  0  0
  9 21  1  0  0  0  0
  9 22  1  0  0  0  0
M  END
> <id>
EN300-7919086

> <smiles>
COC(=O)C12CC3CC2C1C3=O

> <MDLNUMBER>
MFCD24736699

> <IUPAC Name>
methyl 3-oxotricyclo[2.2.1.0,2,6]heptane-1-carboxylate

> <CAS>
90704-22-6

> <Purity>
95

> <URL>
https://www.enaminestore.com/catalog/EN300-7919086

> <ROCS_ShapeQuery>
_x1247relevant_x1083L0AP1_x1305L0BP1_

> <ROCS_TanimotoCombo>
0.855 

> <ROCS_ShapeTanimoto>
0.482 

> <ROCS_ColorTanimoto>
0.373 

> <ROCS_RefTversky>
0.401 

> <ROCS_RefColorTversky>
0.634 

> <ROCS_RefTverskyCombo>
1.035 

> <ROCS_FitTversky>
1.728 

> <ROCS_FitColorTversky>
0.475 

> <ROCS_FitTverskyCombo>
2.203 

> <ROCS_ColorScore>
-14.115

> <ROCS_Overlap>
1177.712

> <ROCS_Rank>
99                  

$$$$
untitled-dbase-151741_1
  -OEChem-06232314393D

 24 25  0     1  0  0  0  0  0999 V2000
  -13.2820   16.3539  -40.2586 C   0  0  0  0  0  0  0  0  0  0  0  0
  -10.1223   14.9836  -36.6617 C   0  0  0  0  0  0  0  0  0  0  0  0
  -13.3419   16.1790  -37.7158 C   0  0  0  0  0  0  0  0  0  0  0  0
  -11.3083   15.6249  -38.8306 C   0  0  0  0  0  0  0  0  0  0  0  0
  -13.2020   13.8597  -37.6206 C   0  0  0  0  0  0  0  0  0  0  0  0
  -12.6220   15.0960  -36.9313 C   0  0  1  0  0  0  0  0  0  0  0  0
  -12.8274   15.6274  -39.0398 C   0  0  2  0  0  0  0  0  0  0  0  0
   -8.8108   15.1233  -37.3911 C   0  0  0  0  0  0  0  0  0  0  0  0
  -11.2448   15.2382  -37.4191 N   0  0  0  0  0  0  0  0  0  0  0  0
  -12.5448   16.8986  -41.0668 O   0  0  0  0  0  0  0  0  0  0  0  0
  -10.1478   14.6615  -35.4734 O   0  0  0  0  0  0  0  0  0  0  0  0
  -13.2721   14.2579  -39.0192 O   0  0  0  0  0  0  0  0  0  0  0  0
  -14.6341   16.3329  -40.3520 O   0  0  0  0  0  0  0  0  0  0  0  0
  -14.4316   16.1236  -37.6166 H   0  0  0  0  0  0  0  0  0  0  0  0
  -13.0009   17.1959  -37.4943 H   0  0  0  0  0  0  0  0  0  0  0  0
  -10.7882   14.8772  -39.4370 H   0  0  0  0  0  0  0  0  0  0  0  0
  -10.8454   16.6086  -38.9568 H   0  0  0  0  0  0  0  0  0  0  0  0
  -12.5780   12.9661  -37.5240 H   0  0  0  0  0  0  0  0  0  0  0  0
  -14.2184   13.6343  -37.2822 H   0  0  0  0  0  0  0  0  0  0  0  0
  -12.7046   15.1101  -35.8437 H   0  0  0  0  0  0  0  0  0  0  0  0
   -8.4577   16.1450  -37.2955 H   0  0  0  0  0  0  0  0  0  0  0  0
   -8.9579   14.8788  -38.4385 H   0  0  0  0  0  0  0  0  0  0  0  0
   -8.0879   14.4394  -36.9574 H   0  0  0  0  0  0  0  0  0  0  0  0
  -15.0453   15.8460  -39.6062 H   0  0  0  0  0  0  0  0  0  0  0  0
  1  7  1  1  0  0  0
  1 10  2  0  0  0  0
  1 13  1  0  0  0  0
  2  8  1  0  0  0  0
  2  9  1  0  0  0  0
  2 11  2  0  0  0  0
  3  6  1  0  0  0  0
  3  7  1  0  0  0  0
  4  7  1  0  0  0  0
  4  9  1  0  0  0  0
  5  6  1  6  0  0  0
  5 12  1  0  0  0  0
  6  9  1  0  0  0  0
  7 12  1  0  0  0  0
  3 14  1  0  0  0  0
  3 15  1  0  0  0  0
  4 16  1  0  0  0  0
  4 17  1  0  0  0  0
  5 18  1  0  0  0  0
  5 19  1  0  0  0  0
  6 20  1  0  0  0  0
  8 21  1  0  0  0  0
  8 22  1  0  0  0  0
  8 23  1  0  0  0  0
 13 24  1  0  0  0  0
M  END
> <id>
EN300-28271497

> <smiles>
CC(=O)N1C[C@@]2(C[C@H]1CO2)C(=O)O

> <IUPAC Name>
(1S,4S)-5-acetyl-2-oxa-5-azabicyclo[2.2.1]heptane-1-carboxylic acid

> <CAS>
2679805-34-4

> <URL>
https://www.enaminestore.com/catalog/EN300-28271497

> <ROCS_ShapeQuery>
_x1247relevant_x1083L0AP1_x1305L0BP1_

> <ROCS_TanimotoCombo>
0.854 

> <ROCS_ShapeTanimoto>
0.496 

> <ROCS_ColorTanimoto>
0.358 

> <ROCS_RefTversky>
0.413 

> <ROCS_RefColorTversky>
0.412 

> <ROCS_RefTverskyCombo>
0.824 

> <ROCS_FitTversky>
1.689 

> <ROCS_FitColorTversky>
0.734 

> <ROCS_FitTverskyCombo>
2.423 

> <ROCS_ColorScore>
-8.784

> <ROCS_Overlap>
1213.369

> <ROCS_Rank>
100                 

$$$$
untitled-dbase-153040_3
  -OEChem-06232314393D

 26 27  0     1  0  0  0  0  0999 V2000
  -13.3649   16.2402  -40.2865 C   0  0  0  0  0  0  0  0  0  0  0  0
   -9.8659   14.7595  -37.1088 C   0  0  0  0  0  0  0  0  0  0  0  0
  -13.8439   15.3747  -37.4987 C   0  0  0  0  0  0  0  0  0  0  0  0
  -12.0510   13.6687  -37.8565 C   0  0  0  0  0  0  0  0  0  0  0  0
  -12.4980   15.3083  -39.4993 C   0  0  2  0  0  0  0  0  0  0  0  0
  -13.2440   14.3815  -38.5253 C   0  0  2  0  0  0  0  0  0  0  0  0
  -11.6804   15.9562  -38.3809 C   0  0  1  0  0  0  0  0  0  0  0  0
  -12.7736   16.4786  -37.4319 C   0  0  2  0  0  0  0  0  0  0  0  0
   -9.4885   13.4514  -36.4623 C   0  0  0  0  0  0  0  0  0  0  0  0
  -11.0908   14.7706  -37.7408 N   0  0  0  0  0  0  0  0  0  0  0  0
  -14.5869   16.2280  -40.2893 O   0  0  0  0  0  0  0  0  0  0  0  0
   -9.1084   15.7287  -37.0517 O   0  0  0  0  0  0  0  0  0  0  0  0
  -12.6086   17.1059  -41.0047 O   0  0  0  0  0  0  0  0  0  0  0  0
  -12.2961   16.6122  -36.1730 F   0  0  0  0  0  0  0  0  0  0  0  0
  -10.4586   12.5373  -36.6432 F   0  0  0  0  0  0  0  0  0  0  0  0
   -8.3510   12.9695  -36.9948 F   0  0  0  0  0  0  0  0  0  0  0  0
   -9.3001   13.6097  -35.1397 F   0  0  0  0  0  0  0  0  0  0  0  0
  -14.7871   15.7859  -37.8749 H   0  0  0  0  0  0  0  0  0  0  0  0
  -14.0302   14.9129  -36.5243 H   0  0  0  0  0  0  0  0  0  0  0  0
  -12.2810   13.2505  -36.8726 H   0  0  0  0  0  0  0  0  0  0  0  0
  -11.6177   12.8952  -38.4988 H   0  0  0  0  0  0  0  0  0  0  0  0
  -11.8720   14.7559  -40.2107 H   0  0  0  0  0  0  0  0  0  0  0  0
  -13.9794   13.7075  -38.9690 H   0  0  0  0  0  0  0  0  0  0  0  0
  -10.9357   16.7031  -38.6631 H   0  0  0  0  0  0  0  0  0  0  0  0
  -13.1757   17.4452  -37.7515 H   0  0  0  0  0  0  0  0  0  0  0  0
  -11.6490   16.9549  -40.8677 H   0  0  0  0  0  0  0  0  0  0  0  0
  1  5  1  6  0  0  0
  1 11  2  0  0  0  0
  1 13  1  0  0  0  0
  2  9  1  0  0  0  0
  2 10  1  0  0  0  0
  2 12  2  0  0  0  0
  3  6  1  6  0  0  0
  3  8  1  0  0  0  0
  4  6  1  0  0  0  0
  4 10  1  0  0  0  0
  5  6  1  0  0  0  0
  5  7  1  0  0  0  0
  7  8  1  0  0  0  0
  7 10  1  6  0  0  0
  8 14  1  6  0  0  0
  9 15  1  0  0  0  0
  9 16  1  0  0  0  0
  9 17  1  0  0  0  0
  3 18  1  0  0  0  0
  3 19  1  0  0  0  0
  4 20  1  0  0  0  0
  4 21  1  0  0  0  0
  5 22  1  0  0  0  0
  6 23  1  0  0  0  0
  7 24  1  0  0  0  0
  8 25  1  0  0  0  0
 13 26  1  0  0  0  0
M  END
> <id>
EN300-28279669

> <smiles>
OC(=O)[C@@H]1[C@@H]2C[C@@H](F)[C@H]1N(C2)C(=O)C(F)(F)F |&1:3,4,6,8,r|

> <IUPAC Name>
rac-(1R,4R,6S,7S)-6-fluoro-2-(2,2,2-trifluoroacetyl)-2-azabicyclo[2.2.1]heptane-7-carboxylic acid

> <CAS>
2679828-58-9

> <URL>
https://www.enaminestore.com/catalog/EN300-28279669

> <ROCS_ShapeQuery>
_x1247relevant_x1083L0AP1_x1305L0BP1_

> <ROCS_TanimotoCombo>
0.854 

> <ROCS_ShapeTanimoto>
0.523 

> <ROCS_ColorTanimoto>
0.331 

> <ROCS_RefTversky>
0.449 

> <ROCS_RefColorTversky>
0.377 

> <ROCS_RefTverskyCombo>
0.825 

> <ROCS_FitTversky>
1.465 

> <ROCS_FitColorTversky>
0.731 

> <ROCS_FitTverskyCombo>
2.197 

> <ROCS_ColorScore>
-8.011

> <ROCS_Overlap>
1324.209

> <ROCS_Rank>
101                 

$$$$
untitled-dbase-29692_16
  -OEChem-06232314393D

 29 30  0     1  0  0  0  0  0999 V2000
  -13.4929   15.9611  -39.6562 C   0  0  0  0  0  0  0  0  0  0  0  0
  -14.3361   15.4506  -38.4973 C   0  0  0  0  0  0  0  0  0  0  0  0
  -11.1881   16.1366  -38.6152 C   0  0  0  0  0  0  0  0  0  0  0  0
  -12.6339   15.2613  -36.6285 C   0  0  0  0  0  0  0  0  0  0  0  0
  -12.1352   15.2747  -39.4743 C   0  0  1  0  0  0  0  0  0  0  0  0
  -13.4037   14.5067  -37.7309 C   0  0  2  0  0  0  0  0  0  0  0  0
  -11.3230   15.9255  -37.0941 C   0  0  0  0  0  0  0  0  0  0  0  0
  -12.9582   12.9772  -39.5829 C   0  0  0  0  0  0  0  0  0  0  0  0
  -12.4289   14.0382  -38.7303 N   0  0  0  0  0  0  0  0  0  0  0  0
  -10.1362   13.5549  -37.4203 N   0  0  0  0  0  0  0  0  0  0  0  0
   -8.7136   15.6408  -36.9280 O   0  0  0  0  0  0  0  0  0  0  0  0
  -10.1600   14.6651  -35.1000 O   0  0  0  0  0  0  0  0  0  0  0  0
   -9.9286   14.9733  -36.4989 S   0  0  0  0  0  0  0  0  0  0  0  0
  -13.9522   15.6611  -40.6062 H   0  0  0  0  0  0  0  0  0  0  0  0
  -13.4161   17.0540  -39.6603 H   0  0  0  0  0  0  0  0  0  0  0  0
  -14.7162   16.2668  -37.8731 H   0  0  0  0  0  0  0  0  0  0  0  0
  -15.2042   14.9036  -38.8859 H   0  0  0  0  0  0  0  0  0  0  0  0
  -10.1433   15.9343  -38.9256 H   0  0  0  0  0  0  0  0  0  0  0  0
  -11.3473   17.2081  -38.8447 H   0  0  0  0  0  0  0  0  0  0  0  0
  -13.2876   16.0337  -36.1787 H   0  0  0  0  0  0  0  0  0  0  0  0
  -12.4183   14.5567  -35.8002 H   0  0  0  0  0  0  0  0  0  0  0  0
  -11.6492   15.0830  -40.4471 H   0  0  0  0  0  0  0  0  0  0  0  0
  -13.9665   13.6803  -37.2624 H   0  0  0  0  0  0  0  0  0  0  0  0
  -11.2044   16.8916  -36.5823 H   0  0  0  0  0  0  0  0  0  0  0  0
  -13.1577   12.0826  -38.9746 H   0  0  0  0  0  0  0  0  0  0  0  0
  -13.8929   13.3168  -40.0530 H   0  0  0  0  0  0  0  0  0  0  0  0
  -12.2226   12.7331  -40.3635 H   0  0  0  0  0  0  0  0  0  0  0  0
  -10.9244   12.9402  -37.1825 H   0  0  0  0  0  0  0  0  0  0  0  0
   -9.9391   13.6047  -38.4274 H   0  0  0  0  0  0  0  0  0  0  0  0
  1  2  1  0  0  0  0
  1  5  1  0  0  0  0
  2  6  1  0  0  0  0
  3  5  1  0  0  0  0
  3  7  1  0  0  0  0
  4  6  1  0  0  0  0
  4  7  1  0  0  0  0
  5  9  1  0  0  0  0
  6  9  1  0  0  0  0
  7 13  1  0  0  0  0
  8  9  1  0  0  0  0
 10 13  1  0  0  0  0
 11 13  2  0  0  0  0
 12 13  2  0  0  0  0
  1 14  1  0  0  0  0
  1 15  1  0  0  0  0
  2 16  1  0  0  0  0
  2 17  1  0  0  0  0
  3 18  1  0  0  0  0
  3 19  1  0  0  0  0
  4 20  1  0  0  0  0
  4 21  1  0  0  0  0
  5 22  1  0  0  0  0
  6 23  1  0  0  0  0
  7 24  1  0  0  0  0
  8 25  1  0  0  0  0
  8 26  1  0  0  0  0
  8 27  1  0  0  0  0
 10 28  1  0  0  0  0
 10 29  1  0  0  0  0
M  END
> <id>
EN300-679780

> <smiles>
CN1C2CCC1CC(C2)S(=O)(=O)N

> <MDLNUMBER>
MFCD16671935

> <IUPAC Name>
8-methyl-8-azabicyclo[3.2.1]octane-3-sulfonamide

> <CAS>
1249068-15-2

> <URL>
https://www.enaminestore.com/catalog/EN300-679780

> <ROCS_ShapeQuery>
_x1247relevant_x1083L0AP1_x1305L0BP1_

> <ROCS_TanimotoCombo>
0.854 

> <ROCS_ShapeTanimoto>
0.462 

> <ROCS_ColorTanimoto>
0.392 

> <ROCS_RefTversky>
0.388 

> <ROCS_RefColorTversky>
0.420 

> <ROCS_RefTverskyCombo>
0.808 

> <ROCS_FitTversky>
1.696 

> <ROCS_FitColorTversky>
0.856 

> <ROCS_FitTverskyCombo>
2.551 

> <ROCS_ColorScore>
-8.926

> <ROCS_Overlap>
1140.875

> <ROCS_Rank>
102                 

$$$$
untitled-dbase-121849_4
  -OEChem-06232314393D

 29 31  0     1  0  0  0  0  0999 V2000
  -14.0980   16.0004  -38.8924 C   0  0  0  0  0  0  0  0  0  0  0  0
  -12.8849   15.9407  -39.8214 C   0  0  0  0  0  0  0  0  0  0  0  0
  -12.6062   15.6631  -36.8948 C   0  0  0  0  0  0  0  0  0  0  0  0
   -8.8174   15.1019  -37.6618 C   0  0  0  0  0  0  0  0  0  0  0  0
   -9.8479   15.0653  -35.7775 C   0  0  0  0  0  0  0  0  0  0  0  0
  -11.3818   15.6356  -37.8245 C   0  0  2  0  0  0  0  0  0  0  0  0
  -13.6911   15.0425  -37.7750 C   0  0  2  0  0  0  0  0  0  0  0  0
  -11.9632   14.9713  -39.0817 C   0  0  1  0  0  0  0  0  0  0  0  0
  -10.2723   14.7892  -37.2392 C   0  0  0  0  0  0  0  0  0  0  0  0
   -8.6618   15.8901  -36.3372 C   0  0  0  0  0  0  0  0  0  0  0  0
  -10.5145   13.3545  -37.3960 N   0  0  0  0  0  0  0  0  0  0  0  0
  -12.9288   14.0571  -38.5091 O   0  0  0  0  0  0  0  0  0  0  0  0
   -7.4833   15.7283  -35.6957 F   0  0  0  0  0  0  0  0  0  0  0  0
   -8.8772   17.2228  -36.4289 F   0  0  0  0  0  0  0  0  0  0  0  0
  -14.3148   17.0105  -38.5333 H   0  0  0  0  0  0  0  0  0  0  0  0
  -14.9816   15.6251  -39.4209 H   0  0  0  0  0  0  0  0  0  0  0  0
  -13.1863   15.5229  -40.7886 H   0  0  0  0  0  0  0  0  0  0  0  0
  -12.4280   16.9193  -39.9954 H   0  0  0  0  0  0  0  0  0  0  0  0
  -12.4426   15.0498  -36.0015 H   0  0  0  0  0  0  0  0  0  0  0  0
  -12.8649   16.6763  -36.5713 H   0  0  0  0  0  0  0  0  0  0  0  0
   -8.1468   14.2511  -37.7844 H   0  0  0  0  0  0  0  0  0  0  0  0
   -8.7322   15.7411  -38.5443 H   0  0  0  0  0  0  0  0  0  0  0  0
  -10.5549   15.6767  -35.2109 H   0  0  0  0  0  0  0  0  0  0  0  0
   -9.5743   14.2007  -35.1727 H   0  0  0  0  0  0  0  0  0  0  0  0
  -11.0027   16.6420  -38.0329 H   0  0  0  0  0  0  0  0  0  0  0  0
  -14.5261   14.6025  -37.2254 H   0  0  0  0  0  0  0  0  0  0  0  0
  -11.2399   14.4571  -39.7191 H   0  0  0  0  0  0  0  0  0  0  0  0
  -10.7583   12.9831  -36.5089 H   0  0  0  0  0  0  0  0  0  0  0  0
  -11.2571   13.2356  -38.0431 H   0  0  0  0  0  0  0  0  0  0  0  0
  1  2  1  0  0  0  0
  1  7  1  0  0  0  0
  2  8  1  0  0  0  0
  3  6  1  0  0  0  0
  3  7  1  0  0  0  0
  4  9  1  0  0  0  0
  4 10  1  0  0  0  0
  5  9  1  0  0  0  0
  5 10  1  0  0  0  0
  6  8  1  0  0  0  0
  6  9  1  0  0  0  0
  7 12  1  0  0  0  0
  8 12  1  0  0  0  0
  9 11  1  0  0  0  0
 10 13  1  0  0  0  0
 10 14  1  0  0  0  0
  1 15  1  0  0  0  0
  1 16  1  0  0  0  0
  2 17  1  0  0  0  0
  2 18  1  0  0  0  0
  3 19  1  0  0  0  0
  3 20  1  0  0  0  0
  4 21  1  0  0  0  0
  4 22  1  0  0  0  0
  5 23  1  0  0  0  0
  5 24  1  0  0  0  0
  6 25  1  0  0  0  0
  7 26  1  0  0  0  0
  8 27  1  0  0  0  0
 11 28  1  0  0  0  0
 11 29  1  0  0  0  0
M  END
> <id>
EN300-1970395

> <smiles>
NC1(CC(F)(F)C1)C2CC3CCC2O3

> <IUPAC Name>
3,3-difluoro-1-{7-oxabicyclo[2.2.1]heptan-2-yl}cyclobutan-1-amine

> <CAS>
2229229-06-3

> <URL>
https://www.enaminestore.com/catalog/EN300-1970395

> <ROCS_ShapeQuery>
_x1247relevant_x1083L0AP1_x1305L0BP1_

> <ROCS_TanimotoCombo>
0.854 

> <ROCS_ShapeTanimoto>
0.467 

> <ROCS_ColorTanimoto>
0.387 

> <ROCS_RefTversky>
0.401 

> <ROCS_RefColorTversky>
0.422 

> <ROCS_RefTverskyCombo>
0.823 

> <ROCS_FitTversky>
1.549 

> <ROCS_FitColorTversky>
0.822 

> <ROCS_FitTverskyCombo>
2.371 

> <ROCS_ColorScore>
-8.987

> <ROCS_Overlap>
1179.042

> <ROCS_Rank>
103                 

$$$$
untitled-dbase-151533_0
  -OEChem-06232314393D

 28 29  0     1  0  0  0  0  0999 V2000
  -12.1471   15.7086  -35.5590 C   0  0  0  0  0  0  0  0  0  0  0  0
   -9.7406   14.9395  -37.4131 C   0  0  0  0  0  0  0  0  0  0  0  0
  -13.2792   14.2036  -37.9649 C   0  0  0  0  0  0  0  0  0  0  0  0
  -11.9816   15.9776  -37.0240 C   0  0  2  0  0  0  0  0  0  0  0  0
  -13.2944   15.7372  -37.7951 C   0  0  1  0  0  0  0  0  0  0  0  0
  -11.8938   14.2042  -38.6065 C   0  0  1  0  0  0  0  0  0  0  0  0
  -13.0771   16.2091  -39.2528 C   0  0  1  0  0  0  0  0  0  0  0  0
  -12.1665   15.1041  -39.8350 C   0  0  1  0  0  0  0  0  0  0  0  0
   -9.1075   13.5724  -37.4296 C   0  0  0  0  0  0  0  0  0  0  0  0
  -11.1064   14.9720  -37.6207 N   0  0  0  0  0  0  0  0  0  0  0  0
  -12.8467   16.3626  -34.8000 O   0  0  0  0  0  0  0  0  0  0  0  0
   -9.0538   15.9398  -37.1978 O   0  0  0  0  0  0  0  0  0  0  0  0
  -11.4093   14.6354  -35.1831 O   0  0  0  0  0  0  0  0  0  0  0  0
  -14.3136   16.2227  -39.9537 O   0  0  0  0  0  0  0  0  0  0  0  0
  -10.9820   15.6508  -40.3823 O   0  0  0  0  0  0  0  0  0  0  0  0
  -10.0354   12.6239  -37.6515 F   0  0  0  0  0  0  0  0  0  0  0  0
   -8.1805   13.4900  -38.4011 F   0  0  0  0  0  0  0  0  0  0  0  0
   -8.5091   13.3092  -36.2537 F   0  0  0  0  0  0  0  0  0  0  0  0
  -13.3168   13.6536  -37.0197 H   0  0  0  0  0  0  0  0  0  0  0  0
  -14.0692   13.8324  -38.6267 H   0  0  0  0  0  0  0  0  0  0  0  0
  -11.5691   16.9825  -37.1578 H   0  0  0  0  0  0  0  0  0  0  0  0
  -14.2005   16.1157  -37.3160 H   0  0  0  0  0  0  0  0  0  0  0  0
  -11.4599   13.2328  -38.8459 H   0  0  0  0  0  0  0  0  0  0  0  0
  -12.6359   17.2102  -39.3100 H   0  0  0  0  0  0  0  0  0  0  0  0
  -12.6783   14.5366  -40.6223 H   0  0  0  0  0  0  0  0  0  0  0  0
  -11.5028   14.4438  -34.2255 H   0  0  0  0  0  0  0  0  0  0  0  0
  -14.1207   16.5241  -40.8563 H   0  0  0  0  0  0  0  0  0  0  0  0
  -10.5627   16.1827  -39.6841 H   0  0  0  0  0  0  0  0  0  0  0  0
  1  4  1  0  0  0  0
  1 11  2  0  0  0  0
  1 13  1  0  0  0  0
  2  9  1  0  0  0  0
  2 10  1  0  0  0  0
  2 12  2  0  0  0  0
  3  5  1  0  0  0  0
  3  6  1  0  0  0  0
  4  5  1  0  0  0  0
  4 10  1  0  0  0  0
  5  7  1  0  0  0  0
  6  8  1  0  0  0  0
  6 10  1  0  0  0  0
  7  8  1  0  0  0  0
  7 14  1  0  0  0  0
  8 15  1  0  0  0  0
  9 16  1  0  0  0  0
  9 17  1  0  0  0  0
  9 18  1  0  0  0  0
  3 19  1  0  0  0  0
  3 20  1  0  0  0  0
  4 21  1  0  0  0  0
  5 22  1  0  0  0  0
  6 23  1  0  0  0  0
  7 24  1  0  0  0  0
  8 25  1  0  0  0  0
 13 26  1  0  0  0  0
 14 27  1  0  0  0  0
 15 28  1  0  0  0  0
M  END
> <id>
EN300-28282955

> <smiles>
OC1C(O)C2CC1C(N2C(=O)C(F)(F)F)C(=O)O

> <IUPAC Name>
5,6-dihydroxy-2-(2,2,2-trifluoroacetyl)-2-azabicyclo[2.2.1]heptane-3-carboxylic acid

> <CAS>
2680546-85-2

> <URL>
https://www.enaminestore.com/catalog/EN300-28282955

> <ROCS_ShapeQuery>
_x1247relevant_x1083L0AP1_x1305L0BP1_

> <ROCS_TanimotoCombo>
0.854 

> <ROCS_ShapeTanimoto>
0.502 

> <ROCS_ColorTanimoto>
0.351 

> <ROCS_RefTversky>
0.441 

> <ROCS_RefColorTversky>
0.439 

> <ROCS_RefTverskyCombo>
0.880 

> <ROCS_FitTversky>
1.379 

> <ROCS_FitColorTversky>
0.639 

> <ROCS_FitTverskyCombo>
2.018 

> <ROCS_ColorScore>
-9.418

> <ROCS_Overlap>
1303.598

> <ROCS_Rank>
104                 

$$$$
untitled-dbase-145098_62
  -OEChem-06232314393D

 23 24  0     1  0  0  0  0  0999 V2000
  -10.4542   14.8704  -36.3904 C   0  0  0  0  0  0  0  0  0  0  0  0
  -11.7484   16.3800  -38.7914 C   0  0  0  0  0  0  0  0  0  0  0  0
  -11.8177   14.8176  -37.0028 C   0  0  1  0  0  0  0  0  0  0  0  0
  -12.3484   16.2041  -37.3982 C   0  0  2  0  0  0  0  0  0  0  0  0
  -12.3097   15.0488  -39.2805 C   0  0  2  0  0  0  0  0  0  0  0  0
  -13.8471   16.0987  -37.7536 C   0  0  1  0  0  0  0  0  0  0  0  0
  -13.8200   15.1819  -38.9905 C   0  0  1  0  0  0  0  0  0  0  0  0
  -11.7331   14.1013  -38.2968 N   0  0  0  0  0  0  0  0  0  0  0  0
  -10.1526   14.3930  -35.3066 O   0  0  0  0  0  0  0  0  0  0  0  0
   -9.5896   15.5261  -37.2027 O   0  0  0  0  0  0  0  0  0  0  0  0
  -14.6015   15.5398  -36.6953 O   0  0  0  0  0  0  0  0  0  0  0  0
  -14.4557   15.8195  -40.0904 O   0  0  0  0  0  0  0  0  0  0  0  0
  -12.1476   17.2462  -39.3298 H   0  0  0  0  0  0  0  0  0  0  0  0
  -10.6544   16.4241  -38.8014 H   0  0  0  0  0  0  0  0  0  0  0  0
  -12.4731   14.2826  -36.3089 H   0  0  0  0  0  0  0  0  0  0  0  0
  -12.1146   16.9976  -36.6846 H   0  0  0  0  0  0  0  0  0  0  0  0
  -12.0662   14.8044  -40.3174 H   0  0  0  0  0  0  0  0  0  0  0  0
  -14.2596   17.0878  -37.9865 H   0  0  0  0  0  0  0  0  0  0  0  0
  -14.3033   14.2115  -38.8306 H   0  0  0  0  0  0  0  0  0  0  0  0
  -10.7558   13.9383  -38.5410 H   0  0  0  0  0  0  0  0  0  0  0  0
   -8.6887   15.5732  -36.8173 H   0  0  0  0  0  0  0  0  0  0  0  0
  -15.5278   15.5055  -36.9904 H   0  0  0  0  0  0  0  0  0  0  0  0
  -14.3007   15.2582  -40.8672 H   0  0  0  0  0  0  0  0  0  0  0  0
  1  3  1  0  0  0  0
  1  9  2  0  0  0  0
  1 10  1  0  0  0  0
  2  4  1  0  0  0  0
  2  5  1  0  0  0  0
  3  4  1  0  0  0  0
  3  8  1  0  0  0  0
  4  6  1  0  0  0  0
  5  7  1  0  0  0  0
  5  8  1  0  0  0  0
  6  7  1  0  0  0  0
  6 11  1  0  0  0  0
  7 12  1  0  0  0  0
  2 13  1  0  0  0  0
  2 14  1  0  0  0  0
  3 15  1  0  0  0  0
  4 16  1  0  0  0  0
  5 17  1  0  0  0  0
  6 18  1  0  0  0  0
  7 19  1  0  0  0  0
  8 20  1  0  0  0  0
 10 21  1  0  0  0  0
 11 22  1  0  0  0  0
 12 23  1  0  0  0  0
M  END
> <id>
EN300-27727915

> <smiles>
OC1C(O)C2CC1NC2C(=O)O

> <IUPAC Name>
5,6-dihydroxy-2-azabicyclo[2.2.1]heptane-3-carboxylic acid

> <CAS>
2580186-46-3

> <URL>
https://www.enaminestore.com/catalog/EN300-27727915

> <ROCS_ShapeQuery>
_x1247relevant_x1083L0AP1_x1305L0BP1_

> <ROCS_TanimotoCombo>
0.854 

> <ROCS_ShapeTanimoto>
0.449 

> <ROCS_ColorTanimoto>
0.405 

> <ROCS_RefTversky>
0.380 

> <ROCS_RefColorTversky>
0.498 

> <ROCS_RefTverskyCombo>
0.878 

> <ROCS_FitTversky>
1.679 

> <ROCS_FitColorTversky>
0.683 

> <ROCS_FitTverskyCombo>
2.363 

> <ROCS_ColorScore>
-10.721

> <ROCS_Overlap>
1116.500

> <ROCS_Rank>
105                 

$$$$
untitled-dbase-125771_0
  -OEChem-06232314393D

 36 39  0     0  0  0  0  0  0999 V2000
   -8.2930   16.2792  -34.6443 C   0  0  0  0  0  0  0  0  0  0  0  0
   -8.0888   16.3676  -36.0062 C   0  0  0  0  0  0  0  0  0  0  0  0
   -9.4272   15.5971  -34.2537 C   0  0  0  0  0  0  0  0  0  0  0  0
   -9.9916   15.1943  -36.4185 C   0  0  0  0  0  0  0  0  0  0  0  0
  -13.9310   15.9341  -39.0644 C   0  0  0  0  0  0  0  0  0  0  0  0
  -11.9517   14.6092  -39.8318 C   0  0  0  0  0  0  0  0  0  0  0  0
  -13.3719   13.7623  -37.9541 C   0  0  0  0  0  0  0  0  0  0  0  0
  -11.6111   16.7595  -38.6101 C   0  0  0  0  0  0  0  0  0  0  0  0
  -13.0360   15.9098  -36.7260 C   0  0  0  0  0  0  0  0  0  0  0  0
  -13.3843   14.5160  -39.2905 C   0  0  0  0  0  0  0  0  0  0  0  0
  -13.0426   16.6796  -38.0563 C   0  0  0  0  0  0  0  0  0  0  0  0
  -11.0350   15.3381  -38.8173 C   0  0  0  0  0  0  0  0  0  0  0  0
  -12.4616   14.4876  -36.9311 C   0  0  0  0  0  0  0  0  0  0  0  0
  -10.9711   14.5686  -37.4417 C   0  0  0  0  0  0  0  0  0  0  0  0
   -8.9208   15.8348  -36.9250 N   0  0  0  0  0  0  0  0  0  0  0  0
  -10.3016   15.0400  -35.1171 N   0  0  0  0  0  0  0  0  0  0  0  0
  -10.4899   13.1941  -37.6975 N   0  0  0  0  0  0  0  0  0  0  0  0
   -7.6088   16.7162  -33.9296 H   0  0  0  0  0  0  0  0  0  0  0  0
   -7.2242   16.8849  -36.4083 H   0  0  0  0  0  0  0  0  0  0  0  0
   -9.6715   15.4760  -33.2037 H   0  0  0  0  0  0  0  0  0  0  0  0
  -13.9625   16.4812  -40.0146 H   0  0  0  0  0  0  0  0  0  0  0  0
  -14.9617   15.8846  -38.6921 H   0  0  0  0  0  0  0  0  0  0  0  0
  -11.5647   13.6094  -40.0578 H   0  0  0  0  0  0  0  0  0  0  0  0
  -11.9514   15.1557  -40.7840 H   0  0  0  0  0  0  0  0  0  0  0  0
  -14.3930   13.7042  -37.5554 H   0  0  0  0  0  0  0  0  0  0  0  0
  -13.0489   12.7265  -38.1032 H   0  0  0  0  0  0  0  0  0  0  0  0
  -11.6133   17.2993  -39.5656 H   0  0  0  0  0  0  0  0  0  0  0  0
  -10.9769   17.3425  -37.9323 H   0  0  0  0  0  0  0  0  0  0  0  0
  -12.4582   16.4603  -35.9747 H   0  0  0  0  0  0  0  0  0  0  0  0
  -14.0586   15.8409  -36.3336 H   0  0  0  0  0  0  0  0  0  0  0  0
  -14.0201   13.9877  -40.0095 H   0  0  0  0  0  0  0  0  0  0  0  0
  -13.4356   17.6902  -37.8978 H   0  0  0  0  0  0  0  0  0  0  0  0
  -10.0267   15.4268  -39.2423 H   0  0  0  0  0  0  0  0  0  0  0  0
  -12.4990   13.9517  -35.9736 H   0  0  0  0  0  0  0  0  0  0  0  0
   -9.5709   13.2564  -38.0616 H   0  0  0  0  0  0  0  0  0  0  0  0
  -10.4988   12.7042  -36.8367 H   0  0  0  0  0  0  0  0  0  0  0  0
  1  2  2  0  0  0  0
  1  3  1  0  0  0  0
  2 15  1  0  0  0  0
  3 16  2  0  0  0  0
  4 14  1  0  0  0  0
  4 15  2  0  0  0  0
  4 16  1  0  0  0  0
  5 10  1  0  0  0  0
  5 11  1  0  0  0  0
  6 10  1  0  0  0  0
  6 12  1  0  0  0  0
  7 10  1  0  0  0  0
  7 13  1  0  0  0  0
  8 11  1  0  0  0  0
  8 12  1  0  0  0  0
  9 11  1  0  0  0  0
  9 13  1  0  0  0  0
 12 14  1  0  0  0  0
 13 14  1  0  0  0  0
 14 17  1  0  0  0  0
  1 18  1  0  0  0  0
  2 19  1  0  0  0  0
  3 20  1  0  0  0  0
  5 21  1  0  0  0  0
  5 22  1  0  0  0  0
  6 23  1  0  0  0  0
  6 24  1  0  0  0  0
  7 25  1  0  0  0  0
  7 26  1  0  0  0  0
  8 27  1  0  0  0  0
  8 28  1  0  0  0  0
  9 29  1  0  0  0  0
  9 30  1  0  0  0  0
 10 31  1  0  0  0  0
 11 32  1  0  0  0  0
 12 33  1  0  0  0  0
 13 34  1  0  0  0  0
 17 35  1  0  0  0  0
 17 36  1  0  0  0  0
M  END
> <id>
EN300-1122023

> <smiles>
NC1(C2CC3CC(C2)CC1C3)C=4N=CC=CN4

> <IUPAC Name>
2-(pyrimidin-2-yl)adamantan-2-amine

> <CAS>
2138014-42-1

> <URL>
https://www.enaminestore.com/catalog/EN300-1122023

> <ROCS_ShapeQuery>
_x1247relevant_x1083L0AP1_x1305L0BP1_

> <ROCS_TanimotoCombo>
0.853 

> <ROCS_ShapeTanimoto>
0.489 

> <ROCS_ColorTanimoto>
0.365 

> <ROCS_RefTversky>
0.428 

> <ROCS_RefColorTversky>
0.417 

> <ROCS_RefTverskyCombo>
0.845 

> <ROCS_FitTversky>
1.405 

> <ROCS_FitColorTversky>
0.744 

> <ROCS_FitTverskyCombo>
2.149 

> <ROCS_ColorScore>
-8.895

> <ROCS_Overlap>
1264.027

> <ROCS_Rank>
106                 

$$$$
untitled-dbase-153385_25
  -OEChem-06232314393D

 26 27  0     1  0  0  0  0  0999 V2000
  -13.2260   16.5600  -40.2756 C   0  0  0  0  0  0  0  0  0  0  0  0
  -10.2225   14.7704  -36.7145 C   0  0  0  0  0  0  0  0  0  0  0  0
  -13.2398   13.6970  -37.8342 C   0  0  0  0  0  0  0  0  0  0  0  0
  -13.3027   14.2171  -39.2864 C   0  0  0  0  0  0  0  0  0  0  0  0
  -13.4178   16.0617  -37.7857 C   0  0  0  0  0  0  0  0  0  0  0  0
  -11.3190   15.6892  -38.8279 C   0  0  0  0  0  0  0  0  0  0  0  0
  -12.7087   14.9180  -37.0625 C   0  0  2  0  0  0  0  0  0  0  0  0
  -12.8228   15.6766  -39.1459 C   0  0  2  0  0  0  0  0  0  0  0  0
   -9.0128   14.3196  -37.4923 C   0  0  0  0  0  0  0  0  0  0  0  0
  -11.3150   15.1218  -37.4781 N   0  0  0  0  0  0  0  0  0  0  0  0
  -12.4531   17.1616  -41.0064 O   0  0  0  0  0  0  0  0  0  0  0  0
  -10.1992   14.8055  -35.4837 O   0  0  0  0  0  0  0  0  0  0  0  0
  -14.5761   16.6110  -40.3851 O   0  0  0  0  0  0  0  0  0  0  0  0
   -9.2601   14.3555  -38.8141 F   0  0  0  0  0  0  0  0  0  0  0  0
   -7.9606   15.1186  -37.2388 F   0  0  0  0  0  0  0  0  0  0  0  0
   -8.6745   13.0604  -37.1610 F   0  0  0  0  0  0  0  0  0  0  0  0
  -14.2426   13.4225  -37.4880 H   0  0  0  0  0  0  0  0  0  0  0  0
  -12.5909   12.8206  -37.7362 H   0  0  0  0  0  0  0  0  0  0  0  0
  -12.6609   13.6323  -39.9541 H   0  0  0  0  0  0  0  0  0  0  0  0
  -14.3275   14.1562  -39.6706 H   0  0  0  0  0  0  0  0  0  0  0  0
  -14.5110   15.9946  -37.7518 H   0  0  0  0  0  0  0  0  0  0  0  0
  -13.1079   17.0543  -37.4393 H   0  0  0  0  0  0  0  0  0  0  0  0
  -10.7226   15.0714  -39.5061 H   0  0  0  0  0  0  0  0  0  0  0  0
  -10.8962   16.6989  -38.7899 H   0  0  0  0  0  0  0  0  0  0  0  0
  -12.8328   14.8634  -35.9794 H   0  0  0  0  0  0  0  0  0  0  0  0
  -14.8621   17.1902  -41.1234 H   0  0  0  0  0  0  0  0  0  0  0  0
  1  8  1  0  0  0  0
  1 11  2  0  0  0  0
  1 13  1  0  0  0  0
  2  9  1  0  0  0  0
  2 10  1  0  0  0  0
  2 12  2  0  0  0  0
  3  4  1  0  0  0  0
  3  7  1  0  0  0  0
  4  8  1  0  0  0  0
  5  7  1  0  0  0  0
  5  8  1  0  0  0  0
  6  8  1  0  0  0  0
  6 10  1  0  0  0  0
  7 10  1  0  0  0  0
  9 14  1  0  0  0  0
  9 15  1  0  0  0  0
  9 16  1  0  0  0  0
  3 17  1  0  0  0  0
  3 18  1  0  0  0  0
  4 19  1  0  0  0  0
  4 20  1  0  0  0  0
  5 21  1  0  0  0  0
  5 22  1  0  0  0  0
  6 23  1  0  0  0  0
  6 24  1  0  0  0  0
  7 25  1  0  0  0  0
 13 26  1  0  0  0  0
M  END
> <id>
EN300-28276262

> <smiles>
OC(=O)C1(CCC2C1)CN2C(=O)C(F)(F)F

> <IUPAC Name>
2-(2,2,2-trifluoroacetyl)-2-azabicyclo[2.2.1]heptane-4-carboxylic acid

> <CAS>
2680720-49-2

> <URL>
https://www.enaminestore.com/catalog/EN300-28276262

> <ROCS_ShapeQuery>
_x1247relevant_x1083L0AP1_x1305L0BP1_

> <ROCS_TanimotoCombo>
0.853 

> <ROCS_ShapeTanimoto>
0.529 

> <ROCS_ColorTanimoto>
0.325 

> <ROCS_RefTversky>
0.446 

> <ROCS_RefColorTversky>
0.371 

> <ROCS_RefTverskyCombo>
0.818 

> <ROCS_FitTversky>
1.535 

> <ROCS_FitColorTversky>
0.721 

> <ROCS_FitTverskyCombo>
2.256 

> <ROCS_ColorScore>
-7.900

> <ROCS_Overlap>
1316.160

> <ROCS_Rank>
107                 

$$$$
untitled-dbase-147362_15
  -OEChem-06232314393D

 27 28  0     1  0  0  0  0  0999 V2000
   -9.8457   15.2339  -36.4526 C   0  0  0  0  0  0  0  0  0  0  0  0
  -12.9393   14.6013  -39.7852 C   0  0  0  0  0  0  0  0  0  0  0  0
  -13.7478   14.1038  -38.5794 C   0  0  0  0  0  0  0  0  0  0  0  0
  -13.2972   16.4293  -38.2998 C   0  0  0  0  0  0  0  0  0  0  0  0
  -10.9305   15.7062  -38.6360 C   0  0  0  0  0  0  0  0  0  0  0  0
  -12.3034   14.8833  -36.6111 C   0  0  0  0  0  0  0  0  0  0  0  0
  -12.2928   15.9130  -39.3245 C   0  0  1  0  0  0  0  0  0  0  0  0
  -13.5382   15.1608  -37.4883 C   0  0  2  0  0  0  0  0  0  0  0  0
  -10.9588   14.8059  -37.3760 C   0  0  0  0  0  0  0  0  0  0  0  0
  -10.6151   13.4248  -37.7212 N   0  0  0  0  0  0  0  0  0  0  0  0
   -8.7856   15.7245  -36.8116 O   0  0  0  0  0  0  0  0  0  0  0  0
  -10.1784   14.9977  -35.1600 O   0  0  0  0  0  0  0  0  0  0  0  0
  -12.2126   13.8679  -40.1463 H   0  0  0  0  0  0  0  0  0  0  0  0
  -13.6269   14.7994  -40.6172 H   0  0  0  0  0  0  0  0  0  0  0  0
  -14.8091   14.0665  -38.8564 H   0  0  0  0  0  0  0  0  0  0  0  0
  -13.4745   13.0940  -38.2612 H   0  0  0  0  0  0  0  0  0  0  0  0
  -12.9122   17.2594  -37.6987 H   0  0  0  0  0  0  0  0  0  0  0  0
  -14.2205   16.7610  -38.7901 H   0  0  0  0  0  0  0  0  0  0  0  0
  -10.2129   15.3080  -39.3705 H   0  0  0  0  0  0  0  0  0  0  0  0
  -10.5349   16.6995  -38.3688 H   0  0  0  0  0  0  0  0  0  0  0  0
  -12.2489   15.6762  -35.8482 H   0  0  0  0  0  0  0  0  0  0  0  0
  -12.4668   13.9551  -36.0419 H   0  0  0  0  0  0  0  0  0  0  0  0
  -12.1749   16.6121  -40.1621 H   0  0  0  0  0  0  0  0  0  0  0  0
  -14.4253   15.2521  -36.8493 H   0  0  0  0  0  0  0  0  0  0  0  0
  -11.3575   12.8384  -37.4232 H   0  0  0  0  0  0  0  0  0  0  0  0
  -10.4985   13.3732  -38.7048 H   0  0  0  0  0  0  0  0  0  0  0  0
   -9.4654   15.2680  -34.5429 H   0  0  0  0  0  0  0  0  0  0  0  0
  1  9  1  0  0  0  0
  1 11  2  0  0  0  0
  1 12  1  0  0  0  0
  2  3  1  0  0  0  0
  2  7  1  0  0  0  0
  3  8  1  6  0  0  0
  4  7  1  0  0  0  0
  4  8  1  0  0  0  0
  5  7  1  6  0  0  0
  5  9  1  0  0  0  0
  6  8  1  0  0  0  0
  6  9  1  0  0  0  0
  9 10  1  6  0  0  0
  2 13  1  0  0  0  0
  2 14  1  0  0  0  0
  3 15  1  0  0  0  0
  3 16  1  0  0  0  0
  4 17  1  0  0  0  0
  4 18  1  0  0  0  0
  5 19  1  0  0  0  0
  5 20  1  0  0  0  0
  6 21  1  0  0  0  0
  6 22  1  0  0  0  0
  7 23  1  0  0  0  0
  8 24  1  0  0  0  0
 10 25  1  0  0  0  0
 10 26  1  0  0  0  0
 12 27  1  0  0  0  0
M  END
> <id>
EN300-7847501

> <smiles>
N[C@]1(C[C@H]2CC[C@H](C2)C1)C(=O)O

> <IUPAC Name>
(1R,3R,5S)-3-aminobicyclo[3.2.1]octane-3-carboxylic acid

> <CAS>
81639-48-7

> <URL>
https://www.enaminestore.com/catalog/EN300-7847501

> <ROCS_ShapeQuery>
_x1247relevant_x1083L0AP1_x1305L0BP1_

> <ROCS_TanimotoCombo>
0.853 

> <ROCS_ShapeTanimoto>
0.461 

> <ROCS_ColorTanimoto>
0.392 

> <ROCS_RefTversky>
0.386 

> <ROCS_RefColorTversky>
0.431 

> <ROCS_RefTverskyCombo>
0.817 

> <ROCS_FitTversky>
1.733 

> <ROCS_FitColorTversky>
0.811 

> <ROCS_FitTverskyCombo>
2.545 

> <ROCS_ColorScore>
-9.183

> <ROCS_Overlap>
1133.621

> <ROCS_Rank>
108                 

$$$$
untitled-dbase-28913_3
  -OEChem-06232314393D

 30 32  0     1  0  0  0  0  0999 V2000
  -10.5163   16.5401  -39.9262 C   0  0  0  0  0  0  0  0  0  0  0  0
   -9.9187   15.1846  -39.7540 C   0  0  0  0  0  0  0  0  0  0  0  0
  -13.0313   14.0608  -37.2610 C   0  0  0  0  0  0  0  0  0  0  0  0
  -13.6966   16.3585  -37.8686 C   0  0  0  0  0  0  0  0  0  0  0  0
  -12.8017   13.7170  -38.7417 C   0  0  0  0  0  0  0  0  0  0  0  0
  -13.5939   15.9111  -39.3392 C   0  0  0  0  0  0  0  0  0  0  0  0
  -12.7002   15.5478  -37.0174 C   0  0  0  0  0  0  0  0  0  0  0  0
  -11.2806   15.8810  -37.5344 C   0  0  2  0  0  0  0  0  0  0  0  0
  -11.2100   15.5294  -39.0213 C   0  0  0  0  0  0  0  0  0  0  0  0
  -12.5008   14.9297  -39.5310 N   0  0  0  0  0  0  0  0  0  0  0  0
  -10.1526   13.4774  -37.4971 N   0  0  0  0  0  0  0  0  0  0  0  0
   -8.7443   15.5692  -36.9894 O   0  0  0  0  0  0  0  0  0  0  0  0
  -10.4604   14.7898  -35.3063 O   0  0  0  0  0  0  0  0  0  0  0  0
  -10.0340   14.9719  -36.6841 S   0  0  0  0  0  0  0  0  0  0  0  0
   -9.9958   17.3756  -39.4727 H   0  0  0  0  0  0  0  0  0  0  0  0
  -10.9619   16.7727  -40.8864 H   0  0  0  0  0  0  0  0  0  0  0  0
   -9.9759   14.4998  -40.5931 H   0  0  0  0  0  0  0  0  0  0  0  0
   -8.9758   15.1320  -39.2263 H   0  0  0  0  0  0  0  0  0  0  0  0
  -14.0780   13.8682  -36.9941 H   0  0  0  0  0  0  0  0  0  0  0  0
  -12.4220   13.4114  -36.6234 H   0  0  0  0  0  0  0  0  0  0  0  0
  -13.4781   17.4298  -37.7847 H   0  0  0  0  0  0  0  0  0  0  0  0
  -14.7193   16.2059  -37.5041 H   0  0  0  0  0  0  0  0  0  0  0  0
  -11.9766   13.0004  -38.8377 H   0  0  0  0  0  0  0  0  0  0  0  0
  -13.6846   13.2116  -39.1517 H   0  0  0  0  0  0  0  0  0  0  0  0
  -14.5456   15.4759  -39.6688 H   0  0  0  0  0  0  0  0  0  0  0  0
  -13.4300   16.7845  -39.9821 H   0  0  0  0  0  0  0  0  0  0  0  0
  -12.8029   15.7950  -35.9555 H   0  0  0  0  0  0  0  0  0  0  0  0
  -11.0605   16.9413  -37.3662 H   0  0  0  0  0  0  0  0  0  0  0  0
   -9.3859   13.2150  -38.1287 H   0  0  0  0  0  0  0  0  0  0  0  0
  -10.5549   12.6843  -36.9824 H   0  0  0  0  0  0  0  0  0  0  0  0
  1  2  1  0  0  0  0
  1  9  1  0  0  0  0
  2  9  1  0  0  0  0
  3  5  1  0  0  0  0
  3  7  1  0  0  0  0
  4  6  1  0  0  0  0
  4  7  1  0  0  0  0
  5 10  1  0  0  0  0
  6 10  1  0  0  0  0
  7  8  1  0  0  0  0
  8  9  1  0  0  0  0
  8 14  1  0  0  0  0
  9 10  1  0  0  0  0
 11 14  1  0  0  0  0
 12 14  2  0  0  0  0
 13 14  2  0  0  0  0
  1 15  1  0  0  0  0
  1 16  1  0  0  0  0
  2 17  1  0  0  0  0
  2 18  1  0  0  0  0
  3 19  1  0  0  0  0
  3 20  1  0  0  0  0
  4 21  1  0  0  0  0
  4 22  1  0  0  0  0
  5 23  1  0  0  0  0
  5 24  1  0  0  0  0
  6 25  1  0  0  0  0
  6 26  1  0  0  0  0
  7 27  1  0  0  0  0
  8 28  1  0  0  0  0
 11 29  1  0  0  0  0
 11 30  1  0  0  0  0
M  END
> <id>
EN300-680002

> <smiles>
NS(=O)(=O)C1C2CCN(CC2)C31CC3

> <IUPAC Name>
1-azaspiro[bicyclo[2.2.2]octane-2,1'-cyclopropane]-3-sulfonamide

> <CAS>
2138165-56-5

> <URL>
https://www.enaminestore.com/catalog/EN300-680002

> <ROCS_ShapeQuery>
_x1247relevant_x1083L0AP1_x1305L0BP1_

> <ROCS_TanimotoCombo>
0.853 

> <ROCS_ShapeTanimoto>
0.487 

> <ROCS_ColorTanimoto>
0.366 

> <ROCS_RefTversky>
0.409 

> <ROCS_RefColorTversky>
0.402 

> <ROCS_RefTverskyCombo>
0.811 

> <ROCS_FitTversky>
1.650 

> <ROCS_FitColorTversky>
0.802 

> <ROCS_FitTverskyCombo>
2.452 

> <ROCS_ColorScore>
-8.550

> <ROCS_Overlap>
1202.161

> <ROCS_Rank>
109                 

$$$$
untitled-dbase-170285_10
  -OEChem-06232314393D

 28 30  0     0  0  0  0  0  0999 V2000
  -13.2729   15.4020  -37.4026 C   0  0  0  0  0  0  0  0  0  0  0  0
  -12.9517   14.1184  -39.0852 C   0  0  0  0  0  0  0  0  0  0  0  0
  -11.8373   15.9370  -38.8982 C   0  0  0  0  0  0  0  0  0  0  0  0
   -9.7548   13.8588  -38.0262 C   0  0  0  0  0  0  0  0  0  0  0  0
  -10.7206   14.6149  -35.9523 C   0  0  0  0  0  0  0  0  0  0  0  0
   -8.9493   15.1546  -38.0916 C   0  0  0  0  0  0  0  0  0  0  0  0
   -9.8926   15.8933  -36.0649 C   0  0  0  0  0  0  0  0  0  0  0  0
  -12.0352   14.7051  -37.9971 C   0  0  0  0  0  0  0  0  0  0  0  0
  -13.3388   15.6003  -38.9273 C   0  0  0  0  0  0  0  0  0  0  0  0
  -10.9981   13.9929  -37.2545 N   0  0  0  0  0  0  0  0  0  0  0  0
  -14.3376   16.2844  -39.6406 N   0  0  0  0  0  0  0  0  0  0  0  0
   -8.6806   15.6393  -36.7757 O   0  0  0  0  0  0  0  0  0  0  0  0
  -14.0378   14.7693  -36.9411 H   0  0  0  0  0  0  0  0  0  0  0  0
  -13.1057   16.2890  -36.7834 H   0  0  0  0  0  0  0  0  0  0  0  0
  -12.4871   13.8146  -40.0287 H   0  0  0  0  0  0  0  0  0  0  0  0
  -13.6865   13.3675  -38.7778 H   0  0  0  0  0  0  0  0  0  0  0  0
  -11.5380   16.8736  -38.4171 H   0  0  0  0  0  0  0  0  0  0  0  0
  -11.2694   15.8005  -39.8241 H   0  0  0  0  0  0  0  0  0  0  0  0
   -9.9869   13.5304  -39.0602 H   0  0  0  0  0  0  0  0  0  0  0  0
   -9.1181   13.0609  -37.5861 H   0  0  0  0  0  0  0  0  0  0  0  0
  -10.1860   13.8962  -35.2937 H   0  0  0  0  0  0  0  0  0  0  0  0
  -11.6743   14.8520  -35.4371 H   0  0  0  0  0  0  0  0  0  0  0  0
   -7.9880   14.9708  -38.5815 H   0  0  0  0  0  0  0  0  0  0  0  0
   -9.4732   15.9277  -38.6666 H   0  0  0  0  0  0  0  0  0  0  0  0
  -10.4502   16.6939  -36.5659 H   0  0  0  0  0  0  0  0  0  0  0  0
   -9.6237   16.2511  -35.0661 H   0  0  0  0  0  0  0  0  0  0  0  0
  -15.2453   15.8636  -39.4940 H   0  0  0  0  0  0  0  0  0  0  0  0
  -14.3965   17.2512  -39.3504 H   0  0  0  0  0  0  0  0  0  0  0  0
  1  8  1  0  0  0  0
  1  9  1  0  0  0  0
  2  8  1  0  0  0  0
  2  9  1  0  0  0  0
  3  8  1  0  0  0  0
  3  9  1  0  0  0  0
  4  6  1  0  0  0  0
  4 10  1  0  0  0  0
  5  7  1  0  0  0  0
  5 10  1  0  0  0  0
  6 12  1  0  0  0  0
  7 12  1  0  0  0  0
  8 10  1  6  0  0  0
  9 11  1  6  0  0  0
  1 13  1  0  0  0  0
  1 14  1  0  0  0  0
  2 15  1  0  0  0  0
  2 16  1  0  0  0  0
  3 17  1  0  0  0  0
  3 18  1  0  0  0  0
  4 19  1  0  0  0  0
  4 20  1  0  0  0  0
  5 21  1  0  0  0  0
  5 22  1  0  0  0  0
  6 23  1  0  0  0  0
  6 24  1  0  0  0  0
  7 25  1  0  0  0  0
  7 26  1  0  0  0  0
 11 27  1  0  0  0  0
 11 28  1  0  0  0  0
M  END
> <id>
EN300-37374107

> <smiles>
Cl.N[C@]1(C[C@]2(C1)N3CCOCC3)C2

> <IUPAC Name>
3-(morpholin-4-yl)bicyclo[1.1.1]pentan-1-amine hydrochloride

> <CAS>
2108596-96-7

> <URL>
https://www.enaminestore.com/catalog/EN300-37374107

> <ROCS_ShapeQuery>
_x1247relevant_x1083L0AP1_x1305L0BP1_

> <ROCS_TanimotoCombo>
0.853 

> <ROCS_ShapeTanimoto>
0.466 

> <ROCS_ColorTanimoto>
0.387 

> <ROCS_RefTversky>
0.389 

> <ROCS_RefColorTversky>
0.449 

> <ROCS_RefTverskyCombo>
0.838 

> <ROCS_FitTversky>
1.723 

> <ROCS_FitColorTversky>
0.740 

> <ROCS_FitTverskyCombo>
2.462 

> <ROCS_ColorScore>
-9.594

> <ROCS_Overlap>
1144.201

> <ROCS_Rank>
110                 

$$$$
untitled-dbase-169793_10
  -OEChem-06232314393D

 28 30  0     0  0  0  0  0  0999 V2000
  -13.2729   15.4020  -37.4026 C   0  0  0  0  0  0  0  0  0  0  0  0
  -12.9517   14.1184  -39.0852 C   0  0  0  0  0  0  0  0  0  0  0  0
  -11.8373   15.9370  -38.8982 C   0  0  0  0  0  0  0  0  0  0  0  0
   -9.7548   13.8588  -38.0262 C   0  0  0  0  0  0  0  0  0  0  0  0
  -10.7206   14.6149  -35.9523 C   0  0  0  0  0  0  0  0  0  0  0  0
   -8.9493   15.1546  -38.0916 C   0  0  0  0  0  0  0  0  0  0  0  0
   -9.8926   15.8933  -36.0649 C   0  0  0  0  0  0  0  0  0  0  0  0
  -12.0352   14.7051  -37.9971 C   0  0  0  0  0  0  0  0  0  0  0  0
  -13.3388   15.6003  -38.9273 C   0  0  0  0  0  0  0  0  0  0  0  0
  -10.9981   13.9929  -37.2545 N   0  0  0  0  0  0  0  0  0  0  0  0
  -14.3376   16.2844  -39.6406 N   0  0  0  0  0  0  0  0  0  0  0  0
   -8.6806   15.6393  -36.7757 O   0  0  0  0  0  0  0  0  0  0  0  0
  -14.0378   14.7693  -36.9411 H   0  0  0  0  0  0  0  0  0  0  0  0
  -13.1057   16.2890  -36.7834 H   0  0  0  0  0  0  0  0  0  0  0  0
  -12.4871   13.8146  -40.0287 H   0  0  0  0  0  0  0  0  0  0  0  0
  -13.6865   13.3675  -38.7778 H   0  0  0  0  0  0  0  0  0  0  0  0
  -11.5380   16.8736  -38.4171 H   0  0  0  0  0  0  0  0  0  0  0  0
  -11.2694   15.8005  -39.8241 H   0  0  0  0  0  0  0  0  0  0  0  0
   -9.9869   13.5304  -39.0602 H   0  0  0  0  0  0  0  0  0  0  0  0
   -9.1181   13.0609  -37.5861 H   0  0  0  0  0  0  0  0  0  0  0  0
  -10.1860   13.8962  -35.2937 H   0  0  0  0  0  0  0  0  0  0  0  0
  -11.6743   14.8520  -35.4371 H   0  0  0  0  0  0  0  0  0  0  0  0
   -7.9880   14.9708  -38.5815 H   0  0  0  0  0  0  0  0  0  0  0  0
   -9.4732   15.9277  -38.6666 H   0  0  0  0  0  0  0  0  0  0  0  0
  -10.4502   16.6939  -36.5659 H   0  0  0  0  0  0  0  0  0  0  0  0
   -9.6237   16.2511  -35.0661 H   0  0  0  0  0  0  0  0  0  0  0  0
  -15.2453   15.8636  -39.4940 H   0  0  0  0  0  0  0  0  0  0  0  0
  -14.3965   17.2512  -39.3504 H   0  0  0  0  0  0  0  0  0  0  0  0
  1  8  1  0  0  0  0
  1  9  1  0  0  0  0
  2  8  1  0  0  0  0
  2  9  1  0  0  0  0
  3  8  1  0  0  0  0
  3  9  1  0  0  0  0
  4  6  1  0  0  0  0
  4 10  1  0  0  0  0
  5  7  1  0  0  0  0
  5 10  1  0  0  0  0
  6 12  1  0  0  0  0
  7 12  1  0  0  0  0
  8 10  1  6  0  0  0
  9 11  1  6  0  0  0
  1 13  1  0  0  0  0
  1 14  1  0  0  0  0
  2 15  1  0  0  0  0
  2 16  1  0  0  0  0
  3 17  1  0  0  0  0
  3 18  1  0  0  0  0
  4 19  1  0  0  0  0
  4 20  1  0  0  0  0
  5 21  1  0  0  0  0
  5 22  1  0  0  0  0
  6 23  1  0  0  0  0
  6 24  1  0  0  0  0
  7 25  1  0  0  0  0
  7 26  1  0  0  0  0
 11 27  1  0  0  0  0
 11 28  1  0  0  0  0
M  END
> <id>
EN300-37374071

> <smiles>
Cl.Cl.N[C@]1(C[C@]2(C1)N3CCOCC3)C2

> <IUPAC Name>
3-(morpholin-4-yl)bicyclo[1.1.1]pentan-1-amine dihydrochloride

> <CAS>
2514758-67-7

> <URL>
https://www.enaminestore.com/catalog/EN300-37374071

> <ROCS_ShapeQuery>
_x1247relevant_x1083L0AP1_x1305L0BP1_

> <ROCS_TanimotoCombo>
0.853 

> <ROCS_ShapeTanimoto>
0.466 

> <ROCS_ColorTanimoto>
0.387 

> <ROCS_RefTversky>
0.389 

> <ROCS_RefColorTversky>
0.449 

> <ROCS_RefTverskyCombo>
0.838 

> <ROCS_FitTversky>
1.723 

> <ROCS_FitColorTversky>
0.740 

> <ROCS_FitTverskyCombo>
2.462 

> <ROCS_ColorScore>
-9.594

> <ROCS_Overlap>
1144.201

> <ROCS_Rank>
111                 

$$$$
untitled-dbase-138960_10
  -OEChem-06232314393D

 28 30  0     0  0  0  0  0  0999 V2000
  -13.2729   15.4020  -37.4026 C   0  0  0  0  0  0  0  0  0  0  0  0
  -12.9517   14.1184  -39.0852 C   0  0  0  0  0  0  0  0  0  0  0  0
  -11.8373   15.9370  -38.8982 C   0  0  0  0  0  0  0  0  0  0  0  0
   -9.7548   13.8588  -38.0262 C   0  0  0  0  0  0  0  0  0  0  0  0
  -10.7206   14.6149  -35.9523 C   0  0  0  0  0  0  0  0  0  0  0  0
   -8.9493   15.1546  -38.0916 C   0  0  0  0  0  0  0  0  0  0  0  0
   -9.8926   15.8933  -36.0649 C   0  0  0  0  0  0  0  0  0  0  0  0
  -12.0352   14.7051  -37.9971 C   0  0  0  0  0  0  0  0  0  0  0  0
  -13.3388   15.6003  -38.9273 C   0  0  0  0  0  0  0  0  0  0  0  0
  -10.9981   13.9929  -37.2545 N   0  0  0  0  0  0  0  0  0  0  0  0
  -14.3376   16.2844  -39.6406 N   0  0  0  0  0  0  0  0  0  0  0  0
   -8.6806   15.6393  -36.7757 O   0  0  0  0  0  0  0  0  0  0  0  0
  -14.0378   14.7693  -36.9411 H   0  0  0  0  0  0  0  0  0  0  0  0
  -13.1057   16.2890  -36.7834 H   0  0  0  0  0  0  0  0  0  0  0  0
  -12.4871   13.8146  -40.0287 H   0  0  0  0  0  0  0  0  0  0  0  0
  -13.6865   13.3675  -38.7778 H   0  0  0  0  0  0  0  0  0  0  0  0
  -11.5380   16.8736  -38.4171 H   0  0  0  0  0  0  0  0  0  0  0  0
  -11.2694   15.8005  -39.8241 H   0  0  0  0  0  0  0  0  0  0  0  0
   -9.9869   13.5304  -39.0602 H   0  0  0  0  0  0  0  0  0  0  0  0
   -9.1181   13.0609  -37.5861 H   0  0  0  0  0  0  0  0  0  0  0  0
  -10.1860   13.8962  -35.2937 H   0  0  0  0  0  0  0  0  0  0  0  0
  -11.6743   14.8520  -35.4371 H   0  0  0  0  0  0  0  0  0  0  0  0
   -7.9880   14.9708  -38.5815 H   0  0  0  0  0  0  0  0  0  0  0  0
   -9.4732   15.9277  -38.6666 H   0  0  0  0  0  0  0  0  0  0  0  0
  -10.4502   16.6939  -36.5659 H   0  0  0  0  0  0  0  0  0  0  0  0
   -9.6237   16.2511  -35.0661 H   0  0  0  0  0  0  0  0  0  0  0  0
  -15.2453   15.8636  -39.4940 H   0  0  0  0  0  0  0  0  0  0  0  0
  -14.3965   17.2512  -39.3504 H   0  0  0  0  0  0  0  0  0  0  0  0
  1  8  1  0  0  0  0
  1  9  1  0  0  0  0
  2  8  1  0  0  0  0
  2  9  1  0  0  0  0
  3  8  1  0  0  0  0
  3  9  1  0  0  0  0
  4  6  1  0  0  0  0
  4 10  1  0  0  0  0
  5  7  1  0  0  0  0
  5 10  1  0  0  0  0
  6 12  1  0  0  0  0
  7 12  1  0  0  0  0
  8 10  1  6  0  0  0
  9 11  1  6  0  0  0
  1 13  1  0  0  0  0
  1 14  1  0  0  0  0
  2 15  1  0  0  0  0
  2 16  1  0  0  0  0
  3 17  1  0  0  0  0
  3 18  1  0  0  0  0
  4 19  1  0  0  0  0
  4 20  1  0  0  0  0
  5 21  1  0  0  0  0
  5 22  1  0  0  0  0
  6 23  1  0  0  0  0
  6 24  1  0  0  0  0
  7 25  1  0  0  0  0
  7 26  1  0  0  0  0
 11 27  1  0  0  0  0
 11 28  1  0  0  0  0
M  END
> <id>
EN300-28320811

> <smiles>
N[C@]1(C[C@]2(C1)N3CCOCC3)C2

> <IUPAC Name>
3-(morpholin-4-yl)bicyclo[1.1.1]pentan-1-amine

> <URL>
https://www.enaminestore.com/catalog/EN300-28320811

> <ROCS_ShapeQuery>
_x1247relevant_x1083L0AP1_x1305L0BP1_

> <ROCS_TanimotoCombo>
0.853 

> <ROCS_ShapeTanimoto>
0.466 

> <ROCS_ColorTanimoto>
0.387 

> <ROCS_RefTversky>
0.389 

> <ROCS_RefColorTversky>
0.449 

> <ROCS_RefTverskyCombo>
0.838 

> <ROCS_FitTversky>
1.723 

> <ROCS_FitColorTversky>
0.740 

> <ROCS_FitTverskyCombo>
2.462 

> <ROCS_ColorScore>
-9.594

> <ROCS_Overlap>
1144.201

> <ROCS_Rank>
112                 

$$$$
untitled-dbase-158690_9
  -OEChem-06232314393D

 28 30  0     0  0  0  0  0  0999 V2000
  -12.9488   14.1199  -39.0881 C   0  0  0  0  0  0  0  0  0  0  0  0
  -11.8379   15.9394  -38.8961 C   0  0  0  0  0  0  0  0  0  0  0  0
  -13.2738   15.3983  -37.4023 C   0  0  0  0  0  0  0  0  0  0  0  0
   -9.7534   13.8617  -38.0300 C   0  0  0  0  0  0  0  0  0  0  0  0
  -10.7187   14.6101  -35.9531 C   0  0  0  0  0  0  0  0  0  0  0  0
   -8.9490   15.1585  -38.0915 C   0  0  0  0  0  0  0  0  0  0  0  0
   -9.8919   15.8896  -36.0619 C   0  0  0  0  0  0  0  0  0  0  0  0
  -12.0345   14.7059  -37.9968 C   0  0  0  0  0  0  0  0  0  0  0  0
  -13.3388   15.6004  -38.9267 C   0  0  0  0  0  0  0  0  0  0  0  0
  -10.9964   13.9922  -37.2571 N   0  0  0  0  0  0  0  0  0  0  0  0
  -14.3382   16.2842  -39.6395 N   0  0  0  0  0  0  0  0  0  0  0  0
   -8.6801   15.6391  -36.7742 O   0  0  0  0  0  0  0  0  0  0  0  0
  -12.4827   13.8190  -40.0317 H   0  0  0  0  0  0  0  0  0  0  0  0
  -13.6823   13.3668  -38.7830 H   0  0  0  0  0  0  0  0  0  0  0  0
  -11.5411   16.8759  -38.4135 H   0  0  0  0  0  0  0  0  0  0  0  0
  -11.2694   15.8056  -39.8220 H   0  0  0  0  0  0  0  0  0  0  0  0
  -14.0376   14.7627  -36.9428 H   0  0  0  0  0  0  0  0  0  0  0  0
  -13.1093   16.2844  -36.7809 H   0  0  0  0  0  0  0  0  0  0  0  0
   -9.9857   13.5366  -39.0650 H   0  0  0  0  0  0  0  0  0  0  0  0
   -9.1157   13.0630  -37.5929 H   0  0  0  0  0  0  0  0  0  0  0  0
  -10.1830   13.8897  -35.2971 H   0  0  0  0  0  0  0  0  0  0  0  0
  -11.6723   14.8447  -35.4365 H   0  0  0  0  0  0  0  0  0  0  0  0
   -7.9879   14.9772  -38.5826 H   0  0  0  0  0  0  0  0  0  0  0  0
   -9.4740   15.9330  -38.6637 H   0  0  0  0  0  0  0  0  0  0  0  0
  -10.4505   16.6914  -36.5599 H   0  0  0  0  0  0  0  0  0  0  0  0
   -9.6228   16.2443  -35.0620 H   0  0  0  0  0  0  0  0  0  0  0  0
  -14.1510   16.2740  -40.6331 H   0  0  0  0  0  0  0  0  0  0  0  0
  -15.2452   15.8618  -39.4933 H   0  0  0  0  0  0  0  0  0  0  0  0
  1  8  1  0  0  0  0
  1  9  1  0  0  0  0
  2  8  1  0  0  0  0
  2  9  1  0  0  0  0
  3  8  1  0  0  0  0
  3  9  1  0  0  0  0
  4  6  1  0  0  0  0
  4 10  1  0  0  0  0
  5  7  1  0  0  0  0
  5 10  1  0  0  0  0
  6 12  1  0  0  0  0
  7 12  1  0  0  0  0
  8 10  1  0  0  0  0
  9 11  1  0  0  0  0
  1 13  1  0  0  0  0
  1 14  1  0  0  0  0
  2 15  1  0  0  0  0
  2 16  1  0  0  0  0
  3 17  1  0  0  0  0
  3 18  1  0  0  0  0
  4 19  1  0  0  0  0
  4 20  1  0  0  0  0
  5 21  1  0  0  0  0
  5 22  1  0  0  0  0
  6 23  1  0  0  0  0
  6 24  1  0  0  0  0
  7 25  1  0  0  0  0
  7 26  1  0  0  0  0
 11 27  1  0  0  0  0
 11 28  1  0  0  0  0
M  END
> <id>
EN300-21838496

> <smiles>
Cl.Cl.NC1(CC2(C1)N3CCOCC3)C2

> <MDLNUMBER>
MFCD29060072

> <IUPAC Name>
3-(morpholin-4-yl)bicyclo[1.1.1]pentan-1-amine dihydrochloride

> <CAS>
2514758-67-7

> <Purity>
95

> <URL>
https://www.enaminestore.com/catalog/EN300-21838496

> <ROCS_ShapeQuery>
_x1247relevant_x1083L0AP1_x1305L0BP1_

> <ROCS_TanimotoCombo>
0.853 

> <ROCS_ShapeTanimoto>
0.465 

> <ROCS_ColorTanimoto>
0.388 

> <ROCS_RefTversky>
0.389 

> <ROCS_RefColorTversky>
0.449 

> <ROCS_RefTverskyCombo>
0.838 

> <ROCS_FitTversky>
1.723 

> <ROCS_FitColorTversky>
0.740 

> <ROCS_FitTverskyCombo>
2.462 

> <ROCS_ColorScore>
-9.595

> <ROCS_Overlap>
1144.052

> <ROCS_Rank>
113                 

$$$$
untitled-dbase-156038_9
  -OEChem-06232314393D

 28 30  0     0  0  0  0  0  0999 V2000
  -12.9488   14.1199  -39.0881 C   0  0  0  0  0  0  0  0  0  0  0  0
  -11.8379   15.9394  -38.8961 C   0  0  0  0  0  0  0  0  0  0  0  0
  -13.2738   15.3983  -37.4023 C   0  0  0  0  0  0  0  0  0  0  0  0
   -9.7534   13.8617  -38.0300 C   0  0  0  0  0  0  0  0  0  0  0  0
  -10.7187   14.6101  -35.9531 C   0  0  0  0  0  0  0  0  0  0  0  0
   -8.9490   15.1585  -38.0915 C   0  0  0  0  0  0  0  0  0  0  0  0
   -9.8919   15.8896  -36.0619 C   0  0  0  0  0  0  0  0  0  0  0  0
  -12.0345   14.7059  -37.9968 C   0  0  0  0  0  0  0  0  0  0  0  0
  -13.3388   15.6004  -38.9267 C   0  0  0  0  0  0  0  0  0  0  0  0
  -10.9964   13.9922  -37.2571 N   0  0  0  0  0  0  0  0  0  0  0  0
  -14.3382   16.2842  -39.6395 N   0  0  0  0  0  0  0  0  0  0  0  0
   -8.6801   15.6391  -36.7742 O   0  0  0  0  0  0  0  0  0  0  0  0
  -12.4827   13.8190  -40.0317 H   0  0  0  0  0  0  0  0  0  0  0  0
  -13.6823   13.3668  -38.7830 H   0  0  0  0  0  0  0  0  0  0  0  0
  -11.5411   16.8759  -38.4135 H   0  0  0  0  0  0  0  0  0  0  0  0
  -11.2694   15.8056  -39.8220 H   0  0  0  0  0  0  0  0  0  0  0  0
  -14.0376   14.7627  -36.9428 H   0  0  0  0  0  0  0  0  0  0  0  0
  -13.1093   16.2844  -36.7809 H   0  0  0  0  0  0  0  0  0  0  0  0
   -9.9857   13.5366  -39.0650 H   0  0  0  0  0  0  0  0  0  0  0  0
   -9.1157   13.0630  -37.5929 H   0  0  0  0  0  0  0  0  0  0  0  0
  -10.1830   13.8897  -35.2971 H   0  0  0  0  0  0  0  0  0  0  0  0
  -11.6723   14.8447  -35.4365 H   0  0  0  0  0  0  0  0  0  0  0  0
   -7.9879   14.9772  -38.5826 H   0  0  0  0  0  0  0  0  0  0  0  0
   -9.4740   15.9330  -38.6637 H   0  0  0  0  0  0  0  0  0  0  0  0
  -10.4505   16.6914  -36.5599 H   0  0  0  0  0  0  0  0  0  0  0  0
   -9.6228   16.2443  -35.0620 H   0  0  0  0  0  0  0  0  0  0  0  0
  -14.1510   16.2740  -40.6331 H   0  0  0  0  0  0  0  0  0  0  0  0
  -15.2452   15.8618  -39.4933 H   0  0  0  0  0  0  0  0  0  0  0  0
  1  8  1  0  0  0  0
  1  9  1  0  0  0  0
  2  8  1  0  0  0  0
  2  9  1  0  0  0  0
  3  8  1  0  0  0  0
  3  9  1  0  0  0  0
  4  6  1  0  0  0  0
  4 10  1  0  0  0  0
  5  7  1  0  0  0  0
  5 10  1  0  0  0  0
  6 12  1  0  0  0  0
  7 12  1  0  0  0  0
  8 10  1  0  0  0  0
  9 11  1  0  0  0  0
  1 13  1  0  0  0  0
  1 14  1  0  0  0  0
  2 15  1  0  0  0  0
  2 16  1  0  0  0  0
  3 17  1  0  0  0  0
  3 18  1  0  0  0  0
  4 19  1  0  0  0  0
  4 20  1  0  0  0  0
  5 21  1  0  0  0  0
  5 22  1  0  0  0  0
  6 23  1  0  0  0  0
  6 24  1  0  0  0  0
  7 25  1  0  0  0  0
  7 26  1  0  0  0  0
 11 27  1  0  0  0  0
 11 28  1  0  0  0  0
M  END
> <id>
EN300-2484423

> <smiles>
NC1(CC2(C1)N3CCOCC3)C2

> <MDLNUMBER>
MFCD29037309

> <IUPAC Name>
3-(morpholin-4-yl)bicyclo[1.1.1]pentan-1-amine

> <CAS>
1936694-19-7

> <URL>
https://www.enaminestore.com/catalog/EN300-2484423

> <ROCS_ShapeQuery>
_x1247relevant_x1083L0AP1_x1305L0BP1_

> <ROCS_TanimotoCombo>
0.853 

> <ROCS_ShapeTanimoto>
0.465 

> <ROCS_ColorTanimoto>
0.388 

> <ROCS_RefTversky>
0.389 

> <ROCS_RefColorTversky>
0.449 

> <ROCS_RefTverskyCombo>
0.838 

> <ROCS_FitTversky>
1.723 

> <ROCS_FitColorTversky>
0.740 

> <ROCS_FitTverskyCombo>
2.462 

> <ROCS_ColorScore>
-9.595

> <ROCS_Overlap>
1144.052

> <ROCS_Rank>
114                 

$$$$
untitled-dbase-151418_9
  -OEChem-06232314393D

 28 30  0     0  0  0  0  0  0999 V2000
  -12.9488   14.1199  -39.0881 C   0  0  0  0  0  0  0  0  0  0  0  0
  -11.8379   15.9394  -38.8961 C   0  0  0  0  0  0  0  0  0  0  0  0
  -13.2738   15.3983  -37.4023 C   0  0  0  0  0  0  0  0  0  0  0  0
   -9.7534   13.8617  -38.0300 C   0  0  0  0  0  0  0  0  0  0  0  0
  -10.7187   14.6101  -35.9531 C   0  0  0  0  0  0  0  0  0  0  0  0
   -8.9490   15.1585  -38.0915 C   0  0  0  0  0  0  0  0  0  0  0  0
   -9.8919   15.8896  -36.0619 C   0  0  0  0  0  0  0  0  0  0  0  0
  -12.0345   14.7059  -37.9968 C   0  0  0  0  0  0  0  0  0  0  0  0
  -13.3388   15.6004  -38.9267 C   0  0  0  0  0  0  0  0  0  0  0  0
  -10.9964   13.9922  -37.2571 N   0  0  0  0  0  0  0  0  0  0  0  0
  -14.3382   16.2842  -39.6395 N   0  0  0  0  0  0  0  0  0  0  0  0
   -8.6801   15.6391  -36.7742 O   0  0  0  0  0  0  0  0  0  0  0  0
  -12.4827   13.8190  -40.0317 H   0  0  0  0  0  0  0  0  0  0  0  0
  -13.6823   13.3668  -38.7830 H   0  0  0  0  0  0  0  0  0  0  0  0
  -11.5411   16.8759  -38.4135 H   0  0  0  0  0  0  0  0  0  0  0  0
  -11.2694   15.8056  -39.8220 H   0  0  0  0  0  0  0  0  0  0  0  0
  -14.0376   14.7627  -36.9428 H   0  0  0  0  0  0  0  0  0  0  0  0
  -13.1093   16.2844  -36.7809 H   0  0  0  0  0  0  0  0  0  0  0  0
   -9.9857   13.5366  -39.0650 H   0  0  0  0  0  0  0  0  0  0  0  0
   -9.1157   13.0630  -37.5929 H   0  0  0  0  0  0  0  0  0  0  0  0
  -10.1830   13.8897  -35.2971 H   0  0  0  0  0  0  0  0  0  0  0  0
  -11.6723   14.8447  -35.4365 H   0  0  0  0  0  0  0  0  0  0  0  0
   -7.9879   14.9772  -38.5826 H   0  0  0  0  0  0  0  0  0  0  0  0
   -9.4740   15.9330  -38.6637 H   0  0  0  0  0  0  0  0  0  0  0  0
  -10.4505   16.6914  -36.5599 H   0  0  0  0  0  0  0  0  0  0  0  0
   -9.6228   16.2443  -35.0620 H   0  0  0  0  0  0  0  0  0  0  0  0
  -14.1510   16.2740  -40.6331 H   0  0  0  0  0  0  0  0  0  0  0  0
  -15.2452   15.8618  -39.4933 H   0  0  0  0  0  0  0  0  0  0  0  0
  1  8  1  0  0  0  0
  1  9  1  0  0  0  0
  2  8  1  0  0  0  0
  2  9  1  0  0  0  0
  3  8  1  0  0  0  0
  3  9  1  0  0  0  0
  4  6  1  0  0  0  0
  4 10  1  0  0  0  0
  5  7  1  0  0  0  0
  5 10  1  0  0  0  0
  6 12  1  0  0  0  0
  7 12  1  0  0  0  0
  8 10  1  0  0  0  0
  9 11  1  0  0  0  0
  1 13  1  0  0  0  0
  1 14  1  0  0  0  0
  2 15  1  0  0  0  0
  2 16  1  0  0  0  0
  3 17  1  0  0  0  0
  3 18  1  0  0  0  0
  4 19  1  0  0  0  0
  4 20  1  0  0  0  0
  5 21  1  0  0  0  0
  5 22  1  0  0  0  0
  6 23  1  0  0  0  0
  6 24  1  0  0  0  0
  7 25  1  0  0  0  0
  7 26  1  0  0  0  0
 11 27  1  0  0  0  0
 11 28  1  0  0  0  0
M  END
> <id>
EN300-28263192

> <smiles>
Cl.NC1(CC2(C1)N3CCOCC3)C2

> <MDLNUMBER>
MFCD34183423

> <IUPAC Name>
3-(morpholin-4-yl)bicyclo[1.1.1]pentan-1-amine hydrochloride

> <CAS>
2108596-96-7

> <Purity>
95

> <URL>
https://www.enaminestore.com/catalog/EN300-28263192

> <ROCS_ShapeQuery>
_x1247relevant_x1083L0AP1_x1305L0BP1_

> <ROCS_TanimotoCombo>
0.853 

> <ROCS_ShapeTanimoto>
0.465 

> <ROCS_ColorTanimoto>
0.388 

> <ROCS_RefTversky>
0.389 

> <ROCS_RefColorTversky>
0.449 

> <ROCS_RefTverskyCombo>
0.838 

> <ROCS_FitTversky>
1.723 

> <ROCS_FitColorTversky>
0.740 

> <ROCS_FitTverskyCombo>
2.462 

> <ROCS_ColorScore>
-9.595

> <ROCS_Overlap>
1144.052

> <ROCS_Rank>
115                 

$$$$
untitled-dbase-97693_1
  -OEChem-06232314393D

 32 34  0     1  0  0  0  0  0999 V2000
   -9.9024   13.6320  -35.2297 C   0  0  0  0  0  0  0  0  0  0  0  0
  -13.9510   14.4843  -38.7337 C   0  0  0  0  0  0  0  0  0  0  0  0
  -12.7024   14.2708  -39.6010 C   0  0  0  0  0  0  0  0  0  0  0  0
  -12.6712   16.4884  -38.7613 C   0  0  0  0  0  0  0  0  0  0  0  0
  -12.5179   15.1425  -36.7881 C   0  0  0  0  0  0  0  0  0  0  0  0
   -9.0525   15.2321  -36.9531 C   0  0  0  0  0  0  0  0  0  0  0  0
   -9.4763   13.8152  -36.6524 C   0  0  2  0  0  0  0  0  0  0  0  0
  -13.5416   15.6544  -37.8232 C   0  0  2  0  0  0  0  0  0  0  0  0
  -11.7177   15.3227  -39.0565 C   0  0  1  0  0  0  0  0  0  0  0  0
  -11.2307   14.9578  -37.6280 C   0  0  2  0  0  0  0  0  0  0  0  0
  -10.8129   12.0495  -33.7295 C   0  0  0  0  0  0  0  0  0  0  0  0
  -10.6482   13.6168  -37.5011 N   0  0  0  0  0  0  0  0  0  0  0  0
   -9.8313   14.5049  -34.3753 O   0  0  0  0  0  0  0  0  0  0  0  0
  -10.2676   15.9426  -37.2092 O   0  0  0  0  0  0  0  0  0  0  0  0
  -10.3693   12.3631  -35.0535 O   0  0  0  0  0  0  0  0  0  0  0  0
  -14.8044   14.7592  -39.3638 H   0  0  0  0  0  0  0  0  0  0  0  0
  -14.2193   13.5855  -38.1696 H   0  0  0  0  0  0  0  0  0  0  0  0
  -12.3291   13.2448  -39.5420 H   0  0  0  0  0  0  0  0  0  0  0  0
  -12.9397   14.4770  -40.6514 H   0  0  0  0  0  0  0  0  0  0  0  0
  -13.2077   16.8416  -39.6485 H   0  0  0  0  0  0  0  0  0  0  0  0
  -12.1913   17.3383  -38.2657 H   0  0  0  0  0  0  0  0  0  0  0  0
  -12.3705   15.8823  -35.9925 H   0  0  0  0  0  0  0  0  0  0  0  0
  -12.8672   14.2123  -36.3257 H   0  0  0  0  0  0  0  0  0  0  0  0
   -8.5235   15.7189  -36.1286 H   0  0  0  0  0  0  0  0  0  0  0  0
   -8.4363   15.2852  -37.8576 H   0  0  0  0  0  0  0  0  0  0  0  0
   -8.6862   13.0872  -36.8600 H   0  0  0  0  0  0  0  0  0  0  0  0
  -14.3901   16.1758  -37.3759 H   0  0  0  0  0  0  0  0  0  0  0  0
  -10.9102   15.5761  -39.7480 H   0  0  0  0  0  0  0  0  0  0  0  0
  -11.1647   11.0154  -33.6977 H   0  0  0  0  0  0  0  0  0  0  0  0
  -11.6198   12.7291  -33.4440 H   0  0  0  0  0  0  0  0  0  0  0  0
   -9.9764   12.1689  -33.0368 H   0  0  0  0  0  0  0  0  0  0  0  0
  -10.3159   13.3230  -38.4205 H   0  0  0  0  0  0  0  0  0  0  0  0
  1  7  1  0  0  0  0
  1 13  2  0  0  0  0
  1 15  1  0  0  0  0
  2  3  1  0  0  0  0
  2  8  1  0  0  0  0
  3  9  1  0  0  0  0
  4  8  1  0  0  0  0
  4  9  1  0  0  0  0
  5  8  1  0  0  0  0
  5 10  1  0  0  0  0
  6  7  1  0  0  0  0
  6 14  1  0  0  0  0
  7 12  1  0  0  0  0
  9 10  1  0  0  0  0
 10 12  1  0  0  0  0
 10 14  1  0  0  0  0
 11 15  1  0  0  0  0
  2 16  1  0  0  0  0
  2 17  1  0  0  0  0
  3 18  1  0  0  0  0
  3 19  1  0  0  0  0
  4 20  1  0  0  0  0
  4 21  1  0  0  0  0
  5 22  1  0  0  0  0
  5 23  1  0  0  0  0
  6 24  1  0  0  0  0
  6 25  1  0  0  0  0
  7 26  1  0  0  0  0
  8 27  1  0  0  0  0
  9 28  1  0  0  0  0
 11 29  1  0  0  0  0
 11 30  1  0  0  0  0
 11 31  1  0  0  0  0
 12 32  1  0  0  0  0
M  END
> <id>
EN300-691626

> <smiles>
COC(=O)C1COC2(CC3CCC2C3)N1

> <IUPAC Name>
methyl spiro[bicyclo[2.2.1]heptane-2,2'-[1,3]oxazolidine]-4'-carboxylate

> <CAS>
2137442-59-0

> <URL>
https://www.enaminestore.com/catalog/EN300-691626

> <ROCS_ShapeQuery>
_x1247relevant_x1083L0AP1_x1305L0BP1_

> <ROCS_TanimotoCombo>
0.853 

> <ROCS_ShapeTanimoto>
0.467 

> <ROCS_ColorTanimoto>
0.386 

> <ROCS_RefTversky>
0.406 

> <ROCS_RefColorTversky>
0.433 

> <ROCS_RefTverskyCombo>
0.838 

> <ROCS_FitTversky>
1.481 

> <ROCS_FitColorTversky>
0.780 

> <ROCS_FitTverskyCombo>
2.261 

> <ROCS_ColorScore>
-9.230

> <ROCS_Overlap>
1194.661

> <ROCS_Rank>
116                 

$$$$
untitled-dbase-67078_4
  -OEChem-06232314393D

 32 34  0     1  0  0  0  0  0999 V2000
   -7.8908   14.7755  -36.6729 C   0  0  0  0  0  0  0  0  0  0  0  0
   -8.6846   14.7294  -35.3672 C   0  0  0  0  0  0  0  0  0  0  0  0
  -14.0817   15.9957  -38.9606 C   0  0  0  0  0  0  0  0  0  0  0  0
  -12.8697   15.8465  -39.8809 C   0  0  0  0  0  0  0  0  0  0  0  0
   -8.8721   15.2343  -37.7505 C   0  0  0  0  0  0  0  0  0  0  0  0
  -10.1061   15.1653  -35.7190 C   0  0  0  0  0  0  0  0  0  0  0  0
  -12.5988   15.7618  -36.9416 C   0  0  0  0  0  0  0  0  0  0  0  0
  -11.3748   15.6444  -37.8649 C   0  0  2  0  0  0  0  0  0  0  0  0
  -13.6966   15.1070  -37.7800 C   0  0  2  0  0  0  0  0  0  0  0  0
  -11.9700   14.9094  -39.0754 C   0  0  1  0  0  0  0  0  0  0  0  0
  -10.2527   14.8450  -37.2105 C   0  0  0  0  0  0  0  0  0  0  0  0
  -10.4968   13.4278  -37.4068 N   0  0  0  0  0  0  0  0  0  0  0  0
  -12.9559   14.0576  -38.4441 O   0  0  0  0  0  0  0  0  0  0  0  0
   -7.0344   15.4542  -36.6033 H   0  0  0  0  0  0  0  0  0  0  0  0
   -7.4996   13.7789  -36.9082 H   0  0  0  0  0  0  0  0  0  0  0  0
   -8.6836   13.7098  -34.9649 H   0  0  0  0  0  0  0  0  0  0  0  0
   -8.2483   15.3816  -34.6037 H   0  0  0  0  0  0  0  0  0  0  0  0
  -14.2758   17.0326  -38.6714 H   0  0  0  0  0  0  0  0  0  0  0  0
  -14.9727   15.6041  -39.4641 H   0  0  0  0  0  0  0  0  0  0  0  0
  -13.1795   15.3706  -40.8183 H   0  0  0  0  0  0  0  0  0  0  0  0
  -12.3914   16.8006  -40.1205 H   0  0  0  0  0  0  0  0  0  0  0  0
   -8.7989   16.3237  -37.8643 H   0  0  0  0  0  0  0  0  0  0  0  0
   -8.6449   14.7900  -38.7257 H   0  0  0  0  0  0  0  0  0  0  0  0
  -10.8531   14.6676  -35.0909 H   0  0  0  0  0  0  0  0  0  0  0  0
  -10.2045   16.2450  -35.5471 H   0  0  0  0  0  0  0  0  0  0  0  0
  -12.4479   15.2030  -36.0111 H   0  0  0  0  0  0  0  0  0  0  0  0
  -12.8327   16.7992  -36.6826 H   0  0  0  0  0  0  0  0  0  0  0  0
  -10.9859   16.6296  -38.1458 H   0  0  0  0  0  0  0  0  0  0  0  0
  -14.5417   14.7241  -37.2039 H   0  0  0  0  0  0  0  0  0  0  0  0
  -11.2560   14.3425  -39.6776 H   0  0  0  0  0  0  0  0  0  0  0  0
  -10.4534   13.2445  -38.3789 H   0  0  0  0  0  0  0  0  0  0  0  0
   -9.7942   12.9293  -36.9186 H   0  0  0  0  0  0  0  0  0  0  0  0
  1  2  1  0  0  0  0
  1  5  1  0  0  0  0
  2  6  1  0  0  0  0
  3  4  1  0  0  0  0
  3  9  1  0  0  0  0
  4 10  1  0  0  0  0
  5 11  1  0  0  0  0
  6 11  1  0  0  0  0
  7  8  1  0  0  0  0
  7  9  1  0  0  0  0
  8 10  1  0  0  0  0
  8 11  1  0  0  0  0
  9 13  1  0  0  0  0
 10 13  1  0  0  0  0
 11 12  1  0  0  0  0
  1 14  1  0  0  0  0
  1 15  1  0  0  0  0
  2 16  1  0  0  0  0
  2 17  1  0  0  0  0
  3 18  1  0  0  0  0
  3 19  1  0  0  0  0
  4 20  1  0  0  0  0
  4 21  1  0  0  0  0
  5 22  1  0  0  0  0
  5 23  1  0  0  0  0
  6 24  1  0  0  0  0
  6 25  1  0  0  0  0
  7 26  1  0  0  0  0
  7 27  1  0  0  0  0
  8 28  1  0  0  0  0
  9 29  1  0  0  0  0
 10 30  1  0  0  0  0
 12 31  1  0  0  0  0
 12 32  1  0  0  0  0
M  END
> <id>
EN300-1756213

> <smiles>
NC1(CCCC1)C2CC3CCC2O3

> <IUPAC Name>
1-{7-oxabicyclo[2.2.1]heptan-2-yl}cyclopentan-1-amine

> <CAS>
2228222-00-0

> <URL>
https://www.enaminestore.com/catalog/EN300-1756213

> <ROCS_ShapeQuery>
_x1247relevant_x1083L0AP1_x1305L0BP1_

> <ROCS_TanimotoCombo>
0.853 

> <ROCS_ShapeTanimoto>
0.469 

> <ROCS_ColorTanimoto>
0.384 

> <ROCS_RefTversky>
0.396 

> <ROCS_RefColorTversky>
0.420 

> <ROCS_RefTverskyCombo>
0.816 

> <ROCS_FitTversky>
1.640 

> <ROCS_FitColorTversky>
0.818 

> <ROCS_FitTverskyCombo>
2.458 

> <ROCS_ColorScore>
-8.937

> <ROCS_Overlap>
1165.207

> <ROCS_Rank>
117                 

$$$$
untitled-dbase-158283_2
  -OEChem-06232314393D

 25 27  0     1  0  0  0  0  0999 V2000
  -11.8904   13.7934  -37.9604 C   0  0  0  0  0  0  0  0  0  0  0  0
  -10.1387   15.2094  -36.7677 C   0  0  0  0  0  0  0  0  0  0  0  0
  -13.3898   14.8056  -39.5975 C   0  0  0  0  0  0  0  0  0  0  0  0
  -13.6843   14.8405  -37.0745 C   0  0  0  0  0  0  0  0  0  0  0  0
  -12.9545   16.8986  -38.2539 C   0  0  0  0  0  0  0  0  0  0  0  0
  -11.0841   15.7525  -39.0694 C   0  0  0  0  0  0  0  0  0  0  0  0
  -13.3470   13.9731  -38.2884 C   0  0  2  0  0  0  0  0  0  0  0  0
  -12.5241   16.1046  -39.4869 C   0  0  1  0  0  0  0  0  0  0  0  0
  -12.5844   15.9186  -37.1302 C   0  0  2  0  0  0  0  0  0  0  0  0
  -11.3191   15.1623  -37.6707 C   0  0  1  0  0  0  0  0  0  0  0  0
  -11.2759   12.7400  -37.9866 O   0  0  0  0  0  0  0  0  0  0  0  0
   -9.0415   15.6549  -37.0695 O   0  0  0  0  0  0  0  0  0  0  0  0
  -10.4425   14.6858  -35.5550 O   0  0  0  0  0  0  0  0  0  0  0  0
  -13.0155   14.1985  -40.4308 H   0  0  0  0  0  0  0  0  0  0  0  0
  -14.4276   15.0786  -39.8219 H   0  0  0  0  0  0  0  0  0  0  0  0
  -14.6952   15.2576  -37.1255 H   0  0  0  0  0  0  0  0  0  0  0  0
  -13.5995   14.2631  -36.1449 H   0  0  0  0  0  0  0  0  0  0  0  0
  -12.3747   17.8250  -38.1628 H   0  0  0  0  0  0  0  0  0  0  0  0
  -14.0167   17.1628  -38.2667 H   0  0  0  0  0  0  0  0  0  0  0  0
  -10.6207   15.0442  -39.7661 H   0  0  0  0  0  0  0  0  0  0  0  0
  -10.4516   16.6478  -39.0281 H   0  0  0  0  0  0  0  0  0  0  0  0
  -13.8988   13.0333  -38.3313 H   0  0  0  0  0  0  0  0  0  0  0  0
  -12.5629   16.6927  -40.4076 H   0  0  0  0  0  0  0  0  0  0  0  0
  -12.4522   16.4243  -36.1696 H   0  0  0  0  0  0  0  0  0  0  0  0
   -9.6750   14.7061  -34.9444 H   0  0  0  0  0  0  0  0  0  0  0  0
  1  7  1  0  0  0  0
  1 10  1  0  0  0  0
  1 11  2  0  0  0  0
  2 10  1  0  0  0  0
  2 12  2  0  0  0  0
  2 13  1  0  0  0  0
  3  7  1  0  0  0  0
  3  8  1  0  0  0  0
  4  7  1  0  0  0  0
  4  9  1  0  0  0  0
  5  8  1  0  0  0  0
  5  9  1  0  0  0  0
  6  8  1  0  0  0  0
  6 10  1  0  0  0  0
  9 10  1  0  0  0  0
  3 14  1  0  0  0  0
  3 15  1  0  0  0  0
  4 16  1  0  0  0  0
  4 17  1  0  0  0  0
  5 18  1  0  0  0  0
  5 19  1  0  0  0  0
  6 20  1  0  0  0  0
  6 21  1  0  0  0  0
  7 22  1  0  0  0  0
  8 23  1  0  0  0  0
  9 24  1  0  0  0  0
 13 25  1  0  0  0  0
M  END
> <id>
EN300-26681594

> <smiles>
OC(=O)C12CC3CC2CC(C3)C1=O

> <MDLNUMBER>
MFCD32692249

> <IUPAC Name>
2-oxotricyclo[3.3.1.0,3,7]nonane-3-carboxylic acid

> <URL>
https://www.enaminestore.com/catalog/EN300-26681594

> <ROCS_ShapeQuery>
_x1247relevant_x1083L0AP1_x1305L0BP1_

> <ROCS_TanimotoCombo>
0.853 

> <ROCS_ShapeTanimoto>
0.498 

> <ROCS_ColorTanimoto>
0.355 

> <ROCS_RefTversky>
0.415 

> <ROCS_RefColorTversky>
0.557 

> <ROCS_RefTverskyCombo>
0.971 

> <ROCS_FitTversky>
1.674 

> <ROCS_FitColorTversky>
0.495 

> <ROCS_FitTverskyCombo>
2.168 

> <ROCS_ColorScore>
-12.250

> <ROCS_Overlap>
1220.022

> <ROCS_Rank>
118                 

$$$$
untitled-dbase-167570_5
  -OEChem-06232314393D

 29 31  0     1  0  0  0  0  0999 V2000
   -8.9789   15.2536  -36.3850 C   0  0  0  0  0  0  0  0  0  0  0  0
  -10.4624   15.5512  -36.4625 C   0  0  0  0  0  0  0  0  0  0  0  0
  -14.0579   15.4758  -39.5941 C   0  0  0  0  0  0  0  0  0  0  0  0
  -14.4694   15.3790  -38.1246 C   0  0  0  0  0  0  0  0  0  0  0  0
  -11.8711   14.3458  -39.0738 C   0  0  0  0  0  0  0  0  0  0  0  0
   -8.8279   14.1225  -37.3796 C   0  0  0  0  0  0  0  0  0  0  0  0
  -12.2971   14.2183  -37.6017 C   0  0  1  0  0  0  0  0  0  0  0  0
  -11.0924   14.1755  -36.6714 C   0  0  1  0  0  0  0  0  0  0  0  0
  -12.5447   15.6533  -39.4902 C   0  0  2  0  0  0  0  0  0  0  0  0
  -13.1248   15.4977  -37.4076 C   0  0  1  0  0  0  0  0  0  0  0  0
  -10.0223   13.3025  -37.1775 N   0  0  0  0  0  0  0  0  0  0  0  0
  -12.4324   16.4279  -38.2744 O   0  0  0  0  0  0  0  0  0  0  0  0
   -8.3986   16.1243  -36.6713 H   0  0  0  0  0  0  0  0  0  0  0  0
   -8.6897   14.9369  -35.3886 H   0  0  0  0  0  0  0  0  0  0  0  0
  -10.8338   16.0362  -35.5567 H   0  0  0  0  0  0  0  0  0  0  0  0
  -10.6640   16.2152  -37.3100 H   0  0  0  0  0  0  0  0  0  0  0  0
  -14.3475   14.5983  -40.1795 H   0  0  0  0  0  0  0  0  0  0  0  0
  -14.5204   16.3609  -40.0451 H   0  0  0  0  0  0  0  0  0  0  0  0
  -15.1170   16.2259  -37.8704 H   0  0  0  0  0  0  0  0  0  0  0  0
  -15.0028   14.4540  -37.8872 H   0  0  0  0  0  0  0  0  0  0  0  0
  -10.7825   14.4342  -39.1646 H   0  0  0  0  0  0  0  0  0  0  0  0
  -12.1962   13.4955  -39.6813 H   0  0  0  0  0  0  0  0  0  0  0  0
   -8.7567   14.4796  -38.4092 H   0  0  0  0  0  0  0  0  0  0  0  0
   -7.9331   13.5313  -37.1639 H   0  0  0  0  0  0  0  0  0  0  0  0
  -12.9021   13.3202  -37.4337 H   0  0  0  0  0  0  0  0  0  0  0  0
  -11.4445   13.7741  -35.6873 H   0  0  0  0  0  0  0  0  0  0  0  0
  -12.0847   16.1491  -40.3477 H   0  0  0  0  0  0  0  0  0  0  0  0
  -13.1931   15.8606  -36.3791 H   0  0  0  0  0  0  0  0  0  0  0  0
  -10.3130   12.9141  -38.0866 H   0  0  0  0  0  0  0  0  0  0  0  0
  1  2  1  0  0  0  0
  1  6  1  0  0  0  0
  2  8  1  0  0  0  0
  3  4  1  0  0  0  0
  3  9  1  0  0  0  0
  4 10  1  0  0  0  0
  5  7  1  0  0  0  0
  5  9  1  0  0  0  0
  6 11  1  0  0  0  0
  7  8  1  0  0  0  0
  7 10  1  0  0  0  0
  8 11  1  0  0  0  0
  9 12  1  0  0  0  0
 10 12  1  0  0  0  0
  1 13  1  0  0  0  0
  1 14  1  0  0  0  0
  2 15  1  0  0  0  0
  2 16  1  0  0  0  0
  3 17  1  0  0  0  0
  3 18  1  0  0  0  0
  4 19  1  0  0  0  0
  4 20  1  0  0  0  0
  5 21  1  0  0  0  0
  5 22  1  0  0  0  0
  6 23  1  0  0  0  0
  6 24  1  0  0  0  0
  7 25  1  0  0  0  0
  8 26  1  0  0  0  0
  9 27  1  0  0  0  0
 10 28  1  0  0  0  0
 11 29  1  0  0  0  0
M  END
> <id>
EN300-1757789

> <smiles>
C1CNC(C1)C2CC3CCC2O3

> <IUPAC Name>
2-{7-oxabicyclo[2.2.1]heptan-2-yl}pyrrolidine

> <CAS>
1855773-65-7

> <URL>
https://www.enaminestore.com/catalog/EN300-1757789

> <ROCS_ShapeQuery>
_x1247relevant_x1083L0AP1_x1305L0BP1_

> <ROCS_TanimotoCombo>
0.853 

> <ROCS_ShapeTanimoto>
0.478 

> <ROCS_ColorTanimoto>
0.375 

> <ROCS_RefTversky>
0.397 

> <ROCS_RefColorTversky>
0.413 

> <ROCS_RefTverskyCombo>
0.809 

> <ROCS_FitTversky>
1.751 

> <ROCS_FitColorTversky>
0.803 

> <ROCS_FitTverskyCombo>
2.554 

> <ROCS_ColorScore>
-8.779

> <ROCS_Overlap>
1165.172

> <ROCS_Rank>
119                 

$$$$
untitled-dbase-120214_3
  -OEChem-06232314393D

 28 32  0     1  0  0  0  0  0999 V2000
   -9.9454   14.9397  -36.4783 C   0  0  0  0  0  0  0  0  0  0  0  0
  -12.0903   16.4644  -39.9978 C   0  0  0  0  0  0  0  0  0  0  0  0
  -14.6100   14.9294  -37.8704 C   0  0  0  0  0  0  0  0  0  0  0  0
  -11.0870   14.3138  -37.2137 C   0  0  0  0  0  0  0  0  0  0  0  0
  -13.2413   15.5196  -39.7280 C   0  0  2  0  0  0  0  0  0  0  0  0
  -13.8609   16.1122  -38.4466 C   0  0  2  0  0  0  0  0  0  0  0  0
  -11.4304   16.2167  -38.6563 C   0  0  2  0  0  0  0  0  0  0  0  0
  -13.3756   14.0572  -37.7753 C   0  0  2  0  0  0  0  0  0  0  0  0
  -11.1859   14.6933  -38.6793 C   0  0  2  0  0  0  0  0  0  0  0  0
  -12.4470   14.8867  -36.8643 C   0  0  2  0  0  0  0  0  0  0  0  0
  -12.6111   14.2211  -39.1322 C   0  0  2  0  0  0  0  0  0  0  0  0
  -12.5666   16.2735  -37.5866 C   0  0  2  0  0  0  0  0  0  0  0  0
   -9.0682   15.6189  -36.9909 O   0  0  0  0  0  0  0  0  0  0  0  0
  -10.0111   14.6495  -35.1559 O   0  0  0  0  0  0  0  0  0  0  0  0
  -11.4704   16.1525  -40.8439 H   0  0  0  0  0  0  0  0  0  0  0  0
  -12.4106   17.5024  -40.1302 H   0  0  0  0  0  0  0  0  0  0  0  0
  -15.0600   15.1419  -36.8959 H   0  0  0  0  0  0  0  0  0  0  0  0
  -15.3650   14.5272  -38.5526 H   0  0  0  0  0  0  0  0  0  0  0  0
  -11.0336   13.2283  -37.0735 H   0  0  0  0  0  0  0  0  0  0  0  0
  -13.9493   15.3570  -40.5430 H   0  0  0  0  0  0  0  0  0  0  0  0
  -14.4305   17.0311  -38.5993 H   0  0  0  0  0  0  0  0  0  0  0  0
  -10.5508   16.8229  -38.4317 H   0  0  0  0  0  0  0  0  0  0  0  0
  -13.5252   13.0248  -37.4529 H   0  0  0  0  0  0  0  0  0  0  0  0
  -10.3674   14.3808  -39.3315 H   0  0  0  0  0  0  0  0  0  0  0  0
  -12.7298   14.9012  -35.8093 H   0  0  0  0  0  0  0  0  0  0  0  0
  -12.6276   13.3480  -39.7866 H   0  0  0  0  0  0  0  0  0  0  0  0
  -12.5478   17.1444  -36.9292 H   0  0  0  0  0  0  0  0  0  0  0  0
  -10.7891   14.0918  -34.9414 H   0  0  0  0  0  0  0  0  0  0  0  0
  1  4  1  0  0  0  0
  1 13  2  0  0  0  0
  1 14  1  0  0  0  0
  2  5  1  0  0  0  0
  2  7  1  0  0  0  0
  3  6  1  0  0  0  0
  3  8  1  0  0  0  0
  4  9  1  0  0  0  0
  4 10  1  0  0  0  0
  5  6  1  0  0  0  0
  5 11  1  0  0  0  0
  6 12  1  0  0  0  0
  7  9  1  0  0  0  0
  7 12  1  0  0  0  0
  8 10  1  0  0  0  0
  8 11  1  0  0  0  0
  9 11  1  0  0  0  0
 10 12  1  0  0  0  0
  2 15  1  0  0  0  0
  2 16  1  0  0  0  0
  3 17  1  0  0  0  0
  3 18  1  0  0  0  0
  4 19  1  0  0  0  0
  5 20  1  0  0  0  0
  6 21  1  0  0  0  0
  7 22  1  0  0  0  0
  8 23  1  0  0  0  0
  9 24  1  0  0  0  0
 10 25  1  0  0  0  0
 11 26  1  0  0  0  0
 12 27  1  0  0  0  0
 14 28  1  0  0  0  0
M  END
> <id>
EN300-94447

> <smiles>
OC(=O)C1C2C3CC4C5CC(C1C53)C42

> <MDLNUMBER>
MFCD20264539

> <IUPAC Name>
pentacyclo[6.3.0.0^{2,6}.0^{3,10}.0^{5,9}]undecane-4-carboxylic acid

> <CAS>
115044-28-5

> <Purity>
95

> <URL>
https://www.enaminestore.com/catalog/EN300-94447

> <ROCS_ShapeQuery>
_x1247relevant_x1083L0AP1_x1305L0BP1_

> <ROCS_TanimotoCombo>
0.852 

> <ROCS_ShapeTanimoto>
0.557 

> <ROCS_ColorTanimoto>
0.295 

> <ROCS_RefTversky>
0.456 

> <ROCS_RefColorTversky>
0.840 

> <ROCS_RefTverskyCombo>
1.297 

> <ROCS_FitTversky>
1.656 

> <ROCS_FitColorTversky>
0.313 

> <ROCS_FitTverskyCombo>
1.969 

> <ROCS_ColorScore>
-20.257

> <ROCS_Overlap>
1344.297

> <ROCS_Rank>
120                 

$$$$
untitled-dbase-138776_8
  -OEChem-06232314393D

 38 41  0     1  0  0  0  0  0999 V2000
   -8.7931   14.4227  -33.3933 C   0  0  0  0  0  0  0  0  0  0  0  0
  -10.2332   14.7378  -33.0988 C   0  0  0  0  0  0  0  0  0  0  0  0
  -12.0304   14.9150  -39.8065 C   0  0  0  0  0  0  0  0  0  0  0  0
  -12.3752   16.8253  -38.2849 C   0  0  0  0  0  0  0  0  0  0  0  0
   -8.7663   15.1210  -36.6816 C   0  0  0  0  0  0  0  0  0  0  0  0
  -13.4709   14.4940  -39.4742 C   0  0  0  0  0  0  0  0  0  0  0  0
  -13.7455   16.2702  -37.8699 C   0  0  0  0  0  0  0  0  0  0  0  0
   -9.0923   13.8970  -37.5343 C   0  0  0  0  0  0  0  0  0  0  0  0
  -12.8507   14.1362  -37.1796 C   0  0  0  0  0  0  0  0  0  0  0  0
   -9.8186   14.3473  -34.4903 C   0  0  0  0  0  0  0  0  0  0  0  0
  -11.4276   15.6463  -38.5931 C   0  0  0  0  0  0  0  0  0  0  0  0
   -9.8226   15.3828  -35.6123 C   0  0  2  0  0  0  0  0  0  0  0  0
  -11.4026   14.6916  -37.3554 C   0  0  2  0  0  0  0  0  0  0  0  0
  -10.5048   13.5434  -37.5086 N   0  0  0  0  0  0  0  0  0  0  0  0
  -13.8260   14.8089  -38.0726 N   0  0  0  0  0  0  0  0  0  0  0  0
  -11.1355   15.4757  -36.1703 O   0  0  0  0  0  0  0  0  0  0  0  0
   -8.0884   15.2450  -33.3974 H   0  0  0  0  0  0  0  0  0  0  0  0
   -8.3930   13.4909  -33.0128 H   0  0  0  0  0  0  0  0  0  0  0  0
  -10.7989   14.0171  -32.5210 H   0  0  0  0  0  0  0  0  0  0  0  0
  -10.4930   15.7712  -32.9053 H   0  0  0  0  0  0  0  0  0  0  0  0
  -11.4306   14.0472  -40.0972 H   0  0  0  0  0  0  0  0  0  0  0  0
  -12.0413   15.5874  -40.6735 H   0  0  0  0  0  0  0  0  0  0  0  0
  -12.4814   17.4583  -39.1738 H   0  0  0  0  0  0  0  0  0  0  0  0
  -11.9693   17.4597  -37.4900 H   0  0  0  0  0  0  0  0  0  0  0  0
   -7.7813   14.9617  -36.2014 H   0  0  0  0  0  0  0  0  0  0  0  0
   -8.6435   16.0089  -37.3287 H   0  0  0  0  0  0  0  0  0  0  0  0
  -14.1757   14.9889  -40.1549 H   0  0  0  0  0  0  0  0  0  0  0  0
  -13.5948   13.4187  -39.6556 H   0  0  0  0  0  0  0  0  0  0  0  0
  -13.9479   16.5099  -36.8182 H   0  0  0  0  0  0  0  0  0  0  0  0
  -14.5374   16.7689  -38.4426 H   0  0  0  0  0  0  0  0  0  0  0  0
   -8.7491   14.0557  -38.5745 H   0  0  0  0  0  0  0  0  0  0  0  0
   -8.5045   13.0369  -37.1636 H   0  0  0  0  0  0  0  0  0  0  0  0
  -12.9000   13.0573  -37.3827 H   0  0  0  0  0  0  0  0  0  0  0  0
  -13.1854   14.2460  -36.1393 H   0  0  0  0  0  0  0  0  0  0  0  0
  -10.1053   13.3641  -34.8433 H   0  0  0  0  0  0  0  0  0  0  0  0
  -10.4369   16.0421  -38.8409 H   0  0  0  0  0  0  0  0  0  0  0  0
   -9.5969   16.3692  -35.1117 H   0  0  0  0  0  0  0  0  0  0  0  0
  -10.7414   12.9951  -38.3451 H   0  0  0  0  0  0  0  0  0  0  0  0
  1  2  1  0  0  0  0
  1 10  1  0  0  0  0
  2 10  1  0  0  0  0
  3  6  1  0  0  0  0
  3 11  1  0  0  0  0
  4  7  1  0  0  0  0
  4 11  1  0  0  0  0
  5  8  1  0  0  0  0
  5 12  1  0  0  0  0
  6 15  1  0  0  0  0
  7 15  1  0  0  0  0
  8 14  1  0  0  0  0
  9 13  1  0  0  0  0
  9 15  1  0  0  0  0
 10 12  1  0  0  0  0
 11 13  1  0  0  0  0
 12 16  1  0  0  0  0
 13 14  1  0  0  0  0
 13 16  1  0  0  0  0
  1 17  1  0  0  0  0
  1 18  1  0  0  0  0
  2 19  1  0  0  0  0
  2 20  1  0  0  0  0
  3 21  1  0  0  0  0
  3 22  1  0  0  0  0
  4 23  1  0  0  0  0
  4 24  1  0  0  0  0
  5 25  1  0  0  0  0
  5 26  1  0  0  0  0
  6 27  1  0  0  0  0
  6 28  1  0  0  0  0
  7 29  1  0  0  0  0
  7 30  1  0  0  0  0
  8 31  1  0  0  0  0
  8 32  1  0  0  0  0
  9 33  1  0  0  0  0
  9 34  1  0  0  0  0
 10 35  1  0  0  0  0
 11 36  1  0  0  0  0
 12 37  1  0  0  0  0
 14 38  1  0  0  0  0
M  END
> <id>
EN300-1279571

> <smiles>
C1CC1C2CCNC3(CN4CCC3CC4)O2

> <IUPAC Name>
6'-cyclopropyl-4-azaspiro[bicyclo[2.2.2]octane-2,2'-[1,3]oxazinane]

> <CAS>
2168822-61-3

> <URL>
https://www.enaminestore.com/catalog/EN300-1279571

> <ROCS_ShapeQuery>
_x1247relevant_x1083L0AP1_x1305L0BP1_

> <ROCS_TanimotoCombo>
0.852 

> <ROCS_ShapeTanimoto>
0.489 

> <ROCS_ColorTanimoto>
0.363 

> <ROCS_RefTversky>
0.422 

> <ROCS_RefColorTversky>
0.411 

> <ROCS_RefTverskyCombo>
0.833 

> <ROCS_FitTversky>
1.485 

> <ROCS_FitColorTversky>
0.755 

> <ROCS_FitTverskyCombo>
2.240 

> <ROCS_ColorScore>
-8.769

> <ROCS_Overlap>
1242.656

> <ROCS_Rank>
121                 

$$$$
untitled-dbase-156048_52
  -OEChem-06232314393D

 23 24  0     0  0  0  0  0  0999 V2000
  -13.2893   16.3738  -40.2993 C   0  0  0  0  0  0  0  0  0  0  0  0
  -10.2253   14.6733  -36.7269 C   0  0  0  0  0  0  0  0  0  0  0  0
  -13.4935   16.0092  -37.6506 C   0  0  0  0  0  0  0  0  0  0  0  0
  -13.2591   14.2205  -38.7016 C   0  0  0  0  0  0  0  0  0  0  0  0
  -11.2862   15.7273  -38.7516 C   0  0  0  0  0  0  0  0  0  0  0  0
  -12.7546   14.6725  -37.2846 C   0  0  0  0  0  0  0  0  0  0  0  0
  -12.8019   15.6920  -39.0300 C   0  0  0  0  0  0  0  0  0  0  0  0
   -8.9433   14.4953  -37.4954 C   0  0  0  0  0  0  0  0  0  0  0  0
  -11.3251   14.9824  -37.4933 N   0  0  0  0  0  0  0  0  0  0  0  0
  -12.6075   17.0898  -41.0174 O   0  0  0  0  0  0  0  0  0  0  0  0
  -10.2521   14.5453  -35.5028 O   0  0  0  0  0  0  0  0  0  0  0  0
  -14.5928   16.0816  -40.5293 O   0  0  0  0  0  0  0  0  0  0  0  0
   -9.1494   14.6819  -38.8121 F   0  0  0  0  0  0  0  0  0  0  0  0
   -8.0157   15.3804  -37.0860 F   0  0  0  0  0  0  0  0  0  0  0  0
   -8.4475   13.2565  -37.3193 F   0  0  0  0  0  0  0  0  0  0  0  0
  -14.5892   15.9828  -37.6317 H   0  0  0  0  0  0  0  0  0  0  0  0
  -13.1514   16.9076  -37.1272 H   0  0  0  0  0  0  0  0  0  0  0  0
  -12.6937   13.4145  -39.1799 H   0  0  0  0  0  0  0  0  0  0  0  0
  -14.3301   14.0056  -38.7936 H   0  0  0  0  0  0  0  0  0  0  0  0
  -10.6881   15.1859  -39.4901 H   0  0  0  0  0  0  0  0  0  0  0  0
  -10.8920   16.7326  -38.5795 H   0  0  0  0  0  0  0  0  0  0  0  0
  -13.0554   14.1144  -36.4015 H   0  0  0  0  0  0  0  0  0  0  0  0
  -14.9270   16.5142  -41.3439 H   0  0  0  0  0  0  0  0  0  0  0  0
  1  7  1  0  0  0  0
  1 10  2  0  0  0  0
  1 12  1  0  0  0  0
  2  8  1  0  0  0  0
  2  9  1  0  0  0  0
  2 11  2  0  0  0  0
  3  6  1  0  0  0  0
  3  7  1  0  0  0  0
  4  6  1  0  0  0  0
  4  7  1  0  0  0  0
  5  7  1  0  0  0  0
  5  9  1  0  0  0  0
  6  9  1  0  0  0  0
  8 13  1  0  0  0  0
  8 14  1  0  0  0  0
  8 15  1  0  0  0  0
  3 16  1  0  0  0  0
  3 17  1  0  0  0  0
  4 18  1  0  0  0  0
  4 19  1  0  0  0  0
  5 20  1  0  0  0  0
  5 21  1  0  0  0  0
  6 22  1  0  0  0  0
 12 23  1  0  0  0  0
M  END
> <id>
EN300-28274149

> <smiles>
OC(=O)C1(CC2C1)CN2C(=O)C(F)(F)F

> <IUPAC Name>
2-(2,2,2-trifluoroacetyl)-2-azabicyclo[2.1.1]hexane-4-carboxylic acid

> <CAS>
2680841-96-5

> <URL>
https://www.enaminestore.com/catalog/EN300-28274149

> <ROCS_ShapeQuery>
_x1247relevant_x1083L0AP1_x1305L0BP1_

> <ROCS_TanimotoCombo>
0.852 

> <ROCS_ShapeTanimoto>
0.509 

> <ROCS_ColorTanimoto>
0.342 

> <ROCS_RefTversky>
0.430 

> <ROCS_RefColorTversky>
0.391 

> <ROCS_RefTverskyCombo>
0.821 

> <ROCS_FitTversky>
1.569 

> <ROCS_FitColorTversky>
0.734 

> <ROCS_FitTverskyCombo>
2.303 

> <ROCS_ColorScore>
-8.328

> <ROCS_Overlap>
1266.570

> <ROCS_Rank>
122                 

$$$$
untitled-dbase-168637_0
  -OEChem-06232314393D

 28 30  0     1  0  0  0  0  0999 V2000
  -12.5667   16.1262  -39.7380 C   0  0  0  0  0  0  0  0  0  0  0  0
  -10.1134   15.0546  -36.4172 C   0  0  0  0  0  0  0  0  0  0  0  0
  -14.1067   15.9417  -37.8270 C   0  0  0  0  0  0  0  0  0  0  0  0
  -13.3462   13.8916  -39.0593 C   0  0  0  0  0  0  0  0  0  0  0  0
  -11.7058   16.6309  -37.4876 C   0  0  0  0  0  0  0  0  0  0  0  0
  -10.9448   14.5787  -38.7227 C   0  0  0  0  0  0  0  0  0  0  0  0
  -12.4859   14.3559  -36.7440 C   0  0  0  0  0  0  0  0  0  0  0  0
  -12.9342   16.7488  -38.3992 C   0  0  1  0  0  0  0  0  0  0  0  0
  -12.1608   14.6621  -39.6544 C   0  0  2  0  0  0  0  0  0  0  0  0
  -13.7077   14.4602  -37.6727 C   0  0  0  0  0  0  0  0  0  0  0  0
  -11.3012   15.1484  -37.3314 C   0  0  0  0  0  0  0  0  0  0  0  0
  -12.5943   16.7511  -40.7937 O   0  0  0  0  0  0  0  0  0  0  0  0
  -10.0874   14.4404  -35.3610 O   0  0  0  0  0  0  0  0  0  0  0  0
   -9.0649   15.7498  -36.9217 O   0  0  0  0  0  0  0  0  0  0  0  0
  -14.4035   16.3520  -36.8541 H   0  0  0  0  0  0  0  0  0  0  0  0
  -14.9770   16.0209  -38.4904 H   0  0  0  0  0  0  0  0  0  0  0  0
  -14.2152   13.9659  -39.7252 H   0  0  0  0  0  0  0  0  0  0  0  0
  -13.0952   12.8275  -38.9731 H   0  0  0  0  0  0  0  0  0  0  0  0
  -10.8699   17.2059  -37.9083 H   0  0  0  0  0  0  0  0  0  0  0  0
  -11.9248   17.0728  -36.5069 H   0  0  0  0  0  0  0  0  0  0  0  0
  -10.6120   13.5364  -38.6338 H   0  0  0  0  0  0  0  0  0  0  0  0
  -10.1044   15.1381  -39.1548 H   0  0  0  0  0  0  0  0  0  0  0  0
  -12.7443   14.7367  -35.7471 H   0  0  0  0  0  0  0  0  0  0  0  0
  -12.2087   13.3023  -36.6081 H   0  0  0  0  0  0  0  0  0  0  0  0
  -13.2148   17.7969  -38.5428 H   0  0  0  0  0  0  0  0  0  0  0  0
  -11.9139   14.2886  -40.6530 H   0  0  0  0  0  0  0  0  0  0  0  0
  -14.5456   13.8950  -37.2494 H   0  0  0  0  0  0  0  0  0  0  0  0
   -8.2785   15.7024  -36.3372 H   0  0  0  0  0  0  0  0  0  0  0  0
  1  8  1  0  0  0  0
  1  9  1  0  0  0  0
  1 12  2  0  0  0  0
  2 11  1  0  0  0  0
  2 13  2  0  0  0  0
  2 14  1  0  0  0  0
  3  8  1  0  0  0  0
  3 10  1  0  0  0  0
  4  9  1  0  0  0  0
  4 10  1  0  0  0  0
  5  8  1  0  0  0  0
  5 11  1  0  0  0  0
  6  9  1  0  0  0  0
  6 11  1  0  0  0  0
  7 10  1  0  0  0  0
  7 11  1  0  0  0  0
  3 15  1  0  0  0  0
  3 16  1  0  0  0  0
  4 17  1  0  0  0  0
  4 18  1  0  0  0  0
  5 19  1  0  0  0  0
  5 20  1  0  0  0  0
  6 21  1  0  0  0  0
  6 22  1  0  0  0  0
  7 23  1  0  0  0  0
  7 24  1  0  0  0  0
  8 25  1  0  0  0  0
  9 26  1  0  0  0  0
 10 27  1  0  0  0  0
 14 28  1  0  0  0  0
M  END
> <id>
EN300-53672

> <smiles>
OC(=O)C1(CC2CC3C1)CC(C2)C3=O

> <IUPAC Name>
4-oxoadamantane-1-carboxylic acid

> <CAS>
56674-87-4

> <Purity>
95

> <URL>
https://www.enaminestore.com/catalog/EN300-53672

> <MP>
167-172

> <ROCS_ShapeQuery>
_x1247relevant_x1083L0AP1_x1305L0BP1_

> <ROCS_TanimotoCombo>
0.852 

> <ROCS_ShapeTanimoto>
0.496 

> <ROCS_ColorTanimoto>
0.355 

> <ROCS_RefTversky>
0.417 

> <ROCS_RefColorTversky>
0.399 

> <ROCS_RefTverskyCombo>
0.816 

> <ROCS_FitTversky>
1.614 

> <ROCS_FitColorTversky>
0.766 

> <ROCS_FitTverskyCombo>
2.380 

> <ROCS_ColorScore>
-8.484

> <ROCS_Overlap>
1228.548

> <ROCS_Rank>
123                 

$$$$
untitled-dbase-56092_12
  -OEChem-06232314393D

 41 43  0     1  0  0  0  0  0999 V2000
  -12.0471   16.9409  -40.6058 C   0  0  0  0  0  0  0  0  0  0  0  0
   -9.9018   14.6887  -36.9732 C   0  0  0  0  0  0  0  0  0  0  0  0
  -12.8359   14.6344  -39.9605 C   0  0  0  0  0  0  0  0  0  0  0  0
  -12.0793   13.6934  -37.7744 C   0  0  0  0  0  0  0  0  0  0  0  0
  -11.7230   15.7081  -39.8152 C   0  0  2  0  0  0  0  0  0  0  0  0
  -13.3178   14.1887  -38.5540 C   0  0  1  0  0  0  0  0  0  0  0  0
  -11.5238   16.0568  -38.3167 C   0  0  1  0  0  0  0  0  0  0  0  0
  -13.8994   15.4198  -37.8833 C   0  0  2  0  0  0  0  0  0  0  0  0
  -12.8626   16.4985  -37.7461 C   0  0  1  0  0  0  0  0  0  0  0  0
  -10.3459   14.5234  -34.3952 C   0  0  0  0  0  0  0  0  0  0  0  0
  -10.1281   12.0267  -34.5630 C   0  0  0  0  0  0  0  0  0  0  0  0
   -8.0785   13.4725  -34.6936 C   0  0  0  0  0  0  0  0  0  0  0  0
  -11.2183   19.0786  -41.1779 C   0  0  0  0  0  0  0  0  0  0  0  0
   -9.5666   13.3697  -35.0248 C   0  0  0  0  0  0  0  0  0  0  0  0
  -11.1124   14.8017  -37.6491 N   0  0  0  0  0  0  0  0  0  0  0  0
  -13.0688   17.0840  -41.2637 O   0  0  0  0  0  0  0  0  0  0  0  0
   -9.0830   15.5976  -36.8569 O   0  0  0  0  0  0  0  0  0  0  0  0
  -13.3769   15.8013  -36.6063 O   0  0  0  0  0  0  0  0  0  0  0  0
  -11.0380   17.8477  -40.4703 O   0  0  0  0  0  0  0  0  0  0  0  0
   -9.7229   13.4367  -36.4467 O   0  0  0  0  0  0  0  0  0  0  0  0
  -13.6863   15.0128  -40.5411 H   0  0  0  0  0  0  0  0  0  0  0  0
  -12.4375   13.7692  -40.5048 H   0  0  0  0  0  0  0  0  0  0  0  0
  -12.3471   13.3572  -36.7660 H   0  0  0  0  0  0  0  0  0  0  0  0
  -11.5856   12.8613  -38.2890 H   0  0  0  0  0  0  0  0  0  0  0  0
  -10.7857   15.3228  -40.2303 H   0  0  0  0  0  0  0  0  0  0  0  0
  -14.0711   13.3985  -38.6301 H   0  0  0  0  0  0  0  0  0  0  0  0
  -10.7718   16.8396  -38.1750 H   0  0  0  0  0  0  0  0  0  0  0  0
  -14.9073   15.6842  -38.1620 H   0  0  0  0  0  0  0  0  0  0  0  0
  -13.1375   17.5277  -37.9172 H   0  0  0  0  0  0  0  0  0  0  0  0
   -9.9460   15.4892  -34.7242 H   0  0  0  0  0  0  0  0  0  0  0  0
  -11.4089   14.4809  -34.6540 H   0  0  0  0  0  0  0  0  0  0  0  0
  -10.2547   14.5070  -33.3031 H   0  0  0  0  0  0  0  0  0  0  0  0
   -9.5719   11.1961  -35.0124 H   0  0  0  0  0  0  0  0  0  0  0  0
  -11.1701   11.9088  -34.8819 H   0  0  0  0  0  0  0  0  0  0  0  0
  -10.0851   11.9238  -33.4739 H   0  0  0  0  0  0  0  0  0  0  0  0
   -7.5193   12.6451  -35.1451 H   0  0  0  0  0  0  0  0  0  0  0  0
   -7.6500   14.4146  -35.0506 H   0  0  0  0  0  0  0  0  0  0  0  0
   -7.9143   13.4029  -33.6122 H   0  0  0  0  0  0  0  0  0  0  0  0
  -10.3584   19.7297  -41.0027 H   0  0  0  0  0  0  0  0  0  0  0  0
  -12.1341   19.5664  -40.8347 H   0  0  0  0  0  0  0  0  0  0  0  0
  -11.2996   18.8657  -42.2464 H   0  0  0  0  0  0  0  0  0  0  0  0
  1  5  1  0  0  0  0
  1 16  2  0  0  0  0
  1 19  1  0  0  0  0
  2 15  1  0  0  0  0
  2 17  2  0  0  0  0
  2 20  1  0  0  0  0
  3  5  1  0  0  0  0
  3  6  1  0  0  0  0
  4  6  1  0  0  0  0
  4 15  1  0  0  0  0
  5  7  1  0  0  0  0
  6  8  1  0  0  0  0
  7  9  1  0  0  0  0
  7 15  1  0  0  0  0
  8  9  1  0  0  0  0
  8 18  1  0  0  0  0
  9 18  1  0  0  0  0
 10 14  1  0  0  0  0
 11 14  1  0  0  0  0
 12 14  1  0  0  0  0
 13 19  1  0  0  0  0
 14 20  1  0  0  0  0
  3 21  1  0  0  0  0
  3 22  1  0  0  0  0
  4 23  1  0  0  0  0
  4 24  1  0  0  0  0
  5 25  1  0  0  0  0
  6 26  1  0  0  0  0
  7 27  1  0  0  0  0
  8 28  1  0  0  0  0
  9 29  1  0  0  0  0
 10 30  1  0  0  0  0
 10 31  1  0  0  0  0
 10 32  1  0  0  0  0
 11 33  1  0  0  0  0
 11 34  1  0  0  0  0
 11 35  1  0  0  0  0
 12 36  1  0  0  0  0
 12 37  1  0  0  0  0
 12 38  1  0  0  0  0
 13 39  1  0  0  0  0
 13 40  1  0  0  0  0
 13 41  1  0  0  0  0
M  END
> <id>
EN300-1708474

> <smiles>
COC(=O)C1CC2CN(C1C3OC32)C(=O)OC(C)(C)C

> <IUPAC Name>
6-tert-butyl 9-methyl 3-oxa-6-azatricyclo[3.2.2.0,2,4]nonane-6,9-dicarboxylate

> <CAS>
2219418-94-5

> <URL>
https://www.enaminestore.com/catalog/EN300-1708474

> <ROCS_ShapeQuery>
_x1247relevant_x1083L0AP1_x1305L0BP1_

> <ROCS_TanimotoCombo>
0.851 

> <ROCS_ShapeTanimoto>
0.511 

> <ROCS_ColorTanimoto>
0.340 

> <ROCS_RefTversky>
0.454 

> <ROCS_RefColorTversky>
0.493 

> <ROCS_RefTverskyCombo>
0.948 

> <ROCS_FitTversky>
1.324 

> <ROCS_FitColorTversky>
0.523 

> <ROCS_FitTverskyCombo>
1.847 

> <ROCS_ColorScore>
-10.743

> <ROCS_Overlap>
1343.490

> <ROCS_Rank>
124                 

$$$$
untitled-dbase-121532_2
  -OEChem-06232314393D

 26 28  0     1  0  0  0  0  0999 V2000
  -14.0341   16.0224  -39.0259 C   0  0  0  0  0  0  0  0  0  0  0  0
  -12.8261   15.7582  -39.9255 C   0  0  0  0  0  0  0  0  0  0  0  0
  -12.5697   15.8689  -36.9859 C   0  0  0  0  0  0  0  0  0  0  0  0
   -8.8822   15.4853  -37.1141 C   0  0  0  0  0  0  0  0  0  0  0  0
  -11.3484   15.6357  -37.8906 C   0  0  2  0  0  0  0  0  0  0  0  0
  -13.6911   15.2035  -37.7835 C   0  0  2  0  0  0  0  0  0  0  0  0
  -11.9698   14.8431  -39.0505 C   0  0  1  0  0  0  0  0  0  0  0  0
  -10.2670   14.8566  -37.1964 C   0  0  2  0  0  0  0  0  0  0  0  0
   -9.7390   15.3929  -35.9047 C   0  0  0  0  0  0  0  0  0  0  0  0
  -10.3494   13.3916  -37.3638 N   0  0  0  0  0  0  0  0  0  0  0  0
  -12.9931   14.0799  -38.3676 O   0  0  0  0  0  0  0  0  0  0  0  0
   -9.3915   14.5497  -34.8722 F   0  0  0  0  0  0  0  0  0  0  0  0
  -10.2665   16.5322  -35.3386 F   0  0  0  0  0  0  0  0  0  0  0  0
  -14.1856   17.0842  -38.8111 H   0  0  0  0  0  0  0  0  0  0  0  0
  -14.9390   15.6343  -39.5068 H   0  0  0  0  0  0  0  0  0  0  0  0
  -13.1526   15.2309  -40.8290 H   0  0  0  0  0  0  0  0  0  0  0  0
  -12.3076   16.6725  -40.2283 H   0  0  0  0  0  0  0  0  0  0  0  0
  -12.4478   15.3730  -36.0161 H   0  0  0  0  0  0  0  0  0  0  0  0
  -12.7628   16.9309  -36.8047 H   0  0  0  0  0  0  0  0  0  0  0  0
   -8.0153   14.8376  -37.1675 H   0  0  0  0  0  0  0  0  0  0  0  0
   -8.7321   16.4641  -37.5531 H   0  0  0  0  0  0  0  0  0  0  0  0
  -10.9202   16.5827  -38.2385 H   0  0  0  0  0  0  0  0  0  0  0  0
  -14.5532   14.8973  -37.1869 H   0  0  0  0  0  0  0  0  0  0  0  0
  -11.2815   14.2009  -39.6053 H   0  0  0  0  0  0  0  0  0  0  0  0
   -9.8885   13.1655  -38.2073 H   0  0  0  0  0  0  0  0  0  0  0  0
   -9.9019   12.9815  -36.5849 H   0  0  0  0  0  0  0  0  0  0  0  0
  1  2  1  0  0  0  0
  1  6  1  0  0  0  0
  2  7  1  0  0  0  0
  3  5  1  0  0  0  0
  3  6  1  0  0  0  0
  4  8  1  0  0  0  0
  4  9  1  0  0  0  0
  5  7  1  0  0  0  0
  5  8  1  0  0  0  0
  6 11  1  0  0  0  0
  7 11  1  0  0  0  0
  8  9  1  0  0  0  0
  8 10  1  0  0  0  0
  9 12  1  0  0  0  0
  9 13  1  0  0  0  0
  1 14  1  0  0  0  0
  1 15  1  0  0  0  0
  2 16  1  0  0  0  0
  2 17  1  0  0  0  0
  3 18  1  0  0  0  0
  3 19  1  0  0  0  0
  4 20  1  0  0  0  0
  4 21  1  0  0  0  0
  5 22  1  0  0  0  0
  6 23  1  0  0  0  0
  7 24  1  0  0  0  0
 10 25  1  0  0  0  0
 10 26  1  0  0  0  0
M  END
> <id>
EN300-1970389

> <smiles>
NC1(CC1(F)F)C2CC3CCC2O3

> <IUPAC Name>
2,2-difluoro-1-{7-oxabicyclo[2.2.1]heptan-2-yl}cyclopropan-1-amine

> <CAS>
2229304-04-3

> <URL>
https://www.enaminestore.com/catalog/EN300-1970389

> <ROCS_ShapeQuery>
_x1247relevant_x1083L0AP1_x1305L0BP1_

> <ROCS_TanimotoCombo>
0.851 

> <ROCS_ShapeTanimoto>
0.468 

> <ROCS_ColorTanimoto>
0.384 

> <ROCS_RefTversky>
0.396 

> <ROCS_RefColorTversky>
0.408 

> <ROCS_RefTverskyCombo>
0.804 

> <ROCS_FitTversky>
1.630 

> <ROCS_FitColorTversky>
0.867 

> <ROCS_FitTverskyCombo>
2.497 

> <ROCS_ColorScore>
-8.654

> <ROCS_Overlap>
1164.548

> <ROCS_Rank>
125                 

$$$$
untitled-dbase-95578_9
  -OEChem-06232314393D

 38 41  0     1  0  0  0  0  0999 V2000
   -9.3369   11.4920  -35.2420 C   0  0  0  0  0  0  0  0  0  0  0  0
   -8.1518   12.3018  -34.7951 C   0  0  0  0  0  0  0  0  0  0  0  0
  -12.0624   14.7895  -39.7873 C   0  0  0  0  0  0  0  0  0  0  0  0
  -12.3174   16.8110  -38.3914 C   0  0  0  0  0  0  0  0  0  0  0  0
   -8.7153   15.0396  -36.7622 C   0  0  0  0  0  0  0  0  0  0  0  0
  -13.5167   14.4601  -39.4143 C   0  0  0  0  0  0  0  0  0  0  0  0
  -13.6950   16.3339  -37.9125 C   0  0  0  0  0  0  0  0  0  0  0  0
  -12.8646   14.2130  -37.1141 C   0  0  0  0  0  0  0  0  0  0  0  0
   -9.7314   16.0048  -36.1670 C   0  0  0  0  0  0  0  0  0  0  0  0
   -9.3413   12.9863  -35.4094 C   0  0  0  0  0  0  0  0  0  0  0  0
  -11.4145   15.5838  -38.6368 C   0  0  0  0  0  0  0  0  0  0  0  0
   -9.2374   13.6070  -36.8063 C   0  0  1  0  0  0  0  0  0  0  0  0
  -11.3963   14.7045  -37.3452 C   0  0  2  0  0  0  0  0  0  0  0  0
  -10.5197   13.5286  -37.5128 N   0  0  0  0  0  0  0  0  0  0  0  0
  -13.8325   14.8683  -38.0278 N   0  0  0  0  0  0  0  0  0  0  0  0
  -11.0619   15.4943  -36.1895 O   0  0  0  0  0  0  0  0  0  0  0  0
   -9.2199   10.8716  -36.1219 H   0  0  0  0  0  0  0  0  0  0  0  0
   -9.9758   11.0690  -34.4765 H   0  0  0  0  0  0  0  0  0  0  0  0
   -7.9961   12.4221  -33.7300 H   0  0  0  0  0  0  0  0  0  0  0  0
   -7.2409   12.2236  -35.3756 H   0  0  0  0  0  0  0  0  0  0  0  0
  -11.5041   13.8763  -40.0146 H   0  0  0  0  0  0  0  0  0  0  0  0
  -12.0514   15.3935  -40.7031 H   0  0  0  0  0  0  0  0  0  0  0  0
  -12.4223   17.3860  -39.3198 H   0  0  0  0  0  0  0  0  0  0  0  0
  -11.8728   17.4845  -37.6504 H   0  0  0  0  0  0  0  0  0  0  0  0
   -8.4238   15.3787  -37.7723 H   0  0  0  0  0  0  0  0  0  0  0  0
   -7.7918   15.0772  -36.1534 H   0  0  0  0  0  0  0  0  0  0  0  0
  -14.2064   14.9519  -40.1119 H   0  0  0  0  0  0  0  0  0  0  0  0
  -13.6959   13.3844  -39.5344 H   0  0  0  0  0  0  0  0  0  0  0  0
  -13.8611   16.6411  -36.8722 H   0  0  0  0  0  0  0  0  0  0  0  0
  -14.4827   16.8279  -38.4946 H   0  0  0  0  0  0  0  0  0  0  0  0
  -12.9548   13.1269  -37.2535 H   0  0  0  0  0  0  0  0  0  0  0  0
  -13.1740   14.3943  -36.0762 H   0  0  0  0  0  0  0  0  0  0  0  0
   -9.4741   16.2127  -35.1126 H   0  0  0  0  0  0  0  0  0  0  0  0
   -9.6995   16.9841  -36.6807 H   0  0  0  0  0  0  0  0  0  0  0  0
   -9.9831   13.5633  -34.7546 H   0  0  0  0  0  0  0  0  0  0  0  0
  -10.4165   15.9269  -38.9271 H   0  0  0  0  0  0  0  0  0  0  0  0
   -8.4853   12.9761  -37.3598 H   0  0  0  0  0  0  0  0  0  0  0  0
  -10.3578   13.3373  -38.5114 H   0  0  0  0  0  0  0  0  0  0  0  0
  1  2  1  0  0  0  0
  1 10  1  0  0  0  0
  2 10  1  0  0  0  0
  3  6  1  0  0  0  0
  3 11  1  0  0  0  0
  4  7  1  0  0  0  0
  4 11  1  0  0  0  0
  5  9  1  0  0  0  0
  5 12  1  0  0  0  0
  6 15  1  0  0  0  0
  7 15  1  0  0  0  0
  8 13  1  0  0  0  0
  8 15  1  0  0  0  0
  9 16  1  0  0  0  0
 10 12  1  0  0  0  0
 11 13  1  0  0  0  0
 12 14  1  0  0  0  0
 13 14  1  0  0  0  0
 13 16  1  0  0  0  0
  1 17  1  0  0  0  0
  1 18  1  0  0  0  0
  2 19  1  0  0  0  0
  2 20  1  0  0  0  0
  3 21  1  0  0  0  0
  3 22  1  0  0  0  0
  4 23  1  0  0  0  0
  4 24  1  0  0  0  0
  5 25  1  0  0  0  0
  5 26  1  0  0  0  0
  6 27  1  0  0  0  0
  6 28  1  0  0  0  0
  7 29  1  0  0  0  0
  7 30  1  0  0  0  0
  8 31  1  0  0  0  0
  8 32  1  0  0  0  0
  9 33  1  0  0  0  0
  9 34  1  0  0  0  0
 10 35  1  0  0  0  0
 11 36  1  0  0  0  0
 12 37  1  0  0  0  0
 14 38  1  0  0  0  0
M  END
> <id>
EN300-1279055

> <smiles>
C1CC1C2CCOC3(CN4CCC3CC4)N2

> <IUPAC Name>
4'-cyclopropyl-4-azaspiro[bicyclo[2.2.2]octane-2,2'-[1,3]oxazinane]

> <CAS>
2171859-34-8

> <URL>
https://www.enaminestore.com/catalog/EN300-1279055

> <ROCS_ShapeQuery>
_x1247relevant_x1083L0AP1_x1305L0BP1_

> <ROCS_TanimotoCombo>
0.851 

> <ROCS_ShapeTanimoto>
0.489 

> <ROCS_ColorTanimoto>
0.362 

> <ROCS_RefTversky>
0.422 

> <ROCS_RefColorTversky>
0.411 

> <ROCS_RefTverskyCombo>
0.832 

> <ROCS_FitTversky>
1.486 

> <ROCS_FitColorTversky>
0.754 

> <ROCS_FitTverskyCombo>
2.240 

> <ROCS_ColorScore>
-8.757

> <ROCS_Overlap>
1242.250

> <ROCS_Rank>
126                 

$$$$
untitled-dbase-181028_80
  -OEChem-06232314393D

 38 39  0     1  0  0  0  0  0999 V2000
   -9.9447   15.1395  -36.8163 C   0  0  0  0  0  0  0  0  0  0  0  0
  -13.2944   16.2646  -37.7845 C   0  0  0  0  0  0  0  0  0  0  0  0
  -11.2468   15.7636  -38.8833 C   0  0  0  0  0  0  0  0  0  0  0  0
  -13.0235   13.9653  -37.5119 C   0  0  0  0  0  0  0  0  0  0  0  0
  -12.5000   15.2799  -36.9242 C   0  0  2  0  0  0  0  0  0  0  0  0
  -12.7657   15.6542  -39.0741 C   0  0  2  0  0  0  0  0  0  0  0  0
  -12.6949   15.4584  -35.4348 C   0  0  0  0  0  0  0  0  0  0  0  0
   -7.8330   14.2214  -35.1193 C   0  0  0  0  0  0  0  0  0  0  0  0
   -9.5008   12.5540  -34.2547 C   0  0  0  0  0  0  0  0  0  0  0  0
   -8.8223   12.5057  -36.6725 C   0  0  0  0  0  0  0  0  0  0  0  0
  -13.2959   16.2332  -40.3613 C   0  0  0  0  0  0  0  0  0  0  0  0
   -9.0735   13.3951  -35.4556 C   0  0  0  0  0  0  0  0  0  0  0  0
  -11.1318   15.4523  -37.4562 N   0  0  0  0  0  0  0  0  0  0  0  0
   -8.8369   15.5562  -37.1423 O   0  0  0  0  0  0  0  0  0  0  0  0
  -13.1188   14.2505  -38.9371 O   0  0  0  0  0  0  0  0  0  0  0  0
  -14.7063   16.0603  -40.4070 O   0  0  0  0  0  0  0  0  0  0  0  0
  -10.1489   14.2906  -35.7596 O   0  0  0  0  0  0  0  0  0  0  0  0
  -14.3781   16.1498  -37.6656 H   0  0  0  0  0  0  0  0  0  0  0  0
  -13.0117   17.3126  -37.6372 H   0  0  0  0  0  0  0  0  0  0  0  0
  -10.6842   15.0278  -39.4664 H   0  0  0  0  0  0  0  0  0  0  0  0
  -10.8564   16.7719  -39.0534 H   0  0  0  0  0  0  0  0  0  0  0  0
  -12.3552   13.1131  -37.3537 H   0  0  0  0  0  0  0  0  0  0  0  0
  -14.0263   13.7097  -37.1529 H   0  0  0  0  0  0  0  0  0  0  0  0
  -12.1015   14.7261  -34.8797 H   0  0  0  0  0  0  0  0  0  0  0  0
  -13.7468   15.3243  -35.1667 H   0  0  0  0  0  0  0  0  0  0  0  0
  -12.3846   16.4604  -35.1246 H   0  0  0  0  0  0  0  0  0  0  0  0
   -7.5231   14.8266  -35.9788 H   0  0  0  0  0  0  0  0  0  0  0  0
   -8.0111   14.8891  -34.2701 H   0  0  0  0  0  0  0  0  0  0  0  0
   -6.9843   13.5717  -34.8767 H   0  0  0  0  0  0  0  0  0  0  0  0
  -10.3905   11.9595  -34.4915 H   0  0  0  0  0  0  0  0  0  0  0  0
   -9.7734   13.1936  -33.4074 H   0  0  0  0  0  0  0  0  0  0  0  0
   -8.7048   11.8742  -33.9339 H   0  0  0  0  0  0  0  0  0  0  0  0
   -9.7120   11.9129  -36.9139 H   0  0  0  0  0  0  0  0  0  0  0  0
   -8.5504   13.0955  -37.5539 H   0  0  0  0  0  0  0  0  0  0  0  0
   -8.0181   11.7886  -36.4716 H   0  0  0  0  0  0  0  0  0  0  0  0
  -12.8547   15.7265  -41.2276 H   0  0  0  0  0  0  0  0  0  0  0  0
  -13.0740   17.3047  -40.4278 H   0  0  0  0  0  0  0  0  0  0  0  0
  -14.8726   15.1049  -40.3622 H   0  0  0  0  0  0  0  0  0  0  0  0
  1 13  1  0  0  0  0
  1 14  2  0  0  0  0
  1 17  1  0  0  0  0
  2  5  1  0  0  0  0
  2  6  1  0  0  0  0
  3  6  1  0  0  0  0
  3 13  1  0  0  0  0
  4  5  1  0  0  0  0
  4 15  1  0  0  0  0
  5  7  1  0  0  0  0
  5 13  1  0  0  0  0
  6 11  1  0  0  0  0
  6 15  1  0  0  0  0
  8 12  1  0  0  0  0
  9 12  1  0  0  0  0
 10 12  1  0  0  0  0
 11 16  1  0  0  0  0
 12 17  1  0  0  0  0
  2 18  1  0  0  0  0
  2 19  1  0  0  0  0
  3 20  1  0  0  0  0
  3 21  1  0  0  0  0
  4 22  1  0  0  0  0
  4 23  1  0  0  0  0
  7 24  1  0  0  0  0
  7 25  1  0  0  0  0
  7 26  1  0  0  0  0
  8 27  1  0  0  0  0
  8 28  1  0  0  0  0
  8 29  1  0  0  0  0
  9 30  1  0  0  0  0
  9 31  1  0  0  0  0
  9 32  1  0  0  0  0
 10 33  1  0  0  0  0
 10 34  1  0  0  0  0
 10 35  1  0  0  0  0
 11 36  1  0  0  0  0
 11 37  1  0  0  0  0
 16 38  1  0  0  0  0
M  END
> <id>
EN300-45274166

> <smiles>
CC(C)(C)OC(=O)N1CC2(CO)CC1(C)CO2

> <IUPAC Name>
tert-butyl 1-(hydroxymethyl)-4-methyl-2-oxa-5-azabicyclo[2.2.1]heptane-5-carboxylate

> <Purity>
95

> <URL>
https://www.enaminestore.com/catalog/EN300-45274166

> <ROCS_ShapeQuery>
_x1247relevant_x1083L0AP1_x1305L0BP1_

> <ROCS_TanimotoCombo>
0.851 

> <ROCS_ShapeTanimoto>
0.504 

> <ROCS_ColorTanimoto>
0.347 

> <ROCS_RefTversky>
0.435 

> <ROCS_RefColorTversky>
0.402 

> <ROCS_RefTverskyCombo>
0.837 

> <ROCS_FitTversky>
1.459 

> <ROCS_FitColorTversky>
0.717 

> <ROCS_FitTverskyCombo>
2.176 

> <ROCS_ColorScore>
-8.571

> <ROCS_Overlap>
1283.028

> <ROCS_Rank>
127                 

$$$$
untitled-dbase-23866_17
  -OEChem-06232314393D

 23 26  0     1  0  0  0  0  0999 V2000
  -10.2330   15.1816  -36.7100 C   0  0  0  0  0  0  0  0  0  0  0  0
  -14.7360   16.3943  -38.6273 C   0  0  0  0  0  0  0  0  0  0  0  0
  -13.3948   15.9234  -40.5669 C   0  0  0  0  0  0  0  0  0  0  0  0
  -13.7925   15.5542  -37.7731 C   0  0  2  0  0  0  0  0  0  0  0  0
  -12.4533   15.0841  -39.7099 C   0  0  1  0  0  0  0  0  0  0  0  0
  -12.4491   16.2379  -37.5759 C   0  0  2  0  0  0  0  0  0  0  0  0
  -11.6189   15.9465  -38.7765 C   0  0  1  0  0  0  0  0  0  0  0  0
  -13.2119   14.3429  -38.5661 C   0  0  0  0  0  0  0  0  0  0  0  0
  -11.4249   15.1534  -37.5271 C   0  0  0  0  0  0  0  0  0  0  0  0
   -9.1533   15.6350  -37.0593 O   0  0  0  0  0  0  0  0  0  0  0  0
  -14.7056   16.0118  -40.0041 O   0  0  0  0  0  0  0  0  0  0  0  0
  -12.1241   13.8866  -37.7031 O   0  0  0  0  0  0  0  0  0  0  0  0
  -10.4727   14.6314  -35.4947 O   0  0  0  0  0  0  0  0  0  0  0  0
  -15.7651   16.3161  -38.2615 H   0  0  0  0  0  0  0  0  0  0  0  0
  -14.4415   17.4469  -38.5828 H   0  0  0  0  0  0  0  0  0  0  0  0
  -13.0135   16.9456  -40.6488 H   0  0  0  0  0  0  0  0  0  0  0  0
  -13.4717   15.5105  -41.5780 H   0  0  0  0  0  0  0  0  0  0  0  0
  -14.2270   15.2555  -36.8158 H   0  0  0  0  0  0  0  0  0  0  0  0
  -11.8213   14.4110  -40.2947 H   0  0  0  0  0  0  0  0  0  0  0  0
  -12.3775   17.1487  -37.0122 H   0  0  0  0  0  0  0  0  0  0  0  0
  -10.8861   16.6254  -39.1693 H   0  0  0  0  0  0  0  0  0  0  0  0
  -13.9042   13.5532  -38.8531 H   0  0  0  0  0  0  0  0  0  0  0  0
   -9.6741   14.6394  -34.9250 H   0  0  0  0  0  0  0  0  0  0  0  0
  1  9  1  0  0  0  0
  1 10  2  0  0  0  0
  1 13  1  0  0  0  0
  2  4  1  0  0  0  0
  2 11  1  0  0  0  0
  3  5  1  0  0  0  0
  3 11  1  0  0  0  0
  4  6  1  0  0  0  0
  4  8  1  0  0  0  0
  5  7  1  0  0  0  0
  5  8  1  0  0  0  0
  6  7  1  0  0  0  0
  6  9  1  0  0  0  0
  7  9  1  0  0  0  0
  8 12  1  0  0  0  0
  9 12  1  0  0  0  0
  2 14  1  0  0  0  0
  2 15  1  0  0  0  0
  3 16  1  0  0  0  0
  3 17  1  0  0  0  0
  4 18  1  0  0  0  0
  5 19  1  0  0  0  0
  6 20  1  0  0  0  0
  7 21  1  0  0  0  0
  8 22  1  0  0  0  0
 13 23  1  0  0  0  0
M  END
> <id>
EN300-631721

> <smiles>
OC(=O)C12OC3C4COCC3C2C41

> <MDLNUMBER>
MFCD20640364

> <IUPAC Name>
5,9-dioxatetracyclo[4.4.0.0^{2,4}.0^{3,7}]decane-4-carboxylic acid

> <CAS>
135922-85-9

> <Purity>
95

> <URL>
https://www.enaminestore.com/catalog/EN300-631721

> <ROCS_ShapeQuery>
_x1247relevant_x1083L0AP1_x1305L0BP1_

> <ROCS_TanimotoCombo>
0.851 

> <ROCS_ShapeTanimoto>
0.504 

> <ROCS_ColorTanimoto>
0.347 

> <ROCS_RefTversky>
0.420 

> <ROCS_RefColorTversky>
0.699 

> <ROCS_RefTverskyCombo>
1.119 

> <ROCS_FitTversky>
1.653 

> <ROCS_FitColorTversky>
0.408 

> <ROCS_FitTverskyCombo>
2.061 

> <ROCS_ColorScore>
-15.908

> <ROCS_Overlap>
1236.020

> <ROCS_Rank>
128                 

$$$$
untitled-dbase-77353_7
  -OEChem-06232314393D

 40 41  0     0  0  0  0  0  0999 V2000
   -9.2882   14.5229  -36.6968 C   0  0  0  0  0  0  0  0  0  0  0  0
  -12.7233   13.5671  -37.9470 C   0  0  0  0  0  0  0  0  0  0  0  0
  -11.0246   14.9476  -39.1713 C   0  0  0  0  0  0  0  0  0  0  0  0
  -12.0378   15.8024  -37.0415 C   0  0  0  0  0  0  0  0  0  0  0  0
  -13.8431   14.2411  -38.7515 C   0  0  0  0  0  0  0  0  0  0  0  0
  -12.1507   15.6162  -39.9715 C   0  0  0  0  0  0  0  0  0  0  0  0
  -13.1617   16.4684  -37.8471 C   0  0  0  0  0  0  0  0  0  0  0  0
  -11.5346   14.5373  -37.7712 C   0  0  0  0  0  0  0  0  0  0  0  0
  -13.4381   15.6733  -39.1334 C   0  0  0  0  0  0  0  0  0  0  0  0
   -9.2494   15.0010  -34.1247 C   0  0  0  0  0  0  0  0  0  0  0  0
   -7.9706   12.8646  -33.7936 C   0  0  0  0  0  0  0  0  0  0  0  0
   -6.8177   14.8750  -34.7618 C   0  0  0  0  0  0  0  0  0  0  0  0
   -8.1351   14.1068  -34.6666 C   0  0  0  0  0  0  0  0  0  0  0  0
  -10.4786   13.9041  -37.0146 N   0  0  0  0  0  0  0  0  0  0  0  0
   -8.9706   15.6670  -37.0050 O   0  0  0  0  0  0  0  0  0  0  0  0
  -14.4846   16.2793  -39.8743 O   0  0  0  0  0  0  0  0  0  0  0  0
   -8.5019   13.6663  -35.9789 O   0  0  0  0  0  0  0  0  0  0  0  0
  -13.1148   13.2551  -36.9705 H   0  0  0  0  0  0  0  0  0  0  0  0
  -12.4030   12.6539  -38.4645 H   0  0  0  0  0  0  0  0  0  0  0  0
  -10.6603   14.0711  -39.7222 H   0  0  0  0  0  0  0  0  0  0  0  0
  -10.1783   15.6407  -39.0852 H   0  0  0  0  0  0  0  0  0  0  0  0
  -11.2179   16.5181  -36.9012 H   0  0  0  0  0  0  0  0  0  0  0  0
  -12.4106   15.5493  -36.0410 H   0  0  0  0  0  0  0  0  0  0  0  0
  -14.0686   13.6551  -39.6517 H   0  0  0  0  0  0  0  0  0  0  0  0
  -14.7745   14.2498  -38.1711 H   0  0  0  0  0  0  0  0  0  0  0  0
  -11.8485   16.6256  -40.2784 H   0  0  0  0  0  0  0  0  0  0  0  0
  -12.3285   15.0708  -40.9070 H   0  0  0  0  0  0  0  0  0  0  0  0
  -14.0730   16.5412  -37.2401 H   0  0  0  0  0  0  0  0  0  0  0  0
  -12.8918   17.5045  -38.0880 H   0  0  0  0  0  0  0  0  0  0  0  0
   -9.3707   15.8938  -34.7486 H   0  0  0  0  0  0  0  0  0  0  0  0
  -10.2073   14.4723  -34.0844 H   0  0  0  0  0  0  0  0  0  0  0  0
   -9.0087   15.3585  -33.1170 H   0  0  0  0  0  0  0  0  0  0  0  0
   -7.1721   12.2201  -34.1787 H   0  0  0  0  0  0  0  0  0  0  0  0
   -8.8847   12.2600  -33.7988 H   0  0  0  0  0  0  0  0  0  0  0  0
   -7.7345   13.1274  -32.7574 H   0  0  0  0  0  0  0  0  0  0  0  0
   -6.0183   14.2338  -35.1504 H   0  0  0  0  0  0  0  0  0  0  0  0
   -6.9071   15.7497  -35.4142 H   0  0  0  0  0  0  0  0  0  0  0  0
   -6.4904   15.2114  -33.7713 H   0  0  0  0  0  0  0  0  0  0  0  0
  -10.6214   12.9498  -36.6994 H   0  0  0  0  0  0  0  0  0  0  0  0
  -14.1908   17.1789  -40.0954 H   0  0  0  0  0  0  0  0  0  0  0  0
  1 14  1  0  0  0  0
  1 15  2  0  0  0  0
  1 17  1  0  0  0  0
  2  5  1  0  0  0  0
  2  8  1  0  0  0  0
  3  6  1  0  0  0  0
  3  8  1  0  0  0  0
  4  7  1  0  0  0  0
  4  8  1  0  0  0  0
  5  9  1  0  0  0  0
  6  9  1  0  0  0  0
  7  9  1  0  0  0  0
  8 14  1  0  0  0  0
  9 16  1  0  0  0  0
 10 13  1  0  0  0  0
 11 13  1  0  0  0  0
 12 13  1  0  0  0  0
 13 17  1  0  0  0  0
  2 18  1  0  0  0  0
  2 19  1  0  0  0  0
  3 20  1  0  0  0  0
  3 21  1  0  0  0  0
  4 22  1  0  0  0  0
  4 23  1  0  0  0  0
  5 24  1  0  0  0  0
  5 25  1  0  0  0  0
  6 26  1  0  0  0  0
  6 27  1  0  0  0  0
  7 28  1  0  0  0  0
  7 29  1  0  0  0  0
 10 30  1  0  0  0  0
 10 31  1  0  0  0  0
 10 32  1  0  0  0  0
 11 33  1  0  0  0  0
 11 34  1  0  0  0  0
 11 35  1  0  0  0  0
 12 36  1  0  0  0  0
 12 37  1  0  0  0  0
 12 38  1  0  0  0  0
 14 39  1  0  0  0  0
 16 40  1  0  0  0  0
M  END
> <id>
EN300-7456066

> <smiles>
CC(C)(C)OC(=O)NC1(CCC2(O)CC1)CC2

> <MDLNUMBER>
MFCD28403233

> <IUPAC Name>
tert-butyl N-{4-hydroxybicyclo[2.2.2]octan-1-yl}carbamate

> <CAS>
1252672-84-6

> <URL>
https://www.enaminestore.com/catalog/EN300-7456066

> <ROCS_ShapeQuery>
_x1247relevant_x1083L0AP1_x1305L0BP1_

> <ROCS_TanimotoCombo>
0.851 

> <ROCS_ShapeTanimoto>
0.472 

> <ROCS_ColorTanimoto>
0.378 

> <ROCS_RefTversky>
0.415 

> <ROCS_RefColorTversky>
0.423 

> <ROCS_RefTverskyCombo>
0.838 

> <ROCS_FitTversky>
1.416 

> <ROCS_FitColorTversky>
0.781 

> <ROCS_FitTverskyCombo>
2.197 

> <ROCS_ColorScore>
-9.012

> <ROCS_Overlap>
1223.247

> <ROCS_Rank>
129                 

$$$$
untitled-dbase-79029_4
  -OEChem-06232314393D

 31 33  0     1  0  0  0  0  0999 V2000
  -12.5615   16.1783  -39.6898 C   0  0  0  0  0  0  0  0  0  0  0  0
  -10.2663   14.3933  -36.5688 C   0  0  0  0  0  0  0  0  0  0  0  0
  -14.0798   16.0571  -37.7564 C   0  0  0  0  0  0  0  0  0  0  0  0
  -13.6894   14.0443  -39.2042 C   0  0  0  0  0  0  0  0  0  0  0  0
  -11.5927   16.3077  -37.4305 C   0  0  0  0  0  0  0  0  0  0  0  0
  -11.2022   14.2929  -38.8811 C   0  0  0  0  0  0  0  0  0  0  0  0
  -12.7268   14.1277  -36.8841 C   0  0  0  0  0  0  0  0  0  0  0  0
  -12.7992   16.7152  -38.2861 C   0  0  1  0  0  0  0  0  0  0  0  0
  -12.4024   14.6666  -39.7605 C   0  0  2  0  0  0  0  0  0  0  0  0
  -13.9293   14.5225  -37.7583 C   0  0  0  0  0  0  0  0  0  0  0  0
  -11.4368   14.7709  -37.4307 C   0  0  0  0  0  0  0  0  0  0  0  0
   -8.1688   13.3062  -36.6187 C   0  0  0  0  0  0  0  0  0  0  0  0
  -12.5024   16.9018  -40.6791 O   0  0  0  0  0  0  0  0  0  0  0  0
  -10.1798   14.6567  -35.3770 O   0  0  0  0  0  0  0  0  0  0  0  0
   -9.3436   13.7270  -37.3194 O   0  0  0  0  0  0  0  0  0  0  0  0
  -14.2887   16.4108  -36.7395 H   0  0  0  0  0  0  0  0  0  0  0  0
  -14.9355   16.3434  -38.3805 H   0  0  0  0  0  0  0  0  0  0  0  0
  -14.5447   14.3257  -39.8312 H   0  0  0  0  0  0  0  0  0  0  0  0
  -13.6168   12.9503  -39.2288 H   0  0  0  0  0  0  0  0  0  0  0  0
  -10.6800   16.7777  -37.8207 H   0  0  0  0  0  0  0  0  0  0  0  0
  -11.7196   16.6788  -36.4052 H   0  0  0  0  0  0  0  0  0  0  0  0
  -11.0453   13.2067  -38.9037 H   0  0  0  0  0  0  0  0  0  0  0  0
  -10.2878   14.7481  -39.2845 H   0  0  0  0  0  0  0  0  0  0  0  0
  -12.9023   14.4436  -35.8473 H   0  0  0  0  0  0  0  0  0  0  0  0
  -12.6258   13.0347  -36.8591 H   0  0  0  0  0  0  0  0  0  0  0  0
  -12.9046   17.8041  -38.3191 H   0  0  0  0  0  0  0  0  0  0  0  0
  -12.2370   14.3598  -40.7980 H   0  0  0  0  0  0  0  0  0  0  0  0
  -14.8422   14.0621  -37.3644 H   0  0  0  0  0  0  0  0  0  0  0  0
   -7.4994   12.7855  -37.3079 H   0  0  0  0  0  0  0  0  0  0  0  0
   -8.4513   12.6429  -35.7973 H   0  0  0  0  0  0  0  0  0  0  0  0
   -7.6610   14.1858  -36.2160 H   0  0  0  0  0  0  0  0  0  0  0  0
  1  8  1  0  0  0  0
  1  9  1  0  0  0  0
  1 13  2  0  0  0  0
  2 11  1  0  0  0  0
  2 14  2  0  0  0  0
  2 15  1  0  0  0  0
  3  8  1  0  0  0  0
  3 10  1  0  0  0  0
  4  9  1  0  0  0  0
  4 10  1  0  0  0  0
  5  8  1  0  0  0  0
  5 11  1  0  0  0  0
  6  9  1  0  0  0  0
  6 11  1  0  0  0  0
  7 10  1  0  0  0  0
  7 11  1  0  0  0  0
 12 15  1  0  0  0  0
  3 16  1  0  0  0  0
  3 17  1  0  0  0  0
  4 18  1  0  0  0  0
  4 19  1  0  0  0  0
  5 20  1  0  0  0  0
  5 21  1  0  0  0  0
  6 22  1  0  0  0  0
  6 23  1  0  0  0  0
  7 24  1  0  0  0  0
  7 25  1  0  0  0  0
  8 26  1  0  0  0  0
  9 27  1  0  0  0  0
 10 28  1  0  0  0  0
 12 29  1  0  0  0  0
 12 30  1  0  0  0  0
 12 31  1  0  0  0  0
M  END
> <id>
EN300-1662931

> <smiles>
COC(=O)C1(CC2CC3C1)CC(C2)C3=O

> <MDLNUMBER>
MFCD00181718

> <IUPAC Name>
methyl 4-oxoadamantane-1-carboxylate

> <CAS>
56674-88-5

> <Purity>
95

> <URL>
https://www.enaminestore.com/catalog/EN300-1662931

> <ROCS_ShapeQuery>
_x1247relevant_x1083L0AP1_x1305L0BP1_

> <ROCS_TanimotoCombo>
0.850 

> <ROCS_ShapeTanimoto>
0.510 

> <ROCS_ColorTanimoto>
0.340 

> <ROCS_RefTversky>
0.430 

> <ROCS_RefColorTversky>
0.363 

> <ROCS_RefTverskyCombo>
0.793 

> <ROCS_FitTversky>
1.579 

> <ROCS_FitColorTversky>
0.840 

> <ROCS_FitTverskyCombo>
2.419 

> <ROCS_ColorScore>
-7.697

> <ROCS_Overlap>
1266.365

> <ROCS_Rank>
130                 

$$$$
untitled-dbase-71486_129
  -OEChem-06232314393D

 37 38  0     1  0  0  0  0  0999 V2000
   -9.3538   14.6295  -36.4532 C   0  0  0  0  0  0  0  0  0  0  0  0
  -13.2276   15.2951  -37.3434 C   0  0  0  0  0  0  0  0  0  0  0  0
  -11.1434   15.9111  -38.3208 C   0  0  0  0  0  0  0  0  0  0  0  0
  -13.2880   14.2403  -39.4746 C   0  0  0  0  0  0  0  0  0  0  0  0
  -12.6384   16.2754  -38.3623 C   0  0  1  0  0  0  0  0  0  0  0  0
  -12.6745   14.0673  -38.0700 C   0  0  1  0  0  0  0  0  0  0  0  0
  -11.1611   14.3764  -38.1475 C   0  0  2  0  0  0  0  0  0  0  0  0
  -13.2350   15.7616  -39.6859 C   0  0  2  0  0  0  0  0  0  0  0  0
  -10.0408   15.8015  -34.2171 C   0  0  0  0  0  0  0  0  0  0  0  0
   -9.1411   13.8233  -32.9575 C   0  0  0  0  0  0  0  0  0  0  0  0
   -7.5555   15.4703  -33.9974 C   0  0  0  0  0  0  0  0  0  0  0  0
   -8.9108   14.7768  -34.1280 C   0  0  0  0  0  0  0  0  0  0  0  0
  -10.4525   13.9649  -36.9638 N   0  0  0  0  0  0  0  0  0  0  0  0
   -8.8454   15.6388  -36.9303 O   0  0  0  0  0  0  0  0  0  0  0  0
  -14.5510   16.2649  -39.8681 O   0  0  0  0  0  0  0  0  0  0  0  0
   -8.9091   13.9948  -35.3276 O   0  0  0  0  0  0  0  0  0  0  0  0
  -12.8238   15.4279  -36.3346 H   0  0  0  0  0  0  0  0  0  0  0  0
  -14.3216   15.3151  -37.3023 H   0  0  0  0  0  0  0  0  0  0  0  0
  -10.6149   16.2109  -39.2317 H   0  0  0  0  0  0  0  0  0  0  0  0
  -10.6565   16.4059  -37.4718 H   0  0  0  0  0  0  0  0  0  0  0  0
  -12.7082   13.7050  -40.2337 H   0  0  0  0  0  0  0  0  0  0  0  0
  -14.3173   13.8647  -39.4992 H   0  0  0  0  0  0  0  0  0  0  0  0
  -12.8504   17.3258  -38.1509 H   0  0  0  0  0  0  0  0  0  0  0  0
  -12.9123   13.1019  -37.6171 H   0  0  0  0  0  0  0  0  0  0  0  0
  -10.6845   13.8713  -38.9942 H   0  0  0  0  0  0  0  0  0  0  0  0
  -12.6355   16.0344  -40.5602 H   0  0  0  0  0  0  0  0  0  0  0  0
   -9.8792   16.4878  -35.0560 H   0  0  0  0  0  0  0  0  0  0  0  0
  -11.0146   15.3179  -34.3461 H   0  0  0  0  0  0  0  0  0  0  0  0
  -10.0790   16.4210  -33.3138 H   0  0  0  0  0  0  0  0  0  0  0  0
   -8.3327   13.0863  -32.8898 H   0  0  0  0  0  0  0  0  0  0  0  0
  -10.0674   13.2536  -33.0946 H   0  0  0  0  0  0  0  0  0  0  0  0
   -9.2018   14.3598  -32.0052 H   0  0  0  0  0  0  0  0  0  0  0  0
   -6.7448   14.7355  -33.9335 H   0  0  0  0  0  0  0  0  0  0  0  0
   -7.3569   16.1309  -34.8476 H   0  0  0  0  0  0  0  0  0  0  0  0
   -7.5085   16.0636  -33.0770 H   0  0  0  0  0  0  0  0  0  0  0  0
  -10.7802   13.1351  -36.4740 H   0  0  0  0  0  0  0  0  0  0  0  0
  -14.4694   17.2239  -39.9973 H   0  0  0  0  0  0  0  0  0  0  0  0
  1 13  1  0  0  0  0
  1 14  2  0  0  0  0
  1 16  1  0  0  0  0
  2  5  1  0  0  0  0
  2  6  1  0  0  0  0
  3  5  1  0  0  0  0
  3  7  1  0  0  0  0
  4  6  1  0  0  0  0
  4  8  1  0  0  0  0
  5  8  1  0  0  0  0
  6  7  1  0  0  0  0
  7 13  1  0  0  0  0
  8 15  1  0  0  0  0
  9 12  1  0  0  0  0
 10 12  1  0  0  0  0
 11 12  1  0  0  0  0
 12 16  1  0  0  0  0
  2 17  1  0  0  0  0
  2 18  1  0  0  0  0
  3 19  1  0  0  0  0
  3 20  1  0  0  0  0
  4 21  1  0  0  0  0
  4 22  1  0  0  0  0
  5 23  1  0  0  0  0
  6 24  1  0  0  0  0
  7 25  1  0  0  0  0
  8 26  1  0  0  0  0
  9 27  1  0  0  0  0
  9 28  1  0  0  0  0
  9 29  1  0  0  0  0
 10 30  1  0  0  0  0
 10 31  1  0  0  0  0
 10 32  1  0  0  0  0
 11 33  1  0  0  0  0
 11 34  1  0  0  0  0
 11 35  1  0  0  0  0
 13 36  1  0  0  0  0
 15 37  1  0  0  0  0
M  END
> <id>
EN300-6743679

> <smiles>
CC(C)(C)OC(=O)NC1CC2CC1CC2O

> <MDLNUMBER>
MFCD30347784

> <IUPAC Name>
tert-butyl N-{5-hydroxybicyclo[2.2.1]heptan-2-yl}carbamate

> <CAS>
1242273-72-8

> <Purity>
95

> <URL>
https://www.enaminestore.com/catalog/EN300-6743679

> <ROCS_ShapeQuery>
_x1247relevant_x1083L0AP1_x1305L0BP1_

> <ROCS_TanimotoCombo>
0.850 

> <ROCS_ShapeTanimoto>
0.463 

> <ROCS_ColorTanimoto>
0.387 

> <ROCS_RefTversky>
0.405 

> <ROCS_RefColorTversky>
0.434 

> <ROCS_RefTverskyCombo>
0.839 

> <ROCS_FitTversky>
1.452 

> <ROCS_FitColorTversky>
0.782 

> <ROCS_FitTverskyCombo>
2.233 

> <ROCS_ColorScore>
-9.255

> <ROCS_Overlap>
1192.359

> <ROCS_Rank>
131                 

$$$$
untitled-dbase-141104_2
  -OEChem-06232314393D

 22 23  0     1  0  0  0  0  0999 V2000
  -12.8223   15.9904  -39.6228 C   0  0  0  0  0  0  0  0  0  0  0  0
  -10.0878   15.0022  -37.2095 C   0  0  0  0  0  0  0  0  0  0  0  0
  -14.0727   15.9213  -38.7875 C   0  0  0  0  0  0  0  0  0  0  0  0
  -12.4864   15.6024  -36.8167 C   0  0  0  0  0  0  0  0  0  0  0  0
  -11.7727   15.0875  -39.0283 C   0  0  1  0  0  0  0  0  0  0  0  0
  -11.2730   15.7395  -37.7482 C   0  0  2  0  0  0  0  0  0  0  0  0
  -13.5385   14.9585  -37.7271 C   0  0  2  0  0  0  0  0  0  0  0  0
   -9.3651   12.8660  -36.5037 C   0  0  0  0  0  0  0  0  0  0  0  0
  -12.6714   16.6941  -40.6091 O   0  0  0  0  0  0  0  0  0  0  0  0
   -9.0027   15.5207  -36.9842 O   0  0  0  0  0  0  0  0  0  0  0  0
  -12.7196   14.0922  -38.5425 O   0  0  0  0  0  0  0  0  0  0  0  0
  -10.4140   13.6922  -37.0188 O   0  0  0  0  0  0  0  0  0  0  0  0
  -14.3627   16.8919  -38.3832 H   0  0  0  0  0  0  0  0  0  0  0  0
  -14.8684   15.4668  -39.3835 H   0  0  0  0  0  0  0  0  0  0  0  0
  -12.2642   14.9429  -35.9698 H   0  0  0  0  0  0  0  0  0  0  0  0
  -12.8227   16.5656  -36.4203 H   0  0  0  0  0  0  0  0  0  0  0  0
  -11.0630   14.6608  -39.7365 H   0  0  0  0  0  0  0  0  0  0  0  0
  -10.9858   16.7865  -37.8928 H   0  0  0  0  0  0  0  0  0  0  0  0
  -14.3173   14.4095  -37.1927 H   0  0  0  0  0  0  0  0  0  0  0  0
   -9.7296   11.8423  -36.3890 H   0  0  0  0  0  0  0  0  0  0  0  0
   -9.0335   13.2563  -35.5382 H   0  0  0  0  0  0  0  0  0  0  0  0
   -8.5278   12.8758  -37.2054 H   0  0  0  0  0  0  0  0  0  0  0  0
  1  3  1  0  0  0  0
  1  5  1  0  0  0  0
  1  9  2  0  0  0  0
  2  6  1  0  0  0  0
  2 10  2  0  0  0  0
  2 12  1  0  0  0  0
  3  7  1  0  0  0  0
  4  6  1  0  0  0  0
  4  7  1  0  0  0  0
  5  6  1  0  0  0  0
  5 11  1  0  0  0  0
  7 11  1  0  0  0  0
  8 12  1  0  0  0  0
  3 13  1  0  0  0  0
  3 14  1  0  0  0  0
  4 15  1  0  0  0  0
  4 16  1  0  0  0  0
  5 17  1  0  0  0  0
  6 18  1  0  0  0  0
  7 19  1  0  0  0  0
  8 20  1  0  0  0  0
  8 21  1  0  0  0  0
  8 22  1  0  0  0  0
M  END
> <id>
EN300-7891903

> <smiles>
COC(=O)C1CC2CC(=O)C1O2

> <MDLNUMBER>
MFCD24530671

> <IUPAC Name>
methyl 6-oxo-7-oxabicyclo[2.2.1]heptane-2-carboxylate

> <CAS>
1822960-56-4

> <URL>
https://www.enaminestore.com/catalog/EN300-7891903

> <ROCS_ShapeQuery>
_x1247relevant_x1083L0AP1_x1305L0BP1_

> <ROCS_TanimotoCombo>
0.850 

> <ROCS_ShapeTanimoto>
0.479 

> <ROCS_ColorTanimoto>
0.371 

> <ROCS_RefTversky>
0.398 

> <ROCS_RefColorTversky>
0.398 

> <ROCS_RefTverskyCombo>
0.796 

> <ROCS_FitTversky>
1.744 

> <ROCS_FitColorTversky>
0.844 

> <ROCS_FitTverskyCombo>
2.588 

> <ROCS_ColorScore>
-8.447

> <ROCS_Overlap>
1169.297

> <ROCS_Rank>
132                 

$$$$
untitled-dbase-151118_10
  -OEChem-06232314393D

 29 30  0     1  0  0  0  0  0999 V2000
  -13.2550   16.4411  -40.3401 C   0  0  0  0  0  0  0  0  0  0  0  0
  -10.2014   15.0628  -36.6578 C   0  0  0  0  0  0  0  0  0  0  0  0
  -13.0679   14.1515  -39.2229 C   0  0  0  0  0  0  0  0  0  0  0  0
  -13.0549   13.7161  -37.7402 C   0  0  0  0  0  0  0  0  0  0  0  0
  -13.5404   16.0373  -37.8467 C   0  0  0  0  0  0  0  0  0  0  0  0
  -11.3584   15.9308  -38.7372 C   0  0  0  0  0  0  0  0  0  0  0  0
  -12.8161   15.6725  -39.1417 C   0  0  2  0  0  0  0  0  0  0  0  0
  -12.7291   15.0347  -37.0080 C   0  0  1  0  0  0  0  0  0  0  0  0
  -13.0839   15.0617  -35.5351 C   0  0  0  0  0  0  0  0  0  0  0  0
   -8.8980   15.2739  -37.3883 C   0  0  0  0  0  0  0  0  0  0  0  0
  -11.3396   15.3999  -37.3701 N   0  0  0  0  0  0  0  0  0  0  0  0
  -12.5225   17.1166  -41.0477 O   0  0  0  0  0  0  0  0  0  0  0  0
  -10.1954   14.6175  -35.5100 O   0  0  0  0  0  0  0  0  0  0  0  0
  -14.5871   16.2929  -40.5425 O   0  0  0  0  0  0  0  0  0  0  0  0
   -9.1223   15.7621  -38.6207 F   0  0  0  0  0  0  0  0  0  0  0  0
   -8.1192   16.1454  -36.7235 F   0  0  0  0  0  0  0  0  0  0  0  0
   -8.2273   14.1146  -37.5084 F   0  0  0  0  0  0  0  0  0  0  0  0
  -12.2939   13.6356  -39.8014 H   0  0  0  0  0  0  0  0  0  0  0  0
  -14.0367   13.9187  -39.6797 H   0  0  0  0  0  0  0  0  0  0  0  0
  -14.0406   13.3311  -37.4536 H   0  0  0  0  0  0  0  0  0  0  0  0
  -12.3157   12.9314  -37.5476 H   0  0  0  0  0  0  0  0  0  0  0  0
  -13.3949   17.0806  -37.5417 H   0  0  0  0  0  0  0  0  0  0  0  0
  -14.6154   15.8229  -37.8745 H   0  0  0  0  0  0  0  0  0  0  0  0
  -10.6376   15.4068  -39.3722 H   0  0  0  0  0  0  0  0  0  0  0  0
  -11.1059   16.9964  -38.7043 H   0  0  0  0  0  0  0  0  0  0  0  0
  -12.8207   16.0279  -35.0973 H   0  0  0  0  0  0  0  0  0  0  0  0
  -12.5427   14.2785  -34.9983 H   0  0  0  0  0  0  0  0  0  0  0  0
  -14.1560   14.8991  -35.3983 H   0  0  0  0  0  0  0  0  0  0  0  0
  -14.8964   16.7937  -41.3272 H   0  0  0  0  0  0  0  0  0  0  0  0
  1  7  1  0  0  0  0
  1 12  2  0  0  0  0
  1 14  1  0  0  0  0
  2 10  1  0  0  0  0
  2 11  1  0  0  0  0
  2 13  2  0  0  0  0
  3  4  1  0  0  0  0
  3  7  1  0  0  0  0
  4  8  1  0  0  0  0
  5  7  1  0  0  0  0
  5  8  1  0  0  0  0
  6  7  1  0  0  0  0
  6 11  1  0  0  0  0
  8  9  1  0  0  0  0
  8 11  1  0  0  0  0
 10 15  1  0  0  0  0
 10 16  1  0  0  0  0
 10 17  1  0  0  0  0
  3 18  1  0  0  0  0
  3 19  1  0  0  0  0
  4 20  1  0  0  0  0
  4 21  1  0  0  0  0
  5 22  1  0  0  0  0
  5 23  1  0  0  0  0
  6 24  1  0  0  0  0
  6 25  1  0  0  0  0
  9 26  1  0  0  0  0
  9 27  1  0  0  0  0
  9 28  1  0  0  0  0
 14 29  1  0  0  0  0
M  END
> <id>
EN300-28278754

> <smiles>
CC1(CCC2(CN1C(=O)C(F)(F)F)C(=O)O)C2

> <IUPAC Name>
1-methyl-2-(2,2,2-trifluoroacetyl)-2-azabicyclo[2.2.1]heptane-4-carboxylic acid

> <CAS>
2680873-22-5

> <URL>
https://www.enaminestore.com/catalog/EN300-28278754

> <ROCS_ShapeQuery>
_x1247relevant_x1083L0AP1_x1305L0BP1_

> <ROCS_TanimotoCombo>
0.850 

> <ROCS_ShapeTanimoto>
0.522 

> <ROCS_ColorTanimoto>
0.328 

> <ROCS_RefTversky>
0.447 

> <ROCS_RefColorTversky>
0.374 

> <ROCS_RefTverskyCombo>
0.821 

> <ROCS_FitTversky>
1.468 

> <ROCS_FitColorTversky>
0.727 

> <ROCS_FitTverskyCombo>
2.196 

> <ROCS_ColorScore>
-7.960

> <ROCS_Overlap>
1319.735

> <ROCS_Rank>
133                 

$$$$
untitled-dbase-171889_16
  -OEChem-06232314393D

 24 25  0     1  0  0  0  0  0999 V2000
  -13.2661   16.4181  -40.3437 C   0  0  0  0  0  0  0  0  0  0  0  0
   -9.9923   15.1131  -36.8144 C   0  0  0  0  0  0  0  0  0  0  0  0
  -12.6375   14.2831  -39.0996 C   0  0  0  0  0  0  0  0  0  0  0  0
  -11.3988   16.2622  -38.6097 C   0  0  0  0  0  0  0  0  0  0  0  0
  -13.4000   14.9860  -37.0183 C   0  0  0  0  0  0  0  0  0  0  0  0
  -12.2092   14.2566  -37.6427 C   0  0  2  0  0  0  0  0  0  0  0  0
  -12.7833   15.7996  -39.0775 C   0  0  1  0  0  0  0  0  0  0  0  0
  -10.2315   14.3982  -35.5093 C   0  0  0  0  0  0  0  0  0  0  0  0
  -11.0902   15.2070  -37.6417 N   0  0  0  0  0  0  0  0  0  0  0  0
  -12.6505   17.2447  -41.0002 O   0  0  0  0  0  0  0  0  0  0  0  0
   -8.8801   15.5661  -37.0867 O   0  0  0  0  0  0  0  0  0  0  0  0
  -13.7067   16.0226  -37.9936 O   0  0  0  0  0  0  0  0  0  0  0  0
  -14.4911   15.9405  -40.6731 O   0  0  0  0  0  0  0  0  0  0  0  0
  -11.5095   13.9876  -35.4225 F   0  0  0  0  0  0  0  0  0  0  0  0
   -9.4344   13.3195  -35.4062 F   0  0  0  0  0  0  0  0  0  0  0  0
   -9.9780   15.2102  -34.4672 F   0  0  0  0  0  0  0  0  0  0  0  0
  -11.8764   13.9188  -39.7977 H   0  0  0  0  0  0  0  0  0  0  0  0
  -13.5833   13.7585  -39.2753 H   0  0  0  0  0  0  0  0  0  0  0  0
  -10.6432   16.2586  -39.4013 H   0  0  0  0  0  0  0  0  0  0  0  0
  -11.4137   17.2304  -38.1003 H   0  0  0  0  0  0  0  0  0  0  0  0
  -14.2790   14.3404  -36.9238 H   0  0  0  0  0  0  0  0  0  0  0  0
  -13.1784   15.4458  -36.0505 H   0  0  0  0  0  0  0  0  0  0  0  0
  -11.9636   13.2911  -37.1986 H   0  0  0  0  0  0  0  0  0  0  0  0
  -14.8166   15.2850  -40.0198 H   0  0  0  0  0  0  0  0  0  0  0  0
  1  7  1  0  0  0  0
  1 10  2  0  0  0  0
  1 13  1  0  0  0  0
  2  8  1  0  0  0  0
  2  9  1  0  0  0  0
  2 11  2  0  0  0  0
  3  6  1  0  0  0  0
  3  7  1  0  0  0  0
  4  7  1  0  0  0  0
  4  9  1  0  0  0  0
  5  6  1  0  0  0  0
  5 12  1  0  0  0  0
  6  9  1  0  0  0  0
  7 12  1  0  0  0  0
  8 14  1  0  0  0  0
  8 15  1  0  0  0  0
  8 16  1  0  0  0  0
  3 17  1  0  0  0  0
  3 18  1  0  0  0  0
  4 19  1  0  0  0  0
  4 20  1  0  0  0  0
  5 21  1  0  0  0  0
  5 22  1  0  0  0  0
  6 23  1  0  0  0  0
 13 24  1  0  0  0  0
M  END
> <id>
EN300-39689767

> <smiles>
OC(=O)C1(CC2CO1)CN2C(=O)C(F)(F)F

> <IUPAC Name>
5-(2,2,2-trifluoroacetyl)-2-oxa-5-azabicyclo[2.2.1]heptane-1-carboxylic acid

> <URL>
https://www.enaminestore.com/catalog/EN300-39689767

> <ROCS_ShapeQuery>
_x1247relevant_x1083L0AP1_x1305L0BP1_

> <ROCS_TanimotoCombo>
0.850 

> <ROCS_ShapeTanimoto>
0.524 

> <ROCS_ColorTanimoto>
0.326 

> <ROCS_RefTversky>
0.445 

> <ROCS_RefColorTversky>
0.384 

> <ROCS_RefTverskyCombo>
0.829 

> <ROCS_FitTversky>
1.513 

> <ROCS_FitColorTversky>
0.683 

> <ROCS_FitTverskyCombo>
2.196 

> <ROCS_ColorScore>
-8.182

> <ROCS_Overlap>
1312.250

> <ROCS_Rank>
134                 

$$$$
untitled-dbase-171393_16
  -OEChem-06232314393D

 24 25  0     1  0  0  0  0  0999 V2000
  -13.2661   16.4181  -40.3437 C   0  0  0  0  0  0  0  0  0  0  0  0
   -9.9924   15.1132  -36.8144 C   0  0  0  0  0  0  0  0  0  0  0  0
  -12.6373   14.2832  -39.0997 C   0  0  0  0  0  0  0  0  0  0  0  0
  -11.3989   16.2624  -38.6095 C   0  0  0  0  0  0  0  0  0  0  0  0
  -13.4001   14.9858  -37.0185 C   0  0  0  0  0  0  0  0  0  0  0  0
  -12.2091   14.2566  -37.6427 C   0  0  2  0  0  0  0  0  0  0  0  0
  -12.7834   15.7996  -39.0775 C   0  0  1  0  0  0  0  0  0  0  0  0
  -10.2315   14.3982  -35.5094 C   0  0  0  0  0  0  0  0  0  0  0  0
  -11.0903   15.2071  -37.6415 N   0  0  0  0  0  0  0  0  0  0  0  0
  -12.6506   17.2448  -41.0002 O   0  0  0  0  0  0  0  0  0  0  0  0
   -8.8801   15.5661  -37.0867 O   0  0  0  0  0  0  0  0  0  0  0  0
  -13.7068   16.0224  -37.9937 O   0  0  0  0  0  0  0  0  0  0  0  0
  -14.4909   15.9402  -40.6733 O   0  0  0  0  0  0  0  0  0  0  0  0
  -11.5095   13.9877  -35.4225 F   0  0  0  0  0  0  0  0  0  0  0  0
   -9.4344   13.3195  -35.4064 F   0  0  0  0  0  0  0  0  0  0  0  0
   -9.9778   15.2101  -34.4672 F   0  0  0  0  0  0  0  0  0  0  0  0
  -11.8765   13.9185  -39.7980 H   0  0  0  0  0  0  0  0  0  0  0  0
  -13.5831   13.7583  -39.2746 H   0  0  0  0  0  0  0  0  0  0  0  0
  -10.6434   16.2593  -39.4011 H   0  0  0  0  0  0  0  0  0  0  0  0
  -11.4142   17.2308  -38.1001 H   0  0  0  0  0  0  0  0  0  0  0  0
  -14.2792   14.3401  -36.9243 H   0  0  0  0  0  0  0  0  0  0  0  0
  -13.1793   15.4454  -36.0502 H   0  0  0  0  0  0  0  0  0  0  0  0
  -11.9635   13.2910  -37.1988 H   0  0  0  0  0  0  0  0  0  0  0  0
  -14.8164   15.2846  -40.0201 H   0  0  0  0  0  0  0  0  0  0  0  0
  1  7  1  6  0  0  0
  1 10  2  0  0  0  0
  1 13  1  0  0  0  0
  2  8  1  0  0  0  0
  2  9  1  0  0  0  0
  2 11  2  0  0  0  0
  3  6  1  0  0  0  0
  3  7  1  0  0  0  0
  4  7  1  0  0  0  0
  4  9  1  0  0  0  0
  5  6  1  1  0  0  0
  5 12  1  0  0  0  0
  6  9  1  0  0  0  0
  7 12  1  0  0  0  0
  8 14  1  0  0  0  0
  8 15  1  0  0  0  0
  8 16  1  0  0  0  0
  3 17  1  0  0  0  0
  3 18  1  0  0  0  0
  4 19  1  0  0  0  0
  4 20  1  0  0  0  0
  5 21  1  0  0  0  0
  5 22  1  0  0  0  0
  6 23  1  0  0  0  0
 13 24  1  0  0  0  0
M  END
> <id>
EN300-39918119

> <smiles>
OC(=O)[C@@]1(C[C@@H]2CO1)CN2C(=O)C(F)(F)F

> <IUPAC Name>
(1R,4R)-5-(2,2,2-trifluoroacetyl)-2-oxa-5-azabicyclo[2.2.1]heptane-1-carboxylic acid

> <URL>
https://www.enaminestore.com/catalog/EN300-39918119

> <ROCS_ShapeQuery>
_x1247relevant_x1083L0AP1_x1305L0BP1_

> <ROCS_TanimotoCombo>
0.850 

> <ROCS_ShapeTanimoto>
0.524 

> <ROCS_ColorTanimoto>
0.326 

> <ROCS_RefTversky>
0.445 

> <ROCS_RefColorTversky>
0.384 

> <ROCS_RefTverskyCombo>
0.829 

> <ROCS_FitTversky>
1.513 

> <ROCS_FitColorTversky>
0.683 

> <ROCS_FitTverskyCombo>
2.196 

> <ROCS_ColorScore>
-8.181

> <ROCS_Overlap>
1312.253

> <ROCS_Rank>
135                 

$$$$
untitled-dbase-74407_38
  -OEChem-06232314393D

 40 44  0     1  0  0  0  0  0999 V2000
   -9.6363   15.2254  -37.1054 C   0  0  0  0  0  0  0  0  0  0  0  0
  -13.9974   14.7755  -36.8040 C   0  0  0  0  0  0  0  0  0  0  0  0
  -13.2575   15.0573  -40.3542 C   0  0  0  0  0  0  0  0  0  0  0  0
  -10.6979   15.9008  -37.9132 C   0  0  0  0  0  0  0  0  0  0  0  0
  -14.1730   15.3814  -38.1796 C   0  0  2  0  0  0  0  0  0  0  0  0
  -13.6010   14.2838  -39.0990 C   0  0  2  0  0  0  0  0  0  0  0  0
  -12.4971   14.6168  -36.9466 C   0  0  2  0  0  0  0  0  0  0  0  0
  -12.3173   16.0065  -39.6410 C   0  0  2  0  0  0  0  0  0  0  0  0
  -12.0300   16.0644  -37.2057 C   0  0  2  0  0  0  0  0  0  0  0  0
  -11.2743   15.0492  -39.0278 C   0  0  2  0  0  0  0  0  0  0  0  0
  -13.0496   16.4553  -38.3314 C   0  0  2  0  0  0  0  0  0  0  0  0
  -12.2482   14.0139  -38.3654 C   0  0  2  0  0  0  0  0  0  0  0  0
   -8.8034   14.0991  -34.6286 C   0  0  0  0  0  0  0  0  0  0  0  0
   -9.8877   11.9829  -35.4379 C   0  0  0  0  0  0  0  0  0  0  0  0
   -7.9515   12.9598  -36.7048 C   0  0  0  0  0  0  0  0  0  0  0  0
   -9.1831   13.2717  -35.8558 C   0  0  0  0  0  0  0  0  0  0  0  0
   -8.5259   15.6974  -36.9017 O   0  0  0  0  0  0  0  0  0  0  0  0
  -10.1032   14.0286  -36.6485 O   0  0  0  0  0  0  0  0  0  0  0  0
  -14.2809   15.4577  -35.9969 H   0  0  0  0  0  0  0  0  0  0  0  0
  -14.5180   13.8200  -36.6876 H   0  0  0  0  0  0  0  0  0  0  0  0
  -12.7557   14.4451  -41.1097 H   0  0  0  0  0  0  0  0  0  0  0  0
  -14.1215   15.5637  -40.7950 H   0  0  0  0  0  0  0  0  0  0  0  0
  -10.3025   16.8584  -38.2702 H   0  0  0  0  0  0  0  0  0  0  0  0
  -15.1756   15.7218  -38.4460 H   0  0  0  0  0  0  0  0  0  0  0  0
  -14.2436   13.4092  -39.2177 H   0  0  0  0  0  0  0  0  0  0  0  0
  -11.9859   14.1053  -36.1288 H   0  0  0  0  0  0  0  0  0  0  0  0
  -11.8947   16.8200  -40.2341 H   0  0  0  0  0  0  0  0  0  0  0  0
  -12.0497   16.7063  -36.3222 H   0  0  0  0  0  0  0  0  0  0  0  0
  -10.5716   14.6148  -39.7425 H   0  0  0  0  0  0  0  0  0  0  0  0
  -13.3866   17.4930  -38.3163 H   0  0  0  0  0  0  0  0  0  0  0  0
  -11.9071   12.9774  -38.3806 H   0  0  0  0  0  0  0  0  0  0  0  0
   -8.2974   15.0251  -34.9243 H   0  0  0  0  0  0  0  0  0  0  0  0
   -9.6824   14.3592  -34.0298 H   0  0  0  0  0  0  0  0  0  0  0  0
   -8.0996   13.5523  -33.9908 H   0  0  0  0  0  0  0  0  0  0  0  0
  -10.1619   11.3860  -36.3153 H   0  0  0  0  0  0  0  0  0  0  0  0
  -10.8226   12.2028  -34.9098 H   0  0  0  0  0  0  0  0  0  0  0  0
   -9.2567   11.3706  -34.7856 H   0  0  0  0  0  0  0  0  0  0  0  0
   -8.2236   12.3662  -37.5851 H   0  0  0  0  0  0  0  0  0  0  0  0
   -7.4539   13.8738  -37.0446 H   0  0  0  0  0  0  0  0  0  0  0  0
   -7.2296   12.3601  -36.1387 H   0  0  0  0  0  0  0  0  0  0  0  0
  1  4  1  0  0  0  0
  1 17  2  0  0  0  0
  1 18  1  0  0  0  0
  2  5  1  0  0  0  0
  2  7  1  0  0  0  0
  3  6  1  0  0  0  0
  3  8  1  0  0  0  0
  4  9  1  0  0  0  0
  4 10  1  0  0  0  0
  5  6  1  0  0  0  0
  5 11  1  0  0  0  0
  6 12  1  0  0  0  0
  7  9  1  0  0  0  0
  7 12  1  0  0  0  0
  8 10  1  0  0  0  0
  8 11  1  0  0  0  0
  9 11  1  0  0  0  0
 10 12  1  0  0  0  0
 13 16  1  0  0  0  0
 14 16  1  0  0  0  0
 15 16  1  0  0  0  0
 16 18  1  0  0  0  0
  2 19  1  0  0  0  0
  2 20  1  0  0  0  0
  3 21  1  0  0  0  0
  3 22  1  0  0  0  0
  4 23  1  0  0  0  0
  5 24  1  0  0  0  0
  6 25  1  0  0  0  0
  7 26  1  0  0  0  0
  8 27  1  0  0  0  0
  9 28  1  0  0  0  0
 10 29  1  0  0  0  0
 11 30  1  0  0  0  0
 12 31  1  0  0  0  0
 13 32  1  0  0  0  0
 13 33  1  0  0  0  0
 13 34  1  0  0  0  0
 14 35  1  0  0  0  0
 14 36  1  0  0  0  0
 14 37  1  0  0  0  0
 15 38  1  0  0  0  0
 15 39  1  0  0  0  0
 15 40  1  0  0  0  0
M  END
> <id>
EN300-27701179

> <smiles>
CC(C)(C)OC(=O)C1C2C3CC4C5CC(C1C53)C42

> <MDLNUMBER>
MFCD34167910

> <IUPAC Name>
tert-butyl pentacyclo[6.3.0.0^{2,6}.0^{3,10}.0^{5,9}]undecane-4-carboxylate

> <CAS>
2648945-36-0

> <Purity>
95

> <URL>
https://www.enaminestore.com/catalog/EN300-27701179

> <ROCS_ShapeQuery>
_x1247relevant_x1083L0AP1_x1305L0BP1_

> <ROCS_TanimotoCombo>
0.850 

> <ROCS_ShapeTanimoto>
0.562 

> <ROCS_ColorTanimoto>
0.287 

> <ROCS_RefTversky>
0.479 

> <ROCS_RefColorTversky>
0.816 

> <ROCS_RefTverskyCombo>
1.295 

> <ROCS_FitTversky>
1.448 

> <ROCS_FitColorTversky>
0.307 

> <ROCS_FitTverskyCombo>
1.755 

> <ROCS_ColorScore>
-19.626

> <ROCS_Overlap>
1415.033

> <ROCS_Rank>
136                 

$$$$
untitled-dbase-151765_20
  -OEChem-06232314393D

 26 27  0     1  0  0  0  0  0999 V2000
  -13.3137   16.2369  -40.3079 C   0  0  0  0  0  0  0  0  0  0  0  0
   -9.9746   14.9419  -36.8888 C   0  0  0  0  0  0  0  0  0  0  0  0
  -13.9439   15.2627  -37.5972 C   0  0  0  0  0  0  0  0  0  0  0  0
  -12.9639   16.4369  -37.3951 C   0  0  0  0  0  0  0  0  0  0  0  0
  -12.0000   13.7073  -37.8368 C   0  0  0  0  0  0  0  0  0  0  0  0
  -12.4425   15.3513  -39.4733 C   0  0  2  0  0  0  0  0  0  0  0  0
  -13.1880   14.3444  -38.5863 C   0  0  2  0  0  0  0  0  0  0  0  0
  -11.7690   16.0308  -38.2791 C   0  0  2  0  0  0  0  0  0  0  0  0
   -9.8928   13.9895  -35.7237 C   0  0  0  0  0  0  0  0  0  0  0  0
  -11.1408   14.8758  -37.6205 N   0  0  0  0  0  0  0  0  0  0  0  0
  -14.5267   16.1315  -40.4120 O   0  0  0  0  0  0  0  0  0  0  0  0
   -9.0458   15.7116  -37.1361 O   0  0  0  0  0  0  0  0  0  0  0  0
  -12.5723   17.1786  -40.9409 O   0  0  0  0  0  0  0  0  0  0  0  0
  -11.0127   13.2491  -35.6384 F   0  0  0  0  0  0  0  0  0  0  0  0
   -8.8464   13.1558  -35.8645 F   0  0  0  0  0  0  0  0  0  0  0  0
   -9.7429   14.6613  -34.5678 F   0  0  0  0  0  0  0  0  0  0  0  0
  -14.1749   14.7572  -36.6541 H   0  0  0  0  0  0  0  0  0  0  0  0
  -14.8841   15.6224  -38.0296 H   0  0  0  0  0  0  0  0  0  0  0  0
  -13.4138   17.3746  -37.7395 H   0  0  0  0  0  0  0  0  0  0  0  0
  -12.6848   16.5635  -36.3438 H   0  0  0  0  0  0  0  0  0  0  0  0
  -12.2745   13.2467  -36.8838 H   0  0  0  0  0  0  0  0  0  0  0  0
  -11.4575   12.9864  -38.4570 H   0  0  0  0  0  0  0  0  0  0  0  0
  -11.7202   14.8698  -40.1436 H   0  0  0  0  0  0  0  0  0  0  0  0
  -13.8299   13.6284  -39.1032 H   0  0  0  0  0  0  0  0  0  0  0  0
  -11.0693   16.8416  -38.4920 H   0  0  0  0  0  0  0  0  0  0  0  0
  -11.6180   17.0973  -40.7286 H   0  0  0  0  0  0  0  0  0  0  0  0
  1  6  1  6  0  0  0
  1 11  2  0  0  0  0
  1 13  1  0  0  0  0
  2  9  1  0  0  0  0
  2 10  1  0  0  0  0
  2 12  2  0  0  0  0
  3  4  1  0  0  0  0
  3  7  1  6  0  0  0
  4  8  1  6  0  0  0
  5  7  1  0  0  0  0
  5 10  1  0  0  0  0
  6  7  1  0  0  0  0
  6  8  1  0  0  0  0
  8 10  1  0  0  0  0
  9 14  1  0  0  0  0
  9 15  1  0  0  0  0
  9 16  1  0  0  0  0
  3 17  1  0  0  0  0
  3 18  1  0  0  0  0
  4 19  1  0  0  0  0
  4 20  1  0  0  0  0
  5 21  1  0  0  0  0
  5 22  1  0  0  0  0
  6 23  1  0  0  0  0
  7 24  1  0  0  0  0
  8 25  1  0  0  0  0
 13 26  1  0  0  0  0
M  END
> <id>
EN300-7004256

> <smiles>
OC(=O)[C@@H]1[C@@H]2CC[C@H]1N(C2)C(=O)C(F)(F)F |&1:3,4,7,r|

> <IUPAC Name>
rac-(1R,4S,7R)-2-(trifluoroacetyl)-2-azabicyclo[2.2.1]heptane-7-carboxylic acid

> <CAS>
2679831-69-5

> <URL>
https://www.enaminestore.com/catalog/EN300-7004256

> <ROCS_ShapeQuery>
_x1247relevant_x1083L0AP1_x1305L0BP1_

> <ROCS_TanimotoCombo>
0.850 

> <ROCS_ShapeTanimoto>
0.518 

> <ROCS_ColorTanimoto>
0.332 

> <ROCS_RefTversky>
0.440 

> <ROCS_RefColorTversky>
0.377 

> <ROCS_RefTverskyCombo>
0.818 

> <ROCS_FitTversky>
1.516 

> <ROCS_FitColorTversky>
0.733 

> <ROCS_FitTverskyCombo>
2.249 

> <ROCS_ColorScore>
-8.027

> <ROCS_Overlap>
1298.116

> <ROCS_Rank>
137                 

$$$$
untitled-dbase-146011_3
  -OEChem-06232314393D

 23 25  0     1  0  0  0  0  0999 V2000
  -10.3685   14.8000  -36.8473 C   0  0  0  0  0  0  0  0  0  0  0  0
  -13.2681   14.2023  -39.1710 C   0  0  0  0  0  0  0  0  0  0  0  0
  -13.5620   16.3513  -38.0968 C   0  0  0  0  0  0  0  0  0  0  0  0
  -12.9451   15.7138  -39.3797 C   0  0  0  0  0  0  0  0  0  0  0  0
  -12.6706   14.1140  -37.7831 C   0  0  2  0  0  0  0  0  0  0  0  0
  -12.8516   15.4374  -37.1216 C   0  0  1  0  0  0  0  0  0  0  0  0
  -11.5204   15.0699  -37.7016 C   0  0  0  0  0  0  0  0  0  0  0  0
  -11.4325   15.7509  -39.0398 C   0  0  0  0  0  0  0  0  0  0  0  0
   -8.0279   14.4789  -36.8945 C   0  0  0  0  0  0  0  0  0  0  0  0
  -10.4341   14.6554  -35.6341 O   0  0  0  0  0  0  0  0  0  0  0  0
   -9.2398   14.7390  -37.6098 O   0  0  0  0  0  0  0  0  0  0  0  0
  -10.9541   17.0067  -38.9496 F   0  0  0  0  0  0  0  0  0  0  0  0
  -10.6872   15.0595  -39.9232 F   0  0  0  0  0  0  0  0  0  0  0  0
  -14.3426   13.9975  -39.1711 H   0  0  0  0  0  0  0  0  0  0  0  0
  -12.7510   13.5551  -39.8852 H   0  0  0  0  0  0  0  0  0  0  0  0
  -13.2772   17.3989  -37.9640 H   0  0  0  0  0  0  0  0  0  0  0  0
  -14.6491   16.2378  -38.0513 H   0  0  0  0  0  0  0  0  0  0  0  0
  -13.2447   16.1491  -40.3325 H   0  0  0  0  0  0  0  0  0  0  0  0
  -12.7102   13.1869  -37.2452 H   0  0  0  0  0  0  0  0  0  0  0  0
  -13.0320   15.5398  -36.0693 H   0  0  0  0  0  0  0  0  0  0  0  0
   -7.1895   14.4505  -37.5948 H   0  0  0  0  0  0  0  0  0  0  0  0
   -8.1110   13.5236  -36.3702 H   0  0  0  0  0  0  0  0  0  0  0  0
   -7.8656   15.2783  -36.1676 H   0  0  0  0  0  0  0  0  0  0  0  0
  1  7  1  0  0  0  0
  1 10  2  0  0  0  0
  1 11  1  0  0  0  0
  2  4  1  0  0  0  0
  2  5  1  0  0  0  0
  3  4  1  0  0  0  0
  3  6  1  0  0  0  0
  4  8  1  0  0  0  0
  5  6  1  0  0  0  0
  5  7  1  0  0  0  0
  6  7  1  0  0  0  0
  7  8  1  0  0  0  0
  8 12  1  0  0  0  0
  8 13  1  0  0  0  0
  9 11  1  0  0  0  0
  2 14  1  0  0  0  0
  2 15  1  0  0  0  0
  3 16  1  0  0  0  0
  3 17  1  0  0  0  0
  4 18  1  0  0  0  0
  5 19  1  0  0  0  0
  6 20  1  0  0  0  0
  9 21  1  0  0  0  0
  9 22  1  0  0  0  0
  9 23  1  0  0  0  0
M  END
> <id>
EN300-27734675

> <smiles>
COC(=O)C1(C2CC3CC21)C3(F)F

> <MDLNUMBER>
MFCD33032040

> <IUPAC Name>
methyl 7,7-difluorotricyclo[2.2.1.0,2,6]heptane-1-carboxylate

> <CAS>
2613383-39-2

> <Purity>
95

> <URL>
https://www.enaminestore.com/catalog/EN300-27734675

> <ROCS_ShapeQuery>
_x1247relevant_x1083L0AP1_x1305L0BP1_

> <ROCS_TanimotoCombo>
0.850 

> <ROCS_ShapeTanimoto>
0.504 

> <ROCS_ColorTanimoto>
0.346 

> <ROCS_RefTversky>
0.419 

> <ROCS_RefColorTversky>
0.589 

> <ROCS_RefTverskyCombo>
1.008 

> <ROCS_FitTversky>
1.676 

> <ROCS_FitColorTversky>
0.456 

> <ROCS_FitTverskyCombo>
2.132 

> <ROCS_ColorScore>
-13.085

> <ROCS_Overlap>
1231.470

> <ROCS_Rank>
138                 

$$$$
untitled-dbase-68904_41
  -OEChem-06232314393D

 26 27  0     1  0  0  0  0  0999 V2000
  -13.3740   16.4562  -40.2998 C   0  0  0  0  0  0  0  0  0  0  0  0
   -9.8175   14.7347  -37.2513 C   0  0  0  0  0  0  0  0  0  0  0  0
  -13.1588   15.0907  -36.7940 C   0  0  0  0  0  0  0  0  0  0  0  0
  -13.5455   16.2331  -37.7578 C   0  0  0  0  0  0  0  0  0  0  0  0
  -12.9333   14.3113  -39.0230 C   0  0  0  0  0  0  0  0  0  0  0  0
  -11.3031   16.0273  -38.8746 C   0  0  0  0  0  0  0  0  0  0  0  0
  -12.2424   14.2127  -37.6640 C   0  0  1  0  0  0  0  0  0  0  0  0
  -12.8183   15.8408  -39.0612 C   0  0  1  0  0  0  0  0  0  0  0  0
   -9.5571   13.2934  -36.8960 C   0  0  0  0  0  0  0  0  0  0  0  0
  -11.0095   14.9739  -37.9010 N   0  0  0  0  0  0  0  0  0  0  0  0
  -12.7543   17.1847  -41.0604 O   0  0  0  0  0  0  0  0  0  0  0  0
   -8.9973   15.6084  -36.9673 O   0  0  0  0  0  0  0  0  0  0  0  0
  -14.6705   16.0998  -40.4713 O   0  0  0  0  0  0  0  0  0  0  0  0
  -10.5768   12.5149  -37.3008 F   0  0  0  0  0  0  0  0  0  0  0  0
   -8.4315   12.8546  -37.4877 F   0  0  0  0  0  0  0  0  0  0  0  0
   -9.4179   13.1474  -35.5659 F   0  0  0  0  0  0  0  0  0  0  0  0
  -12.6585   15.4609  -35.8933 H   0  0  0  0  0  0  0  0  0  0  0  0
  -14.0532   14.5371  -36.4868 H   0  0  0  0  0  0  0  0  0  0  0  0
  -14.6331   16.2706  -37.8893 H   0  0  0  0  0  0  0  0  0  0  0  0
  -13.2211   17.2087  -37.3800 H   0  0  0  0  0  0  0  0  0  0  0  0
  -12.3825   13.8121  -39.8283 H   0  0  0  0  0  0  0  0  0  0  0  0
  -13.9682   13.9511  -39.0189 H   0  0  0  0  0  0  0  0  0  0  0  0
  -10.7307   15.8355  -39.7885 H   0  0  0  0  0  0  0  0  0  0  0  0
  -11.0289   17.0080  -38.4741 H   0  0  0  0  0  0  0  0  0  0  0  0
  -12.0622   13.2105  -37.2709 H   0  0  0  0  0  0  0  0  0  0  0  0
  -15.0555   16.4969  -41.2814 H   0  0  0  0  0  0  0  0  0  0  0  0
  1  8  1  6  0  0  0
  1 11  2  0  0  0  0
  1 13  1  0  0  0  0
  2  9  1  0  0  0  0
  2 10  1  0  0  0  0
  2 12  2  0  0  0  0
  3  4  1  0  0  0  0
  3  7  1  1  0  0  0
  4  8  1  0  0  0  0
  5  7  1  0  0  0  0
  5  8  1  0  0  0  0
  6  8  1  0  0  0  0
  6 10  1  0  0  0  0
  7 10  1  0  0  0  0
  9 14  1  0  0  0  0
  9 15  1  0  0  0  0
  9 16  1  0  0  0  0
  3 17  1  0  0  0  0
  3 18  1  0  0  0  0
  4 19  1  0  0  0  0
  4 20  1  0  0  0  0
  5 21  1  0  0  0  0
  5 22  1  0  0  0  0
  6 23  1  0  0  0  0
  6 24  1  0  0  0  0
  7 25  1  0  0  0  0
 13 26  1  0  0  0  0
M  END
> <id>
EN300-37419275

> <smiles>
OC(=O)[C@]1(CC[C@H]2C1)CN2C(=O)C(F)(F)F

> <IUPAC Name>
(1S,4S)-2-(2,2,2-trifluoroacetyl)-2-azabicyclo[2.2.1]heptane-4-carboxylic acid

> <URL>
https://www.enaminestore.com/catalog/EN300-37419275

> <ROCS_ShapeQuery>
_x1247relevant_x1083L0AP1_x1305L0BP1_

> <ROCS_TanimotoCombo>
0.849 

> <ROCS_ShapeTanimoto>
0.521 

> <ROCS_ColorTanimoto>
0.329 

> <ROCS_RefTversky>
0.442 

> <ROCS_RefColorTversky>
0.375 

> <ROCS_RefTverskyCombo>
0.817 

> <ROCS_FitTversky>
1.519 

> <ROCS_FitColorTversky>
0.728 

> <ROCS_FitTverskyCombo>
2.248 

> <ROCS_ColorScore>
-7.975

> <ROCS_Overlap>
1302.767

> <ROCS_Rank>
139                 

$$$$
untitled-dbase-149957_2
  -OEChem-06232314393D

 31 33  0     0  0  0  0  0  0999 V2000
  -14.2889   15.1116  -37.7662 C   0  0  0  0  0  0  0  0  0  0  0  0
  -13.0828   14.4609  -39.8668 C   0  0  0  0  0  0  0  0  0  0  0  0
  -13.0677   16.8491  -39.1006 C   0  0  0  0  0  0  0  0  0  0  0  0
  -12.1950   13.7378  -37.6358 C   0  0  0  0  0  0  0  0  0  0  0  0
  -12.1799   16.1290  -36.8687 C   0  0  0  0  0  0  0  0  0  0  0  0
  -10.9723   15.4774  -38.9719 C   0  0  0  0  0  0  0  0  0  0  0  0
  -13.4726   14.0020  -38.4512 C   0  0  0  0  0  0  0  0  0  0  0  0
  -13.4574   16.4031  -37.6808 C   0  0  0  0  0  0  0  0  0  0  0  0
  -12.2448   15.7489  -39.7928 C   0  0  0  0  0  0  0  0  0  0  0  0
  -11.3460   15.0224  -37.5464 C   0  0  0  0  0  0  0  0  0  0  0  0
   -9.4875   13.1594  -37.1914 N   0  0  0  0  0  0  0  0  0  0  0  0
   -8.8599   15.6495  -37.0431 O   0  0  0  0  0  0  0  0  0  0  0  0
  -10.2529   14.6093  -35.2092 O   0  0  0  0  0  0  0  0  0  0  0  0
   -9.8717   14.7105  -36.6033 S   0  0  0  0  0  0  0  0  0  0  0  0
  -15.2127   15.2977  -38.3278 H   0  0  0  0  0  0  0  0  0  0  0  0
  -14.5867   14.7908  -36.7604 H   0  0  0  0  0  0  0  0  0  0  0  0
  -12.5126   13.6721  -40.3724 H   0  0  0  0  0  0  0  0  0  0  0  0
  -13.9852   14.6356  -40.4655 H   0  0  0  0  0  0  0  0  0  0  0  0
  -13.9700   17.0659  -39.6857 H   0  0  0  0  0  0  0  0  0  0  0  0
  -12.4869   17.7785  -39.0550 H   0  0  0  0  0  0  0  0  0  0  0  0
  -12.4613   13.3856  -36.6307 H   0  0  0  0  0  0  0  0  0  0  0  0
  -11.6164   12.9298  -38.1022 H   0  0  0  0  0  0  0  0  0  0  0  0
  -11.5902   17.0506  -36.7804 H   0  0  0  0  0  0  0  0  0  0  0  0
  -12.4457   15.8334  -35.8455 H   0  0  0  0  0  0  0  0  0  0  0  0
  -10.3647   14.7107  -39.4699 H   0  0  0  0  0  0  0  0  0  0  0  0
  -10.3541   16.3837  -38.9331 H   0  0  0  0  0  0  0  0  0  0  0  0
  -14.0700   13.0854  -38.5103 H   0  0  0  0  0  0  0  0  0  0  0  0
  -14.0441   17.1898  -37.1936 H   0  0  0  0  0  0  0  0  0  0  0  0
  -11.9714   16.0716  -40.8035 H   0  0  0  0  0  0  0  0  0  0  0  0
  -10.0868   12.3752  -36.9058 H   0  0  0  0  0  0  0  0  0  0  0  0
   -9.1380   13.0838  -38.1546 H   0  0  0  0  0  0  0  0  0  0  0  0
  1  7  1  0  0  0  0
  1  8  1  0  0  0  0
  2  7  1  0  0  0  0
  2  9  1  0  0  0  0
  3  8  1  0  0  0  0
  3  9  1  0  0  0  0
  4  7  1  0  0  0  0
  4 10  1  0  0  0  0
  5  8  1  0  0  0  0
  5 10  1  0  0  0  0
  6  9  1  0  0  0  0
  6 10  1  0  0  0  0
 10 14  1  0  0  0  0
 11 14  1  0  0  0  0
 12 14  2  0  0  0  0
 13 14  2  0  0  0  0
  1 15  1  0  0  0  0
  1 16  1  0  0  0  0
  2 17  1  0  0  0  0
  2 18  1  0  0  0  0
  3 19  1  0  0  0  0
  3 20  1  0  0  0  0
  4 21  1  0  0  0  0
  4 22  1  0  0  0  0
  5 23  1  0  0  0  0
  5 24  1  0  0  0  0
  6 25  1  0  0  0  0
  6 26  1  0  0  0  0
  7 27  1  0  0  0  0
  8 28  1  0  0  0  0
  9 29  1  0  0  0  0
 11 30  1  0  0  0  0
 11 31  1  0  0  0  0
M  END
> <id>
EN300-1618325

> <smiles>
NS(=O)(=O)C1(CC2CC3CC(C2)C1)C3

> <MDLNUMBER>
MFCD34595284

> <IUPAC Name>
adamantane-1-sulfonamide

> <CAS>
21280-41-1

> <Purity>
95

> <URL>
https://www.enaminestore.com/catalog/EN300-1618325

> <MP>
196-198

> <ROCS_ShapeQuery>
_x1247relevant_x1083L0AP1_x1305L0BP1_

> <ROCS_TanimotoCombo>
0.849 

> <ROCS_ShapeTanimoto>
0.509 

> <ROCS_ColorTanimoto>
0.340 

> <ROCS_RefTversky>
0.421 

> <ROCS_RefColorTversky>
0.374 

> <ROCS_RefTverskyCombo>
0.795 

> <ROCS_FitTversky>
1.695 

> <ROCS_FitColorTversky>
0.787 

> <ROCS_FitTverskyCombo>
2.482 

> <ROCS_ColorScore>
-7.948

> <ROCS_Overlap>
1238.382

> <ROCS_Rank>
140                 

$$$$
untitled-dbase-157906_3
  -OEChem-06232314393D

 26 28  0     1  0  0  0  0  0999 V2000
  -10.1617   15.1978  -36.7765 C   0  0  0  0  0  0  0  0  0  0  0  0
  -13.3746   14.7967  -39.5874 C   0  0  0  0  0  0  0  0  0  0  0  0
  -12.9044   16.9192  -38.3054 C   0  0  0  0  0  0  0  0  0  0  0  0
  -13.7276   14.9284  -37.0925 C   0  0  0  0  0  0  0  0  0  0  0  0
  -11.0725   15.6973  -39.0729 C   0  0  0  0  0  0  0  0  0  0  0  0
  -11.8971   13.7019  -37.8566 C   0  0  0  0  0  0  0  0  0  0  0  0
  -12.4888   16.0765  -39.5129 C   0  0  1  0  0  0  0  0  0  0  0  0
  -13.3465   14.0010  -38.2481 C   0  0  2  0  0  0  0  0  0  0  0  0
  -12.5850   15.9545  -37.1526 C   0  0  0  0  0  0  0  0  0  0  0  0
  -11.3529   15.1268  -37.6742 C   0  0  0  0  0  0  0  0  0  0  0  0
   -9.0722   15.6533  -37.0909 O   0  0  0  0  0  0  0  0  0  0  0  0
  -10.4505   14.6831  -35.5563 O   0  0  0  0  0  0  0  0  0  0  0  0
  -14.4075   15.0820  -39.8197 H   0  0  0  0  0  0  0  0  0  0  0  0
  -13.0177   14.1536  -40.4007 H   0  0  0  0  0  0  0  0  0  0  0  0
  -12.2924   17.8262  -38.2299 H   0  0  0  0  0  0  0  0  0  0  0  0
  -13.9557   17.2225  -38.3403 H   0  0  0  0  0  0  0  0  0  0  0  0
  -14.7197   15.3745  -37.2148 H   0  0  0  0  0  0  0  0  0  0  0  0
  -13.7133   14.3908  -36.1366 H   0  0  0  0  0  0  0  0  0  0  0  0
  -10.6032   14.9744  -39.7492 H   0  0  0  0  0  0  0  0  0  0  0  0
  -10.4194   16.5780  -39.0279 H   0  0  0  0  0  0  0  0  0  0  0  0
  -11.8463   13.1273  -36.9231 H   0  0  0  0  0  0  0  0  0  0  0  0
  -11.3649   13.1300  -38.6244 H   0  0  0  0  0  0  0  0  0  0  0  0
  -12.5062   16.6386  -40.4502 H   0  0  0  0  0  0  0  0  0  0  0  0
  -13.9675   13.1027  -38.2955 H   0  0  0  0  0  0  0  0  0  0  0  0
  -12.4399   16.4732  -36.2012 H   0  0  0  0  0  0  0  0  0  0  0  0
   -9.6789   14.7189  -34.9516 H   0  0  0  0  0  0  0  0  0  0  0  0
  1 10  1  0  0  0  0
  1 11  2  0  0  0  0
  1 12  1  0  0  0  0
  2  7  1  0  0  0  0
  2  8  1  0  0  0  0
  3  7  1  0  0  0  0
  3  9  1  0  0  0  0
  4  8  1  0  0  0  0
  4  9  1  0  0  0  0
  5  7  1  0  0  0  0
  5 10  1  0  0  0  0
  6  8  1  0  0  0  0
  6 10  1  0  0  0  0
  9 10  1  0  0  0  0
  2 13  1  0  0  0  0
  2 14  1  0  0  0  0
  3 15  1  0  0  0  0
  3 16  1  0  0  0  0
  4 17  1  0  0  0  0
  4 18  1  0  0  0  0
  5 19  1  0  0  0  0
  5 20  1  0  0  0  0
  6 21  1  0  0  0  0
  6 22  1  0  0  0  0
  7 23  1  0  0  0  0
  8 24  1  0  0  0  0
  9 25  1  0  0  0  0
 12 26  1  0  0  0  0
M  END
> <id>
EN300-3022817

> <smiles>
OC(=O)C12CC3CC2CC(C1)C3

> <IUPAC Name>
tricyclo[3.3.1.0,3,7]nonane-3-carboxylic acid

> <CAS>
16200-53-6

> <Purity>
95

> <URL>
https://www.enaminestore.com/catalog/EN300-3022817

> <MP>
105-107

> <ROCS_ShapeQuery>
_x1247relevant_x1083L0AP1_x1305L0BP1_

> <ROCS_TanimotoCombo>
0.849 

> <ROCS_ShapeTanimoto>
0.485 

> <ROCS_ColorTanimoto>
0.364 

> <ROCS_RefTversky>
0.402 

> <ROCS_RefColorTversky>
0.555 

> <ROCS_RefTverskyCombo>
0.957 

> <ROCS_FitTversky>
1.743 

> <ROCS_FitColorTversky>
0.514 

> <ROCS_FitTverskyCombo>
2.256 

> <ROCS_ColorScore>
-12.185

> <ROCS_Overlap>
1180.427

> <ROCS_Rank>
141                 

$$$$
untitled-dbase-59246_5
  -OEChem-06232314393D

 26 28  0     1  0  0  0  0  0999 V2000
   -9.3359   15.0332  -36.7792 C   0  0  0  0  0  0  0  0  0  0  0  0
  -13.7058   15.4101  -39.7537 C   0  0  0  0  0  0  0  0  0  0  0  0
  -14.3843   15.3658  -38.3841 C   0  0  0  0  0  0  0  0  0  0  0  0
  -11.6919   14.2314  -38.8129 C   0  0  0  0  0  0  0  0  0  0  0  0
  -10.3653   12.9870  -36.4588 C   0  0  0  0  0  0  0  0  0  0  0  0
  -12.3862   14.1569  -37.4429 C   0  0  2  0  0  0  0  0  0  0  0  0
  -12.2326   15.5461  -39.3752 C   0  0  2  0  0  0  0  0  0  0  0  0
  -13.1917   15.4649  -37.4331 C   0  0  1  0  0  0  0  0  0  0  0  0
  -11.3771   14.1047  -36.3062 C   0  0  2  0  0  0  0  0  0  0  0  0
   -9.1995   13.6710  -36.9117 N   0  0  0  0  0  0  0  0  0  0  0  0
   -8.4865   15.8816  -37.0118 O   0  0  0  0  0  0  0  0  0  0  0  0
  -10.5971   15.3183  -36.3226 O   0  0  0  0  0  0  0  0  0  0  0  0
  -12.3204   16.3503  -38.1767 O   0  0  0  0  0  0  0  0  0  0  0  0
  -13.9120   14.5256  -40.3635 H   0  0  0  0  0  0  0  0  0  0  0  0
  -14.0469   16.2955  -40.3016 H   0  0  0  0  0  0  0  0  0  0  0  0
  -15.0387   16.2380  -38.2726 H   0  0  0  0  0  0  0  0  0  0  0  0
  -14.9833   14.4638  -38.2295 H   0  0  0  0  0  0  0  0  0  0  0  0
  -10.6030   14.2854  -38.7025 H   0  0  0  0  0  0  0  0  0  0  0  0
  -11.9280   13.3745  -39.4516 H   0  0  0  0  0  0  0  0  0  0  0  0
  -10.1634   12.4666  -35.5167 H   0  0  0  0  0  0  0  0  0  0  0  0
  -10.6424   12.2508  -37.2225 H   0  0  0  0  0  0  0  0  0  0  0  0
  -13.0418   13.2820  -37.3704 H   0  0  0  0  0  0  0  0  0  0  0  0
  -11.6058   16.0044  -40.1432 H   0  0  0  0  0  0  0  0  0  0  0  0
  -13.4363   15.8578  -36.4433 H   0  0  0  0  0  0  0  0  0  0  0  0
  -11.8940   14.0525  -35.3488 H   0  0  0  0  0  0  0  0  0  0  0  0
   -8.3733   13.2104  -37.2848 H   0  0  0  0  0  0  0  0  0  0  0  0
  1 10  1  0  0  0  0
  1 11  2  0  0  0  0
  1 12  1  0  0  0  0
  2  3  1  0  0  0  0
  2  7  1  0  0  0  0
  3  8  1  0  0  0  0
  4  6  1  0  0  0  0
  4  7  1  0  0  0  0
  5  9  1  0  0  0  0
  5 10  1  0  0  0  0
  6  8  1  0  0  0  0
  6  9  1  0  0  0  0
  7 13  1  0  0  0  0
  8 13  1  0  0  0  0
  9 12  1  0  0  0  0
  2 14  1  0  0  0  0
  2 15  1  0  0  0  0
  3 16  1  0  0  0  0
  3 17  1  0  0  0  0
  4 18  1  0  0  0  0
  4 19  1  0  0  0  0
  5 20  1  0  0  0  0
  5 21  1  0  0  0  0
  6 22  1  0  0  0  0
  7 23  1  0  0  0  0
  8 24  1  0  0  0  0
  9 25  1  0  0  0  0
 10 26  1  0  0  0  0
M  END
> <id>
EN300-1754132

> <smiles>
O=C1NCC(O1)C2CC3CCC2O3

> <IUPAC Name>
5-{7-oxabicyclo[2.2.1]heptan-2-yl}-1,3-oxazolidin-2-one

> <CAS>
2228884-90-8

> <URL>
https://www.enaminestore.com/catalog/EN300-1754132

> <ROCS_ShapeQuery>
_x1247relevant_x1083L0AP1_x1305L0BP1_

> <ROCS_TanimotoCombo>
0.848 

> <ROCS_ShapeTanimoto>
0.494 

> <ROCS_ColorTanimoto>
0.354 

> <ROCS_RefTversky>
0.412 

> <ROCS_RefColorTversky>
0.396 

> <ROCS_RefTverskyCombo>
0.808 

> <ROCS_FitTversky>
1.672 

> <ROCS_FitColorTversky>
0.771 

> <ROCS_FitTverskyCombo>
2.443 

> <ROCS_ColorScore>
-8.425

> <ROCS_Overlap>
1211.508

> <ROCS_Rank>
142                 

$$$$
untitled-dbase-75053_4
  -OEChem-06232314393D

 26 28  0     1  0  0  0  0  0999 V2000
  -14.2548   15.9939  -38.4863 C   0  0  0  0  0  0  0  0  0  0  0  0
  -13.3030   16.1023  -39.6782 C   0  0  0  0  0  0  0  0  0  0  0  0
   -9.1905   15.1857  -36.7685 C   0  0  0  0  0  0  0  0  0  0  0  0
  -12.3138   15.5186  -36.9578 C   0  0  0  0  0  0  0  0  0  0  0  0
   -9.1029   13.6668  -36.5453 C   0  0  0  0  0  0  0  0  0  0  0  0
  -11.3520   15.6596  -38.1493 C   0  0  1  0  0  0  0  0  0  0  0  0
  -10.1117   14.8141  -37.9516 C   0  0  2  0  0  0  0  0  0  0  0  0
  -13.5641   14.9416  -37.6217 C   0  0  2  0  0  0  0  0  0  0  0  0
  -12.2048   15.1079  -39.3018 C   0  0  1  0  0  0  0  0  0  0  0  0
  -10.4038   13.5427  -37.2408 N   0  0  0  0  0  0  0  0  0  0  0  0
  -12.9786   14.0857  -38.6293 O   0  0  0  0  0  0  0  0  0  0  0  0
  -14.4032   16.9451  -37.9671 H   0  0  0  0  0  0  0  0  0  0  0  0
  -15.2306   15.6324  -38.8297 H   0  0  0  0  0  0  0  0  0  0  0  0
  -13.8200   15.7782  -40.5884 H   0  0  0  0  0  0  0  0  0  0  0  0
  -12.9271   17.1172  -39.8373 H   0  0  0  0  0  0  0  0  0  0  0  0
   -9.6779   15.7295  -35.9503 H   0  0  0  0  0  0  0  0  0  0  0  0
   -8.2553   15.6879  -37.0289 H   0  0  0  0  0  0  0  0  0  0  0  0
  -11.9222   14.8200  -36.2097 H   0  0  0  0  0  0  0  0  0  0  0  0
  -12.5116   16.4746  -36.4627 H   0  0  0  0  0  0  0  0  0  0  0  0
   -8.2728   13.1822  -37.0724 H   0  0  0  0  0  0  0  0  0  0  0  0
   -9.1061   13.3390  -35.5026 H   0  0  0  0  0  0  0  0  0  0  0  0
  -11.0606   16.7017  -38.3197 H   0  0  0  0  0  0  0  0  0  0  0  0
   -9.5652   14.6645  -38.8913 H   0  0  0  0  0  0  0  0  0  0  0  0
  -14.2289   14.3996  -36.9456 H   0  0  0  0  0  0  0  0  0  0  0  0
  -11.6455   14.7068  -40.1503 H   0  0  0  0  0  0  0  0  0  0  0  0
  -10.4884   12.7278  -37.8469 H   0  0  0  0  0  0  0  0  0  0  0  0
  1  2  1  0  0  0  0
  1  8  1  0  0  0  0
  2  9  1  0  0  0  0
  3  5  1  0  0  0  0
  3  7  1  0  0  0  0
  4  6  1  0  0  0  0
  4  8  1  0  0  0  0
  5 10  1  0  0  0  0
  6  7  1  0  0  0  0
  6  9  1  0  0  0  0
  7 10  1  0  0  0  0
  8 11  1  0  0  0  0
  9 11  1  0  0  0  0
  1 12  1  0  0  0  0
  1 13  1  0  0  0  0
  2 14  1  0  0  0  0
  2 15  1  0  0  0  0
  3 16  1  0  0  0  0
  3 17  1  0  0  0  0
  4 18  1  0  0  0  0
  4 19  1  0  0  0  0
  5 20  1  0  0  0  0
  5 21  1  0  0  0  0
  6 22  1  0  0  0  0
  7 23  1  0  0  0  0
  8 24  1  0  0  0  0
  9 25  1  0  0  0  0
 10 26  1  0  0  0  0
M  END
> <id>
EN300-1755449

> <smiles>
C1CC(N1)C2CC3CCC2O3

> <IUPAC Name>
2-{7-oxabicyclo[2.2.1]heptan-2-yl}azetidine

> <CAS>
2229089-90-9

> <URL>
https://www.enaminestore.com/catalog/EN300-1755449

> <ROCS_ShapeQuery>
_x1247relevant_x1083L0AP1_x1305L0BP1_

> <ROCS_TanimotoCombo>
0.848 

> <ROCS_ShapeTanimoto>
0.446 

> <ROCS_ColorTanimoto>
0.402 

> <ROCS_RefTversky>
0.374 

> <ROCS_RefColorTversky>
0.434 

> <ROCS_RefTverskyCombo>
0.808 

> <ROCS_FitTversky>
1.759 

> <ROCS_FitColorTversky>
0.845 

> <ROCS_FitTverskyCombo>
2.604 

> <ROCS_ColorScore>
-9.235

> <ROCS_Overlap>
1097.317

> <ROCS_Rank>
143                 

$$$$
untitled-dbase-18879_7
  -OEChem-06232314393D

 22 23  0     1  0  0  0  0  0999 V2000
  -14.0318   15.8524  -38.8647 C   0  0  0  0  0  0  0  0  0  0  0  0
  -12.7080   16.1873  -39.5549 C   0  0  0  0  0  0  0  0  0  0  0  0
  -12.8089   15.3580  -36.7208 C   0  0  0  0  0  0  0  0  0  0  0  0
  -13.6118   14.7635  -37.8786 C   0  0  2  0  0  0  0  0  0  0  0  0
  -11.7318   15.2514  -38.8435 C   0  0  1  0  0  0  0  0  0  0  0  0
  -11.4920   15.7267  -37.4089 C   0  0  2  0  0  0  0  0  0  0  0  0
  -10.2698   13.3694  -37.4310 N   0  0  0  0  0  0  0  0  0  0  0  0
   -8.8989   15.5286  -37.1562 O   0  0  0  0  0  0  0  0  0  0  0  0
  -10.3747   14.7456  -35.2603 O   0  0  0  0  0  0  0  0  0  0  0  0
  -12.5734   14.0922  -38.6269 O   0  0  0  0  0  0  0  0  0  0  0  0
  -10.1139   14.8919  -36.6808 S   0  0  0  0  0  0  0  0  0  0  0  0
  -14.4929   16.7167  -38.3779 H   0  0  0  0  0  0  0  0  0  0  0  0
  -14.7374   15.4538  -39.6022 H   0  0  0  0  0  0  0  0  0  0  0  0
  -12.7768   15.9347  -40.6190 H   0  0  0  0  0  0  0  0  0  0  0  0
  -12.4328   17.2423  -39.4675 H   0  0  0  0  0  0  0  0  0  0  0  0
  -13.3074   16.2244  -36.2751 H   0  0  0  0  0  0  0  0  0  0  0  0
  -12.6609   14.6074  -35.9366 H   0  0  0  0  0  0  0  0  0  0  0  0
  -14.4146   14.0877  -37.5761 H   0  0  0  0  0  0  0  0  0  0  0  0
  -10.8368   15.0063  -39.4202 H   0  0  0  0  0  0  0  0  0  0  0  0
  -11.2677   16.7961  -37.3496 H   0  0  0  0  0  0  0  0  0  0  0  0
   -9.5746   13.1129  -38.1427 H   0  0  0  0  0  0  0  0  0  0  0  0
  -10.5798   12.5797  -36.8514 H   0  0  0  0  0  0  0  0  0  0  0  0
  1  2  1  0  0  0  0
  1  4  1  0  0  0  0
  2  5  1  6  0  0  0
  3  4  1  6  0  0  0
  3  6  1  0  0  0  0
  4 10  1  0  0  0  0
  5  6  1  0  0  0  0
  5 10  1  0  0  0  0
  6 11  1  1  0  0  0
  7 11  1  0  0  0  0
  8 11  2  0  0  0  0
  9 11  2  0  0  0  0
  1 12  1  0  0  0  0
  1 13  1  0  0  0  0
  2 14  1  0  0  0  0
  2 15  1  0  0  0  0
  3 16  1  0  0  0  0
  3 17  1  0  0  0  0
  4 18  1  0  0  0  0
  5 19  1  0  0  0  0
  6 20  1  0  0  0  0
  7 21  1  0  0  0  0
  7 22  1  0  0  0  0
M  END
> <id>
EN300-251782

> <smiles>
NS(=O)(=O)[C@@H]1C[C@H]2CC[C@@H]1O2 |&1:4,6,9,r|

> <MDLNUMBER>
MFCD30503022

> <IUPAC Name>
rac-(1R,2S,4S)-7-oxabicyclo[2.2.1]heptane-2-sulfonamide

> <CAS>
2307780-97-6

> <Purity>
95

> <URL>
https://www.enaminestore.com/catalog/EN300-251782

> <ROCS_ShapeQuery>
_x1247relevant_x1083L0AP1_x1305L0BP1_

> <ROCS_TanimotoCombo>
0.847 

> <ROCS_ShapeTanimoto>
0.449 

> <ROCS_ColorTanimoto>
0.399 

> <ROCS_RefTversky>
0.373 

> <ROCS_RefColorTversky>
0.432 

> <ROCS_RefTverskyCombo>
0.805 

> <ROCS_FitTversky>
1.824 

> <ROCS_FitColorTversky>
0.840 

> <ROCS_FitTverskyCombo>
2.663 

> <ROCS_ColorScore>
-9.182

> <ROCS_Overlap>
1094.949

> <ROCS_Rank>
144                 

$$$$
untitled-dbase-87380_20
  -OEChem-06232314393D

 43 45  0     0  0  0  0  0  0999 V2000
  -10.0487   15.4605  -36.6312 C   0  0  0  0  0  0  0  0  0  0  0  0
  -13.9407   15.8730  -39.1744 C   0  0  0  0  0  0  0  0  0  0  0  0
  -12.9615   16.2037  -36.8948 C   0  0  0  0  0  0  0  0  0  0  0  0
  -11.5745   16.6678  -38.9423 C   0  0  0  0  0  0  0  0  0  0  0  0
  -13.4150   13.8944  -37.7289 C   0  0  0  0  0  0  0  0  0  0  0  0
  -12.0359   14.3690  -39.7839 C   0  0  0  0  0  0  0  0  0  0  0  0
  -12.9879   16.7409  -38.3362 C   0  0  0  0  0  0  0  0  0  0  0  0
  -13.4500   14.4159  -39.1775 C   0  0  0  0  0  0  0  0  0  0  0  0
  -12.4457   14.7458  -36.8751 C   0  0  0  0  0  0  0  0  0  0  0  0
  -11.0581   15.2083  -38.9269 C   0  0  0  0  0  0  0  0  0  0  0  0
  -11.0198   14.6672  -37.4738 C   0  0  0  0  0  0  0  0  0  0  0  0
   -8.2407   15.6838  -34.4455 C   0  0  0  0  0  0  0  0  0  0  0  0
  -10.1779   14.9783  -33.0107 C   0  0  0  0  0  0  0  0  0  0  0  0
   -9.3005   13.4255  -34.7790 C   0  0  0  0  0  0  0  0  0  0  0  0
   -9.5422   14.8848  -34.3961 C   0  0  0  0  0  0  0  0  0  0  0  0
  -10.4703   13.3089  -37.4067 N   0  0  0  0  0  0  0  0  0  0  0  0
   -9.0505   16.0130  -37.0734 O   0  0  0  0  0  0  0  0  0  0  0  0
  -10.4624   15.4551  -35.3321 O   0  0  0  0  0  0  0  0  0  0  0  0
  -14.9571   15.9268  -38.7654 H   0  0  0  0  0  0  0  0  0  0  0  0
  -13.9913   16.2547  -40.2015 H   0  0  0  0  0  0  0  0  0  0  0  0
  -12.3290   16.8442  -36.2691 H   0  0  0  0  0  0  0  0  0  0  0  0
  -13.9689   16.2471  -36.4620 H   0  0  0  0  0  0  0  0  0  0  0  0
  -11.5911   17.0449  -39.9728 H   0  0  0  0  0  0  0  0  0  0  0  0
  -10.8948   17.3223  -38.3846 H   0  0  0  0  0  0  0  0  0  0  0  0
  -14.4231   13.9450  -37.2971 H   0  0  0  0  0  0  0  0  0  0  0  0
  -13.1351   12.8357  -37.7128 H   0  0  0  0  0  0  0  0  0  0  0  0
  -11.6935   13.3310  -39.8619 H   0  0  0  0  0  0  0  0  0  0  0  0
  -12.0586   14.7598  -40.8093 H   0  0  0  0  0  0  0  0  0  0  0  0
  -13.3382   17.7794  -38.3380 H   0  0  0  0  0  0  0  0  0  0  0  0
  -14.1305   13.8003  -39.7764 H   0  0  0  0  0  0  0  0  0  0  0  0
  -12.4536   14.3815  -35.8401 H   0  0  0  0  0  0  0  0  0  0  0  0
  -10.0588   15.1826  -39.3796 H   0  0  0  0  0  0  0  0  0  0  0  0
   -7.7813   15.6192  -35.4383 H   0  0  0  0  0  0  0  0  0  0  0  0
   -8.4061   16.7395  -34.2069 H   0  0  0  0  0  0  0  0  0  0  0  0
   -7.5069   15.2801  -33.7385 H   0  0  0  0  0  0  0  0  0  0  0  0
  -11.1121   14.4065  -32.9707 H   0  0  0  0  0  0  0  0  0  0  0  0
  -10.4402   16.0151  -32.7708 H   0  0  0  0  0  0  0  0  0  0  0  0
   -9.5071   14.6013  -32.2320 H   0  0  0  0  0  0  0  0  0  0  0  0
  -10.2340   12.8521  -34.7437 H   0  0  0  0  0  0  0  0  0  0  0  0
   -8.8786   13.3371  -35.7854 H   0  0  0  0  0  0  0  0  0  0  0  0
   -8.6156   12.9451  -34.0709 H   0  0  0  0  0  0  0  0  0  0  0  0
  -11.1592   12.7215  -37.0049 H   0  0  0  0  0  0  0  0  0  0  0  0
  -10.2540   13.0229  -38.3301 H   0  0  0  0  0  0  0  0  0  0  0  0
  1 11  1  0  0  0  0
  1 17  2  0  0  0  0
  1 18  1  0  0  0  0
  2  7  1  0  0  0  0
  2  8  1  0  0  0  0
  3  7  1  0  0  0  0
  3  9  1  0  0  0  0
  4  7  1  0  0  0  0
  4 10  1  0  0  0  0
  5  8  1  0  0  0  0
  5  9  1  0  0  0  0
  6  8  1  0  0  0  0
  6 10  1  0  0  0  0
  9 11  1  0  0  0  0
 10 11  1  0  0  0  0
 11 16  1  0  0  0  0
 12 15  1  0  0  0  0
 13 15  1  0  0  0  0
 14 15  1  0  0  0  0
 15 18  1  0  0  0  0
  2 19  1  0  0  0  0
  2 20  1  0  0  0  0
  3 21  1  0  0  0  0
  3 22  1  0  0  0  0
  4 23  1  0  0  0  0
  4 24  1  0  0  0  0
  5 25  1  0  0  0  0
  5 26  1  0  0  0  0
  6 27  1  0  0  0  0
  6 28  1  0  0  0  0
  7 29  1  0  0  0  0
  8 30  1  0  0  0  0
  9 31  1  0  0  0  0
 10 32  1  0  0  0  0
 12 33  1  0  0  0  0
 12 34  1  0  0  0  0
 12 35  1  0  0  0  0
 13 36  1  0  0  0  0
 13 37  1  0  0  0  0
 13 38  1  0  0  0  0
 14 39  1  0  0  0  0
 14 40  1  0  0  0  0
 14 41  1  0  0  0  0
 16 42  1  0  0  0  0
 16 43  1  0  0  0  0
M  END
> <id>
EN300-6511494

> <smiles>
CC(C)(C)OC(=O)C1(N)C2CC3CC(C2)CC1C3

> <IUPAC Name>
tert-butyl 2-aminoadamantane-2-carboxylate

> <CAS>
502937-07-7

> <Purity>
95

> <URL>
https://www.enaminestore.com/catalog/EN300-6511494

> <MP>
101-103

> <ROCS_ShapeQuery>
_x1247relevant_x1083L0AP1_x1305L0BP1_

> <ROCS_TanimotoCombo>
0.847 

> <ROCS_ShapeTanimoto>
0.504 

> <ROCS_ColorTanimoto>
0.343 

> <ROCS_RefTversky>
0.440 

> <ROCS_RefColorTversky>
0.387 

> <ROCS_RefTverskyCombo>
0.828 

> <ROCS_FitTversky>
1.406 

> <ROCS_FitColorTversky>
0.748 

> <ROCS_FitTverskyCombo>
2.155 

> <ROCS_ColorScore>
-8.245

> <ROCS_Overlap>
1299.026

> <ROCS_Rank>
145                 

$$$$
untitled-dbase-134345_5
  -OEChem-06232314393D

 26 28  0     1  0  0  0  0  0999 V2000
  -14.1535   15.7404  -39.3075 C   0  0  0  0  0  0  0  0  0  0  0  0
  -12.8114   15.6170  -40.0299 C   0  0  0  0  0  0  0  0  0  0  0  0
  -12.9627   16.0791  -37.1173 C   0  0  0  0  0  0  0  0  0  0  0  0
   -9.4071   14.6237  -37.5948 C   0  0  0  0  0  0  0  0  0  0  0  0
  -10.8508   14.1385  -36.1779 C   0  0  0  0  0  0  0  0  0  0  0  0
  -11.6123   15.9879  -37.8472 C   0  0  1  0  0  0  0  0  0  0  0  0
  -10.5276   15.4501  -36.9266 C   0  0  0  0  0  0  0  0  0  0  0  0
  -13.8371   15.1346  -37.9419 C   0  0  2  0  0  0  0  0  0  0  0  0
  -11.9295   14.9760  -38.9586 C   0  0  1  0  0  0  0  0  0  0  0  0
  -10.1651   13.4008  -37.2589 N   0  0  0  0  0  0  0  0  0  0  0  0
  -12.8835   14.1085  -38.3004 O   0  0  0  0  0  0  0  0  0  0  0  0
  -14.5151   16.7709  -39.2459 H   0  0  0  0  0  0  0  0  0  0  0  0
  -14.9068   15.1412  -39.8313 H   0  0  0  0  0  0  0  0  0  0  0  0
  -12.9205   14.9469  -40.8901 H   0  0  0  0  0  0  0  0  0  0  0  0
  -12.4252   16.5764  -40.3864 H   0  0  0  0  0  0  0  0  0  0  0  0
  -12.8829   15.7211  -36.0846 H   0  0  0  0  0  0  0  0  0  0  0  0
  -13.3603   17.0987  -37.0960 H   0  0  0  0  0  0  0  0  0  0  0  0
   -9.2872   14.7843  -38.6759 H   0  0  0  0  0  0  0  0  0  0  0  0
   -8.4217   14.6977  -37.1199 H   0  0  0  0  0  0  0  0  0  0  0  0
  -10.3903   14.0369  -35.1883 H   0  0  0  0  0  0  0  0  0  0  0  0
  -11.9209   13.9009  -36.0926 H   0  0  0  0  0  0  0  0  0  0  0  0
  -11.2999   16.9560  -38.2536 H   0  0  0  0  0  0  0  0  0  0  0  0
  -10.1475   16.2355  -36.2698 H   0  0  0  0  0  0  0  0  0  0  0  0
  -14.7028   14.7350  -37.4092 H   0  0  0  0  0  0  0  0  0  0  0  0
  -11.0723   14.4217  -39.3484 H   0  0  0  0  0  0  0  0  0  0  0  0
  -10.7778   13.0580  -38.0004 H   0  0  0  0  0  0  0  0  0  0  0  0
  1  2  1  0  0  0  0
  1  8  1  0  0  0  0
  2  9  1  0  0  0  0
  3  6  1  0  0  0  0
  3  8  1  0  0  0  0
  4  7  1  0  0  0  0
  4 10  1  0  0  0  0
  5  7  1  0  0  0  0
  5 10  1  0  0  0  0
  6  7  1  0  0  0  0
  6  9  1  0  0  0  0
  8 11  1  0  0  0  0
  9 11  1  0  0  0  0
  1 12  1  0  0  0  0
  1 13  1  0  0  0  0
  2 14  1  0  0  0  0
  2 15  1  0  0  0  0
  3 16  1  0  0  0  0
  3 17  1  0  0  0  0
  4 18  1  0  0  0  0
  4 19  1  0  0  0  0
  5 20  1  0  0  0  0
  5 21  1  0  0  0  0
  6 22  1  0  0  0  0
  7 23  1  0  0  0  0
  8 24  1  0  0  0  0
  9 25  1  0  0  0  0
 10 26  1  0  0  0  0
M  END
> <id>
EN300-1755450

> <smiles>
C1NCC1C2CC3CCC2O3

> <IUPAC Name>
3-{7-oxabicyclo[2.2.1]heptan-2-yl}azetidine

> <CAS>
2229443-40-5

> <URL>
https://www.enaminestore.com/catalog/EN300-1755450

> <ROCS_ShapeQuery>
_x1247relevant_x1083L0AP1_x1305L0BP1_

> <ROCS_TanimotoCombo>
0.847 

> <ROCS_ShapeTanimoto>
0.452 

> <ROCS_ColorTanimoto>
0.395 

> <ROCS_RefTversky>
0.377 

> <ROCS_RefColorTversky>
0.429 

> <ROCS_RefTverskyCombo>
0.806 

> <ROCS_FitTversky>
1.778 

> <ROCS_FitColorTversky>
0.834 

> <ROCS_FitTverskyCombo>
2.612 

> <ROCS_ColorScore>
-9.121

> <ROCS_Overlap>
1107.127

> <ROCS_Rank>
146                 

$$$$
untitled-dbase-119243_4
  -OEChem-06232314393D

 29 31  0     1  0  0  0  0  0999 V2000
   -9.9909   15.2146  -36.5934 C   0  0  0  0  0  0  0  0  0  0  0  0
  -13.4125   13.7637  -38.7944 C   0  0  0  0  0  0  0  0  0  0  0  0
  -14.0650   15.9895  -37.8277 C   0  0  0  0  0  0  0  0  0  0  0  0
  -12.3936   14.5446  -36.6388 C   0  0  0  0  0  0  0  0  0  0  0  0
  -10.9986   14.4391  -38.7255 C   0  0  0  0  0  0  0  0  0  0  0  0
  -11.6521   16.6686  -37.7571 C   0  0  0  0  0  0  0  0  0  0  0  0
  -13.6761   14.5382  -37.4897 C   0  0  0  0  0  0  0  0  0  0  0  0
  -12.2750   14.4343  -39.5854 C   0  0  2  0  0  0  0  0  0  0  0  0
  -12.9304   16.6702  -38.6143 C   0  0  1  0  0  0  0  0  0  0  0  0
  -11.2465   15.2190  -37.4173 C   0  0  0  0  0  0  0  0  0  0  0  0
  -12.6703   15.8802  -39.9005 C   0  0  0  0  0  0  0  0  0  0  0  0
   -8.9177   15.6796  -36.9473 O   0  0  0  0  0  0  0  0  0  0  0  0
  -10.2067   14.6186  -35.3953 O   0  0  0  0  0  0  0  0  0  0  0  0
  -11.6896   16.4804  -40.6207 F   0  0  0  0  0  0  0  0  0  0  0  0
  -13.7785   15.8953  -40.6831 F   0  0  0  0  0  0  0  0  0  0  0  0
  -13.1470   12.7243  -38.5656 H   0  0  0  0  0  0  0  0  0  0  0  0
  -14.3255   13.7330  -39.4016 H   0  0  0  0  0  0  0  0  0  0  0  0
  -14.9905   16.0011  -38.4162 H   0  0  0  0  0  0  0  0  0  0  0  0
  -14.2683   16.5470  -36.9053 H   0  0  0  0  0  0  0  0  0  0  0  0
  -12.5742   15.0719  -35.6927 H   0  0  0  0  0  0  0  0  0  0  0  0
  -12.1214   13.5158  -36.3689 H   0  0  0  0  0  0  0  0  0  0  0  0
  -10.6937   13.4079  -38.5033 H   0  0  0  0  0  0  0  0  0  0  0  0
  -10.1692   14.8890  -39.2868 H   0  0  0  0  0  0  0  0  0  0  0  0
  -10.8412   17.1775  -38.2945 H   0  0  0  0  0  0  0  0  0  0  0  0
  -11.8172   17.2440  -36.8367 H   0  0  0  0  0  0  0  0  0  0  0  0
  -14.4877   14.0579  -36.9319 H   0  0  0  0  0  0  0  0  0  0  0  0
  -12.0948   13.8846  -40.5156 H   0  0  0  0  0  0  0  0  0  0  0  0
  -13.2131   17.6999  -38.8583 H   0  0  0  0  0  0  0  0  0  0  0  0
   -9.3966   14.6040  -34.8422 H   0  0  0  0  0  0  0  0  0  0  0  0
  1 10  1  0  0  0  0
  1 12  2  0  0  0  0
  1 13  1  0  0  0  0
  2  7  1  0  0  0  0
  2  8  1  0  0  0  0
  3  7  1  0  0  0  0
  3  9  1  0  0  0  0
  4  7  1  0  0  0  0
  4 10  1  0  0  0  0
  5  8  1  0  0  0  0
  5 10  1  0  0  0  0
  6  9  1  0  0  0  0
  6 10  1  0  0  0  0
  8 11  1  0  0  0  0
  9 11  1  0  0  0  0
 11 14  1  0  0  0  0
 11 15  1  0  0  0  0
  2 16  1  0  0  0  0
  2 17  1  0  0  0  0
  3 18  1  0  0  0  0
  3 19  1  0  0  0  0
  4 20  1  0  0  0  0
  4 21  1  0  0  0  0
  5 22  1  0  0  0  0
  5 23  1  0  0  0  0
  6 24  1  0  0  0  0
  6 25  1  0  0  0  0
  7 26  1  0  0  0  0
  8 27  1  0  0  0  0
  9 28  1  0  0  0  0
 13 29  1  0  0  0  0
M  END
> <id>
EN300-88847

> <smiles>
OC(=O)C1(CC2CC3C1)CC(C2)C3(F)F

> <IUPAC Name>
4,4-difluoroadamantane-1-carboxylic acid

> <CAS>
438017-43-7

> <Purity>
95

> <URL>
https://www.enaminestore.com/catalog/EN300-88847

> <ROCS_ShapeQuery>
_x1247relevant_x1083L0AP1_x1305L0BP1_

> <ROCS_TanimotoCombo>
0.847 

> <ROCS_ShapeTanimoto>
0.526 

> <ROCS_ColorTanimoto>
0.320 

> <ROCS_RefTversky>
0.440 

> <ROCS_RefColorTversky>
0.358 

> <ROCS_RefTverskyCombo>
0.798 

> <ROCS_FitTversky>
1.595 

> <ROCS_FitColorTversky>
0.752 

> <ROCS_FitTverskyCombo>
2.347 

> <ROCS_ColorScore>
-7.598

> <ROCS_Overlap>
1296.307

> <ROCS_Rank>
147                 

$$$$
untitled-dbase-94724_314
  -OEChem-06232314393D

 40 41  0     1  0  0  0  0  0999 V2000
  -10.7551   14.1882  -36.6125 C   0  0  0  0  0  0  0  0  0  0  0  0
  -13.9105   14.1414  -38.3325 C   0  0  0  0  0  0  0  0  0  0  0  0
  -14.0618   15.3849  -37.4366 C   0  0  0  0  0  0  0  0  0  0  0  0
  -11.8364   14.7192  -39.6986 C   0  0  0  0  0  0  0  0  0  0  0  0
  -12.0903   16.8234  -38.1759 C   0  0  0  0  0  0  0  0  0  0  0  0
  -12.0109   16.2607  -39.6216 C   0  0  0  0  0  0  0  0  0  0  0  0
  -12.4000   13.9514  -38.4896 C   0  0  1  0  0  0  0  0  0  0  0  0
  -12.6281   15.8286  -37.1322 C   0  0  2  0  0  0  0  0  0  0  0  0
   -8.4385   12.9113  -35.5303 C   0  0  0  0  0  0  0  0  0  0  0  0
   -8.3158   11.6891  -37.7213 C   0  0  0  0  0  0  0  0  0  0  0  0
   -8.0934   14.1903  -37.6703 C   0  0  0  0  0  0  0  0  0  0  0  0
  -13.1829   16.7428  -40.4839 C   0  0  0  0  0  0  0  0  0  0  0  0
   -8.7555   12.9745  -37.0237 C   0  0  0  0  0  0  0  0  0  0  0  0
  -11.8808   14.5956  -37.3008 N   0  0  0  0  0  0  0  0  0  0  0  0
  -10.3236   14.7428  -35.6044 O   0  0  0  0  0  0  0  0  0  0  0  0
  -14.3617   16.1146  -40.0213 O   0  0  0  0  0  0  0  0  0  0  0  0
  -10.1738   13.0887  -37.1839 O   0  0  0  0  0  0  0  0  0  0  0  0
  -14.3467   13.2765  -37.8184 H   0  0  0  0  0  0  0  0  0  0  0  0
  -14.4321   14.2495  -39.2876 H   0  0  0  0  0  0  0  0  0  0  0  0
  -14.6631   16.1678  -37.9072 H   0  0  0  0  0  0  0  0  0  0  0  0
  -14.5707   15.0960  -36.5090 H   0  0  0  0  0  0  0  0  0  0  0  0
  -12.2668   14.3251  -40.6271 H   0  0  0  0  0  0  0  0  0  0  0  0
  -10.7593   14.5084  -39.7536 H   0  0  0  0  0  0  0  0  0  0  0  0
  -11.0732   17.1071  -37.8722 H   0  0  0  0  0  0  0  0  0  0  0  0
  -12.6796   17.7478  -38.1511 H   0  0  0  0  0  0  0  0  0  0  0  0
  -11.1201   16.7056  -40.0875 H   0  0  0  0  0  0  0  0  0  0  0  0
  -12.1138   12.8959  -38.5382 H   0  0  0  0  0  0  0  0  0  0  0  0
  -12.5291   16.2395  -36.1232 H   0  0  0  0  0  0  0  0  0  0  0  0
   -8.7526   13.8322  -35.0260 H   0  0  0  0  0  0  0  0  0  0  0  0
   -8.9358   12.0636  -35.0479 H   0  0  0  0  0  0  0  0  0  0  0  0
   -7.3591   12.8202  -35.3632 H   0  0  0  0  0  0  0  0  0  0  0  0
   -8.5413   11.7301  -38.7930 H   0  0  0  0  0  0  0  0  0  0  0  0
   -8.8592   10.8240  -37.3243 H   0  0  0  0  0  0  0  0  0  0  0  0
   -7.2426   11.5102  -37.5995 H   0  0  0  0  0  0  0  0  0  0  0  0
   -8.3207   14.2359  -38.7416 H   0  0  0  0  0  0  0  0  0  0  0  0
   -8.4256   15.1248  -37.2066 H   0  0  0  0  0  0  0  0  0  0  0  0
   -7.0022   14.1295  -37.5881 H   0  0  0  0  0  0  0  0  0  0  0  0
  -13.0078   16.4710  -41.5224 H   0  0  0  0  0  0  0  0  0  0  0  0
  -13.2841   17.8218  -40.3921 H   0  0  0  0  0  0  0  0  0  0  0  0
  -15.0941   16.4311  -40.5784 H   0  0  0  0  0  0  0  0  0  0  0  0
  1 14  1  0  0  0  0
  1 15  2  0  0  0  0
  1 17  1  0  0  0  0
  2  3  1  0  0  0  0
  2  7  1  1  0  0  0
  3  8  1  1  0  0  0
  4  6  1  0  0  0  0
  4  7  1  0  0  0  0
  5  6  1  0  0  0  0
  5  8  1  0  0  0  0
  6 12  1  1  0  0  0
  7 14  1  0  0  0  0
  8 14  1  0  0  0  0
  9 13  1  0  0  0  0
 10 13  1  0  0  0  0
 11 13  1  0  0  0  0
 12 16  1  0  0  0  0
 13 17  1  0  0  0  0
  2 18  1  0  0  0  0
  2 19  1  0  0  0  0
  3 20  1  0  0  0  0
  3 21  1  0  0  0  0
  4 22  1  0  0  0  0
  4 23  1  0  0  0  0
  5 24  1  0  0  0  0
  5 25  1  0  0  0  0
  6 26  1  0  0  0  0
  7 27  1  0  0  0  0
  8 28  1  0  0  0  0
  9 29  1  0  0  0  0
  9 30  1  0  0  0  0
  9 31  1  0  0  0  0
 10 32  1  0  0  0  0
 10 33  1  0  0  0  0
 10 34  1  0  0  0  0
 11 35  1  0  0  0  0
 11 36  1  0  0  0  0
 11 37  1  0  0  0  0
 12 38  1  0  0  0  0
 12 39  1  0  0  0  0
 16 40  1  0  0  0  0
M  END
> <id>
EN300-7095548

> <smiles>
CC(C)(C)OC(=O)N1[C@H]2CC[C@@H]1C[C@H](CO)C2

> <MDLNUMBER>
MFCD29037442

> <IUPAC Name>
tert-butyl (1R,3R,5S)-3-(hydroxymethyl)-8-azabicyclo[3.2.1]octane-8-carboxylate

> <CAS>
273376-39-9

> <Purity>
95

> <URL>
https://www.enaminestore.com/catalog/EN300-7095548

> <ROCS_ShapeQuery>
_x1247relevant_x1083L0AP1_x1305L0BP1_

> <ROCS_TanimotoCombo>
0.846 

> <ROCS_ShapeTanimoto>
0.488 

> <ROCS_ColorTanimoto>
0.359 

> <ROCS_RefTversky>
0.423 

> <ROCS_RefColorTversky>
0.393 

> <ROCS_RefTverskyCombo>
0.817 

> <ROCS_FitTversky>
1.452 

> <ROCS_FitColorTversky>
0.803 

> <ROCS_FitTverskyCombo>
2.255 

> <ROCS_ColorScore>
-8.354

> <ROCS_Overlap>
1248.539

> <ROCS_Rank>
148                 

$$$$
untitled-dbase-57249_6
  -OEChem-06232314393D

 26 27  0     0  0  0  0  0  0999 V2000
  -10.2639   15.0013  -36.5202 C   0  0  0  0  0  0  0  0  0  0  0  0
  -12.0265   13.8818  -37.8963 C   0  0  0  0  0  0  0  0  0  0  0  0
  -12.4927   16.0750  -36.7810 C   0  0  0  0  0  0  0  0  0  0  0  0
  -10.9221   15.9714  -38.7288 C   0  0  0  0  0  0  0  0  0  0  0  0
  -13.2004   14.1214  -38.8541 C   0  0  0  0  0  0  0  0  0  0  0  0
  -13.6638   16.3128  -37.7430 C   0  0  0  0  0  0  0  0  0  0  0  0
  -12.0959   16.2070  -39.6877 C   0  0  0  0  0  0  0  0  0  0  0  0
  -11.4052   15.2264  -37.4683 C   0  0  0  0  0  0  0  0  0  0  0  0
  -13.3913   15.6289  -39.0929 C   0  0  0  0  0  0  0  0  0  0  0  0
  -10.3512   14.4424  -35.4370 O   0  0  0  0  0  0  0  0  0  0  0  0
   -9.1132   15.5071  -37.0275 O   0  0  0  0  0  0  0  0  0  0  0  0
  -14.4784   15.8343  -39.9799 O   0  0  0  0  0  0  0  0  0  0  0  0
  -12.3740   13.3189  -37.0205 H   0  0  0  0  0  0  0  0  0  0  0  0
  -11.2741   13.2477  -38.3826 H   0  0  0  0  0  0  0  0  0  0  0  0
  -12.0812   17.0381  -36.4525 H   0  0  0  0  0  0  0  0  0  0  0  0
  -12.8547   15.5765  -35.8725 H   0  0  0  0  0  0  0  0  0  0  0  0
  -10.1364   15.3985  -39.2376 H   0  0  0  0  0  0  0  0  0  0  0  0
  -10.4673   16.9334  -38.4599 H   0  0  0  0  0  0  0  0  0  0  0  0
  -13.0263   13.6033  -39.8058 H   0  0  0  0  0  0  0  0  0  0  0  0
  -14.1189   13.6795  -38.4473 H   0  0  0  0  0  0  0  0  0  0  0  0
  -14.5971   15.9358  -37.3055 H   0  0  0  0  0  0  0  0  0  0  0  0
  -13.8246   17.3891  -37.8846 H   0  0  0  0  0  0  0  0  0  0  0  0
  -12.2118   17.2795  -39.8888 H   0  0  0  0  0  0  0  0  0  0  0  0
  -11.8879   15.7495  -40.6633 H   0  0  0  0  0  0  0  0  0  0  0  0
   -8.3545   15.3714  -36.4206 H   0  0  0  0  0  0  0  0  0  0  0  0
  -14.5654   16.7942  -40.1041 H   0  0  0  0  0  0  0  0  0  0  0  0
  1  8  1  0  0  0  0
  1 10  2  0  0  0  0
  1 11  1  0  0  0  0
  2  5  1  0  0  0  0
  2  8  1  0  0  0  0
  3  6  1  0  0  0  0
  3  8  1  0  0  0  0
  4  7  1  0  0  0  0
  4  8  1  0  0  0  0
  5  9  1  0  0  0  0
  6  9  1  0  0  0  0
  7  9  1  0  0  0  0
  9 12  1  0  0  0  0
  2 13  1  0  0  0  0
  2 14  1  0  0  0  0
  3 15  1  0  0  0  0
  3 16  1  0  0  0  0
  4 17  1  0  0  0  0
  4 18  1  0  0  0  0
  5 19  1  0  0  0  0
  5 20  1  0  0  0  0
  6 21  1  0  0  0  0
  6 22  1  0  0  0  0
  7 23  1  0  0  0  0
  7 24  1  0  0  0  0
 11 25  1  0  0  0  0
 12 26  1  0  0  0  0
M  END
> <id>
EN300-109769

> <smiles>
OC(=O)C1(CCC2(O)CC1)CC2

> <MDLNUMBER>
MFCD00102273

> <IUPAC Name>
4-hydroxybicyclo[2.2.2]octane-1-carboxylic acid

> <CAS>
1127-13-5

> <Purity>
95

> <URL>
https://www.enaminestore.com/catalog/EN300-109769

> <MP>
224-226

> <ROCS_ShapeQuery>
_x1247relevant_x1083L0AP1_x1305L0BP1_

> <ROCS_TanimotoCombo>
0.846 

> <ROCS_ShapeTanimoto>
0.474 

> <ROCS_ColorTanimoto>
0.371 

> <ROCS_RefTversky>
0.394 

> <ROCS_RefColorTversky>
0.418 

> <ROCS_RefTverskyCombo>
0.811 

> <ROCS_FitTversky>
1.762 

> <ROCS_FitColorTversky>
0.771 

> <ROCS_FitTverskyCombo>
2.532 

> <ROCS_ColorScore>
-8.896

> <ROCS_Overlap>
1156.390

> <ROCS_Rank>
149                 

$$$$
untitled-dbase-120591_9
  -OEChem-06232314393D

 40 42  0     1  0  0  0  0  0999 V2000
  -12.3201   16.8118  -38.3875 C   0  0  0  0  0  0  0  0  0  0  0  0
  -12.0598   14.7926  -39.7860 C   0  0  0  0  0  0  0  0  0  0  0  0
   -8.7168   15.0503  -36.7721 C   0  0  0  0  0  0  0  0  0  0  0  0
  -13.6974   16.3315  -37.9110 C   0  0  0  0  0  0  0  0  0  0  0  0
  -13.5138   14.4599  -39.4150 C   0  0  0  0  0  0  0  0  0  0  0  0
  -12.8638   14.2113  -37.1144 C   0  0  0  0  0  0  0  0  0  0  0  0
   -9.7348   16.0050  -36.1610 C   0  0  0  0  0  0  0  0  0  0  0  0
  -11.4148   15.5866  -38.6338 C   0  0  0  0  0  0  0  0  0  0  0  0
  -11.3960   14.7056  -37.3434 C   0  0  2  0  0  0  0  0  0  0  0  0
   -9.2252   13.6043  -36.8185 C   0  0  1  0  0  0  0  0  0  0  0  0
   -8.2354   12.7417  -37.6181 C   0  0  0  0  0  0  0  0  0  0  0  0
   -9.8444   11.6085  -35.4436 C   0  0  0  0  0  0  0  0  0  0  0  0
   -9.3507   13.0130  -35.4014 C   0  0  0  0  0  0  0  0  0  0  0  0
  -10.5191   13.5312  -37.5129 N   0  0  0  0  0  0  0  0  0  0  0  0
  -13.8320   14.8660  -38.0284 N   0  0  0  0  0  0  0  0  0  0  0  0
  -11.0641   15.4934  -36.1867 O   0  0  0  0  0  0  0  0  0  0  0  0
  -12.4248   17.3890  -39.3158 H   0  0  0  0  0  0  0  0  0  0  0  0
  -11.8783   17.4892  -37.6465 H   0  0  0  0  0  0  0  0  0  0  0  0
  -11.4996   13.8777  -40.0082 H   0  0  0  0  0  0  0  0  0  0  0  0
  -12.0462   15.3943  -40.7041 H   0  0  0  0  0  0  0  0  0  0  0  0
   -8.5056   15.3957  -37.7979 H   0  0  0  0  0  0  0  0  0  0  0  0
   -7.7672   15.1184  -36.2193 H   0  0  0  0  0  0  0  0  0  0  0  0
  -13.8659   16.6374  -36.8704 H   0  0  0  0  0  0  0  0  0  0  0  0
  -14.4853   16.8257  -38.4936 H   0  0  0  0  0  0  0  0  0  0  0  0
  -14.2037   14.9518  -40.1129 H   0  0  0  0  0  0  0  0  0  0  0  0
  -13.6918   13.3840  -39.5377 H   0  0  0  0  0  0  0  0  0  0  0  0
  -12.9523   13.1307  -37.2718 H   0  0  0  0  0  0  0  0  0  0  0  0
  -13.1860   14.3929  -36.0848 H   0  0  0  0  0  0  0  0  0  0  0  0
   -9.4591   16.2920  -35.1271 H   0  0  0  0  0  0  0  0  0  0  0  0
   -9.7386   16.9536  -36.7319 H   0  0  0  0  0  0  0  0  0  0  0  0
  -10.4088   15.9239  -38.9011 H   0  0  0  0  0  0  0  0  0  0  0  0
   -8.5983   11.7206  -37.6485 H   0  0  0  0  0  0  0  0  0  0  0  0
   -7.2659   12.7728  -37.1340 H   0  0  0  0  0  0  0  0  0  0  0  0
   -8.1560   13.1339  -38.6256 H   0  0  0  0  0  0  0  0  0  0  0  0
  -10.8278   11.5866  -35.9279 H   0  0  0  0  0  0  0  0  0  0  0  0
   -9.9540   11.1984  -34.4341 H   0  0  0  0  0  0  0  0  0  0  0  0
   -9.1673   10.9699  -36.0207 H   0  0  0  0  0  0  0  0  0  0  0  0
   -8.3730   13.0524  -34.9225 H   0  0  0  0  0  0  0  0  0  0  0  0
  -10.0370   13.6343  -34.8270 H   0  0  0  0  0  0  0  0  0  0  0  0
  -11.0060   12.6770  -37.2532 H   0  0  0  0  0  0  0  0  0  0  0  0
  1  4  1  0  0  0  0
  1  8  1  0  0  0  0
  2  5  1  0  0  0  0
  2  8  1  0  0  0  0
  3  7  1  0  0  0  0
  3 10  1  0  0  0  0
  4 15  1  0  0  0  0
  5 15  1  0  0  0  0
  6  9  1  0  0  0  0
  6 15  1  0  0  0  0
  7 16  1  0  0  0  0
  8  9  1  0  0  0  0
  9 14  1  0  0  0  0
  9 16  1  0  0  0  0
 10 11  1  0  0  0  0
 10 13  1  0  0  0  0
 10 14  1  0  0  0  0
 12 13  1  0  0  0  0
  1 17  1  0  0  0  0
  1 18  1  0  0  0  0
  2 19  1  0  0  0  0
  2 20  1  0  0  0  0
  3 21  1  0  0  0  0
  3 22  1  0  0  0  0
  4 23  1  0  0  0  0
  4 24  1  0  0  0  0
  5 25  1  0  0  0  0
  5 26  1  0  0  0  0
  6 27  1  0  0  0  0
  6 28  1  0  0  0  0
  7 29  1  0  0  0  0
  7 30  1  0  0  0  0
  8 31  1  0  0  0  0
 11 32  1  0  0  0  0
 11 33  1  0  0  0  0
 11 34  1  0  0  0  0
 12 35  1  0  0  0  0
 12 36  1  0  0  0  0
 12 37  1  0  0  0  0
 13 38  1  0  0  0  0
 13 39  1  0  0  0  0
 14 40  1  0  0  0  0
M  END
> <id>
EN300-1279490

> <smiles>
CCC1(C)CCOC2(CN3CCC2CC3)N1

> <IUPAC Name>
4'-ethyl-4'-methyl-4-azaspiro[bicyclo[2.2.2]octane-2,2'-[1,3]oxazinane]

> <CAS>
2172024-34-7

> <URL>
https://www.enaminestore.com/catalog/EN300-1279490

> <ROCS_ShapeQuery>
_x1247relevant_x1083L0AP1_x1305L0BP1_

> <ROCS_TanimotoCombo>
0.846 

> <ROCS_ShapeTanimoto>
0.498 

> <ROCS_ColorTanimoto>
0.348 

> <ROCS_RefTversky>
0.426 

> <ROCS_RefColorTversky>
0.410 

> <ROCS_RefTverskyCombo>
0.836 

> <ROCS_FitTversky>
1.512 

> <ROCS_FitColorTversky>
0.698 

> <ROCS_FitTverskyCombo>
2.209 

> <ROCS_ColorScore>
-8.758

> <ROCS_Overlap>
1254.723

> <ROCS_Rank>
150                 

$$$$
untitled-dbase-20279_4
  -OEChem-06232314393D

 24 26  0     1  0  0  0  0  0999 V2000
  -12.0125   16.3600  -39.7773 C   0  0  0  0  0  0  0  0  0  0  0  0
  -10.1958   15.3738  -36.8734 C   0  0  0  0  0  0  0  0  0  0  0  0
  -14.0721   15.2675  -38.8161 C   0  0  0  0  0  0  0  0  0  0  0  0
  -12.8721   13.6036  -37.6189 C   0  0  0  0  0  0  0  0  0  0  0  0
  -12.7149   15.8121  -36.7617 C   0  0  0  0  0  0  0  0  0  0  0  0
  -12.7371   15.0492  -39.5558 C   0  0  2  0  0  0  0  0  0  0  0  0
  -13.7399   14.8341  -37.3724 C   0  0  1  0  0  0  0  0  0  0  0  0
  -11.8682   14.3554  -38.4810 C   0  0  1  0  0  0  0  0  0  0  0  0
  -11.4661   15.5765  -37.6357 C   0  0  2  0  0  0  0  0  0  0  0  0
  -11.2789   16.6089  -38.6197 N   0  0  0  0  0  0  0  0  0  0  0  0
  -12.1082   17.0704  -40.7652 O   0  0  0  0  0  0  0  0  0  0  0  0
   -9.0818   15.6800  -37.2718 O   0  0  0  0  0  0  0  0  0  0  0  0
  -10.4451   14.7979  -35.6720 O   0  0  0  0  0  0  0  0  0  0  0  0
  -14.4366   16.2987  -38.8670 H   0  0  0  0  0  0  0  0  0  0  0  0
  -14.8408   14.6084  -39.2361 H   0  0  0  0  0  0  0  0  0  0  0  0
  -12.4314   13.1963  -36.7032 H   0  0  0  0  0  0  0  0  0  0  0  0
  -13.3933   12.8101  -38.1637 H   0  0  0  0  0  0  0  0  0  0  0  0
  -13.0679   16.8490  -36.7917 H   0  0  0  0  0  0  0  0  0  0  0  0
  -12.5266   15.5563  -35.7121 H   0  0  0  0  0  0  0  0  0  0  0  0
  -12.8377   14.4737  -40.4788 H   0  0  0  0  0  0  0  0  0  0  0  0
  -14.6194   14.6698  -36.7470 H   0  0  0  0  0  0  0  0  0  0  0  0
  -11.0390   13.7631  -38.8763 H   0  0  0  0  0  0  0  0  0  0  0  0
  -10.6839   17.4209  -38.4866 H   0  0  0  0  0  0  0  0  0  0  0  0
   -9.6228   14.6547  -35.1566 H   0  0  0  0  0  0  0  0  0  0  0  0
  1  6  1  0  0  0  0
  1 10  1  0  0  0  0
  1 11  2  0  0  0  0
  2  9  1  0  0  0  0
  2 12  2  0  0  0  0
  2 13  1  0  0  0  0
  3  6  1  0  0  0  0
  3  7  1  0  0  0  0
  4  7  1  0  0  0  0
  4  8  1  0  0  0  0
  5  7  1  0  0  0  0
  5  9  1  0  0  0  0
  6  8  1  0  0  0  0
  8  9  1  0  0  0  0
  9 10  1  0  0  0  0
  3 14  1  0  0  0  0
  3 15  1  0  0  0  0
  4 16  1  0  0  0  0
  4 17  1  0  0  0  0
  5 18  1  0  0  0  0
  5 19  1  0  0  0  0
  6 20  1  0  0  0  0
  7 21  1  0  0  0  0
  8 22  1  0  0  0  0
 10 23  1  0  0  0  0
 13 24  1  0  0  0  0
M  END
> <id>
EN300-264713

> <smiles>
OC(=O)C1(CC2CC3C1C2)NC3=O

> <MDLNUMBER>
MFCD24515724

> <IUPAC Name>
5-oxo-4-azatricyclo[4.2.1.0,3,7]nonane-3-carboxylic acid

> <CAS>
286456-64-2

> <Purity>
95

> <URL>
https://www.enaminestore.com/catalog/EN300-264713

> <MP>
302-305

> <ROCS_ShapeQuery>
_x1247relevant_x1083L0AP1_x1305L0BP1_

> <ROCS_TanimotoCombo>
0.845 

> <ROCS_ShapeTanimoto>
0.496 

> <ROCS_ColorTanimoto>
0.349 

> <ROCS_RefTversky>
0.414 

> <ROCS_RefColorTversky>
0.472 

> <ROCS_RefTverskyCombo>
0.887 

> <ROCS_FitTversky>
1.658 

> <ROCS_FitColorTversky>
0.572 

> <ROCS_FitTverskyCombo>
2.230 

> <ROCS_ColorScore>
-10.225

> <ROCS_Overlap>
1219.200

> <ROCS_Rank>
151                 

$$$$
untitled-dbase-167598_73
  -OEChem-06232314393D

 40 42  0     1  0  0  0  0  0999 V2000
   -9.9109   15.1543  -36.8589 C   0  0  0  0  0  0  0  0  0  0  0  0
  -13.7312   14.9795  -40.5371 C   0  0  0  0  0  0  0  0  0  0  0  0
  -13.8485   14.8701  -36.9237 C   0  0  0  0  0  0  0  0  0  0  0  0
  -13.8145   16.3734  -37.2720 C   0  0  0  0  0  0  0  0  0  0  0  0
  -10.5678   15.7911  -39.2446 C   0  0  0  0  0  0  0  0  0  0  0  0
  -11.7922   13.8397  -38.0189 C   0  0  0  0  0  0  0  0  0  0  0  0
  -11.5734   16.4333  -38.3329 C   0  0  1  0  0  0  0  0  0  0  0  0
  -13.2955   14.1538  -38.1688 C   0  0  2  0  0  0  0  0  0  0  0  0
  -13.0622   16.4376  -38.6045 C   0  0  1  0  0  0  0  0  0  0  0  0
  -10.9270   15.1049  -37.9332 C   0  0  1  0  0  0  0  0  0  0  0  0
  -15.4116   14.0711  -42.6629 C   0  0  0  0  0  0  0  0  0  0  0  0
  -15.1467   11.7883  -41.6492 C   0  0  0  0  0  0  0  0  0  0  0  0
  -16.2448   13.6223  -40.3307 C   0  0  0  0  0  0  0  0  0  0  0  0
  -15.1764   13.2896  -41.3711 C   0  0  0  0  0  0  0  0  0  0  0  0
  -13.4329   15.1681  -39.2021 N   0  0  0  0  0  0  0  0  0  0  0  0
   -8.8205   15.6987  -36.9487 O   0  0  0  0  0  0  0  0  0  0  0  0
  -13.8319   15.8886  -41.3577 O   0  0  0  0  0  0  0  0  0  0  0  0
  -10.3522   14.5076  -35.7525 O   0  0  0  0  0  0  0  0  0  0  0  0
  -13.8967   13.6559  -40.8436 O   0  0  0  0  0  0  0  0  0  0  0  0
  -13.2669   14.6562  -36.0209 H   0  0  0  0  0  0  0  0  0  0  0  0
  -14.8844   14.5669  -36.7334 H   0  0  0  0  0  0  0  0  0  0  0  0
  -14.8409   16.7379  -37.3992 H   0  0  0  0  0  0  0  0  0  0  0  0
  -13.3416   16.9580  -36.4762 H   0  0  0  0  0  0  0  0  0  0  0  0
  -10.8991   15.3480  -40.1753 H   0  0  0  0  0  0  0  0  0  0  0  0
   -9.5951   16.2650  -39.3265 H   0  0  0  0  0  0  0  0  0  0  0  0
  -11.6392   13.2255  -37.1231 H   0  0  0  0  0  0  0  0  0  0  0  0
  -11.4538   13.2380  -38.8718 H   0  0  0  0  0  0  0  0  0  0  0  0
  -11.2571   17.3373  -37.8231 H   0  0  0  0  0  0  0  0  0  0  0  0
  -13.8564   13.2433  -38.3989 H   0  0  0  0  0  0  0  0  0  0  0  0
  -13.3490   17.2912  -39.2252 H   0  0  0  0  0  0  0  0  0  0  0  0
  -15.4336   15.1493  -42.4675 H   0  0  0  0  0  0  0  0  0  0  0  0
  -14.6325   13.8680  -43.4048 H   0  0  0  0  0  0  0  0  0  0  0  0
  -16.3829   13.8168  -43.1024 H   0  0  0  0  0  0  0  0  0  0  0  0
  -14.9782   11.2236  -40.7251 H   0  0  0  0  0  0  0  0  0  0  0  0
  -14.3206   11.5323  -42.3224 H   0  0  0  0  0  0  0  0  0  0  0  0
  -16.0821   11.4425  -42.1011 H   0  0  0  0  0  0  0  0  0  0  0  0
  -16.0763   13.0618  -39.4041 H   0  0  0  0  0  0  0  0  0  0  0  0
  -16.2558   14.6906  -40.0913 H   0  0  0  0  0  0  0  0  0  0  0  0
  -17.2402   13.3355  -40.6889 H   0  0  0  0  0  0  0  0  0  0  0  0
   -9.6909   14.5275  -35.0282 H   0  0  0  0  0  0  0  0  0  0  0  0
  1 10  1  6  0  0  0
  1 16  2  0  0  0  0
  1 18  1  0  0  0  0
  2 15  1  0  0  0  0
  2 17  2  0  0  0  0
  2 19  1  0  0  0  0
  3  4  1  0  0  0  0
  3  8  1  6  0  0  0
  4  9  1  6  0  0  0
  5  7  1  1  0  0  0
  5 10  1  0  0  0  0
  6  8  1  0  0  0  0
  6 10  1  0  0  0  0
  7  9  1  0  0  0  0
  7 10  1  0  0  0  0
  8 15  1  0  0  0  0
  9 15  1  0  0  0  0
 11 14  1  0  0  0  0
 12 14  1  0  0  0  0
 13 14  1  0  0  0  0
 14 19  1  0  0  0  0
  3 20  1  0  0  0  0
  3 21  1  0  0  0  0
  4 22  1  0  0  0  0
  4 23  1  0  0  0  0
  5 24  1  0  0  0  0
  5 25  1  0  0  0  0
  6 26  1  0  0  0  0
  6 27  1  0  0  0  0
  7 28  1  0  0  0  0
  8 29  1  0  0  0  0
  9 30  1  0  0  0  0
 11 31  1  0  0  0  0
 11 32  1  0  0  0  0
 11 33  1  0  0  0  0
 12 34  1  0  0  0  0
 12 35  1  0  0  0  0
 12 36  1  0  0  0  0
 13 37  1  0  0  0  0
 13 38  1  0  0  0  0
 13 39  1  0  0  0  0
 18 40  1  0  0  0  0
M  END
> <id>
EN300-6482949

> <smiles>
CC(C)(C)OC(=O)N1[C@@H]2CC[C@H]1[C@@H]3C[C@@]3(C2)C(=O)O |&1:8,11,12,14,r|

> <IUPAC Name>
rac-(1R,2S,4R,6S)-9-[(tert-butoxy)carbonyl]-9-azatricyclo[4.2.1.0,2,4]nonane-4-carboxylic acid

> <CAS>
2243512-38-9

> <Purity>
95

> <URL>
https://www.enaminestore.com/catalog/EN300-6482949

> <ROCS_ShapeQuery>
_x1247relevant_x1083L0AP1_x1305L0BP1_

> <ROCS_TanimotoCombo>
0.845 

> <ROCS_ShapeTanimoto>
0.513 

> <ROCS_ColorTanimoto>
0.332 

> <ROCS_RefTversky>
0.450 

> <ROCS_RefColorTversky>
0.426 

> <ROCS_RefTverskyCombo>
0.877 

> <ROCS_FitTversky>
1.373 

> <ROCS_FitColorTversky>
0.600 

> <ROCS_FitTverskyCombo>
1.972 

> <ROCS_ColorScore>
-9.165

> <ROCS_Overlap>
1330.757

> <ROCS_Rank>
152                 

$$$$
untitled-dbase-151827_4
  -OEChem-06232314393D

 30 32  0     1  0  0  0  0  0999 V2000
   -9.9283   15.1897  -36.8351 C   0  0  0  0  0  0  0  0  0  0  0  0
  -13.6544   14.9334  -40.6234 C   0  0  0  0  0  0  0  0  0  0  0  0
  -13.8591   14.8151  -37.0121 C   0  0  0  0  0  0  0  0  0  0  0  0
  -13.8457   16.3162  -37.3663 C   0  0  0  0  0  0  0  0  0  0  0  0
  -10.5327   15.7947  -39.2426 C   0  0  0  0  0  0  0  0  0  0  0  0
  -11.7477   13.8265  -38.0363 C   0  0  0  0  0  0  0  0  0  0  0  0
  -11.5773   16.4204  -38.3638 C   0  0  1  0  0  0  0  0  0  0  0  0
  -13.2527   14.1049  -38.2361 C   0  0  2  0  0  0  0  0  0  0  0  0
  -13.0573   16.3894  -38.6771 C   0  0  1  0  0  0  0  0  0  0  0  0
  -10.9133   15.1103  -37.9365 C   0  0  1  0  0  0  0  0  0  0  0  0
  -13.8466   13.5071  -41.0685 C   0  0  0  0  0  0  0  0  0  0  0  0
  -13.3844   15.1098  -39.2819 N   0  0  0  0  0  0  0  0  0  0  0  0
   -8.8479   15.7570  -36.8993 O   0  0  0  0  0  0  0  0  0  0  0  0
  -13.7469   15.8555  -41.4354 O   0  0  0  0  0  0  0  0  0  0  0  0
  -10.3859   14.5416  -35.7360 O   0  0  0  0  0  0  0  0  0  0  0  0
  -13.3019   14.6171  -36.0905 H   0  0  0  0  0  0  0  0  0  0  0  0
  -14.8940   14.4911  -36.8529 H   0  0  0  0  0  0  0  0  0  0  0  0
  -14.8750   16.6595  -37.5243 H   0  0  0  0  0  0  0  0  0  0  0  0
  -13.4073   16.9139  -36.5606 H   0  0  0  0  0  0  0  0  0  0  0  0
  -10.8280   15.3375  -40.1785 H   0  0  0  0  0  0  0  0  0  0  0  0
   -9.5690   16.2898  -39.3011 H   0  0  0  0  0  0  0  0  0  0  0  0
  -11.6097   13.2246  -37.1296 H   0  0  0  0  0  0  0  0  0  0  0  0
  -11.3680   13.2239  -38.8709 H   0  0  0  0  0  0  0  0  0  0  0  0
  -11.2956   17.3348  -37.8522 H   0  0  0  0  0  0  0  0  0  0  0  0
  -13.7843   13.1782  -38.4673 H   0  0  0  0  0  0  0  0  0  0  0  0
  -13.3445   17.2362  -39.3069 H   0  0  0  0  0  0  0  0  0  0  0  0
  -14.8963   13.2450  -40.9816 H   0  0  0  0  0  0  0  0  0  0  0  0
  -13.2491   12.8536  -40.4401 H   0  0  0  0  0  0  0  0  0  0  0  0
  -13.5252   13.4094  -42.1010 H   0  0  0  0  0  0  0  0  0  0  0  0
   -9.7453   14.5812  -34.9941 H   0  0  0  0  0  0  0  0  0  0  0  0
  1 10  1  6  0  0  0
  1 13  2  0  0  0  0
  1 15  1  0  0  0  0
  2 11  1  0  0  0  0
  2 12  1  0  0  0  0
  2 14  2  0  0  0  0
  3  4  1  0  0  0  0
  3  8  1  6  0  0  0
  4  9  1  6  0  0  0
  5  7  1  1  0  0  0
  5 10  1  0  0  0  0
  6  8  1  0  0  0  0
  6 10  1  0  0  0  0
  7  9  1  0  0  0  0
  7 10  1  0  0  0  0
  8 12  1  0  0  0  0
  9 12  1  0  0  0  0
  3 16  1  0  0  0  0
  3 17  1  0  0  0  0
  4 18  1  0  0  0  0
  4 19  1  0  0  0  0
  5 20  1  0  0  0  0
  5 21  1  0  0  0  0
  6 22  1  0  0  0  0
  6 23  1  0  0  0  0
  7 24  1  0  0  0  0
  8 25  1  0  0  0  0
  9 26  1  0  0  0  0
 11 27  1  0  0  0  0
 11 28  1  0  0  0  0
 11 29  1  0  0  0  0
 15 30  1  0  0  0  0
M  END
> <id>
EN300-28272803

> <smiles>
CC(=O)N1[C@@H]2CC[C@H]1[C@@H]3C[C@@]3(C2)C(=O)O |&1:4,7,8,10,r|

> <IUPAC Name>
rac-(1R,2S,4R,6S)-9-acetyl-9-azatricyclo[4.2.1.0,2,4]nonane-4-carboxylic acid

> <CAS>
2679940-52-2

> <URL>
https://www.enaminestore.com/catalog/EN300-28272803

> <ROCS_ShapeQuery>
_x1247relevant_x1083L0AP1_x1305L0BP1_

> <ROCS_TanimotoCombo>
0.845 

> <ROCS_ShapeTanimoto>
0.505 

> <ROCS_ColorTanimoto>
0.340 

> <ROCS_RefTversky>
0.427 

> <ROCS_RefColorTversky>
0.423 

> <ROCS_RefTverskyCombo>
0.849 

> <ROCS_FitTversky>
1.575 

> <ROCS_FitColorTversky>
0.633 

> <ROCS_FitTverskyCombo>
2.208 

> <ROCS_ColorScore>
-9.070

> <ROCS_Overlap>
1256.640

> <ROCS_Rank>
153                 

$$$$
untitled-dbase-78569_5
  -OEChem-06232314393D

 29 31  0     1  0  0  0  0  0999 V2000
  -12.3488   16.5084  -39.2005 C   0  0  0  0  0  0  0  0  0  0  0  0
  -11.6787   15.3637  -39.3978 C   0  0  0  0  0  0  0  0  0  0  0  0
   -8.8253   15.2445  -36.6768 C   0  0  0  0  0  0  0  0  0  0  0  0
  -10.2870   15.6696  -36.7447 C   0  0  0  0  0  0  0  0  0  0  0  0
  -13.8884   14.7926  -39.0466 C   0  0  0  0  0  0  0  0  0  0  0  0
  -13.1795   15.7779  -36.9944 C   0  0  0  0  0  0  0  0  0  0  0  0
   -8.8398   13.7290  -36.8254 C   0  0  0  0  0  0  0  0  0  0  0  0
  -13.6016   16.1652  -38.4300 C   0  0  1  0  0  0  0  0  0  0  0  0
  -12.4809   14.2586  -38.7505 C   0  0  2  0  0  0  0  0  0  0  0  0
  -12.4460   14.4170  -37.2072 C   0  0  1  0  0  0  0  0  0  0  0  0
  -11.0613   14.3697  -36.5853 C   0  0  1  0  0  0  0  0  0  0  0  0
  -10.1952   13.4047  -37.2643 N   0  0  0  0  0  0  0  0  0  0  0  0
  -12.0294   17.4964  -39.4907 H   0  0  0  0  0  0  0  0  0  0  0  0
  -10.7180   15.2576  -39.8757 H   0  0  0  0  0  0  0  0  0  0  0  0
   -8.2531   15.7219  -37.4797 H   0  0  0  0  0  0  0  0  0  0  0  0
   -8.3744   15.5350  -35.7218 H   0  0  0  0  0  0  0  0  0  0  0  0
  -10.5358   16.3964  -35.9648 H   0  0  0  0  0  0  0  0  0  0  0  0
  -10.4859   16.1401  -37.7161 H   0  0  0  0  0  0  0  0  0  0  0  0
  -14.6818   14.2420  -38.5283 H   0  0  0  0  0  0  0  0  0  0  0  0
  -14.1239   14.8343  -40.1179 H   0  0  0  0  0  0  0  0  0  0  0  0
  -12.5447   16.5384  -36.5258 H   0  0  0  0  0  0  0  0  0  0  0  0
  -14.0616   15.6274  -36.3616 H   0  0  0  0  0  0  0  0  0  0  0  0
   -8.0897   13.3780  -37.5406 H   0  0  0  0  0  0  0  0  0  0  0  0
   -8.6348   13.2461  -35.8631 H   0  0  0  0  0  0  0  0  0  0  0  0
  -14.4075   16.8947  -38.5129 H   0  0  0  0  0  0  0  0  0  0  0  0
  -12.2806   13.2567  -39.1327 H   0  0  0  0  0  0  0  0  0  0  0  0
  -13.0525   13.6207  -36.7546 H   0  0  0  0  0  0  0  0  0  0  0  0
  -11.1469   14.1010  -35.5262 H   0  0  0  0  0  0  0  0  0  0  0  0
  -10.2575   13.5529  -38.2726 H   0  0  0  0  0  0  0  0  0  0  0  0
  1  2  2  0  0  0  0
  1  8  1  0  0  0  0
  2  9  1  0  0  0  0
  3  4  1  0  0  0  0
  3  7  1  0  0  0  0
  4 11  1  0  0  0  0
  5  8  1  0  0  0  0
  5  9  1  0  0  0  0
  6  8  1  0  0  0  0
  6 10  1  0  0  0  0
  7 12  1  0  0  0  0
  9 10  1  0  0  0  0
 10 11  1  0  0  0  0
 11 12  1  0  0  0  0
  1 13  1  0  0  0  0
  2 14  1  0  0  0  0
  3 15  1  0  0  0  0
  3 16  1  0  0  0  0
  4 17  1  0  0  0  0
  4 18  1  0  0  0  0
  5 19  1  0  0  0  0
  5 20  1  0  0  0  0
  6 21  1  0  0  0  0
  6 22  1  0  0  0  0
  7 23  1  0  0  0  0
  7 24  1  0  0  0  0
  8 25  1  0  0  0  0
  9 26  1  0  0  0  0
 10 27  1  0  0  0  0
 11 28  1  0  0  0  0
 12 29  1  0  0  0  0
M  END
> <id>
EN300-1820061

> <smiles>
C1CNC(C1)C2CC3CC2C=C3

> <IUPAC Name>
2-{bicyclo[2.2.1]hept-5-en-2-yl}pyrrolidine

> <CAS>
2229470-45-3

> <URL>
https://www.enaminestore.com/catalog/EN300-1820061

> <ROCS_ShapeQuery>
_x1247relevant_x1083L0AP1_x1305L0BP1_

> <ROCS_TanimotoCombo>
0.845 

> <ROCS_ShapeTanimoto>
0.482 

> <ROCS_ColorTanimoto>
0.362 

> <ROCS_RefTversky>
0.399 

> <ROCS_RefColorTversky>
0.391 

> <ROCS_RefTverskyCombo>
0.790 

> <ROCS_FitTversky>
1.764 

> <ROCS_FitColorTversky>
0.832 

> <ROCS_FitTverskyCombo>
2.596 

> <ROCS_ColorScore>
-8.302

> <ROCS_Overlap>
1171.843

> <ROCS_Rank>
154                 

$$$$
untitled-dbase-130720_18
  -OEChem-06232314393D

 38 40  0     1  0  0  0  0  0999 V2000
   -9.0268   14.3961  -37.2942 C   0  0  0  0  0  0  0  0  0  0  0  0
  -14.1198   15.7912  -37.6495 C   0  0  0  0  0  0  0  0  0  0  0  0
  -12.8636   16.6510  -37.3920 C   0  0  0  0  0  0  0  0  0  0  0  0
  -12.7507   13.7011  -37.5228 C   0  0  0  0  0  0  0  0  0  0  0  0
  -13.7387   14.5002  -38.4072 C   0  0  2  0  0  0  0  0  0  0  0  0
  -11.6077   15.9327  -37.9409 C   0  0  1  0  0  0  0  0  0  0  0  0
  -11.5088   14.5723  -37.1972 C   0  0  2  0  0  0  0  0  0  0  0  0
  -13.0045   14.8305  -39.6920 C   0  0  2  0  0  0  0  0  0  0  0  0
  -11.7768   15.6527  -39.4241 C   0  0  1  0  0  0  0  0  0  0  0  0
   -7.8994   13.0656  -35.3437 C   0  0  0  0  0  0  0  0  0  0  0  0
   -6.7554   11.6219  -37.0514 C   0  0  0  0  0  0  0  0  0  0  0  0
   -5.9608   13.9733  -36.6676 C   0  0  0  0  0  0  0  0  0  0  0  0
   -7.1742   13.0449  -36.6886 C   0  0  0  0  0  0  0  0  0  0  0  0
  -10.2846   13.8759  -37.5170 N   0  0  0  0  0  0  0  0  0  0  0  0
   -8.7823   15.4945  -36.8058 O   0  0  0  0  0  0  0  0  0  0  0  0
  -12.9200   16.2021  -40.0884 O   0  0  0  0  0  0  0  0  0  0  0  0
   -8.0789   13.4998  -37.7011 O   0  0  0  0  0  0  0  0  0  0  0  0
  -14.6022   15.5433  -36.6965 H   0  0  0  0  0  0  0  0  0  0  0  0
  -14.8478   16.3711  -38.2296 H   0  0  0  0  0  0  0  0  0  0  0  0
  -12.9821   17.6302  -37.8720 H   0  0  0  0  0  0  0  0  0  0  0  0
  -12.7566   16.8403  -36.3173 H   0  0  0  0  0  0  0  0  0  0  0  0
  -13.2390   13.3943  -36.5898 H   0  0  0  0  0  0  0  0  0  0  0  0
  -12.4596   12.7796  -38.0435 H   0  0  0  0  0  0  0  0  0  0  0  0
  -14.6321   13.9054  -38.6225 H   0  0  0  0  0  0  0  0  0  0  0  0
  -10.7199   16.5498  -37.7653 H   0  0  0  0  0  0  0  0  0  0  0  0
  -11.4680   14.7491  -36.1156 H   0  0  0  0  0  0  0  0  0  0  0  0
  -12.9657   14.0463  -40.4319 H   0  0  0  0  0  0  0  0  0  0  0  0
  -10.8722   15.4559  -39.9784 H   0  0  0  0  0  0  0  0  0  0  0  0
   -8.2017   14.0853  -35.0797 H   0  0  0  0  0  0  0  0  0  0  0  0
   -8.7914   12.4308  -35.3566 H   0  0  0  0  0  0  0  0  0  0  0  0
   -7.2404   12.7203  -34.5389 H   0  0  0  0  0  0  0  0  0  0  0  0
   -6.2347   11.6023  -38.0157 H   0  0  0  0  0  0  0  0  0  0  0  0
   -7.6318   10.9729  -37.1607 H   0  0  0  0  0  0  0  0  0  0  0  0
   -6.0958   11.1888  -36.2925 H   0  0  0  0  0  0  0  0  0  0  0  0
   -5.4405   13.9587  -37.6321 H   0  0  0  0  0  0  0  0  0  0  0  0
   -6.2472   15.0063  -36.4451 H   0  0  0  0  0  0  0  0  0  0  0  0
   -5.2318   13.6449  -35.9180 H   0  0  0  0  0  0  0  0  0  0  0  0
  -10.3538   12.9504  -37.9294 H   0  0  0  0  0  0  0  0  0  0  0  0
  1 14  1  0  0  0  0
  1 15  2  0  0  0  0
  1 17  1  0  0  0  0
  2  3  1  0  0  0  0
  2  5  1  0  0  0  0
  3  6  1  0  0  0  0
  4  5  1  0  0  0  0
  4  7  1  0  0  0  0
  5  8  1  0  0  0  0
  6  7  1  0  0  0  0
  6  9  1  0  0  0  0
  7 14  1  0  0  0  0
  8  9  1  0  0  0  0
  8 16  1  0  0  0  0
  9 16  1  0  0  0  0
 10 13  1  0  0  0  0
 11 13  1  0  0  0  0
 12 13  1  0  0  0  0
 13 17  1  0  0  0  0
  2 18  1  0  0  0  0
  2 19  1  0  0  0  0
  3 20  1  0  0  0  0
  3 21  1  0  0  0  0
  4 22  1  0  0  0  0
  4 23  1  0  0  0  0
  5 24  1  0  0  0  0
  6 25  1  0  0  0  0
  7 26  1  0  0  0  0
  8 27  1  0  0  0  0
  9 28  1  0  0  0  0
 10 29  1  0  0  0  0
 10 30  1  0  0  0  0
 10 31  1  0  0  0  0
 11 32  1  0  0  0  0
 11 33  1  0  0  0  0
 11 34  1  0  0  0  0
 12 35  1  0  0  0  0
 12 36  1  0  0  0  0
 12 37  1  0  0  0  0
 14 38  1  0  0  0  0
M  END
> <id>
EN300-1708415

> <smiles>
CC(C)(C)OC(=O)NC1CC2CCC1C3OC32

> <IUPAC Name>
tert-butyl N-{3-oxatricyclo[3.2.2.0,2,4]nonan-6-yl}carbamate

> <CAS>
2219374-88-4

> <URL>
https://www.enaminestore.com/catalog/EN300-1708415

> <ROCS_ShapeQuery>
_x1247relevant_x1083L0AP1_x1305L0BP1_

> <ROCS_TanimotoCombo>
0.845 

> <ROCS_ShapeTanimoto>
0.462 

> <ROCS_ColorTanimoto>
0.383 

> <ROCS_RefTversky>
0.410 

> <ROCS_RefColorTversky>
0.537 

> <ROCS_RefTverskyCombo>
0.946 

> <ROCS_FitTversky>
1.381 

> <ROCS_FitColorTversky>
0.572 

> <ROCS_FitTverskyCombo>
1.953 

> <ROCS_ColorScore>
-11.686

> <ROCS_Overlap>
1208.026

> <ROCS_Rank>
155                 

$$$$
untitled-dbase-57179_4
  -OEChem-06232314393D

 24 26  0     1  0  0  0  0  0999 V2000
   -9.7060   14.2296  -35.9639 C   0  0  0  0  0  0  0  0  0  0  0  0
   -9.0563   14.2076  -37.2145 C   0  0  0  0  0  0  0  0  0  0  0  0
  -11.0379   14.6365  -35.8521 C   0  0  0  0  0  0  0  0  0  0  0  0
   -9.7243   14.5919  -38.3807 C   0  0  0  0  0  0  0  0  0  0  0  0
  -11.6794   15.0198  -37.0086 C   0  0  0  0  0  0  0  0  0  0  0  0
  -11.0345   14.9985  -38.2551 C   0  0  0  0  0  0  0  0  0  0  0  0
  -11.5867   16.0970  -40.4823 C   0  0  0  0  0  0  0  0  0  0  0  0
  -13.8544   14.3939  -38.0275 C   0  0  0  0  0  0  0  0  0  0  0  0
  -13.1422   14.3592  -39.4023 C   0  0  0  0  0  0  0  0  0  0  0  0
  -13.0769   15.4822  -37.2797 C   0  0  2  0  0  0  0  0  0  0  0  0
  -12.0715   15.4446  -39.2400 C   0  0  1  0  0  0  0  0  0  0  0  0
  -10.5173   15.8643  -41.0259 O   0  0  0  0  0  0  0  0  0  0  0  0
  -12.7854   16.3836  -38.3921 O   0  0  0  0  0  0  0  0  0  0  0  0
  -12.4944   16.9953  -40.9369 O   0  0  0  0  0  0  0  0  0  0  0  0
   -9.1619   13.9208  -35.0750 H   0  0  0  0  0  0  0  0  0  0  0  0
   -8.0207   13.8820  -37.2712 H   0  0  0  0  0  0  0  0  0  0  0  0
  -11.5406   14.6464  -34.8923 H   0  0  0  0  0  0  0  0  0  0  0  0
   -9.2248   14.5641  -39.3419 H   0  0  0  0  0  0  0  0  0  0  0  0
  -14.8980   14.6957  -38.1710 H   0  0  0  0  0  0  0  0  0  0  0  0
  -13.8359   13.4238  -37.5210 H   0  0  0  0  0  0  0  0  0  0  0  0
  -12.7207   13.3727  -39.6244 H   0  0  0  0  0  0  0  0  0  0  0  0
  -13.8559   14.6108  -40.1954 H   0  0  0  0  0  0  0  0  0  0  0  0
  -13.5858   15.9949  -36.4621 H   0  0  0  0  0  0  0  0  0  0  0  0
  -12.1912   17.4392  -41.7575 H   0  0  0  0  0  0  0  0  0  0  0  0
  1  2  2  0  0  0  0
  1  3  1  0  0  0  0
  2  4  1  0  0  0  0
  3  5  2  0  0  0  0
  4  6  2  0  0  0  0
  5  6  1  0  0  0  0
  5 10  1  0  0  0  0
  6 11  1  0  0  0  0
  7 11  1  0  0  0  0
  7 12  2  0  0  0  0
  7 14  1  0  0  0  0
  8  9  1  0  0  0  0
  8 10  1  0  0  0  0
  9 11  1  0  0  0  0
 10 13  1  0  0  0  0
 11 13  1  0  0  0  0
  1 15  1  0  0  0  0
  2 16  1  0  0  0  0
  3 17  1  0  0  0  0
  4 18  1  0  0  0  0
  8 19  1  0  0  0  0
  8 20  1  0  0  0  0
  9 21  1  0  0  0  0
  9 22  1  0  0  0  0
 10 23  1  0  0  0  0
 14 24  1  0  0  0  0
M  END
> <id>
EN300-25406228

> <smiles>
OC(=O)C1(CCC2O1)C=3C=CC=CC23

> <MDLNUMBER>
MFCD20660900

> <IUPAC Name>
11-oxatricyclo[6.2.1.0,2,7]undeca-2,4,6-triene-1-carboxylic acid

> <CAS>
1244954-16-2

> <Purity>
95

> <URL>
https://www.enaminestore.com/catalog/EN300-25406228

> <MP>
145-147

> <ROCS_ShapeQuery>
_x1247relevant_x1083L0AP1_x1305L0BP1_

> <ROCS_TanimotoCombo>
0.844 

> <ROCS_ShapeTanimoto>
0.501 

> <ROCS_ColorTanimoto>
0.343 

> <ROCS_RefTversky>
0.423 

> <ROCS_RefColorTversky>
0.399 

> <ROCS_RefTverskyCombo>
0.821 

> <ROCS_FitTversky>
1.591 

> <ROCS_FitColorTversky>
0.711 

> <ROCS_FitTverskyCombo>
2.301 

> <ROCS_ColorScore>
-8.505

> <ROCS_Overlap>
1244.589

> <ROCS_Rank>
156                 

$$$$
untitled-dbase-101670_9
  -OEChem-06232314393D

 37 38  0     0  0  0  0  0  0999 V2000
   -9.9885   13.6899  -36.4181 C   0  0  0  0  0  0  0  0  0  0  0  0
  -11.3183   16.0896  -37.9043 C   0  0  0  0  0  0  0  0  0  0  0  0
  -13.0027   14.4994  -36.9272 C   0  0  0  0  0  0  0  0  0  0  0  0
  -12.4394   16.7879  -38.6884 C   0  0  0  0  0  0  0  0  0  0  0  0
  -14.1176   15.2007  -37.7171 C   0  0  0  0  0  0  0  0  0  0  0  0
  -12.4399   14.4644  -39.2475 C   0  0  0  0  0  0  0  0  0  0  0  0
  -11.7853   14.6166  -37.8719 C   0  0  0  0  0  0  0  0  0  0  0  0
  -13.3999   15.6307  -39.0053 C   0  0  0  0  0  0  0  0  0  0  0  0
   -9.9702   11.5685  -34.5078 C   0  0  0  0  0  0  0  0  0  0  0  0
   -7.6945   11.0178  -35.4173 C   0  0  0  0  0  0  0  0  0  0  0  0
   -8.0979   13.2399  -34.3185 C   0  0  0  0  0  0  0  0  0  0  0  0
   -8.7120   12.1292  -35.1693 C   0  0  0  0  0  0  0  0  0  0  0  0
  -10.7432   13.6865  -37.5848 N   0  0  0  0  0  0  0  0  0  0  0  0
  -10.1213   14.4862  -35.4946 O   0  0  0  0  0  0  0  0  0  0  0  0
  -14.2665   15.9146  -40.0679 O   0  0  0  0  0  0  0  0  0  0  0  0
   -9.0721   12.6765  -36.4428 O   0  0  0  0  0  0  0  0  0  0  0  0
  -10.3695   16.1981  -38.4431 H   0  0  0  0  0  0  0  0  0  0  0  0
  -11.1945   16.5141  -36.9025 H   0  0  0  0  0  0  0  0  0  0  0  0
  -12.8290   14.9736  -35.9557 H   0  0  0  0  0  0  0  0  0  0  0  0
  -13.2772   13.4520  -36.7539 H   0  0  0  0  0  0  0  0  0  0  0  0
  -12.9199   17.5821  -38.1073 H   0  0  0  0  0  0  0  0  0  0  0  0
  -12.0501   17.2465  -39.6049 H   0  0  0  0  0  0  0  0  0  0  0  0
  -14.9420   14.5096  -37.9282 H   0  0  0  0  0  0  0  0  0  0  0  0
  -14.5407   16.0509  -37.1717 H   0  0  0  0  0  0  0  0  0  0  0  0
  -11.7636   14.6378  -40.0923 H   0  0  0  0  0  0  0  0  0  0  0  0
  -12.9574   13.5103  -39.3996 H   0  0  0  0  0  0  0  0  0  0  0  0
  -10.7031   12.3632  -34.3282 H   0  0  0  0  0  0  0  0  0  0  0  0
  -10.4398   10.7953  -35.1246 H   0  0  0  0  0  0  0  0  0  0  0  0
   -9.7371   11.1357  -33.5282 H   0  0  0  0  0  0  0  0  0  0  0  0
   -6.7902   11.4155  -35.8919 H   0  0  0  0  0  0  0  0  0  0  0  0
   -8.0981   10.2652  -36.1044 H   0  0  0  0  0  0  0  0  0  0  0  0
   -7.4066   10.5185  -34.4865 H   0  0  0  0  0  0  0  0  0  0  0  0
   -7.1955   13.6422  -34.7928 H   0  0  0  0  0  0  0  0  0  0  0  0
   -8.8020   14.0634  -34.1611 H   0  0  0  0  0  0  0  0  0  0  0  0
   -7.7878   12.8551  -33.3403 H   0  0  0  0  0  0  0  0  0  0  0  0
  -10.5372   12.9682  -38.2853 H   0  0  0  0  0  0  0  0  0  0  0  0
  -14.7957   16.6989  -39.8236 H   0  0  0  0  0  0  0  0  0  0  0  0
  1 13  1  0  0  0  0
  1 14  2  0  0  0  0
  1 16  1  0  0  0  0
  2  4  1  0  0  0  0
  2  7  1  0  0  0  0
  3  5  1  0  0  0  0
  3  7  1  0  0  0  0
  4  8  1  0  0  0  0
  5  8  1  0  0  0  0
  6  7  1  0  0  0  0
  6  8  1  0  0  0  0
  7 13  1  0  0  0  0
  8 15  1  0  0  0  0
  9 12  1  0  0  0  0
 10 12  1  0  0  0  0
 11 12  1  0  0  0  0
 12 16  1  0  0  0  0
  2 17  1  0  0  0  0
  2 18  1  0  0  0  0
  3 19  1  0  0  0  0
  3 20  1  0  0  0  0
  4 21  1  0  0  0  0
  4 22  1  0  0  0  0
  5 23  1  0  0  0  0
  5 24  1  0  0  0  0
  6 25  1  0  0  0  0
  6 26  1  0  0  0  0
  9 27  1  0  0  0  0
  9 28  1  0  0  0  0
  9 29  1  0  0  0  0
 10 30  1  0  0  0  0
 10 31  1  0  0  0  0
 10 32  1  0  0  0  0
 11 33  1  0  0  0  0
 11 34  1  0  0  0  0
 11 35  1  0  0  0  0
 13 36  1  0  0  0  0
 15 37  1  0  0  0  0
M  END
> <id>
EN300-23002517

> <smiles>
CC(C)(C)OC(=O)NC1(CCC2(O)CC1)C2

> <MDLNUMBER>
MFCD31697797

> <IUPAC Name>
tert-butyl N-{4-hydroxybicyclo[2.2.1]heptan-1-yl}carbamate

> <CAS>
2231676-44-9

> <URL>
https://www.enaminestore.com/catalog/EN300-23002517

> <ROCS_ShapeQuery>
_x1247relevant_x1083L0AP1_x1305L0BP1_

> <ROCS_TanimotoCombo>
0.844 

> <ROCS_ShapeTanimoto>
0.438 

> <ROCS_ColorTanimoto>
0.406 

> <ROCS_RefTversky>
0.390 

> <ROCS_RefColorTversky>
0.449 

> <ROCS_RefTverskyCombo>
0.840 

> <ROCS_FitTversky>
1.389 

> <ROCS_FitColorTversky>
0.809 

> <ROCS_FitTverskyCombo>
2.198 

> <ROCS_ColorScore>
-9.580

> <ROCS_Overlap>
1150.129

> <ROCS_Rank>
157                 

$$$$
untitled-dbase-177426_3
  -OEChem-06232314393D

 28 31  0     1  0  0  0  0  0999 V2000
  -13.7752   14.7693  -37.6306 C   0  0  0  0  0  0  0  0  0  0  0  0
  -10.2787   16.0744  -37.0220 C   0  0  0  0  0  0  0  0  0  0  0  0
  -10.1202   13.9673  -38.1760 C   0  0  0  0  0  0  0  0  0  0  0  0
  -12.9006   16.0417  -37.4838 C   0  0  1  0  0  0  0  0  0  0  0  0
  -12.7523   14.0708  -38.5639 C   0  0  2  0  0  0  0  0  0  0  0  0
  -11.6371   15.3975  -36.8589 C   0  0  1  0  0  0  0  0  0  0  0  0
  -11.5346   14.0341  -37.6059 C   0  0  2  0  0  0  0  0  0  0  0  0
   -9.3045   14.9194  -37.2912 C   0  0  0  0  0  0  0  0  0  0  0  0
  -12.6323   16.4203  -38.9332 C   0  0  1  0  0  0  0  0  0  0  0  0
  -12.5341   15.1169  -39.6474 C   0  0  2  0  0  0  0  0  0  0  0  0
   -8.8337   14.2484  -36.0014 C   0  0  0  0  0  0  0  0  0  0  0  0
  -13.6047   16.0318  -39.9112 O   0  0  0  0  0  0  0  0  0  0  0  0
   -7.7208   12.9174  -36.3714 Cl  0  0  0  0  0  0  0  0  0  0  0  0
  -13.9417   14.2393  -36.6863 H   0  0  0  0  0  0  0  0  0  0  0  0
  -14.7418   14.9588  -38.1091 H   0  0  0  0  0  0  0  0  0  0  0  0
  -10.2667   16.8213  -37.8120 H   0  0  0  0  0  0  0  0  0  0  0  0
  -10.0160   16.5683  -36.0851 H   0  0  0  0  0  0  0  0  0  0  0  0
   -9.7438   12.9486  -38.0680 H   0  0  0  0  0  0  0  0  0  0  0  0
  -10.0722   14.2346  -39.2288 H   0  0  0  0  0  0  0  0  0  0  0  0
  -13.3463   16.8400  -36.8925 H   0  0  0  0  0  0  0  0  0  0  0  0
  -13.0646   13.0992  -38.9427 H   0  0  0  0  0  0  0  0  0  0  0  0
  -11.8273   15.2160  -35.7874 H   0  0  0  0  0  0  0  0  0  0  0  0
  -11.6768   13.2095  -36.8865 H   0  0  0  0  0  0  0  0  0  0  0  0
   -8.4372   15.2767  -37.8241 H   0  0  0  0  0  0  0  0  0  0  0  0
  -11.9610   17.2362  -39.1325 H   0  0  0  0  0  0  0  0  0  0  0  0
  -11.7849   14.9293  -40.3955 H   0  0  0  0  0  0  0  0  0  0  0  0
   -9.6837   13.8412  -35.4521 H   0  0  0  0  0  0  0  0  0  0  0  0
   -8.3105   14.9661  -35.3681 H   0  0  0  0  0  0  0  0  0  0  0  0
  1  4  1  0  0  0  0
  1  5  1  0  0  0  0
  2  6  1  6  0  0  0
  2  8  1  0  0  0  0
  3  7  1  6  0  0  0
  3  8  1  0  0  0  0
  4  6  1  0  0  0  0
  4  9  1  6  0  0  0
  5  7  1  0  0  0  0
  5 10  1  6  0  0  0
  6  7  1  0  0  0  0
  8 11  1  0  0  0  0
  9 10  1  0  0  0  0
  9 12  1  0  0  0  0
 10 12  1  0  0  0  0
 11 13  1  0  0  0  0
  1 14  1  0  0  0  0
  1 15  1  0  0  0  0
  2 16  1  0  0  0  0
  2 17  1  0  0  0  0
  3 18  1  0  0  0  0
  3 19  1  0  0  0  0
  4 20  1  0  0  0  0
  5 21  1  0  0  0  0
  6 22  1  0  0  0  0
  7 23  1  0  0  0  0
  8 24  1  0  0  0  0
  9 25  1  0  0  0  0
 10 26  1  0  0  0  0
 11 27  1  0  0  0  0
 11 28  1  0  0  0  0
M  END
> <id>
EN300-45217086

> <smiles>
ClCC1C[C@H]2[C@@H]3C[C@@H](C4OC43)[C@H]2C1

> <IUPAC Name>
(1R,2S,6R,7S)-4-(chloromethyl)-9-oxatetracyclo[5.3.1.0^{2,6}.0^{8,10}]undecane

> <URL>
https://www.enaminestore.com/catalog/EN300-45217086

> <ROCS_ShapeQuery>
_x1247relevant_x1083L0AP1_x1305L0BP1_

> <ROCS_TanimotoCombo>
0.844 

> <ROCS_ShapeTanimoto>
0.477 

> <ROCS_ColorTanimoto>
0.367 

> <ROCS_RefTversky>
0.401 

> <ROCS_RefColorTversky>
0.509 

> <ROCS_RefTverskyCombo>
0.910 

> <ROCS_FitTversky>
1.661 

> <ROCS_FitColorTversky>
0.569 

> <ROCS_FitTverskyCombo>
2.230 

> <ROCS_ColorScore>
-11.061

> <ROCS_Overlap>
1179.051

> <ROCS_Rank>
158                 

$$$$
untitled-dbase-177012_39
  -OEChem-06232314393D

 37 38  0     1  0  0  0  0  0999 V2000
   -9.8185   15.5223  -36.5888 C   0  0  0  0  0  0  0  0  0  0  0  0
  -13.2473   16.4165  -39.3450 C   0  0  0  0  0  0  0  0  0  0  0  0
  -14.0387   16.1657  -38.0727 C   0  0  0  0  0  0  0  0  0  0  0  0
  -10.9781   15.4017  -38.7968 C   0  0  0  0  0  0  0  0  0  0  0  0
  -12.2682   15.0434  -36.6313 C   0  0  0  0  0  0  0  0  0  0  0  0
  -12.3462   15.1914  -39.4717 C   0  0  1  0  0  0  0  0  0  0  0  0
  -13.4878   14.8438  -37.5512 C   0  0  2  0  0  0  0  0  0  0  0  0
  -10.9223   14.8514  -37.3576 C   0  0  0  0  0  0  0  0  0  0  0  0
   -8.1461   16.7411  -34.6358 C   0  0  0  0  0  0  0  0  0  0  0  0
   -9.6210   15.6186  -32.9406 C   0  0  0  0  0  0  0  0  0  0  0  0
   -8.2916   14.2297  -34.5566 C   0  0  0  0  0  0  0  0  0  0  0  0
   -9.0493   15.5411  -34.3545 C   0  0  0  0  0  0  0  0  0  0  0  0
  -10.5845   13.4233  -37.3914 N   0  0  0  0  0  0  0  0  0  0  0  0
   -8.7890   15.9457  -37.0967 O   0  0  0  0  0  0  0  0  0  0  0  0
  -13.0664   14.1749  -38.7528 O   0  0  0  0  0  0  0  0  0  0  0  0
  -10.1508   15.5763  -35.2675 O   0  0  0  0  0  0  0  0  0  0  0  0
  -13.9412   16.4527  -40.1938 H   0  0  0  0  0  0  0  0  0  0  0  0
  -12.6958   17.3610  -39.3439 H   0  0  0  0  0  0  0  0  0  0  0  0
  -13.9749   16.9799  -37.3460 H   0  0  0  0  0  0  0  0  0  0  0  0
  -15.0983   16.0483  -38.3298 H   0  0  0  0  0  0  0  0  0  0  0  0
  -10.2385   14.8652  -39.4083 H   0  0  0  0  0  0  0  0  0  0  0  0
  -10.7080   16.4647  -38.8325 H   0  0  0  0  0  0  0  0  0  0  0  0
  -12.3288   16.0266  -36.1468 H   0  0  0  0  0  0  0  0  0  0  0  0
  -12.3506   14.2911  -35.8331 H   0  0  0  0  0  0  0  0  0  0  0  0
  -12.2157   14.8959  -40.5122 H   0  0  0  0  0  0  0  0  0  0  0  0
  -14.2563   14.2611  -37.0454 H   0  0  0  0  0  0  0  0  0  0  0  0
   -7.7337   16.6892  -35.6498 H   0  0  0  0  0  0  0  0  0  0  0  0
   -8.6869   17.6870  -34.5284 H   0  0  0  0  0  0  0  0  0  0  0  0
   -7.2884   16.7534  -33.9535 H   0  0  0  0  0  0  0  0  0  0  0  0
  -10.2697   14.7596  -32.7344 H   0  0  0  0  0  0  0  0  0  0  0  0
  -10.2444   16.5120  -32.8200 H   0  0  0  0  0  0  0  0  0  0  0  0
   -8.8289   15.6440  -32.1853 H   0  0  0  0  0  0  0  0  0  0  0  0
   -8.9392   13.3688  -34.3550 H   0  0  0  0  0  0  0  0  0  0  0  0
   -7.9056   14.1401  -35.5772 H   0  0  0  0  0  0  0  0  0  0  0  0
   -7.4503   14.1541  -33.8582 H   0  0  0  0  0  0  0  0  0  0  0  0
   -9.7086   13.3280  -37.8444 H   0  0  0  0  0  0  0  0  0  0  0  0
  -10.5376   13.0996  -36.4562 H   0  0  0  0  0  0  0  0  0  0  0  0
  1  8  1  0  0  0  0
  1 14  2  0  0  0  0
  1 16  1  0  0  0  0
  2  3  1  0  0  0  0
  2  6  1  0  0  0  0
  3  7  1  0  0  0  0
  4  6  1  0  0  0  0
  4  8  1  0  0  0  0
  5  7  1  0  0  0  0
  5  8  1  0  0  0  0
  6 15  1  0  0  0  0
  7 15  1  0  0  0  0
  8 13  1  0  0  0  0
  9 12  1  0  0  0  0
 10 12  1  0  0  0  0
 11 12  1  0  0  0  0
 12 16  1  0  0  0  0
  2 17  1  0  0  0  0
  2 18  1  0  0  0  0
  3 19  1  0  0  0  0
  3 20  1  0  0  0  0
  4 21  1  0  0  0  0
  4 22  1  0  0  0  0
  5 23  1  0  0  0  0
  5 24  1  0  0  0  0
  6 25  1  0  0  0  0
  7 26  1  0  0  0  0
  9 27  1  0  0  0  0
  9 28  1  0  0  0  0
  9 29  1  0  0  0  0
 10 30  1  0  0  0  0
 10 31  1  0  0  0  0
 10 32  1  0  0  0  0
 11 33  1  0  0  0  0
 11 34  1  0  0  0  0
 11 35  1  0  0  0  0
 13 36  1  0  0  0  0
 13 37  1  0  0  0  0
M  END
> <id>
EN300-22888281

> <smiles>
CC(C)(C)OC(=O)C1(N)CC2CCC(C1)O2

> <MDLNUMBER>
MFCD31654903

> <IUPAC Name>
tert-butyl 3-amino-8-oxabicyclo[3.2.1]octane-3-carboxylate

> <URL>
https://www.enaminestore.com/catalog/EN300-22888281

> <ROCS_ShapeQuery>
_x1247relevant_x1083L0AP1_x1305L0BP1_

> <ROCS_TanimotoCombo>
0.844 

> <ROCS_ShapeTanimoto>
0.446 

> <ROCS_ColorTanimoto>
0.398 

> <ROCS_RefTversky>
0.395 

> <ROCS_RefColorTversky>
0.437 

> <ROCS_RefTverskyCombo>
0.832 

> <ROCS_FitTversky>
1.404 

> <ROCS_FitColorTversky>
0.819 

> <ROCS_FitTverskyCombo>
2.223 

> <ROCS_ColorScore>
-9.300

> <ROCS_Overlap>
1164.893

> <ROCS_Rank>
159                 

$$$$
untitled-dbase-172214_46
  -OEChem-06232314393D

 40 41  0     1  0  0  0  0  0999 V2000
   -9.6882   14.8433  -37.1745 C   0  0  0  0  0  0  0  0  0  0  0  0
  -13.7610   15.0136  -37.0684 C   0  0  0  0  0  0  0  0  0  0  0  0
  -13.4196   16.4430  -37.5338 C   0  0  0  0  0  0  0  0  0  0  0  0
  -11.7883   13.7027  -37.9664 C   0  0  0  0  0  0  0  0  0  0  0  0
  -11.2128   16.0275  -38.7219 C   0  0  0  0  0  0  0  0  0  0  0  0
  -13.2558   14.0876  -38.1897 C   0  0  2  0  0  0  0  0  0  0  0  0
  -12.7285   16.2679  -38.9047 C   0  0  1  0  0  0  0  0  0  0  0  0
  -13.3811   14.9847  -39.4090 C   0  0  0  0  0  0  0  0  0  0  0  0
  -10.1346   14.7148  -34.5925 C   0  0  0  0  0  0  0  0  0  0  0  0
   -9.7561   12.2338  -34.6968 C   0  0  0  0  0  0  0  0  0  0  0  0
   -7.8028   13.8047  -34.8559 C   0  0  0  0  0  0  0  0  0  0  0  0
  -12.9641   17.4552  -39.8323 C   0  0  0  0  0  0  0  0  0  0  0  0
   -9.2795   13.5983  -35.1901 C   0  0  0  0  0  0  0  0  0  0  0  0
  -10.9031   14.8727  -37.8711 N   0  0  0  0  0  0  0  0  0  0  0  0
   -8.9245   15.8020  -37.0747 O   0  0  0  0  0  0  0  0  0  0  0  0
  -12.2892   17.2145  -41.0537 O   0  0  0  0  0  0  0  0  0  0  0  0
   -9.4321   13.6198  -36.6139 O   0  0  0  0  0  0  0  0  0  0  0  0
  -12.7867   14.4782  -40.5018 F   0  0  0  0  0  0  0  0  0  0  0  0
  -14.6862   15.1837  -39.7070 F   0  0  0  0  0  0  0  0  0  0  0  0
  -13.3145   14.7829  -36.0956 H   0  0  0  0  0  0  0  0  0  0  0  0
  -14.8482   14.9183  -36.9620 H   0  0  0  0  0  0  0  0  0  0  0  0
  -14.3462   17.0229  -37.6241 H   0  0  0  0  0  0  0  0  0  0  0  0
  -12.7817   16.9594  -36.8083 H   0  0  0  0  0  0  0  0  0  0  0  0
  -11.7003   13.0948  -37.0599 H   0  0  0  0  0  0  0  0  0  0  0  0
  -11.4220   13.0954  -38.8026 H   0  0  0  0  0  0  0  0  0  0  0  0
  -10.7369   15.8344  -39.6918 H   0  0  0  0  0  0  0  0  0  0  0  0
  -10.7325   16.9205  -38.3043 H   0  0  0  0  0  0  0  0  0  0  0  0
  -13.8745   13.1887  -38.2723 H   0  0  0  0  0  0  0  0  0  0  0  0
   -9.7956   15.6958  -34.9442 H   0  0  0  0  0  0  0  0  0  0  0  0
  -11.1912   14.5976  -34.8542 H   0  0  0  0  0  0  0  0  0  0  0  0
  -10.0483   14.7313  -33.5000 H   0  0  0  0  0  0  0  0  0  0  0  0
   -9.1453   11.4298  -35.1231 H   0  0  0  0  0  0  0  0  0  0  0  0
  -10.7866   12.0413  -35.0166 H   0  0  0  0  0  0  0  0  0  0  0  0
   -9.7124   12.1609  -33.6053 H   0  0  0  0  0  0  0  0  0  0  0  0
   -7.1893   13.0040  -35.2844 H   0  0  0  0  0  0  0  0  0  0  0  0
   -7.4337   14.7633  -35.2348 H   0  0  0  0  0  0  0  0  0  0  0  0
   -7.6403   13.7726  -33.7725 H   0  0  0  0  0  0  0  0  0  0  0  0
  -12.5729   18.3659  -39.3783 H   0  0  0  0  0  0  0  0  0  0  0  0
  -14.0306   17.5704  -40.0268 H   0  0  0  0  0  0  0  0  0  0  0  0
  -12.4537   17.9826  -41.6268 H   0  0  0  0  0  0  0  0  0  0  0  0
  1 14  1  0  0  0  0
  1 15  2  0  0  0  0
  1 17  1  0  0  0  0
  2  3  1  0  0  0  0
  2  6  1  0  0  0  0
  3  7  1  0  0  0  0
  4  6  1  0  0  0  0
  4 14  1  0  0  0  0
  5  7  1  0  0  0  0
  5 14  1  0  0  0  0
  6  8  1  0  0  0  0
  7  8  1  0  0  0  0
  7 12  1  0  0  0  0
  8 18  1  0  0  0  0
  8 19  1  0  0  0  0
  9 13  1  0  0  0  0
 10 13  1  0  0  0  0
 11 13  1  0  0  0  0
 12 16  1  0  0  0  0
 13 17  1  0  0  0  0
  2 20  1  0  0  0  0
  2 21  1  0  0  0  0
  3 22  1  0  0  0  0
  3 23  1  0  0  0  0
  4 24  1  0  0  0  0
  4 25  1  0  0  0  0
  5 26  1  0  0  0  0
  5 27  1  0  0  0  0
  6 28  1  0  0  0  0
  9 29  1  0  0  0  0
  9 30  1  0  0  0  0
  9 31  1  0  0  0  0
 10 32  1  0  0  0  0
 10 33  1  0  0  0  0
 10 34  1  0  0  0  0
 11 35  1  0  0  0  0
 11 36  1  0  0  0  0
 11 37  1  0  0  0  0
 12 38  1  0  0  0  0
 12 39  1  0  0  0  0
 16 40  1  0  0  0  0
M  END
> <id>
EN300-3379026

> <smiles>
CC(C)(C)OC(=O)N1CC2CCC(CO)(C1)C2(F)F

> <MDLNUMBER>
MFCD22209815

> <IUPAC Name>
tert-butyl 8,8-difluoro-1-(hydroxymethyl)-3-azabicyclo[3.2.1]octane-3-carboxylate

> <CAS>
1373028-95-5

> <Purity>
95

> <URL>
https://www.enaminestore.com/catalog/EN300-3379026

> <ROCS_ShapeQuery>
_x1247relevant_x1083L0AP1_x1305L0BP1_

> <ROCS_TanimotoCombo>
0.844 

> <ROCS_ShapeTanimoto>
0.554 

> <ROCS_ColorTanimoto>
0.290 

> <ROCS_RefTversky>
0.473 

> <ROCS_RefColorTversky>
0.335 

> <ROCS_RefTverskyCombo>
0.808 

> <ROCS_FitTversky>
1.447 

> <ROCS_FitColorTversky>
0.684 

> <ROCS_FitTverskyCombo>
2.131 

> <ROCS_ColorScore>
-7.127

> <ROCS_Overlap>
1396.378

> <ROCS_Rank>
160                 

$$$$
untitled-dbase-94143_5
  -OEChem-06232314393D

 30 32  0     1  0  0  0  0  0999 V2000
  -10.0019   15.2631  -36.6508 C   0  0  0  0  0  0  0  0  0  0  0  0
  -14.0973   14.4203  -37.7368 C   0  0  0  0  0  0  0  0  0  0  0  0
  -11.6628   13.8161  -37.7948 C   0  0  0  0  0  0  0  0  0  0  0  0
  -12.4184   15.8815  -36.5804 C   0  0  0  0  0  0  0  0  0  0  0  0
  -12.8059   14.6227  -39.8756 C   0  0  0  0  0  0  0  0  0  0  0  0
  -13.5575   16.6866  -38.6632 C   0  0  0  0  0  0  0  0  0  0  0  0
  -11.1225   16.0862  -38.7212 C   0  0  0  0  0  0  0  0  0  0  0  0
  -12.9800   13.7956  -38.5913 C   0  0  2  0  0  0  0  0  0  0  0  0
  -13.7379   15.8718  -37.3724 C   0  0  1  0  0  0  0  0  0  0  0  0
  -11.2869   15.2658  -37.4280 C   0  0  0  0  0  0  0  0  0  0  0  0
  -12.4373   16.0745  -39.5213 C   0  0  0  0  0  0  0  0  0  0  0  0
   -8.9749   15.8314  -36.9908 O   0  0  0  0  0  0  0  0  0  0  0  0
  -10.1322   14.5381  -35.5129 O   0  0  0  0  0  0  0  0  0  0  0  0
  -12.2825   16.8190  -40.7208 O   0  0  0  0  0  0  0  0  0  0  0  0
  -15.0459   14.3971  -38.2871 H   0  0  0  0  0  0  0  0  0  0  0  0
  -14.2441   13.8306  -36.8236 H   0  0  0  0  0  0  0  0  0  0  0  0
  -11.7661   13.2071  -36.8870 H   0  0  0  0  0  0  0  0  0  0  0  0
  -10.8621   13.3520  -38.3857 H   0  0  0  0  0  0  0  0  0  0  0  0
  -12.1622   16.9096  -36.2927 H   0  0  0  0  0  0  0  0  0  0  0  0
  -12.5434   15.3229  -35.6435 H   0  0  0  0  0  0  0  0  0  0  0  0
  -12.0287   14.1813  -40.5128 H   0  0  0  0  0  0  0  0  0  0  0  0
  -13.7266   14.6018  -40.4731 H   0  0  0  0  0  0  0  0  0  0  0  0
  -14.4955   16.7154  -39.2327 H   0  0  0  0  0  0  0  0  0  0  0  0
  -13.3239   17.7325  -38.4252 H   0  0  0  0  0  0  0  0  0  0  0  0
  -10.8273   17.1194  -38.4915 H   0  0  0  0  0  0  0  0  0  0  0  0
  -10.3052   15.6879  -39.3381 H   0  0  0  0  0  0  0  0  0  0  0  0
  -13.2421   12.7632  -38.8474 H   0  0  0  0  0  0  0  0  0  0  0  0
  -14.5376   16.3104  -36.7655 H   0  0  0  0  0  0  0  0  0  0  0  0
   -9.3016   14.5226  -34.9913 H   0  0  0  0  0  0  0  0  0  0  0  0
  -12.0513   17.7258  -40.4610 H   0  0  0  0  0  0  0  0  0  0  0  0
  1 10  1  0  0  0  0
  1 12  2  0  0  0  0
  1 13  1  0  0  0  0
  2  8  1  0  0  0  0
  2  9  1  0  0  0  0
  3  8  1  0  0  0  0
  3 10  1  0  0  0  0
  4  9  1  0  0  0  0
  4 10  1  0  0  0  0
  5  8  1  0  0  0  0
  5 11  1  0  0  0  0
  6  9  1  0  0  0  0
  6 11  1  0  0  0  0
  7 10  1  0  0  0  0
  7 11  1  0  0  0  0
 11 14  1  0  0  0  0
  2 15  1  0  0  0  0
  2 16  1  0  0  0  0
  3 17  1  0  0  0  0
  3 18  1  0  0  0  0
  4 19  1  0  0  0  0
  4 20  1  0  0  0  0
  5 21  1  0  0  0  0
  5 22  1  0  0  0  0
  6 23  1  0  0  0  0
  6 24  1  0  0  0  0
  7 25  1  0  0  0  0
  7 26  1  0  0  0  0
  8 27  1  0  0  0  0
  9 28  1  0  0  0  0
 13 29  1  0  0  0  0
 14 30  1  0  0  0  0
M  END
> <id>
EN300-16717

> <smiles>
OC(=O)C1(CC2CC3CC(O)(C2)C1)C3

> <MDLNUMBER>
MFCD00193929

> <IUPAC Name>
3-hydroxyadamantane-1-carboxylic acid

> <CAS>
42711-75-1

> <Purity>
95

> <URL>
https://www.enaminestore.com/catalog/EN300-16717

> <MP>
200-205

> <ROCS_ShapeQuery>
_x1247relevant_x1083L0AP1_x1305L0BP1_

> <ROCS_TanimotoCombo>
0.844 

> <ROCS_ShapeTanimoto>
0.504 

> <ROCS_ColorTanimoto>
0.340 

> <ROCS_RefTversky>
0.422 

> <ROCS_RefColorTversky>
0.396 

> <ROCS_RefTverskyCombo>
0.818 

> <ROCS_FitTversky>
1.636 

> <ROCS_FitColorTversky>
0.704 

> <ROCS_FitTverskyCombo>
2.340 

> <ROCS_ColorScore>
-8.454

> <ROCS_Overlap>
1240.581

> <ROCS_Rank>
161                 

$$$$
untitled-dbase-55972_49
  -OEChem-06232314393D

 35 37  0     1  0  0  0  0  0999 V2000
   -9.6850   13.8310  -36.2213 C   0  0  0  0  0  0  0  0  0  0  0  0
  -11.6138   15.8359  -39.0959 C   0  0  0  0  0  0  0  0  0  0  0  0
  -12.0222   15.4368  -36.7937 C   0  0  0  0  0  0  0  0  0  0  0  0
  -12.5014   16.3499  -37.9474 C   0  0  2  0  0  0  0  0  0  0  0  0
  -12.1518   14.3962  -38.9781 C   0  0  1  0  0  0  0  0  0  0  0  0
  -11.8077   14.0681  -37.5015 C   0  0  1  0  0  0  0  0  0  0  0  0
  -13.8938   15.8861  -38.3447 C   0  0  2  0  0  0  0  0  0  0  0  0
  -13.6624   14.5848  -39.0392 C   0  0  1  0  0  0  0  0  0  0  0  0
   -7.3163   14.8386  -34.9870 C   0  0  0  0  0  0  0  0  0  0  0  0
   -6.0789   13.2652  -36.5044 C   0  0  0  0  0  0  0  0  0  0  0  0
   -7.4635   15.1177  -37.4840 C   0  0  0  0  0  0  0  0  0  0  0  0
   -7.3337   14.1190  -36.3348 C   0  0  0  0  0  0  0  0  0  0  0  0
  -10.4630   13.5837  -37.3369 N   0  0  0  0  0  0  0  0  0  0  0  0
  -10.0305   14.4836  -35.2418 O   0  0  0  0  0  0  0  0  0  0  0  0
  -14.1719   15.7241  -39.7386 O   0  0  0  0  0  0  0  0  0  0  0  0
   -8.4624   13.2382  -36.3666 O   0  0  0  0  0  0  0  0  0  0  0  0
  -11.8406   16.3034  -40.0599 H   0  0  0  0  0  0  0  0  0  0  0  0
  -10.5418   15.9305  -38.8960 H   0  0  0  0  0  0  0  0  0  0  0  0
  -11.0879   15.8188  -36.3655 H   0  0  0  0  0  0  0  0  0  0  0  0
  -12.7622   15.3573  -35.9903 H   0  0  0  0  0  0  0  0  0  0  0  0
  -12.4300   17.4192  -37.7422 H   0  0  0  0  0  0  0  0  0  0  0  0
  -11.7703   13.6882  -39.7167 H   0  0  0  0  0  0  0  0  0  0  0  0
  -12.4760   13.3048  -37.0877 H   0  0  0  0  0  0  0  0  0  0  0  0
  -14.6882   15.9936  -37.6257 H   0  0  0  0  0  0  0  0  0  0  0  0
  -14.2875   13.7322  -38.8337 H   0  0  0  0  0  0  0  0  0  0  0  0
   -8.2153   15.4525  -34.8614 H   0  0  0  0  0  0  0  0  0  0  0  0
   -7.2587   14.1316  -34.1529 H   0  0  0  0  0  0  0  0  0  0  0  0
   -6.4628   15.5229  -34.9201 H   0  0  0  0  0  0  0  0  0  0  0  0
   -6.0872   12.7470  -37.4702 H   0  0  0  0  0  0  0  0  0  0  0  0
   -6.0308   12.4851  -35.7360 H   0  0  0  0  0  0  0  0  0  0  0  0
   -5.1679   13.8692  -36.4428 H   0  0  0  0  0  0  0  0  0  0  0  0
   -7.4760   14.6018  -38.4509 H   0  0  0  0  0  0  0  0  0  0  0  0
   -8.3776   15.7141  -37.3987 H   0  0  0  0  0  0  0  0  0  0  0  0
   -6.6046   15.7981  -37.5077 H   0  0  0  0  0  0  0  0  0  0  0  0
  -10.0602   13.0254  -38.0870 H   0  0  0  0  0  0  0  0  0  0  0  0
  1 13  1  0  0  0  0
  1 14  2  0  0  0  0
  1 16  1  0  0  0  0
  2  4  1  0  0  0  0
  2  5  1  0  0  0  0
  3  4  1  0  0  0  0
  3  6  1  0  0  0  0
  4  7  1  0  0  0  0
  5  6  1  0  0  0  0
  5  8  1  0  0  0  0
  6 13  1  0  0  0  0
  7  8  1  0  0  0  0
  7 15  1  0  0  0  0
  8 15  1  0  0  0  0
  9 12  1  0  0  0  0
 10 12  1  0  0  0  0
 11 12  1  0  0  0  0
 12 16  1  0  0  0  0
  2 17  1  0  0  0  0
  2 18  1  0  0  0  0
  3 19  1  0  0  0  0
  3 20  1  0  0  0  0
  4 21  1  0  0  0  0
  5 22  1  0  0  0  0
  6 23  1  0  0  0  0
  7 24  1  0  0  0  0
  8 25  1  0  0  0  0
  9 26  1  0  0  0  0
  9 27  1  0  0  0  0
  9 28  1  0  0  0  0
 10 29  1  0  0  0  0
 10 30  1  0  0  0  0
 10 31  1  0  0  0  0
 11 32  1  0  0  0  0
 11 33  1  0  0  0  0
 11 34  1  0  0  0  0
 13 35  1  0  0  0  0
M  END
> <id>
EN300-1708416

> <smiles>
CC(C)(C)OC(=O)NC1CC2CC1C3OC32

> <MDLNUMBER>
MFCD32762801

> <IUPAC Name>
tert-butyl N-{3-oxatricyclo[3.2.1.0,2,4]octan-6-yl}carbamate

> <CAS>
2219408-55-4

> <URL>
https://www.enaminestore.com/catalog/EN300-1708416

> <ROCS_ShapeQuery>
_x1247relevant_x1083L0AP1_x1305L0BP1_

> <ROCS_TanimotoCombo>
0.844 

> <ROCS_ShapeTanimoto>
0.435 

> <ROCS_ColorTanimoto>
0.409 

> <ROCS_RefTversky>
0.389 

> <ROCS_RefColorTversky>
0.573 

> <ROCS_RefTverskyCombo>
0.962 

> <ROCS_FitTversky>
1.368 

> <ROCS_FitColorTversky>
0.588 

> <ROCS_FitTverskyCombo>
1.956 

> <ROCS_ColorScore>
-12.495

> <ROCS_Overlap>
1147.237

> <ROCS_Rank>
162                 

$$$$
untitled-dbase-87443_21
  -OEChem-06232314393D

 27 28  0     1  0  0  0  0  0999 V2000
   -9.8852   15.2397  -36.4781 C   0  0  0  0  0  0  0  0  0  0  0  0
  -13.1198   16.6652  -39.0621 C   0  0  0  0  0  0  0  0  0  0  0  0
  -13.9320   16.1774  -37.8607 C   0  0  0  0  0  0  0  0  0  0  0  0
  -13.1469   14.2853  -39.0727 C   0  0  0  0  0  0  0  0  0  0  0  0
  -10.9199   15.4557  -38.7364 C   0  0  0  0  0  0  0  0  0  0  0  0
  -12.2924   14.6312  -36.7080 C   0  0  0  0  0  0  0  0  0  0  0  0
  -12.2663   15.4595  -39.4900 C   0  0  2  0  0  0  0  0  0  0  0  0
  -13.5089   14.7135  -37.6534 C   0  0  1  0  0  0  0  0  0  0  0  0
  -10.9158   14.6593  -37.4112 C   0  0  0  0  0  0  0  0  0  0  0  0
  -10.4720   13.2833  -37.6703 N   0  0  0  0  0  0  0  0  0  0  0  0
   -8.8528   15.7917  -36.8285 O   0  0  0  0  0  0  0  0  0  0  0  0
  -10.2566   15.0648  -35.1863 O   0  0  0  0  0  0  0  0  0  0  0  0
  -13.8053   16.9396  -39.8734 H   0  0  0  0  0  0  0  0  0  0  0  0
  -12.5204   17.5521  -38.8371 H   0  0  0  0  0  0  0  0  0  0  0  0
  -13.7826   16.7935  -36.9693 H   0  0  0  0  0  0  0  0  0  0  0  0
  -15.0005   16.2224  -38.1051 H   0  0  0  0  0  0  0  0  0  0  0  0
  -14.0413   14.2250  -39.7022 H   0  0  0  0  0  0  0  0  0  0  0  0
  -12.6305   13.3226  -39.1140 H   0  0  0  0  0  0  0  0  0  0  0  0
  -10.1682   15.0289  -39.4217 H   0  0  0  0  0  0  0  0  0  0  0  0
  -10.6024   16.4971  -38.5653 H   0  0  0  0  0  0  0  0  0  0  0  0
  -12.3649   15.4385  -35.9609 H   0  0  0  0  0  0  0  0  0  0  0  0
  -12.3934   13.6932  -36.1359 H   0  0  0  0  0  0  0  0  0  0  0  0
  -12.0833   15.4816  -40.5678 H   0  0  0  0  0  0  0  0  0  0  0  0
  -14.3354   14.1296  -37.2394 H   0  0  0  0  0  0  0  0  0  0  0  0
  -11.1870   12.6706  -37.3635 H   0  0  0  0  0  0  0  0  0  0  0  0
  -10.3194   13.1924  -38.6447 H   0  0  0  0  0  0  0  0  0  0  0  0
   -9.5965   15.4349  -34.5620 H   0  0  0  0  0  0  0  0  0  0  0  0
  1  9  1  0  0  0  0
  1 11  2  0  0  0  0
  1 12  1  0  0  0  0
  2  3  1  0  0  0  0
  2  7  1  0  0  0  0
  3  8  1  0  0  0  0
  4  7  1  0  0  0  0
  4  8  1  0  0  0  0
  5  7  1  0  0  0  0
  5  9  1  0  0  0  0
  6  8  1  0  0  0  0
  6  9  1  0  0  0  0
  9 10  1  0  0  0  0
  2 13  1  0  0  0  0
  2 14  1  0  0  0  0
  3 15  1  0  0  0  0
  3 16  1  0  0  0  0
  4 17  1  0  0  0  0
  4 18  1  0  0  0  0
  5 19  1  0  0  0  0
  5 20  1  0  0  0  0
  6 21  1  0  0  0  0
  6 22  1  0  0  0  0
  7 23  1  0  0  0  0
  8 24  1  0  0  0  0
 10 25  1  0  0  0  0
 10 26  1  0  0  0  0
 12 27  1  0  0  0  0
M  END
> <id>
EN300-1708845

> <smiles>
Cl.NC1(CC2CCC(C2)C1)C(=O)O

> <MDLNUMBER>
MFCD31718948

> <IUPAC Name>
3-aminobicyclo[3.2.1]octane-3-carboxylic acid hydrochloride

> <CAS>
2248291-24-7

> <Purity>
95

> <URL>
https://www.enaminestore.com/catalog/EN300-1708845

> <Saltdate>
Cl

> <ROCS_ShapeQuery>
_x1247relevant_x1083L0AP1_x1305L0BP1_

> <ROCS_TanimotoCombo>
0.843 

> <ROCS_ShapeTanimoto>
0.462 

> <ROCS_ColorTanimoto>
0.382 

> <ROCS_RefTversky>
0.386 

> <ROCS_RefColorTversky>
0.422 

> <ROCS_RefTverskyCombo>
0.808 

> <ROCS_FitTversky>
1.737 

> <ROCS_FitColorTversky>
0.799 

> <ROCS_FitTverskyCombo>
2.536 

> <ROCS_ColorScore>
-8.989

> <ROCS_Overlap>
1134.492

> <ROCS_Rank>
163                 

$$$$
untitled-dbase-85463_21
  -OEChem-06232314393D

 27 28  0     1  0  0  0  0  0999 V2000
   -9.8852   15.2397  -36.4781 C   0  0  0  0  0  0  0  0  0  0  0  0
  -13.1198   16.6652  -39.0621 C   0  0  0  0  0  0  0  0  0  0  0  0
  -13.9320   16.1774  -37.8607 C   0  0  0  0  0  0  0  0  0  0  0  0
  -13.1469   14.2853  -39.0727 C   0  0  0  0  0  0  0  0  0  0  0  0
  -10.9199   15.4557  -38.7364 C   0  0  0  0  0  0  0  0  0  0  0  0
  -12.2924   14.6312  -36.7080 C   0  0  0  0  0  0  0  0  0  0  0  0
  -12.2663   15.4595  -39.4900 C   0  0  2  0  0  0  0  0  0  0  0  0
  -13.5089   14.7135  -37.6534 C   0  0  1  0  0  0  0  0  0  0  0  0
  -10.9158   14.6593  -37.4112 C   0  0  0  0  0  0  0  0  0  0  0  0
  -10.4720   13.2833  -37.6703 N   0  0  0  0  0  0  0  0  0  0  0  0
   -8.8528   15.7917  -36.8285 O   0  0  0  0  0  0  0  0  0  0  0  0
  -10.2566   15.0648  -35.1863 O   0  0  0  0  0  0  0  0  0  0  0  0
  -13.8053   16.9396  -39.8734 H   0  0  0  0  0  0  0  0  0  0  0  0
  -12.5204   17.5521  -38.8371 H   0  0  0  0  0  0  0  0  0  0  0  0
  -13.7826   16.7935  -36.9693 H   0  0  0  0  0  0  0  0  0  0  0  0
  -15.0005   16.2224  -38.1051 H   0  0  0  0  0  0  0  0  0  0  0  0
  -14.0413   14.2250  -39.7022 H   0  0  0  0  0  0  0  0  0  0  0  0
  -12.6305   13.3226  -39.1140 H   0  0  0  0  0  0  0  0  0  0  0  0
  -10.1682   15.0289  -39.4217 H   0  0  0  0  0  0  0  0  0  0  0  0
  -10.6024   16.4971  -38.5653 H   0  0  0  0  0  0  0  0  0  0  0  0
  -12.3649   15.4385  -35.9609 H   0  0  0  0  0  0  0  0  0  0  0  0
  -12.3934   13.6932  -36.1359 H   0  0  0  0  0  0  0  0  0  0  0  0
  -12.0833   15.4816  -40.5678 H   0  0  0  0  0  0  0  0  0  0  0  0
  -14.3354   14.1296  -37.2394 H   0  0  0  0  0  0  0  0  0  0  0  0
  -11.1870   12.6706  -37.3635 H   0  0  0  0  0  0  0  0  0  0  0  0
  -10.3194   13.1924  -38.6447 H   0  0  0  0  0  0  0  0  0  0  0  0
   -9.5965   15.4349  -34.5620 H   0  0  0  0  0  0  0  0  0  0  0  0
  1  9  1  0  0  0  0
  1 11  2  0  0  0  0
  1 12  1  0  0  0  0
  2  3  1  0  0  0  0
  2  7  1  0  0  0  0
  3  8  1  0  0  0  0
  4  7  1  0  0  0  0
  4  8  1  0  0  0  0
  5  7  1  0  0  0  0
  5  9  1  0  0  0  0
  6  8  1  0  0  0  0
  6  9  1  0  0  0  0
  9 10  1  0  0  0  0
  2 13  1  0  0  0  0
  2 14  1  0  0  0  0
  3 15  1  0  0  0  0
  3 16  1  0  0  0  0
  4 17  1  0  0  0  0
  4 18  1  0  0  0  0
  5 19  1  0  0  0  0
  5 20  1  0  0  0  0
  6 21  1  0  0  0  0
  6 22  1  0  0  0  0
  7 23  1  0  0  0  0
  8 24  1  0  0  0  0
 10 25  1  0  0  0  0
 10 26  1  0  0  0  0
 12 27  1  0  0  0  0
M  END
> <id>
EN300-1708846

> <smiles>
NC1(CC2CCC(C2)C1)C(=O)O

> <MDLNUMBER>
MFCD20658786

> <IUPAC Name>
3-aminobicyclo[3.2.1]octane-3-carboxylic acid

> <CAS>
1379191-71-5

> <URL>
https://www.enaminestore.com/catalog/EN300-1708846

> <ROCS_ShapeQuery>
_x1247relevant_x1083L0AP1_x1305L0BP1_

> <ROCS_TanimotoCombo>
0.843 

> <ROCS_ShapeTanimoto>
0.462 

> <ROCS_ColorTanimoto>
0.382 

> <ROCS_RefTversky>
0.386 

> <ROCS_RefColorTversky>
0.422 

> <ROCS_RefTverskyCombo>
0.808 

> <ROCS_FitTversky>
1.737 

> <ROCS_FitColorTversky>
0.799 

> <ROCS_FitTverskyCombo>
2.536 

> <ROCS_ColorScore>
-8.989

> <ROCS_Overlap>
1134.492

> <ROCS_Rank>
164                 

$$$$
untitled-dbase-153302_122
  -OEChem-06232314393D

 28 29  0     1  0  0  0  0  0999 V2000
  -12.0643   15.4828  -35.5678 C   0  0  0  0  0  0  0  0  0  0  0  0
   -9.6909   14.8540  -37.5150 C   0  0  0  0  0  0  0  0  0  0  0  0
  -13.2357   14.1324  -38.0456 C   0  0  0  0  0  0  0  0  0  0  0  0
  -11.9292   15.8492  -37.0147 C   0  0  2  0  0  0  0  0  0  0  0  0
  -13.2558   15.6514  -37.7744 C   0  0  1  0  0  0  0  0  0  0  0  0
  -11.8632   14.1847  -38.7125 C   0  0  1  0  0  0  0  0  0  0  0  0
  -13.0699   16.2199  -39.2016 C   0  0  1  0  0  0  0  0  0  0  0  0
  -12.1650   15.1620  -39.8732 C   0  0  1  0  0  0  0  0  0  0  0  0
   -9.0508   13.4953  -37.6342 C   0  0  0  0  0  0  0  0  0  0  0  0
  -11.0607   14.8910  -37.6934 N   0  0  0  0  0  0  0  0  0  0  0  0
  -13.0566   15.6821  -34.8830 O   0  0  0  0  0  0  0  0  0  0  0  0
   -9.0054   15.8426  -37.2473 O   0  0  0  0  0  0  0  0  0  0  0  0
  -10.9287   14.8981  -35.1140 O   0  0  0  0  0  0  0  0  0  0  0  0
  -14.3201   16.2715  -39.8760 O   0  0  0  0  0  0  0  0  0  0  0  0
  -10.9946   15.7515  -40.4060 O   0  0  0  0  0  0  0  0  0  0  0  0
  -13.2515   13.5210  -37.1382 H   0  0  0  0  0  0  0  0  0  0  0  0
  -14.0365   13.8005  -38.7150 H   0  0  0  0  0  0  0  0  0  0  0  0
  -11.5250   16.8634  -37.0897 H   0  0  0  0  0  0  0  0  0  0  0  0
  -14.1543   15.9913  -37.2538 H   0  0  0  0  0  0  0  0  0  0  0  0
  -11.4289   13.2342  -39.0239 H   0  0  0  0  0  0  0  0  0  0  0  0
  -12.6354   17.2256  -39.2010 H   0  0  0  0  0  0  0  0  0  0  0  0
  -12.6892   14.6442  -40.6863 H   0  0  0  0  0  0  0  0  0  0  0  0
   -8.7646   13.3261  -38.6673 H   0  0  0  0  0  0  0  0  0  0  0  0
   -9.7612   12.7376  -37.3181 H   0  0  0  0  0  0  0  0  0  0  0  0
   -8.1734   13.4578  -36.9960 H   0  0  0  0  0  0  0  0  0  0  0  0
  -10.9966   14.6522  -34.1668 H   0  0  0  0  0  0  0  0  0  0  0  0
  -14.1467   16.6332  -40.7602 H   0  0  0  0  0  0  0  0  0  0  0  0
  -10.5644   16.2390  -39.6824 H   0  0  0  0  0  0  0  0  0  0  0  0
  1  4  1  0  0  0  0
  1 11  2  0  0  0  0
  1 13  1  0  0  0  0
  2  9  1  0  0  0  0
  2 10  1  0  0  0  0
  2 12  2  0  0  0  0
  3  5  1  0  0  0  0
  3  6  1  0  0  0  0
  4  5  1  0  0  0  0
  4 10  1  0  0  0  0
  5  7  1  0  0  0  0
  6  8  1  0  0  0  0
  6 10  1  0  0  0  0
  7  8  1  0  0  0  0
  7 14  1  0  0  0  0
  8 15  1  0  0  0  0
  3 16  1  0  0  0  0
  3 17  1  0  0  0  0
  4 18  1  0  0  0  0
  5 19  1  0  0  0  0
  6 20  1  0  0  0  0
  7 21  1  0  0  0  0
  8 22  1  0  0  0  0
  9 23  1  0  0  0  0
  9 24  1  0  0  0  0
  9 25  1  0  0  0  0
 13 26  1  0  0  0  0
 14 27  1  0  0  0  0
 15 28  1  0  0  0  0
M  END
> <id>
EN300-28273493

> <smiles>
CC(=O)N1C(C2CC1C(O)C2O)C(=O)O

> <IUPAC Name>
2-acetyl-5,6-dihydroxy-2-azabicyclo[2.2.1]heptane-3-carboxylic acid

> <CAS>
2680612-87-5

> <URL>
https://www.enaminestore.com/catalog/EN300-28273493

> <ROCS_ShapeQuery>
_x1247relevant_x1083L0AP1_x1305L0BP1_

> <ROCS_TanimotoCombo>
0.843 

> <ROCS_ShapeTanimoto>
0.483 

> <ROCS_ColorTanimoto>
0.360 

> <ROCS_RefTversky>
0.414 

> <ROCS_RefColorTversky>
0.447 

> <ROCS_RefTverskyCombo>
0.861 

> <ROCS_FitTversky>
1.525 

> <ROCS_FitColorTversky>
0.651 

> <ROCS_FitTverskyCombo>
2.176 

> <ROCS_ColorScore>
-9.596

> <ROCS_Overlap>
1219.201

> <ROCS_Rank>
165                 

$$$$
untitled-dbase-178814_6
  -OEChem-06232314393D

 20 22  0     1  0  0  0  0  0999 V2000
  -10.1787   15.2338  -37.0614 C   0  0  0  0  0  0  0  0  0  0  0  0
  -13.0752   16.0519  -37.1546 C   0  0  0  0  0  0  0  0  0  0  0  0
  -11.0694   15.1664  -38.2549 C   0  0  2  0  0  0  0  0  0  0  0  0
  -12.0931   16.3496  -38.3375 C   0  0  1  0  0  0  0  0  0  0  0  0
  -13.3425   14.6138  -37.5431 C   0  0  2  0  0  0  0  0  0  0  0  0
  -12.1157   14.0722  -38.2028 C   0  0  1  0  0  0  0  0  0  0  0  0
  -13.2761   14.5240  -39.0305 C   0  0  2  0  0  0  0  0  0  0  0  0
  -12.9568   15.8959  -39.5486 C   0  0  0  0  0  0  0  0  0  0  0  0
   -9.0582   15.7214  -37.0485 O   0  0  0  0  0  0  0  0  0  0  0  0
  -10.7804   14.6754  -35.9828 O   0  0  0  0  0  0  0  0  0  0  0  0
  -14.0569   16.6527  -39.7169 F   0  0  0  0  0  0  0  0  0  0  0  0
  -12.2630   15.8635  -40.7013 F   0  0  0  0  0  0  0  0  0  0  0  0
  -12.6060   16.1388  -36.1713 H   0  0  0  0  0  0  0  0  0  0  0  0
  -13.9812   16.6641  -37.1960 H   0  0  0  0  0  0  0  0  0  0  0  0
  -10.4522   15.0985  -39.1571 H   0  0  0  0  0  0  0  0  0  0  0  0
  -11.6809   17.3579  -38.3760 H   0  0  0  0  0  0  0  0  0  0  0  0
  -14.0027   14.0112  -36.9514 H   0  0  0  0  0  0  0  0  0  0  0  0
  -11.8198   13.0430  -38.1445 H   0  0  0  0  0  0  0  0  0  0  0  0
  -13.8838   13.8544  -39.6051 H   0  0  0  0  0  0  0  0  0  0  0  0
  -10.2087   14.7083  -35.1863 H   0  0  0  0  0  0  0  0  0  0  0  0
  1  3  1  0  0  0  0
  1  9  2  0  0  0  0
  1 10  1  0  0  0  0
  2  4  1  0  0  0  0
  2  5  1  0  0  0  0
  3  4  1  0  0  0  0
  3  6  1  0  0  0  0
  4  8  1  0  0  0  0
  5  6  1  0  0  0  0
  5  7  1  0  0  0  0
  6  7  1  0  0  0  0
  7  8  1  0  0  0  0
  8 11  1  0  0  0  0
  8 12  1  0  0  0  0
  2 13  1  0  0  0  0
  2 14  1  0  0  0  0
  3 15  1  0  0  0  0
  4 16  1  0  0  0  0
  5 17  1  0  0  0  0
  6 18  1  0  0  0  0
  7 19  1  0  0  0  0
 10 20  1  0  0  0  0
M  END
> <id>
EN300-39920038

> <smiles>
OC(=O)C1C2C3CC1C(F)(F)C32

> <IUPAC Name>
5,5-difluorotricyclo[2.2.1.0,2,6]heptane-3-carboxylic acid

> <URL>
https://www.enaminestore.com/catalog/EN300-39920038

> <ROCS_ShapeQuery>
_x1247relevant_x1083L0AP1_x1305L0BP1_

> <ROCS_TanimotoCombo>
0.843 

> <ROCS_ShapeTanimoto>
0.498 

> <ROCS_ColorTanimoto>
0.345 

> <ROCS_RefTversky>
0.410 

> <ROCS_RefColorTversky>
0.609 

> <ROCS_RefTverskyCombo>
1.019 

> <ROCS_FitTversky>
1.748 

> <ROCS_FitColorTversky>
0.444 

> <ROCS_FitTverskyCombo>
2.192 

> <ROCS_ColorScore>
-13.579

> <ROCS_Overlap>
1206.389

> <ROCS_Rank>
166                 

$$$$
untitled-dbase-66401_2
  -OEChem-06232314393D

 22 24  0     1  0  0  0  0  0999 V2000
  -12.4513   16.1376  -39.5192 C   0  0  0  0  0  0  0  0  0  0  0  0
  -10.2008   15.2324  -36.7388 C   0  0  0  0  0  0  0  0  0  0  0  0
  -14.0159   14.4241  -38.7966 C   0  0  0  0  0  0  0  0  0  0  0  0
  -13.9605   14.9419  -37.3389 C   0  0  0  0  0  0  0  0  0  0  0  0
  -11.5138   14.1294  -38.6792 C   0  0  0  0  0  0  0  0  0  0  0  0
  -12.6904   14.6403  -39.5436 C   0  0  2  0  0  0  0  0  0  0  0  0
  -11.9907   16.4489  -38.1450 C   0  0  1  0  0  0  0  0  0  0  0  0
  -12.6988   15.7108  -37.0320 C   0  0  2  0  0  0  0  0  0  0  0  0
  -11.3992   15.1736  -37.5849 C   0  0  2  0  0  0  0  0  0  0  0  0
  -12.6578   16.9582  -40.3931 O   0  0  0  0  0  0  0  0  0  0  0  0
   -9.0637   15.4206  -37.1447 O   0  0  0  0  0  0  0  0  0  0  0  0
  -10.5251   15.0459  -35.4359 O   0  0  0  0  0  0  0  0  0  0  0  0
  -14.2758   13.3589  -38.7911 H   0  0  0  0  0  0  0  0  0  0  0  0
  -14.8271   14.9399  -39.3262 H   0  0  0  0  0  0  0  0  0  0  0  0
  -14.8321   15.5772  -37.1439 H   0  0  0  0  0  0  0  0  0  0  0  0
  -14.0297   14.0920  -36.6496 H   0  0  0  0  0  0  0  0  0  0  0  0
  -11.6993   13.1297  -38.2733 H   0  0  0  0  0  0  0  0  0  0  0  0
  -10.5899   14.1069  -39.2693 H   0  0  0  0  0  0  0  0  0  0  0  0
  -12.6888   14.2320  -40.5559 H   0  0  0  0  0  0  0  0  0  0  0  0
  -11.5051   17.3929  -37.9448 H   0  0  0  0  0  0  0  0  0  0  0  0
  -12.7047   16.1539  -36.0447 H   0  0  0  0  0  0  0  0  0  0  0  0
   -9.7364   15.0798  -34.8536 H   0  0  0  0  0  0  0  0  0  0  0  0
  1  6  1  0  0  0  0
  1  7  1  0  0  0  0
  1 10  2  0  0  0  0
  2  9  1  0  0  0  0
  2 11  2  0  0  0  0
  2 12  1  0  0  0  0
  3  4  1  0  0  0  0
  3  6  1  0  0  0  0
  4  8  1  0  0  0  0
  5  6  1  0  0  0  0
  5  9  1  0  0  0  0
  7  8  1  0  0  0  0
  7  9  1  0  0  0  0
  8  9  1  0  0  0  0
  3 13  1  0  0  0  0
  3 14  1  0  0  0  0
  4 15  1  0  0  0  0
  4 16  1  0  0  0  0
  5 17  1  0  0  0  0
  5 18  1  0  0  0  0
  6 19  1  0  0  0  0
  7 20  1  0  0  0  0
  8 21  1  0  0  0  0
 12 22  1  0  0  0  0
M  END
> <id>
EN300-37269555

> <smiles>
OC(=O)C12CC3CCC2C1C3=O

> <MDLNUMBER>
MFCD34594372

> <IUPAC Name>
6-oxotricyclo[3.2.1.0,2,7]octane-1-carboxylic acid

> <Purity>
95

> <URL>
https://www.enaminestore.com/catalog/EN300-37269555

> <ROCS_ShapeQuery>
_x1247relevant_x1083L0AP1_x1305L0BP1_

> <ROCS_TanimotoCombo>
0.843 

> <ROCS_ShapeTanimoto>
0.462 

> <ROCS_ColorTanimoto>
0.381 

> <ROCS_RefTversky>
0.389 

> <ROCS_RefColorTversky>
0.640 

> <ROCS_RefTverskyCombo>
1.029 

> <ROCS_FitTversky>
1.690 

> <ROCS_FitColorTversky>
0.485 

> <ROCS_FitTverskyCombo>
2.175 

> <ROCS_ColorScore>
-14.249

> <ROCS_Overlap>
1142.019

> <ROCS_Rank>
167                 

$$$$
untitled-dbase-117589_286
  -OEChem-06232314393D

 37 39  0     1  0  0  0  0  0999 V2000
   -9.7584   15.1743  -36.3833 C   0  0  0  0  0  0  0  0  0  0  0  0
  -12.2133   16.2485  -40.7316 C   0  0  0  0  0  0  0  0  0  0  0  0
  -14.3734   15.6162  -38.2055 C   0  0  0  0  0  0  0  0  0  0  0  0
  -14.0340   14.1812  -38.7382 C   0  0  0  0  0  0  0  0  0  0  0  0
  -10.6533   15.3874  -37.5276 C   0  0  0  0  0  0  0  0  0  0  0  0
  -12.0941   15.7713  -37.2640 C   0  0  2  0  0  0  0  0  0  0  0  0
  -11.7688   14.3941  -37.7749 C   0  0  1  0  0  0  0  0  0  0  0  0
  -13.0192   16.3503  -38.3313 C   0  0  1  0  0  0  0  0  0  0  0  0
  -12.5343   14.3004  -39.0928 C   0  0  2  0  0  0  0  0  0  0  0  0
  -11.9578   16.1517  -43.5752 C   0  0  0  0  0  0  0  0  0  0  0  0
  -10.2933   14.3131  -43.1778 C   0  0  0  0  0  0  0  0  0  0  0  0
  -12.6815   14.0147  -42.4598 C   0  0  0  0  0  0  0  0  0  0  0  0
  -11.5406   15.0142  -42.6441 C   0  0  0  0  0  0  0  0  0  0  0  0
  -12.5165   15.6884  -39.5181 N   0  0  0  0  0  0  0  0  0  0  0  0
  -10.0937   14.6973  -35.3094 O   0  0  0  0  0  0  0  0  0  0  0  0
  -12.7722   17.2401  -41.1935 O   0  0  0  0  0  0  0  0  0  0  0  0
   -8.4998   15.5828  -36.6773 O   0  0  0  0  0  0  0  0  0  0  0  0
  -11.2099   15.5694  -41.3663 O   0  0  0  0  0  0  0  0  0  0  0  0
  -15.1357   16.0776  -38.8431 H   0  0  0  0  0  0  0  0  0  0  0  0
  -14.7440   15.5796  -37.1761 H   0  0  0  0  0  0  0  0  0  0  0  0
  -14.2329   13.4190  -37.9781 H   0  0  0  0  0  0  0  0  0  0  0  0
  -14.6359   13.9642  -39.6277 H   0  0  0  0  0  0  0  0  0  0  0  0
  -10.1628   15.8229  -38.3909 H   0  0  0  0  0  0  0  0  0  0  0  0
  -12.4407   15.8934  -36.2479 H   0  0  0  0  0  0  0  0  0  0  0  0
  -11.8862   13.5428  -37.1200 H   0  0  0  0  0  0  0  0  0  0  0  0
  -13.0598   17.4392  -38.3870 H   0  0  0  0  0  0  0  0  0  0  0  0
  -12.1485   13.5781  -39.8133 H   0  0  0  0  0  0  0  0  0  0  0  0
  -12.8528   16.6576  -43.1956 H   0  0  0  0  0  0  0  0  0  0  0  0
  -11.1606   16.8937  -43.6881 H   0  0  0  0  0  0  0  0  0  0  0  0
  -12.2173   15.7686  -44.5687 H   0  0  0  0  0  0  0  0  0  0  0  0
   -9.9903   13.4962  -42.5129 H   0  0  0  0  0  0  0  0  0  0  0  0
   -9.4450   15.0057  -43.2222 H   0  0  0  0  0  0  0  0  0  0  0  0
  -10.4580   13.9021  -44.1791 H   0  0  0  0  0  0  0  0  0  0  0  0
  -12.3824   13.1987  -41.7920 H   0  0  0  0  0  0  0  0  0  0  0  0
  -13.5735   14.4932  -42.0428 H   0  0  0  0  0  0  0  0  0  0  0  0
  -12.9502   13.5496  -43.4152 H   0  0  0  0  0  0  0  0  0  0  0  0
   -7.8861   15.4503  -35.9235 H   0  0  0  0  0  0  0  0  0  0  0  0
  1  5  1  0  0  0  0
  1 15  2  0  0  0  0
  1 17  1  0  0  0  0
  2 14  1  0  0  0  0
  2 16  2  0  0  0  0
  2 18  1  0  0  0  0
  3  4  1  0  0  0  0
  3  8  1  1  0  0  0
  4  9  1  1  0  0  0
  5  6  1  0  0  0  0
  5  7  1  0  0  0  0
  6  7  1  0  0  0  0
  6  8  1  0  0  0  0
  7  9  1  0  0  0  0
  8 14  1  0  0  0  0
  9 14  1  0  0  0  0
 10 13  1  0  0  0  0
 11 13  1  0  0  0  0
 12 13  1  0  0  0  0
 13 18  1  0  0  0  0
  3 19  1  0  0  0  0
  3 20  1  0  0  0  0
  4 21  1  0  0  0  0
  4 22  1  0  0  0  0
  5 23  1  0  0  0  0
  6 24  1  0  0  0  0
  7 25  1  0  0  0  0
  8 26  1  0  0  0  0
  9 27  1  0  0  0  0
 10 28  1  0  0  0  0
 10 29  1  0  0  0  0
 10 30  1  0  0  0  0
 11 31  1  0  0  0  0
 11 32  1  0  0  0  0
 11 33  1  0  0  0  0
 12 34  1  0  0  0  0
 12 35  1  0  0  0  0
 12 36  1  0  0  0  0
 17 37  1  0  0  0  0
M  END
> <id>
EN300-1653065

> <smiles>
CC(C)(C)OC(=O)N1[C@H]2CC[C@@H]1C3C(C32)C(=O)O

> <IUPAC Name>
(1R,5S)-8-[(tert-butoxy)carbonyl]-8-azatricyclo[3.2.1.0,2,4]octane-3-carboxylic acid

> <CAS>
2171379-41-0

> <URL>
https://www.enaminestore.com/catalog/EN300-1653065

> <ROCS_ShapeQuery>
_x1247relevant_x1083L0AP1_x1305L0BP1_

> <ROCS_TanimotoCombo>
0.843 

> <ROCS_ShapeTanimoto>
0.457 

> <ROCS_ColorTanimoto>
0.386 

> <ROCS_RefTversky>
0.413 

> <ROCS_RefColorTversky>
0.561 

> <ROCS_RefTverskyCombo>
0.974 

> <ROCS_FitTversky>
1.308 

> <ROCS_FitColorTversky>
0.553 

> <ROCS_FitTverskyCombo>
1.860 

> <ROCS_ColorScore>
-12.273

> <ROCS_Overlap>
1218.638

> <ROCS_Rank>
168                 

$$$$
untitled-dbase-44645_12
  -OEChem-06232314393D

 37 39  0     1  0  0  0  0  0999 V2000
  -12.0268   14.9170  -39.8070 C   0  0  0  0  0  0  0  0  0  0  0  0
  -12.3762   16.8264  -38.2853 C   0  0  0  0  0  0  0  0  0  0  0  0
   -8.7690   15.1245  -36.6755 C   0  0  0  0  0  0  0  0  0  0  0  0
  -13.4676   14.4947  -39.4777 C   0  0  0  0  0  0  0  0  0  0  0  0
  -13.7468   16.2700  -37.8732 C   0  0  0  0  0  0  0  0  0  0  0  0
   -9.0923   13.9005  -37.5295 C   0  0  0  0  0  0  0  0  0  0  0  0
  -12.8516   14.1364  -37.1820 C   0  0  0  0  0  0  0  0  0  0  0  0
  -11.4269   15.6483  -38.5921 C   0  0  0  0  0  0  0  0  0  0  0  0
   -9.8276   15.3849  -35.6082 C   0  0  2  0  0  0  0  0  0  0  0  0
  -11.4036   14.6931  -37.3548 C   0  0  2  0  0  0  0  0  0  0  0  0
   -8.5047   14.2892  -33.7871 C   0  0  0  0  0  0  0  0  0  0  0  0
   -9.8250   14.3489  -34.4867 C   0  0  0  0  0  0  0  0  0  0  0  0
  -10.5046   13.5457  -37.5066 N   0  0  0  0  0  0  0  0  0  0  0  0
  -13.8257   14.8087  -38.0767 N   0  0  0  0  0  0  0  0  0  0  0  0
  -11.1395   15.4770  -36.1688 O   0  0  0  0  0  0  0  0  0  0  0  0
  -11.4257   14.0499  -40.0967 H   0  0  0  0  0  0  0  0  0  0  0  0
  -12.0364   15.5895  -40.6736 H   0  0  0  0  0  0  0  0  0  0  0  0
  -12.4813   17.4592  -39.1746 H   0  0  0  0  0  0  0  0  0  0  0  0
  -11.9724   17.4611  -37.4895 H   0  0  0  0  0  0  0  0  0  0  0  0
   -7.7863   14.9614  -36.1928 H   0  0  0  0  0  0  0  0  0  0  0  0
   -8.6489   16.0116  -37.3236 H   0  0  0  0  0  0  0  0  0  0  0  0
  -14.1714   14.9892  -40.1597 H   0  0  0  0  0  0  0  0  0  0  0  0
  -13.5903   13.4196  -39.6599 H   0  0  0  0  0  0  0  0  0  0  0  0
  -13.9509   16.5087  -36.8214 H   0  0  0  0  0  0  0  0  0  0  0  0
  -14.5382   16.7685  -38.4466 H   0  0  0  0  0  0  0  0  0  0  0  0
   -8.7473   14.0601  -38.5690 H   0  0  0  0  0  0  0  0  0  0  0  0
   -8.5046   13.0408  -37.1576 H   0  0  0  0  0  0  0  0  0  0  0  0
  -12.8996   13.0576  -37.3854 H   0  0  0  0  0  0  0  0  0  0  0  0
  -13.1884   14.2458  -36.1424 H   0  0  0  0  0  0  0  0  0  0  0  0
  -10.4361   16.0451  -38.8377 H   0  0  0  0  0  0  0  0  0  0  0  0
   -9.6032   16.3822  -35.1169 H   0  0  0  0  0  0  0  0  0  0  0  0
   -7.7149   14.0417  -34.5061 H   0  0  0  0  0  0  0  0  0  0  0  0
   -8.5104   13.5174  -33.0101 H   0  0  0  0  0  0  0  0  0  0  0  0
   -8.2606   15.2556  -33.3336 H   0  0  0  0  0  0  0  0  0  0  0  0
  -10.6087   14.5963  -33.7634 H   0  0  0  0  0  0  0  0  0  0  0  0
  -10.0606   13.3642  -34.9028 H   0  0  0  0  0  0  0  0  0  0  0  0
  -10.7386   12.9977  -38.3441 H   0  0  0  0  0  0  0  0  0  0  0  0
  1  4  1  0  0  0  0
  1  8  1  0  0  0  0
  2  5  1  0  0  0  0
  2  8  1  0  0  0  0
  3  6  1  0  0  0  0
  3  9  1  0  0  0  0
  4 14  1  0  0  0  0
  5 14  1  0  0  0  0
  6 13  1  0  0  0  0
  7 10  1  0  0  0  0
  7 14  1  0  0  0  0
  8 10  1  0  0  0  0
  9 12  1  0  0  0  0
  9 15  1  0  0  0  0
 10 13  1  0  0  0  0
 10 15  1  0  0  0  0
 11 12  1  0  0  0  0
  1 16  1  0  0  0  0
  1 17  1  0  0  0  0
  2 18  1  0  0  0  0
  2 19  1  0  0  0  0
  3 20  1  0  0  0  0
  3 21  1  0  0  0  0
  4 22  1  0  0  0  0
  4 23  1  0  0  0  0
  5 24  1  0  0  0  0
  5 25  1  0  0  0  0
  6 26  1  0  0  0  0
  6 27  1  0  0  0  0
  7 28  1  0  0  0  0
  7 29  1  0  0  0  0
  8 30  1  0  0  0  0
  9 31  1  0  0  0  0
 11 32  1  0  0  0  0
 11 33  1  0  0  0  0
 11 34  1  0  0  0  0
 12 35  1  0  0  0  0
 12 36  1  0  0  0  0
 13 37  1  0  0  0  0
M  END
> <id>
EN300-1278709

> <smiles>
CCC1CCNC2(CN3CCC2CC3)O1

> <IUPAC Name>
6'-ethyl-4-azaspiro[bicyclo[2.2.2]octane-2,2'-[1,3]oxazinane]

> <CAS>
2168716-77-4

> <URL>
https://www.enaminestore.com/catalog/EN300-1278709

> <ROCS_ShapeQuery>
_x1247relevant_x1083L0AP1_x1305L0BP1_

> <ROCS_TanimotoCombo>
0.843 

> <ROCS_ShapeTanimoto>
0.494 

> <ROCS_ColorTanimoto>
0.349 

> <ROCS_RefTversky>
0.419 

> <ROCS_RefColorTversky>
0.410 

> <ROCS_RefTverskyCombo>
0.830 

> <ROCS_FitTversky>
1.568 

> <ROCS_FitColorTversky>
0.698 

> <ROCS_FitTverskyCombo>
2.267 

> <ROCS_ColorScore>
-8.769

> <ROCS_Overlap>
1234.670

> <ROCS_Rank>
169                 

$$$$
untitled-dbase-107598_2
  -OEChem-06232314393D

 28 30  0     1  0  0  0  0  0999 V2000
  -13.4000   14.9854  -39.5071 C   0  0  0  0  0  0  0  0  0  0  0  0
  -13.6479   14.2930  -38.1673 C   0  0  0  0  0  0  0  0  0  0  0  0
  -10.9569   15.2619  -38.9742 C   0  0  0  0  0  0  0  0  0  0  0  0
   -9.8513   16.6229  -36.8016 C   0  0  0  0  0  0  0  0  0  0  0  0
   -8.7047   14.9090  -36.8609 C   0  0  0  0  0  0  0  0  0  0  0  0
  -12.2977   15.9809  -39.1513 C   0  0  2  0  0  0  0  0  0  0  0  0
  -12.5977   14.9469  -37.2662 C   0  0  1  0  0  0  0  0  0  0  0  0
  -11.1444   14.5538  -37.6143 C   0  0  2  0  0  0  0  0  0  0  0  0
  -10.1886   15.1476  -36.5711 C   0  0  0  0  0  0  0  0  0  0  0  0
  -10.9099   13.1177  -37.6956 N   0  0  0  0  0  0  0  0  0  0  0  0
   -8.5143   16.2911  -37.2419 O   0  0  0  0  0  0  0  0  0  0  0  0
  -12.6386   16.3042  -37.7836 O   0  0  0  0  0  0  0  0  0  0  0  0
  -10.6428   14.8076  -35.2521 O   0  0  0  0  0  0  0  0  0  0  0  0
  -13.1095   14.2920  -40.3019 H   0  0  0  0  0  0  0  0  0  0  0  0
  -14.3094   15.5091  -39.8221 H   0  0  0  0  0  0  0  0  0  0  0  0
  -14.6548   14.5466  -37.8146 H   0  0  0  0  0  0  0  0  0  0  0  0
  -13.5792   13.2039  -38.2211 H   0  0  0  0  0  0  0  0  0  0  0  0
  -10.7528   14.5830  -39.8095 H   0  0  0  0  0  0  0  0  0  0  0  0
  -10.1380   15.9896  -38.9315 H   0  0  0  0  0  0  0  0  0  0  0  0
  -10.4168   17.1405  -37.5820 H   0  0  0  0  0  0  0  0  0  0  0  0
   -9.8268   17.2433  -35.9002 H   0  0  0  0  0  0  0  0  0  0  0  0
   -8.0944   14.6516  -35.9894 H   0  0  0  0  0  0  0  0  0  0  0  0
   -8.4679   14.2277  -37.6834 H   0  0  0  0  0  0  0  0  0  0  0  0
  -12.2573   16.8631  -39.7938 H   0  0  0  0  0  0  0  0  0  0  0  0
  -12.8442   14.9171  -36.2014 H   0  0  0  0  0  0  0  0  0  0  0  0
  -11.5549   12.7308  -38.3445 H   0  0  0  0  0  0  0  0  0  0  0  0
   -9.9764   12.9698  -38.0017 H   0  0  0  0  0  0  0  0  0  0  0  0
  -10.8118   13.8558  -35.2665 H   0  0  0  0  0  0  0  0  0  0  0  0
  1  2  1  0  0  0  0
  1  6  1  0  0  0  0
  2  7  1  0  0  0  0
  3  6  1  0  0  0  0
  3  8  1  0  0  0  0
  4  9  1  0  0  0  0
  4 11  1  0  0  0  0
  5  9  1  0  0  0  0
  5 11  1  0  0  0  0
  6 12  1  0  0  0  0
  7  8  1  0  0  0  0
  7 12  1  0  0  0  0
  8  9  1  0  0  0  0
  8 10  1  0  0  0  0
  9 13  1  0  0  0  0
  1 14  1  0  0  0  0
  1 15  1  0  0  0  0
  2 16  1  0  0  0  0
  2 17  1  0  0  0  0
  3 18  1  0  0  0  0
  3 19  1  0  0  0  0
  4 20  1  0  0  0  0
  4 21  1  0  0  0  0
  5 22  1  0  0  0  0
  5 23  1  0  0  0  0
  6 24  1  0  0  0  0
  7 25  1  0  0  0  0
 10 26  1  0  0  0  0
 10 27  1  0  0  0  0
 13 28  1  0  0  0  0
M  END
> <id>
EN300-1647180

> <smiles>
NC1(CC2CCC1O2)C3(O)COC3

> <IUPAC Name>
3-{2-amino-7-oxabicyclo[2.2.1]heptan-2-yl}oxetan-3-ol

> <CAS>
2171759-46-7

> <URL>
https://www.enaminestore.com/catalog/EN300-1647180

> <ROCS_ShapeQuery>
_x1247relevant_x1083L0AP1_x1305L0BP1_

> <ROCS_TanimotoCombo>
0.843 

> <ROCS_ShapeTanimoto>
0.483 

> <ROCS_ColorTanimoto>
0.360 

> <ROCS_RefTversky>
0.406 

> <ROCS_RefColorTversky>
0.435 

> <ROCS_RefTverskyCombo>
0.840 

> <ROCS_FitTversky>
1.650 

> <ROCS_FitColorTversky>
0.677 

> <ROCS_FitTverskyCombo>
2.327 

> <ROCS_ColorScore>
-9.314

> <ROCS_Overlap>
1192.828

> <ROCS_Rank>
170                 

$$$$
untitled-dbase-121902_2
  -OEChem-06232314393D

 32 34  0     0  0  0  0  0  0999 V2000
  -10.0631   15.4660  -36.6075 C   0  0  0  0  0  0  0  0  0  0  0  0
  -13.9342   15.8700  -39.1835 C   0  0  0  0  0  0  0  0  0  0  0  0
  -12.9780   16.1926  -36.8930 C   0  0  0  0  0  0  0  0  0  0  0  0
  -11.5754   16.6782  -38.9248 C   0  0  0  0  0  0  0  0  0  0  0  0
  -13.4093   13.8857  -37.7456 C   0  0  0  0  0  0  0  0  0  0  0  0
  -12.0145   14.3819  -39.7849 C   0  0  0  0  0  0  0  0  0  0  0  0
  -12.9947   16.7386  -38.3313 C   0  0  0  0  0  0  0  0  0  0  0  0
  -13.4343   14.4161  -39.1912 C   0  0  0  0  0  0  0  0  0  0  0  0
  -12.4532   14.7378  -36.8777 C   0  0  0  0  0  0  0  0  0  0  0  0
  -11.0499   15.2219  -38.9138 C   0  0  0  0  0  0  0  0  0  0  0  0
  -11.0214   14.6719  -37.4638 C   0  0  0  0  0  0  0  0  0  0  0  0
  -10.4113   15.5075  -35.2781 N   0  0  0  0  0  0  0  0  0  0  0  0
  -10.4639   13.3168  -37.4002 N   0  0  0  0  0  0  0  0  0  0  0  0
   -9.0614   16.0027  -37.0744 O   0  0  0  0  0  0  0  0  0  0  0  0
  -14.9547   15.9149  -38.7835 H   0  0  0  0  0  0  0  0  0  0  0  0
  -13.9779   16.2579  -40.2086 H   0  0  0  0  0  0  0  0  0  0  0  0
  -12.3553   16.8330  -36.2576 H   0  0  0  0  0  0  0  0  0  0  0  0
  -13.9896   16.2268  -36.4692 H   0  0  0  0  0  0  0  0  0  0  0  0
  -11.5850   17.0617  -39.9531 H   0  0  0  0  0  0  0  0  0  0  0  0
  -10.9049   17.3334  -38.3568 H   0  0  0  0  0  0  0  0  0  0  0  0
  -14.4215   13.9273  -37.3227 H   0  0  0  0  0  0  0  0  0  0  0  0
  -13.1228   12.8287  -37.7336 H   0  0  0  0  0  0  0  0  0  0  0  0
  -11.6649   13.3466  -39.8663 H   0  0  0  0  0  0  0  0  0  0  0  0
  -12.0303   14.7790  -40.8080 H   0  0  0  0  0  0  0  0  0  0  0  0
  -13.3515   17.7748  -38.3297 H   0  0  0  0  0  0  0  0  0  0  0  0
  -14.1055   13.8000  -39.8001 H   0  0  0  0  0  0  0  0  0  0  0  0
  -12.4682   14.3670  -35.8451 H   0  0  0  0  0  0  0  0  0  0  0  0
  -10.0464   15.2053  -39.3575 H   0  0  0  0  0  0  0  0  0  0  0  0
   -9.8182   16.0217  -34.6351 H   0  0  0  0  0  0  0  0  0  0  0  0
  -11.2378   15.0445  -34.9140 H   0  0  0  0  0  0  0  0  0  0  0  0
   -9.5438   13.3487  -37.7656 H   0  0  0  0  0  0  0  0  0  0  0  0
  -10.4597   13.0344  -36.4507 H   0  0  0  0  0  0  0  0  0  0  0  0
  1 11  1  0  0  0  0
  1 12  1  0  0  0  0
  1 14  2  0  0  0  0
  2  7  1  0  0  0  0
  2  8  1  0  0  0  0
  3  7  1  0  0  0  0
  3  9  1  0  0  0  0
  4  7  1  0  0  0  0
  4 10  1  0  0  0  0
  5  8  1  0  0  0  0
  5  9  1  0  0  0  0
  6  8  1  0  0  0  0
  6 10  1  0  0  0  0
  9 11  1  0  0  0  0
 10 11  1  0  0  0  0
 11 13  1  0  0  0  0
  2 15  1  0  0  0  0
  2 16  1  0  0  0  0
  3 17  1  0  0  0  0
  3 18  1  0  0  0  0
  4 19  1  0  0  0  0
  4 20  1  0  0  0  0
  5 21  1  0  0  0  0
  5 22  1  0  0  0  0
  6 23  1  0  0  0  0
  6 24  1  0  0  0  0
  7 25  1  0  0  0  0
  8 26  1  0  0  0  0
  9 27  1  0  0  0  0
 10 28  1  0  0  0  0
 12 29  1  0  0  0  0
 12 30  1  0  0  0  0
 13 31  1  0  0  0  0
 13 32  1  0  0  0  0
M  END
> <id>
EN300-252329

> <smiles>
Cl.NC(=O)C1(N)C2CC3CC(C2)CC1C3

> <MDLNUMBER>
MFCD29055067

> <IUPAC Name>
2-aminoadamantane-2-carboxamide hydrochloride

> <CAS>
1909308-49-1

> <Purity>
95

> <URL>
https://www.enaminestore.com/catalog/EN300-252329

> <Saltdate>
Cl

> <ROCS_ShapeQuery>
_x1247relevant_x1083L0AP1_x1305L0BP1_

> <ROCS_TanimotoCombo>
0.843 

> <ROCS_ShapeTanimoto>
0.500 

> <ROCS_ColorTanimoto>
0.343 

> <ROCS_RefTversky>
0.419 

> <ROCS_RefColorTversky>
0.388 

> <ROCS_RefTverskyCombo>
0.807 

> <ROCS_FitTversky>
1.629 

> <ROCS_FitColorTversky>
0.748 

> <ROCS_FitTverskyCombo>
2.377 

> <ROCS_ColorScore>
-8.249

> <ROCS_Overlap>
1232.729

> <ROCS_Rank>
171                 

$$$$
untitled-dbase-19093_2
  -OEChem-06232314393D

 32 34  0     0  0  0  0  0  0999 V2000
  -10.0631   15.4660  -36.6075 C   0  0  0  0  0  0  0  0  0  0  0  0
  -13.9342   15.8700  -39.1835 C   0  0  0  0  0  0  0  0  0  0  0  0
  -12.9780   16.1926  -36.8930 C   0  0  0  0  0  0  0  0  0  0  0  0
  -11.5754   16.6782  -38.9248 C   0  0  0  0  0  0  0  0  0  0  0  0
  -13.4093   13.8857  -37.7456 C   0  0  0  0  0  0  0  0  0  0  0  0
  -12.0145   14.3819  -39.7849 C   0  0  0  0  0  0  0  0  0  0  0  0
  -12.9947   16.7386  -38.3313 C   0  0  0  0  0  0  0  0  0  0  0  0
  -13.4343   14.4161  -39.1912 C   0  0  0  0  0  0  0  0  0  0  0  0
  -12.4532   14.7378  -36.8777 C   0  0  0  0  0  0  0  0  0  0  0  0
  -11.0499   15.2219  -38.9138 C   0  0  0  0  0  0  0  0  0  0  0  0
  -11.0214   14.6719  -37.4638 C   0  0  0  0  0  0  0  0  0  0  0  0
  -10.4113   15.5075  -35.2781 N   0  0  0  0  0  0  0  0  0  0  0  0
  -10.4639   13.3168  -37.4002 N   0  0  0  0  0  0  0  0  0  0  0  0
   -9.0614   16.0027  -37.0744 O   0  0  0  0  0  0  0  0  0  0  0  0
  -14.9547   15.9149  -38.7835 H   0  0  0  0  0  0  0  0  0  0  0  0
  -13.9779   16.2579  -40.2086 H   0  0  0  0  0  0  0  0  0  0  0  0
  -12.3553   16.8330  -36.2576 H   0  0  0  0  0  0  0  0  0  0  0  0
  -13.9896   16.2268  -36.4692 H   0  0  0  0  0  0  0  0  0  0  0  0
  -11.5850   17.0617  -39.9531 H   0  0  0  0  0  0  0  0  0  0  0  0
  -10.9049   17.3334  -38.3568 H   0  0  0  0  0  0  0  0  0  0  0  0
  -14.4215   13.9273  -37.3227 H   0  0  0  0  0  0  0  0  0  0  0  0
  -13.1228   12.8287  -37.7336 H   0  0  0  0  0  0  0  0  0  0  0  0
  -11.6649   13.3466  -39.8663 H   0  0  0  0  0  0  0  0  0  0  0  0
  -12.0303   14.7790  -40.8080 H   0  0  0  0  0  0  0  0  0  0  0  0
  -13.3515   17.7748  -38.3297 H   0  0  0  0  0  0  0  0  0  0  0  0
  -14.1055   13.8000  -39.8001 H   0  0  0  0  0  0  0  0  0  0  0  0
  -12.4682   14.3670  -35.8451 H   0  0  0  0  0  0  0  0  0  0  0  0
  -10.0464   15.2053  -39.3575 H   0  0  0  0  0  0  0  0  0  0  0  0
   -9.8182   16.0217  -34.6351 H   0  0  0  0  0  0  0  0  0  0  0  0
  -11.2378   15.0445  -34.9140 H   0  0  0  0  0  0  0  0  0  0  0  0
   -9.5438   13.3487  -37.7656 H   0  0  0  0  0  0  0  0  0  0  0  0
  -10.4597   13.0344  -36.4507 H   0  0  0  0  0  0  0  0  0  0  0  0
  1 11  1  0  0  0  0
  1 12  1  0  0  0  0
  1 14  2  0  0  0  0
  2  7  1  0  0  0  0
  2  8  1  0  0  0  0
  3  7  1  0  0  0  0
  3  9  1  0  0  0  0
  4  7  1  0  0  0  0
  4 10  1  0  0  0  0
  5  8  1  0  0  0  0
  5  9  1  0  0  0  0
  6  8  1  0  0  0  0
  6 10  1  0  0  0  0
  9 11  1  0  0  0  0
 10 11  1  0  0  0  0
 11 13  1  0  0  0  0
  2 15  1  0  0  0  0
  2 16  1  0  0  0  0
  3 17  1  0  0  0  0
  3 18  1  0  0  0  0
  4 19  1  0  0  0  0
  4 20  1  0  0  0  0
  5 21  1  0  0  0  0
  5 22  1  0  0  0  0
  6 23  1  0  0  0  0
  6 24  1  0  0  0  0
  7 25  1  0  0  0  0
  8 26  1  0  0  0  0
  9 27  1  0  0  0  0
 10 28  1  0  0  0  0
 12 29  1  0  0  0  0
 12 30  1  0  0  0  0
 13 31  1  0  0  0  0
 13 32  1  0  0  0  0
M  END
> <id>
EN300-252330

> <smiles>
NC(=O)C1(N)C2CC3CC(C2)CC1C3

> <MDLNUMBER>
MFCD17226387

> <IUPAC Name>
2-aminoadamantane-2-carboxamide

> <CAS>
24779-96-2

> <URL>
https://www.enaminestore.com/catalog/EN300-252330

> <ROCS_ShapeQuery>
_x1247relevant_x1083L0AP1_x1305L0BP1_

> <ROCS_TanimotoCombo>
0.843 

> <ROCS_ShapeTanimoto>
0.500 

> <ROCS_ColorTanimoto>
0.343 

> <ROCS_RefTversky>
0.419 

> <ROCS_RefColorTversky>
0.388 

> <ROCS_RefTverskyCombo>
0.807 

> <ROCS_FitTversky>
1.629 

> <ROCS_FitColorTversky>
0.748 

> <ROCS_FitTverskyCombo>
2.377 

> <ROCS_ColorScore>
-8.249

> <ROCS_Overlap>
1232.729

> <ROCS_Rank>
172                 

$$$$
untitled-dbase-167963_6
  -OEChem-06232314393D

 23 25  0     1  0  0  0  0  0999 V2000
  -10.1835   15.2517  -36.7481 C   0  0  0  0  0  0  0  0  0  0  0  0
  -14.0580   16.0223  -38.6559 C   0  0  0  0  0  0  0  0  0  0  0  0
  -13.9774   15.3469  -37.2732 C   0  0  0  0  0  0  0  0  0  0  0  0
  -12.4142   14.3753  -39.5878 C   0  0  0  0  0  0  0  0  0  0  0  0
  -12.7506   15.8798  -39.4565 C   0  0  2  0  0  0  0  0  0  0  0  0
  -12.6598   14.6642  -37.0323 C   0  0  1  0  0  0  0  0  0  0  0  0
  -11.9359   14.0466  -38.1964 C   0  0  2  0  0  0  0  0  0  0  0  0
  -11.3957   15.3023  -37.5740 C   0  0  2  0  0  0  0  0  0  0  0  0
  -11.5747   16.3846  -38.6040 C   0  0  0  0  0  0  0  0  0  0  0  0
   -9.1007   15.7239  -37.0611 O   0  0  0  0  0  0  0  0  0  0  0  0
  -10.4251   14.6036  -35.5824 O   0  0  0  0  0  0  0  0  0  0  0  0
  -10.4575   16.4973  -39.3615 F   0  0  0  0  0  0  0  0  0  0  0  0
  -11.8202   17.5871  -38.0456 F   0  0  0  0  0  0  0  0  0  0  0  0
  -14.8888   15.5862  -39.2242 H   0  0  0  0  0  0  0  0  0  0  0  0
  -14.3019   17.0838  -38.5266 H   0  0  0  0  0  0  0  0  0  0  0  0
  -14.1391   16.0972  -36.4905 H   0  0  0  0  0  0  0  0  0  0  0  0
  -14.7867   14.6138  -37.1773 H   0  0  0  0  0  0  0  0  0  0  0  0
  -13.2792   13.7717  -39.8786 H   0  0  0  0  0  0  0  0  0  0  0  0
  -11.6066   14.2159  -40.3107 H   0  0  0  0  0  0  0  0  0  0  0  0
  -12.8207   16.3767  -40.4278 H   0  0  0  0  0  0  0  0  0  0  0  0
  -12.6207   14.1542  -36.0783 H   0  0  0  0  0  0  0  0  0  0  0  0
  -11.4247   13.1046  -38.0834 H   0  0  0  0  0  0  0  0  0  0  0  0
   -9.6253   14.5575  -35.0162 H   0  0  0  0  0  0  0  0  0  0  0  0
  1  8  1  0  0  0  0
  1 10  2  0  0  0  0
  1 11  1  0  0  0  0
  2  3  1  0  0  0  0
  2  5  1  0  0  0  0
  3  6  1  0  0  0  0
  4  5  1  0  0  0  0
  4  7  1  0  0  0  0
  5  9  1  0  0  0  0
  6  7  1  0  0  0  0
  6  8  1  0  0  0  0
  7  8  1  0  0  0  0
  8  9  1  0  0  0  0
  9 12  1  0  0  0  0
  9 13  1  0  0  0  0
  2 14  1  0  0  0  0
  2 15  1  0  0  0  0
  3 16  1  0  0  0  0
  3 17  1  0  0  0  0
  4 18  1  0  0  0  0
  4 19  1  0  0  0  0
  5 20  1  0  0  0  0
  6 21  1  0  0  0  0
  7 22  1  0  0  0  0
 11 23  1  0  0  0  0
M  END
> <id>
EN300-7466734

> <smiles>
OC(=O)C1(C2CC3CCC21)C3(F)F

> <MDLNUMBER>
MFCD32219926

> <IUPAC Name>
8,8-difluorotricyclo[3.2.1.0,2,7]octane-1-carboxylic acid

> <CAS>
2649058-02-4

> <Purity>
95

> <URL>
https://www.enaminestore.com/catalog/EN300-7466734

> <ROCS_ShapeQuery>
_x1247relevant_x1083L0AP1_x1305L0BP1_

> <ROCS_TanimotoCombo>
0.843 

> <ROCS_ShapeTanimoto>
0.479 

> <ROCS_ColorTanimoto>
0.364 

> <ROCS_RefTversky>
0.404 

> <ROCS_RefColorTversky>
0.607 

> <ROCS_RefTverskyCombo>
1.011 

> <ROCS_FitTversky>
1.629 

> <ROCS_FitColorTversky>
0.476 

> <ROCS_FitTverskyCombo>
2.105 

> <ROCS_ColorScore>
-13.480

> <ROCS_Overlap>
1188.286

> <ROCS_Rank>
173                 

$$$$
untitled-dbase-60102_4
  -OEChem-06232314393D

 26 28  0     1  0  0  0  0  0999 V2000
  -13.4064   13.9628  -38.3542 C   0  0  0  0  0  0  0  0  0  0  0  0
  -12.9706   14.4421  -37.1800 C   0  0  0  0  0  0  0  0  0  0  0  0
   -9.8288   15.2162  -36.1613 C   0  0  0  0  0  0  0  0  0  0  0  0
  -13.5266   16.2665  -38.4818 C   0  0  0  0  0  0  0  0  0  0  0  0
  -11.7144   15.2268  -39.6308 C   0  0  0  0  0  0  0  0  0  0  0  0
   -9.6343   13.6908  -36.1602 C   0  0  0  0  0  0  0  0  0  0  0  0
  -13.2299   15.0595  -39.3773 C   0  0  1  0  0  0  0  0  0  0  0  0
  -12.4951   15.8559  -37.4229 C   0  0  2  0  0  0  0  0  0  0  0  0
  -11.2065   15.8370  -38.2873 C   0  0  1  0  0  0  0  0  0  0  0  0
  -10.0735   15.0398  -37.6764 C   0  0  2  0  0  0  0  0  0  0  0  0
  -10.4651   13.6368  -37.3843 N   0  0  0  0  0  0  0  0  0  0  0  0
  -13.7671   12.9649  -38.5452 H   0  0  0  0  0  0  0  0  0  0  0  0
  -12.9133   13.9018  -36.2487 H   0  0  0  0  0  0  0  0  0  0  0  0
  -10.6987   15.5551  -35.5860 H   0  0  0  0  0  0  0  0  0  0  0  0
   -8.9563   15.8117  -35.8813 H   0  0  0  0  0  0  0  0  0  0  0  0
  -13.3011   17.2267  -38.9597 H   0  0  0  0  0  0  0  0  0  0  0  0
  -14.5568   16.2887  -38.1038 H   0  0  0  0  0  0  0  0  0  0  0  0
  -11.2243   14.2814  -39.8885 H   0  0  0  0  0  0  0  0  0  0  0  0
  -11.5412   15.9386  -40.4463 H   0  0  0  0  0  0  0  0  0  0  0  0
   -8.5977   13.3698  -36.3160 H   0  0  0  0  0  0  0  0  0  0  0  0
  -10.0490   13.1598  -35.2995 H   0  0  0  0  0  0  0  0  0  0  0  0
  -13.8577   14.9676  -40.2640 H   0  0  0  0  0  0  0  0  0  0  0  0
  -12.4639   16.4870  -36.5338 H   0  0  0  0  0  0  0  0  0  0  0  0
  -10.8706   16.8667  -38.4662 H   0  0  0  0  0  0  0  0  0  0  0  0
   -9.1533   15.1125  -38.2706 H   0  0  0  0  0  0  0  0  0  0  0  0
  -10.1593   12.9566  -38.0784 H   0  0  0  0  0  0  0  0  0  0  0  0
  1  2  2  0  0  0  0
  1  7  1  0  0  0  0
  2  8  1  0  0  0  0
  3  6  1  0  0  0  0
  3 10  1  0  0  0  0
  4  7  1  0  0  0  0
  4  8  1  0  0  0  0
  5  7  1  0  0  0  0
  5  9  1  0  0  0  0
  6 11  1  0  0  0  0
  8  9  1  0  0  0  0
  9 10  1  0  0  0  0
 10 11  1  0  0  0  0
  1 12  1  0  0  0  0
  2 13  1  0  0  0  0
  3 14  1  0  0  0  0
  3 15  1  0  0  0  0
  4 16  1  0  0  0  0
  4 17  1  0  0  0  0
  5 18  1  0  0  0  0
  5 19  1  0  0  0  0
  6 20  1  0  0  0  0
  6 21  1  0  0  0  0
  7 22  1  0  0  0  0
  8 23  1  0  0  0  0
  9 24  1  0  0  0  0
 10 25  1  0  0  0  0
 11 26  1  0  0  0  0
M  END
> <id>
EN300-1819712

> <smiles>
C1CC(N1)C2CC3CC2C=C3

> <IUPAC Name>
2-{bicyclo[2.2.1]hept-5-en-2-yl}azetidine

> <CAS>
2228345-72-8

> <URL>
https://www.enaminestore.com/catalog/EN300-1819712

> <ROCS_ShapeQuery>
_x1247relevant_x1083L0AP1_x1305L0BP1_

> <ROCS_TanimotoCombo>
0.842 

> <ROCS_ShapeTanimoto>
0.454 

> <ROCS_ColorTanimoto>
0.389 

> <ROCS_RefTversky>
0.378 

> <ROCS_RefColorTversky>
0.411 

> <ROCS_RefTverskyCombo>
0.790 

> <ROCS_FitTversky>
1.783 

> <ROCS_FitColorTversky>
0.875 

> <ROCS_FitTverskyCombo>
2.658 

> <ROCS_ColorScore>
-8.734

> <ROCS_Overlap>
1110.676

> <ROCS_Rank>
174                 

$$$$
untitled-dbase-109967_5
  -OEChem-06232314393D

 24 25  0     1  0  0  0  0  0999 V2000
  -10.1280   15.1850  -36.7984 C   0  0  0  0  0  0  0  0  0  0  0  0
  -12.5848   16.4037  -39.4771 C   0  0  0  0  0  0  0  0  0  0  0  0
  -13.2491   15.0330  -39.6852 C   0  0  0  0  0  0  0  0  0  0  0  0
  -12.9868   16.2801  -37.0195 C   0  0  0  0  0  0  0  0  0  0  0  0
  -10.9372   15.2176  -38.0552 C   0  0  2  0  0  0  0  0  0  0  0  0
  -11.8938   16.4278  -38.0993 C   0  0  1  0  0  0  0  0  0  0  0  0
  -13.1013   14.1794  -38.4123 C   0  0  2  0  0  0  0  0  0  0  0  0
  -13.6909   14.9397  -37.2197 C   0  0  0  0  0  0  0  0  0  0  0  0
  -11.6712   13.9453  -38.1375 N   0  0  0  0  0  0  0  0  0  0  0  0
  -10.4582   14.6215  -35.7655 O   0  0  0  0  0  0  0  0  0  0  0  0
   -8.9701   15.8717  -36.9566 O   0  0  0  0  0  0  0  0  0  0  0  0
  -13.5877   14.1913  -36.0932 F   0  0  0  0  0  0  0  0  0  0  0  0
  -15.0171   15.1464  -37.4188 F   0  0  0  0  0  0  0  0  0  0  0  0
  -11.8554   16.5875  -40.2748 H   0  0  0  0  0  0  0  0  0  0  0  0
  -13.3346   17.2008  -39.5449 H   0  0  0  0  0  0  0  0  0  0  0  0
  -14.3087   15.1698  -39.9315 H   0  0  0  0  0  0  0  0  0  0  0  0
  -12.7917   14.5230  -40.5420 H   0  0  0  0  0  0  0  0  0  0  0  0
  -12.5459   16.3350  -36.0183 H   0  0  0  0  0  0  0  0  0  0  0  0
  -13.7055   17.1037  -37.1013 H   0  0  0  0  0  0  0  0  0  0  0  0
  -10.2274   15.2838  -38.8893 H   0  0  0  0  0  0  0  0  0  0  0  0
  -11.3520   17.3692  -37.9559 H   0  0  0  0  0  0  0  0  0  0  0  0
  -13.6117   13.2188  -38.5352 H   0  0  0  0  0  0  0  0  0  0  0  0
  -11.2695   13.3744  -38.8810 H   0  0  0  0  0  0  0  0  0  0  0  0
   -8.8893   16.2509  -37.8577 H   0  0  0  0  0  0  0  0  0  0  0  0
  1  5  1  1  0  0  0
  1 10  2  0  0  0  0
  1 11  1  0  0  0  0
  2  3  1  0  0  0  0
  2  6  1  0  0  0  0
  3  7  1  0  0  0  0
  4  6  1  0  0  0  0
  4  8  1  0  0  0  0
  5  6  1  0  0  0  0
  5  9  1  0  0  0  0
  7  8  1  0  0  0  0
  7  9  1  0  0  0  0
  8 12  1  0  0  0  0
  8 13  1  0  0  0  0
  2 14  1  0  0  0  0
  2 15  1  0  0  0  0
  3 16  1  0  0  0  0
  3 17  1  0  0  0  0
  4 18  1  0  0  0  0
  4 19  1  0  0  0  0
  5 20  1  0  0  0  0
  6 21  1  0  0  0  0
  7 22  1  0  0  0  0
  9 23  1  0  0  0  0
 11 24  1  0  0  0  0
M  END
> <id>
EN300-109782

> <smiles>
Cl.OC(=O)[C@H]1NC2CCC1CC2(F)F

> <MDLNUMBER>
MFCD22378707

> <IUPAC Name>
(3S)-6,6-difluoro-2-azabicyclo[2.2.2]octane-3-carboxylic acid hydrochloride

> <CAS>
1394052-53-9

> <URL>
https://www.enaminestore.com/catalog/EN300-109782

> <Saltdate>
Cl

> <ROCS_ShapeQuery>
_x1247relevant_x1083L0AP1_x1305L0BP1_

> <ROCS_TanimotoCombo>
0.842 

> <ROCS_ShapeTanimoto>
0.457 

> <ROCS_ColorTanimoto>
0.385 

> <ROCS_RefTversky>
0.390 

> <ROCS_RefColorTversky>
0.429 

> <ROCS_RefTverskyCombo>
0.819 

> <ROCS_FitTversky>
1.608 

> <ROCS_FitColorTversky>
0.789 

> <ROCS_FitTverskyCombo>
2.397 

> <ROCS_ColorScore>
-9.138

> <ROCS_Overlap>
1146.856

> <ROCS_Rank>
175                 

$$$$
untitled-dbase-110469_5
  -OEChem-06232314393D

 24 25  0     1  0  0  0  0  0999 V2000
  -10.1280   15.1850  -36.7984 C   0  0  0  0  0  0  0  0  0  0  0  0
  -12.5848   16.4037  -39.4771 C   0  0  0  0  0  0  0  0  0  0  0  0
  -13.2491   15.0330  -39.6852 C   0  0  0  0  0  0  0  0  0  0  0  0
  -12.9868   16.2801  -37.0195 C   0  0  0  0  0  0  0  0  0  0  0  0
  -10.9372   15.2176  -38.0552 C   0  0  2  0  0  0  0  0  0  0  0  0
  -11.8938   16.4278  -38.0993 C   0  0  1  0  0  0  0  0  0  0  0  0
  -13.1013   14.1794  -38.4123 C   0  0  2  0  0  0  0  0  0  0  0  0
  -13.6909   14.9397  -37.2197 C   0  0  0  0  0  0  0  0  0  0  0  0
  -11.6712   13.9453  -38.1375 N   0  0  0  0  0  0  0  0  0  0  0  0
  -10.4582   14.6215  -35.7655 O   0  0  0  0  0  0  0  0  0  0  0  0
   -8.9701   15.8717  -36.9566 O   0  0  0  0  0  0  0  0  0  0  0  0
  -13.5877   14.1913  -36.0932 F   0  0  0  0  0  0  0  0  0  0  0  0
  -15.0171   15.1464  -37.4188 F   0  0  0  0  0  0  0  0  0  0  0  0
  -11.8554   16.5875  -40.2748 H   0  0  0  0  0  0  0  0  0  0  0  0
  -13.3346   17.2008  -39.5449 H   0  0  0  0  0  0  0  0  0  0  0  0
  -14.3087   15.1698  -39.9315 H   0  0  0  0  0  0  0  0  0  0  0  0
  -12.7917   14.5230  -40.5420 H   0  0  0  0  0  0  0  0  0  0  0  0
  -12.5459   16.3350  -36.0183 H   0  0  0  0  0  0  0  0  0  0  0  0
  -13.7055   17.1037  -37.1013 H   0  0  0  0  0  0  0  0  0  0  0  0
  -10.2274   15.2838  -38.8893 H   0  0  0  0  0  0  0  0  0  0  0  0
  -11.3520   17.3692  -37.9559 H   0  0  0  0  0  0  0  0  0  0  0  0
  -13.6117   13.2188  -38.5352 H   0  0  0  0  0  0  0  0  0  0  0  0
  -11.2695   13.3744  -38.8810 H   0  0  0  0  0  0  0  0  0  0  0  0
   -8.8893   16.2509  -37.8577 H   0  0  0  0  0  0  0  0  0  0  0  0
  1  5  1  1  0  0  0
  1 10  2  0  0  0  0
  1 11  1  0  0  0  0
  2  3  1  0  0  0  0
  2  6  1  0  0  0  0
  3  7  1  0  0  0  0
  4  6  1  0  0  0  0
  4  8  1  0  0  0  0
  5  6  1  0  0  0  0
  5  9  1  0  0  0  0
  7  8  1  0  0  0  0
  7  9  1  0  0  0  0
  8 12  1  0  0  0  0
  8 13  1  0  0  0  0
  2 14  1  0  0  0  0
  2 15  1  0  0  0  0
  3 16  1  0  0  0  0
  3 17  1  0  0  0  0
  4 18  1  0  0  0  0
  4 19  1  0  0  0  0
  5 20  1  0  0  0  0
  6 21  1  0  0  0  0
  7 22  1  0  0  0  0
  9 23  1  0  0  0  0
 11 24  1  0  0  0  0
M  END
> <id>
EN300-109615

> <smiles>
OC(=O)[C@H]1NC2CCC1CC2(F)F

> <MDLNUMBER>
MFCD27919996

> <IUPAC Name>
(3S)-6,6-difluoro-2-azabicyclo[2.2.2]octane-3-carboxylic acid

> <CAS>
1394117-03-3

> <URL>
https://www.enaminestore.com/catalog/EN300-109615

> <ROCS_ShapeQuery>
_x1247relevant_x1083L0AP1_x1305L0BP1_

> <ROCS_TanimotoCombo>
0.842 

> <ROCS_ShapeTanimoto>
0.457 

> <ROCS_ColorTanimoto>
0.385 

> <ROCS_RefTversky>
0.390 

> <ROCS_RefColorTversky>
0.429 

> <ROCS_RefTverskyCombo>
0.819 

> <ROCS_FitTversky>
1.608 

> <ROCS_FitColorTversky>
0.789 

> <ROCS_FitTverskyCombo>
2.397 

> <ROCS_ColorScore>
-9.138

> <ROCS_Overlap>
1146.856

> <ROCS_Rank>
176                 

$$$$
untitled-dbase-103085_4
  -OEChem-06232314393D

 24 26  0     1  0  0  0  0  0999 V2000
   -8.4680   13.8250  -37.8372 C   0  0  0  0  0  0  0  0  0  0  0  0
   -9.0034   14.9464  -37.3502 C   0  0  0  0  0  0  0  0  0  0  0  0
  -10.3367   14.8850  -36.7224 C   0  0  0  0  0  0  0  0  0  0  0  0
  -11.2023   16.0455  -39.7236 C   0  0  0  0  0  0  0  0  0  0  0  0
  -13.6375   14.4913  -36.9461 C   0  0  0  0  0  0  0  0  0  0  0  0
  -11.5108   14.7550  -38.9817 C   0  0  2  0  0  0  0  0  0  0  0  0
  -12.7091   15.6666  -37.2058 C   0  0  2  0  0  0  0  0  0  0  0  0
  -13.0347   14.7089  -39.1595 C   0  0  2  0  0  0  0  0  0  0  0  0
  -13.2089   16.1012  -38.5889 C   0  0  2  0  0  0  0  0  0  0  0  0
  -11.4126   15.0831  -37.5528 N   0  0  0  0  0  0  0  0  0  0  0  0
  -10.4174   14.6677  -35.5143 O   0  0  0  0  0  0  0  0  0  0  0  0
  -12.2672   16.9321  -39.2853 O   0  0  0  0  0  0  0  0  0  0  0  0
  -13.6743   13.8184  -38.2328 O   0  0  0  0  0  0  0  0  0  0  0  0
   -7.4916   13.8068  -38.3098 H   0  0  0  0  0  0  0  0  0  0  0  0
   -9.0108   12.8882  -37.7683 H   0  0  0  0  0  0  0  0  0  0  0  0
   -8.4930   15.8993  -37.3998 H   0  0  0  0  0  0  0  0  0  0  0  0
  -10.2338   16.4865  -39.4708 H   0  0  0  0  0  0  0  0  0  0  0  0
  -11.2798   15.9302  -40.8095 H   0  0  0  0  0  0  0  0  0  0  0  0
  -13.2761   13.7976  -36.1813 H   0  0  0  0  0  0  0  0  0  0  0  0
  -14.6549   14.8112  -36.6988 H   0  0  0  0  0  0  0  0  0  0  0  0
  -10.9507   13.8634  -39.2626 H   0  0  0  0  0  0  0  0  0  0  0  0
  -12.6356   16.4244  -36.4247 H   0  0  0  0  0  0  0  0  0  0  0  0
  -13.3669   14.5619  -40.1908 H   0  0  0  0  0  0  0  0  0  0  0  0
  -14.2244   16.5062  -38.5995 H   0  0  0  0  0  0  0  0  0  0  0  0
  1  2  2  0  0  0  0
  2  3  1  0  0  0  0
  3 10  1  0  0  0  0
  3 11  2  0  0  0  0
  4  6  1  1  0  0  0
  4 12  1  0  0  0  0
  5  7  1  6  0  0  0
  5 13  1  0  0  0  0
  6  8  1  0  0  0  0
  6 10  1  0  0  0  0
  7  9  1  0  0  0  0
  7 10  1  0  0  0  0
  8  9  1  0  0  0  0
  8 13  1  1  0  0  0
  9 12  1  6  0  0  0
  1 14  1  0  0  0  0
  1 15  1  0  0  0  0
  2 16  1  0  0  0  0
  4 17  1  0  0  0  0
  4 18  1  0  0  0  0
  5 19  1  0  0  0  0
  5 20  1  0  0  0  0
  6 21  1  0  0  0  0
  7 22  1  0  0  0  0
  8 23  1  0  0  0  0
  9 24  1  0  0  0  0
M  END
> <id>
EN300-7521965

> <smiles>
C=CC(=O)N1[C@@H]2CO[C@@H]3[C@H]1CO[C@H]23

> <IUPAC Name>
1-[(1R,3R,6R,7R)-5,8-dioxa-2-azatricyclo[4.3.0.0,3,7]nonan-2-yl]prop-2-en-1-one

> <CAS>
2093996-59-7

> <URL>
https://www.enaminestore.com/catalog/EN300-7521965

> <ROCS_ShapeQuery>
_x1247relevant_x1083L0AP1_x1305L0BP1_

> <ROCS_TanimotoCombo>
0.842 

> <ROCS_ShapeTanimoto>
0.507 

> <ROCS_ColorTanimoto>
0.335 

> <ROCS_RefTversky>
0.421 

> <ROCS_RefColorTversky>
0.449 

> <ROCS_RefTverskyCombo>
0.870 

> <ROCS_FitTversky>
1.677 

> <ROCS_FitColorTversky>
0.570 

> <ROCS_FitTverskyCombo>
2.246 

> <ROCS_ColorScore>
-9.689

> <ROCS_Overlap>
1238.258

> <ROCS_Rank>
177                 

$$$$
untitled-dbase-59164_5
  -OEChem-06232314393D

 35 37  0     1  0  0  0  0  0999 V2000
   -7.7219   14.9559  -35.5792 C   0  0  0  0  0  0  0  0  0  0  0  0
   -9.0474   14.5471  -34.9463 C   0  0  0  0  0  0  0  0  0  0  0  0
   -7.6871   14.6360  -37.0696 C   0  0  0  0  0  0  0  0  0  0  0  0
  -14.0603   15.9857  -38.9861 C   0  0  0  0  0  0  0  0  0  0  0  0
  -12.8494   15.7955  -39.9003 C   0  0  0  0  0  0  0  0  0  0  0  0
  -10.2380   15.1673  -35.6795 C   0  0  0  0  0  0  0  0  0  0  0  0
   -8.8747   15.2557  -37.8080 C   0  0  0  0  0  0  0  0  0  0  0  0
  -12.5793   15.8104  -36.9598 C   0  0  0  0  0  0  0  0  0  0  0  0
  -11.3562   15.6517  -37.8781 C   0  0  2  0  0  0  0  0  0  0  0  0
  -13.6821   15.1354  -37.7753 C   0  0  2  0  0  0  0  0  0  0  0  0
  -11.9570   14.8799  -39.0626 C   0  0  1  0  0  0  0  0  0  0  0  0
  -10.2333   14.8618  -37.1918 C   0  0  0  0  0  0  0  0  0  0  0  0
  -10.4813   13.4446  -37.4095 N   0  0  0  0  0  0  0  0  0  0  0  0
  -12.9495   14.0581  -38.4025 O   0  0  0  0  0  0  0  0  0  0  0  0
   -7.5653   16.0319  -35.4339 H   0  0  0  0  0  0  0  0  0  0  0  0
   -6.8970   14.4430  -35.0719 H   0  0  0  0  0  0  0  0  0  0  0  0
   -9.1339   13.4544  -34.9391 H   0  0  0  0  0  0  0  0  0  0  0  0
   -9.0622   14.8660  -33.8975 H   0  0  0  0  0  0  0  0  0  0  0  0
   -6.7543   15.0179  -37.5005 H   0  0  0  0  0  0  0  0  0  0  0  0
   -7.6743   13.5497  -37.2158 H   0  0  0  0  0  0  0  0  0  0  0  0
  -14.2464   17.0336  -38.7329 H   0  0  0  0  0  0  0  0  0  0  0  0
  -14.9542   15.5839  -39.4760 H   0  0  0  0  0  0  0  0  0  0  0  0
  -13.1629   15.2899  -40.8208 H   0  0  0  0  0  0  0  0  0  0  0  0
  -12.3637   16.7370  -40.1726 H   0  0  0  0  0  0  0  0  0  0  0  0
  -11.1695   14.8147  -35.2179 H   0  0  0  0  0  0  0  0  0  0  0  0
  -10.2127   16.2546  -35.5263 H   0  0  0  0  0  0  0  0  0  0  0  0
   -8.7668   16.3485  -37.7851 H   0  0  0  0  0  0  0  0  0  0  0  0
   -8.8323   14.9660  -38.8659 H   0  0  0  0  0  0  0  0  0  0  0  0
  -12.4327   15.2830  -36.0105 H   0  0  0  0  0  0  0  0  0  0  0  0
  -12.8052   16.8579  -36.7368 H   0  0  0  0  0  0  0  0  0  0  0  0
  -10.9597   16.6236  -38.1927 H   0  0  0  0  0  0  0  0  0  0  0  0
  -14.5301   14.7793  -37.1865 H   0  0  0  0  0  0  0  0  0  0  0  0
  -11.2473   14.2871  -39.6446 H   0  0  0  0  0  0  0  0  0  0  0  0
   -9.7608   12.9395  -36.9566 H   0  0  0  0  0  0  0  0  0  0  0  0
  -11.3662   13.2311  -37.0212 H   0  0  0  0  0  0  0  0  0  0  0  0
  1  2  1  0  0  0  0
  1  3  1  0  0  0  0
  2  6  1  0  0  0  0
  3  7  1  0  0  0  0
  4  5  1  0  0  0  0
  4 10  1  0  0  0  0
  5 11  1  0  0  0  0
  6 12  1  0  0  0  0
  7 12  1  0  0  0  0
  8  9  1  0  0  0  0
  8 10  1  0  0  0  0
  9 11  1  0  0  0  0
  9 12  1  0  0  0  0
 10 14  1  0  0  0  0
 11 14  1  0  0  0  0
 12 13  1  0  0  0  0
  1 15  1  0  0  0  0
  1 16  1  0  0  0  0
  2 17  1  0  0  0  0
  2 18  1  0  0  0  0
  3 19  1  0  0  0  0
  3 20  1  0  0  0  0
  4 21  1  0  0  0  0
  4 22  1  0  0  0  0
  5 23  1  0  0  0  0
  5 24  1  0  0  0  0
  6 25  1  0  0  0  0
  6 26  1  0  0  0  0
  7 27  1  0  0  0  0
  7 28  1  0  0  0  0
  8 29  1  0  0  0  0
  8 30  1  0  0  0  0
  9 31  1  0  0  0  0
 10 32  1  0  0  0  0
 11 33  1  0  0  0  0
 13 34  1  0  0  0  0
 13 35  1  0  0  0  0
M  END
> <id>
EN300-1756206

> <smiles>
NC1(CCCCC1)C2CC3CCC2O3

> <IUPAC Name>
1-{7-oxabicyclo[2.2.1]heptan-2-yl}cyclohexan-1-amine

> <CAS>
2228781-96-0

> <URL>
https://www.enaminestore.com/catalog/EN300-1756206

> <ROCS_ShapeQuery>
_x1247relevant_x1083L0AP1_x1305L0BP1_

> <ROCS_TanimotoCombo>
0.842 

> <ROCS_ShapeTanimoto>
0.464 

> <ROCS_ColorTanimoto>
0.378 

> <ROCS_RefTversky>
0.397 

> <ROCS_RefColorTversky>
0.416 

> <ROCS_RefTverskyCombo>
0.813 

> <ROCS_FitTversky>
1.566 

> <ROCS_FitColorTversky>
0.809 

> <ROCS_FitTverskyCombo>
2.375 

> <ROCS_ColorScore>
-8.842

> <ROCS_Overlap>
1168.297

> <ROCS_Rank>
178                 

$$$$
untitled-dbase-103827_8
  -OEChem-06232314393D

 29 31  0     1  0  0  0  0  0999 V2000
  -11.2672   14.3502  -35.7633 C   0  0  0  0  0  0  0  0  0  0  0  0
   -9.1259   14.8685  -36.3363 C   0  0  0  0  0  0  0  0  0  0  0  0
  -11.7153   14.7144  -37.0181 C   0  0  0  0  0  0  0  0  0  0  0  0
  -10.7422   15.1804  -37.9112 C   0  0  0  0  0  0  0  0  0  0  0  0
  -15.3386   13.7150  -40.8496 C   0  0  0  0  0  0  0  0  0  0  0  0
  -14.1588   13.1104  -40.6945 C   0  0  0  0  0  0  0  0  0  0  0  0
  -13.5071   13.1486  -39.3718 C   0  0  0  0  0  0  0  0  0  0  0  0
  -11.1450   15.5839  -39.3211 C   0  0  0  0  0  0  0  0  0  0  0  0
  -13.7440   16.0984  -37.3807 C   0  0  0  0  0  0  0  0  0  0  0  0
  -13.3476   16.7247  -38.7332 C   0  0  0  0  0  0  0  0  0  0  0  0
  -13.1682   14.6805  -37.4318 C   0  0  1  0  0  0  0  0  0  0  0  0
  -12.6796   15.5840  -39.5250 C   0  0  2  0  0  0  0  0  0  0  0  0
   -9.9727   14.4132  -35.3914 N   0  0  0  0  0  0  0  0  0  0  0  0
   -9.4337   15.2601  -37.5887 N   0  0  0  0  0  0  0  0  0  0  0  0
  -13.2041   14.3913  -38.8600 N   0  0  0  0  0  0  0  0  0  0  0  0
  -13.2701   12.0831  -38.8028 O   0  0  0  0  0  0  0  0  0  0  0  0
  -11.9492   13.9916  -34.9997 H   0  0  0  0  0  0  0  0  0  0  0  0
   -8.0804   14.9250  -36.0581 H   0  0  0  0  0  0  0  0  0  0  0  0
  -15.8663   13.7212  -41.7974 H   0  0  0  0  0  0  0  0  0  0  0  0
  -15.8037   14.2236  -40.0118 H   0  0  0  0  0  0  0  0  0  0  0  0
  -13.6638   12.5928  -41.5057 H   0  0  0  0  0  0  0  0  0  0  0  0
  -10.7308   16.5732  -39.5467 H   0  0  0  0  0  0  0  0  0  0  0  0
  -10.6909   14.8646  -40.0137 H   0  0  0  0  0  0  0  0  0  0  0  0
  -13.3762   16.6934  -36.5378 H   0  0  0  0  0  0  0  0  0  0  0  0
  -14.8379   16.0582  -37.3125 H   0  0  0  0  0  0  0  0  0  0  0  0
  -14.2511   17.0702  -39.2488 H   0  0  0  0  0  0  0  0  0  0  0  0
  -12.6888   17.5888  -38.5986 H   0  0  0  0  0  0  0  0  0  0  0  0
  -13.7408   13.9518  -36.8500 H   0  0  0  0  0  0  0  0  0  0  0  0
  -12.9327   15.6417  -40.5859 H   0  0  0  0  0  0  0  0  0  0  0  0
  1  3  2  0  0  0  0
  1 13  1  0  0  0  0
  2 13  2  0  0  0  0
  2 14  1  0  0  0  0
  3  4  1  0  0  0  0
  3 11  1  0  0  0  0
  4  8  1  0  0  0  0
  4 14  2  0  0  0  0
  5  6  2  0  0  0  0
  6  7  1  0  0  0  0
  7 15  1  0  0  0  0
  7 16  2  0  0  0  0
  8 12  1  0  0  0  0
  9 10  1  0  0  0  0
  9 11  1  0  0  0  0
 10 12  1  0  0  0  0
 11 15  1  0  0  0  0
 12 15  1  0  0  0  0
  1 17  1  0  0  0  0
  2 18  1  0  0  0  0
  5 19  1  0  0  0  0
  5 20  1  0  0  0  0
  6 21  1  0  0  0  0
  8 22  1  0  0  0  0
  8 23  1  0  0  0  0
  9 24  1  0  0  0  0
  9 25  1  0  0  0  0
 10 26  1  0  0  0  0
 10 27  1  0  0  0  0
 11 28  1  0  0  0  0
 12 29  1  0  0  0  0
M  END
> <id>
EN300-26617194

> <smiles>
C=CC(=O)N1C2CCC1C=3C=NC=NC3C2

> <IUPAC Name>
1-{4,6,12-triazatricyclo[7.2.1.0,2,7]dodeca-2,4,6-trien-12-yl}prop-2-en-1-one

> <CAS>
2361657-35-2

> <URL>
https://www.enaminestore.com/catalog/EN300-26617194

> <ROCS_ShapeQuery>
_x1247relevant_x1083L0AP1_x1305L0BP1_

> <ROCS_TanimotoCombo>
0.842 

> <ROCS_ShapeTanimoto>
0.501 

> <ROCS_ColorTanimoto>
0.341 

> <ROCS_RefTversky>
0.431 

> <ROCS_RefColorTversky>
0.390 

> <ROCS_RefTverskyCombo>
0.821 

> <ROCS_FitTversky>
1.483 

> <ROCS_FitColorTversky>
0.730 

> <ROCS_FitTverskyCombo>
2.213 

> <ROCS_ColorScore>
-8.303

> <ROCS_Overlap>
1270.254

> <ROCS_Rank>
179                 

$$$$
untitled-dbase-144639_25
  -OEChem-06232314393D

 37 39  0     1  0  0  0  0  0999 V2000
   -9.9695   14.8342  -37.2424 C   0  0  0  0  0  0  0  0  0  0  0  0
  -13.5756   16.1643  -39.4079 C   0  0  0  0  0  0  0  0  0  0  0  0
  -13.0695   16.9103  -38.1591 C   0  0  0  0  0  0  0  0  0  0  0  0
  -13.4408   13.9715  -38.2232 C   0  0  0  0  0  0  0  0  0  0  0  0
  -13.0116   14.7301  -39.5025 C   0  0  2  0  0  0  0  0  0  0  0  0
  -12.2333   16.0424  -37.2610 C   0  0  1  0  0  0  0  0  0  0  0  0
  -12.5213   14.5689  -37.1924 C   0  0  2  0  0  0  0  0  0  0  0  0
  -11.4628   14.7265  -39.3612 C   0  0  2  0  0  0  0  0  0  0  0  0
  -11.2749   15.0444  -37.8873 C   0  0  2  0  0  0  0  0  0  0  0  0
  -10.3552   14.4187  -34.6989 C   0  0  0  0  0  0  0  0  0  0  0  0
  -10.2821   11.9465  -35.1374 C   0  0  0  0  0  0  0  0  0  0  0  0
   -8.1590   13.2877  -35.1807 C   0  0  0  0  0  0  0  0  0  0  0  0
   -9.6589   13.2999  -35.4723 C   0  0  0  0  0  0  0  0  0  0  0  0
  -10.7818   15.6745  -40.2266 N   0  0  0  0  0  0  0  0  0  0  0  0
   -9.1373   15.7157  -37.0767 O   0  0  0  0  0  0  0  0  0  0  0  0
   -9.8490   13.5275  -36.8724 O   0  0  0  0  0  0  0  0  0  0  0  0
  -14.6720   16.1241  -39.3835 H   0  0  0  0  0  0  0  0  0  0  0  0
  -13.3195   16.7379  -40.3067 H   0  0  0  0  0  0  0  0  0  0  0  0
  -12.4757   17.7787  -38.4674 H   0  0  0  0  0  0  0  0  0  0  0  0
  -13.9245   17.3002  -37.5947 H   0  0  0  0  0  0  0  0  0  0  0  0
  -14.4949   14.1231  -37.9719 H   0  0  0  0  0  0  0  0  0  0  0  0
  -13.2487   12.8975  -38.3228 H   0  0  0  0  0  0  0  0  0  0  0  0
  -13.3567   14.2377  -40.4167 H   0  0  0  0  0  0  0  0  0  0  0  0
  -11.9364   16.5480  -36.3510 H   0  0  0  0  0  0  0  0  0  0  0  0
  -12.4683   14.0471  -36.2507 H   0  0  0  0  0  0  0  0  0  0  0  0
  -11.0845   13.7161  -39.5640 H   0  0  0  0  0  0  0  0  0  0  0  0
   -9.9107   15.3918  -34.9366 H   0  0  0  0  0  0  0  0  0  0  0  0
  -11.4255   14.4605  -34.9260 H   0  0  0  0  0  0  0  0  0  0  0  0
  -10.2359   14.2800  -33.6183 H   0  0  0  0  0  0  0  0  0  0  0  0
   -9.7856   11.1408  -35.6901 H   0  0  0  0  0  0  0  0  0  0  0  0
  -11.3372   11.9189  -35.4329 H   0  0  0  0  0  0  0  0  0  0  0  0
  -10.2158   11.7249  -34.0673 H   0  0  0  0  0  0  0  0  0  0  0  0
   -7.6593   12.4852  -35.7353 H   0  0  0  0  0  0  0  0  0  0  0  0
   -7.6881   14.2388  -35.4496 H   0  0  0  0  0  0  0  0  0  0  0  0
   -7.9701   13.0935  -34.1187 H   0  0  0  0  0  0  0  0  0  0  0  0
   -9.8057   15.6319  -40.0390 H   0  0  0  0  0  0  0  0  0  0  0  0
  -10.9627   15.4269  -41.1730 H   0  0  0  0  0  0  0  0  0  0  0  0
  1  9  1  0  0  0  0
  1 15  2  0  0  0  0
  1 16  1  0  0  0  0
  2  3  1  0  0  0  0
  2  5  1  0  0  0  0
  3  6  1  0  0  0  0
  4  5  1  0  0  0  0
  4  7  1  0  0  0  0
  5  8  1  0  0  0  0
  6  7  1  0  0  0  0
  6  9  1  0  0  0  0
  7  9  1  0  0  0  0
  8  9  1  0  0  0  0
  8 14  1  0  0  0  0
 10 13  1  0  0  0  0
 11 13  1  0  0  0  0
 12 13  1  0  0  0  0
 13 16  1  0  0  0  0
  2 17  1  0  0  0  0
  2 18  1  0  0  0  0
  3 19  1  0  0  0  0
  3 20  1  0  0  0  0
  4 21  1  0  0  0  0
  4 22  1  0  0  0  0
  5 23  1  0  0  0  0
  6 24  1  0  0  0  0
  7 25  1  0  0  0  0
  8 26  1  0  0  0  0
 10 27  1  0  0  0  0
 10 28  1  0  0  0  0
 10 29  1  0  0  0  0
 11 30  1  0  0  0  0
 11 31  1  0  0  0  0
 11 32  1  0  0  0  0
 12 33  1  0  0  0  0
 12 34  1  0  0  0  0
 12 35  1  0  0  0  0
 14 36  1  0  0  0  0
 14 37  1  0  0  0  0
M  END
> <id>
EN300-27726702

> <smiles>
CC(C)(C)OC(=O)C1(C2CC3CCC21)C3N

> <IUPAC Name>
tert-butyl 8-aminotricyclo[3.2.1.0,2,7]octane-1-carboxylate

> <CAS>
2649046-71-7

> <URL>
https://www.enaminestore.com/catalog/EN300-27726702

> <ROCS_ShapeQuery>
_x1247relevant_x1083L0AP1_x1305L0BP1_

> <ROCS_TanimotoCombo>
0.842 

> <ROCS_ShapeTanimoto>
0.498 

> <ROCS_ColorTanimoto>
0.343 

> <ROCS_RefTversky>
0.427 

> <ROCS_RefColorTversky>
0.591 

> <ROCS_RefTverskyCombo>
1.018 

> <ROCS_FitTversky>
1.506 

> <ROCS_FitColorTversky>
0.450 

> <ROCS_FitTverskyCombo>
1.956 

> <ROCS_ColorScore>
-13.151

> <ROCS_Overlap>
1258.199

> <ROCS_Rank>
180                 

$$$$
untitled-dbase-46485_4
  -OEChem-06232314393D

 31 33  0     1  0  0  0  0  0999 V2000
   -9.0852   13.8842  -37.3535 C   0  0  0  0  0  0  0  0  0  0  0  0
   -9.0126   15.3924  -37.1107 C   0  0  0  0  0  0  0  0  0  0  0  0
  -13.5308   16.4255  -38.9022 C   0  0  0  0  0  0  0  0  0  0  0  0
  -13.5159   16.1273  -37.4038 C   0  0  0  0  0  0  0  0  0  0  0  0
  -10.5700   13.5329  -37.4573 C   0  0  0  0  0  0  0  0  0  0  0  0
  -11.3205   15.2642  -39.1512 C   0  0  0  0  0  0  0  0  0  0  0  0
  -10.4455   15.8359  -36.7879 C   0  0  1  0  0  0  0  0  0  0  0  0
  -12.8169   15.2040  -39.4720 C   0  0  1  0  0  0  0  0  0  0  0  0
  -12.7976   14.7769  -37.3451 C   0  0  2  0  0  0  0  0  0  0  0  0
  -11.2944   14.8809  -37.6467 C   0  0  2  0  0  0  0  0  0  0  0  0
  -10.7124   15.7340  -35.2825 C   0  0  0  0  0  0  0  0  0  0  0  0
  -13.2737   14.1680  -38.5736 O   0  0  0  0  0  0  0  0  0  0  0  0
  -10.1153   14.5447  -34.8052 O   0  0  0  0  0  0  0  0  0  0  0  0
   -8.5522   13.6218  -38.2740 H   0  0  0  0  0  0  0  0  0  0  0  0
   -8.6170   13.3280  -36.5343 H   0  0  0  0  0  0  0  0  0  0  0  0
   -8.2965   15.6442  -36.3217 H   0  0  0  0  0  0  0  0  0  0  0  0
   -8.6685   15.8886  -38.0268 H   0  0  0  0  0  0  0  0  0  0  0  0
  -14.5669   16.4685  -39.2565 H   0  0  0  0  0  0  0  0  0  0  0  0
  -13.0396   17.3691  -39.1570 H   0  0  0  0  0  0  0  0  0  0  0  0
  -13.0353   16.9144  -36.8185 H   0  0  0  0  0  0  0  0  0  0  0  0
  -14.5470   16.0234  -37.0469 H   0  0  0  0  0  0  0  0  0  0  0  0
  -10.7584   12.8179  -38.2655 H   0  0  0  0  0  0  0  0  0  0  0  0
  -10.8925   13.0486  -36.5274 H   0  0  0  0  0  0  0  0  0  0  0  0
  -10.7809   14.5323  -39.7626 H   0  0  0  0  0  0  0  0  0  0  0  0
  -10.9021   16.2530  -39.3661 H   0  0  0  0  0  0  0  0  0  0  0  0
  -10.5878   16.8811  -37.0869 H   0  0  0  0  0  0  0  0  0  0  0  0
  -13.0500   14.9877  -40.5169 H   0  0  0  0  0  0  0  0  0  0  0  0
  -13.0562   14.1715  -36.4726 H   0  0  0  0  0  0  0  0  0  0  0  0
  -11.7848   15.7012  -35.1031 H   0  0  0  0  0  0  0  0  0  0  0  0
  -10.2752   16.5909  -34.7749 H   0  0  0  0  0  0  0  0  0  0  0  0
  -10.2943   14.4963  -33.8500 H   0  0  0  0  0  0  0  0  0  0  0  0
  1  2  1  0  0  0  0
  1  5  1  0  0  0  0
  2  7  1  0  0  0  0
  3  4  1  0  0  0  0
  3  8  1  0  0  0  0
  4  9  1  0  0  0  0
  5 10  1  0  0  0  0
  6  8  1  0  0  0  0
  6 10  1  0  0  0  0
  7 10  1  0  0  0  0
  7 11  1  0  0  0  0
  8 12  1  0  0  0  0
  9 10  1  0  0  0  0
  9 12  1  0  0  0  0
 11 13  1  0  0  0  0
  1 14  1  0  0  0  0
  1 15  1  0  0  0  0
  2 16  1  0  0  0  0
  2 17  1  0  0  0  0
  3 18  1  0  0  0  0
  3 19  1  0  0  0  0
  4 20  1  0  0  0  0
  4 21  1  0  0  0  0
  5 22  1  0  0  0  0
  5 23  1  0  0  0  0
  6 24  1  0  0  0  0
  6 25  1  0  0  0  0
  7 26  1  0  0  0  0
  8 27  1  0  0  0  0
  9 28  1  0  0  0  0
 11 29  1  0  0  0  0
 11 30  1  0  0  0  0
 13 31  1  0  0  0  0
M  END
> <id>
EN300-1461735

> <smiles>
OCC1CCCC21CC3CCC2O3

> <IUPAC Name>
{7-oxaspiro[bicyclo[2.2.1]heptane-2,1'-cyclopentane]-5'-yl}methanol

> <CAS>
2167916-28-9

> <URL>
https://www.enaminestore.com/catalog/EN300-1461735

> <ROCS_ShapeQuery>
_x1247relevant_x1083L0AP1_x1305L0BP1_

> <ROCS_TanimotoCombo>
0.842 

> <ROCS_ShapeTanimoto>
0.484 

> <ROCS_ColorTanimoto>
0.358 

> <ROCS_RefTversky>
0.404 

> <ROCS_RefColorTversky>
0.399 

> <ROCS_RefTverskyCombo>
0.803 

> <ROCS_FitTversky>
1.683 

> <ROCS_FitColorTversky>
0.776 

> <ROCS_FitTverskyCombo>
2.460 

> <ROCS_ColorScore>
-8.481

> <ROCS_Overlap>
1189.318

> <ROCS_Rank>
181                 

$$$$
untitled-dbase-104099_4
  -OEChem-06232314393D

 22 24  0     1  0  0  0  0  0999 V2000
  -13.6634   16.2707  -38.3683 C   0  0  0  0  0  0  0  0  0  0  0  0
  -13.1152   14.0777  -37.5362 C   0  0  0  0  0  0  0  0  0  0  0  0
  -12.8943   15.5874  -37.1876 C   0  0  0  0  0  0  0  0  0  0  0  0
  -12.9335   15.5261  -39.4679 C   0  0  2  0  0  0  0  0  0  0  0  0
  -12.5891   14.1723  -38.9495 C   0  0  1  0  0  0  0  0  0  0  0  0
  -11.5448   15.2419  -38.9913 C   0  0  0  0  0  0  0  0  0  0  0  0
  -11.4240   15.8596  -37.6222 C   0  0  2  0  0  0  0  0  0  0  0  0
  -10.2555   13.4759  -37.5621 N   0  0  0  0  0  0  0  0  0  0  0  0
   -8.8834   15.5958  -37.0719 O   0  0  0  0  0  0  0  0  0  0  0  0
  -10.5880   14.8026  -35.3836 O   0  0  0  0  0  0  0  0  0  0  0  0
  -10.1750   14.9878  -36.7706 S   0  0  0  0  0  0  0  0  0  0  0  0
  -14.7347   16.0496  -38.3590 H   0  0  0  0  0  0  0  0  0  0  0  0
  -13.4922   17.3502  -38.4158 H   0  0  0  0  0  0  0  0  0  0  0  0
  -12.5334   13.3966  -36.9113 H   0  0  0  0  0  0  0  0  0  0  0  0
  -14.1723   13.7952  -37.5107 H   0  0  0  0  0  0  0  0  0  0  0  0
  -13.1761   15.8925  -36.1800 H   0  0  0  0  0  0  0  0  0  0  0  0
  -13.1723   15.7143  -40.4956 H   0  0  0  0  0  0  0  0  0  0  0  0
  -12.5584   13.3000  -39.5715 H   0  0  0  0  0  0  0  0  0  0  0  0
  -10.7099   15.2354  -39.6647 H   0  0  0  0  0  0  0  0  0  0  0  0
  -11.1698   16.9226  -37.6521 H   0  0  0  0  0  0  0  0  0  0  0  0
   -9.4768   13.2227  -38.1827 H   0  0  0  0  0  0  0  0  0  0  0  0
  -10.6379   12.6827  -37.0328 H   0  0  0  0  0  0  0  0  0  0  0  0
  1  3  1  0  0  0  0
  1  4  1  0  0  0  0
  2  3  1  0  0  0  0
  2  5  1  0  0  0  0
  3  7  1  0  0  0  0
  4  5  1  0  0  0  0
  4  6  1  0  0  0  0
  5  6  1  0  0  0  0
  6  7  1  0  0  0  0
  7 11  1  0  0  0  0
  8 11  1  0  0  0  0
  9 11  2  0  0  0  0
 10 11  2  0  0  0  0
  1 12  1  0  0  0  0
  1 13  1  0  0  0  0
  2 14  1  0  0  0  0
  2 15  1  0  0  0  0
  3 16  1  0  0  0  0
  4 17  1  0  0  0  0
  5 18  1  0  0  0  0
  6 19  1  0  0  0  0
  7 20  1  0  0  0  0
  8 21  1  0  0  0  0
  8 22  1  0  0  0  0
M  END
> <id>
EN300-6861220

> <smiles>
NS(=O)(=O)C1C2C3CC1CC32

> <MDLNUMBER>
MFCD32662674

> <IUPAC Name>
tricyclo[2.2.1.0,2,6]heptane-3-sulfonamide

> <CAS>
2413886-23-2

> <Purity>
95

> <URL>
https://www.enaminestore.com/catalog/EN300-6861220

> <ROCS_ShapeQuery>
_x1247relevant_x1083L0AP1_x1305L0BP1_

> <ROCS_TanimotoCombo>
0.841 

> <ROCS_ShapeTanimoto>
0.448 

> <ROCS_ColorTanimoto>
0.394 

> <ROCS_RefTversky>
0.374 

> <ROCS_RefColorTversky>
0.670 

> <ROCS_RefTverskyCombo>
1.043 

> <ROCS_FitTversky>
1.791 

> <ROCS_FitColorTversky>
0.489 

> <ROCS_FitTverskyCombo>
2.279 

> <ROCS_ColorScore>
-14.940

> <ROCS_Overlap>
1097.324

> <ROCS_Rank>
182                 

$$$$
untitled-dbase-148436_9
  -OEChem-06232314393D

 41 42  0     1  0  0  0  0  0999 V2000
  -13.6087   15.8054  -39.3435 C   0  0  0  0  0  0  0  0  0  0  0  0
   -9.2610   14.4027  -36.7887 C   0  0  0  0  0  0  0  0  0  0  0  0
  -12.5218   16.7384  -38.8451 C   0  0  0  0  0  0  0  0  0  0  0  0
  -13.7479   14.6431  -37.1855 C   0  0  0  0  0  0  0  0  0  0  0  0
  -12.6302   15.5581  -36.6605 C   0  0  0  0  0  0  0  0  0  0  0  0
  -12.2440   13.7949  -39.0293 C   0  0  0  0  0  0  0  0  0  0  0  0
  -13.6033   14.4298  -38.6966 C   0  0  2  0  0  0  0  0  0  0  0  0
  -11.6784   15.9513  -37.8163 C   0  0  1  0  0  0  0  0  0  0  0  0
  -11.0802   14.6619  -38.4692 C   0  0  2  0  0  0  0  0  0  0  0  0
  -10.0873   15.0007  -39.5933 C   0  0  0  0  0  0  0  0  0  0  0  0
   -9.9440   14.8046  -34.2952 C   0  0  0  0  0  0  0  0  0  0  0  0
   -9.0037   12.5471  -33.7219 C   0  0  0  0  0  0  0  0  0  0  0  0
   -7.4522   14.4632  -34.2010 C   0  0  0  0  0  0  0  0  0  0  0  0
   -8.7984   13.8227  -34.5361 C   0  0  0  0  0  0  0  0  0  0  0  0
  -10.3451   13.9030  -37.4640 N   0  0  0  0  0  0  0  0  0  0  0  0
  -14.4253   16.1376  -40.1971 O   0  0  0  0  0  0  0  0  0  0  0  0
   -8.7719   15.5189  -36.9282 O   0  0  0  0  0  0  0  0  0  0  0  0
   -8.7965   13.4553  -35.9202 O   0  0  0  0  0  0  0  0  0  0  0  0
  -11.9199   17.0812  -39.6901 H   0  0  0  0  0  0  0  0  0  0  0  0
  -12.9946   17.6065  -38.3741 H   0  0  0  0  0  0  0  0  0  0  0  0
  -13.7147   13.6793  -36.6637 H   0  0  0  0  0  0  0  0  0  0  0  0
  -14.7216   15.0942  -36.9579 H   0  0  0  0  0  0  0  0  0  0  0  0
  -13.0708   16.4591  -36.2160 H   0  0  0  0  0  0  0  0  0  0  0  0
  -12.0855   15.0601  -35.8504 H   0  0  0  0  0  0  0  0  0  0  0  0
  -12.2112   12.7767  -38.6209 H   0  0  0  0  0  0  0  0  0  0  0  0
  -12.1541   13.6842  -40.1181 H   0  0  0  0  0  0  0  0  0  0  0  0
  -14.4267   13.8271  -39.0918 H   0  0  0  0  0  0  0  0  0  0  0  0
  -10.8787   16.5960  -37.4322 H   0  0  0  0  0  0  0  0  0  0  0  0
   -9.2812   15.6051  -39.1898 H   0  0  0  0  0  0  0  0  0  0  0  0
  -10.6025   15.5532  -40.3725 H   0  0  0  0  0  0  0  0  0  0  0  0
   -9.6832   14.0811  -40.0043 H   0  0  0  0  0  0  0  0  0  0  0  0
   -9.8004   15.7215  -34.8779 H   0  0  0  0  0  0  0  0  0  0  0  0
  -10.9118   14.3693  -34.5648 H   0  0  0  0  0  0  0  0  0  0  0  0
   -9.9828   15.1097  -33.2432 H   0  0  0  0  0  0  0  0  0  0  0  0
   -8.1840   11.8397  -33.8917 H   0  0  0  0  0  0  0  0  0  0  0  0
   -9.9228   12.0334  -34.0263 H   0  0  0  0  0  0  0  0  0  0  0  0
   -9.0633   12.7577  -32.6492 H   0  0  0  0  0  0  0  0  0  0  0  0
   -6.6303   13.7591  -34.3737 H   0  0  0  0  0  0  0  0  0  0  0  0
   -7.2713   15.3599  -34.8026 H   0  0  0  0  0  0  0  0  0  0  0  0
   -7.4052   14.7395  -33.1414 H   0  0  0  0  0  0  0  0  0  0  0  0
  -10.6492   12.9639  -37.2549 H   0  0  0  0  0  0  0  0  0  0  0  0
  1  3  1  0  0  0  0
  1  7  1  0  0  0  0
  1 16  2  0  0  0  0
  2 15  1  0  0  0  0
  2 17  2  0  0  0  0
  2 18  1  0  0  0  0
  3  8  1  0  0  0  0
  4  5  1  0  0  0  0
  4  7  1  0  0  0  0
  5  8  1  0  0  0  0
  6  7  1  0  0  0  0
  6  9  1  0  0  0  0
  8  9  1  0  0  0  0
  9 10  1  0  0  0  0
  9 15  1  0  0  0  0
 11 14  1  0  0  0  0
 12 14  1  0  0  0  0
 13 14  1  0  0  0  0
 14 18  1  0  0  0  0
  3 19  1  0  0  0  0
  3 20  1  0  0  0  0
  4 21  1  0  0  0  0
  4 22  1  0  0  0  0
  5 23  1  0  0  0  0
  5 24  1  0  0  0  0
  6 25  1  0  0  0  0
  6 26  1  0  0  0  0
  7 27  1  0  0  0  0
  8 28  1  0  0  0  0
 10 29  1  0  0  0  0
 10 30  1  0  0  0  0
 10 31  1  0  0  0  0
 11 32  1  0  0  0  0
 11 33  1  0  0  0  0
 11 34  1  0  0  0  0
 12 35  1  0  0  0  0
 12 36  1  0  0  0  0
 12 37  1  0  0  0  0
 13 38  1  0  0  0  0
 13 39  1  0  0  0  0
 13 40  1  0  0  0  0
 15 41  1  0  0  0  0
M  END
> <id>
EN300-27686620

> <smiles>
CC(C)(C)OC(=O)NC1(C)CC2CCC1CC2=O

> <MDLNUMBER>
MFCD33549816

> <IUPAC Name>
tert-butyl N-{2-methyl-5-oxobicyclo[2.2.2]octan-2-yl}carbamate

> <CAS>
2639418-07-6

> <Purity>
95

> <URL>
https://www.enaminestore.com/catalog/EN300-27686620

> <ROCS_ShapeQuery>
_x1247relevant_x1083L0AP1_x1305L0BP1_

> <ROCS_TanimotoCombo>
0.841 

> <ROCS_ShapeTanimoto>
0.483 

> <ROCS_ColorTanimoto>
0.358 

> <ROCS_RefTversky>
0.426 

> <ROCS_RefColorTversky>
0.395 

> <ROCS_RefTverskyCombo>
0.821 

> <ROCS_FitTversky>
1.385 

> <ROCS_FitColorTversky>
0.794 

> <ROCS_FitTverskyCombo>
2.179 

> <ROCS_ColorScore>
-8.402

> <ROCS_Overlap>
1256.107

> <ROCS_Rank>
183                 

$$$$
untitled-dbase-143098_48
  -OEChem-06232314393D

 32 33  0     1  0  0  0  0  0999 V2000
  -13.8443   15.0153  -39.0050 C   0  0  0  0  0  0  0  0  0  0  0  0
  -10.5327   14.7835  -36.4891 C   0  0  0  0  0  0  0  0  0  0  0  0
  -14.0419   15.7835  -37.7151 C   0  0  0  0  0  0  0  0  0  0  0  0
  -11.9719   16.3586  -38.7590 C   0  0  0  0  0  0  0  0  0  0  0  0
  -12.3684   15.0186  -39.3600 C   0  0  1  0  0  0  0  0  0  0  0  0
  -11.8926   14.6612  -37.0948 C   0  0  1  0  0  0  0  0  0  0  0  0
  -12.5506   16.0236  -37.3817 C   0  0  2  0  0  0  0  0  0  0  0  0
   -9.1766   12.6292  -37.0468 C   0  0  0  0  0  0  0  0  0  0  0  0
   -8.1632   13.8287  -39.0073 C   0  0  0  0  0  0  0  0  0  0  0  0
   -7.4137   14.3868  -36.6760 C   0  0  0  0  0  0  0  0  0  0  0  0
   -8.5910   13.9492  -37.5463 C   0  0  0  0  0  0  0  0  0  0  0  0
  -11.7259   14.0656  -38.4393 N   0  0  0  0  0  0  0  0  0  0  0  0
  -14.7260   14.4559  -39.6374 O   0  0  0  0  0  0  0  0  0  0  0  0
  -10.3112   14.7349  -35.2867 O   0  0  0  0  0  0  0  0  0  0  0  0
   -9.6077   14.9539  -37.4762 O   0  0  0  0  0  0  0  0  0  0  0  0
  -14.5722   16.7177  -37.9164 H   0  0  0  0  0  0  0  0  0  0  0  0
  -14.5530   15.1799  -36.9625 H   0  0  0  0  0  0  0  0  0  0  0  0
  -10.8903   16.5302  -38.7537 H   0  0  0  0  0  0  0  0  0  0  0  0
  -12.4707   17.2137  -39.2295 H   0  0  0  0  0  0  0  0  0  0  0  0
  -12.1559   14.8835  -40.4201 H   0  0  0  0  0  0  0  0  0  0  0  0
  -12.5041   14.0249  -36.4460 H   0  0  0  0  0  0  0  0  0  0  0  0
  -12.3842   16.7868  -36.6182 H   0  0  0  0  0  0  0  0  0  0  0  0
   -9.4849   12.7116  -35.9984 H   0  0  0  0  0  0  0  0  0  0  0  0
  -10.0434   12.3220  -37.6410 H   0  0  0  0  0  0  0  0  0  0  0  0
   -8.4283   11.8294  -37.0871 H   0  0  0  0  0  0  0  0  0  0  0  0
   -7.7424   14.7735  -39.3698 H   0  0  0  0  0  0  0  0  0  0  0  0
   -9.0238   13.6077  -39.6490 H   0  0  0  0  0  0  0  0  0  0  0  0
   -7.4160   13.0406  -39.1459 H   0  0  0  0  0  0  0  0  0  0  0  0
   -6.9934   15.3336  -37.0341 H   0  0  0  0  0  0  0  0  0  0  0  0
   -7.7108   14.5142  -35.6300 H   0  0  0  0  0  0  0  0  0  0  0  0
   -6.6019   13.6518  -36.7204 H   0  0  0  0  0  0  0  0  0  0  0  0
  -12.1886   13.1586  -38.4859 H   0  0  0  0  0  0  0  0  0  0  0  0
  1  3  1  0  0  0  0
  1  5  1  0  0  0  0
  1 13  2  0  0  0  0
  2  6  1  1  0  0  0
  2 14  2  0  0  0  0
  2 15  1  0  0  0  0
  3  7  1  6  0  0  0
  4  5  1  0  0  0  0
  4  7  1  0  0  0  0
  5 12  1  6  0  0  0
  6  7  1  0  0  0  0
  6 12  1  0  0  0  0
  8 11  1  0  0  0  0
  9 11  1  0  0  0  0
 10 11  1  0  0  0  0
 11 15  1  0  0  0  0
  3 16  1  0  0  0  0
  3 17  1  0  0  0  0
  4 18  1  0  0  0  0
  4 19  1  0  0  0  0
  5 20  1  0  0  0  0
  6 21  1  0  0  0  0
  7 22  1  0  0  0  0
  8 23  1  0  0  0  0
  8 24  1  0  0  0  0
  8 25  1  0  0  0  0
  9 26  1  0  0  0  0
  9 27  1  0  0  0  0
  9 28  1  0  0  0  0
 10 29  1  0  0  0  0
 10 30  1  0  0  0  0
 10 31  1  0  0  0  0
 12 32  1  0  0  0  0
M  END
> <id>
EN300-27727773

> <smiles>
CC(C)(C)OC(=O)[C@@H]1N[C@@H]2C[C@H]1CC2=O |&1:7,9,11,r|

> <IUPAC Name>
rac-tert-butyl (1R,3R,4S)-6-oxo-2-azabicyclo[2.2.1]heptane-3-carboxylate

> <CAS>
2580099-26-7

> <URL>
https://www.enaminestore.com/catalog/EN300-27727773

> <ROCS_ShapeQuery>
_x1247relevant_x1083L0AP1_x1305L0BP1_

> <ROCS_TanimotoCombo>
0.841 

> <ROCS_ShapeTanimoto>
0.483 

> <ROCS_ColorTanimoto>
0.358 

> <ROCS_RefTversky>
0.414 

> <ROCS_RefColorTversky>
0.411 

> <ROCS_RefTverskyCombo>
0.824 

> <ROCS_FitTversky>
1.537 

> <ROCS_FitColorTversky>
0.735 

> <ROCS_FitTverskyCombo>
2.272 

> <ROCS_ColorScore>
-8.757

> <ROCS_Overlap>
1217.998

> <ROCS_Rank>
184                 

$$$$
untitled-dbase-69256_41
  -OEChem-06232314393D

 29 30  0     1  0  0  0  0  0999 V2000
  -11.9996   16.9017  -40.3710 C   0  0  0  0  0  0  0  0  0  0  0  0
  -10.1914   14.6213  -36.4040 C   0  0  0  0  0  0  0  0  0  0  0  0
  -13.4754   13.8684  -38.7839 C   0  0  0  0  0  0  0  0  0  0  0  0
  -12.4845   14.5032  -39.7779 C   0  0  0  0  0  0  0  0  0  0  0  0
  -12.6974   14.9178  -36.6084 C   0  0  0  0  0  0  0  0  0  0  0  0
  -11.1109   15.9838  -38.2395 C   0  0  0  0  0  0  0  0  0  0  0  0
  -13.7450   14.9583  -37.7312 C   0  0  1  0  0  0  0  0  0  0  0  0
  -12.2611   15.9358  -39.2565 C   0  0  1  0  0  0  0  0  0  0  0  0
  -13.5782   16.2238  -38.5528 C   0  0  0  0  0  0  0  0  0  0  0  0
   -8.9995   14.2360  -37.2448 C   0  0  0  0  0  0  0  0  0  0  0  0
  -11.3158   15.0868  -37.0931 N   0  0  0  0  0  0  0  0  0  0  0  0
  -12.7700   17.1386  -41.2896 O   0  0  0  0  0  0  0  0  0  0  0  0
  -10.1261   14.5192  -35.1764 O   0  0  0  0  0  0  0  0  0  0  0  0
  -10.7832   17.4818  -40.2263 O   0  0  0  0  0  0  0  0  0  0  0  0
  -14.5943   16.3445  -39.4380 F   0  0  0  0  0  0  0  0  0  0  0  0
  -13.5536   17.3377  -37.8027 F   0  0  0  0  0  0  0  0  0  0  0  0
   -9.2628   14.4236  -38.5500 F   0  0  0  0  0  0  0  0  0  0  0  0
   -7.9291   14.9816  -36.9182 F   0  0  0  0  0  0  0  0  0  0  0  0
   -8.6848   12.9418  -37.0590 F   0  0  0  0  0  0  0  0  0  0  0  0
  -14.4034   13.6144  -39.3098 H   0  0  0  0  0  0  0  0  0  0  0  0
  -13.0814   12.9455  -38.3458 H   0  0  0  0  0  0  0  0  0  0  0  0
  -11.5517   13.9303  -39.8298 H   0  0  0  0  0  0  0  0  0  0  0  0
  -12.9193   14.4999  -40.7849 H   0  0  0  0  0  0  0  0  0  0  0  0
  -12.8804   15.7284  -35.8929 H   0  0  0  0  0  0  0  0  0  0  0  0
  -12.7915   13.9748  -36.0627 H   0  0  0  0  0  0  0  0  0  0  0  0
  -10.1585   15.7417  -38.7271 H   0  0  0  0  0  0  0  0  0  0  0  0
  -10.9992   16.9968  -37.8311 H   0  0  0  0  0  0  0  0  0  0  0  0
  -14.7519   14.8658  -37.3127 H   0  0  0  0  0  0  0  0  0  0  0  0
  -10.5921   18.1174  -40.9487 H   0  0  0  0  0  0  0  0  0  0  0  0
  1  8  1  0  0  0  0
  1 12  2  0  0  0  0
  1 14  1  0  0  0  0
  2 10  1  0  0  0  0
  2 11  1  0  0  0  0
  2 13  2  0  0  0  0
  3  4  1  0  0  0  0
  3  7  1  0  0  0  0
  4  8  1  0  0  0  0
  5  7  1  0  0  0  0
  5 11  1  0  0  0  0
  6  8  1  0  0  0  0
  6 11  1  0  0  0  0
  7  9  1  0  0  0  0
  8  9  1  0  0  0  0
  9 15  1  0  0  0  0
  9 16  1  0  0  0  0
 10 17  1  0  0  0  0
 10 18  1  0  0  0  0
 10 19  1  0  0  0  0
  3 20  1  0  0  0  0
  3 21  1  0  0  0  0
  4 22  1  0  0  0  0
  4 23  1  0  0  0  0
  5 24  1  0  0  0  0
  5 25  1  0  0  0  0
  6 26  1  0  0  0  0
  6 27  1  0  0  0  0
  7 28  1  0  0  0  0
 14 29  1  0  0  0  0
M  END
> <id>
EN300-37419389

> <smiles>
OC(=O)C1(CCC2CN(C1)C(=O)C(F)(F)F)C2(F)F

> <IUPAC Name>
8,8-difluoro-3-(2,2,2-trifluoroacetyl)-3-azabicyclo[3.2.1]octane-1-carboxylic acid

> <URL>
https://www.enaminestore.com/catalog/EN300-37419389

> <ROCS_ShapeQuery>
_x1247relevant_x1083L0AP1_x1305L0BP1_

> <ROCS_TanimotoCombo>
0.841 

> <ROCS_ShapeTanimoto>
0.552 

> <ROCS_ColorTanimoto>
0.290 

> <ROCS_RefTversky>
0.475 

> <ROCS_RefColorTversky>
0.335 

> <ROCS_RefTverskyCombo>
0.810 

> <ROCS_FitTversky>
1.410 

> <ROCS_FitColorTversky>
0.682 

> <ROCS_FitTverskyCombo>
2.092 

> <ROCS_ColorScore>
-7.111

> <ROCS_Overlap>
1404.840

> <ROCS_Rank>
185                 

$$$$
untitled-dbase-164236_3
  -OEChem-06232314393D

 36 38  0     1  0  0  0  0  0999 V2000
  -10.8495   14.3623  -36.3872 C   0  0  0  0  0  0  0  0  0  0  0  0
   -9.4577   13.8642  -36.1218 C   0  0  0  0  0  0  0  0  0  0  0  0
  -13.7369   13.9585  -38.1157 C   0  0  0  0  0  0  0  0  0  0  0  0
  -14.0600   15.2394  -37.3194 C   0  0  0  0  0  0  0  0  0  0  0  0
  -11.3265   14.3267  -38.8739 C   0  0  0  0  0  0  0  0  0  0  0  0
  -11.8203   16.4904  -37.4618 C   0  0  0  0  0  0  0  0  0  0  0  0
   -8.7272   14.3481  -37.3580 C   0  0  0  0  0  0  0  0  0  0  0  0
  -12.8088   14.3350  -39.2817 C   0  0  2  0  0  0  0  0  0  0  0  0
  -13.2808   16.4023  -37.9454 C   0  0  1  0  0  0  0  0  0  0  0  0
  -10.9199   15.2311  -37.6604 C   0  0  0  0  0  0  0  0  0  0  0  0
   -7.5252   16.9447  -37.3002 C   0  0  0  0  0  0  0  0  0  0  0  0
   -8.9842   16.7250  -37.0861 C   0  0  0  0  0  0  0  0  0  0  0  0
   -9.4556   15.5460  -37.8218 N   0  0  1  0  0  0  0  0  0  0  0  0
  -11.7851   14.0979  -35.6444 O   0  0  0  0  0  0  0  0  0  0  0  0
  -12.2325   16.6940  -40.3831 O   0  0  0  0  0  0  0  0  0  0  0  0
  -14.6575   16.0033  -40.1728 O   0  0  0  0  0  0  0  0  0  0  0  0
  -13.2938   16.0020  -39.6851 S   0  0  0  0  0  0  0  0  0  0  0  0
   -9.0501   14.3023  -35.2081 H   0  0  0  0  0  0  0  0  0  0  0  0
   -9.4771   12.7719  -36.0617 H   0  0  0  0  0  0  0  0  0  0  0  0
  -13.3231   13.1632  -37.4910 H   0  0  0  0  0  0  0  0  0  0  0  0
  -14.6768   13.5616  -38.5210 H   0  0  0  0  0  0  0  0  0  0  0  0
  -15.1358   15.4354  -37.4093 H   0  0  0  0  0  0  0  0  0  0  0  0
  -13.8615   15.1315  -36.2503 H   0  0  0  0  0  0  0  0  0  0  0  0
  -11.0224   13.2901  -38.6784 H   0  0  0  0  0  0  0  0  0  0  0  0
  -10.7571   14.6317  -39.7608 H   0  0  0  0  0  0  0  0  0  0  0  0
  -11.3874   17.3561  -37.9833 H   0  0  0  0  0  0  0  0  0  0  0  0
  -11.8280   16.7838  -36.3980 H   0  0  0  0  0  0  0  0  0  0  0  0
   -7.6759   14.5934  -37.1141 H   0  0  0  0  0  0  0  0  0  0  0  0
   -8.7042   13.5614  -38.1329 H   0  0  0  0  0  0  0  0  0  0  0  0
  -12.9730   13.6937  -40.1503 H   0  0  0  0  0  0  0  0  0  0  0  0
  -13.7948   17.3572  -37.8014 H   0  0  0  0  0  0  0  0  0  0  0  0
   -7.3298   17.0940  -38.3723 H   0  0  0  0  0  0  0  0  0  0  0  0
   -7.2028   17.8356  -36.7413 H   0  0  0  0  0  0  0  0  0  0  0  0
   -6.9662   16.0666  -36.9445 H   0  0  0  0  0  0  0  0  0  0  0  0
   -9.1711   16.5766  -36.0123 H   0  0  0  0  0  0  0  0  0  0  0  0
   -9.5356   17.6104  -37.4354 H   0  0  0  0  0  0  0  0  0  0  0  0
  1  2  1  0  0  0  0
  1 10  1  0  0  0  0
  1 14  2  0  0  0  0
  2  7  1  0  0  0  0
  3  4  1  0  0  0  0
  3  8  1  0  0  0  0
  4  9  1  0  0  0  0
  5  8  1  0  0  0  0
  5 10  1  0  0  0  0
  6  9  1  0  0  0  0
  6 10  1  0  0  0  0
  7 13  1  0  0  0  0
  8 17  1  0  0  0  0
  9 17  1  0  0  0  0
 10 13  1  0  0  0  0
 11 12  1  0  0  0  0
 12 13  1  0  0  0  0
 15 17  2  0  0  0  0
 16 17  2  0  0  0  0
  2 18  1  0  0  0  0
  2 19  1  0  0  0  0
  3 20  1  0  0  0  0
  3 21  1  0  0  0  0
  4 22  1  0  0  0  0
  4 23  1  0  0  0  0
  5 24  1  0  0  0  0
  5 25  1  0  0  0  0
  6 26  1  0  0  0  0
  6 27  1  0  0  0  0
  7 28  1  0  0  0  0
  7 29  1  0  0  0  0
  8 30  1  0  0  0  0
  9 31  1  0  0  0  0
 11 32  1  0  0  0  0
 11 33  1  0  0  0  0
 11 34  1  0  0  0  0
 12 35  1  0  0  0  0
 12 36  1  0  0  0  0
M  END
> <id>
EN300-785483

> <smiles>
CCN1CCC(=O)C21CC3CCC(C2)S3(=O)=O

> <IUPAC Name>
1'-ethyl-8lambda6-thiaspiro[bicyclo[3.2.1]octane-3,2'-pyrrolidine]-3',8,8-trione

> <CAS>
2138381-13-0

> <URL>
https://www.enaminestore.com/catalog/EN300-785483

> <ROCS_ShapeQuery>
_x1247relevant_x1083L0AP1_x1305L0BP1_

> <ROCS_TanimotoCombo>
0.841 

> <ROCS_ShapeTanimoto>
0.506 

> <ROCS_ColorTanimoto>
0.335 

> <ROCS_RefTversky>
0.433 

> <ROCS_RefColorTversky>
0.383 

> <ROCS_RefTverskyCombo>
0.817 

> <ROCS_FitTversky>
1.493 

> <ROCS_FitColorTversky>
0.728 

> <ROCS_FitTverskyCombo>
2.221 

> <ROCS_ColorScore>
-8.164

> <ROCS_Overlap>
1277.238

> <ROCS_Rank>
186                 

$$$$
untitled-dbase-180243_0
  -OEChem-06232314393D

 22 24  0     0  0  0  0  0  0999 V2000
  -11.9645   16.1743  -38.9214 C   0  0  0  0  0  0  0  0  0  0  0  0
  -13.3747   15.5282  -37.4615 C   0  0  0  0  0  0  0  0  0  0  0  0
  -12.6854   14.1700  -38.9520 C   0  0  0  0  0  0  0  0  0  0  0  0
  -10.0882   15.7035  -36.1488 C   0  0  0  0  0  0  0  0  0  0  0  0
   -9.4203   14.3895  -37.5897 C   0  0  0  0  0  0  0  0  0  0  0  0
  -10.7910   14.5903  -36.9338 C   0  0  0  0  0  0  0  0  0  0  0  0
  -11.9248   15.0117  -37.8438 C   0  0  0  0  0  0  0  0  0  0  0  0
  -13.3795   15.5525  -39.0093 C   0  0  0  0  0  0  0  0  0  0  0  0
   -8.7919   15.2823  -36.6382 O   0  0  0  0  0  0  0  0  0  0  0  0
  -14.4296   15.9479  -39.8552 O   0  0  0  0  0  0  0  0  0  0  0  0
  -11.8899   17.1989  -38.5427 H   0  0  0  0  0  0  0  0  0  0  0  0
  -11.3117   16.0607  -39.7931 H   0  0  0  0  0  0  0  0  0  0  0  0
  -14.0394   14.8104  -36.9699 H   0  0  0  0  0  0  0  0  0  0  0  0
  -13.4347   16.4918  -36.9450 H   0  0  0  0  0  0  0  0  0  0  0  0
  -12.1012   13.8659  -39.8266 H   0  0  0  0  0  0  0  0  0  0  0  0
  -13.2844   13.3228  -38.6024 H   0  0  0  0  0  0  0  0  0  0  0  0
  -10.3043   16.7347  -36.4454 H   0  0  0  0  0  0  0  0  0  0  0  0
  -10.1547   15.6146  -35.0607 H   0  0  0  0  0  0  0  0  0  0  0  0
   -9.0198   13.3743  -37.5167 H   0  0  0  0  0  0  0  0  0  0  0  0
   -9.3003   14.7577  -38.6134 H   0  0  0  0  0  0  0  0  0  0  0  0
  -11.0882   13.7142  -36.2735 H   0  0  0  0  0  0  0  0  0  0  0  0
  -15.1906   15.3643  -39.6754 H   0  0  0  0  0  0  0  0  0  0  0  0
  1  7  1  0  0  0  0
  1  8  1  0  0  0  0
  2  7  1  0  0  0  0
  2  8  1  0  0  0  0
  3  7  1  0  0  0  0
  3  8  1  0  0  0  0
  4  6  1  0  0  0  0
  4  9  1  0  0  0  0
  5  6  1  0  0  0  0
  5  9  1  0  0  0  0
  6  7  1  6  0  0  0
  8 10  1  6  0  0  0
  1 11  1  0  0  0  0
  1 12  1  0  0  0  0
  2 13  1  0  0  0  0
  2 14  1  0  0  0  0
  3 15  1  0  0  0  0
  3 16  1  0  0  0  0
  4 17  1  0  0  0  0
  4 18  1  0  0  0  0
  5 19  1  0  0  0  0
  5 20  1  0  0  0  0
  6 21  1  0  0  0  0
 10 22  1  0  0  0  0
M  END
> <id>
EN300-37274754

> <smiles>
O[C@]1(C[C@]2(C1)C3COC3)C2

> <IUPAC Name>
3-(oxetan-3-yl)bicyclo[1.1.1]pentan-1-ol

> <CAS>
2751620-38-7

> <URL>
https://www.enaminestore.com/catalog/EN300-37274754

> <ROCS_ShapeQuery>
_x1247relevant_x1083L0AP1_x1305L0BP1_

> <ROCS_TanimotoCombo>
0.841 

> <ROCS_ShapeTanimoto>
0.430 

> <ROCS_ColorTanimoto>
0.411 

> <ROCS_RefTversky>
0.359 

> <ROCS_RefColorTversky>
0.455 

> <ROCS_RefTverskyCombo>
0.815 

> <ROCS_FitTversky>
1.844 

> <ROCS_FitColorTversky>
0.807 

> <ROCS_FitTverskyCombo>
2.651 

> <ROCS_ColorScore>
-9.716

> <ROCS_Overlap>
1054.084

> <ROCS_Rank>
187                 

$$$$
untitled-dbase-66928_0
  -OEChem-06232314393D

 22 24  0     0  0  0  0  0  0999 V2000
  -12.6798   14.1750  -38.9618 C   0  0  0  0  0  0  0  0  0  0  0  0
  -13.3767   15.5182  -37.4625 C   0  0  0  0  0  0  0  0  0  0  0  0
  -11.9657   16.1814  -38.9152 C   0  0  0  0  0  0  0  0  0  0  0  0
  -10.0914   15.6936  -36.1432 C   0  0  0  0  0  0  0  0  0  0  0  0
   -9.4188   14.3911  -37.5923 C   0  0  0  0  0  0  0  0  0  0  0  0
  -10.7910   14.5847  -36.9373 C   0  0  0  0  0  0  0  0  0  0  0  0
  -11.9241   15.0108  -37.8461 C   0  0  0  0  0  0  0  0  0  0  0  0
  -13.3784   15.5556  -39.0103 C   0  0  0  0  0  0  0  0  0  0  0  0
   -8.7936   15.2781  -36.6334 O   0  0  0  0  0  0  0  0  0  0  0  0
  -14.4313   15.9452  -39.8552 O   0  0  0  0  0  0  0  0  0  0  0  0
  -12.0926   13.8788  -39.8372 H   0  0  0  0  0  0  0  0  0  0  0  0
  -13.2774   13.3236  -38.6199 H   0  0  0  0  0  0  0  0  0  0  0  0
  -14.0391   14.7937  -36.9776 H   0  0  0  0  0  0  0  0  0  0  0  0
  -13.4416   16.4775  -36.9387 H   0  0  0  0  0  0  0  0  0  0  0  0
  -11.8950   17.2033  -38.5286 H   0  0  0  0  0  0  0  0  0  0  0  0
  -11.3114   16.0763  -39.7867 H   0  0  0  0  0  0  0  0  0  0  0  0
  -10.3089   16.7265  -36.4327 H   0  0  0  0  0  0  0  0  0  0  0  0
  -10.1597   15.5967  -35.0558 H   0  0  0  0  0  0  0  0  0  0  0  0
   -9.0167   13.3761  -37.5260 H   0  0  0  0  0  0  0  0  0  0  0  0
   -9.2977   14.7669  -38.6132 H   0  0  0  0  0  0  0  0  0  0  0  0
  -11.0878   13.7035  -36.2838 H   0  0  0  0  0  0  0  0  0  0  0  0
  -15.1873   15.3544  -39.6782 H   0  0  0  0  0  0  0  0  0  0  0  0
  1  7  1  0  0  0  0
  1  8  1  0  0  0  0
  2  7  1  0  0  0  0
  2  8  1  0  0  0  0
  3  7  1  0  0  0  0
  3  8  1  0  0  0  0
  4  6  1  0  0  0  0
  4  9  1  0  0  0  0
  5  6  1  0  0  0  0
  5  9  1  0  0  0  0
  6  7  1  0  0  0  0
  8 10  1  0  0  0  0
  1 11  1  0  0  0  0
  1 12  1  0  0  0  0
  2 13  1  0  0  0  0
  2 14  1  0  0  0  0
  3 15  1  0  0  0  0
  3 16  1  0  0  0  0
  4 17  1  0  0  0  0
  4 18  1  0  0  0  0
  5 19  1  0  0  0  0
  5 20  1  0  0  0  0
  6 21  1  0  0  0  0
 10 22  1  0  0  0  0
M  END
> <id>
EN300-37153681

> <smiles>
OC1(CC2(C1)C3COC3)C2

> <MDLNUMBER>
MFCD34594495

> <IUPAC Name>
3-(oxetan-3-yl)bicyclo[1.1.1]pentan-1-ol

> <CAS>
2751620-38-7

> <Purity>
95

> <URL>
https://www.enaminestore.com/catalog/EN300-37153681

> <ROCS_ShapeQuery>
_x1247relevant_x1083L0AP1_x1305L0BP1_

> <ROCS_TanimotoCombo>
0.841 

> <ROCS_ShapeTanimoto>
0.430 

> <ROCS_ColorTanimoto>
0.410 

> <ROCS_RefTversky>
0.359 

> <ROCS_RefColorTversky>
0.455 

> <ROCS_RefTverskyCombo>
0.815 

> <ROCS_FitTversky>
1.844 

> <ROCS_FitColorTversky>
0.807 

> <ROCS_FitTverskyCombo>
2.651 

> <ROCS_ColorScore>
-9.711

> <ROCS_Overlap>
1054.102

> <ROCS_Rank>
188                 

$$$$
untitled-dbase-77539_96
  -OEChem-06232314393D

 34 35  0     1  0  0  0  0  0999 V2000
  -13.2622   16.4417  -40.3127 C   0  0  0  0  0  0  0  0  0  0  0  0
   -9.8846   14.8705  -37.0208 C   0  0  0  0  0  0  0  0  0  0  0  0
  -12.7816   14.2725  -39.0616 C   0  0  0  0  0  0  0  0  0  0  0  0
  -11.3095   16.1173  -38.7168 C   0  0  0  0  0  0  0  0  0  0  0  0
  -13.2994   15.0828  -36.9447 C   0  0  0  0  0  0  0  0  0  0  0  0
  -12.2442   14.2225  -37.6418 C   0  0  2  0  0  0  0  0  0  0  0  0
  -12.7682   15.7969  -39.0636 C   0  0  1  0  0  0  0  0  0  0  0  0
  -10.3525   15.4165  -34.5023 C   0  0  0  0  0  0  0  0  0  0  0  0
  -10.6485   12.9597  -34.0713 C   0  0  0  0  0  0  0  0  0  0  0  0
   -8.3472   13.8969  -34.4368 C   0  0  0  0  0  0  0  0  0  0  0  0
   -9.8251   14.0150  -34.8064 C   0  0  0  0  0  0  0  0  0  0  0  0
  -11.0387   15.0509  -37.7524 N   0  0  0  0  0  0  0  0  0  0  0  0
  -12.6065   17.1888  -41.0235 O   0  0  0  0  0  0  0  0  0  0  0  0
   -8.9019   15.6049  -37.0854 O   0  0  0  0  0  0  0  0  0  0  0  0
  -13.5724   16.1320  -37.9169 O   0  0  0  0  0  0  0  0  0  0  0  0
  -14.5478   16.0889  -40.5574 O   0  0  0  0  0  0  0  0  0  0  0  0
   -9.9649   13.7703  -36.2104 O   0  0  0  0  0  0  0  0  0  0  0  0
  -12.1206   13.8197  -39.8083 H   0  0  0  0  0  0  0  0  0  0  0  0
  -13.7876   13.8476  -39.1508 H   0  0  0  0  0  0  0  0  0  0  0  0
  -10.6205   16.0206  -39.5619 H   0  0  0  0  0  0  0  0  0  0  0  0
  -11.1775   17.0877  -38.2284 H   0  0  0  0  0  0  0  0  0  0  0  0
  -14.2309   14.5354  -36.7685 H   0  0  0  0  0  0  0  0  0  0  0  0
  -12.9557   15.5307  -36.0076 H   0  0  0  0  0  0  0  0  0  0  0  0
  -12.0627   13.2440  -37.1954 H   0  0  0  0  0  0  0  0  0  0  0  0
   -9.7640   16.1769  -35.0282 H   0  0  0  0  0  0  0  0  0  0  0  0
  -11.4019   15.5249  -34.7952 H   0  0  0  0  0  0  0  0  0  0  0  0
  -10.2662   15.6434  -33.4335 H   0  0  0  0  0  0  0  0  0  0  0  0
  -10.2736   11.9526  -34.2866 H   0  0  0  0  0  0  0  0  0  0  0  0
  -11.6927   12.9780  -34.4038 H   0  0  0  0  0  0  0  0  0  0  0  0
  -10.6270   13.1133  -32.9875 H   0  0  0  0  0  0  0  0  0  0  0  0
   -7.9686   12.8917  -34.6548 H   0  0  0  0  0  0  0  0  0  0  0  0
   -7.7356   14.6225  -34.9829 H   0  0  0  0  0  0  0  0  0  0  0  0
   -8.2003   14.0563  -33.3624 H   0  0  0  0  0  0  0  0  0  0  0  0
  -14.8981   15.4817  -39.8711 H   0  0  0  0  0  0  0  0  0  0  0  0
  1  7  1  6  0  0  0
  1 13  2  0  0  0  0
  1 16  1  0  0  0  0
  2 12  1  0  0  0  0
  2 14  2  0  0  0  0
  2 17  1  0  0  0  0
  3  6  1  0  0  0  0
  3  7  1  0  0  0  0
  4  7  1  0  0  0  0
  4 12  1  0  0  0  0
  5  6  1  1  0  0  0
  5 15  1  0  0  0  0
  6 12  1  0  0  0  0
  7 15  1  0  0  0  0
  8 11  1  0  0  0  0
  9 11  1  0  0  0  0
 10 11  1  0  0  0  0
 11 17  1  0  0  0  0
  3 18  1  0  0  0  0
  3 19  1  0  0  0  0
  4 20  1  0  0  0  0
  4 21  1  0  0  0  0
  5 22  1  0  0  0  0
  5 23  1  0  0  0  0
  6 24  1  0  0  0  0
  8 25  1  0  0  0  0
  8 26  1  0  0  0  0
  8 27  1  0  0  0  0
  9 28  1  0  0  0  0
  9 29  1  0  0  0  0
  9 30  1  0  0  0  0
 10 31  1  0  0  0  0
 10 32  1  0  0  0  0
 10 33  1  0  0  0  0
 16 34  1  0  0  0  0
M  END
> <id>
EN300-6498224

> <smiles>
CC(C)(C)OC(=O)N1C[C@]2(C[C@@H]1CO2)C(=O)O

> <MDLNUMBER>
MFCD31802547

> <IUPAC Name>
(1R,4R)-5-[(tert-butoxy)carbonyl]-2-oxa-5-azabicyclo[2.2.1]heptane-1-carboxylic acid

> <CAS>
2408936-49-0

> <Purity>
95

> <URL>
https://www.enaminestore.com/catalog/EN300-6498224

> <ROCS_ShapeQuery>
_x1247relevant_x1083L0AP1_x1305L0BP1_

> <ROCS_TanimotoCombo>
0.841 

> <ROCS_ShapeTanimoto>
0.521 

> <ROCS_ColorTanimoto>
0.319 

> <ROCS_RefTversky>
0.446 

> <ROCS_RefColorTversky>
0.388 

> <ROCS_RefTverskyCombo>
0.834 

> <ROCS_FitTversky>
1.479 

> <ROCS_FitColorTversky>
0.642 

> <ROCS_FitTverskyCombo>
2.121 

> <ROCS_ColorScore>
-8.304

> <ROCS_Overlap>
1315.512

> <ROCS_Rank>
189                 

$$$$
untitled-dbase-142072_4
  -OEChem-06232314393D

 25 26  0     1  0  0  0  0  0999 V2000
  -12.7012   13.9822  -39.1952 C   0  0  0  0  0  0  0  0  0  0  0  0
  -12.8321   13.8014  -37.8713 C   0  0  0  0  0  0  0  0  0  0  0  0
  -13.7086   16.2302  -39.0878 C   0  0  0  0  0  0  0  0  0  0  0  0
  -13.8746   16.0036  -37.5651 C   0  0  0  0  0  0  0  0  0  0  0  0
  -11.2290   15.9341  -38.8906 C   0  0  0  0  0  0  0  0  0  0  0  0
  -12.4986   15.4230  -39.6129 C   0  0  1  0  0  0  0  0  0  0  0  0
  -12.7501   15.0743  -37.0506 C   0  0  2  0  0  0  0  0  0  0  0  0
  -11.4033   15.7760  -37.3589 C   0  0  1  0  0  0  0  0  0  0  0  0
  -10.1335   13.4469  -37.4776 N   0  0  0  0  0  0  0  0  0  0  0  0
   -8.8175   15.6097  -37.0224 O   0  0  0  0  0  0  0  0  0  0  0  0
  -10.3444   14.6861  -35.2333 O   0  0  0  0  0  0  0  0  0  0  0  0
  -10.0326   14.9215  -36.6301 S   0  0  0  0  0  0  0  0  0  0  0  0
  -12.7363   13.1721  -39.9109 H   0  0  0  0  0  0  0  0  0  0  0  0
  -12.9830   12.8313  -37.4171 H   0  0  0  0  0  0  0  0  0  0  0  0
  -14.6262   15.9250  -39.6062 H   0  0  0  0  0  0  0  0  0  0  0  0
  -13.5703   17.2986  -39.2915 H   0  0  0  0  0  0  0  0  0  0  0  0
  -13.8483   16.9660  -37.0403 H   0  0  0  0  0  0  0  0  0  0  0  0
  -14.8586   15.5614  -37.3639 H   0  0  0  0  0  0  0  0  0  0  0  0
  -10.3476   15.3920  -39.2556 H   0  0  0  0  0  0  0  0  0  0  0  0
  -11.0672   16.9921  -39.1312 H   0  0  0  0  0  0  0  0  0  0  0  0
  -12.4006   15.5142  -40.6986 H   0  0  0  0  0  0  0  0  0  0  0  0
  -12.8685   14.8628  -35.9832 H   0  0  0  0  0  0  0  0  0  0  0  0
  -11.3887   16.7675  -36.8891 H   0  0  0  0  0  0  0  0  0  0  0  0
   -9.4099   13.2464  -38.1788 H   0  0  0  0  0  0  0  0  0  0  0  0
  -10.4499   12.6175  -36.9604 H   0  0  0  0  0  0  0  0  0  0  0  0
  1  2  2  0  0  0  0
  1  6  1  0  0  0  0
  2  7  1  0  0  0  0
  3  4  1  0  0  0  0
  3  6  1  0  0  0  0
  4  7  1  0  0  0  0
  5  6  1  0  0  0  0
  5  8  1  0  0  0  0
  7  8  1  0  0  0  0
  8 12  1  0  0  0  0
  9 12  1  0  0  0  0
 10 12  2  0  0  0  0
 11 12  2  0  0  0  0
  1 13  1  0  0  0  0
  2 14  1  0  0  0  0
  3 15  1  0  0  0  0
  3 16  1  0  0  0  0
  4 17  1  0  0  0  0
  4 18  1  0  0  0  0
  5 19  1  0  0  0  0
  5 20  1  0  0  0  0
  6 21  1  0  0  0  0
  7 22  1  0  0  0  0
  8 23  1  0  0  0  0
  9 24  1  0  0  0  0
  9 25  1  0  0  0  0
M  END
> <id>
EN300-27733463

> <smiles>
NS(=O)(=O)C1CC2CCC1C=C2

> <IUPAC Name>
bicyclo[2.2.2]oct-5-ene-2-sulfonamide

> <CAS>
2580205-90-7

> <URL>
https://www.enaminestore.com/catalog/EN300-27733463

> <ROCS_ShapeQuery>
_x1247relevant_x1083L0AP1_x1305L0BP1_

> <ROCS_TanimotoCombo>
0.840 

> <ROCS_ShapeTanimoto>
0.460 

> <ROCS_ColorTanimoto>
0.380 

> <ROCS_RefTversky>
0.383 

> <ROCS_RefColorTversky>
0.401 

> <ROCS_RefTverskyCombo>
0.784 

> <ROCS_FitTversky>
1.777 

> <ROCS_FitColorTversky>
0.879 

> <ROCS_FitTverskyCombo>
2.656 

> <ROCS_ColorScore>
-8.507

> <ROCS_Overlap>
1125.218

> <ROCS_Rank>
190                 

$$$$
untitled-dbase-118041_42
  -OEChem-06232314393D

 36 37  0     1  0  0  0  0  0999 V2000
  -10.0881   15.2716  -37.0294 C   0  0  0  0  0  0  0  0  0  0  0  0
  -12.9793   16.2946  -37.0498 C   0  0  0  0  0  0  0  0  0  0  0  0
  -12.7676   16.3993  -39.5268 C   0  0  0  0  0  0  0  0  0  0  0  0
  -13.6698   14.9292  -37.1622 C   0  0  0  0  0  0  0  0  0  0  0  0
  -13.4200   15.0151  -39.6625 C   0  0  0  0  0  0  0  0  0  0  0  0
  -10.9898   15.2689  -38.2221 C   0  0  2  0  0  0  0  0  0  0  0  0
  -11.9750   16.4553  -38.2074 C   0  0  0  0  0  0  0  0  0  0  0  0
  -13.1502   14.1773  -38.3991 C   0  0  0  0  0  0  0  0  0  0  0  0
   -8.5612   13.9148  -35.0483 C   0  0  0  0  0  0  0  0  0  0  0  0
  -10.7112   12.7660  -34.4426 C   0  0  0  0  0  0  0  0  0  0  0  0
   -9.7312   12.4578  -36.7344 C   0  0  0  0  0  0  0  0  0  0  0  0
   -9.9130   13.4249  -35.5655 C   0  0  0  0  0  0  0  0  0  0  0  0
  -11.6980   13.9801  -38.2337 N   0  0  0  0  0  0  0  0  0  0  0  0
   -9.0044   15.8383  -36.9910 O   0  0  0  0  0  0  0  0  0  0  0  0
  -10.6629   14.5552  -36.0217 O   0  0  0  0  0  0  0  0  0  0  0  0
  -13.7280   17.0954  -37.0813 H   0  0  0  0  0  0  0  0  0  0  0  0
  -12.4753   16.3815  -36.0806 H   0  0  0  0  0  0  0  0  0  0  0  0
  -12.1044   16.5830  -40.3805 H   0  0  0  0  0  0  0  0  0  0  0  0
  -13.5347   17.1824  -39.5488 H   0  0  0  0  0  0  0  0  0  0  0  0
  -13.4873   14.3439  -36.2524 H   0  0  0  0  0  0  0  0  0  0  0  0
  -14.7554   15.0677  -37.2327 H   0  0  0  0  0  0  0  0  0  0  0  0
  -14.4994   15.1295  -39.8176 H   0  0  0  0  0  0  0  0  0  0  0  0
  -13.0279   14.5035  -40.5502 H   0  0  0  0  0  0  0  0  0  0  0  0
  -10.3463   15.3398  -39.1079 H   0  0  0  0  0  0  0  0  0  0  0  0
  -11.4468   17.4107  -38.1148 H   0  0  0  0  0  0  0  0  0  0  0  0
  -13.6434   13.2027  -38.4768 H   0  0  0  0  0  0  0  0  0  0  0  0
   -7.9852   14.3884  -35.8514 H   0  0  0  0  0  0  0  0  0  0  0  0
   -8.6786   14.6358  -34.2328 H   0  0  0  0  0  0  0  0  0  0  0  0
   -7.9546   13.0773  -34.6853 H   0  0  0  0  0  0  0  0  0  0  0  0
  -11.6819   12.4129  -34.8092 H   0  0  0  0  0  0  0  0  0  0  0  0
  -10.9259   13.4842  -33.6430 H   0  0  0  0  0  0  0  0  0  0  0  0
  -10.1739   11.9159  -34.0100 H   0  0  0  0  0  0  0  0  0  0  0  0
  -10.7006   12.1062  -37.1056 H   0  0  0  0  0  0  0  0  0  0  0  0
   -9.1923   12.9255  -37.5648 H   0  0  0  0  0  0  0  0  0  0  0  0
   -9.1785   11.5652  -36.4194 H   0  0  0  0  0  0  0  0  0  0  0  0
  -11.3418   13.4095  -39.0003 H   0  0  0  0  0  0  0  0  0  0  0  0
  1  6  1  1  0  0  0
  1 14  2  0  0  0  0
  1 15  1  0  0  0  0
  2  4  1  0  0  0  0
  2  7  1  1  0  0  0
  3  5  1  0  0  0  0
  3  7  1  0  0  0  0
  4  8  1  1  0  0  0
  5  8  1  0  0  0  0
  6  7  1  0  0  0  0
  6 13  1  0  0  0  0
  8 13  1  0  0  0  0
  9 12  1  0  0  0  0
 10 12  1  0  0  0  0
 11 12  1  0  0  0  0
 12 15  1  0  0  0  0
  2 16  1  0  0  0  0
  2 17  1  0  0  0  0
  3 18  1  0  0  0  0
  3 19  1  0  0  0  0
  4 20  1  0  0  0  0
  4 21  1  0  0  0  0
  5 22  1  0  0  0  0
  5 23  1  0  0  0  0
  6 24  1  0  0  0  0
  7 25  1  0  0  0  0
  8 26  1  0  0  0  0
  9 27  1  0  0  0  0
  9 28  1  0  0  0  0
  9 29  1  0  0  0  0
 10 30  1  0  0  0  0
 10 31  1  0  0  0  0
 10 32  1  0  0  0  0
 11 33  1  0  0  0  0
 11 34  1  0  0  0  0
 11 35  1  0  0  0  0
 13 36  1  0  0  0  0
M  END
> <id>
EN300-6508169

> <smiles>
CC(C)(C)OC(=O)[C@H]1N[C@H]2CC[C@@H]1CC2

> <IUPAC Name>
tert-butyl (1R,3S,4s)-2-azabicyclo[2.2.2]octane-3-carboxylate

> <CAS>
2248186-35-6

> <URL>
https://www.enaminestore.com/catalog/EN300-6508169

> <ROCS_ShapeQuery>
_x1247relevant_x1083L0AP1_x1305L0BP1_

> <ROCS_TanimotoCombo>
0.840 

> <ROCS_ShapeTanimoto>
0.478 

> <ROCS_ColorTanimoto>
0.362 

> <ROCS_RefTversky>
0.409 

> <ROCS_RefColorTversky>
0.398 

> <ROCS_RefTverskyCombo>
0.808 

> <ROCS_FitTversky>
1.546 

> <ROCS_FitColorTversky>
0.798 

> <ROCS_FitTverskyCombo>
2.344 

> <ROCS_ColorScore>
-8.469

> <ROCS_Overlap>
1204.725

> <ROCS_Rank>
191                 

$$$$
untitled-dbase-146567_944
  -OEChem-06232314393D

 38 39  0     1  0  0  0  0  0999 V2000
   -9.6355   14.2923  -36.2325 C   0  0  0  0  0  0  0  0  0  0  0  0
  -12.7255   13.3772  -38.1173 C   0  0  0  0  0  0  0  0  0  0  0  0
  -11.9000   16.4242  -38.4677 C   0  0  0  0  0  0  0  0  0  0  0  0
  -13.5937   14.6389  -38.3546 C   0  0  1  0  0  0  0  0  0  0  0  0
  -12.5929   15.4615  -37.4954 C   0  0  1  0  0  0  0  0  0  0  0  0
  -12.0044   14.1212  -36.9849 C   0  0  2  0  0  0  0  0  0  0  0  0
  -12.1573   15.8512  -39.8580 C   0  0  1  0  0  0  0  0  0  0  0  0
  -13.5552   15.2407  -39.7545 C   0  0  2  0  0  0  0  0  0  0  0  0
   -7.9519   16.1217  -35.4173 C   0  0  0  0  0  0  0  0  0  0  0  0
   -6.1049   14.8709  -36.5722 C   0  0  0  0  0  0  0  0  0  0  0  0
   -7.7611   16.1870  -37.9261 C   0  0  0  0  0  0  0  0  0  0  0  0
   -7.5543   15.3420  -36.6699 C   0  0  0  0  0  0  0  0  0  0  0  0
  -10.5680   14.0722  -37.2169 N   0  0  0  0  0  0  0  0  0  0  0  0
   -9.8732   14.5525  -35.0576 O   0  0  0  0  0  0  0  0  0  0  0  0
  -12.1013   16.8504  -40.8572 O   0  0  0  0  0  0  0  0  0  0  0  0
  -14.5701   16.2369  -39.8554 O   0  0  0  0  0  0  0  0  0  0  0  0
   -8.3814   14.1767  -36.7630 O   0  0  0  0  0  0  0  0  0  0  0  0
  -13.2820   12.4828  -37.8061 H   0  0  0  0  0  0  0  0  0  0  0  0
  -12.0780   13.0946  -38.9616 H   0  0  0  0  0  0  0  0  0  0  0  0
  -12.2989   17.4473  -38.3539 H   0  0  0  0  0  0  0  0  0  0  0  0
  -10.8133   16.4645  -38.2726 H   0  0  0  0  0  0  0  0  0  0  0  0
  -14.5970   14.5775  -37.9032 H   0  0  0  0  0  0  0  0  0  0  0  0
  -13.0889   16.0318  -36.6877 H   0  0  0  0  0  0  0  0  0  0  0  0
  -12.2746   13.8431  -36.0105 H   0  0  0  0  0  0  0  0  0  0  0  0
  -11.4036   15.0737  -40.1305 H   0  0  0  0  0  0  0  0  0  0  0  0
  -13.7151   14.4925  -40.5113 H   0  0  0  0  0  0  0  0  0  0  0  0
   -8.9916   16.4616  -35.4836 H   0  0  0  0  0  0  0  0  0  0  0  0
   -7.8413   15.5150  -34.5126 H   0  0  0  0  0  0  0  0  0  0  0  0
   -7.3384   17.0231  -35.3067 H   0  0  0  0  0  0  0  0  0  0  0  0
   -5.8154   14.3110  -37.4688 H   0  0  0  0  0  0  0  0  0  0  0  0
   -5.9729   14.1875  -35.7255 H   0  0  0  0  0  0  0  0  0  0  0  0
   -5.4142   15.7114  -36.4502 H   0  0  0  0  0  0  0  0  0  0  0  0
   -7.4760   15.6280  -38.8247 H   0  0  0  0  0  0  0  0  0  0  0  0
   -8.8038   16.5034  -38.0322 H   0  0  0  0  0  0  0  0  0  0  0  0
   -7.1267   17.0805  -37.9035 H   0  0  0  0  0  0  0  0  0  0  0  0
  -10.2399   13.8656  -38.1504 H   0  0  0  0  0  0  0  0  0  0  0  0
  -12.7870   17.5003  -40.6377 H   0  0  0  0  0  0  0  0  0  0  0  0
  -15.4201   15.7951  -39.6898 H   0  0  0  0  0  0  0  0  0  0  0  0
  1 13  1  0  0  0  0
  1 14  2  0  0  0  0
  1 17  1  0  0  0  0
  2  4  1  1  0  0  0
  2  6  1  0  0  0  0
  3  5  1  1  0  0  0
  3  7  1  0  0  0  0
  4  5  1  0  0  0  0
  4  8  1  0  0  0  0
  5  6  1  0  0  0  0
  6 13  1  1  0  0  0
  7  8  1  0  0  0  0
  7 15  1  6  0  0  0
  8 16  1  6  0  0  0
  9 12  1  0  0  0  0
 10 12  1  0  0  0  0
 11 12  1  0  0  0  0
 12 17  1  0  0  0  0
  2 18  1  0  0  0  0
  2 19  1  0  0  0  0
  3 20  1  0  0  0  0
  3 21  1  0  0  0  0
  4 22  1  0  0  0  0
  5 23  1  0  0  0  0
  6 24  1  0  0  0  0
  7 25  1  0  0  0  0
  8 26  1  0  0  0  0
  9 27  1  0  0  0  0
  9 28  1  0  0  0  0
  9 29  1  0  0  0  0
 10 30  1  0  0  0  0
 10 31  1  0  0  0  0
 10 32  1  0  0  0  0
 11 33  1  0  0  0  0
 11 34  1  0  0  0  0
 11 35  1  0  0  0  0
 13 36  1  0  0  0  0
 15 37  1  0  0  0  0
 16 38  1  0  0  0  0
M  END
> <id>
EN300-28228707

> <smiles>
CC(C)(C)OC(=O)N[C@@H]1C[C@H]2[C@@H]1C[C@H](O)[C@@H]2O |&1:8,10,11,13,15,r|

> <IUPAC Name>
rac-tert-butyl N-[(1R,2S,3R,5R,6S)-2,3-dihydroxybicyclo[3.2.0]heptan-6-yl]carbamate

> <CAS>
2639391-89-0

> <URL>
https://www.enaminestore.com/catalog/EN300-28228707

> <ROCS_ShapeQuery>
_x1247relevant_x1083L0AP1_x1305L0BP1_

> <ROCS_TanimotoCombo>
0.840 

> <ROCS_ShapeTanimoto>
0.475 

> <ROCS_ColorTanimoto>
0.366 

> <ROCS_RefTversky>
0.416 

> <ROCS_RefColorTversky>
0.427 

> <ROCS_RefTverskyCombo>
0.842 

> <ROCS_FitTversky>
1.426 

> <ROCS_FitColorTversky>
0.718 

> <ROCS_FitTverskyCombo>
2.144 

> <ROCS_ColorScore>
-9.121

> <ROCS_Overlap>
1225.367

> <ROCS_Rank>
192                 

$$$$
untitled-dbase-64806_2
  -OEChem-06232314393D

 36 38  0     1  0  0  0  0  0999 V2000
  -10.0030   15.2658  -36.6548 C   0  0  0  0  0  0  0  0  0  0  0  0
  -11.6644   13.8145  -37.7882 C   0  0  0  0  0  0  0  0  0  0  0  0
  -12.4169   15.8874  -36.5841 C   0  0  0  0  0  0  0  0  0  0  0  0
  -11.1219   16.0784  -38.7259 C   0  0  0  0  0  0  0  0  0  0  0  0
  -14.1033   14.4204  -37.7342 C   0  0  0  0  0  0  0  0  0  0  0  0
  -12.8054   14.6172  -39.8759 C   0  0  0  0  0  0  0  0  0  0  0  0
  -13.5586   16.6857  -38.6736 C   0  0  0  0  0  0  0  0  0  0  0  0
  -11.2892   15.2658  -37.4310 C   0  0  0  0  0  0  0  0  0  0  0  0
  -12.9857   13.7796  -38.5908 C   0  0  1  0  0  0  0  0  0  0  0  0
  -13.7496   15.8815  -37.3687 C   0  0  2  0  0  0  0  0  0  0  0  0
  -12.4360   16.0672  -39.5236 C   0  0  0  0  0  0  0  0  0  0  0  0
  -13.3518   12.3357  -38.9462 C   0  0  0  0  0  0  0  0  0  0  0  0
  -14.8654   16.5016  -36.5230 C   0  0  0  0  0  0  0  0  0  0  0  0
   -8.9757   15.8312  -36.9988 O   0  0  0  0  0  0  0  0  0  0  0  0
  -10.1329   14.5469  -35.5131 O   0  0  0  0  0  0  0  0  0  0  0  0
  -12.2585   16.8236  -40.7135 O   0  0  0  0  0  0  0  0  0  0  0  0
  -10.8562   13.3496  -38.3696 H   0  0  0  0  0  0  0  0  0  0  0  0
  -11.7616   13.2148  -36.8727 H   0  0  0  0  0  0  0  0  0  0  0  0
  -12.5320   15.3322  -35.6430 H   0  0  0  0  0  0  0  0  0  0  0  0
  -12.1493   16.9142  -36.2990 H   0  0  0  0  0  0  0  0  0  0  0  0
  -10.8240   17.1122  -38.5025 H   0  0  0  0  0  0  0  0  0  0  0  0
  -10.3056   15.6747  -39.3408 H   0  0  0  0  0  0  0  0  0  0  0  0
  -15.0547   14.3934  -38.2824 H   0  0  0  0  0  0  0  0  0  0  0  0
  -14.2551   13.8329  -36.8187 H   0  0  0  0  0  0  0  0  0  0  0  0
  -12.0278   14.1811  -40.5176 H   0  0  0  0  0  0  0  0  0  0  0  0
  -13.7233   14.6020  -40.4791 H   0  0  0  0  0  0  0  0  0  0  0  0
  -14.4924   16.7138  -39.2512 H   0  0  0  0  0  0  0  0  0  0  0  0
  -13.3205   17.7349  -38.4522 H   0  0  0  0  0  0  0  0  0  0  0  0
  -14.2816   12.3230  -39.5099 H   0  0  0  0  0  0  0  0  0  0  0  0
  -13.4757   11.7557  -38.0348 H   0  0  0  0  0  0  0  0  0  0  0  0
  -12.5600   11.8959  -39.5480 H   0  0  0  0  0  0  0  0  0  0  0  0
  -15.7969   16.4922  -37.0841 H   0  0  0  0  0  0  0  0  0  0  0  0
  -14.6066   17.5276  -36.2727 H   0  0  0  0  0  0  0  0  0  0  0  0
  -14.9910   15.9284  -35.6075 H   0  0  0  0  0  0  0  0  0  0  0  0
   -9.3017   14.5332  -34.9922 H   0  0  0  0  0  0  0  0  0  0  0  0
  -13.1031   16.7962  -41.1917 H   0  0  0  0  0  0  0  0  0  0  0  0
  1  8  1  0  0  0  0
  1 14  2  0  0  0  0
  1 15  1  0  0  0  0
  2  8  1  0  0  0  0
  2  9  1  0  0  0  0
  3  8  1  0  0  0  0
  3 10  1  0  0  0  0
  4  8  1  0  0  0  0
  4 11  1  0  0  0  0
  5  9  1  0  0  0  0
  5 10  1  0  0  0  0
  6  9  1  0  0  0  0
  6 11  1  0  0  0  0
  7 10  1  0  0  0  0
  7 11  1  0  0  0  0
  9 12  1  0  0  0  0
 10 13  1  0  0  0  0
 11 16  1  0  0  0  0
  2 17  1  0  0  0  0
  2 18  1  0  0  0  0
  3 19  1  0  0  0  0
  3 20  1  0  0  0  0
  4 21  1  0  0  0  0
  4 22  1  0  0  0  0
  5 23  1  0  0  0  0
  5 24  1  0  0  0  0
  6 25  1  0  0  0  0
  6 26  1  0  0  0  0
  7 27  1  0  0  0  0
  7 28  1  0  0  0  0
 12 29  1  0  0  0  0
 12 30  1  0  0  0  0
 12 31  1  0  0  0  0
 13 32  1  0  0  0  0
 13 33  1  0  0  0  0
 13 34  1  0  0  0  0
 15 35  1  0  0  0  0
 16 36  1  0  0  0  0
M  END
> <id>
EN300-1725646

> <smiles>
CC1(CC2(C)CC3(O)C1)CC(C2)(C3)C(=O)O

> <MDLNUMBER>
MFCD31666673

> <IUPAC Name>
3-hydroxy-5,7-dimethyladamantane-1-carboxylic acid

> <CAS>
14575-03-2

> <Purity>
95

> <URL>
https://www.enaminestore.com/catalog/EN300-1725646

> <MP>
228-230

> <ROCS_ShapeQuery>
_x1247relevant_x1083L0AP1_x1305L0BP1_

> <ROCS_TanimotoCombo>
0.840 

> <ROCS_ShapeTanimoto>
0.501 

> <ROCS_ColorTanimoto>
0.339 

> <ROCS_RefTversky>
0.429 

> <ROCS_RefColorTversky>
0.395 

> <ROCS_RefTverskyCombo>
0.824 

> <ROCS_FitTversky>
1.505 

> <ROCS_FitColorTversky>
0.703 

> <ROCS_FitTverskyCombo>
2.208 

> <ROCS_ColorScore>
-8.432

> <ROCS_Overlap>
1264.965

> <ROCS_Rank>
193                 

$$$$
untitled-dbase-108876_3
  -OEChem-06232314393D

 28 30  0     1  0  0  0  0  0999 V2000
   -9.5630   15.9003  -40.6489 C   0  0  0  0  0  0  0  0  0  0  0  0
  -10.5477   15.7156  -39.9876 C   0  0  0  0  0  0  0  0  0  0  0  0
  -10.1801   14.7971  -37.1400 C   0  0  0  0  0  0  0  0  0  0  0  0
  -12.7444   14.4841  -39.7517 C   0  0  0  0  0  0  0  0  0  0  0  0
  -12.6918   16.6856  -39.0698 C   0  0  0  0  0  0  0  0  0  0  0  0
  -12.4857   13.8030  -37.5674 C   0  0  0  0  0  0  0  0  0  0  0  0
  -12.4299   16.0036  -36.8861 C   0  0  0  0  0  0  0  0  0  0  0  0
  -13.5488   14.4678  -38.4472 C   0  0  1  0  0  0  0  0  0  0  0  0
  -13.5111   15.9991  -37.9721 C   0  0  2  0  0  0  0  0  0  0  0  0
  -11.7364   15.4922  -39.1889 C   0  0  0  0  0  0  0  0  0  0  0  0
  -11.5543   15.0177  -37.6683 C   0  0  0  0  0  0  0  0  0  0  0  0
   -8.7915   13.1703  -36.1352 C   0  0  0  0  0  0  0  0  0  0  0  0
   -9.3022   15.6495  -37.1366 O   0  0  0  0  0  0  0  0  0  0  0  0
  -10.0701   13.5202  -36.6747 O   0  0  0  0  0  0  0  0  0  0  0  0
   -8.6896   16.0643  -41.2357 H   0  0  0  0  0  0  0  0  0  0  0  0
  -12.3030   13.5190  -40.0261 H   0  0  0  0  0  0  0  0  0  0  0  0
  -13.3199   14.8469  -40.6108 H   0  0  0  0  0  0  0  0  0  0  0  0
  -13.2720   16.8966  -39.9754 H   0  0  0  0  0  0  0  0  0  0  0  0
  -12.2044   17.6168  -38.7586 H   0  0  0  0  0  0  0  0  0  0  0  0
  -12.8373   13.5840  -36.5530 H   0  0  0  0  0  0  0  0  0  0  0  0
  -12.0565   12.8828  -37.9796 H   0  0  0  0  0  0  0  0  0  0  0  0
  -11.9535   16.9753  -36.7142 H   0  0  0  0  0  0  0  0  0  0  0  0
  -12.7842   15.6278  -35.9198 H   0  0  0  0  0  0  0  0  0  0  0  0
  -14.5240   13.9830  -38.4830 H   0  0  0  0  0  0  0  0  0  0  0  0
  -14.4629   16.4621  -37.7132 H   0  0  0  0  0  0  0  0  0  0  0  0
   -8.8112   12.1327  -35.7931 H   0  0  0  0  0  0  0  0  0  0  0  0
   -8.5524   13.8355  -35.3017 H   0  0  0  0  0  0  0  0  0  0  0  0
   -8.0344   13.2802  -36.9153 H   0  0  0  0  0  0  0  0  0  0  0  0
  1  2  3  0  0  0  0
  2 10  1  0  0  0  0
  3 11  1  0  0  0  0
  3 13  2  0  0  0  0
  3 14  1  0  0  0  0
  4  8  1  0  0  0  0
  4 10  1  0  0  0  0
  5  9  1  0  0  0  0
  5 10  1  0  0  0  0
  6  8  1  0  0  0  0
  6 11  1  0  0  0  0
  7  9  1  0  0  0  0
  7 11  1  0  0  0  0
  8  9  1  0  0  0  0
 10 11  1  0  0  0  0
 12 14  1  0  0  0  0
  1 15  1  0  0  0  0
  4 16  1  0  0  0  0
  4 17  1  0  0  0  0
  5 18  1  0  0  0  0
  5 19  1  0  0  0  0
  6 20  1  0  0  0  0
  6 21  1  0  0  0  0
  7 22  1  0  0  0  0
  7 23  1  0  0  0  0
  8 24  1  0  0  0  0
  9 25  1  0  0  0  0
 12 26  1  0  0  0  0
 12 27  1  0  0  0  0
 12 28  1  0  0  0  0
M  END
> <id>
EN300-26865954

> <smiles>
COC(=O)C12CC3CC2(CC3C1)C#C

> <MDLNUMBER>
MFCD32859388

> <IUPAC Name>
methyl 5-ethynyltricyclo[3.3.0.0,3,7]octane-1-carboxylate

> <CAS>
2445791-92-2

> <Purity>
95

> <URL>
https://www.enaminestore.com/catalog/EN300-26865954

> <ROCS_ShapeQuery>
_x1247relevant_x1083L0AP1_x1305L0BP1_

> <ROCS_TanimotoCombo>
0.840 

> <ROCS_ShapeTanimoto>
0.508 

> <ROCS_ColorTanimoto>
0.332 

> <ROCS_RefTversky>
0.425 

> <ROCS_RefColorTversky>
0.526 

> <ROCS_RefTverskyCombo>
0.951 

> <ROCS_FitTversky>
1.624 

> <ROCS_FitColorTversky>
0.473 

> <ROCS_FitTverskyCombo>
2.097 

> <ROCS_ColorScore>
-11.560

> <ROCS_Overlap>
1251.313

> <ROCS_Rank>
194                 

$$$$
untitled-dbase-40443_1
  -OEChem-06232314393D

 39 41  0     1  0  0  0  0  0999 V2000
  -13.5941   13.8741  -38.2644 C   0  0  0  0  0  0  0  0  0  0  0  0
  -13.9494   15.0739  -37.3584 C   0  0  0  0  0  0  0  0  0  0  0  0
   -8.6590   14.2367  -37.3902 C   0  0  0  0  0  0  0  0  0  0  0  0
  -11.2246   14.4587  -39.0451 C   0  0  0  0  0  0  0  0  0  0  0  0
  -11.7711   16.4543  -37.4949 C   0  0  0  0  0  0  0  0  0  0  0  0
   -9.6870   13.3708  -36.6698 C   0  0  0  0  0  0  0  0  0  0  0  0
   -9.3692   15.5684  -37.5992 C   0  0  2  0  0  0  0  0  0  0  0  0
  -12.7185   14.3882  -39.4180 C   0  0  2  0  0  0  0  0  0  0  0  0
  -13.2506   16.3264  -37.9137 C   0  0  1  0  0  0  0  0  0  0  0  0
  -10.8744   15.1818  -37.6803 C   0  0  0  0  0  0  0  0  0  0  0  0
  -11.1219   13.5709  -34.2208 C   0  0  0  0  0  0  0  0  0  0  0  0
  -11.0742   14.6780  -35.2181 C   0  0  0  0  0  0  0  0  0  0  0  0
  -10.9422   14.1558  -36.5827 N   0  0  2  0  0  0  0  0  0  0  0  0
   -8.8170   16.3312  -38.7123 N   0  0  0  0  0  0  0  0  0  0  0  0
  -14.7044   16.0000  -40.1088 O   0  0  0  0  0  0  0  0  0  0  0  0
  -12.3397   16.8553  -40.3724 O   0  0  0  0  0  0  0  0  0  0  0  0
  -13.3217   16.0496  -39.6803 S   0  0  0  0  0  0  0  0  0  0  0  0
  -13.1195   13.0594  -37.7095 H   0  0  0  0  0  0  0  0  0  0  0  0
  -14.5263   13.4625  -38.6722 H   0  0  0  0  0  0  0  0  0  0  0  0
  -15.0365   15.2234  -37.4032 H   0  0  0  0  0  0  0  0  0  0  0  0
  -13.7225   14.8820  -36.3089 H   0  0  0  0  0  0  0  0  0  0  0  0
   -7.7445   14.3627  -36.8007 H   0  0  0  0  0  0  0  0  0  0  0  0
   -8.3832   13.7682  -38.3431 H   0  0  0  0  0  0  0  0  0  0  0  0
  -10.8362   13.4330  -39.0525 H   0  0  0  0  0  0  0  0  0  0  0  0
  -10.6971   14.9587  -39.8665 H   0  0  0  0  0  0  0  0  0  0  0  0
  -11.3351   17.2789  -38.0729 H   0  0  0  0  0  0  0  0  0  0  0  0
  -11.7285   16.8131  -36.4611 H   0  0  0  0  0  0  0  0  0  0  0  0
   -9.8725   12.4540  -37.2414 H   0  0  0  0  0  0  0  0  0  0  0  0
   -9.3119   13.0436  -35.6924 H   0  0  0  0  0  0  0  0  0  0  0  0
   -9.2088   16.1861  -36.6899 H   0  0  0  0  0  0  0  0  0  0  0  0
  -12.8654   13.8113  -40.3353 H   0  0  0  0  0  0  0  0  0  0  0  0
  -13.8023   17.2415  -37.6812 H   0  0  0  0  0  0  0  0  0  0  0  0
  -10.1976   12.9781  -34.2858 H   0  0  0  0  0  0  0  0  0  0  0  0
  -11.2164   13.9927  -33.2092 H   0  0  0  0  0  0  0  0  0  0  0  0
  -11.9871   12.9251  -34.4311 H   0  0  0  0  0  0  0  0  0  0  0  0
  -12.0013   15.2657  -35.1468 H   0  0  0  0  0  0  0  0  0  0  0  0
  -10.2123   15.3244  -34.9961 H   0  0  0  0  0  0  0  0  0  0  0  0
   -9.3000   17.1975  -38.7692 H   0  0  0  0  0  0  0  0  0  0  0  0
   -7.8503   16.4819  -38.5396 H   0  0  0  0  0  0  0  0  0  0  0  0
  1  2  1  0  0  0  0
  1  8  1  0  0  0  0
  2  9  1  0  0  0  0
  3  6  1  0  0  0  0
  3  7  1  0  0  0  0
  4  8  1  0  0  0  0
  4 10  1  0  0  0  0
  5  9  1  0  0  0  0
  5 10  1  0  0  0  0
  6 13  1  0  0  0  0
  7 10  1  0  0  0  0
  7 14  1  0  0  0  0
  8 17  1  0  0  0  0
  9 17  1  0  0  0  0
 10 13  1  0  0  0  0
 11 12  1  0  0  0  0
 12 13  1  0  0  0  0
 15 17  2  0  0  0  0
 16 17  2  0  0  0  0
  1 18  1  0  0  0  0
  1 19  1  0  0  0  0
  2 20  1  0  0  0  0
  2 21  1  0  0  0  0
  3 22  1  0  0  0  0
  3 23  1  0  0  0  0
  4 24  1  0  0  0  0
  4 25  1  0  0  0  0
  5 26  1  0  0  0  0
  5 27  1  0  0  0  0
  6 28  1  0  0  0  0
  6 29  1  0  0  0  0
  7 30  1  0  0  0  0
  8 31  1  0  0  0  0
  9 32  1  0  0  0  0
 11 33  1  0  0  0  0
 11 34  1  0  0  0  0
 11 35  1  0  0  0  0
 12 36  1  0  0  0  0
 12 37  1  0  0  0  0
 14 38  1  0  0  0  0
 14 39  1  0  0  0  0
M  END
> <id>
EN300-785651

> <smiles>
CCN1CCC(N)C21CC3CCC(C2)S3(=O)=O

> <IUPAC Name>
3'-amino-1'-ethyl-8lambda6-thiaspiro[bicyclo[3.2.1]octane-3,2'-pyrrolidine]-8,8-dione

> <CAS>
2137509-89-6

> <URL>
https://www.enaminestore.com/catalog/EN300-785651

> <ROCS_ShapeQuery>
_x1247relevant_x1083L0AP1_x1305L0BP1_

> <ROCS_TanimotoCombo>
0.840 

> <ROCS_ShapeTanimoto>
0.503 

> <ROCS_ColorTanimoto>
0.337 

> <ROCS_RefTversky>
0.431 

> <ROCS_RefColorTversky>
0.395 

> <ROCS_RefTverskyCombo>
0.826 

> <ROCS_FitTversky>
1.501 

> <ROCS_FitColorTversky>
0.694 

> <ROCS_FitTverskyCombo>
2.195 

> <ROCS_ColorScore>
-8.430

> <ROCS_Overlap>
1269.666

> <ROCS_Rank>
195                 

$$$$
untitled-dbase-148837_163
  -OEChem-06232314393D

 39 40  0     1  0  0  0  0  0999 V2000
   -9.1085   14.3185  -37.0478 C   0  0  0  0  0  0  0  0  0  0  0  0
  -12.6062   13.8616  -38.4842 C   0  0  0  0  0  0  0  0  0  0  0  0
  -11.0515   15.8424  -38.7891 C   0  0  0  0  0  0  0  0  0  0  0  0
  -12.1190   15.1378  -36.5888 C   0  0  0  0  0  0  0  0  0  0  0  0
  -13.7230   14.8722  -38.2599 C   0  0  2  0  0  0  0  0  0  0  0  0
  -12.1767   16.3047  -39.7287 C   0  0  2  0  0  0  0  0  0  0  0  0
  -13.5713   16.1497  -39.1062 C   0  0  1  0  0  0  0  0  0  0  0  0
  -11.4491   14.6453  -37.8805 C   0  0  1  0  0  0  0  0  0  0  0  0
   -8.8809   13.4180  -34.6018 C   0  0  0  0  0  0  0  0  0  0  0  0
   -7.4234   11.5651  -35.4687 C   0  0  0  0  0  0  0  0  0  0  0  0
   -6.5115   13.8992  -35.3011 C   0  0  0  0  0  0  0  0  0  0  0  0
   -7.7550   13.0524  -35.5681 C   0  0  0  0  0  0  0  0  0  0  0  0
  -10.2786   13.8276  -37.5970 N   0  0  0  0  0  0  0  0  0  0  0  0
   -8.9046   15.4862  -36.7323 O   0  0  0  0  0  0  0  0  0  0  0  0
  -13.5230   15.2736  -36.8836 O   0  0  0  0  0  0  0  0  0  0  0  0
  -12.0831   15.5277  -40.9281 O   0  0  0  0  0  0  0  0  0  0  0  0
  -14.5672   16.1596  -40.1249 O   0  0  0  0  0  0  0  0  0  0  0  0
   -8.2013   13.3066  -36.9048 O   0  0  0  0  0  0  0  0  0  0  0  0
  -12.8034   12.9511  -37.9043 H   0  0  0  0  0  0  0  0  0  0  0  0
  -12.4598   13.5798  -39.5306 H   0  0  0  0  0  0  0  0  0  0  0  0
  -10.1618   15.5784  -39.3856 H   0  0  0  0  0  0  0  0  0  0  0  0
  -10.7394   16.7006  -38.1715 H   0  0  0  0  0  0  0  0  0  0  0  0
  -12.0346   14.4040  -35.7771 H   0  0  0  0  0  0  0  0  0  0  0  0
  -11.7214   16.0936  -36.2289 H   0  0  0  0  0  0  0  0  0  0  0  0
  -14.7100   14.4321  -38.3734 H   0  0  0  0  0  0  0  0  0  0  0  0
  -12.0045   17.3337  -40.0046 H   0  0  0  0  0  0  0  0  0  0  0  0
  -13.7674   17.0429  -38.4724 H   0  0  0  0  0  0  0  0  0  0  0  0
   -9.1219   14.4849  -34.6701 H   0  0  0  0  0  0  0  0  0  0  0  0
   -9.7898   12.8425  -34.8052 H   0  0  0  0  0  0  0  0  0  0  0  0
   -8.5803   13.2348  -33.5639 H   0  0  0  0  0  0  0  0  0  0  0  0
   -6.6161   11.2983  -36.1603 H   0  0  0  0  0  0  0  0  0  0  0  0
   -8.2873   10.9528  -35.7518 H   0  0  0  0  0  0  0  0  0  0  0  0
   -7.1179   11.2860  -34.4551 H   0  0  0  0  0  0  0  0  0  0  0  0
   -5.7038   13.6372  -35.9940 H   0  0  0  0  0  0  0  0  0  0  0  0
   -6.7220   14.9687  -35.4043 H   0  0  0  0  0  0  0  0  0  0  0  0
   -6.1247   13.7162  -34.2920 H   0  0  0  0  0  0  0  0  0  0  0  0
  -10.3244   12.8341  -37.8163 H   0  0  0  0  0  0  0  0  0  0  0  0
  -12.7975   15.8284  -41.5124 H   0  0  0  0  0  0  0  0  0  0  0  0
  -15.4249   16.1419  -39.6728 H   0  0  0  0  0  0  0  0  0  0  0  0
  1 13  1  0  0  0  0
  1 14  2  0  0  0  0
  1 18  1  0  0  0  0
  2  5  1  0  0  0  0
  2  8  1  0  0  0  0
  3  6  1  0  0  0  0
  3  8  1  0  0  0  0
  4  8  1  0  0  0  0
  4 15  1  0  0  0  0
  5  7  1  0  0  0  0
  5 15  1  0  0  0  0
  6  7  1  0  0  0  0
  6 16  1  1  0  0  0
  7 17  1  1  0  0  0
  8 13  1  0  0  0  0
  9 12  1  0  0  0  0
 10 12  1  0  0  0  0
 11 12  1  0  0  0  0
 12 18  1  0  0  0  0
  2 19  1  0  0  0  0
  2 20  1  0  0  0  0
  3 21  1  0  0  0  0
  3 22  1  0  0  0  0
  4 23  1  0  0  0  0
  4 24  1  0  0  0  0
  5 25  1  0  0  0  0
  6 26  1  0  0  0  0
  7 27  1  0  0  0  0
  9 28  1  0  0  0  0
  9 29  1  0  0  0  0
  9 30  1  0  0  0  0
 10 31  1  0  0  0  0
 10 32  1  0  0  0  0
 10 33  1  0  0  0  0
 11 34  1  0  0  0  0
 11 35  1  0  0  0  0
 11 36  1  0  0  0  0
 13 37  1  0  0  0  0
 16 38  1  0  0  0  0
 17 39  1  0  0  0  0
M  END
> <id>
EN300-28228815

> <smiles>
CC(C)(C)OC(=O)NC1(COC2C1)C[C@@H](O)[C@H]2O |&1:14,16,r|

> <IUPAC Name>
rac-tert-butyl N-[(3R,4R)-3,4-dihydroxy-6-oxabicyclo[3.2.1]octan-1-yl]carbamate

> <CAS>
2731012-67-0

> <URL>
https://www.enaminestore.com/catalog/EN300-28228815

> <ROCS_ShapeQuery>
_x1247relevant_x1083L0AP1_x1305L0BP1_

> <ROCS_TanimotoCombo>
0.839 

> <ROCS_ShapeTanimoto>
0.493 

> <ROCS_ColorTanimoto>
0.347 

> <ROCS_RefTversky>
0.432 

> <ROCS_RefColorTversky>
0.429 

> <ROCS_RefTverskyCombo>
0.861 

> <ROCS_FitTversky>
1.397 

> <ROCS_FitColorTversky>
0.645 

> <ROCS_FitTverskyCombo>
2.041 

> <ROCS_ColorScore>
-9.201

> <ROCS_Overlap>
1275.275

> <ROCS_Rank>
196                 

$$$$
untitled-dbase-132444_24
  -OEChem-06232314393D

 38 41  0     1  0  0  0  0  0999 V2000
  -10.8184   13.0992  -33.0447 C   0  0  0  0  0  0  0  0  0  0  0  0
  -10.4487   12.4766  -34.2608 C   0  0  0  0  0  0  0  0  0  0  0  0
  -10.5911   14.4444  -33.2198 C   0  0  0  0  0  0  0  0  0  0  0  0
  -10.0221   13.4858  -35.0924 C   0  0  0  0  0  0  0  0  0  0  0  0
  -12.6628   14.1983  -39.6241 C   0  0  0  0  0  0  0  0  0  0  0  0
  -12.2426   16.5857  -39.1515 C   0  0  0  0  0  0  0  0  0  0  0  0
   -8.4626   14.5850  -36.8836 C   0  0  0  0  0  0  0  0  0  0  0  0
  -13.9402   14.3534  -38.7832 C   0  0  0  0  0  0  0  0  0  0  0  0
  -13.4211   16.6227  -38.1674 C   0  0  0  0  0  0  0  0  0  0  0  0
  -12.5922   14.7828  -36.8398 C   0  0  0  0  0  0  0  0  0  0  0  0
   -9.0978   15.8870  -37.3669 C   0  0  0  0  0  0  0  0  0  0  0  0
   -9.4963   13.5054  -36.5216 C   0  0  2  0  0  0  0  0  0  0  0  0
  -11.5981   15.1850  -39.1079 C   0  0  0  0  0  0  0  0  0  0  0  0
  -11.2459   14.8454  -37.6241 C   0  0  2  0  0  0  0  0  0  0  0  0
  -10.5756   13.5288  -37.5251 N   0  0  0  0  0  0  0  0  0  0  0  0
  -13.7370   15.2769  -37.6450 N   0  0  0  0  0  0  0  0  0  0  0  0
  -10.1059   14.6885  -34.4654 O   0  0  0  0  0  0  0  0  0  0  0  0
  -10.4844   15.9313  -37.0550 O   0  0  0  0  0  0  0  0  0  0  0  0
  -11.2020   12.6266  -32.1522 H   0  0  0  0  0  0  0  0  0  0  0  0
  -10.4889   11.4230  -34.4982 H   0  0  0  0  0  0  0  0  0  0  0  0
  -10.7169   15.3119  -32.5887 H   0  0  0  0  0  0  0  0  0  0  0  0
  -12.2996   13.1668  -39.5844 H   0  0  0  0  0  0  0  0  0  0  0  0
  -12.8884   14.4108  -40.6759 H   0  0  0  0  0  0  0  0  0  0  0  0
  -12.5964   16.8021  -40.1668 H   0  0  0  0  0  0  0  0  0  0  0  0
  -11.5152   17.3643  -38.8979 H   0  0  0  0  0  0  0  0  0  0  0  0
   -7.7603   14.2070  -37.6524 H   0  0  0  0  0  0  0  0  0  0  0  0
   -7.8370   14.8084  -35.9947 H   0  0  0  0  0  0  0  0  0  0  0  0
  -14.7620   14.7174  -39.4118 H   0  0  0  0  0  0  0  0  0  0  0  0
  -14.2652   13.3733  -38.4142 H   0  0  0  0  0  0  0  0  0  0  0  0
  -13.1965   17.2998  -37.3341 H   0  0  0  0  0  0  0  0  0  0  0  0
  -14.3044   17.0456  -38.6611 H   0  0  0  0  0  0  0  0  0  0  0  0
  -12.8300   13.7597  -36.5165 H   0  0  0  0  0  0  0  0  0  0  0  0
  -12.5308   15.3677  -35.9125 H   0  0  0  0  0  0  0  0  0  0  0  0
   -8.6147   16.7401  -36.8709 H   0  0  0  0  0  0  0  0  0  0  0  0
   -8.9469   16.0255  -38.4470 H   0  0  0  0  0  0  0  0  0  0  0  0
   -8.9712   12.4836  -36.6557 H   0  0  0  0  0  0  0  0  0  0  0  0
  -10.7180   15.1689  -39.7585 H   0  0  0  0  0  0  0  0  0  0  0  0
  -10.2152   13.2432  -38.4316 H   0  0  0  0  0  0  0  0  0  0  0  0
  1  2  1  0  0  0  0
  1  3  2  0  0  0  0
  2  4  2  0  0  0  0
  3 17  1  0  0  0  0
  4 12  1  0  0  0  0
  4 17  1  0  0  0  0
  5  8  1  0  0  0  0
  5 13  1  0  0  0  0
  6  9  1  0  0  0  0
  6 13  1  0  0  0  0
  7 11  1  0  0  0  0
  7 12  1  0  0  0  0
  8 16  1  0  0  0  0
  9 16  1  0  0  0  0
 10 14  1  0  0  0  0
 10 16  1  0  0  0  0
 11 18  1  0  0  0  0
 12 15  1  0  0  0  0
 13 14  1  0  0  0  0
 14 15  1  0  0  0  0
 14 18  1  0  0  0  0
  1 19  1  0  0  0  0
  2 20  1  0  0  0  0
  3 21  1  0  0  0  0
  5 22  1  0  0  0  0
  5 23  1  0  0  0  0
  6 24  1  0  0  0  0
  6 25  1  0  0  0  0
  7 26  1  0  0  0  0
  7 27  1  0  0  0  0
  8 28  1  0  0  0  0
  8 29  1  0  0  0  0
  9 30  1  0  0  0  0
  9 31  1  0  0  0  0
 10 32  1  0  0  0  0
 10 33  1  0  0  0  0
 11 34  1  0  0  0  0
 11 35  1  0  0  0  0
 12 36  1  0  0  0  0
 13 37  1  0  0  0  0
 15 38  1  0  0  0  0
M  END
> <id>
EN300-1279157

> <smiles>
C1CC(NC2(CN3CCC2CC3)O1)C4=CC=CO4

> <IUPAC Name>
4'-(furan-2-yl)-4-azaspiro[bicyclo[2.2.2]octane-2,2'-[1,3]oxazinane]

> <CAS>
2171803-10-2

> <URL>
https://www.enaminestore.com/catalog/EN300-1279157

> <ROCS_ShapeQuery>
_x1247relevant_x1083L0AP1_x1305L0BP1_

> <ROCS_TanimotoCombo>
0.839 

> <ROCS_ShapeTanimoto>
0.487 

> <ROCS_ColorTanimoto>
0.352 

> <ROCS_RefTversky>
0.432 

> <ROCS_RefColorTversky>
0.425 

> <ROCS_RefTverskyCombo>
0.857 

> <ROCS_FitTversky>
1.354 

> <ROCS_FitColorTversky>
0.674 

> <ROCS_FitTverskyCombo>
2.028 

> <ROCS_ColorScore>
-9.098

> <ROCS_Overlap>
1274.941

> <ROCS_Rank>
197                 

$$$$
untitled-dbase-123644_3
  -OEChem-06232314393D

 27 29  0     1  0  0  0  0  0999 V2000
  -10.5346   15.6240  -39.9948 C   0  0  0  0  0  0  0  0  0  0  0  0
  -10.1919   14.8081  -37.1130 C   0  0  0  0  0  0  0  0  0  0  0  0
  -12.7492   14.4327  -39.7234 C   0  0  0  0  0  0  0  0  0  0  0  0
  -12.6688   16.6573  -39.1243 C   0  0  0  0  0  0  0  0  0  0  0  0
  -12.5093   13.8306  -37.5139 C   0  0  0  0  0  0  0  0  0  0  0  0
  -12.4258   16.0543  -36.9154 C   0  0  0  0  0  0  0  0  0  0  0  0
  -13.5594   14.4765  -38.4231 C   0  0  1  0  0  0  0  0  0  0  0  0
  -13.5022   16.0239  -38.0056 C   0  0  2  0  0  0  0  0  0  0  0  0
  -11.7297   15.4471  -39.1940 C   0  0  0  0  0  0  0  0  0  0  0  0
  -11.5607   15.0277  -37.6558 C   0  0  0  0  0  0  0  0  0  0  0  0
   -8.8305   13.2012  -36.0414 C   0  0  0  0  0  0  0  0  0  0  0  0
   -9.5780   15.7657  -40.6359 N   0  0  0  0  0  0  0  0  0  0  0  0
   -9.3023   15.6478  -37.1375 O   0  0  0  0  0  0  0  0  0  0  0  0
  -10.1018   13.5482  -36.5997 O   0  0  0  0  0  0  0  0  0  0  0  0
  -12.3202   13.4520  -39.9593 H   0  0  0  0  0  0  0  0  0  0  0  0
  -13.3160   14.7709  -40.5983 H   0  0  0  0  0  0  0  0  0  0  0  0
  -13.2422   16.8421  -40.0400 H   0  0  0  0  0  0  0  0  0  0  0  0
  -12.1698   17.5927  -38.8459 H   0  0  0  0  0  0  0  0  0  0  0  0
  -12.8683   13.6547  -36.4937 H   0  0  0  0  0  0  0  0  0  0  0  0
  -12.0914   12.8897  -37.8892 H   0  0  0  0  0  0  0  0  0  0  0  0
  -11.9365   17.0250  -36.7778 H   0  0  0  0  0  0  0  0  0  0  0  0
  -12.7894   15.7199  -35.9373 H   0  0  0  0  0  0  0  0  0  0  0  0
  -14.5411   14.0042  -38.4454 H   0  0  0  0  0  0  0  0  0  0  0  0
  -14.4486   16.5094  -37.7687 H   0  0  0  0  0  0  0  0  0  0  0  0
   -8.8661   12.1776  -35.6607 H   0  0  0  0  0  0  0  0  0  0  0  0
   -8.5856   13.8939  -35.2323 H   0  0  0  0  0  0  0  0  0  0  0  0
   -8.0687   13.2712  -36.8214 H   0  0  0  0  0  0  0  0  0  0  0  0
  1  9  1  0  0  0  0
  1 12  3  0  0  0  0
  2 10  1  0  0  0  0
  2 13  2  0  0  0  0
  2 14  1  0  0  0  0
  3  7  1  0  0  0  0
  3  9  1  0  0  0  0
  4  8  1  0  0  0  0
  4  9  1  0  0  0  0
  5  7  1  0  0  0  0
  5 10  1  0  0  0  0
  6  8  1  0  0  0  0
  6 10  1  0  0  0  0
  7  8  1  0  0  0  0
  9 10  1  0  0  0  0
 11 14  1  0  0  0  0
  3 15  1  0  0  0  0
  3 16  1  0  0  0  0
  4 17  1  0  0  0  0
  4 18  1  0  0  0  0
  5 19  1  0  0  0  0
  5 20  1  0  0  0  0
  6 21  1  0  0  0  0
  6 22  1  0  0  0  0
  7 23  1  0  0  0  0
  8 24  1  0  0  0  0
 11 25  1  0  0  0  0
 11 26  1  0  0  0  0
 11 27  1  0  0  0  0
M  END
> <id>
EN300-26975753

> <smiles>
COC(=O)C12CC3CC2(CC3C1)C#N

> <IUPAC Name>
methyl 5-cyanotricyclo[3.3.0.0,3,7]octane-1-carboxylate

> <CAS>
2445793-75-7

> <URL>
https://www.enaminestore.com/catalog/EN300-26975753

> <ROCS_ShapeQuery>
_x1247relevant_x1083L0AP1_x1305L0BP1_

> <ROCS_TanimotoCombo>
0.839 

> <ROCS_ShapeTanimoto>
0.507 

> <ROCS_ColorTanimoto>
0.332 

> <ROCS_RefTversky>
0.425 

> <ROCS_RefColorTversky>
0.526 

> <ROCS_RefTverskyCombo>
0.951 

> <ROCS_FitTversky>
1.620 

> <ROCS_FitColorTversky>
0.473 

> <ROCS_FitTverskyCombo>
2.094 

> <ROCS_ColorScore>
-11.561

> <ROCS_Overlap>
1250.169

> <ROCS_Rank>
198                 

$$$$
untitled-dbase-153241_25
  -OEChem-06232314393D

 27 28  0     1  0  0  0  0  0999 V2000
  -10.2122   14.9020  -36.6181 C   0  0  0  0  0  0  0  0  0  0  0  0
  -12.4999   12.7981  -37.1472 C   0  0  0  0  0  0  0  0  0  0  0  0
  -12.6665   16.4280  -37.6230 C   0  0  0  0  0  0  0  0  0  0  0  0
  -12.1517   15.7536  -39.8388 C   0  0  0  0  0  0  0  0  0  0  0  0
  -11.0341   14.6990  -37.8542 C   0  0  2  0  0  0  0  0  0  0  0  0
  -11.4572   16.0421  -38.4872 C   0  0  2  0  0  0  0  0  0  0  0  0
  -13.3740   15.0936  -37.8671 C   0  0  1  0  0  0  0  0  0  0  0  0
  -13.4733   15.0783  -39.4065 C   0  0  1  0  0  0  0  0  0  0  0  0
  -11.2510   11.9551  -37.1667 C   0  0  0  0  0  0  0  0  0  0  0  0
  -12.3287   14.1232  -37.4995 N   0  0  0  0  0  0  0  0  0  0  0  0
  -10.5605   14.6003  -35.4863 O   0  0  0  0  0  0  0  0  0  0  0  0
  -13.5854   12.2992  -36.8459 O   0  0  0  0  0  0  0  0  0  0  0  0
   -9.0211   15.4724  -36.9235 O   0  0  0  0  0  0  0  0  0  0  0  0
  -14.5796   15.8534  -39.8445 O   0  0  0  0  0  0  0  0  0  0  0  0
  -12.4230   16.5989  -36.5698 H   0  0  0  0  0  0  0  0  0  0  0  0
  -13.2140   17.2943  -38.0093 H   0  0  0  0  0  0  0  0  0  0  0  0
  -12.3360   16.6820  -40.3909 H   0  0  0  0  0  0  0  0  0  0  0  0
  -11.5451   15.0905  -40.4642 H   0  0  0  0  0  0  0  0  0  0  0  0
  -10.4911   14.0423  -38.5414 H   0  0  0  0  0  0  0  0  0  0  0  0
  -10.6681   16.7954  -38.5375 H   0  0  0  0  0  0  0  0  0  0  0  0
  -14.3192   14.9637  -37.3379 H   0  0  0  0  0  0  0  0  0  0  0  0
  -13.5735   14.0698  -39.8208 H   0  0  0  0  0  0  0  0  0  0  0  0
  -10.7798   11.9940  -36.1897 H   0  0  0  0  0  0  0  0  0  0  0  0
  -10.5718   12.3411  -37.9206 H   0  0  0  0  0  0  0  0  0  0  0  0
  -11.5163   10.9306  -37.4089 H   0  0  0  0  0  0  0  0  0  0  0  0
   -8.4682   15.6155  -36.1259 H   0  0  0  0  0  0  0  0  0  0  0  0
  -15.3814   15.3907  -39.5505 H   0  0  0  0  0  0  0  0  0  0  0  0
  1  5  1  1  0  0  0
  1 11  2  0  0  0  0
  1 13  1  0  0  0  0
  2  9  1  0  0  0  0
  2 10  1  0  0  0  0
  2 12  2  0  0  0  0
  3  6  1  0  0  0  0
  3  7  1  0  0  0  0
  4  6  1  6  0  0  0
  4  8  1  0  0  0  0
  5  6  1  0  0  0  0
  5 10  1  0  0  0  0
  7  8  1  0  0  0  0
  7 10  1  6  0  0  0
  8 14  1  1  0  0  0
  3 15  1  0  0  0  0
  3 16  1  0  0  0  0
  4 17  1  0  0  0  0
  4 18  1  0  0  0  0
  5 19  1  0  0  0  0
  6 20  1  0  0  0  0
  7 21  1  0  0  0  0
  8 22  1  0  0  0  0
  9 23  1  0  0  0  0
  9 24  1  0  0  0  0
  9 25  1  0  0  0  0
 13 26  1  0  0  0  0
 14 27  1  0  0  0  0
M  END
> <id>
EN300-28272214

> <smiles>
CC(=O)N1[C@@H]([C@H]2C[C@H](O)[C@@H]1C2)C(=O)O |&1:4,5,7,9,r|

> <IUPAC Name>
rac-(1R,3R,4S,6R)-2-acetyl-6-hydroxy-2-azabicyclo[2.2.1]heptane-3-carboxylic acid

> <CAS>
2679817-05-9

> <URL>
https://www.enaminestore.com/catalog/EN300-28272214

> <ROCS_ShapeQuery>
_x1247relevant_x1083L0AP1_x1305L0BP1_

> <ROCS_TanimotoCombo>
0.839 

> <ROCS_ShapeTanimoto>
0.484 

> <ROCS_ColorTanimoto>
0.354 

> <ROCS_RefTversky>
0.410 

> <ROCS_RefColorTversky>
0.419 

> <ROCS_RefTverskyCombo>
0.829 

> <ROCS_FitTversky>
1.599 

> <ROCS_FitColorTversky>
0.697 

> <ROCS_FitTverskyCombo>
2.296 

> <ROCS_ColorScore>
-8.958

> <ROCS_Overlap>
1206.407

> <ROCS_Rank>
199                 

$$$$
untitled-dbase-75857_30
  -OEChem-06232314393D

 44 46  0     1  0  0  0  0  0999 V2000
   -9.0758   14.3987  -37.0946 C   0  0  0  0  0  0  0  0  0  0  0  0
  -14.3100   15.0866  -37.4722 C   0  0  0  0  0  0  0  0  0  0  0  0
  -11.9343   15.3763  -36.7221 C   0  0  0  0  0  0  0  0  0  0  0  0
  -12.5628   13.4344  -38.1847 C   0  0  0  0  0  0  0  0  0  0  0  0
  -12.9221   16.9577  -38.3971 C   0  0  0  0  0  0  0  0  0  0  0  0
  -13.5478   15.0178  -39.8590 C   0  0  0  0  0  0  0  0  0  0  0  0
  -11.1704   15.3058  -39.1127 C   0  0  0  0  0  0  0  0  0  0  0  0
  -13.2154   16.1167  -37.1447 C   0  0  1  0  0  0  0  0  0  0  0  0
  -13.8460   14.1668  -38.6146 C   0  0  2  0  0  0  0  0  0  0  0  0
  -11.4452   14.4505  -37.8587 C   0  0  0  0  0  0  0  0  0  0  0  0
  -12.4490   16.0463  -39.5431 C   0  0  0  0  0  0  0  0  0  0  0  0
   -8.7124   14.1111  -34.5196 C   0  0  0  0  0  0  0  0  0  0  0  0
   -7.2262   12.1429  -34.9958 C   0  0  0  0  0  0  0  0  0  0  0  0
   -6.3937   14.4725  -35.4294 C   0  0  0  0  0  0  0  0  0  0  0  0
   -7.6158   13.5552  -35.4269 C   0  0  0  0  0  0  0  0  0  0  0  0
  -10.2428   13.7581  -37.4513 N   0  0  0  0  0  0  0  0  0  0  0  0
   -8.9014   15.6127  -37.0742 O   0  0  0  0  0  0  0  0  0  0  0  0
  -12.1864   16.8430  -40.6893 O   0  0  0  0  0  0  0  0  0  0  0  0
   -8.1271   13.4731  -36.7620 O   0  0  0  0  0  0  0  0  0  0  0  0
  -14.5411   14.4897  -36.5815 H   0  0  0  0  0  0  0  0  0  0  0  0
  -15.2350   15.6019  -37.7589 H   0  0  0  0  0  0  0  0  0  0  0  0
  -11.1567   16.1080  -36.4664 H   0  0  0  0  0  0  0  0  0  0  0  0
  -12.1328   14.7916  -35.8143 H   0  0  0  0  0  0  0  0  0  0  0  0
  -12.7764   12.8082  -37.3087 H   0  0  0  0  0  0  0  0  0  0  0  0
  -12.2401   12.7596  -38.9883 H   0  0  0  0  0  0  0  0  0  0  0  0
  -13.8169   17.5151  -38.7030 H   0  0  0  0  0  0  0  0  0  0  0  0
  -12.1600   17.7172  -38.1794 H   0  0  0  0  0  0  0  0  0  0  0  0
  -13.2381   14.3769  -40.6947 H   0  0  0  0  0  0  0  0  0  0  0  0
  -14.4568   15.5298  -40.2004 H   0  0  0  0  0  0  0  0  0  0  0  0
  -10.3710   16.0345  -38.9209 H   0  0  0  0  0  0  0  0  0  0  0  0
  -10.8082   14.6787  -39.9390 H   0  0  0  0  0  0  0  0  0  0  0  0
  -13.5523   16.7686  -36.3309 H   0  0  0  0  0  0  0  0  0  0  0  0
  -14.6301   13.4368  -38.8439 H   0  0  0  0  0  0  0  0  0  0  0  0
   -8.9948   15.1247  -34.8257 H   0  0  0  0  0  0  0  0  0  0  0  0
   -9.6075   13.4808  -34.5359 H   0  0  0  0  0  0  0  0  0  0  0  0
   -8.3617   14.1874  -33.4840 H   0  0  0  0  0  0  0  0  0  0  0  0
   -6.4396   11.7401  -35.6441 H   0  0  0  0  0  0  0  0  0  0  0  0
   -8.0784   11.4592  -35.0831 H   0  0  0  0  0  0  0  0  0  0  0  0
   -6.8683   12.1205  -33.9614 H   0  0  0  0  0  0  0  0  0  0  0  0
   -5.6070   14.0740  -36.0802 H   0  0  0  0  0  0  0  0  0  0  0  0
   -6.6473   15.4811  -35.7716 H   0  0  0  0  0  0  0  0  0  0  0  0
   -5.9583   14.5443  -34.4262 H   0  0  0  0  0  0  0  0  0  0  0  0
  -10.2592   12.7438  -37.4267 H   0  0  0  0  0  0  0  0  0  0  0  0
  -13.0186   17.2876  -40.9192 H   0  0  0  0  0  0  0  0  0  0  0  0
  1 16  1  0  0  0  0
  1 17  2  0  0  0  0
  1 19  1  0  0  0  0
  2  8  1  0  0  0  0
  2  9  1  0  0  0  0
  3  8  1  0  0  0  0
  3 10  1  0  0  0  0
  4  9  1  0  0  0  0
  4 10  1  0  0  0  0
  5  8  1  0  0  0  0
  5 11  1  0  0  0  0
  6  9  1  0  0  0  0
  6 11  1  0  0  0  0
  7 10  1  0  0  0  0
  7 11  1  0  0  0  0
 10 16  1  0  0  0  0
 11 18  1  0  0  0  0
 12 15  1  0  0  0  0
 13 15  1  0  0  0  0
 14 15  1  0  0  0  0
 15 19  1  0  0  0  0
  2 20  1  0  0  0  0
  2 21  1  0  0  0  0
  3 22  1  0  0  0  0
  3 23  1  0  0  0  0
  4 24  1  0  0  0  0
  4 25  1  0  0  0  0
  5 26  1  0  0  0  0
  5 27  1  0  0  0  0
  6 28  1  0  0  0  0
  6 29  1  0  0  0  0
  7 30  1  0  0  0  0
  7 31  1  0  0  0  0
  8 32  1  0  0  0  0
  9 33  1  0  0  0  0
 12 34  1  0  0  0  0
 12 35  1  0  0  0  0
 12 36  1  0  0  0  0
 13 37  1  0  0  0  0
 13 38  1  0  0  0  0
 13 39  1  0  0  0  0
 14 40  1  0  0  0  0
 14 41  1  0  0  0  0
 14 42  1  0  0  0  0
 16 43  1  0  0  0  0
 18 44  1  0  0  0  0
M  END
> <id>
EN300-1590186

> <smiles>
CC(C)(C)OC(=O)NC1(CC2CC3CC(O)(C2)C1)C3

> <IUPAC Name>
tert-butyl N-(3-hydroxyadamantan-1-yl)carbamate

> <CAS>
847795-89-5

> <URL>
https://www.enaminestore.com/catalog/EN300-1590186

> <ROCS_ShapeQuery>
_x1247relevant_x1083L0AP1_x1305L0BP1_

> <ROCS_TanimotoCombo>
0.839 

> <ROCS_ShapeTanimoto>
0.505 

> <ROCS_ColorTanimoto>
0.334 

> <ROCS_RefTversky>
0.445 

> <ROCS_RefColorTversky>
0.391 

> <ROCS_RefTverskyCombo>
0.836 

> <ROCS_FitTversky>
1.361 

> <ROCS_FitColorTversky>
0.696 

> <ROCS_FitTverskyCombo>
2.057 

> <ROCS_ColorScore>
-8.342

> <ROCS_Overlap>
1314.643

> <ROCS_Rank>
200                 

$$$$
untitled-dbase-146384_187
  -OEChem-06232314393D

 36 37  0     1  0  0  0  0  0999 V2000
  -13.2058   16.6278  -40.1513 C   0  0  0  0  0  0  0  0  0  0  0  0
  -10.2709   14.7963  -36.6004 C   0  0  0  0  0  0  0  0  0  0  0  0
  -13.7428   14.1813  -38.5778 C   0  0  0  0  0  0  0  0  0  0  0  0
  -12.7460   15.3754  -36.6199 C   0  0  0  0  0  0  0  0  0  0  0  0
  -12.6849   16.3396  -38.7783 C   0  0  1  0  0  0  0  0  0  0  0  0
  -13.6398   15.5528  -37.8641 C   0  0  1  0  0  0  0  0  0  0  0  0
  -11.5970   15.2674  -38.6985 C   0  0  2  0  0  0  0  0  0  0  0  0
  -12.3379   14.0085  -39.1827 C   0  0  1  0  0  0  0  0  0  0  0  0
   -8.8683   12.6119  -36.2546 C   0  0  0  0  0  0  0  0  0  0  0  0
   -7.6398   13.1169  -38.3865 C   0  0  0  0  0  0  0  0  0  0  0  0
   -7.1435   14.4440  -36.3127 C   0  0  0  0  0  0  0  0  0  0  0  0
   -8.2225   13.7059  -37.1037 C   0  0  0  0  0  0  0  0  0  0  0  0
  -11.4424   15.1365  -37.2429 N   0  0  0  0  0  0  0  0  0  0  0  0
  -12.5589   17.1360  -41.0550 O   0  0  0  0  0  0  0  0  0  0  0  0
  -10.1664   14.6452  -35.3857 O   0  0  0  0  0  0  0  0  0  0  0  0
  -14.5028   16.2494  -40.2605 O   0  0  0  0  0  0  0  0  0  0  0  0
   -9.2342   14.6461  -37.4815 O   0  0  0  0  0  0  0  0  0  0  0  0
  -11.7441   12.8882  -38.7110 F   0  0  0  0  0  0  0  0  0  0  0  0
  -14.0066   13.3688  -37.8938 H   0  0  0  0  0  0  0  0  0  0  0  0
  -14.4938   14.2235  -39.3742 H   0  0  0  0  0  0  0  0  0  0  0  0
  -12.6802   16.2879  -36.0184 H   0  0  0  0  0  0  0  0  0  0  0  0
  -13.0281   14.5312  -35.9839 H   0  0  0  0  0  0  0  0  0  0  0  0
  -12.3683   17.2922  -38.3363 H   0  0  0  0  0  0  0  0  0  0  0  0
  -14.6061   16.0185  -37.6613 H   0  0  0  0  0  0  0  0  0  0  0  0
  -10.6526   15.4595  -39.2114 H   0  0  0  0  0  0  0  0  0  0  0  0
  -12.3780   13.9428  -40.2747 H   0  0  0  0  0  0  0  0  0  0  0  0
   -9.2878   13.0307  -35.3329 H   0  0  0  0  0  0  0  0  0  0  0  0
   -9.6677   12.0982  -36.7985 H   0  0  0  0  0  0  0  0  0  0  0  0
   -8.1258   11.8672  -35.9458 H   0  0  0  0  0  0  0  0  0  0  0  0
   -7.1754   13.8983  -38.9989 H   0  0  0  0  0  0  0  0  0  0  0  0
   -8.4273   12.6687  -39.0032 H   0  0  0  0  0  0  0  0  0  0  0  0
   -6.8876   12.3504  -38.1738 H   0  0  0  0  0  0  0  0  0  0  0  0
   -6.6802   15.2287  -36.9216 H   0  0  0  0  0  0  0  0  0  0  0  0
   -7.5513   14.9047  -35.4072 H   0  0  0  0  0  0  0  0  0  0  0  0
   -6.3369   13.7608  -36.0229 H   0  0  0  0  0  0  0  0  0  0  0  0
  -14.8637   16.4320  -41.1542 H   0  0  0  0  0  0  0  0  0  0  0  0
  1  5  1  6  0  0  0
  1 14  2  0  0  0  0
  1 16  1  0  0  0  0
  2 13  1  0  0  0  0
  2 15  2  0  0  0  0
  2 17  1  0  0  0  0
  3  6  1  0  0  0  0
  3  8  1  0  0  0  0
  4  6  1  1  0  0  0
  4 13  1  0  0  0  0
  5  6  1  0  0  0  0
  5  7  1  0  0  0  0
  7  8  1  0  0  0  0
  7 13  1  1  0  0  0
  8 18  1  1  0  0  0
  9 12  1  0  0  0  0
 10 12  1  0  0  0  0
 11 12  1  0  0  0  0
 12 17  1  0  0  0  0
  3 19  1  0  0  0  0
  3 20  1  0  0  0  0
  4 21  1  0  0  0  0
  4 22  1  0  0  0  0
  5 23  1  0  0  0  0
  6 24  1  0  0  0  0
  7 25  1  0  0  0  0
  8 26  1  0  0  0  0
  9 27  1  0  0  0  0
  9 28  1  0  0  0  0
  9 29  1  0  0  0  0
 10 30  1  0  0  0  0
 10 31  1  0  0  0  0
 10 32  1  0  0  0  0
 11 33  1  0  0  0  0
 11 34  1  0  0  0  0
 11 35  1  0  0  0  0
 16 36  1  0  0  0  0
M  END
> <id>
EN300-7443350

> <smiles>
CC(C)(C)OC(=O)N1C[C@@H]2C[C@H](F)[C@H]1[C@H]2C(=O)O |&1:9,11,13,14,r|

> <IUPAC Name>
rac-(1R,4R,6S,7S)-2-[(tert-butoxy)carbonyl]-6-fluoro-2-azabicyclo[2.2.1]heptane-7-carboxylic acid

> <CAS>
2639392-79-1

> <URL>
https://www.enaminestore.com/catalog/EN300-7443350

> <ROCS_ShapeQuery>
_x1247relevant_x1083L0AP1_x1305L0BP1_

> <ROCS_TanimotoCombo>
0.839 

> <ROCS_ShapeTanimoto>
0.507 

> <ROCS_ColorTanimoto>
0.331 

> <ROCS_RefTversky>
0.442 

> <ROCS_RefColorTversky>
0.388 

> <ROCS_RefTverskyCombo>
0.830 

> <ROCS_FitTversky>
1.409 

> <ROCS_FitColorTversky>
0.695 

> <ROCS_FitTverskyCombo>
2.104 

> <ROCS_ColorScore>
-8.269

> <ROCS_Overlap>
1305.081

> <ROCS_Rank>
201                 

$$$$
untitled-dbase-46963_0
  -OEChem-06232314393D

 36 38  0     1  0  0  0  0  0999 V2000
   -9.0635   15.3904  -36.8787 C   0  0  0  0  0  0  0  0  0  0  0  0
  -10.4684   15.9184  -36.9430 C   0  0  0  0  0  0  0  0  0  0  0  0
  -12.6296   16.4574  -39.4876 C   0  0  0  0  0  0  0  0  0  0  0  0
  -13.4280   16.7083  -38.2098 C   0  0  0  0  0  0  0  0  0  0  0  0
  -11.3015   14.3715  -38.7909 C   0  0  0  0  0  0  0  0  0  0  0  0
  -12.7498   14.7485  -36.7059 C   0  0  0  0  0  0  0  0  0  0  0  0
  -12.5120   14.9362  -39.5690 C   0  0  1  0  0  0  0  0  0  0  0  0
  -13.7856   15.3101  -37.6993 C   0  0  2  0  0  0  0  0  0  0  0  0
  -10.4453   13.6019  -36.5209 C   0  0  2  0  0  0  0  0  0  0  0  0
  -11.3013   14.6636  -37.2504 C   0  0  0  0  0  0  0  0  0  0  0  0
  -14.9187   14.5187  -39.7135 C   0  0  0  0  0  0  0  0  0  0  0  0
  -10.6639   13.4607  -35.0144 C   0  0  0  0  0  0  0  0  0  0  0  0
  -13.7178   14.4401  -38.8858 N   0  0  0  0  0  0  0  0  0  0  0  0
   -9.8105   12.4450  -34.4982 N   0  0  0  0  0  0  0  0  0  0  0  0
   -8.0477   16.0652  -36.9382 O   0  0  0  0  0  0  0  0  0  0  0  0
   -9.0885   14.0343  -36.7233 O   0  0  0  0  0  0  0  0  0  0  0  0
  -10.7129   16.3580  -35.9708 H   0  0  0  0  0  0  0  0  0  0  0  0
  -10.5243   16.6847  -37.7150 H   0  0  0  0  0  0  0  0  0  0  0  0
  -13.1937   16.8427  -40.3462 H   0  0  0  0  0  0  0  0  0  0  0  0
  -11.6634   16.9675  -39.4955 H   0  0  0  0  0  0  0  0  0  0  0  0
  -12.8691   17.2989  -37.4780 H   0  0  0  0  0  0  0  0  0  0  0  0
  -14.3361   17.2717  -38.4560 H   0  0  0  0  0  0  0  0  0  0  0  0
  -11.3060   13.2833  -38.9450 H   0  0  0  0  0  0  0  0  0  0  0  0
  -10.3756   14.7336  -39.2556 H   0  0  0  0  0  0  0  0  0  0  0  0
  -12.7792   15.3395  -35.7820 H   0  0  0  0  0  0  0  0  0  0  0  0
  -13.0861   13.7383  -36.4331 H   0  0  0  0  0  0  0  0  0  0  0  0
  -12.4471   14.5941  -40.6085 H   0  0  0  0  0  0  0  0  0  0  0  0
  -14.7716   15.2944  -37.2204 H   0  0  0  0  0  0  0  0  0  0  0  0
  -10.5567   12.6134  -36.9803 H   0  0  0  0  0  0  0  0  0  0  0  0
  -15.7804   14.1348  -39.1478 H   0  0  0  0  0  0  0  0  0  0  0  0
  -15.1022   15.5662  -39.9948 H   0  0  0  0  0  0  0  0  0  0  0  0
  -14.7780   13.9144  -40.6218 H   0  0  0  0  0  0  0  0  0  0  0  0
  -10.4314   14.4240  -34.5647 H   0  0  0  0  0  0  0  0  0  0  0  0
  -11.7092   13.1977  -34.8650 H   0  0  0  0  0  0  0  0  0  0  0  0
   -8.8502   12.6648  -34.6951 H   0  0  0  0  0  0  0  0  0  0  0  0
   -9.9260   12.3674  -33.5032 H   0  0  0  0  0  0  0  0  0  0  0  0
  1  2  1  0  0  0  0
  1 15  2  0  0  0  0
  1 16  1  0  0  0  0
  2 10  1  0  0  0  0
  3  4  1  0  0  0  0
  3  7  1  0  0  0  0
  4  8  1  0  0  0  0
  5  7  1  0  0  0  0
  5 10  1  0  0  0  0
  6  8  1  0  0  0  0
  6 10  1  0  0  0  0
  7 13  1  0  0  0  0
  8 13  1  0  0  0  0
  9 10  1  0  0  0  0
  9 12  1  0  0  0  0
  9 16  1  0  0  0  0
 11 13  1  0  0  0  0
 12 14  1  0  0  0  0
  2 17  1  0  0  0  0
  2 18  1  0  0  0  0
  3 19  1  0  0  0  0
  3 20  1  0  0  0  0
  4 21  1  0  0  0  0
  4 22  1  0  0  0  0
  5 23  1  0  0  0  0
  5 24  1  0  0  0  0
  6 25  1  0  0  0  0
  6 26  1  0  0  0  0
  7 27  1  0  0  0  0
  8 28  1  0  0  0  0
  9 29  1  0  0  0  0
 11 30  1  0  0  0  0
 11 31  1  0  0  0  0
 11 32  1  0  0  0  0
 12 33  1  0  0  0  0
 12 34  1  0  0  0  0
 14 35  1  0  0  0  0
 14 36  1  0  0  0  0
M  END
> <id>
EN300-1479103

> <smiles>
CN1C2CCC1CC3(CC(=O)OC3CN)C2

> <IUPAC Name>
2'-(aminomethyl)-8-methyl-8-azaspiro[bicyclo[3.2.1]octane-3,3'-oxolane]-5'-one

> <CAS>
2166967-01-5

> <URL>
https://www.enaminestore.com/catalog/EN300-1479103

> <ROCS_ShapeQuery>
_x1247relevant_x1083L0AP1_x1305L0BP1_

> <ROCS_TanimotoCombo>
0.838 

> <ROCS_ShapeTanimoto>
0.517 

> <ROCS_ColorTanimoto>
0.321 

> <ROCS_RefTversky>
0.438 

> <ROCS_RefColorTversky>
0.372 

> <ROCS_RefTverskyCombo>
0.810 

> <ROCS_FitTversky>
1.543 

> <ROCS_FitColorTversky>
0.700 

> <ROCS_FitTverskyCombo>
2.243 

> <ROCS_ColorScore>
-7.930

> <ROCS_Overlap>
1289.797

> <ROCS_Rank>
202                 

$$$$
untitled-dbase-162284_1
  -OEChem-06232314393D

 32 33  0     1  0  0  0  0  0999 V2000
  -10.2949   15.0460  -36.6606 C   0  0  0  0  0  0  0  0  0  0  0  0
  -12.4966   16.1495  -36.9116 C   0  0  0  0  0  0  0  0  0  0  0  0
  -11.1138   15.7293  -38.9310 C   0  0  0  0  0  0  0  0  0  0  0  0
  -13.7583   16.2289  -37.7774 C   0  0  0  0  0  0  0  0  0  0  0  0
  -12.3569   15.7530  -39.8271 C   0  0  0  0  0  0  0  0  0  0  0  0
  -12.2325   13.8163  -37.7253 C   0  0  2  0  0  0  0  0  0  0  0  0
  -11.4961   15.1658  -37.5524 C   0  0  0  0  0  0  0  0  0  0  0  0
  -13.5945   15.3285  -39.0141 C   0  0  0  0  0  0  0  0  0  0  0  0
  -11.3893   12.6977  -38.3329 C   0  0  0  0  0  0  0  0  0  0  0  0
  -14.8503   15.3489  -39.8790 C   0  0  0  0  0  0  0  0  0  0  0  0
   -7.9556   15.3749  -36.6044 C   0  0  0  0  0  0  0  0  0  0  0  0
  -10.3377   14.6530  -35.5026 O   0  0  0  0  0  0  0  0  0  0  0  0
  -13.3963   13.9752  -38.5620 O   0  0  0  0  0  0  0  0  0  0  0  0
   -9.1808   15.4388  -37.3412 O   0  0  0  0  0  0  0  0  0  0  0  0
  -12.0510   17.1469  -36.8054 H   0  0  0  0  0  0  0  0  0  0  0  0
  -12.7617   15.8298  -35.8953 H   0  0  0  0  0  0  0  0  0  0  0  0
  -10.3169   15.1405  -39.4007 H   0  0  0  0  0  0  0  0  0  0  0  0
  -10.7085   16.7450  -38.8333 H   0  0  0  0  0  0  0  0  0  0  0  0
  -14.6155   15.8971  -37.1784 H   0  0  0  0  0  0  0  0  0  0  0  0
  -13.9481   17.2683  -38.0698 H   0  0  0  0  0  0  0  0  0  0  0  0
  -12.4892   16.7527  -40.2572 H   0  0  0  0  0  0  0  0  0  0  0  0
  -12.2004   15.0577  -40.6613 H   0  0  0  0  0  0  0  0  0  0  0  0
  -12.5917   13.4650  -36.7496 H   0  0  0  0  0  0  0  0  0  0  0  0
  -11.0117   13.0067  -39.3064 H   0  0  0  0  0  0  0  0  0  0  0  0
  -11.9962   11.8018  -38.4541 H   0  0  0  0  0  0  0  0  0  0  0  0
  -10.5479   12.4726  -37.6793 H   0  0  0  0  0  0  0  0  0  0  0  0
  -14.7133   14.7059  -40.7479 H   0  0  0  0  0  0  0  0  0  0  0  0
  -15.0515   16.3648  -40.2176 H   0  0  0  0  0  0  0  0  0  0  0  0
  -15.7035   14.9910  -39.3036 H   0  0  0  0  0  0  0  0  0  0  0  0
   -7.1305   15.7092  -37.2381 H   0  0  0  0  0  0  0  0  0  0  0  0
   -7.7818   14.3481  -36.2731 H   0  0  0  0  0  0  0  0  0  0  0  0
   -8.0305   16.0292  -35.7326 H   0  0  0  0  0  0  0  0  0  0  0  0
  1  7  1  0  0  0  0
  1 12  2  0  0  0  0
  1 14  1  0  0  0  0
  2  4  1  0  0  0  0
  2  7  1  0  0  0  0
  3  5  1  0  0  0  0
  3  7  1  0  0  0  0
  4  8  1  0  0  0  0
  5  8  1  0  0  0  0
  6  7  1  0  0  0  0
  6  9  1  0  0  0  0
  6 13  1  0  0  0  0
  8 10  1  0  0  0  0
  8 13  1  0  0  0  0
 11 14  1  0  0  0  0
  2 15  1  0  0  0  0
  2 16  1  0  0  0  0
  3 17  1  0  0  0  0
  3 18  1  0  0  0  0
  4 19  1  0  0  0  0
  4 20  1  0  0  0  0
  5 21  1  0  0  0  0
  5 22  1  0  0  0  0
  6 23  1  0  0  0  0
  9 24  1  0  0  0  0
  9 25  1  0  0  0  0
  9 26  1  0  0  0  0
 10 27  1  0  0  0  0
 10 28  1  0  0  0  0
 10 29  1  0  0  0  0
 11 30  1  0  0  0  0
 11 31  1  0  0  0  0
 11 32  1  0  0  0  0
M  END
> <id>
EN300-39853037

> <smiles>
COC(=O)C1(CCC2(C)CC1)C(C)O2

> <IUPAC Name>
methyl 1,3-dimethyl-2-oxabicyclo[2.2.2]octane-4-carboxylate

> <Purity>
95

> <URL>
https://www.enaminestore.com/catalog/EN300-39853037

> <ROCS_ShapeQuery>
_x1247relevant_x1083L0AP1_x1305L0BP1_

> <ROCS_TanimotoCombo>
0.838 

> <ROCS_ShapeTanimoto>
0.504 

> <ROCS_ColorTanimoto>
0.335 

> <ROCS_RefTversky>
0.419 

> <ROCS_RefColorTversky>
0.354 

> <ROCS_RefTverskyCombo>
0.774 

> <ROCS_FitTversky>
1.662 

> <ROCS_FitColorTversky>
0.858 

> <ROCS_FitTverskyCombo>
2.520 

> <ROCS_ColorScore>
-7.492

> <ROCS_Overlap>
1234.181

> <ROCS_Rank>
203                 

$$$$
untitled-dbase-58130_17
  -OEChem-06232314393D

 50 52  0     1  0  0  0  0  0999 V2000
   -9.0733   14.3959  -37.0997 C   0  0  0  0  0  0  0  0  0  0  0  0
  -14.3122   15.0806  -37.4761 C   0  0  0  0  0  0  0  0  0  0  0  0
  -12.5541   13.4368  -38.1993 C   0  0  0  0  0  0  0  0  0  0  0  0
  -11.9333   15.3680  -36.7177 C   0  0  0  0  0  0  0  0  0  0  0  0
  -13.5431   15.0332  -39.8665 C   0  0  0  0  0  0  0  0  0  0  0  0
  -12.9206   16.9615  -38.3884 C   0  0  0  0  0  0  0  0  0  0  0  0
  -11.1671   15.3198  -39.1071 C   0  0  0  0  0  0  0  0  0  0  0  0
  -13.8507   14.1605  -38.6307 C   0  0  2  0  0  0  0  0  0  0  0  0
  -13.2202   16.1197  -37.1293 C   0  0  1  0  0  0  0  0  0  0  0  0
  -11.4433   14.4550  -37.8615 C   0  0  0  0  0  0  0  0  0  0  0  0
  -12.4452   16.0573  -39.5363 C   0  0  0  0  0  0  0  0  0  0  0  0
  -14.9425   13.1391  -38.9627 C   0  0  0  0  0  0  0  0  0  0  0  0
  -13.6935   17.0248  -35.9881 C   0  0  0  0  0  0  0  0  0  0  0  0
   -8.7079   14.0802  -34.5282 C   0  0  0  0  0  0  0  0  0  0  0  0
   -7.2213   12.1179  -35.0271 C   0  0  0  0  0  0  0  0  0  0  0  0
   -6.3901   14.4525  -35.4357 C   0  0  0  0  0  0  0  0  0  0  0  0
   -7.6117   13.5347  -35.4423 C   0  0  0  0  0  0  0  0  0  0  0  0
  -10.2396   13.7584  -37.4623 N   0  0  0  0  0  0  0  0  0  0  0  0
   -8.8994   15.6097  -37.0660 O   0  0  0  0  0  0  0  0  0  0  0  0
  -12.1853   16.8414  -40.6927 O   0  0  0  0  0  0  0  0  0  0  0  0
   -8.1240   13.4671  -36.7779 O   0  0  0  0  0  0  0  0  0  0  0  0
  -15.2405   15.5956  -37.7585 H   0  0  0  0  0  0  0  0  0  0  0  0
  -14.5485   14.4771  -36.5893 H   0  0  0  0  0  0  0  0  0  0  0  0
  -12.7573   12.8018  -37.3261 H   0  0  0  0  0  0  0  0  0  0  0  0
  -12.2174   12.7685  -39.0036 H   0  0  0  0  0  0  0  0  0  0  0  0
  -11.1493   16.0912  -36.4545 H   0  0  0  0  0  0  0  0  0  0  0  0
  -12.1262   14.7705  -35.8162 H   0  0  0  0  0  0  0  0  0  0  0  0
  -13.2273   14.4093  -40.7137 H   0  0  0  0  0  0  0  0  0  0  0  0
  -14.4474   15.5543  -40.2092 H   0  0  0  0  0  0  0  0  0  0  0  0
  -13.8117   17.5224  -38.7018 H   0  0  0  0  0  0  0  0  0  0  0  0
  -12.1584   17.7224  -38.1724 H   0  0  0  0  0  0  0  0  0  0  0  0
  -10.3683   16.0466  -38.9062 H   0  0  0  0  0  0  0  0  0  0  0  0
  -10.8025   14.7017  -39.9390 H   0  0  0  0  0  0  0  0  0  0  0  0
  -14.6079   12.4982  -39.7748 H   0  0  0  0  0  0  0  0  0  0  0  0
  -15.8487   13.6589  -39.2645 H   0  0  0  0  0  0  0  0  0  0  0  0
  -15.1515   12.5304  -38.0862 H   0  0  0  0  0  0  0  0  0  0  0  0
  -12.9188   17.7507  -35.7528 H   0  0  0  0  0  0  0  0  0  0  0  0
  -13.9018   16.4225  -35.1071 H   0  0  0  0  0  0  0  0  0  0  0  0
  -14.5980   17.5482  -36.2887 H   0  0  0  0  0  0  0  0  0  0  0  0
   -8.9910   15.0970  -34.8230 H   0  0  0  0  0  0  0  0  0  0  0  0
   -9.6028   13.4497  -34.5508 H   0  0  0  0  0  0  0  0  0  0  0  0
   -8.3566   14.1452  -33.4921 H   0  0  0  0  0  0  0  0  0  0  0  0
   -6.4350   11.7226  -35.6803 H   0  0  0  0  0  0  0  0  0  0  0  0
   -8.0732   11.4349  -35.1213 H   0  0  0  0  0  0  0  0  0  0  0  0
   -6.8626   12.0843  -33.9932 H   0  0  0  0  0  0  0  0  0  0  0  0
   -5.6037   14.0615  -36.0913 H   0  0  0  0  0  0  0  0  0  0  0  0
   -6.6443   15.4647  -35.7666 H   0  0  0  0  0  0  0  0  0  0  0  0
   -5.9540   14.5135  -34.4320 H   0  0  0  0  0  0  0  0  0  0  0  0
  -10.2553   12.7443  -37.4487 H   0  0  0  0  0  0  0  0  0  0  0  0
  -11.4906   17.4752  -40.4512 H   0  0  0  0  0  0  0  0  0  0  0  0
  1 18  1  0  0  0  0
  1 19  2  0  0  0  0
  1 21  1  0  0  0  0
  2  8  1  0  0  0  0
  2  9  1  0  0  0  0
  3  8  1  0  0  0  0
  3 10  1  0  0  0  0
  4  9  1  0  0  0  0
  4 10  1  0  0  0  0
  5  8  1  0  0  0  0
  5 11  1  0  0  0  0
  6  9  1  0  0  0  0
  6 11  1  0  0  0  0
  7 10  1  0  0  0  0
  7 11  1  0  0  0  0
  8 12  1  0  0  0  0
  9 13  1  0  0  0  0
 10 18  1  0  0  0  0
 11 20  1  0  0  0  0
 14 17  1  0  0  0  0
 15 17  1  0  0  0  0
 16 17  1  0  0  0  0
 17 21  1  0  0  0  0
  2 22  1  0  0  0  0
  2 23  1  0  0  0  0
  3 24  1  0  0  0  0
  3 25  1  0  0  0  0
  4 26  1  0  0  0  0
  4 27  1  0  0  0  0
  5 28  1  0  0  0  0
  5 29  1  0  0  0  0
  6 30  1  0  0  0  0
  6 31  1  0  0  0  0
  7 32  1  0  0  0  0
  7 33  1  0  0  0  0
 12 34  1  0  0  0  0
 12 35  1  0  0  0  0
 12 36  1  0  0  0  0
 13 37  1  0  0  0  0
 13 38  1  0  0  0  0
 13 39  1  0  0  0  0
 14 40  1  0  0  0  0
 14 41  1  0  0  0  0
 14 42  1  0  0  0  0
 15 43  1  0  0  0  0
 15 44  1  0  0  0  0
 15 45  1  0  0  0  0
 16 46  1  0  0  0  0
 16 47  1  0  0  0  0
 16 48  1  0  0  0  0
 18 49  1  0  0  0  0
 20 50  1  0  0  0  0
M  END
> <id>
EN300-7548425

> <smiles>
CC(C)(C)OC(=O)NC1(CC2(C)CC3(C)CC(O)(C2)C1)C3

> <IUPAC Name>
tert-butyl N-(3-hydroxy-5,7-dimethyladamantan-1-yl)carbamate

> <CAS>
356572-10-6

> <URL>
https://www.enaminestore.com/catalog/EN300-7548425

> <ROCS_ShapeQuery>
_x1247relevant_x1083L0AP1_x1305L0BP1_

> <ROCS_TanimotoCombo>
0.838 

> <ROCS_ShapeTanimoto>
0.505 

> <ROCS_ColorTanimoto>
0.334 

> <ROCS_RefTversky>
0.454 

> <ROCS_RefColorTversky>
0.391 

> <ROCS_RefTverskyCombo>
0.845 

> <ROCS_FitTversky>
1.282 

> <ROCS_FitColorTversky>
0.696 

> <ROCS_FitTverskyCombo>
1.977 

> <ROCS_ColorScore>
-8.331

> <ROCS_Overlap>
1343.574

> <ROCS_Rank>
204                 

$$$$
untitled-dbase-179909_5
  -OEChem-06232314393D

 28 30  0     1  0  0  0  0  0999 V2000
   -9.9588   14.9835  -37.0623 C   0  0  0  0  0  0  0  0  0  0  0  0
  -14.4508   15.1424  -38.5352 C   0  0  0  0  0  0  0  0  0  0  0  0
  -13.7813   13.7272  -38.2252 C   0  0  0  0  0  0  0  0  0  0  0  0
  -12.3476   16.9975  -39.2266 C   0  0  0  0  0  0  0  0  0  0  0  0
  -13.1620   15.8170  -38.8368 C   0  0  1  0  0  0  0  0  0  0  0  0
  -12.3659   14.0074  -37.6339 C   0  0  2  0  0  0  0  0  0  0  0  0
  -12.4176   15.4359  -37.5835 C   0  0  1  0  0  0  0  0  0  0  0  0
  -10.9304   16.2529  -39.1240 C   0  0  1  0  0  0  0  0  0  0  0  0
  -11.0824   15.1391  -38.0112 C   0  0  1  0  0  0  0  0  0  0  0  0
   -9.2436   13.7410  -35.1839 C   0  0  0  0  0  0  0  0  0  0  0  0
  -10.4782   15.6437  -40.3708 N   0  0  0  0  0  0  0  0  0  0  0  0
   -8.9336   15.6504  -37.0991 O   0  0  0  0  0  0  0  0  0  0  0  0
  -10.2520   13.9986  -36.1663 O   0  0  0  0  0  0  0  0  0  0  0  0
  -15.1528   15.0852  -39.3706 H   0  0  0  0  0  0  0  0  0  0  0  0
  -14.9535   15.5422  -37.6477 H   0  0  0  0  0  0  0  0  0  0  0  0
  -14.3999   13.1657  -37.5174 H   0  0  0  0  0  0  0  0  0  0  0  0
  -13.6765   13.1373  -39.1433 H   0  0  0  0  0  0  0  0  0  0  0  0
  -12.5479   17.3837  -40.2300 H   0  0  0  0  0  0  0  0  0  0  0  0
  -12.4066   17.8158  -38.5004 H   0  0  0  0  0  0  0  0  0  0  0  0
  -12.9206   15.1978  -39.7253 H   0  0  0  0  0  0  0  0  0  0  0  0
  -12.2095   13.4427  -36.7205 H   0  0  0  0  0  0  0  0  0  0  0  0
  -12.6373   15.9823  -36.6812 H   0  0  0  0  0  0  0  0  0  0  0  0
  -10.1850   16.9938  -38.8107 H   0  0  0  0  0  0  0  0  0  0  0  0
   -9.5768   12.9395  -34.5201 H   0  0  0  0  0  0  0  0  0  0  0  0
   -9.0539   14.6503  -34.6081 H   0  0  0  0  0  0  0  0  0  0  0  0
   -8.3250   13.4339  -35.6895 H   0  0  0  0  0  0  0  0  0  0  0  0
  -10.3891   16.3596  -41.0529 H   0  0  0  0  0  0  0  0  0  0  0  0
   -9.6019   15.2079  -40.2041 H   0  0  0  0  0  0  0  0  0  0  0  0
  1  9  1  1  0  0  0
  1 12  2  0  0  0  0
  1 13  1  0  0  0  0
  2  3  1  0  0  0  0
  2  5  1  1  0  0  0
  3  6  1  6  0  0  0
  4  5  1  0  0  0  0
  4  8  1  0  0  0  0
  5  7  1  0  0  0  0
  6  7  1  0  0  0  0
  6  9  1  0  0  0  0
  7  9  1  0  0  0  0
  8  9  1  0  0  0  0
  8 11  1  6  0  0  0
 10 13  1  0  0  0  0
  2 14  1  0  0  0  0
  2 15  1  0  0  0  0
  3 16  1  0  0  0  0
  3 17  1  0  0  0  0
  4 18  1  0  0  0  0
  4 19  1  0  0  0  0
  5 20  1  0  0  0  0
  6 21  1  0  0  0  0
  7 22  1  0  0  0  0
  8 23  1  0  0  0  0
 10 24  1  0  0  0  0
 10 25  1  0  0  0  0
 10 26  1  0  0  0  0
 11 27  1  0  0  0  0
 11 28  1  0  0  0  0
M  END
> <id>
EN300-45377090

> <smiles>
COC(=O)[C@@]1([C@@H]2CC[C@H]3C[C@@H]1N)C23 |&1:4,5,8,10,r|

> <IUPAC Name>
rac-methyl (2R,3R,5R,8S)-3-aminotricyclo[3.3.0.0,2,8]octane-2-carboxylate

> <URL>
https://www.enaminestore.com/catalog/EN300-45377090

> <ROCS_ShapeQuery>
_x1247relevant_x1083L0AP1_x1305L0BP1_

> <ROCS_TanimotoCombo>
0.838 

> <ROCS_ShapeTanimoto>
0.488 

> <ROCS_ColorTanimoto>
0.350 

> <ROCS_RefTversky>
0.407 

> <ROCS_RefColorTversky>
0.469 

> <ROCS_RefTverskyCombo>
0.875 

> <ROCS_FitTversky>
1.696 

> <ROCS_FitColorTversky>
0.580 

> <ROCS_FitTverskyCombo>
2.277 

> <ROCS_ColorScore>
-10.130

> <ROCS_Overlap>
1195.338

> <ROCS_Rank>
205                 

$$$$
untitled-dbase-175236_228
  -OEChem-06232314393D

 35 36  0     1  0  0  0  0  0999 V2000
   -9.6977   14.7504  -37.2959 C   0  0  0  0  0  0  0  0  0  0  0  0
  -12.8205   14.2850  -39.0186 C   0  0  0  0  0  0  0  0  0  0  0  0
  -11.1961   16.0320  -38.8989 C   0  0  0  0  0  0  0  0  0  0  0  0
  -13.0594   15.2079  -36.8935 C   0  0  0  0  0  0  0  0  0  0  0  0
  -12.1448   14.2504  -37.6572 C   0  0  2  0  0  0  0  0  0  0  0  0
  -12.7042   15.8052  -39.0957 C   0  0  1  0  0  0  0  0  0  0  0  0
  -10.1172   14.1675  -34.7768 C   0  0  0  0  0  0  0  0  0  0  0  0
   -9.9459   11.7301  -35.3588 C   0  0  0  0  0  0  0  0  0  0  0  0
   -7.8723   13.1449  -35.2759 C   0  0  0  0  0  0  0  0  0  0  0  0
  -13.3021   16.4667  -40.3114 C   0  0  0  0  0  0  0  0  0  0  0  0
   -9.3655   13.1220  -35.5994 C   0  0  0  0  0  0  0  0  0  0  0  0
  -10.9043   14.9857  -37.9196 N   0  0  0  0  0  0  0  0  0  0  0  0
   -8.8670   15.6197  -37.0444 O   0  0  0  0  0  0  0  0  0  0  0  0
  -13.3648   16.2374  -37.8756 O   0  0  0  0  0  0  0  0  0  0  0  0
  -14.6910   16.1692  -40.3713 O   0  0  0  0  0  0  0  0  0  0  0  0
   -9.5359   13.4264  -36.9882 O   0  0  0  0  0  0  0  0  0  0  0  0
  -12.2677   13.7565  -39.8020 H   0  0  0  0  0  0  0  0  0  0  0  0
  -13.8564   13.9303  -38.9819 H   0  0  0  0  0  0  0  0  0  0  0  0
  -10.6031   15.8460  -39.7998 H   0  0  0  0  0  0  0  0  0  0  0  0
  -10.9508   17.0078  -38.4688 H   0  0  0  0  0  0  0  0  0  0  0  0
  -14.0010   14.7341  -36.5980 H   0  0  0  0  0  0  0  0  0  0  0  0
  -12.5897   15.6639  -36.0168 H   0  0  0  0  0  0  0  0  0  0  0  0
  -11.9849   13.2783  -37.1889 H   0  0  0  0  0  0  0  0  0  0  0  0
   -9.7036   15.1681  -34.9466 H   0  0  0  0  0  0  0  0  0  0  0  0
  -11.1835   14.1854  -35.0246 H   0  0  0  0  0  0  0  0  0  0  0  0
  -10.0145   13.9687  -33.7038 H   0  0  0  0  0  0  0  0  0  0  0  0
   -9.4095   10.9768  -35.9471 H   0  0  0  0  0  0  0  0  0  0  0  0
  -10.9932   11.6833  -35.6787 H   0  0  0  0  0  0  0  0  0  0  0  0
   -9.8930   11.4473  -34.3025 H   0  0  0  0  0  0  0  0  0  0  0  0
   -7.3329   12.3950  -35.8658 H   0  0  0  0  0  0  0  0  0  0  0  0
   -7.4309   14.1262  -35.4777 H   0  0  0  0  0  0  0  0  0  0  0  0
   -7.6978   12.8943  -34.2233 H   0  0  0  0  0  0  0  0  0  0  0  0
  -12.8273   16.0990  -41.2286 H   0  0  0  0  0  0  0  0  0  0  0  0
  -13.1808   17.5551  -40.2627 H   0  0  0  0  0  0  0  0  0  0  0  0
  -15.0872   16.5182  -39.5567 H   0  0  0  0  0  0  0  0  0  0  0  0
  1 12  1  0  0  0  0
  1 13  2  0  0  0  0
  1 16  1  0  0  0  0
  2  5  1  0  0  0  0
  2  6  1  0  0  0  0
  3  6  1  0  0  0  0
  3 12  1  0  0  0  0
  4  5  1  0  0  0  0
  4 14  1  0  0  0  0
  5 12  1  0  0  0  0
  6 10  1  0  0  0  0
  6 14  1  0  0  0  0
  7 11  1  0  0  0  0
  8 11  1  0  0  0  0
  9 11  1  0  0  0  0
 10 15  1  0  0  0  0
 11 16  1  0  0  0  0
  2 17  1  0  0  0  0
  2 18  1  0  0  0  0
  3 19  1  0  0  0  0
  3 20  1  0  0  0  0
  4 21  1  0  0  0  0
  4 22  1  0  0  0  0
  5 23  1  0  0  0  0
  7 24  1  0  0  0  0
  7 25  1  0  0  0  0
  7 26  1  0  0  0  0
  8 27  1  0  0  0  0
  8 28  1  0  0  0  0
  8 29  1  0  0  0  0
  9 30  1  0  0  0  0
  9 31  1  0  0  0  0
  9 32  1  0  0  0  0
 10 33  1  0  0  0  0
 10 34  1  0  0  0  0
 15 35  1  0  0  0  0
M  END
> <id>
EN300-268842

> <smiles>
CC(C)(C)OC(=O)N1CC2(CO)CC1CO2

> <MDLNUMBER>
MFCD22209627

> <IUPAC Name>
tert-butyl 1-(hydroxymethyl)-2-oxa-5-azabicyclo[2.2.1]heptane-5-carboxylate

> <CAS>
1357351-86-0

> <Purity>
95

> <URL>
https://www.enaminestore.com/catalog/EN300-268842

> <ROCS_ShapeQuery>
_x1247relevant_x1083L0AP1_x1305L0BP1_

> <ROCS_TanimotoCombo>
0.838 

> <ROCS_ShapeTanimoto>
0.505 

> <ROCS_ColorTanimoto>
0.333 

> <ROCS_RefTversky>
0.431 

> <ROCS_RefColorTversky>
0.390 

> <ROCS_RefTverskyCombo>
0.821 

> <ROCS_FitTversky>
1.517 

> <ROCS_FitColorTversky>
0.696 

> <ROCS_FitTverskyCombo>
2.212 

> <ROCS_ColorScore>
-8.320

> <ROCS_Overlap>
1269.140

> <ROCS_Rank>
206                 

$$$$
untitled-dbase-152487_32
  -OEChem-06232314393D

 27 28  0     1  0  0  0  0  0999 V2000
  -13.1684   16.7564  -40.5306 C   0  0  0  0  0  0  0  0  0  0  0  0
  -10.0333   14.9618  -36.3601 C   0  0  0  0  0  0  0  0  0  0  0  0
  -13.4137   16.5307  -38.0722 C   0  0  0  0  0  0  0  0  0  0  0  0
  -12.5567   14.7321  -36.4825 C   0  0  0  0  0  0  0  0  0  0  0  0
  -11.1208   14.3058  -38.4778 C   0  0  0  0  0  0  0  0  0  0  0  0
  -12.5033   16.2873  -39.2719 C   0  0  1  0  0  0  0  0  0  0  0  0
  -13.6354   15.1354  -37.4950 C   0  0  2  0  0  0  0  0  0  0  0  0
  -12.3276   14.7685  -39.3004 C   0  0  2  0  0  0  0  0  0  0  0  0
   -8.8994   15.6170  -37.1081 C   0  0  0  0  0  0  0  0  0  0  0  0
  -11.2100   14.7490  -37.0797 N   0  0  0  0  0  0  0  0  0  0  0  0
  -12.7061   17.5835  -41.3023 O   0  0  0  0  0  0  0  0  0  0  0  0
   -9.8788   14.6443  -35.1784 O   0  0  0  0  0  0  0  0  0  0  0  0
  -13.5036   14.2694  -38.6337 O   0  0  0  0  0  0  0  0  0  0  0  0
  -14.3626   16.1381  -40.7001 O   0  0  0  0  0  0  0  0  0  0  0  0
   -9.2600   15.8790  -38.3769 F   0  0  0  0  0  0  0  0  0  0  0  0
   -8.5511   16.7755  -36.5205 F   0  0  0  0  0  0  0  0  0  0  0  0
   -7.8196   14.8155  -37.1331 F   0  0  0  0  0  0  0  0  0  0  0  0
  -12.9715   17.2155  -37.3410 H   0  0  0  0  0  0  0  0  0  0  0  0
  -14.3738   16.9612  -38.3815 H   0  0  0  0  0  0  0  0  0  0  0  0
  -12.6040   15.3824  -35.6056 H   0  0  0  0  0  0  0  0  0  0  0  0
  -12.7249   13.7004  -36.1518 H   0  0  0  0  0  0  0  0  0  0  0  0
  -11.0908   13.2100  -38.4452 H   0  0  0  0  0  0  0  0  0  0  0  0
  -10.1860   14.6566  -38.9272 H   0  0  0  0  0  0  0  0  0  0  0  0
  -11.5508   16.8215  -39.1913 H   0  0  0  0  0  0  0  0  0  0  0  0
  -14.6327   15.0220  -37.0595 H   0  0  0  0  0  0  0  0  0  0  0  0
  -12.2862   14.3491  -40.3108 H   0  0  0  0  0  0  0  0  0  0  0  0
  -14.5557   15.5085  -39.9730 H   0  0  0  0  0  0  0  0  0  0  0  0
  1  6  1  0  0  0  0
  1 11  2  0  0  0  0
  1 14  1  0  0  0  0
  2  9  1  0  0  0  0
  2 10  1  0  0  0  0
  2 12  2  0  0  0  0
  3  6  1  0  0  0  0
  3  7  1  0  0  0  0
  4  7  1  0  0  0  0
  4 10  1  0  0  0  0
  5  8  1  0  0  0  0
  5 10  1  0  0  0  0
  6  8  1  0  0  0  0
  7 13  1  0  0  0  0
  8 13  1  0  0  0  0
  9 15  1  0  0  0  0
  9 16  1  0  0  0  0
  9 17  1  0  0  0  0
  3 18  1  0  0  0  0
  3 19  1  0  0  0  0
  4 20  1  0  0  0  0
  4 21  1  0  0  0  0
  5 22  1  0  0  0  0
  5 23  1  0  0  0  0
  6 24  1  0  0  0  0
  7 25  1  0  0  0  0
  8 26  1  0  0  0  0
 14 27  1  0  0  0  0
M  END
> <id>
EN300-28279176

> <smiles>
OC(=O)C1CC2CN(CC1O2)C(=O)C(F)(F)F

> <IUPAC Name>
3-(2,2,2-trifluoroacetyl)-8-oxa-3-azabicyclo[3.2.1]octane-6-carboxylic acid

> <CAS>
2680855-26-7

> <URL>
https://www.enaminestore.com/catalog/EN300-28279176

> <ROCS_ShapeQuery>
_x1247relevant_x1083L0AP1_x1305L0BP1_

> <ROCS_TanimotoCombo>
0.838 

> <ROCS_ShapeTanimoto>
0.511 

> <ROCS_ColorTanimoto>
0.327 

> <ROCS_RefTversky>
0.441 

> <ROCS_RefColorTversky>
0.378 

> <ROCS_RefTverskyCombo>
0.819 

> <ROCS_FitTversky>
1.452 

> <ROCS_FitColorTversky>
0.706 

> <ROCS_FitTverskyCombo>
2.158 

> <ROCS_ColorScore>
-8.058

> <ROCS_Overlap>
1300.472

> <ROCS_Rank>
207                 

$$$$
untitled-dbase-165975_6
  -OEChem-06232314393D

 26 28  0     1  0  0  0  0  0999 V2000
   -8.9742   14.2373  -37.4521 C   0  0  0  0  0  0  0  0  0  0  0  0
  -13.8583   15.4332  -39.6477 C   0  0  0  0  0  0  0  0  0  0  0  0
  -14.3854   15.2605  -38.2227 C   0  0  0  0  0  0  0  0  0  0  0  0
  -11.6843   14.3492  -38.9931 C   0  0  0  0  0  0  0  0  0  0  0  0
  -10.4970   15.4671  -36.2882 C   0  0  0  0  0  0  0  0  0  0  0  0
  -12.2250   14.1452  -37.5681 C   0  0  1  0  0  0  0  0  0  0  0  0
  -11.0996   14.0991  -36.5429 C   0  0  1  0  0  0  0  0  0  0  0  0
  -12.3657   15.6522  -39.4109 C   0  0  2  0  0  0  0  0  0  0  0  0
  -13.1088   15.3892  -37.3919 C   0  0  1  0  0  0  0  0  0  0  0  0
   -9.9732   13.3784  -37.0504 N   0  0  0  0  0  0  0  0  0  0  0  0
   -7.9326   13.9381  -38.0185 O   0  0  0  0  0  0  0  0  0  0  0  0
   -9.3271   15.5223  -37.1242 O   0  0  0  0  0  0  0  0  0  0  0  0
  -12.3798   16.3767  -38.1597 O   0  0  0  0  0  0  0  0  0  0  0  0
  -14.0690   14.5734  -40.2902 H   0  0  0  0  0  0  0  0  0  0  0  0
  -14.3121   16.3224  -40.0994 H   0  0  0  0  0  0  0  0  0  0  0  0
  -15.0800   16.0755  -37.9892 H   0  0  0  0  0  0  0  0  0  0  0  0
  -14.9046   14.3103  -38.0682 H   0  0  0  0  0  0  0  0  0  0  0  0
  -10.5957   14.4746  -38.9893 H   0  0  0  0  0  0  0  0  0  0  0  0
  -11.9295   13.5163  -39.6596 H   0  0  0  0  0  0  0  0  0  0  0  0
  -11.1551   16.2984  -36.5669 H   0  0  0  0  0  0  0  0  0  0  0  0
  -10.1928   15.5868  -35.2430 H   0  0  0  0  0  0  0  0  0  0  0  0
  -12.8108   13.2227  -37.4876 H   0  0  0  0  0  0  0  0  0  0  0  0
  -11.4244   13.6259  -35.6391 H   0  0  0  0  0  0  0  0  0  0  0  0
  -11.8541   16.1984  -40.2063 H   0  0  0  0  0  0  0  0  0  0  0  0
  -13.2736   15.7050  -36.3589 H   0  0  0  0  0  0  0  0  0  0  0  0
   -9.9195   12.3629  -37.1062 H   0  0  0  0  0  0  0  0  0  0  0  0
  1 10  1  0  0  0  0
  1 11  2  0  0  0  0
  1 12  1  0  0  0  0
  2  3  1  0  0  0  0
  2  8  1  0  0  0  0
  3  9  1  0  0  0  0
  4  6  1  0  0  0  0
  4  8  1  0  0  0  0
  5  7  1  0  0  0  0
  5 12  1  0  0  0  0
  6  7  1  0  0  0  0
  6  9  1  0  0  0  0
  7 10  1  0  0  0  0
  8 13  1  0  0  0  0
  9 13  1  0  0  0  0
  2 14  1  0  0  0  0
  2 15  1  0  0  0  0
  3 16  1  0  0  0  0
  3 17  1  0  0  0  0
  4 18  1  0  0  0  0
  4 19  1  0  0  0  0
  5 20  1  0  0  0  0
  5 21  1  0  0  0  0
  6 22  1  0  0  0  0
  7 23  1  0  0  0  0
  8 24  1  0  0  0  0
  9 25  1  0  0  0  0
 10 26  1  0  0  0  0
M  END
> <id>
EN300-1754133

> <smiles>
O=C1NC(CO1)C2CC3CCC2O3

> <IUPAC Name>
4-{7-oxabicyclo[2.2.1]heptan-2-yl}-1,3-oxazolidin-2-one

> <CAS>
2229560-84-1

> <URL>
https://www.enaminestore.com/catalog/EN300-1754133

> <ROCS_ShapeQuery>
_x1247relevant_x1083L0AP1_x1305L0BP1_

> <ROCS_TanimotoCombo>
0.838 

> <ROCS_ShapeTanimoto>
0.493 

> <ROCS_ColorTanimoto>
0.344 

> <ROCS_RefTversky>
0.412 

> <ROCS_RefColorTversky>
0.388 

> <ROCS_RefTverskyCombo>
0.799 

> <ROCS_FitTversky>
1.673 

> <ROCS_FitColorTversky>
0.755 

> <ROCS_FitTverskyCombo>
2.428 

> <ROCS_ColorScore>
-8.250

> <ROCS_Overlap>
1210.736

> <ROCS_Rank>
208                 

$$$$
untitled-dbase-45265_9
  -OEChem-06232314393D

 38 41  0     1  0  0  0  0  0999 V2000
   -7.7660   14.8344  -38.4330 C   0  0  0  0  0  0  0  0  0  0  0  0
   -6.8787   15.5985  -37.4904 C   0  0  0  0  0  0  0  0  0  0  0  0
  -12.7963   13.9989  -39.4011 C   0  0  0  0  0  0  0  0  0  0  0  0
  -12.2040   16.3955  -39.4007 C   0  0  0  0  0  0  0  0  0  0  0  0
  -13.9675   14.3679  -38.4776 C   0  0  0  0  0  0  0  0  0  0  0  0
  -13.3002   16.6802  -38.3649 C   0  0  0  0  0  0  0  0  0  0  0  0
   -9.8488   13.4519  -36.1878 C   0  0  0  0  0  0  0  0  0  0  0  0
  -12.4242   15.0890  -36.7761 C   0  0  0  0  0  0  0  0  0  0  0  0
   -9.5042   15.9154  -36.2454 C   0  0  0  0  0  0  0  0  0  0  0  0
   -7.6382   14.3970  -37.0001 C   0  0  0  0  0  0  0  0  0  0  0  0
  -11.6361   14.9815  -39.1563 C   0  0  0  0  0  0  0  0  0  0  0  0
   -8.8135   14.5698  -36.0323 C   0  0  2  0  0  0  0  0  0  0  0  0
  -11.1621   14.8782  -37.6708 C   0  0  2  0  0  0  0  0  0  0  0  0
  -10.5678   13.5431  -37.4580 N   0  0  0  0  0  0  0  0  0  0  0  0
  -13.6191   15.4795  -37.5661 N   0  0  0  0  0  0  0  0  0  0  0  0
  -10.2058   15.9429  -37.4874 O   0  0  0  0  0  0  0  0  0  0  0  0
   -8.6873   15.3063  -38.7513 H   0  0  0  0  0  0  0  0  0  0  0  0
   -7.2897   14.2241  -39.1905 H   0  0  0  0  0  0  0  0  0  0  0  0
   -5.8073   15.5003  -37.6154 H   0  0  0  0  0  0  0  0  0  0  0  0
   -7.2056   16.5823  -37.1773 H   0  0  0  0  0  0  0  0  0  0  0  0
  -12.4895   12.9609  -39.2429 H   0  0  0  0  0  0  0  0  0  0  0  0
  -13.1236   14.0690  -40.4456 H   0  0  0  0  0  0  0  0  0  0  0  0
  -12.6202   16.4581  -40.4134 H   0  0  0  0  0  0  0  0  0  0  0  0
  -11.4163   17.1535  -39.3337 H   0  0  0  0  0  0  0  0  0  0  0  0
  -14.8479   14.6400  -39.0741 H   0  0  0  0  0  0  0  0  0  0  0  0
  -14.2709   13.4898  -37.8932 H   0  0  0  0  0  0  0  0  0  0  0  0
  -12.9897   17.4957  -37.6995 H   0  0  0  0  0  0  0  0  0  0  0  0
  -14.2046   17.0412  -38.8705 H   0  0  0  0  0  0  0  0  0  0  0  0
   -9.3773   12.4612  -36.0805 H   0  0  0  0  0  0  0  0  0  0  0  0
  -10.5814   13.5164  -35.3675 H   0  0  0  0  0  0  0  0  0  0  0  0
  -12.6787   14.1816  -36.2113 H   0  0  0  0  0  0  0  0  0  0  0  0
  -12.2357   15.8564  -36.0133 H   0  0  0  0  0  0  0  0  0  0  0  0
  -10.2385   16.0943  -35.4480 H   0  0  0  0  0  0  0  0  0  0  0  0
   -8.7934   16.7525  -36.1994 H   0  0  0  0  0  0  0  0  0  0  0  0
   -7.0751   13.4937  -36.7989 H   0  0  0  0  0  0  0  0  0  0  0  0
  -10.8243   14.7965  -39.8702 H   0  0  0  0  0  0  0  0  0  0  0  0
   -8.4216   14.5379  -35.0142 H   0  0  0  0  0  0  0  0  0  0  0  0
   -9.9520   13.2859  -38.2274 H   0  0  0  0  0  0  0  0  0  0  0  0
  1  2  1  0  0  0  0
  1 10  1  0  0  0  0
  2 10  1  0  0  0  0
  3  5  1  0  0  0  0
  3 11  1  0  0  0  0
  4  6  1  0  0  0  0
  4 11  1  0  0  0  0
  5 15  1  0  0  0  0
  6 15  1  0  0  0  0
  7 12  1  0  0  0  0
  7 14  1  0  0  0  0
  8 13  1  0  0  0  0
  8 15  1  0  0  0  0
  9 12  1  0  0  0  0
  9 16  1  0  0  0  0
 10 12  1  0  0  0  0
 11 13  1  0  0  0  0
 13 14  1  0  0  0  0
 13 16  1  0  0  0  0
  1 17  1  0  0  0  0
  1 18  1  0  0  0  0
  2 19  1  0  0  0  0
  2 20  1  0  0  0  0
  3 21  1  0  0  0  0
  3 22  1  0  0  0  0
  4 23  1  0  0  0  0
  4 24  1  0  0  0  0
  5 25  1  0  0  0  0
  5 26  1  0  0  0  0
  6 27  1  0  0  0  0
  6 28  1  0  0  0  0
  7 29  1  0  0  0  0
  7 30  1  0  0  0  0
  8 31  1  0  0  0  0
  8 32  1  0  0  0  0
  9 33  1  0  0  0  0
  9 34  1  0  0  0  0
 10 35  1  0  0  0  0
 11 36  1  0  0  0  0
 12 37  1  0  0  0  0
 14 38  1  0  0  0  0
M  END
> <id>
EN300-1279615

> <smiles>
C1CC1C2CNC3(CN4CCC3CC4)OC2

> <IUPAC Name>
5'-cyclopropyl-4-azaspiro[bicyclo[2.2.2]octane-2,2'-[1,3]oxazinane]

> <CAS>
2172151-08-3

> <URL>
https://www.enaminestore.com/catalog/EN300-1279615

> <ROCS_ShapeQuery>
_x1247relevant_x1083L0AP1_x1305L0BP1_

> <ROCS_TanimotoCombo>
0.837 

> <ROCS_ShapeTanimoto>
0.475 

> <ROCS_ColorTanimoto>
0.363 

> <ROCS_RefTversky>
0.413 

> <ROCS_RefColorTversky>
0.411 

> <ROCS_RefTverskyCombo>
0.824 

> <ROCS_FitTversky>
1.458 

> <ROCS_FitColorTversky>
0.754 

> <ROCS_FitTverskyCombo>
2.212 

> <ROCS_ColorScore>
-8.759

> <ROCS_Overlap>
1217.886

> <ROCS_Rank>
209                 

$$$$
untitled-dbase-175437_25
  -OEChem-06232314393D

 37 39  0     1  0  0  0  0  0999 V2000
   -9.9577   14.9955  -37.0611 C   0  0  0  0  0  0  0  0  0  0  0  0
  -14.4505   15.1385  -38.5330 C   0  0  0  0  0  0  0  0  0  0  0  0
  -13.7781   13.7261  -38.2166 C   0  0  0  0  0  0  0  0  0  0  0  0
  -12.3513   16.9945  -39.2339 C   0  0  0  0  0  0  0  0  0  0  0  0
  -13.1631   15.8142  -38.8383 C   0  0  1  0  0  0  0  0  0  0  0  0
  -12.3629   14.0119  -37.6272 C   0  0  2  0  0  0  0  0  0  0  0  0
  -12.4176   15.4405  -37.5835 C   0  0  1  0  0  0  0  0  0  0  0  0
  -10.9325   16.2533  -39.1283 C   0  0  1  0  0  0  0  0  0  0  0  0
  -11.0819   15.1444  -38.0102 C   0  0  1  0  0  0  0  0  0  0  0  0
   -7.9461   13.4303  -35.7961 C   0  0  0  0  0  0  0  0  0  0  0  0
   -9.8276   11.9313  -35.0733 C   0  0  0  0  0  0  0  0  0  0  0  0
   -9.3493   12.2474  -37.5185 C   0  0  0  0  0  0  0  0  0  0  0  0
   -9.3403   12.9084  -36.1410 C   0  0  0  0  0  0  0  0  0  0  0  0
  -10.4795   15.6392  -40.3724 N   0  0  0  0  0  0  0  0  0  0  0  0
   -8.9338   15.6643  -37.1013 O   0  0  0  0  0  0  0  0  0  0  0  0
  -10.2485   14.0142  -36.1602 O   0  0  0  0  0  0  0  0  0  0  0  0
  -15.1526   15.0759  -39.3680 H   0  0  0  0  0  0  0  0  0  0  0  0
  -14.9536   15.5414  -37.6473 H   0  0  0  0  0  0  0  0  0  0  0  0
  -14.3952   13.1667  -37.5060 H   0  0  0  0  0  0  0  0  0  0  0  0
  -13.6723   13.1321  -39.1320 H   0  0  0  0  0  0  0  0  0  0  0  0
  -12.5527   17.3756  -40.2390 H   0  0  0  0  0  0  0  0  0  0  0  0
  -12.4116   17.8161  -38.5116 H   0  0  0  0  0  0  0  0  0  0  0  0
  -12.9208   15.1913  -39.7239 H   0  0  0  0  0  0  0  0  0  0  0  0
  -12.2051   13.4518  -36.7112 H   0  0  0  0  0  0  0  0  0  0  0  0
  -12.6381   15.9907  -36.6837 H   0  0  0  0  0  0  0  0  0  0  0  0
  -10.1885   16.9972  -38.8188 H   0  0  0  0  0  0  0  0  0  0  0  0
   -7.5927   14.1320  -36.5601 H   0  0  0  0  0  0  0  0  0  0  0  0
   -7.9339   13.9374  -34.8259 H   0  0  0  0  0  0  0  0  0  0  0  0
   -7.2181   12.6115  -35.7679 H   0  0  0  0  0  0  0  0  0  0  0  0
  -10.8276   11.5544  -35.3166 H   0  0  0  0  0  0  0  0  0  0  0  0
   -9.9133   12.4277  -34.0999 H   0  0  0  0  0  0  0  0  0  0  0  0
   -9.1511   11.0770  -34.9684 H   0  0  0  0  0  0  0  0  0  0  0  0
  -10.3491   11.8730  -37.7661 H   0  0  0  0  0  0  0  0  0  0  0  0
   -9.0375   12.9450  -38.3027 H   0  0  0  0  0  0  0  0  0  0  0  0
   -8.6804   11.3794  -37.5386 H   0  0  0  0  0  0  0  0  0  0  0  0
  -10.3921   16.3520  -41.0579 H   0  0  0  0  0  0  0  0  0  0  0  0
   -9.6023   15.2059  -40.2040 H   0  0  0  0  0  0  0  0  0  0  0  0
  1  9  1  1  0  0  0
  1 15  2  0  0  0  0
  1 16  1  0  0  0  0
  2  3  1  0  0  0  0
  2  5  1  1  0  0  0
  3  6  1  6  0  0  0
  4  5  1  0  0  0  0
  4  8  1  0  0  0  0
  5  7  1  0  0  0  0
  6  7  1  0  0  0  0
  6  9  1  0  0  0  0
  7  9  1  0  0  0  0
  8  9  1  0  0  0  0
  8 14  1  6  0  0  0
 10 13  1  0  0  0  0
 11 13  1  0  0  0  0
 12 13  1  0  0  0  0
 13 16  1  0  0  0  0
  2 17  1  0  0  0  0
  2 18  1  0  0  0  0
  3 19  1  0  0  0  0
  3 20  1  0  0  0  0
  4 21  1  0  0  0  0
  4 22  1  0  0  0  0
  5 23  1  0  0  0  0
  6 24  1  0  0  0  0
  7 25  1  0  0  0  0
  8 26  1  0  0  0  0
 10 27  1  0  0  0  0
 10 28  1  0  0  0  0
 10 29  1  0  0  0  0
 11 30  1  0  0  0  0
 11 31  1  0  0  0  0
 11 32  1  0  0  0  0
 12 33  1  0  0  0  0
 12 34  1  0  0  0  0
 12 35  1  0  0  0  0
 14 36  1  0  0  0  0
 14 37  1  0  0  0  0
M  END
> <id>
EN300-45377092

> <smiles>
CC(C)(C)OC(=O)[C@@]1([C@@H]2CC[C@H]3C[C@@H]1N)C23 |&1:7,8,11,13,r|

> <IUPAC Name>
rac-tert-butyl (2R,3R,5R,8S)-3-aminotricyclo[3.3.0.0,2,8]octane-2-carboxylate

> <URL>
https://www.enaminestore.com/catalog/EN300-45377092

> <ROCS_ShapeQuery>
_x1247relevant_x1083L0AP1_x1305L0BP1_

> <ROCS_TanimotoCombo>
0.837 

> <ROCS_ShapeTanimoto>
0.499 

> <ROCS_ColorTanimoto>
0.338 

> <ROCS_RefTversky>
0.427 

> <ROCS_RefColorTversky>
0.467 

> <ROCS_RefTverskyCombo>
0.894 

> <ROCS_FitTversky>
1.515 

> <ROCS_FitColorTversky>
0.550 

> <ROCS_FitTverskyCombo>
2.065 

> <ROCS_ColorScore>
-10.129

> <ROCS_Overlap>
1257.223

> <ROCS_Rank>
210                 

$$$$
untitled-dbase-162283_0
  -OEChem-06232314393D

 29 30  0     1  0  0  0  0  0999 V2000
  -10.1560   15.2192  -36.7373 C   0  0  0  0  0  0  0  0  0  0  0  0
  -12.4603   16.1182  -36.8388 C   0  0  0  0  0  0  0  0  0  0  0  0
  -11.1439   15.9170  -38.9349 C   0  0  0  0  0  0  0  0  0  0  0  0
  -13.7644   16.1140  -37.6432 C   0  0  0  0  0  0  0  0  0  0  0  0
  -12.4258   15.8604  -39.7730 C   0  0  0  0  0  0  0  0  0  0  0  0
  -12.0203   13.8572  -37.7714 C   0  0  2  0  0  0  0  0  0  0  0  0
  -11.4049   15.2620  -37.5685 C   0  0  0  0  0  0  0  0  0  0  0  0
  -13.5777   15.2863  -38.9266 C   0  0  0  0  0  0  0  0  0  0  0  0
  -11.1071   12.8504  -38.4673 C   0  0  0  0  0  0  0  0  0  0  0  0
  -14.8704   15.2238  -39.7333 C   0  0  0  0  0  0  0  0  0  0  0  0
   -9.0587   15.6180  -37.0982 O   0  0  0  0  0  0  0  0  0  0  0  0
  -13.2329   13.9400  -38.5474 O   0  0  0  0  0  0  0  0  0  0  0  0
  -10.4077   14.6723  -35.5229 O   0  0  0  0  0  0  0  0  0  0  0  0
  -12.1047   17.1480  -36.7060 H   0  0  0  0  0  0  0  0  0  0  0  0
  -12.6449   15.7321  -35.8278 H   0  0  0  0  0  0  0  0  0  0  0  0
  -10.3195   15.4270  -39.4663 H   0  0  0  0  0  0  0  0  0  0  0  0
  -10.8305   16.9616  -38.8079 H   0  0  0  0  0  0  0  0  0  0  0  0
  -14.5569   15.6771  -37.0230 H   0  0  0  0  0  0  0  0  0  0  0  0
  -14.0639   17.1420  -37.8782 H   0  0  0  0  0  0  0  0  0  0  0  0
  -12.6711   16.8603  -40.1497 H   0  0  0  0  0  0  0  0  0  0  0  0
  -12.2460   15.2190  -40.6448 H   0  0  0  0  0  0  0  0  0  0  0  0
  -12.2975   13.4323  -36.7982 H   0  0  0  0  0  0  0  0  0  0  0  0
  -10.8076   13.2348  -39.4410 H   0  0  0  0  0  0  0  0  0  0  0  0
  -11.6333   11.9069  -38.6032 H   0  0  0  0  0  0  0  0  0  0  0  0
  -10.2178   12.6789  -37.8628 H   0  0  0  0  0  0  0  0  0  0  0  0
  -14.7165   14.6341  -40.6364 H   0  0  0  0  0  0  0  0  0  0  0  0
  -15.1814   16.2294  -40.0149 H   0  0  0  0  0  0  0  0  0  0  0  0
  -15.6577   14.7624  -39.1379 H   0  0  0  0  0  0  0  0  0  0  0  0
   -9.6021   14.6336  -34.9644 H   0  0  0  0  0  0  0  0  0  0  0  0
  1  7  1  0  0  0  0
  1 11  2  0  0  0  0
  1 13  1  0  0  0  0
  2  4  1  0  0  0  0
  2  7  1  0  0  0  0
  3  5  1  0  0  0  0
  3  7  1  0  0  0  0
  4  8  1  0  0  0  0
  5  8  1  0  0  0  0
  6  7  1  0  0  0  0
  6  9  1  0  0  0  0
  6 12  1  0  0  0  0
  8 10  1  0  0  0  0
  8 12  1  0  0  0  0
  2 14  1  0  0  0  0
  2 15  1  0  0  0  0
  3 16  1  0  0  0  0
  3 17  1  0  0  0  0
  4 18  1  0  0  0  0
  4 19  1  0  0  0  0
  5 20  1  0  0  0  0
  5 21  1  0  0  0  0
  6 22  1  0  0  0  0
  9 23  1  0  0  0  0
  9 24  1  0  0  0  0
  9 25  1  0  0  0  0
 10 26  1  0  0  0  0
 10 27  1  0  0  0  0
 10 28  1  0  0  0  0
 13 29  1  0  0  0  0
M  END
> <id>
EN300-39853035

> <smiles>
CC1OC2(C)CCC1(CC2)C(=O)O

> <IUPAC Name>
1,3-dimethyl-2-oxabicyclo[2.2.2]octane-4-carboxylic acid

> <Purity>
95

> <URL>
https://www.enaminestore.com/catalog/EN300-39853035

> <ROCS_ShapeQuery>
_x1247relevant_x1083L0AP1_x1305L0BP1_

> <ROCS_TanimotoCombo>
0.837 

> <ROCS_ShapeTanimoto>
0.490 

> <ROCS_ColorTanimoto>
0.348 

> <ROCS_RefTversky>
0.407 

> <ROCS_RefColorTversky>
0.387 

> <ROCS_RefTverskyCombo>
0.794 

> <ROCS_FitTversky>
1.706 

> <ROCS_FitColorTversky>
0.773 

> <ROCS_FitTverskyCombo>
2.479 

> <ROCS_ColorScore>
-8.228

> <ROCS_Overlap>
1197.008

> <ROCS_Rank>
211                 

$$$$
untitled-dbase-109452_11
  -OEChem-06232314393D

 28 30  0     1  0  0  0  0  0999 V2000
  -12.3693   15.1021  -39.9455 C   0  0  0  0  0  0  0  0  0  0  0  0
  -13.8115   14.0991  -38.4631 C   0  0  0  0  0  0  0  0  0  0  0  0
  -11.5878   16.4704  -38.2666 C   0  0  0  0  0  0  0  0  0  0  0  0
  -13.0359   15.4632  -36.7782 C   0  0  0  0  0  0  0  0  0  0  0  0
  -12.3045   14.1620  -38.7364 C   0  0  0  0  0  0  0  0  0  0  0  0
  -12.8635   16.2747  -39.0921 C   0  0  2  0  0  0  0  0  0  0  0  0
  -13.8680   15.5762  -38.0597 C   0  0  1  0  0  0  0  0  0  0  0  0
  -11.7641   15.1165  -37.5647 C   0  0  0  0  0  0  0  0  0  0  0  0
   -9.3973   15.5672  -36.8291 C   0  0  0  0  0  0  0  0  0  0  0  0
  -10.5938   14.6181  -36.7634 C   0  0  2  0  0  0  0  0  0  0  0  0
  -10.1615   13.2883  -37.2761 N   0  0  0  0  0  0  0  0  0  0  0  0
  -11.3957   15.2659  -40.4194 H   0  0  0  0  0  0  0  0  0  0  0  0
  -13.0821   14.7981  -40.7194 H   0  0  0  0  0  0  0  0  0  0  0  0
  -14.4229   13.8656  -39.3412 H   0  0  0  0  0  0  0  0  0  0  0  0
  -14.0780   13.4006  -37.6629 H   0  0  0  0  0  0  0  0  0  0  0  0
  -10.6696   16.5443  -38.8595 H   0  0  0  0  0  0  0  0  0  0  0  0
  -11.6348   17.3368  -37.5979 H   0  0  0  0  0  0  0  0  0  0  0  0
  -12.9793   16.4016  -36.2158 H   0  0  0  0  0  0  0  0  0  0  0  0
  -13.3610   14.6727  -36.0931 H   0  0  0  0  0  0  0  0  0  0  0  0
  -11.7991   13.2085  -38.8897 H   0  0  0  0  0  0  0  0  0  0  0  0
  -13.2320   17.1471  -39.6310 H   0  0  0  0  0  0  0  0  0  0  0  0
  -14.8603   16.0148  -37.9575 H   0  0  0  0  0  0  0  0  0  0  0  0
   -9.0752   15.7332  -37.8629 H   0  0  0  0  0  0  0  0  0  0  0  0
   -8.5494   15.1557  -36.2718 H   0  0  0  0  0  0  0  0  0  0  0  0
   -9.6450   16.5448  -36.4007 H   0  0  0  0  0  0  0  0  0  0  0  0
  -10.8786   14.4838  -35.7076 H   0  0  0  0  0  0  0  0  0  0  0  0
   -9.3981   13.0076  -36.7225 H   0  0  0  0  0  0  0  0  0  0  0  0
  -10.9326   12.6851  -37.1783 H   0  0  0  0  0  0  0  0  0  0  0  0
  1  5  1  0  0  0  0
  1  6  1  0  0  0  0
  2  5  1  0  0  0  0
  2  7  1  0  0  0  0
  3  6  1  0  0  0  0
  3  8  1  0  0  0  0
  4  7  1  0  0  0  0
  4  8  1  0  0  0  0
  5  8  1  0  0  0  0
  6  7  1  0  0  0  0
  8 10  1  0  0  0  0
  9 10  1  0  0  0  0
 10 11  1  0  0  0  0
  1 12  1  0  0  0  0
  1 13  1  0  0  0  0
  2 14  1  0  0  0  0
  2 15  1  0  0  0  0
  3 16  1  0  0  0  0
  3 17  1  0  0  0  0
  4 18  1  0  0  0  0
  4 19  1  0  0  0  0
  5 20  1  0  0  0  0
  6 21  1  0  0  0  0
  7 22  1  0  0  0  0
  9 23  1  0  0  0  0
  9 24  1  0  0  0  0
  9 25  1  0  0  0  0
 10 26  1  0  0  0  0
 11 27  1  0  0  0  0
 11 28  1  0  0  0  0
M  END
> <id>
EN300-26975743

> <smiles>
CC(N)C12CC3CC2CC3C1

> <IUPAC Name>
1-{tricyclo[3.3.0.0,3,7]octan-1-yl}ethan-1-amine

> <CAS>
2445793-08-6

> <URL>
https://www.enaminestore.com/catalog/EN300-26975743

> <ROCS_ShapeQuery>
_x1247relevant_x1083L0AP1_x1305L0BP1_

> <ROCS_TanimotoCombo>
0.837 

> <ROCS_ShapeTanimoto>
0.456 

> <ROCS_ColorTanimoto>
0.381 

> <ROCS_RefTversky>
0.381 

> <ROCS_RefColorTversky>
0.582 

> <ROCS_RefTverskyCombo>
0.963 

> <ROCS_FitTversky>
1.773 

> <ROCS_FitColorTversky>
0.524 

> <ROCS_FitTverskyCombo>
2.297 

> <ROCS_ColorScore>
-12.795

> <ROCS_Overlap>
1117.294

> <ROCS_Rank>
212                 

$$$$
untitled-dbase-151375_9
  -OEChem-06232314393D

 30 31  0     1  0  0  0  0  0999 V2000
   -9.8255   15.4683  -36.5067 C   0  0  0  0  0  0  0  0  0  0  0  0
  -12.9404   14.4002  -39.7057 C   0  0  0  0  0  0  0  0  0  0  0  0
  -13.7519   14.0981  -38.4387 C   0  0  0  0  0  0  0  0  0  0  0  0
  -13.2652   16.4322  -38.5051 C   0  0  0  0  0  0  0  0  0  0  0  0
  -10.9110   15.6308  -38.7343 C   0  0  0  0  0  0  0  0  0  0  0  0
  -12.2889   15.1363  -36.6086 C   0  0  0  0  0  0  0  0  0  0  0  0
  -12.2725   15.7552  -39.4440 C   0  0  1  0  0  0  0  0  0  0  0  0
  -13.5225   15.3008  -37.5154 C   0  0  2  0  0  0  0  0  0  0  0  0
  -10.9484   14.9264  -37.3555 C   0  0  0  0  0  0  0  0  0  0  0  0
   -9.2044   15.9079  -34.2696 C   0  0  0  0  0  0  0  0  0  0  0  0
  -10.6268   13.5043  -37.4941 N   0  0  0  0  0  0  0  0  0  0  0  0
   -8.7646   15.8805  -36.9558 O   0  0  0  0  0  0  0  0  0  0  0  0
  -10.1842   15.4211  -35.1921 O   0  0  0  0  0  0  0  0  0  0  0  0
  -12.2262   13.6104  -39.9559 H   0  0  0  0  0  0  0  0  0  0  0  0
  -13.6279   14.4843  -40.5569 H   0  0  0  0  0  0  0  0  0  0  0  0
  -14.8147   14.0368  -38.7058 H   0  0  0  0  0  0  0  0  0  0  0  0
  -13.4928   13.1420  -37.9757 H   0  0  0  0  0  0  0  0  0  0  0  0
  -12.8655   17.3356  -38.0332 H   0  0  0  0  0  0  0  0  0  0  0  0
  -14.1852   16.7023  -39.0376 H   0  0  0  0  0  0  0  0  0  0  0  0
  -10.2022   15.1179  -39.4032 H   0  0  0  0  0  0  0  0  0  0  0  0
  -10.4994   16.6464  -38.6168 H   0  0  0  0  0  0  0  0  0  0  0  0
  -12.2196   16.0319  -35.9708 H   0  0  0  0  0  0  0  0  0  0  0  0
  -12.4642   14.3046  -35.9087 H   0  0  0  0  0  0  0  0  0  0  0  0
  -12.1470   16.3215  -40.3755 H   0  0  0  0  0  0  0  0  0  0  0  0
  -14.4057   15.4989  -36.8956 H   0  0  0  0  0  0  0  0  0  0  0  0
   -9.5900   15.8259  -33.2504 H   0  0  0  0  0  0  0  0  0  0  0  0
   -8.9721   16.9507  -34.4999 H   0  0  0  0  0  0  0  0  0  0  0  0
   -8.2977   15.3054  -34.3632 H   0  0  0  0  0  0  0  0  0  0  0  0
  -11.3769   12.9797  -37.1120 H   0  0  0  0  0  0  0  0  0  0  0  0
  -10.5146   13.3067  -38.4596 H   0  0  0  0  0  0  0  0  0  0  0  0
  1  9  1  0  0  0  0
  1 12  2  0  0  0  0
  1 13  1  0  0  0  0
  2  3  1  0  0  0  0
  2  7  1  0  0  0  0
  3  8  1  6  0  0  0
  4  7  1  0  0  0  0
  4  8  1  0  0  0  0
  5  7  1  6  0  0  0
  5  9  1  0  0  0  0
  6  8  1  0  0  0  0
  6  9  1  0  0  0  0
  9 11  1  6  0  0  0
 10 13  1  0  0  0  0
  2 14  1  0  0  0  0
  2 15  1  0  0  0  0
  3 16  1  0  0  0  0
  3 17  1  0  0  0  0
  4 18  1  0  0  0  0
  4 19  1  0  0  0  0
  5 20  1  0  0  0  0
  5 21  1  0  0  0  0
  6 22  1  0  0  0  0
  6 23  1  0  0  0  0
  7 24  1  0  0  0  0
  8 25  1  0  0  0  0
 10 26  1  0  0  0  0
 10 27  1  0  0  0  0
 10 28  1  0  0  0  0
 11 29  1  0  0  0  0
 11 30  1  0  0  0  0
M  END
> <id>
EN300-28271450

> <smiles>
COC(=O)[C@]1(N)C[C@H]2CC[C@H](C2)C1

> <IUPAC Name>
methyl (1R,3R,5S)-3-aminobicyclo[3.2.1]octane-3-carboxylate

> <CAS>
2679935-37-4

> <URL>
https://www.enaminestore.com/catalog/EN300-28271450

> <ROCS_ShapeQuery>
_x1247relevant_x1083L0AP1_x1305L0BP1_

> <ROCS_TanimotoCombo>
0.837 

> <ROCS_ShapeTanimoto>
0.452 

> <ROCS_ColorTanimoto>
0.384 

> <ROCS_RefTversky>
0.385 

> <ROCS_RefColorTversky>
0.401 

> <ROCS_RefTverskyCombo>
0.786 

> <ROCS_FitTversky>
1.629 

> <ROCS_FitColorTversky>
0.903 

> <ROCS_FitTverskyCombo>
2.532 

> <ROCS_ColorScore>
-8.501

> <ROCS_Overlap>
1131.469

> <ROCS_Rank>
213                 

$$$$
untitled-dbase-144967_36
  -OEChem-06232314393D

 33 34  0     1  0  0  0  0  0999 V2000
  -10.6289   14.9064  -36.5118 C   0  0  0  0  0  0  0  0  0  0  0  0
  -12.4105   16.8263  -37.9774 C   0  0  0  0  0  0  0  0  0  0  0  0
  -12.2289   16.2726  -39.3981 C   0  0  0  0  0  0  0  0  0  0  0  0
  -13.8970   14.9962  -38.2703 C   0  0  0  0  0  0  0  0  0  0  0  0
  -11.9425   14.4927  -37.0867 C   0  0  1  0  0  0  0  0  0  0  0  0
  -12.9866   15.6130  -37.2111 C   0  0  1  0  0  0  0  0  0  0  0  0
  -12.7432   14.8389  -39.2455 C   0  0  2  0  0  0  0  0  0  0  0  0
   -8.8041   13.2276  -37.3135 C   0  0  0  0  0  0  0  0  0  0  0  0
   -8.2304   14.8107  -39.1774 C   0  0  0  0  0  0  0  0  0  0  0  0
   -7.5251   15.3396  -36.8256 C   0  0  0  0  0  0  0  0  0  0  0  0
   -8.5976   14.6915  -37.6999 C   0  0  0  0  0  0  0  0  0  0  0  0
  -11.7722   14.0301  -38.4821 N   0  0  0  0  0  0  0  0  0  0  0  0
  -10.3398   14.8129  -35.3266 O   0  0  0  0  0  0  0  0  0  0  0  0
   -9.8299   15.3923  -37.5040 O   0  0  0  0  0  0  0  0  0  0  0  0
  -13.0835   14.2705  -40.4088 F   0  0  0  0  0  0  0  0  0  0  0  0
  -11.4777   17.2091  -37.5549 H   0  0  0  0  0  0  0  0  0  0  0  0
  -13.1343   17.6496  -37.9887 H   0  0  0  0  0  0  0  0  0  0  0  0
  -12.8301   16.8346  -40.1214 H   0  0  0  0  0  0  0  0  0  0  0  0
  -11.1868   16.3151  -39.7320 H   0  0  0  0  0  0  0  0  0  0  0  0
  -14.3538   14.0451  -37.9747 H   0  0  0  0  0  0  0  0  0  0  0  0
  -14.6817   15.6700  -38.6306 H   0  0  0  0  0  0  0  0  0  0  0  0
  -12.3354   13.6673  -36.4821 H   0  0  0  0  0  0  0  0  0  0  0  0
  -13.4722   15.8777  -36.2696 H   0  0  0  0  0  0  0  0  0  0  0  0
   -9.0679   13.1378  -36.2537 H   0  0  0  0  0  0  0  0  0  0  0  0
   -9.5951   12.7609  -37.9095 H   0  0  0  0  0  0  0  0  0  0  0  0
   -7.8813   12.6527  -37.4522 H   0  0  0  0  0  0  0  0  0  0  0  0
   -8.0813   15.8594  -39.4590 H   0  0  0  0  0  0  0  0  0  0  0  0
   -9.0397   14.4327  -39.8125 H   0  0  0  0  0  0  0  0  0  0  0  0
   -7.3168   14.2553  -39.4127 H   0  0  0  0  0  0  0  0  0  0  0  0
   -7.3768   16.3897  -37.1025 H   0  0  0  0  0  0  0  0  0  0  0  0
   -7.7895   15.2962  -35.7641 H   0  0  0  0  0  0  0  0  0  0  0  0
   -6.5575   14.8438  -36.9640 H   0  0  0  0  0  0  0  0  0  0  0  0
  -10.8290   14.2075  -38.8243 H   0  0  0  0  0  0  0  0  0  0  0  0
  1  5  1  1  0  0  0
  1 13  2  0  0  0  0
  1 14  1  0  0  0  0
  2  3  1  0  0  0  0
  2  6  1  1  0  0  0
  3  7  1  0  0  0  0
  4  6  1  0  0  0  0
  4  7  1  0  0  0  0
  5  6  1  0  0  0  0
  5 12  1  0  0  0  0
  7 12  1  0  0  0  0
  7 15  1  6  0  0  0
  8 11  1  0  0  0  0
  9 11  1  0  0  0  0
 10 11  1  0  0  0  0
 11 14  1  0  0  0  0
  2 16  1  0  0  0  0
  2 17  1  0  0  0  0
  3 18  1  0  0  0  0
  3 19  1  0  0  0  0
  4 20  1  0  0  0  0
  4 21  1  0  0  0  0
  5 22  1  0  0  0  0
  6 23  1  0  0  0  0
  8 24  1  0  0  0  0
  8 25  1  0  0  0  0
  8 26  1  0  0  0  0
  9 27  1  0  0  0  0
  9 28  1  0  0  0  0
  9 29  1  0  0  0  0
 10 30  1  0  0  0  0
 10 31  1  0  0  0  0
 10 32  1  0  0  0  0
 12 33  1  0  0  0  0
M  END
> <id>
EN300-27733116

> <smiles>
CC(C)(C)OC(=O)[C@@H]1N[C@]2(F)CC[C@H]1C2 |&1:7,9,13,r|

> <IUPAC Name>
rac-tert-butyl (1R,3S,4R)-1-fluoro-2-azabicyclo[2.2.1]heptane-3-carboxylate

> <CAS>
2580104-25-0

> <URL>
https://www.enaminestore.com/catalog/EN300-27733116

> <ROCS_ShapeQuery>
_x1247relevant_x1083L0AP1_x1305L0BP1_

> <ROCS_TanimotoCombo>
0.836 

> <ROCS_ShapeTanimoto>
0.484 

> <ROCS_ColorTanimoto>
0.353 

> <ROCS_RefTversky>
0.414 

> <ROCS_RefColorTversky>
0.395 

> <ROCS_RefTverskyCombo>
0.808 

> <ROCS_FitTversky>
1.537 

> <ROCS_FitColorTversky>
0.769 

> <ROCS_FitTverskyCombo>
2.306 

> <ROCS_ColorScore>
-8.394

> <ROCS_Overlap>
1218.334

> <ROCS_Rank>
214                 

$$$$
untitled-dbase-144597_6
  -OEChem-06232314393D

 28 30  0     1  0  0  0  0  0999 V2000
  -13.6990   15.9355  -39.2459 C   0  0  0  0  0  0  0  0  0  0  0  0
  -13.7505   16.1859  -37.7175 C   0  0  0  0  0  0  0  0  0  0  0  0
  -13.9938   12.9958  -37.9523 C   0  0  0  0  0  0  0  0  0  0  0  0
  -12.5355   12.6102  -37.8571 C   0  0  0  0  0  0  0  0  0  0  0  0
  -11.2623   15.3590  -39.1049 C   0  0  0  0  0  0  0  0  0  0  0  0
  -12.6720   14.7854  -39.3862 C   0  0  1  0  0  0  0  0  0  0  0  0
  -12.7127   15.1808  -37.1605 C   0  0  2  0  0  0  0  0  0  0  0  0
  -11.3141   15.6892  -37.5932 C   0  0  1  0  0  0  0  0  0  0  0  0
  -12.9232   14.0377  -38.1123 C   0  0  0  0  0  0  0  0  0  0  0  0
   -9.9880   13.3920  -37.4688 N   0  0  0  0  0  0  0  0  0  0  0  0
   -8.7718   15.6087  -36.9955 O   0  0  0  0  0  0  0  0  0  0  0  0
  -10.4489   14.7311  -35.3214 O   0  0  0  0  0  0  0  0  0  0  0  0
  -10.0095   14.9106  -36.6942 S   0  0  0  0  0  0  0  0  0  0  0  0
  -14.6870   15.6201  -39.6007 H   0  0  0  0  0  0  0  0  0  0  0  0
  -13.4050   16.8320  -39.8008 H   0  0  0  0  0  0  0  0  0  0  0  0
  -13.5189   17.2238  -37.4597 H   0  0  0  0  0  0  0  0  0  0  0  0
  -14.7536   15.9547  -37.3402 H   0  0  0  0  0  0  0  0  0  0  0  0
  -14.5386   12.6799  -38.8333 H   0  0  0  0  0  0  0  0  0  0  0  0
  -14.5729   12.9910  -37.0372 H   0  0  0  0  0  0  0  0  0  0  0  0
  -12.1573   12.3442  -36.8780 H   0  0  0  0  0  0  0  0  0  0  0  0
  -12.1116   12.0409  -38.6749 H   0  0  0  0  0  0  0  0  0  0  0  0
  -10.4953   14.6091  -39.3300 H   0  0  0  0  0  0  0  0  0  0  0  0
  -11.0558   16.2490  -39.7082 H   0  0  0  0  0  0  0  0  0  0  0  0
  -12.7493   14.2267  -40.3211 H   0  0  0  0  0  0  0  0  0  0  0  0
  -12.8249   14.9647  -36.0958 H   0  0  0  0  0  0  0  0  0  0  0  0
  -11.1960   16.7629  -37.4112 H   0  0  0  0  0  0  0  0  0  0  0  0
   -9.1910   13.1786  -38.0810 H   0  0  0  0  0  0  0  0  0  0  0  0
  -10.3334   12.5810  -36.9409 H   0  0  0  0  0  0  0  0  0  0  0  0
  1  2  1  0  0  0  0
  1  6  1  0  0  0  0
  2  7  1  0  0  0  0
  3  4  1  0  0  0  0
  3  9  1  0  0  0  0
  4  9  1  0  0  0  0
  5  6  1  0  0  0  0
  5  8  1  0  0  0  0
  6  9  1  0  0  0  0
  7  8  1  0  0  0  0
  7  9  1  0  0  0  0
  8 13  1  0  0  0  0
 10 13  1  0  0  0  0
 11 13  2  0  0  0  0
 12 13  2  0  0  0  0
  1 14  1  0  0  0  0
  1 15  1  0  0  0  0
  2 16  1  0  0  0  0
  2 17  1  0  0  0  0
  3 18  1  0  0  0  0
  3 19  1  0  0  0  0
  4 20  1  0  0  0  0
  4 21  1  0  0  0  0
  5 22  1  0  0  0  0
  5 23  1  0  0  0  0
  6 24  1  0  0  0  0
  7 25  1  0  0  0  0
  8 26  1  0  0  0  0
 10 27  1  0  0  0  0
 10 28  1  0  0  0  0
M  END
> <id>
EN300-27734563

> <smiles>
NS(=O)(=O)C1CC2CCC1C32CC3

> <IUPAC Name>
spiro[bicyclo[2.2.1]heptane-7,1'-cyclopropane]-6-sulfonamide

> <CAS>
2580191-14-4

> <URL>
https://www.enaminestore.com/catalog/EN300-27734563

> <ROCS_ShapeQuery>
_x1247relevant_x1083L0AP1_x1305L0BP1_

> <ROCS_TanimotoCombo>
0.836 

> <ROCS_ShapeTanimoto>
0.458 

> <ROCS_ColorTanimoto>
0.378 

> <ROCS_RefTversky>
0.387 

> <ROCS_RefColorTversky>
0.403 

> <ROCS_RefTverskyCombo>
0.791 

> <ROCS_FitTversky>
1.660 

> <ROCS_FitColorTversky>
0.859 

> <ROCS_FitTverskyCombo>
2.519 

> <ROCS_ColorScore>
-8.564

> <ROCS_Overlap>
1138.789

> <ROCS_Rank>
215                 

$$$$
untitled-dbase-109451_5
  -OEChem-06232314393D

 24 26  0     1  0  0  0  0  0999 V2000
  -10.1604   14.7249  -37.3550 C   0  0  0  0  0  0  0  0  0  0  0  0
  -13.0018   14.3407  -39.6198 C   0  0  0  0  0  0  0  0  0  0  0  0
  -13.8119   14.5925  -37.4801 C   0  0  0  0  0  0  0  0  0  0  0  0
  -11.4146   15.9576  -39.2127 C   0  0  0  0  0  0  0  0  0  0  0  0
  -12.2268   16.2098  -37.0668 C   0  0  0  0  0  0  0  0  0  0  0  0
  -12.5642   14.0439  -38.1812 C   0  0  0  0  0  0  0  0  0  0  0  0
  -12.9323   15.8549  -39.3965 C   0  0  2  0  0  0  0  0  0  0  0  0
  -13.4969   16.0304  -37.9050 C   0  0  1  0  0  0  0  0  0  0  0  0
  -11.4676   15.1752  -37.8993 C   0  0  0  0  0  0  0  0  0  0  0  0
  -10.0486   13.3595  -37.2397 N   0  0  0  0  0  0  0  0  0  0  0  0
   -9.2692   15.5168  -37.0582 O   0  0  0  0  0  0  0  0  0  0  0  0
  -12.3026   13.9616  -40.3727 H   0  0  0  0  0  0  0  0  0  0  0  0
  -14.0062   13.9844  -39.8711 H   0  0  0  0  0  0  0  0  0  0  0  0
  -14.7594   14.2185  -37.8817 H   0  0  0  0  0  0  0  0  0  0  0  0
  -13.8078   14.4292  -36.3971 H   0  0  0  0  0  0  0  0  0  0  0  0
  -10.8196   15.4718  -39.9940 H   0  0  0  0  0  0  0  0  0  0  0  0
  -11.0593   16.9889  -39.1118 H   0  0  0  0  0  0  0  0  0  0  0  0
  -11.8139   17.2234  -37.1174 H   0  0  0  0  0  0  0  0  0  0  0  0
  -12.3275   15.9398  -36.0098 H   0  0  0  0  0  0  0  0  0  0  0  0
  -12.3018   13.0092  -37.9602 H   0  0  0  0  0  0  0  0  0  0  0  0
  -13.3725   16.4823  -40.1712 H   0  0  0  0  0  0  0  0  0  0  0  0
  -14.2865   16.7664  -37.7562 H   0  0  0  0  0  0  0  0  0  0  0  0
   -9.1850   12.9707  -36.8754 H   0  0  0  0  0  0  0  0  0  0  0  0
  -10.7950   12.7248  -37.5042 H   0  0  0  0  0  0  0  0  0  0  0  0
  1  9  1  0  0  0  0
  1 10  1  0  0  0  0
  1 11  2  0  0  0  0
  2  6  1  0  0  0  0
  2  7  1  0  0  0  0
  3  6  1  0  0  0  0
  3  8  1  0  0  0  0
  4  7  1  0  0  0  0
  4  9  1  0  0  0  0
  5  8  1  0  0  0  0
  5  9  1  0  0  0  0
  6  9  1  0  0  0  0
  7  8  1  0  0  0  0
  2 12  1  0  0  0  0
  2 13  1  0  0  0  0
  3 14  1  0  0  0  0
  3 15  1  0  0  0  0
  4 16  1  0  0  0  0
  4 17  1  0  0  0  0
  5 18  1  0  0  0  0
  5 19  1  0  0  0  0
  6 20  1  0  0  0  0
  7 21  1  0  0  0  0
  8 22  1  0  0  0  0
 10 23  1  0  0  0  0
 10 24  1  0  0  0  0
M  END
> <id>
EN300-26975742

> <smiles>
NC(=O)C12CC3CC2CC3C1

> <IUPAC Name>
tricyclo[3.3.0.0,3,7]octane-1-carboxamide

> <CAS>
2445793-13-3

> <URL>
https://www.enaminestore.com/catalog/EN300-26975742

> <ROCS_ShapeQuery>
_x1247relevant_x1083L0AP1_x1305L0BP1_

> <ROCS_TanimotoCombo>
0.836 

> <ROCS_ShapeTanimoto>
0.464 

> <ROCS_ColorTanimoto>
0.372 

> <ROCS_RefTversky>
0.386 

> <ROCS_RefColorTversky>
0.573 

> <ROCS_RefTverskyCombo>
0.959 

> <ROCS_FitTversky>
1.767 

> <ROCS_FitColorTversky>
0.515 

> <ROCS_FitTverskyCombo>
2.282 

> <ROCS_ColorScore>
-12.588

> <ROCS_Overlap>
1133.734

> <ROCS_Rank>
216                 

$$$$
untitled-dbase-155376_6
  -OEChem-06232314393D

 26 27  0     1  0  0  0  0  0999 V2000
  -13.1894   16.4711  -40.1558 C   0  0  0  0  0  0  0  0  0  0  0  0
   -9.6382   14.8155  -37.1155 C   0  0  0  0  0  0  0  0  0  0  0  0
  -14.1345   14.9159  -37.5354 C   0  0  0  0  0  0  0  0  0  0  0  0
  -13.4825   16.3035  -37.5454 C   0  0  0  0  0  0  0  0  0  0  0  0
  -11.8009   13.7646  -37.8887 C   0  0  0  0  0  0  0  0  0  0  0  0
  -11.1715   15.9803  -38.6624 C   0  0  0  0  0  0  0  0  0  0  0  0
  -13.0342   14.4119  -38.4947 C   0  0  2  0  0  0  0  0  0  0  0  0
  -12.6831   15.8841  -38.8181 C   0  0  2  0  0  0  0  0  0  0  0  0
   -9.3402   13.5269  -36.3906 C   0  0  0  0  0  0  0  0  0  0  0  0
  -10.8407   14.8540  -37.8087 N   0  0  0  0  0  0  0  0  0  0  0  0
  -12.5331   17.1800  -40.9042 O   0  0  0  0  0  0  0  0  0  0  0  0
   -8.8410   15.7540  -37.0633 O   0  0  0  0  0  0  0  0  0  0  0  0
  -14.4702   16.0943  -40.3897 O   0  0  0  0  0  0  0  0  0  0  0  0
  -10.3380   12.6433  -36.5697 F   0  0  0  0  0  0  0  0  0  0  0  0
   -8.2020   12.9775  -36.8501 F   0  0  0  0  0  0  0  0  0  0  0  0
   -9.2008   13.7446  -35.0708 F   0  0  0  0  0  0  0  0  0  0  0  0
  -14.1409   14.4408  -36.5438 H   0  0  0  0  0  0  0  0  0  0  0  0
  -15.1559   14.8815  -37.9353 H   0  0  0  0  0  0  0  0  0  0  0  0
  -14.1969   17.1149  -37.7188 H   0  0  0  0  0  0  0  0  0  0  0  0
  -12.8881   16.5469  -36.6623 H   0  0  0  0  0  0  0  0  0  0  0  0
  -11.9826   13.3196  -36.9054 H   0  0  0  0  0  0  0  0  0  0  0  0
  -11.3827   13.0012  -38.5541 H   0  0  0  0  0  0  0  0  0  0  0  0
  -10.6435   15.8537  -39.6121 H   0  0  0  0  0  0  0  0  0  0  0  0
  -10.8478   16.9141  -38.1964 H   0  0  0  0  0  0  0  0  0  0  0  0
  -13.4544   13.8429  -39.3456 H   0  0  0  0  0  0  0  0  0  0  0  0
  -14.8110   16.4588  -41.2343 H   0  0  0  0  0  0  0  0  0  0  0  0
  1  8  1  0  0  0  0
  1 11  2  0  0  0  0
  1 13  1  0  0  0  0
  2  9  1  0  0  0  0
  2 10  1  0  0  0  0
  2 12  2  0  0  0  0
  3  4  1  0  0  0  0
  3  7  1  0  0  0  0
  4  8  1  0  0  0  0
  5  7  1  0  0  0  0
  5 10  1  0  0  0  0
  6  8  1  0  0  0  0
  6 10  1  0  0  0  0
  7  8  1  0  0  0  0
  9 14  1  0  0  0  0
  9 15  1  0  0  0  0
  9 16  1  0  0  0  0
  3 17  1  0  0  0  0
  3 18  1  0  0  0  0
  4 19  1  0  0  0  0
  4 20  1  0  0  0  0
  5 21  1  0  0  0  0
  5 22  1  0  0  0  0
  6 23  1  0  0  0  0
  6 24  1  0  0  0  0
  7 25  1  0  0  0  0
 13 26  1  0  0  0  0
M  END
> <id>
EN300-7281969

> <smiles>
OC(=O)C12CCC2CN(C1)C(=O)C(F)(F)F

> <IUPAC Name>
3-(trifluoroacetyl)-3-azabicyclo[3.2.0]heptane-1-carboxylic acid

> <CAS>
2680808-12-0

> <URL>
https://www.enaminestore.com/catalog/EN300-7281969

> <ROCS_ShapeQuery>
_x1247relevant_x1083L0AP1_x1305L0BP1_

> <ROCS_TanimotoCombo>
0.836 

> <ROCS_ShapeTanimoto>
0.509 

> <ROCS_ColorTanimoto>
0.326 

> <ROCS_RefTversky>
0.434 

> <ROCS_RefColorTversky>
0.363 

> <ROCS_RefTverskyCombo>
0.797 

> <ROCS_FitTversky>
1.512 

> <ROCS_FitColorTversky>
0.765 

> <ROCS_FitTverskyCombo>
2.277 

> <ROCS_ColorScore>
-7.703

> <ROCS_Overlap>
1280.179

> <ROCS_Rank>
217                 

$$$$
untitled-dbase-155146_30
  -OEChem-06232314393D

 26 27  0     1  0  0  0  0  0999 V2000
  -13.1746   16.4372  -40.4608 C   0  0  0  0  0  0  0  0  0  0  0  0
  -10.1726   14.7504  -37.0693 C   0  0  0  0  0  0  0  0  0  0  0  0
  -13.6304   15.0129  -37.1558 C   0  0  0  0  0  0  0  0  0  0  0  0
  -13.1249   16.4435  -37.4696 C   0  0  0  0  0  0  0  0  0  0  0  0
  -12.7446   14.1900  -39.3396 C   0  0  0  0  0  0  0  0  0  0  0  0
  -12.2054   15.6030  -39.6860 C   0  0  2  0  0  0  0  0  0  0  0  0
  -12.5579   14.1251  -37.8102 C   0  0  1  0  0  0  0  0  0  0  0  0
  -11.8544   16.1816  -38.2998 C   0  0  2  0  0  0  0  0  0  0  0  0
   -9.9871   13.3795  -36.4756 C   0  0  0  0  0  0  0  0  0  0  0  0
  -11.3909   14.9715  -37.6522 N   0  0  0  0  0  0  0  0  0  0  0  0
  -12.8679   17.3121  -41.2569 O   0  0  0  0  0  0  0  0  0  0  0  0
   -9.2706   15.5867  -37.0161 O   0  0  0  0  0  0  0  0  0  0  0  0
  -14.4505   16.0933  -40.1588 O   0  0  0  0  0  0  0  0  0  0  0  0
  -11.0941   12.6339  -36.6478 F   0  0  0  0  0  0  0  0  0  0  0  0
   -8.9563   12.7423  -37.0611 F   0  0  0  0  0  0  0  0  0  0  0  0
   -9.7357   13.4593  -35.1557 F   0  0  0  0  0  0  0  0  0  0  0  0
  -13.6610   14.8587  -36.0713 H   0  0  0  0  0  0  0  0  0  0  0  0
  -14.6321   14.8376  -37.5606 H   0  0  0  0  0  0  0  0  0  0  0  0
  -13.8801   17.0364  -37.9930 H   0  0  0  0  0  0  0  0  0  0  0  0
  -12.8763   16.9603  -36.5351 H   0  0  0  0  0  0  0  0  0  0  0  0
  -13.7847   14.0327  -39.6431 H   0  0  0  0  0  0  0  0  0  0  0  0
  -12.1234   13.4307  -39.8292 H   0  0  0  0  0  0  0  0  0  0  0  0
  -11.2998   15.5068  -40.2959 H   0  0  0  0  0  0  0  0  0  0  0  0
  -12.4828   13.1173  -37.4000 H   0  0  0  0  0  0  0  0  0  0  0  0
  -11.1339   17.0026  -38.3097 H   0  0  0  0  0  0  0  0  0  0  0  0
  -15.1026   16.6315  -40.6563 H   0  0  0  0  0  0  0  0  0  0  0  0
  1  6  1  1  0  0  0
  1 11  2  0  0  0  0
  1 13  1  0  0  0  0
  2  9  1  0  0  0  0
  2 10  1  0  0  0  0
  2 12  2  0  0  0  0
  3  4  1  0  0  0  0
  3  7  1  0  0  0  0
  4  8  1  1  0  0  0
  5  6  1  0  0  0  0
  5  7  1  1  0  0  0
  6  8  1  0  0  0  0
  7 10  1  0  0  0  0
  8 10  1  0  0  0  0
  9 14  1  0  0  0  0
  9 15  1  0  0  0  0
  9 16  1  0  0  0  0
  3 17  1  0  0  0  0
  3 18  1  0  0  0  0
  4 19  1  0  0  0  0
  4 20  1  0  0  0  0
  5 21  1  0  0  0  0
  5 22  1  0  0  0  0
  6 23  1  0  0  0  0
  7 24  1  0  0  0  0
  8 25  1  0  0  0  0
 13 26  1  0  0  0  0
M  END
> <id>
EN300-7063366

> <smiles>
OC(=O)[C@@H]1C[C@@H]2CC[C@H]1N2C(=O)C(F)(F)F |&1:3,5,8,r|

> <IUPAC Name>
rac-(1R,2R,4S)-7-(trifluoroacetyl)-7-azabicyclo[2.2.1]heptane-2-carboxylic acid

> <CAS>
2276275-39-7

> <URL>
https://www.enaminestore.com/catalog/EN300-7063366

> <ROCS_ShapeQuery>
_x1247relevant_x1083L0AP1_x1305L0BP1_

> <ROCS_TanimotoCombo>
0.836 

> <ROCS_ShapeTanimoto>
0.516 

> <ROCS_ColorTanimoto>
0.319 

> <ROCS_RefTversky>
0.439 

> <ROCS_RefColorTversky>
0.366 

> <ROCS_RefTverskyCombo>
0.806 

> <ROCS_FitTversky>
1.515 

> <ROCS_FitColorTversky>
0.712 

> <ROCS_FitTverskyCombo>
2.228 

> <ROCS_ColorScore>
-7.796

> <ROCS_Overlap>
1294.893

> <ROCS_Rank>
218                 

$$$$
untitled-dbase-108925_5
  -OEChem-06232314393D

 32 34  0     0  0  0  0  0  0999 V2000
  -14.0363   15.7208  -39.3597 C   0  0  0  0  0  0  0  0  0  0  0  0
  -11.8079   14.6812  -39.8373 C   0  0  0  0  0  0  0  0  0  0  0  0
  -13.3458   13.6461  -38.1380 C   0  0  0  0  0  0  0  0  0  0  0  0
  -11.9301   16.8577  -38.6260 C   0  0  0  0  0  0  0  0  0  0  0  0
  -13.4716   15.8201  -36.9228 C   0  0  0  0  0  0  0  0  0  0  0  0
  -13.2766   14.3896  -39.4831 C   0  0  0  0  0  0  0  0  0  0  0  0
  -13.3989   16.5834  -38.2573 C   0  0  0  0  0  0  0  0  0  0  0  0
  -11.1467   15.5302  -38.7248 C   0  0  0  0  0  0  0  0  0  0  0  0
  -12.6874   14.4931  -37.0226 C   0  0  0  0  0  0  0  0  0  0  0  0
  -11.1899   14.7599  -37.3689 C   0  0  0  0  0  0  0  0  0  0  0  0
  -10.4781   15.5467  -36.2476 C   0  0  0  0  0  0  0  0  0  0  0  0
  -10.4239   13.5027  -37.4512 N   0  0  0  0  0  0  0  0  0  0  0  0
  -10.1597   14.6384  -35.2169 O   0  0  0  0  0  0  0  0  0  0  0  0
  -14.0140   16.2568  -40.3166 H   0  0  0  0  0  0  0  0  0  0  0  0
  -15.0913   15.5316  -39.1266 H   0  0  0  0  0  0  0  0  0  0  0  0
  -11.2627   13.7465  -40.0055 H   0  0  0  0  0  0  0  0  0  0  0  0
  -11.7626   15.2274  -40.7884 H   0  0  0  0  0  0  0  0  0  0  0  0
  -14.3948   13.4529  -37.8789 H   0  0  0  0  0  0  0  0  0  0  0  0
  -12.8729   12.6616  -38.2219 H   0  0  0  0  0  0  0  0  0  0  0  0
  -11.8840   17.3850  -39.5875 H   0  0  0  0  0  0  0  0  0  0  0  0
  -11.4748   17.5310  -37.8926 H   0  0  0  0  0  0  0  0  0  0  0  0
  -13.0893   16.4433  -36.1078 H   0  0  0  0  0  0  0  0  0  0  0  0
  -14.5202   15.6107  -36.6751 H   0  0  0  0  0  0  0  0  0  0  0  0
  -13.7336   13.7780  -40.2690 H   0  0  0  0  0  0  0  0  0  0  0  0
  -13.9429   17.5307  -38.1724 H   0  0  0  0  0  0  0  0  0  0  0  0
  -10.1086   15.7457  -39.0063 H   0  0  0  0  0  0  0  0  0  0  0  0
  -12.7678   13.9564  -36.0690 H   0  0  0  0  0  0  0  0  0  0  0  0
  -11.1468   16.3138  -35.8742 H   0  0  0  0  0  0  0  0  0  0  0  0
   -9.5726   15.9899  -36.6459 H   0  0  0  0  0  0  0  0  0  0  0  0
   -9.7061   13.5479  -36.7736 H   0  0  0  0  0  0  0  0  0  0  0  0
  -11.0505   12.7617  -37.2644 H   0  0  0  0  0  0  0  0  0  0  0  0
  -10.9962   14.2519  -34.9008 H   0  0  0  0  0  0  0  0  0  0  0  0
  1  6  1  0  0  0  0
  1  7  1  0  0  0  0
  2  6  1  0  0  0  0
  2  8  1  0  0  0  0
  3  6  1  0  0  0  0
  3  9  1  0  0  0  0
  4  7  1  0  0  0  0
  4  8  1  0  0  0  0
  5  7  1  0  0  0  0
  5  9  1  0  0  0  0
  8 10  1  0  0  0  0
  9 10  1  0  0  0  0
 10 11  1  0  0  0  0
 10 12  1  0  0  0  0
 11 13  1  0  0  0  0
  1 14  1  0  0  0  0
  1 15  1  0  0  0  0
  2 16  1  0  0  0  0
  2 17  1  0  0  0  0
  3 18  1  0  0  0  0
  3 19  1  0  0  0  0
  4 20  1  0  0  0  0
  4 21  1  0  0  0  0
  5 22  1  0  0  0  0
  5 23  1  0  0  0  0
  6 24  1  0  0  0  0
  7 25  1  0  0  0  0
  8 26  1  0  0  0  0
  9 27  1  0  0  0  0
 11 28  1  0  0  0  0
 11 29  1  0  0  0  0
 12 30  1  0  0  0  0
 12 31  1  0  0  0  0
 13 32  1  0  0  0  0
M  END
> <id>
EN300-254421

> <smiles>
NC1(CO)C2CC3CC(C2)CC1C3

> <MDLNUMBER>
MFCD20410565

> <IUPAC Name>
(2-aminoadamantan-2-yl)methanol

> <CAS>
55213-85-9

> <URL>
https://www.enaminestore.com/catalog/EN300-254421

> <ROCS_ShapeQuery>
_x1247relevant_x1083L0AP1_x1305L0BP1_

> <ROCS_TanimotoCombo>
0.835 

> <ROCS_ShapeTanimoto>
0.472 

> <ROCS_ColorTanimoto>
0.363 

> <ROCS_RefTversky>
0.397 

> <ROCS_RefColorTversky>
0.404 

> <ROCS_RefTverskyCombo>
0.802 

> <ROCS_FitTversky>
1.662 

> <ROCS_FitColorTversky>
0.781 

> <ROCS_FitTverskyCombo>
2.443 

> <ROCS_ColorScore>
-8.602

> <ROCS_Overlap>
1168.545

> <ROCS_Rank>
219                 

$$$$
untitled-dbase-19107_5
  -OEChem-06232314393D

 32 34  0     0  0  0  0  0  0999 V2000
  -14.0363   15.7208  -39.3597 C   0  0  0  0  0  0  0  0  0  0  0  0
  -11.8079   14.6812  -39.8373 C   0  0  0  0  0  0  0  0  0  0  0  0
  -13.3458   13.6461  -38.1380 C   0  0  0  0  0  0  0  0  0  0  0  0
  -11.9301   16.8577  -38.6260 C   0  0  0  0  0  0  0  0  0  0  0  0
  -13.4716   15.8201  -36.9228 C   0  0  0  0  0  0  0  0  0  0  0  0
  -13.2766   14.3896  -39.4831 C   0  0  0  0  0  0  0  0  0  0  0  0
  -13.3989   16.5834  -38.2573 C   0  0  0  0  0  0  0  0  0  0  0  0
  -11.1467   15.5302  -38.7248 C   0  0  0  0  0  0  0  0  0  0  0  0
  -12.6874   14.4931  -37.0226 C   0  0  0  0  0  0  0  0  0  0  0  0
  -11.1899   14.7599  -37.3689 C   0  0  0  0  0  0  0  0  0  0  0  0
  -10.4781   15.5467  -36.2476 C   0  0  0  0  0  0  0  0  0  0  0  0
  -10.4239   13.5027  -37.4512 N   0  0  0  0  0  0  0  0  0  0  0  0
  -10.1597   14.6384  -35.2169 O   0  0  0  0  0  0  0  0  0  0  0  0
  -14.0140   16.2568  -40.3166 H   0  0  0  0  0  0  0  0  0  0  0  0
  -15.0913   15.5316  -39.1266 H   0  0  0  0  0  0  0  0  0  0  0  0
  -11.2627   13.7465  -40.0055 H   0  0  0  0  0  0  0  0  0  0  0  0
  -11.7626   15.2274  -40.7884 H   0  0  0  0  0  0  0  0  0  0  0  0
  -14.3948   13.4529  -37.8789 H   0  0  0  0  0  0  0  0  0  0  0  0
  -12.8729   12.6616  -38.2219 H   0  0  0  0  0  0  0  0  0  0  0  0
  -11.8840   17.3850  -39.5875 H   0  0  0  0  0  0  0  0  0  0  0  0
  -11.4748   17.5310  -37.8926 H   0  0  0  0  0  0  0  0  0  0  0  0
  -13.0893   16.4433  -36.1078 H   0  0  0  0  0  0  0  0  0  0  0  0
  -14.5202   15.6107  -36.6751 H   0  0  0  0  0  0  0  0  0  0  0  0
  -13.7336   13.7780  -40.2690 H   0  0  0  0  0  0  0  0  0  0  0  0
  -13.9429   17.5307  -38.1724 H   0  0  0  0  0  0  0  0  0  0  0  0
  -10.1086   15.7457  -39.0063 H   0  0  0  0  0  0  0  0  0  0  0  0
  -12.7678   13.9564  -36.0690 H   0  0  0  0  0  0  0  0  0  0  0  0
  -11.1468   16.3138  -35.8742 H   0  0  0  0  0  0  0  0  0  0  0  0
   -9.5726   15.9899  -36.6459 H   0  0  0  0  0  0  0  0  0  0  0  0
   -9.7061   13.5479  -36.7736 H   0  0  0  0  0  0  0  0  0  0  0  0
  -11.0505   12.7617  -37.2644 H   0  0  0  0  0  0  0  0  0  0  0  0
  -10.9962   14.2519  -34.9008 H   0  0  0  0  0  0  0  0  0  0  0  0
  1  6  1  0  0  0  0
  1  7  1  0  0  0  0
  2  6  1  0  0  0  0
  2  8  1  0  0  0  0
  3  6  1  0  0  0  0
  3  9  1  0  0  0  0
  4  7  1  0  0  0  0
  4  8  1  0  0  0  0
  5  7  1  0  0  0  0
  5  9  1  0  0  0  0
  8 10  1  0  0  0  0
  9 10  1  0  0  0  0
 10 11  1  0  0  0  0
 10 12  1  0  0  0  0
 11 13  1  0  0  0  0
  1 14  1  0  0  0  0
  1 15  1  0  0  0  0
  2 16  1  0  0  0  0
  2 17  1  0  0  0  0
  3 18  1  0  0  0  0
  3 19  1  0  0  0  0
  4 20  1  0  0  0  0
  4 21  1  0  0  0  0
  5 22  1  0  0  0  0
  5 23  1  0  0  0  0
  6 24  1  0  0  0  0
  7 25  1  0  0  0  0
  8 26  1  0  0  0  0
  9 27  1  0  0  0  0
 11 28  1  0  0  0  0
 11 29  1  0  0  0  0
 12 30  1  0  0  0  0
 12 31  1  0  0  0  0
 13 32  1  0  0  0  0
M  END
> <id>
EN300-254420

> <smiles>
Cl.NC1(CO)C2CC3CC(C2)CC1C3

> <MDLNUMBER>
MFCD29060340

> <IUPAC Name>
(2-aminoadamantan-2-yl)methanol hydrochloride

> <CAS>
1257334-61-4

> <Purity>
95

> <URL>
https://www.enaminestore.com/catalog/EN300-254420

> <Saltdate>
Cl

> <ROCS_ShapeQuery>
_x1247relevant_x1083L0AP1_x1305L0BP1_

> <ROCS_TanimotoCombo>
0.835 

> <ROCS_ShapeTanimoto>
0.472 

> <ROCS_ColorTanimoto>
0.363 

> <ROCS_RefTversky>
0.397 

> <ROCS_RefColorTversky>
0.404 

> <ROCS_RefTverskyCombo>
0.802 

> <ROCS_FitTversky>
1.662 

> <ROCS_FitColorTversky>
0.781 

> <ROCS_FitTverskyCombo>
2.443 

> <ROCS_ColorScore>
-8.602

> <ROCS_Overlap>
1168.545

> <ROCS_Rank>
220                 

$$$$
untitled-dbase-168713_4
  -OEChem-06232314393D

 32 33  0     0  0  0  0  0  0999 V2000
  -10.1556   15.2132  -36.7211 C   0  0  0  0  0  0  0  0  0  0  0  0
  -11.1035   15.8611  -38.9198 C   0  0  0  0  0  0  0  0  0  0  0  0
  -12.4396   16.1686  -36.8691 C   0  0  0  0  0  0  0  0  0  0  0  0
  -12.3708   15.8389  -39.7805 C   0  0  0  0  0  0  0  0  0  0  0  0
  -13.7410   16.1555  -37.6777 C   0  0  0  0  0  0  0  0  0  0  0  0
  -11.4142   15.2317  -37.5442 C   0  0  0  0  0  0  0  0  0  0  0  0
  -13.5539   15.3088  -38.9499 C   0  0  0  0  0  0  0  0  0  0  0  0
  -12.0614   13.8235  -37.7545 C   0  0  0  0  0  0  0  0  0  0  0  0
  -14.8337   15.2781  -39.7792 C   0  0  0  0  0  0  0  0  0  0  0  0
  -12.4997   13.1498  -36.4419 C   0  0  0  0  0  0  0  0  0  0  0  0
  -11.1523   12.8393  -38.5119 C   0  0  0  0  0  0  0  0  0  0  0  0
   -9.0687   15.6314  -37.0914 O   0  0  0  0  0  0  0  0  0  0  0  0
  -13.2608   13.9544  -38.5552 O   0  0  0  0  0  0  0  0  0  0  0  0
  -10.3877   14.6640  -35.5038 O   0  0  0  0  0  0  0  0  0  0  0  0
  -10.2839   15.3416  -39.4300 H   0  0  0  0  0  0  0  0  0  0  0  0
  -10.7564   16.8965  -38.8020 H   0  0  0  0  0  0  0  0  0  0  0  0
  -12.0498   17.1942  -36.8157 H   0  0  0  0  0  0  0  0  0  0  0  0
  -12.6308   15.8825  -35.8280 H   0  0  0  0  0  0  0  0  0  0  0  0
  -12.5776   16.8435  -40.1678 H   0  0  0  0  0  0  0  0  0  0  0  0
  -12.1970   15.1860  -40.6449 H   0  0  0  0  0  0  0  0  0  0  0  0
  -14.5368   15.7275  -37.0556 H   0  0  0  0  0  0  0  0  0  0  0  0
  -14.0382   17.1814  -37.9251 H   0  0  0  0  0  0  0  0  0  0  0  0
  -15.6582   14.9008  -39.1754 H   0  0  0  0  0  0  0  0  0  0  0  0
  -14.7003   14.6285  -40.6435 H   0  0  0  0  0  0  0  0  0  0  0  0
  -15.0766   16.2827  -40.1240 H   0  0  0  0  0  0  0  0  0  0  0  0
  -12.9370   12.1826  -36.6654 H   0  0  0  0  0  0  0  0  0  0  0  0
  -13.2329   13.7770  -35.9460 H   0  0  0  0  0  0  0  0  0  0  0  0
  -11.6345   13.0209  -35.8003 H   0  0  0  0  0  0  0  0  0  0  0  0
  -11.6652   11.8895  -38.6194 H   0  0  0  0  0  0  0  0  0  0  0  0
  -10.2341   12.6978  -37.9518 H   0  0  0  0  0  0  0  0  0  0  0  0
  -10.9244   13.2452  -39.4918 H   0  0  0  0  0  0  0  0  0  0  0  0
   -9.5772   14.6410  -34.9517 H   0  0  0  0  0  0  0  0  0  0  0  0
  1  6  1  0  0  0  0
  1 12  2  0  0  0  0
  1 14  1  0  0  0  0
  2  4  1  0  0  0  0
  2  6  1  0  0  0  0
  3  5  1  0  0  0  0
  3  6  1  0  0  0  0
  4  7  1  0  0  0  0
  5  7  1  0  0  0  0
  6  8  1  0  0  0  0
  7  9  1  0  0  0  0
  7 13  1  0  0  0  0
  8 10  1  0  0  0  0
  8 11  1  0  0  0  0
  8 13  1  0  0  0  0
  2 15  1  0  0  0  0
  2 16  1  0  0  0  0
  3 17  1  0  0  0  0
  3 18  1  0  0  0  0
  4 19  1  0  0  0  0
  4 20  1  0  0  0  0
  5 21  1  0  0  0  0
  5 22  1  0  0  0  0
  9 23  1  0  0  0  0
  9 24  1  0  0  0  0
  9 25  1  0  0  0  0
 10 26  1  0  0  0  0
 10 27  1  0  0  0  0
 10 28  1  0  0  0  0
 11 29  1  0  0  0  0
 11 30  1  0  0  0  0
 11 31  1  0  0  0  0
 14 32  1  0  0  0  0
M  END
> <id>
EN300-6488024

> <smiles>
CC1(C)OC2(C)CCC1(CC2)C(=O)O

> <MDLNUMBER>
MFCD31668545

> <IUPAC Name>
1,3,3-trimethyl-2-oxabicyclo[2.2.2]octane-4-carboxylic acid

> <CAS>
2243512-23-2

> <Purity>
95

> <URL>
https://www.enaminestore.com/catalog/EN300-6488024

> <ROCS_ShapeQuery>
_x1247relevant_x1083L0AP1_x1305L0BP1_

> <ROCS_TanimotoCombo>
0.835 

> <ROCS_ShapeTanimoto>
0.501 

> <ROCS_ColorTanimoto>
0.334 

> <ROCS_RefTversky>
0.418 

> <ROCS_RefColorTversky>
0.386 

> <ROCS_RefTverskyCombo>
0.805 

> <ROCS_FitTversky>
1.650 

> <ROCS_FitColorTversky>
0.711 

> <ROCS_FitTverskyCombo>
2.362 

> <ROCS_ColorScore>
-8.235

> <ROCS_Overlap>
1231.011

> <ROCS_Rank>
221                 

$$$$
untitled-dbase-108875_6
  -OEChem-06232314393D

 25 27  0     1  0  0  0  0  0999 V2000
  -10.2516   15.1370  -36.9448 C   0  0  0  0  0  0  0  0  0  0  0  0
  -12.3915   13.8387  -37.4895 C   0  0  0  0  0  0  0  0  0  0  0  0
  -12.6412   16.0597  -36.9238 C   0  0  0  0  0  0  0  0  0  0  0  0
  -12.5386   14.3893  -39.7215 C   0  0  0  0  0  0  0  0  0  0  0  0
  -12.7898   16.6126  -39.1550 C   0  0  0  0  0  0  0  0  0  0  0  0
  -13.4434   14.3389  -38.4857 C   0  0  2  0  0  0  0  0  0  0  0  0
  -13.6174   15.8825  -38.0922 C   0  0  1  0  0  0  0  0  0  0  0  0
  -11.5985   15.1467  -37.5765 C   0  0  0  0  0  0  0  0  0  0  0  0
  -11.6942   15.5325  -39.1347 C   0  0  0  0  0  0  0  0  0  0  0  0
  -10.5014   15.8537  -39.8678 N   0  0  0  0  0  0  0  0  0  0  0  0
   -9.2001   15.3478  -37.5306 O   0  0  0  0  0  0  0  0  0  0  0  0
  -10.3455   14.8583  -35.6216 O   0  0  0  0  0  0  0  0  0  0  0  0
  -12.8026   13.6237  -36.4969 H   0  0  0  0  0  0  0  0  0  0  0  0
  -11.8287   12.9575  -37.8175 H   0  0  0  0  0  0  0  0  0  0  0  0
  -12.2933   17.0868  -36.7658 H   0  0  0  0  0  0  0  0  0  0  0  0
  -13.0344   15.6886  -35.9709 H   0  0  0  0  0  0  0  0  0  0  0  0
  -11.9728   13.4684  -39.9028 H   0  0  0  0  0  0  0  0  0  0  0  0
  -13.0757   14.6465  -40.6413 H   0  0  0  0  0  0  0  0  0  0  0  0
  -13.3095   16.7147  -40.1142 H   0  0  0  0  0  0  0  0  0  0  0  0
  -12.4392   17.6049  -38.8491 H   0  0  0  0  0  0  0  0  0  0  0  0
  -14.3520   13.7434  -38.5726 H   0  0  0  0  0  0  0  0  0  0  0  0
  -14.6335   16.2430  -37.9352 H   0  0  0  0  0  0  0  0  0  0  0  0
  -10.5418   16.8057  -40.1719 H   0  0  0  0  0  0  0  0  0  0  0  0
   -9.7030   15.7263  -39.2788 H   0  0  0  0  0  0  0  0  0  0  0  0
   -9.4663   14.8453  -35.1866 H   0  0  0  0  0  0  0  0  0  0  0  0
  1  8  1  0  0  0  0
  1 11  2  0  0  0  0
  1 12  1  0  0  0  0
  2  6  1  0  0  0  0
  2  8  1  0  0  0  0
  3  7  1  0  0  0  0
  3  8  1  0  0  0  0
  4  6  1  0  0  0  0
  4  9  1  0  0  0  0
  5  7  1  0  0  0  0
  5  9  1  0  0  0  0
  6  7  1  0  0  0  0
  8  9  1  0  0  0  0
  9 10  1  0  0  0  0
  2 13  1  0  0  0  0
  2 14  1  0  0  0  0
  3 15  1  0  0  0  0
  3 16  1  0  0  0  0
  4 17  1  0  0  0  0
  4 18  1  0  0  0  0
  5 19  1  0  0  0  0
  5 20  1  0  0  0  0
  6 21  1  0  0  0  0
  7 22  1  0  0  0  0
 10 23  1  0  0  0  0
 10 24  1  0  0  0  0
 12 25  1  0  0  0  0
M  END
> <id>
EN300-26865949

> <smiles>
NC12CC3CC2(CC3C1)C(=O)O

> <IUPAC Name>
5-aminotricyclo[3.3.0.0,3,7]octane-1-carboxylic acid

> <CAS>
2445793-12-2

> <URL>
https://www.enaminestore.com/catalog/EN300-26865949

> <ROCS_ShapeQuery>
_x1247relevant_x1083L0AP1_x1305L0BP1_

> <ROCS_TanimotoCombo>
0.835 

> <ROCS_ShapeTanimoto>
0.485 

> <ROCS_ColorTanimoto>
0.350 

> <ROCS_RefTversky>
0.403 

> <ROCS_RefColorTversky>
0.579 

> <ROCS_RefTverskyCombo>
0.982 

> <ROCS_FitTversky>
1.723 

> <ROCS_FitColorTversky>
0.470 

> <ROCS_FitTverskyCombo>
2.193 

> <ROCS_ColorScore>
-12.808

> <ROCS_Overlap>
1184.417

> <ROCS_Rank>
222                 

$$$$
untitled-dbase-154696_28
  -OEChem-06232314393D

 29 30  0     0  0  0  0  0  0999 V2000
  -13.1972   16.6267  -40.4258 C   0  0  0  0  0  0  0  0  0  0  0  0
   -9.8161   14.9674  -37.1126 C   0  0  0  0  0  0  0  0  0  0  0  0
  -12.8681   13.5286  -38.1716 C   0  0  0  0  0  0  0  0  0  0  0  0
  -13.2819   15.5358  -36.7303 C   0  0  0  0  0  0  0  0  0  0  0  0
  -13.2403   14.3482  -39.4182 C   0  0  0  0  0  0  0  0  0  0  0  0
  -13.6541   16.3524  -37.9787 C   0  0  0  0  0  0  0  0  0  0  0  0
  -11.3648   15.9098  -38.8808 C   0  0  0  0  0  0  0  0  0  0  0  0
  -12.2588   14.4480  -37.0990 C   0  0  0  0  0  0  0  0  0  0  0  0
  -12.8700   15.8288  -39.1992 C   0  0  0  0  0  0  0  0  0  0  0  0
   -9.5627   13.6618  -36.3999 C   0  0  0  0  0  0  0  0  0  0  0  0
  -11.0773   15.1107  -37.6812 N   0  0  0  0  0  0  0  0  0  0  0  0
  -12.3886   17.2618  -41.0863 O   0  0  0  0  0  0  0  0  0  0  0  0
   -8.9303   15.8229  -37.1617 O   0  0  0  0  0  0  0  0  0  0  0  0
  -14.5212   16.5520  -40.7065 O   0  0  0  0  0  0  0  0  0  0  0  0
  -10.6494   12.8725  -36.4618 F   0  0  0  0  0  0  0  0  0  0  0  0
   -8.5322   13.0074  -36.9637 F   0  0  0  0  0  0  0  0  0  0  0  0
   -9.2691   13.8761  -35.1052 F   0  0  0  0  0  0  0  0  0  0  0  0
  -13.7604   13.0272  -37.7782 H   0  0  0  0  0  0  0  0  0  0  0  0
  -12.1573   12.7386  -38.4422 H   0  0  0  0  0  0  0  0  0  0  0  0
  -12.8700   16.1982  -35.9593 H   0  0  0  0  0  0  0  0  0  0  0  0
  -14.1832   15.0795  -36.3039 H   0  0  0  0  0  0  0  0  0  0  0  0
  -12.7199   13.9443  -40.2961 H   0  0  0  0  0  0  0  0  0  0  0  0
  -14.3126   14.2430  -39.6274 H   0  0  0  0  0  0  0  0  0  0  0  0
  -14.7355   16.2896  -38.1549 H   0  0  0  0  0  0  0  0  0  0  0  0
  -13.4370   17.4143  -37.8062 H   0  0  0  0  0  0  0  0  0  0  0  0
  -10.7584   15.5243  -39.7088 H   0  0  0  0  0  0  0  0  0  0  0  0
  -11.0509   16.9438  -38.6959 H   0  0  0  0  0  0  0  0  0  0  0  0
  -11.9826   13.8685  -36.2126 H   0  0  0  0  0  0  0  0  0  0  0  0
  -14.7561   17.0698  -41.5058 H   0  0  0  0  0  0  0  0  0  0  0  0
  1  9  1  0  0  0  0
  1 12  2  0  0  0  0
  1 14  1  0  0  0  0
  2 10  1  0  0  0  0
  2 11  1  0  0  0  0
  2 13  2  0  0  0  0
  3  5  1  0  0  0  0
  3  8  1  0  0  0  0
  4  6  1  0  0  0  0
  4  8  1  0  0  0  0
  5  9  1  0  0  0  0
  6  9  1  0  0  0  0
  7  9  1  0  0  0  0
  7 11  1  0  0  0  0
  8 11  1  0  0  0  0
 10 15  1  0  0  0  0
 10 16  1  0  0  0  0
 10 17  1  0  0  0  0
  3 18  1  0  0  0  0
  3 19  1  0  0  0  0
  4 20  1  0  0  0  0
  4 21  1  0  0  0  0
  5 22  1  0  0  0  0
  5 23  1  0  0  0  0
  6 24  1  0  0  0  0
  6 25  1  0  0  0  0
  7 26  1  0  0  0  0
  7 27  1  0  0  0  0
  8 28  1  0  0  0  0
 14 29  1  0  0  0  0
M  END
> <id>
EN300-6907150

> <smiles>
OC(=O)C1(CCC2CC1)CN2C(=O)C(F)(F)F

> <IUPAC Name>
2-(trifluoroacetyl)-2-azabicyclo[2.2.2]octane-4-carboxylic acid

> <CAS>
2680760-76-1

> <URL>
https://www.enaminestore.com/catalog/EN300-6907150

> <ROCS_ShapeQuery>
_x1247relevant_x1083L0AP1_x1305L0BP1_

> <ROCS_TanimotoCombo>
0.835 

> <ROCS_ShapeTanimoto>
0.531 

> <ROCS_ColorTanimoto>
0.304 

> <ROCS_RefTversky>
0.452 

> <ROCS_RefColorTversky>
0.349 

> <ROCS_RefTverskyCombo>
0.801 

> <ROCS_FitTversky>
1.493 

> <ROCS_FitColorTversky>
0.699 

> <ROCS_FitTverskyCombo>
2.192 

> <ROCS_ColorScore>
-7.427

> <ROCS_Overlap>
1333.433

> <ROCS_Rank>
223                 

$$$$
untitled-dbase-76147_1
  -OEChem-06232314393D

 28 30  0     1  0  0  0  0  0999 V2000
   -9.9725   14.8292  -37.2392 C   0  0  0  0  0  0  0  0  0  0  0  0
  -13.5739   16.1671  -39.4077 C   0  0  0  0  0  0  0  0  0  0  0  0
  -13.0687   16.9105  -38.1571 C   0  0  0  0  0  0  0  0  0  0  0  0
  -13.4434   13.9722  -38.2263 C   0  0  0  0  0  0  0  0  0  0  0  0
  -13.0114   14.7323  -39.5038 C   0  0  2  0  0  0  0  0  0  0  0  0
  -12.2348   16.0402  -37.2591 C   0  0  1  0  0  0  0  0  0  0  0  0
  -12.5246   14.5669  -37.1932 C   0  0  2  0  0  0  0  0  0  0  0  0
  -11.4629   14.7266  -39.3603 C   0  0  2  0  0  0  0  0  0  0  0  0
  -11.2767   15.0420  -37.8856 C   0  0  2  0  0  0  0  0  0  0  0  0
   -8.6247   13.1733  -36.2267 C   0  0  0  0  0  0  0  0  0  0  0  0
  -10.7795   15.6751  -40.2232 N   0  0  0  0  0  0  0  0  0  0  0  0
   -9.1395   15.7094  -37.0708 O   0  0  0  0  0  0  0  0  0  0  0  0
   -9.8541   13.5217  -36.8710 O   0  0  0  0  0  0  0  0  0  0  0  0
  -14.6704   16.1282  -39.3850 H   0  0  0  0  0  0  0  0  0  0  0  0
  -13.3157   16.7418  -40.3053 H   0  0  0  0  0  0  0  0  0  0  0  0
  -12.4734   17.7787  -38.4632 H   0  0  0  0  0  0  0  0  0  0  0  0
  -13.9240   17.3005  -37.5933 H   0  0  0  0  0  0  0  0  0  0  0  0
  -14.4977   14.1247  -37.9763 H   0  0  0  0  0  0  0  0  0  0  0  0
  -13.2525   12.8982  -38.3273 H   0  0  0  0  0  0  0  0  0  0  0  0
  -13.3558   14.2418  -40.4192 H   0  0  0  0  0  0  0  0  0  0  0  0
  -11.9386   16.5440  -36.3478 H   0  0  0  0  0  0  0  0  0  0  0  0
  -12.4737   14.0436  -36.2523 H   0  0  0  0  0  0  0  0  0  0  0  0
  -11.0855   13.7161  -39.5641 H   0  0  0  0  0  0  0  0  0  0  0  0
   -8.6330   12.1099  -35.9750 H   0  0  0  0  0  0  0  0  0  0  0  0
   -8.5047   13.7722  -35.3204 H   0  0  0  0  0  0  0  0  0  0  0  0
   -7.7957   13.3775  -36.9085 H   0  0  0  0  0  0  0  0  0  0  0  0
   -9.8038   15.6311  -40.0343 H   0  0  0  0  0  0  0  0  0  0  0  0
  -10.9593   15.4293  -41.1703 H   0  0  0  0  0  0  0  0  0  0  0  0
  1  9  1  0  0  0  0
  1 12  2  0  0  0  0
  1 13  1  0  0  0  0
  2  3  1  0  0  0  0
  2  5  1  0  0  0  0
  3  6  1  0  0  0  0
  4  5  1  0  0  0  0
  4  7  1  0  0  0  0
  5  8  1  0  0  0  0
  6  7  1  0  0  0  0
  6  9  1  0  0  0  0
  7  9  1  0  0  0  0
  8  9  1  0  0  0  0
  8 11  1  0  0  0  0
 10 13  1  0  0  0  0
  2 14  1  0  0  0  0
  2 15  1  0  0  0  0
  3 16  1  0  0  0  0
  3 17  1  0  0  0  0
  4 18  1  0  0  0  0
  4 19  1  0  0  0  0
  5 20  1  0  0  0  0
  6 21  1  0  0  0  0
  7 22  1  0  0  0  0
  8 23  1  0  0  0  0
 10 24  1  0  0  0  0
 10 25  1  0  0  0  0
 10 26  1  0  0  0  0
 11 27  1  0  0  0  0
 11 28  1  0  0  0  0
M  END
> <id>
EN300-7501688

> <smiles>
COC(=O)C1(C2CC3CCC21)C3N

> <MDLNUMBER>
MFCD32268471

> <IUPAC Name>
methyl 8-aminotricyclo[3.2.1.0,2,7]octane-1-carboxylate

> <CAS>
2649081-83-2

> <Purity>
95

> <URL>
https://www.enaminestore.com/catalog/EN300-7501688

> <ROCS_ShapeQuery>
_x1247relevant_x1083L0AP1_x1305L0BP1_

> <ROCS_TanimotoCombo>
0.835 

> <ROCS_ShapeTanimoto>
0.482 

> <ROCS_ColorTanimoto>
0.353 

> <ROCS_RefTversky>
0.404 

> <ROCS_RefColorTversky>
0.593 

> <ROCS_RefTverskyCombo>
0.997 

> <ROCS_FitTversky>
1.672 

> <ROCS_FitColorTversky>
0.465 

> <ROCS_FitTverskyCombo>
2.137 

> <ROCS_ColorScore>
-13.151

> <ROCS_Overlap>
1187.643

> <ROCS_Rank>
224                 

$$$$
untitled-dbase-175799_2
  -OEChem-06232314393D

 27 28  0     1  0  0  0  0  0999 V2000
  -13.2035   16.5036  -40.2856 C   0  0  0  0  0  0  0  0  0  0  0  0
  -10.0920   15.0552  -36.7272 C   0  0  0  0  0  0  0  0  0  0  0  0
  -13.1918   13.9301  -36.8934 C   0  0  0  0  0  0  0  0  0  0  0  0
  -13.3678   16.2239  -37.7904 C   0  0  0  0  0  0  0  0  0  0  0  0
  -11.3511   15.5596  -38.8859 C   0  0  0  0  0  0  0  0  0  0  0  0
  -13.1833   13.3814  -38.3276 C   0  0  0  0  0  0  0  0  0  0  0  0
  -12.5787   15.3365  -36.8316 C   0  0  2  0  0  0  0  0  0  0  0  0
  -12.8658   15.6451  -39.1099 C   0  0  2  0  0  0  0  0  0  0  0  0
   -8.8226   15.0166  -37.5392 C   0  0  0  0  0  0  0  0  0  0  0  0
  -11.2451   15.3169  -37.4422 N   0  0  0  0  0  0  0  0  0  0  0  0
  -12.3884   17.0069  -41.0443 O   0  0  0  0  0  0  0  0  0  0  0  0
  -10.0626   14.8586  -35.5115 O   0  0  0  0  0  0  0  0  0  0  0  0
  -13.4776   14.3714  -39.3224 O   0  0  0  0  0  0  0  0  0  0  0  0
  -14.5459   16.6539  -40.3988 O   0  0  0  0  0  0  0  0  0  0  0  0
   -9.0844   15.2531  -38.8372 F   0  0  0  0  0  0  0  0  0  0  0  0
   -7.9547   15.9493  -37.1076 F   0  0  0  0  0  0  0  0  0  0  0  0
   -8.2303   13.8128  -37.4412 F   0  0  0  0  0  0  0  0  0  0  0  0
  -14.2301   13.9863  -36.5427 H   0  0  0  0  0  0  0  0  0  0  0  0
  -12.6676   13.2373  -36.2256 H   0  0  0  0  0  0  0  0  0  0  0  0
  -14.4509   16.1213  -37.6627 H   0  0  0  0  0  0  0  0  0  0  0  0
  -13.0959   17.2796  -37.6706 H   0  0  0  0  0  0  0  0  0  0  0  0
  -10.8748   14.7423  -39.4357 H   0  0  0  0  0  0  0  0  0  0  0  0
  -10.8344   16.4994  -39.1091 H   0  0  0  0  0  0  0  0  0  0  0  0
  -12.2079   12.9393  -38.5618 H   0  0  0  0  0  0  0  0  0  0  0  0
  -13.9197   12.5771  -38.4259 H   0  0  0  0  0  0  0  0  0  0  0  0
  -12.5473   15.7177  -35.8069 H   0  0  0  0  0  0  0  0  0  0  0  0
  -15.0292   16.1723  -39.6940 H   0  0  0  0  0  0  0  0  0  0  0  0
  1  8  1  0  0  0  0
  1 11  2  0  0  0  0
  1 14  1  0  0  0  0
  2  9  1  0  0  0  0
  2 10  1  0  0  0  0
  2 12  2  0  0  0  0
  3  6  1  0  0  0  0
  3  7  1  0  0  0  0
  4  7  1  0  0  0  0
  4  8  1  0  0  0  0
  5  8  1  0  0  0  0
  5 10  1  0  0  0  0
  6 13  1  0  0  0  0
  7 10  1  0  0  0  0
  8 13  1  0  0  0  0
  9 15  1  0  0  0  0
  9 16  1  0  0  0  0
  9 17  1  0  0  0  0
  3 18  1  0  0  0  0
  3 19  1  0  0  0  0
  4 20  1  0  0  0  0
  4 21  1  0  0  0  0
  5 22  1  0  0  0  0
  5 23  1  0  0  0  0
  6 24  1  0  0  0  0
  6 25  1  0  0  0  0
  7 26  1  0  0  0  0
 14 27  1  0  0  0  0
M  END
> <id>
EN300-37454170

> <smiles>
OC(=O)C1(CC2CCO1)CN2C(=O)C(F)(F)F

> <IUPAC Name>
6-(2,2,2-trifluoroacetyl)-2-oxa-6-azabicyclo[3.2.1]octane-1-carboxylic acid

> <URL>
https://www.enaminestore.com/catalog/EN300-37454170

> <ROCS_ShapeQuery>
_x1247relevant_x1083L0AP1_x1305L0BP1_

> <ROCS_TanimotoCombo>
0.835 

> <ROCS_ShapeTanimoto>
0.526 

> <ROCS_ColorTanimoto>
0.309 

> <ROCS_RefTversky>
0.450 

> <ROCS_RefColorTversky>
0.364 

> <ROCS_RefTverskyCombo>
0.814 

> <ROCS_FitTversky>
1.468 

> <ROCS_FitColorTversky>
0.674 

> <ROCS_FitTverskyCombo>
2.143 

> <ROCS_ColorScore>
-7.744

> <ROCS_Overlap>
1328.128

> <ROCS_Rank>
225                 

$$$$
untitled-dbase-17817_5
  -OEChem-06232314393D

 22 23  0     1  0  0  0  0  0999 V2000
  -13.8231   15.9050  -38.9316 C   0  0  0  0  0  0  0  0  0  0  0  0
  -13.9621   15.3408  -37.7223 C   0  0  0  0  0  0  0  0  0  0  0  0
  -12.4020   14.0856  -38.8704 C   0  0  0  0  0  0  0  0  0  0  0  0
  -11.3838   16.2181  -38.6348 C   0  0  0  0  0  0  0  0  0  0  0  0
  -12.4696   15.4945  -39.4637 C   0  0  2  0  0  0  0  0  0  0  0  0
  -12.6938   14.5659  -37.4431 C   0  0  1  0  0  0  0  0  0  0  0  0
  -11.5736   15.6060  -37.2187 C   0  0  1  0  0  0  0  0  0  0  0  0
  -10.1378   13.3815  -37.4220 N   0  0  0  0  0  0  0  0  0  0  0  0
   -8.9644   15.6459  -37.0868 O   0  0  0  0  0  0  0  0  0  0  0  0
  -10.2689   14.6292  -35.1763 O   0  0  0  0  0  0  0  0  0  0  0  0
  -10.0932   14.8733  -36.5976 S   0  0  0  0  0  0  0  0  0  0  0  0
  -14.5229   16.5679  -39.4146 H   0  0  0  0  0  0  0  0  0  0  0  0
  -14.7934   15.4670  -37.0476 H   0  0  0  0  0  0  0  0  0  0  0  0
  -13.1690   13.4078  -39.2672 H   0  0  0  0  0  0  0  0  0  0  0  0
  -11.4214   13.6138  -38.9892 H   0  0  0  0  0  0  0  0  0  0  0  0
  -10.3872   16.0118  -39.0409 H   0  0  0  0  0  0  0  0  0  0  0  0
  -11.5339   17.3034  -38.6241 H   0  0  0  0  0  0  0  0  0  0  0  0
  -12.3631   15.5498  -40.5473 H   0  0  0  0  0  0  0  0  0  0  0  0
  -12.7908   13.7726  -36.7008 H   0  0  0  0  0  0  0  0  0  0  0  0
  -11.8592   16.3729  -36.4893 H   0  0  0  0  0  0  0  0  0  0  0  0
   -9.4543   13.2301  -38.1740 H   0  0  0  0  0  0  0  0  0  0  0  0
  -10.3429   12.5378  -36.8729 H   0  0  0  0  0  0  0  0  0  0  0  0
  1  2  2  0  0  0  0
  1  5  1  0  0  0  0
  2  6  1  0  0  0  0
  3  5  1  0  0  0  0
  3  6  1  0  0  0  0
  4  5  1  1  0  0  0
  4  7  1  0  0  0  0
  6  7  1  1  0  0  0
  7 11  1  0  0  0  0
  8 11  1  0  0  0  0
  9 11  2  0  0  0  0
 10 11  2  0  0  0  0
  1 12  1  0  0  0  0
  2 13  1  0  0  0  0
  3 14  1  0  0  0  0
  3 15  1  0  0  0  0
  4 16  1  0  0  0  0
  4 17  1  0  0  0  0
  5 18  1  0  0  0  0
  6 19  1  0  0  0  0
  7 20  1  0  0  0  0
  8 21  1  0  0  0  0
  8 22  1  0  0  0  0
M  END
> <id>
EN300-243974

> <smiles>
NS(=O)(=O)C1C[C@H]2C[C@@H]1C=C2

> <MDLNUMBER>
MFCD29034908

> <IUPAC Name>
(1R,4R)-bicyclo[2.2.1]hept-5-ene-2-sulfonamide

> <CAS>
1864012-33-8

> <URL>
https://www.enaminestore.com/catalog/EN300-243974

> <ROCS_ShapeQuery>
_x1247relevant_x1083L0AP1_x1305L0BP1_

> <ROCS_TanimotoCombo>
0.835 

> <ROCS_ShapeTanimoto>
0.449 

> <ROCS_ColorTanimoto>
0.386 

> <ROCS_RefTversky>
0.373 

> <ROCS_RefColorTversky>
0.410 

> <ROCS_RefTverskyCombo>
0.783 

> <ROCS_FitTversky>
1.827 

> <ROCS_FitColorTversky>
0.870 

> <ROCS_FitTverskyCombo>
2.696 

> <ROCS_ColorScore>
-8.696

> <ROCS_Overlap>
1094.657

> <ROCS_Rank>
226                 

$$$$
untitled-dbase-20556_7
  -OEChem-06232314393D

 36 39  0     1  0  0  0  0  0999 V2000
   -9.5894   14.3384  -35.8358 C   0  0  0  0  0  0  0  0  0  0  0  0
  -15.7061   13.0733  -38.0751 C   0  0  0  0  0  0  0  0  0  0  0  0
   -9.0570   13.9221  -37.0661 C   0  0  0  0  0  0  0  0  0  0  0  0
  -15.1645   12.6565  -39.3012 C   0  0  0  0  0  0  0  0  0  0  0  0
  -10.8671   14.8971  -35.7612 C   0  0  0  0  0  0  0  0  0  0  0  0
  -15.0563   14.0322  -37.2950 C   0  0  0  0  0  0  0  0  0  0  0  0
   -9.7914   14.0577  -38.2458 C   0  0  0  0  0  0  0  0  0  0  0  0
  -13.9636   13.1916  -39.7711 C   0  0  0  0  0  0  0  0  0  0  0  0
  -11.5991   15.0353  -36.9313 C   0  0  0  0  0  0  0  0  0  0  0  0
  -13.8640   14.5675  -37.7595 C   0  0  0  0  0  0  0  0  0  0  0  0
  -11.0595   14.6162  -38.1755 C   0  0  0  0  0  0  0  0  0  0  0  0
  -13.3177   14.1473  -38.9998 C   0  0  0  0  0  0  0  0  0  0  0  0
  -13.3123   16.6590  -40.4965 C   0  0  0  0  0  0  0  0  0  0  0  0
  -12.9098   16.8281  -37.9984 C   0  0  0  0  0  0  0  0  0  0  0  0
  -13.0099   15.6037  -37.0399 C   0  0  0  0  0  0  0  0  0  0  0  0
  -12.0020   14.8458  -39.3557 C   0  0  0  0  0  0  0  0  0  0  0  0
  -12.3142   16.3876  -39.3919 C   0  0  1  0  0  0  0  0  0  0  0  0
  -11.0670   17.2201  -39.7349 C   0  0  0  0  0  0  0  0  0  0  0  0
  -13.1183   17.3950  -41.4525 O   0  0  0  0  0  0  0  0  0  0  0  0
  -14.4618   15.9734  -40.2821 O   0  0  0  0  0  0  0  0  0  0  0  0
   -8.9995   14.2219  -34.9305 H   0  0  0  0  0  0  0  0  0  0  0  0
  -16.6416   12.6421  -37.7290 H   0  0  0  0  0  0  0  0  0  0  0  0
   -8.0609   13.4886  -37.0992 H   0  0  0  0  0  0  0  0  0  0  0  0
  -15.6874   11.9081  -39.8908 H   0  0  0  0  0  0  0  0  0  0  0  0
  -11.2723   15.2121  -34.8054 H   0  0  0  0  0  0  0  0  0  0  0  0
  -15.4797   14.3450  -36.3464 H   0  0  0  0  0  0  0  0  0  0  0  0
   -9.3727   13.7341  -39.1928 H   0  0  0  0  0  0  0  0  0  0  0  0
  -13.5521   12.8651  -40.7203 H   0  0  0  0  0  0  0  0  0  0  0  0
  -13.9020   17.2815  -38.1186 H   0  0  0  0  0  0  0  0  0  0  0  0
  -12.2727   17.5945  -37.5369 H   0  0  0  0  0  0  0  0  0  0  0  0
  -13.4229   15.8804  -36.0649 H   0  0  0  0  0  0  0  0  0  0  0  0
  -11.5894   14.4739  -40.2997 H   0  0  0  0  0  0  0  0  0  0  0  0
  -10.3115   17.0643  -38.9717 H   0  0  0  0  0  0  0  0  0  0  0  0
  -11.3368   18.2704  -39.7725 H   0  0  0  0  0  0  0  0  0  0  0  0
  -10.6816   16.9070  -40.6997 H   0  0  0  0  0  0  0  0  0  0  0  0
  -15.1234   16.1378  -40.9874 H   0  0  0  0  0  0  0  0  0  0  0  0
  1  3  2  0  0  0  0
  1  5  1  0  0  0  0
  2  4  2  0  0  0  0
  2  6  1  0  0  0  0
  3  7  1  0  0  0  0
  4  8  1  0  0  0  0
  5  9  2  0  0  0  0
  6 10  2  0  0  0  0
  7 11  2  0  0  0  0
  8 12  2  0  0  0  0
  9 11  1  0  0  0  0
  9 15  1  0  0  0  0
 10 12  1  0  0  0  0
 10 15  1  0  0  0  0
 11 16  1  0  0  0  0
 12 16  1  0  0  0  0
 13 17  1  0  0  0  0
 13 19  2  0  0  0  0
 13 20  1  0  0  0  0
 14 15  1  0  0  0  0
 14 17  1  0  0  0  0
 16 17  1  0  0  0  0
 17 18  1  0  0  0  0
  1 21  1  0  0  0  0
  2 22  1  0  0  0  0
  3 23  1  0  0  0  0
  4 24  1  0  0  0  0
  5 25  1  0  0  0  0
  6 26  1  0  0  0  0
  7 27  1  0  0  0  0
  8 28  1  0  0  0  0
 14 29  1  0  0  0  0
 14 30  1  0  0  0  0
 15 31  1  0  0  0  0
 16 32  1  0  0  0  0
 18 33  1  0  0  0  0
 18 34  1  0  0  0  0
 18 35  1  0  0  0  0
 20 36  1  0  0  0  0
M  END
> <id>
EN300-297977

> <smiles>
CC1(CC2C=3C=CC=CC3C1C=4C=CC=CC24)C(=O)O

> <MDLNUMBER>
MFCD29991793

> <IUPAC Name>
15-methyltetracyclo[6.6.2.0^{2,7}.0^{9,14}]hexadeca-2,4,6,9,11,13-hexaene-15-carboxylic acid

> <CAS>
13294-87-6

> <Purity>
95

> <URL>
https://www.enaminestore.com/catalog/EN300-297977

> <MP>
213-215

> <ROCS_ShapeQuery>
_x1247relevant_x1083L0AP1_x1305L0BP1_

> <ROCS_TanimotoCombo>
0.834 

> <ROCS_ShapeTanimoto>
0.529 

> <ROCS_ColorTanimoto>
0.305 

> <ROCS_RefTversky>
0.468 

> <ROCS_RefColorTversky>
0.361 

> <ROCS_RefTverskyCombo>
0.829 

> <ROCS_FitTversky>
1.329 

> <ROCS_FitColorTversky>
0.663 

> <ROCS_FitTverskyCombo>
1.992 

> <ROCS_ColorScore>
-7.703

> <ROCS_Overlap>
1383.915

> <ROCS_Rank>
227                 

$$$$
untitled-dbase-29114_2
  -OEChem-06232314393D

 24 25  0     1  0  0  0  0  0999 V2000
  -12.8301   16.0101  -39.6975 C   0  0  0  0  0  0  0  0  0  0  0  0
   -9.9546   15.1207  -36.5167 C   0  0  0  0  0  0  0  0  0  0  0  0
  -12.9543   14.5074  -39.8321 C   0  0  0  0  0  0  0  0  0  0  0  0
  -11.7730   16.5054  -37.5024 C   0  0  0  0  0  0  0  0  0  0  0  0
  -13.9384   15.2749  -37.7872 C   0  0  0  0  0  0  0  0  0  0  0  0
  -11.8427   13.9330  -37.5966 C   0  0  0  0  0  0  0  0  0  0  0  0
  -13.0947   16.4525  -38.2723 C   0  0  2  0  0  0  0  0  0  0  0  0
  -10.9660   15.1981  -37.6196 C   0  0  2  0  0  0  0  0  0  0  0  0
  -13.1684   14.0890  -38.3670 C   0  0  2  0  0  0  0  0  0  0  0  0
  -12.5237   16.7620  -40.6121 O   0  0  0  0  0  0  0  0  0  0  0  0
  -10.1372   14.5856  -35.4333 O   0  0  0  0  0  0  0  0  0  0  0  0
   -8.8006   15.7307  -36.8819 O   0  0  0  0  0  0  0  0  0  0  0  0
  -13.8360   14.2828  -40.4394 H   0  0  0  0  0  0  0  0  0  0  0  0
  -12.0553   14.0701  -40.2717 H   0  0  0  0  0  0  0  0  0  0  0  0
  -11.1583   17.3354  -37.8737 H   0  0  0  0  0  0  0  0  0  0  0  0
  -11.9840   16.7272  -36.4480 H   0  0  0  0  0  0  0  0  0  0  0  0
  -14.0266   15.2363  -36.6964 H   0  0  0  0  0  0  0  0  0  0  0  0
  -14.9498   15.3188  -38.2106 H   0  0  0  0  0  0  0  0  0  0  0  0
  -11.2720   13.0927  -38.0120 H   0  0  0  0  0  0  0  0  0  0  0  0
  -12.0742   13.6561  -36.5593 H   0  0  0  0  0  0  0  0  0  0  0  0
  -13.6467   17.3945  -38.2373 H   0  0  0  0  0  0  0  0  0  0  0  0
  -10.4029   15.2135  -38.5616 H   0  0  0  0  0  0  0  0  0  0  0  0
  -13.7426   13.1591  -38.3020 H   0  0  0  0  0  0  0  0  0  0  0  0
   -8.8520   16.0987  -37.7898 H   0  0  0  0  0  0  0  0  0  0  0  0
  1  3  1  0  0  0  0
  1  7  1  0  0  0  0
  1 10  2  0  0  0  0
  2  8  1  0  0  0  0
  2 11  2  0  0  0  0
  2 12  1  0  0  0  0
  3  9  1  0  0  0  0
  4  7  1  0  0  0  0
  4  8  1  0  0  0  0
  5  7  1  0  0  0  0
  5  9  1  0  0  0  0
  6  8  1  0  0  0  0
  6  9  1  0  0  0  0
  3 13  1  0  0  0  0
  3 14  1  0  0  0  0
  4 15  1  0  0  0  0
  4 16  1  0  0  0  0
  5 17  1  0  0  0  0
  5 18  1  0  0  0  0
  6 19  1  0  0  0  0
  6 20  1  0  0  0  0
  7 21  1  0  0  0  0
  8 22  1  0  0  0  0
  9 23  1  0  0  0  0
 12 24  1  0  0  0  0
M  END
> <id>
EN300-27148035

> <smiles>
OC(=O)C1CC2CC(C1)C(=O)C2

> <IUPAC Name>
6-oxobicyclo[3.2.1]octane-3-carboxylic acid

> <URL>
https://www.enaminestore.com/catalog/EN300-27148035

> <ROCS_ShapeQuery>
_x1247relevant_x1083L0AP1_x1305L0BP1_

> <ROCS_TanimotoCombo>
0.834 

> <ROCS_ShapeTanimoto>
0.461 

> <ROCS_ColorTanimoto>
0.373 

> <ROCS_RefTversky>
0.386 

> <ROCS_RefColorTversky>
0.406 

> <ROCS_RefTverskyCombo>
0.791 

> <ROCS_FitTversky>
1.732 

> <ROCS_FitColorTversky>
0.825 

> <ROCS_FitTverskyCombo>
2.557 

> <ROCS_ColorScore>
-8.617

> <ROCS_Overlap>
1133.235

> <ROCS_Rank>
228                 

$$$$
untitled-dbase-123220_2
  -OEChem-06232314393D

 42 44  0     1  0  0  0  0  0999 V2000
  -13.5961   13.8749  -38.2648 C   0  0  0  0  0  0  0  0  0  0  0  0
  -13.9473   15.0745  -37.3569 C   0  0  0  0  0  0  0  0  0  0  0  0
   -8.6586   14.2271  -37.4000 C   0  0  0  0  0  0  0  0  0  0  0  0
  -11.2270   14.4556  -39.0496 C   0  0  0  0  0  0  0  0  0  0  0  0
  -11.7666   16.4508  -37.4965 C   0  0  0  0  0  0  0  0  0  0  0  0
   -9.6869   13.3626  -36.6784 C   0  0  0  0  0  0  0  0  0  0  0  0
   -9.3666   15.5604  -37.6063 C   0  0  2  0  0  0  0  0  0  0  0  0
  -12.7218   14.3883  -39.4197 C   0  0  2  0  0  0  0  0  0  0  0  0
  -13.2472   16.3262  -37.9125 C   0  0  1  0  0  0  0  0  0  0  0  0
  -10.8728   15.1768  -37.6848 C   0  0  0  0  0  0  0  0  0  0  0  0
   -9.7058   15.1467  -34.7407 C   0  0  0  0  0  0  0  0  0  0  0  0
  -11.6320   13.5763  -34.3284 C   0  0  0  0  0  0  0  0  0  0  0  0
  -11.0687   14.6710  -35.2228 C   0  0  0  0  0  0  0  0  0  0  0  0
  -10.9403   14.1499  -36.5880 N   0  0  2  0  0  0  0  0  0  0  0  0
   -8.8151   16.3231  -38.7198 N   0  0  0  0  0  0  0  0  0  0  0  0
  -14.7059   16.0046  -40.1050 O   0  0  0  0  0  0  0  0  0  0  0  0
  -12.3401   16.8556  -40.3725 O   0  0  0  0  0  0  0  0  0  0  0  0
  -13.3223   16.0512  -39.6792 S   0  0  0  0  0  0  0  0  0  0  0  0
  -13.1220   13.0588  -37.7116 H   0  0  0  0  0  0  0  0  0  0  0  0
  -14.5299   13.4655  -38.6712 H   0  0  0  0  0  0  0  0  0  0  0  0
  -15.0342   15.2262  -37.3995 H   0  0  0  0  0  0  0  0  0  0  0  0
  -13.7187   14.8812  -36.3081 H   0  0  0  0  0  0  0  0  0  0  0  0
   -7.7427   14.3508  -36.8122 H   0  0  0  0  0  0  0  0  0  0  0  0
   -8.3856   13.7590  -38.3539 H   0  0  0  0  0  0  0  0  0  0  0  0
  -10.8407   13.4292  -39.0588 H   0  0  0  0  0  0  0  0  0  0  0  0
  -10.7002   14.9554  -39.8716 H   0  0  0  0  0  0  0  0  0  0  0  0
  -11.3301   17.2751  -38.0746 H   0  0  0  0  0  0  0  0  0  0  0  0
  -11.7213   16.8086  -36.4624 H   0  0  0  0  0  0  0  0  0  0  0  0
   -9.8753   12.4466  -37.2505 H   0  0  0  0  0  0  0  0  0  0  0  0
   -9.3105   13.0336  -35.7021 H   0  0  0  0  0  0  0  0  0  0  0  0
   -9.2032   16.1769  -36.6968 H   0  0  0  0  0  0  0  0  0  0  0  0
  -12.8716   13.8126  -40.3371 H   0  0  0  0  0  0  0  0  0  0  0  0
  -13.7966   17.2421  -37.6781 H   0  0  0  0  0  0  0  0  0  0  0  0
   -8.9923   14.3169  -34.7081 H   0  0  0  0  0  0  0  0  0  0  0  0
   -9.2974   15.9224  -35.3981 H   0  0  0  0  0  0  0  0  0  0  0  0
   -9.7768   15.5727  -33.7339 H   0  0  0  0  0  0  0  0  0  0  0  0
  -10.9512   12.7190  -34.2885 H   0  0  0  0  0  0  0  0  0  0  0  0
  -12.5984   13.2246  -34.7043 H   0  0  0  0  0  0  0  0  0  0  0  0
  -11.7740   13.9317  -33.3016 H   0  0  0  0  0  0  0  0  0  0  0  0
  -11.7650   15.5164  -35.2474 H   0  0  0  0  0  0  0  0  0  0  0  0
   -9.2966   17.1904  -38.7750 H   0  0  0  0  0  0  0  0  0  0  0  0
   -7.8478   16.4718  -38.5489 H   0  0  0  0  0  0  0  0  0  0  0  0
  1  2  1  0  0  0  0
  1  8  1  0  0  0  0
  2  9  1  0  0  0  0
  3  6  1  0  0  0  0
  3  7  1  0  0  0  0
  4  8  1  0  0  0  0
  4 10  1  0  0  0  0
  5  9  1  0  0  0  0
  5 10  1  0  0  0  0
  6 14  1  0  0  0  0
  7 10  1  0  0  0  0
  7 15  1  0  0  0  0
  8 18  1  0  0  0  0
  9 18  1  0  0  0  0
 10 14  1  0  0  0  0
 11 13  1  0  0  0  0
 12 13  1  0  0  0  0
 13 14  1  0  0  0  0
 16 18  2  0  0  0  0
 17 18  2  0  0  0  0
  1 19  1  0  0  0  0
  1 20  1  0  0  0  0
  2 21  1  0  0  0  0
  2 22  1  0  0  0  0
  3 23  1  0  0  0  0
  3 24  1  0  0  0  0
  4 25  1  0  0  0  0
  4 26  1  0  0  0  0
  5 27  1  0  0  0  0
  5 28  1  0  0  0  0
  6 29  1  0  0  0  0
  6 30  1  0  0  0  0
  7 31  1  0  0  0  0
  8 32  1  0  0  0  0
  9 33  1  0  0  0  0
 11 34  1  0  0  0  0
 11 35  1  0  0  0  0
 11 36  1  0  0  0  0
 12 37  1  0  0  0  0
 12 38  1  0  0  0  0
 12 39  1  0  0  0  0
 13 40  1  0  0  0  0
 15 41  1  0  0  0  0
 15 42  1  0  0  0  0
M  END
> <id>
EN300-785693

> <smiles>
CC(C)N1CCC(N)C21CC3CCC(C2)S3(=O)=O

> <IUPAC Name>
3'-amino-1'-(propan-2-yl)-8lambda6-thiaspiro[bicyclo[3.2.1]octane-3,2'-pyrrolidine]-8,8-dione

> <CAS>
2137507-25-4

> <URL>
https://www.enaminestore.com/catalog/EN300-785693

> <ROCS_ShapeQuery>
_x1247relevant_x1083L0AP1_x1305L0BP1_

> <ROCS_TanimotoCombo>
0.834 

> <ROCS_ShapeTanimoto>
0.511 

> <ROCS_ColorTanimoto>
0.324 

> <ROCS_RefTversky>
0.440 

> <ROCS_RefColorTversky>
0.394 

> <ROCS_RefTverskyCombo>
0.834 

> <ROCS_FitTversky>
1.461 

> <ROCS_FitColorTversky>
0.644 

> <ROCS_FitTverskyCombo>
2.105 

> <ROCS_ColorScore>
-8.430

> <ROCS_Overlap>
1297.493

> <ROCS_Rank>
229                 

$$$$
untitled-dbase-109319_1
  -OEChem-06232314393D

 29 30  0     1  0  0  0  0  0999 V2000
  -13.3500   14.6189  -39.4671 C   0  0  0  0  0  0  0  0  0  0  0  0
  -13.4917   14.1493  -38.0196 C   0  0  0  0  0  0  0  0  0  0  0  0
  -10.9948   15.3946  -39.0422 C   0  0  0  0  0  0  0  0  0  0  0  0
  -12.4359   15.8334  -39.3191 C   0  0  2  0  0  0  0  0  0  0  0  0
  -12.5771   15.1230  -37.2727 C   0  0  1  0  0  0  0  0  0  0  0  0
  -11.0746   14.9235  -37.5733 C   0  0  2  0  0  0  0  0  0  0  0  0
  -10.3052   15.3529  -35.2211 C   0  0  0  0  0  0  0  0  0  0  0  0
  -10.6594   17.2799  -36.7926 C   0  0  0  0  0  0  0  0  0  0  0  0
  -10.2213   15.8241  -36.6685 C   0  0  0  0  0  0  0  0  0  0  0  0
  -10.6047   13.5532  -37.4053 N   0  0  0  0  0  0  0  0  0  0  0  0
  -12.8414   16.3374  -38.0257 O   0  0  0  0  0  0  0  0  0  0  0  0
   -8.8618   15.7155  -37.0841 O   0  0  0  0  0  0  0  0  0  0  0  0
  -12.9374   13.8519  -40.1292 H   0  0  0  0  0  0  0  0  0  0  0  0
  -14.3314   14.9162  -39.8533 H   0  0  0  0  0  0  0  0  0  0  0  0
  -14.5307   14.2908  -37.6981 H   0  0  0  0  0  0  0  0  0  0  0  0
  -13.2416   13.0952  -37.8776 H   0  0  0  0  0  0  0  0  0  0  0  0
  -10.6650   14.6219  -39.7455 H   0  0  0  0  0  0  0  0  0  0  0  0
  -10.3129   16.2468  -39.1456 H   0  0  0  0  0  0  0  0  0  0  0  0
  -12.5384   16.5788  -40.1107 H   0  0  0  0  0  0  0  0  0  0  0  0
  -12.8261   15.2390  -36.2144 H   0  0  0  0  0  0  0  0  0  0  0  0
   -9.6974   15.9931  -34.5715 H   0  0  0  0  0  0  0  0  0  0  0  0
   -9.9061   14.3377  -35.1148 H   0  0  0  0  0  0  0  0  0  0  0  0
  -11.3353   15.3611  -34.8503 H   0  0  0  0  0  0  0  0  0  0  0  0
  -10.0544   17.9291  -36.1493 H   0  0  0  0  0  0  0  0  0  0  0  0
  -10.5780   17.6415  -37.8228 H   0  0  0  0  0  0  0  0  0  0  0  0
  -11.6978   17.3988  -36.4628 H   0  0  0  0  0  0  0  0  0  0  0  0
  -11.1725   12.9576  -37.9614 H   0  0  0  0  0  0  0  0  0  0  0  0
   -9.6578   13.5094  -37.7014 H   0  0  0  0  0  0  0  0  0  0  0  0
   -8.3475   16.2920  -36.4983 H   0  0  0  0  0  0  0  0  0  0  0  0
  1  2  1  0  0  0  0
  1  4  1  0  0  0  0
  2  5  1  0  0  0  0
  3  4  1  0  0  0  0
  3  6  1  0  0  0  0
  4 11  1  0  0  0  0
  5  6  1  0  0  0  0
  5 11  1  0  0  0  0
  6  9  1  0  0  0  0
  6 10  1  0  0  0  0
  7  9  1  0  0  0  0
  8  9  1  0  0  0  0
  9 12  1  0  0  0  0
  1 13  1  0  0  0  0
  1 14  1  0  0  0  0
  2 15  1  0  0  0  0
  2 16  1  0  0  0  0
  3 17  1  0  0  0  0
  3 18  1  0  0  0  0
  4 19  1  0  0  0  0
  5 20  1  0  0  0  0
  7 21  1  0  0  0  0
  7 22  1  0  0  0  0
  7 23  1  0  0  0  0
  8 24  1  0  0  0  0
  8 25  1  0  0  0  0
  8 26  1  0  0  0  0
 10 27  1  0  0  0  0
 10 28  1  0  0  0  0
 12 29  1  0  0  0  0
M  END
> <id>
EN300-1647162

> <smiles>
CC(C)(O)C1(N)CC2CCC1O2

> <IUPAC Name>
2-{2-amino-7-oxabicyclo[2.2.1]heptan-2-yl}propan-2-ol

> <CAS>
2171698-45-4

> <URL>
https://www.enaminestore.com/catalog/EN300-1647162

> <ROCS_ShapeQuery>
_x1247relevant_x1083L0AP1_x1305L0BP1_

> <ROCS_TanimotoCombo>
0.834 

> <ROCS_ShapeTanimoto>
0.451 

> <ROCS_ColorTanimoto>
0.383 

> <ROCS_RefTversky>
0.381 

> <ROCS_RefColorTversky>
0.443 

> <ROCS_RefTverskyCombo>
0.824 

> <ROCS_FitTversky>
1.686 

> <ROCS_FitColorTversky>
0.740 

> <ROCS_FitTverskyCombo>
2.426 

> <ROCS_ColorScore>
-9.475

> <ROCS_Overlap>
1119.090

> <ROCS_Rank>
230                 

$$$$
untitled-dbase-87461_54
  -OEChem-06232314393D

 33 34  0     1  0  0  0  0  0999 V2000
  -10.0755   15.2431  -37.0438 C   0  0  0  0  0  0  0  0  0  0  0  0
  -12.9156   16.4654  -39.3138 C   0  0  0  0  0  0  0  0  0  0  0  0
  -13.5799   15.0866  -39.4640 C   0  0  0  0  0  0  0  0  0  0  0  0
  -13.1678   15.5165  -37.1557 C   0  0  0  0  0  0  0  0  0  0  0  0
  -11.0366   15.3045  -38.1857 C   0  0  2  0  0  0  0  0  0  0  0  0
  -12.1640   16.3228  -37.9773 C   0  0  1  0  0  0  0  0  0  0  0  0
  -13.1862   14.3737  -38.1585 C   0  0  2  0  0  0  0  0  0  0  0  0
   -8.3917   13.7881  -35.2707 C   0  0  0  0  0  0  0  0  0  0  0  0
  -10.4572   12.4919  -34.6684 C   0  0  0  0  0  0  0  0  0  0  0  0
   -9.5865   12.4338  -37.0236 C   0  0  0  0  0  0  0  0  0  0  0  0
   -9.7470   13.2840  -35.7641 C   0  0  0  0  0  0  0  0  0  0  0  0
  -11.7508   14.0079  -38.2345 N   0  0  0  0  0  0  0  0  0  0  0  0
   -9.0158   15.8537  -37.0067 O   0  0  0  0  0  0  0  0  0  0  0  0
  -10.5663   14.4144  -36.0788 O   0  0  0  0  0  0  0  0  0  0  0  0
  -12.2514   16.6973  -40.1522 H   0  0  0  0  0  0  0  0  0  0  0  0
  -13.6784   17.2498  -39.2515 H   0  0  0  0  0  0  0  0  0  0  0  0
  -14.6678   15.1992  -39.5346 H   0  0  0  0  0  0  0  0  0  0  0  0
  -13.2367   14.5571  -40.3592 H   0  0  0  0  0  0  0  0  0  0  0  0
  -12.8001   15.2248  -36.1664 H   0  0  0  0  0  0  0  0  0  0  0  0
  -14.1372   16.0155  -37.0479 H   0  0  0  0  0  0  0  0  0  0  0  0
  -10.4687   15.4828  -39.1051 H   0  0  0  0  0  0  0  0  0  0  0  0
  -11.8565   17.2705  -37.5301 H   0  0  0  0  0  0  0  0  0  0  0  0
  -13.8254   13.5273  -37.9004 H   0  0  0  0  0  0  0  0  0  0  0  0
   -7.8787   14.3572  -36.0543 H   0  0  0  0  0  0  0  0  0  0  0  0
   -8.4961   14.4278  -34.3882 H   0  0  0  0  0  0  0  0  0  0  0  0
   -7.7324   12.9507  -35.0150 H   0  0  0  0  0  0  0  0  0  0  0  0
  -11.4301   12.1282  -35.0181 H   0  0  0  0  0  0  0  0  0  0  0  0
  -10.6594   13.1256  -33.7974 H   0  0  0  0  0  0  0  0  0  0  0  0
   -9.8629   11.6325  -34.3415 H   0  0  0  0  0  0  0  0  0  0  0  0
  -10.5586   12.0721  -37.3777 H   0  0  0  0  0  0  0  0  0  0  0  0
   -9.1118   12.9978  -37.8331 H   0  0  0  0  0  0  0  0  0  0  0  0
   -8.9814   11.5434  -36.8181 H   0  0  0  0  0  0  0  0  0  0  0  0
  -11.5562   13.5374  -39.1175 H   0  0  0  0  0  0  0  0  0  0  0  0
  1  5  1  6  0  0  0
  1 13  2  0  0  0  0
  1 14  1  0  0  0  0
  2  3  1  0  0  0  0
  2  6  1  1  0  0  0
  3  7  1  1  0  0  0
  4  6  1  0  0  0  0
  4  7  1  0  0  0  0
  5  6  1  0  0  0  0
  5 12  1  0  0  0  0
  7 12  1  0  0  0  0
  8 11  1  0  0  0  0
  9 11  1  0  0  0  0
 10 11  1  0  0  0  0
 11 14  1  0  0  0  0
  2 15  1  0  0  0  0
  2 16  1  0  0  0  0
  3 17  1  0  0  0  0
  3 18  1  0  0  0  0
  4 19  1  0  0  0  0
  4 20  1  0  0  0  0
  5 21  1  0  0  0  0
  6 22  1  0  0  0  0
  7 23  1  0  0  0  0
  8 24  1  0  0  0  0
  8 25  1  0  0  0  0
  8 26  1  0  0  0  0
  9 27  1  0  0  0  0
  9 28  1  0  0  0  0
  9 29  1  0  0  0  0
 10 30  1  0  0  0  0
 10 31  1  0  0  0  0
 10 32  1  0  0  0  0
 12 33  1  0  0  0  0
M  END
> <id>
EN300-6507934

> <smiles>
CC(C)(C)OC(=O)[C@H]1N[C@@H]2CC[C@H]1C2

> <MDLNUMBER>
MFCD28389817

> <IUPAC Name>
tert-butyl (1R,3S,4S)-2-azabicyclo[2.2.1]heptane-3-carboxylate

> <CAS>
93472-76-5

> <URL>
https://www.enaminestore.com/catalog/EN300-6507934

> <ROCS_ShapeQuery>
_x1247relevant_x1083L0AP1_x1305L0BP1_

> <ROCS_TanimotoCombo>
0.834 

> <ROCS_ShapeTanimoto>
0.469 

> <ROCS_ColorTanimoto>
0.365 

> <ROCS_RefTversky>
0.400 

> <ROCS_RefColorTversky>
0.405 

> <ROCS_RefTverskyCombo>
0.805 

> <ROCS_FitTversky>
1.581 

> <ROCS_FitColorTversky>
0.788 

> <ROCS_FitTverskyCombo>
2.369 

> <ROCS_ColorScore>
-8.621

> <ROCS_Overlap>
1176.532

> <ROCS_Rank>
231                 

$$$$
untitled-dbase-45605_3
  -OEChem-06232314393D

 44 47  0     1  0  0  0  0  0999 V2000
   -9.8385   15.2244  -34.2180 C   0  0  0  0  0  0  0  0  0  0  0  0
   -8.5061   14.5655  -34.3820 C   0  0  0  0  0  0  0  0  0  0  0  0
  -12.9514   16.5459  -37.4649 C   0  0  0  0  0  0  0  0  0  0  0  0
  -13.5383   14.1537  -37.5662 C   0  0  0  0  0  0  0  0  0  0  0  0
  -13.0045   16.6368  -38.9965 C   0  0  0  0  0  0  0  0  0  0  0  0
  -13.7042   14.3325  -39.0840 C   0  0  0  0  0  0  0  0  0  0  0  0
  -10.1277   13.4281  -36.0518 C   0  0  0  0  0  0  0  0  0  0  0  0
  -11.3740   14.8845  -39.3080 C   0  0  0  0  0  0  0  0  0  0  0  0
  -12.4680   15.1364  -37.0598 C   0  0  0  0  0  0  0  0  0  0  0  0
   -9.0906   15.6882  -36.6529 C   0  0  1  0  0  0  0  0  0  0  0  0
   -9.4323   14.6819  -35.5759 C   0  0  0  0  0  0  0  0  0  0  0  0
  -11.1068   14.8508  -37.7723 C   0  0  1  0  0  0  0  0  0  0  0  0
   -7.6226   16.3063  -38.5978 C   0  0  0  0  0  0  0  0  0  0  0  0
   -6.6552   15.0658  -36.6410 C   0  0  0  0  0  0  0  0  0  0  0  0
   -7.8963   15.2697  -37.5088 C   0  0  0  0  0  0  0  0  0  0  0  0
  -10.5261   13.5415  -37.4494 N   0  0  0  0  0  0  0  0  0  0  0  0
  -12.7530   15.3263  -39.6301 N   0  0  0  0  0  0  0  0  0  0  0  0
  -10.2199   15.9575  -37.4919 O   0  0  0  0  0  0  0  0  0  0  0  0
  -10.5974   14.6917  -33.6550 H   0  0  0  0  0  0  0  0  0  0  0  0
   -9.8614   16.2948  -34.0574 H   0  0  0  0  0  0  0  0  0  0  0  0
   -7.6227   15.1895  -34.3162 H   0  0  0  0  0  0  0  0  0  0  0  0
   -8.3670   13.5881  -33.9291 H   0  0  0  0  0  0  0  0  0  0  0  0
  -12.2878   17.3195  -37.0642 H   0  0  0  0  0  0  0  0  0  0  0  0
  -13.9468   16.7316  -37.0438 H   0  0  0  0  0  0  0  0  0  0  0  0
  -14.4944   14.3489  -37.0664 H   0  0  0  0  0  0  0  0  0  0  0  0
  -13.2602   13.1203  -37.3320 H   0  0  0  0  0  0  0  0  0  0  0  0
  -13.9832   17.0202  -39.3123 H   0  0  0  0  0  0  0  0  0  0  0  0
  -12.2716   17.3697  -39.3576 H   0  0  0  0  0  0  0  0  0  0  0  0
  -13.5656   13.3681  -39.5898 H   0  0  0  0  0  0  0  0  0  0  0  0
  -14.7326   14.6387  -39.3172 H   0  0  0  0  0  0  0  0  0  0  0  0
   -9.4729   12.5465  -35.9481 H   0  0  0  0  0  0  0  0  0  0  0  0
  -11.0006   13.2144  -35.4128 H   0  0  0  0  0  0  0  0  0  0  0  0
  -10.6594   15.5476  -39.8139 H   0  0  0  0  0  0  0  0  0  0  0  0
  -11.2269   13.8983  -39.7701 H   0  0  0  0  0  0  0  0  0  0  0  0
  -12.3925   15.0882  -35.9684 H   0  0  0  0  0  0  0  0  0  0  0  0
   -8.7851   16.6283  -36.1396 H   0  0  0  0  0  0  0  0  0  0  0  0
   -7.3782   17.2825  -38.1650 H   0  0  0  0  0  0  0  0  0  0  0  0
   -8.4987   16.4317  -39.2426 H   0  0  0  0  0  0  0  0  0  0  0  0
   -6.7835   15.9964  -39.2296 H   0  0  0  0  0  0  0  0  0  0  0  0
   -6.3715   15.9917  -36.1289 H   0  0  0  0  0  0  0  0  0  0  0  0
   -5.8037   14.7397  -37.2476 H   0  0  0  0  0  0  0  0  0  0  0  0
   -6.8362   14.2998  -35.8795 H   0  0  0  0  0  0  0  0  0  0  0  0
   -8.1347   14.3152  -37.9960 H   0  0  0  0  0  0  0  0  0  0  0  0
   -9.7000   13.3908  -38.0368 H   0  0  0  0  0  0  0  0  0  0  0  0
  1  2  1  0  0  0  0
  1 11  1  0  0  0  0
  2 11  1  0  0  0  0
  3  5  1  0  0  0  0
  3  9  1  0  0  0  0
  4  6  1  0  0  0  0
  4  9  1  0  0  0  0
  5 17  1  0  0  0  0
  6 17  1  0  0  0  0
  7 11  1  0  0  0  0
  7 16  1  0  0  0  0
  8 12  1  0  0  0  0
  8 17  1  0  0  0  0
  9 12  1  0  0  0  0
 10 11  1  0  0  0  0
 10 15  1  0  0  0  0
 10 18  1  0  0  0  0
 12 16  1  0  0  0  0
 12 18  1  0  0  0  0
 13 15  1  0  0  0  0
 14 15  1  0  0  0  0
  1 19  1  0  0  0  0
  1 20  1  0  0  0  0
  2 21  1  0  0  0  0
  2 22  1  0  0  0  0
  3 23  1  0  0  0  0
  3 24  1  0  0  0  0
  4 25  1  0  0  0  0
  4 26  1  0  0  0  0
  5 27  1  0  0  0  0
  5 28  1  0  0  0  0
  6 29  1  0  0  0  0
  6 30  1  0  0  0  0
  7 31  1  0  0  0  0
  7 32  1  0  0  0  0
  8 33  1  0  0  0  0
  8 34  1  0  0  0  0
  9 35  1  0  0  0  0
 10 36  1  0  0  0  0
 13 37  1  0  0  0  0
 13 38  1  0  0  0  0
 13 39  1  0  0  0  0
 14 40  1  0  0  0  0
 14 41  1  0  0  0  0
 14 42  1  0  0  0  0
 15 43  1  0  0  0  0
 16 44  1  0  0  0  0
M  END
> <id>
EN300-1280389

> <smiles>
CC(C)C1OC2(CN3CCC2CC3)NCC41CC4

> <IUPAC Name>
6'-(propan-2-yl)dispiro[4-azabicyclo[2.2.2]octane-2,2'-[1,3]oxazinane-5',1''-cyclopropane]

> <URL>
https://www.enaminestore.com/catalog/EN300-1280389

> <ROCS_ShapeQuery>
_x1247relevant_x1083L0AP1_x1305L0BP1_

> <ROCS_TanimotoCombo>
0.834 

> <ROCS_ShapeTanimoto>
0.483 

> <ROCS_ColorTanimoto>
0.351 

> <ROCS_RefTversky>
0.428 

> <ROCS_RefColorTversky>
0.412 

> <ROCS_RefTverskyCombo>
0.840 

> <ROCS_FitTversky>
1.368 

> <ROCS_FitColorTversky>
0.701 

> <ROCS_FitTverskyCombo>
2.070 

> <ROCS_ColorScore>
-8.810

> <ROCS_Overlap>
1262.047

> <ROCS_Rank>
232                 

$$$$
untitled-dbase-94138_17
  -OEChem-06232314393D

 28 30  0     1  0  0  0  0  0999 V2000
   -9.4218   14.5854  -37.1338 C   0  0  0  0  0  0  0  0  0  0  0  0
   -8.0529   14.0305  -36.7957 C   0  0  0  0  0  0  0  0  0  0  0  0
  -13.9904   16.0717  -39.8374 C   0  0  0  0  0  0  0  0  0  0  0  0
  -12.4190   14.7211  -36.6635 C   0  0  0  0  0  0  0  0  0  0  0  0
  -13.9607   15.6004  -38.4079 C   0  0  1  0  0  0  0  0  0  0  0  0
  -13.2602   14.8098  -39.4606 C   0  0  2  0  0  0  0  0  0  0  0  0
  -11.7174   13.8745  -37.7553 C   0  0  1  0  0  0  0  0  0  0  0  0
  -12.8449   15.9650  -37.4553 C   0  0  2  0  0  0  0  0  0  0  0  0
  -11.8238   14.8050  -38.9794 C   0  0  2  0  0  0  0  0  0  0  0  0
   -6.8689   12.0168  -36.5513 C   0  0  0  0  0  0  0  0  0  0  0  0
  -10.3484   13.5979  -37.4067 N   0  0  0  0  0  0  0  0  0  0  0  0
   -9.5969   15.7941  -37.1414 O   0  0  0  0  0  0  0  0  0  0  0  0
   -7.1089   14.7492  -36.5280 O   0  0  0  0  0  0  0  0  0  0  0  0
  -11.6980   16.0987  -38.3323 O   0  0  0  0  0  0  0  0  0  0  0  0
   -8.0990   12.6839  -36.8499 O   0  0  0  0  0  0  0  0  0  0  0  0
  -14.9231   15.9690  -40.3791 H   0  0  0  0  0  0  0  0  0  0  0  0
  -13.4146   16.9462  -40.1129 H   0  0  0  0  0  0  0  0  0  0  0  0
  -13.2649   14.1943  -36.2106 H   0  0  0  0  0  0  0  0  0  0  0  0
  -11.7156   14.9985  -35.8696 H   0  0  0  0  0  0  0  0  0  0  0  0
  -14.8562   15.2086  -37.9509 H   0  0  0  0  0  0  0  0  0  0  0  0
  -13.6541   13.8517  -39.7629 H   0  0  0  0  0  0  0  0  0  0  0  0
  -12.2146   12.9123  -37.9153 H   0  0  0  0  0  0  0  0  0  0  0  0
  -13.0200   16.8651  -36.8627 H   0  0  0  0  0  0  0  0  0  0  0  0
  -11.0819   14.6593  -39.7681 H   0  0  0  0  0  0  0  0  0  0  0  0
   -7.0130   10.9360  -36.6226 H   0  0  0  0  0  0  0  0  0  0  0  0
   -6.5427   12.2860  -35.5435 H   0  0  0  0  0  0  0  0  0  0  0  0
   -6.1107   12.3294  -37.2732 H   0  0  0  0  0  0  0  0  0  0  0  0
  -10.0522   12.6243  -37.3728 H   0  0  0  0  0  0  0  0  0  0  0  0
  1  2  1  0  0  0  0
  1 11  1  0  0  0  0
  1 12  2  0  0  0  0
  2 13  2  0  0  0  0
  2 15  1  0  0  0  0
  3  5  1  0  0  0  0
  3  6  1  0  0  0  0
  4  7  1  0  0  0  0
  4  8  1  0  0  0  0
  5  6  1  0  0  0  0
  5  8  1  0  0  0  0
  6  9  1  0  0  0  0
  7  9  1  0  0  0  0
  7 11  1  0  0  0  0
  8 14  1  0  0  0  0
  9 14  1  0  0  0  0
 10 15  1  0  0  0  0
  3 16  1  0  0  0  0
  3 17  1  0  0  0  0
  4 18  1  0  0  0  0
  4 19  1  0  0  0  0
  5 20  1  0  0  0  0
  6 21  1  0  0  0  0
  7 22  1  0  0  0  0
  8 23  1  0  0  0  0
  9 24  1  0  0  0  0
 10 25  1  0  0  0  0
 10 26  1  0  0  0  0
 10 27  1  0  0  0  0
 11 28  1  0  0  0  0
M  END
> <id>
EN300-740763

> <smiles>
COC(=O)C(=O)NC1CC2OC1C3CC32

> <IUPAC Name>
methyl ({8-oxatricyclo[3.2.1.0,2,4]octan-6-yl}carbamoyl)formate

> <CAS>
2137896-68-3

> <URL>
https://www.enaminestore.com/catalog/EN300-740763

> <ROCS_ShapeQuery>
_x1247relevant_x1083L0AP1_x1305L0BP1_

> <ROCS_TanimotoCombo>
0.834 

> <ROCS_ShapeTanimoto>
0.463 

> <ROCS_ColorTanimoto>
0.371 

> <ROCS_RefTversky>
0.403 

> <ROCS_RefColorTversky>
0.533 

> <ROCS_RefTverskyCombo>
0.936 

> <ROCS_FitTversky>
1.475 

> <ROCS_FitColorTversky>
0.548 

> <ROCS_FitTverskyCombo>
2.023 

> <ROCS_ColorScore>
-11.633

> <ROCS_Overlap>
1187.684

> <ROCS_Rank>
233                 

$$$$
untitled-dbase-38057_125
  -OEChem-06232314393D

 45 47  0     1  0  0  0  0  0999 V2000
  -13.9562   15.2440  -40.5418 C   0  0  0  0  0  0  0  0  0  0  0  0
  -10.2477   14.9782  -36.8498 C   0  0  0  0  0  0  0  0  0  0  0  0
  -13.7904   14.5583  -37.3018 C   0  0  0  0  0  0  0  0  0  0  0  0
  -13.6091   16.0866  -37.2683 C   0  0  0  0  0  0  0  0  0  0  0  0
  -12.3179   13.8399  -39.2560 C   0  0  0  0  0  0  0  0  0  0  0  0
  -10.7304   16.8111  -39.8348 C   0  0  0  0  0  0  0  0  0  0  0  0
  -11.6208   15.2196  -41.2842 C   0  0  0  0  0  0  0  0  0  0  0  0
  -12.1231   16.4588  -39.2858 C   0  0  2  0  0  0  0  0  0  0  0  0
  -12.4265   14.0086  -37.7321 C   0  0  1  0  0  0  0  0  0  0  0  0
  -12.1707   16.3244  -37.7467 C   0  0  2  0  0  0  0  0  0  0  0  0
  -12.5316   15.1644  -40.0532 C   0  0  1  0  0  0  0  0  0  0  0  0
   -7.8099   14.3206  -35.5099 C   0  0  0  0  0  0  0  0  0  0  0  0
   -8.8133   12.0393  -35.1968 C   0  0  0  0  0  0  0  0  0  0  0  0
   -8.3817   12.9085  -37.5133 C   0  0  0  0  0  0  0  0  0  0  0  0
   -8.7721   13.2817  -36.0840 C   0  0  0  0  0  0  0  0  0  0  0  0
  -10.3627   15.7198  -40.7357 N   0  0  0  0  0  0  0  0  0  0  0  0
  -11.5238   15.0850  -37.3665 N   0  0  0  0  0  0  0  0  0  0  0  0
  -14.4884   14.4357  -41.2878 O   0  0  0  0  0  0  0  0  0  0  0  0
   -9.3544   15.8013  -37.0357 O   0  0  0  0  0  0  0  0  0  0  0  0
  -14.5731   16.3424  -40.0416 O   0  0  0  0  0  0  0  0  0  0  0  0
  -10.0897   13.8422  -36.1028 O   0  0  0  0  0  0  0  0  0  0  0  0
  -14.0405   14.2056  -36.2939 H   0  0  0  0  0  0  0  0  0  0  0  0
  -14.6047   14.2537  -37.9661 H   0  0  0  0  0  0  0  0  0  0  0  0
  -14.3594   16.6003  -37.8774 H   0  0  0  0  0  0  0  0  0  0  0  0
  -13.7245   16.4391  -36.2360 H   0  0  0  0  0  0  0  0  0  0  0  0
  -11.3173   13.4380  -39.4642 H   0  0  0  0  0  0  0  0  0  0  0  0
  -13.0235   13.0677  -39.5872 H   0  0  0  0  0  0  0  0  0  0  0  0
  -10.7382   17.7845  -40.3668 H   0  0  0  0  0  0  0  0  0  0  0  0
   -9.9693   16.9031  -39.0326 H   0  0  0  0  0  0  0  0  0  0  0  0
  -11.4440   14.2393  -41.7197 H   0  0  0  0  0  0  0  0  0  0  0  0
  -11.9795   15.8810  -42.0686 H   0  0  0  0  0  0  0  0  0  0  0  0
  -12.7980   17.2864  -39.5547 H   0  0  0  0  0  0  0  0  0  0  0  0
  -12.1742   13.0755  -37.2229 H   0  0  0  0  0  0  0  0  0  0  0  0
  -11.7182   17.1997  -37.2640 H   0  0  0  0  0  0  0  0  0  0  0  0
   -7.7775   15.2139  -36.1439 H   0  0  0  0  0  0  0  0  0  0  0  0
   -8.0991   14.6226  -34.4981 H   0  0  0  0  0  0  0  0  0  0  0  0
   -6.7869   13.9290  -35.4752 H   0  0  0  0  0  0  0  0  0  0  0  0
   -9.5025   11.2912  -35.6049 H   0  0  0  0  0  0  0  0  0  0  0  0
   -9.1841   12.2868  -34.1955 H   0  0  0  0  0  0  0  0  0  0  0  0
   -7.8240   11.5813  -35.0968 H   0  0  0  0  0  0  0  0  0  0  0  0
   -9.0718   12.1633  -37.9253 H   0  0  0  0  0  0  0  0  0  0  0  0
   -8.3828   13.7823  -38.1729 H   0  0  0  0  0  0  0  0  0  0  0  0
   -7.3847   12.4541  -37.5389 H   0  0  0  0  0  0  0  0  0  0  0  0
   -9.8045   16.1051  -41.4991 H   0  0  0  0  0  0  0  0  0  0  0  0
  -15.5018   16.4133  -40.3498 H   0  0  0  0  0  0  0  0  0  0  0  0
  1 11  1  0  0  0  0
  1 18  2  0  0  0  0
  1 20  1  0  0  0  0
  2 17  1  0  0  0  0
  2 19  2  0  0  0  0
  2 21  1  0  0  0  0
  3  4  1  0  0  0  0
  3  9  1  0  0  0  0
  4 10  1  0  0  0  0
  5  9  1  0  0  0  0
  5 11  1  0  0  0  0
  6  8  1  0  0  0  0
  6 16  1  0  0  0  0
  7 11  1  0  0  0  0
  7 16  1  0  0  0  0
  8 10  1  0  0  0  0
  8 11  1  0  0  0  0
  9 17  1  0  0  0  0
 10 17  1  0  0  0  0
 12 15  1  0  0  0  0
 13 15  1  0  0  0  0
 14 15  1  0  0  0  0
 15 21  1  0  0  0  0
  3 22  1  0  0  0  0
  3 23  1  0  0  0  0
  4 24  1  0  0  0  0
  4 25  1  0  0  0  0
  5 26  1  0  0  0  0
  5 27  1  0  0  0  0
  6 28  1  0  0  0  0
  6 29  1  0  0  0  0
  7 30  1  0  0  0  0
  7 31  1  0  0  0  0
  8 32  1  0  0  0  0
  9 33  1  0  0  0  0
 10 34  1  0  0  0  0
 12 35  1  0  0  0  0
 12 36  1  0  0  0  0
 12 37  1  0  0  0  0
 13 38  1  0  0  0  0
 13 39  1  0  0  0  0
 13 40  1  0  0  0  0
 14 41  1  0  0  0  0
 14 42  1  0  0  0  0
 14 43  1  0  0  0  0
 16 44  1  0  0  0  0
 20 45  1  0  0  0  0
M  END
> <id>
EN300-1165330

> <smiles>
CC(C)(C)OC(=O)N1C2CCC1C3CNCC3(C2)C(=O)O

> <IUPAC Name>
11-[(tert-butoxy)carbonyl]-4,11-diazatricyclo[6.2.1.0,2,6]undecane-6-carboxylic acid

> <CAS>
2138229-73-7

> <URL>
https://www.enaminestore.com/catalog/EN300-1165330

> <ROCS_ShapeQuery>
_x1247relevant_x1083L0AP1_x1305L0BP1_

> <ROCS_TanimotoCombo>
0.834 

> <ROCS_ShapeTanimoto>
0.548 

> <ROCS_ColorTanimoto>
0.286 

> <ROCS_RefTversky>
0.481 

> <ROCS_RefColorTversky>
0.370 

> <ROCS_RefTverskyCombo>
0.851 

> <ROCS_FitTversky>
1.342 

> <ROCS_FitColorTversky>
0.556 

> <ROCS_FitTverskyCombo>
1.898 

> <ROCS_ColorScore>
-7.939

> <ROCS_Overlap>
1423.115

> <ROCS_Rank>
234                 

$$$$
untitled-dbase-148273_202
  -OEChem-06232314393D

 36 37  0     1  0  0  0  0  0999 V2000
  -13.2256   16.6198  -40.1525 C   0  0  0  0  0  0  0  0  0  0  0  0
  -10.2596   14.7847  -36.5907 C   0  0  0  0  0  0  0  0  0  0  0  0
  -13.7274   14.1904  -38.5576 C   0  0  0  0  0  0  0  0  0  0  0  0
  -12.3264   13.9981  -39.1755 C   0  0  0  0  0  0  0  0  0  0  0  0
  -12.6933   15.3955  -36.6247 C   0  0  0  0  0  0  0  0  0  0  0  0
  -12.6787   16.3417  -38.7874 C   0  0  1  0  0  0  0  0  0  0  0  0
  -13.6128   15.5623  -37.8510 C   0  0  1  0  0  0  0  0  0  0  0  0
  -11.5854   15.2716  -38.7251 C   0  0  1  0  0  0  0  0  0  0  0  0
   -9.6716   12.2976  -37.8690 C   0  0  0  0  0  0  0  0  0  0  0  0
   -7.4571   13.3313  -38.4497 C   0  0  0  0  0  0  0  0  0  0  0  0
   -8.0892   12.9989  -36.0417 C   0  0  0  0  0  0  0  0  0  0  0  0
   -8.6074   13.3090  -37.4454 C   0  0  0  0  0  0  0  0  0  0  0  0
  -11.4044   15.1483  -37.2682 N   0  0  0  0  0  0  0  0  0  0  0  0
  -12.5960   17.1209  -41.0722 O   0  0  0  0  0  0  0  0  0  0  0  0
  -10.1998   14.6294  -35.3733 O   0  0  0  0  0  0  0  0  0  0  0  0
  -14.5246   16.2413  -40.2339 O   0  0  0  0  0  0  0  0  0  0  0  0
   -9.1970   14.6137  -37.4358 O   0  0  0  0  0  0  0  0  0  0  0  0
  -14.4898   14.2121  -39.3440 H   0  0  0  0  0  0  0  0  0  0  0  0
  -13.9801   13.3844  -37.8610 H   0  0  0  0  0  0  0  0  0  0  0  0
  -11.8423   13.0825  -38.8198 H   0  0  0  0  0  0  0  0  0  0  0  0
  -12.3939   13.9412  -40.2675 H   0  0  0  0  0  0  0  0  0  0  0  0
  -12.6134   16.3133  -36.0327 H   0  0  0  0  0  0  0  0  0  0  0  0
  -12.9625   14.5594  -35.9725 H   0  0  0  0  0  0  0  0  0  0  0  0
  -12.3535   17.2978  -38.3595 H   0  0  0  0  0  0  0  0  0  0  0  0
  -14.5753   16.0285  -37.6320 H   0  0  0  0  0  0  0  0  0  0  0  0
  -10.6602   15.4729  -39.2682 H   0  0  0  0  0  0  0  0  0  0  0  0
  -10.4990   12.2786  -37.1507 H   0  0  0  0  0  0  0  0  0  0  0  0
  -10.0764   12.5291  -38.8597 H   0  0  0  0  0  0  0  0  0  0  0  0
   -9.2590   11.2825  -37.8923 H   0  0  0  0  0  0  0  0  0  0  0  0
   -6.6913   14.0556  -38.1496 H   0  0  0  0  0  0  0  0  0  0  0  0
   -7.8088   13.6459  -39.4389 H   0  0  0  0  0  0  0  0  0  0  0  0
   -6.9856   12.3479  -38.5458 H   0  0  0  0  0  0  0  0  0  0  0  0
   -7.3259   13.7242  -35.7376 H   0  0  0  0  0  0  0  0  0  0  0  0
   -8.8957   13.0151  -35.3014 H   0  0  0  0  0  0  0  0  0  0  0  0
   -7.6091   12.0141  -36.0123 H   0  0  0  0  0  0  0  0  0  0  0  0
  -14.9025   16.4174  -41.1219 H   0  0  0  0  0  0  0  0  0  0  0  0
  1  6  1  6  0  0  0
  1 14  2  0  0  0  0
  1 16  1  0  0  0  0
  2 13  1  0  0  0  0
  2 15  2  0  0  0  0
  2 17  1  0  0  0  0
  3  4  1  0  0  0  0
  3  7  1  0  0  0  0
  4  8  1  1  0  0  0
  5  7  1  1  0  0  0
  5 13  1  0  0  0  0
  6  7  1  0  0  0  0
  6  8  1  0  0  0  0
  8 13  1  0  0  0  0
  9 12  1  0  0  0  0
 10 12  1  0  0  0  0
 11 12  1  0  0  0  0
 12 17  1  0  0  0  0
  3 18  1  0  0  0  0
  3 19  1  0  0  0  0
  4 20  1  0  0  0  0
  4 21  1  0  0  0  0
  5 22  1  0  0  0  0
  5 23  1  0  0  0  0
  6 24  1  0  0  0  0
  7 25  1  0  0  0  0
  8 26  1  0  0  0  0
  9 27  1  0  0  0  0
  9 28  1  0  0  0  0
  9 29  1  0  0  0  0
 10 30  1  0  0  0  0
 10 31  1  0  0  0  0
 10 32  1  0  0  0  0
 11 33  1  0  0  0  0
 11 34  1  0  0  0  0
 11 35  1  0  0  0  0
 16 36  1  0  0  0  0
M  END
> <id>
EN300-6495490

> <smiles>
CC(C)(C)OC(=O)N1C[C@@H]2CC[C@H]1[C@H]2C(=O)O |&1:9,12,13,r|

> <IUPAC Name>
rac-(1R,4S,7R)-2-[(tert-butoxy)carbonyl]-2-azabicyclo[2.2.1]heptane-7-carboxylic acid

> <CAS>
1909286-89-0

> <URL>
https://www.enaminestore.com/catalog/EN300-6495490

> <ROCS_ShapeQuery>
_x1247relevant_x1083L0AP1_x1305L0BP1_

> <ROCS_TanimotoCombo>
0.834 

> <ROCS_ShapeTanimoto>
0.502 

> <ROCS_ColorTanimoto>
0.332 

> <ROCS_RefTversky>
0.434 

> <ROCS_RefColorTversky>
0.388 

> <ROCS_RefTverskyCombo>
0.822 

> <ROCS_FitTversky>
1.456 

> <ROCS_FitColorTversky>
0.695 

> <ROCS_FitTverskyCombo>
2.151 

> <ROCS_ColorScore>
-8.278

> <ROCS_Overlap>
1278.931

> <ROCS_Rank>
235                 

$$$$
untitled-dbase-142587_2
  -OEChem-06232314393D

 23 24  0     1  0  0  0  0  0999 V2000
  -13.8319   14.8418  -39.0280 C   0  0  0  0  0  0  0  0  0  0  0  0
  -10.5841   15.0916  -36.4318 C   0  0  0  0  0  0  0  0  0  0  0  0
  -14.1101   15.7339  -37.8365 C   0  0  0  0  0  0  0  0  0  0  0  0
  -12.0487   16.3160  -38.8936 C   0  0  0  0  0  0  0  0  0  0  0  0
  -12.3493   14.8962  -39.3495 C   0  0  1  0  0  0  0  0  0  0  0  0
  -11.9171   14.8204  -37.0489 C   0  0  1  0  0  0  0  0  0  0  0  0
  -12.6452   16.1000  -37.5002 C   0  0  2  0  0  0  0  0  0  0  0  0
   -8.5178   16.1703  -36.8200 C   0  0  0  0  0  0  0  0  0  0  0  0
  -11.6782   14.0915  -38.3146 N   0  0  0  0  0  0  0  0  0  0  0  0
  -14.6613   14.1632  -39.6126 O   0  0  0  0  0  0  0  0  0  0  0  0
  -10.2484   14.6947  -35.3241 O   0  0  0  0  0  0  0  0  0  0  0  0
   -9.8280   15.8355  -37.2885 O   0  0  0  0  0  0  0  0  0  0  0  0
  -14.6882   16.6061  -38.1521 H   0  0  0  0  0  0  0  0  0  0  0  0
  -14.6059   15.1868  -37.0323 H   0  0  0  0  0  0  0  0  0  0  0  0
  -10.9796   16.5530  -38.8845 H   0  0  0  0  0  0  0  0  0  0  0  0
  -12.5833   17.0819  -39.4672 H   0  0  0  0  0  0  0  0  0  0  0  0
  -12.0996   14.6584  -40.3831 H   0  0  0  0  0  0  0  0  0  0  0  0
  -12.5083   14.2232  -36.3464 H   0  0  0  0  0  0  0  0  0  0  0  0
  -12.5452   16.9515  -36.8233 H   0  0  0  0  0  0  0  0  0  0  0  0
   -7.9997   16.7634  -37.5776 H   0  0  0  0  0  0  0  0  0  0  0  0
   -7.9586   15.2543  -36.6138 H   0  0  0  0  0  0  0  0  0  0  0  0
   -8.6074   16.7548  -35.9013 H   0  0  0  0  0  0  0  0  0  0  0  0
  -12.0857   13.1583  -38.2695 H   0  0  0  0  0  0  0  0  0  0  0  0
  1  3  1  0  0  0  0
  1  5  1  0  0  0  0
  1 10  2  0  0  0  0
  2  6  1  1  0  0  0
  2 11  2  0  0  0  0
  2 12  1  0  0  0  0
  3  7  1  6  0  0  0
  4  5  1  0  0  0  0
  4  7  1  0  0  0  0
  5  9  1  6  0  0  0
  6  7  1  0  0  0  0
  6  9  1  0  0  0  0
  8 12  1  0  0  0  0
  3 13  1  0  0  0  0
  3 14  1  0  0  0  0
  4 15  1  0  0  0  0
  4 16  1  0  0  0  0
  5 17  1  0  0  0  0
  6 18  1  0  0  0  0
  7 19  1  0  0  0  0
  8 20  1  0  0  0  0
  8 21  1  0  0  0  0
  8 22  1  0  0  0  0
  9 23  1  0  0  0  0
M  END
> <id>
EN300-27728211

> <smiles>
COC(=O)[C@@H]1N[C@@H]2C[C@H]1CC2=O |&1:4,6,8,r|

> <IUPAC Name>
rac-methyl (1R,3R,4S)-6-oxo-2-azabicyclo[2.2.1]heptane-3-carboxylate

> <CAS>
2580091-58-1

> <URL>
https://www.enaminestore.com/catalog/EN300-27728211

> <ROCS_ShapeQuery>
_x1247relevant_x1083L0AP1_x1305L0BP1_

> <ROCS_TanimotoCombo>
0.833 

> <ROCS_ShapeTanimoto>
0.452 

> <ROCS_ColorTanimoto>
0.381 

> <ROCS_RefTversky>
0.382 

> <ROCS_RefColorTversky>
0.418 

> <ROCS_RefTverskyCombo>
0.800 

> <ROCS_FitTversky>
1.681 

> <ROCS_FitColorTversky>
0.812 

> <ROCS_FitTverskyCombo>
2.493 

> <ROCS_ColorScore>
-8.901

> <ROCS_Overlap>
1122.497

> <ROCS_Rank>
236                 

$$$$
untitled-dbase-142484_8
  -OEChem-06232314393D

 22 23  0     1  0  0  0  0  0999 V2000
  -13.9833   15.3397  -37.7541 C   0  0  0  0  0  0  0  0  0  0  0  0
  -12.7596   13.9125  -38.7038 C   0  0  0  0  0  0  0  0  0  0  0  0
  -11.2302   16.2651  -38.6348 C   0  0  0  0  0  0  0  0  0  0  0  0
  -12.6562   14.6412  -37.3277 C   0  0  0  0  0  0  0  0  0  0  0  0
  -13.3744   15.2658  -39.1826 C   0  0  0  0  0  0  0  0  0  0  0  0
  -11.5103   15.6587  -37.2503 C   0  0  1  0  0  0  0  0  0  0  0  0
  -10.1287   13.4011  -37.4529 N   0  0  0  0  0  0  0  0  0  0  0  0
   -8.9059   15.6289  -37.0549 O   0  0  0  0  0  0  0  0  0  0  0  0
  -10.2829   14.6189  -35.1923 O   0  0  0  0  0  0  0  0  0  0  0  0
  -12.4119   16.3197  -39.4449 O   0  0  0  0  0  0  0  0  0  0  0  0
  -10.0615   14.8766  -36.6031 S   0  0  0  0  0  0  0  0  0  0  0  0
  -14.8914   14.7368  -37.6084 H   0  0  0  0  0  0  0  0  0  0  0  0
  -14.1705   16.3385  -37.3425 H   0  0  0  0  0  0  0  0  0  0  0  0
  -11.8301   13.6139  -39.1903 H   0  0  0  0  0  0  0  0  0  0  0  0
  -13.4532   13.0645  -38.7288 H   0  0  0  0  0  0  0  0  0  0  0  0
  -10.8809   17.2965  -38.5208 H   0  0  0  0  0  0  0  0  0  0  0  0
  -10.4577   15.7177  -39.1814 H   0  0  0  0  0  0  0  0  0  0  0  0
  -12.7232   13.9968  -36.4537 H   0  0  0  0  0  0  0  0  0  0  0  0
  -14.1011   15.1921  -39.9959 H   0  0  0  0  0  0  0  0  0  0  0  0
  -11.7393   16.4499  -36.5448 H   0  0  0  0  0  0  0  0  0  0  0  0
  -10.8616   12.7304  -37.1911 H   0  0  0  0  0  0  0  0  0  0  0  0
   -9.9236   13.4183  -38.4595 H   0  0  0  0  0  0  0  0  0  0  0  0
  1  4  1  0  0  0  0
  1  5  1  0  0  0  0
  2  4  1  0  0  0  0
  2  5  1  0  0  0  0
  3  6  1  0  0  0  0
  3 10  1  0  0  0  0
  4  6  1  0  0  0  0
  5 10  1  0  0  0  0
  6 11  1  0  0  0  0
  7 11  1  0  0  0  0
  8 11  2  0  0  0  0
  9 11  2  0  0  0  0
  1 12  1  0  0  0  0
  1 13  1  0  0  0  0
  2 14  1  0  0  0  0
  2 15  1  0  0  0  0
  3 16  1  0  0  0  0
  3 17  1  0  0  0  0
  4 18  1  0  0  0  0
  5 19  1  0  0  0  0
  6 20  1  0  0  0  0
  7 21  1  0  0  0  0
  7 22  1  0  0  0  0
M  END
> <id>
EN300-27734382

> <smiles>
NS(=O)(=O)C1COC2CC1C2

> <IUPAC Name>
2-oxabicyclo[3.1.1]heptane-4-sulfonamide

> <CAS>
2580197-82-4

> <URL>
https://www.enaminestore.com/catalog/EN300-27734382

> <ROCS_ShapeQuery>
_x1247relevant_x1083L0AP1_x1305L0BP1_

> <ROCS_TanimotoCombo>
0.833 

> <ROCS_ShapeTanimoto>
0.448 

> <ROCS_ColorTanimoto>
0.385 

> <ROCS_RefTversky>
0.372 

> <ROCS_RefColorTversky>
0.418 

> <ROCS_RefTverskyCombo>
0.790 

> <ROCS_FitTversky>
1.847 

> <ROCS_FitColorTversky>
0.830 

> <ROCS_FitTverskyCombo>
2.677 

> <ROCS_ColorScore>
-8.892

> <ROCS_Overlap>
1090.658

> <ROCS_Rank>
237                 

$$$$
untitled-dbase-171413_17
  -OEChem-06232314393D

 24 25  0     1  0  0  0  0  0999 V2000
  -13.2695   16.4322  -40.3142 C   0  0  0  0  0  0  0  0  0  0  0  0
   -9.8880   14.8663  -36.9992 C   0  0  0  0  0  0  0  0  0  0  0  0
  -12.7722   14.2706  -39.0569 C   0  0  0  0  0  0  0  0  0  0  0  0
  -11.3011   16.1179  -38.7191 C   0  0  0  0  0  0  0  0  0  0  0  0
  -13.2960   15.0954  -36.9469 C   0  0  0  0  0  0  0  0  0  0  0  0
  -12.2386   14.2309  -37.6355 C   0  0  2  0  0  0  0  0  0  0  0  0
  -12.7579   15.7940  -39.0693 C   0  0  1  0  0  0  0  0  0  0  0  0
   -9.9147   13.6728  -36.0792 C   0  0  0  0  0  0  0  0  0  0  0  0
  -11.0304   15.0575  -37.7455 N   0  0  0  0  0  0  0  0  0  0  0  0
  -12.6236   17.1746  -41.0388 O   0  0  0  0  0  0  0  0  0  0  0  0
   -8.8964   15.5946  -37.0531 O   0  0  0  0  0  0  0  0  0  0  0  0
  -13.5674   16.1370  -37.9273 O   0  0  0  0  0  0  0  0  0  0  0  0
  -14.5590   16.0795  -40.5379 O   0  0  0  0  0  0  0  0  0  0  0  0
  -12.1086   13.8127  -39.7981 H   0  0  0  0  0  0  0  0  0  0  0  0
  -13.7780   13.8450  -39.1465 H   0  0  0  0  0  0  0  0  0  0  0  0
  -10.6128   16.0172  -39.5639 H   0  0  0  0  0  0  0  0  0  0  0  0
  -11.1765   17.0932  -38.2391 H   0  0  0  0  0  0  0  0  0  0  0  0
  -14.2273   14.5485  -36.7685 H   0  0  0  0  0  0  0  0  0  0  0  0
  -12.9545   15.5504  -36.0122 H   0  0  0  0  0  0  0  0  0  0  0  0
  -12.0611   13.2547  -37.1821 H   0  0  0  0  0  0  0  0  0  0  0  0
   -9.5309   12.8069  -36.6089 H   0  0  0  0  0  0  0  0  0  0  0  0
  -10.9368   13.4902  -35.7624 H   0  0  0  0  0  0  0  0  0  0  0  0
   -9.2974   13.8794  -35.2105 H   0  0  0  0  0  0  0  0  0  0  0  0
  -14.8997   15.4766  -39.8431 H   0  0  0  0  0  0  0  0  0  0  0  0
  1  7  1  0  0  0  0
  1 10  2  0  0  0  0
  1 13  1  0  0  0  0
  2  8  1  0  0  0  0
  2  9  1  0  0  0  0
  2 11  2  0  0  0  0
  3  6  1  0  0  0  0
  3  7  1  0  0  0  0
  4  7  1  0  0  0  0
  4  9  1  0  0  0  0
  5  6  1  0  0  0  0
  5 12  1  0  0  0  0
  6  9  1  0  0  0  0
  7 12  1  0  0  0  0
  3 14  1  0  0  0  0
  3 15  1  0  0  0  0
  4 16  1  0  0  0  0
  4 17  1  0  0  0  0
  5 18  1  0  0  0  0
  5 19  1  0  0  0  0
  6 20  1  0  0  0  0
  8 21  1  0  0  0  0
  8 22  1  0  0  0  0
  8 23  1  0  0  0  0
 13 24  1  0  0  0  0
M  END
> <id>
EN300-39689768

> <smiles>
CC(=O)N1CC2(CC1CO2)C(=O)O

> <IUPAC Name>
5-acetyl-2-oxa-5-azabicyclo[2.2.1]heptane-1-carboxylic acid

> <URL>
https://www.enaminestore.com/catalog/EN300-39689768

> <ROCS_ShapeQuery>
_x1247relevant_x1083L0AP1_x1305L0BP1_

> <ROCS_TanimotoCombo>
0.833 

> <ROCS_ShapeTanimoto>
0.500 

> <ROCS_ColorTanimoto>
0.333 

> <ROCS_RefTversky>
0.415 

> <ROCS_RefColorTversky>
0.390 

> <ROCS_RefTverskyCombo>
0.805 

> <ROCS_FitTversky>
1.698 

> <ROCS_FitColorTversky>
0.695 

> <ROCS_FitTverskyCombo>
2.393 

> <ROCS_ColorScore>
-8.320

> <ROCS_Overlap>
1220.029

> <ROCS_Rank>
238                 

$$$$
untitled-dbase-75587_2
  -OEChem-06232314393D

 25 27  0     1  0  0  0  0  0999 V2000
  -11.4079   16.0861  -38.5959 C   0  0  0  0  0  0  0  0  0  0  0  0
  -10.3202   14.6019  -36.7642 C   0  0  0  0  0  0  0  0  0  0  0  0
  -13.2973   15.3036  -39.9075 C   0  0  0  0  0  0  0  0  0  0  0  0
  -13.1741   13.8917  -39.2839 C   0  0  0  0  0  0  0  0  0  0  0  0
  -13.5447   16.2276  -37.5731 C   0  0  0  0  0  0  0  0  0  0  0  0
  -12.8493   16.4123  -38.9416 C   0  0  1  0  0  0  0  0  0  0  0  0
  -12.5087   13.8978  -37.9295 C   0  0  2  0  0  0  0  0  0  0  0  0
  -12.8444   15.0258  -37.0001 C   0  0  1  0  0  0  0  0  0  0  0  0
  -11.4622   14.9596  -37.6136 C   0  0  2  0  0  0  0  0  0  0  0  0
   -8.0680   13.8914  -36.8443 C   0  0  0  0  0  0  0  0  0  0  0  0
  -10.3901   16.5621  -39.0643 O   0  0  0  0  0  0  0  0  0  0  0  0
  -10.3458   14.6143  -35.5409 O   0  0  0  0  0  0  0  0  0  0  0  0
   -9.2571   14.2639  -37.5481 O   0  0  0  0  0  0  0  0  0  0  0  0
  -12.6916   15.3419  -40.8218 H   0  0  0  0  0  0  0  0  0  0  0  0
  -14.3361   15.4720  -40.2158 H   0  0  0  0  0  0  0  0  0  0  0  0
  -14.1737   13.4524  -39.1833 H   0  0  0  0  0  0  0  0  0  0  0  0
  -12.6110   13.2406  -39.9624 H   0  0  0  0  0  0  0  0  0  0  0  0
  -13.3702   17.0977  -36.9301 H   0  0  0  0  0  0  0  0  0  0  0  0
  -14.6228   16.0676  -37.6705 H   0  0  0  0  0  0  0  0  0  0  0  0
  -12.9652   17.4184  -39.3489 H   0  0  0  0  0  0  0  0  0  0  0  0
  -12.3954   12.9067  -37.5100 H   0  0  0  0  0  0  0  0  0  0  0  0
  -12.9964   14.8432  -35.9491 H   0  0  0  0  0  0  0  0  0  0  0  0
   -7.2825   13.6412  -37.5616 H   0  0  0  0  0  0  0  0  0  0  0  0
   -8.2775   13.0319  -36.2026 H   0  0  0  0  0  0  0  0  0  0  0  0
   -7.7413   14.7326  -36.2284 H   0  0  0  0  0  0  0  0  0  0  0  0
  1  6  1  0  0  0  0
  1  9  1  0  0  0  0
  1 11  2  0  0  0  0
  2  9  1  0  0  0  0
  2 12  2  0  0  0  0
  2 13  1  0  0  0  0
  3  4  1  0  0  0  0
  3  6  1  0  0  0  0
  4  7  1  0  0  0  0
  5  6  1  0  0  0  0
  5  8  1  0  0  0  0
  7  8  1  0  0  0  0
  7  9  1  0  0  0  0
  8  9  1  0  0  0  0
 10 13  1  0  0  0  0
  3 14  1  0  0  0  0
  3 15  1  0  0  0  0
  4 16  1  0  0  0  0
  4 17  1  0  0  0  0
  5 18  1  0  0  0  0
  5 19  1  0  0  0  0
  6 20  1  0  0  0  0
  7 21  1  0  0  0  0
  8 22  1  0  0  0  0
 10 23  1  0  0  0  0
 10 24  1  0  0  0  0
 10 25  1  0  0  0  0
M  END
> <id>
EN300-7472239

> <smiles>
COC(=O)C1(C2CC3CCC21)C3=O

> <MDLNUMBER>
MFCD32268290

> <IUPAC Name>
methyl 8-oxotricyclo[3.2.1.0,2,7]octane-1-carboxylate

> <CAS>
1243167-68-1

> <Purity>
95

> <URL>
https://www.enaminestore.com/catalog/EN300-7472239

> <ROCS_ShapeQuery>
_x1247relevant_x1083L0AP1_x1305L0BP1_

> <ROCS_TanimotoCombo>
0.833 

> <ROCS_ShapeTanimoto>
0.491 

> <ROCS_ColorTanimoto>
0.342 

> <ROCS_RefTversky>
0.410 

> <ROCS_RefColorTversky>
0.571 

> <ROCS_RefTverskyCombo>
0.981 

> <ROCS_FitTversky>
1.679 

> <ROCS_FitColorTversky>
0.460 

> <ROCS_FitTverskyCombo>
2.140 

> <ROCS_ColorScore>
-12.645

> <ROCS_Overlap>
1204.943

> <ROCS_Rank>
239                 

$$$$
untitled-dbase-171392_17
  -OEChem-06232314393D

 24 25  0     1  0  0  0  0  0999 V2000
  -13.2694   16.4332  -40.3134 C   0  0  0  0  0  0  0  0  0  0  0  0
   -9.8867   14.8649  -37.0007 C   0  0  0  0  0  0  0  0  0  0  0  0
  -12.7721   14.2710  -39.0572 C   0  0  0  0  0  0  0  0  0  0  0  0
  -11.3004   16.1178  -38.7192 C   0  0  0  0  0  0  0  0  0  0  0  0
  -13.2948   15.0951  -36.9466 C   0  0  0  0  0  0  0  0  0  0  0  0
  -12.2379   14.2305  -37.6360 C   0  0  2  0  0  0  0  0  0  0  0  0
  -12.7574   15.7945  -39.0689 C   0  0  1  0  0  0  0  0  0  0  0  0
   -9.9135   13.6710  -36.0812 C   0  0  0  0  0  0  0  0  0  0  0  0
  -11.0295   15.0568  -37.7462 N   0  0  0  0  0  0  0  0  0  0  0  0
  -12.6237   17.1757  -41.0380 O   0  0  0  0  0  0  0  0  0  0  0  0
   -8.8948   15.5925  -37.0549 O   0  0  0  0  0  0  0  0  0  0  0  0
  -13.5662   16.1372  -37.9264 O   0  0  0  0  0  0  0  0  0  0  0  0
  -14.5591   16.0809  -40.5366 O   0  0  0  0  0  0  0  0  0  0  0  0
  -12.1096   13.8127  -39.7991 H   0  0  0  0  0  0  0  0  0  0  0  0
  -13.7781   13.8457  -39.1455 H   0  0  0  0  0  0  0  0  0  0  0  0
  -10.6126   16.0176  -39.5644 H   0  0  0  0  0  0  0  0  0  0  0  0
  -11.1754   17.0931  -38.2389 H   0  0  0  0  0  0  0  0  0  0  0  0
  -14.2264   14.5485  -36.7682 H   0  0  0  0  0  0  0  0  0  0  0  0
  -12.9533   15.5495  -36.0115 H   0  0  0  0  0  0  0  0  0  0  0  0
  -12.0607   13.2541  -37.1833 H   0  0  0  0  0  0  0  0  0  0  0  0
   -9.5305   12.8052  -36.6116 H   0  0  0  0  0  0  0  0  0  0  0  0
  -10.9355   13.4888  -35.7639 H   0  0  0  0  0  0  0  0  0  0  0  0
   -9.2956   13.8769  -35.2129 H   0  0  0  0  0  0  0  0  0  0  0  0
  -14.8997   15.4778  -39.8419 H   0  0  0  0  0  0  0  0  0  0  0  0
  1  7  1  6  0  0  0
  1 10  2  0  0  0  0
  1 13  1  0  0  0  0
  2  8  1  0  0  0  0
  2  9  1  0  0  0  0
  2 11  2  0  0  0  0
  3  6  1  0  0  0  0
  3  7  1  0  0  0  0
  4  7  1  0  0  0  0
  4  9  1  0  0  0  0
  5  6  1  1  0  0  0
  5 12  1  0  0  0  0
  6  9  1  0  0  0  0
  7 12  1  0  0  0  0
  3 14  1  0  0  0  0
  3 15  1  0  0  0  0
  4 16  1  0  0  0  0
  4 17  1  0  0  0  0
  5 18  1  0  0  0  0
  5 19  1  0  0  0  0
  6 20  1  0  0  0  0
  8 21  1  0  0  0  0
  8 22  1  0  0  0  0
  8 23  1  0  0  0  0
 13 24  1  0  0  0  0
M  END
> <id>
EN300-39918118

> <smiles>
CC(=O)N1C[C@]2(C[C@@H]1CO2)C(=O)O

> <IUPAC Name>
(1R,4R)-5-acetyl-2-oxa-5-azabicyclo[2.2.1]heptane-1-carboxylic acid

> <URL>
https://www.enaminestore.com/catalog/EN300-39918118

> <ROCS_ShapeQuery>
_x1247relevant_x1083L0AP1_x1305L0BP1_

> <ROCS_TanimotoCombo>
0.833 

> <ROCS_ShapeTanimoto>
0.500 

> <ROCS_ColorTanimoto>
0.333 

> <ROCS_RefTversky>
0.415 

> <ROCS_RefColorTversky>
0.390 

> <ROCS_RefTverskyCombo>
0.805 

> <ROCS_FitTversky>
1.698 

> <ROCS_FitColorTversky>
0.695 

> <ROCS_FitTverskyCombo>
2.393 

> <ROCS_ColorScore>
-8.320

> <ROCS_Overlap>
1219.995

> <ROCS_Rank>
240                 

$$$$
untitled-dbase-178641_17
  -OEChem-06232314393D

 27 29  0     1  0  0  0  0  0999 V2000
   -9.4051   13.9043  -36.7967 C   0  0  0  0  0  0  0  0  0  0  0  0
   -9.4272   15.2165  -36.2763 C   0  0  0  0  0  0  0  0  0  0  0  0
  -10.3896   13.4593  -37.6838 C   0  0  0  0  0  0  0  0  0  0  0  0
  -10.4346   16.1195  -36.6286 C   0  0  0  0  0  0  0  0  0  0  0  0
  -11.3721   14.3578  -38.0308 C   0  0  0  0  0  0  0  0  0  0  0  0
  -11.3946   15.6745  -37.5081 C   0  0  0  0  0  0  0  0  0  0  0  0
  -12.8564   16.0729  -40.6494 C   0  0  0  0  0  0  0  0  0  0  0  0
  -13.8167   14.2121  -37.9827 C   0  0  0  0  0  0  0  0  0  0  0  0
  -13.8417   15.6751  -37.4018 C   0  0  0  0  0  0  0  0  0  0  0  0
  -12.5892   14.2392  -38.9206 C   0  0  1  0  0  0  0  0  0  0  0  0
  -12.6253   16.3357  -38.0892 C   0  0  2  0  0  0  0  0  0  0  0  0
  -13.6420   15.1522  -41.5447 C   0  0  0  0  0  0  0  0  0  0  0  0
  -12.6795   15.6254  -39.3667 N   0  0  0  0  0  0  0  0  0  0  0  0
  -12.4223   17.1444  -41.0728 O   0  0  0  0  0  0  0  0  0  0  0  0
  -15.3379   15.5858  -41.3537 Cl  0  0  0  0  0  0  0  0  0  0  0  0
   -8.6088   13.2275  -36.4968 H   0  0  0  0  0  0  0  0  0  0  0  0
   -8.6476   15.5267  -35.5849 H   0  0  0  0  0  0  0  0  0  0  0  0
  -10.3757   12.4495  -38.0759 H   0  0  0  0  0  0  0  0  0  0  0  0
  -10.4548   17.1234  -36.2220 H   0  0  0  0  0  0  0  0  0  0  0  0
  -13.7313   13.4692  -37.1823 H   0  0  0  0  0  0  0  0  0  0  0  0
  -14.7390   14.0241  -38.5439 H   0  0  0  0  0  0  0  0  0  0  0  0
  -14.7757   16.1693  -37.6923 H   0  0  0  0  0  0  0  0  0  0  0  0
  -13.7696   15.6689  -36.3088 H   0  0  0  0  0  0  0  0  0  0  0  0
  -12.5449   13.4978  -39.7190 H   0  0  0  0  0  0  0  0  0  0  0  0
  -12.6108   17.4236  -38.1465 H   0  0  0  0  0  0  0  0  0  0  0  0
  -13.4831   14.1276  -41.2256 H   0  0  0  0  0  0  0  0  0  0  0  0
  -13.3325   15.3089  -42.5725 H   0  0  0  0  0  0  0  0  0  0  0  0
  1  2  2  0  0  0  0
  1  3  1  0  0  0  0
  2  4  1  0  0  0  0
  3  5  2  0  0  0  0
  4  6  2  0  0  0  0
  5  6  1  0  0  0  0
  5 10  1  0  0  0  0
  6 11  1  0  0  0  0
  7 12  1  0  0  0  0
  7 13  1  0  0  0  0
  7 14  2  0  0  0  0
  8  9  1  0  0  0  0
  8 10  1  0  0  0  0
  9 11  1  0  0  0  0
 10 13  1  0  0  0  0
 11 13  1  0  0  0  0
 12 15  1  0  0  0  0
  1 16  1  0  0  0  0
  2 17  1  0  0  0  0
  3 18  1  0  0  0  0
  4 19  1  0  0  0  0
  8 20  1  0  0  0  0
  8 21  1  0  0  0  0
  9 22  1  0  0  0  0
  9 23  1  0  0  0  0
 10 24  1  0  0  0  0
 11 25  1  0  0  0  0
 12 26  1  0  0  0  0
 12 27  1  0  0  0  0
M  END
> <id>
EN300-26597434

> <smiles>
ClCC(=O)N1C2CCC1C=3C=CC=CC23

> <IUPAC Name>
1-{11-azatricyclo[6.2.1.0,2,7]undeca-2,4,6-trien-11-yl}-2-chloroethan-1-one

> <CAS>
2156410-40-9

> <URL>
https://www.enaminestore.com/catalog/EN300-26597434

> <ROCS_ShapeQuery>
_x1247relevant_x1083L0AP1_x1305L0BP1_

> <ROCS_TanimotoCombo>
0.833 

> <ROCS_ShapeTanimoto>
0.499 

> <ROCS_ColorTanimoto>
0.334 

> <ROCS_RefTversky>
0.424 

> <ROCS_RefColorTversky>
0.358 

> <ROCS_RefTverskyCombo>
0.782 

> <ROCS_FitTversky>
1.552 

> <ROCS_FitColorTversky>
0.832 

> <ROCS_FitTverskyCombo>
2.384 

> <ROCS_ColorScore>
-7.593

> <ROCS_Overlap>
1247.456

> <ROCS_Rank>
241                 

$$$$
untitled-dbase-150439_254
  -OEChem-06232314393D

 36 37  0     1  0  0  0  0  0999 V2000
  -13.3612   16.4616  -40.2959 C   0  0  0  0  0  0  0  0  0  0  0  0
   -9.8162   14.7429  -37.2589 C   0  0  0  0  0  0  0  0  0  0  0  0
  -13.1661   15.0921  -36.7897 C   0  0  0  0  0  0  0  0  0  0  0  0
  -13.5487   16.2313  -37.7593 C   0  0  0  0  0  0  0  0  0  0  0  0
  -12.9392   14.3010  -39.0143 C   0  0  0  0  0  0  0  0  0  0  0  0
  -11.3070   16.0172  -38.8731 C   0  0  0  0  0  0  0  0  0  0  0  0
  -12.2498   14.2079  -37.6539 C   0  0  1  0  0  0  0  0  0  0  0  0
  -12.8215   15.8303  -39.0594 C   0  0  1  0  0  0  0  0  0  0  0  0
  -10.2599   14.1408  -34.7489 C   0  0  0  0  0  0  0  0  0  0  0  0
  -10.0506   11.7090  -35.3420 C   0  0  0  0  0  0  0  0  0  0  0  0
   -7.9962   13.1491  -35.2253 C   0  0  0  0  0  0  0  0  0  0  0  0
   -9.4849   13.1094  -35.5677 C   0  0  0  0  0  0  0  0  0  0  0  0
  -11.0180   14.9675  -37.8966 N   0  0  0  0  0  0  0  0  0  0  0  0
  -12.7258   17.1828  -41.0505 O   0  0  0  0  0  0  0  0  0  0  0  0
   -8.9996   15.6211  -36.9920 O   0  0  0  0  0  0  0  0  0  0  0  0
  -14.6633   16.1295  -40.4737 O   0  0  0  0  0  0  0  0  0  0  0  0
   -9.6416   13.4194  -36.9568 O   0  0  0  0  0  0  0  0  0  0  0  0
  -12.6670   15.4649  -35.8894 H   0  0  0  0  0  0  0  0  0  0  0  0
  -14.0624   14.5417  -36.4821 H   0  0  0  0  0  0  0  0  0  0  0  0
  -14.6361   16.2709  -37.8918 H   0  0  0  0  0  0  0  0  0  0  0  0
  -13.2221   17.2077  -37.3856 H   0  0  0  0  0  0  0  0  0  0  0  0
  -12.3886   13.7972  -39.8170 H   0  0  0  0  0  0  0  0  0  0  0  0
  -13.9749   13.9429  -39.0096 H   0  0  0  0  0  0  0  0  0  0  0  0
  -10.7297   15.8222  -39.7833 H   0  0  0  0  0  0  0  0  0  0  0  0
  -11.0281   16.9970  -38.4722 H   0  0  0  0  0  0  0  0  0  0  0  0
  -12.0685   13.2082  -37.2549 H   0  0  0  0  0  0  0  0  0  0  0  0
   -9.8569   15.1474  -34.9081 H   0  0  0  0  0  0  0  0  0  0  0  0
  -11.3232   14.1467  -35.0101 H   0  0  0  0  0  0  0  0  0  0  0  0
  -10.1682   13.9373  -33.6759 H   0  0  0  0  0  0  0  0  0  0  0  0
   -9.4975   10.9658  -35.9276 H   0  0  0  0  0  0  0  0  0  0  0  0
  -11.0931   11.6509  -35.6753 H   0  0  0  0  0  0  0  0  0  0  0  0
  -10.0074   11.4210  -34.2867 H   0  0  0  0  0  0  0  0  0  0  0  0
   -7.4401   12.4094  -35.8124 H   0  0  0  0  0  0  0  0  0  0  0  0
   -7.5647   14.1371  -35.4161 H   0  0  0  0  0  0  0  0  0  0  0  0
   -7.8318   12.8949  -34.1719 H   0  0  0  0  0  0  0  0  0  0  0  0
  -15.0383   16.5377  -41.2831 H   0  0  0  0  0  0  0  0  0  0  0  0
  1  8  1  0  0  0  0
  1 14  2  0  0  0  0
  1 16  1  0  0  0  0
  2 13  1  0  0  0  0
  2 15  2  0  0  0  0
  2 17  1  0  0  0  0
  3  4  1  0  0  0  0
  3  7  1  0  0  0  0
  4  8  1  0  0  0  0
  5  7  1  0  0  0  0
  5  8  1  0  0  0  0
  6  8  1  0  0  0  0
  6 13  1  0  0  0  0
  7 13  1  0  0  0  0
  9 12  1  0  0  0  0
 10 12  1  0  0  0  0
 11 12  1  0  0  0  0
 12 17  1  0  0  0  0
  3 18  1  0  0  0  0
  3 19  1  0  0  0  0
  4 20  1  0  0  0  0
  4 21  1  0  0  0  0
  5 22  1  0  0  0  0
  5 23  1  0  0  0  0
  6 24  1  0  0  0  0
  6 25  1  0  0  0  0
  7 26  1  0  0  0  0
  9 27  1  0  0  0  0
  9 28  1  0  0  0  0
  9 29  1  0  0  0  0
 10 30  1  0  0  0  0
 10 31  1  0  0  0  0
 10 32  1  0  0  0  0
 11 33  1  0  0  0  0
 11 34  1  0  0  0  0
 11 35  1  0  0  0  0
 16 36  1  0  0  0  0
M  END
> <id>
EN300-1719015

> <smiles>
CC(C)(C)OC(=O)N1CC2(CCC1C2)C(=O)O

> <MDLNUMBER>
MFCD28388936

> <IUPAC Name>
2-[(tert-butoxy)carbonyl]-2-azabicyclo[2.2.1]heptane-4-carboxylic acid

> <CAS>
1935385-39-9

> <Purity>
95

> <URL>
https://www.enaminestore.com/catalog/EN300-1719015

> <ROCS_ShapeQuery>
_x1247relevant_x1083L0AP1_x1305L0BP1_

> <ROCS_TanimotoCombo>
0.833 

> <ROCS_ShapeTanimoto>
0.517 

> <ROCS_ColorTanimoto>
0.316 

> <ROCS_RefTversky>
0.442 

> <ROCS_RefColorTversky>
0.374 

> <ROCS_RefTverskyCombo>
0.817 

> <ROCS_FitTversky>
1.483 

> <ROCS_FitColorTversky>
0.671 

> <ROCS_FitTverskyCombo>
2.153 

> <ROCS_ColorScore>
-7.983

> <ROCS_Overlap>
1304.517

> <ROCS_Rank>
242                 

$$$$
untitled-dbase-94592_254
  -OEChem-06232314393D

 36 37  0     1  0  0  0  0  0999 V2000
  -13.3614   16.4616  -40.2957 C   0  0  0  0  0  0  0  0  0  0  0  0
   -9.8161   14.7427  -37.2591 C   0  0  0  0  0  0  0  0  0  0  0  0
  -13.1654   15.0925  -36.7895 C   0  0  0  0  0  0  0  0  0  0  0  0
  -13.5482   16.2317  -37.7591 C   0  0  0  0  0  0  0  0  0  0  0  0
  -12.9396   14.3009  -39.0141 C   0  0  0  0  0  0  0  0  0  0  0  0
  -11.3069   16.0169  -38.8735 C   0  0  0  0  0  0  0  0  0  0  0  0
  -12.2497   14.2079  -37.6540 C   0  0  1  0  0  0  0  0  0  0  0  0
  -12.8215   15.8302  -39.0594 C   0  0  1  0  0  0  0  0  0  0  0  0
  -10.2607   14.1402  -34.7494 C   0  0  0  0  0  0  0  0  0  0  0  0
  -10.0504   11.7085  -35.3425 C   0  0  0  0  0  0  0  0  0  0  0  0
   -7.9965   13.1493  -35.2248 C   0  0  0  0  0  0  0  0  0  0  0  0
   -9.4850   13.1091  -35.5678 C   0  0  0  0  0  0  0  0  0  0  0  0
  -11.0178   14.9671  -37.8972 N   0  0  0  0  0  0  0  0  0  0  0  0
  -12.7259   17.1825  -41.0506 O   0  0  0  0  0  0  0  0  0  0  0  0
   -8.9998   15.6211  -36.9918 O   0  0  0  0  0  0  0  0  0  0  0  0
  -14.6636   16.1299  -40.4732 O   0  0  0  0  0  0  0  0  0  0  0  0
   -9.6412   13.4190  -36.9570 O   0  0  0  0  0  0  0  0  0  0  0  0
  -12.6652   15.4663  -35.8902 H   0  0  0  0  0  0  0  0  0  0  0  0
  -14.0613   14.5421  -36.4807 H   0  0  0  0  0  0  0  0  0  0  0  0
  -14.6357   16.2717  -37.8917 H   0  0  0  0  0  0  0  0  0  0  0  0
  -13.2207   17.2082  -37.3862 H   0  0  0  0  0  0  0  0  0  0  0  0
  -12.3888   13.7974  -39.8168 H   0  0  0  0  0  0  0  0  0  0  0  0
  -13.9751   13.9427  -39.0095 H   0  0  0  0  0  0  0  0  0  0  0  0
  -10.7298   15.8203  -39.7838 H   0  0  0  0  0  0  0  0  0  0  0  0
  -11.0266   16.9967  -38.4738 H   0  0  0  0  0  0  0  0  0  0  0  0
  -12.0683   13.2082  -37.2556 H   0  0  0  0  0  0  0  0  0  0  0  0
   -9.8579   15.1469  -34.9084 H   0  0  0  0  0  0  0  0  0  0  0  0
  -11.3239   14.1458  -35.0110 H   0  0  0  0  0  0  0  0  0  0  0  0
  -10.1694   13.9367  -33.6763 H   0  0  0  0  0  0  0  0  0  0  0  0
   -9.4968   10.9654  -35.9277 H   0  0  0  0  0  0  0  0  0  0  0  0
  -11.0927   11.6500  -35.6762 H   0  0  0  0  0  0  0  0  0  0  0  0
  -10.0076   11.4205  -34.2871 H   0  0  0  0  0  0  0  0  0  0  0  0
   -7.4398   12.4097  -35.8116 H   0  0  0  0  0  0  0  0  0  0  0  0
   -7.5652   14.1373  -35.4154 H   0  0  0  0  0  0  0  0  0  0  0  0
   -7.8324   12.8950  -34.1713 H   0  0  0  0  0  0  0  0  0  0  0  0
  -15.0386   16.5381  -41.2825 H   0  0  0  0  0  0  0  0  0  0  0  0
  1  8  1  6  0  0  0
  1 14  2  0  0  0  0
  1 16  1  0  0  0  0
  2 13  1  0  0  0  0
  2 15  2  0  0  0  0
  2 17  1  0  0  0  0
  3  4  1  0  0  0  0
  3  7  1  1  0  0  0
  4  8  1  0  0  0  0
  5  7  1  0  0  0  0
  5  8  1  0  0  0  0
  6  8  1  0  0  0  0
  6 13  1  0  0  0  0
  7 13  1  0  0  0  0
  9 12  1  0  0  0  0
 10 12  1  0  0  0  0
 11 12  1  0  0  0  0
 12 17  1  0  0  0  0
  3 18  1  0  0  0  0
  3 19  1  0  0  0  0
  4 20  1  0  0  0  0
  4 21  1  0  0  0  0
  5 22  1  0  0  0  0
  5 23  1  0  0  0  0
  6 24  1  0  0  0  0
  6 25  1  0  0  0  0
  7 26  1  0  0  0  0
  9 27  1  0  0  0  0
  9 28  1  0  0  0  0
  9 29  1  0  0  0  0
 10 30  1  0  0  0  0
 10 31  1  0  0  0  0
 10 32  1  0  0  0  0
 11 33  1  0  0  0  0
 11 34  1  0  0  0  0
 11 35  1  0  0  0  0
 16 36  1  0  0  0  0
M  END
> <id>
EN300-28258162

> <smiles>
CC(C)(C)OC(=O)N1C[C@@]2(CC[C@H]1C2)C(=O)O

> <IUPAC Name>
(1S,4S)-2-[(tert-butoxy)carbonyl]-2-azabicyclo[2.2.1]heptane-4-carboxylic acid

> <CAS>
2031259-83-1

> <Purity>
95

> <URL>
https://www.enaminestore.com/catalog/EN300-28258162

> <ROCS_ShapeQuery>
_x1247relevant_x1083L0AP1_x1305L0BP1_

> <ROCS_TanimotoCombo>
0.833 

> <ROCS_ShapeTanimoto>
0.517 

> <ROCS_ColorTanimoto>
0.316 

> <ROCS_RefTversky>
0.442 

> <ROCS_RefColorTversky>
0.374 

> <ROCS_RefTverskyCombo>
0.817 

> <ROCS_FitTversky>
1.483 

> <ROCS_FitColorTversky>
0.671 

> <ROCS_FitTverskyCombo>
2.153 

> <ROCS_ColorScore>
-7.983

> <ROCS_Overlap>
1304.490

> <ROCS_Rank>
243                 

$$$$
untitled-dbase-40442_5
  -OEChem-06232314393D

 39 41  0     1  0  0  0  0  0999 V2000
  -10.8497   14.3600  -36.3901 C   0  0  0  0  0  0  0  0  0  0  0  0
   -9.4586   13.8592  -36.1261 C   0  0  0  0  0  0  0  0  0  0  0  0
  -13.7400   13.9612  -38.1148 C   0  0  0  0  0  0  0  0  0  0  0  0
  -14.0596   15.2432  -37.3189 C   0  0  0  0  0  0  0  0  0  0  0  0
  -11.3297   14.3241  -38.8762 C   0  0  0  0  0  0  0  0  0  0  0  0
  -11.8175   16.4896  -37.4646 C   0  0  0  0  0  0  0  0  0  0  0  0
   -8.7286   14.3409  -37.3634 C   0  0  0  0  0  0  0  0  0  0  0  0
  -12.8126   14.3352  -39.2823 C   0  0  2  0  0  0  0  0  0  0  0  0
  -13.2787   16.4041  -37.9464 C   0  0  1  0  0  0  0  0  0  0  0  0
  -10.9199   15.2283  -37.6636 C   0  0  0  0  0  0  0  0  0  0  0  0
   -7.6823   17.2067  -37.7190 C   0  0  0  0  0  0  0  0  0  0  0  0
   -8.7940   16.3450  -35.6292 C   0  0  0  0  0  0  0  0  0  0  0  0
   -8.9804   16.7185  -37.0924 C   0  0  0  0  0  0  0  0  0  0  0  0
   -9.4551   15.5401  -37.8269 N   0  0  1  0  0  0  0  0  0  0  0  0
  -11.7849   14.0978  -35.6460 O   0  0  0  0  0  0  0  0  0  0  0  0
  -12.2327   16.6925  -40.3855 O   0  0  0  0  0  0  0  0  0  0  0  0
  -14.6589   16.0068  -40.1719 O   0  0  0  0  0  0  0  0  0  0  0  0
  -13.2946   16.0030  -39.6859 S   0  0  0  0  0  0  0  0  0  0  0  0
   -9.0490   14.2969  -35.2132 H   0  0  0  0  0  0  0  0  0  0  0  0
   -9.4802   12.7670  -36.0654 H   0  0  0  0  0  0  0  0  0  0  0  0
  -13.3271   13.1654  -37.4903 H   0  0  0  0  0  0  0  0  0  0  0  0
  -14.6812   13.5661  -38.5188 H   0  0  0  0  0  0  0  0  0  0  0  0
  -15.1350   15.4413  -37.4076 H   0  0  0  0  0  0  0  0  0  0  0  0
  -13.8600   15.1354  -36.2500 H   0  0  0  0  0  0  0  0  0  0  0  0
  -11.0275   13.2870  -38.6806 H   0  0  0  0  0  0  0  0  0  0  0  0
  -10.7608   14.6275  -39.7639 H   0  0  0  0  0  0  0  0  0  0  0  0
  -11.3834   17.3541  -37.9871 H   0  0  0  0  0  0  0  0  0  0  0  0
  -11.8233   16.7835  -36.4010 H   0  0  0  0  0  0  0  0  0  0  0  0
   -7.6765   14.5842  -37.1209 H   0  0  0  0  0  0  0  0  0  0  0  0
   -8.7082   13.5538  -38.1379 H   0  0  0  0  0  0  0  0  0  0  0  0
  -12.9791   13.6938  -40.1503 H   0  0  0  0  0  0  0  0  0  0  0  0
  -13.7906   17.3602  -37.8023 H   0  0  0  0  0  0  0  0  0  0  0  0
   -6.9028   16.4411  -37.6476 H   0  0  0  0  0  0  0  0  0  0  0  0
   -7.8184   17.4577  -38.7769 H   0  0  0  0  0  0  0  0  0  0  0  0
   -7.3204   18.1074  -37.2112 H   0  0  0  0  0  0  0  0  0  0  0  0
   -8.0331   15.5642  -35.5216 H   0  0  0  0  0  0  0  0  0  0  0  0
   -9.7287   15.9686  -35.2007 H   0  0  0  0  0  0  0  0  0  0  0  0
   -8.4683   17.2058  -35.0345 H   0  0  0  0  0  0  0  0  0  0  0  0
   -9.7444   17.4992  -37.1752 H   0  0  0  0  0  0  0  0  0  0  0  0
  1  2  1  0  0  0  0
  1 10  1  0  0  0  0
  1 15  2  0  0  0  0
  2  7  1  0  0  0  0
  3  4  1  0  0  0  0
  3  8  1  0  0  0  0
  4  9  1  0  0  0  0
  5  8  1  0  0  0  0
  5 10  1  0  0  0  0
  6  9  1  0  0  0  0
  6 10  1  0  0  0  0
  7 14  1  0  0  0  0
  8 18  1  0  0  0  0
  9 18  1  0  0  0  0
 10 14  1  0  0  0  0
 11 13  1  0  0  0  0
 12 13  1  0  0  0  0
 13 14  1  0  0  0  0
 16 18  2  0  0  0  0
 17 18  2  0  0  0  0
  2 19  1  0  0  0  0
  2 20  1  0  0  0  0
  3 21  1  0  0  0  0
  3 22  1  0  0  0  0
  4 23  1  0  0  0  0
  4 24  1  0  0  0  0
  5 25  1  0  0  0  0
  5 26  1  0  0  0  0
  6 27  1  0  0  0  0
  6 28  1  0  0  0  0
  7 29  1  0  0  0  0
  7 30  1  0  0  0  0
  8 31  1  0  0  0  0
  9 32  1  0  0  0  0
 11 33  1  0  0  0  0
 11 34  1  0  0  0  0
 11 35  1  0  0  0  0
 12 36  1  0  0  0  0
 12 37  1  0  0  0  0
 12 38  1  0  0  0  0
 13 39  1  0  0  0  0
M  END
> <id>
EN300-785525

> <smiles>
CC(C)N1CCC(=O)C21CC3CCC(C2)S3(=O)=O

> <IUPAC Name>
1'-(propan-2-yl)-8lambda6-thiaspiro[bicyclo[3.2.1]octane-3,2'-pyrrolidine]-3',8,8-trione

> <CAS>
2138520-50-8

> <URL>
https://www.enaminestore.com/catalog/EN300-785525

> <ROCS_ShapeQuery>
_x1247relevant_x1083L0AP1_x1305L0BP1_

> <ROCS_TanimotoCombo>
0.833 

> <ROCS_ShapeTanimoto>
0.511 

> <ROCS_ColorTanimoto>
0.322 

> <ROCS_RefTversky>
0.441 

> <ROCS_RefColorTversky>
0.383 

> <ROCS_RefTverskyCombo>
0.823 

> <ROCS_FitTversky>
1.449 

> <ROCS_FitColorTversky>
0.671 

> <ROCS_FitTverskyCombo>
2.120 

> <ROCS_ColorScore>
-8.164

> <ROCS_Overlap>
1300.821

> <ROCS_Rank>
244                 

$$$$
untitled-dbase-146815_79
  -OEChem-06232314393D

 41 42  0     1  0  0  0  0  0999 V2000
   -9.0547   14.3630  -37.6710 C   0  0  0  0  0  0  0  0  0  0  0  0
  -14.1137   15.9103  -37.3822 C   0  0  0  0  0  0  0  0  0  0  0  0
  -12.8248   16.7399  -37.3143 C   0  0  0  0  0  0  0  0  0  0  0  0
  -12.7999   13.7810  -37.5090 C   0  0  0  0  0  0  0  0  0  0  0  0
  -13.8795   14.6300  -38.2065 C   0  0  2  0  0  0  0  0  0  0  0  0
  -11.6697   15.9849  -38.0070 C   0  0  1  0  0  0  0  0  0  0  0  0
  -11.5198   14.6177  -37.2948 C   0  0  2  0  0  0  0  0  0  0  0  0
  -13.3701   15.0124  -39.6141 C   0  0  2  0  0  0  0  0  0  0  0  0
  -12.0266   15.7647  -39.4971 C   0  0  1  0  0  0  0  0  0  0  0  0
   -7.7638   12.9602  -35.8790 C   0  0  0  0  0  0  0  0  0  0  0  0
   -6.8570   11.5201  -37.7264 C   0  0  0  0  0  0  0  0  0  0  0  0
   -5.9533   13.8392  -37.3903 C   0  0  0  0  0  0  0  0  0  0  0  0
   -7.1899   12.9467  -37.2950 C   0  0  0  0  0  0  0  0  0  0  0  0
  -10.3457   13.8845  -37.7640 N   0  0  0  0  0  0  0  0  0  0  0  0
   -8.7249   15.4434  -37.1931 O   0  0  0  0  0  0  0  0  0  0  0  0
  -14.3423   15.7976  -40.2942 O   0  0  0  0  0  0  0  0  0  0  0  0
  -12.0370   17.0019  -40.1993 O   0  0  0  0  0  0  0  0  0  0  0  0
   -8.1847   13.4484  -38.1947 O   0  0  0  0  0  0  0  0  0  0  0  0
  -14.4376   15.6470  -36.3677 H   0  0  0  0  0  0  0  0  0  0  0  0
  -14.9207   16.5115  -37.8169 H   0  0  0  0  0  0  0  0  0  0  0  0
  -12.9844   17.7152  -37.7888 H   0  0  0  0  0  0  0  0  0  0  0  0
  -12.5711   16.9438  -36.2670 H   0  0  0  0  0  0  0  0  0  0  0  0
  -13.1685   13.4258  -36.5387 H   0  0  0  0  0  0  0  0  0  0  0  0
  -12.5968   12.8849  -38.1091 H   0  0  0  0  0  0  0  0  0  0  0  0
  -14.8198   14.0722  -38.2825 H   0  0  0  0  0  0  0  0  0  0  0  0
  -10.7551   16.5829  -37.9146 H   0  0  0  0  0  0  0  0  0  0  0  0
  -11.3550   14.7682  -36.2288 H   0  0  0  0  0  0  0  0  0  0  0  0
  -13.2194   14.1007  -40.2033 H   0  0  0  0  0  0  0  0  0  0  0  0
  -11.2342   15.1477  -39.9600 H   0  0  0  0  0  0  0  0  0  0  0  0
   -8.0040   13.9825  -35.5656 H   0  0  0  0  0  0  0  0  0  0  0  0
   -8.6711   12.3517  -35.8056 H   0  0  0  0  0  0  0  0  0  0  0  0
   -7.0324   12.5794  -35.1570 H   0  0  0  0  0  0  0  0  0  0  0  0
   -6.4450   11.5057  -38.7419 H   0  0  0  0  0  0  0  0  0  0  0  0
   -7.7598   10.8990  -37.7508 H   0  0  0  0  0  0  0  0  0  0  0  0
   -6.1327   11.0526  -37.0517 H   0  0  0  0  0  0  0  0  0  0  0  0
   -5.5415   13.8297  -38.4060 H   0  0  0  0  0  0  0  0  0  0  0  0
   -6.1819   14.8752  -37.1198 H   0  0  0  0  0  0  0  0  0  0  0  0
   -5.1577   13.4744  -36.7306 H   0  0  0  0  0  0  0  0  0  0  0  0
  -10.4883   12.9697  -38.1827 H   0  0  0  0  0  0  0  0  0  0  0  0
  -13.9715   16.0073  -41.1663 H   0  0  0  0  0  0  0  0  0  0  0  0
  -12.7065   17.5597  -39.7720 H   0  0  0  0  0  0  0  0  0  0  0  0
  1 14  1  0  0  0  0
  1 15  2  0  0  0  0
  1 18  1  0  0  0  0
  2  3  1  0  0  0  0
  2  5  1  0  0  0  0
  3  6  1  1  0  0  0
  4  5  1  6  0  0  0
  4  7  1  0  0  0  0
  5  8  1  0  0  0  0
  6  7  1  0  0  0  0
  6  9  1  0  0  0  0
  7 14  1  6  0  0  0
  8  9  1  0  0  0  0
  8 16  1  1  0  0  0
  9 17  1  1  0  0  0
 10 13  1  0  0  0  0
 11 13  1  0  0  0  0
 12 13  1  0  0  0  0
 13 18  1  0  0  0  0
  2 19  1  0  0  0  0
  2 20  1  0  0  0  0
  3 21  1  0  0  0  0
  3 22  1  0  0  0  0
  4 23  1  0  0  0  0
  4 24  1  0  0  0  0
  5 25  1  0  0  0  0
  6 26  1  0  0  0  0
  7 27  1  0  0  0  0
  8 28  1  0  0  0  0
  9 29  1  0  0  0  0
 10 30  1  0  0  0  0
 10 31  1  0  0  0  0
 10 32  1  0  0  0  0
 11 33  1  0  0  0  0
 11 34  1  0  0  0  0
 11 35  1  0  0  0  0
 12 36  1  0  0  0  0
 12 37  1  0  0  0  0
 12 38  1  0  0  0  0
 14 39  1  0  0  0  0
 16 40  1  0  0  0  0
 17 41  1  0  0  0  0
M  END
> <id>
EN300-28228780

> <smiles>
CC(C)(C)OC(=O)N[C@@H]1C[C@H]2CC[C@@H]1[C@H](O)[C@@H]2O |&1:8,10,13,14,16,r|

> <IUPAC Name>
rac-tert-butyl N-[(1R,2S,4S,5S,6R)-5,6-dihydroxybicyclo[2.2.2]octan-2-yl]carbamate

> <CAS>
2188213-18-3

> <URL>
https://www.enaminestore.com/catalog/EN300-28228780

> <ROCS_ShapeQuery>
_x1247relevant_x1083L0AP1_x1305L0BP1_

> <ROCS_TanimotoCombo>
0.833 

> <ROCS_ShapeTanimoto>
0.467 

> <ROCS_ColorTanimoto>
0.365 

> <ROCS_RefTversky>
0.416 

> <ROCS_RefColorTversky>
0.435 

> <ROCS_RefTverskyCombo>
0.851 

> <ROCS_FitTversky>
1.362 

> <ROCS_FitColorTversky>
0.694 

> <ROCS_FitTverskyCombo>
2.057 

> <ROCS_ColorScore>
-9.322

> <ROCS_Overlap>
1226.120

> <ROCS_Rank>
245                 

$$$$
untitled-dbase-119945_2
  -OEChem-06232314393D

 23 25  0     1  0  0  0  0  0999 V2000
   -9.9986   15.0359  -36.6552 C   0  0  0  0  0  0  0  0  0  0  0  0
  -10.9219   15.0996  -39.0036 C   0  0  0  0  0  0  0  0  0  0  0  0
  -12.4094   16.5699  -37.8949 C   0  0  0  0  0  0  0  0  0  0  0  0
  -14.7054   15.0706  -38.6504 C   0  0  0  0  0  0  0  0  0  0  0  0
  -11.1150   14.5931  -37.5501 C   0  0  2  0  0  0  0  0  0  0  0  0
  -12.2250   15.8970  -39.2624 C   0  0  2  0  0  0  0  0  0  0  0  0
  -12.4753   15.2239  -37.1480 C   0  0  2  0  0  0  0  0  0  0  0  0
  -13.3719   14.8909  -39.3287 C   0  0  1  0  0  0  0  0  0  0  0  0
  -13.5514   14.4480  -37.9062 C   0  0  2  0  0  0  0  0  0  0  0  0
   -9.0294   15.6887  -37.0128 O   0  0  0  0  0  0  0  0  0  0  0  0
  -10.2060   14.6109  -35.3849 O   0  0  0  0  0  0  0  0  0  0  0  0
  -10.0434   15.7487  -39.0955 H   0  0  0  0  0  0  0  0  0  0  0  0
  -10.8107   14.2642  -39.7033 H   0  0  0  0  0  0  0  0  0  0  0  0
  -11.5628   17.2002  -37.6042 H   0  0  0  0  0  0  0  0  0  0  0  0
  -13.3244   17.1621  -37.8146 H   0  0  0  0  0  0  0  0  0  0  0  0
  -15.0478   16.0609  -38.3854 H   0  0  0  0  0  0  0  0  0  0  0  0
  -15.5119   14.4129  -38.9565 H   0  0  0  0  0  0  0  0  0  0  0  0
  -11.1453   13.4979  -37.5222 H   0  0  0  0  0  0  0  0  0  0  0  0
  -12.1800   16.5733  -40.1175 H   0  0  0  0  0  0  0  0  0  0  0  0
  -12.6555   15.3053  -36.0741 H   0  0  0  0  0  0  0  0  0  0  0  0
  -13.2766   14.1481  -40.1077 H   0  0  0  0  0  0  0  0  0  0  0  0
  -13.5897   13.3920  -37.6792 H   0  0  0  0  0  0  0  0  0  0  0  0
  -11.0406   14.1023  -35.3004 H   0  0  0  0  0  0  0  0  0  0  0  0
  1  5  1  0  0  0  0
  1 10  2  0  0  0  0
  1 11  1  0  0  0  0
  2  5  1  0  0  0  0
  2  6  1  0  0  0  0
  3  6  1  0  0  0  0
  3  7  1  0  0  0  0
  4  8  1  0  0  0  0
  4  9  1  0  0  0  0
  5  7  1  0  0  0  0
  6  8  1  0  0  0  0
  7  9  1  0  0  0  0
  8  9  1  0  0  0  0
  2 12  1  0  0  0  0
  2 13  1  0  0  0  0
  3 14  1  0  0  0  0
  3 15  1  0  0  0  0
  4 16  1  0  0  0  0
  4 17  1  0  0  0  0
  5 18  1  0  0  0  0
  6 19  1  0  0  0  0
  7 20  1  0  0  0  0
  8 21  1  0  0  0  0
  9 22  1  0  0  0  0
 11 23  1  0  0  0  0
M  END
> <id>
EN300-332666

> <smiles>
OC(=O)C1CC2CC1C3CC32

> <MDLNUMBER>
MFCD30497923

> <IUPAC Name>
tricyclo[3.2.1.0,2,4]octane-6-carboxylic acid

> <CAS>
2059975-65-2

> <Purity>
95

> <URL>
https://www.enaminestore.com/catalog/EN300-332666

> <ROCS_ShapeQuery>
_x1247relevant_x1083L0AP1_x1305L0BP1_

> <ROCS_TanimotoCombo>
0.833 

> <ROCS_ShapeTanimoto>
0.454 

> <ROCS_ColorTanimoto>
0.379 

> <ROCS_RefTversky>
0.379 

> <ROCS_RefColorTversky>
0.529 

> <ROCS_RefTverskyCombo>
0.908 

> <ROCS_FitTversky>
1.775 

> <ROCS_FitColorTversky>
0.571 

> <ROCS_FitTverskyCombo>
2.347 

> <ROCS_ColorScore>
-11.507

> <ROCS_Overlap>
1112.452

> <ROCS_Rank>
246                 

$$$$
untitled-dbase-167786_4
  -OEChem-06232314393D

 23 25  0     1  0  0  0  0  0999 V2000
  -12.7988   13.9235  -38.3855 C   0  0  0  0  0  0  0  0  0  0  0  0
  -12.3700   15.4822  -36.6521 C   0  0  0  0  0  0  0  0  0  0  0  0
  -13.5321   14.9819  -37.5428 C   0  0  1  0  0  0  0  0  0  0  0  0
  -11.7897   14.9463  -38.9444 C   0  0  2  0  0  0  0  0  0  0  0  0
  -11.1629   15.5090  -37.6365 C   0  0  2  0  0  0  0  0  0  0  0  0
  -13.8428   16.0774  -38.5511 C   0  0  1  0  0  0  0  0  0  0  0  0
  -12.6875   16.0470  -39.4972 C   0  0  2  0  0  0  0  0  0  0  0  0
   -9.9813   14.6878  -37.1359 C   0  0  0  0  0  0  0  0  0  0  0  0
  -10.2063   13.3045  -37.3961 N   0  0  0  0  0  0  0  0  0  0  0  0
  -14.0084   15.6954  -39.9197 O   0  0  0  0  0  0  0  0  0  0  0  0
  -12.3448   13.1269  -37.7885 H   0  0  0  0  0  0  0  0  0  0  0  0
  -13.4286   13.4730  -39.1600 H   0  0  0  0  0  0  0  0  0  0  0  0
  -12.5673   16.4779  -36.2409 H   0  0  0  0  0  0  0  0  0  0  0  0
  -12.1951   14.7907  -35.8202 H   0  0  0  0  0  0  0  0  0  0  0  0
  -14.4038   14.6217  -36.9940 H   0  0  0  0  0  0  0  0  0  0  0  0
  -11.0781   14.5522  -39.6724 H   0  0  0  0  0  0  0  0  0  0  0  0
  -10.8256   16.5430  -37.7831 H   0  0  0  0  0  0  0  0  0  0  0  0
  -14.2288   17.0121  -38.1814 H   0  0  0  0  0  0  0  0  0  0  0  0
  -12.2226   16.9602  -39.8287 H   0  0  0  0  0  0  0  0  0  0  0  0
   -9.0945   15.0359  -37.6649 H   0  0  0  0  0  0  0  0  0  0  0  0
   -9.8917   14.8646  -36.0644 H   0  0  0  0  0  0  0  0  0  0  0  0
  -10.3400   13.1551  -38.3799 H   0  0  0  0  0  0  0  0  0  0  0  0
   -9.4178   12.7632  -37.0905 H   0  0  0  0  0  0  0  0  0  0  0  0
  1  3  1  0  0  0  0
  1  4  1  1  0  0  0
  2  3  1  6  0  0  0
  2  5  1  0  0  0  0
  3  6  1  0  0  0  0
  4  5  1  0  0  0  0
  4  7  1  0  0  0  0
  5  8  1  1  0  0  0
  6  7  1  0  0  0  0
  6 10  1  1  0  0  0
  7 10  1  1  0  0  0
  8  9  1  0  0  0  0
  1 11  1  0  0  0  0
  1 12  1  0  0  0  0
  2 13  1  0  0  0  0
  2 14  1  0  0  0  0
  3 15  1  0  0  0  0
  4 16  1  0  0  0  0
  5 17  1  0  0  0  0
  6 18  1  0  0  0  0
  7 19  1  0  0  0  0
  8 20  1  0  0  0  0
  8 21  1  0  0  0  0
  9 22  1  0  0  0  0
  9 23  1  0  0  0  0
M  END
> <id>
EN300-6477479

> <smiles>
NC[C@@H]1C[C@@H]2C[C@H]1[C@H]3O[C@H]32 |&1:2,4,6,7,9,r|

> <IUPAC Name>
rac-[(1R,2S,4R,5R,6R)-3-oxatricyclo[3.2.1.0,2,4]octan-6-yl]methanamine

> <CAS>
66341-53-5

> <Purity>
95

> <URL>
https://www.enaminestore.com/catalog/EN300-6477479

> <ROCS_ShapeQuery>
_x1247relevant_x1083L0AP1_x1305L0BP1_

> <ROCS_TanimotoCombo>
0.832 

> <ROCS_ShapeTanimoto>
0.427 

> <ROCS_ColorTanimoto>
0.405 

> <ROCS_RefTversky>
0.359 

> <ROCS_RefColorTversky>
0.557 

> <ROCS_RefTverskyCombo>
0.916 

> <ROCS_FitTversky>
1.814 

> <ROCS_FitColorTversky>
0.598 

> <ROCS_FitTverskyCombo>
2.412 

> <ROCS_ColorScore>
-12.127

> <ROCS_Overlap>
1051.809

> <ROCS_Rank>
247                 

$$$$
untitled-dbase-152486_33
  -OEChem-06232314393D

 27 28  0     1  0  0  0  0  0999 V2000
  -13.3750   16.5795  -40.1168 C   0  0  0  0  0  0  0  0  0  0  0  0
  -10.2308   14.8123  -36.6665 C   0  0  0  0  0  0  0  0  0  0  0  0
  -13.8199   14.1687  -38.4660 C   0  0  0  0  0  0  0  0  0  0  0  0
  -12.6628   15.3973  -36.6075 C   0  0  0  0  0  0  0  0  0  0  0  0
  -12.7562   16.3003  -38.7835 C   0  0  1  0  0  0  0  0  0  0  0  0
  -13.6466   15.5498  -37.7861 C   0  0  1  0  0  0  0  0  0  0  0  0
  -11.6695   15.2172  -38.7578 C   0  0  2  0  0  0  0  0  0  0  0  0
  -12.4385   13.9266  -39.1118 C   0  0  2  0  0  0  0  0  0  0  0  0
   -9.0403   14.5917  -37.5623 C   0  0  0  0  0  0  0  0  0  0  0  0
  -11.4047   15.1393  -37.3094 N   0  0  0  0  0  0  0  0  0  0  0  0
  -14.5396   16.3548  -40.4109 O   0  0  0  0  0  0  0  0  0  0  0  0
  -10.1232   14.7052  -35.4441 O   0  0  0  0  0  0  0  0  0  0  0  0
  -12.4639   17.1171  -40.9642 O   0  0  0  0  0  0  0  0  0  0  0  0
  -12.5447   13.7787  -40.5184 O   0  0  0  0  0  0  0  0  0  0  0  0
   -9.3795   14.7653  -38.8527 F   0  0  0  0  0  0  0  0  0  0  0  0
   -8.0550   15.4590  -37.2662 F   0  0  0  0  0  0  0  0  0  0  0  0
   -8.5585   13.3435  -37.4184 F   0  0  0  0  0  0  0  0  0  0  0  0
  -14.0602   13.3935  -37.7308 H   0  0  0  0  0  0  0  0  0  0  0  0
  -14.6192   14.1918  -39.2152 H   0  0  0  0  0  0  0  0  0  0  0  0
  -12.5532   16.3225  -36.0320 H   0  0  0  0  0  0  0  0  0  0  0  0
  -12.9001   14.5704  -35.9317 H   0  0  0  0  0  0  0  0  0  0  0  0
  -12.3957   17.2581  -38.3871 H   0  0  0  0  0  0  0  0  0  0  0  0
  -14.5898   16.0326  -37.5241 H   0  0  0  0  0  0  0  0  0  0  0  0
  -10.7905   15.4152  -39.3736 H   0  0  0  0  0  0  0  0  0  0  0  0
  -11.9525   13.0287  -38.7140 H   0  0  0  0  0  0  0  0  0  0  0  0
  -12.8503   17.3059  -41.8459 H   0  0  0  0  0  0  0  0  0  0  0  0
  -13.1227   13.0144  -40.6798 H   0  0  0  0  0  0  0  0  0  0  0  0
  1  5  1  6  0  0  0
  1 11  2  0  0  0  0
  1 13  1  0  0  0  0
  2  9  1  0  0  0  0
  2 10  1  0  0  0  0
  2 12  2  0  0  0  0
  3  6  1  6  0  0  0
  3  8  1  0  0  0  0
  4  6  1  0  0  0  0
  4 10  1  0  0  0  0
  5  6  1  0  0  0  0
  5  7  1  0  0  0  0
  7  8  1  0  0  0  0
  7 10  1  6  0  0  0
  8 14  1  1  0  0  0
  9 15  1  0  0  0  0
  9 16  1  0  0  0  0
  9 17  1  0  0  0  0
  3 18  1  0  0  0  0
  3 19  1  0  0  0  0
  4 20  1  0  0  0  0
  4 21  1  0  0  0  0
  5 22  1  0  0  0  0
  6 23  1  0  0  0  0
  7 24  1  0  0  0  0
  8 25  1  0  0  0  0
 13 26  1  0  0  0  0
 14 27  1  0  0  0  0
M  END
> <id>
EN300-28279174

> <smiles>
O[C@@H]1C[C@H]2CN([C@@H]1[C@H]2C(=O)O)C(=O)C(F)(F)F |&1:1,3,6,7,r|

> <IUPAC Name>
rac-(1R,4R,6R,7S)-6-hydroxy-2-(2,2,2-trifluoroacetyl)-2-azabicyclo[2.2.1]heptane-7-carboxylic acid

> <CAS>
2732255-84-2

> <URL>
https://www.enaminestore.com/catalog/EN300-28279174

> <ROCS_ShapeQuery>
_x1247relevant_x1083L0AP1_x1305L0BP1_

> <ROCS_TanimotoCombo>
0.832 

> <ROCS_ShapeTanimoto>
0.521 

> <ROCS_ColorTanimoto>
0.311 

> <ROCS_RefTversky>
0.447 

> <ROCS_RefColorTversky>
0.380 

> <ROCS_RefTverskyCombo>
0.827 

> <ROCS_FitTversky>
1.463 

> <ROCS_FitColorTversky>
0.632 

> <ROCS_FitTverskyCombo>
2.095 

> <ROCS_ColorScore>
-8.125

> <ROCS_Overlap>
1320.000

> <ROCS_Rank>
248                 

$$$$
untitled-dbase-172452_19
  -OEChem-06232314393D

 29 31  0     0  0  0  0  0  0999 V2000
  -10.7230   15.2305  -35.7129 C   0  0  0  0  0  0  0  0  0  0  0  0
   -9.9069   13.6603  -37.4941 C   0  0  0  0  0  0  0  0  0  0  0  0
  -13.3038   14.1056  -38.5447 C   0  0  0  0  0  0  0  0  0  0  0  0
  -11.8330   15.5423  -39.1361 C   0  0  0  0  0  0  0  0  0  0  0  0
  -13.1714   15.9817  -37.5253 C   0  0  0  0  0  0  0  0  0  0  0  0
   -9.7247   16.2487  -36.2525 C   0  0  0  0  0  0  0  0  0  0  0  0
   -8.9541   14.7668  -37.9331 C   0  0  0  0  0  0  0  0  0  0  0  0
  -11.1474   14.2156  -36.7823 C   0  0  0  0  0  0  0  0  0  0  0  0
  -12.1411   14.8247  -37.7748 C   0  0  0  0  0  0  0  0  0  0  0  0
  -13.3484   15.5654  -38.9802 C   0  0  0  0  0  0  0  0  0  0  0  0
  -14.2625   16.1242  -39.8916 N   0  0  0  0  0  0  0  0  0  0  0  0
   -8.5949   15.5941  -36.8276 O   0  0  0  0  0  0  0  0  0  0  0  0
  -10.2989   14.7111  -34.8385 H   0  0  0  0  0  0  0  0  0  0  0  0
  -11.6169   15.7663  -35.3501 H   0  0  0  0  0  0  0  0  0  0  0  0
  -10.2269   13.0924  -38.3844 H   0  0  0  0  0  0  0  0  0  0  0  0
   -9.3806   12.9433  -36.8435 H   0  0  0  0  0  0  0  0  0  0  0  0
  -13.0224   13.3596  -39.2952 H   0  0  0  0  0  0  0  0  0  0  0  0
  -14.1409   13.7267  -37.9493 H   0  0  0  0  0  0  0  0  0  0  0  0
  -11.3023   16.4988  -39.0891 H   0  0  0  0  0  0  0  0  0  0  0  0
  -11.4138   14.9309  -39.9417 H   0  0  0  0  0  0  0  0  0  0  0  0
  -13.9960   15.7789  -36.8342 H   0  0  0  0  0  0  0  0  0  0  0  0
  -12.7662   16.9794  -37.3276 H   0  0  0  0  0  0  0  0  0  0  0  0
  -10.1951   16.8516  -37.0356 H   0  0  0  0  0  0  0  0  0  0  0  0
   -9.3883   16.9325  -35.4643 H   0  0  0  0  0  0  0  0  0  0  0  0
   -8.0472   14.3531  -38.3897 H   0  0  0  0  0  0  0  0  0  0  0  0
   -9.4406   15.4015  -38.6806 H   0  0  0  0  0  0  0  0  0  0  0  0
  -11.6510   13.3660  -36.2645 H   0  0  0  0  0  0  0  0  0  0  0  0
  -14.8056   16.8587  -39.4590 H   0  0  0  0  0  0  0  0  0  0  0  0
  -13.7848   16.5221  -40.6883 H   0  0  0  0  0  0  0  0  0  0  0  0
  1  6  1  0  0  0  0
  1  8  1  0  0  0  0
  2  7  1  0  0  0  0
  2  8  1  0  0  0  0
  3  9  1  0  0  0  0
  3 10  1  0  0  0  0
  4  9  1  0  0  0  0
  4 10  1  0  0  0  0
  5  9  1  0  0  0  0
  5 10  1  0  0  0  0
  6 12  1  0  0  0  0
  7 12  1  0  0  0  0
  8  9  1  0  0  0  0
 10 11  1  0  0  0  0
  1 13  1  0  0  0  0
  1 14  1  0  0  0  0
  2 15  1  0  0  0  0
  2 16  1  0  0  0  0
  3 17  1  0  0  0  0
  3 18  1  0  0  0  0
  4 19  1  0  0  0  0
  4 20  1  0  0  0  0
  5 21  1  0  0  0  0
  5 22  1  0  0  0  0
  6 23  1  0  0  0  0
  6 24  1  0  0  0  0
  7 25  1  0  0  0  0
  7 26  1  0  0  0  0
  8 27  1  0  0  0  0
 11 28  1  0  0  0  0
 11 29  1  0  0  0  0
M  END
> <id>
EN300-37334730

> <smiles>
NC1(CC2(C1)C3CCOCC3)C2

> <MDLNUMBER>
MFCD34601260

> <IUPAC Name>
3-(oxan-4-yl)bicyclo[1.1.1]pentan-1-amine

> <CAS>
2757956-64-0

> <URL>
https://www.enaminestore.com/catalog/EN300-37334730

> <ROCS_ShapeQuery>
_x1247relevant_x1083L0AP1_x1305L0BP1_

> <ROCS_TanimotoCombo>
0.832 

> <ROCS_ShapeTanimoto>
0.464 

> <ROCS_ColorTanimoto>
0.368 

> <ROCS_RefTversky>
0.388 

> <ROCS_RefColorTversky>
0.421 

> <ROCS_RefTverskyCombo>
0.808 

> <ROCS_FitTversky>
1.741 

> <ROCS_FitColorTversky>
0.746 

> <ROCS_FitTverskyCombo>
2.487 

> <ROCS_ColorScore>
-8.974

> <ROCS_Overlap>
1138.683

> <ROCS_Rank>
249                 

$$$$
untitled-dbase-172451_19
  -OEChem-06232314393D

 29 31  0     0  0  0  0  0  0999 V2000
  -10.7230   15.2305  -35.7129 C   0  0  0  0  0  0  0  0  0  0  0  0
   -9.9069   13.6603  -37.4941 C   0  0  0  0  0  0  0  0  0  0  0  0
  -13.3038   14.1056  -38.5447 C   0  0  0  0  0  0  0  0  0  0  0  0
  -11.8330   15.5423  -39.1361 C   0  0  0  0  0  0  0  0  0  0  0  0
  -13.1714   15.9817  -37.5253 C   0  0  0  0  0  0  0  0  0  0  0  0
   -9.7247   16.2487  -36.2525 C   0  0  0  0  0  0  0  0  0  0  0  0
   -8.9541   14.7668  -37.9331 C   0  0  0  0  0  0  0  0  0  0  0  0
  -11.1474   14.2156  -36.7823 C   0  0  0  0  0  0  0  0  0  0  0  0
  -12.1411   14.8247  -37.7748 C   0  0  0  0  0  0  0  0  0  0  0  0
  -13.3484   15.5654  -38.9802 C   0  0  0  0  0  0  0  0  0  0  0  0
  -14.2625   16.1242  -39.8916 N   0  0  0  0  0  0  0  0  0  0  0  0
   -8.5949   15.5941  -36.8276 O   0  0  0  0  0  0  0  0  0  0  0  0
  -10.2989   14.7111  -34.8385 H   0  0  0  0  0  0  0  0  0  0  0  0
  -11.6169   15.7663  -35.3501 H   0  0  0  0  0  0  0  0  0  0  0  0
  -10.2269   13.0924  -38.3844 H   0  0  0  0  0  0  0  0  0  0  0  0
   -9.3806   12.9433  -36.8435 H   0  0  0  0  0  0  0  0  0  0  0  0
  -13.0224   13.3596  -39.2952 H   0  0  0  0  0  0  0  0  0  0  0  0
  -14.1409   13.7267  -37.9493 H   0  0  0  0  0  0  0  0  0  0  0  0
  -11.3023   16.4988  -39.0891 H   0  0  0  0  0  0  0  0  0  0  0  0
  -11.4138   14.9309  -39.9417 H   0  0  0  0  0  0  0  0  0  0  0  0
  -13.9960   15.7789  -36.8342 H   0  0  0  0  0  0  0  0  0  0  0  0
  -12.7662   16.9794  -37.3276 H   0  0  0  0  0  0  0  0  0  0  0  0
  -10.1951   16.8516  -37.0356 H   0  0  0  0  0  0  0  0  0  0  0  0
   -9.3883   16.9325  -35.4643 H   0  0  0  0  0  0  0  0  0  0  0  0
   -8.0472   14.3531  -38.3897 H   0  0  0  0  0  0  0  0  0  0  0  0
   -9.4406   15.4015  -38.6806 H   0  0  0  0  0  0  0  0  0  0  0  0
  -11.6510   13.3660  -36.2645 H   0  0  0  0  0  0  0  0  0  0  0  0
  -14.8056   16.8587  -39.4590 H   0  0  0  0  0  0  0  0  0  0  0  0
  -13.7848   16.5221  -40.6883 H   0  0  0  0  0  0  0  0  0  0  0  0
  1  6  1  0  0  0  0
  1  8  1  0  0  0  0
  2  7  1  0  0  0  0
  2  8  1  0  0  0  0
  3  9  1  0  0  0  0
  3 10  1  0  0  0  0
  4  9  1  0  0  0  0
  4 10  1  0  0  0  0
  5  9  1  0  0  0  0
  5 10  1  0  0  0  0
  6 12  1  0  0  0  0
  7 12  1  0  0  0  0
  8  9  1  0  0  0  0
 10 11  1  0  0  0  0
  1 13  1  0  0  0  0
  1 14  1  0  0  0  0
  2 15  1  0  0  0  0
  2 16  1  0  0  0  0
  3 17  1  0  0  0  0
  3 18  1  0  0  0  0
  4 19  1  0  0  0  0
  4 20  1  0  0  0  0
  5 21  1  0  0  0  0
  5 22  1  0  0  0  0
  6 23  1  0  0  0  0
  6 24  1  0  0  0  0
  7 25  1  0  0  0  0
  7 26  1  0  0  0  0
  8 27  1  0  0  0  0
 11 28  1  0  0  0  0
 11 29  1  0  0  0  0
M  END
> <id>
EN300-37345166

> <smiles>
Cl.NC1(CC2(C1)C3CCOCC3)C2

> <MDLNUMBER>
MFCD34601257

> <IUPAC Name>
3-(oxan-4-yl)bicyclo[1.1.1]pentan-1-amine hydrochloride

> <CAS>
2758006-56-1

> <Purity>
95

> <URL>
https://www.enaminestore.com/catalog/EN300-37345166

> <Saltdate>
Cl

> <ROCS_ShapeQuery>
_x1247relevant_x1083L0AP1_x1305L0BP1_

> <ROCS_TanimotoCombo>
0.832 

> <ROCS_ShapeTanimoto>
0.464 

> <ROCS_ColorTanimoto>
0.368 

> <ROCS_RefTversky>
0.388 

> <ROCS_RefColorTversky>
0.421 

> <ROCS_RefTverskyCombo>
0.808 

> <ROCS_FitTversky>
1.741 

> <ROCS_FitColorTversky>
0.746 

> <ROCS_FitTverskyCombo>
2.487 

> <ROCS_ColorScore>
-8.974

> <ROCS_Overlap>
1138.683

> <ROCS_Rank>
250                 

$$$$
untitled-dbase-169637_19
  -OEChem-06232314393D

 29 31  0     0  0  0  0  0  0999 V2000
  -10.7228   15.2301  -35.7130 C   0  0  0  0  0  0  0  0  0  0  0  0
   -9.9068   13.6606  -37.4947 C   0  0  0  0  0  0  0  0  0  0  0  0
  -13.3037   14.1054  -38.5445 C   0  0  0  0  0  0  0  0  0  0  0  0
  -11.8333   15.5422  -39.1360 C   0  0  0  0  0  0  0  0  0  0  0  0
  -13.1714   15.9818  -37.5253 C   0  0  0  0  0  0  0  0  0  0  0  0
   -9.7247   16.2485  -36.2523 C   0  0  0  0  0  0  0  0  0  0  0  0
   -8.9542   14.7673  -37.9335 C   0  0  0  0  0  0  0  0  0  0  0  0
  -11.1473   14.2154  -36.7826 C   0  0  0  0  0  0  0  0  0  0  0  0
  -12.1411   14.8248  -37.7748 C   0  0  0  0  0  0  0  0  0  0  0  0
  -13.3486   15.5652  -38.9801 C   0  0  0  0  0  0  0  0  0  0  0  0
  -14.2621   16.1245  -39.8918 N   0  0  0  0  0  0  0  0  0  0  0  0
   -8.5949   15.5942  -36.8278 O   0  0  0  0  0  0  0  0  0  0  0  0
  -10.2986   14.7104  -34.8388 H   0  0  0  0  0  0  0  0  0  0  0  0
  -11.6167   15.7656  -35.3498 H   0  0  0  0  0  0  0  0  0  0  0  0
  -10.2269   13.0929  -38.3853 H   0  0  0  0  0  0  0  0  0  0  0  0
   -9.3804   12.9434  -36.8444 H   0  0  0  0  0  0  0  0  0  0  0  0
  -13.0221   13.3594  -39.2949 H   0  0  0  0  0  0  0  0  0  0  0  0
  -14.1403   13.7262  -37.9488 H   0  0  0  0  0  0  0  0  0  0  0  0
  -11.3029   16.4989  -39.0894 H   0  0  0  0  0  0  0  0  0  0  0  0
  -11.4139   14.9309  -39.9417 H   0  0  0  0  0  0  0  0  0  0  0  0
  -13.9959   15.7786  -36.8341 H   0  0  0  0  0  0  0  0  0  0  0  0
  -12.7669   16.9797  -37.3278 H   0  0  0  0  0  0  0  0  0  0  0  0
  -10.1953   16.8517  -37.0352 H   0  0  0  0  0  0  0  0  0  0  0  0
   -9.3882   16.9321  -35.4639 H   0  0  0  0  0  0  0  0  0  0  0  0
   -8.0473   14.3539  -38.3904 H   0  0  0  0  0  0  0  0  0  0  0  0
   -9.4409   15.4022  -38.6807 H   0  0  0  0  0  0  0  0  0  0  0  0
  -11.6507   13.3656  -36.2650 H   0  0  0  0  0  0  0  0  0  0  0  0
  -14.8054   16.8588  -39.4593 H   0  0  0  0  0  0  0  0  0  0  0  0
  -13.7839   16.5226  -40.6881 H   0  0  0  0  0  0  0  0  0  0  0  0
  1  6  1  0  0  0  0
  1  8  1  0  0  0  0
  2  7  1  0  0  0  0
  2  8  1  0  0  0  0
  3  9  1  0  0  0  0
  3 10  1  0  0  0  0
  4  9  1  0  0  0  0
  4 10  1  0  0  0  0
  5  9  1  0  0  0  0
  5 10  1  0  0  0  0
  6 12  1  0  0  0  0
  7 12  1  0  0  0  0
  8  9  1  6  0  0  0
 10 11  1  6  0  0  0
  1 13  1  0  0  0  0
  1 14  1  0  0  0  0
  2 15  1  0  0  0  0
  2 16  1  0  0  0  0
  3 17  1  0  0  0  0
  3 18  1  0  0  0  0
  4 19  1  0  0  0  0
  4 20  1  0  0  0  0
  5 21  1  0  0  0  0
  5 22  1  0  0  0  0
  6 23  1  0  0  0  0
  6 24  1  0  0  0  0
  7 25  1  0  0  0  0
  7 26  1  0  0  0  0
  8 27  1  0  0  0  0
 11 28  1  0  0  0  0
 11 29  1  0  0  0  0
M  END
> <id>
EN300-37374225

> <smiles>
Cl.N[C@]1(C[C@]2(C1)C3CCOCC3)C2

> <IUPAC Name>
3-(oxan-4-yl)bicyclo[1.1.1]pentan-1-amine hydrochloride

> <CAS>
2758006-56-1

> <URL>
https://www.enaminestore.com/catalog/EN300-37374225

> <ROCS_ShapeQuery>
_x1247relevant_x1083L0AP1_x1305L0BP1_

> <ROCS_TanimotoCombo>
0.832 

> <ROCS_ShapeTanimoto>
0.464 

> <ROCS_ColorTanimoto>
0.368 

> <ROCS_RefTversky>
0.388 

> <ROCS_RefColorTversky>
0.421 

> <ROCS_RefTverskyCombo>
0.808 

> <ROCS_FitTversky>
1.741 

> <ROCS_FitColorTversky>
0.746 

> <ROCS_FitTverskyCombo>
2.487 

> <ROCS_ColorScore>
-8.974

> <ROCS_Overlap>
1138.693

> <ROCS_Rank>
251                 

$$$$
untitled-dbase-112328_19
  -OEChem-06232314393D

 29 31  0     0  0  0  0  0  0999 V2000
  -10.7228   15.2301  -35.7130 C   0  0  0  0  0  0  0  0  0  0  0  0
   -9.9068   13.6606  -37.4947 C   0  0  0  0  0  0  0  0  0  0  0  0
  -13.3037   14.1054  -38.5445 C   0  0  0  0  0  0  0  0  0  0  0  0
  -11.8333   15.5422  -39.1360 C   0  0  0  0  0  0  0  0  0  0  0  0
  -13.1714   15.9818  -37.5253 C   0  0  0  0  0  0  0  0  0  0  0  0
   -9.7247   16.2485  -36.2523 C   0  0  0  0  0  0  0  0  0  0  0  0
   -8.9542   14.7673  -37.9335 C   0  0  0  0  0  0  0  0  0  0  0  0
  -11.1473   14.2154  -36.7826 C   0  0  0  0  0  0  0  0  0  0  0  0
  -12.1411   14.8248  -37.7748 C   0  0  0  0  0  0  0  0  0  0  0  0
  -13.3486   15.5652  -38.9801 C   0  0  0  0  0  0  0  0  0  0  0  0
  -14.2621   16.1245  -39.8918 N   0  0  0  0  0  0  0  0  0  0  0  0
   -8.5949   15.5942  -36.8278 O   0  0  0  0  0  0  0  0  0  0  0  0
  -10.2986   14.7104  -34.8388 H   0  0  0  0  0  0  0  0  0  0  0  0
  -11.6167   15.7656  -35.3498 H   0  0  0  0  0  0  0  0  0  0  0  0
  -10.2269   13.0929  -38.3853 H   0  0  0  0  0  0  0  0  0  0  0  0
   -9.3804   12.9434  -36.8444 H   0  0  0  0  0  0  0  0  0  0  0  0
  -13.0221   13.3594  -39.2949 H   0  0  0  0  0  0  0  0  0  0  0  0
  -14.1403   13.7262  -37.9488 H   0  0  0  0  0  0  0  0  0  0  0  0
  -11.3029   16.4989  -39.0894 H   0  0  0  0  0  0  0  0  0  0  0  0
  -11.4139   14.9309  -39.9417 H   0  0  0  0  0  0  0  0  0  0  0  0
  -13.9959   15.7786  -36.8341 H   0  0  0  0  0  0  0  0  0  0  0  0
  -12.7669   16.9797  -37.3278 H   0  0  0  0  0  0  0  0  0  0  0  0
  -10.1953   16.8517  -37.0352 H   0  0  0  0  0  0  0  0  0  0  0  0
   -9.3882   16.9321  -35.4639 H   0  0  0  0  0  0  0  0  0  0  0  0
   -8.0473   14.3539  -38.3904 H   0  0  0  0  0  0  0  0  0  0  0  0
   -9.4409   15.4022  -38.6807 H   0  0  0  0  0  0  0  0  0  0  0  0
  -11.6507   13.3656  -36.2650 H   0  0  0  0  0  0  0  0  0  0  0  0
  -14.8054   16.8588  -39.4593 H   0  0  0  0  0  0  0  0  0  0  0  0
  -13.7839   16.5226  -40.6881 H   0  0  0  0  0  0  0  0  0  0  0  0
  1  6  1  0  0  0  0
  1  8  1  0  0  0  0
  2  7  1  0  0  0  0
  2  8  1  0  0  0  0
  3  9  1  0  0  0  0
  3 10  1  0  0  0  0
  4  9  1  0  0  0  0
  4 10  1  0  0  0  0
  5  9  1  0  0  0  0
  5 10  1  0  0  0  0
  6 12  1  0  0  0  0
  7 12  1  0  0  0  0
  8  9  1  6  0  0  0
 10 11  1  6  0  0  0
  1 13  1  0  0  0  0
  1 14  1  0  0  0  0
  2 15  1  0  0  0  0
  2 16  1  0  0  0  0
  3 17  1  0  0  0  0
  3 18  1  0  0  0  0
  4 19  1  0  0  0  0
  4 20  1  0  0  0  0
  5 21  1  0  0  0  0
  5 22  1  0  0  0  0
  6 23  1  0  0  0  0
  6 24  1  0  0  0  0
  7 25  1  0  0  0  0
  7 26  1  0  0  0  0
  8 27  1  0  0  0  0
 11 28  1  0  0  0  0
 11 29  1  0  0  0  0
M  END
> <id>
EN300-37353964

> <smiles>
N[C@]1(C[C@]2(C1)C3CCOCC3)C2

> <IUPAC Name>
3-(oxan-4-yl)bicyclo[1.1.1]pentan-1-amine

> <URL>
https://www.enaminestore.com/catalog/EN300-37353964

> <ROCS_ShapeQuery>
_x1247relevant_x1083L0AP1_x1305L0BP1_

> <ROCS_TanimotoCombo>
0.832 

> <ROCS_ShapeTanimoto>
0.464 

> <ROCS_ColorTanimoto>
0.368 

> <ROCS_RefTversky>
0.388 

> <ROCS_RefColorTversky>
0.421 

> <ROCS_RefTverskyCombo>
0.808 

> <ROCS_FitTversky>
1.741 

> <ROCS_FitColorTversky>
0.746 

> <ROCS_FitTverskyCombo>
2.487 

> <ROCS_ColorScore>
-8.974

> <ROCS_Overlap>
1138.693

> <ROCS_Rank>
252                 

$$$$
untitled-dbase-43661_0
  -OEChem-06232314393D

 29 31  0     0  0  0  0  0  0999 V2000
   -9.9880   15.2240  -36.6005 C   0  0  0  0  0  0  0  0  0  0  0  0
  -10.9467   15.9173  -38.7843 C   0  0  0  0  0  0  0  0  0  0  0  0
  -11.7271   13.7984  -37.6864 C   0  0  0  0  0  0  0  0  0  0  0  0
  -12.3509   16.0245  -36.7056 C   0  0  0  0  0  0  0  0  0  0  0  0
  -12.6960   14.5006  -39.8892 C   0  0  0  0  0  0  0  0  0  0  0  0
  -13.3185   16.7216  -38.9105 C   0  0  0  0  0  0  0  0  0  0  0  0
  -14.0969   14.6069  -37.8141 C   0  0  0  0  0  0  0  0  0  0  0  0
  -11.2387   15.2390  -37.4304 C   0  0  0  0  0  0  0  0  0  0  0  0
  -12.2210   15.9381  -39.6418 C   0  0  0  0  0  0  0  0  0  0  0  0
  -12.9995   13.8244  -38.5461 C   0  0  0  0  0  0  0  0  0  0  0  0
  -13.6217   16.0444  -37.5679 C   0  0  0  0  0  0  0  0  0  0  0  0
   -8.9090   15.6800  -36.9489 O   0  0  0  0  0  0  0  0  0  0  0  0
  -10.2148   14.6300  -35.4035 O   0  0  0  0  0  0  0  0  0  0  0  0
  -11.9554   16.5357  -40.8289 F   0  0  0  0  0  0  0  0  0  0  0  0
  -13.4210   12.5551  -38.7656 F   0  0  0  0  0  0  0  0  0  0  0  0
  -14.5927   16.7360  -36.9233 F   0  0  0  0  0  0  0  0  0  0  0  0
  -10.5782   16.9413  -38.6377 H   0  0  0  0  0  0  0  0  0  0  0  0
  -10.1442   15.3930  -39.3199 H   0  0  0  0  0  0  0  0  0  0  0  0
  -10.9517   13.2039  -38.1876 H   0  0  0  0  0  0  0  0  0  0  0  0
  -11.9253   13.2793  -36.7394 H   0  0  0  0  0  0  0  0  0  0  0  0
  -12.5695   15.5782  -35.7264 H   0  0  0  0  0  0  0  0  0  0  0  0
  -12.0303   17.0527  -36.4920 H   0  0  0  0  0  0  0  0  0  0  0  0
  -13.5849   14.4947  -40.5323 H   0  0  0  0  0  0  0  0  0  0  0  0
  -11.9367   13.9340  -40.4424 H   0  0  0  0  0  0  0  0  0  0  0  0
  -13.0099   17.7629  -38.7553 H   0  0  0  0  0  0  0  0  0  0  0  0
  -14.2252   16.7787  -39.5257 H   0  0  0  0  0  0  0  0  0  0  0  0
  -15.0260   14.6037  -38.3975 H   0  0  0  0  0  0  0  0  0  0  0  0
  -14.3509   14.1177  -36.8655 H   0  0  0  0  0  0  0  0  0  0  0  0
   -9.4077   14.6085  -34.8463 H   0  0  0  0  0  0  0  0  0  0  0  0
  1  8  1  0  0  0  0
  1 12  2  0  0  0  0
  1 13  1  0  0  0  0
  2  8  1  0  0  0  0
  2  9  1  0  0  0  0
  3  8  1  0  0  0  0
  3 10  1  0  0  0  0
  4  8  1  0  0  0  0
  4 11  1  0  0  0  0
  5  9  1  0  0  0  0
  5 10  1  0  0  0  0
  6  9  1  0  0  0  0
  6 11  1  0  0  0  0
  7 10  1  0  0  0  0
  7 11  1  0  0  0  0
  9 14  1  0  0  0  0
 10 15  1  0  0  0  0
 11 16  1  0  0  0  0
  2 17  1  0  0  0  0
  2 18  1  0  0  0  0
  3 19  1  0  0  0  0
  3 20  1  0  0  0  0
  4 21  1  0  0  0  0
  4 22  1  0  0  0  0
  5 23  1  0  0  0  0
  5 24  1  0  0  0  0
  6 25  1  0  0  0  0
  6 26  1  0  0  0  0
  7 27  1  0  0  0  0
  7 28  1  0  0  0  0
 13 29  1  0  0  0  0
M  END
> <id>
EN300-687000

> <smiles>
OC(=O)C1(CC2(F)CC3(F)CC(F)(C2)C1)C3

> <IUPAC Name>
3,5,7-trifluoroadamantane-1-carboxylic acid

> <CAS>
214557-89-8

> <Purity>
95

> <URL>
https://www.enaminestore.com/catalog/EN300-687000

> <MP>
197-198

> <ROCS_ShapeQuery>
_x1247relevant_x1083L0AP1_x1305L0BP1_

> <ROCS_TanimotoCombo>
0.832 

> <ROCS_ShapeTanimoto>
0.512 

> <ROCS_ColorTanimoto>
0.320 

> <ROCS_RefTversky>
0.437 

> <ROCS_RefColorTversky>
0.358 

> <ROCS_RefTverskyCombo>
0.795 

> <ROCS_FitTversky>
1.500 

> <ROCS_FitColorTversky>
0.752 

> <ROCS_FitTverskyCombo>
2.252 

> <ROCS_ColorScore>
-7.607

> <ROCS_Overlap>
1289.037

> <ROCS_Rank>
253                 

$$$$
untitled-dbase-126298_0
  -OEChem-06232314393D

 26 28  0     1  0  0  0  0  0999 V2000
  -14.0690   16.0127  -38.9376 C   0  0  0  0  0  0  0  0  0  0  0  0
  -12.8996   15.7992  -39.8993 C   0  0  0  0  0  0  0  0  0  0  0  0
   -9.5022   15.4782  -36.1217 C   0  0  0  0  0  0  0  0  0  0  0  0
   -8.8012   15.4339  -37.4481 C   0  0  0  0  0  0  0  0  0  0  0  0
  -12.5085   15.8293  -36.9726 C   0  0  0  0  0  0  0  0  0  0  0  0
  -11.3266   15.6470  -37.9392 C   0  0  2  0  0  0  0  0  0  0  0  0
  -13.6534   15.1650  -37.7374 C   0  0  2  0  0  0  0  0  0  0  0  0
  -11.9865   14.8763  -39.0925 C   0  0  1  0  0  0  0  0  0  0  0  0
  -10.1997   14.8699  -37.3192 C   0  0  0  0  0  0  0  0  0  0  0  0
  -10.3733   13.4016  -37.3617 N   0  0  0  0  0  0  0  0  0  0  0  0
  -12.9625   14.0731  -38.3865 O   0  0  0  0  0  0  0  0  0  0  0  0
  -14.2301   17.0646  -38.6842 H   0  0  0  0  0  0  0  0  0  0  0  0
  -14.9880   15.6208  -39.3877 H   0  0  0  0  0  0  0  0  0  0  0  0
  -13.2580   15.2919  -40.8022 H   0  0  0  0  0  0  0  0  0  0  0  0
  -12.4129   16.7321  -40.1981 H   0  0  0  0  0  0  0  0  0  0  0  0
   -9.1398   14.8206  -35.3400 H   0  0  0  0  0  0  0  0  0  0  0  0
   -9.8371   16.4439  -35.7618 H   0  0  0  0  0  0  0  0  0  0  0  0
   -8.6662   16.3697  -37.9775 H   0  0  0  0  0  0  0  0  0  0  0  0
   -7.9700   14.7462  -37.5540 H   0  0  0  0  0  0  0  0  0  0  0  0
  -12.3323   15.3078  -36.0248 H   0  0  0  0  0  0  0  0  0  0  0  0
  -12.7128   16.8814  -36.7509 H   0  0  0  0  0  0  0  0  0  0  0  0
  -10.9329   16.6122  -38.2779 H   0  0  0  0  0  0  0  0  0  0  0  0
  -14.4808   14.8244  -37.1112 H   0  0  0  0  0  0  0  0  0  0  0  0
  -11.3129   14.2644  -39.6975 H   0  0  0  0  0  0  0  0  0  0  0  0
  -11.3428   13.2234  -37.4065 H   0  0  0  0  0  0  0  0  0  0  0  0
   -9.9056   13.0762  -38.1675 H   0  0  0  0  0  0  0  0  0  0  0  0
  1  2  1  0  0  0  0
  1  7  1  0  0  0  0
  2  8  1  0  0  0  0
  3  4  1  0  0  0  0
  3  9  1  0  0  0  0
  4  9  1  0  0  0  0
  5  6  1  0  0  0  0
  5  7  1  0  0  0  0
  6  8  1  0  0  0  0
  6  9  1  0  0  0  0
  7 11  1  0  0  0  0
  8 11  1  0  0  0  0
  9 10  1  0  0  0  0
  1 12  1  0  0  0  0
  1 13  1  0  0  0  0
  2 14  1  0  0  0  0
  2 15  1  0  0  0  0
  3 16  1  0  0  0  0
  3 17  1  0  0  0  0
  4 18  1  0  0  0  0
  4 19  1  0  0  0  0
  5 20  1  0  0  0  0
  5 21  1  0  0  0  0
  6 22  1  0  0  0  0
  7 23  1  0  0  0  0
  8 24  1  0  0  0  0
 10 25  1  0  0  0  0
 10 26  1  0  0  0  0
M  END
> <id>
EN300-1144000

> <smiles>
NC1(CC1)C2CC3CCC2O3

> <MDLNUMBER>
MFCD19666230

> <IUPAC Name>
1-{7-oxabicyclo[2.2.1]heptan-2-yl}cyclopropan-1-amine

> <CAS>
1342997-27-6

> <URL>
https://www.enaminestore.com/catalog/EN300-1144000

> <ROCS_ShapeQuery>
_x1247relevant_x1083L0AP1_x1305L0BP1_

> <ROCS_TanimotoCombo>
0.832 

> <ROCS_ShapeTanimoto>
0.447 

> <ROCS_ColorTanimoto>
0.385 

> <ROCS_RefTversky>
0.375 

> <ROCS_RefColorTversky>
0.408 

> <ROCS_RefTverskyCombo>
0.783 

> <ROCS_FitTversky>
1.768 

> <ROCS_FitColorTversky>
0.869 

> <ROCS_FitTverskyCombo>
2.636 

> <ROCS_ColorScore>
-8.668

> <ROCS_Overlap>
1099.797

> <ROCS_Rank>
254                 

$$$$
untitled-dbase-86053_91
  -OEChem-06232314393D

 39 40  0     1  0  0  0  0  0999 V2000
  -13.2964   16.4548  -40.3264 C   0  0  0  0  0  0  0  0  0  0  0  0
  -10.0176   15.1227  -36.8373 C   0  0  0  0  0  0  0  0  0  0  0  0
  -13.0288   14.1672  -39.2210 C   0  0  0  0  0  0  0  0  0  0  0  0
  -12.9260   13.7327  -37.7413 C   0  0  0  0  0  0  0  0  0  0  0  0
  -13.4349   16.0500  -37.8195 C   0  0  0  0  0  0  0  0  0  0  0  0
  -11.3064   15.9584  -38.8366 C   0  0  0  0  0  0  0  0  0  0  0  0
  -12.7834   15.6902  -39.1552 C   0  0  2  0  0  0  0  0  0  0  0  0
  -12.5689   15.0541  -37.0289 C   0  0  1  0  0  0  0  0  0  0  0  0
  -12.8326   15.0770  -35.5375 C   0  0  0  0  0  0  0  0  0  0  0  0
   -7.8825   14.1317  -35.2121 C   0  0  0  0  0  0  0  0  0  0  0  0
   -9.4115   12.2057  -34.7003 C   0  0  0  0  0  0  0  0  0  0  0  0
   -8.6563   12.6099  -37.0614 C   0  0  0  0  0  0  0  0  0  0  0  0
   -9.0283   13.2646  -35.7318 C   0  0  0  0  0  0  0  0  0  0  0  0
  -11.2083   15.4305  -37.4736 N   0  0  0  0  0  0  0  0  0  0  0  0
  -12.6109   17.1348  -41.0755 O   0  0  0  0  0  0  0  0  0  0  0  0
   -8.9446   15.6834  -37.0423 O   0  0  0  0  0  0  0  0  0  0  0  0
  -14.6369   16.2973  -40.4509 O   0  0  0  0  0  0  0  0  0  0  0  0
  -10.1735   14.0993  -35.9392 O   0  0  0  0  0  0  0  0  0  0  0  0
  -12.2870   13.6560  -39.8442 H   0  0  0  0  0  0  0  0  0  0  0  0
  -14.0215   13.9276  -39.6196 H   0  0  0  0  0  0  0  0  0  0  0  0
  -13.8897   13.3389  -37.3979 H   0  0  0  0  0  0  0  0  0  0  0  0
  -12.1696   12.9549  -37.5927 H   0  0  0  0  0  0  0  0  0  0  0  0
  -13.2800   17.0946  -37.5238 H   0  0  0  0  0  0  0  0  0  0  0  0
  -14.5080   15.8272  -37.7855 H   0  0  0  0  0  0  0  0  0  0  0  0
  -10.6155   15.4361  -39.5065 H   0  0  0  0  0  0  0  0  0  0  0  0
  -11.0540   17.0245  -38.8184 H   0  0  0  0  0  0  0  0  0  0  0  0
  -12.5526   16.0456  -35.1152 H   0  0  0  0  0  0  0  0  0  0  0  0
  -12.2518   14.2990  -35.0353 H   0  0  0  0  0  0  0  0  0  0  0  0
  -13.8927   14.9038  -35.3346 H   0  0  0  0  0  0  0  0  0  0  0  0
   -7.6044   14.8930  -35.9496 H   0  0  0  0  0  0  0  0  0  0  0  0
   -8.1493   14.6345  -34.2768 H   0  0  0  0  0  0  0  0  0  0  0  0
   -6.9842   13.5286  -35.0367 H   0  0  0  0  0  0  0  0  0  0  0  0
  -10.2333   11.5813  -35.0691 H   0  0  0  0  0  0  0  0  0  0  0  0
   -9.7697   12.6729  -33.7759 H   0  0  0  0  0  0  0  0  0  0  0  0
   -8.5654   11.5557  -34.4551 H   0  0  0  0  0  0  0  0  0  0  0  0
   -9.4780   11.9879  -37.4344 H   0  0  0  0  0  0  0  0  0  0  0  0
   -8.4139   13.3563  -37.8247 H   0  0  0  0  0  0  0  0  0  0  0  0
   -7.7946   11.9435  -36.9399 H   0  0  0  0  0  0  0  0  0  0  0  0
  -14.9948   16.7953  -41.2166 H   0  0  0  0  0  0  0  0  0  0  0  0
  1  7  1  0  0  0  0
  1 15  2  0  0  0  0
  1 17  1  0  0  0  0
  2 14  1  0  0  0  0
  2 16  2  0  0  0  0
  2 18  1  0  0  0  0
  3  4  1  0  0  0  0
  3  7  1  0  0  0  0
  4  8  1  0  0  0  0
  5  7  1  0  0  0  0
  5  8  1  0  0  0  0
  6  7  1  0  0  0  0
  6 14  1  0  0  0  0
  8  9  1  0  0  0  0
  8 14  1  0  0  0  0
 10 13  1  0  0  0  0
 11 13  1  0  0  0  0
 12 13  1  0  0  0  0
 13 18  1  0  0  0  0
  3 19  1  0  0  0  0
  3 20  1  0  0  0  0
  4 21  1  0  0  0  0
  4 22  1  0  0  0  0
  5 23  1  0  0  0  0
  5 24  1  0  0  0  0
  6 25  1  0  0  0  0
  6 26  1  0  0  0  0
  9 27  1  0  0  0  0
  9 28  1  0  0  0  0
  9 29  1  0  0  0  0
 10 30  1  0  0  0  0
 10 31  1  0  0  0  0
 10 32  1  0  0  0  0
 11 33  1  0  0  0  0
 11 34  1  0  0  0  0
 11 35  1  0  0  0  0
 12 36  1  0  0  0  0
 12 37  1  0  0  0  0
 12 38  1  0  0  0  0
 17 39  1  0  0  0  0
M  END
> <id>
EN300-26981131

> <smiles>
CC(C)(C)OC(=O)N1CC2(CCC1(C)C2)C(=O)O

> <MDLNUMBER>
MFCD32702935

> <IUPAC Name>
2-[(tert-butoxy)carbonyl]-1-methyl-2-azabicyclo[2.2.1]heptane-4-carboxylic acid

> <CAS>
2460750-32-5

> <Purity>
95

> <URL>
https://www.enaminestore.com/catalog/EN300-26981131

> <ROCS_ShapeQuery>
_x1247relevant_x1083L0AP1_x1305L0BP1_

> <ROCS_TanimotoCombo>
0.832 

> <ROCS_ShapeTanimoto>
0.517 

> <ROCS_ColorTanimoto>
0.315 

> <ROCS_RefTversky>
0.447 

> <ROCS_RefColorTversky>
0.373 

> <ROCS_RefTverskyCombo>
0.820 

> <ROCS_FitTversky>
1.432 

> <ROCS_FitColorTversky>
0.669 

> <ROCS_FitTverskyCombo>
2.100 

> <ROCS_ColorScore>
-7.953

> <ROCS_Overlap>
1320.642

> <ROCS_Rank>
255                 

$$$$
untitled-dbase-77932_13
  -OEChem-06232314393D

 27 29  0     1  0  0  0  0  0999 V2000
  -14.1049   15.8393  -39.1552 C   0  0  0  0  0  0  0  0  0  0  0  0
  -12.9476   15.3684  -40.0367 C   0  0  0  0  0  0  0  0  0  0  0  0
  -12.5023   16.3120  -37.2743 C   0  0  0  0  0  0  0  0  0  0  0  0
   -9.3969   14.1509  -37.9952 C   0  0  0  0  0  0  0  0  0  0  0  0
  -10.6014   14.2431  -36.2948 C   0  0  0  0  0  0  0  0  0  0  0  0
  -11.3336   15.8698  -38.1703 C   0  0  2  0  0  0  0  0  0  0  0  0
  -13.6391   15.4151  -37.7643 C   0  0  2  0  0  0  0  0  0  0  0  0
  -11.9897   14.7637  -39.0105 C   0  0  1  0  0  0  0  0  0  0  0  0
  -10.1889   15.3047  -37.3393 C   0  0  0  0  0  0  0  0  0  0  0  0
  -10.2139   13.1803  -37.2420 N   0  0  0  0  0  0  0  0  0  0  0  0
  -12.9252   14.1938  -38.0639 O   0  0  0  0  0  0  0  0  0  0  0  0
   -9.3862   16.3849  -36.8199 O   0  0  0  0  0  0  0  0  0  0  0  0
  -14.2957   16.9134  -39.2343 H   0  0  0  0  0  0  0  0  0  0  0  0
  -15.0194   15.3049  -39.4366 H   0  0  0  0  0  0  0  0  0  0  0  0
  -13.3063   14.5983  -40.7289 H   0  0  0  0  0  0  0  0  0  0  0  0
  -12.4967   16.1754  -40.6216 H   0  0  0  0  0  0  0  0  0  0  0  0
  -12.2906   16.1163  -36.2170 H   0  0  0  0  0  0  0  0  0  0  0  0
  -12.7370   17.3755  -37.3850 H   0  0  0  0  0  0  0  0  0  0  0  0
   -9.4777   14.0639  -39.0832 H   0  0  0  0  0  0  0  0  0  0  0  0
   -8.3342   14.1228  -37.7270 H   0  0  0  0  0  0  0  0  0  0  0  0
   -9.9964   14.2502  -35.3805 H   0  0  0  0  0  0  0  0  0  0  0  0
  -11.6572   14.2317  -36.0072 H   0  0  0  0  0  0  0  0  0  0  0  0
  -10.9621   16.6901  -38.7941 H   0  0  0  0  0  0  0  0  0  0  0  0
  -14.4432   15.2641  -37.0408 H   0  0  0  0  0  0  0  0  0  0  0  0
  -11.3068   14.0126  -39.4146 H   0  0  0  0  0  0  0  0  0  0  0  0
  -11.0021   12.8202  -37.7807 H   0  0  0  0  0  0  0  0  0  0  0  0
   -8.8128   15.9853  -36.1542 H   0  0  0  0  0  0  0  0  0  0  0  0
  1  2  1  0  0  0  0
  1  7  1  0  0  0  0
  2  8  1  0  0  0  0
  3  6  1  0  0  0  0
  3  7  1  0  0  0  0
  4  9  1  0  0  0  0
  4 10  1  0  0  0  0
  5  9  1  0  0  0  0
  5 10  1  0  0  0  0
  6  8  1  0  0  0  0
  6  9  1  0  0  0  0
  7 11  1  0  0  0  0
  8 11  1  0  0  0  0
  9 12  1  0  0  0  0
  1 13  1  0  0  0  0
  1 14  1  0  0  0  0
  2 15  1  0  0  0  0
  2 16  1  0  0  0  0
  3 17  1  0  0  0  0
  3 18  1  0  0  0  0
  4 19  1  0  0  0  0
  4 20  1  0  0  0  0
  5 21  1  0  0  0  0
  5 22  1  0  0  0  0
  6 23  1  0  0  0  0
  7 24  1  0  0  0  0
  8 25  1  0  0  0  0
 10 26  1  0  0  0  0
 12 27  1  0  0  0  0
M  END
> <id>
EN300-1754179

> <smiles>
OC1(CNC1)C2CC3CCC2O3

> <IUPAC Name>
3-{7-oxabicyclo[2.2.1]heptan-2-yl}azetidin-3-ol

> <CAS>
2228518-98-5

> <URL>
https://www.enaminestore.com/catalog/EN300-1754179

> <ROCS_ShapeQuery>
_x1247relevant_x1083L0AP1_x1305L0BP1_

> <ROCS_TanimotoCombo>
0.832 

> <ROCS_ShapeTanimoto>
0.463 

> <ROCS_ColorTanimoto>
0.369 

> <ROCS_RefTversky>
0.389 

> <ROCS_RefColorTversky>
0.432 

> <ROCS_RefTverskyCombo>
0.820 

> <ROCS_FitTversky>
1.698 

> <ROCS_FitColorTversky>
0.719 

> <ROCS_FitTverskyCombo>
2.417 

> <ROCS_ColorScore>
-9.224

> <ROCS_Overlap>
1142.153

> <ROCS_Rank>
256                 

$$$$
untitled-dbase-59251_2
  -OEChem-06232314393D

 32 34  0     1  0  0  0  0  0999 V2000
  -14.0180   16.0181  -39.0505 C   0  0  0  0  0  0  0  0  0  0  0  0
  -12.7915   15.7521  -39.9241 C   0  0  0  0  0  0  0  0  0  0  0  0
  -12.5958   15.8730  -36.9802 C   0  0  0  0  0  0  0  0  0  0  0  0
   -8.9111   15.4891  -37.0309 C   0  0  0  0  0  0  0  0  0  0  0  0
  -11.3559   15.6379  -37.8588 C   0  0  2  0  0  0  0  0  0  0  0  0
  -13.7000   15.2037  -37.7985 C   0  0  2  0  0  0  0  0  0  0  0  0
  -11.9526   14.8408  -39.0285 C   0  0  1  0  0  0  0  0  0  0  0  0
  -10.2883   14.8623  -37.1398 C   0  0  2  0  0  0  0  0  0  0  0  0
   -9.7532   15.3599  -35.7831 C   0  0  0  0  0  0  0  0  0  0  0  0
  -10.3221   16.6197  -35.1770 C   0  0  0  0  0  0  0  0  0  0  0  0
   -9.3163   14.3517  -34.7457 C   0  0  0  0  0  0  0  0  0  0  0  0
  -10.3605   13.3967  -37.3707 N   0  0  0  0  0  0  0  0  0  0  0  0
  -12.9890   14.0789  -38.3643 O   0  0  0  0  0  0  0  0  0  0  0  0
  -14.1749   17.0805  -38.8424 H   0  0  0  0  0  0  0  0  0  0  0  0
  -14.9125   15.6274  -39.5485 H   0  0  0  0  0  0  0  0  0  0  0  0
  -13.0989   15.2214  -40.8323 H   0  0  0  0  0  0  0  0  0  0  0  0
  -12.2677   16.6659  -40.2193 H   0  0  0  0  0  0  0  0  0  0  0  0
  -12.4934   15.3804  -36.0064 H   0  0  0  0  0  0  0  0  0  0  0  0
  -12.7936   16.9354  -36.8066 H   0  0  0  0  0  0  0  0  0  0  0  0
   -8.0407   14.8499  -37.1356 H   0  0  0  0  0  0  0  0  0  0  0  0
   -8.7599   16.4767  -37.4529 H   0  0  0  0  0  0  0  0  0  0  0  0
  -10.9216   16.5842  -38.2010 H   0  0  0  0  0  0  0  0  0  0  0  0
  -14.5739   14.8987  -37.2187 H   0  0  0  0  0  0  0  0  0  0  0  0
  -11.2523   14.1974  -39.5669 H   0  0  0  0  0  0  0  0  0  0  0  0
  -10.9091   16.3879  -34.2822 H   0  0  0  0  0  0  0  0  0  0  0  0
  -10.9749   17.1322  -35.8913 H   0  0  0  0  0  0  0  0  0  0  0  0
   -9.5199   17.3082  -34.8913 H   0  0  0  0  0  0  0  0  0  0  0  0
  -10.0036   14.3528  -33.8941 H   0  0  0  0  0  0  0  0  0  0  0  0
   -8.3130   14.5876  -34.3779 H   0  0  0  0  0  0  0  0  0  0  0  0
   -9.2982   13.3438  -35.1717 H   0  0  0  0  0  0  0  0  0  0  0  0
  -10.8517   13.0114  -36.6088 H   0  0  0  0  0  0  0  0  0  0  0  0
  -10.8385   13.2655  -38.2218 H   0  0  0  0  0  0  0  0  0  0  0  0
  1  2  1  0  0  0  0
  1  6  1  0  0  0  0
  2  7  1  0  0  0  0
  3  5  1  0  0  0  0
  3  6  1  0  0  0  0
  4  8  1  0  0  0  0
  4  9  1  0  0  0  0
  5  7  1  0  0  0  0
  5  8  1  0  0  0  0
  6 13  1  0  0  0  0
  7 13  1  0  0  0  0
  8  9  1  0  0  0  0
  8 12  1  0  0  0  0
  9 10  1  0  0  0  0
  9 11  1  0  0  0  0
  1 14  1  0  0  0  0
  1 15  1  0  0  0  0
  2 16  1  0  0  0  0
  2 17  1  0  0  0  0
  3 18  1  0  0  0  0
  3 19  1  0  0  0  0
  4 20  1  0  0  0  0
  4 21  1  0  0  0  0
  5 22  1  0  0  0  0
  6 23  1  0  0  0  0
  7 24  1  0  0  0  0
 10 25  1  0  0  0  0
 10 26  1  0  0  0  0
 10 27  1  0  0  0  0
 11 28  1  0  0  0  0
 11 29  1  0  0  0  0
 11 30  1  0  0  0  0
 12 31  1  0  0  0  0
 12 32  1  0  0  0  0
M  END
> <id>
EN300-1754172

> <smiles>
CC1(C)CC1(N)C2CC3CCC2O3

> <IUPAC Name>
2,2-dimethyl-1-{7-oxabicyclo[2.2.1]heptan-2-yl}cyclopropan-1-amine

> <CAS>
2229262-92-2

> <URL>
https://www.enaminestore.com/catalog/EN300-1754172

> <ROCS_ShapeQuery>
_x1247relevant_x1083L0AP1_x1305L0BP1_

> <ROCS_TanimotoCombo>
0.832 

> <ROCS_ShapeTanimoto>
0.464 

> <ROCS_ColorTanimoto>
0.368 

> <ROCS_RefTversky>
0.392 

> <ROCS_RefColorTversky>
0.407 

> <ROCS_RefTverskyCombo>
0.800 

> <ROCS_FitTversky>
1.643 

> <ROCS_FitColorTversky>
0.793 

> <ROCS_FitTverskyCombo>
2.436 

> <ROCS_ColorScore>
-8.664

> <ROCS_Overlap>
1153.766

> <ROCS_Rank>
257                 

$$$$
untitled-dbase-161602_5
  -OEChem-06232314393D

 22 23  0     1  0  0  0  0  0999 V2000
  -13.8583   15.8807  -38.8934 C   0  0  0  0  0  0  0  0  0  0  0  0
  -12.6846   16.2369  -39.4372 C   0  0  0  0  0  0  0  0  0  0  0  0
  -12.4744   14.0354  -38.7759 C   0  0  0  0  0  0  0  0  0  0  0  0
  -12.8016   15.2301  -36.7496 C   0  0  0  0  0  0  0  0  0  0  0  0
  -13.5890   14.7115  -37.9745 C   0  0  1  0  0  0  0  0  0  0  0  0
  -11.6308   15.3133  -38.8684 C   0  0  2  0  0  0  0  0  0  0  0  0
  -11.4585   15.6929  -37.3806 C   0  0  2  0  0  0  0  0  0  0  0  0
  -10.1105   13.4064  -37.4580 N   0  0  0  0  0  0  0  0  0  0  0  0
   -8.8669   15.6219  -37.0554 O   0  0  0  0  0  0  0  0  0  0  0  0
  -10.3524   14.6846  -35.2388 O   0  0  0  0  0  0  0  0  0  0  0  0
  -10.0618   14.9045  -36.6452 S   0  0  0  0  0  0  0  0  0  0  0  0
  -14.8086   16.3672  -39.0438 H   0  0  0  0  0  0  0  0  0  0  0  0
  -12.5124   17.0658  -40.1047 H   0  0  0  0  0  0  0  0  0  0  0  0
  -11.9862   13.2192  -38.2338 H   0  0  0  0  0  0  0  0  0  0  0  0
  -12.8052   13.6604  -39.7532 H   0  0  0  0  0  0  0  0  0  0  0  0
  -13.3168   16.0606  -36.2543 H   0  0  0  0  0  0  0  0  0  0  0  0
  -12.6560   14.4285  -36.0169 H   0  0  0  0  0  0  0  0  0  0  0  0
  -14.4551   14.0856  -37.7583 H   0  0  0  0  0  0  0  0  0  0  0  0
  -10.7231   15.2235  -39.4666 H   0  0  0  0  0  0  0  0  0  0  0  0
  -11.3043   16.7693  -37.2424 H   0  0  0  0  0  0  0  0  0  0  0  0
   -9.3804   13.2170  -38.1556 H   0  0  0  0  0  0  0  0  0  0  0  0
  -10.3923   12.5788  -36.9184 H   0  0  0  0  0  0  0  0  0  0  0  0
  1  2  2  0  0  0  0
  1  5  1  0  0  0  0
  2  6  1  0  0  0  0
  3  5  1  0  0  0  0
  3  6  1  0  0  0  0
  4  5  1  0  0  0  0
  4  7  1  0  0  0  0
  6  7  1  0  0  0  0
  7 11  1  0  0  0  0
  8 11  1  0  0  0  0
  9 11  2  0  0  0  0
 10 11  2  0  0  0  0
  1 12  1  0  0  0  0
  2 13  1  0  0  0  0
  3 14  1  0  0  0  0
  3 15  1  0  0  0  0
  4 16  1  0  0  0  0
  4 17  1  0  0  0  0
  5 18  1  0  0  0  0
  6 19  1  0  0  0  0
  7 20  1  0  0  0  0
  8 21  1  0  0  0  0
  8 22  1  0  0  0  0
M  END
> <id>
EN300-244737

> <smiles>
NS(=O)(=O)C1CC2CC1C=C2

> <MDLNUMBER>
MFCD18826783

> <IUPAC Name>
bicyclo[2.2.1]hept-5-ene-2-sulfonamide

> <CAS>
7167-08-0

> <Purity>
95

> <URL>
https://www.enaminestore.com/catalog/EN300-244737

> <MP>
110-115

> <ROCS_ShapeQuery>
_x1247relevant_x1083L0AP1_x1305L0BP1_

> <ROCS_TanimotoCombo>
0.831 

> <ROCS_ShapeTanimoto>
0.449 

> <ROCS_ColorTanimoto>
0.382 

> <ROCS_RefTversky>
0.373 

> <ROCS_RefColorTversky>
0.407 

> <ROCS_RefTverskyCombo>
0.780 

> <ROCS_FitTversky>
1.829 

> <ROCS_FitColorTversky>
0.863 

> <ROCS_FitTverskyCombo>
2.692 

> <ROCS_ColorScore>
-8.632

> <ROCS_Overlap>
1095.790

> <ROCS_Rank>
258                 

$$$$
untitled-dbase-120413_1
  -OEChem-06232314393D

 29 31  0     1  0  0  0  0  0999 V2000
   -9.9864   15.2255  -36.6031 C   0  0  0  0  0  0  0  0  0  0  0  0
  -12.3497   16.0269  -36.7026 C   0  0  0  0  0  0  0  0  0  0  0  0
  -13.3200   16.7255  -38.9068 C   0  0  0  0  0  0  0  0  0  0  0  0
  -14.0973   14.6093  -37.8106 C   0  0  0  0  0  0  0  0  0  0  0  0
  -10.9475   15.9202  -38.7838 C   0  0  0  0  0  0  0  0  0  0  0  0
  -11.7262   13.8012  -37.6865 C   0  0  0  0  0  0  0  0  0  0  0  0
  -12.6972   14.5044  -39.8872 C   0  0  0  0  0  0  0  0  0  0  0  0
  -13.6310   16.0535  -37.5578 C   0  0  0  0  0  0  0  0  0  0  0  0
  -11.2386   15.2412  -37.4312 C   0  0  0  0  0  0  0  0  0  0  0  0
  -12.2225   15.9408  -39.6387 C   0  0  1  0  0  0  0  0  0  0  0  0
  -12.9985   13.8286  -38.5446 C   0  0  2  0  0  0  0  0  0  0  0  0
   -8.9071   15.6787  -36.9542 O   0  0  0  0  0  0  0  0  0  0  0  0
  -10.2124   14.6342  -35.4046 O   0  0  0  0  0  0  0  0  0  0  0  0
  -11.9578   16.5389  -40.8260 F   0  0  0  0  0  0  0  0  0  0  0  0
  -13.4197   12.5589  -38.7647 F   0  0  0  0  0  0  0  0  0  0  0  0
  -12.0201   17.0536  -36.4960 H   0  0  0  0  0  0  0  0  0  0  0  0
  -12.5612   15.5701  -35.7268 H   0  0  0  0  0  0  0  0  0  0  0  0
  -14.2227   16.7742  -39.5284 H   0  0  0  0  0  0  0  0  0  0  0  0
  -13.0000   17.7637  -38.7544 H   0  0  0  0  0  0  0  0  0  0  0  0
  -14.3404   14.1126  -36.8632 H   0  0  0  0  0  0  0  0  0  0  0  0
  -15.0209   14.6021  -38.4025 H   0  0  0  0  0  0  0  0  0  0  0  0
  -10.5784   16.9439  -38.6371 H   0  0  0  0  0  0  0  0  0  0  0  0
  -10.1458   15.3960  -39.3209 H   0  0  0  0  0  0  0  0  0  0  0  0
  -10.9511   13.2070  -38.1885 H   0  0  0  0  0  0  0  0  0  0  0  0
  -11.9235   13.2814  -36.7397 H   0  0  0  0  0  0  0  0  0  0  0  0
  -13.5867   14.4988  -40.5295 H   0  0  0  0  0  0  0  0  0  0  0  0
  -11.9383   13.9386  -40.4418 H   0  0  0  0  0  0  0  0  0  0  0  0
  -14.4154   16.6120  -37.0355 H   0  0  0  0  0  0  0  0  0  0  0  0
   -9.4044   14.6123  -34.8487 H   0  0  0  0  0  0  0  0  0  0  0  0
  1  9  1  0  0  0  0
  1 12  2  0  0  0  0
  1 13  1  0  0  0  0
  2  8  1  0  0  0  0
  2  9  1  0  0  0  0
  3  8  1  0  0  0  0
  3 10  1  0  0  0  0
  4  8  1  0  0  0  0
  4 11  1  0  0  0  0
  5  9  1  0  0  0  0
  5 10  1  0  0  0  0
  6  9  1  0  0  0  0
  6 11  1  0  0  0  0
  7 10  1  0  0  0  0
  7 11  1  0  0  0  0
 10 14  1  0  0  0  0
 11 15  1  0  0  0  0
  2 16  1  0  0  0  0
  2 17  1  0  0  0  0
  3 18  1  0  0  0  0
  3 19  1  0  0  0  0
  4 20  1  0  0  0  0
  4 21  1  0  0  0  0
  5 22  1  0  0  0  0
  5 23  1  0  0  0  0
  6 24  1  0  0  0  0
  6 25  1  0  0  0  0
  7 26  1  0  0  0  0
  7 27  1  0  0  0  0
  8 28  1  0  0  0  0
 13 29  1  0  0  0  0
M  END
> <id>
EN300-1697064

> <smiles>
OC(=O)C1(CC2CC3(F)CC(F)(C2)C1)C3

> <MDLNUMBER>
MFCD24480916

> <IUPAC Name>
3,5-difluoroadamantane-1-carboxylic acid

> <CAS>
73600-37-0

> <Purity>
95

> <URL>
https://www.enaminestore.com/catalog/EN300-1697064

> <ROCS_ShapeQuery>
_x1247relevant_x1083L0AP1_x1305L0BP1_

> <ROCS_TanimotoCombo>
0.831 

> <ROCS_ShapeTanimoto>
0.511 

> <ROCS_ColorTanimoto>
0.320 

> <ROCS_RefTversky>
0.431 

> <ROCS_RefColorTversky>
0.358 

> <ROCS_RefTverskyCombo>
0.789 

> <ROCS_FitTversky>
1.568 

> <ROCS_FitColorTversky>
0.752 

> <ROCS_FitTverskyCombo>
2.320 

> <ROCS_ColorScore>
-7.603

> <ROCS_Overlap>
1270.629

> <ROCS_Rank>
259                 

$$$$
untitled-dbase-145217_32
  -OEChem-06232314393D

 31 32  0     1  0  0  0  0  0999 V2000
  -12.9156   16.4181  -39.2530 C   0  0  0  0  0  0  0  0  0  0  0  0
  -13.5228   15.2356  -39.4417 C   0  0  0  0  0  0  0  0  0  0  0  0
  -10.0642   15.2366  -37.0335 C   0  0  0  0  0  0  0  0  0  0  0  0
  -13.1781   15.4670  -37.1673 C   0  0  0  0  0  0  0  0  0  0  0  0
  -12.1664   16.3128  -37.9415 C   0  0  1  0  0  0  0  0  0  0  0  0
  -13.2000   14.3808  -38.2362 C   0  0  2  0  0  0  0  0  0  0  0  0
  -11.0341   15.2942  -38.1695 C   0  0  2  0  0  0  0  0  0  0  0  0
   -8.6851   14.7720  -34.5884 C   0  0  0  0  0  0  0  0  0  0  0  0
  -10.2824   12.8606  -34.2651 C   0  0  0  0  0  0  0  0  0  0  0  0
   -8.7117   12.8600  -36.2249 C   0  0  0  0  0  0  0  0  0  0  0  0
   -9.5525   13.7271  -35.2890 C   0  0  0  0  0  0  0  0  0  0  0  0
  -11.7636   13.9964  -38.2460 N   0  0  0  0  0  0  0  0  0  0  0  0
   -9.0069   15.8517  -37.0035 O   0  0  0  0  0  0  0  0  0  0  0  0
  -10.5449   14.4056  -36.0654 O   0  0  0  0  0  0  0  0  0  0  0  0
  -12.9012   17.2524  -39.9353 H   0  0  0  0  0  0  0  0  0  0  0  0
  -14.0996   14.9378  -40.3024 H   0  0  0  0  0  0  0  0  0  0  0  0
  -12.8172   15.1225  -36.1912 H   0  0  0  0  0  0  0  0  0  0  0  0
  -14.1467   15.9643  -37.0250 H   0  0  0  0  0  0  0  0  0  0  0  0
  -11.9037   17.2599  -37.4687 H   0  0  0  0  0  0  0  0  0  0  0  0
  -13.8972   13.5622  -38.0502 H   0  0  0  0  0  0  0  0  0  0  0  0
  -10.4717   15.4752  -39.0925 H   0  0  0  0  0  0  0  0  0  0  0  0
   -8.1595   15.3960  -35.3200 H   0  0  0  0  0  0  0  0  0  0  0  0
   -9.2816   15.4229  -33.9409 H   0  0  0  0  0  0  0  0  0  0  0  0
   -7.9111   14.2923  -33.9784 H   0  0  0  0  0  0  0  0  0  0  0  0
  -10.9060   12.1095  -34.7633 H   0  0  0  0  0  0  0  0  0  0  0  0
  -10.9596   13.4669  -33.6526 H   0  0  0  0  0  0  0  0  0  0  0  0
   -9.5823   12.3443  -33.6003 H   0  0  0  0  0  0  0  0  0  0  0  0
   -9.3336   12.1104  -36.7276 H   0  0  0  0  0  0  0  0  0  0  0  0
   -8.2096   13.4614  -36.9896 H   0  0  0  0  0  0  0  0  0  0  0  0
   -7.9514   12.3048  -35.6637 H   0  0  0  0  0  0  0  0  0  0  0  0
  -11.5735   13.4420  -37.4104 H   0  0  0  0  0  0  0  0  0  0  0  0
  1  2  2  0  0  0  0
  1  5  1  0  0  0  0
  2  6  1  0  0  0  0
  3  7  1  0  0  0  0
  3 13  2  0  0  0  0
  3 14  1  0  0  0  0
  4  5  1  0  0  0  0
  4  6  1  0  0  0  0
  5  7  1  0  0  0  0
  6 12  1  0  0  0  0
  7 12  1  0  0  0  0
  8 11  1  0  0  0  0
  9 11  1  0  0  0  0
 10 11  1  0  0  0  0
 11 14  1  0  0  0  0
  1 15  1  0  0  0  0
  2 16  1  0  0  0  0
  4 17  1  0  0  0  0
  4 18  1  0  0  0  0
  5 19  1  0  0  0  0
  6 20  1  0  0  0  0
  7 21  1  0  0  0  0
  8 22  1  0  0  0  0
  8 23  1  0  0  0  0
  8 24  1  0  0  0  0
  9 25  1  0  0  0  0
  9 26  1  0  0  0  0
  9 27  1  0  0  0  0
 10 28  1  0  0  0  0
 10 29  1  0  0  0  0
 10 30  1  0  0  0  0
 12 31  1  0  0  0  0
M  END
> <id>
EN300-8631625

> <smiles>
CC(C)(C)OC(=O)C1NC2CC1C=C2

> <MDLNUMBER>
MFCD20690171

> <IUPAC Name>
tert-butyl 2-azabicyclo[2.2.1]hept-5-ene-3-carboxylate

> <CAS>
1378298-62-4

> <URL>
https://www.enaminestore.com/catalog/EN300-8631625

> <ROCS_ShapeQuery>
_x1247relevant_x1083L0AP1_x1305L0BP1_

> <ROCS_TanimotoCombo>
0.831 

> <ROCS_ShapeTanimoto>
0.467 

> <ROCS_ColorTanimoto>
0.365 

> <ROCS_RefTversky>
0.399 

> <ROCS_RefColorTversky>
0.405 

> <ROCS_RefTverskyCombo>
0.804 

> <ROCS_FitTversky>
1.565 

> <ROCS_FitColorTversky>
0.786 

> <ROCS_FitTverskyCombo>
2.350 

> <ROCS_ColorScore>
-8.619

> <ROCS_Overlap>
1175.167

> <ROCS_Rank>
260                 

$$$$
untitled-dbase-122937_19
  -OEChem-06232314393D

 33 35  0     1  0  0  0  0  0999 V2000
   -8.1798   14.0837  -34.9816 C   0  0  0  0  0  0  0  0  0  0  0  0
   -8.5994   15.3488  -35.3927 C   0  0  0  0  0  0  0  0  0  0  0  0
   -8.7289   12.9425  -35.5664 C   0  0  0  0  0  0  0  0  0  0  0  0
   -9.5682   15.4728  -36.3885 C   0  0  0  0  0  0  0  0  0  0  0  0
   -9.6978   13.0666  -36.5622 C   0  0  0  0  0  0  0  0  0  0  0  0
  -10.1174   14.3317  -36.9733 C   0  0  0  0  0  0  0  0  0  0  0  0
  -12.9393   16.0161  -37.4579 C   0  0  0  0  0  0  0  0  0  0  0  0
  -11.1722   14.4659  -38.0571 C   0  0  1  0  0  0  0  0  0  0  0  0
  -12.6616   14.5130  -37.6014 C   0  0  2  0  0  0  0  0  0  0  0  0
  -12.4885   16.3331  -38.8866 C   0  0  1  0  0  0  0  0  0  0  0  0
  -11.0353   15.8034  -38.8432 C   0  0  2  0  0  0  0  0  0  0  0  0
  -13.5493   14.1621  -38.8195 C   0  0  2  0  0  0  0  0  0  0  0  0
  -13.4114   15.4106  -39.7144 C   0  0  1  0  0  0  0  0  0  0  0  0
  -10.4457   15.6362  -40.1635 N   0  0  0  0  0  0  0  0  0  0  0  0
  -14.8933   13.9545  -38.4115 O   0  0  0  0  0  0  0  0  0  0  0  0
  -14.6561   16.0593  -39.9312 O   0  0  0  0  0  0  0  0  0  0  0  0
   -7.4244   13.9873  -34.2072 H   0  0  0  0  0  0  0  0  0  0  0  0
   -8.1711   16.2374  -34.9382 H   0  0  0  0  0  0  0  0  0  0  0  0
   -8.4017   11.9574  -35.2474 H   0  0  0  0  0  0  0  0  0  0  0  0
   -9.8892   16.4626  -36.7024 H   0  0  0  0  0  0  0  0  0  0  0  0
  -10.1201   12.1719  -37.0121 H   0  0  0  0  0  0  0  0  0  0  0  0
  -13.9927   16.2493  -37.2706 H   0  0  0  0  0  0  0  0  0  0  0  0
  -12.3244   16.4997  -36.6916 H   0  0  0  0  0  0  0  0  0  0  0  0
  -11.0078   13.5869  -38.7535 H   0  0  0  0  0  0  0  0  0  0  0  0
  -12.8939   13.9315  -36.7050 H   0  0  0  0  0  0  0  0  0  0  0  0
  -12.5682   17.3910  -39.1506 H   0  0  0  0  0  0  0  0  0  0  0  0
  -10.4169   16.5217  -38.2843 H   0  0  0  0  0  0  0  0  0  0  0  0
  -13.1967   13.2581  -39.3267 H   0  0  0  0  0  0  0  0  0  0  0  0
  -12.9795   15.1679  -40.6903 H   0  0  0  0  0  0  0  0  0  0  0  0
  -10.4351   16.5199  -40.6186 H   0  0  0  0  0  0  0  0  0  0  0  0
   -9.5199   15.2912  -40.0536 H   0  0  0  0  0  0  0  0  0  0  0  0
  -15.1951   14.7824  -38.0024 H   0  0  0  0  0  0  0  0  0  0  0  0
  -15.2040   15.4497  -40.4521 H   0  0  0  0  0  0  0  0  0  0  0  0
  1  2  2  0  0  0  0
  1  3  1  0  0  0  0
  2  4  1  0  0  0  0
  3  5  2  0  0  0  0
  4  6  2  0  0  0  0
  5  6  1  0  0  0  0
  6  8  1  6  0  0  0
  7  9  1  6  0  0  0
  7 10  1  6  0  0  0
  8  9  1  0  0  0  0
  8 11  1  0  0  0  0
  9 12  1  0  0  0  0
 10 11  1  0  0  0  0
 10 13  1  0  0  0  0
 11 14  1  1  0  0  0
 12 13  1  0  0  0  0
 12 15  1  6  0  0  0
 13 16  1  6  0  0  0
  1 17  1  0  0  0  0
  2 18  1  0  0  0  0
  3 19  1  0  0  0  0
  4 20  1  0  0  0  0
  5 21  1  0  0  0  0
  7 22  1  0  0  0  0
  7 23  1  0  0  0  0
  8 24  1  0  0  0  0
  9 25  1  0  0  0  0
 10 26  1  0  0  0  0
 11 27  1  0  0  0  0
 12 28  1  0  0  0  0
 13 29  1  0  0  0  0
 14 30  1  0  0  0  0
 14 31  1  0  0  0  0
 15 32  1  0  0  0  0
 16 33  1  0  0  0  0
M  END
> <id>
EN300-7470969

> <smiles>
Cl.N[C@@H]1[C@H]([C@H]2C[C@@H]1[C@H](O)[C@@H]2O)C=3C=CC=CC3 |&1:2,3,4,6,7,9,r|

> <IUPAC Name>
rac-(1R,2R,3S,4S,5R,6R)-5-amino-6-phenylbicyclo[2.2.1]heptane-2,3-diol hydrochloride

> <CAS>
2402789-77-7

> <Purity>
95

> <URL>
https://www.enaminestore.com/catalog/EN300-7470969

> <Saltdate>
Cl

> <ROCS_ShapeQuery>
_x1247relevant_x1083L0AP1_x1305L0BP1_

> <ROCS_TanimotoCombo>
0.831 

> <ROCS_ShapeTanimoto>
0.507 

> <ROCS_ColorTanimoto>
0.325 

> <ROCS_RefTversky>
0.432 

> <ROCS_RefColorTversky>
0.402 

> <ROCS_RefTverskyCombo>
0.834 

> <ROCS_FitTversky>
1.520 

> <ROCS_FitColorTversky>
0.628 

> <ROCS_FitTverskyCombo>
2.148 

> <ROCS_ColorScore>
-8.612

> <ROCS_Overlap>
1272.674

> <ROCS_Rank>
261                 

$$$$
untitled-dbase-100315_19
  -OEChem-06232314393D

 33 35  0     1  0  0  0  0  0999 V2000
   -8.1798   14.0837  -34.9816 C   0  0  0  0  0  0  0  0  0  0  0  0
   -8.5994   15.3488  -35.3927 C   0  0  0  0  0  0  0  0  0  0  0  0
   -8.7289   12.9425  -35.5664 C   0  0  0  0  0  0  0  0  0  0  0  0
   -9.5682   15.4728  -36.3885 C   0  0  0  0  0  0  0  0  0  0  0  0
   -9.6978   13.0666  -36.5622 C   0  0  0  0  0  0  0  0  0  0  0  0
  -10.1174   14.3317  -36.9733 C   0  0  0  0  0  0  0  0  0  0  0  0
  -12.9393   16.0161  -37.4579 C   0  0  0  0  0  0  0  0  0  0  0  0
  -11.1722   14.4659  -38.0571 C   0  0  1  0  0  0  0  0  0  0  0  0
  -12.6616   14.5130  -37.6014 C   0  0  2  0  0  0  0  0  0  0  0  0
  -12.4885   16.3331  -38.8866 C   0  0  1  0  0  0  0  0  0  0  0  0
  -11.0353   15.8034  -38.8432 C   0  0  2  0  0  0  0  0  0  0  0  0
  -13.5493   14.1621  -38.8195 C   0  0  2  0  0  0  0  0  0  0  0  0
  -13.4114   15.4106  -39.7144 C   0  0  1  0  0  0  0  0  0  0  0  0
  -10.4457   15.6362  -40.1635 N   0  0  0  0  0  0  0  0  0  0  0  0
  -14.8933   13.9545  -38.4115 O   0  0  0  0  0  0  0  0  0  0  0  0
  -14.6561   16.0593  -39.9312 O   0  0  0  0  0  0  0  0  0  0  0  0
   -7.4244   13.9873  -34.2072 H   0  0  0  0  0  0  0  0  0  0  0  0
   -8.1711   16.2374  -34.9382 H   0  0  0  0  0  0  0  0  0  0  0  0
   -8.4017   11.9574  -35.2474 H   0  0  0  0  0  0  0  0  0  0  0  0
   -9.8892   16.4626  -36.7024 H   0  0  0  0  0  0  0  0  0  0  0  0
  -10.1201   12.1719  -37.0121 H   0  0  0  0  0  0  0  0  0  0  0  0
  -13.9927   16.2493  -37.2706 H   0  0  0  0  0  0  0  0  0  0  0  0
  -12.3244   16.4997  -36.6916 H   0  0  0  0  0  0  0  0  0  0  0  0
  -11.0078   13.5869  -38.7535 H   0  0  0  0  0  0  0  0  0  0  0  0
  -12.8939   13.9315  -36.7050 H   0  0  0  0  0  0  0  0  0  0  0  0
  -12.5682   17.3910  -39.1506 H   0  0  0  0  0  0  0  0  0  0  0  0
  -10.4169   16.5217  -38.2843 H   0  0  0  0  0  0  0  0  0  0  0  0
  -13.1967   13.2581  -39.3267 H   0  0  0  0  0  0  0  0  0  0  0  0
  -12.9795   15.1679  -40.6903 H   0  0  0  0  0  0  0  0  0  0  0  0
  -10.4351   16.5199  -40.6186 H   0  0  0  0  0  0  0  0  0  0  0  0
   -9.5199   15.2912  -40.0536 H   0  0  0  0  0  0  0  0  0  0  0  0
  -15.1951   14.7824  -38.0024 H   0  0  0  0  0  0  0  0  0  0  0  0
  -15.2040   15.4497  -40.4521 H   0  0  0  0  0  0  0  0  0  0  0  0
  1  2  2  0  0  0  0
  1  3  1  0  0  0  0
  2  4  1  0  0  0  0
  3  5  2  0  0  0  0
  4  6  2  0  0  0  0
  5  6  1  0  0  0  0
  6  8  1  6  0  0  0
  7  9  1  6  0  0  0
  7 10  1  6  0  0  0
  8  9  1  0  0  0  0
  8 11  1  0  0  0  0
  9 12  1  0  0  0  0
 10 11  1  0  0  0  0
 10 13  1  0  0  0  0
 11 14  1  1  0  0  0
 12 13  1  0  0  0  0
 12 15  1  6  0  0  0
 13 16  1  6  0  0  0
  1 17  1  0  0  0  0
  2 18  1  0  0  0  0
  3 19  1  0  0  0  0
  4 20  1  0  0  0  0
  5 21  1  0  0  0  0
  7 22  1  0  0  0  0
  7 23  1  0  0  0  0
  8 24  1  0  0  0  0
  9 25  1  0  0  0  0
 10 26  1  0  0  0  0
 11 27  1  0  0  0  0
 12 28  1  0  0  0  0
 13 29  1  0  0  0  0
 14 30  1  0  0  0  0
 14 31  1  0  0  0  0
 15 32  1  0  0  0  0
 16 33  1  0  0  0  0
M  END
> <id>
EN300-7470970

> <smiles>
N[C@@H]1[C@H]([C@H]2C[C@@H]1[C@H](O)[C@@H]2O)C=3C=CC=CC3 |&1:1,2,3,5,6,8,r|

> <IUPAC Name>
rac-(1R,2R,3S,4S,5R,6R)-5-amino-6-phenylbicyclo[2.2.1]heptane-2,3-diol

> <CAS>
2402789-76-6

> <URL>
https://www.enaminestore.com/catalog/EN300-7470970

> <ROCS_ShapeQuery>
_x1247relevant_x1083L0AP1_x1305L0BP1_

> <ROCS_TanimotoCombo>
0.831 

> <ROCS_ShapeTanimoto>
0.507 

> <ROCS_ColorTanimoto>
0.325 

> <ROCS_RefTversky>
0.432 

> <ROCS_RefColorTversky>
0.402 

> <ROCS_RefTverskyCombo>
0.834 

> <ROCS_FitTversky>
1.520 

> <ROCS_FitColorTversky>
0.628 

> <ROCS_FitTverskyCombo>
2.148 

> <ROCS_ColorScore>
-8.612

> <ROCS_Overlap>
1272.674

> <ROCS_Rank>
262                 

$$$$
untitled-dbase-68088_2
  -OEChem-06232314393D

 33 35  0     1  0  0  0  0  0999 V2000
  -10.0510   15.2910  -36.5770 C   0  0  0  0  0  0  0  0  0  0  0  0
  -12.0209   14.4281  -39.8184 C   0  0  0  0  0  0  0  0  0  0  0  0
  -13.4586   13.8969  -37.8128 C   0  0  0  0  0  0  0  0  0  0  0  0
  -13.8853   15.9648  -39.1611 C   0  0  0  0  0  0  0  0  0  0  0  0
  -11.4925   16.6639  -38.8449 C   0  0  0  0  0  0  0  0  0  0  0  0
  -12.9309   16.1375  -36.8444 C   0  0  0  0  0  0  0  0  0  0  0  0
  -13.4430   14.4929  -39.2324 C   0  0  0  0  0  0  0  0  0  0  0  0
  -11.0316   15.1866  -38.9039 C   0  0  1  0  0  0  0  0  0  0  0  0
  -12.4710   14.6605  -36.9014 C   0  0  2  0  0  0  0  0  0  0  0  0
  -11.0307   14.5751  -37.4758 C   0  0  0  0  0  0  0  0  0  0  0  0
  -12.9173   16.7589  -38.2576 C   0  0  0  0  0  0  0  0  0  0  0  0
  -10.5280   13.1971  -37.4726 N   0  0  0  0  0  0  0  0  0  0  0  0
  -13.3481   18.1543  -38.1871 N   0  0  0  0  0  0  0  0  0  0  0  0
   -9.3450   16.2295  -36.9149 O   0  0  0  0  0  0  0  0  0  0  0  0
  -10.0561   14.7483  -35.3350 O   0  0  0  0  0  0  0  0  0  0  0  0
  -11.7130   13.3837  -39.9436 H   0  0  0  0  0  0  0  0  0  0  0  0
  -12.0121   14.8714  -40.8224 H   0  0  0  0  0  0  0  0  0  0  0  0
  -14.4716   13.9649  -37.3957 H   0  0  0  0  0  0  0  0  0  0  0  0
  -13.2187   12.8289  -37.8486 H   0  0  0  0  0  0  0  0  0  0  0  0
  -13.9072   16.3916  -40.1726 H   0  0  0  0  0  0  0  0  0  0  0  0
  -14.9109   16.0233  -38.7731 H   0  0  0  0  0  0  0  0  0  0  0  0
  -10.7885   17.2561  -38.2466 H   0  0  0  0  0  0  0  0  0  0  0  0
  -11.4679   17.0920  -39.8564 H   0  0  0  0  0  0  0  0  0  0  0  0
  -13.9417   16.1862  -36.4172 H   0  0  0  0  0  0  0  0  0  0  0  0
  -12.2855   16.7089  -36.1652 H   0  0  0  0  0  0  0  0  0  0  0  0
  -14.1329   13.9343  -39.8748 H   0  0  0  0  0  0  0  0  0  0  0  0
  -10.0260   15.1493  -39.3417 H   0  0  0  0  0  0  0  0  0  0  0  0
  -12.5082   14.2401  -35.8884 H   0  0  0  0  0  0  0  0  0  0  0  0
   -9.6043   13.2094  -37.8297 H   0  0  0  0  0  0  0  0  0  0  0  0
  -10.5433   12.8706  -36.5375 H   0  0  0  0  0  0  0  0  0  0  0  0
  -13.3402   18.5268  -39.1064 H   0  0  0  0  0  0  0  0  0  0  0  0
  -14.2640   18.1753  -37.8066 H   0  0  0  0  0  0  0  0  0  0  0  0
   -9.4237   15.1991  -34.7356 H   0  0  0  0  0  0  0  0  0  0  0  0
  1 10  1  0  0  0  0
  1 14  2  0  0  0  0
  1 15  1  0  0  0  0
  2  7  1  0  0  0  0
  2  8  1  0  0  0  0
  3  7  1  0  0  0  0
  3  9  1  0  0  0  0
  4  7  1  0  0  0  0
  4 11  1  0  0  0  0
  5  8  1  0  0  0  0
  5 11  1  0  0  0  0
  6  9  1  0  0  0  0
  6 11  1  0  0  0  0
  8 10  1  0  0  0  0
  9 10  1  0  0  0  0
 10 12  1  6  0  0  0
 11 13  1  1  0  0  0
  2 16  1  0  0  0  0
  2 17  1  0  0  0  0
  3 18  1  0  0  0  0
  3 19  1  0  0  0  0
  4 20  1  0  0  0  0
  4 21  1  0  0  0  0
  5 22  1  0  0  0  0
  5 23  1  0  0  0  0
  6 24  1  0  0  0  0
  6 25  1  0  0  0  0
  7 26  1  0  0  0  0
  8 27  1  0  0  0  0
  9 28  1  0  0  0  0
 12 29  1  0  0  0  0
 12 30  1  0  0  0  0
 13 31  1  0  0  0  0
 13 32  1  0  0  0  0
 15 33  1  0  0  0  0
M  END
> <id>
EN300-88877

> <smiles>
Cl.Cl.N[C@]1(C2CC3CC1C[C@](N)(C3)C2)C(=O)O

> <IUPAC Name>
(2s,5r)-2,5-diaminoadamantane-2-carboxylic acid dihydrochloride

> <URL>
https://www.enaminestore.com/catalog/EN300-88877

> <Saltdate>
Cl

> <ROCS_ShapeQuery>
_x1247relevant_x1083L0AP1_x1305L0BP1_

> <ROCS_TanimotoCombo>
0.831 

> <ROCS_ShapeTanimoto>
0.501 

> <ROCS_ColorTanimoto>
0.330 

> <ROCS_RefTversky>
0.425 

> <ROCS_RefColorTversky>
0.409 

> <ROCS_RefTverskyCombo>
0.834 

> <ROCS_FitTversky>
1.557 

> <ROCS_FitColorTversky>
0.632 

> <ROCS_FitTverskyCombo>
2.189 

> <ROCS_ColorScore>
-8.769

> <ROCS_Overlap>
1250.695

> <ROCS_Rank>
263                 

$$$$
untitled-dbase-10274_2
  -OEChem-06232314393D

 33 35  0     1  0  0  0  0  0999 V2000
  -10.0510   15.2910  -36.5770 C   0  0  0  0  0  0  0  0  0  0  0  0
  -12.0209   14.4281  -39.8184 C   0  0  0  0  0  0  0  0  0  0  0  0
  -13.4586   13.8969  -37.8128 C   0  0  0  0  0  0  0  0  0  0  0  0
  -13.8853   15.9648  -39.1611 C   0  0  0  0  0  0  0  0  0  0  0  0
  -11.4925   16.6639  -38.8449 C   0  0  0  0  0  0  0  0  0  0  0  0
  -12.9309   16.1375  -36.8444 C   0  0  0  0  0  0  0  0  0  0  0  0
  -13.4430   14.4929  -39.2324 C   0  0  0  0  0  0  0  0  0  0  0  0
  -11.0316   15.1866  -38.9039 C   0  0  1  0  0  0  0  0  0  0  0  0
  -12.4710   14.6605  -36.9014 C   0  0  2  0  0  0  0  0  0  0  0  0
  -11.0307   14.5751  -37.4758 C   0  0  0  0  0  0  0  0  0  0  0  0
  -12.9173   16.7589  -38.2576 C   0  0  0  0  0  0  0  0  0  0  0  0
  -10.5280   13.1971  -37.4726 N   0  0  0  0  0  0  0  0  0  0  0  0
  -13.3481   18.1543  -38.1871 N   0  0  0  0  0  0  0  0  0  0  0  0
   -9.3450   16.2295  -36.9149 O   0  0  0  0  0  0  0  0  0  0  0  0
  -10.0561   14.7483  -35.3350 O   0  0  0  0  0  0  0  0  0  0  0  0
  -11.7130   13.3837  -39.9436 H   0  0  0  0  0  0  0  0  0  0  0  0
  -12.0121   14.8714  -40.8224 H   0  0  0  0  0  0  0  0  0  0  0  0
  -14.4716   13.9649  -37.3957 H   0  0  0  0  0  0  0  0  0  0  0  0
  -13.2187   12.8289  -37.8486 H   0  0  0  0  0  0  0  0  0  0  0  0
  -13.9072   16.3916  -40.1726 H   0  0  0  0  0  0  0  0  0  0  0  0
  -14.9109   16.0233  -38.7731 H   0  0  0  0  0  0  0  0  0  0  0  0
  -10.7885   17.2561  -38.2466 H   0  0  0  0  0  0  0  0  0  0  0  0
  -11.4679   17.0920  -39.8564 H   0  0  0  0  0  0  0  0  0  0  0  0
  -13.9417   16.1862  -36.4172 H   0  0  0  0  0  0  0  0  0  0  0  0
  -12.2855   16.7089  -36.1652 H   0  0  0  0  0  0  0  0  0  0  0  0
  -14.1329   13.9343  -39.8748 H   0  0  0  0  0  0  0  0  0  0  0  0
  -10.0260   15.1493  -39.3417 H   0  0  0  0  0  0  0  0  0  0  0  0
  -12.5082   14.2401  -35.8884 H   0  0  0  0  0  0  0  0  0  0  0  0
   -9.6043   13.2094  -37.8297 H   0  0  0  0  0  0  0  0  0  0  0  0
  -10.5433   12.8706  -36.5375 H   0  0  0  0  0  0  0  0  0  0  0  0
  -13.3402   18.5268  -39.1064 H   0  0  0  0  0  0  0  0  0  0  0  0
  -14.2640   18.1753  -37.8066 H   0  0  0  0  0  0  0  0  0  0  0  0
   -9.4237   15.1991  -34.7356 H   0  0  0  0  0  0  0  0  0  0  0  0
  1 10  1  0  0  0  0
  1 14  2  0  0  0  0
  1 15  1  0  0  0  0
  2  7  1  0  0  0  0
  2  8  1  0  0  0  0
  3  7  1  0  0  0  0
  3  9  1  0  0  0  0
  4  7  1  0  0  0  0
  4 11  1  0  0  0  0
  5  8  1  0  0  0  0
  5 11  1  0  0  0  0
  6  9  1  0  0  0  0
  6 11  1  0  0  0  0
  8 10  1  0  0  0  0
  9 10  1  0  0  0  0
 10 12  1  6  0  0  0
 11 13  1  1  0  0  0
  2 16  1  0  0  0  0
  2 17  1  0  0  0  0
  3 18  1  0  0  0  0
  3 19  1  0  0  0  0
  4 20  1  0  0  0  0
  4 21  1  0  0  0  0
  5 22  1  0  0  0  0
  5 23  1  0  0  0  0
  6 24  1  0  0  0  0
  6 25  1  0  0  0  0
  7 26  1  0  0  0  0
  8 27  1  0  0  0  0
  9 28  1  0  0  0  0
 12 29  1  0  0  0  0
 12 30  1  0  0  0  0
 13 31  1  0  0  0  0
 13 32  1  0  0  0  0
 15 33  1  0  0  0  0
M  END
> <id>
EN300-149699

> <smiles>
N[C@]1(C2CC3CC1C[C@](N)(C3)C2)C(=O)O

> <IUPAC Name>
(2s,5r)-2,5-diaminoadamantane-2-carboxylic acid

> <URL>
https://www.enaminestore.com/catalog/EN300-149699

> <ROCS_ShapeQuery>
_x1247relevant_x1083L0AP1_x1305L0BP1_

> <ROCS_TanimotoCombo>
0.831 

> <ROCS_ShapeTanimoto>
0.501 

> <ROCS_ColorTanimoto>
0.330 

> <ROCS_RefTversky>
0.425 

> <ROCS_RefColorTversky>
0.409 

> <ROCS_RefTverskyCombo>
0.834 

> <ROCS_FitTversky>
1.557 

> <ROCS_FitColorTversky>
0.632 

> <ROCS_FitTverskyCombo>
2.189 

> <ROCS_ColorScore>
-8.769

> <ROCS_Overlap>
1250.695

> <ROCS_Rank>
264                 

$$$$
untitled-dbase-20888_2
  -OEChem-06232314393D

 33 35  0     1  0  0  0  0  0999 V2000
  -10.0512   15.2913  -36.5771 C   0  0  0  0  0  0  0  0  0  0  0  0
  -12.0210   14.4286  -39.8187 C   0  0  0  0  0  0  0  0  0  0  0  0
  -13.4585   13.8965  -37.8133 C   0  0  0  0  0  0  0  0  0  0  0  0
  -13.8854   15.9650  -39.1610 C   0  0  0  0  0  0  0  0  0  0  0  0
  -11.4927   16.6642  -38.8444 C   0  0  0  0  0  0  0  0  0  0  0  0
  -12.9311   16.1369  -36.8441 C   0  0  0  0  0  0  0  0  0  0  0  0
  -13.4431   14.4931  -39.2327 C   0  0  0  0  0  0  0  0  0  0  0  0
  -11.0317   15.1870  -38.9040 C   0  0  1  0  0  0  0  0  0  0  0  0
  -12.4709   14.6600  -36.9016 C   0  0  2  0  0  0  0  0  0  0  0  0
  -11.0305   14.5751  -37.4762 C   0  0  0  0  0  0  0  0  0  0  0  0
  -12.9176   16.7588  -38.2570 C   0  0  0  0  0  0  0  0  0  0  0  0
  -10.5278   13.1972  -37.4725 N   0  0  0  0  0  0  0  0  0  0  0  0
  -13.3483   18.1542  -38.1860 N   0  0  0  0  0  0  0  0  0  0  0  0
   -9.3458   16.2303  -36.9147 O   0  0  0  0  0  0  0  0  0  0  0  0
  -10.0561   14.7482  -35.3352 O   0  0  0  0  0  0  0  0  0  0  0  0
  -11.7129   13.3847  -39.9446 H   0  0  0  0  0  0  0  0  0  0  0  0
  -12.0125   14.8726  -40.8224 H   0  0  0  0  0  0  0  0  0  0  0  0
  -14.4714   13.9643  -37.3960 H   0  0  0  0  0  0  0  0  0  0  0  0
  -13.2183   12.8285  -37.8492 H   0  0  0  0  0  0  0  0  0  0  0  0
  -13.9072   16.3923  -40.1723 H   0  0  0  0  0  0  0  0  0  0  0  0
  -14.9112   16.0234  -38.7731 H   0  0  0  0  0  0  0  0  0  0  0  0
  -10.7889   17.2561  -38.2458 H   0  0  0  0  0  0  0  0  0  0  0  0
  -11.4681   17.0928  -39.8556 H   0  0  0  0  0  0  0  0  0  0  0  0
  -13.9420   16.1853  -36.4166 H   0  0  0  0  0  0  0  0  0  0  0  0
  -12.2858   16.7081  -36.1647 H   0  0  0  0  0  0  0  0  0  0  0  0
  -14.1329   13.9345  -39.8753 H   0  0  0  0  0  0  0  0  0  0  0  0
  -10.0262   15.1499  -39.3420 H   0  0  0  0  0  0  0  0  0  0  0  0
  -12.5084   14.2395  -35.8888 H   0  0  0  0  0  0  0  0  0  0  0  0
   -9.6039   13.2095  -37.8293 H   0  0  0  0  0  0  0  0  0  0  0  0
  -10.5434   12.8708  -36.5374 H   0  0  0  0  0  0  0  0  0  0  0  0
  -13.3402   18.5272  -39.1051 H   0  0  0  0  0  0  0  0  0  0  0  0
  -14.2642   18.1752  -37.8056 H   0  0  0  0  0  0  0  0  0  0  0  0
   -9.4240   15.1991  -34.7357 H   0  0  0  0  0  0  0  0  0  0  0  0
  1 10  1  0  0  0  0
  1 14  2  0  0  0  0
  1 15  1  0  0  0  0
  2  7  1  0  0  0  0
  2  8  1  0  0  0  0
  3  7  1  0  0  0  0
  3  9  1  0  0  0  0
  4  7  1  0  0  0  0
  4 11  1  0  0  0  0
  5  8  1  0  0  0  0
  5 11  1  0  0  0  0
  6  9  1  0  0  0  0
  6 11  1  0  0  0  0
  8 10  1  0  0  0  0
  9 10  1  0  0  0  0
 10 12  1  0  0  0  0
 11 13  1  0  0  0  0
  2 16  1  0  0  0  0
  2 17  1  0  0  0  0
  3 18  1  0  0  0  0
  3 19  1  0  0  0  0
  4 20  1  0  0  0  0
  4 21  1  0  0  0  0
  5 22  1  0  0  0  0
  5 23  1  0  0  0  0
  6 24  1  0  0  0  0
  6 25  1  0  0  0  0
  7 26  1  0  0  0  0
  8 27  1  0  0  0  0
  9 28  1  0  0  0  0
 12 29  1  0  0  0  0
 12 30  1  0  0  0  0
 13 31  1  0  0  0  0
 13 32  1  0  0  0  0
 15 33  1  0  0  0  0
M  END
> <id>
EN300-295715

> <smiles>
Cl.Cl.NC1(C2CC3CC1CC(N)(C3)C2)C(=O)O

> <IUPAC Name>
2,5-diaminoadamantane-2-carboxylic acid dihydrochloride

> <CAS>
1822968-49-9

> <URL>
https://www.enaminestore.com/catalog/EN300-295715

> <Saltdate>
Cl

> <ROCS_ShapeQuery>
_x1247relevant_x1083L0AP1_x1305L0BP1_

> <ROCS_TanimotoCombo>
0.831 

> <ROCS_ShapeTanimoto>
0.501 

> <ROCS_ColorTanimoto>
0.330 

> <ROCS_RefTversky>
0.425 

> <ROCS_RefColorTversky>
0.409 

> <ROCS_RefTverskyCombo>
0.834 

> <ROCS_FitTversky>
1.557 

> <ROCS_FitColorTversky>
0.632 

> <ROCS_FitTverskyCombo>
2.189 

> <ROCS_ColorScore>
-8.768

> <ROCS_Overlap>
1250.686

> <ROCS_Rank>
265                 

$$$$
untitled-dbase-77523_30
  -OEChem-06232314393D

 40 41  0     1  0  0  0  0  0999 V2000
   -9.1237   14.4933  -37.6531 C   0  0  0  0  0  0  0  0  0  0  0  0
  -13.3864   16.0629  -37.3816 C   0  0  0  0  0  0  0  0  0  0  0  0
  -12.8573   13.7500  -37.4922 C   0  0  0  0  0  0  0  0  0  0  0  0
  -11.9793   15.9438  -39.3024 C   0  0  0  0  0  0  0  0  0  0  0  0
  -13.7701   14.7951  -38.1593 C   0  0  2  0  0  0  0  0  0  0  0  0
  -11.9070   15.9525  -37.7585 C   0  0  2  0  0  0  0  0  0  0  0  0
  -11.5726   14.5493  -37.2052 C   0  0  2  0  0  0  0  0  0  0  0  0
  -13.2769   15.1560  -39.5836 C   0  0  2  0  0  0  0  0  0  0  0  0
  -13.0761   13.9857  -40.5374 C   0  0  0  0  0  0  0  0  0  0  0  0
   -7.7055   12.9799  -36.0582 C   0  0  0  0  0  0  0  0  0  0  0  0
   -6.7701   11.8105  -38.0748 C   0  0  0  0  0  0  0  0  0  0  0  0
   -5.9909   14.1278  -37.4994 C   0  0  0  0  0  0  0  0  0  0  0  0
   -7.1715   13.1580  -37.4787 C   0  0  0  0  0  0  0  0  0  0  0  0
  -10.3943   13.9553  -37.7684 N   0  0  0  0  0  0  0  0  0  0  0  0
   -8.8427   15.5318  -37.0638 O   0  0  0  0  0  0  0  0  0  0  0  0
  -14.2244   16.0433  -40.1860 O   0  0  0  0  0  0  0  0  0  0  0  0
   -8.2180   13.6962  -38.2947 O   0  0  0  0  0  0  0  0  0  0  0  0
  -13.8633   16.9737  -37.7583 H   0  0  0  0  0  0  0  0  0  0  0  0
  -13.5669   15.9796  -36.3043 H   0  0  0  0  0  0  0  0  0  0  0  0
  -13.2974   13.4146  -36.5449 H   0  0  0  0  0  0  0  0  0  0  0  0
  -12.6987   12.8584  -38.1046 H   0  0  0  0  0  0  0  0  0  0  0  0
  -12.0517   16.9716  -39.6781 H   0  0  0  0  0  0  0  0  0  0  0  0
  -11.0918   15.4860  -39.7497 H   0  0  0  0  0  0  0  0  0  0  0  0
  -14.8347   14.5539  -38.1060 H   0  0  0  0  0  0  0  0  0  0  0  0
  -11.2672   16.7421  -37.3579 H   0  0  0  0  0  0  0  0  0  0  0  0
  -11.4086   14.6011  -36.1222 H   0  0  0  0  0  0  0  0  0  0  0  0
  -14.0222   13.4685  -40.6982 H   0  0  0  0  0  0  0  0  0  0  0  0
  -12.3557   13.2825  -40.1190 H   0  0  0  0  0  0  0  0  0  0  0  0
  -12.7026   14.3456  -41.4964 H   0  0  0  0  0  0  0  0  0  0  0  0
   -7.9947   13.9448  -35.6268 H   0  0  0  0  0  0  0  0  0  0  0  0
   -8.5742   12.3139  -36.0343 H   0  0  0  0  0  0  0  0  0  0  0  0
   -6.9337   12.5656  -35.3994 H   0  0  0  0  0  0  0  0  0  0  0  0
   -6.3864   11.9335  -39.0941 H   0  0  0  0  0  0  0  0  0  0  0  0
   -7.6364   11.1432  -38.1496 H   0  0  0  0  0  0  0  0  0  0  0  0
   -6.0018   11.3151  -37.4726 H   0  0  0  0  0  0  0  0  0  0  0  0
   -5.6077   14.2557  -38.5183 H   0  0  0  0  0  0  0  0  0  0  0  0
   -6.2704   15.1118  -37.1092 H   0  0  0  0  0  0  0  0  0  0  0  0
   -5.1577   13.7402  -36.9021 H   0  0  0  0  0  0  0  0  0  0  0  0
  -10.4991   13.0825  -38.2858 H   0  0  0  0  0  0  0  0  0  0  0  0
  -15.0216   15.5184  -40.3476 H   0  0  0  0  0  0  0  0  0  0  0  0
  1 14  1  0  0  0  0
  1 15  2  0  0  0  0
  1 17  1  0  0  0  0
  2  5  1  0  0  0  0
  2  6  1  0  0  0  0
  3  5  1  1  0  0  0
  3  7  1  0  0  0  0
  4  6  1  1  0  0  0
  4  8  1  0  0  0  0
  5  8  1  0  0  0  0
  6  7  1  0  0  0  0
  7 14  1  1  0  0  0
  8  9  1  1  0  0  0
  8 16  1  0  0  0  0
 10 13  1  0  0  0  0
 11 13  1  0  0  0  0
 12 13  1  0  0  0  0
 13 17  1  0  0  0  0
  2 18  1  0  0  0  0
  2 19  1  0  0  0  0
  3 20  1  0  0  0  0
  3 21  1  0  0  0  0
  4 22  1  0  0  0  0
  4 23  1  0  0  0  0
  5 24  1  0  0  0  0
  6 25  1  0  0  0  0
  7 26  1  0  0  0  0
  9 27  1  0  0  0  0
  9 28  1  0  0  0  0
  9 29  1  0  0  0  0
 10 30  1  0  0  0  0
 10 31  1  0  0  0  0
 10 32  1  0  0  0  0
 11 33  1  0  0  0  0
 11 34  1  0  0  0  0
 11 35  1  0  0  0  0
 12 36  1  0  0  0  0
 12 37  1  0  0  0  0
 12 38  1  0  0  0  0
 14 39  1  0  0  0  0
 16 40  1  0  0  0  0
M  END
> <id>
EN300-7457221

> <smiles>
CC(C)(C)OC(=O)N[C@@H]1C[C@H]2C[C@@H]1C[C@]2(C)O |&1:8,10,12,14,r|

> <IUPAC Name>
rac-tert-butyl N-[(1R,2R,4R,5S)-5-hydroxy-5-methylbicyclo[2.2.1]heptan-2-yl]carbamate

> <CAS>
2408938-09-8

> <URL>
https://www.enaminestore.com/catalog/EN300-7457221

> <ROCS_ShapeQuery>
_x1247relevant_x1083L0AP1_x1305L0BP1_

> <ROCS_TanimotoCombo>
0.831 

> <ROCS_ShapeTanimoto>
0.450 

> <ROCS_ColorTanimoto>
0.381 

> <ROCS_RefTversky>
0.401 

> <ROCS_RefColorTversky>
0.429 

> <ROCS_RefTverskyCombo>
0.830 

> <ROCS_FitTversky>
1.369 

> <ROCS_FitColorTversky>
0.774 

> <ROCS_FitTverskyCombo>
2.143 

> <ROCS_ColorScore>
-9.144

> <ROCS_Overlap>
1182.981

> <ROCS_Rank>
266                 

$$$$
untitled-dbase-125173_8
  -OEChem-06232314393D

 34 36  0     1  0  0  0  0  0999 V2000
   -9.0981   14.5447  -36.9172 C   0  0  0  0  0  0  0  0  0  0  0  0
  -14.0601   14.5883  -37.6153 C   0  0  0  0  0  0  0  0  0  0  0  0
  -12.9873   16.8526  -37.7460 C   0  0  0  0  0  0  0  0  0  0  0  0
  -11.7493   14.9357  -36.7111 C   0  0  0  0  0  0  0  0  0  0  0  0
  -12.0932   13.5837  -38.7950 C   0  0  0  0  0  0  0  0  0  0  0  0
  -11.0169   15.8556  -38.9261 C   0  0  0  0  0  0  0  0  0  0  0  0
  -13.1326   15.5805  -36.8931 C   0  0  0  0  0  0  0  0  0  0  0  0
  -13.4793   14.2236  -38.9965 C   0  0  2  0  0  0  0  0  0  0  0  0
  -12.3989   16.5039  -39.1281 C   0  0  1  0  0  0  0  0  0  0  0  0
  -13.3107   15.4937  -39.8607 C   0  0  0  0  0  0  0  0  0  0  0  0
  -11.1537   14.5744  -38.0823 C   0  0  0  0  0  0  0  0  0  0  0  0
   -8.7771   13.5263  -35.8656 C   0  0  0  0  0  0  0  0  0  0  0  0
  -14.6091   16.0904  -40.1792 N   0  0  0  0  0  0  0  0  0  0  0  0
   -8.7095   15.7046  -36.8891 O   0  0  0  0  0  0  0  0  0  0  0  0
   -9.8776   13.9809  -37.8900 O   0  0  0  0  0  0  0  0  0  0  0  0
  -14.1736   13.6796  -37.0105 H   0  0  0  0  0  0  0  0  0  0  0  0
  -15.0631   15.0184  -37.7195 H   0  0  0  0  0  0  0  0  0  0  0  0
  -13.9603   17.3460  -37.8540 H   0  0  0  0  0  0  0  0  0  0  0  0
  -12.3309   17.5682  -37.2349 H   0  0  0  0  0  0  0  0  0  0  0  0
  -11.0763   15.6169  -36.1743 H   0  0  0  0  0  0  0  0  0  0  0  0
  -11.8240   14.0384  -36.0831 H   0  0  0  0  0  0  0  0  0  0  0  0
  -12.1789   12.6585  -38.2105 H   0  0  0  0  0  0  0  0  0  0  0  0
  -11.6655   13.2848  -39.7608 H   0  0  0  0  0  0  0  0  0  0  0  0
  -10.5583   15.6224  -39.8957 H   0  0  0  0  0  0  0  0  0  0  0  0
  -10.3310   16.5586  -38.4358 H   0  0  0  0  0  0  0  0  0  0  0  0
  -13.5533   15.8363  -35.9143 H   0  0  0  0  0  0  0  0  0  0  0  0
  -14.1399   13.5050  -39.4967 H   0  0  0  0  0  0  0  0  0  0  0  0
  -12.2858   17.4185  -39.7224 H   0  0  0  0  0  0  0  0  0  0  0  0
  -12.8406   15.2160  -40.8132 H   0  0  0  0  0  0  0  0  0  0  0  0
   -9.5423   13.5447  -35.0857 H   0  0  0  0  0  0  0  0  0  0  0  0
   -7.7901   13.7289  -35.4421 H   0  0  0  0  0  0  0  0  0  0  0  0
   -8.7637   12.5302  -36.3175 H   0  0  0  0  0  0  0  0  0  0  0  0
  -14.4498   16.8863  -40.7484 H   0  0  0  0  0  0  0  0  0  0  0  0
  -15.1476   15.4125  -40.6623 H   0  0  0  0  0  0  0  0  0  0  0  0
  1 12  1  0  0  0  0
  1 14  2  0  0  0  0
  1 15  1  0  0  0  0
  2  7  1  0  0  0  0
  2  8  1  0  0  0  0
  3  7  1  0  0  0  0
  3  9  1  0  0  0  0
  4  7  1  0  0  0  0
  4 11  1  0  0  0  0
  5  8  1  0  0  0  0
  5 11  1  0  0  0  0
  6  9  1  0  0  0  0
  6 11  1  0  0  0  0
  8 10  1  0  0  0  0
  9 10  1  0  0  0  0
 10 13  1  0  0  0  0
 11 15  1  0  0  0  0
  2 16  1  0  0  0  0
  2 17  1  0  0  0  0
  3 18  1  0  0  0  0
  3 19  1  0  0  0  0
  4 20  1  0  0  0  0
  4 21  1  0  0  0  0
  5 22  1  0  0  0  0
  5 23  1  0  0  0  0
  6 24  1  0  0  0  0
  6 25  1  0  0  0  0
  7 26  1  0  0  0  0
  8 27  1  0  0  0  0
  9 28  1  0  0  0  0
 10 29  1  0  0  0  0
 12 30  1  0  0  0  0
 12 31  1  0  0  0  0
 12 32  1  0  0  0  0
 13 33  1  0  0  0  0
 13 34  1  0  0  0  0
M  END
> <id>
EN300-199094

> <smiles>
CC(=O)OC1(CC2CC3C1)CC(C2)C3N

> <MDLNUMBER>
MFCD24626764

> <IUPAC Name>
4-aminoadamantan-1-yl acetate

> <CAS>
868604-77-7

> <URL>
https://www.enaminestore.com/catalog/EN300-199094

> <ROCS_ShapeQuery>
_x1247relevant_x1083L0AP1_x1305L0BP1_

> <ROCS_TanimotoCombo>
0.831 

> <ROCS_ShapeTanimoto>
0.519 

> <ROCS_ColorTanimoto>
0.312 

> <ROCS_RefTversky>
0.434 

> <ROCS_RefColorTversky>
0.351 

> <ROCS_RefTverskyCombo>
0.785 

> <ROCS_FitTversky>
1.604 

> <ROCS_FitColorTversky>
0.738 

> <ROCS_FitTverskyCombo>
2.342 

> <ROCS_ColorScore>
-7.446

> <ROCS_Overlap>
1278.850

> <ROCS_Rank>
267                 

$$$$
untitled-dbase-16724_8
  -OEChem-06232314393D

 34 36  0     1  0  0  0  0  0999 V2000
   -9.0981   14.5447  -36.9172 C   0  0  0  0  0  0  0  0  0  0  0  0
  -14.0601   14.5883  -37.6153 C   0  0  0  0  0  0  0  0  0  0  0  0
  -12.9873   16.8526  -37.7460 C   0  0  0  0  0  0  0  0  0  0  0  0
  -11.7493   14.9357  -36.7111 C   0  0  0  0  0  0  0  0  0  0  0  0
  -12.0932   13.5837  -38.7950 C   0  0  0  0  0  0  0  0  0  0  0  0
  -11.0169   15.8556  -38.9261 C   0  0  0  0  0  0  0  0  0  0  0  0
  -13.1326   15.5805  -36.8931 C   0  0  0  0  0  0  0  0  0  0  0  0
  -13.4793   14.2236  -38.9965 C   0  0  2  0  0  0  0  0  0  0  0  0
  -12.3989   16.5039  -39.1281 C   0  0  1  0  0  0  0  0  0  0  0  0
  -13.3107   15.4937  -39.8607 C   0  0  0  0  0  0  0  0  0  0  0  0
  -11.1537   14.5744  -38.0823 C   0  0  0  0  0  0  0  0  0  0  0  0
   -8.7771   13.5263  -35.8656 C   0  0  0  0  0  0  0  0  0  0  0  0
  -14.6091   16.0904  -40.1792 N   0  0  0  0  0  0  0  0  0  0  0  0
   -8.7095   15.7046  -36.8891 O   0  0  0  0  0  0  0  0  0  0  0  0
   -9.8776   13.9809  -37.8900 O   0  0  0  0  0  0  0  0  0  0  0  0
  -14.1736   13.6796  -37.0105 H   0  0  0  0  0  0  0  0  0  0  0  0
  -15.0631   15.0184  -37.7195 H   0  0  0  0  0  0  0  0  0  0  0  0
  -13.9603   17.3460  -37.8540 H   0  0  0  0  0  0  0  0  0  0  0  0
  -12.3309   17.5682  -37.2349 H   0  0  0  0  0  0  0  0  0  0  0  0
  -11.0763   15.6169  -36.1743 H   0  0  0  0  0  0  0  0  0  0  0  0
  -11.8240   14.0384  -36.0831 H   0  0  0  0  0  0  0  0  0  0  0  0
  -12.1789   12.6585  -38.2105 H   0  0  0  0  0  0  0  0  0  0  0  0
  -11.6655   13.2848  -39.7608 H   0  0  0  0  0  0  0  0  0  0  0  0
  -10.5583   15.6224  -39.8957 H   0  0  0  0  0  0  0  0  0  0  0  0
  -10.3310   16.5586  -38.4358 H   0  0  0  0  0  0  0  0  0  0  0  0
  -13.5533   15.8363  -35.9143 H   0  0  0  0  0  0  0  0  0  0  0  0
  -14.1399   13.5050  -39.4967 H   0  0  0  0  0  0  0  0  0  0  0  0
  -12.2858   17.4185  -39.7224 H   0  0  0  0  0  0  0  0  0  0  0  0
  -12.8406   15.2160  -40.8132 H   0  0  0  0  0  0  0  0  0  0  0  0
   -9.5423   13.5447  -35.0857 H   0  0  0  0  0  0  0  0  0  0  0  0
   -7.7901   13.7289  -35.4421 H   0  0  0  0  0  0  0  0  0  0  0  0
   -8.7637   12.5302  -36.3175 H   0  0  0  0  0  0  0  0  0  0  0  0
  -14.4498   16.8863  -40.7484 H   0  0  0  0  0  0  0  0  0  0  0  0
  -15.1476   15.4125  -40.6623 H   0  0  0  0  0  0  0  0  0  0  0  0
  1 12  1  0  0  0  0
  1 14  2  0  0  0  0
  1 15  1  0  0  0  0
  2  7  1  0  0  0  0
  2  8  1  0  0  0  0
  3  7  1  0  0  0  0
  3  9  1  0  0  0  0
  4  7  1  0  0  0  0
  4 11  1  0  0  0  0
  5  8  1  0  0  0  0
  5 11  1  0  0  0  0
  6  9  1  0  0  0  0
  6 11  1  0  0  0  0
  8 10  1  0  0  0  0
  9 10  1  0  0  0  0
 10 13  1  0  0  0  0
 11 15  1  0  0  0  0
  2 16  1  0  0  0  0
  2 17  1  0  0  0  0
  3 18  1  0  0  0  0
  3 19  1  0  0  0  0
  4 20  1  0  0  0  0
  4 21  1  0  0  0  0
  5 22  1  0  0  0  0
  5 23  1  0  0  0  0
  6 24  1  0  0  0  0
  6 25  1  0  0  0  0
  7 26  1  0  0  0  0
  8 27  1  0  0  0  0
  9 28  1  0  0  0  0
 10 29  1  0  0  0  0
 12 30  1  0  0  0  0
 12 31  1  0  0  0  0
 12 32  1  0  0  0  0
 13 33  1  0  0  0  0
 13 34  1  0  0  0  0
M  END
> <id>
EN300-200217

> <smiles>
Cl.CC(=O)OC1(CC2CC3C1)CC(C2)C3N

> <MDLNUMBER>
MFCD28246449

> <IUPAC Name>
4-aminoadamantan-1-yl acetate hydrochloride

> <CAS>
1803585-52-5

> <URL>
https://www.enaminestore.com/catalog/EN300-200217

> <Saltdate>
Cl

> <ROCS_ShapeQuery>
_x1247relevant_x1083L0AP1_x1305L0BP1_

> <ROCS_TanimotoCombo>
0.831 

> <ROCS_ShapeTanimoto>
0.519 

> <ROCS_ColorTanimoto>
0.312 

> <ROCS_RefTversky>
0.434 

> <ROCS_RefColorTversky>
0.351 

> <ROCS_RefTverskyCombo>
0.785 

> <ROCS_FitTversky>
1.604 

> <ROCS_FitColorTversky>
0.738 

> <ROCS_FitTverskyCombo>
2.342 

> <ROCS_ColorScore>
-7.446

> <ROCS_Overlap>
1278.850

> <ROCS_Rank>
268                 

$$$$
untitled-dbase-171451_27
  -OEChem-06232314393D

 26 27  0     1  0  0  0  0  0999 V2000
  -13.4818   16.6520  -40.4192 C   0  0  0  0  0  0  0  0  0  0  0  0
  -10.4187   14.5027  -36.4212 C   0  0  0  0  0  0  0  0  0  0  0  0
  -11.5826   15.2519  -39.5159 C   0  0  0  0  0  0  0  0  0  0  0  0
  -13.4313   14.2713  -38.3939 C   0  0  0  0  0  0  0  0  0  0  0  0
  -12.5868   15.7965  -36.7953 C   0  0  0  0  0  0  0  0  0  0  0  0
  -12.6161   16.3647  -39.2314 C   0  0  2  0  0  0  0  0  0  0  0  0
  -13.4514   15.7733  -38.0694 C   0  0  1  0  0  0  0  0  0  0  0  0
  -11.9061   14.2109  -38.4275 C   0  0  2  0  0  0  0  0  0  0  0  0
   -9.2527   14.0273  -37.2494 C   0  0  0  0  0  0  0  0  0  0  0  0
  -11.5588   14.8094  -37.1326 N   0  0  0  0  0  0  0  0  0  0  0  0
  -13.0827   17.0830  -41.4908 O   0  0  0  0  0  0  0  0  0  0  0  0
  -10.3225   14.5928  -35.1968 O   0  0  0  0  0  0  0  0  0  0  0  0
  -14.7791   16.3706  -40.1453 O   0  0  0  0  0  0  0  0  0  0  0  0
   -9.5789   14.0006  -38.5541 F   0  0  0  0  0  0  0  0  0  0  0  0
   -8.1963   14.8461  -37.0960 F   0  0  0  0  0  0  0  0  0  0  0  0
   -8.8809   12.7875  -36.8827 F   0  0  0  0  0  0  0  0  0  0  0  0
  -11.7097   14.8200  -40.5154 H   0  0  0  0  0  0  0  0  0  0  0  0
  -10.5545   15.6213  -39.4337 H   0  0  0  0  0  0  0  0  0  0  0  0
  -13.8684   13.6537  -37.6015 H   0  0  0  0  0  0  0  0  0  0  0  0
  -13.8988   14.0187  -39.3506 H   0  0  0  0  0  0  0  0  0  0  0  0
  -12.1371   16.7705  -36.5833 H   0  0  0  0  0  0  0  0  0  0  0  0
  -13.1349   15.4405  -35.9169 H   0  0  0  0  0  0  0  0  0  0  0  0
  -12.1289   17.3014  -38.9442 H   0  0  0  0  0  0  0  0  0  0  0  0
  -14.4465   16.2054  -37.9464 H   0  0  0  0  0  0  0  0  0  0  0  0
  -11.4525   13.2309  -38.5846 H   0  0  0  0  0  0  0  0  0  0  0  0
  -15.3636   16.5543  -40.9115 H   0  0  0  0  0  0  0  0  0  0  0  0
  1  6  1  1  0  0  0
  1 11  2  0  0  0  0
  1 13  1  0  0  0  0
  2  9  1  0  0  0  0
  2 10  1  0  0  0  0
  2 12  2  0  0  0  0
  3  6  1  0  0  0  0
  3  8  1  6  0  0  0
  4  7  1  0  0  0  0
  4  8  1  0  0  0  0
  5  7  1  6  0  0  0
  5 10  1  0  0  0  0
  6  7  1  0  0  0  0
  8 10  1  0  0  0  0
  9 14  1  0  0  0  0
  9 15  1  0  0  0  0
  9 16  1  0  0  0  0
  3 17  1  0  0  0  0
  3 18  1  0  0  0  0
  4 19  1  0  0  0  0
  4 20  1  0  0  0  0
  5 21  1  0  0  0  0
  5 22  1  0  0  0  0
  6 23  1  0  0  0  0
  7 24  1  0  0  0  0
  8 25  1  0  0  0  0
 13 26  1  0  0  0  0
M  END
> <id>
EN300-39918053

> <smiles>
OC(=O)[C@@H]1C[C@@H]2C[C@H]1CN2C(=O)C(F)(F)F

> <IUPAC Name>
(1S,4R,5R)-2-(2,2,2-trifluoroacetyl)-2-azabicyclo[2.2.1]heptane-5-carboxylic acid

> <URL>
https://www.enaminestore.com/catalog/EN300-39918053

> <ROCS_ShapeQuery>
_x1247relevant_x1083L0AP1_x1305L0BP1_

> <ROCS_TanimotoCombo>
0.831 

> <ROCS_ShapeTanimoto>
0.514 

> <ROCS_ColorTanimoto>
0.317 

> <ROCS_RefTversky>
0.438 

> <ROCS_RefColorTversky>
0.364 

> <ROCS_RefTverskyCombo>
0.802 

> <ROCS_FitTversky>
1.511 

> <ROCS_FitColorTversky>
0.708 

> <ROCS_FitTverskyCombo>
2.219 

> <ROCS_ColorScore>
-7.753

> <ROCS_Overlap>
1291.259

> <ROCS_Rank>
269                 

$$$$
untitled-dbase-102031_27
  -OEChem-06232314393D

 26 27  0     1  0  0  0  0  0999 V2000
  -13.4818   16.6520  -40.4192 C   0  0  0  0  0  0  0  0  0  0  0  0
  -10.4187   14.5027  -36.4212 C   0  0  0  0  0  0  0  0  0  0  0  0
  -11.5826   15.2519  -39.5159 C   0  0  0  0  0  0  0  0  0  0  0  0
  -13.4313   14.2713  -38.3939 C   0  0  0  0  0  0  0  0  0  0  0  0
  -12.5868   15.7965  -36.7953 C   0  0  0  0  0  0  0  0  0  0  0  0
  -12.6161   16.3647  -39.2314 C   0  0  2  0  0  0  0  0  0  0  0  0
  -13.4514   15.7733  -38.0694 C   0  0  1  0  0  0  0  0  0  0  0  0
  -11.9061   14.2109  -38.4275 C   0  0  2  0  0  0  0  0  0  0  0  0
   -9.2527   14.0273  -37.2494 C   0  0  0  0  0  0  0  0  0  0  0  0
  -11.5588   14.8094  -37.1326 N   0  0  0  0  0  0  0  0  0  0  0  0
  -13.0827   17.0830  -41.4908 O   0  0  0  0  0  0  0  0  0  0  0  0
  -10.3225   14.5928  -35.1968 O   0  0  0  0  0  0  0  0  0  0  0  0
  -14.7791   16.3706  -40.1453 O   0  0  0  0  0  0  0  0  0  0  0  0
   -9.5789   14.0006  -38.5541 F   0  0  0  0  0  0  0  0  0  0  0  0
   -8.1963   14.8461  -37.0960 F   0  0  0  0  0  0  0  0  0  0  0  0
   -8.8809   12.7875  -36.8827 F   0  0  0  0  0  0  0  0  0  0  0  0
  -11.7097   14.8200  -40.5154 H   0  0  0  0  0  0  0  0  0  0  0  0
  -10.5545   15.6213  -39.4337 H   0  0  0  0  0  0  0  0  0  0  0  0
  -13.8684   13.6537  -37.6015 H   0  0  0  0  0  0  0  0  0  0  0  0
  -13.8988   14.0187  -39.3506 H   0  0  0  0  0  0  0  0  0  0  0  0
  -12.1371   16.7705  -36.5833 H   0  0  0  0  0  0  0  0  0  0  0  0
  -13.1349   15.4405  -35.9169 H   0  0  0  0  0  0  0  0  0  0  0  0
  -12.1289   17.3014  -38.9442 H   0  0  0  0  0  0  0  0  0  0  0  0
  -14.4465   16.2054  -37.9464 H   0  0  0  0  0  0  0  0  0  0  0  0
  -11.4525   13.2309  -38.5846 H   0  0  0  0  0  0  0  0  0  0  0  0
  -15.3636   16.5543  -40.9115 H   0  0  0  0  0  0  0  0  0  0  0  0
  1  6  1  1  0  0  0
  1 11  2  0  0  0  0
  1 13  1  0  0  0  0
  2  9  1  0  0  0  0
  2 10  1  0  0  0  0
  2 12  2  0  0  0  0
  3  6  1  0  0  0  0
  3  8  1  6  0  0  0
  4  7  1  0  0  0  0
  4  8  1  0  0  0  0
  5  7  1  6  0  0  0
  5 10  1  0  0  0  0
  6  7  1  0  0  0  0
  8 10  1  0  0  0  0
  9 14  1  0  0  0  0
  9 15  1  0  0  0  0
  9 16  1  0  0  0  0
  3 17  1  0  0  0  0
  3 18  1  0  0  0  0
  4 19  1  0  0  0  0
  4 20  1  0  0  0  0
  5 21  1  0  0  0  0
  5 22  1  0  0  0  0
  6 23  1  0  0  0  0
  7 24  1  0  0  0  0
  8 25  1  0  0  0  0
 13 26  1  0  0  0  0
M  END
> <id>
EN300-37101475

> <smiles>
OC(=O)[C@@H]1C[C@@H]2C[C@H]1CN2C(=O)C(F)(F)F |&1:3,5,7,r|

> <IUPAC Name>
rac-(1R,4S,5S)-2-(2,2,2-trifluoroacetyl)-2-azabicyclo[2.2.1]heptane-5-carboxylic acid

> <URL>
https://www.enaminestore.com/catalog/EN300-37101475

> <ROCS_ShapeQuery>
_x1247relevant_x1083L0AP1_x1305L0BP1_

> <ROCS_TanimotoCombo>
0.831 

> <ROCS_ShapeTanimoto>
0.514 

> <ROCS_ColorTanimoto>
0.317 

> <ROCS_RefTversky>
0.438 

> <ROCS_RefColorTversky>
0.364 

> <ROCS_RefTverskyCombo>
0.802 

> <ROCS_FitTversky>
1.511 

> <ROCS_FitColorTversky>
0.708 

> <ROCS_FitTverskyCombo>
2.219 

> <ROCS_ColorScore>
-7.753

> <ROCS_Overlap>
1291.259

> <ROCS_Rank>
270                 

$$$$
untitled-dbase-109831_9
  -OEChem-06232314393D

 29 30  0     1  0  0  0  0  0999 V2000
  -10.7188   14.3575  -36.3538 C   0  0  0  0  0  0  0  0  0  0  0  0
  -12.3574   14.1663  -39.0592 C   0  0  0  0  0  0  0  0  0  0  0  0
  -11.7867   15.2128  -36.9730 C   0  0  1  0  0  0  0  0  0  0  0  0
  -11.5582   15.3491  -38.4961 C   0  0  2  0  0  0  0  0  0  0  0  0
  -13.6563   14.5941  -38.3697 C   0  0  1  0  0  0  0  0  0  0  0  0
  -13.2276   14.6411  -36.8806 C   0  0  1  0  0  0  0  0  0  0  0  0
  -12.3796   16.5497  -39.0102 C   0  0  2  0  0  0  0  0  0  0  0  0
  -13.8316   16.0445  -38.8812 C   0  0  1  0  0  0  0  0  0  0  0  0
   -9.7552   12.2014  -36.4356 C   0  0  0  0  0  0  0  0  0  0  0  0
  -13.3064   13.3139  -36.2770 N   0  0  0  0  0  0  0  0  0  0  0  0
   -9.9672   14.7359  -35.4655 O   0  0  0  0  0  0  0  0  0  0  0  0
  -12.0225   16.8296  -40.3549 O   0  0  0  0  0  0  0  0  0  0  0  0
  -14.5327   16.0694  -40.1142 O   0  0  0  0  0  0  0  0  0  0  0  0
  -10.7294   13.1237  -36.9340 O   0  0  0  0  0  0  0  0  0  0  0  0
  -12.4281   14.1737  -40.1521 H   0  0  0  0  0  0  0  0  0  0  0  0
  -11.9809   13.1911  -38.7376 H   0  0  0  0  0  0  0  0  0  0  0  0
  -11.7292   16.1848  -36.4698 H   0  0  0  0  0  0  0  0  0  0  0  0
  -10.5116   15.3569  -38.8118 H   0  0  0  0  0  0  0  0  0  0  0  0
  -14.5123   13.9482  -38.5829 H   0  0  0  0  0  0  0  0  0  0  0  0
  -13.8684   15.3097  -36.3138 H   0  0  0  0  0  0  0  0  0  0  0  0
  -12.2012   17.4453  -38.4082 H   0  0  0  0  0  0  0  0  0  0  0  0
  -14.4020   16.6497  -38.1512 H   0  0  0  0  0  0  0  0  0  0  0  0
   -9.8491   11.2498  -36.9645 H   0  0  0  0  0  0  0  0  0  0  0  0
   -9.9088   12.0516  -35.3639 H   0  0  0  0  0  0  0  0  0  0  0  0
   -8.7572   12.6127  -36.6046 H   0  0  0  0  0  0  0  0  0  0  0  0
  -12.9983   13.3821  -35.3361 H   0  0  0  0  0  0  0  0  0  0  0  0
  -14.2508   13.0114  -36.3160 H   0  0  0  0  0  0  0  0  0  0  0  0
  -12.5600   17.5879  -40.6378 H   0  0  0  0  0  0  0  0  0  0  0  0
  -14.0067   15.5548  -40.7487 H   0  0  0  0  0  0  0  0  0  0  0  0
  1  3  1  1  0  0  0
  1 11  2  0  0  0  0
  1 14  1  0  0  0  0
  2  4  1  1  0  0  0
  2  5  1  1  0  0  0
  3  4  1  0  0  0  0
  3  6  1  0  0  0  0
  4  7  1  0  0  0  0
  5  6  1  0  0  0  0
  5  8  1  0  0  0  0
  6 10  1  1  0  0  0
  7  8  1  0  0  0  0
  7 12  1  1  0  0  0
  8 13  1  1  0  0  0
  9 14  1  0  0  0  0
  2 15  1  0  0  0  0
  2 16  1  0  0  0  0
  3 17  1  0  0  0  0
  4 18  1  0  0  0  0
  5 19  1  0  0  0  0
  6 20  1  0  0  0  0
  7 21  1  0  0  0  0
  8 22  1  0  0  0  0
  9 23  1  0  0  0  0
  9 24  1  0  0  0  0
  9 25  1  0  0  0  0
 10 26  1  0  0  0  0
 10 27  1  0  0  0  0
 12 28  1  0  0  0  0
 13 29  1  0  0  0  0
M  END
> <id>
EN300-26978992

> <smiles>
COC(=O)[C@@H]1[C@H](N)[C@@H]2C[C@H]1[C@@H](O)[C@H]2O |&1:4,5,7,9,10,12,r|

> <IUPAC Name>
rac-methyl (1R,2S,3R,4S,5S,6R)-3-amino-5,6-dihydroxybicyclo[2.2.1]heptane-2-carboxylate

> <CAS>
2445750-69-4

> <URL>
https://www.enaminestore.com/catalog/EN300-26978992

> <ROCS_ShapeQuery>
_x1247relevant_x1083L0AP1_x1305L0BP1_

> <ROCS_TanimotoCombo>
0.831 

> <ROCS_ShapeTanimoto>
0.473 

> <ROCS_ColorTanimoto>
0.358 

> <ROCS_RefTversky>
0.402 

> <ROCS_RefColorTversky>
0.433 

> <ROCS_RefTverskyCombo>
0.835 

> <ROCS_FitTversky>
1.591 

> <ROCS_FitColorTversky>
0.675 

> <ROCS_FitTverskyCombo>
2.266 

> <ROCS_ColorScore>
-9.274

> <ROCS_Overlap>
1182.966

> <ROCS_Rank>
271                 

$$$$
untitled-dbase-119085_9
  -OEChem-06232314393D

 29 30  0     1  0  0  0  0  0999 V2000
  -10.7188   14.3575  -36.3538 C   0  0  0  0  0  0  0  0  0  0  0  0
  -12.3574   14.1663  -39.0592 C   0  0  0  0  0  0  0  0  0  0  0  0
  -11.7867   15.2128  -36.9730 C   0  0  1  0  0  0  0  0  0  0  0  0
  -11.5582   15.3491  -38.4961 C   0  0  2  0  0  0  0  0  0  0  0  0
  -13.6563   14.5941  -38.3697 C   0  0  1  0  0  0  0  0  0  0  0  0
  -13.2276   14.6411  -36.8806 C   0  0  1  0  0  0  0  0  0  0  0  0
  -12.3796   16.5497  -39.0102 C   0  0  2  0  0  0  0  0  0  0  0  0
  -13.8316   16.0445  -38.8812 C   0  0  1  0  0  0  0  0  0  0  0  0
   -9.7552   12.2014  -36.4356 C   0  0  0  0  0  0  0  0  0  0  0  0
  -13.3064   13.3139  -36.2770 N   0  0  0  0  0  0  0  0  0  0  0  0
   -9.9672   14.7359  -35.4655 O   0  0  0  0  0  0  0  0  0  0  0  0
  -12.0225   16.8296  -40.3549 O   0  0  0  0  0  0  0  0  0  0  0  0
  -14.5327   16.0694  -40.1142 O   0  0  0  0  0  0  0  0  0  0  0  0
  -10.7294   13.1237  -36.9340 O   0  0  0  0  0  0  0  0  0  0  0  0
  -12.4281   14.1737  -40.1521 H   0  0  0  0  0  0  0  0  0  0  0  0
  -11.9809   13.1911  -38.7376 H   0  0  0  0  0  0  0  0  0  0  0  0
  -11.7292   16.1848  -36.4698 H   0  0  0  0  0  0  0  0  0  0  0  0
  -10.5116   15.3569  -38.8118 H   0  0  0  0  0  0  0  0  0  0  0  0
  -14.5123   13.9482  -38.5829 H   0  0  0  0  0  0  0  0  0  0  0  0
  -13.8684   15.3097  -36.3138 H   0  0  0  0  0  0  0  0  0  0  0  0
  -12.2012   17.4453  -38.4082 H   0  0  0  0  0  0  0  0  0  0  0  0
  -14.4020   16.6497  -38.1512 H   0  0  0  0  0  0  0  0  0  0  0  0
   -9.8491   11.2498  -36.9645 H   0  0  0  0  0  0  0  0  0  0  0  0
   -9.9088   12.0516  -35.3639 H   0  0  0  0  0  0  0  0  0  0  0  0
   -8.7572   12.6127  -36.6046 H   0  0  0  0  0  0  0  0  0  0  0  0
  -12.9983   13.3821  -35.3361 H   0  0  0  0  0  0  0  0  0  0  0  0
  -14.2508   13.0114  -36.3160 H   0  0  0  0  0  0  0  0  0  0  0  0
  -12.5600   17.5879  -40.6378 H   0  0  0  0  0  0  0  0  0  0  0  0
  -14.0067   15.5548  -40.7487 H   0  0  0  0  0  0  0  0  0  0  0  0
  1  3  1  1  0  0  0
  1 11  2  0  0  0  0
  1 14  1  0  0  0  0
  2  4  1  1  0  0  0
  2  5  1  1  0  0  0
  3  4  1  0  0  0  0
  3  6  1  0  0  0  0
  4  7  1  0  0  0  0
  5  6  1  0  0  0  0
  5  8  1  0  0  0  0
  6 10  1  1  0  0  0
  7  8  1  0  0  0  0
  7 12  1  1  0  0  0
  8 13  1  1  0  0  0
  9 14  1  0  0  0  0
  2 15  1  0  0  0  0
  2 16  1  0  0  0  0
  3 17  1  0  0  0  0
  4 18  1  0  0  0  0
  5 19  1  0  0  0  0
  6 20  1  0  0  0  0
  7 21  1  0  0  0  0
  8 22  1  0  0  0  0
  9 23  1  0  0  0  0
  9 24  1  0  0  0  0
  9 25  1  0  0  0  0
 10 26  1  0  0  0  0
 10 27  1  0  0  0  0
 12 28  1  0  0  0  0
 13 29  1  0  0  0  0
M  END
> <id>
EN300-26978991

> <smiles>
Cl.COC(=O)[C@@H]1[C@H](N)[C@@H]2C[C@H]1[C@@H](O)[C@H]2O |&1:5,6,8,10,11,13,r|

> <IUPAC Name>
rac-methyl (1R,2S,3R,4S,5S,6R)-3-amino-5,6-dihydroxybicyclo[2.2.1]heptane-2-carboxylate hydrochloride

> <CAS>
2445750-70-7

> <Purity>
95

> <URL>
https://www.enaminestore.com/catalog/EN300-26978991

> <Saltdate>
Cl

> <ROCS_ShapeQuery>
_x1247relevant_x1083L0AP1_x1305L0BP1_

> <ROCS_TanimotoCombo>
0.831 

> <ROCS_ShapeTanimoto>
0.473 

> <ROCS_ColorTanimoto>
0.358 

> <ROCS_RefTversky>
0.402 

> <ROCS_RefColorTversky>
0.433 

> <ROCS_RefTverskyCombo>
0.835 

> <ROCS_FitTversky>
1.591 

> <ROCS_FitColorTversky>
0.675 

> <ROCS_FitTverskyCombo>
2.266 

> <ROCS_ColorScore>
-9.274

> <ROCS_Overlap>
1182.966

> <ROCS_Rank>
272                 

$$$$
untitled-dbase-108316_6
  -OEChem-06232314393D

 29 31  0     1  0  0  0  0  0999 V2000
  -12.4057   16.0380  -39.6579 C   0  0  0  0  0  0  0  0  0  0  0  0
  -12.0413   14.7491  -39.5922 C   0  0  0  0  0  0  0  0  0  0  0  0
  -14.0592   14.9306  -38.4841 C   0  0  0  0  0  0  0  0  0  0  0  0
  -12.5389   16.2464  -37.2025 C   0  0  0  0  0  0  0  0  0  0  0  0
   -9.7181   15.5716  -37.5588 C   0  0  0  0  0  0  0  0  0  0  0  0
  -10.0225   14.8171  -35.5639 C   0  0  0  0  0  0  0  0  0  0  0  0
  -13.3572   16.2919  -38.5130 C   0  0  1  0  0  0  0  0  0  0  0  0
  -12.7434   14.1462  -38.3974 C   0  0  2  0  0  0  0  0  0  0  0  0
  -12.1568   14.7377  -37.0881 C   0  0  1  0  0  0  0  0  0  0  0  0
  -10.6693   14.5243  -36.9368 C   0  0  0  0  0  0  0  0  0  0  0  0
   -8.8292   15.4799  -36.2944 C   0  0  0  0  0  0  0  0  0  0  0  0
  -10.2484   13.1892  -37.3813 N   0  0  0  0  0  0  0  0  0  0  0  0
   -7.7269   14.7050  -36.4193 F   0  0  0  0  0  0  0  0  0  0  0  0
   -8.4178   16.6621  -35.7845 F   0  0  0  0  0  0  0  0  0  0  0  0
  -12.0477   16.7702  -40.3636 H   0  0  0  0  0  0  0  0  0  0  0  0
  -11.3337   14.2495  -40.2342 H   0  0  0  0  0  0  0  0  0  0  0  0
  -14.7055   14.7946  -37.6096 H   0  0  0  0  0  0  0  0  0  0  0  0
  -14.6371   14.7166  -39.3924 H   0  0  0  0  0  0  0  0  0  0  0  0
  -11.6688   16.9117  -37.2267 H   0  0  0  0  0  0  0  0  0  0  0  0
  -13.1676   16.5317  -36.3511 H   0  0  0  0  0  0  0  0  0  0  0  0
   -9.2281   15.2985  -38.4993 H   0  0  0  0  0  0  0  0  0  0  0  0
  -10.1651   16.5653  -37.6885 H   0  0  0  0  0  0  0  0  0  0  0  0
  -10.5838   15.5274  -34.9437 H   0  0  0  0  0  0  0  0  0  0  0  0
   -9.7703   13.9527  -34.9411 H   0  0  0  0  0  0  0  0  0  0  0  0
  -14.0116   17.1546  -38.6406 H   0  0  0  0  0  0  0  0  0  0  0  0
  -12.8455   13.0607  -38.4266 H   0  0  0  0  0  0  0  0  0  0  0  0
  -12.6758   14.3014  -36.2247 H   0  0  0  0  0  0  0  0  0  0  0  0
  -10.3000   13.1642  -38.3712 H   0  0  0  0  0  0  0  0  0  0  0  0
   -9.3176   13.0422  -37.0725 H   0  0  0  0  0  0  0  0  0  0  0  0
  1  2  2  0  0  0  0
  1  7  1  0  0  0  0
  2  8  1  0  0  0  0
  3  7  1  0  0  0  0
  3  8  1  0  0  0  0
  4  7  1  0  0  0  0
  4  9  1  0  0  0  0
  5 10  1  0  0  0  0
  5 11  1  0  0  0  0
  6 10  1  0  0  0  0
  6 11  1  0  0  0  0
  8  9  1  0  0  0  0
  9 10  1  0  0  0  0
 10 12  1  0  0  0  0
 11 13  1  0  0  0  0
 11 14  1  0  0  0  0
  1 15  1  0  0  0  0
  2 16  1  0  0  0  0
  3 17  1  0  0  0  0
  3 18  1  0  0  0  0
  4 19  1  0  0  0  0
  4 20  1  0  0  0  0
  5 21  1  0  0  0  0
  5 22  1  0  0  0  0
  6 23  1  0  0  0  0
  6 24  1  0  0  0  0
  7 25  1  0  0  0  0
  8 26  1  0  0  0  0
  9 27  1  0  0  0  0
 12 28  1  0  0  0  0
 12 29  1  0  0  0  0
M  END
> <id>
EN300-1951408

> <smiles>
NC1(CC(F)(F)C1)C2CC3CC2C=C3

> <IUPAC Name>
1-{bicyclo[2.2.1]hept-5-en-2-yl}-3,3-difluorocyclobutan-1-amine

> <CAS>
2229048-51-3

> <URL>
https://www.enaminestore.com/catalog/EN300-1951408

> <ROCS_ShapeQuery>
_x1247relevant_x1083L0AP1_x1305L0BP1_

> <ROCS_TanimotoCombo>
0.831 

> <ROCS_ShapeTanimoto>
0.480 

> <ROCS_ColorTanimoto>
0.351 

> <ROCS_RefTversky>
0.408 

> <ROCS_RefColorTversky>
0.382 

> <ROCS_RefTverskyCombo>
0.790 

> <ROCS_FitTversky>
1.579 

> <ROCS_FitColorTversky>
0.812 

> <ROCS_FitTverskyCombo>
2.391 

> <ROCS_ColorScore>
-8.105

> <ROCS_Overlap>
1200.650

> <ROCS_Rank>
273                 

$$$$
untitled-dbase-45236_4
  -OEChem-06232314393D

 24 26  0     1  0  0  0  0  0999 V2000
  -10.2268   13.9963  -37.2589 C   0  0  0  0  0  0  0  0  0  0  0  0
  -12.2347   15.3926  -36.7034 C   0  0  0  0  0  0  0  0  0  0  0  0
  -14.0041   15.9470  -40.0110 C   0  0  0  0  0  0  0  0  0  0  0  0
  -11.1104   15.1118  -37.7251 C   0  0  2  0  0  0  0  0  0  0  0  0
  -13.6471   16.2291  -38.5758 C   0  0  2  0  0  0  0  0  0  0  0  0
  -12.5676   15.9248  -39.5597 C   0  0  1  0  0  0  0  0  0  0  0  0
  -13.4916   15.1320  -37.5458 C   0  0  1  0  0  0  0  0  0  0  0  0
  -11.9120   14.6953  -38.9700 C   0  0  2  0  0  0  0  0  0  0  0  0
   -9.1631   14.3336  -36.5932 N   0  0  0  0  0  0  0  0  0  0  0  0
  -10.6431   12.7291  -37.5911 N   0  0  0  0  0  0  0  0  0  0  0  0
  -13.0261   14.0102  -38.3354 O   0  0  0  0  0  0  0  0  0  0  0  0
   -8.4431   13.1921  -36.2281 O   0  0  0  0  0  0  0  0  0  0  0  0
  -12.1869   14.6983  -35.8569 H   0  0  0  0  0  0  0  0  0  0  0  0
  -12.1980   16.4172  -36.3199 H   0  0  0  0  0  0  0  0  0  0  0  0
  -14.4904   15.0109  -40.2551 H   0  0  0  0  0  0  0  0  0  0  0  0
  -14.3248   16.7831  -40.6208 H   0  0  0  0  0  0  0  0  0  0  0  0
  -10.4836   15.9925  -37.8998 H   0  0  0  0  0  0  0  0  0  0  0  0
  -13.7483   17.2287  -38.1825 H   0  0  0  0  0  0  0  0  0  0  0  0
  -11.8939   16.7068  -39.8746 H   0  0  0  0  0  0  0  0  0  0  0  0
  -14.3967   14.8957  -36.9830 H   0  0  0  0  0  0  0  0  0  0  0  0
  -11.4013   14.0498  -39.6884 H   0  0  0  0  0  0  0  0  0  0  0  0
  -10.1053   11.9143  -37.3160 H   0  0  0  0  0  0  0  0  0  0  0  0
  -11.4945   12.5659  -38.1183 H   0  0  0  0  0  0  0  0  0  0  0  0
   -7.6919   13.5805  -35.7487 H   0  0  0  0  0  0  0  0  0  0  0  0
  1  4  1  0  0  0  0
  1  9  2  3  0  0  0
  1 10  1  0  0  0  0
  2  4  1  0  0  0  0
  2  7  1  0  0  0  0
  3  5  1  0  0  0  0
  3  6  1  0  0  0  0
  4  8  1  0  0  0  0
  5  6  1  0  0  0  0
  5  7  1  0  0  0  0
  6  8  1  0  0  0  0
  7 11  1  0  0  0  0
  8 11  1  0  0  0  0
  9 12  1  0  0  0  0
  2 13  1  0  0  0  0
  2 14  1  0  0  0  0
  3 15  1  0  0  0  0
  3 16  1  0  0  0  0
  4 17  1  0  0  0  0
  5 18  1  0  0  0  0
  6 19  1  0  0  0  0
  7 20  1  0  0  0  0
  8 21  1  0  0  0  0
 10 22  1  0  0  0  0
 10 23  1  0  0  0  0
 12 24  1  0  0  0  0
M  END
> <id>
EN300-1291290

> <smiles>
NC(=NO)C1CC2OC1C3CC32

> <IUPAC Name>
N'-hydroxy-8-oxatricyclo[3.2.1.0,2,4]octane-6-carboximidamide

> <CAS>
2172606-38-9

> <URL>
https://www.enaminestore.com/catalog/EN300-1291290

> <ROCS_ShapeQuery>
_x1247relevant_x1083L0AP1_x1305L0BP1_

> <ROCS_TanimotoCombo>
0.830 

> <ROCS_ShapeTanimoto>
0.456 

> <ROCS_ColorTanimoto>
0.374 

> <ROCS_RefTversky>
0.386 

> <ROCS_RefColorTversky>
0.537 

> <ROCS_RefTverskyCombo>
0.923 

> <ROCS_FitTversky>
1.672 

> <ROCS_FitColorTversky>
0.552 

> <ROCS_FitTverskyCombo>
2.225 

> <ROCS_ColorScore>
-11.718

> <ROCS_Overlap>
1132.954

> <ROCS_Rank>
274                 

$$$$
untitled-dbase-109510_4
  -OEChem-06232314393D

 24 26  0     1  0  0  0  0  0999 V2000
  -10.2266   13.9963  -37.2588 C   0  0  0  0  0  0  0  0  0  0  0  0
  -12.2349   15.3918  -36.7032 C   0  0  0  0  0  0  0  0  0  0  0  0
  -14.0037   15.9477  -40.0111 C   0  0  0  0  0  0  0  0  0  0  0  0
  -11.1106   15.1115  -37.7249 C   0  0  2  0  0  0  0  0  0  0  0  0
  -13.6465   16.2296  -38.5759 C   0  0  2  0  0  0  0  0  0  0  0  0
  -12.5672   15.9247  -39.5598 C   0  0  1  0  0  0  0  0  0  0  0  0
  -13.4917   15.1323  -37.5460 C   0  0  1  0  0  0  0  0  0  0  0  0
  -11.9122   14.6949  -38.9699 C   0  0  2  0  0  0  0  0  0  0  0  0
   -9.1627   14.3339  -36.5936 N   0  0  0  0  0  0  0  0  0  0  0  0
  -10.6427   12.7289  -37.5907 N   0  0  0  0  0  0  0  0  0  0  0  0
  -13.0267   14.0104  -38.3356 O   0  0  0  0  0  0  0  0  0  0  0  0
   -8.4423   13.1927  -36.2286 O   0  0  0  0  0  0  0  0  0  0  0  0
  -12.1872   14.6966  -35.8575 H   0  0  0  0  0  0  0  0  0  0  0  0
  -12.1978   16.4162  -36.3187 H   0  0  0  0  0  0  0  0  0  0  0  0
  -14.4901   15.0116  -40.2551 H   0  0  0  0  0  0  0  0  0  0  0  0
  -14.3243   16.7838  -40.6211 H   0  0  0  0  0  0  0  0  0  0  0  0
  -10.4843   15.9926  -37.9001 H   0  0  0  0  0  0  0  0  0  0  0  0
  -13.7452   17.2296  -38.1824 H   0  0  0  0  0  0  0  0  0  0  0  0
  -11.8934   16.7061  -39.8756 H   0  0  0  0  0  0  0  0  0  0  0  0
  -14.3974   14.8971  -36.9834 H   0  0  0  0  0  0  0  0  0  0  0  0
  -11.4021   14.0496  -39.6889 H   0  0  0  0  0  0  0  0  0  0  0  0
  -10.1046   11.9143  -37.3157 H   0  0  0  0  0  0  0  0  0  0  0  0
  -11.4942   12.5655  -38.1175 H   0  0  0  0  0  0  0  0  0  0  0  0
   -7.6910   13.5813  -35.7495 H   0  0  0  0  0  0  0  0  0  0  0  0
  1  4  1  0  0  0  0
  1  9  2  3  0  0  0
  1 10  1  0  0  0  0
  2  4  1  0  0  0  0
  2  7  1  6  0  0  0
  3  5  1  1  0  0  0
  3  6  1  1  0  0  0
  4  8  1  6  0  0  0
  5  6  1  0  0  0  0
  5  7  1  0  0  0  0
  6  8  1  0  0  0  0
  7 11  1  0  0  0  0
  8 11  1  0  0  0  0
  9 12  1  0  0  0  0
  2 13  1  0  0  0  0
  2 14  1  0  0  0  0
  3 15  1  0  0  0  0
  3 16  1  0  0  0  0
  4 17  1  0  0  0  0
  5 18  1  0  0  0  0
  6 19  1  0  0  0  0
  7 20  1  0  0  0  0
  8 21  1  0  0  0  0
 10 22  1  0  0  0  0
 10 23  1  0  0  0  0
 12 24  1  0  0  0  0
M  END
> <id>
EN300-1291739

> <smiles>
NC(=NO)C1C[C@@H]2O[C@H]1[C@H]3C[C@H]32 |&1:6,8,9,11,r|

> <IUPAC Name>
rac-(1R,2S,4R,5R)-N'-hydroxy-8-oxatricyclo[3.2.1.0,2,4]octane-6-carboximidamide

> <CAS>
2227955-81-7

> <URL>
https://www.enaminestore.com/catalog/EN300-1291739

> <ROCS_ShapeQuery>
_x1247relevant_x1083L0AP1_x1305L0BP1_

> <ROCS_TanimotoCombo>
0.830 

> <ROCS_ShapeTanimoto>
0.456 

> <ROCS_ColorTanimoto>
0.374 

> <ROCS_RefTversky>
0.386 

> <ROCS_RefColorTversky>
0.537 

> <ROCS_RefTverskyCombo>
0.923 

> <ROCS_FitTversky>
1.672 

> <ROCS_FitColorTversky>
0.552 

> <ROCS_FitTverskyCombo>
2.225 

> <ROCS_ColorScore>
-11.718

> <ROCS_Overlap>
1132.948

> <ROCS_Rank>
275                 

$$$$
untitled-dbase-148623_43
  -OEChem-06232314393D

 32 34  0     0  0  0  0  0  0999 V2000
  -10.1853   16.4221  -38.7901 C   0  0  0  0  0  0  0  0  0  0  0  0
  -11.0447   16.5086  -36.4146 C   0  0  0  0  0  0  0  0  0  0  0  0
  -13.1420   14.3676  -37.3447 C   0  0  0  0  0  0  0  0  0  0  0  0
  -12.4246   14.3215  -39.2983 C   0  0  0  0  0  0  0  0  0  0  0  0
   -8.9037   16.7930  -38.0460 C   0  0  0  0  0  0  0  0  0  0  0  0
   -9.6637   16.0938  -35.9093 C   0  0  0  0  0  0  0  0  0  0  0  0
  -11.6997   14.5372  -37.9261 C   0  0  0  0  0  0  0  0  0  0  0  0
  -11.3187   16.0199  -37.8346 C   0  0  0  0  0  0  0  0  0  0  0  0
  -13.3718   15.3589  -38.5625 C   0  0  0  0  0  0  0  0  0  0  0  0
  -14.7470   15.6598  -39.0749 C   0  0  0  0  0  0  0  0  0  0  0  0
  -10.8112   13.4604  -37.5752 N   0  0  0  0  0  0  0  0  0  0  0  0
  -14.6923   16.1834  -40.4090 N   0  0  0  0  0  0  0  0  0  0  0  0
   -8.7035   15.9096  -36.9497 O   0  0  0  0  0  0  0  0  0  0  0  0
  -12.5771   16.5630  -38.3043 O   0  0  0  0  0  0  0  0  0  0  0  0
  -10.4707   17.2736  -39.4242 H   0  0  0  0  0  0  0  0  0  0  0  0
   -9.9701   15.5771  -39.4634 H   0  0  0  0  0  0  0  0  0  0  0  0
  -11.8064   16.0888  -35.7353 H   0  0  0  0  0  0  0  0  0  0  0  0
  -11.1191   17.6046  -36.3353 H   0  0  0  0  0  0  0  0  0  0  0  0
  -13.6147   13.3797  -37.4151 H   0  0  0  0  0  0  0  0  0  0  0  0
  -13.3393   14.7757  -36.3503 H   0  0  0  0  0  0  0  0  0  0  0  0
  -11.9210   14.6839  -40.1976 H   0  0  0  0  0  0  0  0  0  0  0  0
  -12.8443   13.3301  -39.5092 H   0  0  0  0  0  0  0  0  0  0  0  0
   -8.0474   16.6954  -38.7165 H   0  0  0  0  0  0  0  0  0  0  0  0
   -8.9336   17.8256  -37.6883 H   0  0  0  0  0  0  0  0  0  0  0  0
   -9.2693   16.8283  -35.1786 H   0  0  0  0  0  0  0  0  0  0  0  0
   -9.7432   15.1367  -35.3608 H   0  0  0  0  0  0  0  0  0  0  0  0
  -15.3344   14.7325  -39.0716 H   0  0  0  0  0  0  0  0  0  0  0  0
  -15.2153   16.3992  -38.4125 H   0  0  0  0  0  0  0  0  0  0  0  0
  -10.7298   13.4066  -36.5803 H   0  0  0  0  0  0  0  0  0  0  0  0
  -11.1772   12.5993  -37.9273 H   0  0  0  0  0  0  0  0  0  0  0  0
  -15.0970   17.0987  -40.4284 H   0  0  0  0  0  0  0  0  0  0  0  0
  -13.7393   16.2365  -40.7105 H   0  0  0  0  0  0  0  0  0  0  0  0
  1  5  1  0  0  0  0
  1  8  1  0  0  0  0
  2  6  1  0  0  0  0
  2  8  1  0  0  0  0
  3  7  1  0  0  0  0
  3  9  1  0  0  0  0
  4  7  1  0  0  0  0
  4  9  1  0  0  0  0
  5 13  1  0  0  0  0
  6 13  1  0  0  0  0
  7  8  1  0  0  0  0
  7 11  1  0  0  0  0
  8 14  1  0  0  0  0
  9 10  1  0  0  0  0
  9 14  1  0  0  0  0
 10 12  1  0  0  0  0
  1 15  1  0  0  0  0
  1 16  1  0  0  0  0
  2 17  1  0  0  0  0
  2 18  1  0  0  0  0
  3 19  1  0  0  0  0
  3 20  1  0  0  0  0
  4 21  1  0  0  0  0
  4 22  1  0  0  0  0
  5 23  1  0  0  0  0
  5 24  1  0  0  0  0
  6 25  1  0  0  0  0
  6 26  1  0  0  0  0
 10 27  1  0  0  0  0
 10 28  1  0  0  0  0
 11 29  1  0  0  0  0
 11 30  1  0  0  0  0
 12 31  1  0  0  0  0
 12 32  1  0  0  0  0
M  END
> <id>
EN300-22861482

> <smiles>
NCC1(CC2(N)C1)OC32CCOCC3

> <IUPAC Name>
4-(aminomethyl)-3-oxaspiro[bicyclo[2.1.1]hexane-2,4'-oxane]-1-amine

> <CAS>
2639405-59-5

> <URL>
https://www.enaminestore.com/catalog/EN300-22861482

> <ROCS_ShapeQuery>
_x1247relevant_x1083L0AP1_x1305L0BP1_

> <ROCS_TanimotoCombo>
0.830 

> <ROCS_ShapeTanimoto>
0.435 

> <ROCS_ColorTanimoto>
0.395 

> <ROCS_RefTversky>
0.381 

> <ROCS_RefColorTversky>
0.470 

> <ROCS_RefTverskyCombo>
0.851 

> <ROCS_FitTversky>
1.492 

> <ROCS_FitColorTversky>
0.712 

> <ROCS_FitTverskyCombo>
2.204 

> <ROCS_ColorScore>
-10.077

> <ROCS_Overlap>
1120.462

> <ROCS_Rank>
276                 

$$$$
untitled-dbase-133929_5
  -OEChem-06232314393D

 24 25  0     1  0  0  0  0  0999 V2000
  -13.8421   15.9729  -39.0116 C   0  0  0  0  0  0  0  0  0  0  0  0
  -14.0110   15.3132  -37.6338 C   0  0  0  0  0  0  0  0  0  0  0  0
  -12.4110   14.0775  -38.8762 C   0  0  0  0  0  0  0  0  0  0  0  0
  -11.3735   16.2048  -38.6277 C   0  0  0  0  0  0  0  0  0  0  0  0
  -12.4524   15.4874  -39.4608 C   0  0  2  0  0  0  0  0  0  0  0  0
  -12.6814   14.5599  -37.4487 C   0  0  1  0  0  0  0  0  0  0  0  0
  -11.5676   15.6016  -37.2272 C   0  0  1  0  0  0  0  0  0  0  0  0
  -10.1272   13.3793  -37.4214 N   0  0  0  0  0  0  0  0  0  0  0  0
   -8.9590   15.6461  -37.0844 O   0  0  0  0  0  0  0  0  0  0  0  0
  -10.2698   14.6299  -35.1780 O   0  0  0  0  0  0  0  0  0  0  0  0
  -10.0878   14.8719  -36.5986 S   0  0  0  0  0  0  0  0  0  0  0  0
  -14.6200   15.6173  -39.6965 H   0  0  0  0  0  0  0  0  0  0  0  0
  -13.9079   17.0641  -38.9562 H   0  0  0  0  0  0  0  0  0  0  0  0
  -14.1945   16.0485  -36.8441 H   0  0  0  0  0  0  0  0  0  0  0  0
  -14.8552   14.6145  -37.6520 H   0  0  0  0  0  0  0  0  0  0  0  0
  -13.1996   13.4254  -39.2668 H   0  0  0  0  0  0  0  0  0  0  0  0
  -11.4410   13.5868  -39.0001 H   0  0  0  0  0  0  0  0  0  0  0  0
  -10.3766   15.9972  -39.0326 H   0  0  0  0  0  0  0  0  0  0  0  0
  -11.5184   17.2902  -38.6240 H   0  0  0  0  0  0  0  0  0  0  0  0
  -12.2911   15.5577  -40.5382 H   0  0  0  0  0  0  0  0  0  0  0  0
  -12.7275   13.7723  -36.6934 H   0  0  0  0  0  0  0  0  0  0  0  0
  -11.8568   16.3645  -36.4965 H   0  0  0  0  0  0  0  0  0  0  0  0
   -9.4408   13.2278  -38.1707 H   0  0  0  0  0  0  0  0  0  0  0  0
  -10.3337   12.5358  -36.8723 H   0  0  0  0  0  0  0  0  0  0  0  0
  1  2  1  0  0  0  0
  1  5  1  0  0  0  0
  2  6  1  1  0  0  0
  3  5  1  0  0  0  0
  3  6  1  0  0  0  0
  4  5  1  1  0  0  0
  4  7  1  0  0  0  0
  6  7  1  0  0  0  0
  7 11  1  0  0  0  0
  8 11  1  0  0  0  0
  9 11  2  0  0  0  0
 10 11  2  0  0  0  0
  1 12  1  0  0  0  0
  1 13  1  0  0  0  0
  2 14  1  0  0  0  0
  2 15  1  0  0  0  0
  3 16  1  0  0  0  0
  3 17  1  0  0  0  0
  4 18  1  0  0  0  0
  4 19  1  0  0  0  0
  5 20  1  0  0  0  0
  6 21  1  0  0  0  0
  7 22  1  0  0  0  0
  8 23  1  0  0  0  0
  8 24  1  0  0  0  0
M  END
> <id>
EN300-6861790

> <smiles>
NS(=O)(=O)C1C[C@@H]2CC[C@H]1C2 |&1:6,9,r|

> <IUPAC Name>
rac-(1R,4S)-bicyclo[2.2.1]heptane-2-sulfonamide

> <CAS>
1864012-28-1

> <Purity>
95

> <URL>
https://www.enaminestore.com/catalog/EN300-6861790

> <ROCS_ShapeQuery>
_x1247relevant_x1083L0AP1_x1305L0BP1_

> <ROCS_TanimotoCombo>
0.830 

> <ROCS_ShapeTanimoto>
0.445 

> <ROCS_ColorTanimoto>
0.385 

> <ROCS_RefTversky>
0.370 

> <ROCS_RefColorTversky>
0.409 

> <ROCS_RefTverskyCombo>
0.779 

> <ROCS_FitTversky>
1.835 

> <ROCS_FitColorTversky>
0.871 

> <ROCS_FitTverskyCombo>
2.706 

> <ROCS_ColorScore>
-8.670

> <ROCS_Overlap>
1085.937

> <ROCS_Rank>
277                 

$$$$
untitled-dbase-55226_5
  -OEChem-06232314393D

 24 25  0     1  0  0  0  0  0999 V2000
  -13.8421   15.9729  -39.0116 C   0  0  0  0  0  0  0  0  0  0  0  0
  -14.0110   15.3132  -37.6338 C   0  0  0  0  0  0  0  0  0  0  0  0
  -12.4110   14.0775  -38.8762 C   0  0  0  0  0  0  0  0  0  0  0  0
  -11.3735   16.2048  -38.6277 C   0  0  0  0  0  0  0  0  0  0  0  0
  -12.4524   15.4874  -39.4608 C   0  0  2  0  0  0  0  0  0  0  0  0
  -12.6814   14.5599  -37.4487 C   0  0  1  0  0  0  0  0  0  0  0  0
  -11.5676   15.6016  -37.2272 C   0  0  1  0  0  0  0  0  0  0  0  0
  -10.1272   13.3793  -37.4214 N   0  0  0  0  0  0  0  0  0  0  0  0
   -8.9590   15.6461  -37.0844 O   0  0  0  0  0  0  0  0  0  0  0  0
  -10.2698   14.6299  -35.1780 O   0  0  0  0  0  0  0  0  0  0  0  0
  -10.0878   14.8719  -36.5986 S   0  0  0  0  0  0  0  0  0  0  0  0
  -14.6200   15.6173  -39.6965 H   0  0  0  0  0  0  0  0  0  0  0  0
  -13.9079   17.0641  -38.9562 H   0  0  0  0  0  0  0  0  0  0  0  0
  -14.1945   16.0485  -36.8441 H   0  0  0  0  0  0  0  0  0  0  0  0
  -14.8552   14.6145  -37.6520 H   0  0  0  0  0  0  0  0  0  0  0  0
  -13.1996   13.4254  -39.2668 H   0  0  0  0  0  0  0  0  0  0  0  0
  -11.4410   13.5868  -39.0001 H   0  0  0  0  0  0  0  0  0  0  0  0
  -10.3766   15.9972  -39.0326 H   0  0  0  0  0  0  0  0  0  0  0  0
  -11.5184   17.2902  -38.6240 H   0  0  0  0  0  0  0  0  0  0  0  0
  -12.2911   15.5577  -40.5382 H   0  0  0  0  0  0  0  0  0  0  0  0
  -12.7275   13.7723  -36.6934 H   0  0  0  0  0  0  0  0  0  0  0  0
  -11.8568   16.3645  -36.4965 H   0  0  0  0  0  0  0  0  0  0  0  0
   -9.4408   13.2278  -38.1707 H   0  0  0  0  0  0  0  0  0  0  0  0
  -10.3337   12.5358  -36.8723 H   0  0  0  0  0  0  0  0  0  0  0  0
  1  2  1  0  0  0  0
  1  5  1  0  0  0  0
  2  6  1  1  0  0  0
  3  5  1  0  0  0  0
  3  6  1  0  0  0  0
  4  5  1  1  0  0  0
  4  7  1  0  0  0  0
  6  7  1  0  0  0  0
  7 11  1  0  0  0  0
  8 11  1  0  0  0  0
  9 11  2  0  0  0  0
 10 11  2  0  0  0  0
  1 12  1  0  0  0  0
  1 13  1  0  0  0  0
  2 14  1  0  0  0  0
  2 15  1  0  0  0  0
  3 16  1  0  0  0  0
  3 17  1  0  0  0  0
  4 18  1  0  0  0  0
  4 19  1  0  0  0  0
  5 20  1  0  0  0  0
  6 21  1  0  0  0  0
  7 22  1  0  0  0  0
  8 23  1  0  0  0  0
  8 24  1  0  0  0  0
M  END
> <id>
EN300-244104

> <smiles>
NS(=O)(=O)C1C[C@@H]2CC[C@H]1C2

> <MDLNUMBER>
MFCD32198603

> <IUPAC Name>
(1S,4R)-bicyclo[2.2.1]heptane-2-sulfonamide

> <CAS>
1864012-28-1

> <URL>
https://www.enaminestore.com/catalog/EN300-244104

> <ROCS_ShapeQuery>
_x1247relevant_x1083L0AP1_x1305L0BP1_

> <ROCS_TanimotoCombo>
0.830 

> <ROCS_ShapeTanimoto>
0.445 

> <ROCS_ColorTanimoto>
0.385 

> <ROCS_RefTversky>
0.370 

> <ROCS_RefColorTversky>
0.409 

> <ROCS_RefTverskyCombo>
0.779 

> <ROCS_FitTversky>
1.835 

> <ROCS_FitColorTversky>
0.871 

> <ROCS_FitTverskyCombo>
2.706 

> <ROCS_ColorScore>
-8.670

> <ROCS_Overlap>
1085.937

> <ROCS_Rank>
278                 

$$$$
untitled-dbase-59431_4
  -OEChem-06232314393D

 30 32  0     1  0  0  0  0  0999 V2000
  -12.9746   14.0035  -39.3078 C   0  0  0  0  0  0  0  0  0  0  0  0
  -13.0714   13.7911  -37.9872 C   0  0  0  0  0  0  0  0  0  0  0  0
  -13.9604   15.8830  -38.3947 C   0  0  0  0  0  0  0  0  0  0  0  0
  -11.6609   16.0695  -38.9969 C   0  0  0  0  0  0  0  0  0  0  0  0
   -9.3335   13.1044  -36.8433 C   0  0  0  0  0  0  0  0  0  0  0  0
   -8.0663   13.9152  -37.0828 C   0  0  0  0  0  0  0  0  0  0  0  0
   -9.2986   15.9196  -37.0754 C   0  0  0  0  0  0  0  0  0  0  0  0
  -12.9976   15.4983  -39.5223 C   0  0  1  0  0  0  0  0  0  0  0  0
  -13.1500   15.1453  -37.3209 C   0  0  2  0  0  0  0  0  0  0  0  0
  -11.7880   15.8772  -37.4535 C   0  0  1  0  0  0  0  0  0  0  0  0
  -10.6003   15.1526  -36.8294 C   0  0  1  0  0  0  0  0  0  0  0  0
  -10.4940   13.8026  -37.3983 N   0  0  0  0  0  0  0  0  0  0  0  0
   -8.1929   15.2154  -36.5051 O   0  0  0  0  0  0  0  0  0  0  0  0
  -12.8505   13.2518  -40.0706 H   0  0  0  0  0  0  0  0  0  0  0  0
  -13.0390   12.8362  -37.4875 H   0  0  0  0  0  0  0  0  0  0  0  0
  -14.0224   16.9645  -38.2281 H   0  0  0  0  0  0  0  0  0  0  0  0
  -14.9740   15.4837  -38.5289 H   0  0  0  0  0  0  0  0  0  0  0  0
  -10.7911   15.5567  -39.4226 H   0  0  0  0  0  0  0  0  0  0  0  0
  -11.5805   17.1372  -39.2310 H   0  0  0  0  0  0  0  0  0  0  0  0
   -9.2434   12.1169  -37.3073 H   0  0  0  0  0  0  0  0  0  0  0  0
   -9.4875   12.9491  -35.7689 H   0  0  0  0  0  0  0  0  0  0  0  0
   -7.2125   13.4220  -36.6074 H   0  0  0  0  0  0  0  0  0  0  0  0
   -7.8410   14.0104  -38.1520 H   0  0  0  0  0  0  0  0  0  0  0  0
   -9.1111   16.0838  -38.1438 H   0  0  0  0  0  0  0  0  0  0  0  0
   -9.3431   16.9024  -36.5947 H   0  0  0  0  0  0  0  0  0  0  0  0
  -13.2950   15.8154  -40.5222 H   0  0  0  0  0  0  0  0  0  0  0  0
  -13.5983   15.1463  -36.3265 H   0  0  0  0  0  0  0  0  0  0  0  0
  -11.8700   16.8676  -36.9854 H   0  0  0  0  0  0  0  0  0  0  0  0
  -10.7712   15.0607  -35.7490 H   0  0  0  0  0  0  0  0  0  0  0  0
  -10.3862   13.8731  -38.4102 H   0  0  0  0  0  0  0  0  0  0  0  0
  1  2  2  0  0  0  0
  1  8  1  0  0  0  0
  2  9  1  0  0  0  0
  3  8  1  0  0  0  0
  3  9  1  0  0  0  0
  4  8  1  0  0  0  0
  4 10  1  0  0  0  0
  5  6  1  0  0  0  0
  5 12  1  0  0  0  0
  6 13  1  0  0  0  0
  7 11  1  0  0  0  0
  7 13  1  0  0  0  0
  9 10  1  0  0  0  0
 10 11  1  0  0  0  0
 11 12  1  0  0  0  0
  1 14  1  0  0  0  0
  2 15  1  0  0  0  0
  3 16  1  0  0  0  0
  3 17  1  0  0  0  0
  4 18  1  0  0  0  0
  4 19  1  0  0  0  0
  5 20  1  0  0  0  0
  5 21  1  0  0  0  0
  6 22  1  0  0  0  0
  6 23  1  0  0  0  0
  7 24  1  0  0  0  0
  7 25  1  0  0  0  0
  8 26  1  0  0  0  0
  9 27  1  0  0  0  0
 10 28  1  0  0  0  0
 11 29  1  0  0  0  0
 12 30  1  0  0  0  0
M  END
> <id>
EN300-1820060

> <smiles>
C1C(C2CC1C=C2)C3COCCN3

> <IUPAC Name>
3-{bicyclo[2.2.1]hept-5-en-2-yl}morpholine

> <CAS>
1557288-37-5

> <URL>
https://www.enaminestore.com/catalog/EN300-1820060

> <ROCS_ShapeQuery>
_x1247relevant_x1083L0AP1_x1305L0BP1_

> <ROCS_TanimotoCombo>
0.830 

> <ROCS_ShapeTanimoto>
0.472 

> <ROCS_ColorTanimoto>
0.358 

> <ROCS_RefTversky>
0.398 

> <ROCS_RefColorTversky>
0.399 

> <ROCS_RefTverskyCombo>
0.797 

> <ROCS_FitTversky>
1.654 

> <ROCS_FitColorTversky>
0.777 

> <ROCS_FitTverskyCombo>
2.431 

> <ROCS_ColorScore>
-8.493

> <ROCS_Overlap>
1169.724

> <ROCS_Rank>
279                 

$$$$
untitled-dbase-81044_29
  -OEChem-06232314393D

 30 32  0     1  0  0  0  0  0999 V2000
  -14.0146   16.0480  -39.0459 C   0  0  0  0  0  0  0  0  0  0  0  0
  -12.8423   15.6882  -39.9594 C   0  0  0  0  0  0  0  0  0  0  0  0
  -12.5122   15.9036  -37.0329 C   0  0  0  0  0  0  0  0  0  0  0  0
  -10.0852   14.9671  -35.7235 C   0  0  0  0  0  0  0  0  0  0  0  0
   -8.8056   15.0466  -37.4721 C   0  0  0  0  0  0  0  0  0  0  0  0
  -11.3252   15.5737  -37.9532 C   0  0  2  0  0  0  0  0  0  0  0  0
  -13.6832   15.2634  -37.7784 C   0  0  2  0  0  0  0  0  0  0  0  0
  -12.0116   14.7673  -39.0659 C   0  0  1  0  0  0  0  0  0  0  0  0
   -8.7332   15.6392  -36.0478 C   0  0  0  0  0  0  0  0  0  0  0  0
  -10.2990   14.7248  -37.2352 C   0  0  0  0  0  0  0  0  0  0  0  0
  -10.5059   13.2913  -37.4556 N   0  0  0  0  0  0  0  0  0  0  0  0
  -13.0549   14.0840  -38.3305 O   0  0  0  0  0  0  0  0  0  0  0  0
   -8.6917   17.0762  -35.9521 O   0  0  0  0  0  0  0  0  0  0  0  0
  -14.1090   17.1238  -38.8717 H   0  0  0  0  0  0  0  0  0  0  0  0
  -14.9487   15.6873  -39.4909 H   0  0  0  0  0  0  0  0  0  0  0  0
  -13.2153   15.1424  -40.8335 H   0  0  0  0  0  0  0  0  0  0  0  0
  -12.2861   16.5626  -40.3098 H   0  0  0  0  0  0  0  0  0  0  0  0
  -12.3913   15.4437  -36.0456 H   0  0  0  0  0  0  0  0  0  0  0  0
  -12.6490   16.9807  -36.8941 H   0  0  0  0  0  0  0  0  0  0  0  0
  -10.0292   14.0771  -35.0866 H   0  0  0  0  0  0  0  0  0  0  0  0
  -10.8125   15.6542  -35.2715 H   0  0  0  0  0  0  0  0  0  0  0  0
   -8.6264   15.7902  -38.2595 H   0  0  0  0  0  0  0  0  0  0  0  0
   -8.1442   14.1942  -37.6617 H   0  0  0  0  0  0  0  0  0  0  0  0
  -10.8442   16.4780  -38.3417 H   0  0  0  0  0  0  0  0  0  0  0  0
  -14.5454   15.0249  -37.1518 H   0  0  0  0  0  0  0  0  0  0  0  0
  -11.3675   14.0700  -39.6070 H   0  0  0  0  0  0  0  0  0  0  0  0
   -7.9004   15.2076  -35.4557 H   0  0  0  0  0  0  0  0  0  0  0  0
   -9.6991   12.8112  -37.1364 H   0  0  0  0  0  0  0  0  0  0  0  0
  -11.3077   13.0141  -36.9421 H   0  0  0  0  0  0  0  0  0  0  0  0
   -7.7885   17.3297  -36.1834 H   0  0  0  0  0  0  0  0  0  0  0  0
  1  2  1  0  0  0  0
  1  7  1  0  0  0  0
  2  8  1  0  0  0  0
  3  6  1  0  0  0  0
  3  7  1  0  0  0  0
  4  9  1  0  0  0  0
  4 10  1  0  0  0  0
  5  9  1  0  0  0  0
  5 10  1  0  0  0  0
  6  8  1  0  0  0  0
  6 10  1  0  0  0  0
  7 12  1  0  0  0  0
  8 12  1  0  0  0  0
  9 13  1  0  0  0  0
 10 11  1  0  0  0  0
  1 14  1  0  0  0  0
  1 15  1  0  0  0  0
  2 16  1  0  0  0  0
  2 17  1  0  0  0  0
  3 18  1  0  0  0  0
  3 19  1  0  0  0  0
  4 20  1  0  0  0  0
  4 21  1  0  0  0  0
  5 22  1  0  0  0  0
  5 23  1  0  0  0  0
  6 24  1  0  0  0  0
  7 25  1  0  0  0  0
  8 26  1  0  0  0  0
  9 27  1  0  0  0  0
 11 28  1  0  0  0  0
 11 29  1  0  0  0  0
 13 30  1  0  0  0  0
M  END
> <id>
EN300-1754112

> <smiles>
NC1(CC(O)C1)C2CC3CCC2O3

> <IUPAC Name>
3-amino-3-{7-oxabicyclo[2.2.1]heptan-2-yl}cyclobutan-1-ol

> <CAS>
2228336-19-2

> <URL>
https://www.enaminestore.com/catalog/EN300-1754112

> <ROCS_ShapeQuery>
_x1247relevant_x1083L0AP1_x1305L0BP1_

> <ROCS_TanimotoCombo>
0.830 

> <ROCS_ShapeTanimoto>
0.468 

> <ROCS_ColorTanimoto>
0.362 

> <ROCS_RefTversky>
0.396 

> <ROCS_RefColorTversky>
0.426 

> <ROCS_RefTverskyCombo>
0.821 

> <ROCS_FitTversky>
1.641 

> <ROCS_FitColorTversky>
0.709 

> <ROCS_FitTverskyCombo>
2.350 

> <ROCS_ColorScore>
-9.099

> <ROCS_Overlap>
1162.964

> <ROCS_Rank>
280                 

$$$$
untitled-dbase-16090_1
  -OEChem-06232314393D

 23 25  0     1  0  0  0  0  0999 V2000
   -9.7083   15.0755  -36.5109 C   0  0  0  0  0  0  0  0  0  0  0  0
  -14.3602   15.7096  -38.1623 C   0  0  0  0  0  0  0  0  0  0  0  0
  -13.5979   16.4230  -39.3077 C   0  0  0  0  0  0  0  0  0  0  0  0
  -12.9353   14.1534  -39.2319 C   0  0  0  0  0  0  0  0  0  0  0  0
  -10.7705   14.6965  -37.4529 C   0  0  0  0  0  0  0  0  0  0  0  0
  -13.4306   14.5203  -37.8242 C   0  0  1  0  0  0  0  0  0  0  0  0
  -12.3337   15.5469  -39.4725 C   0  0  2  0  0  0  0  0  0  0  0  0
  -12.1952   15.0972  -37.1380 C   0  0  2  0  0  0  0  0  0  0  0  0
  -11.4582   15.7868  -38.2453 C   0  0  1  0  0  0  0  0  0  0  0  0
   -8.7094   15.7169  -36.8006 O   0  0  0  0  0  0  0  0  0  0  0  0
   -9.9842   14.6129  -35.2671 O   0  0  0  0  0  0  0  0  0  0  0  0
  -14.5207   16.3761  -37.3088 H   0  0  0  0  0  0  0  0  0  0  0  0
  -15.3346   15.3588  -38.5198 H   0  0  0  0  0  0  0  0  0  0  0  0
  -14.2020   16.4189  -40.2218 H   0  0  0  0  0  0  0  0  0  0  0  0
  -13.3619   17.4605  -39.0496 H   0  0  0  0  0  0  0  0  0  0  0  0
  -12.1990   13.3460  -39.2449 H   0  0  0  0  0  0  0  0  0  0  0  0
  -13.7445   13.9024  -39.9267 H   0  0  0  0  0  0  0  0  0  0  0  0
  -10.5968   13.7420  -37.9318 H   0  0  0  0  0  0  0  0  0  0  0  0
  -13.9103   13.7130  -37.2682 H   0  0  0  0  0  0  0  0  0  0  0  0
  -11.8117   15.6772  -40.4219 H   0  0  0  0  0  0  0  0  0  0  0  0
  -12.4049   15.6370  -36.2249 H   0  0  0  0  0  0  0  0  0  0  0  0
  -11.1471   16.8140  -38.1149 H   0  0  0  0  0  0  0  0  0  0  0  0
   -9.2848   14.8543  -34.6229 H   0  0  0  0  0  0  0  0  0  0  0  0
  1  5  1  0  0  0  0
  1 10  2  0  0  0  0
  1 11  1  0  0  0  0
  2  3  1  0  0  0  0
  2  6  1  0  0  0  0
  3  7  1  0  0  0  0
  4  6  1  0  0  0  0
  4  7  1  0  0  0  0
  5  8  1  0  0  0  0
  5  9  1  0  0  0  0
  6  8  1  0  0  0  0
  7  9  1  0  0  0  0
  8  9  1  0  0  0  0
  2 12  1  0  0  0  0
  2 13  1  0  0  0  0
  3 14  1  0  0  0  0
  3 15  1  0  0  0  0
  4 16  1  0  0  0  0
  4 17  1  0  0  0  0
  5 18  1  0  0  0  0
  6 19  1  0  0  0  0
  7 20  1  0  0  0  0
  8 21  1  0  0  0  0
  9 22  1  0  0  0  0
 11 23  1  0  0  0  0
M  END
> <id>
EN300-106882

> <smiles>
OC(=O)C1C2C1C3CCC2C3

> <MDLNUMBER>
MFCD08056150

> <IUPAC Name>
tricyclo[3.2.1.0,2,4]octane-3-carboxylic acid

> <CAS>
1212345-30-6

> <URL>
https://www.enaminestore.com/catalog/EN300-106882

> <ROCS_ShapeQuery>
_x1247relevant_x1083L0AP1_x1305L0BP1_

> <ROCS_TanimotoCombo>
0.830 

> <ROCS_ShapeTanimoto>
0.450 

> <ROCS_ColorTanimoto>
0.380 

> <ROCS_RefTversky>
0.376 

> <ROCS_RefColorTversky>
0.531 

> <ROCS_RefTverskyCombo>
0.907 

> <ROCS_FitTversky>
1.767 

> <ROCS_FitColorTversky>
0.573 

> <ROCS_FitTverskyCombo>
2.340 

> <ROCS_ColorScore>
-11.549

> <ROCS_Overlap>
1104.676

> <ROCS_Rank>
281                 

$$$$
untitled-dbase-35002_1
  -OEChem-06232314393D

 23 25  0     1  0  0  0  0  0999 V2000
   -9.7081   15.0755  -36.5111 C   0  0  0  0  0  0  0  0  0  0  0  0
  -13.5982   16.4230  -39.3073 C   0  0  0  0  0  0  0  0  0  0  0  0
  -14.3602   15.7093  -38.1620 C   0  0  0  0  0  0  0  0  0  0  0  0
  -12.9353   14.1533  -39.2319 C   0  0  0  0  0  0  0  0  0  0  0  0
  -10.7703   14.6967  -37.4533 C   0  0  0  0  0  0  0  0  0  0  0  0
  -12.3340   15.5469  -39.4724 C   0  0  2  0  0  0  0  0  0  0  0  0
  -13.4305   14.5200  -37.8241 C   0  0  1  0  0  0  0  0  0  0  0  0
  -11.4583   15.7869  -38.2453 C   0  0  1  0  0  0  0  0  0  0  0  0
  -12.1949   15.0970  -37.1380 C   0  0  2  0  0  0  0  0  0  0  0  0
   -8.7091   15.7169  -36.8007 O   0  0  0  0  0  0  0  0  0  0  0  0
   -9.9842   14.6129  -35.2673 O   0  0  0  0  0  0  0  0  0  0  0  0
  -14.2025   16.4188  -40.2213 H   0  0  0  0  0  0  0  0  0  0  0  0
  -13.3623   17.4604  -39.0492 H   0  0  0  0  0  0  0  0  0  0  0  0
  -14.5206   16.3757  -37.3083 H   0  0  0  0  0  0  0  0  0  0  0  0
  -15.3347   15.3583  -38.5194 H   0  0  0  0  0  0  0  0  0  0  0  0
  -13.7447   13.9025  -39.9266 H   0  0  0  0  0  0  0  0  0  0  0  0
  -12.1990   13.3460  -39.2451 H   0  0  0  0  0  0  0  0  0  0  0  0
  -10.5965   13.7421  -37.9321 H   0  0  0  0  0  0  0  0  0  0  0  0
  -11.8121   15.6774  -40.4219 H   0  0  0  0  0  0  0  0  0  0  0  0
  -13.9099   13.7127  -37.2681 H   0  0  0  0  0  0  0  0  0  0  0  0
  -11.1472   16.8141  -38.1149 H   0  0  0  0  0  0  0  0  0  0  0  0
  -12.4047   15.6368  -36.2249 H   0  0  0  0  0  0  0  0  0  0  0  0
   -9.2848   14.8543  -34.6231 H   0  0  0  0  0  0  0  0  0  0  0  0
  1  5  1  1  0  0  0
  1 10  2  0  0  0  0
  1 11  1  0  0  0  0
  2  3  1  0  0  0  0
  2  6  1  1  0  0  0
  3  7  1  1  0  0  0
  4  6  1  0  0  0  0
  4  7  1  0  0  0  0
  5  8  1  0  0  0  0
  5  9  1  0  0  0  0
  6  8  1  6  0  0  0
  7  9  1  6  0  0  0
  8  9  1  0  0  0  0
  2 12  1  0  0  0  0
  2 13  1  0  0  0  0
  3 14  1  0  0  0  0
  3 15  1  0  0  0  0
  4 16  1  0  0  0  0
  4 17  1  0  0  0  0
  5 18  1  0  0  0  0
  6 19  1  0  0  0  0
  7 20  1  0  0  0  0
  8 21  1  0  0  0  0
  9 22  1  0  0  0  0
 11 23  1  0  0  0  0
M  END
> <id>
EN300-736682

> <smiles>
OC(=O)[C@H]1[C@H]2[C@@H]1[C@@H]3CC[C@H]2C3

> <MDLNUMBER>
MFCD30216588

> <IUPAC Name>
(1R,2S,3R,4R,5S)-tricyclo[3.2.1.0,2,4]octane-3-carboxylic acid

> <CAS>
37399-09-0

> <Purity>
95

> <URL>
https://www.enaminestore.com/catalog/EN300-736682

> <MP>
115-117

> <ROCS_ShapeQuery>
_x1247relevant_x1083L0AP1_x1305L0BP1_

> <ROCS_TanimotoCombo>
0.830 

> <ROCS_ShapeTanimoto>
0.450 

> <ROCS_ColorTanimoto>
0.380 

> <ROCS_RefTversky>
0.376 

> <ROCS_RefColorTversky>
0.531 

> <ROCS_RefTverskyCombo>
0.907 

> <ROCS_FitTversky>
1.767 

> <ROCS_FitColorTversky>
0.573 

> <ROCS_FitTverskyCombo>
2.340 

> <ROCS_ColorScore>
-11.549

> <ROCS_Overlap>
1104.666

> <ROCS_Rank>
282                 

$$$$
untitled-dbase-155301_13
  -OEChem-06232314393D

 30 31  0     1  0  0  0  0  0999 V2000
   -9.8924   15.4920  -36.5407 C   0  0  0  0  0  0  0  0  0  0  0  0
  -13.1078   16.5533  -39.3168 C   0  0  0  0  0  0  0  0  0  0  0  0
  -13.9265   16.2627  -38.0574 C   0  0  0  0  0  0  0  0  0  0  0  0
  -13.1659   14.1996  -38.9687 C   0  0  0  0  0  0  0  0  0  0  0  0
  -10.9239   15.3786  -38.8079 C   0  0  0  0  0  0  0  0  0  0  0  0
  -12.3073   14.8869  -36.6813 C   0  0  0  0  0  0  0  0  0  0  0  0
  -12.2700   15.2861  -39.5564 C   0  0  2  0  0  0  0  0  0  0  0  0
  -13.5225   14.8414  -37.6310 C   0  0  1  0  0  0  0  0  0  0  0  0
  -10.9304   14.7910  -37.3779 C   0  0  0  0  0  0  0  0  0  0  0  0
   -9.3933   16.1466  -34.3257 C   0  0  0  0  0  0  0  0  0  0  0  0
  -10.5045   13.3860  -37.4258 N   0  0  0  0  0  0  0  0  0  0  0  0
   -8.8569   15.9658  -36.9883 O   0  0  0  0  0  0  0  0  0  0  0  0
  -10.2923   15.5073  -35.2373 O   0  0  0  0  0  0  0  0  0  0  0  0
  -13.7896   16.7112  -40.1616 H   0  0  0  0  0  0  0  0  0  0  0  0
  -12.4969   17.4563  -39.2268 H   0  0  0  0  0  0  0  0  0  0  0  0
  -13.7691   17.0041  -37.2686 H   0  0  0  0  0  0  0  0  0  0  0  0
  -14.9942   16.2841  -38.3080 H   0  0  0  0  0  0  0  0  0  0  0  0
  -14.0610   14.0567  -39.5838 H   0  0  0  0  0  0  0  0  0  0  0  0
  -12.6622   13.2351  -38.8635 H   0  0  0  0  0  0  0  0  0  0  0  0
  -10.1777   14.8437  -39.4196 H   0  0  0  0  0  0  0  0  0  0  0  0
  -10.5929   16.4297  -38.7951 H   0  0  0  0  0  0  0  0  0  0  0  0
  -12.3693   15.7983  -36.0645 H   0  0  0  0  0  0  0  0  0  0  0  0
  -12.4206   14.0472  -35.9747 H   0  0  0  0  0  0  0  0  0  0  0  0
  -12.0866   15.1432  -40.6248 H   0  0  0  0  0  0  0  0  0  0  0  0
  -14.3566   14.3373  -37.1354 H   0  0  0  0  0  0  0  0  0  0  0  0
   -9.8063   16.1036  -33.3150 H   0  0  0  0  0  0  0  0  0  0  0  0
   -9.2464   17.1870  -34.6268 H   0  0  0  0  0  0  0  0  0  0  0  0
   -8.4339   15.6242  -34.3474 H   0  0  0  0  0  0  0  0  0  0  0  0
  -11.2276   12.8358  -37.0317 H   0  0  0  0  0  0  0  0  0  0  0  0
  -10.3530   13.1474  -38.3750 H   0  0  0  0  0  0  0  0  0  0  0  0
  1  9  1  0  0  0  0
  1 12  2  0  0  0  0
  1 13  1  0  0  0  0
  2  3  1  0  0  0  0
  2  7  1  0  0  0  0
  3  8  1  0  0  0  0
  4  7  1  0  0  0  0
  4  8  1  0  0  0  0
  5  7  1  0  0  0  0
  5  9  1  0  0  0  0
  6  8  1  0  0  0  0
  6  9  1  0  0  0  0
  9 11  1  0  0  0  0
 10 13  1  0  0  0  0
  2 14  1  0  0  0  0
  2 15  1  0  0  0  0
  3 16  1  0  0  0  0
  3 17  1  0  0  0  0
  4 18  1  0  0  0  0
  4 19  1  0  0  0  0
  5 20  1  0  0  0  0
  5 21  1  0  0  0  0
  6 22  1  0  0  0  0
  6 23  1  0  0  0  0
  7 24  1  0  0  0  0
  8 25  1  0  0  0  0
 10 26  1  0  0  0  0
 10 27  1  0  0  0  0
 10 28  1  0  0  0  0
 11 29  1  0  0  0  0
 11 30  1  0  0  0  0
M  END
> <id>
EN300-3205145

> <smiles>
COC(=O)C1(N)CC2CCC(C2)C1

> <MDLNUMBER>
MFCD31703742

> <IUPAC Name>
methyl 3-aminobicyclo[3.2.1]octane-3-carboxylate

> <CAS>
2106582-51-6

> <URL>
https://www.enaminestore.com/catalog/EN300-3205145

> <ROCS_ShapeQuery>
_x1247relevant_x1083L0AP1_x1305L0BP1_

> <ROCS_TanimotoCombo>
0.830 

> <ROCS_ShapeTanimoto>
0.453 

> <ROCS_ColorTanimoto>
0.377 

> <ROCS_RefTversky>
0.386 

> <ROCS_RefColorTversky>
0.395 

> <ROCS_RefTverskyCombo>
0.781 

> <ROCS_FitTversky>
1.629 

> <ROCS_FitColorTversky>
0.889 

> <ROCS_FitTverskyCombo>
2.518 

> <ROCS_ColorScore>
-8.378

> <ROCS_Overlap>
1133.776

> <ROCS_Rank>
283                 

$$$$
untitled-dbase-40049_0
  -OEChem-06232314393D

 24 25  0     1  0  0  0  0  0999 V2000
  -11.0742   15.4798  -38.6229 C   0  0  0  0  0  0  0  0  0  0  0  0
  -11.0433   15.0618  -37.3471 C   0  0  0  0  0  0  0  0  0  0  0  0
   -9.8346   15.3021  -36.5600 C   0  0  0  0  0  0  0  0  0  0  0  0
  -12.2171   14.3731  -36.7013 C   0  0  0  0  0  0  0  0  0  0  0  0
  -13.0034   13.9507  -39.0427 C   0  0  0  0  0  0  0  0  0  0  0  0
  -14.0825   15.7172  -37.8379 C   0  0  0  0  0  0  0  0  0  0  0  0
  -12.3154   15.2599  -39.4596 C   0  0  1  0  0  0  0  0  0  0  0  0
  -13.4572   14.3196  -37.6282 C   0  0  2  0  0  0  0  0  0  0  0  0
  -13.3731   16.3068  -39.0733 C   0  0  1  0  0  0  0  0  0  0  0  0
   -8.8355   15.8617  -36.9783 O   0  0  0  0  0  0  0  0  0  0  0  0
   -9.9987   14.8118  -35.3125 O   0  0  0  0  0  0  0  0  0  0  0  0
  -14.3183   16.4544  -40.1281 O   0  0  0  0  0  0  0  0  0  0  0  0
  -10.2371   16.0013  -39.0764 H   0  0  0  0  0  0  0  0  0  0  0  0
  -11.9198   13.3469  -36.4513 H   0  0  0  0  0  0  0  0  0  0  0  0
  -12.4785   14.8738  -35.7616 H   0  0  0  0  0  0  0  0  0  0  0  0
  -13.8638   13.7340  -39.6872 H   0  0  0  0  0  0  0  0  0  0  0  0
  -12.3331   13.0842  -39.0639 H   0  0  0  0  0  0  0  0  0  0  0  0
  -15.1606   15.6249  -38.0141 H   0  0  0  0  0  0  0  0  0  0  0  0
  -13.9424   16.3518  -36.9562 H   0  0  0  0  0  0  0  0  0  0  0  0
  -12.0729   15.2521  -40.5265 H   0  0  0  0  0  0  0  0  0  0  0  0
  -14.1914   13.6149  -37.2250 H   0  0  0  0  0  0  0  0  0  0  0  0
  -12.9529   17.2960  -38.8607 H   0  0  0  0  0  0  0  0  0  0  0  0
   -9.2057   14.9546  -34.7530 H   0  0  0  0  0  0  0  0  0  0  0  0
  -13.8357   16.8259  -40.8831 H   0  0  0  0  0  0  0  0  0  0  0  0
  1  2  2  0  0  0  0
  1  7  1  0  0  0  0
  2  3  1  0  0  0  0
  2  4  1  0  0  0  0
  3 10  2  0  0  0  0
  3 11  1  0  0  0  0
  4  8  1  0  0  0  0
  5  7  1  0  0  0  0
  5  8  1  0  0  0  0
  6  8  1  0  0  0  0
  6  9  1  0  0  0  0
  7  9  1  0  0  0  0
  9 12  1  0  0  0  0
  1 13  1  0  0  0  0
  4 14  1  0  0  0  0
  4 15  1  0  0  0  0
  5 16  1  0  0  0  0
  5 17  1  0  0  0  0
  6 18  1  0  0  0  0
  6 19  1  0  0  0  0
  7 20  1  0  0  0  0
  8 21  1  0  0  0  0
  9 22  1  0  0  0  0
 11 23  1  0  0  0  0
 12 24  1  0  0  0  0
M  END
> <id>
EN300-37408265

> <smiles>
OC1CC2CC1C=C(C2)C(=O)O

> <IUPAC Name>
7-hydroxybicyclo[3.2.1]oct-2-ene-3-carboxylic acid

> <CAS>
2770545-45-2

> <URL>
https://www.enaminestore.com/catalog/EN300-37408265

> <ROCS_ShapeQuery>
_x1247relevant_x1083L0AP1_x1305L0BP1_

> <ROCS_TanimotoCombo>
0.830 

> <ROCS_ShapeTanimoto>
0.457 

> <ROCS_ColorTanimoto>
0.373 

> <ROCS_RefTversky>
0.384 

> <ROCS_RefColorTversky>
0.416 

> <ROCS_RefTverskyCombo>
0.800 

> <ROCS_FitTversky>
1.716 

> <ROCS_FitColorTversky>
0.782 

> <ROCS_FitTverskyCombo>
2.498 

> <ROCS_ColorScore>
-8.859

> <ROCS_Overlap>
1127.610

> <ROCS_Rank>
284                 

$$$$
untitled-dbase-312_15
  -OEChem-06232314393D

 32 34  0     1  0  0  0  0  0999 V2000
   -9.6819   14.7797  -37.3178 C   0  0  0  0  0  0  0  0  0  0  0  0
  -13.9934   14.5835  -37.5022 C   0  0  0  0  0  0  0  0  0  0  0  0
  -11.7451   13.6521  -38.1130 C   0  0  0  0  0  0  0  0  0  0  0  0
  -11.9079   15.7219  -36.6984 C   0  0  0  0  0  0  0  0  0  0  0  0
  -13.1719   14.7388  -39.8652 C   0  0  0  0  0  0  0  0  0  0  0  0
  -13.3315   16.8067  -38.4535 C   0  0  0  0  0  0  0  0  0  0  0  0
  -11.0821   15.8790  -39.0643 C   0  0  0  0  0  0  0  0  0  0  0  0
  -13.1897   13.8648  -38.6005 C   0  0  2  0  0  0  0  0  0  0  0  0
  -13.3522   15.9452  -37.1807 C   0  0  1  0  0  0  0  0  0  0  0  0
  -11.0878   15.0096  -37.7928 C   0  0  0  0  0  0  0  0  0  0  0  0
  -12.5239   16.1002  -39.5556 C   0  0  0  0  0  0  0  0  0  0  0  0
   -9.2145   13.3508  -37.2530 C   0  0  0  0  0  0  0  0  0  0  0  0
   -8.9477   15.7138  -36.9992 O   0  0  0  0  0  0  0  0  0  0  0  0
  -12.5190   16.8900  -40.7361 O   0  0  0  0  0  0  0  0  0  0  0  0
  -15.0301   14.7268  -37.8308 H   0  0  0  0  0  0  0  0  0  0  0  0
  -14.0285   13.9637  -36.5979 H   0  0  0  0  0  0  0  0  0  0  0  0
  -11.7423   13.0075  -37.2241 H   0  0  0  0  0  0  0  0  0  0  0  0
  -11.1671   13.1195  -38.8797 H   0  0  0  0  0  0  0  0  0  0  0  0
  -11.4459   16.6843  -36.4422 H   0  0  0  0  0  0  0  0  0  0  0  0
  -11.9123   15.1282  -35.7748 H   0  0  0  0  0  0  0  0  0  0  0  0
  -12.6231   14.2347  -40.6713 H   0  0  0  0  0  0  0  0  0  0  0  0
  -14.1913   14.8835  -40.2460 H   0  0  0  0  0  0  0  0  0  0  0  0
  -14.3543   17.0011  -38.8016 H   0  0  0  0  0  0  0  0  0  0  0  0
  -12.8992   17.7930  -38.2403 H   0  0  0  0  0  0  0  0  0  0  0  0
  -10.5941   16.8446  -38.8731 H   0  0  0  0  0  0  0  0  0  0  0  0
  -10.4839   15.4107  -39.8580 H   0  0  0  0  0  0  0  0  0  0  0  0
  -13.6514   12.8969  -38.8248 H   0  0  0  0  0  0  0  0  0  0  0  0
  -13.9297   16.4516  -36.3994 H   0  0  0  0  0  0  0  0  0  0  0  0
   -8.7613   13.0675  -38.2071 H   0  0  0  0  0  0  0  0  0  0  0  0
  -10.0668   12.6952  -37.0581 H   0  0  0  0  0  0  0  0  0  0  0  0
   -8.4682   13.2449  -36.4619 H   0  0  0  0  0  0  0  0  0  0  0  0
  -13.4458   16.9992  -41.0051 H   0  0  0  0  0  0  0  0  0  0  0  0
  1 10  1  0  0  0  0
  1 12  1  0  0  0  0
  1 13  2  0  0  0  0
  2  8  1  0  0  0  0
  2  9  1  0  0  0  0
  3  8  1  0  0  0  0
  3 10  1  0  0  0  0
  4  9  1  0  0  0  0
  4 10  1  0  0  0  0
  5  8  1  0  0  0  0
  5 11  1  0  0  0  0
  6  9  1  0  0  0  0
  6 11  1  0  0  0  0
  7 10  1  0  0  0  0
  7 11  1  0  0  0  0
 11 14  1  0  0  0  0
  2 15  1  0  0  0  0
  2 16  1  0  0  0  0
  3 17  1  0  0  0  0
  3 18  1  0  0  0  0
  4 19  1  0  0  0  0
  4 20  1  0  0  0  0
  5 21  1  0  0  0  0
  5 22  1  0  0  0  0
  6 23  1  0  0  0  0
  6 24  1  0  0  0  0
  7 25  1  0  0  0  0
  7 26  1  0  0  0  0
  8 27  1  0  0  0  0
  9 28  1  0  0  0  0
 12 29  1  0  0  0  0
 12 30  1  0  0  0  0
 12 31  1  0  0  0  0
 14 32  1  0  0  0  0
M  END
> <id>
EN300-03264

> <smiles>
CC(=O)C1(CC2CC3CC(O)(C2)C1)C3

> <IUPAC Name>
1-(3-hydroxyadamantan-1-yl)ethan-1-one

> <CAS>
39917-38-9

> <URL>
https://www.enaminestore.com/catalog/EN300-03264

> <ROCS_ShapeQuery>
_x1247relevant_x1083L0AP1_x1305L0BP1_

> <ROCS_TanimotoCombo>
0.830 

> <ROCS_ShapeTanimoto>
0.511 

> <ROCS_ColorTanimoto>
0.318 

> <ROCS_RefTversky>
0.425 

> <ROCS_RefColorTversky>
0.356 

> <ROCS_RefTverskyCombo>
0.781 

> <ROCS_FitTversky>
1.661 

> <ROCS_FitColorTversky>
0.750 

> <ROCS_FitTverskyCombo>
2.410 

> <ROCS_ColorScore>
-7.565

> <ROCS_Overlap>
1249.973

> <ROCS_Rank>
285                 

$$$$
untitled-dbase-95130_14
  -OEChem-06232314393D

 28 30  0     1  0  0  0  0  0999 V2000
  -10.3794   14.3955  -38.6401 C   0  0  0  0  0  0  0  0  0  0  0  0
  -13.5214   16.8176  -38.5692 C   0  0  0  0  0  0  0  0  0  0  0  0
  -13.5663   14.2326  -38.3669 C   0  0  0  0  0  0  0  0  0  0  0  0
   -9.6406   13.7535  -37.4695 C   0  0  0  0  0  0  0  0  0  0  0  0
  -10.8341   16.0826  -36.9154 C   0  0  0  0  0  0  0  0  0  0  0  0
  -13.5679   15.4595  -39.2065 C   0  0  2  0  0  0  0  0  0  0  0  0
  -12.2516   16.1215  -39.0203 C   0  0  2  0  0  0  0  0  0  0  0  0
  -11.4932   15.2643  -38.0295 C   0  0  1  0  0  0  0  0  0  0  0  0
  -11.5279   16.6973  -40.1995 C   0  0  0  0  0  0  0  0  0  0  0  0
  -10.0640   14.4660  -34.9711 O   0  0  0  0  0  0  0  0  0  0  0  0
   -8.2956   15.6982  -36.3083 O   0  0  0  0  0  0  0  0  0  0  0  0
  -12.4809   14.3827  -37.4339 O   0  0  0  0  0  0  0  0  0  0  0  0
  -10.6618   15.7125  -40.7560 O   0  0  0  0  0  0  0  0  0  0  0  0
   -9.5724   15.0211  -36.2150 S   0  0  0  0  0  0  0  0  0  0  0  0
   -9.6732   15.0113  -39.2093 H   0  0  0  0  0  0  0  0  0  0  0  0
  -10.7706   13.6229  -39.3104 H   0  0  0  0  0  0  0  0  0  0  0  0
  -13.8917   17.6551  -39.1486 H   0  0  0  0  0  0  0  0  0  0  0  0
  -13.7247   16.8999  -37.5082 H   0  0  0  0  0  0  0  0  0  0  0  0
  -14.4992   14.1075  -37.8105 H   0  0  0  0  0  0  0  0  0  0  0  0
  -13.3845   13.3376  -38.9704 H   0  0  0  0  0  0  0  0  0  0  0  0
  -10.1990   12.9050  -37.0638 H   0  0  0  0  0  0  0  0  0  0  0  0
   -8.6285   13.4409  -37.7346 H   0  0  0  0  0  0  0  0  0  0  0  0
  -10.3322   16.9732  -37.3052 H   0  0  0  0  0  0  0  0  0  0  0  0
  -11.5304   16.3599  -36.1195 H   0  0  0  0  0  0  0  0  0  0  0  0
  -13.9976   15.3447  -40.1890 H   0  0  0  0  0  0  0  0  0  0  0  0
  -10.9176   17.5644  -39.9086 H   0  0  0  0  0  0  0  0  0  0  0  0
  -12.2309   17.0164  -40.9825 H   0  0  0  0  0  0  0  0  0  0  0  0
  -10.2183   16.1291  -41.5113 H   0  0  0  0  0  0  0  0  0  0  0  0
  1  4  1  0  0  0  0
  1  8  1  0  0  0  0
  2  6  1  0  0  0  0
  2  7  1  0  0  0  0
  3  6  1  0  0  0  0
  3 12  1  0  0  0  0
  4 14  1  0  0  0  0
  5  8  1  0  0  0  0
  5 14  1  0  0  0  0
  6  7  1  0  0  0  0
  7  8  1  0  0  0  0
  7  9  1  0  0  0  0
  8 12  1  0  0  0  0
  9 13  1  0  0  0  0
 10 14  2  0  0  0  0
 11 14  2  0  0  0  0
  1 15  1  0  0  0  0
  1 16  1  0  0  0  0
  2 17  1  0  0  0  0
  2 18  1  0  0  0  0
  3 19  1  0  0  0  0
  3 20  1  0  0  0  0
  4 21  1  0  0  0  0
  4 22  1  0  0  0  0
  5 23  1  0  0  0  0
  5 24  1  0  0  0  0
  6 25  1  0  0  0  0
  9 26  1  0  0  0  0
  9 27  1  0  0  0  0
 13 28  1  0  0  0  0
M  END
> <id>
EN300-1619214

> <smiles>
OCC12CC2COC31CCS(=O)(=O)C3

> <IUPAC Name>
1-(hydroxymethyl)-3-oxaspiro[bicyclo[3.1.0]hexane-2,3'-[1$l,6]thiolane]-1',1'-dione

> <CAS>
2171946-79-3

> <URL>
https://www.enaminestore.com/catalog/EN300-1619214

> <ROCS_ShapeQuery>
_x1247relevant_x1083L0AP1_x1305L0BP1_

> <ROCS_TanimotoCombo>
0.830 

> <ROCS_ShapeTanimoto>
0.507 

> <ROCS_ColorTanimoto>
0.323 

> <ROCS_RefTversky>
0.420 

> <ROCS_RefColorTversky>
0.364 

> <ROCS_RefTverskyCombo>
0.784 

> <ROCS_FitTversky>
1.691 

> <ROCS_FitColorTversky>
0.742 

> <ROCS_FitTverskyCombo>
2.433 

> <ROCS_ColorScore>
-7.731

> <ROCS_Overlap>
1234.509

> <ROCS_Rank>
286                 

$$$$
untitled-dbase-59882_5
  -OEChem-06232314393D

 29 31  0     1  0  0  0  0  0999 V2000
  -13.2832   13.9804  -38.8671 C   0  0  0  0  0  0  0  0  0  0  0  0
  -13.1872   14.1348  -37.5384 C   0  0  0  0  0  0  0  0  0  0  0  0
   -8.6069   14.8371  -35.7842 C   0  0  0  0  0  0  0  0  0  0  0  0
  -10.1280   14.9939  -35.5742 C   0  0  0  0  0  0  0  0  0  0  0  0
   -8.8143   15.2234  -37.2640 C   0  0  0  0  0  0  0  0  0  0  0  0
  -13.5574   16.2325  -38.4300 C   0  0  0  0  0  0  0  0  0  0  0  0
  -11.4410   15.5641  -39.3014 C   0  0  0  0  0  0  0  0  0  0  0  0
  -12.9537   15.3132  -39.4963 C   0  0  1  0  0  0  0  0  0  0  0  0
  -12.7846   15.5688  -37.2827 C   0  0  2  0  0  0  0  0  0  0  0  0
  -11.3273   15.8004  -37.7630 C   0  0  1  0  0  0  0  0  0  0  0  0
  -10.3181   14.8877  -37.1075 C   0  0  0  0  0  0  0  0  0  0  0  0
  -10.5301   13.4775  -37.4596 N   0  0  0  0  0  0  0  0  0  0  0  0
  -13.5034   13.0647  -39.3919 H   0  0  0  0  0  0  0  0  0  0  0  0
  -13.3141   13.3662  -36.7930 H   0  0  0  0  0  0  0  0  0  0  0  0
   -8.0044   15.5603  -35.2178 H   0  0  0  0  0  0  0  0  0  0  0  0
   -8.2039   13.8337  -35.6071 H   0  0  0  0  0  0  0  0  0  0  0  0
  -10.5618   14.1742  -34.9783 H   0  0  0  0  0  0  0  0  0  0  0  0
  -10.4370   15.9419  -35.1110 H   0  0  0  0  0  0  0  0  0  0  0  0
   -8.5734   16.2678  -37.5087 H   0  0  0  0  0  0  0  0  0  0  0  0
   -8.2480   14.5785  -37.9559 H   0  0  0  0  0  0  0  0  0  0  0  0
  -13.3021   17.2886  -38.5732 H   0  0  0  0  0  0  0  0  0  0  0  0
  -14.6469   16.1378  -38.3361 H   0  0  0  0  0  0  0  0  0  0  0  0
  -10.8270   14.7292  -39.6568 H   0  0  0  0  0  0  0  0  0  0  0  0
  -11.1336   16.4704  -39.8360 H   0  0  0  0  0  0  0  0  0  0  0  0
  -13.3370   15.4524  -40.5075 H   0  0  0  0  0  0  0  0  0  0  0  0
  -13.0227   15.9397  -36.2850 H   0  0  0  0  0  0  0  0  0  0  0  0
  -11.0437   16.8452  -37.5813 H   0  0  0  0  0  0  0  0  0  0  0  0
  -11.4179   13.3967  -37.8958 H   0  0  0  0  0  0  0  0  0  0  0  0
   -9.8073   13.2014  -38.0809 H   0  0  0  0  0  0  0  0  0  0  0  0
  1  2  2  0  0  0  0
  1  8  1  0  0  0  0
  2  9  1  0  0  0  0
  3  4  1  0  0  0  0
  3  5  1  0  0  0  0
  4 11  1  0  0  0  0
  5 11  1  0  0  0  0
  6  8  1  0  0  0  0
  6  9  1  0  0  0  0
  7  8  1  0  0  0  0
  7 10  1  0  0  0  0
  9 10  1  0  0  0  0
 10 11  1  0  0  0  0
 11 12  1  0  0  0  0
  1 13  1  0  0  0  0
  2 14  1  0  0  0  0
  3 15  1  0  0  0  0
  3 16  1  0  0  0  0
  4 17  1  0  0  0  0
  4 18  1  0  0  0  0
  5 19  1  0  0  0  0
  5 20  1  0  0  0  0
  6 21  1  0  0  0  0
  6 22  1  0  0  0  0
  7 23  1  0  0  0  0
  7 24  1  0  0  0  0
  8 25  1  0  0  0  0
  9 26  1  0  0  0  0
 10 27  1  0  0  0  0
 12 28  1  0  0  0  0
 12 29  1  0  0  0  0
M  END
> <id>
EN300-1823236

> <smiles>
NC1(CCC1)C2CC3CC2C=C3

> <IUPAC Name>
1-{bicyclo[2.2.1]hept-5-en-2-yl}cyclobutan-1-amine

> <CAS>
2228904-07-0

> <URL>
https://www.enaminestore.com/catalog/EN300-1823236

> <ROCS_ShapeQuery>
_x1247relevant_x1083L0AP1_x1305L0BP1_

> <ROCS_TanimotoCombo>
0.829 

> <ROCS_ShapeTanimoto>
0.471 

> <ROCS_ColorTanimoto>
0.359 

> <ROCS_RefTversky>
0.393 

> <ROCS_RefColorTversky>
0.388 

> <ROCS_RefTverskyCombo>
0.781 

> <ROCS_FitTversky>
1.730 

> <ROCS_FitColorTversky>
0.825 

> <ROCS_FitTverskyCombo>
2.556 

> <ROCS_ColorScore>
-8.239

> <ROCS_Overlap>
1153.893

> <ROCS_Rank>
287                 

$$$$
untitled-dbase-161083_37
  -OEChem-06232314393D

 40 42  0     1  0  0  0  0  0999 V2000
   -9.1963   14.3352  -37.2402 C   0  0  0  0  0  0  0  0  0  0  0  0
  -10.9077   16.1548  -39.0869 C   0  0  0  0  0  0  0  0  0  0  0  0
  -11.7022   15.3582  -40.1261 C   0  0  0  0  0  0  0  0  0  0  0  0
  -12.9537   16.6571  -37.7689 C   0  0  0  0  0  0  0  0  0  0  0  0
  -14.1706   14.4009  -37.8090 C   0  0  0  0  0  0  0  0  0  0  0  0
  -11.5375   16.0445  -37.6833 C   0  0  1  0  0  0  0  0  0  0  0  0
  -12.9496   14.7488  -39.5031 C   0  0  2  0  0  0  0  0  0  0  0  0
  -13.8186   15.6941  -38.5968 C   0  0  2  0  0  0  0  0  0  0  0  0
  -12.7348   13.9235  -38.1804 C   0  0  1  0  0  0  0  0  0  0  0  0
  -11.6763   14.5583  -37.2579 C   0  0  1  0  0  0  0  0  0  0  0  0
   -8.2419   12.6214  -35.1662 C   0  0  0  0  0  0  0  0  0  0  0  0
   -6.4256   11.9865  -36.7809 C   0  0  0  0  0  0  0  0  0  0  0  0
   -6.6225   14.3625  -35.9912 C   0  0  0  0  0  0  0  0  0  0  0  0
   -7.3885   13.0885  -36.3445 C   0  0  0  0  0  0  0  0  0  0  0  0
  -10.4615   13.8034  -37.4084 N   0  0  0  0  0  0  0  0  0  0  0  0
   -8.9461   15.4994  -36.9459 O   0  0  0  0  0  0  0  0  0  0  0  0
   -8.2536   13.3686  -37.4508 O   0  0  0  0  0  0  0  0  0  0  0  0
   -9.8664   15.8114  -39.0741 H   0  0  0  0  0  0  0  0  0  0  0  0
  -10.8636   17.2081  -39.3920 H   0  0  0  0  0  0  0  0  0  0  0  0
  -11.9802   16.0134  -40.9595 H   0  0  0  0  0  0  0  0  0  0  0  0
  -11.0716   14.5664  -40.5469 H   0  0  0  0  0  0  0  0  0  0  0  0
  -13.3809   16.7955  -36.7692 H   0  0  0  0  0  0  0  0  0  0  0  0
  -12.9171   17.6430  -38.2467 H   0  0  0  0  0  0  0  0  0  0  0  0
  -14.3908   14.5170  -36.7439 H   0  0  0  0  0  0  0  0  0  0  0  0
  -14.9731   13.8046  -38.2608 H   0  0  0  0  0  0  0  0  0  0  0  0
  -10.9246   16.5991  -36.9642 H   0  0  0  0  0  0  0  0  0  0  0  0
  -13.5423   14.2076  -40.2543 H   0  0  0  0  0  0  0  0  0  0  0  0
  -14.6710   16.1805  -39.0796 H   0  0  0  0  0  0  0  0  0  0  0  0
  -12.6549   12.8376  -38.2968 H   0  0  0  0  0  0  0  0  0  0  0  0
  -11.9765   14.4757  -36.2075 H   0  0  0  0  0  0  0  0  0  0  0  0
   -8.9344   13.4096  -34.8499 H   0  0  0  0  0  0  0  0  0  0  0  0
   -8.8230   11.7283  -35.4180 H   0  0  0  0  0  0  0  0  0  0  0  0
   -7.6156   12.3928  -34.2962 H   0  0  0  0  0  0  0  0  0  0  0  0
   -5.8113   12.3173  -37.6261 H   0  0  0  0  0  0  0  0  0  0  0  0
   -6.9743   11.1025  -37.1255 H   0  0  0  0  0  0  0  0  0  0  0  0
   -5.7600   11.6853  -35.9655 H   0  0  0  0  0  0  0  0  0  0  0  0
   -6.0103   14.6978  -36.8362 H   0  0  0  0  0  0  0  0  0  0  0  0
   -7.2998   15.1758  -35.7110 H   0  0  0  0  0  0  0  0  0  0  0  0
   -5.9308   14.1835  -35.1601 H   0  0  0  0  0  0  0  0  0  0  0  0
  -10.5377   12.8179  -37.6535 H   0  0  0  0  0  0  0  0  0  0  0  0
  1 15  1  0  0  0  0
  1 16  2  0  0  0  0
  1 17  1  0  0  0  0
  2  3  1  0  0  0  0
  2  6  1  0  0  0  0
  3  7  1  0  0  0  0
  4  6  1  0  0  0  0
  4  8  1  0  0  0  0
  5  8  1  0  0  0  0
  5  9  1  0  0  0  0
  6 10  1  0  0  0  0
  7  8  1  0  0  0  0
  7  9  1  0  0  0  0
  9 10  1  0  0  0  0
 10 15  1  0  0  0  0
 11 14  1  0  0  0  0
 12 14  1  0  0  0  0
 13 14  1  0  0  0  0
 14 17  1  0  0  0  0
  2 18  1  0  0  0  0
  2 19  1  0  0  0  0
  3 20  1  0  0  0  0
  3 21  1  0  0  0  0
  4 22  1  0  0  0  0
  4 23  1  0  0  0  0
  5 24  1  0  0  0  0
  5 25  1  0  0  0  0
  6 26  1  0  0  0  0
  7 27  1  0  0  0  0
  8 28  1  0  0  0  0
  9 29  1  0  0  0  0
 10 30  1  0  0  0  0
 11 31  1  0  0  0  0
 11 32  1  0  0  0  0
 11 33  1  0  0  0  0
 12 34  1  0  0  0  0
 12 35  1  0  0  0  0
 12 36  1  0  0  0  0
 13 37  1  0  0  0  0
 13 38  1  0  0  0  0
 13 39  1  0  0  0  0
 15 40  1  0  0  0  0
M  END
> <id>
EN300-33050441

> <smiles>
CC(C)(C)OC(=O)NC1C2CC3CC1CCC32

> <IUPAC Name>
tert-butyl N-{tricyclo[3.3.1.0,2,7]nonan-6-yl}carbamate

> <CAS>
2694732-84-6

> <URL>
https://www.enaminestore.com/catalog/EN300-33050441

> <ROCS_ShapeQuery>
_x1247relevant_x1083L0AP1_x1305L0BP1_

> <ROCS_TanimotoCombo>
0.829 

> <ROCS_ShapeTanimoto>
0.465 

> <ROCS_ColorTanimoto>
0.364 

> <ROCS_RefTversky>
0.411 

> <ROCS_RefColorTversky>
0.463 

> <ROCS_RefTverskyCombo>
0.875 

> <ROCS_FitTversky>
1.389 

> <ROCS_FitColorTversky>
0.631 

> <ROCS_FitTverskyCombo>
2.020 

> <ROCS_ColorScore>
-9.970

> <ROCS_Overlap>
1213.501

> <ROCS_Rank>
288                 

$$$$
untitled-dbase-150850_67
  -OEChem-06232314393D

 29 30  0     1  0  0  0  0  0999 V2000
   -9.9287   14.9678  -36.6384 C   0  0  0  0  0  0  0  0  0  0  0  0
  -13.4727   16.3102  -40.7424 C   0  0  0  0  0  0  0  0  0  0  0  0
  -11.8247   13.7351  -37.7019 C   0  0  0  0  0  0  0  0  0  0  0  0
  -11.0562   16.0822  -38.5647 C   0  0  0  0  0  0  0  0  0  0  0  0
  -13.1208   15.8306  -37.1470 C   0  0  0  0  0  0  0  0  0  0  0  0
  -13.8635   14.5242  -38.9798 C   0  0  0  0  0  0  0  0  0  0  0  0
  -10.6658   14.7295  -37.9327 C   0  0  1  0  0  0  0  0  0  0  0  0
  -13.2250   14.3711  -37.5924 C   0  0  1  0  0  0  0  0  0  0  0  0
  -12.5429   16.4455  -38.4188 C   0  0  2  0  0  0  0  0  0  0  0  0
  -14.7626   15.9530  -41.4361 C   0  0  0  0  0  0  0  0  0  0  0  0
  -13.3115   15.7791  -39.4756 N   0  0  0  0  0  0  0  0  0  0  0  0
  -10.2496   14.5072  -35.5530 O   0  0  0  0  0  0  0  0  0  0  0  0
  -12.6403   17.0252  -41.3025 O   0  0  0  0  0  0  0  0  0  0  0  0
   -8.8549   15.7700  -36.8398 O   0  0  0  0  0  0  0  0  0  0  0  0
  -11.8227   12.9901  -38.5189 H   0  0  0  0  0  0  0  0  0  0  0  0
  -11.6343   13.1491  -36.7830 H   0  0  0  0  0  0  0  0  0  0  0  0
  -10.4482   16.8956  -38.1224 H   0  0  0  0  0  0  0  0  0  0  0  0
  -10.7744   16.0725  -39.6353 H   0  0  0  0  0  0  0  0  0  0  0  0
  -14.1120   16.2435  -36.9303 H   0  0  0  0  0  0  0  0  0  0  0  0
  -12.4851   15.9691  -36.2686 H   0  0  0  0  0  0  0  0  0  0  0  0
  -13.6399   13.6969  -39.6594 H   0  0  0  0  0  0  0  0  0  0  0  0
  -14.9500   14.6428  -38.9045 H   0  0  0  0  0  0  0  0  0  0  0  0
   -9.9225   14.2399  -38.6054 H   0  0  0  0  0  0  0  0  0  0  0  0
  -13.8610   13.7758  -36.9248 H   0  0  0  0  0  0  0  0  0  0  0  0
  -12.6837   17.5359  -38.4717 H   0  0  0  0  0  0  0  0  0  0  0  0
  -15.5139   16.6980  -41.1951 H   0  0  0  0  0  0  0  0  0  0  0  0
  -15.0893   14.9745  -41.0982 H   0  0  0  0  0  0  0  0  0  0  0  0
  -14.5949   15.9290  -42.5082 H   0  0  0  0  0  0  0  0  0  0  0  0
   -8.7667   16.0350  -37.7802 H   0  0  0  0  0  0  0  0  0  0  0  0
  1  7  1  1  0  0  0
  1 12  2  0  0  0  0
  1 14  1  0  0  0  0
  2 10  1  0  0  0  0
  2 11  1  0  0  0  0
  2 13  2  0  0  0  0
  3  7  1  0  0  0  0
  3  8  1  0  0  0  0
  4  7  1  0  0  0  0
  4  9  1  6  0  0  0
  5  8  1  0  0  0  0
  5  9  1  0  0  0  0
  6  8  1  6  0  0  0
  6 11  1  0  0  0  0
  9 11  1  0  0  0  0
  3 15  1  0  0  0  0
  3 16  1  0  0  0  0
  4 17  1  0  0  0  0
  4 18  1  0  0  0  0
  5 19  1  0  0  0  0
  5 20  1  0  0  0  0
  6 21  1  0  0  0  0
  6 22  1  0  0  0  0
  7 23  1  0  0  0  0
  8 24  1  0  0  0  0
  9 25  1  0  0  0  0
 10 26  1  0  0  0  0
 10 27  1  0  0  0  0
 10 28  1  0  0  0  0
 14 29  1  0  0  0  0
M  END
> <id>
EN300-28272051

> <smiles>
CC(=O)N1C[C@@H]2C[C@H]1C[C@H](C2)C(=O)O |&1:5,7,9,r|

> <IUPAC Name>
rac-(1R,3R,5R)-6-acetyl-6-azabicyclo[3.2.1]octane-3-carboxylic acid

> <CAS>
2679822-98-9

> <URL>
https://www.enaminestore.com/catalog/EN300-28272051

> <ROCS_ShapeQuery>
_x1247relevant_x1083L0AP1_x1305L0BP1_

> <ROCS_TanimotoCombo>
0.829 

> <ROCS_ShapeTanimoto>
0.494 

> <ROCS_ColorTanimoto>
0.335 

> <ROCS_RefTversky>
0.414 

> <ROCS_RefColorTversky>
0.374 

> <ROCS_RefTverskyCombo>
0.788 

> <ROCS_FitTversky>
1.647 

> <ROCS_FitColorTversky>
0.760 

> <ROCS_FitTverskyCombo>
2.407 

> <ROCS_ColorScore>
-7.953

> <ROCS_Overlap>
1217.903

> <ROCS_Rank>
289                 

$$$$
untitled-dbase-142308_32
  -OEChem-06232314393D

 34 36  0     1  0  0  0  0  0999 V2000
  -10.0868   14.7839  -37.3159 C   0  0  0  0  0  0  0  0  0  0  0  0
  -13.6763   14.2786  -38.3011 C   0  0  0  0  0  0  0  0  0  0  0  0
  -13.1122   16.5974  -38.6638 C   0  0  0  0  0  0  0  0  0  0  0  0
  -13.1363   15.2280  -39.4170 C   0  0  0  0  0  0  0  0  0  0  0  0
  -12.6519   14.6751  -37.2628 C   0  0  2  0  0  0  0  0  0  0  0  0
  -12.2995   16.1041  -37.4896 C   0  0  1  0  0  0  0  0  0  0  0  0
  -11.6224   14.8170  -39.4510 C   0  0  2  0  0  0  0  0  0  0  0  0
  -11.3729   15.0240  -37.9649 C   0  0  0  0  0  0  0  0  0  0  0  0
  -10.5159   14.1717  -34.8195 C   0  0  0  0  0  0  0  0  0  0  0  0
  -10.3991   11.7411  -35.4421 C   0  0  0  0  0  0  0  0  0  0  0  0
   -8.2949   13.1085  -35.3405 C   0  0  0  0  0  0  0  0  0  0  0  0
   -9.7888   13.1238  -35.6609 C   0  0  0  0  0  0  0  0  0  0  0  0
  -10.8017   15.6801  -40.2816 N   0  0  0  0  0  0  0  0  0  0  0  0
   -9.2706   15.6608  -37.0671 O   0  0  0  0  0  0  0  0  0  0  0  0
   -9.9549   13.4545  -37.0434 O   0  0  0  0  0  0  0  0  0  0  0  0
  -14.6959   14.5274  -37.9925 H   0  0  0  0  0  0  0  0  0  0  0  0
  -13.6027   13.2215  -38.5728 H   0  0  0  0  0  0  0  0  0  0  0  0
  -12.6044   17.3898  -39.2201 H   0  0  0  0  0  0  0  0  0  0  0  0
  -14.1114   16.9265  -38.3626 H   0  0  0  0  0  0  0  0  0  0  0  0
  -13.6719   15.2074  -40.3666 H   0  0  0  0  0  0  0  0  0  0  0  0
  -12.6904   14.2365  -36.2847 H   0  0  0  0  0  0  0  0  0  0  0  0
  -12.0639   16.7761  -36.6875 H   0  0  0  0  0  0  0  0  0  0  0  0
  -11.4973   13.7664  -39.7381 H   0  0  0  0  0  0  0  0  0  0  0  0
  -10.0808   15.1656  -34.9738 H   0  0  0  0  0  0  0  0  0  0  0  0
  -11.5820   14.2170  -35.0647 H   0  0  0  0  0  0  0  0  0  0  0  0
  -10.4156   13.9530  -33.7503 H   0  0  0  0  0  0  0  0  0  0  0  0
   -9.8805   10.9860  -36.0438 H   0  0  0  0  0  0  0  0  0  0  0  0
  -11.4478   11.7225  -35.7603 H   0  0  0  0  0  0  0  0  0  0  0  0
  -10.3505   11.4398  -34.3907 H   0  0  0  0  0  0  0  0  0  0  0  0
   -7.7731   12.3569  -35.9438 H   0  0  0  0  0  0  0  0  0  0  0  0
   -7.8324   14.0832  -35.5270 H   0  0  0  0  0  0  0  0  0  0  0  0
   -8.1239   12.8368  -34.2925 H   0  0  0  0  0  0  0  0  0  0  0  0
   -9.8479   15.4204  -40.1667 H   0  0  0  0  0  0  0  0  0  0  0  0
  -11.0781   15.5654  -41.2306 H   0  0  0  0  0  0  0  0  0  0  0  0
  1  8  1  0  0  0  0
  1 14  2  0  0  0  0
  1 15  1  0  0  0  0
  2  4  1  0  0  0  0
  2  5  1  0  0  0  0
  3  4  1  0  0  0  0
  3  6  1  0  0  0  0
  4  7  1  0  0  0  0
  5  6  1  0  0  0  0
  5  8  1  0  0  0  0
  6  8  1  0  0  0  0
  7  8  1  0  0  0  0
  7 13  1  0  0  0  0
  9 12  1  0  0  0  0
 10 12  1  0  0  0  0
 11 12  1  0  0  0  0
 12 15  1  0  0  0  0
  2 16  1  0  0  0  0
  2 17  1  0  0  0  0
  3 18  1  0  0  0  0
  3 19  1  0  0  0  0
  4 20  1  0  0  0  0
  5 21  1  0  0  0  0
  6 22  1  0  0  0  0
  7 23  1  0  0  0  0
  9 24  1  0  0  0  0
  9 25  1  0  0  0  0
  9 26  1  0  0  0  0
 10 27  1  0  0  0  0
 10 28  1  0  0  0  0
 10 29  1  0  0  0  0
 11 30  1  0  0  0  0
 11 31  1  0  0  0  0
 11 32  1  0  0  0  0
 13 33  1  0  0  0  0
 13 34  1  0  0  0  0
M  END
> <id>
EN300-27726543

> <smiles>
CC(C)(C)OC(=O)C1(C2CC3CC21)C3N

> <IUPAC Name>
tert-butyl 7-aminotricyclo[2.2.1.0,2,6]heptane-1-carboxylate

> <CAS>
2580205-85-0

> <URL>
https://www.enaminestore.com/catalog/EN300-27726543

> <ROCS_ShapeQuery>
_x1247relevant_x1083L0AP1_x1305L0BP1_

> <ROCS_TanimotoCombo>
0.829 

> <ROCS_ShapeTanimoto>
0.486 

> <ROCS_ColorTanimoto>
0.343 

> <ROCS_RefTversky>
0.416 

> <ROCS_RefColorTversky>
0.615 

> <ROCS_RefTverskyCombo>
1.031 

> <ROCS_FitTversky>
1.530 

> <ROCS_FitColorTversky>
0.436 

> <ROCS_FitTverskyCombo>
1.967 

> <ROCS_ColorScore>
-13.747

> <ROCS_Overlap>
1225.918

> <ROCS_Rank>
290                 

$$$$
untitled-dbase-117585_248
  -OEChem-06232314393D

 40 42  0     1  0  0  0  0  0999 V2000
  -11.7670   16.5880  -41.4388 C   0  0  0  0  0  0  0  0  0  0  0  0
   -9.8885   14.7362  -36.9741 C   0  0  0  0  0  0  0  0  0  0  0  0
  -14.0364   14.6634  -37.4491 C   0  0  0  0  0  0  0  0  0  0  0  0
  -13.2533   15.8017  -36.7469 C   0  0  0  0  0  0  0  0  0  0  0  0
  -11.8618   13.6733  -38.1305 C   0  0  0  0  0  0  0  0  0  0  0  0
  -11.7428   15.8199  -40.1857 C   0  0  2  0  0  0  0  0  0  0  0  0
  -13.2264   14.1457  -38.6663 C   0  0  2  0  0  0  0  0  0  0  0  0
  -13.0591   15.3272  -39.6149 C   0  0  1  0  0  0  0  0  0  0  0  0
  -12.3195   16.4530  -38.9374 C   0  0  1  0  0  0  0  0  0  0  0  0
  -11.9385   16.0782  -37.5123 C   0  0  2  0  0  0  0  0  0  0  0  0
  -10.0525   14.5558  -34.3642 C   0  0  0  0  0  0  0  0  0  0  0  0
   -9.7903   12.0657  -34.5645 C   0  0  0  0  0  0  0  0  0  0  0  0
   -7.8035   13.5639  -34.9055 C   0  0  0  0  0  0  0  0  0  0  0  0
   -9.3153   13.4234  -35.0776 C   0  0  0  0  0  0  0  0  0  0  0  0
  -11.1667   14.8192  -37.5177 N   0  0  0  0  0  0  0  0  0  0  0  0
  -10.9012   16.5526  -42.3005 O   0  0  0  0  0  0  0  0  0  0  0  0
   -9.0850   15.6654  -36.9412 O   0  0  0  0  0  0  0  0  0  0  0  0
  -12.8858   17.3497  -41.5119 O   0  0  0  0  0  0  0  0  0  0  0  0
   -9.6231   13.4883  -36.4746 O   0  0  0  0  0  0  0  0  0  0  0  0
  -14.2245   13.8490  -36.7396 H   0  0  0  0  0  0  0  0  0  0  0  0
  -15.0143   15.0385  -37.7746 H   0  0  0  0  0  0  0  0  0  0  0  0
  -13.8741   16.7052  -36.7174 H   0  0  0  0  0  0  0  0  0  0  0  0
  -13.0404   15.5251  -35.7073 H   0  0  0  0  0  0  0  0  0  0  0  0
  -11.9770   12.8945  -37.3680 H   0  0  0  0  0  0  0  0  0  0  0  0
  -11.2303   13.2658  -38.9276 H   0  0  0  0  0  0  0  0  0  0  0  0
  -10.8628   15.1987  -40.0867 H   0  0  0  0  0  0  0  0  0  0  0  0
  -13.7534   13.3265  -39.1653 H   0  0  0  0  0  0  0  0  0  0  0  0
  -13.9767   15.5723  -40.1368 H   0  0  0  0  0  0  0  0  0  0  0  0
  -12.7461   17.4468  -39.0052 H   0  0  0  0  0  0  0  0  0  0  0  0
  -11.3683   16.8843  -37.0410 H   0  0  0  0  0  0  0  0  0  0  0  0
   -9.7143   15.5320  -34.7298 H   0  0  0  0  0  0  0  0  0  0  0  0
  -11.1355   14.4864  -34.5091 H   0  0  0  0  0  0  0  0  0  0  0  0
   -9.8456   14.5401  -33.2880 H   0  0  0  0  0  0  0  0  0  0  0  0
   -9.2640   11.2503  -35.0736 H   0  0  0  0  0  0  0  0  0  0  0  0
  -10.8569   11.9216  -34.7717 H   0  0  0  0  0  0  0  0  0  0  0  0
   -9.6295   11.9625  -33.4865 H   0  0  0  0  0  0  0  0  0  0  0  0
   -7.2745   12.7518  -35.4171 H   0  0  0  0  0  0  0  0  0  0  0  0
   -7.4394   14.5172  -35.3019 H   0  0  0  0  0  0  0  0  0  0  0  0
   -7.5239   13.4970  -33.8478 H   0  0  0  0  0  0  0  0  0  0  0  0
  -12.9198   17.8722  -42.3414 H   0  0  0  0  0  0  0  0  0  0  0  0
  1  6  1  0  0  0  0
  1 16  2  0  0  0  0
  1 18  1  0  0  0  0
  2 15  1  0  0  0  0
  2 17  2  0  0  0  0
  2 19  1  0  0  0  0
  3  4  1  0  0  0  0
  3  7  1  0  0  0  0
  4 10  1  0  0  0  0
  5  7  1  0  0  0  0
  5 15  1  0  0  0  0
  6  8  1  0  0  0  0
  6  9  1  0  0  0  0
  7  8  1  0  0  0  0
  8  9  1  0  0  0  0
  9 10  1  0  0  0  0
 10 15  1  0  0  0  0
 11 14  1  0  0  0  0
 12 14  1  0  0  0  0
 13 14  1  0  0  0  0
 14 19  1  0  0  0  0
  3 20  1  0  0  0  0
  3 21  1  0  0  0  0
  4 22  1  0  0  0  0
  4 23  1  0  0  0  0
  5 24  1  0  0  0  0
  5 25  1  0  0  0  0
  6 26  1  0  0  0  0
  7 27  1  0  0  0  0
  8 28  1  0  0  0  0
  9 29  1  0  0  0  0
 10 30  1  0  0  0  0
 11 31  1  0  0  0  0
 11 32  1  0  0  0  0
 11 33  1  0  0  0  0
 12 34  1  0  0  0  0
 12 35  1  0  0  0  0
 12 36  1  0  0  0  0
 13 37  1  0  0  0  0
 13 38  1  0  0  0  0
 13 39  1  0  0  0  0
 18 40  1  0  0  0  0
M  END
> <id>
EN300-39671532

> <smiles>
CC(C)(C)OC(=O)N1CC2CCC1C3C(C32)C(=O)O

> <IUPAC Name>
6-[(tert-butoxy)carbonyl]-6-azatricyclo[3.2.2.0,2,4]nonane-3-carboxylic acid

> <URL>
https://www.enaminestore.com/catalog/EN300-39671532

> <ROCS_ShapeQuery>
_x1247relevant_x1083L0AP1_x1305L0BP1_

> <ROCS_TanimotoCombo>
0.829 

> <ROCS_ShapeTanimoto>
0.505 

> <ROCS_ColorTanimoto>
0.324 

> <ROCS_RefTversky>
0.445 

> <ROCS_RefColorTversky>
0.484 

> <ROCS_RefTverskyCombo>
0.929 

> <ROCS_FitTversky>
1.363 

> <ROCS_FitColorTversky>
0.495 

> <ROCS_FitTverskyCombo>
1.858 

> <ROCS_ColorScore>
-10.568

> <ROCS_Overlap>
1314.545

> <ROCS_Rank>
291                 

$$$$
untitled-dbase-150371_6
  -OEChem-06232314393D

 32 34  0     1  0  0  0  0  0999 V2000
  -13.5124   16.2961  -39.4645 C   0  0  0  0  0  0  0  0  0  0  0  0
  -12.4709   14.0206  -39.5515 C   0  0  0  0  0  0  0  0  0  0  0  0
  -14.0435   14.6020  -37.6946 C   0  0  0  0  0  0  0  0  0  0  0  0
  -11.0650   16.0309  -38.9931 C   0  0  0  0  0  0  0  0  0  0  0  0
  -12.6472   16.6093  -37.1341 C   0  0  0  0  0  0  0  0  0  0  0  0
  -12.2427   15.5137  -39.8380 C   0  0  2  0  0  0  0  0  0  0  0  0
  -13.8299   16.0983  -37.9739 C   0  0  1  0  0  0  0  0  0  0  0  0
  -12.7724   13.8085  -38.0545 C   0  0  0  0  0  0  0  0  0  0  0  0
  -11.6027   14.3206  -37.1744 C   0  0  2  0  0  0  0  0  0  0  0  0
  -11.3486   15.8310  -37.4814 C   0  0  0  0  0  0  0  0  0  0  0  0
  -10.1895   16.4023  -36.6509 C   0  0  0  0  0  0  0  0  0  0  0  0
  -10.4158   13.4896  -37.4002 N   0  0  0  0  0  0  0  0  0  0  0  0
   -9.0107   15.7094  -37.0054 O   0  0  0  0  0  0  0  0  0  0  0  0
  -13.3737   17.3626  -39.6807 H   0  0  0  0  0  0  0  0  0  0  0  0
  -14.3566   15.9545  -40.0760 H   0  0  0  0  0  0  0  0  0  0  0  0
  -13.3086   13.6494  -40.1552 H   0  0  0  0  0  0  0  0  0  0  0  0
  -11.5899   13.4416  -39.8534 H   0  0  0  0  0  0  0  0  0  0  0  0
  -14.2939   14.4496  -36.6375 H   0  0  0  0  0  0  0  0  0  0  0  0
  -14.8945   14.2302  -38.2786 H   0  0  0  0  0  0  0  0  0  0  0  0
  -10.1448   15.5096  -39.2852 H   0  0  0  0  0  0  0  0  0  0  0  0
  -10.8998   17.0948  -39.2086 H   0  0  0  0  0  0  0  0  0  0  0  0
  -12.5072   17.6827  -37.3160 H   0  0  0  0  0  0  0  0  0  0  0  0
  -12.8788   16.5007  -36.0667 H   0  0  0  0  0  0  0  0  0  0  0  0
  -12.0234   15.6558  -40.9022 H   0  0  0  0  0  0  0  0  0  0  0  0
  -14.7364   16.6559  -37.7125 H   0  0  0  0  0  0  0  0  0  0  0  0
  -12.9524   12.7432  -37.8645 H   0  0  0  0  0  0  0  0  0  0  0  0
  -11.8802   14.2088  -36.1177 H   0  0  0  0  0  0  0  0  0  0  0  0
  -10.3965   16.2581  -35.5941 H   0  0  0  0  0  0  0  0  0  0  0  0
  -10.0740   17.4600  -36.8707 H   0  0  0  0  0  0  0  0  0  0  0  0
   -9.6970   13.8160  -36.8017 H   0  0  0  0  0  0  0  0  0  0  0  0
  -10.6561   12.5522  -37.1881 H   0  0  0  0  0  0  0  0  0  0  0  0
   -8.2859   16.0811  -36.4725 H   0  0  0  0  0  0  0  0  0  0  0  0
  1  6  1  0  0  0  0
  1  7  1  0  0  0  0
  2  6  1  0  0  0  0
  2  8  1  0  0  0  0
  3  7  1  0  0  0  0
  3  8  1  0  0  0  0
  4  6  1  0  0  0  0
  4 10  1  0  0  0  0
  5  7  1  0  0  0  0
  5 10  1  0  0  0  0
  8  9  1  0  0  0  0
  9 10  1  0  0  0  0
  9 12  1  0  0  0  0
 10 11  1  0  0  0  0
 11 13  1  0  0  0  0
  1 14  1  0  0  0  0
  1 15  1  0  0  0  0
  2 16  1  0  0  0  0
  2 17  1  0  0  0  0
  3 18  1  0  0  0  0
  3 19  1  0  0  0  0
  4 20  1  0  0  0  0
  4 21  1  0  0  0  0
  5 22  1  0  0  0  0
  5 23  1  0  0  0  0
  6 24  1  0  0  0  0
  7 25  1  0  0  0  0
  8 26  1  0  0  0  0
  9 27  1  0  0  0  0
 11 28  1  0  0  0  0
 11 29  1  0  0  0  0
 12 30  1  0  0  0  0
 12 31  1  0  0  0  0
 13 32  1  0  0  0  0
M  END
> <id>
EN300-27108193

> <smiles>
Cl.NC1C2CC3CC(C2)CC1(CO)C3

> <IUPAC Name>
(2-aminoadamantan-1-yl)methanol hydrochloride

> <CAS>
2624133-96-4

> <Purity>
95

> <URL>
https://www.enaminestore.com/catalog/EN300-27108193

> <Saltdate>
Cl

> <ROCS_ShapeQuery>
_x1247relevant_x1083L0AP1_x1305L0BP1_

> <ROCS_TanimotoCombo>
0.829 

> <ROCS_ShapeTanimoto>
0.465 

> <ROCS_ColorTanimoto>
0.363 

> <ROCS_RefTversky>
0.393 

> <ROCS_RefColorTversky>
0.405 

> <ROCS_RefTverskyCombo>
0.798 

> <ROCS_FitTversky>
1.649 

> <ROCS_FitColorTversky>
0.781 

> <ROCS_FitTverskyCombo>
2.430 

> <ROCS_ColorScore>
-8.610

> <ROCS_Overlap>
1156.693

> <ROCS_Rank>
292                 

$$$$
untitled-dbase-118311_108
  -OEChem-06232314393D

 35 36  0     1  0  0  0  0  0999 V2000
  -10.2230   15.3218  -36.8260 C   0  0  0  0  0  0  0  0  0  0  0  0
  -13.3262   16.7713  -40.4523 C   0  0  0  0  0  0  0  0  0  0  0  0
  -12.7214   15.8133  -37.0329 C   0  0  0  0  0  0  0  0  0  0  0  0
  -13.2260   14.0062  -38.4490 C   0  0  0  0  0  0  0  0  0  0  0  0
  -11.3637   16.1528  -38.9604 C   0  0  0  0  0  0  0  0  0  0  0  0
  -13.5377   15.4989  -38.2801 C   0  0  2  0  0  0  0  0  0  0  0  0
  -11.4366   15.3096  -37.6799 C   0  0  1  0  0  0  0  0  0  0  0  0
  -14.2154   14.8747  -42.0240 C   0  0  0  0  0  0  0  0  0  0  0  0
  -16.5199   15.2491  -41.0974 C   0  0  0  0  0  0  0  0  0  0  0  0
  -15.5353   16.9056  -42.7082 C   0  0  0  0  0  0  0  0  0  0  0  0
  -15.2358   15.9212  -41.5785 C   0  0  0  0  0  0  0  0  0  0  0  0
  -11.8075   13.9134  -38.0145 N   0  0  0  0  0  0  0  0  0  0  0  0
  -12.7803   16.2092  -39.3187 N   0  0  0  0  0  0  0  0  0  0  0  0
   -9.2003   15.9452  -37.0687 O   0  0  0  0  0  0  0  0  0  0  0  0
  -12.6725   17.3161  -41.3384 O   0  0  0  0  0  0  0  0  0  0  0  0
  -10.3993   14.5408  -35.7323 O   0  0  0  0  0  0  0  0  0  0  0  0
  -14.6893   16.6487  -40.4729 O   0  0  0  0  0  0  0  0  0  0  0  0
  -12.6966   16.8807  -36.7855 H   0  0  0  0  0  0  0  0  0  0  0  0
  -13.0281   15.2481  -36.1448 H   0  0  0  0  0  0  0  0  0  0  0  0
  -13.8556   13.3971  -37.7909 H   0  0  0  0  0  0  0  0  0  0  0  0
  -13.3512   13.6574  -39.4788 H   0  0  0  0  0  0  0  0  0  0  0  0
  -10.9985   17.1708  -38.7868 H   0  0  0  0  0  0  0  0  0  0  0  0
  -10.7834   15.6928  -39.7670 H   0  0  0  0  0  0  0  0  0  0  0  0
  -14.5983   15.7550  -38.2624 H   0  0  0  0  0  0  0  0  0  0  0  0
  -13.2923   15.3532  -42.3701 H   0  0  0  0  0  0  0  0  0  0  0  0
  -13.9658   14.1837  -41.2123 H   0  0  0  0  0  0  0  0  0  0  0  0
  -14.5972   14.2916  -42.8699 H   0  0  0  0  0  0  0  0  0  0  0  0
  -17.2549   15.9962  -40.7768 H   0  0  0  0  0  0  0  0  0  0  0  0
  -16.3250   14.6139  -40.2257 H   0  0  0  0  0  0  0  0  0  0  0  0
  -16.9715   14.6327  -41.8815 H   0  0  0  0  0  0  0  0  0  0  0  0
  -16.2672   17.6564  -42.3889 H   0  0  0  0  0  0  0  0  0  0  0  0
  -14.6307   17.4247  -43.0412 H   0  0  0  0  0  0  0  0  0  0  0  0
  -15.9771   16.3893  -43.5681 H   0  0  0  0  0  0  0  0  0  0  0  0
  -11.7725   13.3417  -37.1693 H   0  0  0  0  0  0  0  0  0  0  0  0
   -9.6061   14.5342  -35.1551 H   0  0  0  0  0  0  0  0  0  0  0  0
  1  7  1  0  0  0  0
  1 14  2  0  0  0  0
  1 16  1  0  0  0  0
  2 13  1  0  0  0  0
  2 15  2  0  0  0  0
  2 17  1  0  0  0  0
  3  6  1  0  0  0  0
  3  7  1  0  0  0  0
  4  6  1  0  0  0  0
  4 12  1  0  0  0  0
  5  7  1  0  0  0  0
  5 13  1  0  0  0  0
  6 13  1  0  0  0  0
  7 12  1  0  0  0  0
  8 11  1  0  0  0  0
  9 11  1  0  0  0  0
 10 11  1  0  0  0  0
 11 17  1  0  0  0  0
  3 18  1  0  0  0  0
  3 19  1  0  0  0  0
  4 20  1  0  0  0  0
  4 21  1  0  0  0  0
  5 22  1  0  0  0  0
  5 23  1  0  0  0  0
  6 24  1  0  0  0  0
  8 25  1  0  0  0  0
  8 26  1  0  0  0  0
  8 27  1  0  0  0  0
  9 28  1  0  0  0  0
  9 29  1  0  0  0  0
  9 30  1  0  0  0  0
 10 31  1  0  0  0  0
 10 32  1  0  0  0  0
 10 33  1  0  0  0  0
 12 34  1  0  0  0  0
 16 35  1  0  0  0  0
M  END
> <id>
EN300-6735761

> <smiles>
CC(C)(C)OC(=O)N1CC2(CC1CN2)C(=O)O

> <IUPAC Name>
5-[(tert-butoxy)carbonyl]-2,5-diazabicyclo[2.2.1]heptane-1-carboxylic acid

> <CAS>
1779741-56-8

> <Purity>
95

> <URL>
https://www.enaminestore.com/catalog/EN300-6735761

> <ROCS_ShapeQuery>
_x1247relevant_x1083L0AP1_x1305L0BP1_

> <ROCS_TanimotoCombo>
0.829 

> <ROCS_ShapeTanimoto>
0.472 

> <ROCS_ColorTanimoto>
0.356 

> <ROCS_RefTversky>
0.417 

> <ROCS_RefColorTversky>
0.432 

> <ROCS_RefTverskyCombo>
0.850 

> <ROCS_FitTversky>
1.389 

> <ROCS_FitColorTversky>
0.670 

> <ROCS_FitTverskyCombo>
2.059 

> <ROCS_ColorScore>
-9.266

> <ROCS_Overlap>
1230.741

> <ROCS_Rank>
293                 

$$$$
untitled-dbase-111055_5
  -OEChem-06232314393D

 25 27  0     1  0  0  0  0  0999 V2000
   -9.8921   15.2095  -36.3193 C   0  0  0  0  0  0  0  0  0  0  0  0
  -13.9750   15.2144  -37.7377 C   0  0  0  0  0  0  0  0  0  0  0  0
  -11.3035   15.2130  -36.7281 C   0  0  2  0  0  0  0  0  0  0  0  0
  -13.1275   14.1293  -38.4102 C   0  0  2  0  0  0  0  0  0  0  0  0
  -11.6955   14.4636  -37.9846 C   0  0  1  0  0  0  0  0  0  0  0  0
  -11.6926   15.9628  -37.9817 C   0  0  1  0  0  0  0  0  0  0  0  0
  -13.1287   16.3370  -38.3357 C   0  0  1  0  0  0  0  0  0  0  0  0
  -13.2410   14.5644  -39.8937 C   0  0  1  0  0  0  0  0  0  0  0  0
  -14.4699   14.0031  -40.6010 C   0  0  0  0  0  0  0  0  0  0  0  0
  -13.2865   16.0578  -39.7905 N   0  0  0  0  0  0  0  0  0  0  0  0
   -8.9760   15.7092  -36.9552 O   0  0  0  0  0  0  0  0  0  0  0  0
   -9.7388   14.5707  -35.1337 O   0  0  0  0  0  0  0  0  0  0  0  0
  -15.0221   15.2313  -38.0579 H   0  0  0  0  0  0  0  0  0  0  0  0
  -13.9530   15.1746  -36.6457 H   0  0  0  0  0  0  0  0  0  0  0  0
  -11.9902   15.2128  -35.8921 H   0  0  0  0  0  0  0  0  0  0  0  0
  -13.4242   13.1007  -38.1967 H   0  0  0  0  0  0  0  0  0  0  0  0
  -10.9338   13.9332  -38.5398 H   0  0  0  0  0  0  0  0  0  0  0  0
  -10.9357   16.4952  -38.5410 H   0  0  0  0  0  0  0  0  0  0  0  0
  -13.4117   17.3514  -38.0481 H   0  0  0  0  0  0  0  0  0  0  0  0
  -12.3488   14.2749  -40.4620 H   0  0  0  0  0  0  0  0  0  0  0  0
  -15.3713   14.2780  -40.0541 H   0  0  0  0  0  0  0  0  0  0  0  0
  -14.4044   12.9168  -40.6536 H   0  0  0  0  0  0  0  0  0  0  0  0
  -14.5321   14.4043  -41.6121 H   0  0  0  0  0  0  0  0  0  0  0  0
  -14.2064   16.3857  -40.0864 H   0  0  0  0  0  0  0  0  0  0  0  0
  -10.5929   14.2401  -34.7824 H   0  0  0  0  0  0  0  0  0  0  0  0
  1  3  1  0  0  0  0
  1 11  2  0  0  0  0
  1 12  1  0  0  0  0
  2  4  1  0  0  0  0
  2  7  1  0  0  0  0
  3  5  1  0  0  0  0
  3  6  1  0  0  0  0
  4  5  1  0  0  0  0
  4  8  1  0  0  0  0
  5  6  1  0  0  0  0
  6  7  1  0  0  0  0
  7 10  1  0  0  0  0
  8  9  1  0  0  0  0
  8 10  1  0  0  0  0
  2 13  1  0  0  0  0
  2 14  1  0  0  0  0
  3 15  1  0  0  0  0
  4 16  1  0  0  0  0
  5 17  1  0  0  0  0
  6 18  1  0  0  0  0
  7 19  1  0  0  0  0
  8 20  1  0  0  0  0
  9 21  1  0  0  0  0
  9 22  1  0  0  0  0
  9 23  1  0  0  0  0
 10 24  1  0  0  0  0
 12 25  1  0  0  0  0
M  END
> <id>
EN300-1653456

> <smiles>
CC1NC2CC1C3C(C32)C(=O)O

> <IUPAC Name>
7-methyl-6-azatricyclo[3.2.1.0,2,4]octane-3-carboxylic acid

> <CAS>
2172458-50-1

> <URL>
https://www.enaminestore.com/catalog/EN300-1653456

> <ROCS_ShapeQuery>
_x1247relevant_x1083L0AP1_x1305L0BP1_

> <ROCS_TanimotoCombo>
0.829 

> <ROCS_ShapeTanimoto>
0.466 

> <ROCS_ColorTanimoto>
0.363 

> <ROCS_RefTversky>
0.390 

> <ROCS_RefColorTversky>
0.536 

> <ROCS_RefTverskyCombo>
0.926 

> <ROCS_FitTversky>
1.714 

> <ROCS_FitColorTversky>
0.529 

> <ROCS_FitTverskyCombo>
2.243 

> <ROCS_ColorScore>
-11.713

> <ROCS_Overlap>
1146.563

> <ROCS_Rank>
294                 

$$$$
untitled-dbase-53604_0
  -OEChem-06232314393D

 36 38  0     1  0  0  0  0  0999 V2000
  -13.3093   16.5501  -38.9524 C   0  0  0  0  0  0  0  0  0  0  0  0
  -13.8093   14.1508  -38.4366 C   0  0  0  0  0  0  0  0  0  0  0  0
  -11.9235   16.1540  -39.4754 C   0  0  0  0  0  0  0  0  0  0  0  0
  -12.4426   13.7689  -39.0193 C   0  0  0  0  0  0  0  0  0  0  0  0
  -12.7340   15.6153  -36.7091 C   0  0  0  0  0  0  0  0  0  0  0  0
   -8.6986   14.4802  -36.3630 C   0  0  0  0  0  0  0  0  0  0  0  0
  -10.2655   16.1668  -36.7986 C   0  0  0  0  0  0  0  0  0  0  0  0
  -13.7629   15.5731  -37.8556 C   0  0  0  0  0  0  0  0  0  0  0  0
  -11.4201   14.8936  -38.7449 C   0  0  0  0  0  0  0  0  0  0  0  0
   -9.7268   13.4135  -36.7186 C   0  0  1  0  0  0  0  0  0  0  0  0
  -11.3397   15.1435  -37.2039 C   0  0  2  0  0  0  0  0  0  0  0  0
   -9.5525   12.1701  -35.8592 C   0  0  0  0  0  0  0  0  0  0  0  0
   -9.7058   12.5042  -34.4813 N   0  0  0  0  0  0  0  0  0  0  0  0
   -8.9627   15.6690  -37.1096 O   0  0  0  0  0  0  0  0  0  0  0  0
  -11.0504   13.9154  -36.5010 O   0  0  0  0  0  0  0  0  0  0  0  0
  -13.2785   17.5737  -38.5600 H   0  0  0  0  0  0  0  0  0  0  0  0
  -14.0309   16.5533  -39.7781 H   0  0  0  0  0  0  0  0  0  0  0  0
  -14.5758   14.0843  -39.2180 H   0  0  0  0  0  0  0  0  0  0  0  0
  -14.0936   13.4348  -37.6559 H   0  0  0  0  0  0  0  0  0  0  0  0
  -11.9827   15.9614  -40.5541 H   0  0  0  0  0  0  0  0  0  0  0  0
  -11.2223   16.9869  -39.3594 H   0  0  0  0  0  0  0  0  0  0  0  0
  -12.1073   12.8162  -38.5938 H   0  0  0  0  0  0  0  0  0  0  0  0
  -12.5357   13.6033  -40.0997 H   0  0  0  0  0  0  0  0  0  0  0  0
  -12.6864   16.6417  -36.3236 H   0  0  0  0  0  0  0  0  0  0  0  0
  -13.0859   14.9872  -35.8808 H   0  0  0  0  0  0  0  0  0  0  0  0
   -8.7203   14.7244  -35.2938 H   0  0  0  0  0  0  0  0  0  0  0  0
   -7.6874   14.1418  -36.6104 H   0  0  0  0  0  0  0  0  0  0  0  0
  -10.3932   17.1232  -37.3131 H   0  0  0  0  0  0  0  0  0  0  0  0
  -10.3061   16.3737  -35.7211 H   0  0  0  0  0  0  0  0  0  0  0  0
  -14.7515   15.8608  -37.4814 H   0  0  0  0  0  0  0  0  0  0  0  0
  -10.4492   14.6010  -39.1577 H   0  0  0  0  0  0  0  0  0  0  0  0
   -9.6256   13.1259  -37.7702 H   0  0  0  0  0  0  0  0  0  0  0  0
  -10.3143   11.4516  -36.1630 H   0  0  0  0  0  0  0  0  0  0  0  0
   -8.5520   11.7792  -36.0463 H   0  0  0  0  0  0  0  0  0  0  0  0
  -10.6109   12.9082  -34.3229 H   0  0  0  0  0  0  0  0  0  0  0  0
   -9.6147   11.6804  -33.9150 H   0  0  0  0  0  0  0  0  0  0  0  0
  1  3  1  0  0  0  0
  1  8  1  0  0  0  0
  2  4  1  0  0  0  0
  2  8  1  0  0  0  0
  3  9  1  0  0  0  0
  4  9  1  0  0  0  0
  5  8  1  0  0  0  0
  5 11  1  0  0  0  0
  6 10  1  0  0  0  0
  6 14  1  0  0  0  0
  7 11  1  0  0  0  0
  7 14  1  0  0  0  0
  9 11  1  0  0  0  0
 10 12  1  0  0  0  0
 10 15  1  0  0  0  0
 11 15  1  0  0  0  0
 12 13  1  0  0  0  0
  1 16  1  0  0  0  0
  1 17  1  0  0  0  0
  2 18  1  0  0  0  0
  2 19  1  0  0  0  0
  3 20  1  0  0  0  0
  3 21  1  0  0  0  0
  4 22  1  0  0  0  0
  4 23  1  0  0  0  0
  5 24  1  0  0  0  0
  5 25  1  0  0  0  0
  6 26  1  0  0  0  0
  6 27  1  0  0  0  0
  7 28  1  0  0  0  0
  7 29  1  0  0  0  0
  8 30  1  0  0  0  0
  9 31  1  0  0  0  0
 10 32  1  0  0  0  0
 12 33  1  0  0  0  0
 12 34  1  0  0  0  0
 13 35  1  0  0  0  0
 13 36  1  0  0  0  0
M  END
> <id>
EN300-1627249

> <smiles>
NCC1COCC2(CC3CCC2CC3)O1

> <IUPAC Name>
spiro[bicyclo[2.2.2]octane-2,2'-[1,4]dioxane]-6'-ylmethanamine

> <CAS>
2172497-80-0

> <URL>
https://www.enaminestore.com/catalog/EN300-1627249

> <ROCS_ShapeQuery>
_x1247relevant_x1083L0AP1_x1305L0BP1_

> <ROCS_TanimotoCombo>
0.829 

> <ROCS_ShapeTanimoto>
0.482 

> <ROCS_ColorTanimoto>
0.347 

> <ROCS_RefTversky>
0.412 

> <ROCS_RefColorTversky>
0.397 

> <ROCS_RefTverskyCombo>
0.809 

> <ROCS_FitTversky>
1.543 

> <ROCS_FitColorTversky>
0.734 

> <ROCS_FitTverskyCombo>
2.277 

> <ROCS_ColorScore>
-8.458

> <ROCS_Overlap>
1212.497

> <ROCS_Rank>
295                 

$$$$
untitled-dbase-171675_4
  -OEChem-06232314393D

 29 30  0     0  0  0  0  0  0999 V2000
  -10.2989   15.0335  -36.6669 C   0  0  0  0  0  0  0  0  0  0  0  0
  -11.1101   15.6896  -38.9414 C   0  0  0  0  0  0  0  0  0  0  0  0
  -12.4959   16.1761  -36.9282 C   0  0  0  0  0  0  0  0  0  0  0  0
  -12.3557   15.7376  -39.8336 C   0  0  0  0  0  0  0  0  0  0  0  0
  -13.7616   16.2316  -37.7913 C   0  0  0  0  0  0  0  0  0  0  0  0
  -12.2287   13.8375  -37.7202 C   0  0  0  0  0  0  0  0  0  0  0  0
  -11.5039   15.1795  -37.5466 C   0  0  0  0  0  0  0  0  0  0  0  0
  -13.5943   15.3182  -39.0202 C   0  0  0  0  0  0  0  0  0  0  0  0
  -14.8492   15.3271  -39.8864 C   0  0  0  0  0  0  0  0  0  0  0  0
   -7.9520   15.3074  -36.6336 C   0  0  0  0  0  0  0  0  0  0  0  0
  -10.3399   14.6441  -35.5077 O   0  0  0  0  0  0  0  0  0  0  0  0
  -13.3897   13.9702  -38.5545 O   0  0  0  0  0  0  0  0  0  0  0  0
   -9.1823   15.3985  -37.3590 O   0  0  0  0  0  0  0  0  0  0  0  0
  -10.3511   15.0392  -39.3948 H   0  0  0  0  0  0  0  0  0  0  0  0
  -10.6554   16.6865  -38.8788 H   0  0  0  0  0  0  0  0  0  0  0  0
  -12.0483   17.1754  -36.8523 H   0  0  0  0  0  0  0  0  0  0  0  0
  -12.7565   15.8836  -35.9029 H   0  0  0  0  0  0  0  0  0  0  0  0
  -12.4800   16.7440  -40.2504 H   0  0  0  0  0  0  0  0  0  0  0  0
  -12.2087   15.0513  -40.6771 H   0  0  0  0  0  0  0  0  0  0  0  0
  -14.6130   15.8959  -37.1860 H   0  0  0  0  0  0  0  0  0  0  0  0
  -13.9646   17.2657  -38.0935 H   0  0  0  0  0  0  0  0  0  0  0  0
  -11.5732   13.0856  -38.1751 H   0  0  0  0  0  0  0  0  0  0  0  0
  -12.5557   13.4308  -36.7561 H   0  0  0  0  0  0  0  0  0  0  0  0
  -15.7125   15.0279  -39.2927 H   0  0  0  0  0  0  0  0  0  0  0  0
  -14.7321   14.6321  -40.7173 H   0  0  0  0  0  0  0  0  0  0  0  0
  -15.0204   16.3278  -40.2821 H   0  0  0  0  0  0  0  0  0  0  0  0
   -7.1254   15.6207  -37.2759 H   0  0  0  0  0  0  0  0  0  0  0  0
   -7.7992   14.2774  -36.3015 H   0  0  0  0  0  0  0  0  0  0  0  0
   -8.0033   15.9651  -35.7627 H   0  0  0  0  0  0  0  0  0  0  0  0
  1  7  1  0  0  0  0
  1 11  2  0  0  0  0
  1 13  1  0  0  0  0
  2  4  1  0  0  0  0
  2  7  1  0  0  0  0
  3  5  1  0  0  0  0
  3  7  1  0  0  0  0
  4  8  1  0  0  0  0
  5  8  1  0  0  0  0
  6  7  1  0  0  0  0
  6 12  1  0  0  0  0
  8  9  1  0  0  0  0
  8 12  1  0  0  0  0
 10 13  1  0  0  0  0
  2 14  1  0  0  0  0
  2 15  1  0  0  0  0
  3 16  1  0  0  0  0
  3 17  1  0  0  0  0
  4 18  1  0  0  0  0
  4 19  1  0  0  0  0
  5 20  1  0  0  0  0
  5 21  1  0  0  0  0
  6 22  1  0  0  0  0
  6 23  1  0  0  0  0
  9 24  1  0  0  0  0
  9 25  1  0  0  0  0
  9 26  1  0  0  0  0
 10 27  1  0  0  0  0
 10 28  1  0  0  0  0
 10 29  1  0  0  0  0
M  END
> <id>
EN300-39659486

> <smiles>
COC(=O)C1(CCC2(C)CC1)CO2

> <IUPAC Name>
methyl 1-methyl-2-oxabicyclo[2.2.2]octane-4-carboxylate

> <Purity>
91

> <URL>
https://www.enaminestore.com/catalog/EN300-39659486

> <ROCS_ShapeQuery>
_x1247relevant_x1083L0AP1_x1305L0BP1_

> <ROCS_TanimotoCombo>
0.829 

> <ROCS_ShapeTanimoto>
0.494 

> <ROCS_ColorTanimoto>
0.335 

> <ROCS_RefTversky>
0.409 

> <ROCS_RefColorTversky>
0.354 

> <ROCS_RefTverskyCombo>
0.764 

> <ROCS_FitTversky>
1.716 

> <ROCS_FitColorTversky>
0.858 

> <ROCS_FitTverskyCombo>
2.574 

> <ROCS_ColorScore>
-7.498

> <ROCS_Overlap>
1203.885

> <ROCS_Rank>
296                 

$$$$
untitled-dbase-178075_36
  -OEChem-06232314393D

 39 41  0     1  0  0  0  0  0999 V2000
  -13.3451   16.9194  -40.4831 C   0  0  0  0  0  0  0  0  0  0  0  0
  -10.5904   14.3988  -36.7132 C   0  0  0  0  0  0  0  0  0  0  0  0
  -14.1320   15.0132  -37.1161 C   0  0  0  0  0  0  0  0  0  0  0  0
  -13.8577   13.7345  -37.9359 C   0  0  0  0  0  0  0  0  0  0  0  0
  -11.1951   15.6506  -39.9386 C   0  0  0  0  0  0  0  0  0  0  0  0
  -12.5641   16.7978  -38.0361 C   0  0  0  0  0  0  0  0  0  0  0  0
  -12.3351   14.7249  -39.6248 C   0  0  1  0  0  0  0  0  0  0  0  0
  -12.7629   15.7009  -36.9691 C   0  0  2  0  0  0  0  0  0  0  0  0
  -12.3972   13.8718  -38.3764 C   0  0  1  0  0  0  0  0  0  0  0  0
  -12.5187   16.2358  -39.4639 C   0  0  1  0  0  0  0  0  0  0  0  0
   -7.9214   13.6436  -36.0250 C   0  0  0  0  0  0  0  0  0  0  0  0
   -7.5914   13.2643  -38.4860 C   0  0  0  0  0  0  0  0  0  0  0  0
   -8.1425   15.5632  -37.6377 C   0  0  0  0  0  0  0  0  0  0  0  0
   -8.3512   14.0638  -37.4298 C   0  0  0  0  0  0  0  0  0  0  0  0
  -11.8350   14.6216  -37.2683 N   0  0  0  0  0  0  0  0  0  0  0  0
  -14.4821   16.5670  -40.7790 O   0  0  0  0  0  0  0  0  0  0  0  0
  -10.2769   14.7194  -35.5691 O   0  0  0  0  0  0  0  0  0  0  0  0
   -9.7440   13.7714  -37.5867 O   0  0  0  0  0  0  0  0  0  0  0  0
  -12.8729   17.7855  -40.9770 H   0  0  0  0  0  0  0  0  0  0  0  0
  -14.8738   15.6511  -37.6078 H   0  0  0  0  0  0  0  0  0  0  0  0
  -14.5301   14.7339  -36.1339 H   0  0  0  0  0  0  0  0  0  0  0  0
  -13.9764   12.8578  -37.2880 H   0  0  0  0  0  0  0  0  0  0  0  0
  -14.5575   13.6373  -38.7722 H   0  0  0  0  0  0  0  0  0  0  0  0
  -10.3395   15.6857  -39.2761 H   0  0  0  0  0  0  0  0  0  0  0  0
  -10.9248   15.7725  -40.9824 H   0  0  0  0  0  0  0  0  0  0  0  0
  -13.3738   17.5331  -37.9533 H   0  0  0  0  0  0  0  0  0  0  0  0
  -11.6296   17.3387  -37.8401 H   0  0  0  0  0  0  0  0  0  0  0  0
  -12.8061   14.2330  -40.4695 H   0  0  0  0  0  0  0  0  0  0  0  0
  -12.6178   16.1114  -35.9655 H   0  0  0  0  0  0  0  0  0  0  0  0
  -11.8964   12.9114  -38.5278 H   0  0  0  0  0  0  0  0  0  0  0  0
   -8.4645   14.2152  -35.2640 H   0  0  0  0  0  0  0  0  0  0  0  0
   -8.0985   12.5772  -35.8511 H   0  0  0  0  0  0  0  0  0  0  0  0
   -6.8568   13.8484  -35.8642 H   0  0  0  0  0  0  0  0  0  0  0  0
   -7.8966   13.5626  -39.4955 H   0  0  0  0  0  0  0  0  0  0  0  0
   -7.8132   12.1944  -38.4000 H   0  0  0  0  0  0  0  0  0  0  0  0
   -6.5091   13.4023  -38.3961 H   0  0  0  0  0  0  0  0  0  0  0  0
   -8.4507   15.8649  -38.6453 H   0  0  0  0  0  0  0  0  0  0  0  0
   -8.7099   16.1539  -36.9113 H   0  0  0  0  0  0  0  0  0  0  0  0
   -7.0821   15.8252  -37.5473 H   0  0  0  0  0  0  0  0  0  0  0  0
  1 10  1  6  0  0  0
  1 16  2  0  0  0  0
  2 15  1  0  0  0  0
  2 17  2  0  0  0  0
  2 18  1  0  0  0  0
  3  4  1  0  0  0  0
  3  8  1  6  0  0  0
  4  9  1  6  0  0  0
  5  7  1  1  0  0  0
  5 10  1  0  0  0  0
  6  8  1  0  0  0  0
  6 10  1  0  0  0  0
  7  9  1  0  0  0  0
  7 10  1  0  0  0  0
  8 15  1  0  0  0  0
  9 15  1  0  0  0  0
 11 14  1  0  0  0  0
 12 14  1  0  0  0  0
 13 14  1  0  0  0  0
 14 18  1  0  0  0  0
  1 19  1  0  0  0  0
  3 20  1  0  0  0  0
  3 21  1  0  0  0  0
  4 22  1  0  0  0  0
  4 23  1  0  0  0  0
  5 24  1  0  0  0  0
  5 25  1  0  0  0  0
  6 26  1  0  0  0  0
  6 27  1  0  0  0  0
  7 28  1  0  0  0  0
  8 29  1  0  0  0  0
  9 30  1  0  0  0  0
 11 31  1  0  0  0  0
 11 32  1  0  0  0  0
 11 33  1  0  0  0  0
 12 34  1  0  0  0  0
 12 35  1  0  0  0  0
 12 36  1  0  0  0  0
 13 37  1  0  0  0  0
 13 38  1  0  0  0  0
 13 39  1  0  0  0  0
M  END
> <id>
EN300-7263117

> <smiles>
CC(C)(C)OC(=O)N1[C@@H]2CC[C@H]1[C@@H]3C[C@@]3(C2)C=O |&1:8,11,12,14,r|

> <IUPAC Name>
rac-tert-butyl (1R,2S,4R,6S)-4-formyl-9-azatricyclo[4.2.1.0,2,4]nonane-9-carboxylate

> <Purity>
95

> <URL>
https://www.enaminestore.com/catalog/EN300-7263117

> <ROCS_ShapeQuery>
_x1247relevant_x1083L0AP1_x1305L0BP1_

> <ROCS_TanimotoCombo>
0.828 

> <ROCS_ShapeTanimoto>
0.509 

> <ROCS_ColorTanimoto>
0.319 

> <ROCS_RefTversky>
0.443 

> <ROCS_RefColorTversky>
0.393 

> <ROCS_RefTverskyCombo>
0.836 

> <ROCS_FitTversky>
1.417 

> <ROCS_FitColorTversky>
0.629 

> <ROCS_FitTverskyCombo>
2.046 

> <ROCS_ColorScore>
-8.408

> <ROCS_Overlap>
1307.390

> <ROCS_Rank>
297                 

$$$$
untitled-dbase-73839_8
  -OEChem-06232314393D

 29 32  0     1  0  0  0  0  0999 V2000
   -9.9872   15.2143  -36.5987 C   0  0  0  0  0  0  0  0  0  0  0  0
  -13.4158   13.7664  -38.7995 C   0  0  0  0  0  0  0  0  0  0  0  0
  -14.0641   15.9885  -37.8130 C   0  0  0  0  0  0  0  0  0  0  0  0
  -12.3745   14.5394  -36.6472 C   0  0  0  0  0  0  0  0  0  0  0  0
  -10.9968   14.4480  -38.7506 C   0  0  0  0  0  0  0  0  0  0  0  0
  -11.6462   16.6740  -37.7625 C   0  0  0  0  0  0  0  0  0  0  0  0
  -13.6655   14.5343  -37.4843 C   0  0  0  0  0  0  0  0  0  0  0  0
  -12.2841   14.4424  -39.5971 C   0  0  2  0  0  0  0  0  0  0  0  0
  -12.9361   16.6773  -38.6051 C   0  0  1  0  0  0  0  0  0  0  0  0
  -11.2363   15.2199  -37.4323 C   0  0  0  0  0  0  0  0  0  0  0  0
  -12.6818   15.8732  -39.8539 C   0  0  0  0  0  0  0  0  0  0  0  0
  -12.1977   16.5445  -41.0482 N   0  0  0  0  0  0  0  0  0  0  0  0
  -13.3951   16.2071  -41.0750 N   0  0  0  0  0  0  0  0  0  0  0  0
   -8.9115   15.6810  -36.9431 O   0  0  0  0  0  0  0  0  0  0  0  0
  -10.2118   14.6153  -35.4037 O   0  0  0  0  0  0  0  0  0  0  0  0
  -13.1520   12.7244  -38.5819 H   0  0  0  0  0  0  0  0  0  0  0  0
  -14.3364   13.7496  -39.3960 H   0  0  0  0  0  0  0  0  0  0  0  0
  -14.9906   15.9920  -38.4006 H   0  0  0  0  0  0  0  0  0  0  0  0
  -14.2656   16.5414  -36.8875 H   0  0  0  0  0  0  0  0  0  0  0  0
  -12.5479   15.0612  -35.6968 H   0  0  0  0  0  0  0  0  0  0  0  0
  -12.0956   13.5102  -36.3855 H   0  0  0  0  0  0  0  0  0  0  0  0
  -10.6825   13.4172  -38.5416 H   0  0  0  0  0  0  0  0  0  0  0  0
  -10.1787   14.9152  -39.3149 H   0  0  0  0  0  0  0  0  0  0  0  0
  -10.8383   17.1754  -38.3117 H   0  0  0  0  0  0  0  0  0  0  0  0
  -11.8005   17.2495  -36.8406 H   0  0  0  0  0  0  0  0  0  0  0  0
  -14.4707   14.0493  -36.9212 H   0  0  0  0  0  0  0  0  0  0  0  0
  -12.1122   13.8990  -40.5333 H   0  0  0  0  0  0  0  0  0  0  0  0
  -13.2235   17.7081  -38.8425 H   0  0  0  0  0  0  0  0  0  0  0  0
   -9.4060   14.5999  -34.8444 H   0  0  0  0  0  0  0  0  0  0  0  0
  1 10  1  0  0  0  0
  1 14  2  0  0  0  0
  1 15  1  0  0  0  0
  2  7  1  0  0  0  0
  2  8  1  0  0  0  0
  3  7  1  0  0  0  0
  3  9  1  0  0  0  0
  4  7  1  0  0  0  0
  4 10  1  0  0  0  0
  5  8  1  0  0  0  0
  5 10  1  0  0  0  0
  6  9  1  0  0  0  0
  6 10  1  0  0  0  0
  8 11  1  0  0  0  0
  9 11  1  0  0  0  0
 11 12  1  0  0  0  0
 11 13  1  0  0  0  0
 12 13  2  0  0  0  0
  2 16  1  0  0  0  0
  2 17  1  0  0  0  0
  3 18  1  0  0  0  0
  3 19  1  0  0  0  0
  4 20  1  0  0  0  0
  4 21  1  0  0  0  0
  5 22  1  0  0  0  0
  5 23  1  0  0  0  0
  6 24  1  0  0  0  0
  6 25  1  0  0  0  0
  7 26  1  0  0  0  0
  8 27  1  0  0  0  0
  9 28  1  0  0  0  0
 15 29  1  0  0  0  0
M  END
> <id>
EN300-9425165

> <smiles>
OC(=O)C1(CC2CC3C1)CC(C2)C43N=N4

> <IUPAC Name>
spiro[adamantane-2,2'-diazirine]-7-carboxylic acid

> <CAS>
98398-60-8

> <URL>
https://www.enaminestore.com/catalog/EN300-9425165

> <ROCS_ShapeQuery>
_x1247relevant_x1083L0AP1_x1305L0BP1_

> <ROCS_TanimotoCombo>
0.828 

> <ROCS_ShapeTanimoto>
0.508 

> <ROCS_ColorTanimoto>
0.320 

> <ROCS_RefTversky>
0.430 

> <ROCS_RefColorTversky>
0.358 

> <ROCS_RefTverskyCombo>
0.788 

> <ROCS_FitTversky>
1.553 

> <ROCS_FitColorTversky>
0.752 

> <ROCS_FitTverskyCombo>
2.305 

> <ROCS_ColorScore>
-7.606

> <ROCS_Overlap>
1266.738

> <ROCS_Rank>
298                 

$$$$
untitled-dbase-94281_9
  -OEChem-06232314393D

 23 25  0     0  0  0  0  0  0999 V2000
  -13.1550   16.3780  -37.7182 C   0  0  0  0  0  0  0  0  0  0  0  0
  -11.8985   15.5967  -39.2507 C   0  0  0  0  0  0  0  0  0  0  0  0
  -13.2546   14.3116  -38.2258 C   0  0  0  0  0  0  0  0  0  0  0  0
   -9.5595   14.7084  -37.2211 C   0  0  0  0  0  0  0  0  0  0  0  0
  -10.8823   13.4544  -36.2185 C   0  0  0  0  0  0  0  0  0  0  0  0
  -10.9911   14.9232  -36.6830 C   0  0  0  0  0  0  0  0  0  0  0  0
  -12.0640   15.2273  -37.7173 C   0  0  0  0  0  0  0  0  0  0  0  0
  -13.4319   15.6175  -39.0378 C   0  0  0  0  0  0  0  0  0  0  0  0
   -9.8259   13.2551  -37.2322 N   0  0  0  0  0  0  0  0  0  0  0  0
  -14.4238   15.9040  -39.9909 O   0  0  0  0  0  0  0  0  0  0  0  0
  -13.9234   16.3282  -36.9397 H   0  0  0  0  0  0  0  0  0  0  0  0
  -12.7874   17.4060  -37.8008 H   0  0  0  0  0  0  0  0  0  0  0  0
  -11.4107   16.5503  -39.4774 H   0  0  0  0  0  0  0  0  0  0  0  0
  -11.4946   14.8171  -39.9049 H   0  0  0  0  0  0  0  0  0  0  0  0
  -12.9786   13.4092  -38.7813 H   0  0  0  0  0  0  0  0  0  0  0  0
  -14.0331   14.0654  -37.4964 H   0  0  0  0  0  0  0  0  0  0  0  0
   -9.3592   15.1243  -38.2185 H   0  0  0  0  0  0  0  0  0  0  0  0
   -8.7526   15.0184  -36.5471 H   0  0  0  0  0  0  0  0  0  0  0  0
  -10.5527   13.3107  -35.1830 H   0  0  0  0  0  0  0  0  0  0  0  0
  -11.7739   12.8344  -36.3890 H   0  0  0  0  0  0  0  0  0  0  0  0
  -11.0291   15.6558  -35.8179 H   0  0  0  0  0  0  0  0  0  0  0  0
  -10.1522   12.8851  -38.1262 H   0  0  0  0  0  0  0  0  0  0  0  0
  -14.3439   15.2475  -40.7082 H   0  0  0  0  0  0  0  0  0  0  0  0
  1  7  1  0  0  0  0
  1  8  1  0  0  0  0
  2  7  1  0  0  0  0
  2  8  1  0  0  0  0
  3  7  1  0  0  0  0
  3  8  1  0  0  0  0
  4  6  1  0  0  0  0
  4  9  1  0  0  0  0
  5  6  1  0  0  0  0
  5  9  1  0  0  0  0
  6  7  1  0  0  0  0
  8 10  1  0  0  0  0
  1 11  1  0  0  0  0
  1 12  1  0  0  0  0
  2 13  1  0  0  0  0
  2 14  1  0  0  0  0
  3 15  1  0  0  0  0
  3 16  1  0  0  0  0
  4 17  1  0  0  0  0
  4 18  1  0  0  0  0
  5 19  1  0  0  0  0
  5 20  1  0  0  0  0
  6 21  1  0  0  0  0
  9 22  1  0  0  0  0
 10 23  1  0  0  0  0
M  END
> <id>
EN300-27145733

> <smiles>
OC1(CC2(C1)C3CNC3)C2

> <MDLNUMBER>
MFCD33031503

> <IUPAC Name>
3-(azetidin-3-yl)bicyclo[1.1.1]pentan-1-ol

> <CAS>
2613381-51-2

> <URL>
https://www.enaminestore.com/catalog/EN300-27145733

> <ROCS_ShapeQuery>
_x1247relevant_x1083L0AP1_x1305L0BP1_

> <ROCS_TanimotoCombo>
0.828 

> <ROCS_ShapeTanimoto>
0.420 

> <ROCS_ColorTanimoto>
0.408 

> <ROCS_RefTversky>
0.353 

> <ROCS_RefColorTversky>
0.466 

> <ROCS_RefTverskyCombo>
0.819 

> <ROCS_FitTversky>
1.817 

> <ROCS_FitColorTversky>
0.767 

> <ROCS_FitTverskyCombo>
2.584 

> <ROCS_ColorScore>
-9.962

> <ROCS_Overlap>
1035.644

> <ROCS_Rank>
299                 

$$$$
untitled-dbase-146098_9
  -OEChem-06232314393D

 23 25  0     0  0  0  0  0  0999 V2000
  -13.1550   16.3780  -37.7182 C   0  0  0  0  0  0  0  0  0  0  0  0
  -11.8985   15.5967  -39.2507 C   0  0  0  0  0  0  0  0  0  0  0  0
  -13.2546   14.3116  -38.2258 C   0  0  0  0  0  0  0  0  0  0  0  0
   -9.5595   14.7084  -37.2211 C   0  0  0  0  0  0  0  0  0  0  0  0
  -10.8823   13.4544  -36.2185 C   0  0  0  0  0  0  0  0  0  0  0  0
  -10.9911   14.9232  -36.6830 C   0  0  0  0  0  0  0  0  0  0  0  0
  -12.0640   15.2273  -37.7173 C   0  0  0  0  0  0  0  0  0  0  0  0
  -13.4319   15.6175  -39.0378 C   0  0  0  0  0  0  0  0  0  0  0  0
   -9.8259   13.2551  -37.2322 N   0  0  0  0  0  0  0  0  0  0  0  0
  -14.4238   15.9040  -39.9909 O   0  0  0  0  0  0  0  0  0  0  0  0
  -13.9234   16.3282  -36.9397 H   0  0  0  0  0  0  0  0  0  0  0  0
  -12.7874   17.4060  -37.8008 H   0  0  0  0  0  0  0  0  0  0  0  0
  -11.4107   16.5503  -39.4774 H   0  0  0  0  0  0  0  0  0  0  0  0
  -11.4946   14.8171  -39.9049 H   0  0  0  0  0  0  0  0  0  0  0  0
  -12.9786   13.4092  -38.7813 H   0  0  0  0  0  0  0  0  0  0  0  0
  -14.0331   14.0654  -37.4964 H   0  0  0  0  0  0  0  0  0  0  0  0
   -9.3592   15.1243  -38.2185 H   0  0  0  0  0  0  0  0  0  0  0  0
   -8.7526   15.0184  -36.5471 H   0  0  0  0  0  0  0  0  0  0  0  0
  -10.5527   13.3107  -35.1830 H   0  0  0  0  0  0  0  0  0  0  0  0
  -11.7739   12.8344  -36.3890 H   0  0  0  0  0  0  0  0  0  0  0  0
  -11.0291   15.6558  -35.8179 H   0  0  0  0  0  0  0  0  0  0  0  0
  -10.1522   12.8851  -38.1262 H   0  0  0  0  0  0  0  0  0  0  0  0
  -14.3439   15.2475  -40.7082 H   0  0  0  0  0  0  0  0  0  0  0  0
  1  7  1  0  0  0  0
  1  8  1  0  0  0  0
  2  7  1  0  0  0  0
  2  8  1  0  0  0  0
  3  7  1  0  0  0  0
  3  8  1  0  0  0  0
  4  6  1  0  0  0  0
  4  9  1  0  0  0  0
  5  6  1  0  0  0  0
  5  9  1  0  0  0  0
  6  7  1  0  0  0  0
  8 10  1  0  0  0  0
  1 11  1  0  0  0  0
  1 12  1  0  0  0  0
  2 13  1  0  0  0  0
  2 14  1  0  0  0  0
  3 15  1  0  0  0  0
  3 16  1  0  0  0  0
  4 17  1  0  0  0  0
  4 18  1  0  0  0  0
  5 19  1  0  0  0  0
  5 20  1  0  0  0  0
  6 21  1  0  0  0  0
  9 22  1  0  0  0  0
 10 23  1  0  0  0  0
M  END
> <id>
EN300-27735330

> <smiles>
Cl.OC1(CC2(C1)C3CNC3)C2

> <MDLNUMBER>
MFCD33032090

> <IUPAC Name>
3-(azetidin-3-yl)bicyclo[1.1.1]pentan-1-ol hydrochloride

> <CAS>
2613386-03-9

> <Purity>
95

> <URL>
https://www.enaminestore.com/catalog/EN300-27735330

> <Saltdate>
Cl

> <ROCS_ShapeQuery>
_x1247relevant_x1083L0AP1_x1305L0BP1_

> <ROCS_TanimotoCombo>
0.828 

> <ROCS_ShapeTanimoto>
0.420 

> <ROCS_ColorTanimoto>
0.408 

> <ROCS_RefTversky>
0.353 

> <ROCS_RefColorTversky>
0.466 

> <ROCS_RefTverskyCombo>
0.819 

> <ROCS_FitTversky>
1.817 

> <ROCS_FitColorTversky>
0.767 

> <ROCS_FitTverskyCombo>
2.584 

> <ROCS_ColorScore>
-9.962

> <ROCS_Overlap>
1035.644

> <ROCS_Rank>
300                 

$$$$
untitled-dbase-148796_150
  -OEChem-06232314393D

 40 42  0     1  0  0  0  0  0999 V2000
  -10.7235   16.4051  -35.3963 C   0  0  0  0  0  0  0  0  0  0  0  0
  -11.9891   16.5463  -35.9718 C   0  0  0  0  0  0  0  0  0  0  0  0
   -9.7887   15.4859  -35.9143 C   0  0  0  0  0  0  0  0  0  0  0  0
  -12.2822   15.7474  -37.0539 C   0  0  0  0  0  0  0  0  0  0  0  0
  -11.3527   14.8341  -37.5701 C   0  0  0  0  0  0  0  0  0  0  0  0
  -10.0993   14.6883  -37.0190 C   0  0  0  0  0  0  0  0  0  0  0  0
   -8.1571   13.1017  -36.8722 C   0  0  0  0  0  0  0  0  0  0  0  0
  -13.4848   15.6401  -37.9340 C   0  0  1  0  0  0  0  0  0  0  0  0
  -12.0201   14.1864  -38.7437 C   0  0  2  0  0  0  0  0  0  0  0  0
  -13.1508   16.2294  -39.3142 C   0  0  1  0  0  0  0  0  0  0  0  0
  -12.1958   15.1648  -39.9122 C   0  0  1  0  0  0  0  0  0  0  0  0
   -6.2806   12.0724  -34.9753 C   0  0  0  0  0  0  0  0  0  0  0  0
   -7.8235   12.9995  -33.2233 C   0  0  0  0  0  0  0  0  0  0  0  0
   -8.6342   11.2025  -34.7794 C   0  0  0  0  0  0  0  0  0  0  0  0
   -7.7281   12.4242  -34.6348 C   0  0  0  0  0  0  0  0  0  0  0  0
   -9.1712   13.7895  -37.5380 N   0  0  0  0  0  0  0  0  0  0  0  0
   -7.3553   12.3148  -37.3604 O   0  0  0  0  0  0  0  0  0  0  0  0
  -13.3899   14.2061  -38.2319 O   0  0  0  0  0  0  0  0  0  0  0  0
  -14.3445   16.3004  -40.0829 O   0  0  0  0  0  0  0  0  0  0  0  0
  -10.9594   15.7107  -40.3259 O   0  0  0  0  0  0  0  0  0  0  0  0
   -8.1774   13.4355  -35.5442 O   0  0  0  0  0  0  0  0  0  0  0  0
  -10.4520   17.0156  -34.5390 H   0  0  0  0  0  0  0  0  0  0  0  0
  -12.7049   17.2589  -35.5798 H   0  0  0  0  0  0  0  0  0  0  0  0
   -8.8120   15.4092  -35.4405 H   0  0  0  0  0  0  0  0  0  0  0  0
  -14.4519   15.8802  -37.4892 H   0  0  0  0  0  0  0  0  0  0  0  0
  -11.6915   13.1742  -38.9860 H   0  0  0  0  0  0  0  0  0  0  0  0
  -12.7159   17.2331  -39.2564 H   0  0  0  0  0  0  0  0  0  0  0  0
  -12.6618   14.6581  -40.7657 H   0  0  0  0  0  0  0  0  0  0  0  0
   -6.2079   11.6591  -35.9876 H   0  0  0  0  0  0  0  0  0  0  0  0
   -5.6265   12.9479  -34.9092 H   0  0  0  0  0  0  0  0  0  0  0  0
   -5.8960   11.3011  -34.2982 H   0  0  0  0  0  0  0  0  0  0  0  0
   -8.8603   13.2534  -32.9748 H   0  0  0  0  0  0  0  0  0  0  0  0
   -7.2498   13.9298  -33.1414 H   0  0  0  0  0  0  0  0  0  0  0  0
   -7.4499   12.2946  -32.4736 H   0  0  0  0  0  0  0  0  0  0  0  0
   -9.6725   11.4546  -34.5352 H   0  0  0  0  0  0  0  0  0  0  0  0
   -8.6068   10.7982  -35.7965 H   0  0  0  0  0  0  0  0  0  0  0  0
   -8.3359   10.4113  -34.0821 H   0  0  0  0  0  0  0  0  0  0  0  0
   -9.2430   13.6090  -38.5461 H   0  0  0  0  0  0  0  0  0  0  0  0
  -14.6808   15.3931  -40.1620 H   0  0  0  0  0  0  0  0  0  0  0  0
  -11.1449   16.3172  -41.0640 H   0  0  0  0  0  0  0  0  0  0  0  0
  1  2  2  0  0  0  0
  1  3  1  0  0  0  0
  2  4  1  0  0  0  0
  3  6  2  0  0  0  0
  4  5  2  0  0  0  0
  4  8  1  0  0  0  0
  5  6  1  0  0  0  0
  5  9  1  0  0  0  0
  6 16  1  0  0  0  0
  7 16  1  0  0  0  0
  7 17  2  0  0  0  0
  7 21  1  0  0  0  0
  8 10  1  0  0  0  0
  8 18  1  0  0  0  0
  9 11  1  0  0  0  0
  9 18  1  0  0  0  0
 10 11  1  0  0  0  0
 10 19  1  0  0  0  0
 11 20  1  0  0  0  0
 12 15  1  0  0  0  0
 13 15  1  0  0  0  0
 14 15  1  0  0  0  0
 15 21  1  0  0  0  0
  1 22  1  0  0  0  0
  2 23  1  0  0  0  0
  3 24  1  0  0  0  0
  8 25  1  0  0  0  0
  9 26  1  0  0  0  0
 10 27  1  0  0  0  0
 11 28  1  0  0  0  0
 12 29  1  0  0  0  0
 12 30  1  0  0  0  0
 12 31  1  0  0  0  0
 13 32  1  0  0  0  0
 13 33  1  0  0  0  0
 13 34  1  0  0  0  0
 14 35  1  0  0  0  0
 14 36  1  0  0  0  0
 14 37  1  0  0  0  0
 16 38  1  0  0  0  0
 19 39  1  0  0  0  0
 20 40  1  0  0  0  0
M  END
> <id>
EN300-28229313

> <smiles>
CC(C)(C)OC(=O)NC=1C=CC=C2C3OC(C(O)C3O)C21

> <IUPAC Name>
tert-butyl N-{9,10-dihydroxy-11-oxatricyclo[6.2.1.0,2,7]undeca-2(7),3,5-trien-3-yl}carbamate

> <CAS>
2639457-09-1

> <URL>
https://www.enaminestore.com/catalog/EN300-28229313

> <ROCS_ShapeQuery>
_x1247relevant_x1083L0AP1_x1305L0BP1_

> <ROCS_TanimotoCombo>
0.828 

> <ROCS_ShapeTanimoto>
0.474 

> <ROCS_ColorTanimoto>
0.354 

> <ROCS_RefTversky>
0.438 

> <ROCS_RefColorTversky>
0.452 

> <ROCS_RefTverskyCombo>
0.891 

> <ROCS_FitTversky>
1.209 

> <ROCS_FitColorTversky>
0.618 

> <ROCS_FitTverskyCombo>
1.827 

> <ROCS_ColorScore>
-9.737

> <ROCS_Overlap>
1297.316

> <ROCS_Rank>
301                 

$$$$
untitled-dbase-5327_2
  -OEChem-06232314393D

 29 31  0     1  0  0  0  0  0999 V2000
   -9.9839   15.2277  -36.6059 C   0  0  0  0  0  0  0  0  0  0  0  0
  -14.0902   14.6022  -37.7972 C   0  0  0  0  0  0  0  0  0  0  0  0
  -11.7160   13.7986  -37.6963 C   0  0  0  0  0  0  0  0  0  0  0  0
  -12.3346   16.0217  -36.7019 C   0  0  0  0  0  0  0  0  0  0  0  0
  -12.7086   14.5045  -39.8878 C   0  0  0  0  0  0  0  0  0  0  0  0
  -13.3270   16.7230  -38.8955 C   0  0  0  0  0  0  0  0  0  0  0  0
  -10.9531   15.9235  -38.7965 C   0  0  0  0  0  0  0  0  0  0  0  0
  -13.0001   13.8132  -38.5457 C   0  0  2  0  0  0  0  0  0  0  0  0
  -13.6224   16.0476  -37.5460 C   0  0  1  0  0  0  0  0  0  0  0  0
  -11.2302   15.2409  -37.4433 C   0  0  0  0  0  0  0  0  0  0  0  0
  -12.2352   15.9420  -39.6382 C   0  0  0  0  0  0  0  0  0  0  0  0
   -8.9035   15.6847  -36.9481 O   0  0  0  0  0  0  0  0  0  0  0  0
  -10.2171   14.6339  -35.4099 O   0  0  0  0  0  0  0  0  0  0  0  0
  -11.9828   16.5440  -40.8268 F   0  0  0  0  0  0  0  0  0  0  0  0
  -15.0173   14.6062  -38.3834 H   0  0  0  0  0  0  0  0  0  0  0  0
  -14.3184   14.1118  -36.8430 H   0  0  0  0  0  0  0  0  0  0  0  0
  -11.9061   13.2857  -36.7443 H   0  0  0  0  0  0  0  0  0  0  0  0
  -10.9363   13.2183  -38.2070 H   0  0  0  0  0  0  0  0  0  0  0  0
  -12.0033   17.0479  -36.4952 H   0  0  0  0  0  0  0  0  0  0  0  0
  -12.5373   15.5624  -35.7254 H   0  0  0  0  0  0  0  0  0  0  0  0
  -11.9454   13.9505  -40.4483 H   0  0  0  0  0  0  0  0  0  0  0  0
  -13.6050   14.5097  -40.5202 H   0  0  0  0  0  0  0  0  0  0  0  0
  -14.2356   16.7715  -39.5083 H   0  0  0  0  0  0  0  0  0  0  0  0
  -13.0078   17.7616  -38.7440 H   0  0  0  0  0  0  0  0  0  0  0  0
  -10.5870   16.9487  -38.6526 H   0  0  0  0  0  0  0  0  0  0  0  0
  -10.1539   15.4030  -39.3408 H   0  0  0  0  0  0  0  0  0  0  0  0
  -13.3399   12.7868  -38.7224 H   0  0  0  0  0  0  0  0  0  0  0  0
  -14.4030   16.6035  -37.0151 H   0  0  0  0  0  0  0  0  0  0  0  0
   -9.4133   14.6136  -34.8480 H   0  0  0  0  0  0  0  0  0  0  0  0
  1 10  1  0  0  0  0
  1 12  2  0  0  0  0
  1 13  1  0  0  0  0
  2  8  1  0  0  0  0
  2  9  1  0  0  0  0
  3  8  1  0  0  0  0
  3 10  1  0  0  0  0
  4  9  1  0  0  0  0
  4 10  1  0  0  0  0
  5  8  1  0  0  0  0
  5 11  1  0  0  0  0
  6  9  1  0  0  0  0
  6 11  1  0  0  0  0
  7 10  1  0  0  0  0
  7 11  1  0  0  0  0
 11 14  1  0  0  0  0
  2 15  1  0  0  0  0
  2 16  1  0  0  0  0
  3 17  1  0  0  0  0
  3 18  1  0  0  0  0
  4 19  1  0  0  0  0
  4 20  1  0  0  0  0
  5 21  1  0  0  0  0
  5 22  1  0  0  0  0
  6 23  1  0  0  0  0
  6 24  1  0  0  0  0
  7 25  1  0  0  0  0
  7 26  1  0  0  0  0
  8 27  1  0  0  0  0
  9 28  1  0  0  0  0
 13 29  1  0  0  0  0
M  END
> <id>
EN300-109918

> <smiles>
OC(=O)C1(CC2CC3CC(F)(C2)C1)C3

> <MDLNUMBER>
MFCD00225706

> <IUPAC Name>
3-fluoroadamantane-1-carboxylic acid

> <CAS>
880-50-2

> <Purity>
95

> <URL>
https://www.enaminestore.com/catalog/EN300-109918

> <MP>
152-153

> <ROCS_ShapeQuery>
_x1247relevant_x1083L0AP1_x1305L0BP1_

> <ROCS_TanimotoCombo>
0.828 

> <ROCS_ShapeTanimoto>
0.508 

> <ROCS_ColorTanimoto>
0.320 

> <ROCS_RefTversky>
0.424 

> <ROCS_RefColorTversky>
0.358 

> <ROCS_RefTverskyCombo>
0.782 

> <ROCS_FitTversky>
1.638 

> <ROCS_FitColorTversky>
0.752 

> <ROCS_FitTverskyCombo>
2.390 

> <ROCS_ColorScore>
-7.599

> <ROCS_Overlap>
1247.384

> <ROCS_Rank>
302                 

$$$$
untitled-dbase-108314_16
  -OEChem-06232314393D

 36 38  0     1  0  0  0  0  0999 V2000
  -11.4696   16.1363  -39.0406 C   0  0  0  0  0  0  0  0  0  0  0  0
  -11.2861   15.1438  -38.1474 C   0  0  0  0  0  0  0  0  0  0  0  0
  -12.8631   16.5376  -39.4781 C   0  0  0  0  0  0  0  0  0  0  0  0
  -13.4818   14.1445  -38.8815 C   0  0  0  0  0  0  0  0  0  0  0  0
   -9.3123   12.8008  -36.2803 C   0  0  0  0  0  0  0  0  0  0  0  0
   -9.7943   13.5052  -35.0125 C   0  0  0  0  0  0  0  0  0  0  0  0
   -9.5806   15.4517  -36.3634 C   0  0  0  0  0  0  0  0  0  0  0  0
  -12.5402   14.4620  -37.6625 C   0  0  2  0  0  0  0  0  0  0  0  0
   -9.9586   14.6830  -37.6321 C   0  0  1  0  0  0  0  0  0  0  0  0
  -13.8995   15.6475  -38.7594 C   0  0  1  0  0  0  0  0  0  0  0  0
  -13.6824   15.4707  -37.1923 C   0  0  0  0  0  0  0  0  0  0  0  0
  -13.2653   16.7125  -36.3934 C   0  0  0  0  0  0  0  0  0  0  0  0
  -14.8559   14.8126  -36.4395 C   0  0  0  0  0  0  0  0  0  0  0  0
  -10.0970   13.2429  -37.4240 N   0  0  0  0  0  0  0  0  0  0  0  0
  -10.1991   14.8608  -35.2228 O   0  0  0  0  0  0  0  0  0  0  0  0
  -10.6263   16.6813  -39.4519 H   0  0  0  0  0  0  0  0  0  0  0  0
  -13.0385   17.5919  -39.2402 H   0  0  0  0  0  0  0  0  0  0  0  0
  -12.9534   16.4179  -40.5634 H   0  0  0  0  0  0  0  0  0  0  0  0
  -12.9976   13.8447  -39.8179 H   0  0  0  0  0  0  0  0  0  0  0  0
  -14.2726   13.4120  -38.6913 H   0  0  0  0  0  0  0  0  0  0  0  0
   -8.2531   13.0239  -36.4503 H   0  0  0  0  0  0  0  0  0  0  0  0
   -9.4124   11.7184  -36.1595 H   0  0  0  0  0  0  0  0  0  0  0  0
  -10.6306   12.9484  -34.5366 H   0  0  0  0  0  0  0  0  0  0  0  0
   -8.9788   13.5180  -34.2620 H   0  0  0  0  0  0  0  0  0  0  0  0
   -8.4980   15.4135  -36.2025 H   0  0  0  0  0  0  0  0  0  0  0  0
   -9.8654   16.5096  -36.4227 H   0  0  0  0  0  0  0  0  0  0  0  0
  -12.3448   13.6182  -36.9937 H   0  0  0  0  0  0  0  0  0  0  0  0
   -9.2245   14.8521  -38.4150 H   0  0  0  0  0  0  0  0  0  0  0  0
  -14.9255   15.8710  -39.0690 H   0  0  0  0  0  0  0  0  0  0  0  0
  -14.1470   17.2975  -36.1471 H   0  0  0  0  0  0  0  0  0  0  0  0
  -12.5858   17.3151  -36.9896 H   0  0  0  0  0  0  0  0  0  0  0  0
  -12.7680   16.4040  -35.4781 H   0  0  0  0  0  0  0  0  0  0  0  0
  -15.5740   15.5767  -36.1646 H   0  0  0  0  0  0  0  0  0  0  0  0
  -14.4771   14.3260  -35.5481 H   0  0  0  0  0  0  0  0  0  0  0  0
  -15.3265   14.0811  -37.0864 H   0  0  0  0  0  0  0  0  0  0  0  0
   -9.7773   12.7440  -38.2595 H   0  0  0  0  0  0  0  0  0  0  0  0
  1  2  2  0  0  0  0
  1  3  1  0  0  0  0
  2  8  1  0  0  0  0
  2  9  1  0  0  0  0
  3 10  1  0  0  0  0
  4  8  1  0  0  0  0
  4 10  1  0  0  0  0
  5  6  1  0  0  0  0
  5 14  1  0  0  0  0
  6 15  1  0  0  0  0
  7  9  1  0  0  0  0
  7 15  1  0  0  0  0
  8 11  1  0  0  0  0
  9 14  1  0  0  0  0
 10 11  1  0  0  0  0
 11 12  1  0  0  0  0
 11 13  1  0  0  0  0
  1 16  1  0  0  0  0
  3 17  1  0  0  0  0
  3 18  1  0  0  0  0
  4 19  1  0  0  0  0
  4 20  1  0  0  0  0
  5 21  1  0  0  0  0
  5 22  1  0  0  0  0
  6 23  1  0  0  0  0
  6 24  1  0  0  0  0
  7 25  1  0  0  0  0
  7 26  1  0  0  0  0
  8 27  1  0  0  0  0
  9 28  1  0  0  0  0
 10 29  1  0  0  0  0
 12 30  1  0  0  0  0
 12 31  1  0  0  0  0
 12 32  1  0  0  0  0
 13 33  1  0  0  0  0
 13 34  1  0  0  0  0
 13 35  1  0  0  0  0
 14 36  1  0  0  0  0
M  END
> <id>
EN300-1788905

> <smiles>
CC1(C)C2CC1C(=CC2)C3COCCN3

> <IUPAC Name>
3-{6,6-dimethylbicyclo[3.1.1]hept-2-en-2-yl}morpholine

> <CAS>
2229391-80-2

> <URL>
https://www.enaminestore.com/catalog/EN300-1788905

> <ROCS_ShapeQuery>
_x1247relevant_x1083L0AP1_x1305L0BP1_

> <ROCS_TanimotoCombo>
0.828 

> <ROCS_ShapeTanimoto>
0.483 

> <ROCS_ColorTanimoto>
0.345 

> <ROCS_RefTversky>
0.412 

> <ROCS_RefColorTversky>
0.397 

> <ROCS_RefTverskyCombo>
0.808 

> <ROCS_FitTversky>
1.556 

> <ROCS_FitColorTversky>
0.727 

> <ROCS_FitTverskyCombo>
2.282 

> <ROCS_ColorScore>
-8.455

> <ROCS_Overlap>
1211.751

> <ROCS_Rank>
303                 

$$$$
untitled-dbase-12702_2
  -OEChem-06232314393D

 31 33  0     1  0  0  0  0  0999 V2000
   -9.9883   15.2850  -36.5929 C   0  0  0  0  0  0  0  0  0  0  0  0
  -12.6120   14.1650  -39.8147 C   0  0  0  0  0  0  0  0  0  0  0  0
  -14.0443   14.4580  -37.7753 C   0  0  0  0  0  0  0  0  0  0  0  0
  -11.6569   13.7305  -37.5364 C   0  0  0  0  0  0  0  0  0  0  0  0
  -10.9138   15.7363  -38.8517 C   0  0  0  0  0  0  0  0  0  0  0  0
  -12.3478   16.0277  -36.8059 C   0  0  0  0  0  0  0  0  0  0  0  0
  -12.9200   13.6204  -38.4091 C   0  0  0  0  0  0  0  0  0  0  0  0
  -12.1766   15.6422  -39.7313 C   0  0  2  0  0  0  0  0  0  0  0  0
  -13.6174   15.9368  -37.6771 C   0  0  1  0  0  0  0  0  0  0  0  0
  -13.2896   16.4946  -39.0806 C   0  0  0  0  0  0  0  0  0  0  0  0
  -11.2228   15.1998  -37.4468 C   0  0  0  0  0  0  0  0  0  0  0  0
  -14.4850   16.5342  -39.9249 N   0  0  0  0  0  0  0  0  0  0  0  0
   -8.9071   15.7176  -36.9635 O   0  0  0  0  0  0  0  0  0  0  0  0
  -10.2345   14.8118  -35.3469 O   0  0  0  0  0  0  0  0  0  0  0  0
  -11.8137   13.5699  -40.2758 H   0  0  0  0  0  0  0  0  0  0  0  0
  -13.4918   14.0577  -40.4600 H   0  0  0  0  0  0  0  0  0  0  0  0
  -14.9641   14.3592  -38.3638 H   0  0  0  0  0  0  0  0  0  0  0  0
  -14.2738   14.0724  -36.7739 H   0  0  0  0  0  0  0  0  0  0  0  0
  -11.8565   13.3240  -36.5362 H   0  0  0  0  0  0  0  0  0  0  0  0
  -10.8534   13.1155  -37.9627 H   0  0  0  0  0  0  0  0  0  0  0  0
  -10.0972   15.1653  -39.3129 H   0  0  0  0  0  0  0  0  0  0  0  0
  -10.5688   16.7773  -38.8000 H   0  0  0  0  0  0  0  0  0  0  0  0
  -12.0409   17.0763  -36.6980 H   0  0  0  0  0  0  0  0  0  0  0  0
  -12.5658   15.6661  -35.7923 H   0  0  0  0  0  0  0  0  0  0  0  0
  -13.2316   12.5722  -38.4773 H   0  0  0  0  0  0  0  0  0  0  0  0
  -11.9456   16.0163  -40.7360 H   0  0  0  0  0  0  0  0  0  0  0  0
  -14.4185   16.5220  -37.2098 H   0  0  0  0  0  0  0  0  0  0  0  0
  -12.9322   17.5276  -38.9779 H   0  0  0  0  0  0  0  0  0  0  0  0
  -15.1591   17.1059  -39.4760 H   0  0  0  0  0  0  0  0  0  0  0  0
  -14.2272   16.9148  -40.8033 H   0  0  0  0  0  0  0  0  0  0  0  0
   -9.4394   14.8572  -34.7740 H   0  0  0  0  0  0  0  0  0  0  0  0
  1 11  1  0  0  0  0
  1 13  2  0  0  0  0
  1 14  1  0  0  0  0
  2  7  1  0  0  0  0
  2  8  1  0  0  0  0
  3  7  1  0  0  0  0
  3  9  1  0  0  0  0
  4  7  1  0  0  0  0
  4 11  1  0  0  0  0
  5  8  1  0  0  0  0
  5 11  1  0  0  0  0
  6  9  1  0  0  0  0
  6 11  1  0  0  0  0
  8 10  1  0  0  0  0
  9 10  1  0  0  0  0
 10 12  1  0  0  0  0
  2 15  1  0  0  0  0
  2 16  1  0  0  0  0
  3 17  1  0  0  0  0
  3 18  1  0  0  0  0
  4 19  1  0  0  0  0
  4 20  1  0  0  0  0
  5 21  1  0  0  0  0
  5 22  1  0  0  0  0
  6 23  1  0  0  0  0
  6 24  1  0  0  0  0
  7 25  1  0  0  0  0
  8 26  1  0  0  0  0
  9 27  1  0  0  0  0
 10 28  1  0  0  0  0
 12 29  1  0  0  0  0
 12 30  1  0  0  0  0
 14 31  1  0  0  0  0
M  END
> <id>
EN300-211272

> <smiles>
Cl.NC1C2CC3CC1CC(C3)(C2)C(=O)O

> <MDLNUMBER>
MFCD18071519

> <IUPAC Name>
4-aminoadamantane-1-carboxylic acid hydrochloride

> <CAS>
1245645-93-5

> <Purity>
95

> <URL>
https://www.enaminestore.com/catalog/EN300-211272

> <Saltdate>
Cl

> <ROCS_ShapeQuery>
_x1247relevant_x1083L0AP1_x1305L0BP1_

> <ROCS_TanimotoCombo>
0.828 

> <ROCS_ShapeTanimoto>
0.501 

> <ROCS_ColorTanimoto>
0.327 

> <ROCS_RefTversky>
0.419 

> <ROCS_RefColorTversky>
0.385 

> <ROCS_RefTverskyCombo>
0.804 

> <ROCS_FitTversky>
1.634 

> <ROCS_FitColorTversky>
0.685 

> <ROCS_FitTverskyCombo>
2.318 

> <ROCS_ColorScore>
-8.216

> <ROCS_Overlap>
1233.615

> <ROCS_Rank>
304                 

$$$$
untitled-dbase-110069_2
  -OEChem-06232314393D

 31 33  0     1  0  0  0  0  0999 V2000
   -9.9883   15.2850  -36.5929 C   0  0  0  0  0  0  0  0  0  0  0  0
  -12.6120   14.1650  -39.8147 C   0  0  0  0  0  0  0  0  0  0  0  0
  -14.0443   14.4580  -37.7753 C   0  0  0  0  0  0  0  0  0  0  0  0
  -11.6569   13.7305  -37.5364 C   0  0  0  0  0  0  0  0  0  0  0  0
  -10.9138   15.7363  -38.8517 C   0  0  0  0  0  0  0  0  0  0  0  0
  -12.3478   16.0277  -36.8059 C   0  0  0  0  0  0  0  0  0  0  0  0
  -12.9200   13.6204  -38.4091 C   0  0  0  0  0  0  0  0  0  0  0  0
  -12.1766   15.6422  -39.7313 C   0  0  2  0  0  0  0  0  0  0  0  0
  -13.6174   15.9368  -37.6771 C   0  0  1  0  0  0  0  0  0  0  0  0
  -13.2896   16.4946  -39.0806 C   0  0  0  0  0  0  0  0  0  0  0  0
  -11.2228   15.1998  -37.4468 C   0  0  0  0  0  0  0  0  0  0  0  0
  -14.4850   16.5342  -39.9249 N   0  0  0  0  0  0  0  0  0  0  0  0
   -8.9071   15.7176  -36.9635 O   0  0  0  0  0  0  0  0  0  0  0  0
  -10.2345   14.8118  -35.3469 O   0  0  0  0  0  0  0  0  0  0  0  0
  -11.8137   13.5699  -40.2758 H   0  0  0  0  0  0  0  0  0  0  0  0
  -13.4918   14.0577  -40.4600 H   0  0  0  0  0  0  0  0  0  0  0  0
  -14.9641   14.3592  -38.3638 H   0  0  0  0  0  0  0  0  0  0  0  0
  -14.2738   14.0724  -36.7739 H   0  0  0  0  0  0  0  0  0  0  0  0
  -11.8565   13.3240  -36.5362 H   0  0  0  0  0  0  0  0  0  0  0  0
  -10.8534   13.1155  -37.9627 H   0  0  0  0  0  0  0  0  0  0  0  0
  -10.0972   15.1653  -39.3129 H   0  0  0  0  0  0  0  0  0  0  0  0
  -10.5688   16.7773  -38.8000 H   0  0  0  0  0  0  0  0  0  0  0  0
  -12.0409   17.0763  -36.6980 H   0  0  0  0  0  0  0  0  0  0  0  0
  -12.5658   15.6661  -35.7923 H   0  0  0  0  0  0  0  0  0  0  0  0
  -13.2316   12.5722  -38.4773 H   0  0  0  0  0  0  0  0  0  0  0  0
  -11.9456   16.0163  -40.7360 H   0  0  0  0  0  0  0  0  0  0  0  0
  -14.4185   16.5220  -37.2098 H   0  0  0  0  0  0  0  0  0  0  0  0
  -12.9322   17.5276  -38.9779 H   0  0  0  0  0  0  0  0  0  0  0  0
  -15.1591   17.1059  -39.4760 H   0  0  0  0  0  0  0  0  0  0  0  0
  -14.2272   16.9148  -40.8033 H   0  0  0  0  0  0  0  0  0  0  0  0
   -9.4394   14.8572  -34.7740 H   0  0  0  0  0  0  0  0  0  0  0  0
  1 11  1  0  0  0  0
  1 13  2  0  0  0  0
  1 14  1  0  0  0  0
  2  7  1  0  0  0  0
  2  8  1  0  0  0  0
  3  7  1  0  0  0  0
  3  9  1  0  0  0  0
  4  7  1  0  0  0  0
  4 11  1  0  0  0  0
  5  8  1  0  0  0  0
  5 11  1  0  0  0  0
  6  9  1  0  0  0  0
  6 11  1  0  0  0  0
  8 10  1  0  0  0  0
  9 10  1  0  0  0  0
 10 12  1  0  0  0  0
  2 15  1  0  0  0  0
  2 16  1  0  0  0  0
  3 17  1  0  0  0  0
  3 18  1  0  0  0  0
  4 19  1  0  0  0  0
  4 20  1  0  0  0  0
  5 21  1  0  0  0  0
  5 22  1  0  0  0  0
  6 23  1  0  0  0  0
  6 24  1  0  0  0  0
  7 25  1  0  0  0  0
  8 26  1  0  0  0  0
  9 27  1  0  0  0  0
 10 28  1  0  0  0  0
 12 29  1  0  0  0  0
 12 30  1  0  0  0  0
 14 31  1  0  0  0  0
M  END
> <id>
EN300-211273

> <smiles>
NC1C2CC3CC1CC(C3)(C2)C(=O)O

> <MDLNUMBER>
MFCD09038290

> <IUPAC Name>
4-aminoadamantane-1-carboxylic acid

> <CAS>
1057343-95-9

> <URL>
https://www.enaminestore.com/catalog/EN300-211273

> <ROCS_ShapeQuery>
_x1247relevant_x1083L0AP1_x1305L0BP1_

> <ROCS_TanimotoCombo>
0.828 

> <ROCS_ShapeTanimoto>
0.501 

> <ROCS_ColorTanimoto>
0.327 

> <ROCS_RefTversky>
0.419 

> <ROCS_RefColorTversky>
0.385 

> <ROCS_RefTverskyCombo>
0.804 

> <ROCS_FitTversky>
1.634 

> <ROCS_FitColorTversky>
0.685 

> <ROCS_FitTverskyCombo>
2.318 

> <ROCS_ColorScore>
-8.216

> <ROCS_Overlap>
1233.615

> <ROCS_Rank>
305                 

$$$$
untitled-dbase-161894_1
  -OEChem-06232314393D

 28 29  0     1  0  0  0  0  0999 V2000
  -12.4140   15.9471  -39.5867 C   0  0  0  0  0  0  0  0  0  0  0  0
  -10.3079   15.2092  -36.7872 C   0  0  0  0  0  0  0  0  0  0  0  0
  -13.9383   15.4301  -37.7917 C   0  0  0  0  0  0  0  0  0  0  0  0
  -12.7884   15.8016  -36.8325 C   0  0  0  0  0  0  0  0  0  0  0  0
  -13.1786   14.7806  -38.9702 C   0  0  2  0  0  0  0  0  0  0  0  0
  -11.5540   15.3030  -37.6041 C   0  0  2  0  0  0  0  0  0  0  0  0
  -12.0101   14.0189  -38.3060 C   0  0  0  0  0  0  0  0  0  0  0  0
  -14.0494   14.0244  -39.9462 C   0  0  0  0  0  0  0  0  0  0  0  0
  -12.4244   12.8742  -37.3654 C   0  0  0  0  0  0  0  0  0  0  0  0
  -10.9838   13.4418  -39.3050 C   0  0  0  0  0  0  0  0  0  0  0  0
  -12.6521   16.5472  -40.6189 O   0  0  0  0  0  0  0  0  0  0  0  0
   -9.2727   15.8180  -37.0136 O   0  0  0  0  0  0  0  0  0  0  0  0
  -11.3778   16.2211  -38.7105 O   0  0  0  0  0  0  0  0  0  0  0  0
  -10.4770   14.3493  -35.7531 O   0  0  0  0  0  0  0  0  0  0  0  0
  -14.6382   14.7359  -37.3147 H   0  0  0  0  0  0  0  0  0  0  0  0
  -14.5003   16.3208  -38.0954 H   0  0  0  0  0  0  0  0  0  0  0  0
  -12.7582   16.8852  -36.6707 H   0  0  0  0  0  0  0  0  0  0  0  0
  -12.9091   15.3150  -35.8591 H   0  0  0  0  0  0  0  0  0  0  0  0
  -14.5691   13.2031  -39.4430 H   0  0  0  0  0  0  0  0  0  0  0  0
  -13.4453   13.6037  -40.7560 H   0  0  0  0  0  0  0  0  0  0  0  0
  -14.8006   14.6876  -40.3866 H   0  0  0  0  0  0  0  0  0  0  0  0
  -11.5346   12.4085  -36.9547 H   0  0  0  0  0  0  0  0  0  0  0  0
  -12.9957   12.1405  -37.9245 H   0  0  0  0  0  0  0  0  0  0  0  0
  -13.0320   13.2745  -36.5604 H   0  0  0  0  0  0  0  0  0  0  0  0
  -10.2057   12.9282  -38.7536 H   0  0  0  0  0  0  0  0  0  0  0  0
  -10.5554   14.2545  -39.8788 H   0  0  0  0  0  0  0  0  0  0  0  0
  -11.4880   12.7477  -39.9664 H   0  0  0  0  0  0  0  0  0  0  0  0
   -9.6674   14.2722  -35.2045 H   0  0  0  0  0  0  0  0  0  0  0  0
  1  5  1  0  0  0  0
  1 11  2  0  0  0  0
  1 13  1  0  0  0  0
  2  6  1  6  0  0  0
  2 12  2  0  0  0  0
  2 14  1  0  0  0  0
  3  4  1  0  0  0  0
  3  5  1  0  0  0  0
  4  6  1  0  0  0  0
  5  7  1  0  0  0  0
  5  8  1  6  0  0  0
  6  7  1  0  0  0  0
  6 13  1  0  0  0  0
  7  9  1  0  0  0  0
  7 10  1  0  0  0  0
  3 15  1  0  0  0  0
  3 16  1  0  0  0  0
  4 17  1  0  0  0  0
  4 18  1  0  0  0  0
  8 19  1  0  0  0  0
  8 20  1  0  0  0  0
  8 21  1  0  0  0  0
  9 22  1  0  0  0  0
  9 23  1  0  0  0  0
  9 24  1  0  0  0  0
 10 25  1  0  0  0  0
 10 26  1  0  0  0  0
 10 27  1  0  0  0  0
 14 28  1  0  0  0  0
M  END
> <id>
EN300-322311

> <smiles>
CC1(C)[C@@]2(C)CC[C@@]1(OC2=O)C(=O)O

> <MDLNUMBER>
MFCD00044948

> <IUPAC Name>
(1S,4R)-4,7,7-trimethyl-3-oxo-2-oxabicyclo[2.2.1]heptane-1-carboxylic acid

> <CAS>
13429-83-9

> <Purity>
95

> <URL>
https://www.enaminestore.com/catalog/EN300-322311

> <MP>
201-204

> <ROCS_ShapeQuery>
_x1247relevant_x1083L0AP1_x1305L0BP1_

> <ROCS_TanimotoCombo>
0.828 

> <ROCS_ShapeTanimoto>
0.509 

> <ROCS_ColorTanimoto>
0.319 

> <ROCS_RefTversky>
0.425 

> <ROCS_RefColorTversky>
0.377 

> <ROCS_RefTverskyCombo>
0.802 

> <ROCS_FitTversky>
1.640 

> <ROCS_FitColorTversky>
0.673 

> <ROCS_FitTverskyCombo>
2.313 

> <ROCS_ColorScore>
-8.037

> <ROCS_Overlap>
1250.220

> <ROCS_Rank>
306                 

$$$$
untitled-dbase-95690_0
  -OEChem-06232314393D

 33 35  0     1  0  0  0  0  0999 V2000
   -8.1083   16.7282  -36.2890 C   0  0  0  0  0  0  0  0  0  0  0  0
   -9.2615   17.6869  -35.9893 C   0  0  0  0  0  0  0  0  0  0  0  0
  -13.4117   14.7596  -39.4676 C   0  0  0  0  0  0  0  0  0  0  0  0
  -13.5333   14.1472  -38.0725 C   0  0  0  0  0  0  0  0  0  0  0  0
   -8.7139   15.5676  -37.0768 C   0  0  0  0  0  0  0  0  0  0  0  0
  -10.5150   17.0486  -36.5877 C   0  0  0  0  0  0  0  0  0  0  0  0
  -11.0212   15.4117  -39.0325 C   0  0  0  0  0  0  0  0  0  0  0  0
  -12.4527   15.9225  -39.2216 C   0  0  2  0  0  0  0  0  0  0  0  0
  -12.5670   15.0086  -37.2559 C   0  0  1  0  0  0  0  0  0  0  0  0
  -11.0804   14.7937  -37.6182 C   0  0  2  0  0  0  0  0  0  0  0  0
  -10.1829   15.5604  -36.6599 C   0  0  0  0  0  0  0  0  0  0  0  0
  -10.6541   13.3991  -37.6053 N   0  0  0  0  0  0  0  0  0  0  0  0
  -12.8080   16.3024  -37.8723 O   0  0  0  0  0  0  0  0  0  0  0  0
  -10.3106   14.9969  -35.3554 O   0  0  0  0  0  0  0  0  0  0  0  0
   -7.3080   17.2174  -36.8535 H   0  0  0  0  0  0  0  0  0  0  0  0
   -7.6727   16.3668  -35.3502 H   0  0  0  0  0  0  0  0  0  0  0  0
   -9.3728   17.8074  -34.9055 H   0  0  0  0  0  0  0  0  0  0  0  0
   -9.0837   18.6810  -36.4119 H   0  0  0  0  0  0  0  0  0  0  0  0
  -13.0427   14.0527  -40.2164 H   0  0  0  0  0  0  0  0  0  0  0  0
  -14.3916   15.1264  -39.7930 H   0  0  0  0  0  0  0  0  0  0  0  0
  -14.5583   14.2877  -37.7087 H   0  0  0  0  0  0  0  0  0  0  0  0
  -13.3163   13.0767  -38.0468 H   0  0  0  0  0  0  0  0  0  0  0  0
   -8.6076   15.7611  -38.1523 H   0  0  0  0  0  0  0  0  0  0  0  0
   -8.2011   14.6273  -36.8430 H   0  0  0  0  0  0  0  0  0  0  0  0
  -11.3942   17.2597  -35.9681 H   0  0  0  0  0  0  0  0  0  0  0  0
  -10.6923   17.4631  -37.5889 H   0  0  0  0  0  0  0  0  0  0  0  0
  -10.7361   14.7060  -39.8206 H   0  0  0  0  0  0  0  0  0  0  0  0
  -10.3130   16.2479  -39.0672 H   0  0  0  0  0  0  0  0  0  0  0  0
  -12.5492   16.7489  -39.9293 H   0  0  0  0  0  0  0  0  0  0  0  0
  -12.7852   15.0222  -36.1846 H   0  0  0  0  0  0  0  0  0  0  0  0
  -11.2559   12.8827  -38.2033 H   0  0  0  0  0  0  0  0  0  0  0  0
   -9.7170   13.3561  -37.9313 H   0  0  0  0  0  0  0  0  0  0  0  0
   -9.9641   14.0916  -35.4068 H   0  0  0  0  0  0  0  0  0  0  0  0
  1  2  1  0  0  0  0
  1  5  1  0  0  0  0
  2  6  1  0  0  0  0
  3  4  1  0  0  0  0
  3  8  1  0  0  0  0
  4  9  1  0  0  0  0
  5 11  1  0  0  0  0
  6 11  1  0  0  0  0
  7  8  1  0  0  0  0
  7 10  1  0  0  0  0
  8 13  1  0  0  0  0
  9 10  1  0  0  0  0
  9 13  1  0  0  0  0
 10 11  1  0  0  0  0
 10 12  1  0  0  0  0
 11 14  1  0  0  0  0
  1 15  1  0  0  0  0
  1 16  1  0  0  0  0
  2 17  1  0  0  0  0
  2 18  1  0  0  0  0
  3 19  1  0  0  0  0
  3 20  1  0  0  0  0
  4 21  1  0  0  0  0
  4 22  1  0  0  0  0
  5 23  1  0  0  0  0
  5 24  1  0  0  0  0
  6 25  1  0  0  0  0
  6 26  1  0  0  0  0
  7 27  1  0  0  0  0
  7 28  1  0  0  0  0
  8 29  1  0  0  0  0
  9 30  1  0  0  0  0
 12 31  1  0  0  0  0
 12 32  1  0  0  0  0
 14 33  1  0  0  0  0
M  END
> <id>
EN300-1647219

> <smiles>
NC1(CC2CCC1O2)C3(O)CCCC3

> <IUPAC Name>
1-{2-amino-7-oxabicyclo[2.2.1]heptan-2-yl}cyclopentan-1-ol

> <CAS>
2171783-36-9

> <URL>
https://www.enaminestore.com/catalog/EN300-1647219

> <ROCS_ShapeQuery>
_x1247relevant_x1083L0AP1_x1305L0BP1_

> <ROCS_TanimotoCombo>
0.828 

> <ROCS_ShapeTanimoto>
0.458 

> <ROCS_ColorTanimoto>
0.369 

> <ROCS_RefTversky>
0.396 

> <ROCS_RefColorTversky>
0.431 

> <ROCS_RefTverskyCombo>
0.827 

> <ROCS_FitTversky>
1.531 

> <ROCS_FitColorTversky>
0.720 

> <ROCS_FitTverskyCombo>
2.251 

> <ROCS_ColorScore>
-9.219

> <ROCS_Overlap>
1164.005

> <ROCS_Rank>
307                 

$$$$
untitled-dbase-121833_2
  -OEChem-06232314393D

 41 43  0     1  0  0  0  0  0999 V2000
  -13.8419   15.2876  -37.2372 C   0  0  0  0  0  0  0  0  0  0  0  0
  -13.7822   14.0233  -38.1259 C   0  0  0  0  0  0  0  0  0  0  0  0
  -11.5435   16.3388  -37.6618 C   0  0  0  0  0  0  0  0  0  0  0  0
  -11.4366   14.2179  -39.1404 C   0  0  0  0  0  0  0  0  0  0  0  0
   -9.1076   14.6724  -35.5887 C   0  0  0  0  0  0  0  0  0  0  0  0
  -10.6072   14.4372  -35.5086 C   0  0  0  0  0  0  0  0  0  0  0  0
  -13.0578   16.4088  -37.9409 C   0  0  1  0  0  0  0  0  0  0  0  0
  -12.9539   14.3550  -39.3796 C   0  0  2  0  0  0  0  0  0  0  0  0
   -9.3211   15.0842  -37.9709 C   0  0  2  0  0  0  0  0  0  0  0  0
  -10.8747   14.9332  -37.8676 C   0  0  0  0  0  0  0  0  0  0  0  0
   -7.1069   13.8949  -38.0649 C   0  0  0  0  0  0  0  0  0  0  0  0
   -9.2274   12.5765  -37.8030 C   0  0  0  0  0  0  0  0  0  0  0  0
   -8.5861   13.8117  -38.4262 C   0  0  0  0  0  0  0  0  0  0  0  0
   -8.7723   15.5678  -36.6929 N   0  0  0  0  0  0  0  0  0  0  0  0
  -14.7526   16.2075  -39.9668 O   0  0  0  0  0  0  0  0  0  0  0  0
  -12.3284   16.6982  -40.4946 O   0  0  0  0  0  0  0  0  0  0  0  0
  -11.1556   14.0437  -36.7647 O   0  0  0  0  0  0  0  0  0  0  0  0
  -13.3410   16.0729  -39.6724 S   0  0  0  0  0  0  0  0  0  0  0  0
  -14.8928   15.5888  -37.1383 H   0  0  0  0  0  0  0  0  0  0  0  0
  -13.4831   15.0991  -36.2208 H   0  0  0  0  0  0  0  0  0  0  0  0
  -13.3945   13.1544  -37.5865 H   0  0  0  0  0  0  0  0  0  0  0  0
  -14.8055   13.7653  -38.4262 H   0  0  0  0  0  0  0  0  0  0  0  0
  -11.0543   17.0883  -38.2902 H   0  0  0  0  0  0  0  0  0  0  0  0
  -11.3804   16.6548  -36.6229 H   0  0  0  0  0  0  0  0  0  0  0  0
  -11.2027   13.1471  -39.1174 H   0  0  0  0  0  0  0  0  0  0  0  0
  -10.9335   14.6046  -40.0348 H   0  0  0  0  0  0  0  0  0  0  0  0
   -8.7413   15.1016  -34.6428 H   0  0  0  0  0  0  0  0  0  0  0  0
   -8.5896   13.7121  -35.7241 H   0  0  0  0  0  0  0  0  0  0  0  0
  -10.8625   13.7033  -34.7332 H   0  0  0  0  0  0  0  0  0  0  0  0
  -11.1059   15.3710  -35.2168 H   0  0  0  0  0  0  0  0  0  0  0  0
  -13.4542   17.3989  -37.7013 H   0  0  0  0  0  0  0  0  0  0  0  0
  -13.2681   13.7678  -40.2459 H   0  0  0  0  0  0  0  0  0  0  0  0
   -9.1202   15.8604  -38.7366 H   0  0  0  0  0  0  0  0  0  0  0  0
   -6.9629   13.9688  -36.9815 H   0  0  0  0  0  0  0  0  0  0  0  0
   -6.6401   14.7701  -38.5289 H   0  0  0  0  0  0  0  0  0  0  0  0
   -6.5742   13.0052  -38.4173 H   0  0  0  0  0  0  0  0  0  0  0  0
   -9.1636   12.6006  -36.7097 H   0  0  0  0  0  0  0  0  0  0  0  0
   -8.7281   11.6663  -38.1515 H   0  0  0  0  0  0  0  0  0  0  0  0
  -10.2849   12.5043  -38.0787 H   0  0  0  0  0  0  0  0  0  0  0  0
   -8.6758   13.7397  -39.5151 H   0  0  0  0  0  0  0  0  0  0  0  0
   -9.1475   16.5016  -36.4899 H   0  0  0  0  0  0  0  0  0  0  0  0
  1  2  1  0  0  0  0
  1  7  1  0  0  0  0
  2  8  1  0  0  0  0
  3  7  1  0  0  0  0
  3 10  1  0  0  0  0
  4  8  1  0  0  0  0
  4 10  1  0  0  0  0
  5  6  1  0  0  0  0
  5 14  1  0  0  0  0
  6 17  1  0  0  0  0
  7 18  1  0  0  0  0
  8 18  1  0  0  0  0
  9 10  1  0  0  0  0
  9 13  1  0  0  0  0
  9 14  1  0  0  0  0
 10 17  1  0  0  0  0
 11 13  1  0  0  0  0
 12 13  1  0  0  0  0
 15 18  2  0  0  0  0
 16 18  2  0  0  0  0
  1 19  1  0  0  0  0
  1 20  1  0  0  0  0
  2 21  1  0  0  0  0
  2 22  1  0  0  0  0
  3 23  1  0  0  0  0
  3 24  1  0  0  0  0
  4 25  1  0  0  0  0
  4 26  1  0  0  0  0
  5 27  1  0  0  0  0
  5 28  1  0  0  0  0
  6 29  1  0  0  0  0
  6 30  1  0  0  0  0
  7 31  1  0  0  0  0
  8 32  1  0  0  0  0
  9 33  1  0  0  0  0
 11 34  1  0  0  0  0
 11 35  1  0  0  0  0
 11 36  1  0  0  0  0
 12 37  1  0  0  0  0
 12 38  1  0  0  0  0
 12 39  1  0  0  0  0
 13 40  1  0  0  0  0
 14 41  1  0  0  0  0
M  END
> <id>
EN300-1639943

> <smiles>
CC(C)C1NCCOC21CC3CCC(C2)S3(=O)=O

> <IUPAC Name>
3'-(propan-2-yl)-8lambda6-thiaspiro[bicyclo[3.2.1]octane-3,2'-morpholine]-8,8-dione

> <CAS>
2171750-18-6

> <URL>
https://www.enaminestore.com/catalog/EN300-1639943

> <ROCS_ShapeQuery>
_x1247relevant_x1083L0AP1_x1305L0BP1_

> <ROCS_TanimotoCombo>
0.828 

> <ROCS_ShapeTanimoto>
0.515 

> <ROCS_ColorTanimoto>
0.312 

> <ROCS_RefTversky>
0.443 

> <ROCS_RefColorTversky>
0.384 

> <ROCS_RefTverskyCombo>
0.827 

> <ROCS_FitTversky>
1.468 

> <ROCS_FitColorTversky>
0.625 

> <ROCS_FitTverskyCombo>
2.094 

> <ROCS_ColorScore>
-8.213

> <ROCS_Overlap>
1305.946

> <ROCS_Rank>
308                 

$$$$
untitled-dbase-173560_9
  -OEChem-06232314393D

 23 25  0     0  0  0  0  0  0999 V2000
  -11.8990   15.5977  -39.2462 C   0  0  0  0  0  0  0  0  0  0  0  0
  -13.1584   16.3772  -37.7152 C   0  0  0  0  0  0  0  0  0  0  0  0
  -13.2561   14.3107  -38.2265 C   0  0  0  0  0  0  0  0  0  0  0  0
   -9.5639   14.7084  -37.2107 C   0  0  0  0  0  0  0  0  0  0  0  0
  -10.8888   13.4505  -36.2159 C   0  0  0  0  0  0  0  0  0  0  0  0
  -10.9975   14.9204  -36.6768 C   0  0  0  0  0  0  0  0  0  0  0  0
  -12.0672   15.2264  -37.7138 C   0  0  0  0  0  0  0  0  0  0  0  0
  -13.4327   15.6182  -39.0363 C   0  0  0  0  0  0  0  0  0  0  0  0
   -9.8290   13.2549  -37.2267 N   0  0  0  0  0  0  0  0  0  0  0  0
  -14.4175   15.9025  -39.9973 O   0  0  0  0  0  0  0  0  0  0  0  0
  -11.4111   16.5518  -39.4706 H   0  0  0  0  0  0  0  0  0  0  0  0
  -11.4927   14.8191  -39.9001 H   0  0  0  0  0  0  0  0  0  0  0  0
  -13.9290   16.3261  -36.9390 H   0  0  0  0  0  0  0  0  0  0  0  0
  -12.7907   17.4054  -37.7951 H   0  0  0  0  0  0  0  0  0  0  0  0
  -12.9788   13.4098  -38.7836 H   0  0  0  0  0  0  0  0  0  0  0  0
  -14.0360   14.0627  -37.4991 H   0  0  0  0  0  0  0  0  0  0  0  0
   -9.3607   15.1273  -38.2063 H   0  0  0  0  0  0  0  0  0  0  0  0
   -8.7595   15.0173  -36.5333 H   0  0  0  0  0  0  0  0  0  0  0  0
  -10.5624   13.3042  -35.1797 H   0  0  0  0  0  0  0  0  0  0  0  0
  -11.7793   12.8301  -36.3910 H   0  0  0  0  0  0  0  0  0  0  0  0
  -11.0389   15.6506  -35.8098 H   0  0  0  0  0  0  0  0  0  0  0  0
  -10.1520   12.8871  -38.1227 H   0  0  0  0  0  0  0  0  0  0  0  0
  -14.3312   15.2455  -40.7134 H   0  0  0  0  0  0  0  0  0  0  0  0
  1  7  1  0  0  0  0
  1  8  1  0  0  0  0
  2  7  1  0  0  0  0
  2  8  1  0  0  0  0
  3  7  1  0  0  0  0
  3  8  1  0  0  0  0
  4  6  1  0  0  0  0
  4  9  1  0  0  0  0
  5  6  1  0  0  0  0
  5  9  1  0  0  0  0
  6  7  1  6  0  0  0
  8 10  1  6  0  0  0
  1 11  1  0  0  0  0
  1 12  1  0  0  0  0
  2 13  1  0  0  0  0
  2 14  1  0  0  0  0
  3 15  1  0  0  0  0
  3 16  1  0  0  0  0
  4 17  1  0  0  0  0
  4 18  1  0  0  0  0
  5 19  1  0  0  0  0
  5 20  1  0  0  0  0
  6 21  1  0  0  0  0
  9 22  1  0  0  0  0
 10 23  1  0  0  0  0
M  END
> <id>
EN300-37374199

> <smiles>
Cl.O[C@]1(C[C@]2(C1)C3CNC3)C2

> <IUPAC Name>
3-(azetidin-3-yl)bicyclo[1.1.1]pentan-1-ol hydrochloride

> <CAS>
2613386-03-9

> <URL>
https://www.enaminestore.com/catalog/EN300-37374199

> <ROCS_ShapeQuery>
_x1247relevant_x1083L0AP1_x1305L0BP1_

> <ROCS_TanimotoCombo>
0.828 

> <ROCS_ShapeTanimoto>
0.420 

> <ROCS_ColorTanimoto>
0.408 

> <ROCS_RefTversky>
0.353 

> <ROCS_RefColorTversky>
0.466 

> <ROCS_RefTverskyCombo>
0.819 

> <ROCS_FitTversky>
1.817 

> <ROCS_FitColorTversky>
0.767 

> <ROCS_FitTverskyCombo>
2.584 

> <ROCS_ColorScore>
-9.960

> <ROCS_Overlap>
1035.325

> <ROCS_Rank>
309                 

$$$$
untitled-dbase-178665_9
  -OEChem-06232314393D

 23 25  0     0  0  0  0  0  0999 V2000
  -11.8990   15.5977  -39.2462 C   0  0  0  0  0  0  0  0  0  0  0  0
  -13.1584   16.3772  -37.7152 C   0  0  0  0  0  0  0  0  0  0  0  0
  -13.2561   14.3107  -38.2265 C   0  0  0  0  0  0  0  0  0  0  0  0
   -9.5639   14.7084  -37.2107 C   0  0  0  0  0  0  0  0  0  0  0  0
  -10.8888   13.4505  -36.2159 C   0  0  0  0  0  0  0  0  0  0  0  0
  -10.9975   14.9204  -36.6768 C   0  0  0  0  0  0  0  0  0  0  0  0
  -12.0672   15.2264  -37.7138 C   0  0  0  0  0  0  0  0  0  0  0  0
  -13.4327   15.6182  -39.0363 C   0  0  0  0  0  0  0  0  0  0  0  0
   -9.8290   13.2549  -37.2267 N   0  0  0  0  0  0  0  0  0  0  0  0
  -14.4175   15.9025  -39.9973 O   0  0  0  0  0  0  0  0  0  0  0  0
  -11.4111   16.5518  -39.4706 H   0  0  0  0  0  0  0  0  0  0  0  0
  -11.4927   14.8191  -39.9001 H   0  0  0  0  0  0  0  0  0  0  0  0
  -13.9290   16.3261  -36.9390 H   0  0  0  0  0  0  0  0  0  0  0  0
  -12.7907   17.4054  -37.7951 H   0  0  0  0  0  0  0  0  0  0  0  0
  -12.9788   13.4098  -38.7836 H   0  0  0  0  0  0  0  0  0  0  0  0
  -14.0360   14.0627  -37.4991 H   0  0  0  0  0  0  0  0  0  0  0  0
   -9.3607   15.1273  -38.2063 H   0  0  0  0  0  0  0  0  0  0  0  0
   -8.7595   15.0173  -36.5333 H   0  0  0  0  0  0  0  0  0  0  0  0
  -10.5624   13.3042  -35.1797 H   0  0  0  0  0  0  0  0  0  0  0  0
  -11.7793   12.8301  -36.3910 H   0  0  0  0  0  0  0  0  0  0  0  0
  -11.0389   15.6506  -35.8098 H   0  0  0  0  0  0  0  0  0  0  0  0
  -10.1520   12.8871  -38.1227 H   0  0  0  0  0  0  0  0  0  0  0  0
  -14.3312   15.2455  -40.7134 H   0  0  0  0  0  0  0  0  0  0  0  0
  1  7  1  0  0  0  0
  1  8  1  0  0  0  0
  2  7  1  0  0  0  0
  2  8  1  0  0  0  0
  3  7  1  0  0  0  0
  3  8  1  0  0  0  0
  4  6  1  0  0  0  0
  4  9  1  0  0  0  0
  5  6  1  0  0  0  0
  5  9  1  0  0  0  0
  6  7  1  6  0  0  0
  8 10  1  6  0  0  0
  1 11  1  0  0  0  0
  1 12  1  0  0  0  0
  2 13  1  0  0  0  0
  2 14  1  0  0  0  0
  3 15  1  0  0  0  0
  3 16  1  0  0  0  0
  4 17  1  0  0  0  0
  4 18  1  0  0  0  0
  5 19  1  0  0  0  0
  5 20  1  0  0  0  0
  6 21  1  0  0  0  0
  9 22  1  0  0  0  0
 10 23  1  0  0  0  0
M  END
> <id>
EN300-27745599

> <smiles>
O[C@]1(C[C@]2(C1)C3CNC3)C2

> <IUPAC Name>
3-(azetidin-3-yl)bicyclo[1.1.1]pentan-1-ol

> <URL>
https://www.enaminestore.com/catalog/EN300-27745599

> <ROCS_ShapeQuery>
_x1247relevant_x1083L0AP1_x1305L0BP1_

> <ROCS_TanimotoCombo>
0.828 

> <ROCS_ShapeTanimoto>
0.420 

> <ROCS_ColorTanimoto>
0.408 

> <ROCS_RefTversky>
0.353 

> <ROCS_RefColorTversky>
0.466 

> <ROCS_RefTverskyCombo>
0.819 

> <ROCS_FitTversky>
1.817 

> <ROCS_FitColorTversky>
0.767 

> <ROCS_FitTverskyCombo>
2.584 

> <ROCS_ColorScore>
-9.960

> <ROCS_Overlap>
1035.325

> <ROCS_Rank>
310                 

$$$$
untitled-dbase-86981_0
  -OEChem-06232314393D

 33 35  0     0  0  0  0  0  0999 V2000
   -9.0972   14.3302  -36.9273 C   0  0  0  0  0  0  0  0  0  0  0  0
  -13.3593   15.0144  -39.9821 C   0  0  0  0  0  0  0  0  0  0  0  0
  -12.7188   16.9948  -38.5830 C   0  0  0  0  0  0  0  0  0  0  0  0
  -14.2554   15.2457  -37.6511 C   0  0  0  0  0  0  0  0  0  0  0  0
  -11.0198   15.2260  -39.1049 C   0  0  0  0  0  0  0  0  0  0  0  0
  -12.5581   13.4752  -38.1721 C   0  0  0  0  0  0  0  0  0  0  0  0
  -11.9170   15.4583  -36.7704 C   0  0  0  0  0  0  0  0  0  0  0  0
  -12.2288   16.0038  -39.6525 C   0  0  0  0  0  0  0  0  0  0  0  0
  -13.7734   14.2458  -38.7159 C   0  0  0  0  0  0  0  0  0  0  0  0
  -13.1297   16.2366  -37.3093 C   0  0  0  0  0  0  0  0  0  0  0  0
  -11.4121   14.4518  -37.8268 C   0  0  0  0  0  0  0  0  0  0  0  0
   -8.0569   13.3817  -36.4310 C   0  0  0  0  0  0  0  0  0  0  0  0
  -10.2736   13.7200  -37.3168 N   0  0  0  0  0  0  0  0  0  0  0  0
   -8.8556   15.5312  -36.9555 O   0  0  0  0  0  0  0  0  0  0  0  0
  -14.2220   15.5543  -40.3911 H   0  0  0  0  0  0  0  0  0  0  0  0
  -13.0283   14.3111  -40.7560 H   0  0  0  0  0  0  0  0  0  0  0  0
  -11.9264   17.7169  -38.3502 H   0  0  0  0  0  0  0  0  0  0  0  0
  -13.5705   17.5694  -38.9673 H   0  0  0  0  0  0  0  0  0  0  0  0
  -15.1339   15.7899  -38.0192 H   0  0  0  0  0  0  0  0  0  0  0  0
  -14.5694   14.7085  -36.7478 H   0  0  0  0  0  0  0  0  0  0  0  0
  -10.6533   14.5330  -39.8734 H   0  0  0  0  0  0  0  0  0  0  0  0
  -10.2016   15.9257  -38.8896 H   0  0  0  0  0  0  0  0  0  0  0  0
  -12.8546   12.9059  -37.2814 H   0  0  0  0  0  0  0  0  0  0  0  0
  -12.2235   12.7447  -38.9203 H   0  0  0  0  0  0  0  0  0  0  0  0
  -11.1187   16.1631  -36.5040 H   0  0  0  0  0  0  0  0  0  0  0  0
  -12.2004   14.9338  -35.8484 H   0  0  0  0  0  0  0  0  0  0  0  0
  -11.9395   16.5492  -40.5577 H   0  0  0  0  0  0  0  0  0  0  0  0
  -14.5795   13.5436  -38.9562 H   0  0  0  0  0  0  0  0  0  0  0  0
  -13.4798   16.9472  -36.5523 H   0  0  0  0  0  0  0  0  0  0  0  0
   -7.4003   13.0179  -37.2376 H   0  0  0  0  0  0  0  0  0  0  0  0
   -7.3823   13.8456  -35.6935 H   0  0  0  0  0  0  0  0  0  0  0  0
   -8.4425   12.4740  -35.9398 H   0  0  0  0  0  0  0  0  0  0  0  0
  -10.3423   12.7100  -37.2416 H   0  0  0  0  0  0  0  0  0  0  0  0
  1 12  1  0  0  0  0
  1 13  1  0  0  0  0
  1 14  2  0  0  0  0
  2  8  1  0  0  0  0
  2  9  1  0  0  0  0
  3  8  1  0  0  0  0
  3 10  1  0  0  0  0
  4  9  1  0  0  0  0
  4 10  1  0  0  0  0
  5  8  1  0  0  0  0
  5 11  1  0  0  0  0
  6  9  1  0  0  0  0
  6 11  1  0  0  0  0
  7 10  1  0  0  0  0
  7 11  1  0  0  0  0
 11 13  1  0  0  0  0
  2 15  1  0  0  0  0
  2 16  1  0  0  0  0
  3 17  1  0  0  0  0
  3 18  1  0  0  0  0
  4 19  1  0  0  0  0
  4 20  1  0  0  0  0
  5 21  1  0  0  0  0
  5 22  1  0  0  0  0
  6 23  1  0  0  0  0
  6 24  1  0  0  0  0
  7 25  1  0  0  0  0
  7 26  1  0  0  0  0
  8 27  1  0  0  0  0
  9 28  1  0  0  0  0
 10 29  1  0  0  0  0
 12 30  1  0  0  0  0
 12 31  1  0  0  0  0
 12 32  1  0  0  0  0
 13 33  1  0  0  0  0
M  END
> <id>
EN300-8601068

> <smiles>
CC(=O)NC1(CC2CC3CC(C2)C1)C3

> <IUPAC Name>
N-(adamantan-1-yl)acetamide

> <CAS>
880-52-4

> <URL>
https://www.enaminestore.com/catalog/EN300-8601068

> <MP>
148-149

> <ROCS_ShapeQuery>
_x1247relevant_x1083L0AP1_x1305L0BP1_

> <ROCS_TanimotoCombo>
0.827 

> <ROCS_ShapeTanimoto>
0.496 

> <ROCS_ColorTanimoto>
0.331 

> <ROCS_RefTversky>
0.416 

> <ROCS_RefColorTversky>
0.356 

> <ROCS_RefTverskyCombo>
0.772 

> <ROCS_FitTversky>
1.634 

> <ROCS_FitColorTversky>
0.825 

> <ROCS_FitTverskyCombo>
2.459 

> <ROCS_ColorScore>
-7.544

> <ROCS_Overlap>
1224.627

> <ROCS_Rank>
311                 

$$$$
untitled-dbase-30673_1
  -OEChem-06232314393D

 28 29  0     1  0  0  0  0  0999 V2000
  -12.4140   15.9430  -39.5836 C   0  0  0  0  0  0  0  0  0  0  0  0
  -10.3094   15.2082  -36.7908 C   0  0  0  0  0  0  0  0  0  0  0  0
  -13.9378   15.4332  -37.7859 C   0  0  0  0  0  0  0  0  0  0  0  0
  -12.7857   15.8069  -36.8299 C   0  0  0  0  0  0  0  0  0  0  0  0
  -13.1809   14.7788  -38.9645 C   0  0  2  0  0  0  0  0  0  0  0  0
  -11.5540   15.3079  -37.6104 C   0  0  2  0  0  0  0  0  0  0  0  0
  -12.0118   14.0148  -38.3017 C   0  0  0  0  0  0  0  0  0  0  0  0
  -14.0550   14.0225  -39.9373 C   0  0  0  0  0  0  0  0  0  0  0  0
  -12.4259   12.8764  -37.3539 C   0  0  0  0  0  0  0  0  0  0  0  0
  -10.9897   13.4328  -39.3014 C   0  0  0  0  0  0  0  0  0  0  0  0
  -12.6518   16.5415  -40.6169 O   0  0  0  0  0  0  0  0  0  0  0  0
   -9.2727   15.8162  -37.0123 O   0  0  0  0  0  0  0  0  0  0  0  0
  -11.3764   16.2174  -38.7085 O   0  0  0  0  0  0  0  0  0  0  0  0
  -10.4824   14.3443  -35.7608 O   0  0  0  0  0  0  0  0  0  0  0  0
  -14.6376   14.7416  -37.3053 H   0  0  0  0  0  0  0  0  0  0  0  0
  -14.4990   16.3236  -38.0915 H   0  0  0  0  0  0  0  0  0  0  0  0
  -12.7554   16.8907  -36.6697 H   0  0  0  0  0  0  0  0  0  0  0  0
  -12.9015   15.3204  -35.8560 H   0  0  0  0  0  0  0  0  0  0  0  0
  -14.5755   13.2032  -39.4316 H   0  0  0  0  0  0  0  0  0  0  0  0
  -13.4532   13.5987  -40.7474 H   0  0  0  0  0  0  0  0  0  0  0  0
  -14.8056   14.6862  -40.3779 H   0  0  0  0  0  0  0  0  0  0  0  0
  -11.5361   12.4090  -36.9450 H   0  0  0  0  0  0  0  0  0  0  0  0
  -13.0029   12.1421  -37.9066 H   0  0  0  0  0  0  0  0  0  0  0  0
  -13.0282   13.2827  -36.5477 H   0  0  0  0  0  0  0  0  0  0  0  0
  -10.2114   12.9183  -38.7509 H   0  0  0  0  0  0  0  0  0  0  0  0
  -10.5602   14.2428  -39.8784 H   0  0  0  0  0  0  0  0  0  0  0  0
  -11.4970   12.7383  -39.9603 H   0  0  0  0  0  0  0  0  0  0  0  0
   -9.6742   14.2634  -35.2108 H   0  0  0  0  0  0  0  0  0  0  0  0
  1  5  1  0  0  0  0
  1 11  2  0  0  0  0
  1 13  1  0  0  0  0
  2  6  1  0  0  0  0
  2 12  2  0  0  0  0
  2 14  1  0  0  0  0
  3  4  1  0  0  0  0
  3  5  1  0  0  0  0
  4  6  1  0  0  0  0
  5  7  1  0  0  0  0
  5  8  1  0  0  0  0
  6  7  1  0  0  0  0
  6 13  1  0  0  0  0
  7  9  1  0  0  0  0
  7 10  1  0  0  0  0
  3 15  1  0  0  0  0
  3 16  1  0  0  0  0
  4 17  1  0  0  0  0
  4 18  1  0  0  0  0
  8 19  1  0  0  0  0
  8 20  1  0  0  0  0
  8 21  1  0  0  0  0
  9 22  1  0  0  0  0
  9 23  1  0  0  0  0
  9 24  1  0  0  0  0
 10 25  1  0  0  0  0
 10 26  1  0  0  0  0
 10 27  1  0  0  0  0
 14 28  1  0  0  0  0
M  END
> <id>
EN300-105575

> <smiles>
CC1(C)C2(C)CCC1(OC2=O)C(=O)O

> <MDLNUMBER>
MFCD02179756

> <IUPAC Name>
4,7,7-trimethyl-3-oxo-2-oxabicyclo[2.2.1]heptane-1-carboxylic acid

> <CAS>
465-48-5

> <URL>
https://www.enaminestore.com/catalog/EN300-105575

> <ROCS_ShapeQuery>
_x1247relevant_x1083L0AP1_x1305L0BP1_

> <ROCS_TanimotoCombo>
0.827 

> <ROCS_ShapeTanimoto>
0.509 

> <ROCS_ColorTanimoto>
0.318 

> <ROCS_RefTversky>
0.425 

> <ROCS_RefColorTversky>
0.376 

> <ROCS_RefTverskyCombo>
0.801 

> <ROCS_FitTversky>
1.640 

> <ROCS_FitColorTversky>
0.672 

> <ROCS_FitTverskyCombo>
2.312 

> <ROCS_ColorScore>
-8.024

> <ROCS_Overlap>
1250.566

> <ROCS_Rank>
312                 

$$$$
untitled-dbase-155503_22
  -OEChem-06232314393D

 29 30  0     1  0  0  0  0  0999 V2000
  -14.4959   14.8610  -40.1612 C   0  0  0  0  0  0  0  0  0  0  0  0
  -10.1020   14.4763  -36.4324 C   0  0  0  0  0  0  0  0  0  0  0  0
  -13.4475   16.4113  -37.7431 C   0  0  0  0  0  0  0  0  0  0  0  0
  -12.4956   16.7615  -38.8931 C   0  0  0  0  0  0  0  0  0  0  0  0
  -12.4973   14.2112  -36.9479 C   0  0  0  0  0  0  0  0  0  0  0  0
  -10.9061   14.7974  -38.8126 C   0  0  0  0  0  0  0  0  0  0  0  0
  -13.3417   14.5344  -39.2602 C   0  0  0  0  0  0  0  0  0  0  0  0
  -13.5936   14.8798  -37.7941 C   0  0  2  0  0  0  0  0  0  0  0  0
  -12.1214   15.4121  -39.5308 C   0  0  1  0  0  0  0  0  0  0  0  0
   -8.7280   14.1673  -36.9734 C   0  0  0  0  0  0  0  0  0  0  0  0
  -11.1342   14.5723  -37.3713 N   0  0  0  0  0  0  0  0  0  0  0  0
  -15.0556   14.0657  -40.9011 O   0  0  0  0  0  0  0  0  0  0  0  0
  -10.2552   14.6335  -35.2185 O   0  0  0  0  0  0  0  0  0  0  0  0
  -14.8375   16.1678  -40.0471 O   0  0  0  0  0  0  0  0  0  0  0  0
   -8.7661   14.0388  -38.3114 F   0  0  0  0  0  0  0  0  0  0  0  0
   -7.8663   15.1534  -36.6680 F   0  0  0  0  0  0  0  0  0  0  0  0
   -8.2585   13.0200  -36.4520 F   0  0  0  0  0  0  0  0  0  0  0  0
  -13.0729   16.7679  -36.7779 H   0  0  0  0  0  0  0  0  0  0  0  0
  -14.4183   16.8915  -37.9135 H   0  0  0  0  0  0  0  0  0  0  0  0
  -13.0129   17.3996  -39.6191 H   0  0  0  0  0  0  0  0  0  0  0  0
  -11.6200   17.3172  -38.5412 H   0  0  0  0  0  0  0  0  0  0  0  0
  -12.6293   14.4680  -35.8905 H   0  0  0  0  0  0  0  0  0  0  0  0
  -12.5734   13.1196  -37.0252 H   0  0  0  0  0  0  0  0  0  0  0  0
  -10.6647   13.8208  -39.2489 H   0  0  0  0  0  0  0  0  0  0  0  0
  -10.0355   15.4433  -38.9577 H   0  0  0  0  0  0  0  0  0  0  0  0
  -13.1226   13.4707  -39.4074 H   0  0  0  0  0  0  0  0  0  0  0  0
  -14.5827   14.5655  -37.4448 H   0  0  0  0  0  0  0  0  0  0  0  0
  -11.9087   15.5271  -40.5989 H   0  0  0  0  0  0  0  0  0  0  0  0
  -15.5903   16.4020  -40.6308 H   0  0  0  0  0  0  0  0  0  0  0  0
  1  7  1  0  0  0  0
  1 12  2  0  0  0  0
  1 14  1  0  0  0  0
  2 10  1  0  0  0  0
  2 11  1  0  0  0  0
  2 13  2  0  0  0  0
  3  4  1  0  0  0  0
  3  8  1  0  0  0  0
  4  9  1  0  0  0  0
  5  8  1  0  0  0  0
  5 11  1  0  0  0  0
  6  9  1  0  0  0  0
  6 11  1  0  0  0  0
  7  8  1  0  0  0  0
  7  9  1  0  0  0  0
 10 15  1  0  0  0  0
 10 16  1  0  0  0  0
 10 17  1  0  0  0  0
  3 18  1  0  0  0  0
  3 19  1  0  0  0  0
  4 20  1  0  0  0  0
  4 21  1  0  0  0  0
  5 22  1  0  0  0  0
  5 23  1  0  0  0  0
  6 24  1  0  0  0  0
  6 25  1  0  0  0  0
  7 26  1  0  0  0  0
  8 27  1  0  0  0  0
  9 28  1  0  0  0  0
 14 29  1  0  0  0  0
M  END
> <id>
EN300-3260639

> <smiles>
OC(=O)C1C2CCC1CN(C2)C(=O)C(F)(F)F

> <IUPAC Name>
3-(trifluoroacetyl)-3-azabicyclo[3.2.1]octane-8-carboxylic acid

> <CAS>
2143459-36-1

> <URL>
https://www.enaminestore.com/catalog/EN300-3260639

> <ROCS_ShapeQuery>
_x1247relevant_x1083L0AP1_x1305L0BP1_

> <ROCS_TanimotoCombo>
0.827 

> <ROCS_ShapeTanimoto>
0.536 

> <ROCS_ColorTanimoto>
0.291 

> <ROCS_RefTversky>
0.454 

> <ROCS_RefColorTversky>
0.336 

> <ROCS_RefTverskyCombo>
0.790 

> <ROCS_FitTversky>
1.507 

> <ROCS_FitColorTversky>
0.685 

> <ROCS_FitTverskyCombo>
2.192 

> <ROCS_ColorScore>
-7.145

> <ROCS_Overlap>
1339.193

> <ROCS_Rank>
313                 

$$$$
untitled-dbase-141506_2
  -OEChem-06232314393D

 25 26  0     1  0  0  0  0  0999 V2000
  -13.3178   14.0127  -38.7640 C   0  0  0  0  0  0  0  0  0  0  0  0
  -12.9349   14.1064  -37.4823 C   0  0  0  0  0  0  0  0  0  0  0  0
  -13.4673   16.2427  -38.1788 C   0  0  0  0  0  0  0  0  0  0  0  0
  -11.5967   15.6132  -39.5167 C   0  0  0  0  0  0  0  0  0  0  0  0
  -13.1182   15.3724  -39.3902 C   0  0  1  0  0  0  0  0  0  0  0  0
  -12.4715   15.5271  -37.2567 C   0  0  2  0  0  0  0  0  0  0  0  0
  -11.1503   15.7792  -38.0306 C   0  0  1  0  0  0  0  0  0  0  0  0
   -9.9901   14.8760  -37.6394 C   0  0  1  0  0  0  0  0  0  0  0  0
   -9.2782   15.3887  -36.3973 C   0  0  0  0  0  0  0  0  0  0  0  0
  -10.4843   13.5205  -37.3968 N   0  0  0  0  0  0  0  0  0  0  0  0
   -8.7795   16.6279  -36.6079 F   0  0  0  0  0  0  0  0  0  0  0  0
  -10.1081   15.4568  -35.3341 F   0  0  0  0  0  0  0  0  0  0  0  0
   -8.2399   14.5907  -36.0618 F   0  0  0  0  0  0  0  0  0  0  0  0
  -13.6555   13.1218  -39.2687 H   0  0  0  0  0  0  0  0  0  0  0  0
  -12.9055   13.3048  -36.7618 H   0  0  0  0  0  0  0  0  0  0  0  0
  -13.2385   17.3042  -38.3277 H   0  0  0  0  0  0  0  0  0  0  0  0
  -14.5115   16.1444  -37.8552 H   0  0  0  0  0  0  0  0  0  0  0  0
  -11.0845   14.7910  -40.0289 H   0  0  0  0  0  0  0  0  0  0  0  0
  -11.3985   16.5396  -40.0679 H   0  0  0  0  0  0  0  0  0  0  0  0
  -13.7096   15.5576  -40.2872 H   0  0  0  0  0  0  0  0  0  0  0  0
  -12.4878   15.8596  -36.2180 H   0  0  0  0  0  0  0  0  0  0  0  0
  -10.8409   16.8217  -37.8750 H   0  0  0  0  0  0  0  0  0  0  0  0
   -9.2701   14.8406  -38.4666 H   0  0  0  0  0  0  0  0  0  0  0  0
  -10.9207   13.1987  -38.2271 H   0  0  0  0  0  0  0  0  0  0  0  0
   -9.7093   12.9484  -37.1611 H   0  0  0  0  0  0  0  0  0  0  0  0
  1  2  2  0  0  0  0
  1  5  1  0  0  0  0
  2  6  1  0  0  0  0
  3  5  1  0  0  0  0
  3  6  1  0  0  0  0
  4  5  1  0  0  0  0
  4  7  1  0  0  0  0
  6  7  1  0  0  0  0
  7  8  1  0  0  0  0
  8  9  1  0  0  0  0
  8 10  1  0  0  0  0
  9 11  1  0  0  0  0
  9 12  1  0  0  0  0
  9 13  1  0  0  0  0
  1 14  1  0  0  0  0
  2 15  1  0  0  0  0
  3 16  1  0  0  0  0
  3 17  1  0  0  0  0
  4 18  1  0  0  0  0
  4 19  1  0  0  0  0
  5 20  1  0  0  0  0
  6 21  1  0  0  0  0
  7 22  1  0  0  0  0
  8 23  1  0  0  0  0
 10 24  1  0  0  0  0
 10 25  1  0  0  0  0
M  END
> <id>
EN300-1945983

> <smiles>
NC(C1CC2CC1C=C2)C(F)(F)F

> <IUPAC Name>
1-{bicyclo[2.2.1]hept-5-en-2-yl}-2,2,2-trifluoroethan-1-amine

> <CAS>
2228730-22-9

> <URL>
https://www.enaminestore.com/catalog/EN300-1945983

> <ROCS_ShapeQuery>
_x1247relevant_x1083L0AP1_x1305L0BP1_

> <ROCS_TanimotoCombo>
0.827 

> <ROCS_ShapeTanimoto>
0.474 

> <ROCS_ColorTanimoto>
0.353 

> <ROCS_RefTversky>
0.399 

> <ROCS_RefColorTversky>
0.372 

> <ROCS_RefTverskyCombo>
0.772 

> <ROCS_FitTversky>
1.651 

> <ROCS_FitColorTversky>
0.872 

> <ROCS_FitTverskyCombo>
2.523 

> <ROCS_ColorScore>
-7.878

> <ROCS_Overlap>
1174.649

> <ROCS_Rank>
314                 

$$$$
untitled-dbase-175886_80
  -OEChem-06232314393D

 26 27  0     1  0  0  0  0  0999 V2000
  -13.0613   16.3621  -40.4861 C   0  0  0  0  0  0  0  0  0  0  0  0
  -10.4213   14.9108  -36.6819 C   0  0  0  0  0  0  0  0  0  0  0  0
  -12.6294   14.1570  -39.3953 C   0  0  0  0  0  0  0  0  0  0  0  0
  -13.4548   13.9423  -38.1141 C   0  0  0  0  0  0  0  0  0  0  0  0
  -13.3036   16.3859  -37.3709 C   0  0  0  0  0  0  0  0  0  0  0  0
  -12.1453   15.6113  -39.5687 C   0  0  2  0  0  0  0  0  0  0  0  0
  -13.0140   14.9062  -37.0126 C   0  0  2  0  0  0  0  0  0  0  0  0
  -11.9958   16.2928  -38.2047 C   0  0  2  0  0  0  0  0  0  0  0  0
   -9.2607   15.0852  -37.6233 C   0  0  0  0  0  0  0  0  0  0  0  0
  -11.6223   15.3047  -37.1940 N   0  0  0  0  0  0  0  0  0  0  0  0
  -12.7168   17.2562  -41.2444 O   0  0  0  0  0  0  0  0  0  0  0  0
  -10.2700   14.4474  -35.5529 O   0  0  0  0  0  0  0  0  0  0  0  0
  -14.3352   15.9163  -40.3607 O   0  0  0  0  0  0  0  0  0  0  0  0
   -9.6726   15.6051  -38.7946 F   0  0  0  0  0  0  0  0  0  0  0  0
   -8.3400   15.9144  -37.0972 F   0  0  0  0  0  0  0  0  0  0  0  0
   -8.6656   13.9042  -37.8749 F   0  0  0  0  0  0  0  0  0  0  0  0
  -11.7797   13.4606  -39.4222 H   0  0  0  0  0  0  0  0  0  0  0  0
  -13.2587   13.8748  -40.2540 H   0  0  0  0  0  0  0  0  0  0  0  0
  -14.5201   14.0871  -38.3422 H   0  0  0  0  0  0  0  0  0  0  0  0
  -13.3485   12.9033  -37.7689 H   0  0  0  0  0  0  0  0  0  0  0  0
  -14.2305   16.5944  -37.9178 H   0  0  0  0  0  0  0  0  0  0  0  0
  -13.2507   17.0802  -36.5187 H   0  0  0  0  0  0  0  0  0  0  0  0
  -11.1502   15.5996  -40.0717 H   0  0  0  0  0  0  0  0  0  0  0  0
  -13.2803   14.6124  -35.9983 H   0  0  0  0  0  0  0  0  0  0  0  0
  -11.3779   17.1992  -38.1928 H   0  0  0  0  0  0  0  0  0  0  0  0
  -14.9518   16.3976  -40.9528 H   0  0  0  0  0  0  0  0  0  0  0  0
  1  6  1  6  0  0  0
  1 11  2  0  0  0  0
  1 13  1  0  0  0  0
  2  9  1  0  0  0  0
  2 10  1  0  0  0  0
  2 12  2  0  0  0  0
  3  4  1  0  0  0  0
  3  6  1  0  0  0  0
  4  7  1  1  0  0  0
  5  7  1  0  0  0  0
  5  8  1  6  0  0  0
  6  8  1  0  0  0  0
  7 10  1  0  0  0  0
  8 10  1  0  0  0  0
  9 14  1  0  0  0  0
  9 15  1  0  0  0  0
  9 16  1  0  0  0  0
  3 17  1  0  0  0  0
  3 18  1  0  0  0  0
  4 19  1  0  0  0  0
  4 20  1  0  0  0  0
  5 21  1  0  0  0  0
  5 22  1  0  0  0  0
  6 23  1  0  0  0  0
  7 24  1  0  0  0  0
  8 25  1  0  0  0  0
 13 26  1  0  0  0  0
M  END
> <id>
EN300-37467141

> <smiles>
OC(=O)[C@@H]1CC[C@@H]2C[C@H]1N2C(=O)C(F)(F)F |&1:3,6,8,r|

> <IUPAC Name>
rac-(1R,2R,5R)-6-(2,2,2-trifluoroacetyl)-6-azabicyclo[3.1.1]heptane-2-carboxylic acid

> <URL>
https://www.enaminestore.com/catalog/EN300-37467141

> <ROCS_ShapeQuery>
_x1247relevant_x1083L0AP1_x1305L0BP1_

> <ROCS_TanimotoCombo>
0.827 

> <ROCS_ShapeTanimoto>
0.513 

> <ROCS_ColorTanimoto>
0.314 

> <ROCS_RefTversky>
0.437 

> <ROCS_RefColorTversky>
0.360 

> <ROCS_RefTverskyCombo>
0.796 

> <ROCS_FitTversky>
1.517 

> <ROCS_FitColorTversky>
0.711 

> <ROCS_FitTverskyCombo>
2.228 

> <ROCS_ColorScore>
-7.647

> <ROCS_Overlap>
1287.444

> <ROCS_Rank>
315                 

$$$$
untitled-dbase-90828_1
  -OEChem-06232314393D

 32 34  0     1  0  0  0  0  0999 V2000
   -9.9845   15.2269  -36.6051 C   0  0  0  0  0  0  0  0  0  0  0  0
  -12.3313   16.0266  -36.7031 C   0  0  0  0  0  0  0  0  0  0  0  0
  -13.3311   16.7212  -38.8971 C   0  0  0  0  0  0  0  0  0  0  0  0
  -14.0901   14.6058  -37.7864 C   0  0  0  0  0  0  0  0  0  0  0  0
  -10.9517   15.9170  -38.7997 C   0  0  0  0  0  0  0  0  0  0  0  0
  -11.7189   13.8001  -37.6876 C   0  0  0  0  0  0  0  0  0  0  0  0
  -12.7163   14.4923  -39.8810 C   0  0  0  0  0  0  0  0  0  0  0  0
  -13.6207   16.0485  -37.5429 C   0  0  1  0  0  0  0  0  0  0  0  0
  -11.2313   15.2397  -37.4422 C   0  0  1  0  0  0  0  0  0  0  0  0
  -12.2343   15.9451  -39.6660 C   0  0  1  0  0  0  0  0  0  0  0  0
  -12.9997   13.8253  -38.5294 C   0  0  2  0  0  0  0  0  0  0  0  0
  -11.9527   16.6163  -41.0124 C   0  0  0  0  0  0  0  0  0  0  0  0
   -8.9038   15.6822  -36.9487 O   0  0  0  0  0  0  0  0  0  0  0  0
  -10.2178   14.6356  -35.4079 O   0  0  0  0  0  0  0  0  0  0  0  0
  -13.4230   12.5538  -38.7381 F   0  0  0  0  0  0  0  0  0  0  0  0
  -11.9980   17.0536  -36.5032 H   0  0  0  0  0  0  0  0  0  0  0  0
  -12.5320   15.5735  -35.7232 H   0  0  0  0  0  0  0  0  0  0  0  0
  -14.2529   16.7624  -39.4916 H   0  0  0  0  0  0  0  0  0  0  0  0
  -13.0158   17.7596  -38.7323 H   0  0  0  0  0  0  0  0  0  0  0  0
  -14.3230   14.1112  -36.8352 H   0  0  0  0  0  0  0  0  0  0  0  0
  -15.0201   14.5966  -38.3681 H   0  0  0  0  0  0  0  0  0  0  0  0
  -10.5814   16.9394  -38.6422 H   0  0  0  0  0  0  0  0  0  0  0  0
  -10.1499   15.3822  -39.3271 H   0  0  0  0  0  0  0  0  0  0  0  0
  -10.9471   13.2065  -38.1953 H   0  0  0  0  0  0  0  0  0  0  0  0
  -11.9071   13.2810  -36.7384 H   0  0  0  0  0  0  0  0  0  0  0  0
  -13.6225   14.4704  -40.5003 H   0  0  0  0  0  0  0  0  0  0  0  0
  -11.9649   13.9098  -40.4298 H   0  0  0  0  0  0  0  0  0  0  0  0
  -14.3991   16.6069  -37.0114 H   0  0  0  0  0  0  0  0  0  0  0  0
  -11.1813   16.0626  -41.5429 H   0  0  0  0  0  0  0  0  0  0  0  0
  -11.6141   17.6368  -40.8486 H   0  0  0  0  0  0  0  0  0  0  0  0
  -12.8607   16.6306  -41.6110 H   0  0  0  0  0  0  0  0  0  0  0  0
   -9.4137   14.6156  -34.8463 H   0  0  0  0  0  0  0  0  0  0  0  0
  1  9  1  0  0  0  0
  1 13  2  0  0  0  0
  1 14  1  0  0  0  0
  2  8  1  0  0  0  0
  2  9  1  0  0  0  0
  3  8  1  0  0  0  0
  3 10  1  0  0  0  0
  4  8  1  0  0  0  0
  4 11  1  0  0  0  0
  5  9  1  0  0  0  0
  5 10  1  0  0  0  0
  6  9  1  0  0  0  0
  6 11  1  0  0  0  0
  7 10  1  0  0  0  0
  7 11  1  0  0  0  0
 10 12  1  0  0  0  0
 11 15  1  0  0  0  0
  2 16  1  0  0  0  0
  2 17  1  0  0  0  0
  3 18  1  0  0  0  0
  3 19  1  0  0  0  0
  4 20  1  0  0  0  0
  4 21  1  0  0  0  0
  5 22  1  0  0  0  0
  5 23  1  0  0  0  0
  6 24  1  0  0  0  0
  6 25  1  0  0  0  0
  7 26  1  0  0  0  0
  7 27  1  0  0  0  0
  8 28  1  0  0  0  0
 12 29  1  0  0  0  0
 12 30  1  0  0  0  0
 12 31  1  0  0  0  0
 14 32  1  0  0  0  0
M  END
> <id>
EN300-2008199

> <smiles>
CC1(CC2CC3(F)C1)CC(C2)(C3)C(=O)O

> <MDLNUMBER>
MFCD32199254

> <IUPAC Name>
3-fluoro-5-methyladamantane-1-carboxylic acid

> <CAS>
2377034-94-9

> <Purity>
95

> <URL>
https://www.enaminestore.com/catalog/EN300-2008199

> <ROCS_ShapeQuery>
_x1247relevant_x1083L0AP1_x1305L0BP1_

> <ROCS_TanimotoCombo>
0.827 

> <ROCS_ShapeTanimoto>
0.507 

> <ROCS_ColorTanimoto>
0.320 

> <ROCS_RefTversky>
0.428 

> <ROCS_RefColorTversky>
0.358 

> <ROCS_RefTverskyCombo>
0.786 

> <ROCS_FitTversky>
1.571 

> <ROCS_FitColorTversky>
0.752 

> <ROCS_FitTverskyCombo>
2.323 

> <ROCS_ColorScore>
-7.595

> <ROCS_Overlap>
1260.531

> <ROCS_Rank>
316                 

$$$$
untitled-dbase-99132_7
  -OEChem-06232314393D

 23 24  0     1  0  0  0  0  0999 V2000
  -13.3109   16.3395  -40.2504 C   0  0  0  0  0  0  0  0  0  0  0  0
  -10.2547   14.8054  -36.6855 C   0  0  0  0  0  0  0  0  0  0  0  0
  -12.7089   15.1485  -36.8007 C   0  0  0  0  0  0  0  0  0  0  0  0
  -11.4514   15.1987  -38.8909 C   0  0  0  0  0  0  0  0  0  0  0  0
  -13.6747   15.3022  -37.9263 C   0  0  1  0  0  0  0  0  0  0  0  0
  -12.9110   15.3677  -39.2210 C   0  0  1  0  0  0  0  0  0  0  0  0
  -13.8429   14.2302  -38.9396 C   0  0  0  0  0  0  0  0  0  0  0  0
   -8.9709   14.7047  -37.4696 C   0  0  0  0  0  0  0  0  0  0  0  0
  -11.3983   15.0312  -37.4351 N   0  0  0  0  0  0  0  0  0  0  0  0
  -12.5419   17.0467  -40.8843 O   0  0  0  0  0  0  0  0  0  0  0  0
  -10.2471   14.6882  -35.4589 O   0  0  0  0  0  0  0  0  0  0  0  0
  -14.6578   16.3489  -40.4025 O   0  0  0  0  0  0  0  0  0  0  0  0
  -13.3642   12.9587  -38.7146 F   0  0  0  0  0  0  0  0  0  0  0  0
  -15.0325   14.1032  -39.6224 F   0  0  0  0  0  0  0  0  0  0  0  0
   -9.2070   14.8603  -38.7845 F   0  0  0  0  0  0  0  0  0  0  0  0
   -8.1026   15.6558  -37.0815 F   0  0  0  0  0  0  0  0  0  0  0  0
   -8.3921   13.5047  -37.2841 F   0  0  0  0  0  0  0  0  0  0  0  0
  -12.6990   16.0298  -36.1511 H   0  0  0  0  0  0  0  0  0  0  0  0
  -12.9048   14.2591  -36.1936 H   0  0  0  0  0  0  0  0  0  0  0  0
  -11.0192   14.3197  -39.3792 H   0  0  0  0  0  0  0  0  0  0  0  0
  -10.8664   16.0851  -39.1568 H   0  0  0  0  0  0  0  0  0  0  0  0
  -14.4925   15.9797  -37.7340 H   0  0  0  0  0  0  0  0  0  0  0  0
  -14.9450   16.9930  -41.0844 H   0  0  0  0  0  0  0  0  0  0  0  0
  1  6  1  0  0  0  0
  1 10  2  0  0  0  0
  1 12  1  0  0  0  0
  2  8  1  0  0  0  0
  2  9  1  0  0  0  0
  2 11  2  0  0  0  0
  3  5  1  0  0  0  0
  3  9  1  0  0  0  0
  4  6  1  0  0  0  0
  4  9  1  0  0  0  0
  5  6  1  0  0  0  0
  5  7  1  0  0  0  0
  6  7  1  0  0  0  0
  7 13  1  0  0  0  0
  7 14  1  0  0  0  0
  8 15  1  0  0  0  0
  8 16  1  0  0  0  0
  8 17  1  0  0  0  0
  3 18  1  0  0  0  0
  3 19  1  0  0  0  0
  4 20  1  0  0  0  0
  4 21  1  0  0  0  0
  5 22  1  0  0  0  0
 12 23  1  0  0  0  0
M  END
> <id>
EN300-37101341

> <smiles>
OC(=O)C12CN(CC2C1(F)F)C(=O)C(F)(F)F

> <IUPAC Name>
6,6-difluoro-3-(2,2,2-trifluoroacetyl)-3-azabicyclo[3.1.0]hexane-1-carboxylic acid

> <CAS>
2757952-70-6

> <URL>
https://www.enaminestore.com/catalog/EN300-37101341

> <ROCS_ShapeQuery>
_x1247relevant_x1083L0AP1_x1305L0BP1_

> <ROCS_TanimotoCombo>
0.827 

> <ROCS_ShapeTanimoto>
0.529 

> <ROCS_ColorTanimoto>
0.298 

> <ROCS_RefTversky>
0.452 

> <ROCS_RefColorTversky>
0.322 

> <ROCS_RefTverskyCombo>
0.773 

> <ROCS_FitTversky>
1.479 

> <ROCS_FitColorTversky>
0.799 

> <ROCS_FitTverskyCombo>
2.278 

> <ROCS_ColorScore>
-6.806

> <ROCS_Overlap>
1332.493

> <ROCS_Rank>
317                 

$$$$
untitled-dbase-143320_5
  -OEChem-06232314393D

 24 25  0     1  0  0  0  0  0999 V2000
  -13.9618   15.8894  -38.8613 C   0  0  0  0  0  0  0  0  0  0  0  0
  -12.6222   16.2904  -39.4988 C   0  0  0  0  0  0  0  0  0  0  0  0
  -12.4788   14.0310  -38.7880 C   0  0  0  0  0  0  0  0  0  0  0  0
  -12.7858   15.2190  -36.7487 C   0  0  0  0  0  0  0  0  0  0  0  0
  -13.5768   14.6996  -37.9642 C   0  0  1  0  0  0  0  0  0  0  0  0
  -11.6290   15.3023  -38.8609 C   0  0  2  0  0  0  0  0  0  0  0  0
  -11.4616   15.6824  -37.3770 C   0  0  2  0  0  0  0  0  0  0  0  0
  -10.1040   13.4016  -37.4536 N   0  0  0  0  0  0  0  0  0  0  0  0
   -8.8691   15.6229  -37.0566 O   0  0  0  0  0  0  0  0  0  0  0  0
  -10.3471   14.6819  -35.2358 O   0  0  0  0  0  0  0  0  0  0  0  0
  -10.0593   14.9005  -36.6426 S   0  0  0  0  0  0  0  0  0  0  0  0
  -14.4117   16.7124  -38.2969 H   0  0  0  0  0  0  0  0  0  0  0  0
  -14.6700   15.5795  -39.6380 H   0  0  0  0  0  0  0  0  0  0  0  0
  -12.6660   16.1517  -40.5851 H   0  0  0  0  0  0  0  0  0  0  0  0
  -12.3667   17.3358  -39.2989 H   0  0  0  0  0  0  0  0  0  0  0  0
  -11.9907   13.2029  -38.2657 H   0  0  0  0  0  0  0  0  0  0  0  0
  -12.8244   13.6874  -39.7690 H   0  0  0  0  0  0  0  0  0  0  0  0
  -13.3055   16.0425  -36.2478 H   0  0  0  0  0  0  0  0  0  0  0  0
  -12.6378   14.4166  -36.0173 H   0  0  0  0  0  0  0  0  0  0  0  0
  -14.4214   14.0622  -37.6958 H   0  0  0  0  0  0  0  0  0  0  0  0
  -10.6936   15.2042  -39.4161 H   0  0  0  0  0  0  0  0  0  0  0  0
  -11.3067   16.7583  -37.2426 H   0  0  0  0  0  0  0  0  0  0  0  0
   -9.3750   13.2142  -38.1529 H   0  0  0  0  0  0  0  0  0  0  0  0
  -10.3818   12.5734  -36.9128 H   0  0  0  0  0  0  0  0  0  0  0  0
  1  2  1  0  0  0  0
  1  5  1  0  0  0  0
  2  6  1  6  0  0  0
  3  5  1  0  0  0  0
  3  6  1  0  0  0  0
  4  5  1  6  0  0  0
  4  7  1  0  0  0  0
  6  7  1  0  0  0  0
  7 11  1  1  0  0  0
  8 11  1  0  0  0  0
  9 11  2  0  0  0  0
 10 11  2  0  0  0  0
  1 12  1  0  0  0  0
  1 13  1  0  0  0  0
  2 14  1  0  0  0  0
  2 15  1  0  0  0  0
  3 16  1  0  0  0  0
  3 17  1  0  0  0  0
  4 18  1  0  0  0  0
  4 19  1  0  0  0  0
  5 20  1  0  0  0  0
  6 21  1  0  0  0  0
  7 22  1  0  0  0  0
  8 23  1  0  0  0  0
  8 24  1  0  0  0  0
M  END
> <id>
EN300-27734487

> <smiles>
NS(=O)(=O)[C@@H]1C[C@H]2CC[C@@H]1C2 |&1:4,6,9,r|

> <IUPAC Name>
rac-(1R,2R,4S)-bicyclo[2.2.1]heptane-2-sulfonamide

> <CAS>
2580092-45-9

> <URL>
https://www.enaminestore.com/catalog/EN300-27734487

> <ROCS_ShapeQuery>
_x1247relevant_x1083L0AP1_x1305L0BP1_

> <ROCS_TanimotoCombo>
0.826 

> <ROCS_ShapeTanimoto>
0.445 

> <ROCS_ColorTanimoto>
0.381 

> <ROCS_RefTversky>
0.370 

> <ROCS_RefColorTversky>
0.405 

> <ROCS_RefTverskyCombo>
0.776 

> <ROCS_FitTversky>
1.835 

> <ROCS_FitColorTversky>
0.864 

> <ROCS_FitTverskyCombo>
2.700 

> <ROCS_ColorScore>
-8.602

> <ROCS_Overlap>
1086.296

> <ROCS_Rank>
318                 

$$$$
untitled-dbase-16466_5
  -OEChem-06232314393D

 24 25  0     1  0  0  0  0  0999 V2000
  -13.9617   15.8900  -38.8609 C   0  0  0  0  0  0  0  0  0  0  0  0
  -12.6220   16.2904  -39.4990 C   0  0  0  0  0  0  0  0  0  0  0  0
  -12.4791   14.0310  -38.7881 C   0  0  0  0  0  0  0  0  0  0  0  0
  -12.7857   15.2188  -36.7487 C   0  0  0  0  0  0  0  0  0  0  0  0
  -13.5769   14.6998  -37.9643 C   0  0  1  0  0  0  0  0  0  0  0  0
  -11.6290   15.3021  -38.8610 C   0  0  2  0  0  0  0  0  0  0  0  0
  -11.4616   15.6823  -37.3770 C   0  0  2  0  0  0  0  0  0  0  0  0
  -10.1039   13.4015  -37.4535 N   0  0  0  0  0  0  0  0  0  0  0  0
   -8.8691   15.6229  -37.0566 O   0  0  0  0  0  0  0  0  0  0  0  0
  -10.3471   14.6819  -35.2358 O   0  0  0  0  0  0  0  0  0  0  0  0
  -10.0593   14.9005  -36.6426 S   0  0  0  0  0  0  0  0  0  0  0  0
  -14.4110   16.7130  -38.2964 H   0  0  0  0  0  0  0  0  0  0  0  0
  -14.6702   15.5805  -39.6375 H   0  0  0  0  0  0  0  0  0  0  0  0
  -12.6660   16.1514  -40.5852 H   0  0  0  0  0  0  0  0  0  0  0  0
  -12.3662   17.3357  -39.2994 H   0  0  0  0  0  0  0  0  0  0  0  0
  -11.9910   13.2028  -38.2658 H   0  0  0  0  0  0  0  0  0  0  0  0
  -12.8248   13.6875  -39.7690 H   0  0  0  0  0  0  0  0  0  0  0  0
  -13.3053   16.0421  -36.2475 H   0  0  0  0  0  0  0  0  0  0  0  0
  -12.6377   14.4161  -36.0175 H   0  0  0  0  0  0  0  0  0  0  0  0
  -14.4217   14.0626  -37.6959 H   0  0  0  0  0  0  0  0  0  0  0  0
  -10.6936   15.2038  -39.4161 H   0  0  0  0  0  0  0  0  0  0  0  0
  -11.3067   16.7582  -37.2427 H   0  0  0  0  0  0  0  0  0  0  0  0
   -9.3749   13.2141  -38.1528 H   0  0  0  0  0  0  0  0  0  0  0  0
  -10.3817   12.5733  -36.9128 H   0  0  0  0  0  0  0  0  0  0  0  0
  1  2  1  0  0  0  0
  1  5  1  0  0  0  0
  2  6  1  0  0  0  0
  3  5  1  0  0  0  0
  3  6  1  0  0  0  0
  4  5  1  0  0  0  0
  4  7  1  0  0  0  0
  6  7  1  0  0  0  0
  7 11  1  0  0  0  0
  8 11  1  0  0  0  0
  9 11  2  0  0  0  0
 10 11  2  0  0  0  0
  1 12  1  0  0  0  0
  1 13  1  0  0  0  0
  2 14  1  0  0  0  0
  2 15  1  0  0  0  0
  3 16  1  0  0  0  0
  3 17  1  0  0  0  0
  4 18  1  0  0  0  0
  4 19  1  0  0  0  0
  5 20  1  0  0  0  0
  6 21  1  0  0  0  0
  7 22  1  0  0  0  0
  8 23  1  0  0  0  0
  8 24  1  0  0  0  0
M  END
> <id>
EN300-247725

> <smiles>
NS(=O)(=O)C1CC2CCC1C2

> <MDLNUMBER>
MFCD16671914

> <IUPAC Name>
bicyclo[2.2.1]heptane-2-sulfonamide

> <CAS>
7167-09-1

> <URL>
https://www.enaminestore.com/catalog/EN300-247725

> <ROCS_ShapeQuery>
_x1247relevant_x1083L0AP1_x1305L0BP1_

> <ROCS_TanimotoCombo>
0.826 

> <ROCS_ShapeTanimoto>
0.445 

> <ROCS_ColorTanimoto>
0.381 

> <ROCS_RefTversky>
0.370 

> <ROCS_RefColorTversky>
0.405 

> <ROCS_RefTverskyCombo>
0.776 

> <ROCS_FitTversky>
1.835 

> <ROCS_FitColorTversky>
0.864 

> <ROCS_FitTverskyCombo>
2.700 

> <ROCS_ColorScore>
-8.602

> <ROCS_Overlap>
1086.289

> <ROCS_Rank>
319                 

$$$$
untitled-dbase-128224_2
  -OEChem-06232314393D

 23 25  0     1  0  0  0  0  0999 V2000
  -14.3904   15.5831  -39.8084 C   0  0  0  0  0  0  0  0  0  0  0  0
  -12.0478   15.6116  -36.8291 C   0  0  0  0  0  0  0  0  0  0  0  0
  -13.8829   16.0183  -38.4594 C   0  0  2  0  0  0  0  0  0  0  0  0
  -12.9309   15.8889  -39.5994 C   0  0  1  0  0  0  0  0  0  0  0  0
  -11.0536   15.5045  -38.0150 C   0  0  2  0  0  0  0  0  0  0  0  0
  -13.3333   15.0423  -37.4440 C   0  0  1  0  0  0  0  0  0  0  0  0
  -11.9418   14.8589  -39.0979 C   0  0  1  0  0  0  0  0  0  0  0  0
   -9.8508   14.6348  -37.6669 C   0  0  0  0  0  0  0  0  0  0  0  0
  -10.2850   13.3208  -37.3268 N   0  0  0  0  0  0  0  0  0  0  0  0
  -12.7644   13.9958  -38.2705 O   0  0  0  0  0  0  0  0  0  0  0  0
  -14.6936   14.5532  -39.9475 H   0  0  0  0  0  0  0  0  0  0  0  0
  -14.9766   16.2964  -40.3756 H   0  0  0  0  0  0  0  0  0  0  0  0
  -11.7204   14.9948  -35.9847 H   0  0  0  0  0  0  0  0  0  0  0  0
  -12.1690   16.6429  -36.4831 H   0  0  0  0  0  0  0  0  0  0  0  0
  -14.1352   16.9962  -38.0796 H   0  0  0  0  0  0  0  0  0  0  0  0
  -12.4996   16.7739  -40.0412 H   0  0  0  0  0  0  0  0  0  0  0  0
  -10.6989   16.4949  -38.3233 H   0  0  0  0  0  0  0  0  0  0  0  0
  -14.0650   14.6553  -36.7319 H   0  0  0  0  0  0  0  0  0  0  0  0
  -11.4231   14.3039  -39.8829 H   0  0  0  0  0  0  0  0  0  0  0  0
   -9.2039   14.6085  -38.5431 H   0  0  0  0  0  0  0  0  0  0  0  0
   -9.3460   15.1010  -36.8215 H   0  0  0  0  0  0  0  0  0  0  0  0
  -10.7963   12.9168  -38.0907 H   0  0  0  0  0  0  0  0  0  0  0  0
   -9.4935   12.7375  -37.1227 H   0  0  0  0  0  0  0  0  0  0  0  0
  1  3  1  1  0  0  0
  1  4  1  1  0  0  0
  2  5  1  0  0  0  0
  2  6  1  6  0  0  0
  3  4  1  0  0  0  0
  3  6  1  0  0  0  0
  4  7  1  0  0  0  0
  5  7  1  0  0  0  0
  5  8  1  1  0  0  0
  6 10  1  0  0  0  0
  7 10  1  1  0  0  0
  8  9  1  0  0  0  0
  1 11  1  0  0  0  0
  1 12  1  0  0  0  0
  2 13  1  0  0  0  0
  2 14  1  0  0  0  0
  3 15  1  0  0  0  0
  4 16  1  0  0  0  0
  5 17  1  0  0  0  0
  6 18  1  0  0  0  0
  7 19  1  0  0  0  0
  8 20  1  0  0  0  0
  8 21  1  0  0  0  0
  9 22  1  0  0  0  0
  9 23  1  0  0  0  0
M  END
> <id>
EN300-6503654

> <smiles>
NC[C@@H]1C[C@@H]2O[C@H]1[C@H]3C[C@H]32 |&1:2,4,6,7,9,r|

> <IUPAC Name>
rac-[(1R,2S,4R,5R,6R)-8-oxatricyclo[3.2.1.0,2,4]octan-6-yl]methanamine

> <CAS>
2253639-34-6

> <URL>
https://www.enaminestore.com/catalog/EN300-6503654

> <ROCS_ShapeQuery>
_x1247relevant_x1083L0AP1_x1305L0BP1_

> <ROCS_TanimotoCombo>
0.826 

> <ROCS_ShapeTanimoto>
0.421 

> <ROCS_ColorTanimoto>
0.405 

> <ROCS_RefTversky>
0.355 

> <ROCS_RefColorTversky>
0.557 

> <ROCS_RefTverskyCombo>
0.912 

> <ROCS_FitTversky>
1.785 

> <ROCS_FitColorTversky>
0.598 

> <ROCS_FitTverskyCombo>
2.383 

> <ROCS_ColorScore>
-12.122

> <ROCS_Overlap>
1041.734

> <ROCS_Rank>
320                 

$$$$
untitled-dbase-88206_2
  -OEChem-06232314393D

 23 25  0     1  0  0  0  0  0999 V2000
  -14.3904   15.5831  -39.8084 C   0  0  0  0  0  0  0  0  0  0  0  0
  -12.0478   15.6116  -36.8291 C   0  0  0  0  0  0  0  0  0  0  0  0
  -13.8829   16.0183  -38.4594 C   0  0  2  0  0  0  0  0  0  0  0  0
  -12.9309   15.8889  -39.5994 C   0  0  1  0  0  0  0  0  0  0  0  0
  -11.0536   15.5045  -38.0150 C   0  0  2  0  0  0  0  0  0  0  0  0
  -13.3333   15.0423  -37.4440 C   0  0  1  0  0  0  0  0  0  0  0  0
  -11.9418   14.8589  -39.0979 C   0  0  1  0  0  0  0  0  0  0  0  0
   -9.8508   14.6348  -37.6669 C   0  0  0  0  0  0  0  0  0  0  0  0
  -10.2850   13.3208  -37.3268 N   0  0  0  0  0  0  0  0  0  0  0  0
  -12.7644   13.9958  -38.2705 O   0  0  0  0  0  0  0  0  0  0  0  0
  -14.6936   14.5532  -39.9475 H   0  0  0  0  0  0  0  0  0  0  0  0
  -14.9766   16.2964  -40.3756 H   0  0  0  0  0  0  0  0  0  0  0  0
  -11.7204   14.9948  -35.9847 H   0  0  0  0  0  0  0  0  0  0  0  0
  -12.1690   16.6429  -36.4831 H   0  0  0  0  0  0  0  0  0  0  0  0
  -14.1352   16.9962  -38.0796 H   0  0  0  0  0  0  0  0  0  0  0  0
  -12.4996   16.7739  -40.0412 H   0  0  0  0  0  0  0  0  0  0  0  0
  -10.6989   16.4949  -38.3233 H   0  0  0  0  0  0  0  0  0  0  0  0
  -14.0650   14.6553  -36.7319 H   0  0  0  0  0  0  0  0  0  0  0  0
  -11.4231   14.3039  -39.8829 H   0  0  0  0  0  0  0  0  0  0  0  0
   -9.2039   14.6085  -38.5431 H   0  0  0  0  0  0  0  0  0  0  0  0
   -9.3460   15.1010  -36.8215 H   0  0  0  0  0  0  0  0  0  0  0  0
  -10.7963   12.9168  -38.0907 H   0  0  0  0  0  0  0  0  0  0  0  0
   -9.4935   12.7375  -37.1227 H   0  0  0  0  0  0  0  0  0  0  0  0
  1  3  1  1  0  0  0
  1  4  1  1  0  0  0
  2  5  1  0  0  0  0
  2  6  1  6  0  0  0
  3  4  1  0  0  0  0
  3  6  1  0  0  0  0
  4  7  1  0  0  0  0
  5  7  1  0  0  0  0
  5  8  1  1  0  0  0
  6 10  1  0  0  0  0
  7 10  1  1  0  0  0
  8  9  1  0  0  0  0
  1 11  1  0  0  0  0
  1 12  1  0  0  0  0
  2 13  1  0  0  0  0
  2 14  1  0  0  0  0
  3 15  1  0  0  0  0
  4 16  1  0  0  0  0
  5 17  1  0  0  0  0
  6 18  1  0  0  0  0
  7 19  1  0  0  0  0
  8 20  1  0  0  0  0
  8 21  1  0  0  0  0
  9 22  1  0  0  0  0
  9 23  1  0  0  0  0
M  END
> <id>
EN300-6503653

> <smiles>
Cl.NC[C@@H]1C[C@@H]2O[C@H]1[C@H]3C[C@H]32 |&1:3,5,7,8,10,r|

> <IUPAC Name>
rac-[(1R,2S,4R,5R,6R)-8-oxatricyclo[3.2.1.0,2,4]octan-6-yl]methanamine hydrochloride

> <CAS>
2253639-35-7

> <Purity>
95

> <URL>
https://www.enaminestore.com/catalog/EN300-6503653

> <Saltdate>
Cl

> <ROCS_ShapeQuery>
_x1247relevant_x1083L0AP1_x1305L0BP1_

> <ROCS_TanimotoCombo>
0.826 

> <ROCS_ShapeTanimoto>
0.421 

> <ROCS_ColorTanimoto>
0.405 

> <ROCS_RefTversky>
0.355 

> <ROCS_RefColorTversky>
0.557 

> <ROCS_RefTverskyCombo>
0.912 

> <ROCS_FitTversky>
1.785 

> <ROCS_FitColorTversky>
0.598 

> <ROCS_FitTverskyCombo>
2.383 

> <ROCS_ColorScore>
-12.122

> <ROCS_Overlap>
1041.734

> <ROCS_Rank>
321                 

$$$$
untitled-dbase-143393_0
  -OEChem-06232314393D

 34 36  0     1  0  0  0  0  0999 V2000
  -10.2558   16.2166  -36.6118 C   0  0  0  0  0  0  0  0  0  0  0  0
  -13.5482   15.0449  -39.7918 C   0  0  0  0  0  0  0  0  0  0  0  0
  -12.2592   16.9654  -38.8285 C   0  0  0  0  0  0  0  0  0  0  0  0
  -13.9785   15.7919  -37.4379 C   0  0  0  0  0  0  0  0  0  0  0  0
  -11.1100   14.7770  -39.2720 C   0  0  0  0  0  0  0  0  0  0  0  0
  -12.8259   13.5981  -37.8759 C   0  0  0  0  0  0  0  0  0  0  0  0
  -11.5587   15.5098  -36.8701 C   0  0  1  0  0  0  0  0  0  0  0  0
  -12.1852   15.7564  -39.7747 C   0  0  1  0  0  0  0  0  0  0  0  0
  -13.9107   14.5722  -38.3746 C   0  0  2  0  0  0  0  0  0  0  0  0
  -12.6136   16.5062  -37.4002 C   0  0  0  0  0  0  0  0  0  0  0  0
  -11.4449   14.3025  -37.8386 C   0  0  0  0  0  0  0  0  0  0  0  0
   -9.2969   18.0102  -35.4088 C   0  0  0  0  0  0  0  0  0  0  0  0
  -10.4243   13.3603  -37.3784 N   0  0  0  0  0  0  0  0  0  0  0  0
   -9.1891   15.8934  -37.1168 O   0  0  0  0  0  0  0  0  0  0  0  0
  -10.4608   17.2481  -35.7441 O   0  0  0  0  0  0  0  0  0  0  0  0
  -14.3214   15.7255  -40.1691 H   0  0  0  0  0  0  0  0  0  0  0  0
  -13.5166   14.1889  -40.4769 H   0  0  0  0  0  0  0  0  0  0  0  0
  -11.3046   17.5045  -38.8329 H   0  0  0  0  0  0  0  0  0  0  0  0
  -13.0174   17.6724  -39.1884 H   0  0  0  0  0  0  0  0  0  0  0  0
  -14.7554   16.4859  -37.7818 H   0  0  0  0  0  0  0  0  0  0  0  0
  -14.2631   15.4726  -36.4278 H   0  0  0  0  0  0  0  0  0  0  0  0
  -11.0552   13.9181  -39.9548 H   0  0  0  0  0  0  0  0  0  0  0  0
  -10.1257   15.2596  -39.3094 H   0  0  0  0  0  0  0  0  0  0  0  0
  -13.0965   13.2296  -36.8775 H   0  0  0  0  0  0  0  0  0  0  0  0
  -12.7920   12.7204  -38.5351 H   0  0  0  0  0  0  0  0  0  0  0  0
  -11.8854   15.1525  -35.8824 H   0  0  0  0  0  0  0  0  0  0  0  0
  -11.9334   16.0937  -40.7865 H   0  0  0  0  0  0  0  0  0  0  0  0
  -14.8821   14.0654  -38.3914 H   0  0  0  0  0  0  0  0  0  0  0  0
  -12.6740   17.3822  -36.7433 H   0  0  0  0  0  0  0  0  0  0  0  0
   -9.5701   18.8066  -34.7122 H   0  0  0  0  0  0  0  0  0  0  0  0
   -8.8663   18.4383  -36.3175 H   0  0  0  0  0  0  0  0  0  0  0  0
   -8.5645   17.3514  -34.9363 H   0  0  0  0  0  0  0  0  0  0  0  0
  -10.4168   12.5873  -37.9994 H   0  0  0  0  0  0  0  0  0  0  0  0
   -9.5496   13.8273  -37.3856 H   0  0  0  0  0  0  0  0  0  0  0  0
  1  7  1  0  0  0  0
  1 14  2  0  0  0  0
  1 15  1  0  0  0  0
  2  8  1  0  0  0  0
  2  9  1  0  0  0  0
  3  8  1  0  0  0  0
  3 10  1  0  0  0  0
  4  9  1  0  0  0  0
  4 10  1  0  0  0  0
  5  8  1  0  0  0  0
  5 11  1  0  0  0  0
  6  9  1  0  0  0  0
  6 11  1  0  0  0  0
  7 10  1  0  0  0  0
  7 11  1  0  0  0  0
 11 13  1  0  0  0  0
 12 15  1  0  0  0  0
  2 16  1  0  0  0  0
  2 17  1  0  0  0  0
  3 18  1  0  0  0  0
  3 19  1  0  0  0  0
  4 20  1  0  0  0  0
  4 21  1  0  0  0  0
  5 22  1  0  0  0  0
  5 23  1  0  0  0  0
  6 24  1  0  0  0  0
  6 25  1  0  0  0  0
  7 26  1  0  0  0  0
  8 27  1  0  0  0  0
  9 28  1  0  0  0  0
 10 29  1  0  0  0  0
 12 30  1  0  0  0  0
 12 31  1  0  0  0  0
 12 32  1  0  0  0  0
 13 33  1  0  0  0  0
 13 34  1  0  0  0  0
M  END
> <id>
EN300-27736060

> <smiles>
Cl.COC(=O)C1C2CC3CC(C2)CC1(N)C3

> <IUPAC Name>
methyl 1-aminoadamantane-2-carboxylate hydrochloride

> <CAS>
2613384-46-4

> <Purity>
95

> <URL>
https://www.enaminestore.com/catalog/EN300-27736060

> <Saltdate>
Cl

> <ROCS_ShapeQuery>
_x1247relevant_x1083L0AP1_x1305L0BP1_

> <ROCS_TanimotoCombo>
0.826 

> <ROCS_ShapeTanimoto>
0.463 

> <ROCS_ColorTanimoto>
0.363 

> <ROCS_RefTversky>
0.402 

> <ROCS_RefColorTversky>
0.393 

> <ROCS_RefTverskyCombo>
0.795 

> <ROCS_FitTversky>
1.489 

> <ROCS_FitColorTversky>
0.827 

> <ROCS_FitTverskyCombo>
2.316 

> <ROCS_ColorScore>
-8.337

> <ROCS_Overlap>
1184.080

> <ROCS_Rank>
322                 

$$$$
untitled-dbase-144502_0
  -OEChem-06232314393D

 34 36  0     1  0  0  0  0  0999 V2000
  -10.2558   16.2166  -36.6118 C   0  0  0  0  0  0  0  0  0  0  0  0
  -13.5482   15.0449  -39.7918 C   0  0  0  0  0  0  0  0  0  0  0  0
  -12.2592   16.9654  -38.8285 C   0  0  0  0  0  0  0  0  0  0  0  0
  -13.9785   15.7919  -37.4379 C   0  0  0  0  0  0  0  0  0  0  0  0
  -11.1100   14.7770  -39.2720 C   0  0  0  0  0  0  0  0  0  0  0  0
  -12.8259   13.5981  -37.8759 C   0  0  0  0  0  0  0  0  0  0  0  0
  -11.5587   15.5098  -36.8701 C   0  0  1  0  0  0  0  0  0  0  0  0
  -12.1852   15.7564  -39.7747 C   0  0  1  0  0  0  0  0  0  0  0  0
  -13.9107   14.5722  -38.3746 C   0  0  2  0  0  0  0  0  0  0  0  0
  -12.6136   16.5062  -37.4002 C   0  0  0  0  0  0  0  0  0  0  0  0
  -11.4449   14.3025  -37.8386 C   0  0  0  0  0  0  0  0  0  0  0  0
   -9.2969   18.0102  -35.4088 C   0  0  0  0  0  0  0  0  0  0  0  0
  -10.4243   13.3603  -37.3784 N   0  0  0  0  0  0  0  0  0  0  0  0
   -9.1891   15.8934  -37.1168 O   0  0  0  0  0  0  0  0  0  0  0  0
  -10.4608   17.2481  -35.7441 O   0  0  0  0  0  0  0  0  0  0  0  0
  -14.3214   15.7255  -40.1691 H   0  0  0  0  0  0  0  0  0  0  0  0
  -13.5166   14.1889  -40.4769 H   0  0  0  0  0  0  0  0  0  0  0  0
  -11.3046   17.5045  -38.8329 H   0  0  0  0  0  0  0  0  0  0  0  0
  -13.0174   17.6724  -39.1884 H   0  0  0  0  0  0  0  0  0  0  0  0
  -14.7554   16.4859  -37.7818 H   0  0  0  0  0  0  0  0  0  0  0  0
  -14.2631   15.4726  -36.4278 H   0  0  0  0  0  0  0  0  0  0  0  0
  -11.0552   13.9181  -39.9548 H   0  0  0  0  0  0  0  0  0  0  0  0
  -10.1257   15.2596  -39.3094 H   0  0  0  0  0  0  0  0  0  0  0  0
  -13.0965   13.2296  -36.8775 H   0  0  0  0  0  0  0  0  0  0  0  0
  -12.7920   12.7204  -38.5351 H   0  0  0  0  0  0  0  0  0  0  0  0
  -11.8854   15.1525  -35.8824 H   0  0  0  0  0  0  0  0  0  0  0  0
  -11.9334   16.0937  -40.7865 H   0  0  0  0  0  0  0  0  0  0  0  0
  -14.8821   14.0654  -38.3914 H   0  0  0  0  0  0  0  0  0  0  0  0
  -12.6740   17.3822  -36.7433 H   0  0  0  0  0  0  0  0  0  0  0  0
   -9.5701   18.8066  -34.7122 H   0  0  0  0  0  0  0  0  0  0  0  0
   -8.8663   18.4383  -36.3175 H   0  0  0  0  0  0  0  0  0  0  0  0
   -8.5645   17.3514  -34.9363 H   0  0  0  0  0  0  0  0  0  0  0  0
  -10.4168   12.5873  -37.9994 H   0  0  0  0  0  0  0  0  0  0  0  0
   -9.5496   13.8273  -37.3856 H   0  0  0  0  0  0  0  0  0  0  0  0
  1  7  1  0  0  0  0
  1 14  2  0  0  0  0
  1 15  1  0  0  0  0
  2  8  1  0  0  0  0
  2  9  1  0  0  0  0
  3  8  1  0  0  0  0
  3 10  1  0  0  0  0
  4  9  1  0  0  0  0
  4 10  1  0  0  0  0
  5  8  1  0  0  0  0
  5 11  1  0  0  0  0
  6  9  1  0  0  0  0
  6 11  1  0  0  0  0
  7 10  1  0  0  0  0
  7 11  1  0  0  0  0
 11 13  1  0  0  0  0
 12 15  1  0  0  0  0
  2 16  1  0  0  0  0
  2 17  1  0  0  0  0
  3 18  1  0  0  0  0
  3 19  1  0  0  0  0
  4 20  1  0  0  0  0
  4 21  1  0  0  0  0
  5 22  1  0  0  0  0
  5 23  1  0  0  0  0
  6 24  1  0  0  0  0
  6 25  1  0  0  0  0
  7 26  1  0  0  0  0
  8 27  1  0  0  0  0
  9 28  1  0  0  0  0
 10 29  1  0  0  0  0
 12 30  1  0  0  0  0
 12 31  1  0  0  0  0
 12 32  1  0  0  0  0
 13 33  1  0  0  0  0
 13 34  1  0  0  0  0
M  END
> <id>
EN300-26573234

> <smiles>
COC(=O)C1C2CC3CC(C2)CC1(N)C3

> <MDLNUMBER>
MFCD33020514

> <IUPAC Name>
methyl 1-aminoadamantane-2-carboxylate

> <CAS>
2580224-44-6

> <URL>
https://www.enaminestore.com/catalog/EN300-26573234

> <ROCS_ShapeQuery>
_x1247relevant_x1083L0AP1_x1305L0BP1_

> <ROCS_TanimotoCombo>
0.826 

> <ROCS_ShapeTanimoto>
0.463 

> <ROCS_ColorTanimoto>
0.363 

> <ROCS_RefTversky>
0.402 

> <ROCS_RefColorTversky>
0.393 

> <ROCS_RefTverskyCombo>
0.795 

> <ROCS_FitTversky>
1.489 

> <ROCS_FitColorTversky>
0.827 

> <ROCS_FitTverskyCombo>
2.316 

> <ROCS_ColorScore>
-8.337

> <ROCS_Overlap>
1184.080

> <ROCS_Rank>
323                 

$$$$
untitled-dbase-53480_3
  -OEChem-06232314393D

 36 38  0     1  0  0  0  0  0999 V2000
  -13.8458   15.8424  -39.5806 C   0  0  0  0  0  0  0  0  0  0  0  0
  -13.7113   15.1850  -37.1672 C   0  0  0  0  0  0  0  0  0  0  0  0
  -13.0523   14.5842  -39.9573 C   0  0  0  0  0  0  0  0  0  0  0  0
  -12.9344   13.9260  -37.5738 C   0  0  0  0  0  0  0  0  0  0  0  0
   -9.7802   13.6159  -37.3261 C   0  0  0  0  0  0  0  0  0  0  0  0
  -11.9498   16.6596  -38.1611 C   0  0  0  0  0  0  0  0  0  0  0  0
   -9.2865   13.4997  -35.8962 C   0  0  0  0  0  0  0  0  0  0  0  0
  -10.6339   15.4040  -36.0439 C   0  0  0  0  0  0  0  0  0  0  0  0
  -13.4538   16.3202  -38.1726 C   0  0  0  0  0  0  0  0  0  0  0  0
  -12.0715   14.2170  -38.8198 C   0  0  0  0  0  0  0  0  0  0  0  0
  -11.1066   15.4124  -38.5414 C   0  0  2  0  0  0  0  0  0  0  0  0
  -10.1152   15.0890  -37.4373 C   0  0  2  0  0  0  0  0  0  0  0  0
  -10.2882   15.7176  -39.7250 N   0  0  0  0  0  0  0  0  0  0  0  0
   -9.9265   14.5367  -35.1403 O   0  0  0  0  0  0  0  0  0  0  0  0
   -8.9262   15.8377  -37.6894 O   0  0  0  0  0  0  0  0  0  0  0  0
  -13.6542   16.6343  -40.3147 H   0  0  0  0  0  0  0  0  0  0  0  0
  -14.9205   15.6290  -39.6228 H   0  0  0  0  0  0  0  0  0  0  0  0
  -14.7831   14.9584  -37.1181 H   0  0  0  0  0  0  0  0  0  0  0  0
  -13.4102   15.4979  -36.1603 H   0  0  0  0  0  0  0  0  0  0  0  0
  -13.7477   13.7532  -40.1307 H   0  0  0  0  0  0  0  0  0  0  0  0
  -12.5293   14.7344  -40.9080 H   0  0  0  0  0  0  0  0  0  0  0  0
  -12.3230   13.5703  -36.7380 H   0  0  0  0  0  0  0  0  0  0  0  0
  -13.6411   13.1151  -37.7914 H   0  0  0  0  0  0  0  0  0  0  0  0
   -9.0245   13.2739  -38.0420 H   0  0  0  0  0  0  0  0  0  0  0  0
  -10.6792   12.9977  -37.4500 H   0  0  0  0  0  0  0  0  0  0  0  0
  -11.7691   17.4914  -38.8551 H   0  0  0  0  0  0  0  0  0  0  0  0
  -11.6680   17.0371  -37.1698 H   0  0  0  0  0  0  0  0  0  0  0  0
   -9.5159   12.5262  -35.4534 H   0  0  0  0  0  0  0  0  0  0  0  0
   -8.2052   13.6624  -35.8355 H   0  0  0  0  0  0  0  0  0  0  0  0
  -10.4537   16.4413  -35.7406 H   0  0  0  0  0  0  0  0  0  0  0  0
  -11.7026   15.1820  -35.9360 H   0  0  0  0  0  0  0  0  0  0  0  0
  -14.0381   17.2054  -37.8985 H   0  0  0  0  0  0  0  0  0  0  0  0
  -11.5093   13.3166  -39.0956 H   0  0  0  0  0  0  0  0  0  0  0  0
  -10.9036   15.9560  -40.4619 H   0  0  0  0  0  0  0  0  0  0  0  0
   -9.6966   16.4756  -39.4926 H   0  0  0  0  0  0  0  0  0  0  0  0
   -8.5586   15.5060  -38.5244 H   0  0  0  0  0  0  0  0  0  0  0  0
  1  3  1  0  0  0  0
  1  9  1  0  0  0  0
  2  4  1  0  0  0  0
  2  9  1  0  0  0  0
  3 10  1  0  0  0  0
  4 10  1  0  0  0  0
  5  7  1  0  0  0  0
  5 12  1  0  0  0  0
  6  9  1  0  0  0  0
  6 11  1  0  0  0  0
  7 14  1  0  0  0  0
  8 12  1  0  0  0  0
  8 14  1  0  0  0  0
 10 11  1  0  0  0  0
 11 12  1  0  0  0  0
 11 13  1  0  0  0  0
 12 15  1  0  0  0  0
  1 16  1  0  0  0  0
  1 17  1  0  0  0  0
  2 18  1  0  0  0  0
  2 19  1  0  0  0  0
  3 20  1  0  0  0  0
  3 21  1  0  0  0  0
  4 22  1  0  0  0  0
  4 23  1  0  0  0  0
  5 24  1  0  0  0  0
  5 25  1  0  0  0  0
  6 26  1  0  0  0  0
  6 27  1  0  0  0  0
  7 28  1  0  0  0  0
  7 29  1  0  0  0  0
  8 30  1  0  0  0  0
  8 31  1  0  0  0  0
  9 32  1  0  0  0  0
 10 33  1  0  0  0  0
 13 34  1  0  0  0  0
 13 35  1  0  0  0  0
 15 36  1  0  0  0  0
M  END
> <id>
EN300-1646295

> <smiles>
NC1(CC2CCC1CC2)C3(O)CCOC3

> <IUPAC Name>
3-{2-aminobicyclo[2.2.2]octan-2-yl}oxolan-3-ol

> <CAS>
2171760-51-1

> <URL>
https://www.enaminestore.com/catalog/EN300-1646295

> <ROCS_ShapeQuery>
_x1247relevant_x1083L0AP1_x1305L0BP1_

> <ROCS_TanimotoCombo>
0.826 

> <ROCS_ShapeTanimoto>
0.510 

> <ROCS_ColorTanimoto>
0.316 

> <ROCS_RefTversky>
0.429 

> <ROCS_RefColorTversky>
0.380 

> <ROCS_RefTverskyCombo>
0.809 

> <ROCS_FitTversky>
1.591 

> <ROCS_FitColorTversky>
0.651 

> <ROCS_FitTverskyCombo>
2.242 

> <ROCS_ColorScore>
-8.118

> <ROCS_Overlap>
1263.316

> <ROCS_Rank>
324                 

$$$$
untitled-dbase-80866_1
  -OEChem-06232314393D

 26 29  0     1  0  0  0  0  0999 V2000
  -11.1588   15.7042  -39.2902 C   0  0  0  0  0  0  0  0  0  0  0  0
   -9.7892   14.8088  -37.2741 C   0  0  0  0  0  0  0  0  0  0  0  0
  -13.2387   14.6030  -39.8054 C   0  0  0  0  0  0  0  0  0  0  0  0
  -14.3768   15.4229  -37.9206 C   0  0  0  0  0  0  0  0  0  0  0  0
  -12.6268   15.9969  -39.5328 C   0  0  1  0  0  0  0  0  0  0  0  0
  -13.5867   14.1725  -38.3688 C   0  0  2  0  0  0  0  0  0  0  0  0
  -13.1808   16.3651  -38.0970 C   0  0  2  0  0  0  0  0  0  0  0  0
  -12.3084   14.2462  -37.4988 C   0  0  2  0  0  0  0  0  0  0  0  0
  -12.1830   15.6950  -37.1707 C   0  0  1  0  0  0  0  0  0  0  0  0
  -11.0695   15.0774  -37.9377 C   0  0  2  0  0  0  0  0  0  0  0  0
   -8.4619   13.0674  -36.3854 C   0  0  0  0  0  0  0  0  0  0  0  0
  -10.2229   15.8651  -40.0524 O   0  0  0  0  0  0  0  0  0  0  0  0
   -8.9692   15.6721  -36.9920 O   0  0  0  0  0  0  0  0  0  0  0  0
   -9.6724   13.4720  -37.0329 O   0  0  0  0  0  0  0  0  0  0  0  0
  -14.1414   14.6860  -40.4212 H   0  0  0  0  0  0  0  0  0  0  0  0
  -12.5458   13.9071  -40.2908 H   0  0  0  0  0  0  0  0  0  0  0  0
  -15.2225   15.6662  -38.5714 H   0  0  0  0  0  0  0  0  0  0  0  0
  -14.7120   15.3535  -36.8798 H   0  0  0  0  0  0  0  0  0  0  0  0
  -12.8065   16.7420  -40.3079 H   0  0  0  0  0  0  0  0  0  0  0  0
  -14.1323   13.2304  -38.2916 H   0  0  0  0  0  0  0  0  0  0  0  0
  -13.3452   17.4270  -37.9104 H   0  0  0  0  0  0  0  0  0  0  0  0
  -12.2556   13.5352  -36.6887 H   0  0  0  0  0  0  0  0  0  0  0  0
  -12.1183   16.0226  -36.1496 H   0  0  0  0  0  0  0  0  0  0  0  0
   -8.4699   11.9844  -36.2402 H   0  0  0  0  0  0  0  0  0  0  0  0
   -8.3766   13.5744  -35.4210 H   0  0  0  0  0  0  0  0  0  0  0  0
   -7.6127   13.3420  -37.0156 H   0  0  0  0  0  0  0  0  0  0  0  0
  1  5  1  0  0  0  0
  1 10  1  0  0  0  0
  1 12  2  0  0  0  0
  2 10  1  0  0  0  0
  2 13  2  0  0  0  0
  2 14  1  0  0  0  0
  3  5  1  0  0  0  0
  3  6  1  0  0  0  0
  4  6  1  0  0  0  0
  4  7  1  0  0  0  0
  5  7  1  0  0  0  0
  6  8  1  0  0  0  0
  7  9  1  0  0  0  0
  8  9  1  0  0  0  0
  8 10  1  0  0  0  0
  9 10  1  0  0  0  0
 11 14  1  0  0  0  0
  3 15  1  0  0  0  0
  3 16  1  0  0  0  0
  4 17  1  0  0  0  0
  4 18  1  0  0  0  0
  5 19  1  0  0  0  0
  6 20  1  0  0  0  0
  7 21  1  0  0  0  0
  8 22  1  0  0  0  0
  9 23  1  0  0  0  0
 11 24  1  0  0  0  0
 11 25  1  0  0  0  0
 11 26  1  0  0  0  0
M  END
> <id>
EN300-7536983

> <smiles>
COC(=O)C12C3C2C4CC3CC4C1=O

> <MDLNUMBER>
MFCD32269188

> <IUPAC Name>
methyl 5-oxotetracyclo[4.3.0.0^{2,4}.0^{3,8}]nonane-4-carboxylate

> <CAS>
123005-01-6

> <Purity>
95

> <URL>
https://www.enaminestore.com/catalog/EN300-7536983

> <ROCS_ShapeQuery>
_x1247relevant_x1083L0AP1_x1305L0BP1_

> <ROCS_TanimotoCombo>
0.826 

> <ROCS_ShapeTanimoto>
0.530 

> <ROCS_ColorTanimoto>
0.296 

> <ROCS_RefTversky>
0.439 

> <ROCS_RefColorTversky>
0.807 

> <ROCS_RefTverskyCombo>
1.246 

> <ROCS_FitTversky>
1.646 

> <ROCS_FitColorTversky>
0.318 

> <ROCS_FitTverskyCombo>
1.964 

> <ROCS_ColorScore>
-19.273

> <ROCS_Overlap>
1292.453

> <ROCS_Rank>
325                 

$$$$
untitled-dbase-90301_2
  -OEChem-06232314393D

 35 37  0     1  0  0  0  0  0999 V2000
   -9.9848   15.2300  -36.6036 C   0  0  0  0  0  0  0  0  0  0  0  0
  -12.3410   16.0407  -36.7086 C   0  0  0  0  0  0  0  0  0  0  0  0
  -11.7127   13.8086  -37.6754 C   0  0  0  0  0  0  0  0  0  0  0  0
  -10.9484   15.9217  -38.7943 C   0  0  0  0  0  0  0  0  0  0  0  0
  -14.0935   14.6075  -37.8006 C   0  0  0  0  0  0  0  0  0  0  0  0
  -13.3210   16.7204  -38.9194 C   0  0  0  0  0  0  0  0  0  0  0  0
  -12.6948   14.4926  -39.8843 C   0  0  0  0  0  0  0  0  0  0  0  0
  -11.2337   15.2541  -37.4378 C   0  0  0  0  0  0  0  0  0  0  0  0
  -13.6349   16.0658  -37.5561 C   0  0  2  0  0  0  0  0  0  0  0  0
  -12.9976   13.7995  -38.5373 C   0  0  1  0  0  0  0  0  0  0  0  0
  -12.2241   15.9311  -39.6424 C   0  0  0  0  0  0  0  0  0  0  0  0
  -14.7300   16.8519  -36.8300 C   0  0  0  0  0  0  0  0  0  0  0  0
  -13.4674   12.3617  -38.7746 C   0  0  0  0  0  0  0  0  0  0  0  0
   -8.9022   15.6806  -36.9476 O   0  0  0  0  0  0  0  0  0  0  0  0
  -10.2187   14.6345  -35.4086 O   0  0  0  0  0  0  0  0  0  0  0  0
  -11.9624   16.5214  -40.8355 F   0  0  0  0  0  0  0  0  0  0  0  0
  -12.5420   15.5887  -35.7276 H   0  0  0  0  0  0  0  0  0  0  0  0
  -12.0010   17.0656  -36.5057 H   0  0  0  0  0  0  0  0  0  0  0  0
  -10.9220   13.2271  -38.1694 H   0  0  0  0  0  0  0  0  0  0  0  0
  -11.8984   13.3107  -36.7137 H   0  0  0  0  0  0  0  0  0  0  0  0
  -10.5814   16.9475  -38.6566 H   0  0  0  0  0  0  0  0  0  0  0  0
  -10.1475   15.3965  -39.3314 H   0  0  0  0  0  0  0  0  0  0  0  0
  -14.3315   14.1258  -36.8427 H   0  0  0  0  0  0  0  0  0  0  0  0
  -15.0201   14.6023  -38.3905 H   0  0  0  0  0  0  0  0  0  0  0  0
  -14.2203   16.7630  -39.5476 H   0  0  0  0  0  0  0  0  0  0  0  0
  -12.9997   17.7617  -38.7867 H   0  0  0  0  0  0  0  0  0  0  0  0
  -11.9261   13.9415  -40.4416 H   0  0  0  0  0  0  0  0  0  0  0  0
  -13.5840   14.4984  -40.5281 H   0  0  0  0  0  0  0  0  0  0  0  0
  -15.6339   16.8627  -37.4346 H   0  0  0  0  0  0  0  0  0  0  0  0
  -14.3967   17.8735  -36.6632 H   0  0  0  0  0  0  0  0  0  0  0  0
  -14.9431   16.3821  -35.8727 H   0  0  0  0  0  0  0  0  0  0  0  0
  -14.3702   12.3678  -39.3808 H   0  0  0  0  0  0  0  0  0  0  0  0
  -13.6782   11.8842  -37.8205 H   0  0  0  0  0  0  0  0  0  0  0  0
  -12.6903   11.8042  -39.2921 H   0  0  0  0  0  0  0  0  0  0  0  0
   -9.4135   14.6072  -34.8490 H   0  0  0  0  0  0  0  0  0  0  0  0
  1  8  1  0  0  0  0
  1 14  2  0  0  0  0
  1 15  1  0  0  0  0
  2  8  1  0  0  0  0
  2  9  1  0  0  0  0
  3  8  1  0  0  0  0
  3 10  1  0  0  0  0
  4  8  1  0  0  0  0
  4 11  1  0  0  0  0
  5  9  1  0  0  0  0
  5 10  1  0  0  0  0
  6  9  1  0  0  0  0
  6 11  1  0  0  0  0
  7 10  1  0  0  0  0
  7 11  1  0  0  0  0
  9 12  1  0  0  0  0
 10 13  1  0  0  0  0
 11 16  1  0  0  0  0
  2 17  1  0  0  0  0
  2 18  1  0  0  0  0
  3 19  1  0  0  0  0
  3 20  1  0  0  0  0
  4 21  1  0  0  0  0
  4 22  1  0  0  0  0
  5 23  1  0  0  0  0
  5 24  1  0  0  0  0
  6 25  1  0  0  0  0
  6 26  1  0  0  0  0
  7 27  1  0  0  0  0
  7 28  1  0  0  0  0
 12 29  1  0  0  0  0
 12 30  1  0  0  0  0
 12 31  1  0  0  0  0
 13 32  1  0  0  0  0
 13 33  1  0  0  0  0
 13 34  1  0  0  0  0
 15 35  1  0  0  0  0
M  END
> <id>
EN300-270109

> <smiles>
CC1(CC2(C)CC3(F)C1)CC(C2)(C3)C(=O)O

> <IUPAC Name>
3-fluoro-5,7-dimethyladamantane-1-carboxylic acid

> <CAS>
1158076-81-3

> <Purity>
95

> <URL>
https://www.enaminestore.com/catalog/EN300-270109

> <MP>
118-120

> <ROCS_ShapeQuery>
_x1247relevant_x1083L0AP1_x1305L0BP1_

> <ROCS_TanimotoCombo>
0.826 

> <ROCS_ShapeTanimoto>
0.506 

> <ROCS_ColorTanimoto>
0.320 

> <ROCS_RefTversky>
0.432 

> <ROCS_RefColorTversky>
0.357 

> <ROCS_RefTverskyCombo>
0.790 

> <ROCS_FitTversky>
1.510 

> <ROCS_FitColorTversky>
0.752 

> <ROCS_FitTverskyCombo>
2.262 

> <ROCS_ColorScore>
-7.590

> <ROCS_Overlap>
1274.253

> <ROCS_Rank>
326                 

$$$$
untitled-dbase-50491_2
  -OEChem-06232314393D

 29 31  0     1  0  0  0  0  0999 V2000
  -14.0993   15.7628  -39.1441 C   0  0  0  0  0  0  0  0  0  0  0  0
  -13.1089   14.9781  -40.0039 C   0  0  0  0  0  0  0  0  0  0  0  0
  -12.2549   16.5106  -37.6053 C   0  0  0  0  0  0  0  0  0  0  0  0
   -9.4179   13.9159  -38.0282 C   0  0  0  0  0  0  0  0  0  0  0  0
  -10.5739   14.3667  -36.3516 C   0  0  0  0  0  0  0  0  0  0  0  0
  -13.4926   15.6199  -37.7498 C   0  0  2  0  0  0  0  0  0  0  0  0
  -12.0467   14.5683  -38.9810 C   0  0  1  0  0  0  0  0  0  0  0  0
  -11.2063   15.7496  -38.4462 C   0  0  2  0  0  0  0  0  0  0  0  0
  -10.0959   15.2194  -37.5485 C   0  0  0  0  0  0  0  0  0  0  0  0
  -10.2974   13.1441  -37.1296 N   0  0  0  0  0  0  0  0  0  0  0  0
  -10.6089   16.5836  -39.4815 N   0  0  0  0  0  0  0  0  0  0  0  0
  -12.8977   14.3045  -37.8330 O   0  0  0  0  0  0  0  0  0  0  0  0
   -9.1943   16.2920  -37.2057 O   0  0  0  0  0  0  0  0  0  0  0  0
  -14.2090   16.8050  -39.4579 H   0  0  0  0  0  0  0  0  0  0  0  0
  -15.0836   15.2836  -39.1903 H   0  0  0  0  0  0  0  0  0  0  0  0
  -13.6089   14.0872  -40.4025 H   0  0  0  0  0  0  0  0  0  0  0  0
  -12.7210   15.5485  -40.8512 H   0  0  0  0  0  0  0  0  0  0  0  0
  -12.4530   17.5312  -37.9511 H   0  0  0  0  0  0  0  0  0  0  0  0
  -11.9504   16.5708  -36.5538 H   0  0  0  0  0  0  0  0  0  0  0  0
   -9.5254   13.6714  -39.0891 H   0  0  0  0  0  0  0  0  0  0  0  0
   -8.3566   13.8426  -37.7643 H   0  0  0  0  0  0  0  0  0  0  0  0
   -9.9473   14.4631  -35.4577 H   0  0  0  0  0  0  0  0  0  0  0  0
  -11.6193   14.4888  -36.0533 H   0  0  0  0  0  0  0  0  0  0  0  0
  -14.2102   15.7052  -36.9309 H   0  0  0  0  0  0  0  0  0  0  0  0
  -11.4731   13.6821  -39.2658 H   0  0  0  0  0  0  0  0  0  0  0  0
  -11.1244   12.7764  -37.6010 H   0  0  0  0  0  0  0  0  0  0  0  0
  -11.3313   16.8978  -40.0867 H   0  0  0  0  0  0  0  0  0  0  0  0
  -10.1616   17.3547  -39.0428 H   0  0  0  0  0  0  0  0  0  0  0  0
   -8.6947   16.4823  -38.0102 H   0  0  0  0  0  0  0  0  0  0  0  0
  1  2  1  0  0  0  0
  1  6  1  0  0  0  0
  2  7  1  0  0  0  0
  3  6  1  0  0  0  0
  3  8  1  0  0  0  0
  4  9  1  0  0  0  0
  4 10  1  0  0  0  0
  5  9  1  0  0  0  0
  5 10  1  0  0  0  0
  6 12  1  0  0  0  0
  7  8  1  0  0  0  0
  7 12  1  0  0  0  0
  8  9  1  0  0  0  0
  8 11  1  0  0  0  0
  9 13  1  0  0  0  0
  1 14  1  0  0  0  0
  1 15  1  0  0  0  0
  2 16  1  0  0  0  0
  2 17  1  0  0  0  0
  3 18  1  0  0  0  0
  3 19  1  0  0  0  0
  4 20  1  0  0  0  0
  4 21  1  0  0  0  0
  5 22  1  0  0  0  0
  5 23  1  0  0  0  0
  6 24  1  0  0  0  0
  7 25  1  0  0  0  0
 10 26  1  0  0  0  0
 11 27  1  0  0  0  0
 11 28  1  0  0  0  0
 13 29  1  0  0  0  0
M  END
> <id>
EN300-1647183

> <smiles>
NC1(CC2CCC1O2)C3(O)CNC3

> <IUPAC Name>
3-{2-amino-7-oxabicyclo[2.2.1]heptan-2-yl}azetidin-3-ol

> <CAS>
2171519-08-5

> <URL>
https://www.enaminestore.com/catalog/EN300-1647183

> <ROCS_ShapeQuery>
_x1247relevant_x1083L0AP1_x1305L0BP1_

> <ROCS_TanimotoCombo>
0.826 

> <ROCS_ShapeTanimoto>
0.484 

> <ROCS_ColorTanimoto>
0.342 

> <ROCS_RefTversky>
0.406 

> <ROCS_RefColorTversky>
0.429 

> <ROCS_RefTverskyCombo>
0.835 

> <ROCS_FitTversky>
1.659 

> <ROCS_FitColorTversky>
0.626 

> <ROCS_FitTverskyCombo>
2.286 

> <ROCS_ColorScore>
-9.213

> <ROCS_Overlap>
1194.595

> <ROCS_Rank>
327                 

$$$$
untitled-dbase-132108_0
  -OEChem-06232314393D

 40 42  0     1  0  0  0  0  0999 V2000
  -12.4175   16.6917  -39.2655 C   0  0  0  0  0  0  0  0  0  0  0  0
  -14.3497   15.0760  -39.2468 C   0  0  0  0  0  0  0  0  0  0  0  0
  -12.2108   14.1757  -39.6029 C   0  0  0  0  0  0  0  0  0  0  0  0
  -13.5317   16.0043  -37.1043 C   0  0  0  0  0  0  0  0  0  0  0  0
  -11.0524   15.7285  -37.3207 C   0  0  0  0  0  0  0  0  0  0  0  0
  -13.0261   15.4286  -39.9194 C   0  0  2  0  0  0  0  0  0  0  0  0
  -12.2615   16.6017  -37.7219 C   0  0  1  0  0  0  0  0  0  0  0  0
  -13.8593   14.6964  -37.8480 C   0  0  2  0  0  0  0  0  0  0  0  0
  -12.5671   13.8598  -38.1314 C   0  0  2  0  0  0  0  0  0  0  0  0
  -11.4280   14.2408  -37.1712 C   0  0  1  0  0  0  0  0  0  0  0  0
   -8.7316   12.0395  -35.9780 C   0  0  0  0  0  0  0  0  0  0  0  0
   -8.4427   14.5258  -36.1308 C   0  0  0  0  0  0  0  0  0  0  0  0
  -10.4016   13.5618  -34.8971 C   0  0  0  0  0  0  0  0  0  0  0  0
   -9.4620   13.3823  -36.0950 C   0  0  0  0  0  0  0  0  0  0  0  0
  -10.2403   13.4007  -37.3235 N   0  0  0  0  0  0  0  0  0  0  0  0
  -11.4499   16.9197  -39.7282 H   0  0  0  0  0  0  0  0  0  0  0  0
  -13.0764   17.5404  -39.4920 H   0  0  0  0  0  0  0  0  0  0  0  0
  -15.0626   15.9068  -39.2477 H   0  0  0  0  0  0  0  0  0  0  0  0
  -14.8266   14.2191  -39.7383 H   0  0  0  0  0  0  0  0  0  0  0  0
  -12.5487   13.3474  -40.2391 H   0  0  0  0  0  0  0  0  0  0  0  0
  -11.1438   14.3137  -39.7982 H   0  0  0  0  0  0  0  0  0  0  0  0
  -13.3877   15.8150  -36.0336 H   0  0  0  0  0  0  0  0  0  0  0  0
  -14.3656   16.7123  -37.1842 H   0  0  0  0  0  0  0  0  0  0  0  0
  -10.2380   15.8712  -38.0424 H   0  0  0  0  0  0  0  0  0  0  0  0
  -10.6585   16.0793  -36.3572 H   0  0  0  0  0  0  0  0  0  0  0  0
  -13.1406   15.5755  -40.9977 H   0  0  0  0  0  0  0  0  0  0  0  0
  -12.0940   17.6140  -37.3349 H   0  0  0  0  0  0  0  0  0  0  0  0
  -14.6118   14.1234  -37.2975 H   0  0  0  0  0  0  0  0  0  0  0  0
  -12.7957   12.7905  -38.0374 H   0  0  0  0  0  0  0  0  0  0  0  0
  -11.7865   14.0783  -36.1464 H   0  0  0  0  0  0  0  0  0  0  0  0
   -9.4407   11.2039  -35.9505 H   0  0  0  0  0  0  0  0  0  0  0  0
   -8.0548   11.8785  -36.8244 H   0  0  0  0  0  0  0  0  0  0  0  0
   -8.1385   11.9913  -35.0574 H   0  0  0  0  0  0  0  0  0  0  0  0
   -8.9421   15.4981  -36.2143 H   0  0  0  0  0  0  0  0  0  0  0  0
   -7.7724   14.4311  -36.9930 H   0  0  0  0  0  0  0  0  0  0  0  0
   -7.8268   14.5398  -35.2247 H   0  0  0  0  0  0  0  0  0  0  0  0
  -10.9379   14.5161  -34.9553 H   0  0  0  0  0  0  0  0  0  0  0  0
  -11.1454   12.7589  -34.8496 H   0  0  0  0  0  0  0  0  0  0  0  0
   -9.8443   13.5606  -33.9530 H   0  0  0  0  0  0  0  0  0  0  0  0
  -10.5339   12.4539  -37.5537 H   0  0  0  0  0  0  0  0  0  0  0  0
  1  6  1  0  0  0  0
  1  7  1  0  0  0  0
  2  6  1  0  0  0  0
  2  8  1  0  0  0  0
  3  6  1  0  0  0  0
  3  9  1  0  0  0  0
  4  7  1  0  0  0  0
  4  8  1  0  0  0  0
  5  7  1  0  0  0  0
  5 10  1  0  0  0  0
  8  9  1  0  0  0  0
  9 10  1  0  0  0  0
 10 15  1  0  0  0  0
 11 14  1  0  0  0  0
 12 14  1  0  0  0  0
 13 14  1  0  0  0  0
 14 15  1  0  0  0  0
  1 16  1  0  0  0  0
  1 17  1  0  0  0  0
  2 18  1  0  0  0  0
  2 19  1  0  0  0  0
  3 20  1  0  0  0  0
  3 21  1  0  0  0  0
  4 22  1  0  0  0  0
  4 23  1  0  0  0  0
  5 24  1  0  0  0  0
  5 25  1  0  0  0  0
  6 26  1  0  0  0  0
  7 27  1  0  0  0  0
  8 28  1  0  0  0  0
  9 29  1  0  0  0  0
 10 30  1  0  0  0  0
 11 31  1  0  0  0  0
 11 32  1  0  0  0  0
 11 33  1  0  0  0  0
 12 34  1  0  0  0  0
 12 35  1  0  0  0  0
 12 36  1  0  0  0  0
 13 37  1  0  0  0  0
 13 38  1  0  0  0  0
 13 39  1  0  0  0  0
 15 40  1  0  0  0  0
M  END
> <id>
EN300-372246

> <smiles>
CC(C)(C)NC1CC2CC3CC(C2)C1C3

> <MDLNUMBER>
MFCD30730887

> <IUPAC Name>
N-tert-butyltricyclo[4.3.1.0,3,8]decan-4-amine

> <CAS>
2137731-99-6

> <URL>
https://www.enaminestore.com/catalog/EN300-372246

> <ROCS_ShapeQuery>
_x1247relevant_x1083L0AP1_x1305L0BP1_

> <ROCS_TanimotoCombo>
0.826 

> <ROCS_ShapeTanimoto>
0.466 

> <ROCS_ColorTanimoto>
0.360 

> <ROCS_RefTversky>
0.402 

> <ROCS_RefColorTversky>
0.450 

> <ROCS_RefTverskyCombo>
0.852 

> <ROCS_FitTversky>
1.519 

> <ROCS_FitColorTversky>
0.641 

> <ROCS_FitTverskyCombo>
2.160 

> <ROCS_ColorScore>
-9.678

> <ROCS_Overlap>
1183.865

> <ROCS_Rank>
328                 

$$$$
untitled-dbase-175416_6
  -OEChem-06232314393D

 20 22  0     1  0  0  0  0  0999 V2000
  -10.2394   15.4426  -36.9725 C   0  0  0  0  0  0  0  0  0  0  0  0
  -12.4414   13.7567  -38.1652 C   0  0  0  0  0  0  0  0  0  0  0  0
  -11.2802   15.9112  -37.9314 C   0  0  1  0  0  0  0  0  0  0  0  0
  -11.6689   14.8345  -38.9998 C   0  0  2  0  0  0  0  0  0  0  0  0
  -13.3822   14.7335  -37.4955 C   0  0  1  0  0  0  0  0  0  0  0  0
  -12.6708   16.0383  -37.3410 C   0  0  2  0  0  0  0  0  0  0  0  0
  -13.6458   15.8418  -38.4579 C   0  0  1  0  0  0  0  0  0  0  0  0
  -12.8577   15.5517  -39.7026 C   0  0  0  0  0  0  0  0  0  0  0  0
   -9.0402   15.6507  -37.0814 O   0  0  0  0  0  0  0  0  0  0  0  0
  -10.8040   14.7463  -35.9557 O   0  0  0  0  0  0  0  0  0  0  0  0
  -12.4838   16.6712  -40.3492 F   0  0  0  0  0  0  0  0  0  0  0  0
  -13.5197   14.7492  -40.5566 F   0  0  0  0  0  0  0  0  0  0  0  0
  -12.9732   13.0378  -38.7957 H   0  0  0  0  0  0  0  0  0  0  0  0
  -11.8064   13.2315  -37.4470 H   0  0  0  0  0  0  0  0  0  0  0  0
  -10.9461   16.8462  -38.3934 H   0  0  0  0  0  0  0  0  0  0  0  0
  -10.8698   14.4630  -39.6414 H   0  0  0  0  0  0  0  0  0  0  0  0
  -14.1157   14.3809  -36.7979 H   0  0  0  0  0  0  0  0  0  0  0  0
  -12.8554   16.7203  -36.5342 H   0  0  0  0  0  0  0  0  0  0  0  0
  -14.5834   16.3569  -38.5166 H   0  0  0  0  0  0  0  0  0  0  0  0
  -10.1342   14.4272  -35.3139 H   0  0  0  0  0  0  0  0  0  0  0  0
  1  3  1  1  0  0  0
  1  9  2  0  0  0  0
  1 10  1  0  0  0  0
  2  4  1  1  0  0  0
  2  5  1  0  0  0  0
  3  4  1  0  0  0  0
  3  6  1  0  0  0  0
  4  8  1  0  0  0  0
  5  6  1  0  0  0  0
  5  7  1  0  0  0  0
  6  7  1  0  0  0  0
  7  8  1  6  0  0  0
  8 11  1  0  0  0  0
  8 12  1  0  0  0  0
  2 13  1  0  0  0  0
  2 14  1  0  0  0  0
  3 15  1  0  0  0  0
  4 16  1  0  0  0  0
  5 17  1  0  0  0  0
  6 18  1  0  0  0  0
  7 19  1  0  0  0  0
 10 20  1  0  0  0  0
M  END
> <id>
EN300-44825930

> <smiles>
OC(=O)[C@@H]1C2C3C[C@H]1C(F)(F)[C@@H]32 |&1:3,7,11,r|

> <IUPAC Name>
rac-(3R,4R,6S)-5,5-difluorotricyclo[2.2.1.0,2,6]heptane-3-carboxylic acid

> <Purity>
95

> <URL>
https://www.enaminestore.com/catalog/EN300-44825930

> <ROCS_ShapeQuery>
_x1247relevant_x1083L0AP1_x1305L0BP1_

> <ROCS_TanimotoCombo>
0.826 

> <ROCS_ShapeTanimoto>
0.484 

> <ROCS_ColorTanimoto>
0.342 

> <ROCS_RefTversky>
0.403 

> <ROCS_RefColorTversky>
0.604 

> <ROCS_RefTverskyCombo>
1.007 

> <ROCS_FitTversky>
1.715 

> <ROCS_FitColorTversky>
0.441 

> <ROCS_FitTverskyCombo>
2.155 

> <ROCS_ColorScore>
-13.482

> <ROCS_Overlap>
1183.410

> <ROCS_Rank>
329                 

$$$$
untitled-dbase-132018_8
  -OEChem-06232314393D

 22 24  0     1  0  0  0  0  0999 V2000
  -11.3534   15.8252  -38.9922 C   0  0  0  0  0  0  0  0  0  0  0  0
  -10.1584   15.2140  -36.7698 C   0  0  0  0  0  0  0  0  0  0  0  0
  -13.3609   14.6635  -39.7153 C   0  0  0  0  0  0  0  0  0  0  0  0
  -13.2224   13.6526  -38.5507 C   0  0  0  0  0  0  0  0  0  0  0  0
  -13.3969   16.5142  -38.0013 C   0  0  0  0  0  0  0  0  0  0  0  0
  -12.8096   16.0524  -39.3549 C   0  0  1  0  0  0  0  0  0  0  0  0
  -12.4502   14.2028  -37.3768 C   0  0  2  0  0  0  0  0  0  0  0  0
  -12.6822   15.6380  -37.0089 C   0  0  1  0  0  0  0  0  0  0  0  0
  -11.3559   15.2358  -37.6177 C   0  0  2  0  0  0  0  0  0  0  0  0
  -10.3654   15.9948  -39.6827 O   0  0  0  0  0  0  0  0  0  0  0  0
   -9.0660   15.6609  -37.0865 O   0  0  0  0  0  0  0  0  0  0  0  0
  -10.4258   14.6247  -35.5788 O   0  0  0  0  0  0  0  0  0  0  0  0
  -12.8301   14.2703  -40.5917 H   0  0  0  0  0  0  0  0  0  0  0  0
  -14.4167   14.7417  -40.0011 H   0  0  0  0  0  0  0  0  0  0  0  0
  -14.2211   13.3569  -38.2079 H   0  0  0  0  0  0  0  0  0  0  0  0
  -12.7319   12.7421  -38.9137 H   0  0  0  0  0  0  0  0  0  0  0  0
  -13.1499   17.5647  -37.8109 H   0  0  0  0  0  0  0  0  0  0  0  0
  -14.4829   16.3894  -37.9526 H   0  0  0  0  0  0  0  0  0  0  0  0
  -12.9333   16.7903  -40.1498 H   0  0  0  0  0  0  0  0  0  0  0  0
  -12.3277   13.4839  -36.5773 H   0  0  0  0  0  0  0  0  0  0  0  0
  -12.7535   15.9341  -35.9753 H   0  0  0  0  0  0  0  0  0  0  0  0
   -9.6361   14.5986  -34.9974 H   0  0  0  0  0  0  0  0  0  0  0  0
  1  6  1  0  0  0  0
  1  9  1  0  0  0  0
  1 10  2  0  0  0  0
  2  9  1  0  0  0  0
  2 11  2  0  0  0  0
  2 12  1  0  0  0  0
  3  4  1  0  0  0  0
  3  6  1  0  0  0  0
  4  7  1  0  0  0  0
  5  6  1  0  0  0  0
  5  8  1  0  0  0  0
  7  8  1  0  0  0  0
  7  9  1  0  0  0  0
  8  9  1  0  0  0  0
  3 13  1  0  0  0  0
  3 14  1  0  0  0  0
  4 15  1  0  0  0  0
  4 16  1  0  0  0  0
  5 17  1  0  0  0  0
  5 18  1  0  0  0  0
  6 19  1  0  0  0  0
  7 20  1  0  0  0  0
  8 21  1  0  0  0  0
 12 22  1  0  0  0  0
M  END
> <id>
EN300-7472240

> <smiles>
OC(=O)C1(C2CC3CCC21)C3=O

> <MDLNUMBER>
MFCD32662852

> <IUPAC Name>
8-oxotricyclo[3.2.1.0,2,7]octane-1-carboxylic acid

> <CAS>
2649080-29-3

> <Purity>
95

> <URL>
https://www.enaminestore.com/catalog/EN300-7472240

> <ROCS_ShapeQuery>
_x1247relevant_x1083L0AP1_x1305L0BP1_

> <ROCS_TanimotoCombo>
0.826 

> <ROCS_ShapeTanimoto>
0.478 

> <ROCS_ColorTanimoto>
0.347 

> <ROCS_RefTversky>
0.398 

> <ROCS_RefColorTversky>
0.598 

> <ROCS_RefTverskyCombo>
0.996 

> <ROCS_FitTversky>
1.729 

> <ROCS_FitColorTversky>
0.453 

> <ROCS_FitTverskyCombo>
2.182 

> <ROCS_ColorScore>
-13.312

> <ROCS_Overlap>
1169.885

> <ROCS_Rank>
330                 

$$$$
untitled-dbase-120211_1
  -OEChem-06232314393D

 26 27  0     1  0  0  0  0  0999 V2000
  -11.0025   14.7810  -38.1081 C   0  0  0  0  0  0  0  0  0  0  0  0
  -10.1370   14.1574  -37.2936 C   0  0  0  0  0  0  0  0  0  0  0  0
   -9.4392   14.8166  -36.1780 C   0  0  0  0  0  0  0  0  0  0  0  0
  -11.6892   14.0399  -39.2425 C   0  0  0  0  0  0  0  0  0  0  0  0
  -11.3825   16.2352  -37.8879 C   0  0  0  0  0  0  0  0  0  0  0  0
  -13.9048   14.1988  -37.9938 C   0  0  0  0  0  0  0  0  0  0  0  0
  -13.7213   15.5076  -37.1855 C   0  0  0  0  0  0  0  0  0  0  0  0
  -13.1936   14.3605  -39.3537 C   0  0  1  0  0  0  0  0  0  0  0  0
  -12.8954   16.4956  -38.0358 C   0  0  2  0  0  0  0  0  0  0  0  0
   -9.5603   14.4537  -35.0170 O   0  0  0  0  0  0  0  0  0  0  0  0
  -12.4133   16.5551  -40.6638 O   0  0  0  0  0  0  0  0  0  0  0  0
  -14.8094   16.3988  -39.8685 O   0  0  0  0  0  0  0  0  0  0  0  0
   -8.6640   15.8492  -36.5751 O   0  0  0  0  0  0  0  0  0  0  0  0
  -13.4007   16.1032  -39.7080 S   0  0  0  0  0  0  0  0  0  0  0  0
   -9.9251   13.1066  -37.4470 H   0  0  0  0  0  0  0  0  0  0  0  0
  -11.1839   14.2961  -40.1817 H   0  0  0  0  0  0  0  0  0  0  0  0
  -11.5750   12.9565  -39.1104 H   0  0  0  0  0  0  0  0  0  0  0  0
  -11.0714   16.5601  -36.8869 H   0  0  0  0  0  0  0  0  0  0  0  0
  -10.8270   16.8524  -38.6045 H   0  0  0  0  0  0  0  0  0  0  0  0
  -13.5406   13.3273  -37.4389 H   0  0  0  0  0  0  0  0  0  0  0  0
  -14.9778   14.0397  -38.1591 H   0  0  0  0  0  0  0  0  0  0  0  0
  -14.7120   15.9356  -36.9869 H   0  0  0  0  0  0  0  0  0  0  0  0
  -13.2606   15.3181  -36.2098 H   0  0  0  0  0  0  0  0  0  0  0  0
  -13.6683   13.7740  -40.1446 H   0  0  0  0  0  0  0  0  0  0  0  0
  -13.1428   17.5385  -37.8209 H   0  0  0  0  0  0  0  0  0  0  0  0
   -8.2063   16.2774  -35.8205 H   0  0  0  0  0  0  0  0  0  0  0  0
  1  2  2  0  0  0  0
  1  4  1  0  0  0  0
  1  5  1  0  0  0  0
  2  3  1  0  0  0  0
  3 10  2  0  0  0  0
  3 13  1  0  0  0  0
  4  8  1  0  0  0  0
  5  9  1  0  0  0  0
  6  7  1  0  0  0  0
  6  8  1  0  0  0  0
  7  9  1  0  0  0  0
  8 14  1  0  0  0  0
  9 14  1  0  0  0  0
 11 14  2  0  0  0  0
 12 14  2  0  0  0  0
  2 15  1  0  0  0  0
  4 16  1  0  0  0  0
  4 17  1  0  0  0  0
  5 18  1  0  0  0  0
  5 19  1  0  0  0  0
  6 20  1  0  0  0  0
  6 21  1  0  0  0  0
  7 22  1  0  0  0  0
  7 23  1  0  0  0  0
  8 24  1  0  0  0  0
  9 25  1  0  0  0  0
 13 26  1  0  0  0  0
M  END
> <id>
EN300-1455207

> <smiles>
OC(=O)C=C1CC2CCC(C1)S2(=O)=O

> <IUPAC Name>
2-{8,8-dioxo-8lambda6-thiabicyclo[3.2.1]octan-3-ylidene}acetic acid

> <CAS>
2167058-92-4

> <URL>
https://www.enaminestore.com/catalog/EN300-1455207

> <ROCS_ShapeQuery>
_x1247relevant_x1083L0AP1_x1305L0BP1_

> <ROCS_TanimotoCombo>
0.826 

> <ROCS_ShapeTanimoto>
0.465 

> <ROCS_ColorTanimoto>
0.361 

> <ROCS_RefTversky>
0.395 

> <ROCS_RefColorTversky>
0.406 

> <ROCS_RefTverskyCombo>
0.800 

> <ROCS_FitTversky>
1.622 

> <ROCS_FitColorTversky>
0.766 

> <ROCS_FitTverskyCombo>
2.388 

> <ROCS_ColorScore>
-8.640

> <ROCS_Overlap>
1160.214

> <ROCS_Rank>
331                 

$$$$
untitled-dbase-81321_6
  -OEChem-06232314393D

 26 28  0     1  0  0  0  0  0999 V2000
  -12.1313   16.6504  -38.6704 C   0  0  0  0  0  0  0  0  0  0  0  0
  -11.2979   15.6134  -38.8393 C   0  0  0  0  0  0  0  0  0  0  0  0
   -9.5341   14.9431  -36.8238 C   0  0  0  0  0  0  0  0  0  0  0  0
  -13.4067   14.8788  -39.4272 C   0  0  0  0  0  0  0  0  0  0  0  0
  -13.5654   15.3929  -37.1043 C   0  0  0  0  0  0  0  0  0  0  0  0
  -10.5782   12.8996  -36.5354 C   0  0  0  0  0  0  0  0  0  0  0  0
  -13.5187   16.0828  -38.4866 C   0  0  1  0  0  0  0  0  0  0  0  0
  -12.1292   14.3539  -38.7591 C   0  0  2  0  0  0  0  0  0  0  0  0
  -12.6410   14.1522  -37.3080 C   0  0  1  0  0  0  0  0  0  0  0  0
  -11.5540   14.0237  -36.2520 C   0  0  2  0  0  0  0  0  0  0  0  0
   -9.4346   13.5878  -37.0361 N   0  0  0  0  0  0  0  0  0  0  0  0
   -8.6870   15.7888  -37.0735 O   0  0  0  0  0  0  0  0  0  0  0  0
  -10.7533   15.2238  -36.2625 O   0  0  0  0  0  0  0  0  0  0  0  0
  -11.8571   17.6919  -38.6219 H   0  0  0  0  0  0  0  0  0  0  0  0
  -10.2268   15.6636  -38.9513 H   0  0  0  0  0  0  0  0  0  0  0  0
  -14.2545   14.1885  -39.3500 H   0  0  0  0  0  0  0  0  0  0  0  0
  -13.2672   15.1568  -40.4798 H   0  0  0  0  0  0  0  0  0  0  0  0
  -13.2269   16.0517  -36.2967 H   0  0  0  0  0  0  0  0  0  0  0  0
  -14.5843   15.0609  -36.8744 H   0  0  0  0  0  0  0  0  0  0  0  0
  -10.3190   12.3258  -35.6397 H   0  0  0  0  0  0  0  0  0  0  0  0
  -10.9249   12.2108  -37.3146 H   0  0  0  0  0  0  0  0  0  0  0  0
  -14.3321   16.7751  -38.7052 H   0  0  0  0  0  0  0  0  0  0  0  0
  -11.6887   13.4777  -39.2365 H   0  0  0  0  0  0  0  0  0  0  0  0
  -13.2619   13.2466  -37.2730 H   0  0  0  0  0  0  0  0  0  0  0  0
  -12.0005   13.9291  -35.2625 H   0  0  0  0  0  0  0  0  0  0  0  0
   -8.6467   13.1344  -37.4916 H   0  0  0  0  0  0  0  0  0  0  0  0
  1  2  2  0  0  0  0
  1  7  1  0  0  0  0
  2  8  1  0  0  0  0
  3 11  1  0  0  0  0
  3 12  2  0  0  0  0
  3 13  1  0  0  0  0
  4  7  1  0  0  0  0
  4  8  1  0  0  0  0
  5  7  1  0  0  0  0
  5  9  1  0  0  0  0
  6 10  1  0  0  0  0
  6 11  1  0  0  0  0
  8  9  1  0  0  0  0
  9 10  1  0  0  0  0
 10 13  1  0  0  0  0
  1 14  1  0  0  0  0
  2 15  1  0  0  0  0
  4 16  1  0  0  0  0
  4 17  1  0  0  0  0
  5 18  1  0  0  0  0
  5 19  1  0  0  0  0
  6 20  1  0  0  0  0
  6 21  1  0  0  0  0
  7 22  1  0  0  0  0
  8 23  1  0  0  0  0
  9 24  1  0  0  0  0
 10 25  1  0  0  0  0
 11 26  1  0  0  0  0
M  END
> <id>
EN300-1823247

> <smiles>
O=C1NCC(O1)C2CC3CC2C=C3

> <IUPAC Name>
5-{bicyclo[2.2.1]hept-5-en-2-yl}-1,3-oxazolidin-2-one

> <CAS>
2228987-40-2

> <URL>
https://www.enaminestore.com/catalog/EN300-1823247

> <ROCS_ShapeQuery>
_x1247relevant_x1083L0AP1_x1305L0BP1_

> <ROCS_TanimotoCombo>
0.826 

> <ROCS_ShapeTanimoto>
0.496 

> <ROCS_ColorTanimoto>
0.330 

> <ROCS_RefTversky>
0.413 

> <ROCS_RefColorTversky>
0.364 

> <ROCS_RefTverskyCombo>
0.778 

> <ROCS_FitTversky>
1.680 

> <ROCS_FitColorTversky>
0.775 

> <ROCS_FitTverskyCombo>
2.455 

> <ROCS_ColorScore>
-7.736

> <ROCS_Overlap>
1215.140

> <ROCS_Rank>
332                 

$$$$
untitled-dbase-176126_22
  -OEChem-06232314393D

 29 30  0     0  0  0  0  0  0999 V2000
  -13.0867   16.6286  -40.3634 C   0  0  0  0  0  0  0  0  0  0  0  0
   -9.6726   14.9631  -37.1372 C   0  0  0  0  0  0  0  0  0  0  0  0
  -13.1731   14.2807  -39.1542 C   0  0  0  0  0  0  0  0  0  0  0  0
  -13.7877   15.9042  -37.9293 C   0  0  0  0  0  0  0  0  0  0  0  0
  -11.3354   15.9975  -38.6140 C   0  0  0  0  0  0  0  0  0  0  0  0
  -12.0962   14.3487  -36.8208 C   0  0  0  0  0  0  0  0  0  0  0  0
  -12.7676   15.7903  -39.1050 C   0  0  0  0  0  0  0  0  0  0  0  0
  -13.3956   14.4325  -37.6201 C   0  0  0  0  0  0  0  0  0  0  0  0
  -14.5049   13.5818  -37.0271 C   0  0  0  0  0  0  0  0  0  0  0  0
   -9.2147   13.6221  -36.6174 C   0  0  0  0  0  0  0  0  0  0  0  0
  -11.0135   15.0512  -37.5345 N   0  0  0  0  0  0  0  0  0  0  0  0
  -12.2589   17.2158  -41.0441 O   0  0  0  0  0  0  0  0  0  0  0  0
   -8.8729   15.9004  -37.1973 O   0  0  0  0  0  0  0  0  0  0  0  0
  -14.4190   16.6288  -40.6134 O   0  0  0  0  0  0  0  0  0  0  0  0
  -10.2274   12.7382  -36.6390 F   0  0  0  0  0  0  0  0  0  0  0  0
   -8.2146   13.1383  -37.3746 F   0  0  0  0  0  0  0  0  0  0  0  0
   -8.7732   13.7288  -35.3519 F   0  0  0  0  0  0  0  0  0  0  0  0
  -14.0812   14.0752  -39.7352 H   0  0  0  0  0  0  0  0  0  0  0  0
  -12.3990   13.5737  -39.4681 H   0  0  0  0  0  0  0  0  0  0  0  0
  -13.5616   16.6421  -37.1531 H   0  0  0  0  0  0  0  0  0  0  0  0
  -14.8283   16.0495  -38.2465 H   0  0  0  0  0  0  0  0  0  0  0  0
  -10.6156   15.8462  -39.4273 H   0  0  0  0  0  0  0  0  0  0  0  0
  -11.1913   17.0128  -38.2255 H   0  0  0  0  0  0  0  0  0  0  0  0
  -12.2077   14.8127  -35.8342 H   0  0  0  0  0  0  0  0  0  0  0  0
  -11.7987   13.3047  -36.6775 H   0  0  0  0  0  0  0  0  0  0  0  0
  -14.5826   13.7576  -35.9524 H   0  0  0  0  0  0  0  0  0  0  0  0
  -14.2991   12.5227  -37.1941 H   0  0  0  0  0  0  0  0  0  0  0  0
  -15.4611   13.8300  -37.4922 H   0  0  0  0  0  0  0  0  0  0  0  0
  -14.6425   17.1581  -41.4085 H   0  0  0  0  0  0  0  0  0  0  0  0
  1  7  1  0  0  0  0
  1 12  2  0  0  0  0
  1 14  1  0  0  0  0
  2 10  1  0  0  0  0
  2 11  1  0  0  0  0
  2 13  2  0  0  0  0
  3  7  1  0  0  0  0
  3  8  1  0  0  0  0
  4  7  1  0  0  0  0
  4  8  1  0  0  0  0
  5  7  1  0  0  0  0
  5 11  1  0  0  0  0
  6  8  1  0  0  0  0
  6 11  1  0  0  0  0
  8  9  1  0  0  0  0
 10 15  1  0  0  0  0
 10 16  1  0  0  0  0
 10 17  1  0  0  0  0
  3 18  1  0  0  0  0
  3 19  1  0  0  0  0
  4 20  1  0  0  0  0
  4 21  1  0  0  0  0
  5 22  1  0  0  0  0
  5 23  1  0  0  0  0
  6 24  1  0  0  0  0
  6 25  1  0  0  0  0
  9 26  1  0  0  0  0
  9 27  1  0  0  0  0
  9 28  1  0  0  0  0
 14 29  1  0  0  0  0
M  END
> <id>
EN300-39679736

> <smiles>
CC1(CC2(C1)C(=O)O)CN(C2)C(=O)C(F)(F)F

> <IUPAC Name>
5-methyl-3-(2,2,2-trifluoroacetyl)-3-azabicyclo[3.1.1]heptane-1-carboxylic acid

> <URL>
https://www.enaminestore.com/catalog/EN300-39679736

> <ROCS_ShapeQuery>
_x1247relevant_x1083L0AP1_x1305L0BP1_

> <ROCS_TanimotoCombo>
0.826 

> <ROCS_ShapeTanimoto>
0.517 

> <ROCS_ColorTanimoto>
0.308 

> <ROCS_RefTversky>
0.443 

> <ROCS_RefColorTversky>
0.355 

> <ROCS_RefTverskyCombo>
0.798 

> <ROCS_FitTversky>
1.476 

> <ROCS_FitColorTversky>
0.703 

> <ROCS_FitTverskyCombo>
2.179 

> <ROCS_ColorScore>
-7.542

> <ROCS_Overlap>
1307.680

> <ROCS_Rank>
333                 

$$$$
untitled-dbase-177547_6
  -OEChem-06232314393D

 20 22  0     1  0  0  0  0  0999 V2000
  -10.2393   15.4443  -36.9730 C   0  0  0  0  0  0  0  0  0  0  0  0
  -12.4403   13.7570  -38.1654 C   0  0  0  0  0  0  0  0  0  0  0  0
  -11.2804   15.9119  -37.9321 C   0  0  1  0  0  0  0  0  0  0  0  0
  -11.6685   14.8350  -39.0003 C   0  0  2  0  0  0  0  0  0  0  0  0
  -13.3817   14.7333  -37.4960 C   0  0  1  0  0  0  0  0  0  0  0  0
  -12.6711   16.0384  -37.3418 C   0  0  2  0  0  0  0  0  0  0  0  0
  -13.6461   15.8412  -38.4586 C   0  0  1  0  0  0  0  0  0  0  0  0
  -12.8578   15.5512  -39.7031 C   0  0  0  0  0  0  0  0  0  0  0  0
   -9.0400   15.6516  -37.0829 O   0  0  0  0  0  0  0  0  0  0  0  0
  -10.8037   14.7501  -35.9547 O   0  0  0  0  0  0  0  0  0  0  0  0
  -12.4844   16.6708  -40.3499 F   0  0  0  0  0  0  0  0  0  0  0  0
  -13.5191   14.7482  -40.5572 F   0  0  0  0  0  0  0  0  0  0  0  0
  -12.9719   13.0376  -38.7955 H   0  0  0  0  0  0  0  0  0  0  0  0
  -11.8043   13.2322  -37.4478 H   0  0  0  0  0  0  0  0  0  0  0  0
  -10.9459   16.8459  -38.3957 H   0  0  0  0  0  0  0  0  0  0  0  0
  -10.8693   14.4631  -39.6415 H   0  0  0  0  0  0  0  0  0  0  0  0
  -14.1149   14.3804  -36.7981 H   0  0  0  0  0  0  0  0  0  0  0  0
  -12.8560   16.7205  -36.5352 H   0  0  0  0  0  0  0  0  0  0  0  0
  -14.5840   16.3558  -38.5173 H   0  0  0  0  0  0  0  0  0  0  0  0
  -10.1337   14.4317  -35.3128 H   0  0  0  0  0  0  0  0  0  0  0  0
  1  3  1  1  0  0  0
  1  9  2  0  0  0  0
  1 10  1  0  0  0  0
  2  4  1  0  0  0  0
  2  5  1  0  0  0  0
  3  4  1  0  0  0  0
  3  6  1  0  0  0  0
  4  8  1  0  0  0  0
  5  6  1  1  0  0  0
  5  7  1  0  0  0  0
  6  7  1  0  0  0  0
  7  8  1  0  0  0  0
  8 11  1  0  0  0  0
  8 12  1  0  0  0  0
  2 13  1  0  0  0  0
  2 14  1  0  0  0  0
  3 15  1  0  0  0  0
  4 16  1  0  0  0  0
  5 17  1  0  0  0  0
  6 18  1  0  0  0  0
  7 19  1  0  0  0  0
 10 20  1  0  0  0  0
M  END
> <id>
EN300-45181351

> <smiles>
OC(=O)[C@@H]1[C@@H]2C3CC1C(F)(F)C32 |&1:3,4,r|

> <IUPAC Name>
rac-(2R,3S)-5,5-difluorotricyclo[2.2.1.0,2,6]heptane-3-carboxylic acid

> <Purity>
95

> <URL>
https://www.enaminestore.com/catalog/EN300-45181351

> <ROCS_ShapeQuery>
_x1247relevant_x1083L0AP1_x1305L0BP1_

> <ROCS_TanimotoCombo>
0.826 

> <ROCS_ShapeTanimoto>
0.484 

> <ROCS_ColorTanimoto>
0.342 

> <ROCS_RefTversky>
0.403 

> <ROCS_RefColorTversky>
0.604 

> <ROCS_RefTverskyCombo>
1.007 

> <ROCS_FitTversky>
1.714 

> <ROCS_FitColorTversky>
0.441 

> <ROCS_FitTverskyCombo>
2.155 

> <ROCS_ColorScore>
-13.482

> <ROCS_Overlap>
1183.247

> <ROCS_Rank>
334                 

$$$$
untitled-dbase-132429_2
  -OEChem-06232314393D

 26 28  0     0  0  0  0  0  0999 V2000
   -8.1302   15.0036  -35.1889 C   0  0  0  0  0  0  0  0  0  0  0  0
   -8.1120   15.5209  -36.4682 C   0  0  0  0  0  0  0  0  0  0  0  0
   -9.3663   14.6030  -34.7245 C   0  0  0  0  0  0  0  0  0  0  0  0
  -10.3549   15.2164  -36.6773 C   0  0  0  0  0  0  0  0  0  0  0  0
  -12.6184   16.0638  -39.5444 C   0  0  0  0  0  0  0  0  0  0  0  0
  -13.9329   14.8967  -37.7509 C   0  0  0  0  0  0  0  0  0  0  0  0
  -11.5807   16.5030  -38.5059 C   0  0  0  0  0  0  0  0  0  0  0  0
  -12.9023   15.3326  -36.7035 C   0  0  0  0  0  0  0  0  0  0  0  0
  -13.0807   14.7097  -39.0057 C   0  0  0  0  0  0  0  0  0  0  0  0
  -11.5799   15.3335  -37.4968 C   0  0  0  0  0  0  0  0  0  0  0  0
   -9.2096   15.6422  -37.2433 N   0  0  0  0  0  0  0  0  0  0  0  0
  -10.5037   14.6955  -35.4443 N   0  0  0  0  0  0  0  0  0  0  0  0
  -11.8392   14.1897  -38.4073 N   0  0  0  0  0  0  0  0  0  0  0  0
   -7.2340   14.9179  -34.5894 H   0  0  0  0  0  0  0  0  0  0  0  0
   -7.1862   15.8622  -36.9188 H   0  0  0  0  0  0  0  0  0  0  0  0
   -9.4797   14.1840  -33.7303 H   0  0  0  0  0  0  0  0  0  0  0  0
  -13.4371   16.7849  -39.6347 H   0  0  0  0  0  0  0  0  0  0  0  0
  -12.1426   15.9569  -40.5261 H   0  0  0  0  0  0  0  0  0  0  0  0
  -14.4033   13.9545  -37.4450 H   0  0  0  0  0  0  0  0  0  0  0  0
  -14.7205   15.6454  -37.8838 H   0  0  0  0  0  0  0  0  0  0  0  0
  -10.6025   16.6308  -38.9864 H   0  0  0  0  0  0  0  0  0  0  0  0
  -11.8528   17.4558  -38.0384 H   0  0  0  0  0  0  0  0  0  0  0  0
  -13.1392   16.3186  -36.2884 H   0  0  0  0  0  0  0  0  0  0  0  0
  -12.8859   14.6157  -35.8729 H   0  0  0  0  0  0  0  0  0  0  0  0
  -13.5360   14.0641  -39.7599 H   0  0  0  0  0  0  0  0  0  0  0  0
  -12.0283   13.3417  -37.8721 H   0  0  0  0  0  0  0  0  0  0  0  0
  1  2  2  0  0  0  0
  1  3  1  0  0  0  0
  2 11  1  0  0  0  0
  3 12  2  0  0  0  0
  4 10  1  0  0  0  0
  4 11  2  0  0  0  0
  4 12  1  0  0  0  0
  5  7  1  0  0  0  0
  5  9  1  0  0  0  0
  6  8  1  0  0  0  0
  6  9  1  0  0  0  0
  7 10  1  0  0  0  0
  8 10  1  0  0  0  0
  9 13  1  0  0  0  0
 10 13  1  0  0  0  0
  1 14  1  0  0  0  0
  2 15  1  0  0  0  0
  3 16  1  0  0  0  0
  5 17  1  0  0  0  0
  5 18  1  0  0  0  0
  6 19  1  0  0  0  0
  6 20  1  0  0  0  0
  7 21  1  0  0  0  0
  7 22  1  0  0  0  0
  8 23  1  0  0  0  0
  8 24  1  0  0  0  0
  9 25  1  0  0  0  0
 13 26  1  0  0  0  0
M  END
> <id>
EN300-1122021

> <smiles>
C1CC2(CCC1N2)C=3N=CC=CN3

> <IUPAC Name>
1-(pyrimidin-2-yl)-7-azabicyclo[2.2.1]heptane

> <CAS>
2137648-96-3

> <URL>
https://www.enaminestore.com/catalog/EN300-1122021

> <ROCS_ShapeQuery>
_x1247relevant_x1083L0AP1_x1305L0BP1_

> <ROCS_TanimotoCombo>
0.826 

> <ROCS_ShapeTanimoto>
0.435 

> <ROCS_ColorTanimoto>
0.390 

> <ROCS_RefTversky>
0.378 

> <ROCS_RefColorTversky>
0.437 

> <ROCS_RefTverskyCombo>
0.816 

> <ROCS_FitTversky>
1.527 

> <ROCS_FitColorTversky>
0.785 

> <ROCS_FitTverskyCombo>
2.312 

> <ROCS_ColorScore>
-9.323

> <ROCS_Overlap>
1112.956

> <ROCS_Rank>
335                 

$$$$
untitled-dbase-81030_15
  -OEChem-06232314393D

 31 33  0     1  0  0  0  0  0999 V2000
  -15.6212   15.6291  -40.7862 C   0  0  0  0  0  0  0  0  0  0  0  0
  -15.8601   14.3847  -40.2022 C   0  0  0  0  0  0  0  0  0  0  0  0
  -14.4963   16.3691  -40.4209 C   0  0  0  0  0  0  0  0  0  0  0  0
  -14.9807   13.8814  -39.2434 C   0  0  0  0  0  0  0  0  0  0  0  0
  -13.6091   15.8602  -39.4721 C   0  0  0  0  0  0  0  0  0  0  0  0
  -13.8630   14.6270  -38.8677 C   0  0  0  0  0  0  0  0  0  0  0  0
   -8.9791   13.3643  -37.2128 C   0  0  0  0  0  0  0  0  0  0  0  0
   -8.3928   14.7678  -37.3624 C   0  0  0  0  0  0  0  0  0  0  0  0
  -10.1443   15.2947  -35.8437 C   0  0  0  0  0  0  0  0  0  0  0  0
  -11.5144   15.8725  -38.4709 C   0  0  0  0  0  0  0  0  0  0  0  0
  -11.1053   14.3183  -36.5373 C   0  0  1  0  0  0  0  0  0  0  0  0
  -12.1538   15.0631  -37.3505 C   0  0  2  0  0  0  0  0  0  0  0  0
  -10.4149   13.3977  -37.4501 N   0  0  0  0  0  0  0  0  0  0  0  0
  -12.5121   16.6233  -39.1702 O   0  0  0  0  0  0  0  0  0  0  0  0
  -13.0479   14.0893  -37.9067 O   0  0  0  0  0  0  0  0  0  0  0  0
   -9.1908   15.7984  -36.7735 O   0  0  0  0  0  0  0  0  0  0  0  0
  -16.3100   16.0207  -41.5291 H   0  0  0  0  0  0  0  0  0  0  0  0
  -16.7347   13.8091  -40.4912 H   0  0  0  0  0  0  0  0  0  0  0  0
  -14.3138   17.3335  -40.8871 H   0  0  0  0  0  0  0  0  0  0  0  0
  -15.1794   12.9154  -38.7874 H   0  0  0  0  0  0  0  0  0  0  0  0
   -8.5008   12.6823  -37.9218 H   0  0  0  0  0  0  0  0  0  0  0  0
   -8.7850   12.9818  -36.2047 H   0  0  0  0  0  0  0  0  0  0  0  0
   -7.3958   14.8067  -36.8780 H   0  0  0  0  0  0  0  0  0  0  0  0
   -8.2136   15.0171  -38.4317 H   0  0  0  0  0  0  0  0  0  0  0  0
  -10.6778   16.1330  -35.3763 H   0  0  0  0  0  0  0  0  0  0  0  0
   -9.5920   14.7769  -35.0514 H   0  0  0  0  0  0  0  0  0  0  0  0
  -10.7894   16.5871  -38.0672 H   0  0  0  0  0  0  0  0  0  0  0  0
  -10.9931   15.2318  -39.1937 H   0  0  0  0  0  0  0  0  0  0  0  0
  -11.6372   13.7178  -35.7800 H   0  0  0  0  0  0  0  0  0  0  0  0
  -12.7360   15.7159  -36.6854 H   0  0  0  0  0  0  0  0  0  0  0  0
  -10.5877   13.6970  -38.4186 H   0  0  0  0  0  0  0  0  0  0  0  0
  1  2  2  0  0  0  0
  1  3  1  0  0  0  0
  2  4  1  0  0  0  0
  3  5  2  0  0  0  0
  4  6  2  0  0  0  0
  5  6  1  0  0  0  0
  5 14  1  0  0  0  0
  6 15  1  0  0  0  0
  7  8  1  0  0  0  0
  7 13  1  0  0  0  0
  8 16  1  0  0  0  0
  9 11  1  0  0  0  0
  9 16  1  0  0  0  0
 10 12  1  0  0  0  0
 10 14  1  0  0  0  0
 11 12  1  0  0  0  0
 11 13  1  0  0  0  0
 12 15  1  0  0  0  0
  1 17  1  0  0  0  0
  2 18  1  0  0  0  0
  3 19  1  0  0  0  0
  4 20  1  0  0  0  0
  7 21  1  0  0  0  0
  7 22  1  0  0  0  0
  8 23  1  0  0  0  0
  8 24  1  0  0  0  0
  9 25  1  0  0  0  0
  9 26  1  0  0  0  0
 10 27  1  0  0  0  0
 10 28  1  0  0  0  0
 11 29  1  0  0  0  0
 12 30  1  0  0  0  0
 13 31  1  0  0  0  0
M  END
> <id>
EN300-1783647

> <smiles>
C1COCC(N1)C2COC=3C=CC=CC3O2

> <IUPAC Name>
3-(2,3-dihydro-1,4-benzodioxin-2-yl)morpholine

> <CAS>
2228980-08-1

> <URL>
https://www.enaminestore.com/catalog/EN300-1783647

> <ROCS_ShapeQuery>
_x1247relevant_x1083L0AP1_x1305L0BP1_

> <ROCS_TanimotoCombo>
0.826 

> <ROCS_ShapeTanimoto>
0.527 

> <ROCS_ColorTanimoto>
0.298 

> <ROCS_RefTversky>
0.445 

> <ROCS_RefColorTversky>
0.324 

> <ROCS_RefTverskyCombo>
0.769 

> <ROCS_FitTversky>
1.546 

> <ROCS_FitColorTversky>
0.788 

> <ROCS_FitTverskyCombo>
2.334 

> <ROCS_ColorScore>
-6.857

> <ROCS_Overlap>
1310.575

> <ROCS_Rank>
336                 

$$$$
untitled-dbase-117290_1
  -OEChem-06232314393D

 34 36  0     1  0  0  0  0  0999 V2000
   -9.6386   16.4627  -36.9097 C   0  0  0  0  0  0  0  0  0  0  0  0
  -13.8787   14.8263  -39.4402 C   0  0  0  0  0  0  0  0  0  0  0  0
  -12.5506   15.3672  -39.9841 C   0  0  0  0  0  0  0  0  0  0  0  0
  -13.0968   16.5673  -38.0159 C   0  0  0  0  0  0  0  0  0  0  0  0
  -12.8122   14.3281  -37.2327 C   0  0  0  0  0  0  0  0  0  0  0  0
   -9.7420   14.1089  -36.1585 C   0  0  0  0  0  0  0  0  0  0  0  0
  -10.5624   13.7564  -38.3276 C   0  0  0  0  0  0  0  0  0  0  0  0
  -10.5683   15.3384  -36.5520 C   0  0  2  0  0  0  0  0  0  0  0  0
  -13.8306   15.2294  -37.9578 C   0  0  2  0  0  0  0  0  0  0  0  0
  -11.8816   15.9742  -38.7351 C   0  0  1  0  0  0  0  0  0  0  0  0
  -11.4347   14.8658  -37.7427 C   0  0  2  0  0  0  0  0  0  0  0  0
   -9.6004   18.7156  -37.6215 C   0  0  0  0  0  0  0  0  0  0  0  0
  -10.0633   13.0686  -37.1380 N   0  0  0  0  0  0  0  0  0  0  0  0
   -8.4183   16.3768  -36.8851 O   0  0  0  0  0  0  0  0  0  0  0  0
  -10.3657   17.5629  -37.2557 O   0  0  0  0  0  0  0  0  0  0  0  0
  -14.7195   15.3099  -39.9500 H   0  0  0  0  0  0  0  0  0  0  0  0
  -13.9713   13.7447  -39.5800 H   0  0  0  0  0  0  0  0  0  0  0  0
  -11.9516   14.5939  -40.4717 H   0  0  0  0  0  0  0  0  0  0  0  0
  -12.7464   16.1484  -40.7284 H   0  0  0  0  0  0  0  0  0  0  0  0
  -13.6241   17.3211  -38.6105 H   0  0  0  0  0  0  0  0  0  0  0  0
  -12.8672   16.9804  -37.0288 H   0  0  0  0  0  0  0  0  0  0  0  0
  -12.9228   14.4463  -36.1488 H   0  0  0  0  0  0  0  0  0  0  0  0
  -12.9781   13.2714  -37.4693 H   0  0  0  0  0  0  0  0  0  0  0  0
   -8.6645   14.3101  -36.1536 H   0  0  0  0  0  0  0  0  0  0  0  0
  -10.0203   13.7564  -35.1600 H   0  0  0  0  0  0  0  0  0  0  0  0
  -11.1163   13.0575  -38.9611 H   0  0  0  0  0  0  0  0  0  0  0  0
   -9.7297   14.1678  -38.9108 H   0  0  0  0  0  0  0  0  0  0  0  0
  -11.1728   15.6882  -35.7076 H   0  0  0  0  0  0  0  0  0  0  0  0
  -14.8120   15.2491  -37.4797 H   0  0  0  0  0  0  0  0  0  0  0  0
  -11.1081   16.6984  -38.9975 H   0  0  0  0  0  0  0  0  0  0  0  0
  -10.2755   19.5354  -37.8790 H   0  0  0  0  0  0  0  0  0  0  0  0
   -8.9613   18.4741  -38.4744 H   0  0  0  0  0  0  0  0  0  0  0  0
   -8.9775   19.0122  -36.7743 H   0  0  0  0  0  0  0  0  0  0  0  0
   -9.2418   12.5084  -37.3576 H   0  0  0  0  0  0  0  0  0  0  0  0
  1  8  1  0  0  0  0
  1 14  2  0  0  0  0
  1 15  1  0  0  0  0
  2  3  1  0  0  0  0
  2  9  1  0  0  0  0
  3 10  1  0  0  0  0
  4  9  1  0  0  0  0
  4 10  1  0  0  0  0
  5  9  1  0  0  0  0
  5 11  1  0  0  0  0
  6  8  1  0  0  0  0
  6 13  1  0  0  0  0
  7 11  1  0  0  0  0
  7 13  1  0  0  0  0
  8 11  1  0  0  0  0
 10 11  1  0  0  0  0
 12 15  1  0  0  0  0
  2 16  1  0  0  0  0
  2 17  1  0  0  0  0
  3 18  1  0  0  0  0
  3 19  1  0  0  0  0
  4 20  1  0  0  0  0
  4 21  1  0  0  0  0
  5 22  1  0  0  0  0
  5 23  1  0  0  0  0
  6 24  1  0  0  0  0
  6 25  1  0  0  0  0
  7 26  1  0  0  0  0
  7 27  1  0  0  0  0
  8 28  1  0  0  0  0
  9 29  1  0  0  0  0
 10 30  1  0  0  0  0
 12 31  1  0  0  0  0
 12 32  1  0  0  0  0
 12 33  1  0  0  0  0
 13 34  1  0  0  0  0
M  END
> <id>
EN300-1455511

> <smiles>
COC(=O)C1CNCC21CC3CCC2C3

> <IUPAC Name>
methyl spiro[bicyclo[2.2.1]heptane-2,3'-pyrrolidine]-4'-carboxylate

> <CAS>
1594941-79-3

> <URL>
https://www.enaminestore.com/catalog/EN300-1455511

> <ROCS_ShapeQuery>
_x1247relevant_x1083L0AP1_x1305L0BP1_

> <ROCS_TanimotoCombo>
0.825 

> <ROCS_ShapeTanimoto>
0.475 

> <ROCS_ColorTanimoto>
0.350 

> <ROCS_RefTversky>
0.409 

> <ROCS_RefColorTversky>
0.392 

> <ROCS_RefTverskyCombo>
0.801 

> <ROCS_FitTversky>
1.513 

> <ROCS_FitColorTversky>
0.766 

> <ROCS_FitTverskyCombo>
2.279 

> <ROCS_ColorScore>
-8.336

> <ROCS_Overlap>
1205.783

> <ROCS_Rank>
337                 

$$$$
untitled-dbase-143268_0
  -OEChem-06232314393D

 31 33  0     1  0  0  0  0  0999 V2000
   -9.9658   15.5121  -36.4753 C   0  0  0  0  0  0  0  0  0  0  0  0
  -13.2292   16.6658  -39.0516 C   0  0  0  0  0  0  0  0  0  0  0  0
  -12.6158   14.3279  -39.7134 C   0  0  0  0  0  0  0  0  0  0  0  0
  -14.0449   14.7218  -37.6941 C   0  0  0  0  0  0  0  0  0  0  0  0
  -10.8667   15.8722  -38.7834 C   0  0  0  0  0  0  0  0  0  0  0  0
  -12.2944   16.2628  -36.7610 C   0  0  0  0  0  0  0  0  0  0  0  0
  -12.1261   15.7849  -39.6626 C   0  0  2  0  0  0  0  0  0  0  0  0
  -13.5619   16.1817  -37.6303 C   0  0  1  0  0  0  0  0  0  0  0  0
  -12.9446   13.8251  -38.2932 C   0  0  0  0  0  0  0  0  0  0  0  0
  -11.6938   13.9100  -37.3897 C   0  0  2  0  0  0  0  0  0  0  0  0
  -11.1785   15.3719  -37.3560 C   0  0  0  0  0  0  0  0  0  0  0  0
  -10.6696   12.9729  -37.8675 N   0  0  0  0  0  0  0  0  0  0  0  0
   -8.8859   15.9577  -36.8338 O   0  0  0  0  0  0  0  0  0  0  0  0
  -10.2316   15.0722  -35.2211 O   0  0  0  0  0  0  0  0  0  0  0  0
  -12.9013   17.7122  -39.0242 H   0  0  0  0  0  0  0  0  0  0  0  0
  -14.1279   16.6303  -39.6796 H   0  0  0  0  0  0  0  0  0  0  0  0
  -13.5105   14.2603  -40.3451 H   0  0  0  0  0  0  0  0  0  0  0  0
  -11.8564   13.6924  -40.1838 H   0  0  0  0  0  0  0  0  0  0  0  0
  -14.3084   14.3706  -36.6887 H   0  0  0  0  0  0  0  0  0  0  0  0
  -14.9552   14.6552  -38.3027 H   0  0  0  0  0  0  0  0  0  0  0  0
  -10.0540   15.2869  -39.2320 H   0  0  0  0  0  0  0  0  0  0  0  0
  -10.5081   16.9098  -38.7543 H   0  0  0  0  0  0  0  0  0  0  0  0
  -11.9563   17.3054  -36.6918 H   0  0  0  0  0  0  0  0  0  0  0  0
  -12.5270   15.9492  -35.7345 H   0  0  0  0  0  0  0  0  0  0  0  0
  -11.8950   16.1333  -40.6754 H   0  0  0  0  0  0  0  0  0  0  0  0
  -14.3473   16.8123  -37.1991 H   0  0  0  0  0  0  0  0  0  0  0  0
  -13.3117   12.7928  -38.3441 H   0  0  0  0  0  0  0  0  0  0  0  0
  -11.9639   13.5940  -36.3730 H   0  0  0  0  0  0  0  0  0  0  0  0
   -9.8966   13.0290  -37.2514 H   0  0  0  0  0  0  0  0  0  0  0  0
  -11.0645   12.0649  -37.8621 H   0  0  0  0  0  0  0  0  0  0  0  0
   -9.4520   15.1536  -34.6314 H   0  0  0  0  0  0  0  0  0  0  0  0
  1 11  1  0  0  0  0
  1 13  2  0  0  0  0
  1 14  1  0  0  0  0
  2  7  1  0  0  0  0
  2  8  1  0  0  0  0
  3  7  1  0  0  0  0
  3  9  1  0  0  0  0
  4  8  1  0  0  0  0
  4  9  1  0  0  0  0
  5  7  1  0  0  0  0
  5 11  1  0  0  0  0
  6  8  1  0  0  0  0
  6 11  1  0  0  0  0
  9 10  1  0  0  0  0
 10 11  1  0  0  0  0
 10 12  1  0  0  0  0
  2 15  1  0  0  0  0
  2 16  1  0  0  0  0
  3 17  1  0  0  0  0
  3 18  1  0  0  0  0
  4 19  1  0  0  0  0
  4 20  1  0  0  0  0
  5 21  1  0  0  0  0
  5 22  1  0  0  0  0
  6 23  1  0  0  0  0
  6 24  1  0  0  0  0
  7 25  1  0  0  0  0
  8 26  1  0  0  0  0
  9 27  1  0  0  0  0
 10 28  1  0  0  0  0
 12 29  1  0  0  0  0
 12 30  1  0  0  0  0
 14 31  1  0  0  0  0
M  END
> <id>
EN300-8636960

> <smiles>
NC1C2CC3CC(C2)CC1(C3)C(=O)O

> <IUPAC Name>
2-aminoadamantane-1-carboxylic acid

> <CAS>
68312-88-9

> <URL>
https://www.enaminestore.com/catalog/EN300-8636960

> <ROCS_ShapeQuery>
_x1247relevant_x1083L0AP1_x1305L0BP1_

> <ROCS_TanimotoCombo>
0.825 

> <ROCS_ShapeTanimoto>
0.486 

> <ROCS_ColorTanimoto>
0.339 

> <ROCS_RefTversky>
0.411 

> <ROCS_RefColorTversky>
0.396 

> <ROCS_RefTverskyCombo>
0.807 

> <ROCS_FitTversky>
1.602 

> <ROCS_FitColorTversky>
0.704 

> <ROCS_FitTverskyCombo>
2.306 

> <ROCS_ColorScore>
-8.442

> <ROCS_Overlap>
1209.649

> <ROCS_Rank>
338                 

$$$$
untitled-dbase-83428_66
  -OEChem-06232314393D

 36 38  0     1  0  0  0  0  0999 V2000
  -13.8581   16.0810  -39.2470 C   0  0  0  0  0  0  0  0  0  0  0  0
  -12.4207   16.0959  -39.7686 C   0  0  0  0  0  0  0  0  0  0  0  0
   -9.9764   14.6809  -34.0973 C   0  0  0  0  0  0  0  0  0  0  0  0
   -8.2024   14.3800  -35.9005 C   0  0  0  0  0  0  0  0  0  0  0  0
  -11.1155   14.7150  -35.1257 C   0  0  0  0  0  0  0  0  0  0  0  0
   -9.2015   15.2161  -36.7127 C   0  0  0  0  0  0  0  0  0  0  0  0
  -13.0300   15.5516  -36.9310 C   0  0  0  0  0  0  0  0  0  0  0  0
  -11.5823   15.5985  -37.4472 C   0  0  2  0  0  0  0  0  0  0  0  0
  -13.7874   15.0224  -38.1488 C   0  0  2  0  0  0  0  0  0  0  0  0
  -11.7455   15.0559  -38.8750 C   0  0  1  0  0  0  0  0  0  0  0  0
   -8.7540   13.8943  -34.5557 C   0  0  0  0  0  0  0  0  0  0  0  0
  -10.6520   14.7151  -36.6023 C   0  0  0  0  0  0  0  0  0  0  0  0
  -10.7219   13.3468  -37.1387 N   0  0  0  0  0  0  0  0  0  0  0  0
  -12.8206   14.1015  -38.7037 O   0  0  0  0  0  0  0  0  0  0  0  0
   -9.0789   12.5068  -34.6317 O   0  0  0  0  0  0  0  0  0  0  0  0
  -14.1920   17.0565  -38.8815 H   0  0  0  0  0  0  0  0  0  0  0  0
  -14.5338   15.7617  -40.0482 H   0  0  0  0  0  0  0  0  0  0  0  0
  -12.4088   15.7699  -40.8150 H   0  0  0  0  0  0  0  0  0  0  0  0
  -11.9518   17.0824  -39.7098 H   0  0  0  0  0  0  0  0  0  0  0  0
   -9.6750   15.7172  -33.8519 H   0  0  0  0  0  0  0  0  0  0  0  0
  -10.3451   14.2763  -33.1351 H   0  0  0  0  0  0  0  0  0  0  0  0
   -7.8562   13.5148  -36.4945 H   0  0  0  0  0  0  0  0  0  0  0  0
   -7.2870   14.9731  -35.7252 H   0  0  0  0  0  0  0  0  0  0  0  0
  -11.7922   13.8647  -34.9371 H   0  0  0  0  0  0  0  0  0  0  0  0
  -11.7199   15.6185  -34.9363 H   0  0  0  0  0  0  0  0  0  0  0  0
   -9.1450   16.2539  -36.3557 H   0  0  0  0  0  0  0  0  0  0  0  0
   -8.8766   15.2380  -37.7615 H   0  0  0  0  0  0  0  0  0  0  0  0
  -13.1283   14.8550  -36.0908 H   0  0  0  0  0  0  0  0  0  0  0  0
  -13.3929   16.5317  -36.6059 H   0  0  0  0  0  0  0  0  0  0  0  0
  -11.1883   16.6210  -37.4496 H   0  0  0  0  0  0  0  0  0  0  0  0
  -14.7405   14.5416  -37.9181 H   0  0  0  0  0  0  0  0  0  0  0  0
  -10.8517   14.6012  -39.3090 H   0  0  0  0  0  0  0  0  0  0  0  0
   -7.9568   13.9929  -33.7856 H   0  0  0  0  0  0  0  0  0  0  0  0
  -10.1259   12.7778  -36.5907 H   0  0  0  0  0  0  0  0  0  0  0  0
  -11.6625   13.0462  -37.0737 H   0  0  0  0  0  0  0  0  0  0  0  0
   -9.3490   12.2355  -33.7402 H   0  0  0  0  0  0  0  0  0  0  0  0
  1  2  1  0  0  0  0
  1  9  1  0  0  0  0
  2 10  1  0  0  0  0
  3  5  1  0  0  0  0
  3 11  1  0  0  0  0
  4  6  1  0  0  0  0
  4 11  1  0  0  0  0
  5 12  1  0  0  0  0
  6 12  1  0  0  0  0
  7  8  1  0  0  0  0
  7  9  1  0  0  0  0
  8 10  1  0  0  0  0
  8 12  1  0  0  0  0
  9 14  1  0  0  0  0
 10 14  1  0  0  0  0
 11 15  1  0  0  0  0
 12 13  1  0  0  0  0
  1 16  1  0  0  0  0
  1 17  1  0  0  0  0
  2 18  1  0  0  0  0
  2 19  1  0  0  0  0
  3 20  1  0  0  0  0
  3 21  1  0  0  0  0
  4 22  1  0  0  0  0
  4 23  1  0  0  0  0
  5 24  1  0  0  0  0
  5 25  1  0  0  0  0
  6 26  1  0  0  0  0
  6 27  1  0  0  0  0
  7 28  1  0  0  0  0
  7 29  1  0  0  0  0
  8 30  1  0  0  0  0
  9 31  1  0  0  0  0
 10 32  1  0  0  0  0
 11 33  1  0  0  0  0
 13 34  1  0  0  0  0
 13 35  1  0  0  0  0
 15 36  1  0  0  0  0
M  END
> <id>
EN300-1753393

> <smiles>
NC1(CCC(O)CC1)C2CC3CCC2O3

> <IUPAC Name>
4-amino-4-{7-oxabicyclo[2.2.1]heptan-2-yl}cyclohexan-1-ol

> <CAS>
2228904-64-9

> <URL>
https://www.enaminestore.com/catalog/EN300-1753393

> <ROCS_ShapeQuery>
_x1247relevant_x1083L0AP1_x1305L0BP1_

> <ROCS_TanimotoCombo>
0.825 

> <ROCS_ShapeTanimoto>
0.466 

> <ROCS_ColorTanimoto>
0.359 

> <ROCS_RefTversky>
0.403 

> <ROCS_RefColorTversky>
0.423 

> <ROCS_RefTverskyCombo>
0.826 

> <ROCS_FitTversky>
1.507 

> <ROCS_FitColorTversky>
0.705 

> <ROCS_FitTverskyCombo>
2.212 

> <ROCS_ColorScore>
-9.044

> <ROCS_Overlap>
1186.136

> <ROCS_Rank>
339                 

$$$$
untitled-dbase-142845_25
  -OEChem-06232314393D

 34 36  0     1  0  0  0  0  0999 V2000
  -10.5836   14.5309  -36.5875 C   0  0  0  0  0  0  0  0  0  0  0  0
  -13.9803   15.3162  -37.9911 C   0  0  0  0  0  0  0  0  0  0  0  0
  -12.1822   13.8014  -38.5309 C   0  0  0  0  0  0  0  0  0  0  0  0
  -13.2007   14.7626  -39.2261 C   0  0  2  0  0  0  0  0  0  0  0  0
  -12.7520   15.7622  -37.2305 C   0  0  2  0  0  0  0  0  0  0  0  0
  -11.7152   16.1683  -38.2241 C   0  0  2  0  0  0  0  0  0  0  0  0
  -12.3168   16.0019  -39.6025 C   0  0  1  0  0  0  0  0  0  0  0  0
  -11.6313   14.8268  -37.5574 C   0  0  1  0  0  0  0  0  0  0  0  0
   -7.9706   14.9269  -35.5331 C   0  0  0  0  0  0  0  0  0  0  0  0
   -7.1526   14.3177  -37.8285 C   0  0  0  0  0  0  0  0  0  0  0  0
   -8.5929   16.3509  -37.5129 C   0  0  0  0  0  0  0  0  0  0  0  0
   -8.2967   14.9332  -37.0259 C   0  0  0  0  0  0  0  0  0  0  0  0
  -11.3241   15.7758  -40.6363 N   0  0  0  0  0  0  0  0  0  0  0  0
  -10.7206   14.6391  -35.3764 O   0  0  0  0  0  0  0  0  0  0  0  0
   -9.4582   14.1254  -37.2416 O   0  0  0  0  0  0  0  0  0  0  0  0
  -14.6370   16.1529  -38.2468 H   0  0  0  0  0  0  0  0  0  0  0  0
  -14.5362   14.5379  -37.4603 H   0  0  0  0  0  0  0  0  0  0  0  0
  -12.6819   12.9757  -38.0135 H   0  0  0  0  0  0  0  0  0  0  0  0
  -11.4207   13.4064  -39.2080 H   0  0  0  0  0  0  0  0  0  0  0  0
  -13.8069   14.3326  -40.0239 H   0  0  0  0  0  0  0  0  0  0  0  0
  -12.8626   16.2435  -36.2784 H   0  0  0  0  0  0  0  0  0  0  0  0
  -11.0343   16.9756  -38.0314 H   0  0  0  0  0  0  0  0  0  0  0  0
  -12.9399   16.8638  -39.8672 H   0  0  0  0  0  0  0  0  0  0  0  0
   -8.7894   15.3680  -34.9535 H   0  0  0  0  0  0  0  0  0  0  0  0
   -7.7904   13.9121  -35.1638 H   0  0  0  0  0  0  0  0  0  0  0  0
   -7.0822   15.5340  -35.3244 H   0  0  0  0  0  0  0  0  0  0  0  0
   -7.3823   14.3201  -38.9001 H   0  0  0  0  0  0  0  0  0  0  0  0
   -6.9989   13.2693  -37.5481 H   0  0  0  0  0  0  0  0  0  0  0  0
   -6.2137   14.8591  -37.6740 H   0  0  0  0  0  0  0  0  0  0  0  0
   -8.8269   16.3557  -38.5836 H   0  0  0  0  0  0  0  0  0  0  0  0
   -9.4355   16.7950  -36.9731 H   0  0  0  0  0  0  0  0  0  0  0  0
   -7.7174   16.9978  -37.3848 H   0  0  0  0  0  0  0  0  0  0  0  0
  -11.7926   15.5991  -41.4967 H   0  0  0  0  0  0  0  0  0  0  0  0
  -10.7547   16.5885  -40.7156 H   0  0  0  0  0  0  0  0  0  0  0  0
  1  8  1  0  0  0  0
  1 14  2  0  0  0  0
  1 15  1  0  0  0  0
  2  4  1  0  0  0  0
  2  5  1  0  0  0  0
  3  4  1  0  0  0  0
  3  8  1  0  0  0  0
  4  7  1  0  0  0  0
  5  6  1  0  0  0  0
  5  8  1  0  0  0  0
  6  7  1  0  0  0  0
  6  8  1  0  0  0  0
  7 13  1  0  0  0  0
  9 12  1  0  0  0  0
 10 12  1  0  0  0  0
 11 12  1  0  0  0  0
 12 15  1  0  0  0  0
  2 16  1  0  0  0  0
  2 17  1  0  0  0  0
  3 18  1  0  0  0  0
  3 19  1  0  0  0  0
  4 20  1  0  0  0  0
  5 21  1  0  0  0  0
  6 22  1  0  0  0  0
  7 23  1  0  0  0  0
  9 24  1  0  0  0  0
  9 25  1  0  0  0  0
  9 26  1  0  0  0  0
 10 27  1  0  0  0  0
 10 28  1  0  0  0  0
 10 29  1  0  0  0  0
 11 30  1  0  0  0  0
 11 31  1  0  0  0  0
 11 32  1  0  0  0  0
 13 33  1  0  0  0  0
 13 34  1  0  0  0  0
M  END
> <id>
EN300-27729092

> <smiles>
CC(C)(C)OC(=O)C12CC3CC2C1C3N

> <IUPAC Name>
tert-butyl 3-aminotricyclo[2.2.1.0,2,6]heptane-1-carboxylate

> <CAS>
2580214-88-4

> <URL>
https://www.enaminestore.com/catalog/EN300-27729092

> <ROCS_ShapeQuery>
_x1247relevant_x1083L0AP1_x1305L0BP1_

> <ROCS_TanimotoCombo>
0.825 

> <ROCS_ShapeTanimoto>
0.493 

> <ROCS_ColorTanimoto>
0.332 

> <ROCS_RefTversky>
0.420 

> <ROCS_RefColorTversky>
0.601 

> <ROCS_RefTverskyCombo>
1.021 

> <ROCS_FitTversky>
1.546 

> <ROCS_FitColorTversky>
0.426 

> <ROCS_FitTverskyCombo>
1.972 

> <ROCS_ColorScore>
-13.432

> <ROCS_Overlap>
1236.750

> <ROCS_Rank>
340                 

$$$$
untitled-dbase-141373_9
  -OEChem-06232314393D

 23 24  0     1  0  0  0  0  0999 V2000
  -13.3852   16.4279  -40.2787 C   0  0  0  0  0  0  0  0  0  0  0  0
  -12.8678   14.1191  -39.0162 C   0  0  0  0  0  0  0  0  0  0  0  0
  -13.9141   15.4746  -37.8280 C   0  0  0  0  0  0  0  0  0  0  0  0
  -11.5354   15.3361  -37.2936 C   0  0  1  0  0  0  0  0  0  0  0  0
  -12.9194   15.6949  -39.0315 C   0  0  0  0  0  0  0  0  0  0  0  0
  -12.7837   14.4351  -37.4741 C   0  0  0  0  0  0  0  0  0  0  0  0
  -13.0461   13.3813  -36.4385 C   0  0  0  0  0  0  0  0  0  0  0  0
  -10.2188   14.5876  -37.3247 C   0  0  0  0  0  0  0  0  0  0  0  0
  -12.7149   17.2283  -40.9139 O   0  0  0  0  0  0  0  0  0  0  0  0
  -11.6679   16.1710  -38.4589 O   0  0  0  0  0  0  0  0  0  0  0  0
  -14.6552   16.0754  -40.5950 O   0  0  0  0  0  0  0  0  0  0  0  0
  -10.1053   13.7871  -36.2486 F   0  0  0  0  0  0  0  0  0  0  0  0
  -10.1347   13.8260  -38.4312 F   0  0  0  0  0  0  0  0  0  0  0  0
   -9.1854   15.4499  -37.3232 F   0  0  0  0  0  0  0  0  0  0  0  0
  -13.7609   13.5882  -39.3655 H   0  0  0  0  0  0  0  0  0  0  0  0
  -11.9858   13.6633  -39.4732 H   0  0  0  0  0  0  0  0  0  0  0  0
  -14.0268   16.3159  -37.1373 H   0  0  0  0  0  0  0  0  0  0  0  0
  -14.9052   15.0724  -38.0673 H   0  0  0  0  0  0  0  0  0  0  0  0
  -11.6135   15.9597  -36.3958 H   0  0  0  0  0  0  0  0  0  0  0  0
  -12.9406   13.7883  -35.4241 H   0  0  0  0  0  0  0  0  0  0  0  0
  -12.3424   12.5443  -36.5384 H   0  0  0  0  0  0  0  0  0  0  0  0
  -14.0629   12.9776  -36.5335 H   0  0  0  0  0  0  0  0  0  0  0  0
  -15.0216   15.4202  -39.9635 H   0  0  0  0  0  0  0  0  0  0  0  0
  1  5  1  1  0  0  0
  1  9  2  0  0  0  0
  1 11  1  0  0  0  0
  2  5  1  0  0  0  0
  2  6  1  0  0  0  0
  3  5  1  0  0  0  0
  3  6  1  0  0  0  0
  4  6  1  0  0  0  0
  4  8  1  0  0  0  0
  4 10  1  0  0  0  0
  5 10  1  0  0  0  0
  6  7  1  1  0  0  0
  8 12  1  0  0  0  0
  8 13  1  0  0  0  0
  8 14  1  0  0  0  0
  2 15  1  0  0  0  0
  2 16  1  0  0  0  0
  3 17  1  0  0  0  0
  3 18  1  0  0  0  0
  4 19  1  0  0  0  0
  7 20  1  0  0  0  0
  7 21  1  0  0  0  0
  7 22  1  0  0  0  0
 11 23  1  0  0  0  0
M  END
> <id>
EN300-39870243

> <smiles>
C[C@]1(C[C@]2(C1)C(=O)O)C(O2)C(F)(F)F

> <IUPAC Name>
4-methyl-3-(trifluoromethyl)-2-oxabicyclo[2.1.1]hexane-1-carboxylic acid

> <URL>
https://www.enaminestore.com/catalog/EN300-39870243

> <ROCS_ShapeQuery>
_x1247relevant_x1083L0AP1_x1305L0BP1_

> <ROCS_TanimotoCombo>
0.825 

> <ROCS_ShapeTanimoto>
0.507 

> <ROCS_ColorTanimoto>
0.318 

> <ROCS_RefTversky>
0.423 

> <ROCS_RefColorTversky>
0.370 

> <ROCS_RefTverskyCombo>
0.794 

> <ROCS_FitTversky>
1.636 

> <ROCS_FitColorTversky>
0.695 

> <ROCS_FitTverskyCombo>
2.331 

> <ROCS_ColorScore>
-7.882

> <ROCS_Overlap>
1246.181

> <ROCS_Rank>
341                 

$$$$
untitled-dbase-146701_117
  -OEChem-06232314393D

 37 38  0     1  0  0  0  0  0999 V2000
   -9.8039   14.9065  -37.1585 C   0  0  0  0  0  0  0  0  0  0  0  0
  -13.1741   14.5791  -36.9491 C   0  0  0  0  0  0  0  0  0  0  0  0
  -13.7114   15.8591  -37.6245 C   0  0  0  0  0  0  0  0  0  0  0  0
  -12.6989   14.4702  -39.2746 C   0  0  0  0  0  0  0  0  0  0  0  0
  -11.4106   16.3205  -38.5250 C   0  0  0  0  0  0  0  0  0  0  0  0
  -12.0753   14.1217  -37.9221 C   0  0  1  0  0  0  0  0  0  0  0  0
  -12.8592   15.9562  -38.9144 C   0  0  2  0  0  0  0  0  0  0  0  0
  -10.2726   14.8003  -34.5838 C   0  0  0  0  0  0  0  0  0  0  0  0
  -10.2520   12.2927  -34.7290 C   0  0  0  0  0  0  0  0  0  0  0  0
   -8.0940   13.5709  -34.8604 C   0  0  0  0  0  0  0  0  0  0  0  0
  -13.4517   16.8337  -39.9921 C   0  0  0  0  0  0  0  0  0  0  0  0
   -9.5839   13.5830  -35.1992 C   0  0  0  0  0  0  0  0  0  0  0  0
  -10.9904   15.1034  -37.8332 N   0  0  0  0  0  0  0  0  0  0  0  0
   -8.9212   15.7540  -37.0488 O   0  0  0  0  0  0  0  0  0  0  0  0
  -14.7157   16.3108  -40.3754 O   0  0  0  0  0  0  0  0  0  0  0  0
   -9.7273   13.6493  -36.6223 O   0  0  0  0  0  0  0  0  0  0  0  0
  -12.7929   14.7719  -35.9411 H   0  0  0  0  0  0  0  0  0  0  0  0
  -13.9690   13.8281  -36.8769 H   0  0  0  0  0  0  0  0  0  0  0  0
  -14.7775   15.7429  -37.8517 H   0  0  0  0  0  0  0  0  0  0  0  0
  -13.5934   16.7373  -36.9811 H   0  0  0  0  0  0  0  0  0  0  0  0
  -12.0205   14.2970  -40.1174 H   0  0  0  0  0  0  0  0  0  0  0  0
  -13.6510   13.9610  -39.4591 H   0  0  0  0  0  0  0  0  0  0  0  0
  -10.7580   16.4670  -39.3925 H   0  0  0  0  0  0  0  0  0  0  0  0
  -11.3343   17.1844  -37.8575 H   0  0  0  0  0  0  0  0  0  0  0  0
  -11.7382   13.0932  -37.7810 H   0  0  0  0  0  0  0  0  0  0  0  0
   -9.7960   15.7284  -34.9188 H   0  0  0  0  0  0  0  0  0  0  0  0
  -11.3344   14.8395  -34.8482 H   0  0  0  0  0  0  0  0  0  0  0  0
  -10.1884   14.7864  -33.4911 H   0  0  0  0  0  0  0  0  0  0  0  0
   -9.7610   11.4167  -35.1681 H   0  0  0  0  0  0  0  0  0  0  0  0
  -11.2984   12.2547  -35.0528 H   0  0  0  0  0  0  0  0  0  0  0  0
  -10.2227   12.1965  -33.6389 H   0  0  0  0  0  0  0  0  0  0  0  0
   -7.5997   12.6978  -35.3017 H   0  0  0  0  0  0  0  0  0  0  0  0
   -7.5906   14.4729  -35.2230 H   0  0  0  0  0  0  0  0  0  0  0  0
   -7.9411   13.4982  -33.7775 H   0  0  0  0  0  0  0  0  0  0  0  0
  -12.8008   16.8578  -40.8725 H   0  0  0  0  0  0  0  0  0  0  0  0
  -13.5919   17.8559  -39.6251 H   0  0  0  0  0  0  0  0  0  0  0  0
  -15.0646   16.8976  -41.0660 H   0  0  0  0  0  0  0  0  0  0  0  0
  1 13  1  0  0  0  0
  1 14  2  0  0  0  0
  1 16  1  0  0  0  0
  2  3  1  0  0  0  0
  2  6  1  0  0  0  0
  3  7  1  0  0  0  0
  4  6  1  0  0  0  0
  4  7  1  0  0  0  0
  5  7  1  0  0  0  0
  5 13  1  0  0  0  0
  6 13  1  0  0  0  0
  7 11  1  0  0  0  0
  8 12  1  0  0  0  0
  9 12  1  0  0  0  0
 10 12  1  0  0  0  0
 11 15  1  0  0  0  0
 12 16  1  0  0  0  0
  2 17  1  0  0  0  0
  2 18  1  0  0  0  0
  3 19  1  0  0  0  0
  3 20  1  0  0  0  0
  4 21  1  0  0  0  0
  4 22  1  0  0  0  0
  5 23  1  0  0  0  0
  5 24  1  0  0  0  0
  6 25  1  0  0  0  0
  8 26  1  0  0  0  0
  8 27  1  0  0  0  0
  8 28  1  0  0  0  0
  9 29  1  0  0  0  0
  9 30  1  0  0  0  0
  9 31  1  0  0  0  0
 10 32  1  0  0  0  0
 10 33  1  0  0  0  0
 10 34  1  0  0  0  0
 11 35  1  0  0  0  0
 11 36  1  0  0  0  0
 15 37  1  0  0  0  0
M  END
> <id>
EN300-27747647

> <smiles>
CC(C)(C)OC(=O)N1CC2(CO)CCC1C2

> <MDLNUMBER>
MFCD34595767

> <IUPAC Name>
tert-butyl 4-(hydroxymethyl)-2-azabicyclo[2.2.1]heptane-2-carboxylate

> <CAS>
2639462-11-4

> <Purity>
95

> <URL>
https://www.enaminestore.com/catalog/EN300-27747647

> <ROCS_ShapeQuery>
_x1247relevant_x1083L0AP1_x1305L0BP1_

> <ROCS_TanimotoCombo>
0.825 

> <ROCS_ShapeTanimoto>
0.499 

> <ROCS_ColorTanimoto>
0.327 

> <ROCS_RefTversky>
0.426 

> <ROCS_RefColorTversky>
0.373 

> <ROCS_RefTverskyCombo>
0.799 

> <ROCS_FitTversky>
1.517 

> <ROCS_FitColorTversky>
0.725 

> <ROCS_FitTverskyCombo>
2.242 

> <ROCS_ColorScore>
-7.932

> <ROCS_Overlap>
1255.891

> <ROCS_Rank>
342                 

$$$$
untitled-dbase-56939_1
  -OEChem-06232314393D

 27 28  0     0  0  0  0  0  0999 V2000
  -15.2834   14.0131  -40.5816 C   0  0  0  0  0  0  0  0  0  0  0  0
  -14.4335   14.4541  -39.8576 C   0  0  0  0  0  0  0  0  0  0  0  0
  -10.5423   14.4276  -36.7890 C   0  0  0  0  0  0  0  0  0  0  0  0
  -12.3990   15.9220  -39.6863 C   0  0  0  0  0  0  0  0  0  0  0  0
  -13.9532   15.6967  -37.7248 C   0  0  0  0  0  0  0  0  0  0  0  0
  -11.1953   15.9222  -38.7294 C   0  0  0  0  0  0  0  0  0  0  0  0
  -12.7461   15.6990  -36.7722 C   0  0  0  0  0  0  0  0  0  0  0  0
  -12.4736   13.9434  -38.3636 C   0  0  0  0  0  0  0  0  0  0  0  0
  -13.4025   14.9898  -38.9791 C   0  0  0  0  0  0  0  0  0  0  0  0
  -11.6609   14.9897  -37.5987 C   0  0  0  0  0  0  0  0  0  0  0  0
   -8.5894   13.1062  -36.9436 C   0  0  0  0  0  0  0  0  0  0  0  0
  -10.4121   14.6036  -35.5852 O   0  0  0  0  0  0  0  0  0  0  0  0
   -9.7135   13.7056  -37.5957 O   0  0  0  0  0  0  0  0  0  0  0  0
  -16.0373   13.6216  -41.2239 H   0  0  0  0  0  0  0  0  0  0  0  0
  -12.7985   16.9307  -39.8390 H   0  0  0  0  0  0  0  0  0  0  0  0
  -12.0992   15.5316  -40.6667 H   0  0  0  0  0  0  0  0  0  0  0  0
  -14.7853   15.1413  -37.2748 H   0  0  0  0  0  0  0  0  0  0  0  0
  -14.3074   16.7117  -37.9361 H   0  0  0  0  0  0  0  0  0  0  0  0
  -10.3033   15.5342  -39.2354 H   0  0  0  0  0  0  0  0  0  0  0  0
  -10.9607   16.9303  -38.3711 H   0  0  0  0  0  0  0  0  0  0  0  0
  -12.4568   16.7156  -36.4849 H   0  0  0  0  0  0  0  0  0  0  0  0
  -12.9817   15.1488  -35.8535 H   0  0  0  0  0  0  0  0  0  0  0  0
  -12.9849   13.2255  -37.7108 H   0  0  0  0  0  0  0  0  0  0  0  0
  -11.8845   13.3850  -39.1014 H   0  0  0  0  0  0  0  0  0  0  0  0
   -7.9942   12.5546  -37.6754 H   0  0  0  0  0  0  0  0  0  0  0  0
   -8.9397   12.4306  -36.1592 H   0  0  0  0  0  0  0  0  0  0  0  0
   -7.9764   13.8928  -36.4973 H   0  0  0  0  0  0  0  0  0  0  0  0
  1  2  3  0  0  0  0
  2  9  1  0  0  0  0
  3 10  1  0  0  0  0
  3 12  2  0  0  0  0
  3 13  1  0  0  0  0
  4  6  1  0  0  0  0
  4  9  1  0  0  0  0
  5  7  1  0  0  0  0
  5  9  1  0  0  0  0
  6 10  1  0  0  0  0
  7 10  1  0  0  0  0
  8  9  1  0  0  0  0
  8 10  1  0  0  0  0
 11 13  1  0  0  0  0
  1 14  1  0  0  0  0
  4 15  1  0  0  0  0
  4 16  1  0  0  0  0
  5 17  1  0  0  0  0
  5 18  1  0  0  0  0
  6 19  1  0  0  0  0
  6 20  1  0  0  0  0
  7 21  1  0  0  0  0
  7 22  1  0  0  0  0
  8 23  1  0  0  0  0
  8 24  1  0  0  0  0
 11 25  1  0  0  0  0
 11 26  1  0  0  0  0
 11 27  1  0  0  0  0
M  END
> <id>
EN300-200920

> <smiles>
COC(=O)C1(CCC2(CC1)C#C)C2

> <MDLNUMBER>
MFCD30300407

> <IUPAC Name>
methyl 4-ethynylbicyclo[2.2.1]heptane-1-carboxylate

> <CAS>
1936274-35-9

> <Purity>
95

> <URL>
https://www.enaminestore.com/catalog/EN300-200920

> <ROCS_ShapeQuery>
_x1247relevant_x1083L0AP1_x1305L0BP1_

> <ROCS_TanimotoCombo>
0.825 

> <ROCS_ShapeTanimoto>
0.488 

> <ROCS_ColorTanimoto>
0.337 

> <ROCS_RefTversky>
0.406 

> <ROCS_RefColorTversky>
0.359 

> <ROCS_RefTverskyCombo>
0.765 

> <ROCS_FitTversky>
1.703 

> <ROCS_FitColorTversky>
0.845 

> <ROCS_FitTverskyCombo>
2.549 

> <ROCS_ColorScore>
-7.602

> <ROCS_Overlap>
1194.716

> <ROCS_Rank>
343                 

$$$$
untitled-dbase-66664_117
  -OEChem-06232314393D

 37 38  0     1  0  0  0  0  0999 V2000
   -9.8035   14.9083  -37.1591 C   0  0  0  0  0  0  0  0  0  0  0  0
  -13.1732   14.5794  -36.9493 C   0  0  0  0  0  0  0  0  0  0  0  0
  -13.7113   15.8592  -37.6242 C   0  0  0  0  0  0  0  0  0  0  0  0
  -12.6988   14.4710  -39.2750 C   0  0  0  0  0  0  0  0  0  0  0  0
  -11.4108   16.3216  -38.5254 C   0  0  0  0  0  0  0  0  0  0  0  0
  -12.0745   14.1224  -37.9229 C   0  0  1  0  0  0  0  0  0  0  0  0
  -12.8594   15.9569  -38.9143 C   0  0  2  0  0  0  0  0  0  0  0  0
  -10.2729   14.7992  -34.5846 C   0  0  0  0  0  0  0  0  0  0  0  0
  -10.2501   12.2918  -34.7322 C   0  0  0  0  0  0  0  0  0  0  0  0
   -8.0931   13.5719  -34.8617 C   0  0  0  0  0  0  0  0  0  0  0  0
  -13.4526   16.8347  -39.9916 C   0  0  0  0  0  0  0  0  0  0  0  0
   -9.5829   13.5831  -35.2009 C   0  0  0  0  0  0  0  0  0  0  0  0
  -10.9898   15.1045  -37.8342 N   0  0  0  0  0  0  0  0  0  0  0  0
   -8.9216   15.7564  -37.0484 O   0  0  0  0  0  0  0  0  0  0  0  0
  -14.7167   16.3116  -40.3747 O   0  0  0  0  0  0  0  0  0  0  0  0
   -9.7260   13.6506  -36.6240 O   0  0  0  0  0  0  0  0  0  0  0  0
  -12.7917   14.7723  -35.9413 H   0  0  0  0  0  0  0  0  0  0  0  0
  -13.9677   13.8283  -36.8768 H   0  0  0  0  0  0  0  0  0  0  0  0
  -14.7773   15.7426  -37.8513 H   0  0  0  0  0  0  0  0  0  0  0  0
  -13.5934   16.7375  -36.9807 H   0  0  0  0  0  0  0  0  0  0  0  0
  -12.0207   14.2984  -40.1182 H   0  0  0  0  0  0  0  0  0  0  0  0
  -13.6510   13.9614  -39.4595 H   0  0  0  0  0  0  0  0  0  0  0  0
  -10.7585   16.4687  -39.3930 H   0  0  0  0  0  0  0  0  0  0  0  0
  -11.3347   17.1852  -37.8576 H   0  0  0  0  0  0  0  0  0  0  0  0
  -11.7370   13.0940  -37.7820 H   0  0  0  0  0  0  0  0  0  0  0  0
   -9.7969   15.7281  -34.9186 H   0  0  0  0  0  0  0  0  0  0  0  0
  -11.3346   14.8378  -34.8493 H   0  0  0  0  0  0  0  0  0  0  0  0
  -10.1889   14.7844  -33.4919 H   0  0  0  0  0  0  0  0  0  0  0  0
   -9.7582   11.4167  -35.1719 H   0  0  0  0  0  0  0  0  0  0  0  0
  -11.2964   12.2532  -35.0563 H   0  0  0  0  0  0  0  0  0  0  0  0
  -10.2210   12.1946  -33.6421 H   0  0  0  0  0  0  0  0  0  0  0  0
   -7.5979   12.6997  -35.3037 H   0  0  0  0  0  0  0  0  0  0  0  0
   -7.5903   14.4748  -35.2233 H   0  0  0  0  0  0  0  0  0  0  0  0
   -7.9405   13.4984  -33.7789 H   0  0  0  0  0  0  0  0  0  0  0  0
  -12.8021   16.8593  -40.8723 H   0  0  0  0  0  0  0  0  0  0  0  0
  -13.5930   17.8568  -39.6242 H   0  0  0  0  0  0  0  0  0  0  0  0
  -15.0659   16.8986  -41.0649 H   0  0  0  0  0  0  0  0  0  0  0  0
  1 13  1  0  0  0  0
  1 14  2  0  0  0  0
  1 16  1  0  0  0  0
  2  3  1  0  0  0  0
  2  6  1  1  0  0  0
  3  7  1  0  0  0  0
  4  6  1  0  0  0  0
  4  7  1  0  0  0  0
  5  7  1  0  0  0  0
  5 13  1  0  0  0  0
  6 13  1  0  0  0  0
  7 11  1  6  0  0  0
  8 12  1  0  0  0  0
  9 12  1  0  0  0  0
 10 12  1  0  0  0  0
 11 15  1  0  0  0  0
 12 16  1  0  0  0  0
  2 17  1  0  0  0  0
  2 18  1  0  0  0  0
  3 19  1  0  0  0  0
  3 20  1  0  0  0  0
  4 21  1  0  0  0  0
  4 22  1  0  0  0  0
  5 23  1  0  0  0  0
  5 24  1  0  0  0  0
  6 25  1  0  0  0  0
  8 26  1  0  0  0  0
  8 27  1  0  0  0  0
  8 28  1  0  0  0  0
  9 29  1  0  0  0  0
  9 30  1  0  0  0  0
  9 31  1  0  0  0  0
 10 32  1  0  0  0  0
 10 33  1  0  0  0  0
 10 34  1  0  0  0  0
 11 35  1  0  0  0  0
 11 36  1  0  0  0  0
 15 37  1  0  0  0  0
M  END
> <id>
EN300-37267424

> <smiles>
CC(C)(C)OC(=O)N1C[C@]2(CO)CC[C@H]1C2

> <IUPAC Name>
tert-butyl (1S,4S)-4-(hydroxymethyl)-2-azabicyclo[2.2.1]heptane-2-carboxylate

> <CAS>
2031259-84-2

> <URL>
https://www.enaminestore.com/catalog/EN300-37267424

> <ROCS_ShapeQuery>
_x1247relevant_x1083L0AP1_x1305L0BP1_

> <ROCS_TanimotoCombo>
0.825 

> <ROCS_ShapeTanimoto>
0.499 

> <ROCS_ColorTanimoto>
0.327 

> <ROCS_RefTversky>
0.426 

> <ROCS_RefColorTversky>
0.373 

> <ROCS_RefTverskyCombo>
0.799 

> <ROCS_FitTversky>
1.517 

> <ROCS_FitColorTversky>
0.725 

> <ROCS_FitTverskyCombo>
2.242 

> <ROCS_ColorScore>
-7.932

> <ROCS_Overlap>
1255.829

> <ROCS_Rank>
344                 

$$$$
untitled-dbase-137305_4
  -OEChem-06232314393D

 23 25  0     1  0  0  0  0  0999 V2000
  -13.3178   16.4335  -38.2039 C   0  0  0  0  0  0  0  0  0  0  0  0
  -11.0770   16.0281  -38.9025 C   0  0  0  0  0  0  0  0  0  0  0  0
  -12.5344   15.8275  -39.3845 C   0  0  1  0  0  0  0  0  0  0  0  0
  -12.6924   15.4600  -37.1819 C   0  0  2  0  0  0  0  0  0  0  0  0
  -11.1946   15.8337  -37.3629 C   0  0  1  0  0  0  0  0  0  0  0  0
  -12.8378   14.3413  -39.2764 C   0  0  1  0  0  0  0  0  0  0  0  0
  -12.9483   14.0970  -37.8089 C   0  0  2  0  0  0  0  0  0  0  0  0
  -10.1969   14.8354  -36.7974 C   0  0  0  0  0  0  0  0  0  0  0  0
  -10.3965   13.5544  -37.3923 N   0  0  0  0  0  0  0  0  0  0  0  0
  -14.0787   13.9578  -38.6772 O   0  0  0  0  0  0  0  0  0  0  0  0
  -13.0783   17.4854  -38.0140 H   0  0  0  0  0  0  0  0  0  0  0  0
  -14.4029   16.3228  -38.3002 H   0  0  0  0  0  0  0  0  0  0  0  0
  -10.3856   15.3190  -39.3701 H   0  0  0  0  0  0  0  0  0  0  0  0
  -10.7342   17.0455  -39.1228 H   0  0  0  0  0  0  0  0  0  0  0  0
  -12.7540   16.2559  -40.3637 H   0  0  0  0  0  0  0  0  0  0  0  0
  -13.0672   15.5604  -36.1615 H   0  0  0  0  0  0  0  0  0  0  0  0
  -11.0148   16.8022  -36.8763 H   0  0  0  0  0  0  0  0  0  0  0  0
  -12.2894   13.6638  -39.9085 H   0  0  0  0  0  0  0  0  0  0  0  0
  -12.5099   13.2299  -37.3465 H   0  0  0  0  0  0  0  0  0  0  0  0
   -9.1962   15.2063  -37.0223 H   0  0  0  0  0  0  0  0  0  0  0  0
  -10.3585   14.7825  -35.7200 H   0  0  0  0  0  0  0  0  0  0  0  0
  -10.2922   13.6172  -38.3886 H   0  0  0  0  0  0  0  0  0  0  0  0
   -9.7233   12.9009  -37.0360 H   0  0  0  0  0  0  0  0  0  0  0  0
  1  3  1  0  0  0  0
  1  4  1  0  0  0  0
  2  3  1  0  0  0  0
  2  5  1  0  0  0  0
  3  6  1  0  0  0  0
  4  5  1  0  0  0  0
  4  7  1  0  0  0  0
  5  8  1  0  0  0  0
  6  7  1  0  0  0  0
  6 10  1  0  0  0  0
  7 10  1  0  0  0  0
  8  9  1  0  0  0  0
  1 11  1  0  0  0  0
  1 12  1  0  0  0  0
  2 13  1  0  0  0  0
  2 14  1  0  0  0  0
  3 15  1  0  0  0  0
  4 16  1  0  0  0  0
  5 17  1  0  0  0  0
  6 18  1  0  0  0  0
  7 19  1  0  0  0  0
  8 20  1  0  0  0  0
  8 21  1  0  0  0  0
  9 22  1  0  0  0  0
  9 23  1  0  0  0  0
M  END
> <id>
EN300-217481

> <smiles>
NCC1CC2CC1C3OC32

> <MDLNUMBER>
MFCD24499044

> <IUPAC Name>
{3-oxatricyclo[3.2.1.0,2,4]octan-6-yl}methanamine

> <CAS>
220555-34-0

> <URL>
https://www.enaminestore.com/catalog/EN300-217481

> <ROCS_ShapeQuery>
_x1247relevant_x1083L0AP1_x1305L0BP1_

> <ROCS_TanimotoCombo>
0.825 

> <ROCS_ShapeTanimoto>
0.419 

> <ROCS_ColorTanimoto>
0.406 

> <ROCS_RefTversky>
0.354 

> <ROCS_RefColorTversky>
0.558 

> <ROCS_RefTverskyCombo>
0.911 

> <ROCS_FitTversky>
1.789 

> <ROCS_FitColorTversky>
0.599 

> <ROCS_FitTverskyCombo>
2.388 

> <ROCS_ColorScore>
-12.139

> <ROCS_Overlap>
1037.764

> <ROCS_Rank>
345                 

$$$$
untitled-dbase-59434_0
  -OEChem-06232314393D

 32 34  0     1  0  0  0  0  0999 V2000
  -13.1175   14.0511  -39.1411 C   0  0  0  0  0  0  0  0  0  0  0  0
  -13.1030   13.9453  -37.8043 C   0  0  0  0  0  0  0  0  0  0  0  0
   -7.9757   14.7277  -36.3836 C   0  0  0  0  0  0  0  0  0  0  0  0
   -8.8281   14.4618  -35.1427 C   0  0  0  0  0  0  0  0  0  0  0  0
   -8.9108   15.3594  -37.4137 C   0  0  0  0  0  0  0  0  0  0  0  0
  -10.2360   14.9485  -35.4826 C   0  0  0  0  0  0  0  0  0  0  0  0
  -13.6357   16.1379  -38.2958 C   0  0  0  0  0  0  0  0  0  0  0  0
  -11.4228   15.8451  -39.1341 C   0  0  0  0  0  0  0  0  0  0  0  0
  -12.8915   15.5062  -39.4764 C   0  0  1  0  0  0  0  0  0  0  0  0
  -12.8583   15.3294  -37.2489 C   0  0  2  0  0  0  0  0  0  0  0  0
  -11.4093   15.7791  -37.5749 C   0  0  1  0  0  0  0  0  0  0  0  0
  -10.3110   14.8829  -37.0119 C   0  0  0  0  0  0  0  0  0  0  0  0
  -10.5326   13.5184  -37.4542 N   0  0  0  0  0  0  0  0  0  0  0  0
  -13.2187   13.2425  -39.8470 H   0  0  0  0  0  0  0  0  0  0  0  0
  -13.1894   13.0355  -37.2323 H   0  0  0  0  0  0  0  0  0  0  0  0
   -7.1298   15.3864  -36.1611 H   0  0  0  0  0  0  0  0  0  0  0  0
   -7.5649   13.7853  -36.7640 H   0  0  0  0  0  0  0  0  0  0  0  0
   -8.8362   13.3892  -34.9173 H   0  0  0  0  0  0  0  0  0  0  0  0
   -8.4335   14.9773  -34.2611 H   0  0  0  0  0  0  0  0  0  0  0  0
   -8.8435   16.4522  -37.3388 H   0  0  0  0  0  0  0  0  0  0  0  0
   -8.6346   15.0857  -38.4375 H   0  0  0  0  0  0  0  0  0  0  0  0
  -11.0060   14.3517  -34.9823 H   0  0  0  0  0  0  0  0  0  0  0  0
  -10.3516   15.9840  -35.1382 H   0  0  0  0  0  0  0  0  0  0  0  0
  -13.4805   17.2198  -38.2147 H   0  0  0  0  0  0  0  0  0  0  0  0
  -14.7136   15.9308  -38.2962 H   0  0  0  0  0  0  0  0  0  0  0  0
  -10.7142   15.1503  -39.5987 H   0  0  0  0  0  0  0  0  0  0  0  0
  -11.1759   16.8609  -39.4632 H   0  0  0  0  0  0  0  0  0  0  0  0
  -13.2361   15.8098  -40.4652 H   0  0  0  0  0  0  0  0  0  0  0  0
  -13.1847   15.4789  -36.2189 H   0  0  0  0  0  0  0  0  0  0  0  0
  -11.2564   16.7948  -37.1853 H   0  0  0  0  0  0  0  0  0  0  0  0
  -10.4427   13.5022  -38.4398 H   0  0  0  0  0  0  0  0  0  0  0  0
   -9.8483   12.9473  -37.0237 H   0  0  0  0  0  0  0  0  0  0  0  0
  1  2  2  0  0  0  0
  1  9  1  0  0  0  0
  2 10  1  0  0  0  0
  3  4  1  0  0  0  0
  3  5  1  0  0  0  0
  4  6  1  0  0  0  0
  5 12  1  0  0  0  0
  6 12  1  0  0  0  0
  7  9  1  0  0  0  0
  7 10  1  0  0  0  0
  8  9  1  0  0  0  0
  8 11  1  0  0  0  0
 10 11  1  0  0  0  0
 11 12  1  0  0  0  0
 12 13  1  0  0  0  0
  1 14  1  0  0  0  0
  2 15  1  0  0  0  0
  3 16  1  0  0  0  0
  3 17  1  0  0  0  0
  4 18  1  0  0  0  0
  4 19  1  0  0  0  0
  5 20  1  0  0  0  0
  5 21  1  0  0  0  0
  6 22  1  0  0  0  0
  6 23  1  0  0  0  0
  7 24  1  0  0  0  0
  7 25  1  0  0  0  0
  8 26  1  0  0  0  0
  8 27  1  0  0  0  0
  9 28  1  0  0  0  0
 10 29  1  0  0  0  0
 11 30  1  0  0  0  0
 13 31  1  0  0  0  0
 13 32  1  0  0  0  0
M  END
> <id>
EN300-1820080

> <smiles>
NC1(CCCC1)C2CC3CC2C=C3

> <IUPAC Name>
1-{bicyclo[2.2.1]hept-5-en-2-yl}cyclopentan-1-amine

> <CAS>
2229195-03-1

> <URL>
https://www.enaminestore.com/catalog/EN300-1820080

> <ROCS_ShapeQuery>
_x1247relevant_x1083L0AP1_x1305L0BP1_

> <ROCS_TanimotoCombo>
0.825 

> <ROCS_ShapeTanimoto>
0.475 

> <ROCS_ColorTanimoto>
0.350 

> <ROCS_RefTversky>
0.400 

> <ROCS_RefColorTversky>
0.381 

> <ROCS_RefTverskyCombo>
0.781 

> <ROCS_FitTversky>
1.656 

> <ROCS_FitColorTversky>
0.810 

> <ROCS_FitTverskyCombo>
2.466 

> <ROCS_ColorScore>
-8.087

> <ROCS_Overlap>
1176.117

> <ROCS_Rank>
346                 

$$$$
untitled-dbase-69518_22
  -OEChem-06232314393D

 28 29  0     1  0  0  0  0  0999 V2000
  -13.2689   14.6716  -37.2534 C   0  0  0  0  0  0  0  0  0  0  0  0
  -14.2605   15.1432  -38.1135 C   0  0  0  0  0  0  0  0  0  0  0  0
  -11.9236   14.8697  -37.5646 C   0  0  0  0  0  0  0  0  0  0  0  0
  -13.9069   15.8129  -39.2849 C   0  0  0  0  0  0  0  0  0  0  0  0
  -11.5701   15.5393  -38.7360 C   0  0  0  0  0  0  0  0  0  0  0  0
  -12.5617   16.0109  -39.5962 C   0  0  0  0  0  0  0  0  0  0  0  0
   -8.6878   13.2920  -36.7772 C   0  0  0  0  0  0  0  0  0  0  0  0
   -8.0196   14.6353  -37.0665 C   0  0  0  0  0  0  0  0  0  0  0  0
   -9.9903   15.4893  -36.0430 C   0  0  0  0  0  0  0  0  0  0  0  0
  -10.8575   14.3495  -36.6150 C   0  0  2  0  0  0  0  0  0  0  0  0
  -10.0572   13.3031  -37.2698 N   0  0  0  0  0  0  0  0  0  0  0  0
   -8.8832   15.7625  -36.8974 O   0  0  0  0  0  0  0  0  0  0  0  0
  -14.8855   16.2684  -40.1160 O   0  0  0  0  0  0  0  0  0  0  0  0
  -10.2558   15.7346  -39.0435 O   0  0  0  0  0  0  0  0  0  0  0  0
  -12.2182   16.6670  -40.7412 O   0  0  0  0  0  0  0  0  0  0  0  0
  -13.5545   14.1504  -36.3436 H   0  0  0  0  0  0  0  0  0  0  0  0
  -15.3065   14.9851  -37.8656 H   0  0  0  0  0  0  0  0  0  0  0  0
   -8.1272   12.4855  -37.2562 H   0  0  0  0  0  0  0  0  0  0  0  0
   -8.6915   13.1002  -35.6998 H   0  0  0  0  0  0  0  0  0  0  0  0
   -7.1585   14.7753  -36.3816 H   0  0  0  0  0  0  0  0  0  0  0  0
   -7.5898   14.6594  -38.0925 H   0  0  0  0  0  0  0  0  0  0  0  0
  -10.5719   16.4108  -35.8900 H   0  0  0  0  0  0  0  0  0  0  0  0
   -9.5892   15.2015  -35.0621 H   0  0  0  0  0  0  0  0  0  0  0  0
  -11.4163   13.8647  -35.7746 H   0  0  0  0  0  0  0  0  0  0  0  0
  -10.0387   13.4853  -38.2791 H   0  0  0  0  0  0  0  0  0  0  0  0
  -15.7595   16.0503  -39.7558 H   0  0  0  0  0  0  0  0  0  0  0  0
  -10.1771   16.2121  -39.8837 H   0  0  0  0  0  0  0  0  0  0  0  0
  -13.0150   16.9305  -41.2269 H   0  0  0  0  0  0  0  0  0  0  0  0
  1  2  1  0  0  0  0
  1  3  2  0  0  0  0
  2  4  2  0  0  0  0
  3  5  1  0  0  0  0
  3 10  1  0  0  0  0
  4  6  1  0  0  0  0
  4 13  1  0  0  0  0
  5  6  2  0  0  0  0
  5 14  1  0  0  0  0
  6 15  1  0  0  0  0
  7  8  1  0  0  0  0
  7 11  1  0  0  0  0
  8 12  1  0  0  0  0
  9 10  1  0  0  0  0
  9 12  1  0  0  0  0
 10 11  1  0  0  0  0
  1 16  1  0  0  0  0
  2 17  1  0  0  0  0
  7 18  1  0  0  0  0
  7 19  1  0  0  0  0
  8 20  1  0  0  0  0
  8 21  1  0  0  0  0
  9 22  1  0  0  0  0
  9 23  1  0  0  0  0
 10 24  1  0  0  0  0
 11 25  1  0  0  0  0
 13 26  1  0  0  0  0
 14 27  1  0  0  0  0
 15 28  1  0  0  0  0
M  END
> <id>
EN300-1844673

> <smiles>
OC=1C=CC(C2COCCN2)=C(O)C1O

> <MDLNUMBER>
MFCD24657791

> <IUPAC Name>
4-(morpholin-3-yl)benzene-1,2,3-triol

> <CAS>
1337410-15-7

> <URL>
https://www.enaminestore.com/catalog/EN300-1844673

> <ROCS_ShapeQuery>
_x1247relevant_x1083L0AP1_x1305L0BP1_

> <ROCS_TanimotoCombo>
0.825 

> <ROCS_ShapeTanimoto>
0.522 

> <ROCS_ColorTanimoto>
0.303 

> <ROCS_RefTversky>
0.435 

> <ROCS_RefColorTversky>
0.359 

> <ROCS_RefTverskyCombo>
0.793 

> <ROCS_FitTversky>
1.621 

> <ROCS_FitColorTversky>
0.662 

> <ROCS_FitTverskyCombo>
2.283 

> <ROCS_ColorScore>
-7.639

> <ROCS_Overlap>
1280.809

> <ROCS_Rank>
347                 

$$$$
untitled-dbase-37811_2
  -OEChem-06232314393D

 26 27  0     0  0  0  0  0  0999 V2000
  -10.1649   15.2181  -36.7331 C   0  0  0  0  0  0  0  0  0  0  0  0
  -11.1446   15.9002  -38.9324 C   0  0  0  0  0  0  0  0  0  0  0  0
  -12.4786   16.1327  -36.8405 C   0  0  0  0  0  0  0  0  0  0  0  0
  -12.4284   15.8613  -39.7691 C   0  0  0  0  0  0  0  0  0  0  0  0
  -13.7819   16.0975  -37.6469 C   0  0  0  0  0  0  0  0  0  0  0  0
  -12.0067   13.8795  -37.7723 C   0  0  0  0  0  0  0  0  0  0  0  0
  -11.4181   15.2802  -37.5535 C   0  0  0  0  0  0  0  0  0  0  0  0
  -13.5776   15.2714  -38.9307 C   0  0  0  0  0  0  0  0  0  0  0  0
  -14.8655   15.1913  -39.7432 C   0  0  0  0  0  0  0  0  0  0  0  0
   -9.0657   15.6057  -37.1004 O   0  0  0  0  0  0  0  0  0  0  0  0
  -13.2127   13.9307  -38.5498 O   0  0  0  0  0  0  0  0  0  0  0  0
  -10.4139   14.6677  -35.5197 O   0  0  0  0  0  0  0  0  0  0  0  0
  -10.3439   15.3583  -39.4520 H   0  0  0  0  0  0  0  0  0  0  0  0
  -10.7935   16.9353  -38.8327 H   0  0  0  0  0  0  0  0  0  0  0  0
  -12.1342   17.1686  -36.7271 H   0  0  0  0  0  0  0  0  0  0  0  0
  -12.6596   15.7618  -35.8234 H   0  0  0  0  0  0  0  0  0  0  0  0
  -12.6758   16.8689  -40.1236 H   0  0  0  0  0  0  0  0  0  0  0  0
  -12.2502   15.2387  -40.6549 H   0  0  0  0  0  0  0  0  0  0  0  0
  -14.5647   15.6426  -37.0271 H   0  0  0  0  0  0  0  0  0  0  0  0
  -14.1051   17.1184  -37.8822 H   0  0  0  0  0  0  0  0  0  0  0  0
  -11.2984   13.2259  -38.2948 H   0  0  0  0  0  0  0  0  0  0  0  0
  -12.2446   13.3914  -36.8199 H   0  0  0  0  0  0  0  0  0  0  0  0
  -15.6646   14.7720  -39.1326 H   0  0  0  0  0  0  0  0  0  0  0  0
  -14.7154   14.5563  -40.6158 H   0  0  0  0  0  0  0  0  0  0  0  0
  -15.1579   16.1871  -40.0751 H   0  0  0  0  0  0  0  0  0  0  0  0
   -9.6046   14.6164  -34.9676 H   0  0  0  0  0  0  0  0  0  0  0  0
  1  7  1  0  0  0  0
  1 10  2  0  0  0  0
  1 12  1  0  0  0  0
  2  4  1  0  0  0  0
  2  7  1  0  0  0  0
  3  5  1  0  0  0  0
  3  7  1  0  0  0  0
  4  8  1  0  0  0  0
  5  8  1  0  0  0  0
  6  7  1  0  0  0  0
  6 11  1  0  0  0  0
  8  9  1  0  0  0  0
  8 11  1  0  0  0  0
  2 13  1  0  0  0  0
  2 14  1  0  0  0  0
  3 15  1  0  0  0  0
  3 16  1  0  0  0  0
  4 17  1  0  0  0  0
  4 18  1  0  0  0  0
  5 19  1  0  0  0  0
  5 20  1  0  0  0  0
  6 21  1  0  0  0  0
  6 22  1  0  0  0  0
  9 23  1  0  0  0  0
  9 24  1  0  0  0  0
  9 25  1  0  0  0  0
 12 26  1  0  0  0  0
M  END
> <id>
EN300-1073210

> <smiles>
CC1(CCC2(CC1)C(=O)O)OC2

> <MDLNUMBER>
MFCD31558768

> <IUPAC Name>
1-methyl-2-oxabicyclo[2.2.2]octane-4-carboxylic acid

> <CAS>
2138361-09-6

> <Purity>
95

> <URL>
https://www.enaminestore.com/catalog/EN300-1073210

> <ROCS_ShapeQuery>
_x1247relevant_x1083L0AP1_x1305L0BP1_

> <ROCS_TanimotoCombo>
0.825 

> <ROCS_ShapeTanimoto>
0.478 

> <ROCS_ColorTanimoto>
0.347 

> <ROCS_RefTversky>
0.396 

> <ROCS_RefColorTversky>
0.387 

> <ROCS_RefTverskyCombo>
0.783 

> <ROCS_FitTversky>
1.761 

> <ROCS_FitColorTversky>
0.772 

> <ROCS_FitTverskyCombo>
2.533 

> <ROCS_ColorScore>
-8.220

> <ROCS_Overlap>
1163.724

> <ROCS_Rank>
348                 

$$$$
untitled-dbase-143620_3
  -OEChem-06232314393D

 27 28  0     1  0  0  0  0  0999 V2000
  -10.3879   14.9160  -36.6331 C   0  0  0  0  0  0  0  0  0  0  0  0
  -14.1294   15.6064  -37.3660 C   0  0  0  0  0  0  0  0  0  0  0  0
  -14.1518   14.7842  -38.6597 C   0  0  0  0  0  0  0  0  0  0  0  0
  -12.1752   16.0888  -39.6284 C   0  0  0  0  0  0  0  0  0  0  0  0
  -12.8601   15.3490  -36.5463 C   0  0  0  0  0  0  0  0  0  0  0  0
  -11.4147   16.4523  -38.3492 C   0  0  0  0  0  0  0  0  0  0  0  0
  -12.7754   14.7124  -39.3448 C   0  0  1  0  0  0  0  0  0  0  0  0
  -11.6089   15.2404  -37.4351 C   0  0  1  0  0  0  0  0  0  0  0  0
   -8.0652   14.5243  -36.8210 C   0  0  0  0  0  0  0  0  0  0  0  0
  -11.7968   14.1507  -38.4040 N   0  0  0  0  0  0  0  0  0  0  0  0
  -10.3873   14.7572  -35.4198 O   0  0  0  0  0  0  0  0  0  0  0  0
   -9.3080   14.8308  -37.4610 O   0  0  0  0  0  0  0  0  0  0  0  0
  -14.1831   16.6725  -37.6189 H   0  0  0  0  0  0  0  0  0  0  0  0
  -15.0196   15.3908  -36.7644 H   0  0  0  0  0  0  0  0  0  0  0  0
  -14.4892   13.7658  -38.4268 H   0  0  0  0  0  0  0  0  0  0  0  0
  -14.8918   15.2107  -39.3470 H   0  0  0  0  0  0  0  0  0  0  0  0
  -12.9318   16.8381  -39.8825 H   0  0  0  0  0  0  0  0  0  0  0  0
  -11.4677   16.0321  -40.4647 H   0  0  0  0  0  0  0  0  0  0  0  0
  -12.7356   16.1480  -35.8047 H   0  0  0  0  0  0  0  0  0  0  0  0
  -12.9905   14.4211  -35.9725 H   0  0  0  0  0  0  0  0  0  0  0  0
  -10.3599   16.6328  -38.5899 H   0  0  0  0  0  0  0  0  0  0  0  0
  -11.8050   17.3747  -37.9048 H   0  0  0  0  0  0  0  0  0  0  0  0
  -12.8415   14.1092  -40.2556 H   0  0  0  0  0  0  0  0  0  0  0  0
   -7.2703   14.4797  -37.5696 H   0  0  0  0  0  0  0  0  0  0  0  0
   -8.1475   13.5650  -36.3039 H   0  0  0  0  0  0  0  0  0  0  0  0
   -7.8360   15.3086  -36.0957 H   0  0  0  0  0  0  0  0  0  0  0  0
  -12.1735   13.3206  -37.9480 H   0  0  0  0  0  0  0  0  0  0  0  0
  1  8  1  0  0  0  0
  1 11  2  0  0  0  0
  1 12  1  0  0  0  0
  2  3  1  0  0  0  0
  2  5  1  0  0  0  0
  3  7  1  0  0  0  0
  4  6  1  0  0  0  0
  4  7  1  0  0  0  0
  5  8  1  0  0  0  0
  6  8  1  0  0  0  0
  7 10  1  0  0  0  0
  8 10  1  0  0  0  0
  9 12  1  0  0  0  0
  2 13  1  0  0  0  0
  2 14  1  0  0  0  0
  3 15  1  0  0  0  0
  3 16  1  0  0  0  0
  4 17  1  0  0  0  0
  4 18  1  0  0  0  0
  5 19  1  0  0  0  0
  5 20  1  0  0  0  0
  6 21  1  0  0  0  0
  6 22  1  0  0  0  0
  7 23  1  0  0  0  0
  9 24  1  0  0  0  0
  9 25  1  0  0  0  0
  9 26  1  0  0  0  0
 10 27  1  0  0  0  0
M  END
> <id>
EN300-6489801

> <smiles>
COC(=O)C1(CCC2CCC1)N2

> <MDLNUMBER>
MFCD24508237

> <IUPAC Name>
methyl 8-azabicyclo[3.2.1]octane-1-carboxylate

> <CAS>
1822606-88-1

> <URL>
https://www.enaminestore.com/catalog/EN300-6489801

> <ROCS_ShapeQuery>
_x1247relevant_x1083L0AP1_x1305L0BP1_

> <ROCS_TanimotoCombo>
0.825 

> <ROCS_ShapeTanimoto>
0.447 

> <ROCS_ColorTanimoto>
0.378 

> <ROCS_RefTversky>
0.378 

> <ROCS_RefColorTversky>
0.397 

> <ROCS_RefTverskyCombo>
0.775 

> <ROCS_FitTversky>
1.689 

> <ROCS_FitColorTversky>
0.888 

> <ROCS_FitTverskyCombo>
2.577 

> <ROCS_ColorScore>
-8.406

> <ROCS_Overlap>
1110.498

> <ROCS_Rank>
349                 

$$$$
untitled-dbase-67878_7
  -OEChem-06232314393D

 25 27  0     1  0  0  0  0  0999 V2000
   -9.5618   15.2417  -36.2994 C   0  0  0  0  0  0  0  0  0  0  0  0
  -14.4352   15.5202  -38.8577 C   0  0  0  0  0  0  0  0  0  0  0  0
  -13.4599   16.6662  -39.1671 C   0  0  0  0  0  0  0  0  0  0  0  0
  -11.8059   13.2803  -36.9626 C   0  0  0  0  0  0  0  0  0  0  0  0
  -10.2863   14.9441  -37.5748 C   0  0  2  0  0  0  0  0  0  0  0  0
  -13.2526   14.5564  -38.7147 C   0  0  1  0  0  0  0  0  0  0  0  0
  -12.2852   15.6848  -39.0698 C   0  0  2  0  0  0  0  0  0  0  0  0
  -12.6628   14.4945  -37.2915 C   0  0  2  0  0  0  0  0  0  0  0  0
  -11.6602   15.6002  -37.6618 C   0  0  1  0  0  0  0  0  0  0  0  0
  -10.4997   13.4899  -37.6030 N   0  0  0  0  0  0  0  0  0  0  0  0
   -9.9992   15.0305  -35.1780 O   0  0  0  0  0  0  0  0  0  0  0  0
   -8.3461   15.7841  -36.5547 O   0  0  0  0  0  0  0  0  0  0  0  0
  -15.0445   15.6615  -37.9596 H   0  0  0  0  0  0  0  0  0  0  0  0
  -15.1013   15.2757  -39.6922 H   0  0  0  0  0  0  0  0  0  0  0  0
  -13.5930   17.1001  -40.1638 H   0  0  0  0  0  0  0  0  0  0  0  0
  -13.4608   17.4794  -38.4344 H   0  0  0  0  0  0  0  0  0  0  0  0
  -11.6688   13.2044  -35.8772 H   0  0  0  0  0  0  0  0  0  0  0  0
  -12.2638   12.3481  -37.3072 H   0  0  0  0  0  0  0  0  0  0  0  0
   -9.6346   15.2448  -38.3991 H   0  0  0  0  0  0  0  0  0  0  0  0
  -13.2348   13.6623  -39.3391 H   0  0  0  0  0  0  0  0  0  0  0  0
  -11.6529   15.5479  -39.9480 H   0  0  0  0  0  0  0  0  0  0  0  0
  -13.3719   14.7468  -36.4955 H   0  0  0  0  0  0  0  0  0  0  0  0
  -11.7458   16.5284  -37.0850 H   0  0  0  0  0  0  0  0  0  0  0  0
   -9.7620   12.9796  -37.1215 H   0  0  0  0  0  0  0  0  0  0  0  0
   -7.8555   15.9883  -35.7301 H   0  0  0  0  0  0  0  0  0  0  0  0
  1  5  1  0  0  0  0
  1 11  2  0  0  0  0
  1 12  1  0  0  0  0
  2  3  1  0  0  0  0
  2  6  1  0  0  0  0
  3  7  1  0  0  0  0
  4  8  1  0  0  0  0
  4 10  1  0  0  0  0
  5  9  1  0  0  0  0
  5 10  1  0  0  0  0
  6  7  1  0  0  0  0
  6  8  1  0  0  0  0
  7  9  1  0  0  0  0
  8  9  1  0  0  0  0
  2 13  1  0  0  0  0
  2 14  1  0  0  0  0
  3 15  1  0  0  0  0
  3 16  1  0  0  0  0
  4 17  1  0  0  0  0
  4 18  1  0  0  0  0
  5 19  1  0  0  0  0
  6 20  1  0  0  0  0
  7 21  1  0  0  0  0
  8 22  1  0  0  0  0
  9 23  1  0  0  0  0
 10 24  1  0  0  0  0
 12 25  1  0  0  0  0
M  END
> <id>
EN300-37394481

> <smiles>
OC(=O)C1NCC2C3CCC3C21

> <IUPAC Name>
8-azatricyclo[4.3.0.0,2,5]nonane-7-carboxylic acid

> <URL>
https://www.enaminestore.com/catalog/EN300-37394481

> <ROCS_ShapeQuery>
_x1247relevant_x1083L0AP1_x1305L0BP1_

> <ROCS_TanimotoCombo>
0.825 

> <ROCS_ShapeTanimoto>
0.462 

> <ROCS_ColorTanimoto>
0.362 

> <ROCS_RefTversky>
0.388 

> <ROCS_RefColorTversky>
0.460 

> <ROCS_RefTverskyCombo>
0.848 

> <ROCS_FitTversky>
1.705 

> <ROCS_FitColorTversky>
0.630 

> <ROCS_FitTverskyCombo>
2.335 

> <ROCS_ColorScore>
-9.913

> <ROCS_Overlap>
1140.114

> <ROCS_Rank>
350                 

$$$$
untitled-dbase-91379_5
  -OEChem-06232314393D

 31 33  0     1  0  0  0  0  0999 V2000
   -9.9961   15.2614  -36.6528 C   0  0  0  0  0  0  0  0  0  0  0  0
  -12.3886   15.9206  -36.5825 C   0  0  0  0  0  0  0  0  0  0  0  0
  -13.5241   16.7331  -38.6649 C   0  0  0  0  0  0  0  0  0  0  0  0
  -14.1138   14.4928  -37.7091 C   0  0  0  0  0  0  0  0  0  0  0  0
  -11.1068   16.0639  -38.7374 C   0  0  0  0  0  0  0  0  0  0  0  0
  -11.6962   13.8225  -37.7754 C   0  0  0  0  0  0  0  0  0  0  0  0
  -12.8343   14.6357  -39.8607 C   0  0  0  0  0  0  0  0  0  0  0  0
  -13.7150   15.9373  -37.3633 C   0  0  0  0  0  0  0  0  0  0  0  0
  -11.2801   15.2651  -37.4313 C   0  0  0  0  0  0  0  0  0  0  0  0
  -12.4279   16.0806  -39.5264 C   0  0  1  0  0  0  0  0  0  0  0  0
  -13.0188   13.8305  -38.5637 C   0  0  2  0  0  0  0  0  0  0  0  0
   -8.9613   15.8088  -37.0033 O   0  0  0  0  0  0  0  0  0  0  0  0
  -10.1370   14.5619  -35.5004 O   0  0  0  0  0  0  0  0  0  0  0  0
  -12.2707   16.8302  -40.7223 O   0  0  0  0  0  0  0  0  0  0  0  0
  -13.4104   12.5001  -38.8694 O   0  0  0  0  0  0  0  0  0  0  0  0
  -12.1038   16.9452  -36.3088 H   0  0  0  0  0  0  0  0  0  0  0  0
  -12.5184   15.3760  -35.6379 H   0  0  0  0  0  0  0  0  0  0  0  0
  -14.4662   16.7803  -39.2263 H   0  0  0  0  0  0  0  0  0  0  0  0
  -13.2592   17.7749  -38.4421 H   0  0  0  0  0  0  0  0  0  0  0  0
  -14.2796   13.9119  -36.7925 H   0  0  0  0  0  0  0  0  0  0  0  0
  -15.0712   14.4785  -38.2459 H   0  0  0  0  0  0  0  0  0  0  0  0
  -10.7831   17.0928  -38.5277 H   0  0  0  0  0  0  0  0  0  0  0  0
  -10.3038   15.6339  -39.3518 H   0  0  0  0  0  0  0  0  0  0  0  0
  -10.9115   13.3199  -38.3574 H   0  0  0  0  0  0  0  0  0  0  0  0
  -11.8064   13.2174  -36.8649 H   0  0  0  0  0  0  0  0  0  0  0  0
  -13.7556   14.6221  -40.4587 H   0  0  0  0  0  0  0  0  0  0  0  0
  -12.0823   14.1619  -40.5061 H   0  0  0  0  0  0  0  0  0  0  0  0
  -14.4979   16.4031  -36.7548 H   0  0  0  0  0  0  0  0  0  0  0  0
   -9.3071   14.5461  -34.9775 H   0  0  0  0  0  0  0  0  0  0  0  0
  -13.1275   16.8139  -41.1792 H   0  0  0  0  0  0  0  0  0  0  0  0
  -13.5179   12.0369  -38.0226 H   0  0  0  0  0  0  0  0  0  0  0  0
  1  9  1  0  0  0  0
  1 12  2  0  0  0  0
  1 13  1  0  0  0  0
  2  8  1  0  0  0  0
  2  9  1  0  0  0  0
  3  8  1  0  0  0  0
  3 10  1  0  0  0  0
  4  8  1  0  0  0  0
  4 11  1  0  0  0  0
  5  9  1  0  0  0  0
  5 10  1  0  0  0  0
  6  9  1  0  0  0  0
  6 11  1  0  0  0  0
  7 10  1  0  0  0  0
  7 11  1  0  0  0  0
 10 14  1  0  0  0  0
 11 15  1  0  0  0  0
  2 16  1  0  0  0  0
  2 17  1  0  0  0  0
  3 18  1  0  0  0  0
  3 19  1  0  0  0  0
  4 20  1  0  0  0  0
  4 21  1  0  0  0  0
  5 22  1  0  0  0  0
  5 23  1  0  0  0  0
  6 24  1  0  0  0  0
  6 25  1  0  0  0  0
  7 26  1  0  0  0  0
  7 27  1  0  0  0  0
  8 28  1  0  0  0  0
 13 29  1  0  0  0  0
 14 30  1  0  0  0  0
 15 31  1  0  0  0  0
M  END
> <id>
EN300-7356284

> <smiles>
OC(=O)C1(CC2CC3(O)CC(O)(C2)C1)C3

> <IUPAC Name>
3,5-dihydroxyadamantane-1-carboxylic acid

> <CAS>
83406-09-1

> <Purity>
95

> <URL>
https://www.enaminestore.com/catalog/EN300-7356284

> <ROCS_ShapeQuery>
_x1247relevant_x1083L0AP1_x1305L0BP1_

> <ROCS_TanimotoCombo>
0.825 

> <ROCS_ShapeTanimoto>
0.507 

> <ROCS_ColorTanimoto>
0.318 

> <ROCS_RefTversky>
0.428 

> <ROCS_RefColorTversky>
0.398 

> <ROCS_RefTverskyCombo>
0.826 

> <ROCS_FitTversky>
1.567 

> <ROCS_FitColorTversky>
0.613 

> <ROCS_FitTverskyCombo>
2.181 

> <ROCS_ColorScore>
-8.525

> <ROCS_Overlap>
1260.975

> <ROCS_Rank>
351                 

$$$$
untitled-dbase-75243_5
  -OEChem-06232314393D

 20 22  0     1  0  0  0  0  0999 V2000
  -10.2699   15.2483  -36.8310 C   0  0  0  0  0  0  0  0  0  0  0  0
  -12.8136   14.3403  -39.4519 C   0  0  0  0  0  0  0  0  0  0  0  0
  -13.8508   15.8184  -37.8402 C   0  0  0  0  0  0  0  0  0  0  0  0
  -13.0837   15.8552  -39.1977 C   0  0  0  0  0  0  0  0  0  0  0  0
  -12.1807   14.0747  -38.1029 C   0  0  2  0  0  0  0  0  0  0  0  0
  -12.8194   14.9851  -37.1104 C   0  0  1  0  0  0  0  0  0  0  0  0
  -11.4671   15.3159  -37.6628 C   0  0  0  0  0  0  0  0  0  0  0  0
  -11.6832   16.3410  -38.7419 C   0  0  0  0  0  0  0  0  0  0  0  0
   -9.1721   15.6843  -37.1444 O   0  0  0  0  0  0  0  0  0  0  0  0
  -10.5383   14.6300  -35.6550 O   0  0  0  0  0  0  0  0  0  0  0  0
  -11.7041   17.5993  -38.2621 F   0  0  0  0  0  0  0  0  0  0  0  0
  -10.7638   16.2602  -39.7227 F   0  0  0  0  0  0  0  0  0  0  0  0
  -13.7340   13.7668  -39.5956 H   0  0  0  0  0  0  0  0  0  0  0  0
  -12.1167   14.1658  -40.2767 H   0  0  0  0  0  0  0  0  0  0  0  0
  -13.9722   16.8095  -37.3940 H   0  0  0  0  0  0  0  0  0  0  0  0
  -14.8154   15.3078  -37.9154 H   0  0  0  0  0  0  0  0  0  0  0  0
  -13.5551   16.4090  -40.0090 H   0  0  0  0  0  0  0  0  0  0  0  0
  -11.8545   13.0837  -37.8545 H   0  0  0  0  0  0  0  0  0  0  0  0
  -12.9901   14.7021  -36.0900 H   0  0  0  0  0  0  0  0  0  0  0  0
   -9.7444   14.5729  -35.0816 H   0  0  0  0  0  0  0  0  0  0  0  0
  1  7  1  0  0  0  0
  1  9  2  0  0  0  0
  1 10  1  0  0  0  0
  2  4  1  0  0  0  0
  2  5  1  0  0  0  0
  3  4  1  0  0  0  0
  3  6  1  0  0  0  0
  4  8  1  0  0  0  0
  5  6  1  0  0  0  0
  5  7  1  0  0  0  0
  6  7  1  0  0  0  0
  7  8  1  0  0  0  0
  8 11  1  0  0  0  0
  8 12  1  0  0  0  0
  2 13  1  0  0  0  0
  2 14  1  0  0  0  0
  3 15  1  0  0  0  0
  3 16  1  0  0  0  0
  4 17  1  0  0  0  0
  5 18  1  0  0  0  0
  6 19  1  0  0  0  0
 10 20  1  0  0  0  0
M  END
> <id>
EN300-7492663

> <smiles>
OC(=O)C1(C2CC3CC21)C3(F)F

> <MDLNUMBER>
MFCD32640507

> <IUPAC Name>
7,7-difluorotricyclo[2.2.1.0,2,6]heptane-1-carboxylic acid

> <CAS>
2408969-60-6

> <Purity>
95

> <URL>
https://www.enaminestore.com/catalog/EN300-7492663

> <ROCS_ShapeQuery>
_x1247relevant_x1083L0AP1_x1305L0BP1_

> <ROCS_TanimotoCombo>
0.825 

> <ROCS_ShapeTanimoto>
0.474 

> <ROCS_ColorTanimoto>
0.351 

> <ROCS_RefTversky>
0.397 

> <ROCS_RefColorTversky>
0.616 

> <ROCS_RefTverskyCombo>
1.013 

> <ROCS_FitTversky>
1.683 

> <ROCS_FitColorTversky>
0.449 

> <ROCS_FitTverskyCombo>
2.132 

> <ROCS_ColorScore>
-13.740

> <ROCS_Overlap>
1168.409

> <ROCS_Rank>
352                 

$$$$
untitled-dbase-90930_230
  -OEChem-06232314393D

 33 34  0     0  0  0  0  0  0999 V2000
  -13.3297   16.4311  -40.2488 C   0  0  0  0  0  0  0  0  0  0  0  0
  -10.2210   14.8906  -36.6385 C   0  0  0  0  0  0  0  0  0  0  0  0
  -12.9948   14.1478  -38.8814 C   0  0  0  0  0  0  0  0  0  0  0  0
  -13.6107   15.7360  -37.6741 C   0  0  0  0  0  0  0  0  0  0  0  0
  -11.3295   15.9750  -38.6303 C   0  0  0  0  0  0  0  0  0  0  0  0
  -12.6606   14.5177  -37.3921 C   0  0  0  0  0  0  0  0  0  0  0  0
  -12.7963   15.7051  -39.0234 C   0  0  0  0  0  0  0  0  0  0  0  0
   -9.0706   12.6234  -37.2629 C   0  0  0  0  0  0  0  0  0  0  0  0
   -7.3996   13.9016  -38.6352 C   0  0  0  0  0  0  0  0  0  0  0  0
   -7.2513   13.9414  -36.1283 C   0  0  0  0  0  0  0  0  0  0  0  0
   -8.1922   13.8719  -37.3302 C   0  0  0  0  0  0  0  0  0  0  0  0
  -11.3038   15.0970  -37.4620 N   0  0  0  0  0  0  0  0  0  0  0  0
  -12.6485   17.0657  -41.0404 O   0  0  0  0  0  0  0  0  0  0  0  0
  -10.3054   14.6179  -35.4437 O   0  0  0  0  0  0  0  0  0  0  0  0
  -14.6734   16.2820  -40.3464 O   0  0  0  0  0  0  0  0  0  0  0  0
   -9.0392   15.0264  -37.3135 O   0  0  0  0  0  0  0  0  0  0  0  0
  -12.2659   13.5136  -39.3954 H   0  0  0  0  0  0  0  0  0  0  0  0
  -14.0014   13.7600  -39.0746 H   0  0  0  0  0  0  0  0  0  0  0  0
  -14.6822   15.5152  -37.7405 H   0  0  0  0  0  0  0  0  0  0  0  0
  -13.4688   16.6152  -37.0378 H   0  0  0  0  0  0  0  0  0  0  0  0
  -10.6026   15.6342  -39.3725 H   0  0  0  0  0  0  0  0  0  0  0  0
  -11.1363   17.0079  -38.3272 H   0  0  0  0  0  0  0  0  0  0  0  0
  -12.8942   13.8189  -36.5920 H   0  0  0  0  0  0  0  0  0  0  0  0
   -9.6412   12.5984  -36.3276 H   0  0  0  0  0  0  0  0  0  0  0  0
   -9.7742   12.5796  -38.1007 H   0  0  0  0  0  0  0  0  0  0  0  0
   -8.4592   11.7139  -37.2764 H   0  0  0  0  0  0  0  0  0  0  0  0
   -6.7679   14.7957  -38.6877 H   0  0  0  0  0  0  0  0  0  0  0  0
   -8.0721   13.9476  -39.4994 H   0  0  0  0  0  0  0  0  0  0  0  0
   -6.7605   13.0189  -38.7399 H   0  0  0  0  0  0  0  0  0  0  0  0
   -6.6211   14.8369  -36.1763 H   0  0  0  0  0  0  0  0  0  0  0  0
   -7.8043   13.9584  -35.1836 H   0  0  0  0  0  0  0  0  0  0  0  0
   -6.5692   13.0836  -36.1172 H   0  0  0  0  0  0  0  0  0  0  0  0
  -15.0374   16.7454  -41.1306 H   0  0  0  0  0  0  0  0  0  0  0  0
  1  7  1  0  0  0  0
  1 13  2  0  0  0  0
  1 15  1  0  0  0  0
  2 12  1  0  0  0  0
  2 14  2  0  0  0  0
  2 16  1  0  0  0  0
  3  6  1  0  0  0  0
  3  7  1  0  0  0  0
  4  6  1  0  0  0  0
  4  7  1  0  0  0  0
  5  7  1  0  0  0  0
  5 12  1  0  0  0  0
  6 12  1  0  0  0  0
  8 11  1  0  0  0  0
  9 11  1  0  0  0  0
 10 11  1  0  0  0  0
 11 16  1  0  0  0  0
  3 17  1  0  0  0  0
  3 18  1  0  0  0  0
  4 19  1  0  0  0  0
  4 20  1  0  0  0  0
  5 21  1  0  0  0  0
  5 22  1  0  0  0  0
  6 23  1  0  0  0  0
  8 24  1  0  0  0  0
  8 25  1  0  0  0  0
  8 26  1  0  0  0  0
  9 27  1  0  0  0  0
  9 28  1  0  0  0  0
  9 29  1  0  0  0  0
 10 30  1  0  0  0  0
 10 31  1  0  0  0  0
 10 32  1  0  0  0  0
 15 33  1  0  0  0  0
M  END
> <id>
EN300-7354076

> <smiles>
CC(C)(C)OC(=O)N1CC2(CC1C2)C(=O)O

> <MDLNUMBER>
MFCD28501912

> <IUPAC Name>
2-[(tert-butoxy)carbonyl]-2-azabicyclo[2.1.1]hexane-4-carboxylic acid

> <CAS>
220598-45-8

> <Purity>
95

> <URL>
https://www.enaminestore.com/catalog/EN300-7354076

> <ROCS_ShapeQuery>
_x1247relevant_x1083L0AP1_x1305L0BP1_

> <ROCS_TanimotoCombo>
0.825 

> <ROCS_ShapeTanimoto>
0.492 

> <ROCS_ColorTanimoto>
0.332 

> <ROCS_RefTversky>
0.423 

> <ROCS_RefColorTversky>
0.393 

> <ROCS_RefTverskyCombo>
0.816 

> <ROCS_FitTversky>
1.500 

> <ROCS_FitColorTversky>
0.682 

> <ROCS_FitTverskyCombo>
2.182 

> <ROCS_ColorScore>
-8.389

> <ROCS_Overlap>
1246.337

> <ROCS_Rank>
353                 

$$$$
untitled-dbase-172328_230
  -OEChem-06232314393D

 33 34  0     0  0  0  0  0  0999 V2000
  -13.3298   16.4310  -40.2488 C   0  0  0  0  0  0  0  0  0  0  0  0
  -10.2210   14.8907  -36.6385 C   0  0  0  0  0  0  0  0  0  0  0  0
  -12.9949   14.1481  -38.8814 C   0  0  0  0  0  0  0  0  0  0  0  0
  -13.6105   15.7361  -37.6736 C   0  0  0  0  0  0  0  0  0  0  0  0
  -11.3296   15.9752  -38.6303 C   0  0  0  0  0  0  0  0  0  0  0  0
  -12.6604   14.5177  -37.3921 C   0  0  0  0  0  0  0  0  0  0  0  0
  -12.7964   15.7054  -39.0231 C   0  0  0  0  0  0  0  0  0  0  0  0
   -9.0697   12.6238  -37.2637 C   0  0  0  0  0  0  0  0  0  0  0  0
   -7.3992   13.9032  -38.6356 C   0  0  0  0  0  0  0  0  0  0  0  0
   -7.2508   13.9422  -36.1287 C   0  0  0  0  0  0  0  0  0  0  0  0
   -8.1918   13.8727  -37.3306 C   0  0  0  0  0  0  0  0  0  0  0  0
  -11.3037   15.0969  -37.4622 N   0  0  0  0  0  0  0  0  0  0  0  0
  -12.6486   17.0657  -41.0404 O   0  0  0  0  0  0  0  0  0  0  0  0
  -10.3054   14.6177  -35.4438 O   0  0  0  0  0  0  0  0  0  0  0  0
  -14.6734   16.2816  -40.3466 O   0  0  0  0  0  0  0  0  0  0  0  0
   -9.0392   15.0268  -37.3134 O   0  0  0  0  0  0  0  0  0  0  0  0
  -12.2662   13.5138  -39.3958 H   0  0  0  0  0  0  0  0  0  0  0  0
  -14.0018   13.7604  -39.0746 H   0  0  0  0  0  0  0  0  0  0  0  0
  -14.6822   15.5155  -37.7398 H   0  0  0  0  0  0  0  0  0  0  0  0
  -13.4685   16.6151  -37.0371 H   0  0  0  0  0  0  0  0  0  0  0  0
  -10.6033   15.6337  -39.3730 H   0  0  0  0  0  0  0  0  0  0  0  0
  -11.1355   17.0078  -38.3278 H   0  0  0  0  0  0  0  0  0  0  0  0
  -12.8938   13.8187  -36.5921 H   0  0  0  0  0  0  0  0  0  0  0  0
   -9.6402   12.5982  -36.3284 H   0  0  0  0  0  0  0  0  0  0  0  0
   -9.7732   12.5800  -38.1015 H   0  0  0  0  0  0  0  0  0  0  0  0
   -8.4578   11.7146  -37.2776 H   0  0  0  0  0  0  0  0  0  0  0  0
   -6.7679   14.7976  -38.6878 H   0  0  0  0  0  0  0  0  0  0  0  0
   -8.0718   13.9493  -39.4997 H   0  0  0  0  0  0  0  0  0  0  0  0
   -6.7597   13.0208  -38.7406 H   0  0  0  0  0  0  0  0  0  0  0  0
   -6.6210   14.8379  -36.1764 H   0  0  0  0  0  0  0  0  0  0  0  0
   -7.8038   13.9585  -35.1839 H   0  0  0  0  0  0  0  0  0  0  0  0
   -6.5684   13.0846  -36.1180 H   0  0  0  0  0  0  0  0  0  0  0  0
  -15.0374   16.7447  -41.1311 H   0  0  0  0  0  0  0  0  0  0  0  0
  1  7  1  6  0  0  0
  1 13  2  0  0  0  0
  1 15  1  0  0  0  0
  2 12  1  0  0  0  0
  2 14  2  0  0  0  0
  2 16  1  0  0  0  0
  3  6  1  1  0  0  0
  3  7  1  0  0  0  0
  4  6  1  0  0  0  0
  4  7  1  0  0  0  0
  5  7  1  0  0  0  0
  5 12  1  0  0  0  0
  6 12  1  0  0  0  0
  8 11  1  0  0  0  0
  9 11  1  0  0  0  0
 10 11  1  0  0  0  0
 11 16  1  0  0  0  0
  3 17  1  0  0  0  0
  3 18  1  0  0  0  0
  4 19  1  0  0  0  0
  4 20  1  0  0  0  0
  5 21  1  0  0  0  0
  5 22  1  0  0  0  0
  6 23  1  0  0  0  0
  8 24  1  0  0  0  0
  8 25  1  0  0  0  0
  8 26  1  0  0  0  0
  9 27  1  0  0  0  0
  9 28  1  0  0  0  0
  9 29  1  0  0  0  0
 10 30  1  0  0  0  0
 10 31  1  0  0  0  0
 10 32  1  0  0  0  0
 15 33  1  0  0  0  0
M  END
> <id>
EN300-28309295

> <smiles>
CC(C)(C)OC(=O)N1C[C@]2(C[C@@H]1C2)C(=O)O

> <IUPAC Name>
(4r)-2-[(tert-butoxy)carbonyl]-2-azabicyclo[2.1.1]hexane-4-carboxylic acid

> <CAS>
220598-45-8

> <URL>
https://www.enaminestore.com/catalog/EN300-28309295

> <ROCS_ShapeQuery>
_x1247relevant_x1083L0AP1_x1305L0BP1_

> <ROCS_TanimotoCombo>
0.825 

> <ROCS_ShapeTanimoto>
0.492 

> <ROCS_ColorTanimoto>
0.332 

> <ROCS_RefTversky>
0.423 

> <ROCS_RefColorTversky>
0.393 

> <ROCS_RefTverskyCombo>
0.816 

> <ROCS_FitTversky>
1.500 

> <ROCS_FitColorTversky>
0.682 

> <ROCS_FitTverskyCombo>
2.182 

> <ROCS_ColorScore>
-8.389

> <ROCS_Overlap>
1246.328

> <ROCS_Rank>
354                 

$$$$
untitled-dbase-168784_1301
  -OEChem-06232314393D

 38 39  0     1  0  0  0  0  0999 V2000
  -11.9585   15.5195  -35.5973 C   0  0  0  0  0  0  0  0  0  0  0  0
   -9.6410   14.9250  -37.7183 C   0  0  0  0  0  0  0  0  0  0  0  0
  -13.1789   14.1267  -38.0462 C   0  0  0  0  0  0  0  0  0  0  0  0
  -11.9008   15.8895  -37.0484 C   0  0  2  0  0  0  0  0  0  0  0  0
  -13.2391   15.6458  -37.7755 C   0  0  1  0  0  0  0  0  0  0  0  0
  -11.8275   14.2216  -38.7459 C   0  0  1  0  0  0  0  0  0  0  0  0
  -13.1048   16.2151  -39.2107 C   0  0  1  0  0  0  0  0  0  0  0  0
  -12.1834   15.1830  -39.9021 C   0  0  1  0  0  0  0  0  0  0  0  0
   -7.8128   13.4651  -36.5397 C   0  0  0  0  0  0  0  0  0  0  0  0
   -7.8574   11.9027  -38.5060 C   0  0  0  0  0  0  0  0  0  0  0  0
   -6.7447   14.1447  -38.7150 C   0  0  0  0  0  0  0  0  0  0  0  0
   -7.8847   13.3639  -38.0627 C   0  0  0  0  0  0  0  0  0  0  0  0
  -11.0236   14.9569  -37.7573 N   0  0  0  0  0  0  0  0  0  0  0  0
  -12.9234   15.6908  -34.8672 O   0  0  0  0  0  0  0  0  0  0  0  0
   -8.9511   15.7015  -37.0617 O   0  0  0  0  0  0  0  0  0  0  0  0
  -10.7872   14.9671  -35.1972 O   0  0  0  0  0  0  0  0  0  0  0  0
  -14.3720   16.2252  -39.8546 O   0  0  0  0  0  0  0  0  0  0  0  0
  -11.0389   15.8018  -40.4594 O   0  0  0  0  0  0  0  0  0  0  0  0
   -9.1285   13.9237  -38.4983 O   0  0  0  0  0  0  0  0  0  0  0  0
  -13.1531   13.5174  -37.1375 H   0  0  0  0  0  0  0  0  0  0  0  0
  -13.9857   13.7688  -38.6949 H   0  0  0  0  0  0  0  0  0  0  0  0
  -11.5284   16.9171  -37.1419 H   0  0  0  0  0  0  0  0  0  0  0  0
  -14.1352   15.9598  -37.2350 H   0  0  0  0  0  0  0  0  0  0  0  0
  -11.3524   13.2906  -39.0613 H   0  0  0  0  0  0  0  0  0  0  0  0
  -12.7012   17.2333  -39.2235 H   0  0  0  0  0  0  0  0  0  0  0  0
  -12.7083   14.6483  -40.7018 H   0  0  0  0  0  0  0  0  0  0  0  0
   -7.8321   14.5123  -36.2174 H   0  0  0  0  0  0  0  0  0  0  0  0
   -8.6446   12.9384  -36.0607 H   0  0  0  0  0  0  0  0  0  0  0  0
   -6.8737   13.0432  -36.1637 H   0  0  0  0  0  0  0  0  0  0  0  0
   -7.9088   11.8254  -39.5981 H   0  0  0  0  0  0  0  0  0  0  0  0
   -8.7268   11.3605  -38.1169 H   0  0  0  0  0  0  0  0  0  0  0  0
   -6.9501   11.3938  -38.1647 H   0  0  0  0  0  0  0  0  0  0  0  0
   -6.7961   14.0723  -39.8074 H   0  0  0  0  0  0  0  0  0  0  0  0
   -6.7704   15.2034  -38.4373 H   0  0  0  0  0  0  0  0  0  0  0  0
   -5.7724   13.7316  -38.4231 H   0  0  0  0  0  0  0  0  0  0  0  0
  -10.8042   14.7194  -34.2481 H   0  0  0  0  0  0  0  0  0  0  0  0
  -14.2314   16.5885  -40.7438 H   0  0  0  0  0  0  0  0  0  0  0  0
  -10.4656   15.0922  -40.7970 H   0  0  0  0  0  0  0  0  0  0  0  0
  1  4  1  0  0  0  0
  1 14  2  0  0  0  0
  1 16  1  0  0  0  0
  2 13  1  0  0  0  0
  2 15  2  0  0  0  0
  2 19  1  0  0  0  0
  3  5  1  0  0  0  0
  3  6  1  0  0  0  0
  4  5  1  0  0  0  0
  4 13  1  0  0  0  0
  5  7  1  0  0  0  0
  6  8  1  0  0  0  0
  6 13  1  0  0  0  0
  7  8  1  0  0  0  0
  7 17  1  0  0  0  0
  8 18  1  0  0  0  0
  9 12  1  0  0  0  0
 10 12  1  0  0  0  0
 11 12  1  0  0  0  0
 12 19  1  0  0  0  0
  3 20  1  0  0  0  0
  3 21  1  0  0  0  0
  4 22  1  0  0  0  0
  5 23  1  0  0  0  0
  6 24  1  0  0  0  0
  7 25  1  0  0  0  0
  8 26  1  0  0  0  0
  9 27  1  0  0  0  0
  9 28  1  0  0  0  0
  9 29  1  0  0  0  0
 10 30  1  0  0  0  0
 10 31  1  0  0  0  0
 10 32  1  0  0  0  0
 11 33  1  0  0  0  0
 11 34  1  0  0  0  0
 11 35  1  0  0  0  0
 16 36  1  0  0  0  0
 17 37  1  0  0  0  0
 18 38  1  0  0  0  0
M  END
> <id>
EN300-6493962

> <smiles>
CC(C)(C)OC(=O)N1C(C2CC1C(O)C2O)C(=O)O

> <MDLNUMBER>
MFCD31736400

> <IUPAC Name>
2-[(tert-butoxy)carbonyl]-5,6-dihydroxy-2-azabicyclo[2.2.1]heptane-3-carboxylic acid

> <CAS>
2247102-39-0

> <Purity>
95

> <URL>
https://www.enaminestore.com/catalog/EN300-6493962

> <ROCS_ShapeQuery>
_x1247relevant_x1083L0AP1_x1305L0BP1_

> <ROCS_TanimotoCombo>
0.824 

> <ROCS_ShapeTanimoto>
0.467 

> <ROCS_ColorTanimoto>
0.357 

> <ROCS_RefTversky>
0.423 

> <ROCS_RefColorTversky>
0.455 

> <ROCS_RefTverskyCombo>
0.878 

> <ROCS_FitTversky>
1.288 

> <ROCS_FitColorTversky>
0.625 

> <ROCS_FitTverskyCombo>
1.912 

> <ROCS_ColorScore>
-9.801

> <ROCS_Overlap>
1249.187

> <ROCS_Rank>
355                 

$$$$
untitled-dbase-118158_2
  -OEChem-06232314393D

 27 28  0     1  0  0  0  0  0999 V2000
  -10.1826   15.5392  -36.9610 C   0  0  0  0  0  0  0  0  0  0  0  0
  -13.1611   16.2556  -37.1079 C   0  0  0  0  0  0  0  0  0  0  0  0
  -12.8703   16.3240  -39.5781 C   0  0  0  0  0  0  0  0  0  0  0  0
  -13.7027   14.8236  -37.2070 C   0  0  0  0  0  0  0  0  0  0  0  0
  -13.3712   14.8767  -39.6986 C   0  0  0  0  0  0  0  0  0  0  0  0
  -11.0348   15.4150  -38.1833 C   0  0  2  0  0  0  0  0  0  0  0  0
  -12.1368   16.4928  -38.2344 C   0  0  0  0  0  0  0  0  0  0  0  0
  -13.0632   14.1012  -38.4046 C   0  0  0  0  0  0  0  0  0  0  0  0
  -10.2660   15.4988  -34.5998 C   0  0  0  0  0  0  0  0  0  0  0  0
  -11.6055   14.0597  -38.1844 N   0  0  0  0  0  0  0  0  0  0  0  0
   -8.9749   15.7343  -36.9846 O   0  0  0  0  0  0  0  0  0  0  0  0
  -10.9586   15.4013  -35.8484 O   0  0  0  0  0  0  0  0  0  0  0  0
  -13.9866   16.9733  -37.1865 H   0  0  0  0  0  0  0  0  0  0  0  0
  -12.7047   16.4169  -36.1247 H   0  0  0  0  0  0  0  0  0  0  0  0
  -12.1986   16.5557  -40.4133 H   0  0  0  0  0  0  0  0  0  0  0  0
  -13.7126   17.0224  -39.6475 H   0  0  0  0  0  0  0  0  0  0  0  0
  -13.4945   14.2818  -36.2760 H   0  0  0  0  0  0  0  0  0  0  0  0
  -14.7934   14.8469  -37.3182 H   0  0  0  0  0  0  0  0  0  0  0  0
  -14.4503   14.8748  -39.8935 H   0  0  0  0  0  0  0  0  0  0  0  0
  -12.8961   14.3881  -40.5583 H   0  0  0  0  0  0  0  0  0  0  0  0
  -10.3698   15.5318  -39.0483 H   0  0  0  0  0  0  0  0  0  0  0  0
  -11.7136   17.4998  -38.1496 H   0  0  0  0  0  0  0  0  0  0  0  0
  -13.4502   13.0791  -38.4728 H   0  0  0  0  0  0  0  0  0  0  0  0
  -10.9756   15.3750  -33.7781 H   0  0  0  0  0  0  0  0  0  0  0  0
   -9.7765   16.4734  -34.5288 H   0  0  0  0  0  0  0  0  0  0  0  0
   -9.5119   14.7099  -34.5490 H   0  0  0  0  0  0  0  0  0  0  0  0
  -11.1645   13.5115  -38.9227 H   0  0  0  0  0  0  0  0  0  0  0  0
  1  6  1  1  0  0  0
  1 11  2  0  0  0  0
  1 12  1  0  0  0  0
  2  4  1  0  0  0  0
  2  7  1  1  0  0  0
  3  5  1  0  0  0  0
  3  7  1  0  0  0  0
  4  8  1  1  0  0  0
  5  8  1  0  0  0  0
  6  7  1  0  0  0  0
  6 10  1  0  0  0  0
  8 10  1  0  0  0  0
  9 12  1  0  0  0  0
  2 13  1  0  0  0  0
  2 14  1  0  0  0  0
  3 15  1  0  0  0  0
  3 16  1  0  0  0  0
  4 17  1  0  0  0  0
  4 18  1  0  0  0  0
  5 19  1  0  0  0  0
  5 20  1  0  0  0  0
  6 21  1  0  0  0  0
  7 22  1  0  0  0  0
  8 23  1  0  0  0  0
  9 24  1  0  0  0  0
  9 25  1  0  0  0  0
  9 26  1  0  0  0  0
 10 27  1  0  0  0  0
M  END
> <id>
EN300-6508170

> <smiles>
COC(=O)[C@H]1N[C@H]2CC[C@@H]1CC2

> <IUPAC Name>
methyl (1R,3S,4s)-2-azabicyclo[2.2.2]octane-3-carboxylate

> <CAS>
736111-77-6

> <URL>
https://www.enaminestore.com/catalog/EN300-6508170

> <ROCS_ShapeQuery>
_x1247relevant_x1083L0AP1_x1305L0BP1_

> <ROCS_TanimotoCombo>
0.824 

> <ROCS_ShapeTanimoto>
0.438 

> <ROCS_ColorTanimoto>
0.386 

> <ROCS_RefTversky>
0.372 

> <ROCS_RefColorTversky>
0.406 

> <ROCS_RefTverskyCombo>
0.778 

> <ROCS_FitTversky>
1.673 

> <ROCS_FitColorTversky>
0.890 

> <ROCS_FitTverskyCombo>
2.563 

> <ROCS_ColorScore>
-8.604

> <ROCS_Overlap>
1093.928

> <ROCS_Rank>
356                 

$$$$
untitled-dbase-145092_2
  -OEChem-06232314393D

 22 23  0     1  0  0  0  0  0999 V2000
  -13.0218   16.3471  -39.3020 C   0  0  0  0  0  0  0  0  0  0  0  0
  -13.4934   15.1054  -39.4979 C   0  0  0  0  0  0  0  0  0  0  0  0
  -10.1732   15.4978  -36.9321 C   0  0  0  0  0  0  0  0  0  0  0  0
  -13.2841   15.4003  -37.2143 C   0  0  0  0  0  0  0  0  0  0  0  0
  -12.3295   16.3371  -37.9554 C   0  0  1  0  0  0  0  0  0  0  0  0
  -13.1421   14.3043  -38.2638 C   0  0  2  0  0  0  0  0  0  0  0  0
  -11.0882   15.4395  -38.1127 C   0  0  2  0  0  0  0  0  0  0  0  0
  -10.1162   15.2391  -34.5840 C   0  0  0  0  0  0  0  0  0  0  0  0
  -11.6747   14.0718  -38.2002 N   0  0  0  0  0  0  0  0  0  0  0  0
   -8.9798   15.7588  -37.0023 O   0  0  0  0  0  0  0  0  0  0  0  0
  -10.8751   15.2182  -35.7971 O   0  0  0  0  0  0  0  0  0  0  0  0
  -13.0612   17.1697  -39.9974 H   0  0  0  0  0  0  0  0  0  0  0  0
  -13.9943   14.7383  -40.3790 H   0  0  0  0  0  0  0  0  0  0  0  0
  -12.9368   15.1077  -36.2166 H   0  0  0  0  0  0  0  0  0  0  0  0
  -14.3048   15.7955  -37.1259 H   0  0  0  0  0  0  0  0  0  0  0  0
  -12.1894   17.3124  -37.4876 H   0  0  0  0  0  0  0  0  0  0  0  0
  -13.7588   13.4198  -38.0960 H   0  0  0  0  0  0  0  0  0  0  0  0
  -10.5039   15.6666  -39.0117 H   0  0  0  0  0  0  0  0  0  0  0  0
  -10.7697   15.0034  -33.7405 H   0  0  0  0  0  0  0  0  0  0  0  0
   -9.6711   16.2280  -34.4486 H   0  0  0  0  0  0  0  0  0  0  0  0
   -9.3231   14.4904  -34.6479 H   0  0  0  0  0  0  0  0  0  0  0  0
  -11.4685   13.5509  -37.3470 H   0  0  0  0  0  0  0  0  0  0  0  0
  1  2  2  0  0  0  0
  1  5  1  0  0  0  0
  2  6  1  0  0  0  0
  3  7  1  0  0  0  0
  3 10  2  0  0  0  0
  3 11  1  0  0  0  0
  4  5  1  0  0  0  0
  4  6  1  0  0  0  0
  5  7  1  0  0  0  0
  6  9  1  0  0  0  0
  7  9  1  0  0  0  0
  8 11  1  0  0  0  0
  1 12  1  0  0  0  0
  2 13  1  0  0  0  0
  4 14  1  0  0  0  0
  4 15  1  0  0  0  0
  5 16  1  0  0  0  0
  6 17  1  0  0  0  0
  7 18  1  0  0  0  0
  8 19  1  0  0  0  0
  8 20  1  0  0  0  0
  8 21  1  0  0  0  0
  9 22  1  0  0  0  0
M  END
> <id>
EN300-1661070

> <smiles>
COC(=O)C1NC2CC1C=C2

> <MDLNUMBER>
MFCD18445949

> <IUPAC Name>
methyl 2-azabicyclo[2.2.1]hept-5-ene-3-carboxylate

> <CAS>
1258329-54-2

> <URL>
https://www.enaminestore.com/catalog/EN300-1661070

> <ROCS_ShapeQuery>
_x1247relevant_x1083L0AP1_x1305L0BP1_

> <ROCS_TanimotoCombo>
0.824 

> <ROCS_ShapeTanimoto>
0.434 

> <ROCS_ColorTanimoto>
0.390 

> <ROCS_RefTversky>
0.367 

> <ROCS_RefColorTversky>
0.413 

> <ROCS_RefTverskyCombo>
0.780 

> <ROCS_FitTversky>
1.723 

> <ROCS_FitColorTversky>
0.875 

> <ROCS_FitTverskyCombo>
2.598 

> <ROCS_ColorScore>
-8.769

> <ROCS_Overlap>
1078.575

> <ROCS_Rank>
357                 

$$$$
untitled-dbase-52700_0
  -OEChem-06232314393D

 33 35  0     1  0  0  0  0  0999 V2000
  -13.3337   14.7480  -39.5464 C   0  0  0  0  0  0  0  0  0  0  0  0
  -12.8007   16.8462  -38.2863 C   0  0  0  0  0  0  0  0  0  0  0  0
  -13.5552   14.0168  -38.2157 C   0  0  0  0  0  0  0  0  0  0  0  0
  -13.0451   16.0950  -36.9710 C   0  0  0  0  0  0  0  0  0  0  0  0
  -10.9652   15.2638  -38.9128 C   0  0  0  0  0  0  0  0  0  0  0  0
   -9.9330   16.6061  -36.7024 C   0  0  0  0  0  0  0  0  0  0  0  0
   -8.7235   14.9374  -36.7905 C   0  0  0  0  0  0  0  0  0  0  0  0
  -12.3037   15.8763  -39.3717 C   0  0  0  0  0  0  0  0  0  0  0  0
  -12.6372   14.6145  -37.1245 C   0  0  0  0  0  0  0  0  0  0  0  0
  -11.1439   14.5089  -37.5677 C   0  0  2  0  0  0  0  0  0  0  0  0
  -10.2149   15.1161  -36.5034 C   0  0  0  0  0  0  0  0  0  0  0  0
  -10.7384   13.1055  -37.7335 N   0  0  0  0  0  0  0  0  0  0  0  0
   -8.5820   16.3334  -37.1406 O   0  0  0  0  0  0  0  0  0  0  0  0
  -10.6660   14.7300  -35.1973 O   0  0  0  0  0  0  0  0  0  0  0  0
  -12.9894   14.0372  -40.3071 H   0  0  0  0  0  0  0  0  0  0  0  0
  -14.2852   15.1566  -39.9074 H   0  0  0  0  0  0  0  0  0  0  0  0
  -13.7269   17.3354  -38.6109 H   0  0  0  0  0  0  0  0  0  0  0  0
  -12.0640   17.6427  -38.1270 H   0  0  0  0  0  0  0  0  0  0  0  0
  -14.6056   14.1184  -37.9145 H   0  0  0  0  0  0  0  0  0  0  0  0
  -13.3856   12.9418  -38.3397 H   0  0  0  0  0  0  0  0  0  0  0  0
  -12.5065   16.5787  -36.1496 H   0  0  0  0  0  0  0  0  0  0  0  0
  -14.1080   16.1619  -36.7059 H   0  0  0  0  0  0  0  0  0  0  0  0
  -10.5997   14.5919  -39.7010 H   0  0  0  0  0  0  0  0  0  0  0  0
  -10.2094   16.0550  -38.8261 H   0  0  0  0  0  0  0  0  0  0  0  0
  -10.5126   17.1193  -37.4754 H   0  0  0  0  0  0  0  0  0  0  0  0
   -9.9368   17.2074  -35.7878 H   0  0  0  0  0  0  0  0  0  0  0  0
   -8.1093   14.6839  -35.9206 H   0  0  0  0  0  0  0  0  0  0  0  0
   -8.4568   14.2832  -37.6258 H   0  0  0  0  0  0  0  0  0  0  0  0
  -12.1642   16.4092  -40.3185 H   0  0  0  0  0  0  0  0  0  0  0  0
  -12.8006   14.0936  -36.1733 H   0  0  0  0  0  0  0  0  0  0  0  0
  -11.3152   12.7061  -38.4313 H   0  0  0  0  0  0  0  0  0  0  0  0
   -9.7877   13.0980  -38.0076 H   0  0  0  0  0  0  0  0  0  0  0  0
  -10.7979   13.7726  -35.2330 H   0  0  0  0  0  0  0  0  0  0  0  0
  1  3  1  0  0  0  0
  1  8  1  0  0  0  0
  2  4  1  0  0  0  0
  2  8  1  0  0  0  0
  3  9  1  0  0  0  0
  4  9  1  0  0  0  0
  5  8  1  0  0  0  0
  5 10  1  0  0  0  0
  6 11  1  0  0  0  0
  6 13  1  0  0  0  0
  7 11  1  0  0  0  0
  7 13  1  0  0  0  0
  9 10  1  0  0  0  0
 10 11  1  0  0  0  0
 10 12  1  0  0  0  0
 11 14  1  0  0  0  0
  1 15  1  0  0  0  0
  1 16  1  0  0  0  0
  2 17  1  0  0  0  0
  2 18  1  0  0  0  0
  3 19  1  0  0  0  0
  3 20  1  0  0  0  0
  4 21  1  0  0  0  0
  4 22  1  0  0  0  0
  5 23  1  0  0  0  0
  5 24  1  0  0  0  0
  6 25  1  0  0  0  0
  6 26  1  0  0  0  0
  7 27  1  0  0  0  0
  7 28  1  0  0  0  0
  8 29  1  0  0  0  0
  9 30  1  0  0  0  0
 12 31  1  0  0  0  0
 12 32  1  0  0  0  0
 14 33  1  0  0  0  0
M  END
> <id>
EN300-1646294

> <smiles>
NC1(CC2CCC1CC2)C3(O)COC3

> <IUPAC Name>
3-{2-aminobicyclo[2.2.2]octan-2-yl}oxetan-3-ol

> <CAS>
2171516-50-8

> <URL>
https://www.enaminestore.com/catalog/EN300-1646294

> <ROCS_ShapeQuery>
_x1247relevant_x1083L0AP1_x1305L0BP1_

> <ROCS_TanimotoCombo>
0.824 

> <ROCS_ShapeTanimoto>
0.487 

> <ROCS_ColorTanimoto>
0.337 

> <ROCS_RefTversky>
0.411 

> <ROCS_RefColorTversky>
0.399 

> <ROCS_RefTverskyCombo>
0.810 

> <ROCS_FitTversky>
1.617 

> <ROCS_FitColorTversky>
0.684 

> <ROCS_FitTverskyCombo>
2.301 

> <ROCS_ColorScore>
-8.525

> <ROCS_Overlap>
1209.176

> <ROCS_Rank>
358                 

$$$$
untitled-dbase-92110_7
  -OEChem-06232314393D

 27 29  0     1  0  0  0  0  0999 V2000
  -11.0500   13.7339  -35.0750 C   0  0  0  0  0  0  0  0  0  0  0  0
  -11.5041   14.4389  -36.1094 C   0  0  0  0  0  0  0  0  0  0  0  0
   -9.6943   13.1434  -35.2232 C   0  0  0  0  0  0  0  0  0  0  0  0
   -9.4799   14.0462  -37.3758 C   0  0  0  0  0  0  0  0  0  0  0  0
  -14.0680   14.9433  -37.8170 C   0  0  0  0  0  0  0  0  0  0  0  0
  -13.4957   16.2158  -38.4261 C   0  0  2  0  0  0  0  0  0  0  0  0
  -12.2892   14.6184  -39.2448 C   0  0  1  0  0  0  0  0  0  0  0  0
  -13.1472   15.7253  -39.8152 C   0  0  2  0  0  0  0  0  0  0  0  0
  -11.3450   15.4018  -38.3331 C   0  0  2  0  0  0  0  0  0  0  0  0
   -8.9891   13.3093  -36.3114 N   0  0  0  0  0  0  0  0  0  0  0  0
  -10.7716   14.6273  -37.2736 N   0  0  0  0  0  0  0  0  0  0  0  0
   -9.1880   12.4077  -34.1770 N   0  0  0  0  0  0  0  0  0  0  0  0
   -8.8013   14.1918  -38.3941 O   0  0  0  0  0  0  0  0  0  0  0  0
  -13.2304   13.9079  -38.4001 O   0  0  0  0  0  0  0  0  0  0  0  0
  -12.2088   16.4256  -37.7860 O   0  0  0  0  0  0  0  0  0  0  0  0
  -12.4390   16.6799  -40.5712 O   0  0  0  0  0  0  0  0  0  0  0  0
  -11.6176   13.5850  -34.1663 H   0  0  0  0  0  0  0  0  0  0  0  0
  -12.4835   14.9039  -36.0852 H   0  0  0  0  0  0  0  0  0  0  0  0
  -13.9730   14.8976  -36.7285 H   0  0  0  0  0  0  0  0  0  0  0  0
  -15.1018   14.7545  -38.1203 H   0  0  0  0  0  0  0  0  0  0  0  0
  -14.1111   17.1126  -38.3428 H   0  0  0  0  0  0  0  0  0  0  0  0
  -11.7938   13.9525  -39.9540 H   0  0  0  0  0  0  0  0  0  0  0  0
  -14.0244   15.3749  -40.3705 H   0  0  0  0  0  0  0  0  0  0  0  0
  -10.5356   15.8918  -38.8839 H   0  0  0  0  0  0  0  0  0  0  0  0
   -8.2835   12.0149  -34.2785 H   0  0  0  0  0  0  0  0  0  0  0  0
   -9.7495   12.3020  -33.3669 H   0  0  0  0  0  0  0  0  0  0  0  0
  -13.0048   17.4697  -40.6493 H   0  0  0  0  0  0  0  0  0  0  0  0
  1  2  2  0  0  0  0
  1  3  1  0  0  0  0
  2 11  1  0  0  0  0
  3 10  2  0  0  0  0
  3 12  1  0  0  0  0
  4 10  1  0  0  0  0
  4 11  1  0  0  0  0
  4 13  2  0  0  0  0
  5  6  1  1  0  0  0
  5 14  1  0  0  0  0
  6  8  1  0  0  0  0
  6 15  1  0  0  0  0
  7  8  1  0  0  0  0
  7  9  1  0  0  0  0
  7 14  1  1  0  0  0
  8 16  1  1  0  0  0
  9 11  1  1  0  0  0
  9 15  1  0  0  0  0
  1 17  1  0  0  0  0
  2 18  1  0  0  0  0
  5 19  1  0  0  0  0
  5 20  1  0  0  0  0
  6 21  1  0  0  0  0
  7 22  1  0  0  0  0
  8 23  1  0  0  0  0
  9 24  1  0  0  0  0
 12 25  1  0  0  0  0
 12 26  1  0  0  0  0
 16 27  1  0  0  0  0
M  END
> <id>
EN300-6744223

> <smiles>
NC=1C=CN([C@@H]2O[C@@H]3CO[C@H]2[C@@H]3O)C(=O)N1

> <MDLNUMBER>
MFCD31924618

> <IUPAC Name>
4-amino-1-[(1R,3R,4S,7R)-7-hydroxy-2,5-dioxabicyclo[2.2.1]heptan-3-yl]-1,2-dihydropyrimidin-2-one

> <CAS>
32830-01-6

> <Purity>
95

> <URL>
https://www.enaminestore.com/catalog/EN300-6744223

> <MP>
255-258

> <ROCS_ShapeQuery>
_x1247relevant_x1083L0AP1_x1305L0BP1_

> <ROCS_TanimotoCombo>
0.824 

> <ROCS_ShapeTanimoto>
0.503 

> <ROCS_ColorTanimoto>
0.321 

> <ROCS_RefTversky>
0.434 

> <ROCS_RefColorTversky>
0.432 

> <ROCS_RefTverskyCombo>
0.866 

> <ROCS_FitTversky>
1.465 

> <ROCS_FitColorTversky>
0.556 

> <ROCS_FitTverskyCombo>
2.021 

> <ROCS_ColorScore>
-9.314

> <ROCS_Overlap>
1279.911

> <ROCS_Rank>
359                 

$$$$
untitled-dbase-143181_54
  -OEChem-06232314393D

 36 37  0     1  0  0  0  0  0999 V2000
  -10.3922   14.9268  -36.6285 C   0  0  0  0  0  0  0  0  0  0  0  0
  -14.1364   15.5954  -37.3674 C   0  0  0  0  0  0  0  0  0  0  0  0
  -14.1512   14.7760  -38.6630 C   0  0  0  0  0  0  0  0  0  0  0  0
  -12.1807   16.0951  -39.6248 C   0  0  0  0  0  0  0  0  0  0  0  0
  -12.8672   15.3441  -36.5457 C   0  0  0  0  0  0  0  0  0  0  0  0
  -11.4251   16.4605  -38.3433 C   0  0  0  0  0  0  0  0  0  0  0  0
  -12.7730   14.7143  -39.3455 C   0  0  1  0  0  0  0  0  0  0  0  0
  -11.6136   15.2453  -37.4322 C   0  0  1  0  0  0  0  0  0  0  0  0
   -9.6511   12.4883  -37.1717 C   0  0  0  0  0  0  0  0  0  0  0  0
   -8.0276   13.4045  -38.8552 C   0  0  0  0  0  0  0  0  0  0  0  0
   -7.5372   13.6162  -36.4010 C   0  0  0  0  0  0  0  0  0  0  0  0
   -8.6332   13.5893  -37.4655 C   0  0  0  0  0  0  0  0  0  0  0  0
  -11.7927   14.1567  -38.4040 N   0  0  0  0  0  0  0  0  0  0  0  0
  -10.3930   14.7653  -35.4156 O   0  0  0  0  0  0  0  0  0  0  0  0
   -9.3101   14.8501  -37.4544 O   0  0  0  0  0  0  0  0  0  0  0  0
  -14.1963   16.6617  -37.6181 H   0  0  0  0  0  0  0  0  0  0  0  0
  -15.0265   15.3729  -36.7682 H   0  0  0  0  0  0  0  0  0  0  0  0
  -14.4826   13.7550  -38.4330 H   0  0  0  0  0  0  0  0  0  0  0  0
  -14.8924   15.1994  -39.3509 H   0  0  0  0  0  0  0  0  0  0  0  0
  -12.9416   16.8402  -39.8788 H   0  0  0  0  0  0  0  0  0  0  0  0
  -11.4712   16.0447  -40.4598 H   0  0  0  0  0  0  0  0  0  0  0  0
  -12.7492   16.1422  -35.8022 H   0  0  0  0  0  0  0  0  0  0  0  0
  -12.9930   14.4142  -35.9743 H   0  0  0  0  0  0  0  0  0  0  0  0
  -10.3710   16.6481  -38.5814 H   0  0  0  0  0  0  0  0  0  0  0  0
  -11.8221   17.3794  -37.8977 H   0  0  0  0  0  0  0  0  0  0  0  0
  -12.8334   14.1127  -40.2578 H   0  0  0  0  0  0  0  0  0  0  0  0
  -10.0881   12.6174  -36.1751 H   0  0  0  0  0  0  0  0  0  0  0  0
  -10.4612   12.4809  -37.9083 H   0  0  0  0  0  0  0  0  0  0  0  0
   -9.1723   11.5024  -37.1739 H   0  0  0  0  0  0  0  0  0  0  0  0
   -7.2966   14.1923  -39.0702 H   0  0  0  0  0  0  0  0  0  0  0  0
   -8.7990   13.4793  -39.6302 H   0  0  0  0  0  0  0  0  0  0  0  0
   -7.5304   12.4340  -38.9534 H   0  0  0  0  0  0  0  0  0  0  0  0
   -6.8069   14.4059  -36.6115 H   0  0  0  0  0  0  0  0  0  0  0  0
   -7.9502   13.7850  -35.4012 H   0  0  0  0  0  0  0  0  0  0  0  0
   -6.9790   12.6731  -36.3926 H   0  0  0  0  0  0  0  0  0  0  0  0
  -12.1652   13.3232  -37.9505 H   0  0  0  0  0  0  0  0  0  0  0  0
  1  8  1  0  0  0  0
  1 14  2  0  0  0  0
  1 15  1  0  0  0  0
  2  3  1  0  0  0  0
  2  5  1  0  0  0  0
  3  7  1  0  0  0  0
  4  6  1  0  0  0  0
  4  7  1  0  0  0  0
  5  8  1  0  0  0  0
  6  8  1  0  0  0  0
  7 13  1  0  0  0  0
  8 13  1  0  0  0  0
  9 12  1  0  0  0  0
 10 12  1  0  0  0  0
 11 12  1  0  0  0  0
 12 15  1  0  0  0  0
  2 16  1  0  0  0  0
  2 17  1  0  0  0  0
  3 18  1  0  0  0  0
  3 19  1  0  0  0  0
  4 20  1  0  0  0  0
  4 21  1  0  0  0  0
  5 22  1  0  0  0  0
  5 23  1  0  0  0  0
  6 24  1  0  0  0  0
  6 25  1  0  0  0  0
  7 26  1  0  0  0  0
  9 27  1  0  0  0  0
  9 28  1  0  0  0  0
  9 29  1  0  0  0  0
 10 30  1  0  0  0  0
 10 31  1  0  0  0  0
 10 32  1  0  0  0  0
 11 33  1  0  0  0  0
 11 34  1  0  0  0  0
 11 35  1  0  0  0  0
 13 36  1  0  0  0  0
M  END
> <id>
EN300-27729755

> <smiles>
CC(C)(C)OC(=O)C1(CCC2CCC1)N2

> <IUPAC Name>
tert-butyl 8-azabicyclo[3.2.1]octane-1-carboxylate

> <CAS>
2167024-89-5

> <URL>
https://www.enaminestore.com/catalog/EN300-27729755

> <ROCS_ShapeQuery>
_x1247relevant_x1083L0AP1_x1305L0BP1_

> <ROCS_TanimotoCombo>
0.824 

> <ROCS_ShapeTanimoto>
0.463 

> <ROCS_ColorTanimoto>
0.361 

> <ROCS_RefTversky>
0.400 

> <ROCS_RefColorTversky>
0.396 

> <ROCS_RefTverskyCombo>
0.796 

> <ROCS_FitTversky>
1.507 

> <ROCS_FitColorTversky>
0.807 

> <ROCS_FitTverskyCombo>
2.314 

> <ROCS_ColorScore>
-8.406

> <ROCS_Overlap>
1179.071

> <ROCS_Rank>
360                 

$$$$
untitled-dbase-153041_10
  -OEChem-06232314393D

 26 27  0     0  0  0  0  0  0999 V2000
  -13.0354   16.6052  -40.3935 C   0  0  0  0  0  0  0  0  0  0  0  0
   -9.7114   15.0001  -37.0357 C   0  0  0  0  0  0  0  0  0  0  0  0
  -13.5751   16.1204  -37.8529 C   0  0  0  0  0  0  0  0  0  0  0  0
  -13.4482   14.3766  -39.0503 C   0  0  0  0  0  0  0  0  0  0  0  0
  -11.2485   15.6452  -38.8371 C   0  0  0  0  0  0  0  0  0  0  0  0
  -12.1109   14.2467  -36.8822 C   0  0  0  0  0  0  0  0  0  0  0  0
  -12.7451   15.7669  -39.1288 C   0  0  0  0  0  0  0  0  0  0  0  0
  -13.4412   14.6107  -37.5194 C   0  0  0  0  0  0  0  0  0  0  0  0
   -9.3231   13.8346  -36.1586 C   0  0  0  0  0  0  0  0  0  0  0  0
  -11.0195   14.9912  -37.5374 N   0  0  0  0  0  0  0  0  0  0  0  0
  -12.2155   17.2938  -40.9825 O   0  0  0  0  0  0  0  0  0  0  0  0
   -8.8911   15.8920  -37.2657 O   0  0  0  0  0  0  0  0  0  0  0  0
  -14.3324   16.4769  -40.7656 O   0  0  0  0  0  0  0  0  0  0  0  0
  -14.4596   14.0556  -36.8285 F   0  0  0  0  0  0  0  0  0  0  0  0
  -10.3536   12.9814  -36.0262 F   0  0  0  0  0  0  0  0  0  0  0  0
   -8.2862   13.1662  -36.6928 F   0  0  0  0  0  0  0  0  0  0  0  0
   -8.9661   14.2601  -34.9341 F   0  0  0  0  0  0  0  0  0  0  0  0
  -13.1174   16.8199  -37.1471 H   0  0  0  0  0  0  0  0  0  0  0  0
  -14.6038   16.4480  -38.0473 H   0  0  0  0  0  0  0  0  0  0  0  0
  -14.4506   14.3402  -39.4943 H   0  0  0  0  0  0  0  0  0  0  0  0
  -12.8780   13.5170  -39.4151 H   0  0  0  0  0  0  0  0  0  0  0  0
  -10.7413   15.0504  -39.6062 H   0  0  0  0  0  0  0  0  0  0  0  0
  -10.7720   16.6324  -38.8106 H   0  0  0  0  0  0  0  0  0  0  0  0
  -12.1187   14.4947  -35.8163 H   0  0  0  0  0  0  0  0  0  0  0  0
  -11.9050   13.1757  -36.9839 H   0  0  0  0  0  0  0  0  0  0  0  0
  -14.5375   17.0041  -41.5671 H   0  0  0  0  0  0  0  0  0  0  0  0
  1  7  1  0  0  0  0
  1 11  2  0  0  0  0
  1 13  1  0  0  0  0
  2  9  1  0  0  0  0
  2 10  1  0  0  0  0
  2 12  2  0  0  0  0
  3  7  1  0  0  0  0
  3  8  1  0  0  0  0
  4  7  1  0  0  0  0
  4  8  1  0  0  0  0
  5  7  1  0  0  0  0
  5 10  1  0  0  0  0
  6  8  1  0  0  0  0
  6 10  1  0  0  0  0
  8 14  1  0  0  0  0
  9 15  1  0  0  0  0
  9 16  1  0  0  0  0
  9 17  1  0  0  0  0
  3 18  1  0  0  0  0
  3 19  1  0  0  0  0
  4 20  1  0  0  0  0
  4 21  1  0  0  0  0
  5 22  1  0  0  0  0
  5 23  1  0  0  0  0
  6 24  1  0  0  0  0
  6 25  1  0  0  0  0
 13 26  1  0  0  0  0
M  END
> <id>
EN300-28279670

> <smiles>
OC(=O)C1(CC2(F)C1)CN(C2)C(=O)C(F)(F)F

> <IUPAC Name>
5-fluoro-3-(2,2,2-trifluoroacetyl)-3-azabicyclo[3.1.1]heptane-1-carboxylic acid

> <CAS>
2680734-93-2

> <URL>
https://www.enaminestore.com/catalog/EN300-28279670

> <ROCS_ShapeQuery>
_x1247relevant_x1083L0AP1_x1305L0BP1_

> <ROCS_TanimotoCombo>
0.824 

> <ROCS_ShapeTanimoto>
0.521 

> <ROCS_ColorTanimoto>
0.303 

> <ROCS_RefTversky>
0.446 

> <ROCS_RefColorTversky>
0.350 

> <ROCS_RefTverskyCombo>
0.796 

> <ROCS_FitTversky>
1.475 

> <ROCS_FitColorTversky>
0.693 

> <ROCS_FitTverskyCombo>
2.168 

> <ROCS_ColorScore>
-7.439

> <ROCS_Overlap>
1316.703

> <ROCS_Rank>
361                 

$$$$
untitled-dbase-61334_118
  -OEChem-06232314393D

 42 44  0     1  0  0  0  0  0999 V2000
  -11.7581   16.0732  -40.6569 C   0  0  0  0  0  0  0  0  0  0  0  0
  -13.9975   15.6000  -37.8466 C   0  0  0  0  0  0  0  0  0  0  0  0
   -9.7268   15.6953  -38.1300 C   0  0  0  0  0  0  0  0  0  0  0  0
   -9.6963   15.2923  -36.0139 C   0  0  0  0  0  0  0  0  0  0  0  0
  -12.6554   14.1194  -39.2802 C   0  0  0  0  0  0  0  0  0  0  0  0
  -13.0926   14.3032  -37.8187 C   0  0  1  0  0  0  0  0  0  0  0  0
  -12.0922   15.2784  -37.0835 C   0  0  2  0  0  0  0  0  0  0  0  0
  -12.5960   16.2126  -38.2450 C   0  0  1  0  0  0  0  0  0  0  0  0
  -10.6355   14.8902  -37.1737 C   0  0  0  0  0  0  0  0  0  0  0  0
   -8.6140   15.6719  -37.0538 C   0  0  0  0  0  0  0  0  0  0  0  0
  -10.3863   16.7375  -43.0727 C   0  0  0  0  0  0  0  0  0  0  0  0
  -10.0736   14.2616  -43.3585 C   0  0  0  0  0  0  0  0  0  0  0  0
  -12.3892   15.2335  -43.3198 C   0  0  0  0  0  0  0  0  0  0  0  0
  -10.9663   15.3553  -42.7762 C   0  0  0  0  0  0  0  0  0  0  0  0
  -12.2833   15.5170  -39.5140 N   0  0  0  0  0  0  0  0  0  0  0  0
  -10.4548   13.4594  -37.4523 N   0  0  0  0  0  0  0  0  0  0  0  0
  -11.9430   17.2363  -41.0059 O   0  0  0  0  0  0  0  0  0  0  0  0
  -11.0033   15.1716  -41.3566 O   0  0  0  0  0  0  0  0  0  0  0  0
   -7.6468   14.7449  -37.2443 F   0  0  0  0  0  0  0  0  0  0  0  0
   -7.9869   16.8497  -36.8385 F   0  0  0  0  0  0  0  0  0  0  0  0
  -14.7822   15.6337  -38.6091 H   0  0  0  0  0  0  0  0  0  0  0  0
  -14.4240   15.9261  -36.8909 H   0  0  0  0  0  0  0  0  0  0  0  0
   -9.4696   15.2113  -39.0781 H   0  0  0  0  0  0  0  0  0  0  0  0
  -10.0779   16.7107  -38.3528 H   0  0  0  0  0  0  0  0  0  0  0  0
  -10.0357   16.1530  -35.4239 H   0  0  0  0  0  0  0  0  0  0  0  0
   -9.4155   14.4952  -35.3175 H   0  0  0  0  0  0  0  0  0  0  0  0
  -11.7928   13.4631  -39.4125 H   0  0  0  0  0  0  0  0  0  0  0  0
  -13.4705   13.8328  -39.9494 H   0  0  0  0  0  0  0  0  0  0  0  0
  -13.4663   13.4367  -37.2733 H   0  0  0  0  0  0  0  0  0  0  0  0
  -12.3794   15.5757  -36.0664 H   0  0  0  0  0  0  0  0  0  0  0  0
  -12.4492   17.2897  -38.1858 H   0  0  0  0  0  0  0  0  0  0  0  0
  -11.0243   17.5253  -42.6563 H   0  0  0  0  0  0  0  0  0  0  0  0
   -9.3794   16.8498  -42.6577 H   0  0  0  0  0  0  0  0  0  0  0  0
  -10.3376   16.9177  -44.1527 H   0  0  0  0  0  0  0  0  0  0  0  0
  -10.4860   13.2682  -43.1481 H   0  0  0  0  0  0  0  0  0  0  0  0
   -9.0779   14.2857  -42.9009 H   0  0  0  0  0  0  0  0  0  0  0  0
   -9.9597   14.3674  -44.4422 H   0  0  0  0  0  0  0  0  0  0  0  0
  -12.8055   14.2421  -43.1072 H   0  0  0  0  0  0  0  0  0  0  0  0
  -13.0531   15.9876  -42.8847 H   0  0  0  0  0  0  0  0  0  0  0  0
  -12.4009   15.3465  -44.4099 H   0  0  0  0  0  0  0  0  0  0  0  0
  -10.1231   13.0081  -36.6278 H   0  0  0  0  0  0  0  0  0  0  0  0
  -11.3309   13.0699  -37.7250 H   0  0  0  0  0  0  0  0  0  0  0  0
  1 15  1  0  0  0  0
  1 17  2  0  0  0  0
  1 18  1  0  0  0  0
  2  6  1  0  0  0  0
  2  8  1  6  0  0  0
  3  9  1  0  0  0  0
  3 10  1  0  0  0  0
  4  9  1  0  0  0  0
  4 10  1  0  0  0  0
  5  6  1  1  0  0  0
  5 15  1  0  0  0  0
  6  7  1  0  0  0  0
  7  8  1  0  0  0  0
  7  9  1  0  0  0  0
  8 15  1  0  0  0  0
  9 16  1  0  0  0  0
 10 19  1  0  0  0  0
 10 20  1  0  0  0  0
 11 14  1  0  0  0  0
 12 14  1  0  0  0  0
 13 14  1  0  0  0  0
 14 18  1  0  0  0  0
  2 21  1  0  0  0  0
  2 22  1  0  0  0  0
  3 23  1  0  0  0  0
  3 24  1  0  0  0  0
  4 25  1  0  0  0  0
  4 26  1  0  0  0  0
  5 27  1  0  0  0  0
  5 28  1  0  0  0  0
  6 29  1  0  0  0  0
  7 30  1  0  0  0  0
  8 31  1  0  0  0  0
 11 32  1  0  0  0  0
 11 33  1  0  0  0  0
 11 34  1  0  0  0  0
 12 35  1  0  0  0  0
 12 36  1  0  0  0  0
 12 37  1  0  0  0  0
 13 38  1  0  0  0  0
 13 39  1  0  0  0  0
 13 40  1  0  0  0  0
 16 41  1  0  0  0  0
 16 42  1  0  0  0  0
M  END
> <id>
EN300-1885773

> <smiles>
CC(C)(C)OC(=O)N1C[C@@H]2C[C@H]1C2C3(N)CC(F)(F)C3

> <IUPAC Name>
tert-butyl (1S,4R)-5-(1-amino-3,3-difluorocyclobutyl)-2-azabicyclo[2.1.1]hexane-2-carboxylate

> <CAS>
2227947-22-8

> <URL>
https://www.enaminestore.com/catalog/EN300-1885773

> <ROCS_ShapeQuery>
_x1247relevant_x1083L0AP1_x1305L0BP1_

> <ROCS_TanimotoCombo>
0.824 

> <ROCS_ShapeTanimoto>
0.464 

> <ROCS_ColorTanimoto>
0.360 

> <ROCS_RefTversky>
0.426 

> <ROCS_RefColorTversky>
0.417 

> <ROCS_RefTverskyCombo>
0.843 

> <ROCS_FitTversky>
1.239 

> <ROCS_FitColorTversky>
0.725 

> <ROCS_FitTverskyCombo>
1.965 

> <ROCS_ColorScore>
-8.899

> <ROCS_Overlap>
1259.242

> <ROCS_Rank>
362                 

$$$$
untitled-dbase-68535_1
  -OEChem-06232314393D

 26 28  0     1  0  0  0  0  0999 V2000
  -10.0596   15.1011  -36.7759 C   0  0  0  0  0  0  0  0  0  0  0  0
  -13.0853   14.7817  -39.8655 C   0  0  0  0  0  0  0  0  0  0  0  0
  -12.2752   16.0892  -39.7475 C   0  0  0  0  0  0  0  0  0  0  0  0
  -11.6349   13.6951  -38.1461 C   0  0  0  0  0  0  0  0  0  0  0  0
  -14.3097   16.2596  -37.5939 C   0  0  0  0  0  0  0  0  0  0  0  0
  -10.7945   14.9942  -38.0807 C   0  0  1  0  0  0  0  0  0  0  0  0
  -13.1011   14.0381  -38.5125 C   0  0  1  0  0  0  0  0  0  0  0  0
  -11.7085   16.2287  -38.3182 C   0  0  2  0  0  0  0  0  0  0  0  0
  -13.6358   14.9250  -37.4000 C   0  0  1  0  0  0  0  0  0  0  0  0
  -12.8330   16.1957  -37.2879 C   0  0  2  0  0  0  0  0  0  0  0  0
  -10.4596   14.6636  -35.7073 O   0  0  0  0  0  0  0  0  0  0  0  0
   -8.8841   15.7554  -36.9408 O   0  0  0  0  0  0  0  0  0  0  0  0
  -14.1070   15.0048  -40.1941 H   0  0  0  0  0  0  0  0  0  0  0  0
  -12.6439   14.1435  -40.6407 H   0  0  0  0  0  0  0  0  0  0  0  0
  -11.4604   16.0863  -40.4817 H   0  0  0  0  0  0  0  0  0  0  0  0
  -12.9090   16.9482  -39.9969 H   0  0  0  0  0  0  0  0  0  0  0  0
  -11.2118   13.0247  -38.9044 H   0  0  0  0  0  0  0  0  0  0  0  0
  -11.6085   13.1512  -37.1937 H   0  0  0  0  0  0  0  0  0  0  0  0
  -14.6537   16.5597  -38.5727 H   0  0  0  0  0  0  0  0  0  0  0  0
  -14.9651   16.6029  -36.7996 H   0  0  0  0  0  0  0  0  0  0  0  0
  -10.0176   14.9592  -38.8551 H   0  0  0  0  0  0  0  0  0  0  0  0
  -13.7008   13.1252  -38.5877 H   0  0  0  0  0  0  0  0  0  0  0  0
  -11.1465   17.1642  -38.2217 H   0  0  0  0  0  0  0  0  0  0  0  0
  -13.8406   14.3770  -36.4883 H   0  0  0  0  0  0  0  0  0  0  0  0
  -12.5110   16.5064  -36.3014 H   0  0  0  0  0  0  0  0  0  0  0  0
   -8.7436   16.0271  -37.8729 H   0  0  0  0  0  0  0  0  0  0  0  0
  1  6  1  0  0  0  0
  1 11  2  0  0  0  0
  1 12  1  0  0  0  0
  2  3  1  0  0  0  0
  2  7  1  0  0  0  0
  3  8  1  0  0  0  0
  4  6  1  0  0  0  0
  4  7  1  0  0  0  0
  5  9  1  0  0  0  0
  5 10  1  0  0  0  0
  6  8  1  0  0  0  0
  7  9  1  0  0  0  0
  8 10  1  0  0  0  0
  9 10  1  0  0  0  0
  2 13  1  0  0  0  0
  2 14  1  0  0  0  0
  3 15  1  0  0  0  0
  3 16  1  0  0  0  0
  4 17  1  0  0  0  0
  4 18  1  0  0  0  0
  5 19  1  0  0  0  0
  5 20  1  0  0  0  0
  6 21  1  0  0  0  0
  7 22  1  0  0  0  0
  8 23  1  0  0  0  0
  9 24  1  0  0  0  0
 10 25  1  0  0  0  0
 12 26  1  0  0  0  0
M  END
> <id>
EN300-37342678

> <smiles>
OC(=O)C1CC2CCC1C3CC32

> <IUPAC Name>
tricyclo[3.2.2.0,2,4]nonane-6-carboxylic acid

> <CAS>
55308-28-6

> <URL>
https://www.enaminestore.com/catalog/EN300-37342678

> <ROCS_ShapeQuery>
_x1247relevant_x1083L0AP1_x1305L0BP1_

> <ROCS_TanimotoCombo>
0.824 

> <ROCS_ShapeTanimoto>
0.455 

> <ROCS_ColorTanimoto>
0.369 

> <ROCS_RefTversky>
0.383 

> <ROCS_RefColorTversky>
0.510 

> <ROCS_RefTverskyCombo>
0.893 

> <ROCS_FitTversky>
1.699 

> <ROCS_FitColorTversky>
0.573 

> <ROCS_FitTverskyCombo>
2.272 

> <ROCS_ColorScore>
-11.071

> <ROCS_Overlap>
1125.444

> <ROCS_Rank>
363                 

$$$$
untitled-dbase-151413_2
  -OEChem-06232314393D

 27 28  0     1  0  0  0  0  0999 V2000
  -10.1603   15.7231  -36.7989 C   0  0  0  0  0  0  0  0  0  0  0  0
  -13.4930   14.6199  -39.3313 C   0  0  0  0  0  0  0  0  0  0  0  0
  -13.5163   14.1507  -37.8691 C   0  0  0  0  0  0  0  0  0  0  0  0
  -12.9010   16.4371  -37.9123 C   0  0  0  0  0  0  0  0  0  0  0  0
  -11.1141   15.3831  -39.0968 C   0  0  0  0  0  0  0  0  0  0  0  0
  -12.5726   15.8519  -39.2853 C   0  0  1  0  0  0  0  0  0  0  0  0
  -12.5578   15.1375  -37.1731 C   0  0  2  0  0  0  0  0  0  0  0  0
  -11.1017   14.8938  -37.6355 C   0  0  2  0  0  0  0  0  0  0  0  0
  -10.0774   17.1422  -34.9114 C   0  0  0  0  0  0  0  0  0  0  0  0
  -10.6152   13.5296  -37.4833 N   0  0  0  0  0  0  0  0  0  0  0  0
   -8.9606   15.8264  -37.0164 O   0  0  0  0  0  0  0  0  0  0  0  0
  -10.8540   16.3201  -35.7883 O   0  0  0  0  0  0  0  0  0  0  0  0
  -13.1202   13.8433  -40.0066 H   0  0  0  0  0  0  0  0  0  0  0  0
  -14.5033   14.8966  -39.6529 H   0  0  0  0  0  0  0  0  0  0  0  0
  -14.5296   14.2614  -37.4637 H   0  0  0  0  0  0  0  0  0  0  0  0
  -13.2393   13.0993  -37.7595 H   0  0  0  0  0  0  0  0  0  0  0  0
  -12.2635   17.2842  -37.6395 H   0  0  0  0  0  0  0  0  0  0  0  0
  -13.9522   16.7270  -37.8066 H   0  0  0  0  0  0  0  0  0  0  0  0
  -10.8579   14.5984  -39.8180 H   0  0  0  0  0  0  0  0  0  0  0  0
  -10.4225   16.2185  -39.2578 H   0  0  0  0  0  0  0  0  0  0  0  0
  -12.7062   16.5283  -40.1318 H   0  0  0  0  0  0  0  0  0  0  0  0
  -12.6949   15.1826  -36.0896 H   0  0  0  0  0  0  0  0  0  0  0  0
  -10.7255   17.5698  -34.1425 H   0  0  0  0  0  0  0  0  0  0  0  0
   -9.6003   17.9402  -35.4859 H   0  0  0  0  0  0  0  0  0  0  0  0
   -9.3086   16.5282  -34.4364 H   0  0  0  0  0  0  0  0  0  0  0  0
   -9.6792   13.4904  -37.8151 H   0  0  0  0  0  0  0  0  0  0  0  0
  -10.6530   13.2882  -36.5200 H   0  0  0  0  0  0  0  0  0  0  0  0
  1  8  1  0  0  0  0
  1 11  2  0  0  0  0
  1 12  1  0  0  0  0
  2  3  1  0  0  0  0
  2  6  1  0  0  0  0
  3  7  1  0  0  0  0
  4  6  1  0  0  0  0
  4  7  1  0  0  0  0
  5  6  1  0  0  0  0
  5  8  1  0  0  0  0
  7  8  1  0  0  0  0
  8 10  1  0  0  0  0
  9 12  1  0  0  0  0
  2 13  1  0  0  0  0
  2 14  1  0  0  0  0
  3 15  1  0  0  0  0
  3 16  1  0  0  0  0
  4 17  1  0  0  0  0
  4 18  1  0  0  0  0
  5 19  1  0  0  0  0
  5 20  1  0  0  0  0
  6 21  1  0  0  0  0
  7 22  1  0  0  0  0
  9 23  1  0  0  0  0
  9 24  1  0  0  0  0
  9 25  1  0  0  0  0
 10 26  1  0  0  0  0
 10 27  1  0  0  0  0
M  END
> <id>
EN300-1241550

> <smiles>
COC(=O)C1(N)CC2CCC1C2

> <MDLNUMBER>
MFCD24121424

> <IUPAC Name>
methyl 2-aminobicyclo[2.2.1]heptane-2-carboxylate

> <CAS>
761385-34-6

> <URL>
https://www.enaminestore.com/catalog/EN300-1241550

> <ROCS_ShapeQuery>
_x1247relevant_x1083L0AP1_x1305L0BP1_

> <ROCS_TanimotoCombo>
0.824 

> <ROCS_ShapeTanimoto>
0.434 

> <ROCS_ColorTanimoto>
0.390 

> <ROCS_RefTversky>
0.371 

> <ROCS_RefColorTversky>
0.412 

> <ROCS_RefTverskyCombo>
0.783 

> <ROCS_FitTversky>
1.648 

> <ROCS_FitColorTversky>
0.880 

> <ROCS_FitTverskyCombo>
2.528 

> <ROCS_ColorScore>
-8.742

> <ROCS_Overlap>
1089.191

> <ROCS_Rank>
364                 

$$$$
untitled-dbase-111394_6
  -OEChem-06232314393D

 25 27  0     1  0  0  0  0  0999 V2000
  -10.1274   15.2357  -36.8578 C   0  0  0  0  0  0  0  0  0  0  0  0
  -13.5386   15.9397  -39.5653 C   0  0  0  0  0  0  0  0  0  0  0  0
  -13.3185   16.8059  -38.3109 C   0  0  0  0  0  0  0  0  0  0  0  0
  -13.2778   13.8443  -38.2343 C   0  0  0  0  0  0  0  0  0  0  0  0
  -12.7788   14.5975  -39.4912 C   0  0  2  0  0  0  0  0  0  0  0  0
  -12.5079   16.1074  -37.2554 C   0  0  1  0  0  0  0  0  0  0  0  0
  -12.6015   14.6126  -37.1309 C   0  0  2  0  0  0  0  0  0  0  0  0
  -11.2792   14.8207  -39.1451 C   0  0  2  0  0  0  0  0  0  0  0  0
  -11.3452   15.2286  -37.6829 C   0  0  2  0  0  0  0  0  0  0  0  0
  -10.6171   15.8158  -39.9714 N   0  0  0  0  0  0  0  0  0  0  0  0
   -9.0163   15.5607  -37.2493 O   0  0  0  0  0  0  0  0  0  0  0  0
  -10.4025   14.8279  -35.5947 O   0  0  0  0  0  0  0  0  0  0  0  0
  -14.6120   15.7450  -39.6845 H   0  0  0  0  0  0  0  0  0  0  0  0
  -13.2380   16.5025  -40.4571 H   0  0  0  0  0  0  0  0  0  0  0  0
  -12.8097   17.7351  -38.5928 H   0  0  0  0  0  0  0  0  0  0  0  0
  -14.2891   17.0953  -37.8917 H   0  0  0  0  0  0  0  0  0  0  0  0
  -14.3675   13.8555  -38.1358 H   0  0  0  0  0  0  0  0  0  0  0  0
  -12.9307   12.8052  -38.2379 H   0  0  0  0  0  0  0  0  0  0  0  0
  -12.9223   14.0201  -40.4096 H   0  0  0  0  0  0  0  0  0  0  0  0
  -12.4129   16.6909  -36.3485 H   0  0  0  0  0  0  0  0  0  0  0  0
  -12.6119   14.1469  -36.1589 H   0  0  0  0  0  0  0  0  0  0  0  0
  -10.7434   13.8663  -39.2301 H   0  0  0  0  0  0  0  0  0  0  0  0
   -9.6804   15.9211  -39.6532 H   0  0  0  0  0  0  0  0  0  0  0  0
  -10.6279   15.5024  -40.9156 H   0  0  0  0  0  0  0  0  0  0  0  0
   -9.6015   14.8240  -35.0283 H   0  0  0  0  0  0  0  0  0  0  0  0
  1  9  1  0  0  0  0
  1 11  2  0  0  0  0
  1 12  1  0  0  0  0
  2  3  1  0  0  0  0
  2  5  1  0  0  0  0
  3  6  1  0  0  0  0
  4  5  1  0  0  0  0
  4  7  1  0  0  0  0
  5  8  1  0  0  0  0
  6  7  1  0  0  0  0
  6  9  1  0  0  0  0
  7  9  1  0  0  0  0
  8  9  1  0  0  0  0
  8 10  1  0  0  0  0
  2 13  1  0  0  0  0
  2 14  1  0  0  0  0
  3 15  1  0  0  0  0
  3 16  1  0  0  0  0
  4 17  1  0  0  0  0
  4 18  1  0  0  0  0
  5 19  1  0  0  0  0
  6 20  1  0  0  0  0
  7 21  1  0  0  0  0
  8 22  1  0  0  0  0
 10 23  1  0  0  0  0
 10 24  1  0  0  0  0
 12 25  1  0  0  0  0
M  END
> <id>
EN300-26677876

> <smiles>
Cl.NC1C2CC3C(CC2)C31C(=O)O

> <MDLNUMBER>
MFCD32678884

> <IUPAC Name>
8-aminotricyclo[3.2.1.0,2,7]octane-1-carboxylic acid hydrochloride

> <CAS>
2649060-95-5

> <Purity>
95

> <URL>
https://www.enaminestore.com/catalog/EN300-26677876

> <Saltdate>
Cl

> <ROCS_ShapeQuery>
_x1247relevant_x1083L0AP1_x1305L0BP1_

> <ROCS_TanimotoCombo>
0.824 

> <ROCS_ShapeTanimoto>
0.464 

> <ROCS_ColorTanimoto>
0.360 

> <ROCS_RefTversky>
0.389 

> <ROCS_RefColorTversky>
0.623 

> <ROCS_RefTverskyCombo>
1.012 

> <ROCS_FitTversky>
1.707 

> <ROCS_FitColorTversky>
0.460 

> <ROCS_FitTverskyCombo>
2.168 

> <ROCS_ColorScore>
-13.885

> <ROCS_Overlap>
1143.413

> <ROCS_Rank>
365                 

$$$$
untitled-dbase-118709_0
  -OEChem-06232314393D

 37 39  0     1  0  0  0  0  0999 V2000
   -8.9930   16.0255  -39.0887 C   0  0  0  0  0  0  0  0  0  0  0  0
  -13.9051   13.9931  -38.3212 C   0  0  0  0  0  0  0  0  0  0  0  0
  -14.0945   15.1990  -37.3758 C   0  0  0  0  0  0  0  0  0  0  0  0
  -11.4847   14.3405  -39.0913 C   0  0  0  0  0  0  0  0  0  0  0  0
  -11.8619   16.4250  -37.5379 C   0  0  0  0  0  0  0  0  0  0  0  0
   -8.8252   14.1672  -37.4027 C   0  0  0  0  0  0  0  0  0  0  0  0
  -11.0299   14.1940  -36.5659 C   0  0  0  0  0  0  0  0  0  0  0  0
   -9.5238   15.4617  -37.8061 C   0  0  2  0  0  0  0  0  0  0  0  0
  -12.9769   14.4215  -39.4663 C   0  0  2  0  0  0  0  0  0  0  0  0
  -13.3370   16.4008  -37.9647 C   0  0  1  0  0  0  0  0  0  0  0  0
  -11.0405   15.1255  -37.8020 C   0  0  0  0  0  0  0  0  0  0  0  0
   -9.2178   17.8481  -40.5758 C   0  0  0  0  0  0  0  0  0  0  0  0
   -9.8411   13.3525  -36.7350 N   0  0  0  0  0  0  0  0  0  0  0  0
   -8.1195   15.4945  -39.7610 O   0  0  0  0  0  0  0  0  0  0  0  0
  -12.3682   16.8397  -40.4132 O   0  0  0  0  0  0  0  0  0  0  0  0
  -14.8046   16.2075  -40.1584 O   0  0  0  0  0  0  0  0  0  0  0  0
   -9.6308   17.1973  -39.3699 O   0  0  0  0  0  0  0  0  0  0  0  0
  -13.4246   16.1291  -39.7262 S   0  0  0  0  0  0  0  0  0  0  0  0
  -13.5462   13.1013  -37.8005 H   0  0  0  0  0  0  0  0  0  0  0  0
  -14.8861   13.7253  -38.7350 H   0  0  0  0  0  0  0  0  0  0  0  0
  -15.1655   15.4337  -37.3269 H   0  0  0  0  0  0  0  0  0  0  0  0
  -13.7844   14.9755  -36.3505 H   0  0  0  0  0  0  0  0  0  0  0  0
  -11.2196   13.2800  -39.0093 H   0  0  0  0  0  0  0  0  0  0  0  0
  -10.9215   14.7065  -39.9572 H   0  0  0  0  0  0  0  0  0  0  0  0
  -11.3791   17.2646  -38.0547 H   0  0  0  0  0  0  0  0  0  0  0  0
  -11.8145   16.6802  -36.4713 H   0  0  0  0  0  0  0  0  0  0  0  0
   -8.4186   13.6261  -38.2649 H   0  0  0  0  0  0  0  0  0  0  0  0
   -7.9935   14.3703  -36.7196 H   0  0  0  0  0  0  0  0  0  0  0  0
  -10.9264   14.7630  -35.6335 H   0  0  0  0  0  0  0  0  0  0  0  0
  -11.9168   13.5684  -36.4631 H   0  0  0  0  0  0  0  0  0  0  0  0
   -9.3212   16.2185  -37.0359 H   0  0  0  0  0  0  0  0  0  0  0  0
  -13.1782   13.8605  -40.3832 H   0  0  0  0  0  0  0  0  0  0  0  0
  -13.8275   17.3490  -37.7273 H   0  0  0  0  0  0  0  0  0  0  0  0
   -9.7874   18.7715  -40.7058 H   0  0  0  0  0  0  0  0  0  0  0  0
   -9.3846   17.1818  -41.4259 H   0  0  0  0  0  0  0  0  0  0  0  0
   -8.1538   18.0859  -40.5050 H   0  0  0  0  0  0  0  0  0  0  0  0
  -10.0713   12.5565  -37.3290 H   0  0  0  0  0  0  0  0  0  0  0  0
  1  8  1  0  0  0  0
  1 14  2  0  0  0  0
  1 17  1  0  0  0  0
  2  3  1  0  0  0  0
  2  9  1  0  0  0  0
  3 10  1  0  0  0  0
  4  9  1  0  0  0  0
  4 11  1  0  0  0  0
  5 10  1  0  0  0  0
  5 11  1  0  0  0  0
  6  8  1  0  0  0  0
  6 13  1  0  0  0  0
  7 11  1  0  0  0  0
  7 13  1  0  0  0  0
  8 11  1  0  0  0  0
  9 18  1  0  0  0  0
 10 18  1  0  0  0  0
 12 17  1  0  0  0  0
 15 18  2  0  0  0  0
 16 18  2  0  0  0  0
  2 19  1  0  0  0  0
  2 20  1  0  0  0  0
  3 21  1  0  0  0  0
  3 22  1  0  0  0  0
  4 23  1  0  0  0  0
  4 24  1  0  0  0  0
  5 25  1  0  0  0  0
  5 26  1  0  0  0  0
  6 27  1  0  0  0  0
  6 28  1  0  0  0  0
  7 29  1  0  0  0  0
  7 30  1  0  0  0  0
  8 31  1  0  0  0  0
  9 32  1  0  0  0  0
 10 33  1  0  0  0  0
 12 34  1  0  0  0  0
 12 35  1  0  0  0  0
 12 36  1  0  0  0  0
 13 37  1  0  0  0  0
M  END
> <id>
EN300-1455544

> <smiles>
COC(=O)C1CNCC21CC3CCC(C2)S3(=O)=O

> <IUPAC Name>
methyl 8,8-dioxo-8lambda6-thiaspiro[bicyclo[3.2.1]octane-3,3'-pyrrolidine]-4'-carboxylate

> <CAS>
2172311-46-3

> <URL>
https://www.enaminestore.com/catalog/EN300-1455544

> <ROCS_ShapeQuery>
_x1247relevant_x1083L0AP1_x1305L0BP1_

> <ROCS_TanimotoCombo>
0.824 

> <ROCS_ShapeTanimoto>
0.464 

> <ROCS_ColorTanimoto>
0.360 

> <ROCS_RefTversky>
0.414 

> <ROCS_RefColorTversky>
0.415 

> <ROCS_RefTverskyCombo>
0.829 

> <ROCS_FitTversky>
1.359 

> <ROCS_FitColorTversky>
0.728 

> <ROCS_FitTverskyCombo>
2.087 

> <ROCS_ColorScore>
-8.864

> <ROCS_Overlap>
1220.399

> <ROCS_Rank>
366                 

$$$$
untitled-dbase-50382_0
  -OEChem-06232314393D

 30 32  0     1  0  0  0  0  0999 V2000
   -8.6377   17.0554  -36.7188 C   0  0  0  0  0  0  0  0  0  0  0  0
  -13.4436   14.7799  -39.4370 C   0  0  0  0  0  0  0  0  0  0  0  0
  -13.5416   14.1631  -38.0420 C   0  0  0  0  0  0  0  0  0  0  0  0
   -8.6571   15.5709  -37.1284 C   0  0  0  0  0  0  0  0  0  0  0  0
  -10.1649   17.0744  -36.9183 C   0  0  0  0  0  0  0  0  0  0  0  0
  -11.0314   15.3863  -39.0589 C   0  0  0  0  0  0  0  0  0  0  0  0
  -12.4576   15.9240  -39.2100 C   0  0  2  0  0  0  0  0  0  0  0  0
  -12.5397   15.0029  -37.2460 C   0  0  1  0  0  0  0  0  0  0  0  0
  -11.0667   14.7626  -37.6462 C   0  0  2  0  0  0  0  0  0  0  0  0
  -10.1529   15.5347  -36.7082 C   0  0  0  0  0  0  0  0  0  0  0  0
  -10.6604   13.3630  -37.6434 N   0  0  0  0  0  0  0  0  0  0  0  0
  -12.7722   16.3037  -37.8505 O   0  0  0  0  0  0  0  0  0  0  0  0
  -10.3969   15.1115  -35.3480 O   0  0  0  0  0  0  0  0  0  0  0  0
   -8.2911   17.2613  -35.7040 H   0  0  0  0  0  0  0  0  0  0  0  0
   -8.0943   17.6986  -37.4185 H   0  0  0  0  0  0  0  0  0  0  0  0
  -13.1068   14.0699  -40.1980 H   0  0  0  0  0  0  0  0  0  0  0  0
  -14.4244   15.1661  -39.7360 H   0  0  0  0  0  0  0  0  0  0  0  0
  -14.5547   14.3192  -37.6523 H   0  0  0  0  0  0  0  0  0  0  0  0
  -13.3413   13.0892  -38.0261 H   0  0  0  0  0  0  0  0  0  0  0  0
   -8.4390   15.3767  -38.1794 H   0  0  0  0  0  0  0  0  0  0  0  0
   -8.0160   14.9368  -36.5094 H   0  0  0  0  0  0  0  0  0  0  0  0
  -10.7032   17.6157  -36.1352 H   0  0  0  0  0  0  0  0  0  0  0  0
  -10.5016   17.4316  -37.8924 H   0  0  0  0  0  0  0  0  0  0  0  0
  -10.7838   14.6772  -39.8566 H   0  0  0  0  0  0  0  0  0  0  0  0
  -10.3077   16.2081  -39.1103 H   0  0  0  0  0  0  0  0  0  0  0  0
  -12.5564   16.7551  -39.9117 H   0  0  0  0  0  0  0  0  0  0  0  0
  -12.7311   15.0221  -36.1697 H   0  0  0  0  0  0  0  0  0  0  0  0
  -11.2820   12.8548  -38.2284 H   0  0  0  0  0  0  0  0  0  0  0  0
   -9.7310   13.3062  -37.9897 H   0  0  0  0  0  0  0  0  0  0  0  0
  -10.0347   14.2187  -35.2830 H   0  0  0  0  0  0  0  0  0  0  0  0
  1  4  1  0  0  0  0
  1  5  1  0  0  0  0
  2  3  1  0  0  0  0
  2  7  1  0  0  0  0
  3  8  1  0  0  0  0
  4 10  1  0  0  0  0
  5 10  1  0  0  0  0
  6  7  1  0  0  0  0
  6  9  1  0  0  0  0
  7 12  1  0  0  0  0
  8  9  1  0  0  0  0
  8 12  1  0  0  0  0
  9 10  1  0  0  0  0
  9 11  1  0  0  0  0
 10 13  1  0  0  0  0
  1 14  1  0  0  0  0
  1 15  1  0  0  0  0
  2 16  1  0  0  0  0
  2 17  1  0  0  0  0
  3 18  1  0  0  0  0
  3 19  1  0  0  0  0
  4 20  1  0  0  0  0
  4 21  1  0  0  0  0
  5 22  1  0  0  0  0
  5 23  1  0  0  0  0
  6 24  1  0  0  0  0
  6 25  1  0  0  0  0
  7 26  1  0  0  0  0
  8 27  1  0  0  0  0
 11 28  1  0  0  0  0
 11 29  1  0  0  0  0
 13 30  1  0  0  0  0
M  END
> <id>
EN300-1647166

> <smiles>
NC1(CC2CCC1O2)C3(O)CCC3

> <IUPAC Name>
1-{2-amino-7-oxabicyclo[2.2.1]heptan-2-yl}cyclobutan-1-ol

> <CAS>
2171779-64-7

> <URL>
https://www.enaminestore.com/catalog/EN300-1647166

> <ROCS_ShapeQuery>
_x1247relevant_x1083L0AP1_x1305L0BP1_

> <ROCS_TanimotoCombo>
0.824 

> <ROCS_ShapeTanimoto>
0.462 

> <ROCS_ColorTanimoto>
0.362 

> <ROCS_RefTversky>
0.393 

> <ROCS_RefColorTversky>
0.425 

> <ROCS_RefTverskyCombo>
0.818 

> <ROCS_FitTversky>
1.615 

> <ROCS_FitColorTversky>
0.709 

> <ROCS_FitTverskyCombo>
2.324 

> <ROCS_ColorScore>
-9.079

> <ROCS_Overlap>
1155.950

> <ROCS_Rank>
367                 

$$$$
untitled-dbase-169365_20
  -OEChem-06232314393D

 29 30  0     1  0  0  0  0  0999 V2000
  -13.1271   16.5924  -40.3774 C   0  0  0  0  0  0  0  0  0  0  0  0
   -9.7988   14.9273  -37.1964 C   0  0  0  0  0  0  0  0  0  0  0  0
  -14.1700   15.2251  -36.9949 C   0  0  0  0  0  0  0  0  0  0  0  0
  -13.0364   14.2306  -36.7116 C   0  0  0  0  0  0  0  0  0  0  0  0
  -13.8046   16.3494  -37.9742 C   0  0  0  0  0  0  0  0  0  0  0  0
  -12.7998   14.3807  -39.2132 C   0  0  0  0  0  0  0  0  0  0  0  0
  -11.3666   16.1837  -38.6571 C   0  0  0  0  0  0  0  0  0  0  0  0
  -12.0897   14.0187  -37.9078 C   0  0  1  0  0  0  0  0  0  0  0  0
  -12.8188   15.9107  -39.0798 C   0  0  1  0  0  0  0  0  0  0  0  0
   -9.5615   13.6535  -36.4263 C   0  0  0  0  0  0  0  0  0  0  0  0
  -11.0096   15.0182  -37.8584 N   0  0  0  0  0  0  0  0  0  0  0  0
  -12.3591   17.3219  -40.9868 O   0  0  0  0  0  0  0  0  0  0  0  0
   -8.9348   15.8059  -37.2240 O   0  0  0  0  0  0  0  0  0  0  0  0
  -14.3832   16.2925  -40.7891 O   0  0  0  0  0  0  0  0  0  0  0  0
  -10.6168   12.8275  -36.5419 F   0  0  0  0  0  0  0  0  0  0  0  0
   -8.4730   13.0140  -36.8909 F   0  0  0  0  0  0  0  0  0  0  0  0
   -9.3713   13.9140  -35.1203 F   0  0  0  0  0  0  0  0  0  0  0  0
  -15.0594   14.6852  -37.3599 H   0  0  0  0  0  0  0  0  0  0  0  0
  -14.4834   15.6812  -36.0399 H   0  0  0  0  0  0  0  0  0  0  0  0
  -12.4662   14.5698  -35.8314 H   0  0  0  0  0  0  0  0  0  0  0  0
  -13.4756   13.2589  -36.4300 H   0  0  0  0  0  0  0  0  0  0  0  0
  -14.7272   16.7226  -38.4443 H   0  0  0  0  0  0  0  0  0  0  0  0
  -13.3934   17.2002  -37.4119 H   0  0  0  0  0  0  0  0  0  0  0  0
  -12.2138   14.0612  -40.0821 H   0  0  0  0  0  0  0  0  0  0  0  0
  -13.7985   13.9436  -39.2976 H   0  0  0  0  0  0  0  0  0  0  0  0
  -10.6837   16.2333  -39.5150 H   0  0  0  0  0  0  0  0  0  0  0  0
  -11.2523   17.1033  -38.0714 H   0  0  0  0  0  0  0  0  0  0  0  0
  -11.6773   13.0042  -37.9087 H   0  0  0  0  0  0  0  0  0  0  0  0
  -14.6053   16.7316  -41.6377 H   0  0  0  0  0  0  0  0  0  0  0  0
  1  9  1  0  0  0  0
  1 12  2  0  0  0  0
  1 14  1  0  0  0  0
  2 10  1  0  0  0  0
  2 11  1  0  0  0  0
  2 13  2  0  0  0  0
  3  4  1  0  0  0  0
  3  5  1  0  0  0  0
  4  8  1  0  0  0  0
  5  9  1  0  0  0  0
  6  8  1  0  0  0  0
  6  9  1  0  0  0  0
  7  9  1  0  0  0  0
  7 11  1  0  0  0  0
  8 11  1  0  0  0  0
 10 15  1  0  0  0  0
 10 16  1  0  0  0  0
 10 17  1  0  0  0  0
  3 18  1  0  0  0  0
  3 19  1  0  0  0  0
  4 20  1  0  0  0  0
  4 21  1  0  0  0  0
  5 22  1  0  0  0  0
  5 23  1  0  0  0  0
  6 24  1  0  0  0  0
  6 25  1  0  0  0  0
  7 26  1  0  0  0  0
  7 27  1  0  0  0  0
  8 28  1  0  0  0  0
 14 29  1  0  0  0  0
M  END
> <id>
EN300-37344204

> <smiles>
OC(=O)C1(CC2CCC1)CN2C(=O)C(F)(F)F

> <IUPAC Name>
6-(2,2,2-trifluoroacetyl)-6-azabicyclo[3.2.1]octane-1-carboxylic acid

> <CAS>
2763955-90-2

> <URL>
https://www.enaminestore.com/catalog/EN300-37344204

> <ROCS_ShapeQuery>
_x1247relevant_x1083L0AP1_x1305L0BP1_

> <ROCS_TanimotoCombo>
0.824 

> <ROCS_ShapeTanimoto>
0.524 

> <ROCS_ColorTanimoto>
0.299 

> <ROCS_RefTversky>
0.448 

> <ROCS_RefColorTversky>
0.344 

> <ROCS_RefTverskyCombo>
0.792 

> <ROCS_FitTversky>
1.480 

> <ROCS_FitColorTversky>
0.698 

> <ROCS_FitTverskyCombo>
2.178 

> <ROCS_ColorScore>
-7.301

> <ROCS_Overlap>
1322.339

> <ROCS_Rank>
368                 

$$$$
untitled-dbase-118277_98
  -OEChem-06232314393D

 38 39  0     1  0  0  0  0  0999 V2000
  -10.1158   15.0625  -37.0949 C   0  0  0  0  0  0  0  0  0  0  0  0
  -13.3548   16.9471  -40.3869 C   0  0  0  0  0  0  0  0  0  0  0  0
  -12.5506   15.8349  -37.0564 C   0  0  0  0  0  0  0  0  0  0  0  0
  -13.3854   14.1346  -38.4484 C   0  0  0  0  0  0  0  0  0  0  0  0
  -11.3463   16.0732  -39.0978 C   0  0  0  0  0  0  0  0  0  0  0  0
  -13.5086   15.6475  -38.2260 C   0  0  2  0  0  0  0  0  0  0  0  0
  -11.3964   15.2089  -37.8303 C   0  0  1  0  0  0  0  0  0  0  0  0
  -15.0413   14.8733  -41.3963 C   0  0  0  0  0  0  0  0  0  0  0  0
  -16.9324   16.4851  -41.0283 C   0  0  0  0  0  0  0  0  0  0  0  0
  -15.1028   17.0535  -42.6524 C   0  0  0  0  0  0  0  0  0  0  0  0
   -8.8987   13.5774  -35.7175 C   0  0  0  0  0  0  0  0  0  0  0  0
  -15.4442   16.3462  -41.3416 C   0  0  0  0  0  0  0  0  0  0  0  0
  -11.9526   13.8723  -38.1516 N   0  0  0  0  0  0  0  0  0  0  0  0
  -12.7743   16.2970  -39.3195 N   0  0  0  0  0  0  0  0  0  0  0  0
   -9.2378   15.9144  -37.0715 O   0  0  0  0  0  0  0  0  0  0  0  0
  -12.7279   17.4395  -41.3216 O   0  0  0  0  0  0  0  0  0  0  0  0
  -10.0857   13.8518  -36.4685 O   0  0  0  0  0  0  0  0  0  0  0  0
  -14.7192   16.9778  -40.2806 O   0  0  0  0  0  0  0  0  0  0  0  0
  -12.3821   16.8858  -36.7948 H   0  0  0  0  0  0  0  0  0  0  0  0
  -12.8365   15.2834  -36.1529 H   0  0  0  0  0  0  0  0  0  0  0  0
  -14.0168   13.5818  -37.7440 H   0  0  0  0  0  0  0  0  0  0  0  0
  -13.6436   13.8301  -39.4675 H   0  0  0  0  0  0  0  0  0  0  0  0
  -10.8534   17.0391  -38.9425 H   0  0  0  0  0  0  0  0  0  0  0  0
  -10.8988   15.5735  -39.9632 H   0  0  0  0  0  0  0  0  0  0  0  0
  -14.5272   16.0197  -38.1039 H   0  0  0  0  0  0  0  0  0  0  0  0
  -13.9738   14.7694  -41.6210 H   0  0  0  0  0  0  0  0  0  0  0  0
  -15.2488   14.3630  -40.4501 H   0  0  0  0  0  0  0  0  0  0  0  0
  -15.5779   14.3506  -42.1963 H   0  0  0  0  0  0  0  0  0  0  0  0
  -17.2258   17.5403  -40.9881 H   0  0  0  0  0  0  0  0  0  0  0  0
  -17.1651   16.0623  -40.0442 H   0  0  0  0  0  0  0  0  0  0  0  0
  -17.5517   15.9813  -41.7774 H   0  0  0  0  0  0  0  0  0  0  0  0
  -15.3917   18.1100  -42.6134 H   0  0  0  0  0  0  0  0  0  0  0  0
  -14.0324   16.9958  -42.8748 H   0  0  0  0  0  0  0  0  0  0  0  0
  -15.6566   16.6122  -43.4890 H   0  0  0  0  0  0  0  0  0  0  0  0
   -8.9772   12.5885  -35.2592 H   0  0  0  0  0  0  0  0  0  0  0  0
   -8.7709   14.3398  -34.9450 H   0  0  0  0  0  0  0  0  0  0  0  0
   -8.0391   13.5968  -36.3916 H   0  0  0  0  0  0  0  0  0  0  0  0
  -11.9052   13.2776  -37.3231 H   0  0  0  0  0  0  0  0  0  0  0  0
  1  7  1  0  0  0  0
  1 15  2  0  0  0  0
  1 17  1  0  0  0  0
  2 14  1  0  0  0  0
  2 16  2  0  0  0  0
  2 18  1  0  0  0  0
  3  6  1  0  0  0  0
  3  7  1  0  0  0  0
  4  6  1  0  0  0  0
  4 13  1  0  0  0  0
  5  7  1  0  0  0  0
  5 14  1  0  0  0  0
  6 14  1  0  0  0  0
  7 13  1  0  0  0  0
  8 12  1  0  0  0  0
  9 12  1  0  0  0  0
 10 12  1  0  0  0  0
 11 17  1  0  0  0  0
 12 18  1  0  0  0  0
  3 19  1  0  0  0  0
  3 20  1  0  0  0  0
  4 21  1  0  0  0  0
  4 22  1  0  0  0  0
  5 23  1  0  0  0  0
  5 24  1  0  0  0  0
  6 25  1  0  0  0  0
  8 26  1  0  0  0  0
  8 27  1  0  0  0  0
  8 28  1  0  0  0  0
  9 29  1  0  0  0  0
  9 30  1  0  0  0  0
  9 31  1  0  0  0  0
 10 32  1  0  0  0  0
 10 33  1  0  0  0  0
 10 34  1  0  0  0  0
 11 35  1  0  0  0  0
 11 36  1  0  0  0  0
 11 37  1  0  0  0  0
 13 38  1  0  0  0  0
M  END
> <id>
EN300-6735760

> <smiles>
COC(=O)C1(CC2CN1)CN2C(=O)OC(C)(C)C

> <MDLNUMBER>
MFCD31746656

> <IUPAC Name>
5-tert-butyl 1-methyl 2,5-diazabicyclo[2.2.1]heptane-1,5-dicarboxylate

> <CAS>
1779398-44-5

> <Purity>
95

> <URL>
https://www.enaminestore.com/catalog/EN300-6735760

> <ROCS_ShapeQuery>
_x1247relevant_x1083L0AP1_x1305L0BP1_

> <ROCS_TanimotoCombo>
0.824 

> <ROCS_ShapeTanimoto>
0.487 

> <ROCS_ColorTanimoto>
0.337 

> <ROCS_RefTversky>
0.430 

> <ROCS_RefColorTversky>
0.393 

> <ROCS_RefTverskyCombo>
0.823 

> <ROCS_FitTversky>
1.371 

> <ROCS_FitColorTversky>
0.702 

> <ROCS_FitTverskyCombo>
2.073 

> <ROCS_ColorScore>
-8.372

> <ROCS_Overlap>
1270.359

> <ROCS_Rank>
369                 

$$$$
untitled-dbase-109756_4
  -OEChem-06232314393D

 30 31  0     1  0  0  0  0  0999 V2000
  -13.6558   15.7815  -39.2610 C   0  0  0  0  0  0  0  0  0  0  0  0
   -9.9220   15.1715  -37.2850 C   0  0  0  0  0  0  0  0  0  0  0  0
  -13.4734   16.5515  -37.9668 C   0  0  0  0  0  0  0  0  0  0  0  0
  -12.9984   13.6636  -38.2098 C   0  0  0  0  0  0  0  0  0  0  0  0
  -12.7573   14.4242  -36.8969 C   0  0  0  0  0  0  0  0  0  0  0  0
  -11.2986   15.1089  -39.3875 C   0  0  0  0  0  0  0  0  0  0  0  0
  -12.7403   14.5768  -39.4127 C   0  0  2  0  0  0  0  0  0  0  0  0
  -12.3177   15.8785  -37.1935 C   0  0  1  0  0  0  0  0  0  0  0  0
  -11.0195   15.8639  -38.0595 C   0  0  1  0  0  0  0  0  0  0  0  0
  -10.5015   17.2826  -38.3472 C   0  0  0  0  0  0  0  0  0  0  0  0
   -9.3495   13.1186  -36.2644 C   0  0  0  0  0  0  0  0  0  0  0  0
  -14.4786   16.1047  -40.1122 O   0  0  0  0  0  0  0  0  0  0  0  0
   -8.8633   15.7009  -36.9751 O   0  0  0  0  0  0  0  0  0  0  0  0
  -10.3019   13.8936  -36.9995 O   0  0  0  0  0  0  0  0  0  0  0  0
  -13.2549   17.5978  -38.1941 H   0  0  0  0  0  0  0  0  0  0  0  0
  -14.4049   16.4999  -37.3935 H   0  0  0  0  0  0  0  0  0  0  0  0
  -12.3453   12.7842  -38.2553 H   0  0  0  0  0  0  0  0  0  0  0  0
  -14.0310   13.2941  -38.2299 H   0  0  0  0  0  0  0  0  0  0  0  0
  -13.6783   14.4271  -36.3005 H   0  0  0  0  0  0  0  0  0  0  0  0
  -12.0109   13.8993  -36.2904 H   0  0  0  0  0  0  0  0  0  0  0  0
  -10.6020   14.2740  -39.5321 H   0  0  0  0  0  0  0  0  0  0  0  0
  -11.1553   15.7778  -40.2462 H   0  0  0  0  0  0  0  0  0  0  0  0
  -12.9536   14.0609  -40.3538 H   0  0  0  0  0  0  0  0  0  0  0  0
  -12.1473   16.4040  -36.2460 H   0  0  0  0  0  0  0  0  0  0  0  0
  -11.2524   17.8325  -38.9056 H   0  0  0  0  0  0  0  0  0  0  0  0
   -9.5877   17.2198  -38.9293 H   0  0  0  0  0  0  0  0  0  0  0  0
  -10.3018   17.7890  -37.4082 H   0  0  0  0  0  0  0  0  0  0  0  0
   -9.7505   12.1172  -36.0898 H   0  0  0  0  0  0  0  0  0  0  0  0
   -9.1373   13.6091  -35.3111 H   0  0  0  0  0  0  0  0  0  0  0  0
   -8.4278   13.0431  -36.8462 H   0  0  0  0  0  0  0  0  0  0  0  0
  1  3  1  0  0  0  0
  1  7  1  0  0  0  0
  1 12  2  0  0  0  0
  2  9  1  0  0  0  0
  2 13  2  0  0  0  0
  2 14  1  0  0  0  0
  3  8  1  0  0  0  0
  4  5  1  0  0  0  0
  4  7  1  0  0  0  0
  5  8  1  0  0  0  0
  6  7  1  0  0  0  0
  6  9  1  0  0  0  0
  8  9  1  0  0  0  0
  9 10  1  0  0  0  0
 11 14  1  0  0  0  0
  3 15  1  0  0  0  0
  3 16  1  0  0  0  0
  4 17  1  0  0  0  0
  4 18  1  0  0  0  0
  5 19  1  0  0  0  0
  5 20  1  0  0  0  0
  6 21  1  0  0  0  0
  6 22  1  0  0  0  0
  7 23  1  0  0  0  0
  8 24  1  0  0  0  0
 10 25  1  0  0  0  0
 10 26  1  0  0  0  0
 10 27  1  0  0  0  0
 11 28  1  0  0  0  0
 11 29  1  0  0  0  0
 11 30  1  0  0  0  0
M  END
> <id>
EN300-26977726

> <smiles>
COC(=O)C1(C)CC2CCC1CC2=O

> <MDLNUMBER>
MFCD32692527

> <IUPAC Name>
methyl 2-methyl-5-oxobicyclo[2.2.2]octane-2-carboxylate

> <CAS>
2649060-37-5

> <URL>
https://www.enaminestore.com/catalog/EN300-26977726

> <ROCS_ShapeQuery>
_x1247relevant_x1083L0AP1_x1305L0BP1_

> <ROCS_TanimotoCombo>
0.824 

> <ROCS_ShapeTanimoto>
0.484 

> <ROCS_ColorTanimoto>
0.340 

> <ROCS_RefTversky>
0.408 

> <ROCS_RefColorTversky>
0.358 

> <ROCS_RefTverskyCombo>
0.766 

> <ROCS_FitTversky>
1.622 

> <ROCS_FitColorTversky>
0.871 

> <ROCS_FitTverskyCombo>
2.494 

> <ROCS_ColorScore>
-7.571

> <ROCS_Overlap>
1200.213

> <ROCS_Rank>
370                 

$$$$
untitled-dbase-97667_0
  -OEChem-06232314393D

 22 24  0     1  0  0  0  0  0999 V2000
  -10.3585   15.0060  -36.7549 C   0  0  0  0  0  0  0  0  0  0  0  0
  -11.2130   14.5128  -39.1031 C   0  0  0  0  0  0  0  0  0  0  0  0
  -11.3425   14.2494  -37.5879 C   0  0  2  0  0  0  0  0  0  0  0  0
  -12.6503   14.9124  -39.4745 C   0  0  2  0  0  0  0  0  0  0  0  0
  -12.8048   14.6347  -37.3291 C   0  0  1  0  0  0  0  0  0  0  0  0
  -12.9934   16.2952  -38.9872 C   0  0  1  0  0  0  0  0  0  0  0  0
  -13.0896   16.1087  -37.5022 C   0  0  2  0  0  0  0  0  0  0  0  0
   -9.6883   15.3886  -34.5215 C   0  0  0  0  0  0  0  0  0  0  0  0
   -9.5057   15.7546  -37.2127 O   0  0  0  0  0  0  0  0  0  0  0  0
  -13.3937   14.0872  -38.5414 O   0  0  0  0  0  0  0  0  0  0  0  0
  -12.1044   16.9529  -38.0932 O   0  0  0  0  0  0  0  0  0  0  0  0
  -10.5673   14.7270  -35.4368 O   0  0  0  0  0  0  0  0  0  0  0  0
  -10.4746   15.2749  -39.3711 H   0  0  0  0  0  0  0  0  0  0  0  0
  -10.9433   13.5770  -39.6063 H   0  0  0  0  0  0  0  0  0  0  0  0
  -11.1914   13.1803  -37.3970 H   0  0  0  0  0  0  0  0  0  0  0  0
  -12.9339   14.7113  -40.5099 H   0  0  0  0  0  0  0  0  0  0  0  0
  -13.2492   14.1912  -36.4349 H   0  0  0  0  0  0  0  0  0  0  0  0
  -13.7888   16.8158  -39.4953 H   0  0  0  0  0  0  0  0  0  0  0  0
  -13.9484   16.5066  -36.9861 H   0  0  0  0  0  0  0  0  0  0  0  0
   -9.9397   15.0974  -33.4987 H   0  0  0  0  0  0  0  0  0  0  0  0
   -9.7866   16.4708  -34.6382 H   0  0  0  0  0  0  0  0  0  0  0  0
   -8.6595   15.0925  -34.7397 H   0  0  0  0  0  0  0  0  0  0  0  0
  1  3  1  1  0  0  0
  1  9  2  0  0  0  0
  1 12  1  0  0  0  0
  2  3  1  0  0  0  0
  2  4  1  1  0  0  0
  3  5  1  0  0  0  0
  4  6  1  0  0  0  0
  4 10  1  0  0  0  0
  5  7  1  0  0  0  0
  5 10  1  6  0  0  0
  6  7  1  0  0  0  0
  6 11  1  1  0  0  0
  7 11  1  1  0  0  0
  8 12  1  0  0  0  0
  2 13  1  0  0  0  0
  2 14  1  0  0  0  0
  3 15  1  0  0  0  0
  4 16  1  0  0  0  0
  5 17  1  0  0  0  0
  6 18  1  0  0  0  0
  7 19  1  0  0  0  0
  8 20  1  0  0  0  0
  8 21  1  0  0  0  0
  8 22  1  0  0  0  0
M  END
> <id>
EN300-366804

> <smiles>
COC(=O)[C@@H]1C[C@H]2O[C@@H]1[C@H]3O[C@H]32 |&1:4,6,8,9,11,r|

> <IUPAC Name>
rac-methyl (1R,2S,4R,5S,6R)-3,8-dioxatricyclo[3.2.1.0,2,4]octane-6-carboxylate

> <CAS>
785807-06-9

> <Purity>
95

> <URL>
https://www.enaminestore.com/catalog/EN300-366804

> <MP>
75-76

> <ROCS_ShapeQuery>
_x1247relevant_x1083L0AP1_x1305L0BP1_

> <ROCS_TanimotoCombo>
0.824 

> <ROCS_ShapeTanimoto>
0.451 

> <ROCS_ColorTanimoto>
0.372 

> <ROCS_RefTversky>
0.383 

> <ROCS_RefColorTversky>
0.527 

> <ROCS_RefTverskyCombo>
0.911 

> <ROCS_FitTversky>
1.646 

> <ROCS_FitColorTversky>
0.559 

> <ROCS_FitTverskyCombo>
2.205 

> <ROCS_ColorScore>
-11.481

> <ROCS_Overlap>
1126.991

> <ROCS_Rank>
371                 

$$$$
untitled-dbase-151100_31
  -OEChem-06232314393D

 26 27  0     1  0  0  0  0  0999 V2000
  -13.1237   16.6818  -40.1141 C   0  0  0  0  0  0  0  0  0  0  0  0
  -10.3795   14.5196  -36.6029 C   0  0  0  0  0  0  0  0  0  0  0  0
  -13.8499   14.2126  -38.6559 C   0  0  0  0  0  0  0  0  0  0  0  0
  -12.8234   15.2606  -36.6308 C   0  0  0  0  0  0  0  0  0  0  0  0
  -12.6532   16.3051  -38.7444 C   0  0  1  0  0  0  0  0  0  0  0  0
  -13.6761   15.5446  -37.8842 C   0  0  1  0  0  0  0  0  0  0  0  0
  -11.6379   15.1628  -38.6875 C   0  0  2  0  0  0  0  0  0  0  0  0
  -12.4456   13.9746  -39.2390 C   0  0  1  0  0  0  0  0  0  0  0  0
   -9.4708   13.6612  -37.4448 C   0  0  0  0  0  0  0  0  0  0  0  0
  -11.5214   14.9623  -37.2352 N   0  0  0  0  0  0  0  0  0  0  0  0
  -12.4258   17.1841  -40.9824 O   0  0  0  0  0  0  0  0  0  0  0  0
  -10.0862   14.7876  -35.4373 O   0  0  0  0  0  0  0  0  0  0  0  0
  -14.4392   16.3919  -40.2650 O   0  0  0  0  0  0  0  0  0  0  0  0
  -11.9347   12.8001  -38.8032 F   0  0  0  0  0  0  0  0  0  0  0  0
  -14.1799   13.3918  -38.0121 H   0  0  0  0  0  0  0  0  0  0  0  0
  -14.5787   14.3351  -39.4647 H   0  0  0  0  0  0  0  0  0  0  0  0
  -12.7172   16.1444  -35.9934 H   0  0  0  0  0  0  0  0  0  0  0  0
  -13.1783   14.4134  -36.0375 H   0  0  0  0  0  0  0  0  0  0  0  0
  -12.2872   17.2166  -38.2564 H   0  0  0  0  0  0  0  0  0  0  0  0
  -14.6154   16.0627  -37.6815 H   0  0  0  0  0  0  0  0  0  0  0  0
  -10.6733   15.3156  -39.1756 H   0  0  0  0  0  0  0  0  0  0  0  0
  -12.4648   13.9562  -40.3333 H   0  0  0  0  0  0  0  0  0  0  0  0
   -8.7569   14.2966  -37.9589 H   0  0  0  0  0  0  0  0  0  0  0  0
  -10.0673   13.1138  -38.1682 H   0  0  0  0  0  0  0  0  0  0  0  0
   -8.9473   12.9602  -36.8022 H   0  0  0  0  0  0  0  0  0  0  0  0
  -14.7676   16.6336  -41.1572 H   0  0  0  0  0  0  0  0  0  0  0  0
  1  5  1  6  0  0  0
  1 11  2  0  0  0  0
  1 13  1  0  0  0  0
  2  9  1  0  0  0  0
  2 10  1  0  0  0  0
  2 12  2  0  0  0  0
  3  6  1  0  0  0  0
  3  8  1  0  0  0  0
  4  6  1  1  0  0  0
  4 10  1  0  0  0  0
  5  6  1  0  0  0  0
  5  7  1  0  0  0  0
  7  8  1  0  0  0  0
  7 10  1  1  0  0  0
  8 14  1  1  0  0  0
  3 15  1  0  0  0  0
  3 16  1  0  0  0  0
  4 17  1  0  0  0  0
  4 18  1  0  0  0  0
  5 19  1  0  0  0  0
  6 20  1  0  0  0  0
  7 21  1  0  0  0  0
  8 22  1  0  0  0  0
  9 23  1  0  0  0  0
  9 24  1  0  0  0  0
  9 25  1  0  0  0  0
 13 26  1  0  0  0  0
M  END
> <id>
EN300-28272355

> <smiles>
CC(=O)N1C[C@@H]2C[C@H](F)[C@H]1[C@H]2C(=O)O |&1:5,7,9,10,r|

> <IUPAC Name>
rac-(1R,4R,6S,7S)-2-acetyl-6-fluoro-2-azabicyclo[2.2.1]heptane-7-carboxylic acid

> <CAS>
2732245-98-4

> <URL>
https://www.enaminestore.com/catalog/EN300-28272355

> <ROCS_ShapeQuery>
_x1247relevant_x1083L0AP1_x1305L0BP1_

> <ROCS_TanimotoCombo>
0.824 

> <ROCS_ShapeTanimoto>
0.486 

> <ROCS_ColorTanimoto>
0.338 

> <ROCS_RefTversky>
0.411 

> <ROCS_RefColorTversky>
0.383 

> <ROCS_RefTverskyCombo>
0.793 

> <ROCS_FitTversky>
1.601 

> <ROCS_FitColorTversky>
0.743 

> <ROCS_FitTverskyCombo>
2.345 

> <ROCS_ColorScore>
-8.141

> <ROCS_Overlap>
1208.514

> <ROCS_Rank>
372                 

$$$$
untitled-dbase-110373_5
  -OEChem-06232314393D

 24 25  0     1  0  0  0  0  0999 V2000
  -10.1293   15.1847  -36.7988 C   0  0  0  0  0  0  0  0  0  0  0  0
  -12.9866   16.2766  -37.0211 C   0  0  0  0  0  0  0  0  0  0  0  0
  -12.5874   16.4055  -39.4738 C   0  0  0  0  0  0  0  0  0  0  0  0
  -13.6978   14.9295  -37.2033 C   0  0  0  0  0  0  0  0  0  0  0  0
  -13.2594   15.0390  -39.6765 C   0  0  0  0  0  0  0  0  0  0  0  0
  -10.9389   15.2176  -38.0554 C   0  0  2  0  0  0  0  0  0  0  0  0
  -11.8950   16.4270  -38.0982 C   0  0  0  0  0  0  0  0  0  0  0  0
  -13.1044   14.1802  -38.4081 C   0  0  0  0  0  0  0  0  0  0  0  0
  -11.6736   13.9463  -38.1374 N   0  0  0  0  0  0  0  0  0  0  0  0
  -10.4594   14.6212  -35.7658 O   0  0  0  0  0  0  0  0  0  0  0  0
   -8.9712   15.8710  -36.9572 O   0  0  0  0  0  0  0  0  0  0  0  0
  -13.7123   17.0953  -37.0975 H   0  0  0  0  0  0  0  0  0  0  0  0
  -12.5548   16.3399  -36.0158 H   0  0  0  0  0  0  0  0  0  0  0  0
  -11.8581   16.5835  -40.2730 H   0  0  0  0  0  0  0  0  0  0  0  0
  -13.3326   17.2070  -39.5423 H   0  0  0  0  0  0  0  0  0  0  0  0
  -13.5976   14.3293  -36.2905 H   0  0  0  0  0  0  0  0  0  0  0  0
  -14.7717   15.0947  -37.3527 H   0  0  0  0  0  0  0  0  0  0  0  0
  -14.3213   15.1810  -39.9102 H   0  0  0  0  0  0  0  0  0  0  0  0
  -12.8137   14.5288  -40.5394 H   0  0  0  0  0  0  0  0  0  0  0  0
  -10.2293   15.2836  -38.8897 H   0  0  0  0  0  0  0  0  0  0  0  0
  -11.3534   17.3684  -37.9535 H   0  0  0  0  0  0  0  0  0  0  0  0
  -13.6125   13.2186  -38.5356 H   0  0  0  0  0  0  0  0  0  0  0  0
  -11.2741   13.3765  -38.8829 H   0  0  0  0  0  0  0  0  0  0  0  0
   -8.8905   16.2503  -37.8583 H   0  0  0  0  0  0  0  0  0  0  0  0
  1  6  1  1  0  0  0
  1 10  2  0  0  0  0
  1 11  1  0  0  0  0
  2  4  1  0  0  0  0
  2  7  1  1  0  0  0
  3  5  1  0  0  0  0
  3  7  1  0  0  0  0
  4  8  1  1  0  0  0
  5  8  1  0  0  0  0
  6  7  1  0  0  0  0
  6  9  1  0  0  0  0
  8  9  1  0  0  0  0
  2 12  1  0  0  0  0
  2 13  1  0  0  0  0
  3 14  1  0  0  0  0
  3 15  1  0  0  0  0
  4 16  1  0  0  0  0
  4 17  1  0  0  0  0
  5 18  1  0  0  0  0
  5 19  1  0  0  0  0
  6 20  1  0  0  0  0
  7 21  1  0  0  0  0
  8 22  1  0  0  0  0
  9 23  1  0  0  0  0
 11 24  1  0  0  0  0
M  END
> <id>
EN300-54462

> <smiles>
Cl.OC(=O)[C@H]1N[C@H]2CC[C@@H]1CC2

> <MDLNUMBER>
MFCD09054649

> <IUPAC Name>
(1R,3S,4s)-2-azabicyclo[2.2.2]octane-3-carboxylic acid hydrochloride

> <Purity>
95

> <URL>
https://www.enaminestore.com/catalog/EN300-54462

> <Saltdate>
Cl

> <ROCS_ShapeQuery>
_x1247relevant_x1083L0AP1_x1305L0BP1_

> <ROCS_TanimotoCombo>
0.823 

> <ROCS_ShapeTanimoto>
0.439 

> <ROCS_ColorTanimoto>
0.385 

> <ROCS_RefTversky>
0.369 

> <ROCS_RefColorTversky>
0.429 

> <ROCS_RefTverskyCombo>
0.798 

> <ROCS_FitTversky>
1.762 

> <ROCS_FitColorTversky>
0.790 

> <ROCS_FitTverskyCombo>
2.551 

> <ROCS_ColorScore>
-9.138

> <ROCS_Overlap>
1082.361

> <ROCS_Rank>
373                 

$$$$
untitled-dbase-110476_5
  -OEChem-06232314393D

 24 25  0     1  0  0  0  0  0999 V2000
  -10.1293   15.1847  -36.7988 C   0  0  0  0  0  0  0  0  0  0  0  0
  -12.9866   16.2766  -37.0211 C   0  0  0  0  0  0  0  0  0  0  0  0
  -12.5874   16.4055  -39.4738 C   0  0  0  0  0  0  0  0  0  0  0  0
  -13.6978   14.9295  -37.2033 C   0  0  0  0  0  0  0  0  0  0  0  0
  -13.2594   15.0390  -39.6765 C   0  0  0  0  0  0  0  0  0  0  0  0
  -10.9389   15.2176  -38.0554 C   0  0  2  0  0  0  0  0  0  0  0  0
  -11.8950   16.4270  -38.0982 C   0  0  0  0  0  0  0  0  0  0  0  0
  -13.1044   14.1802  -38.4081 C   0  0  0  0  0  0  0  0  0  0  0  0
  -11.6736   13.9463  -38.1374 N   0  0  0  0  0  0  0  0  0  0  0  0
  -10.4594   14.6212  -35.7658 O   0  0  0  0  0  0  0  0  0  0  0  0
   -8.9712   15.8710  -36.9572 O   0  0  0  0  0  0  0  0  0  0  0  0
  -13.7123   17.0953  -37.0975 H   0  0  0  0  0  0  0  0  0  0  0  0
  -12.5548   16.3399  -36.0158 H   0  0  0  0  0  0  0  0  0  0  0  0
  -11.8581   16.5835  -40.2730 H   0  0  0  0  0  0  0  0  0  0  0  0
  -13.3326   17.2070  -39.5423 H   0  0  0  0  0  0  0  0  0  0  0  0
  -13.5976   14.3293  -36.2905 H   0  0  0  0  0  0  0  0  0  0  0  0
  -14.7717   15.0947  -37.3527 H   0  0  0  0  0  0  0  0  0  0  0  0
  -14.3213   15.1810  -39.9102 H   0  0  0  0  0  0  0  0  0  0  0  0
  -12.8137   14.5288  -40.5394 H   0  0  0  0  0  0  0  0  0  0  0  0
  -10.2293   15.2836  -38.8897 H   0  0  0  0  0  0  0  0  0  0  0  0
  -11.3534   17.3684  -37.9535 H   0  0  0  0  0  0  0  0  0  0  0  0
  -13.6125   13.2186  -38.5356 H   0  0  0  0  0  0  0  0  0  0  0  0
  -11.2741   13.3765  -38.8829 H   0  0  0  0  0  0  0  0  0  0  0  0
   -8.8905   16.2503  -37.8583 H   0  0  0  0  0  0  0  0  0  0  0  0
  1  6  1  1  0  0  0
  1 10  2  0  0  0  0
  1 11  1  0  0  0  0
  2  4  1  0  0  0  0
  2  7  1  1  0  0  0
  3  5  1  0  0  0  0
  3  7  1  0  0  0  0
  4  8  1  1  0  0  0
  5  8  1  0  0  0  0
  6  7  1  0  0  0  0
  6  9  1  0  0  0  0
  8  9  1  0  0  0  0
  2 12  1  0  0  0  0
  2 13  1  0  0  0  0
  3 14  1  0  0  0  0
  3 15  1  0  0  0  0
  4 16  1  0  0  0  0
  4 17  1  0  0  0  0
  5 18  1  0  0  0  0
  5 19  1  0  0  0  0
  6 20  1  0  0  0  0
  7 21  1  0  0  0  0
  8 22  1  0  0  0  0
  9 23  1  0  0  0  0
 11 24  1  0  0  0  0
M  END
> <id>
EN300-58650

> <smiles>
OC(=O)[C@H]1N[C@H]2CC[C@@H]1CC2

> <MDLNUMBER>
MFCD09040768

> <IUPAC Name>
(1R,3S,4s)-2-azabicyclo[2.2.2]octane-3-carboxylic acid

> <CAS>
109583-12-2

> <URL>
https://www.enaminestore.com/catalog/EN300-58650

> <ROCS_ShapeQuery>
_x1247relevant_x1083L0AP1_x1305L0BP1_

> <ROCS_TanimotoCombo>
0.823 

> <ROCS_ShapeTanimoto>
0.439 

> <ROCS_ColorTanimoto>
0.385 

> <ROCS_RefTversky>
0.369 

> <ROCS_RefColorTversky>
0.429 

> <ROCS_RefTverskyCombo>
0.798 

> <ROCS_FitTversky>
1.762 

> <ROCS_FitColorTversky>
0.790 

> <ROCS_FitTverskyCombo>
2.551 

> <ROCS_ColorScore>
-9.138

> <ROCS_Overlap>
1082.361

> <ROCS_Rank>
374                 

$$$$
untitled-dbase-53867_0
  -OEChem-06232314393D

 34 36  0     1  0  0  0  0  0999 V2000
  -13.4207   14.7491  -39.4552 C   0  0  0  0  0  0  0  0  0  0  0  0
  -13.5322   14.1502  -38.0535 C   0  0  0  0  0  0  0  0  0  0  0  0
  -10.6222   17.0500  -36.5984 C   0  0  0  0  0  0  0  0  0  0  0  0
   -8.6991   15.4582  -37.1196 C   0  0  0  0  0  0  0  0  0  0  0  0
  -11.0273   15.4059  -39.0434 C   0  0  0  0  0  0  0  0  0  0  0  0
   -9.7843   17.9166  -35.6621 C   0  0  0  0  0  0  0  0  0  0  0  0
   -7.7109   16.1967  -36.2213 C   0  0  0  0  0  0  0  0  0  0  0  0
  -12.4603   15.9146  -39.2272 C   0  0  2  0  0  0  0  0  0  0  0  0
  -12.5605   15.0196  -37.2521 C   0  0  1  0  0  0  0  0  0  0  0  0
  -11.0763   14.8015  -37.6227 C   0  0  2  0  0  0  0  0  0  0  0  0
  -10.1653   15.5835  -36.6710 C   0  0  0  0  0  0  0  0  0  0  0  0
  -10.6496   13.4072  -37.5995 N   0  0  0  0  0  0  0  0  0  0  0  0
  -12.8061   16.3073  -37.8791 O   0  0  0  0  0  0  0  0  0  0  0  0
  -10.3076   15.0104  -35.3678 O   0  0  0  0  0  0  0  0  0  0  0  0
   -8.0456   17.9787  -36.1744 S   0  0  0  0  0  0  0  0  0  0  0  0
  -13.0568   14.0351  -40.1998 H   0  0  0  0  0  0  0  0  0  0  0  0
  -14.4029   15.1126  -39.7772 H   0  0  0  0  0  0  0  0  0  0  0  0
  -14.5547   14.2939  -37.6838 H   0  0  0  0  0  0  0  0  0  0  0  0
  -13.3148   13.0800  -38.0190 H   0  0  0  0  0  0  0  0  0  0  0  0
  -11.6582   17.0863  -36.2348 H   0  0  0  0  0  0  0  0  0  0  0  0
  -10.6273   17.4934  -37.6035 H   0  0  0  0  0  0  0  0  0  0  0  0
   -8.5909   15.8103  -38.1544 H   0  0  0  0  0  0  0  0  0  0  0  0
   -8.4105   14.3983  -37.1188 H   0  0  0  0  0  0  0  0  0  0  0  0
  -10.7476   14.6927  -39.8266 H   0  0  0  0  0  0  0  0  0  0  0  0
  -10.3196   16.2419  -39.0911 H   0  0  0  0  0  0  0  0  0  0  0  0
  -10.1743   18.9396  -35.6623 H   0  0  0  0  0  0  0  0  0  0  0  0
   -9.8386   17.5507  -34.6315 H   0  0  0  0  0  0  0  0  0  0  0  0
   -7.7350   15.8028  -35.2000 H   0  0  0  0  0  0  0  0  0  0  0  0
   -6.6934   16.0534  -36.5991 H   0  0  0  0  0  0  0  0  0  0  0  0
  -12.5620   16.7341  -39.9421 H   0  0  0  0  0  0  0  0  0  0  0  0
  -12.7711   15.0434  -36.1794 H   0  0  0  0  0  0  0  0  0  0  0  0
  -11.2555   12.8849  -38.1882 H   0  0  0  0  0  0  0  0  0  0  0  0
   -9.7148   13.3613  -37.9317 H   0  0  0  0  0  0  0  0  0  0  0  0
  -10.0140   14.0905  -35.4420 H   0  0  0  0  0  0  0  0  0  0  0  0
  1  2  1  0  0  0  0
  1  8  1  0  0  0  0
  2  9  1  0  0  0  0
  3  6  1  0  0  0  0
  3 11  1  0  0  0  0
  4  7  1  0  0  0  0
  4 11  1  0  0  0  0
  5  8  1  0  0  0  0
  5 10  1  0  0  0  0
  6 15  1  0  0  0  0
  7 15  1  0  0  0  0
  8 13  1  0  0  0  0
  9 10  1  0  0  0  0
  9 13  1  0  0  0  0
 10 11  1  0  0  0  0
 10 12  1  0  0  0  0
 11 14  1  0  0  0  0
  1 16  1  0  0  0  0
  1 17  1  0  0  0  0
  2 18  1  0  0  0  0
  2 19  1  0  0  0  0
  3 20  1  0  0  0  0
  3 21  1  0  0  0  0
  4 22  1  0  0  0  0
  4 23  1  0  0  0  0
  5 24  1  0  0  0  0
  5 25  1  0  0  0  0
  6 26  1  0  0  0  0
  6 27  1  0  0  0  0
  7 28  1  0  0  0  0
  7 29  1  0  0  0  0
  8 30  1  0  0  0  0
  9 31  1  0  0  0  0
 12 32  1  0  0  0  0
 12 33  1  0  0  0  0
 14 34  1  0  0  0  0
M  END
> <id>
EN300-1647164

> <smiles>
NC1(CC2CCC1O2)C3(O)CCSCC3

> <IUPAC Name>
4-{2-amino-7-oxabicyclo[2.2.1]heptan-2-yl}thian-4-ol

> <CAS>
2171458-26-5

> <URL>
https://www.enaminestore.com/catalog/EN300-1647164

> <ROCS_ShapeQuery>
_x1247relevant_x1083L0AP1_x1305L0BP1_

> <ROCS_TanimotoCombo>
0.823 

> <ROCS_ShapeTanimoto>
0.454 

> <ROCS_ColorTanimoto>
0.369 

> <ROCS_RefTversky>
0.395 

> <ROCS_RefColorTversky>
0.431 

> <ROCS_RefTverskyCombo>
0.827 

> <ROCS_FitTversky>
1.488 

> <ROCS_FitColorTversky>
0.720 

> <ROCS_FitTverskyCombo>
2.207 

> <ROCS_ColorScore>
-9.218

> <ROCS_Overlap>
1164.063

> <ROCS_Rank>
375                 

$$$$
untitled-dbase-117934_1
  -OEChem-06232314393D

 25 27  0     1  0  0  0  0  0999 V2000
  -10.0895   14.7778  -37.3122 C   0  0  0  0  0  0  0  0  0  0  0  0
  -13.6777   14.2796  -38.3057 C   0  0  0  0  0  0  0  0  0  0  0  0
  -13.1099   16.5985  -38.6617 C   0  0  0  0  0  0  0  0  0  0  0  0
  -13.1343   15.2310  -39.4182 C   0  0  0  0  0  0  0  0  0  0  0  0
  -12.6548   14.6723  -37.2645 C   0  0  2  0  0  0  0  0  0  0  0  0
  -12.3001   16.1013  -37.4871 C   0  0  1  0  0  0  0  0  0  0  0  0
  -11.6208   14.8181  -39.4502 C   0  0  2  0  0  0  0  0  0  0  0  0
  -11.3740   15.0212  -37.9632 C   0  0  0  0  0  0  0  0  0  0  0  0
   -8.7388   13.0664  -36.4010 C   0  0  0  0  0  0  0  0  0  0  0  0
  -10.7973   15.6822  -40.2771 N   0  0  0  0  0  0  0  0  0  0  0  0
   -9.2726   15.6531  -37.0597 O   0  0  0  0  0  0  0  0  0  0  0  0
   -9.9599   13.4476  -37.0426 O   0  0  0  0  0  0  0  0  0  0  0  0
  -14.6976   14.5290  -37.9985 H   0  0  0  0  0  0  0  0  0  0  0  0
  -13.6049   13.2231  -38.5798 H   0  0  0  0  0  0  0  0  0  0  0  0
  -12.5999   17.3916  -39.2151 H   0  0  0  0  0  0  0  0  0  0  0  0
  -14.1093   16.9282  -38.3617 H   0  0  0  0  0  0  0  0  0  0  0  0
  -13.6680   15.2133  -40.3689 H   0  0  0  0  0  0  0  0  0  0  0  0
  -12.6959   14.2314  -36.2875 H   0  0  0  0  0  0  0  0  0  0  0  0
  -12.0652   16.7711  -36.6829 H   0  0  0  0  0  0  0  0  0  0  0  0
  -11.4966   13.7681  -39.7396 H   0  0  0  0  0  0  0  0  0  0  0  0
   -8.7370   11.9869  -36.2314 H   0  0  0  0  0  0  0  0  0  0  0  0
   -8.6456   13.5956  -35.4493 H   0  0  0  0  0  0  0  0  0  0  0  0
   -7.8993   13.3328  -37.0475 H   0  0  0  0  0  0  0  0  0  0  0  0
   -9.8441   15.4209  -40.1610 H   0  0  0  0  0  0  0  0  0  0  0  0
  -11.0721   15.5700  -41.2270 H   0  0  0  0  0  0  0  0  0  0  0  0
  1  8  1  0  0  0  0
  1 11  2  0  0  0  0
  1 12  1  0  0  0  0
  2  4  1  0  0  0  0
  2  5  1  0  0  0  0
  3  4  1  0  0  0  0
  3  6  1  0  0  0  0
  4  7  1  0  0  0  0
  5  6  1  0  0  0  0
  5  8  1  0  0  0  0
  6  8  1  0  0  0  0
  7  8  1  0  0  0  0
  7 10  1  0  0  0  0
  9 12  1  0  0  0  0
  2 13  1  0  0  0  0
  2 14  1  0  0  0  0
  3 15  1  0  0  0  0
  3 16  1  0  0  0  0
  4 17  1  0  0  0  0
  5 18  1  0  0  0  0
  6 19  1  0  0  0  0
  7 20  1  0  0  0  0
  9 21  1  0  0  0  0
  9 22  1  0  0  0  0
  9 23  1  0  0  0  0
 10 24  1  0  0  0  0
 10 25  1  0  0  0  0
M  END
> <id>
EN300-7492562

> <smiles>
COC(=O)C1(C2CC3CC21)C3N

> <MDLNUMBER>
MFCD32640393

> <IUPAC Name>
methyl 7-aminotricyclo[2.2.1.0,2,6]heptane-1-carboxylate

> <CAS>
2408965-41-1

> <Purity>
95

> <URL>
https://www.enaminestore.com/catalog/EN300-7492562

> <ROCS_ShapeQuery>
_x1247relevant_x1083L0AP1_x1305L0BP1_

> <ROCS_TanimotoCombo>
0.823 

> <ROCS_ShapeTanimoto>
0.472 

> <ROCS_ColorTanimoto>
0.352 

> <ROCS_RefTversky>
0.394 

> <ROCS_RefColorTversky>
0.616 

> <ROCS_RefTverskyCombo>
1.011 

> <ROCS_FitTversky>
1.715 

> <ROCS_FitColorTversky>
0.450 

> <ROCS_FitTverskyCombo>
2.165 

> <ROCS_ColorScore>
-13.747

> <ROCS_Overlap>
1158.958

> <ROCS_Rank>
376                 

$$$$
untitled-dbase-134269_4
  -OEChem-06232314393D

 27 28  0     1  0  0  0  0  0999 V2000
  -13.5985   16.1635  -39.2799 C   0  0  0  0  0  0  0  0  0  0  0  0
  -13.0219   13.7676  -38.8511 C   0  0  0  0  0  0  0  0  0  0  0  0
  -13.6580   16.4147  -37.7655 C   0  0  0  0  0  0  0  0  0  0  0  0
  -13.0818   14.0332  -37.3412 C   0  0  0  0  0  0  0  0  0  0  0  0
  -11.2009   15.4573  -39.0942 C   0  0  0  0  0  0  0  0  0  0  0  0
  -12.5949   15.0411  -39.5988 C   0  0  0  0  0  0  0  0  0  0  0  0
  -12.6685   15.4856  -37.0360 C   0  0  0  0  0  0  0  0  0  0  0  0
  -11.2596   15.7774  -37.5918 C   0  0  1  0  0  0  0  0  0  0  0  0
  -10.0365   13.4228  -37.4862 N   0  0  0  0  0  0  0  0  0  0  0  0
   -8.7278   15.5781  -36.9776 O   0  0  0  0  0  0  0  0  0  0  0  0
  -10.4541   14.7553  -35.3259 O   0  0  0  0  0  0  0  0  0  0  0  0
   -9.9939   14.9294  -36.6911 S   0  0  0  0  0  0  0  0  0  0  0  0
  -14.5957   15.8959  -39.6493 H   0  0  0  0  0  0  0  0  0  0  0  0
  -13.3096   17.0863  -39.7972 H   0  0  0  0  0  0  0  0  0  0  0  0
  -12.3160   12.9538  -39.0563 H   0  0  0  0  0  0  0  0  0  0  0  0
  -14.0023   13.4294  -39.2075 H   0  0  0  0  0  0  0  0  0  0  0  0
  -13.4221   17.4645  -37.5532 H   0  0  0  0  0  0  0  0  0  0  0  0
  -14.6781   16.2447  -37.4005 H   0  0  0  0  0  0  0  0  0  0  0  0
  -14.1008   13.8510  -36.9776 H   0  0  0  0  0  0  0  0  0  0  0  0
  -12.4402   13.3219  -36.8102 H   0  0  0  0  0  0  0  0  0  0  0  0
  -10.4759   14.6646  -39.3144 H   0  0  0  0  0  0  0  0  0  0  0  0
  -10.8626   16.3460  -39.6415 H   0  0  0  0  0  0  0  0  0  0  0  0
  -12.5651   14.8544  -40.6777 H   0  0  0  0  0  0  0  0  0  0  0  0
  -12.7090   15.6670  -35.9562 H   0  0  0  0  0  0  0  0  0  0  0  0
  -11.0265   16.8396  -37.4426 H   0  0  0  0  0  0  0  0  0  0  0  0
   -9.2470   13.1814  -38.0978 H   0  0  0  0  0  0  0  0  0  0  0  0
  -10.4229   12.6211  -36.9729 H   0  0  0  0  0  0  0  0  0  0  0  0
  1  3  1  0  0  0  0
  1  6  1  0  0  0  0
  2  4  1  0  0  0  0
  2  6  1  0  0  0  0
  3  7  1  0  0  0  0
  4  7  1  0  0  0  0
  5  6  1  0  0  0  0
  5  8  1  0  0  0  0
  7  8  1  0  0  0  0
  8 12  1  0  0  0  0
  9 12  1  0  0  0  0
 10 12  2  0  0  0  0
 11 12  2  0  0  0  0
  1 13  1  0  0  0  0
  1 14  1  0  0  0  0
  2 15  1  0  0  0  0
  2 16  1  0  0  0  0
  3 17  1  0  0  0  0
  3 18  1  0  0  0  0
  4 19  1  0  0  0  0
  4 20  1  0  0  0  0
  5 21  1  0  0  0  0
  5 22  1  0  0  0  0
  6 23  1  0  0  0  0
  7 24  1  0  0  0  0
  8 25  1  0  0  0  0
  9 26  1  0  0  0  0
  9 27  1  0  0  0  0
M  END
> <id>
EN300-226068

> <smiles>
NS(=O)(=O)C1CC2CCC1CC2

> <MDLNUMBER>
MFCD18826912

> <IUPAC Name>
bicyclo[2.2.2]octane-2-sulfonamide

> <CAS>
7167-14-8

> <Purity>
95

> <URL>
https://www.enaminestore.com/catalog/EN300-226068

> <MP>
132-133

> <ROCS_ShapeQuery>
_x1247relevant_x1083L0AP1_x1305L0BP1_

> <ROCS_TanimotoCombo>
0.823 

> <ROCS_ShapeTanimoto>
0.451 

> <ROCS_ColorTanimoto>
0.372 

> <ROCS_RefTversky>
0.377 

> <ROCS_RefColorTversky>
0.395 

> <ROCS_RefTverskyCombo>
0.772 

> <ROCS_FitTversky>
1.767 

> <ROCS_FitColorTversky>
0.868 

> <ROCS_FitTverskyCombo>
2.636 

> <ROCS_ColorScore>
-8.371

> <ROCS_Overlap>
1107.341

> <ROCS_Rank>
377                 

$$$$
untitled-dbase-44926_4
  -OEChem-06232314393D

 46 48  0     1  0  0  0  0  0999 V2000
  -13.4213   13.8003  -38.3070 C   0  0  0  0  0  0  0  0  0  0  0  0
  -13.4800   16.0024  -37.2058 C   0  0  0  0  0  0  0  0  0  0  0  0
  -13.2847   14.5425  -39.6459 C   0  0  0  0  0  0  0  0  0  0  0  0
  -13.2348   16.6914  -38.5559 C   0  0  0  0  0  0  0  0  0  0  0  0
  -11.1808   15.4888  -38.9605 C   0  0  0  0  0  0  0  0  0  0  0  0
   -9.8891   15.3685  -35.5998 C   0  0  0  0  0  0  0  0  0  0  0  0
  -12.7552   14.6388  -37.1996 C   0  0  0  0  0  0  0  0  0  0  0  0
   -9.1353   13.5476  -37.1379 C   0  0  2  0  0  0  0  0  0  0  0  0
   -8.6537   14.7537  -36.2747 C   0  0  0  0  0  0  0  0  0  0  0  0
  -11.2458   14.8694  -37.5332 C   0  0  1  0  0  0  0  0  0  0  0  0
   -7.6822   14.2613  -35.1849 C   0  0  0  0  0  0  0  0  0  0  0  0
   -7.9303   15.8448  -37.0937 C   0  0  0  0  0  0  0  0  0  0  0  0
   -6.8366   12.9742  -37.9704 C   0  0  0  0  0  0  0  0  0  0  0  0
   -8.8607   12.0848  -39.1602 C   0  0  0  0  0  0  0  0  0  0  0  0
   -8.2799   13.2567  -38.3755 C   0  0  0  0  0  0  0  0  0  0  0  0
  -10.5547   13.5788  -37.4927 N   0  0  0  0  0  0  0  0  0  0  0  0
  -12.5261   15.8045  -39.5016 N   0  0  0  0  0  0  0  0  0  0  0  0
  -10.7658   15.8628  -36.6053 O   0  0  0  0  0  0  0  0  0  0  0  0
  -14.4807   13.6422  -38.0760 H   0  0  0  0  0  0  0  0  0  0  0  0
  -12.9541   12.8121  -38.3718 H   0  0  0  0  0  0  0  0  0  0  0  0
  -13.1297   16.6396  -36.3870 H   0  0  0  0  0  0  0  0  0  0  0  0
  -14.5556   15.8522  -37.0526 H   0  0  0  0  0  0  0  0  0  0  0  0
  -12.7949   13.8947  -40.3841 H   0  0  0  0  0  0  0  0  0  0  0  0
  -14.2789   14.7558  -40.0594 H   0  0  0  0  0  0  0  0  0  0  0  0
  -14.1907   17.0093  -38.9904 H   0  0  0  0  0  0  0  0  0  0  0  0
  -12.6573   17.6133  -38.4100 H   0  0  0  0  0  0  0  0  0  0  0  0
  -10.5724   16.4035  -38.9627 H   0  0  0  0  0  0  0  0  0  0  0  0
  -10.6885   14.8172  -39.6784 H   0  0  0  0  0  0  0  0  0  0  0  0
  -10.4122   14.6468  -34.9762 H   0  0  0  0  0  0  0  0  0  0  0  0
   -9.6100   16.2087  -34.9670 H   0  0  0  0  0  0  0  0  0  0  0  0
  -12.9011   14.1606  -36.2239 H   0  0  0  0  0  0  0  0  0  0  0  0
   -8.9851   12.6126  -36.4883 H   0  0  0  0  0  0  0  0  0  0  0  0
   -6.8083   13.8264  -35.6572 H   0  0  0  0  0  0  0  0  0  0  0  0
   -8.1796   13.5149  -34.5755 H   0  0  0  0  0  0  0  0  0  0  0  0
   -7.3854   15.1014  -34.5667 H   0  0  0  0  0  0  0  0  0  0  0  0
   -7.0598   15.4092  -37.5686 H   0  0  0  0  0  0  0  0  0  0  0  0
   -7.6275   16.6426  -36.4268 H   0  0  0  0  0  0  0  0  0  0  0  0
   -8.6090   16.2283  -37.8457 H   0  0  0  0  0  0  0  0  0  0  0  0
   -6.7676   12.0907  -37.3265 H   0  0  0  0  0  0  0  0  0  0  0  0
   -6.4106   13.8237  -37.4263 H   0  0  0  0  0  0  0  0  0  0  0  0
   -6.2155   12.7978  -38.8550 H   0  0  0  0  0  0  0  0  0  0  0  0
   -8.8688   11.1673  -38.5617 H   0  0  0  0  0  0  0  0  0  0  0  0
   -8.2707   11.8950  -40.0631 H   0  0  0  0  0  0  0  0  0  0  0  0
   -9.8896   12.2951  -39.4711 H   0  0  0  0  0  0  0  0  0  0  0  0
   -8.2942   14.1455  -39.0155 H   0  0  0  0  0  0  0  0  0  0  0  0
  -10.6756   13.1044  -38.4174 H   0  0  0  0  0  0  0  0  0  0  0  0
  1  3  1  0  0  0  0
  1  7  1  0  0  0  0
  2  4  1  0  0  0  0
  2  7  1  0  0  0  0
  3 17  1  0  0  0  0
  4 17  1  0  0  0  0
  5 10  1  0  0  0  0
  5 17  1  0  0  0  0
  6  9  1  0  0  0  0
  6 18  1  0  0  0  0
  7 10  1  0  0  0  0
  8  9  1  0  0  0  0
  8 15  1  0  0  0  0
  8 16  1  0  0  0  0
  9 11  1  0  0  0  0
  9 12  1  0  0  0  0
 10 16  1  0  0  0  0
 10 18  1  0  0  0  0
 13 15  1  0  0  0  0
 14 15  1  0  0  0  0
  1 19  1  0  0  0  0
  1 20  1  0  0  0  0
  2 21  1  0  0  0  0
  2 22  1  0  0  0  0
  3 23  1  0  0  0  0
  3 24  1  0  0  0  0
  4 25  1  0  0  0  0
  4 26  1  0  0  0  0
  5 27  1  0  0  0  0
  5 28  1  0  0  0  0
  6 29  1  0  0  0  0
  6 30  1  0  0  0  0
  7 31  1  0  0  0  0
  8 32  1  0  0  0  0
 11 33  1  0  0  0  0
 11 34  1  0  0  0  0
 11 35  1  0  0  0  0
 12 36  1  0  0  0  0
 12 37  1  0  0  0  0
 12 38  1  0  0  0  0
 13 39  1  0  0  0  0
 13 40  1  0  0  0  0
 13 41  1  0  0  0  0
 14 42  1  0  0  0  0
 14 43  1  0  0  0  0
 14 44  1  0  0  0  0
 15 45  1  0  0  0  0
 16 46  1  0  0  0  0
M  END
> <id>
EN300-1279534

> <smiles>
CC(C)C1NC2(CN3CCC2CC3)OCC1(C)C

> <IUPAC Name>
5',5'-dimethyl-4'-(propan-2-yl)-4-azaspiro[bicyclo[2.2.2]octane-2,2'-[1,3]oxazinane]

> <CAS>
2171969-86-9

> <URL>
https://www.enaminestore.com/catalog/EN300-1279534

> <ROCS_ShapeQuery>
_x1247relevant_x1083L0AP1_x1305L0BP1_

> <ROCS_TanimotoCombo>
0.823 

> <ROCS_ShapeTanimoto>
0.489 

> <ROCS_ColorTanimoto>
0.334 

> <ROCS_RefTversky>
0.430 

> <ROCS_RefColorTversky>
0.408 

> <ROCS_RefTverskyCombo>
0.838 

> <ROCS_FitTversky>
1.396 

> <ROCS_FitColorTversky>
0.647 

> <ROCS_FitTverskyCombo>
2.043 

> <ROCS_ColorScore>
-8.740

> <ROCS_Overlap>
1268.417

> <ROCS_Rank>
378                 

$$$$
untitled-dbase-177553_6
  -OEChem-06232314393D

 29 31  0     0  0  0  0  0  0999 V2000
  -10.2090   13.3352  -37.2400 C   0  0  0  0  0  0  0  0  0  0  0  0
  -10.5250   15.4007  -35.8437 C   0  0  0  0  0  0  0  0  0  0  0  0
  -13.1184   14.0773  -38.6510 C   0  0  0  0  0  0  0  0  0  0  0  0
  -13.3857   15.8285  -37.4678 C   0  0  0  0  0  0  0  0  0  0  0  0
  -11.8187   15.7451  -38.9096 C   0  0  0  0  0  0  0  0  0  0  0  0
   -9.1055   14.0759  -37.9971 C   0  0  0  0  0  0  0  0  0  0  0  0
   -9.4095   16.0602  -36.6560 C   0  0  0  0  0  0  0  0  0  0  0  0
  -11.2419   14.2892  -36.6233 C   0  0  0  0  0  0  0  0  0  0  0  0
  -12.1864   14.8614  -37.6834 C   0  0  0  0  0  0  0  0  0  0  0  0
  -13.3542   15.5684  -38.9938 C   0  0  0  0  0  0  0  0  0  0  0  0
   -8.4464   15.0777  -37.1570 N   0  0  0  0  0  0  0  0  0  0  0  0
  -14.2226   16.0888  -39.9681 O   0  0  0  0  0  0  0  0  0  0  0  0
  -10.7114   12.6304  -37.9253 H   0  0  0  0  0  0  0  0  0  0  0  0
   -9.7595   12.7119  -36.4497 H   0  0  0  0  0  0  0  0  0  0  0  0
  -10.1079   14.9905  -34.9095 H   0  0  0  0  0  0  0  0  0  0  0  0
  -11.2530   16.1698  -35.5325 H   0  0  0  0  0  0  0  0  0  0  0  0
  -12.6395   13.4568  -39.4155 H   0  0  0  0  0  0  0  0  0  0  0  0
  -13.9540   13.5269  -38.2063 H   0  0  0  0  0  0  0  0  0  0  0  0
  -14.2469   15.4445  -36.9114 H   0  0  0  0  0  0  0  0  0  0  0  0
  -13.1566   16.8436  -37.1274 H   0  0  0  0  0  0  0  0  0  0  0  0
  -11.4402   16.7522  -38.7064 H   0  0  0  0  0  0  0  0  0  0  0  0
  -11.2167   15.2831  -39.6989 H   0  0  0  0  0  0  0  0  0  0  0  0
   -8.3665   13.3620  -38.3814 H   0  0  0  0  0  0  0  0  0  0  0  0
   -9.5453   14.5788  -38.8654 H   0  0  0  0  0  0  0  0  0  0  0  0
   -9.8522   16.5850  -37.5096 H   0  0  0  0  0  0  0  0  0  0  0  0
   -8.8953   16.8152  -36.0484 H   0  0  0  0  0  0  0  0  0  0  0  0
  -11.8522   13.7038  -35.8939 H   0  0  0  0  0  0  0  0  0  0  0  0
   -7.9990   14.6122  -36.3671 H   0  0  0  0  0  0  0  0  0  0  0  0
  -15.1269   15.7988  -39.7444 H   0  0  0  0  0  0  0  0  0  0  0  0
  1  6  1  0  0  0  0
  1  8  1  0  0  0  0
  2  7  1  0  0  0  0
  2  8  1  0  0  0  0
  3  9  1  0  0  0  0
  3 10  1  0  0  0  0
  4  9  1  0  0  0  0
  4 10  1  0  0  0  0
  5  9  1  0  0  0  0
  5 10  1  0  0  0  0
  6 11  1  0  0  0  0
  7 11  1  0  0  0  0
  8  9  1  0  0  0  0
 10 12  1  0  0  0  0
  1 13  1  0  0  0  0
  1 14  1  0  0  0  0
  2 15  1  0  0  0  0
  2 16  1  0  0  0  0
  3 17  1  0  0  0  0
  3 18  1  0  0  0  0
  4 19  1  0  0  0  0
  4 20  1  0  0  0  0
  5 21  1  0  0  0  0
  5 22  1  0  0  0  0
  6 23  1  0  0  0  0
  6 24  1  0  0  0  0
  7 25  1  0  0  0  0
  7 26  1  0  0  0  0
  8 27  1  0  0  0  0
 11 28  1  0  0  0  0
 12 29  1  0  0  0  0
M  END
> <id>
EN300-27737426

> <smiles>
OC1(CC2(C1)C3CCNCC3)C2

> <IUPAC Name>
3-(piperidin-4-yl)bicyclo[1.1.1]pentan-1-ol

> <URL>
https://www.enaminestore.com/catalog/EN300-27737426

> <ROCS_ShapeQuery>
_x1247relevant_x1083L0AP1_x1305L0BP1_

> <ROCS_TanimotoCombo>
0.823 

> <ROCS_ShapeTanimoto>
0.465 

> <ROCS_ColorTanimoto>
0.359 

> <ROCS_RefTversky>
0.388 

> <ROCS_RefColorTversky>
0.424 

> <ROCS_RefTverskyCombo>
0.812 

> <ROCS_FitTversky>
1.751 

> <ROCS_FitColorTversky>
0.699 

> <ROCS_FitTverskyCombo>
2.450 

> <ROCS_ColorScore>
-9.071

> <ROCS_Overlap>
1138.268

> <ROCS_Rank>
379                 

$$$$
untitled-dbase-742_0
  -OEChem-06232314393D

 35 37  0     1  0  0  0  0  0999 V2000
   -9.9880   15.2264  -36.6007 C   0  0  0  0  0  0  0  0  0  0  0  0
  -12.3462   16.0246  -36.6992 C   0  0  0  0  0  0  0  0  0  0  0  0
  -13.3220   16.7280  -38.8988 C   0  0  0  0  0  0  0  0  0  0  0  0
  -14.0975   14.6095  -37.8028 C   0  0  0  0  0  0  0  0  0  0  0  0
  -10.9446   15.9215  -38.7804 C   0  0  0  0  0  0  0  0  0  0  0  0
  -11.7218   13.7999  -37.6836 C   0  0  0  0  0  0  0  0  0  0  0  0
  -12.6995   14.5038  -39.8888 C   0  0  0  0  0  0  0  0  0  0  0  0
  -13.6240   16.0504  -37.5521 C   0  0  0  0  0  0  0  0  0  0  0  0
  -11.2404   15.2414  -37.4304 C   0  0  0  0  0  0  0  0  0  0  0  0
  -12.2181   15.9556  -39.6569 C   0  0  1  0  0  0  0  0  0  0  0  0
  -13.0064   13.8035  -38.5439 C   0  0  2  0  0  0  0  0  0  0  0  0
  -11.9209   16.6356  -40.9965 C   0  0  0  0  0  0  0  0  0  0  0  0
  -13.4831   12.3691  -38.7900 C   0  0  0  0  0  0  0  0  0  0  0  0
   -8.9089   15.6810  -36.9505 O   0  0  0  0  0  0  0  0  0  0  0  0
  -10.2144   14.6342  -35.4027 O   0  0  0  0  0  0  0  0  0  0  0  0
  -12.0167   17.0513  -36.4918 H   0  0  0  0  0  0  0  0  0  0  0  0
  -12.5560   15.5675  -35.7232 H   0  0  0  0  0  0  0  0  0  0  0  0
  -14.2376   16.7720  -39.5027 H   0  0  0  0  0  0  0  0  0  0  0  0
  -13.0088   17.7659  -38.7267 H   0  0  0  0  0  0  0  0  0  0  0  0
  -14.3393   14.1296  -36.8456 H   0  0  0  0  0  0  0  0  0  0  0  0
  -15.0245   14.6232  -38.3905 H   0  0  0  0  0  0  0  0  0  0  0  0
  -10.5722   16.9418  -38.6141 H   0  0  0  0  0  0  0  0  0  0  0  0
  -10.1393   15.3871  -39.3029 H   0  0  0  0  0  0  0  0  0  0  0  0
  -10.9341   13.2211  -38.1852 H   0  0  0  0  0  0  0  0  0  0  0  0
  -11.9072   13.2927  -36.7268 H   0  0  0  0  0  0  0  0  0  0  0  0
  -13.5970   14.5050  -40.5220 H   0  0  0  0  0  0  0  0  0  0  0  0
  -11.9329   13.9395  -40.4369 H   0  0  0  0  0  0  0  0  0  0  0  0
  -14.4066   16.6088  -37.0264 H   0  0  0  0  0  0  0  0  0  0  0  0
  -11.1438   16.0847  -41.5209 H   0  0  0  0  0  0  0  0  0  0  0  0
  -11.5841   17.6545  -40.8217 H   0  0  0  0  0  0  0  0  0  0  0  0
  -12.8223   16.6535  -41.6045 H   0  0  0  0  0  0  0  0  0  0  0  0
  -12.7087   11.8116  -39.3114 H   0  0  0  0  0  0  0  0  0  0  0  0
  -14.3859   12.3835  -39.3959 H   0  0  0  0  0  0  0  0  0  0  0  0
  -13.6954   11.8868  -37.8389 H   0  0  0  0  0  0  0  0  0  0  0  0
   -9.4069   14.6128  -34.8461 H   0  0  0  0  0  0  0  0  0  0  0  0
  1  9  1  0  0  0  0
  1 14  2  0  0  0  0
  1 15  1  0  0  0  0
  2  8  1  0  0  0  0
  2  9  1  0  0  0  0
  3  8  1  0  0  0  0
  3 10  1  0  0  0  0
  4  8  1  0  0  0  0
  4 11  1  0  0  0  0
  5  9  1  0  0  0  0
  5 10  1  0  0  0  0
  6  9  1  0  0  0  0
  6 11  1  0  0  0  0
  7 10  1  0  0  0  0
  7 11  1  0  0  0  0
 10 12  1  0  0  0  0
 11 13  1  0  0  0  0
  2 16  1  0  0  0  0
  2 17  1  0  0  0  0
  3 18  1  0  0  0  0
  3 19  1  0  0  0  0
  4 20  1  0  0  0  0
  4 21  1  0  0  0  0
  5 22  1  0  0  0  0
  5 23  1  0  0  0  0
  6 24  1  0  0  0  0
  6 25  1  0  0  0  0
  7 26  1  0  0  0  0
  7 27  1  0  0  0  0
  8 28  1  0  0  0  0
 12 29  1  0  0  0  0
 12 30  1  0  0  0  0
 12 31  1  0  0  0  0
 13 32  1  0  0  0  0
 13 33  1  0  0  0  0
 13 34  1  0  0  0  0
 15 35  1  0  0  0  0
M  END
> <id>
EN300-07998

> <smiles>
CC1(CC2CC3(C)C1)CC(C2)(C3)C(=O)O

> <MDLNUMBER>
MFCD00188067

> <IUPAC Name>
3,5-dimethyladamantane-1-carboxylic acid

> <CAS>
14670-94-1

> <Purity>
95

> <URL>
https://www.enaminestore.com/catalog/EN300-07998

> <MP>
106-108

> <ROCS_ShapeQuery>
_x1247relevant_x1083L0AP1_x1305L0BP1_

> <ROCS_TanimotoCombo>
0.823 

> <ROCS_ShapeTanimoto>
0.504 

> <ROCS_ColorTanimoto>
0.320 

> <ROCS_RefTversky>
0.425 

> <ROCS_RefColorTversky>
0.357 

> <ROCS_RefTverskyCombo>
0.783 

> <ROCS_FitTversky>
1.576 

> <ROCS_FitColorTversky>
0.752 

> <ROCS_FitTverskyCombo>
2.328 

> <ROCS_ColorScore>
-7.586

> <ROCS_Overlap>
1252.409

> <ROCS_Rank>
380                 

$$$$
untitled-dbase-90918_169
  -OEChem-06232314393D

 37 38  0     1  0  0  0  0  0999 V2000
  -13.1725   16.5125  -40.4118 C   0  0  0  0  0  0  0  0  0  0  0  0
   -9.7978   14.8469  -37.2073 C   0  0  0  0  0  0  0  0  0  0  0  0
  -13.0364   14.3037  -36.7813 C   0  0  0  0  0  0  0  0  0  0  0  0
  -12.7734   14.3279  -39.2358 C   0  0  0  0  0  0  0  0  0  0  0  0
  -11.3573   16.1785  -38.7000 C   0  0  0  0  0  0  0  0  0  0  0  0
  -13.5359   15.7555  -36.8320 C   0  0  0  0  0  0  0  0  0  0  0  0
  -12.0562   14.0110  -37.9263 C   0  0  1  0  0  0  0  0  0  0  0  0
  -12.7921   15.8502  -39.1284 C   0  0  1  0  0  0  0  0  0  0  0  0
  -10.2936   14.9496  -34.6376 C   0  0  0  0  0  0  0  0  0  0  0  0
  -10.2975   12.4384  -34.5834 C   0  0  0  0  0  0  0  0  0  0  0  0
   -8.1251   13.6815  -34.7922 C   0  0  0  0  0  0  0  0  0  0  0  0
   -9.6113   13.6808  -35.1470 C   0  0  0  0  0  0  0  0  0  0  0  0
  -10.9770   15.0027  -37.9117 N   0  0  0  0  0  0  0  0  0  0  0  0
  -12.4708   17.2985  -41.0308 O   0  0  0  0  0  0  0  0  0  0  0  0
   -8.9069   15.6914  -37.1548 O   0  0  0  0  0  0  0  0  0  0  0  0
  -13.7723   16.2363  -38.1625 O   0  0  0  0  0  0  0  0  0  0  0  0
  -14.4115   16.1250  -40.8015 O   0  0  0  0  0  0  0  0  0  0  0  0
   -9.7397   13.6353  -36.5724 O   0  0  0  0  0  0  0  0  0  0  0  0
  -12.5814   14.0997  -35.8056 H   0  0  0  0  0  0  0  0  0  0  0  0
  -13.8973   13.6303  -36.8780 H   0  0  0  0  0  0  0  0  0  0  0  0
  -12.1955   13.9831  -40.1020 H   0  0  0  0  0  0  0  0  0  0  0  0
  -13.7764   13.8899  -39.2827 H   0  0  0  0  0  0  0  0  0  0  0  0
  -10.6593   16.2552  -39.5409 H   0  0  0  0  0  0  0  0  0  0  0  0
  -11.2779   17.0774  -38.0808 H   0  0  0  0  0  0  0  0  0  0  0  0
  -14.4705   15.8502  -36.2696 H   0  0  0  0  0  0  0  0  0  0  0  0
  -12.8142   16.4247  -36.3495 H   0  0  0  0  0  0  0  0  0  0  0  0
  -11.6665   12.9905  -37.8730 H   0  0  0  0  0  0  0  0  0  0  0  0
   -9.8040   15.8437  -35.0399 H   0  0  0  0  0  0  0  0  0  0  0  0
  -11.3522   14.9779  -34.9159 H   0  0  0  0  0  0  0  0  0  0  0  0
  -10.2205   15.0218  -33.5464 H   0  0  0  0  0  0  0  0  0  0  0  0
   -9.8112   11.5257  -34.9462 H   0  0  0  0  0  0  0  0  0  0  0  0
  -11.3409   12.3847  -34.9144 H   0  0  0  0  0  0  0  0  0  0  0  0
  -10.2801   12.4288  -33.4888 H   0  0  0  0  0  0  0  0  0  0  0  0
   -7.6355   12.7715  -35.1574 H   0  0  0  0  0  0  0  0  0  0  0  0
   -7.6088   14.5471  -35.2196 H   0  0  0  0  0  0  0  0  0  0  0  0
   -7.9840   13.6935  -33.7053 H   0  0  0  0  0  0  0  0  0  0  0  0
  -14.8119   15.4893  -40.1708 H   0  0  0  0  0  0  0  0  0  0  0  0
  1  8  1  0  0  0  0
  1 14  2  0  0  0  0
  1 17  1  0  0  0  0
  2 13  1  0  0  0  0
  2 15  2  0  0  0  0
  2 18  1  0  0  0  0
  3  6  1  0  0  0  0
  3  7  1  0  0  0  0
  4  7  1  0  0  0  0
  4  8  1  0  0  0  0
  5  8  1  0  0  0  0
  5 13  1  0  0  0  0
  6 16  1  0  0  0  0
  7 13  1  0  0  0  0
  8 16  1  0  0  0  0
  9 12  1  0  0  0  0
 10 12  1  0  0  0  0
 11 12  1  0  0  0  0
 12 18  1  0  0  0  0
  3 19  1  0  0  0  0
  3 20  1  0  0  0  0
  4 21  1  0  0  0  0
  4 22  1  0  0  0  0
  5 23  1  0  0  0  0
  5 24  1  0  0  0  0
  6 25  1  0  0  0  0
  6 26  1  0  0  0  0
  7 27  1  0  0  0  0
  9 28  1  0  0  0  0
  9 29  1  0  0  0  0
  9 30  1  0  0  0  0
 10 31  1  0  0  0  0
 10 32  1  0  0  0  0
 10 33  1  0  0  0  0
 11 34  1  0  0  0  0
 11 35  1  0  0  0  0
 11 36  1  0  0  0  0
 17 37  1  0  0  0  0
M  END
> <id>
EN300-37139112

> <smiles>
CC(C)(C)OC(=O)N1CC2(CC1CCO2)C(=O)O

> <IUPAC Name>
6-[(tert-butoxy)carbonyl]-2-oxa-6-azabicyclo[3.2.1]octane-1-carboxylic acid

> <CAS>
2803855-72-1

> <Purity>
95

> <URL>
https://www.enaminestore.com/catalog/EN300-37139112

> <ROCS_ShapeQuery>
_x1247relevant_x1083L0AP1_x1305L0BP1_

> <ROCS_TanimotoCombo>
0.823 

> <ROCS_ShapeTanimoto>
0.528 

> <ROCS_ColorTanimoto>
0.295 

> <ROCS_RefTversky>
0.454 

> <ROCS_RefColorTversky>
0.361 

> <ROCS_RefTverskyCombo>
0.815 

> <ROCS_FitTversky>
1.446 

> <ROCS_FitColorTversky>
0.620 

> <ROCS_FitTverskyCombo>
2.065 

> <ROCS_ColorScore>
-7.703

> <ROCS_Overlap>
1340.064

> <ROCS_Rank>
381                 

$$$$
untitled-dbase-119902_2
  -OEChem-06232314393D

 32 34  0     1  0  0  0  0  0999 V2000
   -9.9844   15.2257  -36.6070 C   0  0  0  0  0  0  0  0  0  0  0  0
  -14.0906   14.6043  -37.7846 C   0  0  0  0  0  0  0  0  0  0  0  0
  -12.3301   16.0257  -36.7035 C   0  0  0  0  0  0  0  0  0  0  0  0
  -11.7181   13.7980  -37.6895 C   0  0  0  0  0  0  0  0  0  0  0  0
  -13.3308   16.7213  -38.8949 C   0  0  0  0  0  0  0  0  0  0  0  0
  -12.7186   14.4924  -39.8814 C   0  0  0  0  0  0  0  0  0  0  0  0
  -10.9513   15.9162  -38.8002 C   0  0  0  0  0  0  0  0  0  0  0  0
  -13.6187   16.0473  -37.5421 C   0  0  1  0  0  0  0  0  0  0  0  0
  -13.0048   13.8124  -38.5312 C   0  0  2  0  0  0  0  0  0  0  0  0
  -11.2315   15.2392  -37.4441 C   0  0  0  0  0  0  0  0  0  0  0  0
  -12.2350   15.9457  -39.6637 C   0  0  0  0  0  0  0  0  0  0  0  0
  -11.9539   16.6186  -41.0100 C   0  0  0  0  0  0  0  0  0  0  0  0
   -8.9037   15.6812  -36.9504 O   0  0  0  0  0  0  0  0  0  0  0  0
  -10.2176   14.6336  -35.4102 O   0  0  0  0  0  0  0  0  0  0  0  0
  -14.3169   14.1186  -36.8275 H   0  0  0  0  0  0  0  0  0  0  0  0
  -15.0198   14.6071  -38.3676 H   0  0  0  0  0  0  0  0  0  0  0  0
  -11.9966   17.0526  -36.5036 H   0  0  0  0  0  0  0  0  0  0  0  0
  -12.5298   15.5725  -35.7235 H   0  0  0  0  0  0  0  0  0  0  0  0
  -11.9045   13.2884  -36.7349 H   0  0  0  0  0  0  0  0  0  0  0  0
  -10.9413   13.2148  -38.2014 H   0  0  0  0  0  0  0  0  0  0  0  0
  -14.2531   16.7633  -39.4886 H   0  0  0  0  0  0  0  0  0  0  0  0
  -13.0155   17.7596  -38.7293 H   0  0  0  0  0  0  0  0  0  0  0  0
  -11.9601   13.9185  -40.4293 H   0  0  0  0  0  0  0  0  0  0  0  0
  -13.6266   14.4831  -40.4979 H   0  0  0  0  0  0  0  0  0  0  0  0
  -10.5802   16.9382  -38.6427 H   0  0  0  0  0  0  0  0  0  0  0  0
  -10.1504   15.3812  -39.3287 H   0  0  0  0  0  0  0  0  0  0  0  0
  -14.3967   16.6058  -37.0096 H   0  0  0  0  0  0  0  0  0  0  0  0
  -13.3469   12.7853  -38.7003 H   0  0  0  0  0  0  0  0  0  0  0  0
  -11.1829   16.0653  -41.5410 H   0  0  0  0  0  0  0  0  0  0  0  0
  -11.6153   17.6387  -40.8449 H   0  0  0  0  0  0  0  0  0  0  0  0
  -12.8624   16.6333  -41.6077 H   0  0  0  0  0  0  0  0  0  0  0  0
   -9.4135   14.6132  -34.8487 H   0  0  0  0  0  0  0  0  0  0  0  0
  1 10  1  0  0  0  0
  1 13  2  0  0  0  0
  1 14  1  0  0  0  0
  2  8  1  0  0  0  0
  2  9  1  0  0  0  0
  3  8  1  0  0  0  0
  3 10  1  0  0  0  0
  4  9  1  0  0  0  0
  4 10  1  0  0  0  0
  5  8  1  0  0  0  0
  5 11  1  0  0  0  0
  6  9  1  0  0  0  0
  6 11  1  0  0  0  0
  7 10  1  0  0  0  0
  7 11  1  0  0  0  0
 11 12  1  0  0  0  0
  2 15  1  0  0  0  0
  2 16  1  0  0  0  0
  3 17  1  0  0  0  0
  3 18  1  0  0  0  0
  4 19  1  0  0  0  0
  4 20  1  0  0  0  0
  5 21  1  0  0  0  0
  5 22  1  0  0  0  0
  6 23  1  0  0  0  0
  6 24  1  0  0  0  0
  7 25  1  0  0  0  0
  7 26  1  0  0  0  0
  8 27  1  0  0  0  0
  9 28  1  0  0  0  0
 12 29  1  0  0  0  0
 12 30  1  0  0  0  0
 12 31  1  0  0  0  0
 14 32  1  0  0  0  0
M  END
> <id>
EN300-105275

> <smiles>
CC1(CC2CC3C1)CC(C2)(C3)C(=O)O

> <MDLNUMBER>
MFCD00213438

> <IUPAC Name>
3-methyladamantane-1-carboxylic acid

> <CAS>
33649-73-9

> <Purity>
95

> <URL>
https://www.enaminestore.com/catalog/EN300-105275

> <ROCS_ShapeQuery>
_x1247relevant_x1083L0AP1_x1305L0BP1_

> <ROCS_TanimotoCombo>
0.823 

> <ROCS_ShapeTanimoto>
0.503 

> <ROCS_ColorTanimoto>
0.320 

> <ROCS_RefTversky>
0.420 

> <ROCS_RefColorTversky>
0.358 

> <ROCS_RefTverskyCombo>
0.778 

> <ROCS_FitTversky>
1.642 

> <ROCS_FitColorTversky>
0.752 

> <ROCS_FitTverskyCombo>
2.394 

> <ROCS_ColorScore>
-7.591

> <ROCS_Overlap>
1237.362

> <ROCS_Rank>
382                 

$$$$
untitled-dbase-29622_6
  -OEChem-06232314393D

 30 31  0     1  0  0  0  0  0999 V2000
  -14.0149   15.1671  -37.4567 C   0  0  0  0  0  0  0  0  0  0  0  0
  -12.7659   15.1727  -36.5581 C   0  0  0  0  0  0  0  0  0  0  0  0
  -12.3571   14.1381  -39.1073 C   0  0  0  0  0  0  0  0  0  0  0  0
  -13.6241   15.0335  -38.9352 C   0  0  2  0  0  0  0  0  0  0  0  0
  -11.5647   15.4438  -38.7713 C   0  0  2  0  0  0  0  0  0  0  0  0
  -11.4936   15.6874  -37.2565 C   0  0  2  0  0  0  0  0  0  0  0  0
  -12.7411   16.2189  -39.4988 C   0  0  0  0  0  0  0  0  0  0  0  0
  -13.0676   17.6345  -39.0102 C   0  0  0  0  0  0  0  0  0  0  0  0
  -12.6291   16.2704  -41.0353 C   0  0  0  0  0  0  0  0  0  0  0  0
  -10.1309   13.4163  -37.4470 N   0  0  0  0  0  0  0  0  0  0  0  0
   -8.8898   15.6334  -37.0458 O   0  0  0  0  0  0  0  0  0  0  0  0
  -10.2866   14.6394  -35.1894 O   0  0  0  0  0  0  0  0  0  0  0  0
  -10.0521   14.8911  -36.5980 S   0  0  0  0  0  0  0  0  0  0  0  0
  -14.6579   14.3282  -37.1646 H   0  0  0  0  0  0  0  0  0  0  0  0
  -14.6083   16.0741  -37.2992 H   0  0  0  0  0  0  0  0  0  0  0  0
  -12.9580   15.7446  -35.6425 H   0  0  0  0  0  0  0  0  0  0  0  0
  -12.6033   14.1407  -36.2173 H   0  0  0  0  0  0  0  0  0  0  0  0
  -12.2490   13.2945  -38.4184 H   0  0  0  0  0  0  0  0  0  0  0  0
  -12.1971   13.7384  -40.1142 H   0  0  0  0  0  0  0  0  0  0  0  0
  -14.4786   14.7603  -39.5631 H   0  0  0  0  0  0  0  0  0  0  0  0
  -10.5955   15.5448  -39.2725 H   0  0  0  0  0  0  0  0  0  0  0  0
  -11.3422   16.7514  -37.0465 H   0  0  0  0  0  0  0  0  0  0  0  0
  -12.3884   18.3450  -39.4742 H   0  0  0  0  0  0  0  0  0  0  0  0
  -12.9561   17.6811  -37.9301 H   0  0  0  0  0  0  0  0  0  0  0  0
  -14.0907   17.8848  -39.2788 H   0  0  0  0  0  0  0  0  0  0  0  0
  -12.0075   17.1125  -41.3179 H   0  0  0  0  0  0  0  0  0  0  0  0
  -13.6198   16.3861  -41.4597 H   0  0  0  0  0  0  0  0  0  0  0  0
  -12.1824   15.3484  -41.3898 H   0  0  0  0  0  0  0  0  0  0  0  0
  -10.8714   12.7528  -37.1882 H   0  0  0  0  0  0  0  0  0  0  0  0
   -9.9199   13.4298  -38.4524 H   0  0  0  0  0  0  0  0  0  0  0  0
  1  2  1  0  0  0  0
  1  4  1  0  0  0  0
  2  6  1  0  0  0  0
  3  4  1  0  0  0  0
  3  5  1  0  0  0  0
  4  7  1  0  0  0  0
  5  6  1  0  0  0  0
  5  7  1  0  0  0  0
  6 13  1  0  0  0  0
  7  8  1  0  0  0  0
  7  9  1  0  0  0  0
 10 13  1  0  0  0  0
 11 13  2  0  0  0  0
 12 13  2  0  0  0  0
  1 14  1  0  0  0  0
  1 15  1  0  0  0  0
  2 16  1  0  0  0  0
  2 17  1  0  0  0  0
  3 18  1  0  0  0  0
  3 19  1  0  0  0  0
  4 20  1  0  0  0  0
  5 21  1  0  0  0  0
  6 22  1  0  0  0  0
  8 23  1  0  0  0  0
  8 24  1  0  0  0  0
  8 25  1  0  0  0  0
  9 26  1  0  0  0  0
  9 27  1  0  0  0  0
  9 28  1  0  0  0  0
 10 29  1  0  0  0  0
 10 30  1  0  0  0  0
M  END
> <id>
EN300-679888

> <smiles>
CC1(C)C2CC1C(CC2)S(=O)(=O)N

> <MDLNUMBER>
MFCD31425559

> <IUPAC Name>
6,6-dimethylbicyclo[3.1.1]heptane-2-sulfonamide

> <CAS>
1935493-49-4

> <URL>
https://www.enaminestore.com/catalog/EN300-679888

> <ROCS_ShapeQuery>
_x1247relevant_x1083L0AP1_x1305L0BP1_

> <ROCS_TanimotoCombo>
0.823 

> <ROCS_ShapeTanimoto>
0.464 

> <ROCS_ColorTanimoto>
0.358 

> <ROCS_RefTversky>
0.389 

> <ROCS_RefColorTversky>
0.396 

> <ROCS_RefTverskyCombo>
0.785 

> <ROCS_FitTversky>
1.722 

> <ROCS_FitColorTversky>
0.790 

> <ROCS_FitTverskyCombo>
2.511 

> <ROCS_ColorScore>
-8.426

> <ROCS_Overlap>
1142.173

> <ROCS_Rank>
383                 

$$$$
untitled-dbase-35499_1
  -OEChem-06232314393D

 24 26  0     1  0  0  0  0  0999 V2000
   -9.5300   14.7397  -36.9304 C   0  0  0  0  0  0  0  0  0  0  0  0
  -13.6695   14.6025  -39.6895 C   0  0  0  0  0  0  0  0  0  0  0  0
  -13.4085   16.1298  -39.7223 C   0  0  0  0  0  0  0  0  0  0  0  0
  -13.7557   15.4510  -37.4829 C   0  0  0  0  0  0  0  0  0  0  0  0
  -10.9745   14.9847  -37.0427 C   0  0  0  0  0  0  0  0  0  0  0  0
  -13.2546   14.2172  -38.2499 C   0  0  2  0  0  0  0  0  0  0  0  0
  -12.8787   16.4150  -38.2972 C   0  0  1  0  0  0  0  0  0  0  0  0
  -11.7341   14.3301  -38.1757 C   0  0  1  0  0  0  0  0  0  0  0  0
  -11.4816   15.8065  -38.2075 C   0  0  2  0  0  0  0  0  0  0  0  0
   -9.1958   13.4071  -36.8805 N   0  0  0  0  0  0  0  0  0  0  0  0
   -8.7126   15.6565  -36.9028 O   0  0  0  0  0  0  0  0  0  0  0  0
  -14.7323   14.3985  -39.8610 H   0  0  0  0  0  0  0  0  0  0  0  0
  -13.0855   14.0773  -40.4521 H   0  0  0  0  0  0  0  0  0  0  0  0
  -12.6887   16.3988  -40.5021 H   0  0  0  0  0  0  0  0  0  0  0  0
  -14.3443   16.6679  -39.9097 H   0  0  0  0  0  0  0  0  0  0  0  0
  -14.8296   15.6321  -37.6033 H   0  0  0  0  0  0  0  0  0  0  0  0
  -13.5205   15.4337  -36.4159 H   0  0  0  0  0  0  0  0  0  0  0  0
  -11.4661   15.0896  -36.0845 H   0  0  0  0  0  0  0  0  0  0  0  0
  -13.6453   13.2580  -37.9062 H   0  0  0  0  0  0  0  0  0  0  0  0
  -12.9260   17.4630  -37.9966 H   0  0  0  0  0  0  0  0  0  0  0  0
  -11.2062   13.6876  -38.8668 H   0  0  0  0  0  0  0  0  0  0  0  0
  -10.7753   16.2077  -38.9212 H   0  0  0  0  0  0  0  0  0  0  0  0
   -8.2165   13.1532  -36.8028 H   0  0  0  0  0  0  0  0  0  0  0  0
   -9.8893   12.6671  -36.9183 H   0  0  0  0  0  0  0  0  0  0  0  0
  1  5  1  1  0  0  0
  1 10  1  0  0  0  0
  1 11  2  0  0  0  0
  2  3  1  0  0  0  0
  2  6  1  1  0  0  0
  3  7  1  1  0  0  0
  4  6  1  0  0  0  0
  4  7  1  0  0  0  0
  5  8  1  0  0  0  0
  5  9  1  0  0  0  0
  6  8  1  6  0  0  0
  7  9  1  6  0  0  0
  8  9  1  0  0  0  0
  2 12  1  0  0  0  0
  2 13  1  0  0  0  0
  3 14  1  0  0  0  0
  3 15  1  0  0  0  0
  4 16  1  0  0  0  0
  4 17  1  0  0  0  0
  5 18  1  0  0  0  0
  6 19  1  0  0  0  0
  7 20  1  0  0  0  0
  8 21  1  0  0  0  0
  9 22  1  0  0  0  0
 10 23  1  0  0  0  0
 10 24  1  0  0  0  0
M  END
> <id>
EN300-764787

> <smiles>
NC(=O)[C@H]1[C@H]2[C@@H]1[C@@H]3CC[C@H]2C3

> <IUPAC Name>
(1R,2S,3R,4R,5S)-tricyclo[3.2.1.0,2,4]octane-3-carboxamide

> <CAS>
16529-69-4

> <URL>
https://www.enaminestore.com/catalog/EN300-764787

> <ROCS_ShapeQuery>
_x1247relevant_x1083L0AP1_x1305L0BP1_

> <ROCS_TanimotoCombo>
0.823 

> <ROCS_ShapeTanimoto>
0.463 

> <ROCS_ColorTanimoto>
0.360 

> <ROCS_RefTversky>
0.384 

> <ROCS_RefColorTversky>
0.499 

> <ROCS_RefTverskyCombo>
0.882 

> <ROCS_FitTversky>
1.805 

> <ROCS_FitColorTversky>
0.564 

> <ROCS_FitTverskyCombo>
2.369 

> <ROCS_ColorScore>
-10.823

> <ROCS_Overlap>
1126.724

> <ROCS_Rank>
384                 

$$$$
untitled-dbase-67401_0
  -OEChem-06232314393D

 27 28  0     1  0  0  0  0  0999 V2000
  -11.4576   16.2373  -37.8328 C   0  0  0  0  0  0  0  0  0  0  0  0
  -10.9319   15.0511  -37.4859 C   0  0  0  0  0  0  0  0  0  0  0  0
   -9.5106   14.9866  -37.1486 C   0  0  0  0  0  0  0  0  0  0  0  0
  -11.7552   13.7899  -37.4473 C   0  0  0  0  0  0  0  0  0  0  0  0
  -13.7321   15.3286  -37.3688 C   0  0  0  0  0  0  0  0  0  0  0  0
  -13.2714   14.2661  -39.4632 C   0  0  0  0  0  0  0  0  0  0  0  0
  -12.9216   16.3324  -38.2043 C   0  0  2  0  0  0  0  0  0  0  0  0
  -13.2072   14.0096  -37.9413 C   0  0  1  0  0  0  0  0  0  0  0  0
  -13.1060   15.7898  -39.6323 C   0  0  2  0  0  0  0  0  0  0  0  0
   -7.8265   13.4787  -36.4739 C   0  0  0  0  0  0  0  0  0  0  0  0
   -8.7649   15.9553  -37.1633 O   0  0  0  0  0  0  0  0  0  0  0  0
  -14.2949   16.3259  -40.2041 O   0  0  0  0  0  0  0  0  0  0  0  0
   -9.1942   13.7048  -36.8306 O   0  0  0  0  0  0  0  0  0  0  0  0
  -10.8557   17.1391  -37.8852 H   0  0  0  0  0  0  0  0  0  0  0  0
  -11.2744   13.0069  -38.0452 H   0  0  0  0  0  0  0  0  0  0  0  0
  -11.7883   13.4327  -36.4102 H   0  0  0  0  0  0  0  0  0  0  0  0
  -13.5626   15.4249  -36.2906 H   0  0  0  0  0  0  0  0  0  0  0  0
  -14.8067   15.4386  -37.5583 H   0  0  0  0  0  0  0  0  0  0  0  0
  -12.4849   13.7181  -39.9929 H   0  0  0  0  0  0  0  0  0  0  0  0
  -14.2365   13.9315  -39.8615 H   0  0  0  0  0  0  0  0  0  0  0  0
  -13.2960   17.3512  -38.0666 H   0  0  0  0  0  0  0  0  0  0  0  0
  -13.8283   13.1531  -37.6602 H   0  0  0  0  0  0  0  0  0  0  0  0
  -12.2747   16.0311  -40.3039 H   0  0  0  0  0  0  0  0  0  0  0  0
   -7.6807   12.4217  -36.2380 H   0  0  0  0  0  0  0  0  0  0  0  0
   -7.5679   14.0951  -35.6092 H   0  0  0  0  0  0  0  0  0  0  0  0
   -7.1891   13.7526  -37.3179 H   0  0  0  0  0  0  0  0  0  0  0  0
  -14.1530   17.2813  -40.2945 H   0  0  0  0  0  0  0  0  0  0  0  0
  1  2  2  0  0  0  0
  1  7  1  6  0  0  0
  2  3  1  0  0  0  0
  2  4  1  0  0  0  0
  3 11  2  0  0  0  0
  3 13  1  0  0  0  0
  4  8  1  0  0  0  0
  5  7  1  0  0  0  0
  5  8  1  0  0  0  0
  6  8  1  6  0  0  0
  6  9  1  0  0  0  0
  7  9  1  0  0  0  0
  9 12  1  1  0  0  0
 10 13  1  0  0  0  0
  1 14  1  0  0  0  0
  4 15  1  0  0  0  0
  4 16  1  0  0  0  0
  5 17  1  0  0  0  0
  5 18  1  0  0  0  0
  6 19  1  0  0  0  0
  6 20  1  0  0  0  0
  7 21  1  0  0  0  0
  8 22  1  0  0  0  0
  9 23  1  0  0  0  0
 10 24  1  0  0  0  0
 10 25  1  0  0  0  0
 10 26  1  0  0  0  0
 12 27  1  0  0  0  0
M  END
> <id>
EN300-27100534

> <smiles>
COC(=O)C1=C[C@@H]2C[C@@H](C[C@H]2O)C1 |&1:6,8,10,r|

> <IUPAC Name>
rac-methyl (1R,5S,7S)-7-hydroxybicyclo[3.2.1]oct-2-ene-3-carboxylate

> <CAS>
2470279-69-5

> <Purity>
95

> <URL>
https://www.enaminestore.com/catalog/EN300-27100534

> <ROCS_ShapeQuery>
_x1247relevant_x1083L0AP1_x1305L0BP1_

> <ROCS_TanimotoCombo>
0.823 

> <ROCS_ShapeTanimoto>
0.469 

> <ROCS_ColorTanimoto>
0.354 

> <ROCS_RefTversky>
0.395 

> <ROCS_RefColorTversky>
0.378 

> <ROCS_RefTverskyCombo>
0.773 

> <ROCS_FitTversky>
1.664 

> <ROCS_FitColorTversky>
0.850 

> <ROCS_FitTverskyCombo>
2.514 

> <ROCS_ColorScore>
-8.008

> <ROCS_Overlap>
1160.698

> <ROCS_Rank>
385                 

$$$$
untitled-dbase-87489_44
  -OEChem-06232314393D

 36 37  0     0  0  0  0  0  0999 V2000
  -10.4080   15.2042  -36.5997 C   0  0  0  0  0  0  0  0  0  0  0  0
  -12.7708   16.5233  -39.3338 C   0  0  0  0  0  0  0  0  0  0  0  0
  -14.1293   15.3851  -37.5715 C   0  0  0  0  0  0  0  0  0  0  0  0
  -11.5413   16.4938  -38.4166 C   0  0  0  0  0  0  0  0  0  0  0  0
  -12.9101   15.3500  -36.6400 C   0  0  0  0  0  0  0  0  0  0  0  0
  -12.8010   14.0327  -39.1933 C   0  0  0  0  0  0  0  0  0  0  0  0
  -13.6566   15.3034  -39.0330 C   0  0  0  0  0  0  0  0  0  0  0  0
  -11.6205   15.2775  -37.4764 C   0  0  0  0  0  0  0  0  0  0  0  0
   -8.7741   13.4298  -37.5859 C   0  0  0  0  0  0  0  0  0  0  0  0
   -7.5397   15.2804  -38.7524 C   0  0  0  0  0  0  0  0  0  0  0  0
   -7.2838   14.9753  -36.2726 C   0  0  0  0  0  0  0  0  0  0  0  0
   -8.2358   14.8544  -37.4616 C   0  0  0  0  0  0  0  0  0  0  0  0
  -11.6350   14.0499  -38.2912 N   0  0  0  0  0  0  0  0  0  0  0  0
  -10.4056   14.7294  -35.4720 O   0  0  0  0  0  0  0  0  0  0  0  0
   -9.3393   15.7417  -37.2539 O   0  0  0  0  0  0  0  0  0  0  0  0
  -13.3322   17.4526  -39.1820 H   0  0  0  0  0  0  0  0  0  0  0  0
  -12.4523   16.5127  -40.3830 H   0  0  0  0  0  0  0  0  0  0  0  0
  -14.7971   14.5465  -37.3409 H   0  0  0  0  0  0  0  0  0  0  0  0
  -14.7044   16.3035  -37.4048 H   0  0  0  0  0  0  0  0  0  0  0  0
  -10.6267   16.4636  -39.0236 H   0  0  0  0  0  0  0  0  0  0  0  0
  -11.4867   17.4248  -37.8380 H   0  0  0  0  0  0  0  0  0  0  0  0
  -12.9047   16.2419  -36.0004 H   0  0  0  0  0  0  0  0  0  0  0  0
  -12.9874   14.4923  -35.9590 H   0  0  0  0  0  0  0  0  0  0  0  0
  -13.4089   13.1444  -38.9841 H   0  0  0  0  0  0  0  0  0  0  0  0
  -12.4450   13.9423  -40.2257 H   0  0  0  0  0  0  0  0  0  0  0  0
  -14.5159   15.2788  -39.7113 H   0  0  0  0  0  0  0  0  0  0  0  0
   -9.2745   13.1203  -36.6614 H   0  0  0  0  0  0  0  0  0  0  0  0
   -9.4849   13.3379  -38.4136 H   0  0  0  0  0  0  0  0  0  0  0  0
   -7.9582   12.7164  -37.7496 H   0  0  0  0  0  0  0  0  0  0  0  0
   -7.1519   16.3020  -38.6677 H   0  0  0  0  0  0  0  0  0  0  0  0
   -8.2440   15.2862  -39.5921 H   0  0  0  0  0  0  0  0  0  0  0  0
   -6.7081   14.6135  -39.0020 H   0  0  0  0  0  0  0  0  0  0  0  0
   -6.8975   15.9971  -36.1832 H   0  0  0  0  0  0  0  0  0  0  0  0
   -7.7771   14.7089  -35.3322 H   0  0  0  0  0  0  0  0  0  0  0  0
   -6.4112   14.3254  -36.4044 H   0  0  0  0  0  0  0  0  0  0  0  0
  -11.6775   13.2318  -37.6830 H   0  0  0  0  0  0  0  0  0  0  0  0
  1  8  1  0  0  0  0
  1 14  2  0  0  0  0
  1 15  1  0  0  0  0
  2  4  1  0  0  0  0
  2  7  1  0  0  0  0
  3  5  1  0  0  0  0
  3  7  1  0  0  0  0
  4  8  1  0  0  0  0
  5  8  1  0  0  0  0
  6  7  1  0  0  0  0
  6 13  1  0  0  0  0
  8 13  1  0  0  0  0
  9 12  1  0  0  0  0
 10 12  1  0  0  0  0
 11 12  1  0  0  0  0
 12 15  1  0  0  0  0
  2 16  1  0  0  0  0
  2 17  1  0  0  0  0
  3 18  1  0  0  0  0
  3 19  1  0  0  0  0
  4 20  1  0  0  0  0
  4 21  1  0  0  0  0
  5 22  1  0  0  0  0
  5 23  1  0  0  0  0
  6 24  1  0  0  0  0
  6 25  1  0  0  0  0
  7 26  1  0  0  0  0
  9 27  1  0  0  0  0
  9 28  1  0  0  0  0
  9 29  1  0  0  0  0
 10 30  1  0  0  0  0
 10 31  1  0  0  0  0
 10 32  1  0  0  0  0
 11 33  1  0  0  0  0
 11 34  1  0  0  0  0
 11 35  1  0  0  0  0
 13 36  1  0  0  0  0
M  END
> <id>
EN300-1229208

> <smiles>
CC(C)(C)OC(=O)C1(CCC2CC1)NC2

> <MDLNUMBER>
MFCD28389803

> <IUPAC Name>
tert-butyl 2-azabicyclo[2.2.2]octane-1-carboxylate

> <CAS>
1993286-86-4

> <URL>
https://www.enaminestore.com/catalog/EN300-1229208

> <ROCS_ShapeQuery>
_x1247relevant_x1083L0AP1_x1305L0BP1_

> <ROCS_TanimotoCombo>
0.823 

> <ROCS_ShapeTanimoto>
0.465 

> <ROCS_ColorTanimoto>
0.358 

> <ROCS_RefTversky>
0.402 

> <ROCS_RefColorTversky>
0.395 

> <ROCS_RefTverskyCombo>
0.797 

> <ROCS_FitTversky>
1.511 

> <ROCS_FitColorTversky>
0.792 

> <ROCS_FitTverskyCombo>
2.303 

> <ROCS_ColorScore>
-8.405

> <ROCS_Overlap>
1182.192

> <ROCS_Rank>
386                 

$$$$
untitled-dbase-41402_8
  -OEChem-06232314393D

 30 32  0     1  0  0  0  0  0999 V2000
  -13.0123   14.0098  -37.3624 C   0  0  0  0  0  0  0  0  0  0  0  0
  -12.0886   15.8640  -39.1510 C   0  0  0  0  0  0  0  0  0  0  0  0
  -11.6628   14.3365  -37.3289 C   0  0  0  0  0  0  0  0  0  0  0  0
  -11.1963   15.2963  -38.2428 C   0  0  0  0  0  0  0  0  0  0  0  0
  -13.4134   15.4594  -39.1017 C   0  0  0  0  0  0  0  0  0  0  0  0
  -11.6404   16.8517  -40.1284 C   0  0  0  0  0  0  0  0  0  0  0  0
   -9.7331   15.6801  -38.2578 C   0  0  0  0  0  0  0  0  0  0  0  0
  -10.4444   14.7484  -35.1991 C   0  0  0  0  0  0  0  0  0  0  0  0
   -9.3186   15.6459  -35.7378 C   0  0  0  0  0  0  0  0  0  0  0  0
   -9.3276   13.5766  -36.9498 C   0  0  0  0  0  0  0  0  0  0  0  0
  -10.7143   13.7330  -36.3183 C   0  0  2  0  0  0  0  0  0  0  0  0
   -8.9274   15.0461  -37.1016 C   0  0  1  0  0  0  0  0  0  0  0  0
  -13.8990   14.5474  -38.2297 N   0  0  0  0  0  0  0  0  0  0  0  0
  -14.3267   16.0341  -40.0219 N   0  0  0  0  0  0  0  0  0  0  0  0
  -10.4848   17.2631  -40.2438 O   0  0  0  0  0  0  0  0  0  0  0  0
  -12.6535   17.2852  -40.9239 O   0  0  0  0  0  0  0  0  0  0  0  0
  -13.4339   13.2867  -36.6714 H   0  0  0  0  0  0  0  0  0  0  0  0
   -9.3026   15.3355  -39.2069 H   0  0  0  0  0  0  0  0  0  0  0  0
   -9.6287   16.7709  -38.2149 H   0  0  0  0  0  0  0  0  0  0  0  0
  -10.0892   14.2286  -34.3010 H   0  0  0  0  0  0  0  0  0  0  0  0
  -11.3278   15.3304  -34.9149 H   0  0  0  0  0  0  0  0  0  0  0  0
   -9.6333   16.6919  -35.8133 H   0  0  0  0  0  0  0  0  0  0  0  0
   -8.4660   15.6090  -35.0493 H   0  0  0  0  0  0  0  0  0  0  0  0
   -8.6447   13.0566  -36.2666 H   0  0  0  0  0  0  0  0  0  0  0  0
   -9.3399   13.0374  -37.9032 H   0  0  0  0  0  0  0  0  0  0  0  0
  -11.0969   12.7811  -35.9366 H   0  0  0  0  0  0  0  0  0  0  0  0
   -7.8561   15.1699  -37.2902 H   0  0  0  0  0  0  0  0  0  0  0  0
  -14.0016   16.7426  -40.6421 H   0  0  0  0  0  0  0  0  0  0  0  0
  -15.2892   15.7840  -39.9623 H   0  0  0  0  0  0  0  0  0  0  0  0
  -12.3623   17.9489  -41.5850 H   0  0  0  0  0  0  0  0  0  0  0  0
  1  3  2  0  0  0  0
  1 13  1  0  0  0  0
  2  4  2  0  0  0  0
  2  5  1  0  0  0  0
  2  6  1  0  0  0  0
  3  4  1  0  0  0  0
  3 11  1  0  0  0  0
  4  7  1  0  0  0  0
  5 13  2  0  0  0  0
  5 14  1  0  0  0  0
  6 15  2  0  0  0  0
  6 16  1  0  0  0  0
  7 12  1  0  0  0  0
  8  9  1  0  0  0  0
  8 11  1  0  0  0  0
  9 12  1  0  0  0  0
 10 11  1  0  0  0  0
 10 12  1  0  0  0  0
  1 17  1  0  0  0  0
  7 18  1  0  0  0  0
  7 19  1  0  0  0  0
  8 20  1  0  0  0  0
  8 21  1  0  0  0  0
  9 22  1  0  0  0  0
  9 23  1  0  0  0  0
 10 24  1  0  0  0  0
 10 25  1  0  0  0  0
 11 26  1  0  0  0  0
 12 27  1  0  0  0  0
 14 28  1  0  0  0  0
 14 29  1  0  0  0  0
 16 30  1  0  0  0  0
M  END
> <id>
EN300-1153957

> <smiles>
NC=1N=CC=2C3CCC(C3)CC2C1C(=O)O

> <IUPAC Name>
5-amino-4-azatricyclo[7.2.1.0,2,7]dodeca-2,4,6-triene-6-carboxylic acid

> <CAS>
2138559-28-9

> <URL>
https://www.enaminestore.com/catalog/EN300-1153957

> <ROCS_ShapeQuery>
_x1247relevant_x1083L0AP1_x1305L0BP1_

> <ROCS_TanimotoCombo>
0.822 

> <ROCS_ShapeTanimoto>
0.541 

> <ROCS_ColorTanimoto>
0.281 

> <ROCS_RefTversky>
0.453 

> <ROCS_RefColorTversky>
0.355 

> <ROCS_RefTverskyCombo>
0.808 

> <ROCS_FitTversky>
1.565 

> <ROCS_FitColorTversky>
0.574 

> <ROCS_FitTverskyCombo>
2.139 

> <ROCS_ColorScore>
-7.602

> <ROCS_Overlap>
1334.863

> <ROCS_Rank>
387                 

$$$$
untitled-dbase-9953_2
  -OEChem-06232314393D

 33 34  0     1  0  0  0  0  0999 V2000
  -10.2603   15.2888  -36.6982 C   0  0  0  0  0  0  0  0  0  0  0  0
  -13.2824   16.5342  -37.8761 C   0  0  0  0  0  0  0  0  0  0  0  0
  -11.9319   16.6729  -38.5953 C   0  0  0  0  0  0  0  0  0  0  0  0
  -12.5881   14.3625  -36.8961 C   0  0  0  0  0  0  0  0  0  0  0  0
  -13.5443   15.0148  -37.9303 C   0  0  2  0  0  0  0  0  0  0  0  0
  -11.1934   14.4810  -37.5685 C   0  0  1  0  0  0  0  0  0  0  0  0
  -11.5529   15.1921  -38.9276 C   0  0  1  0  0  0  0  0  0  0  0  0
  -12.9551   14.5919  -39.3007 C   0  0  0  0  0  0  0  0  0  0  0  0
  -10.4830   15.1151  -40.0065 C   0  0  0  0  0  0  0  0  0  0  0  0
  -13.0487   13.0778  -39.5699 C   0  0  0  0  0  0  0  0  0  0  0  0
  -13.6429   15.2571  -40.5173 C   0  0  0  0  0  0  0  0  0  0  0  0
  -10.5156   13.1912  -37.6586 N   0  0  0  0  0  0  0  0  0  0  0  0
   -9.3417   15.9822  -37.1090 O   0  0  0  0  0  0  0  0  0  0  0  0
  -10.5775   15.1397  -35.3889 O   0  0  0  0  0  0  0  0  0  0  0  0
  -13.2383   16.9155  -36.8505 H   0  0  0  0  0  0  0  0  0  0  0  0
  -14.0626   17.0953  -38.4012 H   0  0  0  0  0  0  0  0  0  0  0  0
  -12.0352   17.2822  -39.5002 H   0  0  0  0  0  0  0  0  0  0  0  0
  -11.1962   17.1925  -37.9748 H   0  0  0  0  0  0  0  0  0  0  0  0
  -12.6473   14.8616  -35.9220 H   0  0  0  0  0  0  0  0  0  0  0  0
  -12.8738   13.3182  -36.7256 H   0  0  0  0  0  0  0  0  0  0  0  0
  -14.5927   14.7537  -37.7669 H   0  0  0  0  0  0  0  0  0  0  0  0
  -10.2381   14.0735  -40.2182 H   0  0  0  0  0  0  0  0  0  0  0  0
   -9.5794   15.6288  -39.6758 H   0  0  0  0  0  0  0  0  0  0  0  0
  -10.8403   15.5861  -40.9232 H   0  0  0  0  0  0  0  0  0  0  0  0
  -12.6186   12.8620  -40.5416 H   0  0  0  0  0  0  0  0  0  0  0  0
  -14.0905   12.7775  -39.5548 H   0  0  0  0  0  0  0  0  0  0  0  0
  -12.5018   12.5451  -38.7999 H   0  0  0  0  0  0  0  0  0  0  0  0
  -13.1676   14.9037  -41.4228 H   0  0  0  0  0  0  0  0  0  0  0  0
  -13.5352   16.3305  -40.4347 H   0  0  0  0  0  0  0  0  0  0  0  0
  -14.6905   14.9865  -40.5165 H   0  0  0  0  0  0  0  0  0  0  0  0
   -9.6240   13.3363  -38.0703 H   0  0  0  0  0  0  0  0  0  0  0  0
  -10.4221   12.8246  -36.7408 H   0  0  0  0  0  0  0  0  0  0  0  0
   -9.9807   15.6560  -34.8062 H   0  0  0  0  0  0  0  0  0  0  0  0
  1  6  1  0  0  0  0
  1 13  2  0  0  0  0
  1 14  1  0  0  0  0
  2  3  1  0  0  0  0
  2  5  1  6  0  0  0
  3  7  1  0  0  0  0
  4  5  1  0  0  0  0
  4  6  1  0  0  0  0
  5  8  1  0  0  0  0
  6  7  1  0  0  0  0
  6 12  1  1  0  0  0
  7  8  1  0  0  0  0
  7  9  1  1  0  0  0
  8 10  1  0  0  0  0
  8 11  1  0  0  0  0
  2 15  1  0  0  0  0
  2 16  1  0  0  0  0
  3 17  1  0  0  0  0
  3 18  1  0  0  0  0
  4 19  1  0  0  0  0
  4 20  1  0  0  0  0
  5 21  1  0  0  0  0
  9 22  1  0  0  0  0
  9 23  1  0  0  0  0
  9 24  1  0  0  0  0
 10 25  1  0  0  0  0
 10 26  1  0  0  0  0
 10 27  1  0  0  0  0
 11 28  1  0  0  0  0
 11 29  1  0  0  0  0
 11 30  1  0  0  0  0
 12 31  1  0  0  0  0
 12 32  1  0  0  0  0
 14 33  1  0  0  0  0
M  END
> <id>
EN300-144879

> <smiles>
CC1(C)[C@@H]2CC[C@@]1(C)[C@](N)(C2)C(=O)O

> <MDLNUMBER>
MFCD08444731

> <IUPAC Name>
(1R,2R,4R)-2-amino-1,7,7-trimethylbicyclo[2.2.1]heptane-2-carboxylic acid

> <CAS>
88980-21-6

> <URL>
https://www.enaminestore.com/catalog/EN300-144879

> <ROCS_ShapeQuery>
_x1247relevant_x1083L0AP1_x1305L0BP1_

> <ROCS_TanimotoCombo>
0.822 

> <ROCS_ShapeTanimoto>
0.496 

> <ROCS_ColorTanimoto>
0.327 

> <ROCS_RefTversky>
0.415 

> <ROCS_RefColorTversky>
0.393 

> <ROCS_RefTverskyCombo>
0.808 

> <ROCS_FitTversky>
1.643 

> <ROCS_FitColorTversky>
0.659 

> <ROCS_FitTverskyCombo>
2.302 

> <ROCS_ColorScore>
-8.408

> <ROCS_Overlap>
1221.198

> <ROCS_Rank>
388                 

$$$$
untitled-dbase-110547_2
  -OEChem-06232314393D

 33 34  0     1  0  0  0  0  0999 V2000
  -10.2603   15.2888  -36.6982 C   0  0  0  0  0  0  0  0  0  0  0  0
  -13.2824   16.5342  -37.8761 C   0  0  0  0  0  0  0  0  0  0  0  0
  -11.9319   16.6729  -38.5953 C   0  0  0  0  0  0  0  0  0  0  0  0
  -12.5881   14.3625  -36.8961 C   0  0  0  0  0  0  0  0  0  0  0  0
  -13.5443   15.0148  -37.9303 C   0  0  2  0  0  0  0  0  0  0  0  0
  -11.1934   14.4810  -37.5685 C   0  0  1  0  0  0  0  0  0  0  0  0
  -11.5529   15.1921  -38.9276 C   0  0  1  0  0  0  0  0  0  0  0  0
  -12.9551   14.5919  -39.3007 C   0  0  0  0  0  0  0  0  0  0  0  0
  -10.4830   15.1151  -40.0065 C   0  0  0  0  0  0  0  0  0  0  0  0
  -13.0487   13.0778  -39.5699 C   0  0  0  0  0  0  0  0  0  0  0  0
  -13.6429   15.2571  -40.5173 C   0  0  0  0  0  0  0  0  0  0  0  0
  -10.5156   13.1912  -37.6586 N   0  0  0  0  0  0  0  0  0  0  0  0
   -9.3417   15.9822  -37.1090 O   0  0  0  0  0  0  0  0  0  0  0  0
  -10.5775   15.1397  -35.3889 O   0  0  0  0  0  0  0  0  0  0  0  0
  -13.2383   16.9155  -36.8505 H   0  0  0  0  0  0  0  0  0  0  0  0
  -14.0626   17.0953  -38.4012 H   0  0  0  0  0  0  0  0  0  0  0  0
  -12.0352   17.2822  -39.5002 H   0  0  0  0  0  0  0  0  0  0  0  0
  -11.1962   17.1925  -37.9748 H   0  0  0  0  0  0  0  0  0  0  0  0
  -12.6473   14.8616  -35.9220 H   0  0  0  0  0  0  0  0  0  0  0  0
  -12.8738   13.3182  -36.7256 H   0  0  0  0  0  0  0  0  0  0  0  0
  -14.5927   14.7537  -37.7669 H   0  0  0  0  0  0  0  0  0  0  0  0
  -10.2381   14.0735  -40.2182 H   0  0  0  0  0  0  0  0  0  0  0  0
   -9.5794   15.6288  -39.6758 H   0  0  0  0  0  0  0  0  0  0  0  0
  -10.8403   15.5861  -40.9232 H   0  0  0  0  0  0  0  0  0  0  0  0
  -12.6186   12.8620  -40.5416 H   0  0  0  0  0  0  0  0  0  0  0  0
  -14.0905   12.7775  -39.5548 H   0  0  0  0  0  0  0  0  0  0  0  0
  -12.5018   12.5451  -38.7999 H   0  0  0  0  0  0  0  0  0  0  0  0
  -13.1676   14.9037  -41.4228 H   0  0  0  0  0  0  0  0  0  0  0  0
  -13.5352   16.3305  -40.4347 H   0  0  0  0  0  0  0  0  0  0  0  0
  -14.6905   14.9865  -40.5165 H   0  0  0  0  0  0  0  0  0  0  0  0
   -9.6240   13.3363  -38.0703 H   0  0  0  0  0  0  0  0  0  0  0  0
  -10.4221   12.8246  -36.7408 H   0  0  0  0  0  0  0  0  0  0  0  0
   -9.9807   15.6560  -34.8062 H   0  0  0  0  0  0  0  0  0  0  0  0
  1  6  1  0  0  0  0
  1 13  2  0  0  0  0
  1 14  1  0  0  0  0
  2  3  1  0  0  0  0
  2  5  1  6  0  0  0
  3  7  1  0  0  0  0
  4  5  1  0  0  0  0
  4  6  1  0  0  0  0
  5  8  1  0  0  0  0
  6  7  1  0  0  0  0
  6 12  1  1  0  0  0
  7  8  1  0  0  0  0
  7  9  1  1  0  0  0
  8 10  1  0  0  0  0
  8 11  1  0  0  0  0
  2 15  1  0  0  0  0
  2 16  1  0  0  0  0
  3 17  1  0  0  0  0
  3 18  1  0  0  0  0
  4 19  1  0  0  0  0
  4 20  1  0  0  0  0
  5 21  1  0  0  0  0
  9 22  1  0  0  0  0
  9 23  1  0  0  0  0
  9 24  1  0  0  0  0
 10 25  1  0  0  0  0
 10 26  1  0  0  0  0
 10 27  1  0  0  0  0
 11 28  1  0  0  0  0
 11 29  1  0  0  0  0
 11 30  1  0  0  0  0
 12 31  1  0  0  0  0
 12 32  1  0  0  0  0
 14 33  1  0  0  0  0
M  END
> <id>
EN300-86644

> <smiles>
Cl.CC1(C)[C@@H]2CC[C@@]1(C)[C@](N)(C2)C(=O)O

> <MDLNUMBER>
MFCD08448699

> <IUPAC Name>
(1R,2R,4R)-2-amino-1,7,7-trimethylbicyclo[2.2.1]heptane-2-carboxylic acid hydrochloride

> <CAS>
1955474-97-1

> <URL>
https://www.enaminestore.com/catalog/EN300-86644

> <Saltdate>
Cl

> <ROCS_ShapeQuery>
_x1247relevant_x1083L0AP1_x1305L0BP1_

> <ROCS_TanimotoCombo>
0.822 

> <ROCS_ShapeTanimoto>
0.496 

> <ROCS_ColorTanimoto>
0.327 

> <ROCS_RefTversky>
0.415 

> <ROCS_RefColorTversky>
0.393 

> <ROCS_RefTverskyCombo>
0.808 

> <ROCS_FitTversky>
1.643 

> <ROCS_FitColorTversky>
0.659 

> <ROCS_FitTverskyCombo>
2.302 

> <ROCS_ColorScore>
-8.408

> <ROCS_Overlap>
1221.198

> <ROCS_Rank>
389                 

$$$$
untitled-dbase-29059_3
  -OEChem-06232314393D

 31 33  0     0  0  0  0  0  0999 V2000
  -14.2261   15.8508  -38.5368 C   0  0  0  0  0  0  0  0  0  0  0  0
  -13.0409   14.5685  -36.7394 C   0  0  0  0  0  0  0  0  0  0  0  0
  -12.1615   16.7995  -37.4800 C   0  0  0  0  0  0  0  0  0  0  0  0
  -12.9753   13.7533  -39.1024 C   0  0  0  0  0  0  0  0  0  0  0  0
  -12.0927   15.9922  -39.8455 C   0  0  0  0  0  0  0  0  0  0  0  0
  -13.4332   15.9739  -37.2243 C   0  0  0  0  0  0  0  0  0  0  0  0
  -13.3653   15.1566  -39.6058 C   0  0  0  0  0  0  0  0  0  0  0  0
  -12.1648   13.8649  -37.7940 C   0  0  0  0  0  0  0  0  0  0  0  0
  -11.2802   16.1088  -38.5387 C   0  0  0  0  0  0  0  0  0  0  0  0
  -10.8954   14.6851  -38.0934 C   0  0  0  0  0  0  0  0  0  0  0  0
   -9.0095   13.1544  -37.0201 N   0  0  0  0  0  0  0  0  0  0  0  0
   -8.7567   15.7142  -37.0005 O   0  0  0  0  0  0  0  0  0  0  0  0
  -10.4860   14.6263  -35.5133 O   0  0  0  0  0  0  0  0  0  0  0  0
   -9.7377   14.6726  -36.7563 S   0  0  0  0  0  0  0  0  0  0  0  0
  -15.1469   15.2794  -38.3672 H   0  0  0  0  0  0  0  0  0  0  0  0
  -14.5289   16.8452  -38.8869 H   0  0  0  0  0  0  0  0  0  0  0  0
  -12.5150   14.6345  -35.7809 H   0  0  0  0  0  0  0  0  0  0  0  0
  -13.9450   13.9747  -36.5545 H   0  0  0  0  0  0  0  0  0  0  0  0
  -12.4352   17.8047  -37.8251 H   0  0  0  0  0  0  0  0  0  0  0  0
  -11.6075   16.9357  -36.5449 H   0  0  0  0  0  0  0  0  0  0  0  0
  -13.8769   13.1516  -38.9347 H   0  0  0  0  0  0  0  0  0  0  0  0
  -12.3847   13.2334  -39.8666 H   0  0  0  0  0  0  0  0  0  0  0  0
  -11.4813   15.5253  -40.6276 H   0  0  0  0  0  0  0  0  0  0  0  0
  -12.3637   16.9913  -40.2090 H   0  0  0  0  0  0  0  0  0  0  0  0
  -14.0506   16.4689  -36.4664 H   0  0  0  0  0  0  0  0  0  0  0  0
  -13.9325   15.0706  -40.5393 H   0  0  0  0  0  0  0  0  0  0  0  0
  -11.8988   12.8625  -37.4395 H   0  0  0  0  0  0  0  0  0  0  0  0
  -10.3816   16.7108  -38.7166 H   0  0  0  0  0  0  0  0  0  0  0  0
  -10.3418   14.1967  -38.9072 H   0  0  0  0  0  0  0  0  0  0  0  0
   -8.0429   13.1410  -37.3681 H   0  0  0  0  0  0  0  0  0  0  0  0
   -9.2207   12.4001  -36.3554 H   0  0  0  0  0  0  0  0  0  0  0  0
  1  6  1  0  0  0  0
  1  7  1  0  0  0  0
  2  6  1  0  0  0  0
  2  8  1  0  0  0  0
  3  6  1  0  0  0  0
  3  9  1  0  0  0  0
  4  7  1  0  0  0  0
  4  8  1  0  0  0  0
  5  7  1  0  0  0  0
  5  9  1  0  0  0  0
  8 10  1  0  0  0  0
  9 10  1  0  0  0  0
 10 14  1  0  0  0  0
 11 14  1  0  0  0  0
 12 14  2  0  0  0  0
 13 14  2  0  0  0  0
  1 15  1  0  0  0  0
  1 16  1  0  0  0  0
  2 17  1  0  0  0  0
  2 18  1  0  0  0  0
  3 19  1  0  0  0  0
  3 20  1  0  0  0  0
  4 21  1  0  0  0  0
  4 22  1  0  0  0  0
  5 23  1  0  0  0  0
  5 24  1  0  0  0  0
  6 25  1  0  0  0  0
  7 26  1  0  0  0  0
  8 27  1  0  0  0  0
  9 28  1  0  0  0  0
 10 29  1  0  0  0  0
 11 30  1  0  0  0  0
 11 31  1  0  0  0  0
M  END
> <id>
EN300-274055

> <smiles>
NS(=O)(=O)C1C2CC3CC(C2)CC1C3

> <IUPAC Name>
adamantane-2-sulfonamide

> <CAS>
1247763-33-2

> <URL>
https://www.enaminestore.com/catalog/EN300-274055

> <ROCS_ShapeQuery>
_x1247relevant_x1083L0AP1_x1305L0BP1_

> <ROCS_TanimotoCombo>
0.822 

> <ROCS_ShapeTanimoto>
0.507 

> <ROCS_ColorTanimoto>
0.315 

> <ROCS_RefTversky>
0.420 

> <ROCS_RefColorTversky>
0.354 

> <ROCS_RefTverskyCombo>
0.773 

> <ROCS_FitTversky>
1.693 

> <ROCS_FitColorTversky>
0.744 

> <ROCS_FitTverskyCombo>
2.437 

> <ROCS_ColorScore>
-7.507

> <ROCS_Overlap>
1234.872

> <ROCS_Rank>
390                 

$$$$
untitled-dbase-18062_48
  -OEChem-06232314393D

 33 34  0     1  0  0  0  0  0999 V2000
  -10.5133   14.8254  -36.4892 C   0  0  0  0  0  0  0  0  0  0  0  0
  -14.0432   15.6875  -37.6932 C   0  0  0  0  0  0  0  0  0  0  0  0
  -13.9433   14.9529  -39.0410 C   0  0  0  0  0  0  0  0  0  0  0  0
  -12.0340   16.3502  -38.7624 C   0  0  0  0  0  0  0  0  0  0  0  0
  -11.8670   14.6571  -37.1010 C   0  0  1  0  0  0  0  0  0  0  0  0
  -12.5674   15.9934  -37.3757 C   0  0  2  0  0  0  0  0  0  0  0  0
  -12.4354   15.0051  -39.3469 C   0  0  1  0  0  0  0  0  0  0  0  0
   -9.0790   12.7235  -37.0512 C   0  0  0  0  0  0  0  0  0  0  0  0
   -8.1022   13.9672  -39.0026 C   0  0  0  0  0  0  0  0  0  0  0  0
   -7.3814   14.5414  -36.6662 C   0  0  0  0  0  0  0  0  0  0  0  0
   -8.5392   14.0658  -37.5427 C   0  0  0  0  0  0  0  0  0  0  0  0
  -11.7154   14.0745  -38.4479 N   0  0  0  0  0  0  0  0  0  0  0  0
  -10.2945   14.7794  -35.2862 O   0  0  0  0  0  0  0  0  0  0  0  0
   -9.5914   15.0332  -37.4720 O   0  0  0  0  0  0  0  0  0  0  0  0
  -14.6184   16.6133  -37.8075 H   0  0  0  0  0  0  0  0  0  0  0  0
  -14.5265   15.0759  -36.9249 H   0  0  0  0  0  0  0  0  0  0  0  0
  -14.3231   13.9275  -38.9817 H   0  0  0  0  0  0  0  0  0  0  0  0
  -14.5172   15.4870  -39.8065 H   0  0  0  0  0  0  0  0  0  0  0  0
  -12.5570   17.1961  -39.2218 H   0  0  0  0  0  0  0  0  0  0  0  0
  -10.9552   16.5380  -38.7864 H   0  0  0  0  0  0  0  0  0  0  0  0
  -12.4521   13.9961  -36.4531 H   0  0  0  0  0  0  0  0  0  0  0  0
  -12.4214   16.7615  -36.6132 H   0  0  0  0  0  0  0  0  0  0  0  0
  -12.1925   14.8532  -40.4006 H   0  0  0  0  0  0  0  0  0  0  0  0
   -9.3938   12.7901  -36.0036 H   0  0  0  0  0  0  0  0  0  0  0  0
   -9.9321   12.3882  -37.6499 H   0  0  0  0  0  0  0  0  0  0  0  0
   -8.3025   11.9511  -37.0921 H   0  0  0  0  0  0  0  0  0  0  0  0
   -7.7141   14.9281  -39.3595 H   0  0  0  0  0  0  0  0  0  0  0  0
   -8.9520   13.7185  -39.6485 H   0  0  0  0  0  0  0  0  0  0  0  0
   -7.3268   13.2070  -39.1418 H   0  0  0  0  0  0  0  0  0  0  0  0
   -6.9941   15.5042  -37.0185 H   0  0  0  0  0  0  0  0  0  0  0  0
   -7.6866   14.6534  -35.6207 H   0  0  0  0  0  0  0  0  0  0  0  0
   -6.5437   13.8361  -36.7107 H   0  0  0  0  0  0  0  0  0  0  0  0
  -10.7309   14.0636  -38.7164 H   0  0  0  0  0  0  0  0  0  0  0  0
  1  5  1  0  0  0  0
  1 13  2  0  0  0  0
  1 14  1  0  0  0  0
  2  3  1  0  0  0  0
  2  6  1  0  0  0  0
  3  7  1  0  0  0  0
  4  6  1  0  0  0  0
  4  7  1  0  0  0  0
  5  6  1  0  0  0  0
  5 12  1  0  0  0  0
  7 12  1  0  0  0  0
  8 11  1  0  0  0  0
  9 11  1  0  0  0  0
 10 11  1  0  0  0  0
 11 14  1  0  0  0  0
  2 15  1  0  0  0  0
  2 16  1  0  0  0  0
  3 17  1  0  0  0  0
  3 18  1  0  0  0  0
  4 19  1  0  0  0  0
  4 20  1  0  0  0  0
  5 21  1  0  0  0  0
  6 22  1  0  0  0  0
  7 23  1  0  0  0  0
  8 24  1  0  0  0  0
  8 25  1  0  0  0  0
  8 26  1  0  0  0  0
  9 27  1  0  0  0  0
  9 28  1  0  0  0  0
  9 29  1  0  0  0  0
 10 30  1  0  0  0  0
 10 31  1  0  0  0  0
 10 32  1  0  0  0  0
 12 33  1  0  0  0  0
M  END
> <id>
EN300-22058885

> <smiles>
CC(C)(C)OC(=O)C1NC2CCC1C2

> <MDLNUMBER>
MFCD30205838

> <IUPAC Name>
tert-butyl 2-azabicyclo[2.2.1]heptane-3-carboxylate

> <CAS>
1934252-73-9

> <URL>
https://www.enaminestore.com/catalog/EN300-22058885

> <ROCS_ShapeQuery>
_x1247relevant_x1083L0AP1_x1305L0BP1_

> <ROCS_TanimotoCombo>
0.822 

> <ROCS_ShapeTanimoto>
0.454 

> <ROCS_ColorTanimoto>
0.368 

> <ROCS_RefTversky>
0.391 

> <ROCS_RefColorTversky>
0.407 

> <ROCS_RefTverskyCombo>
0.799 

> <ROCS_FitTversky>
1.547 

> <ROCS_FitColorTversky>
0.793 

> <ROCS_FitTverskyCombo>
2.340 

> <ROCS_ColorScore>
-8.666

> <ROCS_Overlap>
1151.077

> <ROCS_Rank>
391                 

$$$$
untitled-dbase-8905_25
  -OEChem-06232314393D

 23 24  0     1  0  0  0  0  0999 V2000
  -12.2366   14.9949  -37.8264 C   0  0  0  0  0  0  0  0  0  0  0  0
  -13.8138   14.9236  -39.1632 C   0  0  0  0  0  0  0  0  0  0  0  0
   -9.3798   13.8142  -38.2897 C   0  0  0  0  0  0  0  0  0  0  0  0
   -8.8971   15.2525  -38.1396 C   0  0  0  0  0  0  0  0  0  0  0  0
  -10.2509   15.6178  -36.2100 C   0  0  0  0  0  0  0  0  0  0  0  0
  -11.1875   14.5460  -36.8119 C   0  0  2  0  0  0  0  0  0  0  0  0
  -14.9430   14.6147  -40.0508 C   0  0  0  0  0  0  0  0  0  0  0  0
  -13.1333   14.1270  -38.3784 N   0  0  0  0  0  0  0  0  0  0  0  0
  -12.3343   16.2653  -38.2292 N   0  0  0  0  0  0  0  0  0  0  0  0
  -10.3693   13.4285  -37.2902 N   0  0  0  0  0  0  0  0  0  0  0  0
  -13.4019   16.2182  -39.1346 O   0  0  0  0  0  0  0  0  0  0  0  0
   -8.9373   15.6573  -36.7790 O   0  0  0  0  0  0  0  0  0  0  0  0
   -9.8059   13.6655  -39.3013 H   0  0  0  0  0  0  0  0  0  0  0  0
   -8.5175   13.1200  -38.2239 H   0  0  0  0  0  0  0  0  0  0  0  0
   -7.8581   15.3313  -38.4834 H   0  0  0  0  0  0  0  0  0  0  0  0
   -9.4946   15.9451  -38.7502 H   0  0  0  0  0  0  0  0  0  0  0  0
  -10.7014   16.6379  -36.2772 H   0  0  0  0  0  0  0  0  0  0  0  0
  -10.1279   15.4376  -35.1182 H   0  0  0  0  0  0  0  0  0  0  0  0
  -11.7896   14.1141  -35.9213 H   0  0  0  0  0  0  0  0  0  0  0  0
  -15.9100   14.7249  -39.5279 H   0  0  0  0  0  0  0  0  0  0  0  0
  -14.9722   15.2728  -40.9391 H   0  0  0  0  0  0  0  0  0  0  0  0
  -14.8978   13.5823  -40.4453 H   0  0  0  0  0  0  0  0  0  0  0  0
  -10.9899   12.7163  -37.7129 H   0  0  0  0  0  0  0  0  0  0  0  0
  1  6  1  0  0  0  0
  1  8  1  0  0  0  0
  1  9  2  0  0  0  0
  2  7  1  0  0  0  0
  2  8  2  0  0  0  0
  2 11  1  0  0  0  0
  3  4  1  0  0  0  0
  3 10  1  0  0  0  0
  4 12  1  0  0  0  0
  5  6  1  0  0  0  0
  5 12  1  0  0  0  0
  6 10  1  0  0  0  0
  9 11  1  0  0  0  0
  3 13  1  0  0  0  0
  3 14  1  0  0  0  0
  4 15  1  0  0  0  0
  4 16  1  0  0  0  0
  5 17  1  0  0  0  0
  5 18  1  0  0  0  0
  6 19  1  0  0  0  0
  7 20  1  0  0  0  0
  7 21  1  0  0  0  0
  7 22  1  0  0  0  0
 10 23  1  0  0  0  0
M  END
> <id>
EN300-133343

> <smiles>
Cl.CC1=NC(=NO1)C2COCCN2

> <MDLNUMBER>
MFCD25371846

> <IUPAC Name>
3-(5-methyl-1,2,4-oxadiazol-3-yl)morpholine hydrochloride

> <CAS>
1461707-05-0

> <Purity>
95

> <URL>
https://www.enaminestore.com/catalog/EN300-133343

> <Saltdate>
Cl

> <MP>
183-184

> <ROCS_ShapeQuery>
_x1247relevant_x1083L0AP1_x1305L0BP1_

> <ROCS_TanimotoCombo>
0.822 

> <ROCS_ShapeTanimoto>
0.458 

> <ROCS_ColorTanimoto>
0.364 

> <ROCS_RefTversky>
0.385 

> <ROCS_RefColorTversky>
0.365 

> <ROCS_RefTverskyCombo>
0.750 

> <ROCS_FitTversky>
1.707 

> <ROCS_FitColorTversky>
1.000 

> <ROCS_FitTverskyCombo>
2.707 

> <ROCS_ColorScore>
-7.705

> <ROCS_Overlap>
1130.755

> <ROCS_Rank>
392                 

$$$$
untitled-dbase-10078_25
  -OEChem-06232314393D

 23 24  0     1  0  0  0  0  0999 V2000
  -12.2366   14.9949  -37.8264 C   0  0  0  0  0  0  0  0  0  0  0  0
  -13.8138   14.9236  -39.1632 C   0  0  0  0  0  0  0  0  0  0  0  0
   -9.3798   13.8142  -38.2897 C   0  0  0  0  0  0  0  0  0  0  0  0
   -8.8971   15.2525  -38.1396 C   0  0  0  0  0  0  0  0  0  0  0  0
  -10.2509   15.6178  -36.2100 C   0  0  0  0  0  0  0  0  0  0  0  0
  -11.1875   14.5460  -36.8119 C   0  0  2  0  0  0  0  0  0  0  0  0
  -14.9430   14.6147  -40.0508 C   0  0  0  0  0  0  0  0  0  0  0  0
  -13.1333   14.1270  -38.3784 N   0  0  0  0  0  0  0  0  0  0  0  0
  -12.3343   16.2653  -38.2292 N   0  0  0  0  0  0  0  0  0  0  0  0
  -10.3693   13.4285  -37.2902 N   0  0  0  0  0  0  0  0  0  0  0  0
  -13.4019   16.2182  -39.1346 O   0  0  0  0  0  0  0  0  0  0  0  0
   -8.9373   15.6573  -36.7790 O   0  0  0  0  0  0  0  0  0  0  0  0
   -9.8059   13.6655  -39.3013 H   0  0  0  0  0  0  0  0  0  0  0  0
   -8.5175   13.1200  -38.2239 H   0  0  0  0  0  0  0  0  0  0  0  0
   -7.8581   15.3313  -38.4834 H   0  0  0  0  0  0  0  0  0  0  0  0
   -9.4946   15.9451  -38.7502 H   0  0  0  0  0  0  0  0  0  0  0  0
  -10.7014   16.6379  -36.2772 H   0  0  0  0  0  0  0  0  0  0  0  0
  -10.1279   15.4376  -35.1182 H   0  0  0  0  0  0  0  0  0  0  0  0
  -11.7896   14.1141  -35.9213 H   0  0  0  0  0  0  0  0  0  0  0  0
  -15.9100   14.7249  -39.5279 H   0  0  0  0  0  0  0  0  0  0  0  0
  -14.9722   15.2728  -40.9391 H   0  0  0  0  0  0  0  0  0  0  0  0
  -14.8978   13.5823  -40.4453 H   0  0  0  0  0  0  0  0  0  0  0  0
  -10.9899   12.7163  -37.7129 H   0  0  0  0  0  0  0  0  0  0  0  0
  1  6  1  0  0  0  0
  1  8  1  0  0  0  0
  1  9  2  0  0  0  0
  2  7  1  0  0  0  0
  2  8  2  0  0  0  0
  2 11  1  0  0  0  0
  3  4  1  0  0  0  0
  3 10  1  0  0  0  0
  4 12  1  0  0  0  0
  5  6  1  0  0  0  0
  5 12  1  0  0  0  0
  6 10  1  0  0  0  0
  9 11  1  0  0  0  0
  3 13  1  0  0  0  0
  3 14  1  0  0  0  0
  4 15  1  0  0  0  0
  4 16  1  0  0  0  0
  5 17  1  0  0  0  0
  5 18  1  0  0  0  0
  6 19  1  0  0  0  0
  7 20  1  0  0  0  0
  7 21  1  0  0  0  0
  7 22  1  0  0  0  0
 10 23  1  0  0  0  0
M  END
> <id>
EN300-129993

> <smiles>
CC1=NC(=NO1)C2COCCN2

> <MDLNUMBER>
MFCD26802661

> <IUPAC Name>
3-(5-methyl-1,2,4-oxadiazol-3-yl)morpholine

> <CAS>
1461868-97-2

> <URL>
https://www.enaminestore.com/catalog/EN300-129993

> <ROCS_ShapeQuery>
_x1247relevant_x1083L0AP1_x1305L0BP1_

> <ROCS_TanimotoCombo>
0.822 

> <ROCS_ShapeTanimoto>
0.458 

> <ROCS_ColorTanimoto>
0.364 

> <ROCS_RefTversky>
0.385 

> <ROCS_RefColorTversky>
0.365 

> <ROCS_RefTverskyCombo>
0.750 

> <ROCS_FitTversky>
1.707 

> <ROCS_FitColorTversky>
1.000 

> <ROCS_FitTverskyCombo>
2.707 

> <ROCS_ColorScore>
-7.705

> <ROCS_Overlap>
1130.755

> <ROCS_Rank>
393                 

$$$$
untitled-dbase-50494_0
  -OEChem-06232314393D

 36 38  0     1  0  0  0  0  0999 V2000
   -8.2333   17.7761  -36.1607 C   0  0  0  0  0  0  0  0  0  0  0  0
   -9.6843   17.8876  -35.7041 C   0  0  0  0  0  0  0  0  0  0  0  0
   -7.7745   16.3229  -36.2259 C   0  0  0  0  0  0  0  0  0  0  0  0
  -13.4131   14.7507  -39.4602 C   0  0  0  0  0  0  0  0  0  0  0  0
  -13.5289   14.1474  -38.0608 C   0  0  0  0  0  0  0  0  0  0  0  0
  -10.6169   17.0468  -36.5779 C   0  0  0  0  0  0  0  0  0  0  0  0
   -8.7004   15.4789  -37.1032 C   0  0  0  0  0  0  0  0  0  0  0  0
  -11.0219   15.4090  -39.0378 C   0  0  0  0  0  0  0  0  0  0  0  0
  -12.4548   15.9166  -39.2253 C   0  0  2  0  0  0  0  0  0  0  0  0
  -12.5611   15.0155  -37.2533 C   0  0  1  0  0  0  0  0  0  0  0  0
  -11.0753   14.8002  -37.6192 C   0  0  2  0  0  0  0  0  0  0  0  0
  -10.1701   15.5792  -36.6633 C   0  0  0  0  0  0  0  0  0  0  0  0
  -10.6471   13.4063  -37.5987 N   0  0  0  0  0  0  0  0  0  0  0  0
  -12.8059   16.3048  -37.8773 O   0  0  0  0  0  0  0  0  0  0  0  0
  -10.3080   14.9997  -35.3625 O   0  0  0  0  0  0  0  0  0  0  0  0
   -8.1261   18.2371  -37.1503 H   0  0  0  0  0  0  0  0  0  0  0  0
   -7.5868   18.3364  -35.4758 H   0  0  0  0  0  0  0  0  0  0  0  0
   -9.7652   17.5645  -34.6591 H   0  0  0  0  0  0  0  0  0  0  0  0
   -9.9996   18.9368  -35.7361 H   0  0  0  0  0  0  0  0  0  0  0  0
   -6.7535   16.2773  -36.6216 H   0  0  0  0  0  0  0  0  0  0  0  0
   -7.7402   15.9033  -35.2132 H   0  0  0  0  0  0  0  0  0  0  0  0
  -13.0457   14.0394  -40.2057 H   0  0  0  0  0  0  0  0  0  0  0  0
  -14.3945   15.1141  -39.7846 H   0  0  0  0  0  0  0  0  0  0  0  0
  -14.5528   14.2889  -37.6943 H   0  0  0  0  0  0  0  0  0  0  0  0
  -13.3104   13.0774  -38.0287 H   0  0  0  0  0  0  0  0  0  0  0  0
  -11.6292   17.1091  -36.1578 H   0  0  0  0  0  0  0  0  0  0  0  0
  -10.6549   17.4861  -37.5835 H   0  0  0  0  0  0  0  0  0  0  0  0
   -8.5995   15.8059  -38.1467 H   0  0  0  0  0  0  0  0  0  0  0  0
   -8.3614   14.4360  -37.0568 H   0  0  0  0  0  0  0  0  0  0  0  0
  -10.7386   14.6984  -39.8222 H   0  0  0  0  0  0  0  0  0  0  0  0
  -10.3150   16.2459  -39.0805 H   0  0  0  0  0  0  0  0  0  0  0  0
  -12.5548   16.7381  -39.9380 H   0  0  0  0  0  0  0  0  0  0  0  0
  -12.7755   15.0359  -36.1813 H   0  0  0  0  0  0  0  0  0  0  0  0
  -11.2503   12.8851  -38.1911 H   0  0  0  0  0  0  0  0  0  0  0  0
   -9.7111   13.3625  -37.9276 H   0  0  0  0  0  0  0  0  0  0  0  0
  -10.0211   14.0780  -35.4430 H   0  0  0  0  0  0  0  0  0  0  0  0
  1  2  1  0  0  0  0
  1  3  1  0  0  0  0
  2  6  1  0  0  0  0
  3  7  1  0  0  0  0
  4  5  1  0  0  0  0
  4  9  1  0  0  0  0
  5 10  1  0  0  0  0
  6 12  1  0  0  0  0
  7 12  1  0  0  0  0
  8  9  1  0  0  0  0
  8 11  1  0  0  0  0
  9 14  1  0  0  0  0
 10 11  1  0  0  0  0
 10 14  1  0  0  0  0
 11 12  1  0  0  0  0
 11 13  1  0  0  0  0
 12 15  1  0  0  0  0
  1 16  1  0  0  0  0
  1 17  1  0  0  0  0
  2 18  1  0  0  0  0
  2 19  1  0  0  0  0
  3 20  1  0  0  0  0
  3 21  1  0  0  0  0
  4 22  1  0  0  0  0
  4 23  1  0  0  0  0
  5 24  1  0  0  0  0
  5 25  1  0  0  0  0
  6 26  1  0  0  0  0
  6 27  1  0  0  0  0
  7 28  1  0  0  0  0
  7 29  1  0  0  0  0
  8 30  1  0  0  0  0
  8 31  1  0  0  0  0
  9 32  1  0  0  0  0
 10 33  1  0  0  0  0
 13 34  1  0  0  0  0
 13 35  1  0  0  0  0
 15 36  1  0  0  0  0
M  END
> <id>
EN300-1647221

> <smiles>
NC1(CC2CCC1O2)C3(O)CCCCC3

> <IUPAC Name>
1-{2-amino-7-oxabicyclo[2.2.1]heptan-2-yl}cyclohexan-1-ol

> <CAS>
2171783-20-1

> <URL>
https://www.enaminestore.com/catalog/EN300-1647221

> <ROCS_ShapeQuery>
_x1247relevant_x1083L0AP1_x1305L0BP1_

> <ROCS_TanimotoCombo>
0.822 

> <ROCS_ShapeTanimoto>
0.453 

> <ROCS_ColorTanimoto>
0.370 

> <ROCS_RefTversky>
0.396 

> <ROCS_RefColorTversky>
0.431 

> <ROCS_RefTverskyCombo>
0.827 

> <ROCS_FitTversky>
1.463 

> <ROCS_FitColorTversky>
0.720 

> <ROCS_FitTverskyCombo>
2.184 

> <ROCS_ColorScore>
-9.222

> <ROCS_Overlap>
1165.606

> <ROCS_Rank>
394                 

$$$$
untitled-dbase-165564_5
  -OEChem-06232314393D

 30 32  0     1  0  0  0  0  0999 V2000
   -9.2235   13.8562  -36.8786 C   0  0  0  0  0  0  0  0  0  0  0  0
   -9.1238   15.3754  -36.7340 C   0  0  0  0  0  0  0  0  0  0  0  0
  -13.3960   16.4000  -39.0555 C   0  0  0  0  0  0  0  0  0  0  0  0
  -13.5451   16.2103  -37.5468 C   0  0  0  0  0  0  0  0  0  0  0  0
  -10.7011   13.5391  -37.1128 C   0  0  0  0  0  0  0  0  0  0  0  0
  -11.2135   15.1637  -38.9911 C   0  0  0  0  0  0  0  0  0  0  0  0
  -10.5660   15.8801  -36.5943 C   0  0  1  0  0  0  0  0  0  0  0  0
  -12.6704   15.1215  -39.4619 C   0  0  1  0  0  0  0  0  0  0  0  0
  -12.8840   14.8485  -37.3204 C   0  0  2  0  0  0  0  0  0  0  0  0
  -11.3550   14.8893  -37.4694 C   0  0  2  0  0  0  0  0  0  0  0  0
  -10.9892   15.8944  -35.1216 C   0  0  0  0  0  0  0  0  0  0  0  0
  -13.2525   14.1659  -38.5471 O   0  0  0  0  0  0  0  0  0  0  0  0
  -10.3775   14.4488  -34.3027 Cl  0  0  0  0  0  0  0  0  0  0  0  0
   -8.6084   13.5136  -37.7179 H   0  0  0  0  0  0  0  0  0  0  0  0
   -8.8613   13.3479  -35.9785 H   0  0  0  0  0  0  0  0  0  0  0  0
   -8.4841   15.6638  -35.8935 H   0  0  0  0  0  0  0  0  0  0  0  0
   -8.6706   15.7946  -37.6410 H   0  0  0  0  0  0  0  0  0  0  0  0
  -14.3882   16.4457  -39.5184 H   0  0  0  0  0  0  0  0  0  0  0  0
  -12.8488   17.3089  -39.3218 H   0  0  0  0  0  0  0  0  0  0  0  0
  -13.1000   17.0241  -36.9699 H   0  0  0  0  0  0  0  0  0  0  0  0
  -14.6104   16.1607  -37.2935 H   0  0  0  0  0  0  0  0  0  0  0  0
  -10.8304   12.7732  -37.8850 H   0  0  0  0  0  0  0  0  0  0  0  0
  -11.1339   13.1321  -36.1906 H   0  0  0  0  0  0  0  0  0  0  0  0
  -10.6399   14.3751  -39.4909 H   0  0  0  0  0  0  0  0  0  0  0  0
  -10.7412   16.1225  -39.2287 H   0  0  0  0  0  0  0  0  0  0  0  0
  -10.6405   16.9045  -36.9778 H   0  0  0  0  0  0  0  0  0  0  0  0
  -12.8025   14.8369  -40.5080 H   0  0  0  0  0  0  0  0  0  0  0  0
  -13.2515   14.3149  -36.4401 H   0  0  0  0  0  0  0  0  0  0  0  0
  -12.0740   15.9040  -35.0483 H   0  0  0  0  0  0  0  0  0  0  0  0
  -10.5822   16.7735  -34.6280 H   0  0  0  0  0  0  0  0  0  0  0  0
  1  2  1  0  0  0  0
  1  5  1  0  0  0  0
  2  7  1  0  0  0  0
  3  4  1  0  0  0  0
  3  8  1  0  0  0  0
  4  9  1  0  0  0  0
  5 10  1  0  0  0  0
  6  8  1  0  0  0  0
  6 10  1  0  0  0  0
  7 10  1  0  0  0  0
  7 11  1  0  0  0  0
  8 12  1  0  0  0  0
  9 10  1  0  0  0  0
  9 12  1  0  0  0  0
 11 13  1  0  0  0  0
  1 14  1  0  0  0  0
  1 15  1  0  0  0  0
  2 16  1  0  0  0  0
  2 17  1  0  0  0  0
  3 18  1  0  0  0  0
  3 19  1  0  0  0  0
  4 20  1  0  0  0  0
  4 21  1  0  0  0  0
  5 22  1  0  0  0  0
  5 23  1  0  0  0  0
  6 24  1  0  0  0  0
  6 25  1  0  0  0  0
  7 26  1  0  0  0  0
  8 27  1  0  0  0  0
  9 28  1  0  0  0  0
 11 29  1  0  0  0  0
 11 30  1  0  0  0  0
M  END
> <id>
EN300-1461781

> <smiles>
ClCC1CCCC21CC3CCC2O3

> <IUPAC Name>
5'-(chloromethyl)-7-oxaspiro[bicyclo[2.2.1]heptane-2,1'-cyclopentane]

> <CAS>
2167974-54-9

> <URL>
https://www.enaminestore.com/catalog/EN300-1461781

> <ROCS_ShapeQuery>
_x1247relevant_x1083L0AP1_x1305L0BP1_

> <ROCS_TanimotoCombo>
0.822 

> <ROCS_ShapeTanimoto>
0.473 

> <ROCS_ColorTanimoto>
0.349 

> <ROCS_RefTversky>
0.397 

> <ROCS_RefColorTversky>
0.369 

> <ROCS_RefTverskyCombo>
0.766 

> <ROCS_FitTversky>
1.674 

> <ROCS_FitColorTversky>
0.866 

> <ROCS_FitTverskyCombo>
2.540 

> <ROCS_ColorScore>
-7.813

> <ROCS_Overlap>
1167.664

> <ROCS_Rank>
395                 

$$$$
untitled-dbase-45814_2
  -OEChem-06232314393D

 24 25  0     1  0  0  0  0  0999 V2000
  -10.1828   15.4925  -36.9444 C   0  0  0  0  0  0  0  0  0  0  0  0
  -13.0244   16.3999  -39.3558 C   0  0  0  0  0  0  0  0  0  0  0  0
  -13.5359   14.9589  -39.5202 C   0  0  0  0  0  0  0  0  0  0  0  0
  -13.2783   15.4449  -37.2006 C   0  0  0  0  0  0  0  0  0  0  0  0
  -11.0908   15.4466  -38.1296 C   0  0  2  0  0  0  0  0  0  0  0  0
  -12.3253   16.3446  -37.9848 C   0  0  1  0  0  0  0  0  0  0  0  0
  -13.1325   14.2994  -38.1898 C   0  0  2  0  0  0  0  0  0  0  0  0
  -10.1402   15.2183  -34.5977 C   0  0  0  0  0  0  0  0  0  0  0  0
  -11.6650   14.0830  -38.1959 N   0  0  0  0  0  0  0  0  0  0  0  0
   -8.9877   15.7478  -37.0063 O   0  0  0  0  0  0  0  0  0  0  0  0
  -10.8924   15.2091  -35.8152 O   0  0  0  0  0  0  0  0  0  0  0  0
  -12.3491   16.6932  -40.1657 H   0  0  0  0  0  0  0  0  0  0  0  0
  -13.8658   17.1019  -39.3376 H   0  0  0  0  0  0  0  0  0  0  0  0
  -14.6251   14.9583  -39.6416 H   0  0  0  0  0  0  0  0  0  0  0  0
  -13.0988   14.4615  -40.3925 H   0  0  0  0  0  0  0  0  0  0  0  0
  -12.9290   15.1994  -36.1922 H   0  0  0  0  0  0  0  0  0  0  0  0
  -14.2977   15.8420  -37.1430 H   0  0  0  0  0  0  0  0  0  0  0  0
  -10.5020   15.6762  -39.0241 H   0  0  0  0  0  0  0  0  0  0  0  0
  -12.1379   17.3220  -37.5351 H   0  0  0  0  0  0  0  0  0  0  0  0
  -13.6927   13.3934  -37.9514 H   0  0  0  0  0  0  0  0  0  0  0  0
  -10.7995   14.9804  -33.7594 H   0  0  0  0  0  0  0  0  0  0  0  0
   -9.6908   16.2040  -34.4534 H   0  0  0  0  0  0  0  0  0  0  0  0
   -9.3505   14.4659  -34.6621 H   0  0  0  0  0  0  0  0  0  0  0  0
  -11.3822   13.6290  -39.0636 H   0  0  0  0  0  0  0  0  0  0  0  0
  1  5  1  6  0  0  0
  1 10  2  0  0  0  0
  1 11  1  0  0  0  0
  2  3  1  0  0  0  0
  2  6  1  1  0  0  0
  3  7  1  1  0  0  0
  4  6  1  0  0  0  0
  4  7  1  0  0  0  0
  5  6  1  0  0  0  0
  5  9  1  0  0  0  0
  7  9  1  0  0  0  0
  8 11  1  0  0  0  0
  2 12  1  0  0  0  0
  2 13  1  0  0  0  0
  3 14  1  0  0  0  0
  3 15  1  0  0  0  0
  4 16  1  0  0  0  0
  4 17  1  0  0  0  0
  5 18  1  0  0  0  0
  6 19  1  0  0  0  0
  7 20  1  0  0  0  0
  8 21  1  0  0  0  0
  8 22  1  0  0  0  0
  8 23  1  0  0  0  0
  9 24  1  0  0  0  0
M  END
> <id>
EN300-1069295

> <smiles>
COC(=O)[C@H]1N[C@@H]2CC[C@H]1C2

> <MDLNUMBER>
MFCD11108747

> <IUPAC Name>
methyl (1R,3S,4S)-2-azabicyclo[2.2.1]heptane-3-carboxylate

> <CAS>
220093-41-4

> <URL>
https://www.enaminestore.com/catalog/EN300-1069295

> <ROCS_ShapeQuery>
_x1247relevant_x1083L0AP1_x1305L0BP1_

> <ROCS_TanimotoCombo>
0.822 

> <ROCS_ShapeTanimoto>
0.432 

> <ROCS_ColorTanimoto>
0.390 

> <ROCS_RefTversky>
0.365 

> <ROCS_RefColorTversky>
0.413 

> <ROCS_RefTverskyCombo>
0.778 

> <ROCS_FitTversky>
1.731 

> <ROCS_FitColorTversky>
0.877 

> <ROCS_FitTverskyCombo>
2.608 

> <ROCS_ColorScore>
-8.761

> <ROCS_Overlap>
1071.607

> <ROCS_Rank>
396                 

$$$$
untitled-dbase-150820_120
  -OEChem-06232314393D

 40 41  0     1  0  0  0  0  0999 V2000
   -9.3202   14.3638  -36.7438 C   0  0  0  0  0  0  0  0  0  0  0  0
  -13.3671   15.8602  -37.0341 C   0  0  0  0  0  0  0  0  0  0  0  0
  -13.3848   14.3373  -37.2274 C   0  0  0  0  0  0  0  0  0  0  0  0
  -11.1590   16.0022  -38.1874 C   0  0  0  0  0  0  0  0  0  0  0  0
  -13.2901   14.6289  -39.7046 C   0  0  0  0  0  0  0  0  0  0  0  0
  -12.6077   16.5322  -38.1903 C   0  0  1  0  0  0  0  0  0  0  0  0
  -12.6036   13.9513  -38.4991 C   0  0  1  0  0  0  0  0  0  0  0  0
  -11.1489   14.4782  -38.4301 C   0  0  2  0  0  0  0  0  0  0  0  0
  -13.3012   16.1542  -39.5141 C   0  0  1  0  0  0  0  0  0  0  0  0
   -9.2807   14.8088  -33.9242 C   0  0  0  0  0  0  0  0  0  0  0  0
   -7.7019   12.8577  -33.8254 C   0  0  0  0  0  0  0  0  0  0  0  0
   -7.0540   14.9279  -35.0912 C   0  0  0  0  0  0  0  0  0  0  0  0
   -8.2103   14.0193  -34.6764 C   0  0  0  0  0  0  0  0  0  0  0  0
  -10.3781   13.7924  -37.4206 N   0  0  0  0  0  0  0  0  0  0  0  0
   -8.9008   15.5053  -36.9041 O   0  0  0  0  0  0  0  0  0  0  0  0
  -12.6414   16.7686  -40.6162 O   0  0  0  0  0  0  0  0  0  0  0  0
   -8.7997   13.4635  -35.8572 O   0  0  0  0  0  0  0  0  0  0  0  0
  -14.3946   16.2394  -36.9837 H   0  0  0  0  0  0  0  0  0  0  0  0
  -12.8950   16.1072  -36.0758 H   0  0  0  0  0  0  0  0  0  0  0  0
  -12.9529   13.8467  -36.3473 H   0  0  0  0  0  0  0  0  0  0  0  0
  -14.4211   13.9856  -37.3003 H   0  0  0  0  0  0  0  0  0  0  0  0
  -10.5675   16.5005  -38.9651 H   0  0  0  0  0  0  0  0  0  0  0  0
  -10.6814   16.2569  -37.2324 H   0  0  0  0  0  0  0  0  0  0  0  0
  -12.7851   14.3471  -40.6366 H   0  0  0  0  0  0  0  0  0  0  0  0
  -14.3221   14.2648  -39.7836 H   0  0  0  0  0  0  0  0  0  0  0  0
  -12.5929   17.6203  -38.0618 H   0  0  0  0  0  0  0  0  0  0  0  0
  -12.6154   12.8639  -38.6365 H   0  0  0  0  0  0  0  0  0  0  0  0
  -10.6398   14.2678  -39.3783 H   0  0  0  0  0  0  0  0  0  0  0  0
  -14.3366   16.5149  -39.5171 H   0  0  0  0  0  0  0  0  0  0  0  0
   -9.6483   15.6435  -34.5317 H   0  0  0  0  0  0  0  0  0  0  0  0
  -10.1317   14.1760  -33.6516 H   0  0  0  0  0  0  0  0  0  0  0  0
   -8.8702   15.2500  -33.0087 H   0  0  0  0  0  0  0  0  0  0  0  0
   -6.9337   12.2885  -34.3612 H   0  0  0  0  0  0  0  0  0  0  0  0
   -8.5111   12.1521  -33.6046 H   0  0  0  0  0  0  0  0  0  0  0  0
   -7.2777   13.2061  -32.8781 H   0  0  0  0  0  0  0  0  0  0  0  0
   -6.2861   14.3619  -35.6308 H   0  0  0  0  0  0  0  0  0  0  0  0
   -7.3947   15.7467  -35.7332 H   0  0  0  0  0  0  0  0  0  0  0  0
   -6.5608   15.3572  -34.2116 H   0  0  0  0  0  0  0  0  0  0  0  0
  -10.6290   12.8340  -37.1955 H   0  0  0  0  0  0  0  0  0  0  0  0
  -12.6699   17.7254  -40.4585 H   0  0  0  0  0  0  0  0  0  0  0  0
  1 14  1  0  0  0  0
  1 15  2  0  0  0  0
  1 17  1  0  0  0  0
  2  3  1  0  0  0  0
  2  6  1  0  0  0  0
  3  7  1  0  0  0  0
  4  6  1  0  0  0  0
  4  8  1  0  0  0  0
  5  7  1  0  0  0  0
  5  9  1  0  0  0  0
  6  9  1  0  0  0  0
  7  8  1  0  0  0  0
  8 14  1  0  0  0  0
  9 16  1  0  0  0  0
 10 13  1  0  0  0  0
 11 13  1  0  0  0  0
 12 13  1  0  0  0  0
 13 17  1  0  0  0  0
  2 18  1  0  0  0  0
  2 19  1  0  0  0  0
  3 20  1  0  0  0  0
  3 21  1  0  0  0  0
  4 22  1  0  0  0  0
  4 23  1  0  0  0  0
  5 24  1  0  0  0  0
  5 25  1  0  0  0  0
  6 26  1  0  0  0  0
  7 27  1  0  0  0  0
  8 28  1  0  0  0  0
  9 29  1  0  0  0  0
 10 30  1  0  0  0  0
 10 31  1  0  0  0  0
 10 32  1  0  0  0  0
 11 33  1  0  0  0  0
 11 34  1  0  0  0  0
 11 35  1  0  0  0  0
 12 36  1  0  0  0  0
 12 37  1  0  0  0  0
 12 38  1  0  0  0  0
 14 39  1  0  0  0  0
 16 40  1  0  0  0  0
M  END
> <id>
EN300-28233679

> <smiles>
CC(C)(C)OC(=O)NC1CC2CCC1CC2O

> <IUPAC Name>
tert-butyl N-{5-hydroxybicyclo[2.2.2]octan-2-yl}carbamate

> <CAS>
2680754-49-6

> <URL>
https://www.enaminestore.com/catalog/EN300-28233679

> <ROCS_ShapeQuery>
_x1247relevant_x1083L0AP1_x1305L0BP1_

> <ROCS_TanimotoCombo>
0.822 

> <ROCS_ShapeTanimoto>
0.462 

> <ROCS_ColorTanimoto>
0.360 

> <ROCS_RefTversky>
0.408 

> <ROCS_RefColorTversky>
0.408 

> <ROCS_RefTverskyCombo>
0.815 

> <ROCS_FitTversky>
1.404 

> <ROCS_FitColorTversky>
0.754 

> <ROCS_FitTverskyCombo>
2.158 

> <ROCS_ColorScore>
-8.687

> <ROCS_Overlap>
1202.010

> <ROCS_Rank>
397                 

$$$$
untitled-dbase-66350_5
  -OEChem-06232314393D

 25 26  0     1  0  0  0  0  0999 V2000
  -13.7367   15.2497  -39.1081 C   0  0  0  0  0  0  0  0  0  0  0  0
   -9.9714   14.9487  -36.8642 C   0  0  0  0  0  0  0  0  0  0  0  0
  -10.8543   15.7087  -39.0861 C   0  0  0  0  0  0  0  0  0  0  0  0
  -11.9051   16.8438  -38.9861 C   0  0  0  0  0  0  0  0  0  0  0  0
  -12.9088   15.8304  -37.0205 C   0  0  0  0  0  0  0  0  0  0  0  0
  -10.9444   14.6286  -37.9651 C   0  0  2  0  0  0  0  0  0  0  0  0
  -12.3677   14.4520  -37.3664 C   0  0  2  0  0  0  0  0  0  0  0  0
  -13.7743   12.7333  -38.6921 C   0  0  0  0  0  0  0  0  0  0  0  0
  -13.1176   16.3342  -38.3649 N   0  0  0  0  0  0  0  0  0  0  0  0
  -13.3233   14.0770  -38.4119 N   0  0  0  0  0  0  0  0  0  0  0  0
  -14.3522   15.3295  -40.1607 O   0  0  0  0  0  0  0  0  0  0  0  0
   -8.9384   15.5864  -37.0039 O   0  0  0  0  0  0  0  0  0  0  0  0
  -10.3942   14.4293  -35.6857 O   0  0  0  0  0  0  0  0  0  0  0  0
  -11.0183   15.1955  -40.0438 H   0  0  0  0  0  0  0  0  0  0  0  0
   -9.8513   16.1464  -39.1487 H   0  0  0  0  0  0  0  0  0  0  0  0
  -11.5270   17.6707  -38.3754 H   0  0  0  0  0  0  0  0  0  0  0  0
  -12.1430   17.2276  -39.9840 H   0  0  0  0  0  0  0  0  0  0  0  0
  -13.8780   15.7656  -36.5111 H   0  0  0  0  0  0  0  0  0  0  0  0
  -12.2389   16.4744  -36.4434 H   0  0  0  0  0  0  0  0  0  0  0  0
  -10.6016   13.6709  -38.3770 H   0  0  0  0  0  0  0  0  0  0  0  0
  -12.4129   13.7548  -36.5245 H   0  0  0  0  0  0  0  0  0  0  0  0
  -13.1074   12.2693  -39.4337 H   0  0  0  0  0  0  0  0  0  0  0  0
  -13.7602   12.1411  -37.7652 H   0  0  0  0  0  0  0  0  0  0  0  0
  -14.7991   12.7663  -39.0906 H   0  0  0  0  0  0  0  0  0  0  0  0
   -9.7711   14.6260  -34.9540 H   0  0  0  0  0  0  0  0  0  0  0  0
  1  9  1  0  0  0  0
  1 10  1  0  0  0  0
  1 11  2  0  0  0  0
  2  6  1  0  0  0  0
  2 12  2  0  0  0  0
  2 13  1  0  0  0  0
  3  4  1  0  0  0  0
  3  6  1  0  0  0  0
  4  9  1  0  0  0  0
  5  7  1  0  0  0  0
  5  9  1  0  0  0  0
  6  7  1  0  0  0  0
  7 10  1  0  0  0  0
  8 10  1  0  0  0  0
  3 14  1  0  0  0  0
  3 15  1  0  0  0  0
  4 16  1  0  0  0  0
  4 17  1  0  0  0  0
  5 18  1  0  0  0  0
  5 19  1  0  0  0  0
  6 20  1  0  0  0  0
  7 21  1  0  0  0  0
  8 22  1  0  0  0  0
  8 23  1  0  0  0  0
  8 24  1  0  0  0  0
 13 25  1  0  0  0  0
M  END
> <id>
EN300-37273029

> <smiles>
Cl.CN1C2CN(CCC2C(=O)O)C1=O

> <IUPAC Name>
6-methyl-7-oxo-1,6-diazabicyclo[3.2.1]octane-4-carboxylic acid hydrochloride

> <CAS>
2751704-52-4

> <URL>
https://www.enaminestore.com/catalog/EN300-37273029

> <Saltdate>
Cl

> <ROCS_ShapeQuery>
_x1247relevant_x1083L0AP1_x1305L0BP1_

> <ROCS_TanimotoCombo>
0.822 

> <ROCS_ShapeTanimoto>
0.502 

> <ROCS_ColorTanimoto>
0.320 

> <ROCS_RefTversky>
0.415 

> <ROCS_RefColorTversky>
0.362 

> <ROCS_RefTverskyCombo>
0.777 

> <ROCS_FitTversky>
1.718 

> <ROCS_FitColorTversky>
0.732 

> <ROCS_FitTverskyCombo>
2.450 

> <ROCS_ColorScore>
-7.701

> <ROCS_Overlap>
1219.723

> <ROCS_Rank>
398                 

$$$$
untitled-dbase-7530_7
  -OEChem-06232314393D

 24 25  0     0  0  0  0  0  0999 V2000
  -12.5184   16.1503  -39.6760 C   0  0  0  0  0  0  0  0  0  0  0  0
  -10.1219   14.6187  -37.3192 C   0  0  0  0  0  0  0  0  0  0  0  0
  -13.5935   16.2700  -37.4576 C   0  0  0  0  0  0  0  0  0  0  0  0
  -13.6505   14.1406  -38.8006 C   0  0  0  0  0  0  0  0  0  0  0  0
  -12.2657   15.8198  -36.8193 C   0  0  0  0  0  0  0  0  0  0  0  0
  -12.3231   13.7082  -38.1492 C   0  0  0  0  0  0  0  0  0  0  0  0
  -13.7271   15.6771  -38.8726 C   0  0  0  0  0  0  0  0  0  0  0  0
  -11.4878   14.9585  -37.8278 C   0  0  0  0  0  0  0  0  0  0  0  0
  -11.3418   15.7287  -39.0576 N   0  0  0  0  0  0  0  0  0  0  0  0
   -9.8969   13.2681  -37.1942 N   0  0  0  0  0  0  0  0  0  0  0  0
  -12.5919   16.8027  -40.7093 O   0  0  0  0  0  0  0  0  0  0  0  0
   -9.2881   15.4829  -37.0599 O   0  0  0  0  0  0  0  0  0  0  0  0
  -14.4354   15.9549  -36.8303 H   0  0  0  0  0  0  0  0  0  0  0  0
  -13.6199   17.3655  -37.5050 H   0  0  0  0  0  0  0  0  0  0  0  0
  -13.7164   13.7128  -39.8084 H   0  0  0  0  0  0  0  0  0  0  0  0
  -14.4953   13.7424  -38.2267 H   0  0  0  0  0  0  0  0  0  0  0  0
  -11.6799   16.6970  -36.5158 H   0  0  0  0  0  0  0  0  0  0  0  0
  -12.4650   15.2558  -35.8992 H   0  0  0  0  0  0  0  0  0  0  0  0
  -12.5243   13.1302  -37.2384 H   0  0  0  0  0  0  0  0  0  0  0  0
  -11.7779   13.0338  -38.8220 H   0  0  0  0  0  0  0  0  0  0  0  0
  -14.6514   16.0069  -39.3564 H   0  0  0  0  0  0  0  0  0  0  0  0
  -10.4339   15.9513  -39.4552 H   0  0  0  0  0  0  0  0  0  0  0  0
   -8.9935   12.9543  -36.8551 H   0  0  0  0  0  0  0  0  0  0  0  0
  -10.5980   12.5725  -37.4275 H   0  0  0  0  0  0  0  0  0  0  0  0
  1  7  1  0  0  0  0
  1  9  1  0  0  0  0
  1 11  2  0  0  0  0
  2  8  1  0  0  0  0
  2 10  1  0  0  0  0
  2 12  2  0  0  0  0
  3  5  1  0  0  0  0
  3  7  1  0  0  0  0
  4  6  1  0  0  0  0
  4  7  1  0  0  0  0
  5  8  1  0  0  0  0
  6  8  1  0  0  0  0
  8  9  1  0  0  0  0
  3 13  1  0  0  0  0
  3 14  1  0  0  0  0
  4 15  1  0  0  0  0
  4 16  1  0  0  0  0
  5 17  1  0  0  0  0
  5 18  1  0  0  0  0
  6 19  1  0  0  0  0
  6 20  1  0  0  0  0
  7 21  1  0  0  0  0
  9 22  1  0  0  0  0
 10 23  1  0  0  0  0
 10 24  1  0  0  0  0
M  END
> <id>
EN300-124018

> <smiles>
NC(=O)C1(CCC2CC1)NC2=O

> <MDLNUMBER>
MFCD20705021

> <IUPAC Name>
3-oxo-2-azabicyclo[2.2.2]octane-1-carboxamide

> <CAS>
21121-49-3

> <Purity>
95

> <URL>
https://www.enaminestore.com/catalog/EN300-124018

> <ROCS_ShapeQuery>
_x1247relevant_x1083L0AP1_x1305L0BP1_

> <ROCS_TanimotoCombo>
0.822 

> <ROCS_ShapeTanimoto>
0.482 

> <ROCS_ColorTanimoto>
0.339 

> <ROCS_RefTversky>
0.399 

> <ROCS_RefColorTversky>
0.380 

> <ROCS_RefTverskyCombo>
0.779 

> <ROCS_FitTversky>
1.761 

> <ROCS_FitColorTversky>
0.760 

> <ROCS_FitTverskyCombo>
2.521 

> <ROCS_ColorScore>
-8.085

> <ROCS_Overlap>
1172.630

> <ROCS_Rank>
399                 

$$$$
untitled-dbase-59250_5
  -OEChem-06232314393D

 26 28  0     1  0  0  0  0  0999 V2000
   -9.0899   15.1502  -36.6814 C   0  0  0  0  0  0  0  0  0  0  0  0
  -10.2137   13.2348  -36.3477 C   0  0  0  0  0  0  0  0  0  0  0  0
  -10.4570   15.5859  -36.2713 C   0  0  0  0  0  0  0  0  0  0  0  0
  -13.6260   15.2487  -39.8115 C   0  0  0  0  0  0  0  0  0  0  0  0
  -14.3502   15.0331  -38.4821 C   0  0  0  0  0  0  0  0  0  0  0  0
  -11.4724   14.4460  -38.7880 C   0  0  0  0  0  0  0  0  0  0  0  0
  -11.2631   14.3027  -36.2710 C   0  0  1  0  0  0  0  0  0  0  0  0
  -12.2063   14.1976  -37.4597 C   0  0  1  0  0  0  0  0  0  0  0  0
  -12.2267   15.6507  -39.3505 C   0  0  2  0  0  0  0  0  0  0  0  0
  -13.2471   15.3273  -37.4658 C   0  0  1  0  0  0  0  0  0  0  0  0
   -8.1658   15.8950  -36.9693 O   0  0  0  0  0  0  0  0  0  0  0  0
  -10.4074   12.0361  -36.2135 O   0  0  0  0  0  0  0  0  0  0  0  0
   -9.0074   13.7935  -36.6386 O   0  0  0  0  0  0  0  0  0  0  0  0
  -12.5261   16.3853  -38.1416 O   0  0  0  0  0  0  0  0  0  0  0  0
  -10.4290   16.0325  -35.2725 H   0  0  0  0  0  0  0  0  0  0  0  0
  -10.8266   16.3183  -36.9969 H   0  0  0  0  0  0  0  0  0  0  0  0
  -13.6284   14.3608  -40.4504 H   0  0  0  0  0  0  0  0  0  0  0  0
  -14.1031   16.0698  -40.3581 H   0  0  0  0  0  0  0  0  0  0  0  0
  -15.1643   15.7607  -38.3877 H   0  0  0  0  0  0  0  0  0  0  0  0
  -14.7719   14.0290  -38.3798 H   0  0  0  0  0  0  0  0  0  0  0  0
  -10.4208   14.7027  -38.6173 H   0  0  0  0  0  0  0  0  0  0  0  0
  -11.5080   13.5803  -39.4568 H   0  0  0  0  0  0  0  0  0  0  0  0
  -11.8019   14.1831  -35.3342 H   0  0  0  0  0  0  0  0  0  0  0  0
  -12.6847   13.2120  -37.4418 H   0  0  0  0  0  0  0  0  0  0  0  0
  -11.6623   16.2439  -40.0732 H   0  0  0  0  0  0  0  0  0  0  0  0
  -13.6110   15.6351  -36.4825 H   0  0  0  0  0  0  0  0  0  0  0  0
  1  3  1  0  0  0  0
  1 11  2  0  0  0  0
  1 13  1  0  0  0  0
  2  7  1  0  0  0  0
  2 12  2  0  0  0  0
  2 13  1  0  0  0  0
  3  7  1  0  0  0  0
  4  5  1  0  0  0  0
  4  9  1  0  0  0  0
  5 10  1  0  0  0  0
  6  8  1  0  0  0  0
  6  9  1  0  0  0  0
  7  8  1  0  0  0  0
  8 10  1  0  0  0  0
  9 14  1  0  0  0  0
 10 14  1  0  0  0  0
  3 15  1  0  0  0  0
  3 16  1  0  0  0  0
  4 17  1  0  0  0  0
  4 18  1  0  0  0  0
  5 19  1  0  0  0  0
  5 20  1  0  0  0  0
  6 21  1  0  0  0  0
  6 22  1  0  0  0  0
  7 23  1  0  0  0  0
  8 24  1  0  0  0  0
  9 25  1  0  0  0  0
 10 26  1  0  0  0  0
M  END
> <id>
EN300-1754143

> <smiles>
O=C1CC(C2CC3CCC2O3)C(=O)O1

> <IUPAC Name>
3-{7-oxabicyclo[2.2.1]heptan-2-yl}oxolane-2,5-dione

> <CAS>
2228467-15-8

> <URL>
https://www.enaminestore.com/catalog/EN300-1754143

> <ROCS_ShapeQuery>
_x1247relevant_x1083L0AP1_x1305L0BP1_

> <ROCS_TanimotoCombo>
0.822 

> <ROCS_ShapeTanimoto>
0.488 

> <ROCS_ColorTanimoto>
0.334 

> <ROCS_RefTversky>
0.414 

> <ROCS_RefColorTversky>
0.379 

> <ROCS_RefTverskyCombo>
0.792 

> <ROCS_FitTversky>
1.584 

> <ROCS_FitColorTversky>
0.737 

> <ROCS_FitTverskyCombo>
2.321 

> <ROCS_ColorScore>
-8.054

> <ROCS_Overlap>
1217.786

> <ROCS_Rank>
400                 

$$$$
untitled-dbase-132480_73
  -OEChem-06232314393D

 23 24  0     1  0  0  0  0  0999 V2000
  -12.2508   14.8074  -37.8782 C   0  0  0  0  0  0  0  0  0  0  0  0
  -13.6359   15.5947  -39.1979 C   0  0  0  0  0  0  0  0  0  0  0  0
  -10.1770   14.9533  -35.0640 C   0  0  0  0  0  0  0  0  0  0  0  0
   -9.4287   15.5196  -36.2614 C   0  0  0  0  0  0  0  0  0  0  0  0
  -11.4407   14.1764  -35.4556 C   0  0  0  0  0  0  0  0  0  0  0  0
   -9.1935   14.4704  -37.3480 C   0  0  0  0  0  0  0  0  0  0  0  0
  -11.5423   13.8218  -36.9548 C   0  0  2  0  0  0  0  0  0  0  0  0
  -13.3893   14.4809  -38.5558 N   0  0  0  0  0  0  0  0  0  0  0  0
  -11.7957   16.0490  -38.0714 N   0  0  0  0  0  0  0  0  0  0  0  0
  -10.2113   13.4264  -37.4281 N   0  0  0  0  0  0  0  0  0  0  0  0
  -12.7327   16.5829  -38.9649 O   0  0  0  0  0  0  0  0  0  0  0  0
  -14.6278   15.8625  -40.0243 O   0  0  0  0  0  0  0  0  0  0  0  0
   -9.5048   14.2839  -34.4916 H   0  0  0  0  0  0  0  0  0  0  0  0
  -10.4471   15.7697  -34.3671 H   0  0  0  0  0  0  0  0  0  0  0  0
   -9.9970   16.3645  -36.6838 H   0  0  0  0  0  0  0  0  0  0  0  0
   -8.4622   15.9319  -35.9332 H   0  0  0  0  0  0  0  0  0  0  0  0
  -11.4972   13.2482  -34.8470 H   0  0  0  0  0  0  0  0  0  0  0  0
  -12.3318   14.7668  -35.1457 H   0  0  0  0  0  0  0  0  0  0  0  0
   -9.1292   14.9774  -38.3329 H   0  0  0  0  0  0  0  0  0  0  0  0
   -8.1957   14.0013  -37.2083 H   0  0  0  0  0  0  0  0  0  0  0  0
  -12.1828   12.8553  -37.0057 H   0  0  0  0  0  0  0  0  0  0  0  0
  -10.2841   13.1264  -38.4160 H   0  0  0  0  0  0  0  0  0  0  0  0
  -14.5879   16.7817  -40.3789 H   0  0  0  0  0  0  0  0  0  0  0  0
  1  7  1  0  0  0  0
  1  8  1  0  0  0  0
  1  9  2  0  0  0  0
  2  8  2  0  0  0  0
  2 11  1  0  0  0  0
  2 12  1  0  0  0  0
  3  4  1  0  0  0  0
  3  5  1  0  0  0  0
  4  6  1  0  0  0  0
  5  7  1  0  0  0  0
  6 10  1  0  0  0  0
  7 10  1  0  0  0  0
  9 11  1  0  0  0  0
  3 13  1  0  0  0  0
  3 14  1  0  0  0  0
  4 15  1  0  0  0  0
  4 16  1  0  0  0  0
  5 17  1  0  0  0  0
  5 18  1  0  0  0  0
  6 19  1  0  0  0  0
  6 20  1  0  0  0  0
  7 21  1  0  0  0  0
 10 22  1  0  0  0  0
 12 23  1  0  0  0  0
M  END
> <id>
EN300-26632326

> <smiles>
OC(=O)C(F)(F)F.OC1=NC(=NO1)C2CCCCN2

> <MDLNUMBER>
MFCD32668324

> <IUPAC Name>
3-(piperidin-2-yl)-1,2,4-oxadiazol-5-ol; trifluoroacetic acid

> <CAS>
2416234-45-0

> <Purity>
95

> <URL>
https://www.enaminestore.com/catalog/EN300-26632326

> <Saltdate>
OC(=O)C(F)(F)F

> <ROCS_ShapeQuery>
_x1247relevant_x1083L0AP1_x1305L0BP1_

> <ROCS_TanimotoCombo>
0.822 

> <ROCS_ShapeTanimoto>
0.457 

> <ROCS_ColorTanimoto>
0.364 

> <ROCS_RefTversky>
0.384 

> <ROCS_RefColorTversky>
0.377 

> <ROCS_RefTverskyCombo>
0.761 

> <ROCS_FitTversky>
1.710 

> <ROCS_FitColorTversky>
0.916 

> <ROCS_FitTverskyCombo>
2.626 

> <ROCS_ColorScore>
-7.977

> <ROCS_Overlap>
1129.119

> <ROCS_Rank>
401                 

$$$$
untitled-dbase-150153_73
  -OEChem-06232314393D

 23 24  0     1  0  0  0  0  0999 V2000
  -12.2508   14.8074  -37.8782 C   0  0  0  0  0  0  0  0  0  0  0  0
  -13.6359   15.5947  -39.1979 C   0  0  0  0  0  0  0  0  0  0  0  0
  -10.1770   14.9533  -35.0640 C   0  0  0  0  0  0  0  0  0  0  0  0
   -9.4287   15.5196  -36.2614 C   0  0  0  0  0  0  0  0  0  0  0  0
  -11.4407   14.1764  -35.4556 C   0  0  0  0  0  0  0  0  0  0  0  0
   -9.1935   14.4704  -37.3480 C   0  0  0  0  0  0  0  0  0  0  0  0
  -11.5423   13.8218  -36.9548 C   0  0  2  0  0  0  0  0  0  0  0  0
  -13.3893   14.4809  -38.5558 N   0  0  0  0  0  0  0  0  0  0  0  0
  -11.7957   16.0490  -38.0714 N   0  0  0  0  0  0  0  0  0  0  0  0
  -10.2113   13.4264  -37.4281 N   0  0  0  0  0  0  0  0  0  0  0  0
  -12.7327   16.5829  -38.9649 O   0  0  0  0  0  0  0  0  0  0  0  0
  -14.6278   15.8625  -40.0243 O   0  0  0  0  0  0  0  0  0  0  0  0
   -9.5048   14.2839  -34.4916 H   0  0  0  0  0  0  0  0  0  0  0  0
  -10.4471   15.7697  -34.3671 H   0  0  0  0  0  0  0  0  0  0  0  0
   -9.9970   16.3645  -36.6838 H   0  0  0  0  0  0  0  0  0  0  0  0
   -8.4622   15.9319  -35.9332 H   0  0  0  0  0  0  0  0  0  0  0  0
  -11.4972   13.2482  -34.8470 H   0  0  0  0  0  0  0  0  0  0  0  0
  -12.3318   14.7668  -35.1457 H   0  0  0  0  0  0  0  0  0  0  0  0
   -9.1292   14.9774  -38.3329 H   0  0  0  0  0  0  0  0  0  0  0  0
   -8.1957   14.0013  -37.2083 H   0  0  0  0  0  0  0  0  0  0  0  0
  -12.1828   12.8553  -37.0057 H   0  0  0  0  0  0  0  0  0  0  0  0
  -10.2841   13.1264  -38.4160 H   0  0  0  0  0  0  0  0  0  0  0  0
  -14.5879   16.7817  -40.3789 H   0  0  0  0  0  0  0  0  0  0  0  0
  1  7  1  0  0  0  0
  1  8  1  0  0  0  0
  1  9  2  0  0  0  0
  2  8  2  0  0  0  0
  2 11  1  0  0  0  0
  2 12  1  0  0  0  0
  3  4  1  0  0  0  0
  3  5  1  0  0  0  0
  4  6  1  0  0  0  0
  5  7  1  0  0  0  0
  6 10  1  0  0  0  0
  7 10  1  0  0  0  0
  9 11  1  0  0  0  0
  3 13  1  0  0  0  0
  3 14  1  0  0  0  0
  4 15  1  0  0  0  0
  4 16  1  0  0  0  0
  5 17  1  0  0  0  0
  5 18  1  0  0  0  0
  6 19  1  0  0  0  0
  6 20  1  0  0  0  0
  7 21  1  0  0  0  0
 10 22  1  0  0  0  0
 12 23  1  0  0  0  0
M  END
> <id>
EN300-3044932

> <smiles>
OC1=NC(=NO1)C2CCCCN2

> <MDLNUMBER>
MFCD18872699

> <IUPAC Name>
3-(piperidin-2-yl)-1,2,4-oxadiazol-5-ol

> <CAS>
1340027-16-8

> <URL>
https://www.enaminestore.com/catalog/EN300-3044932

> <ROCS_ShapeQuery>
_x1247relevant_x1083L0AP1_x1305L0BP1_

> <ROCS_TanimotoCombo>
0.822 

> <ROCS_ShapeTanimoto>
0.457 

> <ROCS_ColorTanimoto>
0.364 

> <ROCS_RefTversky>
0.384 

> <ROCS_RefColorTversky>
0.377 

> <ROCS_RefTverskyCombo>
0.761 

> <ROCS_FitTversky>
1.710 

> <ROCS_FitColorTversky>
0.916 

> <ROCS_FitTverskyCombo>
2.626 

> <ROCS_ColorScore>
-7.977

> <ROCS_Overlap>
1129.119

> <ROCS_Rank>
402                 

$$$$
untitled-dbase-92223_55
  -OEChem-06232314393D

 35 36  0     1  0  0  0  0  0999 V2000
  -12.5316   16.1648  -39.4781 C   0  0  0  0  0  0  0  0  0  0  0  0
   -9.7343   14.1436  -36.4837 C   0  0  0  0  0  0  0  0  0  0  0  0
  -11.8355   16.5849  -38.2035 C   0  0  0  0  0  0  0  0  0  0  0  0
  -13.8938   15.4595  -37.7473 C   0  0  0  0  0  0  0  0  0  0  0  0
  -12.6320   13.8007  -38.9437 C   0  0  0  0  0  0  0  0  0  0  0  0
  -13.5026   15.0440  -39.1665 C   0  0  2  0  0  0  0  0  0  0  0  0
  -12.4438   15.5319  -37.2480 C   0  0  1  0  0  0  0  0  0  0  0  0
  -11.9743   14.0878  -37.5701 C   0  0  2  0  0  0  0  0  0  0  0  0
   -8.3356   16.2158  -36.1400 C   0  0  0  0  0  0  0  0  0  0  0  0
   -6.4652   14.6116  -35.6526 C   0  0  0  0  0  0  0  0  0  0  0  0
   -6.9093   15.3338  -38.0168 C   0  0  0  0  0  0  0  0  0  0  0  0
   -7.5379   15.0207  -36.6597 C   0  0  0  0  0  0  0  0  0  0  0  0
  -10.5483   13.9295  -37.5830 N   0  0  0  0  0  0  0  0  0  0  0  0
  -12.3202   16.6325  -40.5857 O   0  0  0  0  0  0  0  0  0  0  0  0
  -10.1189   14.4912  -35.3719 O   0  0  0  0  0  0  0  0  0  0  0  0
   -8.4293   13.9107  -36.8153 O   0  0  0  0  0  0  0  0  0  0  0  0
  -10.7509   16.5091  -38.2949 H   0  0  0  0  0  0  0  0  0  0  0  0
  -12.1448   17.5989  -37.9359 H   0  0  0  0  0  0  0  0  0  0  0  0
  -14.4065   16.4269  -37.7025 H   0  0  0  0  0  0  0  0  0  0  0  0
  -14.4924   14.7026  -37.2294 H   0  0  0  0  0  0  0  0  0  0  0  0
  -13.2472   12.8964  -38.8801 H   0  0  0  0  0  0  0  0  0  0  0  0
  -11.8970   13.6630  -39.7449 H   0  0  0  0  0  0  0  0  0  0  0  0
  -14.3155   14.9537  -39.8857 H   0  0  0  0  0  0  0  0  0  0  0  0
  -12.3374   15.7957  -36.1931 H   0  0  0  0  0  0  0  0  0  0  0  0
  -12.3652   13.3885  -36.8214 H   0  0  0  0  0  0  0  0  0  0  0  0
   -9.1066   16.5125  -36.8600 H   0  0  0  0  0  0  0  0  0  0  0  0
   -8.8202   15.9923  -35.1839 H   0  0  0  0  0  0  0  0  0  0  0  0
   -7.6875   17.0891  -36.0036 H   0  0  0  0  0  0  0  0  0  0  0  0
   -5.8904   13.7544  -36.0214 H   0  0  0  0  0  0  0  0  0  0  0  0
   -6.9187   14.2950  -34.7063 H   0  0  0  0  0  0  0  0  0  0  0  0
   -5.7704   15.4322  -35.4466 H   0  0  0  0  0  0  0  0  0  0  0  0
   -6.3370   14.4767  -38.3898 H   0  0  0  0  0  0  0  0  0  0  0  0
   -7.6678   15.5937  -38.7622 H   0  0  0  0  0  0  0  0  0  0  0  0
   -6.2013   16.1665  -37.9354 H   0  0  0  0  0  0  0  0  0  0  0  0
  -10.1069   13.6413  -38.4563 H   0  0  0  0  0  0  0  0  0  0  0  0
  1  3  1  0  0  0  0
  1  6  1  0  0  0  0
  1 14  2  0  0  0  0
  2 13  1  0  0  0  0
  2 15  2  0  0  0  0
  2 16  1  0  0  0  0
  3  7  1  1  0  0  0
  4  6  1  0  0  0  0
  4  7  1  0  0  0  0
  5  6  1  1  0  0  0
  5  8  1  0  0  0  0
  7  8  1  0  0  0  0
  8 13  1  1  0  0  0
  9 12  1  0  0  0  0
 10 12  1  0  0  0  0
 11 12  1  0  0  0  0
 12 16  1  0  0  0  0
  3 17  1  0  0  0  0
  3 18  1  0  0  0  0
  4 19  1  0  0  0  0
  4 20  1  0  0  0  0
  5 21  1  0  0  0  0
  5 22  1  0  0  0  0
  6 23  1  0  0  0  0
  7 24  1  0  0  0  0
  8 25  1  0  0  0  0
  9 26  1  0  0  0  0
  9 27  1  0  0  0  0
  9 28  1  0  0  0  0
 10 29  1  0  0  0  0
 10 30  1  0  0  0  0
 10 31  1  0  0  0  0
 11 32  1  0  0  0  0
 11 33  1  0  0  0  0
 11 34  1  0  0  0  0
 13 35  1  0  0  0  0
M  END
> <id>
EN300-6758937

> <smiles>
CC(C)(C)OC(=O)N[C@@H]1C[C@H]2C[C@@H]1CC2=O |&1:8,10,12,r|

> <IUPAC Name>
rac-tert-butyl N-[(1R,2R,4R)-5-oxobicyclo[2.2.1]heptan-2-yl]carbamate

> <CAS>
2305185-32-2

> <Purity>
95

> <URL>
https://www.enaminestore.com/catalog/EN300-6758937

> <ROCS_ShapeQuery>
_x1247relevant_x1083L0AP1_x1305L0BP1_

> <ROCS_TanimotoCombo>
0.822 

> <ROCS_ShapeTanimoto>
0.465 

> <ROCS_ColorTanimoto>
0.357 

> <ROCS_RefTversky>
0.406 

> <ROCS_RefColorTversky>
0.398 

> <ROCS_RefTverskyCombo>
0.804 

> <ROCS_FitTversky>
1.448 

> <ROCS_FitColorTversky>
0.776 

> <ROCS_FitTverskyCombo>
2.225 

> <ROCS_ColorScore>
-8.466

> <ROCS_Overlap>
1196.890

> <ROCS_Rank>
403                 

$$$$
untitled-dbase-45561_2
  -OEChem-06232314393D

 40 42  0     1  0  0  0  0  0999 V2000
  -12.0408   14.8673  -39.7972 C   0  0  0  0  0  0  0  0  0  0  0  0
  -12.3677   16.8220  -38.3187 C   0  0  0  0  0  0  0  0  0  0  0  0
  -13.4899   14.4849  -39.4559 C   0  0  0  0  0  0  0  0  0  0  0  0
  -13.7362   16.2856  -37.8767 C   0  0  0  0  0  0  0  0  0  0  0  0
   -9.0972   13.9127  -37.4673 C   0  0  0  0  0  0  0  0  0  0  0  0
  -12.8520   14.1569  -37.1618 C   0  0  0  0  0  0  0  0  0  0  0  0
   -9.7405   15.8934  -36.0802 C   0  0  0  0  0  0  0  0  0  0  0  0
  -11.4288   15.6330  -38.6098 C   0  0  0  0  0  0  0  0  0  0  0  0
   -8.7867   14.7057  -36.1946 C   0  0  2  0  0  0  0  0  0  0  0  0
  -11.4003   14.7023  -37.3556 C   0  0  2  0  0  0  0  0  0  0  0  0
   -7.1379   16.3881  -37.0634 C   0  0  0  0  0  0  0  0  0  0  0  0
   -6.8866   15.4674  -34.7411 C   0  0  0  0  0  0  0  0  0  0  0  0
   -7.3324   15.1637  -36.1705 C   0  0  0  0  0  0  0  0  0  0  0  0
  -10.5099   13.5351  -37.5106 N   0  0  0  0  0  0  0  0  0  0  0  0
  -13.8305   14.8227  -38.0563 N   0  0  0  0  0  0  0  0  0  0  0  0
  -11.0958   15.4535  -36.1622 O   0  0  0  0  0  0  0  0  0  0  0  0
  -11.4553   13.9786  -40.0525 H   0  0  0  0  0  0  0  0  0  0  0  0
  -12.0361   15.5064  -40.6890 H   0  0  0  0  0  0  0  0  0  0  0  0
  -12.4800   17.4357  -39.2212 H   0  0  0  0  0  0  0  0  0  0  0  0
  -11.9499   17.4734  -37.5432 H   0  0  0  0  0  0  0  0  0  0  0  0
  -14.1848   14.9901  -40.1386 H   0  0  0  0  0  0  0  0  0  0  0  0
  -13.6407   13.4115  -39.6259 H   0  0  0  0  0  0  0  0  0  0  0  0
  -13.9216   16.5425  -36.8261 H   0  0  0  0  0  0  0  0  0  0  0  0
  -14.5317   16.7821  -38.4460 H   0  0  0  0  0  0  0  0  0  0  0  0
   -8.8238   14.4827  -38.3629 H   0  0  0  0  0  0  0  0  0  0  0  0
   -8.4934   12.9982  -37.4838 H   0  0  0  0  0  0  0  0  0  0  0  0
  -12.9078   13.0757  -37.3499 H   0  0  0  0  0  0  0  0  0  0  0  0
  -13.1774   14.2824  -36.1207 H   0  0  0  0  0  0  0  0  0  0  0  0
   -9.6150   16.3867  -35.1102 H   0  0  0  0  0  0  0  0  0  0  0  0
   -9.5478   16.6485  -36.8502 H   0  0  0  0  0  0  0  0  0  0  0  0
  -10.4376   16.0153  -38.8722 H   0  0  0  0  0  0  0  0  0  0  0  0
   -8.9584   14.0437  -35.3347 H   0  0  0  0  0  0  0  0  0  0  0  0
   -7.7434   17.2330  -36.7175 H   0  0  0  0  0  0  0  0  0  0  0  0
   -7.4266   16.1651  -38.0959 H   0  0  0  0  0  0  0  0  0  0  0  0
   -6.0892   16.7033  -37.0697 H   0  0  0  0  0  0  0  0  0  0  0  0
   -7.4819   16.2753  -34.3017 H   0  0  0  0  0  0  0  0  0  0  0  0
   -5.8344   15.7702  -34.7168 H   0  0  0  0  0  0  0  0  0  0  0  0
   -6.9949   14.5827  -34.1047 H   0  0  0  0  0  0  0  0  0  0  0  0
   -6.7061   14.3511  -36.5604 H   0  0  0  0  0  0  0  0  0  0  0  0
  -10.7096   13.0291  -38.3704 H   0  0  0  0  0  0  0  0  0  0  0  0
  1  3  1  0  0  0  0
  1  8  1  0  0  0  0
  2  4  1  0  0  0  0
  2  8  1  0  0  0  0
  3 15  1  0  0  0  0
  4 15  1  0  0  0  0
  5  9  1  0  0  0  0
  5 14  1  0  0  0  0
  6 10  1  0  0  0  0
  6 15  1  0  0  0  0
  7  9  1  0  0  0  0
  7 16  1  0  0  0  0
  8 10  1  0  0  0  0
  9 13  1  0  0  0  0
 10 14  1  0  0  0  0
 10 16  1  0  0  0  0
 11 13  1  0  0  0  0
 12 13  1  0  0  0  0
  1 17  1  0  0  0  0
  1 18  1  0  0  0  0
  2 19  1  0  0  0  0
  2 20  1  0  0  0  0
  3 21  1  0  0  0  0
  3 22  1  0  0  0  0
  4 23  1  0  0  0  0
  4 24  1  0  0  0  0
  5 25  1  0  0  0  0
  5 26  1  0  0  0  0
  6 27  1  0  0  0  0
  6 28  1  0  0  0  0
  7 29  1  0  0  0  0
  7 30  1  0  0  0  0
  8 31  1  0  0  0  0
  9 32  1  0  0  0  0
 11 33  1  0  0  0  0
 11 34  1  0  0  0  0
 11 35  1  0  0  0  0
 12 36  1  0  0  0  0
 12 37  1  0  0  0  0
 12 38  1  0  0  0  0
 13 39  1  0  0  0  0
 14 40  1  0  0  0  0
M  END
> <id>
EN300-1279389

> <smiles>
CC(C)C1CNC2(CN3CCC2CC3)OC1

> <IUPAC Name>
5'-(propan-2-yl)-4-azaspiro[bicyclo[2.2.2]octane-2,2'-[1,3]oxazinane]

> <CAS>
2171825-46-8

> <URL>
https://www.enaminestore.com/catalog/EN300-1279389

> <ROCS_ShapeQuery>
_x1247relevant_x1083L0AP1_x1305L0BP1_

> <ROCS_TanimotoCombo>
0.822 

> <ROCS_ShapeTanimoto>
0.473 

> <ROCS_ColorTanimoto>
0.349 

> <ROCS_RefTversky>
0.411 

> <ROCS_RefColorTversky>
0.411 

> <ROCS_RefTverskyCombo>
0.822 

> <ROCS_FitTversky>
1.467 

> <ROCS_FitColorTversky>
0.698 

> <ROCS_FitTverskyCombo>
2.166 

> <ROCS_ColorScore>
-8.770

> <ROCS_Overlap>
1210.928

> <ROCS_Rank>
404                 

$$$$
untitled-dbase-120287_0
  -OEChem-06232314393D

 38 40  0     0  0  0  0  0  0999 V2000
   -9.9928   15.2248  -36.6057 C   0  0  0  0  0  0  0  0  0  0  0  0
  -12.3378   16.0213  -36.6955 C   0  0  0  0  0  0  0  0  0  0  0  0
  -10.9364   15.9240  -38.7728 C   0  0  0  0  0  0  0  0  0  0  0  0
  -11.7101   13.7993  -37.6821 C   0  0  0  0  0  0  0  0  0  0  0  0
  -13.3153   16.7258  -38.9014 C   0  0  0  0  0  0  0  0  0  0  0  0
  -14.0891   14.5998  -37.8065 C   0  0  0  0  0  0  0  0  0  0  0  0
  -12.6839   14.5023  -39.8892 C   0  0  0  0  0  0  0  0  0  0  0  0
  -11.2470   15.2388  -37.4365 C   0  0  0  0  0  0  0  0  0  0  0  0
  -13.6296   16.0533  -37.5445 C   0  0  0  0  0  0  0  0  0  0  0  0
  -12.2060   15.9546  -39.6547 C   0  0  0  0  0  0  0  0  0  0  0  0
  -12.9916   13.7994  -38.5462 C   0  0  0  0  0  0  0  0  0  0  0  0
  -14.7262   16.8305  -36.8102 C   0  0  0  0  0  0  0  0  0  0  0  0
  -11.9040   16.6349  -40.9933 C   0  0  0  0  0  0  0  0  0  0  0  0
  -13.4617   12.3632  -38.7960 C   0  0  0  0  0  0  0  0  0  0  0  0
   -8.9140   15.6799  -36.9556 O   0  0  0  0  0  0  0  0  0  0  0  0
  -10.2189   14.6327  -35.4075 O   0  0  0  0  0  0  0  0  0  0  0  0
  -12.5372   15.5614  -35.7178 H   0  0  0  0  0  0  0  0  0  0  0  0
  -11.9992   17.0452  -36.4857 H   0  0  0  0  0  0  0  0  0  0  0  0
  -10.5690   16.9452  -38.6013 H   0  0  0  0  0  0  0  0  0  0  0  0
  -10.1266   15.3941  -39.2929 H   0  0  0  0  0  0  0  0  0  0  0  0
  -10.9192   13.2229  -38.1815 H   0  0  0  0  0  0  0  0  0  0  0  0
  -11.8970   13.2919  -36.7257 H   0  0  0  0  0  0  0  0  0  0  0  0
  -14.2243   16.7682  -39.5166 H   0  0  0  0  0  0  0  0  0  0  0  0
  -13.0015   17.7656  -38.7382 H   0  0  0  0  0  0  0  0  0  0  0  0
  -14.3317   14.1081  -36.8547 H   0  0  0  0  0  0  0  0  0  0  0  0
  -15.0133   14.6018  -38.3999 H   0  0  0  0  0  0  0  0  0  0  0  0
  -13.5803   14.5023  -40.5241 H   0  0  0  0  0  0  0  0  0  0  0  0
  -11.9151   13.9403  -40.4367 H   0  0  0  0  0  0  0  0  0  0  0  0
  -15.6294   16.8468  -37.4154 H   0  0  0  0  0  0  0  0  0  0  0  0
  -14.3937   17.8503  -36.6322 H   0  0  0  0  0  0  0  0  0  0  0  0
  -14.9391   16.3497  -35.8584 H   0  0  0  0  0  0  0  0  0  0  0  0
  -12.8027   16.6511  -41.6052 H   0  0  0  0  0  0  0  0  0  0  0  0
  -11.1238   16.0851  -41.5140 H   0  0  0  0  0  0  0  0  0  0  0  0
  -11.5700   17.6545  -40.8170 H   0  0  0  0  0  0  0  0  0  0  0  0
  -14.3628   12.3750  -39.4042 H   0  0  0  0  0  0  0  0  0  0  0  0
  -13.6747   11.8789  -37.8462 H   0  0  0  0  0  0  0  0  0  0  0  0
  -12.6834   11.8100  -39.3160 H   0  0  0  0  0  0  0  0  0  0  0  0
   -9.4114   14.6120  -34.8509 H   0  0  0  0  0  0  0  0  0  0  0  0
  1  8  1  0  0  0  0
  1 15  2  0  0  0  0
  1 16  1  0  0  0  0
  2  8  1  0  0  0  0
  2  9  1  0  0  0  0
  3  8  1  0  0  0  0
  3 10  1  0  0  0  0
  4  8  1  0  0  0  0
  4 11  1  0  0  0  0
  5  9  1  0  0  0  0
  5 10  1  0  0  0  0
  6  9  1  0  0  0  0
  6 11  1  0  0  0  0
  7 10  1  0  0  0  0
  7 11  1  0  0  0  0
  9 12  1  0  0  0  0
 10 13  1  0  0  0  0
 11 14  1  0  0  0  0
  2 17  1  0  0  0  0
  2 18  1  0  0  0  0
  3 19  1  0  0  0  0
  3 20  1  0  0  0  0
  4 21  1  0  0  0  0
  4 22  1  0  0  0  0
  5 23  1  0  0  0  0
  5 24  1  0  0  0  0
  6 25  1  0  0  0  0
  6 26  1  0  0  0  0
  7 27  1  0  0  0  0
  7 28  1  0  0  0  0
 12 29  1  0  0  0  0
 12 30  1  0  0  0  0
 12 31  1  0  0  0  0
 13 32  1  0  0  0  0
 13 33  1  0  0  0  0
 13 34  1  0  0  0  0
 14 35  1  0  0  0  0
 14 36  1  0  0  0  0
 14 37  1  0  0  0  0
 16 38  1  0  0  0  0
M  END
> <id>
EN300-141232

> <smiles>
CC1(CC2(C)CC3(C)C1)CC(C2)(C3)C(=O)O

> <MDLNUMBER>
MFCD00187581

> <IUPAC Name>
3,5,7-trimethyladamantane-1-carboxylic acid

> <CAS>
15291-66-4

> <Purity>
95

> <URL>
https://www.enaminestore.com/catalog/EN300-141232

> <MP>
139-141

> <ROCS_ShapeQuery>
_x1247relevant_x1083L0AP1_x1305L0BP1_

> <ROCS_TanimotoCombo>
0.821 

> <ROCS_ShapeTanimoto>
0.502 

> <ROCS_ColorTanimoto>
0.319 

> <ROCS_RefTversky>
0.429 

> <ROCS_RefColorTversky>
0.357 

> <ROCS_RefTverskyCombo>
0.786 

> <ROCS_FitTversky>
1.512 

> <ROCS_FitColorTversky>
0.751 

> <ROCS_FitTverskyCombo>
2.263 

> <ROCS_ColorScore>
-7.576

> <ROCS_Overlap>
1264.831

> <ROCS_Rank>
405                 

$$$$
untitled-dbase-102089_6
  -OEChem-06232314393D

 23 24  0     1  0  0  0  0  0999 V2000
  -12.3090   16.3582  -39.4399 C   0  0  0  0  0  0  0  0  0  0  0  0
  -10.2744   15.0919  -36.6131 C   0  0  0  0  0  0  0  0  0  0  0  0
  -10.9880   15.8084  -38.9233 C   0  0  0  0  0  0  0  0  0  0  0  0
  -13.3034   13.7430  -38.6916 C   0  0  0  0  0  0  0  0  0  0  0  0
  -12.0459   13.7408  -37.7825 C   0  0  0  0  0  0  0  0  0  0  0  0
  -14.1385   15.0394  -38.5985 C   0  0  0  0  0  0  0  0  0  0  0  0
  -12.4955   16.0910  -37.1471 C   0  0  0  0  0  0  0  0  0  0  0  0
  -11.4031   15.1405  -37.5940 C   0  0  1  0  0  0  0  0  0  0  0  0
  -13.2402   16.1639  -38.3833 N   0  0  0  0  0  0  0  0  0  0  0  0
  -12.5243   16.7502  -40.5754 O   0  0  0  0  0  0  0  0  0  0  0  0
  -10.3408   14.6155  -35.4898 O   0  0  0  0  0  0  0  0  0  0  0  0
   -9.1586   15.6539  -37.1390 O   0  0  0  0  0  0  0  0  0  0  0  0
  -10.5725   15.0869  -39.6326 H   0  0  0  0  0  0  0  0  0  0  0  0
  -10.2855   16.6366  -38.7827 H   0  0  0  0  0  0  0  0  0  0  0  0
  -12.9693   13.6213  -39.7304 H   0  0  0  0  0  0  0  0  0  0  0  0
  -13.9303   12.8725  -38.4682 H   0  0  0  0  0  0  0  0  0  0  0  0
  -12.3362   13.3507  -36.7975 H   0  0  0  0  0  0  0  0  0  0  0  0
  -11.3103   13.0323  -38.1830 H   0  0  0  0  0  0  0  0  0  0  0  0
  -14.7026   15.1937  -39.5246 H   0  0  0  0  0  0  0  0  0  0  0  0
  -14.8442   14.9939  -37.7624 H   0  0  0  0  0  0  0  0  0  0  0  0
  -13.1136   15.7323  -36.3175 H   0  0  0  0  0  0  0  0  0  0  0  0
  -12.1099   17.0880  -36.8990 H   0  0  0  0  0  0  0  0  0  0  0  0
   -8.4065   15.6335  -36.5095 H   0  0  0  0  0  0  0  0  0  0  0  0
  1  3  1  0  0  0  0
  1  9  1  0  0  0  0
  1 10  2  0  0  0  0
  2  8  1  0  0  0  0
  2 11  2  0  0  0  0
  2 12  1  0  0  0  0
  3  8  1  0  0  0  0
  4  5  1  0  0  0  0
  4  6  1  0  0  0  0
  5  8  1  0  0  0  0
  6  9  1  0  0  0  0
  7  8  1  0  0  0  0
  7  9  1  0  0  0  0
  3 13  1  0  0  0  0
  3 14  1  0  0  0  0
  4 15  1  0  0  0  0
  4 16  1  0  0  0  0
  5 17  1  0  0  0  0
  5 18  1  0  0  0  0
  6 19  1  0  0  0  0
  6 20  1  0  0  0  0
  7 21  1  0  0  0  0
  7 22  1  0  0  0  0
 12 23  1  0  0  0  0
M  END
> <id>
EN300-37347656

> <smiles>
OC(=O)C1(CN2CCC1)CC2=O

> <IUPAC Name>
7-oxo-1-azabicyclo[3.2.1]octane-5-carboxylic acid

> <CAS>
2757923-08-1

> <URL>
https://www.enaminestore.com/catalog/EN300-37347656

> <ROCS_ShapeQuery>
_x1247relevant_x1083L0AP1_x1305L0BP1_

> <ROCS_TanimotoCombo>
0.821 

> <ROCS_ShapeTanimoto>
0.479 

> <ROCS_ColorTanimoto>
0.342 

> <ROCS_RefTversky>
0.398 

> <ROCS_RefColorTversky>
0.381 

> <ROCS_RefTverskyCombo>
0.778 

> <ROCS_FitTversky>
1.749 

> <ROCS_FitColorTversky>
0.772 

> <ROCS_FitTverskyCombo>
2.521 

> <ROCS_ColorScore>
-8.088

> <ROCS_Overlap>
1168.023

> <ROCS_Rank>
406                 

$$$$
untitled-dbase-121497_6
  -OEChem-06232314393D

 24 26  0     1  0  0  0  0  0999 V2000
  -10.5367   16.5421  -39.4553 C   0  0  0  0  0  0  0  0  0  0  0  0
  -10.3054   15.2106  -36.7606 C   0  0  0  0  0  0  0  0  0  0  0  0
  -12.2914   14.7567  -39.8174 C   0  0  0  0  0  0  0  0  0  0  0  0
  -12.9735   16.7165  -38.8132 C   0  0  0  0  0  0  0  0  0  0  0  0
  -12.1428   13.7514  -37.7512 C   0  0  0  0  0  0  0  0  0  0  0  0
  -12.8215   15.7114  -36.7471 C   0  0  0  0  0  0  0  0  0  0  0  0
  -13.2246   14.2741  -38.7014 C   0  0  1  0  0  0  0  0  0  0  0  0
  -13.6980   15.6374  -38.0019 C   0  0  2  0  0  0  0  0  0  0  0  0
  -11.7055   15.8625  -38.9327 C   0  0  0  0  0  0  0  0  0  0  0  0
  -11.6001   15.1630  -37.4939 C   0  0  0  0  0  0  0  0  0  0  0  0
   -9.6012   17.0861  -39.8736 N   0  0  0  0  0  0  0  0  0  0  0  0
   -9.2737   15.7056  -37.1894 O   0  0  0  0  0  0  0  0  0  0  0  0
  -10.4224   14.6246  -35.5440 O   0  0  0  0  0  0  0  0  0  0  0  0
  -11.5558   14.0144  -40.1481 H   0  0  0  0  0  0  0  0  0  0  0  0
  -12.8263   15.1176  -40.7032 H   0  0  0  0  0  0  0  0  0  0  0  0
  -13.4624   16.9419  -39.7679 H   0  0  0  0  0  0  0  0  0  0  0  0
  -12.8244   17.6628  -38.2805 H   0  0  0  0  0  0  0  0  0  0  0  0
  -12.5491   13.2530  -36.8639 H   0  0  0  0  0  0  0  0  0  0  0  0
  -11.4133   13.0755  -38.2111 H   0  0  0  0  0  0  0  0  0  0  0  0
  -12.6758   16.7204  -36.3456 H   0  0  0  0  0  0  0  0  0  0  0  0
  -13.1782   15.0735  -35.9307 H   0  0  0  0  0  0  0  0  0  0  0  0
  -14.0027   13.5676  -38.9893 H   0  0  0  0  0  0  0  0  0  0  0  0
  -14.7691   15.7747  -37.8562 H   0  0  0  0  0  0  0  0  0  0  0  0
   -9.5780   14.6441  -35.0451 H   0  0  0  0  0  0  0  0  0  0  0  0
  1  9  1  0  0  0  0
  1 11  3  0  0  0  0
  2 10  1  0  0  0  0
  2 12  2  0  0  0  0
  2 13  1  0  0  0  0
  3  7  1  0  0  0  0
  3  9  1  0  0  0  0
  4  8  1  0  0  0  0
  4  9  1  0  0  0  0
  5  7  1  0  0  0  0
  5 10  1  0  0  0  0
  6  8  1  0  0  0  0
  6 10  1  0  0  0  0
  7  8  1  0  0  0  0
  9 10  1  0  0  0  0
  3 14  1  0  0  0  0
  3 15  1  0  0  0  0
  4 16  1  0  0  0  0
  4 17  1  0  0  0  0
  5 18  1  0  0  0  0
  5 19  1  0  0  0  0
  6 20  1  0  0  0  0
  6 21  1  0  0  0  0
  7 22  1  0  0  0  0
  8 23  1  0  0  0  0
 13 24  1  0  0  0  0
M  END
> <id>
EN300-26975748

> <smiles>
OC(=O)C12CC3CC2(CC3C1)C#N

> <IUPAC Name>
5-cyanotricyclo[3.3.0.0,3,7]octane-1-carboxylic acid

> <CAS>
2445794-12-5

> <URL>
https://www.enaminestore.com/catalog/EN300-26975748

> <ROCS_ShapeQuery>
_x1247relevant_x1083L0AP1_x1305L0BP1_

> <ROCS_TanimotoCombo>
0.821 

> <ROCS_ShapeTanimoto>
0.476 

> <ROCS_ColorTanimoto>
0.345 

> <ROCS_RefTversky>
0.403 

> <ROCS_RefColorTversky>
0.562 

> <ROCS_RefTverskyCombo>
0.965 

> <ROCS_FitTversky>
1.621 

> <ROCS_FitColorTversky>
0.471 

> <ROCS_FitTverskyCombo>
2.093 

> <ROCS_ColorScore>
-12.412

> <ROCS_Overlap>
1185.002

> <ROCS_Rank>
407                 

$$$$
untitled-dbase-69990_9
  -OEChem-06232314393D

 26 27  0     1  0  0  0  0  0999 V2000
  -13.3154   16.4609  -40.3170 C   0  0  0  0  0  0  0  0  0  0  0  0
   -9.9331   14.8712  -37.0097 C   0  0  0  0  0  0  0  0  0  0  0  0
  -13.3183   14.9901  -36.8474 C   0  0  0  0  0  0  0  0  0  0  0  0
  -13.6957   16.1377  -37.8087 C   0  0  0  0  0  0  0  0  0  0  0  0
  -12.8432   14.3061  -39.0685 C   0  0  0  0  0  0  0  0  0  0  0  0
  -11.3544   16.1194  -38.7228 C   0  0  0  0  0  0  0  0  0  0  0  0
  -12.2703   14.2054  -37.6558 C   0  0  1  0  0  0  0  0  0  0  0  0
  -12.8306   15.8403  -39.0515 C   0  0  1  0  0  0  0  0  0  0  0  0
   -9.9455   13.6696  -36.1001 C   0  0  0  0  0  0  0  0  0  0  0  0
  -11.0765   15.0541  -37.7577 N   0  0  0  0  0  0  0  0  0  0  0  0
  -12.6823   17.2550  -40.9968 O   0  0  0  0  0  0  0  0  0  0  0  0
   -8.9505   15.6122  -37.0561 O   0  0  0  0  0  0  0  0  0  0  0  0
  -14.5640   16.0261  -40.6158 O   0  0  0  0  0  0  0  0  0  0  0  0
  -12.9264   15.3605  -35.8946 H   0  0  0  0  0  0  0  0  0  0  0  0
  -14.1963   14.3683  -36.6390 H   0  0  0  0  0  0  0  0  0  0  0  0
  -14.7674   16.1081  -38.0373 H   0  0  0  0  0  0  0  0  0  0  0  0
  -13.4739   17.1186  -37.3748 H   0  0  0  0  0  0  0  0  0  0  0  0
  -12.1901   13.8729  -39.8347 H   0  0  0  0  0  0  0  0  0  0  0  0
  -13.8472   13.8786  -39.1689 H   0  0  0  0  0  0  0  0  0  0  0  0
  -10.6914   15.9981  -39.5863 H   0  0  0  0  0  0  0  0  0  0  0  0
  -11.1848   17.1014  -38.2708 H   0  0  0  0  0  0  0  0  0  0  0  0
  -12.0571   13.2041  -37.2774 H   0  0  0  0  0  0  0  0  0  0  0  0
   -9.5488   12.8135  -36.6363 H   0  0  0  0  0  0  0  0  0  0  0  0
  -10.9657   13.4702  -35.7872 H   0  0  0  0  0  0  0  0  0  0  0  0
   -9.3330   13.8769  -35.2282 H   0  0  0  0  0  0  0  0  0  0  0  0
  -14.9021   16.4252  -41.4457 H   0  0  0  0  0  0  0  0  0  0  0  0
  1  8  1  6  0  0  0
  1 11  2  0  0  0  0
  1 13  1  0  0  0  0
  2  9  1  0  0  0  0
  2 10  1  0  0  0  0
  2 12  2  0  0  0  0
  3  4  1  0  0  0  0
  3  7  1  1  0  0  0
  4  8  1  0  0  0  0
  5  7  1  0  0  0  0
  5  8  1  0  0  0  0
  6  8  1  0  0  0  0
  6 10  1  0  0  0  0
  7 10  1  0  0  0  0
  3 14  1  0  0  0  0
  3 15  1  0  0  0  0
  4 16  1  0  0  0  0
  4 17  1  0  0  0  0
  5 18  1  0  0  0  0
  5 19  1  0  0  0  0
  6 20  1  0  0  0  0
  6 21  1  0  0  0  0
  7 22  1  0  0  0  0
  9 23  1  0  0  0  0
  9 24  1  0  0  0  0
  9 25  1  0  0  0  0
 13 26  1  0  0  0  0
M  END
> <id>
EN300-37419274

> <smiles>
CC(=O)N1C[C@@]2(CC[C@H]1C2)C(=O)O

> <IUPAC Name>
(1S,4S)-2-acetyl-2-azabicyclo[2.2.1]heptane-4-carboxylic acid

> <URL>
https://www.enaminestore.com/catalog/EN300-37419274

> <ROCS_ShapeQuery>
_x1247relevant_x1083L0AP1_x1305L0BP1_

> <ROCS_TanimotoCombo>
0.821 

> <ROCS_ShapeTanimoto>
0.494 

> <ROCS_ColorTanimoto>
0.328 

> <ROCS_RefTversky>
0.410 

> <ROCS_RefColorTversky>
0.374 

> <ROCS_RefTverskyCombo>
0.784 

> <ROCS_FitTversky>
1.702 

> <ROCS_FitColorTversky>
0.726 

> <ROCS_FitTverskyCombo>
2.428 

> <ROCS_ColorScore>
-7.951

> <ROCS_Overlap>
1205.911

> <ROCS_Rank>
408                 

$$$$
untitled-dbase-21199_7
  -OEChem-06232314393D

 28 30  0     1  0  0  0  0  0999 V2000
  -10.5917   13.4543  -37.4899 C   0  0  0  0  0  0  0  0  0  0  0  0
   -9.1701   15.1470  -36.9787 C   0  0  0  0  0  0  0  0  0  0  0  0
  -13.0242   16.6938  -40.5085 C   0  0  0  0  0  0  0  0  0  0  0  0
  -13.8192   16.3729  -38.1451 C   0  0  0  0  0  0  0  0  0  0  0  0
  -13.3777   14.1342  -38.8113 C   0  0  0  0  0  0  0  0  0  0  0  0
  -12.6386   14.7423  -36.6250 C   0  0  0  0  0  0  0  0  0  0  0  0
  -12.6134   16.3741  -39.1019 C   0  0  1  0  0  0  0  0  0  0  0  0
  -13.8282   14.9322  -37.5923 C   0  0  1  0  0  0  0  0  0  0  0  0
  -12.0701   14.9323  -38.9711 C   0  0  1  0  0  0  0  0  0  0  0  0
  -11.4291   14.7394  -37.5758 C   0  0  2  0  0  0  0  0  0  0  0  0
   -9.3039   13.7908  -37.1516 N   0  0  0  0  0  0  0  0  0  0  0  0
  -10.4201   15.7113  -37.2224 N   0  0  0  0  0  0  0  0  0  0  0  0
  -11.0050   12.3206  -37.6910 O   0  0  0  0  0  0  0  0  0  0  0  0
   -8.1523   15.7482  -36.6639 O   0  0  0  0  0  0  0  0  0  0  0  0
  -12.3132   17.2367  -41.3411 O   0  0  0  0  0  0  0  0  0  0  0  0
  -14.3010   16.2997  -40.7356 O   0  0  0  0  0  0  0  0  0  0  0  0
  -13.7009   17.1109  -37.3447 H   0  0  0  0  0  0  0  0  0  0  0  0
  -14.7564   16.5895  -38.6708 H   0  0  0  0  0  0  0  0  0  0  0  0
  -13.2302   13.0717  -38.5990 H   0  0  0  0  0  0  0  0  0  0  0  0
  -14.0604   14.2273  -39.6617 H   0  0  0  0  0  0  0  0  0  0  0  0
  -12.6004   15.5489  -35.8844 H   0  0  0  0  0  0  0  0  0  0  0  0
  -12.7313   13.7929  -36.0853 H   0  0  0  0  0  0  0  0  0  0  0  0
  -11.8827   17.1367  -38.8170 H   0  0  0  0  0  0  0  0  0  0  0  0
  -14.7877   14.6373  -37.1627 H   0  0  0  0  0  0  0  0  0  0  0  0
  -11.4540   14.5962  -39.8095 H   0  0  0  0  0  0  0  0  0  0  0  0
   -8.5510   13.1226  -37.0341 H   0  0  0  0  0  0  0  0  0  0  0  0
  -10.5956   16.7073  -37.1362 H   0  0  0  0  0  0  0  0  0  0  0  0
  -14.5896   16.5020  -41.6511 H   0  0  0  0  0  0  0  0  0  0  0  0
  1 10  1  0  0  0  0
  1 11  1  0  0  0  0
  1 13  2  0  0  0  0
  2 11  1  0  0  0  0
  2 12  1  0  0  0  0
  2 14  2  0  0  0  0
  3  7  1  0  0  0  0
  3 15  2  0  0  0  0
  3 16  1  0  0  0  0
  4  7  1  0  0  0  0
  4  8  1  0  0  0  0
  5  8  1  0  0  0  0
  5  9  1  0  0  0  0
  6  8  1  0  0  0  0
  6 10  1  0  0  0  0
  7  9  1  0  0  0  0
  9 10  1  0  0  0  0
 10 12  1  0  0  0  0
  4 17  1  0  0  0  0
  4 18  1  0  0  0  0
  5 19  1  0  0  0  0
  5 20  1  0  0  0  0
  6 21  1  0  0  0  0
  6 22  1  0  0  0  0
  7 23  1  0  0  0  0
  8 24  1  0  0  0  0
  9 25  1  0  0  0  0
 11 26  1  0  0  0  0
 12 27  1  0  0  0  0
 16 28  1  0  0  0  0
M  END
> <id>
EN300-267935

> <smiles>
OC(=O)C1CC2CC1C3(C2)NC(=O)NC3=O

> <MDLNUMBER>
MFCD30180414

> <IUPAC Name>
2',5'-dioxospiro[bicyclo[2.2.1]heptane-2,4'-imidazolidine]-6-carboxylic acid

> <CAS>
1955557-20-6

> <URL>
https://www.enaminestore.com/catalog/EN300-267935

> <ROCS_ShapeQuery>
_x1247relevant_x1083L0AP1_x1305L0BP1_

> <ROCS_TanimotoCombo>
0.821 

> <ROCS_ShapeTanimoto>
0.524 

> <ROCS_ColorTanimoto>
0.297 

> <ROCS_RefTversky>
0.444 

> <ROCS_RefColorTversky>
0.386 

> <ROCS_RefTverskyCombo>
0.830 

> <ROCS_FitTversky>
1.521 

> <ROCS_FitColorTversky>
0.564 

> <ROCS_FitTverskyCombo>
2.084 

> <ROCS_ColorScore>
-8.287

> <ROCS_Overlap>
1310.053

> <ROCS_Rank>
409                 

$$$$
untitled-dbase-117561_5
  -OEChem-06232314393D

 25 27  0     1  0  0  0  0  0999 V2000
   -9.8405   15.2123  -36.3275 C   0  0  0  0  0  0  0  0  0  0  0  0
  -14.0090   14.4302  -37.5732 C   0  0  0  0  0  0  0  0  0  0  0  0
  -14.0233   15.9709  -37.5500 C   0  0  0  0  0  0  0  0  0  0  0  0
  -13.1913   14.5775  -39.9165 C   0  0  0  0  0  0  0  0  0  0  0  0
  -11.2252   15.2126  -36.8211 C   0  0  2  0  0  0  0  0  0  0  0  0
  -12.9010   13.9508  -38.5294 C   0  0  1  0  0  0  0  0  0  0  0  0
  -11.5351   14.4666  -38.1032 C   0  0  1  0  0  0  0  0  0  0  0  0
  -11.5395   15.9722  -38.0921 C   0  0  1  0  0  0  0  0  0  0  0  0
  -12.9090   16.5208  -38.4623 C   0  0  1  0  0  0  0  0  0  0  0  0
  -13.2041   16.0571  -39.8382 N   0  0  0  0  0  0  0  0  0  0  0  0
   -8.8899   15.7200  -36.9038 O   0  0  0  0  0  0  0  0  0  0  0  0
   -9.7561   14.5662  -35.1390 O   0  0  0  0  0  0  0  0  0  0  0  0
  -13.8515   14.0355  -36.5631 H   0  0  0  0  0  0  0  0  0  0  0  0
  -14.9853   14.0570  -37.9054 H   0  0  0  0  0  0  0  0  0  0  0  0
  -15.0036   16.3371  -37.8802 H   0  0  0  0  0  0  0  0  0  0  0  0
  -13.8919   16.3301  -36.5226 H   0  0  0  0  0  0  0  0  0  0  0  0
  -12.4256   14.2650  -40.6368 H   0  0  0  0  0  0  0  0  0  0  0  0
  -14.1593   14.2348  -40.2983 H   0  0  0  0  0  0  0  0  0  0  0  0
  -11.9565   15.2039  -36.0252 H   0  0  0  0  0  0  0  0  0  0  0  0
  -12.8912   12.8578  -38.5899 H   0  0  0  0  0  0  0  0  0  0  0  0
  -10.7249   13.9727  -38.6271 H   0  0  0  0  0  0  0  0  0  0  0  0
  -10.7324   16.4827  -38.6050 H   0  0  0  0  0  0  0  0  0  0  0  0
  -12.9014   17.6149  -38.4312 H   0  0  0  0  0  0  0  0  0  0  0  0
  -12.5124   16.4369  -40.4841 H   0  0  0  0  0  0  0  0  0  0  0  0
  -10.6284   14.2296  -34.8421 H   0  0  0  0  0  0  0  0  0  0  0  0
  1  5  1  0  0  0  0
  1 11  2  0  0  0  0
  1 12  1  0  0  0  0
  2  3  1  0  0  0  0
  2  6  1  0  0  0  0
  3  9  1  0  0  0  0
  4  6  1  0  0  0  0
  4 10  1  0  0  0  0
  5  7  1  0  0  0  0
  5  8  1  0  0  0  0
  6  7  1  0  0  0  0
  7  8  1  0  0  0  0
  8  9  1  0  0  0  0
  9 10  1  0  0  0  0
  2 13  1  0  0  0  0
  2 14  1  0  0  0  0
  3 15  1  0  0  0  0
  3 16  1  0  0  0  0
  4 17  1  0  0  0  0
  4 18  1  0  0  0  0
  5 19  1  0  0  0  0
  6 20  1  0  0  0  0
  7 21  1  0  0  0  0
  8 22  1  0  0  0  0
  9 23  1  0  0  0  0
 10 24  1  0  0  0  0
 12 25  1  0  0  0  0
M  END
> <id>
EN300-39671531

> <smiles>
OC(=O)C1C2C1C3CCC2CN3

> <IUPAC Name>
6-azatricyclo[3.2.2.0,2,4]nonane-3-carboxylic acid

> <URL>
https://www.enaminestore.com/catalog/EN300-39671531

> <ROCS_ShapeQuery>
_x1247relevant_x1083L0AP1_x1305L0BP1_

> <ROCS_TanimotoCombo>
0.821 

> <ROCS_ShapeTanimoto>
0.456 

> <ROCS_ColorTanimoto>
0.365 

> <ROCS_RefTversky>
0.384 

> <ROCS_RefColorTversky>
0.529 

> <ROCS_RefTverskyCombo>
0.913 

> <ROCS_FitTversky>
1.697 

> <ROCS_FitColorTversky>
0.542 

> <ROCS_FitTverskyCombo>
2.239 

> <ROCS_ColorScore>
-11.538

> <ROCS_Overlap>
1128.219

> <ROCS_Rank>
410                 

$$$$
untitled-dbase-151056_25
  -OEChem-06232314393D

 25 26  0     1  0  0  0  0  0999 V2000
  -13.5179   15.6324  -39.2027 C   0  0  0  0  0  0  0  0  0  0  0  0
  -10.2320   15.3241  -36.6615 C   0  0  0  0  0  0  0  0  0  0  0  0
  -10.3454   16.0670  -39.7310 C   0  0  0  0  0  0  0  0  0  0  0  0
  -13.8572   16.0352  -37.7769 C   0  0  0  0  0  0  0  0  0  0  0  0
  -12.6940   13.9494  -37.8473 C   0  0  0  0  0  0  0  0  0  0  0  0
  -12.3803   14.6254  -39.1774 C   0  0  2  0  0  0  0  0  0  0  0  0
  -11.3677   15.9030  -37.4486 C   0  0  2  0  0  0  0  0  0  0  0  0
  -12.7232   15.2696  -37.0529 C   0  0  1  0  0  0  0  0  0  0  0  0
  -10.8716   16.3475  -41.1147 C   0  0  0  0  0  0  0  0  0  0  0  0
  -11.2500   15.4997  -38.8533 N   0  0  0  0  0  0  0  0  0  0  0  0
  -14.0393   16.0906  -40.2071 O   0  0  0  0  0  0  0  0  0  0  0  0
  -10.3502   14.5407  -35.7311 O   0  0  0  0  0  0  0  0  0  0  0  0
   -9.1764   16.3277  -39.4427 O   0  0  0  0  0  0  0  0  0  0  0  0
   -9.0448   15.7905  -37.1203 O   0  0  0  0  0  0  0  0  0  0  0  0
  -12.1603   15.9748  -41.2157 F   0  0  0  0  0  0  0  0  0  0  0  0
  -10.7898   17.6604  -41.3970 F   0  0  0  0  0  0  0  0  0  0  0  0
  -10.1648   15.6736  -42.0402 F   0  0  0  0  0  0  0  0  0  0  0  0
  -13.7898   17.1164  -37.6400 H   0  0  0  0  0  0  0  0  0  0  0  0
  -14.8451   15.6515  -37.5102 H   0  0  0  0  0  0  0  0  0  0  0  0
  -13.6602   13.4321  -37.8370 H   0  0  0  0  0  0  0  0  0  0  0  0
  -11.9094   13.2590  -37.5233 H   0  0  0  0  0  0  0  0  0  0  0  0
  -12.2919   14.0055  -40.0669 H   0  0  0  0  0  0  0  0  0  0  0  0
  -11.3493   16.9935  -37.3541 H   0  0  0  0  0  0  0  0  0  0  0  0
  -12.8786   15.1517  -35.9783 H   0  0  0  0  0  0  0  0  0  0  0  0
   -9.1604   16.4092  -37.8728 H   0  0  0  0  0  0  0  0  0  0  0  0
  1  4  1  0  0  0  0
  1  6  1  0  0  0  0
  1 11  2  0  0  0  0
  2  7  1  1  0  0  0
  2 12  2  0  0  0  0
  2 14  1  0  0  0  0
  3  9  1  0  0  0  0
  3 10  1  0  0  0  0
  3 13  2  0  0  0  0
  4  8  1  6  0  0  0
  5  6  1  0  0  0  0
  5  8  1  0  0  0  0
  6 10  1  6  0  0  0
  7  8  1  0  0  0  0
  7 10  1  0  0  0  0
  9 15  1  0  0  0  0
  9 16  1  0  0  0  0
  9 17  1  0  0  0  0
  4 18  1  0  0  0  0
  4 19  1  0  0  0  0
  5 20  1  0  0  0  0
  5 21  1  0  0  0  0
  6 22  1  0  0  0  0
  7 23  1  0  0  0  0
  8 24  1  0  0  0  0
 14 25  1  0  0  0  0
M  END
> <id>
EN300-28278654

> <smiles>
OC(=O)[C@@H]1[C@@H]2C[C@H](N1C(=O)C(F)(F)F)C(=O)C2 |&1:3,4,6,r|

> <IUPAC Name>
rac-(1R,3R,4S)-6-oxo-2-(2,2,2-trifluoroacetyl)-2-azabicyclo[2.2.1]heptane-3-carboxylic acid

> <CAS>
2679801-86-4

> <URL>
https://www.enaminestore.com/catalog/EN300-28278654

> <ROCS_ShapeQuery>
_x1247relevant_x1083L0AP1_x1305L0BP1_

> <ROCS_TanimotoCombo>
0.821 

> <ROCS_ShapeTanimoto>
0.488 

> <ROCS_ColorTanimoto>
0.333 

> <ROCS_RefTversky>
0.429 

> <ROCS_RefColorTversky>
0.390 

> <ROCS_RefTverskyCombo>
0.819 

> <ROCS_FitTversky>
1.394 

> <ROCS_FitColorTversky>
0.696 

> <ROCS_FitTverskyCombo>
2.089 

> <ROCS_ColorScore>
-8.314

> <ROCS_Overlap>
1265.932

> <ROCS_Rank>
411                 

$$$$
untitled-dbase-58903_1
  -OEChem-06232314393D

 32 34  0     1  0  0  0  0  0999 V2000
  -13.6548   16.1332  -39.6336 C   0  0  0  0  0  0  0  0  0  0  0  0
  -12.8827   14.8582  -40.0050 C   0  0  0  0  0  0  0  0  0  0  0  0
  -13.8016   14.5807  -37.8353 C   0  0  0  0  0  0  0  0  0  0  0  0
  -12.2838   16.3903  -37.5490 C   0  0  0  0  0  0  0  0  0  0  0  0
   -8.8417   13.5655  -37.9028 C   0  0  0  0  0  0  0  0  0  0  0  0
   -7.9694   14.5380  -37.1197 C   0  0  0  0  0  0  0  0  0  0  0  0
   -9.8496   15.4279  -36.0264 C   0  0  0  0  0  0  0  0  0  0  0  0
  -13.6891   16.0813  -38.0967 C   0  0  1  0  0  0  0  0  0  0  0  0
  -12.5369   14.2521  -38.6318 C   0  0  2  0  0  0  0  0  0  0  0  0
  -11.4666   15.1472  -37.9622 C   0  0  2  0  0  0  0  0  0  0  0  0
  -10.7916   14.4721  -36.7654 C   0  0  1  0  0  0  0  0  0  0  0  0
  -10.0746   13.2529  -37.1728 N   0  0  0  0  0  0  0  0  0  0  0  0
   -8.6998   15.7279  -36.8196 O   0  0  0  0  0  0  0  0  0  0  0  0
  -13.1653   17.0360  -40.0123 H   0  0  0  0  0  0  0  0  0  0  0  0
  -14.6682   16.0931  -40.0486 H   0  0  0  0  0  0  0  0  0  0  0  0
  -13.5271   14.1810  -40.5773 H   0  0  0  0  0  0  0  0  0  0  0  0
  -11.9957   15.0741  -40.6087 H   0  0  0  0  0  0  0  0  0  0  0  0
  -13.7348   14.3201  -36.7747 H   0  0  0  0  0  0  0  0  0  0  0  0
  -14.7070   14.1358  -38.2619 H   0  0  0  0  0  0  0  0  0  0  0  0
  -11.8683   17.3084  -37.9773 H   0  0  0  0  0  0  0  0  0  0  0  0
  -12.3159   16.5088  -36.4597 H   0  0  0  0  0  0  0  0  0  0  0  0
   -9.0966   13.9910  -38.8829 H   0  0  0  0  0  0  0  0  0  0  0  0
   -8.2928   12.6312  -38.0933 H   0  0  0  0  0  0  0  0  0  0  0  0
   -7.6661   14.0857  -36.1702 H   0  0  0  0  0  0  0  0  0  0  0  0
   -7.0565   14.7980  -37.6695 H   0  0  0  0  0  0  0  0  0  0  0  0
  -10.3506   16.3665  -35.7457 H   0  0  0  0  0  0  0  0  0  0  0  0
   -9.4937   14.9633  -35.0974 H   0  0  0  0  0  0  0  0  0  0  0  0
  -14.4747   16.6976  -37.6553 H   0  0  0  0  0  0  0  0  0  0  0  0
  -12.2734   13.1933  -38.6804 H   0  0  0  0  0  0  0  0  0  0  0  0
  -10.6866   15.4253  -38.6813 H   0  0  0  0  0  0  0  0  0  0  0  0
  -11.5994   14.1605  -36.0554 H   0  0  0  0  0  0  0  0  0  0  0  0
  -10.6844   12.6927  -37.7774 H   0  0  0  0  0  0  0  0  0  0  0  0
  1  2  1  0  0  0  0
  1  8  1  0  0  0  0
  2  9  1  0  0  0  0
  3  8  1  0  0  0  0
  3  9  1  0  0  0  0
  4  8  1  0  0  0  0
  4 10  1  0  0  0  0
  5  6  1  0  0  0  0
  5 12  1  0  0  0  0
  6 13  1  0  0  0  0
  7 11  1  0  0  0  0
  7 13  1  0  0  0  0
  9 10  1  0  0  0  0
 10 11  1  0  0  0  0
 11 12  1  0  0  0  0
  1 14  1  0  0  0  0
  1 15  1  0  0  0  0
  2 16  1  0  0  0  0
  2 17  1  0  0  0  0
  3 18  1  0  0  0  0
  3 19  1  0  0  0  0
  4 20  1  0  0  0  0
  4 21  1  0  0  0  0
  5 22  1  0  0  0  0
  5 23  1  0  0  0  0
  6 24  1  0  0  0  0
  6 25  1  0  0  0  0
  7 26  1  0  0  0  0
  7 27  1  0  0  0  0
  8 28  1  0  0  0  0
  9 29  1  0  0  0  0
 10 30  1  0  0  0  0
 11 31  1  0  0  0  0
 12 32  1  0  0  0  0
M  END
> <id>
EN300-1746395

> <smiles>
C1CC2CC1CC2C3COCCN3

> <IUPAC Name>
3-{bicyclo[2.2.1]heptan-2-yl}morpholine

> <CAS>
1936680-34-0

> <URL>
https://www.enaminestore.com/catalog/EN300-1746395

> <ROCS_ShapeQuery>
_x1247relevant_x1083L0AP1_x1305L0BP1_

> <ROCS_TanimotoCombo>
0.821 

> <ROCS_ShapeTanimoto>
0.461 

> <ROCS_ColorTanimoto>
0.360 

> <ROCS_RefTversky>
0.391 

> <ROCS_RefColorTversky>
0.400 

> <ROCS_RefTverskyCombo>
0.791 

> <ROCS_FitTversky>
1.642 

> <ROCS_FitColorTversky>
0.781 

> <ROCS_FitTverskyCombo>
2.423 

> <ROCS_ColorScore>
-8.510

> <ROCS_Overlap>
1149.070

> <ROCS_Rank>
412                 

$$$$
untitled-dbase-129626_3
  -OEChem-06232314393D

 23 25  0     1  0  0  0  0  0999 V2000
  -14.8795   15.6700  -38.4831 C   0  0  0  0  0  0  0  0  0  0  0  0
  -11.1501   15.4627  -39.1265 C   0  0  0  0  0  0  0  0  0  0  0  0
  -13.5851   15.9705  -39.1908 C   0  0  1  0  0  0  0  0  0  0  0  0
  -13.6395   16.0152  -37.7016 C   0  0  2  0  0  0  0  0  0  0  0  0
  -11.2026   15.5373  -37.5780 C   0  0  1  0  0  0  0  0  0  0  0  0
  -12.5419   14.9104  -39.4622 C   0  0  2  0  0  0  0  0  0  0  0  0
  -12.6127   14.9802  -37.2952 C   0  0  2  0  0  0  0  0  0  0  0  0
  -10.1117   14.6890  -36.9344 C   0  0  0  0  0  0  0  0  0  0  0  0
  -10.2718   13.3245  -37.3128 N   0  0  0  0  0  0  0  0  0  0  0  0
  -12.7125   13.9920  -38.3534 O   0  0  0  0  0  0  0  0  0  0  0  0
  -15.6635   16.4161  -38.5342 H   0  0  0  0  0  0  0  0  0  0  0  0
  -15.2420   14.6500  -38.4652 H   0  0  0  0  0  0  0  0  0  0  0  0
  -10.9655   16.4412  -39.5810 H   0  0  0  0  0  0  0  0  0  0  0  0
  -10.3714   14.7682  -39.4609 H   0  0  0  0  0  0  0  0  0  0  0  0
  -13.4776   16.8865  -39.7508 H   0  0  0  0  0  0  0  0  0  0  0  0
  -13.5742   16.9634  -37.1907 H   0  0  0  0  0  0  0  0  0  0  0  0
  -11.1014   16.5716  -37.2292 H   0  0  0  0  0  0  0  0  0  0  0  0
  -12.6314   14.4121  -40.4296 H   0  0  0  0  0  0  0  0  0  0  0  0
  -12.7717   14.5426  -36.3071 H   0  0  0  0  0  0  0  0  0  0  0  0
   -9.1533   15.0721  -37.2833 H   0  0  0  0  0  0  0  0  0  0  0  0
  -10.2077   14.7998  -35.8548 H   0  0  0  0  0  0  0  0  0  0  0  0
  -10.3854   12.7503  -36.4970 H   0  0  0  0  0  0  0  0  0  0  0  0
  -11.0821   13.2209  -37.8969 H   0  0  0  0  0  0  0  0  0  0  0  0
  1  3  1  0  0  0  0
  1  4  1  0  0  0  0
  2  5  1  0  0  0  0
  2  6  1  0  0  0  0
  3  4  1  0  0  0  0
  3  6  1  0  0  0  0
  4  7  1  0  0  0  0
  5  7  1  0  0  0  0
  5  8  1  0  0  0  0
  6 10  1  0  0  0  0
  7 10  1  0  0  0  0
  8  9  1  0  0  0  0
  1 11  1  0  0  0  0
  1 12  1  0  0  0  0
  2 13  1  0  0  0  0
  2 14  1  0  0  0  0
  3 15  1  0  0  0  0
  4 16  1  0  0  0  0
  5 17  1  0  0  0  0
  6 18  1  0  0  0  0
  7 19  1  0  0  0  0
  8 20  1  0  0  0  0
  8 21  1  0  0  0  0
  9 22  1  0  0  0  0
  9 23  1  0  0  0  0
M  END
> <id>
EN300-708644

> <smiles>
NCC1CC2OC1C3CC32

> <IUPAC Name>
{8-oxatricyclo[3.2.1.0,2,4]octan-6-yl}methanamine

> <CAS>
2274001-11-3

> <URL>
https://www.enaminestore.com/catalog/EN300-708644

> <ROCS_ShapeQuery>
_x1247relevant_x1083L0AP1_x1305L0BP1_

> <ROCS_TanimotoCombo>
0.821 

> <ROCS_ShapeTanimoto>
0.415 

> <ROCS_ColorTanimoto>
0.406 

> <ROCS_RefTversky>
0.352 

> <ROCS_RefColorTversky>
0.558 

> <ROCS_RefTverskyCombo>
0.909 

> <ROCS_FitTversky>
1.766 

> <ROCS_FitColorTversky>
0.599 

> <ROCS_FitTverskyCombo>
2.365 

> <ROCS_ColorScore>
-12.141

> <ROCS_Overlap>
1031.321

> <ROCS_Rank>
413                 

$$$$
untitled-dbase-128128_3
  -OEChem-06232314393D

 23 25  0     1  0  0  0  0  0999 V2000
  -14.8795   15.6700  -38.4831 C   0  0  0  0  0  0  0  0  0  0  0  0
  -11.1501   15.4627  -39.1265 C   0  0  0  0  0  0  0  0  0  0  0  0
  -13.5851   15.9705  -39.1908 C   0  0  1  0  0  0  0  0  0  0  0  0
  -13.6395   16.0152  -37.7016 C   0  0  2  0  0  0  0  0  0  0  0  0
  -11.2026   15.5373  -37.5780 C   0  0  1  0  0  0  0  0  0  0  0  0
  -12.5419   14.9104  -39.4622 C   0  0  2  0  0  0  0  0  0  0  0  0
  -12.6127   14.9802  -37.2952 C   0  0  2  0  0  0  0  0  0  0  0  0
  -10.1117   14.6890  -36.9344 C   0  0  0  0  0  0  0  0  0  0  0  0
  -10.2718   13.3245  -37.3128 N   0  0  0  0  0  0  0  0  0  0  0  0
  -12.7125   13.9920  -38.3534 O   0  0  0  0  0  0  0  0  0  0  0  0
  -15.6635   16.4161  -38.5342 H   0  0  0  0  0  0  0  0  0  0  0  0
  -15.2420   14.6500  -38.4652 H   0  0  0  0  0  0  0  0  0  0  0  0
  -10.9655   16.4412  -39.5810 H   0  0  0  0  0  0  0  0  0  0  0  0
  -10.3714   14.7682  -39.4609 H   0  0  0  0  0  0  0  0  0  0  0  0
  -13.4776   16.8865  -39.7508 H   0  0  0  0  0  0  0  0  0  0  0  0
  -13.5742   16.9634  -37.1907 H   0  0  0  0  0  0  0  0  0  0  0  0
  -11.1014   16.5716  -37.2292 H   0  0  0  0  0  0  0  0  0  0  0  0
  -12.6314   14.4121  -40.4296 H   0  0  0  0  0  0  0  0  0  0  0  0
  -12.7717   14.5426  -36.3071 H   0  0  0  0  0  0  0  0  0  0  0  0
   -9.1533   15.0721  -37.2833 H   0  0  0  0  0  0  0  0  0  0  0  0
  -10.2077   14.7998  -35.8548 H   0  0  0  0  0  0  0  0  0  0  0  0
  -10.3854   12.7503  -36.4970 H   0  0  0  0  0  0  0  0  0  0  0  0
  -11.0821   13.2209  -37.8969 H   0  0  0  0  0  0  0  0  0  0  0  0
  1  3  1  0  0  0  0
  1  4  1  0  0  0  0
  2  5  1  0  0  0  0
  2  6  1  0  0  0  0
  3  4  1  0  0  0  0
  3  6  1  0  0  0  0
  4  7  1  0  0  0  0
  5  7  1  0  0  0  0
  5  8  1  0  0  0  0
  6 10  1  0  0  0  0
  7 10  1  0  0  0  0
  8  9  1  0  0  0  0
  1 11  1  0  0  0  0
  1 12  1  0  0  0  0
  2 13  1  0  0  0  0
  2 14  1  0  0  0  0
  3 15  1  0  0  0  0
  4 16  1  0  0  0  0
  5 17  1  0  0  0  0
  6 18  1  0  0  0  0
  7 19  1  0  0  0  0
  8 20  1  0  0  0  0
  8 21  1  0  0  0  0
  9 22  1  0  0  0  0
  9 23  1  0  0  0  0
M  END
> <id>
EN300-6501393

> <smiles>
Cl.NCC1CC2OC1C3CC32

> <IUPAC Name>
{8-oxatricyclo[3.2.1.0,2,4]octan-6-yl}methanamine hydrochloride

> <CAS>
2287275-18-5

> <URL>
https://www.enaminestore.com/catalog/EN300-6501393

> <Saltdate>
Cl

> <ROCS_ShapeQuery>
_x1247relevant_x1083L0AP1_x1305L0BP1_

> <ROCS_TanimotoCombo>
0.821 

> <ROCS_ShapeTanimoto>
0.415 

> <ROCS_ColorTanimoto>
0.406 

> <ROCS_RefTversky>
0.352 

> <ROCS_RefColorTversky>
0.558 

> <ROCS_RefTverskyCombo>
0.909 

> <ROCS_FitTversky>
1.766 

> <ROCS_FitColorTversky>
0.599 

> <ROCS_FitTverskyCombo>
2.365 

> <ROCS_ColorScore>
-12.141

> <ROCS_Overlap>
1031.321

> <ROCS_Rank>
414                 

$$$$
untitled-dbase-135801_1
  -OEChem-06232314393D

 19 21  0     1  0  0  0  0  0999 V2000
  -12.6508   16.1184  -39.4466 C   0  0  0  0  0  0  0  0  0  0  0  0
  -10.4362   15.1308  -36.6265 C   0  0  0  0  0  0  0  0  0  0  0  0
  -13.8931   14.6791  -38.0504 C   0  0  0  0  0  0  0  0  0  0  0  0
  -11.6387   14.1144  -38.7291 C   0  0  0  0  0  0  0  0  0  0  0  0
  -12.9864   14.6363  -39.3193 C   0  0  2  0  0  0  0  0  0  0  0  0
  -12.1668   16.3968  -38.0714 C   0  0  1  0  0  0  0  0  0  0  0  0
  -12.9306   15.4592  -37.1761 C   0  0  2  0  0  0  0  0  0  0  0  0
  -11.5363   15.1126  -37.5833 C   0  0  2  0  0  0  0  0  0  0  0  0
  -12.7344   16.8914  -40.3762 O   0  0  0  0  0  0  0  0  0  0  0  0
  -10.5539   14.9846  -35.4189 O   0  0  0  0  0  0  0  0  0  0  0  0
   -9.2550   15.3358  -37.2589 O   0  0  0  0  0  0  0  0  0  0  0  0
  -14.8241   15.2301  -38.2162 H   0  0  0  0  0  0  0  0  0  0  0  0
  -14.0977   13.6832  -37.6469 H   0  0  0  0  0  0  0  0  0  0  0  0
  -11.7136   13.0832  -38.3702 H   0  0  0  0  0  0  0  0  0  0  0  0
  -10.8056   14.2199  -39.4318 H   0  0  0  0  0  0  0  0  0  0  0  0
  -13.3761   14.1494  -40.2098 H   0  0  0  0  0  0  0  0  0  0  0  0
  -11.8473   17.3668  -37.7334 H   0  0  0  0  0  0  0  0  0  0  0  0
  -13.2121   15.7198  -36.1745 H   0  0  0  0  0  0  0  0  0  0  0  0
   -8.5015   15.3532  -36.6311 H   0  0  0  0  0  0  0  0  0  0  0  0
  1  5  1  0  0  0  0
  1  6  1  0  0  0  0
  1  9  2  0  0  0  0
  2  8  1  0  0  0  0
  2 10  2  0  0  0  0
  2 11  1  0  0  0  0
  3  5  1  0  0  0  0
  3  7  1  0  0  0  0
  4  5  1  0  0  0  0
  4  8  1  0  0  0  0
  6  7  1  0  0  0  0
  6  8  1  0  0  0  0
  7  8  1  0  0  0  0
  3 12  1  0  0  0  0
  3 13  1  0  0  0  0
  4 14  1  0  0  0  0
  4 15  1  0  0  0  0
  5 16  1  0  0  0  0
  6 17  1  0  0  0  0
  7 18  1  0  0  0  0
 11 19  1  0  0  0  0
M  END
> <id>
EN300-7731937

> <smiles>
OC(=O)C12CC3CC2C1C3=O

> <MDLNUMBER>
MFCD24511734

> <IUPAC Name>
3-oxotricyclo[2.2.1.0,2,6]heptane-1-carboxylic acid

> <CAS>
22630-90-6

> <Purity>
95

> <URL>
https://www.enaminestore.com/catalog/EN300-7731937

> <ROCS_ShapeQuery>
_x1247relevant_x1083L0AP1_x1305L0BP1_

> <ROCS_TanimotoCombo>
0.821 

> <ROCS_ShapeTanimoto>
0.455 

> <ROCS_ColorTanimoto>
0.366 

> <ROCS_RefTversky>
0.381 

> <ROCS_RefColorTversky>
0.647 

> <ROCS_RefTverskyCombo>
1.028 

> <ROCS_FitTversky>
1.746 

> <ROCS_FitColorTversky>
0.457 

> <ROCS_FitTverskyCombo>
2.203 

> <ROCS_ColorScore>
-14.476

> <ROCS_Overlap>
1118.445

> <ROCS_Rank>
415                 

$$$$
untitled-dbase-46374_1
  -OEChem-06232314393D

 29 30  0     1  0  0  0  0  0999 V2000
  -10.9091   14.8288  -38.0756 C   0  0  0  0  0  0  0  0  0  0  0  0
  -10.0284   14.1806  -37.2974 C   0  0  0  0  0  0  0  0  0  0  0  0
   -9.5040   14.8319  -36.0829 C   0  0  0  0  0  0  0  0  0  0  0  0
  -11.4690   14.1870  -39.3335 C   0  0  0  0  0  0  0  0  0  0  0  0
  -11.4337   16.2027  -37.6951 C   0  0  0  0  0  0  0  0  0  0  0  0
  -13.7462   13.9869  -38.2076 C   0  0  0  0  0  0  0  0  0  0  0  0
  -13.7246   15.1886  -37.2301 C   0  0  0  0  0  0  0  0  0  0  0  0
  -12.9899   14.3877  -39.4916 C   0  0  1  0  0  0  0  0  0  0  0  0
  -12.9556   16.3481  -37.8977 C   0  0  2  0  0  0  0  0  0  0  0  0
   -7.7238   16.2119  -35.3761 C   0  0  0  0  0  0  0  0  0  0  0  0
  -10.0000   14.7629  -34.9695 O   0  0  0  0  0  0  0  0  0  0  0  0
  -12.3577   16.7953  -40.4638 O   0  0  0  0  0  0  0  0  0  0  0  0
  -14.7635   16.3282  -39.8375 O   0  0  0  0  0  0  0  0  0  0  0  0
   -8.3798   15.5105  -36.4376 O   0  0  0  0  0  0  0  0  0  0  0  0
  -13.3424   16.1373  -39.6331 S   0  0  0  0  0  0  0  0  0  0  0  0
   -9.6993   13.1836  -37.5551 H   0  0  0  0  0  0  0  0  0  0  0  0
  -10.9462   14.6078  -40.2011 H   0  0  0  0  0  0  0  0  0  0  0  0
  -11.2601   13.1097  -39.3336 H   0  0  0  0  0  0  0  0  0  0  0  0
  -11.2020   16.4185  -36.6444 H   0  0  0  0  0  0  0  0  0  0  0  0
  -10.9052   16.9550  -38.2935 H   0  0  0  0  0  0  0  0  0  0  0  0
  -13.3286   13.0847  -37.7475 H   0  0  0  0  0  0  0  0  0  0  0  0
  -14.7906   13.7585  -38.4548 H   0  0  0  0  0  0  0  0  0  0  0  0
  -14.7592   15.4990  -37.0375 H   0  0  0  0  0  0  0  0  0  0  0  0
  -13.2947   14.9128  -36.2610 H   0  0  0  0  0  0  0  0  0  0  0  0
  -13.3697   13.8717  -40.3772 H   0  0  0  0  0  0  0  0  0  0  0  0
  -13.3096   17.3281  -37.5670 H   0  0  0  0  0  0  0  0  0  0  0  0
   -6.8384   16.7196  -35.7664 H   0  0  0  0  0  0  0  0  0  0  0  0
   -7.4363   15.5047  -34.5940 H   0  0  0  0  0  0  0  0  0  0  0  0
   -8.4118   16.9518  -34.9605 H   0  0  0  0  0  0  0  0  0  0  0  0
  1  2  2  0  0  0  0
  1  4  1  0  0  0  0
  1  5  1  0  0  0  0
  2  3  1  0  0  0  0
  3 11  2  0  0  0  0
  3 14  1  0  0  0  0
  4  8  1  0  0  0  0
  5  9  1  0  0  0  0
  6  7  1  0  0  0  0
  6  8  1  0  0  0  0
  7  9  1  0  0  0  0
  8 15  1  0  0  0  0
  9 15  1  0  0  0  0
 10 14  1  0  0  0  0
 12 15  2  0  0  0  0
 13 15  2  0  0  0  0
  2 16  1  0  0  0  0
  4 17  1  0  0  0  0
  4 18  1  0  0  0  0
  5 19  1  0  0  0  0
  5 20  1  0  0  0  0
  6 21  1  0  0  0  0
  6 22  1  0  0  0  0
  7 23  1  0  0  0  0
  7 24  1  0  0  0  0
  8 25  1  0  0  0  0
  9 26  1  0  0  0  0
 10 27  1  0  0  0  0
 10 28  1  0  0  0  0
 10 29  1  0  0  0  0
M  END
> <id>
EN300-1455282

> <smiles>
COC(=O)C=C1CC2CCC(C1)S2(=O)=O

> <IUPAC Name>
methyl 2-{8,8-dioxo-8lambda6-thiabicyclo[3.2.1]octan-3-ylidene}acetate

> <CAS>
2168875-99-6

> <URL>
https://www.enaminestore.com/catalog/EN300-1455282

> <ROCS_ShapeQuery>
_x1247relevant_x1083L0AP1_x1305L0BP1_

> <ROCS_TanimotoCombo>
0.821 

> <ROCS_ShapeTanimoto>
0.463 

> <ROCS_ColorTanimoto>
0.358 

> <ROCS_RefTversky>
0.398 

> <ROCS_RefColorTversky>
0.381 

> <ROCS_RefTverskyCombo>
0.778 

> <ROCS_FitTversky>
1.546 

> <ROCS_FitColorTversky>
0.860 

> <ROCS_FitTverskyCombo>
2.406 

> <ROCS_ColorScore>
-8.065

> <ROCS_Overlap>
1170.167

> <ROCS_Rank>
416                 

$$$$
untitled-dbase-129413_2
  -OEChem-06232314393D

 34 36  0     1  0  0  0  0  0999 V2000
  -13.7257   14.9959  -39.9411 C   0  0  0  0  0  0  0  0  0  0  0  0
  -13.3681   17.0686  -38.5759 C   0  0  0  0  0  0  0  0  0  0  0  0
  -14.2603   14.9912  -37.4912 C   0  0  0  0  0  0  0  0  0  0  0  0
  -11.3971   15.7773  -39.4345 C   0  0  0  0  0  0  0  0  0  0  0  0
  -12.2911   13.6952  -38.3474 C   0  0  0  0  0  0  0  0  0  0  0  0
  -11.9329   15.7724  -36.9790 C   0  0  0  0  0  0  0  0  0  0  0  0
  -12.8325   16.2329  -39.7503 C   0  0  0  0  0  0  0  0  0  0  0  0
  -13.7290   14.1451  -38.6602 C   0  0  0  0  0  0  0  0  0  0  0  0
  -13.3697   16.2282  -37.2882 C   0  0  0  0  0  0  0  0  0  0  0  0
  -11.3725   14.9234  -38.1446 C   0  0  0  0  0  0  0  0  0  0  0  0
   -9.9431   14.4718  -37.8336 C   0  0  1  0  0  0  0  0  0  0  0  0
   -9.2287   15.4801  -36.9533 C   0  0  0  0  0  0  0  0  0  0  0  0
   -9.9831   13.1719  -37.1705 N   0  0  0  0  0  0  0  0  0  0  0  0
   -9.1664   16.6890  -37.5561 F   0  0  0  0  0  0  0  0  0  0  0  0
   -9.8508   15.6463  -35.7662 F   0  0  0  0  0  0  0  0  0  0  0  0
   -7.9584   15.0906  -36.7042 F   0  0  0  0  0  0  0  0  0  0  0  0
  -14.7487   15.3070  -40.1864 H   0  0  0  0  0  0  0  0  0  0  0  0
  -13.3634   14.3986  -40.7868 H   0  0  0  0  0  0  0  0  0  0  0  0
  -12.7483   17.9632  -38.4390 H   0  0  0  0  0  0  0  0  0  0  0  0
  -14.3847   17.4166  -38.7971 H   0  0  0  0  0  0  0  0  0  0  0  0
  -15.2926   15.3023  -37.6932 H   0  0  0  0  0  0  0  0  0  0  0  0
  -14.2825   14.3908  -36.5735 H   0  0  0  0  0  0  0  0  0  0  0  0
  -10.9996   15.2001  -40.2793 H   0  0  0  0  0  0  0  0  0  0  0  0
  -10.7486   16.6556  -39.3205 H   0  0  0  0  0  0  0  0  0  0  0  0
  -12.2894   13.0672  -37.4471 H   0  0  0  0  0  0  0  0  0  0  0  0
  -11.9141   13.0706  -39.1675 H   0  0  0  0  0  0  0  0  0  0  0  0
  -11.2964   16.6505  -36.8089 H   0  0  0  0  0  0  0  0  0  0  0  0
  -11.9232   15.1916  -36.0477 H   0  0  0  0  0  0  0  0  0  0  0  0
  -12.8357   16.8359  -40.6652 H   0  0  0  0  0  0  0  0  0  0  0  0
  -14.3685   13.2666  -38.8013 H   0  0  0  0  0  0  0  0  0  0  0  0
  -13.7541   16.8281  -36.4557 H   0  0  0  0  0  0  0  0  0  0  0  0
   -9.3972   14.3712  -38.7765 H   0  0  0  0  0  0  0  0  0  0  0  0
  -10.4451   12.5304  -37.7708 H   0  0  0  0  0  0  0  0  0  0  0  0
   -9.0493   12.8816  -36.9994 H   0  0  0  0  0  0  0  0  0  0  0  0
  1  7  1  0  0  0  0
  1  8  1  0  0  0  0
  2  7  1  0  0  0  0
  2  9  1  0  0  0  0
  3  8  1  0  0  0  0
  3  9  1  0  0  0  0
  4  7  1  0  0  0  0
  4 10  1  0  0  0  0
  5  8  1  0  0  0  0
  5 10  1  0  0  0  0
  6  9  1  0  0  0  0
  6 10  1  0  0  0  0
 10 11  1  0  0  0  0
 11 12  1  0  0  0  0
 11 13  1  0  0  0  0
 12 14  1  0  0  0  0
 12 15  1  0  0  0  0
 12 16  1  0  0  0  0
  1 17  1  0  0  0  0
  1 18  1  0  0  0  0
  2 19  1  0  0  0  0
  2 20  1  0  0  0  0
  3 21  1  0  0  0  0
  3 22  1  0  0  0  0
  4 23  1  0  0  0  0
  4 24  1  0  0  0  0
  5 25  1  0  0  0  0
  5 26  1  0  0  0  0
  6 27  1  0  0  0  0
  6 28  1  0  0  0  0
  7 29  1  0  0  0  0
  8 30  1  0  0  0  0
  9 31  1  0  0  0  0
 11 32  1  0  0  0  0
 13 33  1  0  0  0  0
 13 34  1  0  0  0  0
M  END
> <id>
EN300-6731503

> <smiles>
Cl.NC(C(F)(F)F)C1(CC2CC3CC(C2)C1)C3

> <IUPAC Name>
1-(adamantan-1-yl)-2,2,2-trifluoroethan-1-amine hydrochloride

> <CAS>
144647-63-2

> <Purity>
95

> <URL>
https://www.enaminestore.com/catalog/EN300-6731503

> <Saltdate>
Cl

> <MP>
260-262

> <ROCS_ShapeQuery>
_x1247relevant_x1083L0AP1_x1305L0BP1_

> <ROCS_TanimotoCombo>
0.821 

> <ROCS_ShapeTanimoto>
0.533 

> <ROCS_ColorTanimoto>
0.287 

> <ROCS_RefTversky>
0.448 

> <ROCS_RefColorTversky>
0.320 

> <ROCS_RefTverskyCombo>
0.768 

> <ROCS_FitTversky>
1.557 

> <ROCS_FitColorTversky>
0.741 

> <ROCS_FitTverskyCombo>
2.297 

> <ROCS_ColorScore>
-6.769

> <ROCS_Overlap>
1320.555

> <ROCS_Rank>
417                 

$$$$
untitled-dbase-89229_2
  -OEChem-06232314393D

 34 36  0     1  0  0  0  0  0999 V2000
  -13.7257   14.9959  -39.9411 C   0  0  0  0  0  0  0  0  0  0  0  0
  -13.3681   17.0686  -38.5759 C   0  0  0  0  0  0  0  0  0  0  0  0
  -14.2603   14.9912  -37.4912 C   0  0  0  0  0  0  0  0  0  0  0  0
  -11.3971   15.7773  -39.4345 C   0  0  0  0  0  0  0  0  0  0  0  0
  -12.2911   13.6952  -38.3474 C   0  0  0  0  0  0  0  0  0  0  0  0
  -11.9329   15.7724  -36.9790 C   0  0  0  0  0  0  0  0  0  0  0  0
  -12.8325   16.2329  -39.7503 C   0  0  0  0  0  0  0  0  0  0  0  0
  -13.7290   14.1451  -38.6602 C   0  0  0  0  0  0  0  0  0  0  0  0
  -13.3697   16.2282  -37.2882 C   0  0  0  0  0  0  0  0  0  0  0  0
  -11.3725   14.9234  -38.1446 C   0  0  0  0  0  0  0  0  0  0  0  0
   -9.9431   14.4718  -37.8336 C   0  0  1  0  0  0  0  0  0  0  0  0
   -9.2287   15.4801  -36.9533 C   0  0  0  0  0  0  0  0  0  0  0  0
   -9.9831   13.1719  -37.1705 N   0  0  0  0  0  0  0  0  0  0  0  0
   -9.1664   16.6890  -37.5561 F   0  0  0  0  0  0  0  0  0  0  0  0
   -9.8508   15.6463  -35.7662 F   0  0  0  0  0  0  0  0  0  0  0  0
   -7.9584   15.0906  -36.7042 F   0  0  0  0  0  0  0  0  0  0  0  0
  -14.7487   15.3070  -40.1864 H   0  0  0  0  0  0  0  0  0  0  0  0
  -13.3634   14.3986  -40.7868 H   0  0  0  0  0  0  0  0  0  0  0  0
  -12.7483   17.9632  -38.4390 H   0  0  0  0  0  0  0  0  0  0  0  0
  -14.3847   17.4166  -38.7971 H   0  0  0  0  0  0  0  0  0  0  0  0
  -15.2926   15.3023  -37.6932 H   0  0  0  0  0  0  0  0  0  0  0  0
  -14.2825   14.3908  -36.5735 H   0  0  0  0  0  0  0  0  0  0  0  0
  -10.9996   15.2001  -40.2793 H   0  0  0  0  0  0  0  0  0  0  0  0
  -10.7486   16.6556  -39.3205 H   0  0  0  0  0  0  0  0  0  0  0  0
  -12.2894   13.0672  -37.4471 H   0  0  0  0  0  0  0  0  0  0  0  0
  -11.9141   13.0706  -39.1675 H   0  0  0  0  0  0  0  0  0  0  0  0
  -11.2964   16.6505  -36.8089 H   0  0  0  0  0  0  0  0  0  0  0  0
  -11.9232   15.1916  -36.0477 H   0  0  0  0  0  0  0  0  0  0  0  0
  -12.8357   16.8359  -40.6652 H   0  0  0  0  0  0  0  0  0  0  0  0
  -14.3685   13.2666  -38.8013 H   0  0  0  0  0  0  0  0  0  0  0  0
  -13.7541   16.8281  -36.4557 H   0  0  0  0  0  0  0  0  0  0  0  0
   -9.3972   14.3712  -38.7765 H   0  0  0  0  0  0  0  0  0  0  0  0
  -10.4451   12.5304  -37.7708 H   0  0  0  0  0  0  0  0  0  0  0  0
   -9.0493   12.8816  -36.9994 H   0  0  0  0  0  0  0  0  0  0  0  0
  1  7  1  0  0  0  0
  1  8  1  0  0  0  0
  2  7  1  0  0  0  0
  2  9  1  0  0  0  0
  3  8  1  0  0  0  0
  3  9  1  0  0  0  0
  4  7  1  0  0  0  0
  4 10  1  0  0  0  0
  5  8  1  0  0  0  0
  5 10  1  0  0  0  0
  6  9  1  0  0  0  0
  6 10  1  0  0  0  0
 10 11  1  0  0  0  0
 11 12  1  0  0  0  0
 11 13  1  0  0  0  0
 12 14  1  0  0  0  0
 12 15  1  0  0  0  0
 12 16  1  0  0  0  0
  1 17  1  0  0  0  0
  1 18  1  0  0  0  0
  2 19  1  0  0  0  0
  2 20  1  0  0  0  0
  3 21  1  0  0  0  0
  3 22  1  0  0  0  0
  4 23  1  0  0  0  0
  4 24  1  0  0  0  0
  5 25  1  0  0  0  0
  5 26  1  0  0  0  0
  6 27  1  0  0  0  0
  6 28  1  0  0  0  0
  7 29  1  0  0  0  0
  8 30  1  0  0  0  0
  9 31  1  0  0  0  0
 11 32  1  0  0  0  0
 13 33  1  0  0  0  0
 13 34  1  0  0  0  0
M  END
> <id>
EN300-6731504

> <smiles>
NC(C(F)(F)F)C1(CC2CC3CC(C2)C1)C3

> <IUPAC Name>
1-(adamantan-1-yl)-2,2,2-trifluoroethan-1-amine

> <CAS>
144462-03-3

> <URL>
https://www.enaminestore.com/catalog/EN300-6731504

> <ROCS_ShapeQuery>
_x1247relevant_x1083L0AP1_x1305L0BP1_

> <ROCS_TanimotoCombo>
0.821 

> <ROCS_ShapeTanimoto>
0.533 

> <ROCS_ColorTanimoto>
0.287 

> <ROCS_RefTversky>
0.448 

> <ROCS_RefColorTversky>
0.320 

> <ROCS_RefTverskyCombo>
0.768 

> <ROCS_FitTversky>
1.557 

> <ROCS_FitColorTversky>
0.741 

> <ROCS_FitTverskyCombo>
2.297 

> <ROCS_ColorScore>
-6.769

> <ROCS_Overlap>
1320.555

> <ROCS_Rank>
418                 

$$$$
untitled-dbase-108877_6
  -OEChem-06232314393D

 25 27  0     1  0  0  0  0  0999 V2000
   -9.5645   17.0970  -39.8911 C   0  0  0  0  0  0  0  0  0  0  0  0
  -10.5337   16.5368  -39.4576 C   0  0  0  0  0  0  0  0  0  0  0  0
  -10.3054   15.2110  -36.7598 C   0  0  0  0  0  0  0  0  0  0  0  0
  -12.2907   14.7530  -39.8166 C   0  0  0  0  0  0  0  0  0  0  0  0
  -12.9705   16.7160  -38.8170 C   0  0  0  0  0  0  0  0  0  0  0  0
  -12.1444   13.7522  -37.7481 C   0  0  0  0  0  0  0  0  0  0  0  0
  -12.8209   15.7153  -36.7486 C   0  0  0  0  0  0  0  0  0  0  0  0
  -13.2250   14.2742  -38.6999 C   0  0  1  0  0  0  0  0  0  0  0  0
  -13.6968   15.6397  -38.0037 C   0  0  2  0  0  0  0  0  0  0  0  0
  -11.7036   15.8600  -38.9340 C   0  0  0  0  0  0  0  0  0  0  0  0
  -11.5998   15.1635  -37.4937 C   0  0  0  0  0  0  0  0  0  0  0  0
   -9.2728   15.7037  -37.1893 O   0  0  0  0  0  0  0  0  0  0  0  0
  -10.4238   14.6278  -35.5420 O   0  0  0  0  0  0  0  0  0  0  0  0
   -8.7048   17.5941  -40.2757 H   0  0  0  0  0  0  0  0  0  0  0  0
  -11.5559   14.0091  -40.1453 H   0  0  0  0  0  0  0  0  0  0  0  0
  -12.8246   15.1128  -40.7034 H   0  0  0  0  0  0  0  0  0  0  0  0
  -13.4586   16.9399  -39.7725 H   0  0  0  0  0  0  0  0  0  0  0  0
  -12.8203   17.6633  -38.2863 H   0  0  0  0  0  0  0  0  0  0  0  0
  -12.5517   13.2563  -36.8599 H   0  0  0  0  0  0  0  0  0  0  0  0
  -11.4156   13.0742  -38.2062 H   0  0  0  0  0  0  0  0  0  0  0  0
  -12.6739   16.7250  -36.3493 H   0  0  0  0  0  0  0  0  0  0  0  0
  -13.1788   15.0797  -35.9310 H   0  0  0  0  0  0  0  0  0  0  0  0
  -14.0039   13.5682  -38.9867 H   0  0  0  0  0  0  0  0  0  0  0  0
  -14.7678   15.7788  -37.8588 H   0  0  0  0  0  0  0  0  0  0  0  0
   -9.5796   14.6473  -35.0428 H   0  0  0  0  0  0  0  0  0  0  0  0
  1  2  3  0  0  0  0
  2 10  1  0  0  0  0
  3 11  1  0  0  0  0
  3 12  2  0  0  0  0
  3 13  1  0  0  0  0
  4  8  1  0  0  0  0
  4 10  1  0  0  0  0
  5  9  1  0  0  0  0
  5 10  1  0  0  0  0
  6  8  1  0  0  0  0
  6 11  1  0  0  0  0
  7  9  1  0  0  0  0
  7 11  1  0  0  0  0
  8  9  1  0  0  0  0
 10 11  1  0  0  0  0
  1 14  1  0  0  0  0
  4 15  1  0  0  0  0
  4 16  1  0  0  0  0
  5 17  1  0  0  0  0
  5 18  1  0  0  0  0
  6 19  1  0  0  0  0
  6 20  1  0  0  0  0
  7 21  1  0  0  0  0
  7 22  1  0  0  0  0
  8 23  1  0  0  0  0
  9 24  1  0  0  0  0
 13 25  1  0  0  0  0
M  END
> <id>
EN300-26865955

> <smiles>
OC(=O)C12CC3CC2(CC3C1)C#C

> <IUPAC Name>
5-ethynyltricyclo[3.3.0.0,3,7]octane-1-carboxylic acid

> <CAS>
2445793-34-8

> <URL>
https://www.enaminestore.com/catalog/EN300-26865955

> <ROCS_ShapeQuery>
_x1247relevant_x1083L0AP1_x1305L0BP1_

> <ROCS_TanimotoCombo>
0.821 

> <ROCS_ShapeTanimoto>
0.476 

> <ROCS_ColorTanimoto>
0.345 

> <ROCS_RefTversky>
0.403 

> <ROCS_RefColorTversky>
0.562 

> <ROCS_RefTverskyCombo>
0.965 

> <ROCS_FitTversky>
1.623 

> <ROCS_FitColorTversky>
0.471 

> <ROCS_FitTverskyCombo>
2.094 

> <ROCS_ColorScore>
-12.412

> <ROCS_Overlap>
1184.106

> <ROCS_Rank>
419                 

$$$$
untitled-dbase-50317_0
  -OEChem-06232314393D

 31 33  0     1  0  0  0  0  0999 V2000
  -10.3239   15.0891  -36.7309 C   0  0  0  0  0  0  0  0  0  0  0  0
  -14.3223   15.1403  -37.3225 C   0  0  0  0  0  0  0  0  0  0  0  0
  -13.3959   16.2716  -36.8615 C   0  0  0  0  0  0  0  0  0  0  0  0
  -12.2817   13.8606  -37.8302 C   0  0  0  0  0  0  0  0  0  0  0  0
  -11.7249   15.3616  -40.1002 C   0  0  0  0  0  0  0  0  0  0  0  0
  -13.5250   14.5130  -38.4716 C   0  0  2  0  0  0  0  0  0  0  0  0
  -11.3255   15.0671  -37.8321 C   0  0  1  0  0  0  0  0  0  0  0  0
  -12.2695   16.2968  -37.9220 C   0  0  1  0  0  0  0  0  0  0  0  0
  -12.9204   15.7503  -39.2082 C   0  0  1  0  0  0  0  0  0  0  0  0
  -11.5986   17.6638  -38.0069 C   0  0  0  0  0  0  0  0  0  0  0  0
  -13.9235   16.6312  -39.9364 C   0  0  0  0  0  0  0  0  0  0  0  0
  -10.6410   15.0851  -39.1376 N   0  0  0  0  0  0  0  0  0  0  0  0
  -10.4918   14.6088  -35.6198 O   0  0  0  0  0  0  0  0  0  0  0  0
   -9.1914   15.7203  -37.1264 O   0  0  0  0  0  0  0  0  0  0  0  0
  -14.5373   14.4338  -36.5143 H   0  0  0  0  0  0  0  0  0  0  0  0
  -15.2800   15.5390  -37.6730 H   0  0  0  0  0  0  0  0  0  0  0  0
  -13.9524   17.2150  -36.8294 H   0  0  0  0  0  0  0  0  0  0  0  0
  -12.9982   16.0834  -35.8585 H   0  0  0  0  0  0  0  0  0  0  0  0
  -12.4731   13.4628  -36.8272 H   0  0  0  0  0  0  0  0  0  0  0  0
  -11.9098   13.0265  -38.4378 H   0  0  0  0  0  0  0  0  0  0  0  0
  -11.9510   14.4838  -40.7154 H   0  0  0  0  0  0  0  0  0  0  0  0
  -11.4127   16.1792  -40.7578 H   0  0  0  0  0  0  0  0  0  0  0  0
  -14.1080   13.8283  -39.0914 H   0  0  0  0  0  0  0  0  0  0  0  0
  -10.8127   17.6454  -38.7613 H   0  0  0  0  0  0  0  0  0  0  0  0
  -11.1599   17.9225  -37.0438 H   0  0  0  0  0  0  0  0  0  0  0  0
  -12.3330   18.4216  -38.2777 H   0  0  0  0  0  0  0  0  0  0  0  0
  -14.7523   16.8840  -39.2735 H   0  0  0  0  0  0  0  0  0  0  0  0
  -14.3183   16.1087  -40.8090 H   0  0  0  0  0  0  0  0  0  0  0  0
  -13.4434   17.5537  -40.2664 H   0  0  0  0  0  0  0  0  0  0  0  0
  -10.2131   14.1826  -39.3396 H   0  0  0  0  0  0  0  0  0  0  0  0
   -9.2520   16.0349  -38.0536 H   0  0  0  0  0  0  0  0  0  0  0  0
  1  7  1  1  0  0  0
  1 13  2  0  0  0  0
  1 14  1  0  0  0  0
  2  3  1  0  0  0  0
  2  6  1  0  0  0  0
  3  8  1  0  0  0  0
  4  6  1  1  0  0  0
  4  7  1  0  0  0  0
  5  9  1  0  0  0  0
  5 12  1  0  0  0  0
  6  9  1  0  0  0  0
  7  8  1  0  0  0  0
  7 12  1  0  0  0  0
  8  9  1  0  0  0  0
  8 10  1  6  0  0  0
  9 11  1  6  0  0  0
  2 15  1  0  0  0  0
  2 16  1  0  0  0  0
  3 17  1  0  0  0  0
  3 18  1  0  0  0  0
  4 19  1  0  0  0  0
  4 20  1  0  0  0  0
  5 21  1  0  0  0  0
  5 22  1  0  0  0  0
  6 23  1  0  0  0  0
 10 24  1  0  0  0  0
 10 25  1  0  0  0  0
 10 26  1  0  0  0  0
 11 27  1  0  0  0  0
 11 28  1  0  0  0  0
 11 29  1  0  0  0  0
 12 30  1  0  0  0  0
 14 31  1  0  0  0  0
M  END
> <id>
EN300-86491

> <smiles>
Cl.C[C@@]12CN[C@@]3(C[C@H]2CC[C@]13C)C(=O)O

> <MDLNUMBER>
MFCD08457557

> <IUPAC Name>
(1R,3R,6S,7R)-6,7-dimethyl-4-azatricyclo[4.3.0.0,3,7]nonane-3-carboxylic acid hydrochloride

> <CAS>
1955474-04-0

> <URL>
https://www.enaminestore.com/catalog/EN300-86491

> <Saltdate>
Cl

> <ROCS_ShapeQuery>
_x1247relevant_x1083L0AP1_x1305L0BP1_

> <ROCS_TanimotoCombo>
0.821 

> <ROCS_ShapeTanimoto>
0.506 

> <ROCS_ColorTanimoto>
0.315 

> <ROCS_RefTversky>
0.424 

> <ROCS_RefColorTversky>
0.435 

> <ROCS_RefTverskyCombo>
0.859 

> <ROCS_FitTversky>
1.620 

> <ROCS_FitColorTversky>
0.534 

> <ROCS_FitTverskyCombo>
2.154 

> <ROCS_ColorScore>
-9.409

> <ROCS_Overlap>
1247.116

> <ROCS_Rank>
420                 

$$$$
untitled-dbase-57610_0
  -OEChem-06232314393D

 31 33  0     1  0  0  0  0  0999 V2000
  -10.3239   15.0891  -36.7309 C   0  0  0  0  0  0  0  0  0  0  0  0
  -14.3223   15.1403  -37.3225 C   0  0  0  0  0  0  0  0  0  0  0  0
  -13.3959   16.2716  -36.8615 C   0  0  0  0  0  0  0  0  0  0  0  0
  -12.2817   13.8606  -37.8302 C   0  0  0  0  0  0  0  0  0  0  0  0
  -11.7249   15.3616  -40.1002 C   0  0  0  0  0  0  0  0  0  0  0  0
  -13.5250   14.5130  -38.4716 C   0  0  2  0  0  0  0  0  0  0  0  0
  -11.3255   15.0671  -37.8321 C   0  0  1  0  0  0  0  0  0  0  0  0
  -12.2695   16.2968  -37.9220 C   0  0  1  0  0  0  0  0  0  0  0  0
  -12.9204   15.7503  -39.2082 C   0  0  1  0  0  0  0  0  0  0  0  0
  -11.5986   17.6638  -38.0069 C   0  0  0  0  0  0  0  0  0  0  0  0
  -13.9235   16.6312  -39.9364 C   0  0  0  0  0  0  0  0  0  0  0  0
  -10.6410   15.0851  -39.1376 N   0  0  0  0  0  0  0  0  0  0  0  0
  -10.4918   14.6088  -35.6198 O   0  0  0  0  0  0  0  0  0  0  0  0
   -9.1914   15.7203  -37.1264 O   0  0  0  0  0  0  0  0  0  0  0  0
  -14.5373   14.4338  -36.5143 H   0  0  0  0  0  0  0  0  0  0  0  0
  -15.2800   15.5390  -37.6730 H   0  0  0  0  0  0  0  0  0  0  0  0
  -13.9524   17.2150  -36.8294 H   0  0  0  0  0  0  0  0  0  0  0  0
  -12.9982   16.0834  -35.8585 H   0  0  0  0  0  0  0  0  0  0  0  0
  -12.4731   13.4628  -36.8272 H   0  0  0  0  0  0  0  0  0  0  0  0
  -11.9098   13.0265  -38.4378 H   0  0  0  0  0  0  0  0  0  0  0  0
  -11.9510   14.4838  -40.7154 H   0  0  0  0  0  0  0  0  0  0  0  0
  -11.4127   16.1792  -40.7578 H   0  0  0  0  0  0  0  0  0  0  0  0
  -14.1080   13.8283  -39.0914 H   0  0  0  0  0  0  0  0  0  0  0  0
  -10.8127   17.6454  -38.7613 H   0  0  0  0  0  0  0  0  0  0  0  0
  -11.1599   17.9225  -37.0438 H   0  0  0  0  0  0  0  0  0  0  0  0
  -12.3330   18.4216  -38.2777 H   0  0  0  0  0  0  0  0  0  0  0  0
  -14.7523   16.8840  -39.2735 H   0  0  0  0  0  0  0  0  0  0  0  0
  -14.3183   16.1087  -40.8090 H   0  0  0  0  0  0  0  0  0  0  0  0
  -13.4434   17.5537  -40.2664 H   0  0  0  0  0  0  0  0  0  0  0  0
  -10.2131   14.1826  -39.3396 H   0  0  0  0  0  0  0  0  0  0  0  0
   -9.2520   16.0349  -38.0536 H   0  0  0  0  0  0  0  0  0  0  0  0
  1  7  1  1  0  0  0
  1 13  2  0  0  0  0
  1 14  1  0  0  0  0
  2  3  1  0  0  0  0
  2  6  1  0  0  0  0
  3  8  1  0  0  0  0
  4  6  1  1  0  0  0
  4  7  1  0  0  0  0
  5  9  1  0  0  0  0
  5 12  1  0  0  0  0
  6  9  1  0  0  0  0
  7  8  1  0  0  0  0
  7 12  1  0  0  0  0
  8  9  1  0  0  0  0
  8 10  1  6  0  0  0
  9 11  1  6  0  0  0
  2 15  1  0  0  0  0
  2 16  1  0  0  0  0
  3 17  1  0  0  0  0
  3 18  1  0  0  0  0
  4 19  1  0  0  0  0
  4 20  1  0  0  0  0
  5 21  1  0  0  0  0
  5 22  1  0  0  0  0
  6 23  1  0  0  0  0
 10 24  1  0  0  0  0
 10 25  1  0  0  0  0
 10 26  1  0  0  0  0
 11 27  1  0  0  0  0
 11 28  1  0  0  0  0
 11 29  1  0  0  0  0
 12 30  1  0  0  0  0
 14 31  1  0  0  0  0
M  END
> <id>
EN300-146950

> <smiles>
C[C@@]12CN[C@@]3(C[C@H]2CC[C@]13C)C(=O)O

> <MDLNUMBER>
MFCD08444517

> <IUPAC Name>
(1R,3R,6S,7R)-6,7-dimethyl-4-azatricyclo[4.3.0.0,3,7]nonane-3-carboxylic acid

> <CAS>
1212822-58-6

> <URL>
https://www.enaminestore.com/catalog/EN300-146950

> <ROCS_ShapeQuery>
_x1247relevant_x1083L0AP1_x1305L0BP1_

> <ROCS_TanimotoCombo>
0.821 

> <ROCS_ShapeTanimoto>
0.506 

> <ROCS_ColorTanimoto>
0.315 

> <ROCS_RefTversky>
0.424 

> <ROCS_RefColorTversky>
0.435 

> <ROCS_RefTverskyCombo>
0.859 

> <ROCS_FitTversky>
1.620 

> <ROCS_FitColorTversky>
0.534 

> <ROCS_FitTverskyCombo>
2.154 

> <ROCS_ColorScore>
-9.409

> <ROCS_Overlap>
1247.116

> <ROCS_Rank>
421                 

$$$$
untitled-dbase-181461_1
  -OEChem-06232314393D

 24 25  0     1  0  0  0  0  0999 V2000
   -9.8106   15.2717  -36.8312 C   0  0  0  0  0  0  0  0  0  0  0  0
  -14.0859   15.8887  -37.7329 C   0  0  0  0  0  0  0  0  0  0  0  0
  -13.9914   14.3646  -37.8680 C   0  0  0  0  0  0  0  0  0  0  0  0
  -11.6582   16.5969  -37.8818 C   0  0  0  0  0  0  0  0  0  0  0  0
  -12.8417   15.3414  -39.6975 C   0  0  0  0  0  0  0  0  0  0  0  0
  -10.7863   15.3353  -37.9664 C   0  0  2  0  0  0  0  0  0  0  0  0
  -12.9840   16.4481  -38.6530 C   0  0  1  0  0  0  0  0  0  0  0  0
  -12.7728   14.1205  -38.7738 C   0  0  1  0  0  0  0  0  0  0  0  0
  -11.5445   14.0836  -37.9578 N   0  0  0  0  0  0  0  0  0  0  0  0
   -8.6953   15.7712  -36.8356 O   0  0  0  0  0  0  0  0  0  0  0  0
  -10.3322   14.5782  -35.7899 O   0  0  0  0  0  0  0  0  0  0  0  0
  -15.0698   16.2249  -38.0815 H   0  0  0  0  0  0  0  0  0  0  0  0
  -13.9767   16.2221  -36.6963 H   0  0  0  0  0  0  0  0  0  0  0  0
  -13.9170   13.8596  -36.9010 H   0  0  0  0  0  0  0  0  0  0  0  0
  -14.8975   13.9855  -38.3545 H   0  0  0  0  0  0  0  0  0  0  0  0
  -11.8644   16.8746  -36.8484 H   0  0  0  0  0  0  0  0  0  0  0  0
  -11.1072   17.4226  -38.3384 H   0  0  0  0  0  0  0  0  0  0  0  0
  -13.7266   15.2924  -40.3389 H   0  0  0  0  0  0  0  0  0  0  0  0
  -11.9609   15.4543  -40.3332 H   0  0  0  0  0  0  0  0  0  0  0  0
  -10.1795   15.3835  -38.8639 H   0  0  0  0  0  0  0  0  0  0  0  0
  -13.2780   17.4040  -39.0847 H   0  0  0  0  0  0  0  0  0  0  0  0
  -12.8822   13.1796  -39.3049 H   0  0  0  0  0  0  0  0  0  0  0  0
  -10.9544   13.3502  -38.3244 H   0  0  0  0  0  0  0  0  0  0  0  0
  -11.2396   14.2579  -35.9809 H   0  0  0  0  0  0  0  0  0  0  0  0
  1  6  1  1  0  0  0
  1 10  2  0  0  0  0
  1 11  1  0  0  0  0
  2  3  1  0  0  0  0
  2  7  1  0  0  0  0
  3  8  1  1  0  0  0
  4  6  1  0  0  0  0
  4  7  1  1  0  0  0
  5  7  1  0  0  0  0
  5  8  1  0  0  0  0
  6  9  1  0  0  0  0
  8  9  1  0  0  0  0
  2 12  1  0  0  0  0
  2 13  1  0  0  0  0
  3 14  1  0  0  0  0
  3 15  1  0  0  0  0
  4 16  1  0  0  0  0
  4 17  1  0  0  0  0
  5 18  1  0  0  0  0
  5 19  1  0  0  0  0
  6 20  1  0  0  0  0
  7 21  1  0  0  0  0
  8 22  1  0  0  0  0
  9 23  1  0  0  0  0
 11 24  1  0  0  0  0
M  END
> <id>
EN300-45271216

> <smiles>
Cl.OC(=O)[C@@H]1C[C@@H]2CC[C@@H](C2)N1 |&1:4,6,9,r|

> <IUPAC Name>
rac-(1R,3R,5S)-2-azabicyclo[3.2.1]octane-3-carboxylic acid hydrochloride

> <Purity>
95

> <URL>
https://www.enaminestore.com/catalog/EN300-45271216

> <ROCS_ShapeQuery>
_x1247relevant_x1083L0AP1_x1305L0BP1_

> <ROCS_TanimotoCombo>
0.821 

> <ROCS_ShapeTanimoto>
0.425 

> <ROCS_ColorTanimoto>
0.396 

> <ROCS_RefTversky>
0.361 

> <ROCS_RefColorTversky>
0.435 

> <ROCS_RefTverskyCombo>
0.796 

> <ROCS_FitTversky>
1.724 

> <ROCS_FitColorTversky>
0.815 

> <ROCS_FitTverskyCombo>
2.538 

> <ROCS_ColorScore>
-9.263

> <ROCS_Overlap>
1058.767

> <ROCS_Rank>
422                 

$$$$
untitled-dbase-180932_1
  -OEChem-06232314393D

 24 25  0     1  0  0  0  0  0999 V2000
   -9.8106   15.2717  -36.8312 C   0  0  0  0  0  0  0  0  0  0  0  0
  -14.0859   15.8887  -37.7329 C   0  0  0  0  0  0  0  0  0  0  0  0
  -13.9914   14.3646  -37.8680 C   0  0  0  0  0  0  0  0  0  0  0  0
  -11.6582   16.5969  -37.8818 C   0  0  0  0  0  0  0  0  0  0  0  0
  -12.8417   15.3414  -39.6975 C   0  0  0  0  0  0  0  0  0  0  0  0
  -10.7863   15.3353  -37.9664 C   0  0  2  0  0  0  0  0  0  0  0  0
  -12.9840   16.4481  -38.6530 C   0  0  1  0  0  0  0  0  0  0  0  0
  -12.7728   14.1205  -38.7738 C   0  0  1  0  0  0  0  0  0  0  0  0
  -11.5445   14.0836  -37.9578 N   0  0  0  0  0  0  0  0  0  0  0  0
   -8.6953   15.7712  -36.8356 O   0  0  0  0  0  0  0  0  0  0  0  0
  -10.3322   14.5782  -35.7899 O   0  0  0  0  0  0  0  0  0  0  0  0
  -15.0698   16.2249  -38.0815 H   0  0  0  0  0  0  0  0  0  0  0  0
  -13.9767   16.2221  -36.6963 H   0  0  0  0  0  0  0  0  0  0  0  0
  -13.9170   13.8596  -36.9010 H   0  0  0  0  0  0  0  0  0  0  0  0
  -14.8975   13.9855  -38.3545 H   0  0  0  0  0  0  0  0  0  0  0  0
  -11.8644   16.8746  -36.8484 H   0  0  0  0  0  0  0  0  0  0  0  0
  -11.1072   17.4226  -38.3384 H   0  0  0  0  0  0  0  0  0  0  0  0
  -13.7266   15.2924  -40.3389 H   0  0  0  0  0  0  0  0  0  0  0  0
  -11.9609   15.4543  -40.3332 H   0  0  0  0  0  0  0  0  0  0  0  0
  -10.1795   15.3835  -38.8639 H   0  0  0  0  0  0  0  0  0  0  0  0
  -13.2780   17.4040  -39.0847 H   0  0  0  0  0  0  0  0  0  0  0  0
  -12.8822   13.1796  -39.3049 H   0  0  0  0  0  0  0  0  0  0  0  0
  -10.9544   13.3502  -38.3244 H   0  0  0  0  0  0  0  0  0  0  0  0
  -11.2396   14.2579  -35.9809 H   0  0  0  0  0  0  0  0  0  0  0  0
  1  6  1  1  0  0  0
  1 10  2  0  0  0  0
  1 11  1  0  0  0  0
  2  3  1  0  0  0  0
  2  7  1  0  0  0  0
  3  8  1  1  0  0  0
  4  6  1  0  0  0  0
  4  7  1  1  0  0  0
  5  7  1  0  0  0  0
  5  8  1  0  0  0  0
  6  9  1  0  0  0  0
  8  9  1  0  0  0  0
  2 12  1  0  0  0  0
  2 13  1  0  0  0  0
  3 14  1  0  0  0  0
  3 15  1  0  0  0  0
  4 16  1  0  0  0  0
  4 17  1  0  0  0  0
  5 18  1  0  0  0  0
  5 19  1  0  0  0  0
  6 20  1  0  0  0  0
  7 21  1  0  0  0  0
  8 22  1  0  0  0  0
  9 23  1  0  0  0  0
 11 24  1  0  0  0  0
M  END
> <id>
EN300-45271287

> <smiles>
OC(=O)[C@@H]1C[C@@H]2CC[C@@H](C2)N1 |&1:3,5,8,r|

> <IUPAC Name>
rac-(1R,3R,5S)-2-azabicyclo[3.2.1]octane-3-carboxylic acid

> <URL>
https://www.enaminestore.com/catalog/EN300-45271287

> <ROCS_ShapeQuery>
_x1247relevant_x1083L0AP1_x1305L0BP1_

> <ROCS_TanimotoCombo>
0.821 

> <ROCS_ShapeTanimoto>
0.425 

> <ROCS_ColorTanimoto>
0.396 

> <ROCS_RefTversky>
0.361 

> <ROCS_RefColorTversky>
0.435 

> <ROCS_RefTverskyCombo>
0.796 

> <ROCS_FitTversky>
1.724 

> <ROCS_FitColorTversky>
0.815 

> <ROCS_FitTverskyCombo>
2.538 

> <ROCS_ColorScore>
-9.263

> <ROCS_Overlap>
1058.767

> <ROCS_Rank>
423                 

$$$$
untitled-dbase-179647_58
  -OEChem-06232314393D

 33 34  0     1  0  0  0  0  0999 V2000
  -10.2406   15.3623  -37.1383 C   0  0  0  0  0  0  0  0  0  0  0  0
  -11.9158   16.4958  -38.6126 C   0  0  0  0  0  0  0  0  0  0  0  0
  -11.0157   15.2640  -38.4176 C   0  0  2  0  0  0  0  0  0  0  0  0
  -13.2349   16.1136  -38.0056 C   0  0  1  0  0  0  0  0  0  0  0  0
  -14.2500   15.2274  -38.6864 C   0  0  2  0  0  0  0  0  0  0  0  0
  -13.1970   14.6209  -37.8000 C   0  0  1  0  0  0  0  0  0  0  0  0
   -9.0610   14.1802  -34.8345 C   0  0  0  0  0  0  0  0  0  0  0  0
  -11.3633   13.3127  -34.3283 C   0  0  0  0  0  0  0  0  0  0  0  0
  -10.1929   12.5997  -36.4330 C   0  0  0  0  0  0  0  0  0  0  0  0
  -14.2653   15.0122  -40.1609 C   0  0  0  0  0  0  0  0  0  0  0  0
  -10.3955   13.7356  -35.4314 C   0  0  0  0  0  0  0  0  0  0  0  0
  -11.9144   14.1026  -38.3133 N   0  0  0  0  0  0  0  0  0  0  0  0
   -9.1158   15.8365  -37.0534 O   0  0  0  0  0  0  0  0  0  0  0  0
  -10.9812   14.8476  -36.1158 O   0  0  0  0  0  0  0  0  0  0  0  0
  -14.9327   16.0026  -40.8005 F   0  0  0  0  0  0  0  0  0  0  0  0
  -13.0106   14.9755  -40.6706 F   0  0  0  0  0  0  0  0  0  0  0  0
  -14.8681   13.8433  -40.4859 F   0  0  0  0  0  0  0  0  0  0  0  0
  -11.5072   17.3837  -38.1180 H   0  0  0  0  0  0  0  0  0  0  0  0
  -12.0399   16.7256  -39.6761 H   0  0  0  0  0  0  0  0  0  0  0  0
  -10.2965   15.1532  -39.2381 H   0  0  0  0  0  0  0  0  0  0  0  0
  -13.5438   16.7382  -37.1795 H   0  0  0  0  0  0  0  0  0  0  0  0
  -15.2593   15.2539  -38.2961 H   0  0  0  0  0  0  0  0  0  0  0  0
  -13.5036   14.2353  -36.8356 H   0  0  0  0  0  0  0  0  0  0  0  0
   -8.3635   14.4846  -35.6231 H   0  0  0  0  0  0  0  0  0  0  0  0
   -9.1884   15.0176  -34.1407 H   0  0  0  0  0  0  0  0  0  0  0  0
   -8.5790   13.3556  -34.2969 H   0  0  0  0  0  0  0  0  0  0  0  0
  -12.3221   12.9929  -34.7521 H   0  0  0  0  0  0  0  0  0  0  0  0
  -11.5857   14.1531  -33.6609 H   0  0  0  0  0  0  0  0  0  0  0  0
  -10.9582   12.4914  -33.7284 H   0  0  0  0  0  0  0  0  0  0  0  0
  -11.1499   12.2806  -36.8613 H   0  0  0  0  0  0  0  0  0  0  0  0
   -9.5300   12.8975  -37.2519 H   0  0  0  0  0  0  0  0  0  0  0  0
   -9.7649   11.7185  -35.9415 H   0  0  0  0  0  0  0  0  0  0  0  0
  -12.0525   13.7032  -39.2410 H   0  0  0  0  0  0  0  0  0  0  0  0
  1  3  1  6  0  0  0
  1 13  2  0  0  0  0
  1 14  1  0  0  0  0
  2  3  1  0  0  0  0
  2  4  1  1  0  0  0
  3 12  1  0  0  0  0
  4  5  1  0  0  0  0
  4  6  1  0  0  0  0
  5  6  1  0  0  0  0
  5 10  1  1  0  0  0
  6 12  1  1  0  0  0
  7 11  1  0  0  0  0
  8 11  1  0  0  0  0
  9 11  1  0  0  0  0
 10 15  1  0  0  0  0
 10 16  1  0  0  0  0
 10 17  1  0  0  0  0
 11 14  1  0  0  0  0
  2 18  1  0  0  0  0
  2 19  1  0  0  0  0
  3 20  1  0  0  0  0
  4 21  1  0  0  0  0
  5 22  1  0  0  0  0
  6 23  1  0  0  0  0
  7 24  1  0  0  0  0
  7 25  1  0  0  0  0
  7 26  1  0  0  0  0
  8 27  1  0  0  0  0
  8 28  1  0  0  0  0
  8 29  1  0  0  0  0
  9 30  1  0  0  0  0
  9 31  1  0  0  0  0
  9 32  1  0  0  0  0
 12 33  1  0  0  0  0
M  END
> <id>
EN300-37101512

> <smiles>
CC(C)(C)OC(=O)[C@@H]1C[C@H]2[C@H]([C@H]2N1)C(F)(F)F

> <IUPAC Name>
tert-butyl (1S,3S,5S,6R)-6-(trifluoromethyl)-2-azabicyclo[3.1.0]hexane-3-carboxylate

> <URL>
https://www.enaminestore.com/catalog/EN300-37101512

> <ROCS_ShapeQuery>
_x1247relevant_x1083L0AP1_x1305L0BP1_

> <ROCS_TanimotoCombo>
0.821 

> <ROCS_ShapeTanimoto>
0.507 

> <ROCS_ColorTanimoto>
0.314 

> <ROCS_RefTversky>
0.437 

> <ROCS_RefColorTversky>
0.335 

> <ROCS_RefTverskyCombo>
0.771 

> <ROCS_FitTversky>
1.467 

> <ROCS_FitColorTversky>
0.834 

> <ROCS_FitTverskyCombo>
2.301 

> <ROCS_ColorScore>
-7.076

> <ROCS_Overlap>
1287.519

> <ROCS_Rank>
424                 

$$$$
untitled-dbase-4305_2
  -OEChem-06232314393D

 34 35  0     1  0  0  0  0  0999 V2000
  -12.6981   16.5099  -37.4418 C   0  0  0  0  0  0  0  0  0  0  0  0
  -13.6410   15.3555  -37.1003 C   0  0  0  0  0  0  0  0  0  0  0  0
  -11.9896   15.9115  -39.8303 C   0  0  0  0  0  0  0  0  0  0  0  0
  -13.5723   13.9794  -39.2613 C   0  0  0  0  0  0  0  0  0  0  0  0
  -11.6221   15.8782  -38.3297 C   0  0  2  0  0  0  0  0  0  0  0  0
  -13.0415   14.1435  -37.8190 C   0  0  1  0  0  0  0  0  0  0  0  0
  -13.3337   15.2179  -40.1553 C   0  0  0  0  0  0  0  0  0  0  0  0
  -13.4056   14.8343  -41.6358 C   0  0  0  0  0  0  0  0  0  0  0  0
   -9.4311   14.6889  -36.8818 C   0  0  0  0  0  0  0  0  0  0  0  0
  -10.9335   12.7323  -36.3711 C   0  0  0  0  0  0  0  0  0  0  0  0
  -10.8665   14.2156  -36.7040 C   0  0  0  0  0  0  0  0  0  0  0  0
  -11.6064   14.4568  -37.9402 N   0  0  0  0  0  0  0  0  0  0  0  0
  -14.4043   16.1407  -39.9216 O   0  0  0  0  0  0  0  0  0  0  0  0
  -13.2182   17.3423  -37.9254 H   0  0  0  0  0  0  0  0  0  0  0  0
  -12.2532   16.8997  -36.5182 H   0  0  0  0  0  0  0  0  0  0  0  0
  -13.6425   15.1972  -36.0151 H   0  0  0  0  0  0  0  0  0  0  0  0
  -14.6736   15.5615  -37.3983 H   0  0  0  0  0  0  0  0  0  0  0  0
  -12.0185   16.9563  -40.1648 H   0  0  0  0  0  0  0  0  0  0  0  0
  -11.1795   15.4187  -40.3854 H   0  0  0  0  0  0  0  0  0  0  0  0
  -13.0727   13.1076  -39.7054 H   0  0  0  0  0  0  0  0  0  0  0  0
  -14.6437   13.7456  -39.2187 H   0  0  0  0  0  0  0  0  0  0  0  0
  -10.6487   16.3643  -38.1967 H   0  0  0  0  0  0  0  0  0  0  0  0
  -13.2263   13.2134  -37.2696 H   0  0  0  0  0  0  0  0  0  0  0  0
  -14.3569   14.3491  -41.8417 H   0  0  0  0  0  0  0  0  0  0  0  0
  -12.5942   14.1512  -41.8761 H   0  0  0  0  0  0  0  0  0  0  0  0
  -13.3173   15.7278  -42.2495 H   0  0  0  0  0  0  0  0  0  0  0  0
   -8.9309   14.1267  -37.6771 H   0  0  0  0  0  0  0  0  0  0  0  0
   -9.3898   15.7534  -37.1384 H   0  0  0  0  0  0  0  0  0  0  0  0
   -8.8592   14.5509  -35.9577 H   0  0  0  0  0  0  0  0  0  0  0  0
  -10.4587   12.1360  -37.1579 H   0  0  0  0  0  0  0  0  0  0  0  0
  -11.9726   12.4008  -36.2749 H   0  0  0  0  0  0  0  0  0  0  0  0
  -10.4157   12.5091  -35.4315 H   0  0  0  0  0  0  0  0  0  0  0  0
  -11.3465   14.7909  -35.9048 H   0  0  0  0  0  0  0  0  0  0  0  0
  -14.2450   16.8921  -40.5102 H   0  0  0  0  0  0  0  0  0  0  0  0
  1  2  1  0  0  0  0
  1  5  1  0  0  0  0
  2  6  1  0  0  0  0
  3  5  1  0  0  0  0
  3  7  1  0  0  0  0
  4  6  1  0  0  0  0
  4  7  1  0  0  0  0
  5 12  1  0  0  0  0
  6 12  1  0  0  0  0
  7  8  1  0  0  0  0
  7 13  1  0  0  0  0
  9 11  1  0  0  0  0
 10 11  1  0  0  0  0
 11 12  1  0  0  0  0
  1 14  1  0  0  0  0
  1 15  1  0  0  0  0
  2 16  1  0  0  0  0
  2 17  1  0  0  0  0
  3 18  1  0  0  0  0
  3 19  1  0  0  0  0
  4 20  1  0  0  0  0
  4 21  1  0  0  0  0
  5 22  1  0  0  0  0
  6 23  1  0  0  0  0
  8 24  1  0  0  0  0
  8 25  1  0  0  0  0
  8 26  1  0  0  0  0
  9 27  1  0  0  0  0
  9 28  1  0  0  0  0
  9 29  1  0  0  0  0
 10 30  1  0  0  0  0
 10 31  1  0  0  0  0
 10 32  1  0  0  0  0
 11 33  1  0  0  0  0
 13 34  1  0  0  0  0
M  END
> <id>
EN300-89066

> <smiles>
CC(C)N1C2CCC1CC(C)(O)C2

> <MDLNUMBER>
MFCD13196434

> <IUPAC Name>
3-methyl-8-(propan-2-yl)-8-azabicyclo[3.2.1]octan-3-ol

> <CAS>
1208660-26-7

> <URL>
https://www.enaminestore.com/catalog/EN300-89066

> <ROCS_ShapeQuery>
_x1247relevant_x1083L0AP1_x1305L0BP1_

> <ROCS_TanimotoCombo>
0.821 

> <ROCS_ShapeTanimoto>
0.463 

> <ROCS_ColorTanimoto>
0.358 

> <ROCS_RefTversky>
0.391 

> <ROCS_RefColorTversky>
0.392 

> <ROCS_RefTverskyCombo>
0.783 

> <ROCS_FitTversky>
1.668 

> <ROCS_FitColorTversky>
0.802 

> <ROCS_FitTverskyCombo>
2.470 

> <ROCS_ColorScore>
-8.332

> <ROCS_Overlap>
1148.377

> <ROCS_Rank>
425                 

$$$$
untitled-dbase-169230_3
  -OEChem-06232314393D

 31 33  0     0  0  0  0  0  0999 V2000
  -11.6982   16.5904  -40.2244 C   0  0  0  0  0  0  0  0  0  0  0  0
  -10.7366   16.5620  -37.1391 C   0  0  0  0  0  0  0  0  0  0  0  0
  -10.1313   14.4532  -38.3744 C   0  0  0  0  0  0  0  0  0  0  0  0
  -13.0828   14.4532  -39.3723 C   0  0  0  0  0  0  0  0  0  0  0  0
  -13.5825   16.1934  -38.3523 C   0  0  0  0  0  0  0  0  0  0  0  0
   -9.7517   16.1208  -36.0602 C   0  0  0  0  0  0  0  0  0  0  0  0
   -9.1835   14.1409  -37.2199 C   0  0  0  0  0  0  0  0  0  0  0  0
  -12.2411   15.7589  -39.0710 C   0  0  0  0  0  0  0  0  0  0  0  0
  -11.2799   15.3565  -37.9134 C   0  0  0  0  0  0  0  0  0  0  0  0
  -13.4424   14.7035  -37.8584 C   0  0  0  0  0  0  0  0  0  0  0  0
  -14.5891   13.9917  -37.2068 C   0  0  0  0  0  0  0  0  0  0  0  0
  -10.5155   16.8231  -40.4261 O   0  0  0  0  0  0  0  0  0  0  0  0
   -8.6986   15.3420  -36.6236 O   0  0  0  0  0  0  0  0  0  0  0  0
  -12.2040   14.6111  -37.0939 O   0  0  0  0  0  0  0  0  0  0  0  0
  -12.7093   17.0453  -41.0041 O   0  0  0  0  0  0  0  0  0  0  0  0
  -11.5363   17.1333  -36.6577 H   0  0  0  0  0  0  0  0  0  0  0  0
  -10.2193   17.2352  -37.8332 H   0  0  0  0  0  0  0  0  0  0  0  0
   -9.5665   14.9607  -39.1655 H   0  0  0  0  0  0  0  0  0  0  0  0
  -10.4949   13.5053  -38.7826 H   0  0  0  0  0  0  0  0  0  0  0  0
  -13.8970   14.5445  -40.1013 H   0  0  0  0  0  0  0  0  0  0  0  0
  -12.5310   13.5350  -39.5858 H   0  0  0  0  0  0  0  0  0  0  0  0
  -13.5149   16.9610  -37.5780 H   0  0  0  0  0  0  0  0  0  0  0  0
  -14.4378   16.4277  -38.9974 H   0  0  0  0  0  0  0  0  0  0  0  0
   -9.3003   16.9998  -35.5891 H   0  0  0  0  0  0  0  0  0  0  0  0
  -10.2515   15.5458  -35.2717 H   0  0  0  0  0  0  0  0  0  0  0  0
   -9.6709   13.5231  -36.4563 H   0  0  0  0  0  0  0  0  0  0  0  0
   -8.3191   13.5812  -37.5915 H   0  0  0  0  0  0  0  0  0  0  0  0
  -14.6933   14.2865  -36.1534 H   0  0  0  0  0  0  0  0  0  0  0  0
  -14.4491   12.9023  -37.2359 H   0  0  0  0  0  0  0  0  0  0  0  0
  -15.5377   14.2198  -37.7124 H   0  0  0  0  0  0  0  0  0  0  0  0
  -12.3794   17.5860  -41.7533 H   0  0  0  0  0  0  0  0  0  0  0  0
  1  8  1  1  0  0  0
  1 12  2  0  0  0  0
  1 15  1  0  0  0  0
  2  6  1  0  0  0  0
  2  9  1  0  0  0  0
  3  7  1  0  0  0  0
  3  9  1  0  0  0  0
  4  8  1  0  0  0  0
  4 10  1  0  0  0  0
  5  8  1  0  0  0  0
  5 10  1  0  0  0  0
  6 13  1  0  0  0  0
  7 13  1  0  0  0  0
  8  9  1  0  0  0  0
  9 14  1  0  0  0  0
 10 11  1  1  0  0  0
 10 14  1  0  0  0  0
  2 16  1  0  0  0  0
  2 17  1  0  0  0  0
  3 18  1  0  0  0  0
  3 19  1  0  0  0  0
  4 20  1  0  0  0  0
  4 21  1  0  0  0  0
  5 22  1  0  0  0  0
  5 23  1  0  0  0  0
  6 24  1  0  0  0  0
  6 25  1  0  0  0  0
  7 26  1  0  0  0  0
  7 27  1  0  0  0  0
 11 28  1  0  0  0  0
 11 29  1  0  0  0  0
 11 30  1  0  0  0  0
 15 31  1  0  0  0  0
M  END
> <id>
EN300-37375213

> <smiles>
C[C@]1(C[C@]2(C1)C(=O)O)OC32CCOCC3

> <IUPAC Name>
4-methyl-3-oxaspiro[bicyclo[2.1.1]hexane-2,4'-oxane]-1-carboxylic acid

> <CAS>
2225146-57-4

> <URL>
https://www.enaminestore.com/catalog/EN300-37375213

> <ROCS_ShapeQuery>
_x1247relevant_x1083L0AP1_x1305L0BP1_

> <ROCS_TanimotoCombo>
0.821 

> <ROCS_ShapeTanimoto>
0.505 

> <ROCS_ColorTanimoto>
0.316 

> <ROCS_RefTversky>
0.426 

> <ROCS_RefColorTversky>
0.388 

> <ROCS_RefTverskyCombo>
0.815 

> <ROCS_FitTversky>
1.575 

> <ROCS_FitColorTversky>
0.629 

> <ROCS_FitTverskyCombo>
2.203 

> <ROCS_ColorScore>
-8.311

> <ROCS_Overlap>
1255.182

> <ROCS_Rank>
426                 

$$$$
untitled-dbase-135091_28
  -OEChem-06232314393D

 27 28  0     1  0  0  0  0  0999 V2000
  -13.2707   14.6268  -37.2491 C   0  0  0  0  0  0  0  0  0  0  0  0
  -14.2469   15.1165  -38.1167 C   0  0  0  0  0  0  0  0  0  0  0  0
  -11.5458   15.5200  -38.6857 C   0  0  0  0  0  0  0  0  0  0  0  0
  -11.9201   14.8286  -37.5336 C   0  0  0  0  0  0  0  0  0  0  0  0
  -13.8726   15.8079  -39.2689 C   0  0  0  0  0  0  0  0  0  0  0  0
  -12.5220   16.0097  -39.5534 C   0  0  0  0  0  0  0  0  0  0  0  0
   -9.0031   13.7559  -38.0777 C   0  0  0  0  0  0  0  0  0  0  0  0
   -8.1363   14.7597  -37.3329 C   0  0  0  0  0  0  0  0  0  0  0  0
   -9.9378   15.3492  -35.9316 C   0  0  0  0  0  0  0  0  0  0  0  0
  -10.8528   14.2956  -36.5838 C   0  0  2  0  0  0  0  0  0  0  0  0
  -10.0361   13.2306  -37.1892 N   0  0  0  0  0  0  0  0  0  0  0  0
   -8.9379   15.8280  -36.8336 O   0  0  0  0  0  0  0  0  0  0  0  0
  -14.8358   16.2810  -40.1082 O   0  0  0  0  0  0  0  0  0  0  0  0
  -12.1442   16.6827  -40.6759 O   0  0  0  0  0  0  0  0  0  0  0  0
  -13.5716   14.0907  -36.3530 H   0  0  0  0  0  0  0  0  0  0  0  0
  -15.2971   14.9553  -37.8893 H   0  0  0  0  0  0  0  0  0  0  0  0
  -10.4937   15.6792  -38.9095 H   0  0  0  0  0  0  0  0  0  0  0  0
   -9.4708   14.2308  -38.9445 H   0  0  0  0  0  0  0  0  0  0  0  0
   -8.3905   12.9260  -38.4454 H   0  0  0  0  0  0  0  0  0  0  0  0
   -7.6569   14.2747  -36.4762 H   0  0  0  0  0  0  0  0  0  0  0  0
   -7.3409   15.1641  -37.9714 H   0  0  0  0  0  0  0  0  0  0  0  0
  -10.5130   16.2084  -35.5391 H   0  0  0  0  0  0  0  0  0  0  0  0
   -9.4146   14.9116  -35.0645 H   0  0  0  0  0  0  0  0  0  0  0  0
  -11.4353   13.7835  -35.7402 H   0  0  0  0  0  0  0  0  0  0  0  0
  -10.6512   12.6141  -37.7374 H   0  0  0  0  0  0  0  0  0  0  0  0
  -15.7162   16.0576  -39.7677 H   0  0  0  0  0  0  0  0  0  0  0  0
  -12.9257   16.9613  -41.1787 H   0  0  0  0  0  0  0  0  0  0  0  0
  1  2  1  0  0  0  0
  1  4  2  0  0  0  0
  2  5  2  0  0  0  0
  3  4  1  0  0  0  0
  3  6  2  0  0  0  0
  4 10  1  0  0  0  0
  5  6  1  0  0  0  0
  5 13  1  0  0  0  0
  6 14  1  0  0  0  0
  7  8  1  0  0  0  0
  7 11  1  0  0  0  0
  8 12  1  0  0  0  0
  9 10  1  0  0  0  0
  9 12  1  0  0  0  0
 10 11  1  0  0  0  0
  1 15  1  0  0  0  0
  2 16  1  0  0  0  0
  3 17  1  0  0  0  0
  7 18  1  0  0  0  0
  7 19  1  0  0  0  0
  8 20  1  0  0  0  0
  8 21  1  0  0  0  0
  9 22  1  0  0  0  0
  9 23  1  0  0  0  0
 10 24  1  0  0  0  0
 11 25  1  0  0  0  0
 13 26  1  0  0  0  0
 14 27  1  0  0  0  0
M  END
> <id>
EN300-1839504

> <smiles>
OC=1C=CC(=CC1O)C2COCCN2

> <MDLNUMBER>
MFCD18697399

> <IUPAC Name>
4-(morpholin-3-yl)benzene-1,2-diol

> <CAS>
959081-13-1

> <URL>
https://www.enaminestore.com/catalog/EN300-1839504

> <ROCS_ShapeQuery>
_x1247relevant_x1083L0AP1_x1305L0BP1_

> <ROCS_TanimotoCombo>
0.821 

> <ROCS_ShapeTanimoto>
0.499 

> <ROCS_ColorTanimoto>
0.322 

> <ROCS_RefTversky>
0.417 

> <ROCS_RefColorTversky>
0.354 

> <ROCS_RefTverskyCombo>
0.771 

> <ROCS_FitTversky>
1.654 

> <ROCS_FitColorTversky>
0.779 

> <ROCS_FitTverskyCombo>
2.433 

> <ROCS_ColorScore>
-7.511

> <ROCS_Overlap>
1225.628

> <ROCS_Rank>
427                 

$$$$
untitled-dbase-131628_5
  -OEChem-06232314393D

 24 25  0     1  0  0  0  0  0999 V2000
  -13.7537   14.7257  -37.6736 C   0  0  0  0  0  0  0  0  0  0  0  0
   -9.8087   15.3861  -36.7317 C   0  0  0  0  0  0  0  0  0  0  0  0
  -11.4856   13.9164  -37.8374 C   0  0  0  0  0  0  0  0  0  0  0  0
  -12.0291   16.3822  -37.2632 C   0  0  0  0  0  0  0  0  0  0  0  0
  -12.9278   14.4279  -39.9075 C   0  0  0  0  0  0  0  0  0  0  0  0
  -12.8695   13.8226  -38.4963 C   0  0  2  0  0  0  0  0  0  0  0  0
  -13.3882   16.1659  -37.9312 C   0  0  1  0  0  0  0  0  0  0  0  0
  -10.9536   15.3589  -37.7021 C   0  0  1  0  0  0  0  0  0  0  0  0
  -14.5801   14.3469  -36.8572 O   0  0  0  0  0  0  0  0  0  0  0  0
   -8.6600   15.6967  -37.0100 O   0  0  0  0  0  0  0  0  0  0  0  0
  -14.6245   16.4227  -40.2393 O   0  0  0  0  0  0  0  0  0  0  0  0
  -12.1568   16.9611  -40.1583 O   0  0  0  0  0  0  0  0  0  0  0  0
  -10.2205   15.0147  -35.4949 O   0  0  0  0  0  0  0  0  0  0  0  0
  -13.2927   16.1776  -39.7216 S   0  0  0  0  0  0  0  0  0  0  0  0
  -11.5417   13.4566  -36.8406 H   0  0  0  0  0  0  0  0  0  0  0  0
  -10.7639   13.3160  -38.4057 H   0  0  0  0  0  0  0  0  0  0  0  0
  -11.6642   17.3956  -37.4716 H   0  0  0  0  0  0  0  0  0  0  0  0
  -12.1643   16.3259  -36.1743 H   0  0  0  0  0  0  0  0  0  0  0  0
  -11.9944   14.3048  -40.4618 H   0  0  0  0  0  0  0  0  0  0  0  0
  -13.7526   13.9905  -40.4789 H   0  0  0  0  0  0  0  0  0  0  0  0
  -13.2353   12.7921  -38.4935 H   0  0  0  0  0  0  0  0  0  0  0  0
  -14.1648   16.8558  -37.5980 H   0  0  0  0  0  0  0  0  0  0  0  0
  -10.5371   15.6681  -38.6720 H   0  0  0  0  0  0  0  0  0  0  0  0
   -9.4852   15.0242  -34.8456 H   0  0  0  0  0  0  0  0  0  0  0  0
  1  6  1  0  0  0  0
  1  7  1  0  0  0  0
  1  9  2  0  0  0  0
  2  8  1  0  0  0  0
  2 10  2  0  0  0  0
  2 13  1  0  0  0  0
  3  6  1  0  0  0  0
  3  8  1  0  0  0  0
  4  7  1  0  0  0  0
  4  8  1  0  0  0  0
  5  6  1  0  0  0  0
  5 14  1  0  0  0  0
  7 14  1  0  0  0  0
 11 14  2  0  0  0  0
 12 14  2  0  0  0  0
  3 15  1  0  0  0  0
  3 16  1  0  0  0  0
  4 17  1  0  0  0  0
  4 18  1  0  0  0  0
  5 19  1  0  0  0  0
  5 20  1  0  0  0  0
  6 21  1  0  0  0  0
  7 22  1  0  0  0  0
  8 23  1  0  0  0  0
 13 24  1  0  0  0  0
M  END
> <id>
EN300-100451

> <smiles>
OC(=O)C1CC2CS(=O)(=O)C(C1)C2=O

> <MDLNUMBER>
MFCD22196368

> <IUPAC Name>
6,6,8-trioxo-6lambda6-thiabicyclo[3.2.1]octane-3-carboxylic acid

> <CAS>
1384431-23-5

> <URL>
https://www.enaminestore.com/catalog/EN300-100451

> <ROCS_ShapeQuery>
_x1247relevant_x1083L0AP1_x1305L0BP1_

> <ROCS_TanimotoCombo>
0.820 

> <ROCS_ShapeTanimoto>
0.470 

> <ROCS_ColorTanimoto>
0.350 

> <ROCS_RefTversky>
0.399 

> <ROCS_RefColorTversky>
0.408 

> <ROCS_RefTverskyCombo>
0.806 

> <ROCS_FitTversky>
1.621 

> <ROCS_FitColorTversky>
0.712 

> <ROCS_FitTverskyCombo>
2.332 

> <ROCS_ColorScore>
-8.702

> <ROCS_Overlap>
1172.489

> <ROCS_Rank>
428                 

$$$$
untitled-dbase-81708_45
  -OEChem-06232314393D

 38 39  0     1  0  0  0  0  0999 V2000
  -12.4381   16.1147  -39.5927 C   0  0  0  0  0  0  0  0  0  0  0  0
   -9.6483   14.0872  -36.4040 C   0  0  0  0  0  0  0  0  0  0  0  0
  -11.7566   16.5433  -38.3069 C   0  0  0  0  0  0  0  0  0  0  0  0
  -14.4081   15.2568  -38.4151 C   0  0  0  0  0  0  0  0  0  0  0  0
  -13.7537   15.6605  -37.0837 C   0  0  0  0  0  0  0  0  0  0  0  0
  -12.4453   13.7578  -38.9419 C   0  0  0  0  0  0  0  0  0  0  0  0
  -13.3381   14.8976  -39.4522 C   0  0  2  0  0  0  0  0  0  0  0  0
  -12.2169   15.5763  -37.1958 C   0  0  1  0  0  0  0  0  0  0  0  0
  -11.8545   14.1143  -37.5586 C   0  0  2  0  0  0  0  0  0  0  0  0
   -8.1653   16.0986  -36.0532 C   0  0  0  0  0  0  0  0  0  0  0  0
   -6.3876   14.4193  -35.4797 C   0  0  0  0  0  0  0  0  0  0  0  0
   -6.7256   15.1163  -37.8689 C   0  0  0  0  0  0  0  0  0  0  0  0
   -7.4089   14.8583  -36.5268 C   0  0  0  0  0  0  0  0  0  0  0  0
  -10.4293   13.8888  -37.5240 N   0  0  0  0  0  0  0  0  0  0  0  0
  -12.2740   16.7037  -40.6567 O   0  0  0  0  0  0  0  0  0  0  0  0
  -10.0497   14.4732  -35.3110 O   0  0  0  0  0  0  0  0  0  0  0  0
   -8.3461   13.7880  -36.6906 O   0  0  0  0  0  0  0  0  0  0  0  0
  -10.6723   16.5001  -38.4456 H   0  0  0  0  0  0  0  0  0  0  0  0
  -12.0547   17.5705  -38.0744 H   0  0  0  0  0  0  0  0  0  0  0  0
  -15.0805   14.4060  -38.2554 H   0  0  0  0  0  0  0  0  0  0  0  0
  -15.0261   16.0861  -38.7806 H   0  0  0  0  0  0  0  0  0  0  0  0
  -14.0583   16.6789  -36.8146 H   0  0  0  0  0  0  0  0  0  0  0  0
  -14.1125   15.0054  -36.2809 H   0  0  0  0  0  0  0  0  0  0  0  0
  -13.0253   12.8304  -38.8631 H   0  0  0  0  0  0  0  0  0  0  0  0
  -11.6469   13.5676  -39.6711 H   0  0  0  0  0  0  0  0  0  0  0  0
  -13.7862   14.6484  -40.4187 H   0  0  0  0  0  0  0  0  0  0  0  0
  -11.7657   15.8590  -36.2375 H   0  0  0  0  0  0  0  0  0  0  0  0
  -12.2741   13.4383  -36.8037 H   0  0  0  0  0  0  0  0  0  0  0  0
   -8.8994   16.4170  -36.8020 H   0  0  0  0  0  0  0  0  0  0  0  0
   -8.6886   15.9159  -35.1090 H   0  0  0  0  0  0  0  0  0  0  0  0
   -7.4815   16.9435  -35.9120 H   0  0  0  0  0  0  0  0  0  0  0  0
   -5.8426   13.5296  -35.8153 H   0  0  0  0  0  0  0  0  0  0  0  0
   -6.8839   14.1419  -34.5427 H   0  0  0  0  0  0  0  0  0  0  0  0
   -5.6618   15.2107  -35.2666 H   0  0  0  0  0  0  0  0  0  0  0  0
   -6.1830   14.2268  -38.2088 H   0  0  0  0  0  0  0  0  0  0  0  0
   -7.4481   15.3968  -38.6421 H   0  0  0  0  0  0  0  0  0  0  0  0
   -5.9822   15.9168  -37.7801 H   0  0  0  0  0  0  0  0  0  0  0  0
   -9.9750   13.5653  -38.3733 H   0  0  0  0  0  0  0  0  0  0  0  0
  1  3  1  0  0  0  0
  1  7  1  0  0  0  0
  1 15  2  0  0  0  0
  2 14  1  0  0  0  0
  2 16  2  0  0  0  0
  2 17  1  0  0  0  0
  3  8  1  0  0  0  0
  4  5  1  0  0  0  0
  4  7  1  0  0  0  0
  5  8  1  0  0  0  0
  6  7  1  0  0  0  0
  6  9  1  0  0  0  0
  8  9  1  0  0  0  0
  9 14  1  0  0  0  0
 10 13  1  0  0  0  0
 11 13  1  0  0  0  0
 12 13  1  0  0  0  0
 13 17  1  0  0  0  0
  3 18  1  0  0  0  0
  3 19  1  0  0  0  0
  4 20  1  0  0  0  0
  4 21  1  0  0  0  0
  5 22  1  0  0  0  0
  5 23  1  0  0  0  0
  6 24  1  0  0  0  0
  6 25  1  0  0  0  0
  7 26  1  0  0  0  0
  8 27  1  0  0  0  0
  9 28  1  0  0  0  0
 10 29  1  0  0  0  0
 10 30  1  0  0  0  0
 10 31  1  0  0  0  0
 11 32  1  0  0  0  0
 11 33  1  0  0  0  0
 11 34  1  0  0  0  0
 12 35  1  0  0  0  0
 12 36  1  0  0  0  0
 12 37  1  0  0  0  0
 14 38  1  0  0  0  0
M  END
> <id>
EN300-26667613

> <smiles>
CC(C)(C)OC(=O)NC1CC2CCC1CC2=O

> <MDLNUMBER>
MFCD32702511

> <IUPAC Name>
tert-butyl N-{5-oxobicyclo[2.2.2]octan-2-yl}carbamate

> <CAS>
2168321-96-6

> <Purity>
95

> <URL>
https://www.enaminestore.com/catalog/EN300-26667613

> <ROCS_ShapeQuery>
_x1247relevant_x1083L0AP1_x1305L0BP1_

> <ROCS_TanimotoCombo>
0.820 

> <ROCS_ShapeTanimoto>
0.462 

> <ROCS_ColorTanimoto>
0.358 

> <ROCS_RefTversky>
0.408 

> <ROCS_RefColorTversky>
0.395 

> <ROCS_RefTverskyCombo>
0.804 

> <ROCS_FitTversky>
1.399 

> <ROCS_FitColorTversky>
0.792 

> <ROCS_FitTverskyCombo>
2.192 

> <ROCS_ColorScore>
-8.400

> <ROCS_Overlap>
1204.310

> <ROCS_Rank>
429                 

$$$$
untitled-dbase-137430_45
  -OEChem-06232314393D

 38 39  0     1  0  0  0  0  0999 V2000
  -12.4380   16.1145  -39.5929 C   0  0  0  0  0  0  0  0  0  0  0  0
   -9.6483   14.0871  -36.4038 C   0  0  0  0  0  0  0  0  0  0  0  0
  -11.7566   16.5434  -38.3070 C   0  0  0  0  0  0  0  0  0  0  0  0
  -14.4081   15.2567  -38.4150 C   0  0  0  0  0  0  0  0  0  0  0  0
  -13.7536   15.6606  -37.0837 C   0  0  0  0  0  0  0  0  0  0  0  0
  -12.4451   13.7579  -38.9419 C   0  0  0  0  0  0  0  0  0  0  0  0
  -13.3382   14.8975  -39.4522 C   0  0  2  0  0  0  0  0  0  0  0  0
  -12.2168   15.5765  -37.1958 C   0  0  1  0  0  0  0  0  0  0  0  0
  -11.8544   14.1145  -37.5585 C   0  0  2  0  0  0  0  0  0  0  0  0
   -8.1651   16.0984  -36.0528 C   0  0  0  0  0  0  0  0  0  0  0  0
   -6.3876   14.4188  -35.4793 C   0  0  0  0  0  0  0  0  0  0  0  0
   -6.7254   15.1160  -37.8685 C   0  0  0  0  0  0  0  0  0  0  0  0
   -7.4089   14.8580  -36.5264 C   0  0  0  0  0  0  0  0  0  0  0  0
  -10.4293   13.8888  -37.5239 N   0  0  0  0  0  0  0  0  0  0  0  0
  -12.2743   16.7038  -40.6568 O   0  0  0  0  0  0  0  0  0  0  0  0
  -10.0497   14.4731  -35.3108 O   0  0  0  0  0  0  0  0  0  0  0  0
   -8.3461   13.7878  -36.6904 O   0  0  0  0  0  0  0  0  0  0  0  0
  -10.6723   16.5015  -38.4456 H   0  0  0  0  0  0  0  0  0  0  0  0
  -12.0548   17.5706  -38.0745 H   0  0  0  0  0  0  0  0  0  0  0  0
  -15.0805   14.4057  -38.2550 H   0  0  0  0  0  0  0  0  0  0  0  0
  -15.0258   16.0863  -38.7801 H   0  0  0  0  0  0  0  0  0  0  0  0
  -14.0583   16.6790  -36.8138 H   0  0  0  0  0  0  0  0  0  0  0  0
  -14.1119   15.0050  -36.2810 H   0  0  0  0  0  0  0  0  0  0  0  0
  -13.0249   12.8303  -38.8632 H   0  0  0  0  0  0  0  0  0  0  0  0
  -11.6464   13.5683  -39.6710 H   0  0  0  0  0  0  0  0  0  0  0  0
  -13.7863   14.6480  -40.4186 H   0  0  0  0  0  0  0  0  0  0  0  0
  -11.7655   15.8595  -36.2379 H   0  0  0  0  0  0  0  0  0  0  0  0
  -12.2742   13.4385  -36.8037 H   0  0  0  0  0  0  0  0  0  0  0  0
   -8.8991   16.4168  -36.8017 H   0  0  0  0  0  0  0  0  0  0  0  0
   -8.6885   15.9157  -35.1087 H   0  0  0  0  0  0  0  0  0  0  0  0
   -7.4812   16.9431  -35.9116 H   0  0  0  0  0  0  0  0  0  0  0  0
   -5.8427   13.5291  -35.8150 H   0  0  0  0  0  0  0  0  0  0  0  0
   -6.8840   14.1415  -34.5423 H   0  0  0  0  0  0  0  0  0  0  0  0
   -5.6617   15.2101  -35.2662 H   0  0  0  0  0  0  0  0  0  0  0  0
   -6.1828   14.2264  -38.2084 H   0  0  0  0  0  0  0  0  0  0  0  0
   -7.4479   15.3965  -38.6417 H   0  0  0  0  0  0  0  0  0  0  0  0
   -5.9819   15.9164  -37.7797 H   0  0  0  0  0  0  0  0  0  0  0  0
   -9.9750   13.5652  -38.3732 H   0  0  0  0  0  0  0  0  0  0  0  0
  1  3  1  0  0  0  0
  1  7  1  0  0  0  0
  1 15  2  0  0  0  0
  2 14  1  0  0  0  0
  2 16  2  0  0  0  0
  2 17  1  0  0  0  0
  3  8  1  0  0  0  0
  4  5  1  0  0  0  0
  4  7  1  0  0  0  0
  5  8  1  1  0  0  0
  6  7  1  6  0  0  0
  6  9  1  0  0  0  0
  8  9  1  0  0  0  0
  9 14  1  6  0  0  0
 10 13  1  0  0  0  0
 11 13  1  0  0  0  0
 12 13  1  0  0  0  0
 13 17  1  0  0  0  0
  3 18  1  0  0  0  0
  3 19  1  0  0  0  0
  4 20  1  0  0  0  0
  4 21  1  0  0  0  0
  5 22  1  0  0  0  0
  5 23  1  0  0  0  0
  6 24  1  0  0  0  0
  6 25  1  0  0  0  0
  7 26  1  0  0  0  0
  8 27  1  0  0  0  0
  9 28  1  0  0  0  0
 10 29  1  0  0  0  0
 10 30  1  0  0  0  0
 10 31  1  0  0  0  0
 11 32  1  0  0  0  0
 11 33  1  0  0  0  0
 11 34  1  0  0  0  0
 12 35  1  0  0  0  0
 12 36  1  0  0  0  0
 12 37  1  0  0  0  0
 14 38  1  0  0  0  0
M  END
> <id>
EN300-27686818

> <smiles>
CC(C)(C)OC(=O)N[C@@H]1C[C@H]2CC[C@@H]1CC2=O |&1:8,10,13,r|

> <IUPAC Name>
rac-tert-butyl N-[(1R,2R,4R)-5-oxobicyclo[2.2.2]octan-2-yl]carbamate

> <CAS>
2165975-01-7

> <Purity>
95

> <URL>
https://www.enaminestore.com/catalog/EN300-27686818

> <ROCS_ShapeQuery>
_x1247relevant_x1083L0AP1_x1305L0BP1_

> <ROCS_TanimotoCombo>
0.820 

> <ROCS_ShapeTanimoto>
0.462 

> <ROCS_ColorTanimoto>
0.358 

> <ROCS_RefTversky>
0.408 

> <ROCS_RefColorTversky>
0.395 

> <ROCS_RefTverskyCombo>
0.804 

> <ROCS_FitTversky>
1.399 

> <ROCS_FitColorTversky>
0.793 

> <ROCS_FitTverskyCombo>
2.192 

> <ROCS_ColorScore>
-8.400

> <ROCS_Overlap>
1204.272

> <ROCS_Rank>
430                 

$$$$
untitled-dbase-23640_0
  -OEChem-06232314393D

 27 29  0     1  0  0  0  0  0999 V2000
   -9.7025   16.1819  -37.1110 C   0  0  0  0  0  0  0  0  0  0  0  0
  -10.0011   14.0069  -36.9884 C   0  0  0  0  0  0  0  0  0  0  0  0
  -10.6882   15.1796  -37.1858 C   0  0  0  0  0  0  0  0  0  0  0  0
  -12.3733   16.0335  -39.6361 C   0  0  0  0  0  0  0  0  0  0  0  0
  -12.7336   13.7494  -39.0150 C   0  0  0  0  0  0  0  0  0  0  0  0
  -14.0777   16.3324  -37.8651 C   0  0  0  0  0  0  0  0  0  0  0  0
  -14.3079   14.8695  -37.4658 C   0  0  0  0  0  0  0  0  0  0  0  0
  -12.5808   16.4069  -38.1851 C   0  0  1  0  0  0  0  0  0  0  0  0
  -12.9251   14.2208  -37.5905 C   0  0  2  0  0  0  0  0  0  0  0  0
   -7.5886   13.4716  -36.5710 C   0  0  0  0  0  0  0  0  0  0  0  0
   -8.4821   15.6890  -36.8836 N   0  0  0  0  0  0  0  0  0  0  0  0
   -8.6964   14.3641  -36.8137 N   0  0  0  0  0  0  0  0  0  0  0  0
  -12.0112   15.3292  -37.4019 N   0  0  0  0  0  0  0  0  0  0  0  0
  -12.1766   16.8858  -40.4989 O   0  0  0  0  0  0  0  0  0  0  0  0
  -12.8582   12.5671  -39.3246 O   0  0  0  0  0  0  0  0  0  0  0  0
  -12.4578   14.7060  -39.9521 O   0  0  0  0  0  0  0  0  0  0  0  0
   -9.8187   17.2517  -37.2128 H   0  0  0  0  0  0  0  0  0  0  0  0
  -10.3202   12.9737  -36.9571 H   0  0  0  0  0  0  0  0  0  0  0  0
  -14.7097   16.6158  -38.7136 H   0  0  0  0  0  0  0  0  0  0  0  0
  -14.3238   16.9871  -37.0214 H   0  0  0  0  0  0  0  0  0  0  0  0
  -14.6629   14.8225  -36.4300 H   0  0  0  0  0  0  0  0  0  0  0  0
  -15.0597   14.3971  -38.1069 H   0  0  0  0  0  0  0  0  0  0  0  0
  -12.1392   17.3836  -37.9653 H   0  0  0  0  0  0  0  0  0  0  0  0
  -12.7658   13.4015  -36.8829 H   0  0  0  0  0  0  0  0  0  0  0  0
   -7.1704   13.1820  -37.5386 H   0  0  0  0  0  0  0  0  0  0  0  0
   -6.8346   13.9832  -35.9663 H   0  0  0  0  0  0  0  0  0  0  0  0
   -7.9456   12.5915  -36.0288 H   0  0  0  0  0  0  0  0  0  0  0  0
  1  3  1  0  0  0  0
  1 11  2  0  0  0  0
  2  3  2  0  0  0  0
  2 12  1  0  0  0  0
  3 13  1  0  0  0  0
  4  8  1  0  0  0  0
  4 14  2  0  0  0  0
  4 16  1  0  0  0  0
  5  9  1  0  0  0  0
  5 15  2  0  0  0  0
  5 16  1  0  0  0  0
  6  7  1  0  0  0  0
  6  8  1  0  0  0  0
  7  9  1  0  0  0  0
  8 13  1  0  0  0  0
  9 13  1  0  0  0  0
 10 12  1  0  0  0  0
 11 12  1  0  0  0  0
  1 17  1  0  0  0  0
  2 18  1  0  0  0  0
  6 19  1  0  0  0  0
  6 20  1  0  0  0  0
  7 21  1  0  0  0  0
  7 22  1  0  0  0  0
  8 23  1  0  0  0  0
  9 24  1  0  0  0  0
 10 25  1  0  0  0  0
 10 26  1  0  0  0  0
 10 27  1  0  0  0  0
M  END
> <id>
EN300-302254

> <smiles>
CN1C=C(C=N1)N2C3CCC2C(=O)OC3=O

> <MDLNUMBER>
MFCD30486575

> <IUPAC Name>
8-(1-methyl-1H-pyrazol-4-yl)-3-oxa-8-azabicyclo[3.2.1]octane-2,4-dione

> <CAS>
2044713-00-8

> <Purity>
95

> <URL>
https://www.enaminestore.com/catalog/EN300-302254

> <ROCS_ShapeQuery>
_x1247relevant_x1083L0AP1_x1305L0BP1_

> <ROCS_TanimotoCombo>
0.820 

> <ROCS_ShapeTanimoto>
0.503 

> <ROCS_ColorTanimoto>
0.317 

> <ROCS_RefTversky>
0.434 

> <ROCS_RefColorTversky>
0.359 

> <ROCS_RefTverskyCombo>
0.793 

> <ROCS_FitTversky>
1.462 

> <ROCS_FitColorTversky>
0.730 

> <ROCS_FitTverskyCombo>
2.193 

> <ROCS_ColorScore>
-7.637

> <ROCS_Overlap>
1279.526

> <ROCS_Rank>
431                 

$$$$
untitled-dbase-76680_3
  -OEChem-06232314393D

 26 28  0     1  0  0  0  0  0999 V2000
  -11.5035   15.8287  -38.4731 C   0  0  0  0  0  0  0  0  0  0  0  0
  -13.0615   14.2381  -37.5672 C   0  0  0  0  0  0  0  0  0  0  0  0
  -11.8026   14.8336  -37.5410 C   0  0  0  0  0  0  0  0  0  0  0  0
  -12.5087   16.1638  -39.3856 C   0  0  0  0  0  0  0  0  0  0  0  0
  -13.7159   15.4917  -39.3003 C   0  0  0  0  0  0  0  0  0  0  0  0
   -8.9511   13.5265  -37.8812 C   0  0  0  0  0  0  0  0  0  0  0  0
   -8.0281   14.5898  -37.3060 C   0  0  0  0  0  0  0  0  0  0  0  0
   -9.7907   15.5007  -36.0331 C   0  0  0  0  0  0  0  0  0  0  0  0
  -10.7644   14.4063  -36.5092 C   0  0  2  0  0  0  0  0  0  0  0  0
  -14.0650   14.5303  -38.4316 N   0  0  0  0  0  0  0  0  0  0  0  0
  -12.5692   17.0672  -40.4112 N   0  0  0  0  0  0  0  0  0  0  0  0
  -13.7760   16.9788  -40.9663 N   0  0  0  0  0  0  0  0  0  0  0  0
  -14.4636   16.0333  -40.3002 N   0  0  0  0  0  0  0  0  0  0  0  0
  -10.0096   13.2126  -36.9254 N   0  0  0  0  0  0  0  0  0  0  0  0
   -8.7678   15.7684  -36.9949 O   0  0  0  0  0  0  0  0  0  0  0  0
  -10.5371   16.3206  -38.4906 H   0  0  0  0  0  0  0  0  0  0  0  0
  -13.3128   13.4613  -36.8487 H   0  0  0  0  0  0  0  0  0  0  0  0
   -9.3938   13.8771  -38.8176 H   0  0  0  0  0  0  0  0  0  0  0  0
   -8.3865   12.6148  -38.1031 H   0  0  0  0  0  0  0  0  0  0  0  0
   -7.5744   14.2268  -36.3778 H   0  0  0  0  0  0  0  0  0  0  0  0
   -7.2129   14.8389  -37.9969 H   0  0  0  0  0  0  0  0  0  0  0  0
  -10.3163   16.4433  -35.7914 H   0  0  0  0  0  0  0  0  0  0  0  0
   -9.2906   15.1838  -35.1023 H   0  0  0  0  0  0  0  0  0  0  0  0
  -11.3725   14.0731  -35.5968 H   0  0  0  0  0  0  0  0  0  0  0  0
  -15.4135   15.8211  -40.5805 H   0  0  0  0  0  0  0  0  0  0  0  0
  -10.6593   12.5491  -37.3689 H   0  0  0  0  0  0  0  0  0  0  0  0
  1  3  1  0  0  0  0
  1  4  2  0  0  0  0
  2  3  2  0  0  0  0
  2 10  1  0  0  0  0
  3  9  1  0  0  0  0
  4  5  1  0  0  0  0
  4 11  1  0  0  0  0
  5 10  2  0  0  0  0
  5 13  1  0  0  0  0
  6  7  1  0  0  0  0
  6 14  1  0  0  0  0
  7 15  1  0  0  0  0
  8  9  1  0  0  0  0
  8 15  1  0  0  0  0
  9 14  1  0  0  0  0
 11 12  2  0  0  0  0
 12 13  1  0  0  0  0
  1 16  1  0  0  0  0
  2 17  1  0  0  0  0
  6 18  1  0  0  0  0
  6 19  1  0  0  0  0
  7 20  1  0  0  0  0
  7 21  1  0  0  0  0
  8 22  1  0  0  0  0
  8 23  1  0  0  0  0
  9 24  1  0  0  0  0
 13 25  1  0  0  0  0
 14 26  1  0  0  0  0
M  END
> <id>
EN300-1729129

> <smiles>
C1COCC(N1)C=2C=NC=3NN=NC3C2

> <IUPAC Name>
3-{3H-[1,2,3]triazolo[4,5-b]pyridin-6-yl}morpholine

> <CAS>
2228399-02-6

> <URL>
https://www.enaminestore.com/catalog/EN300-1729129

> <ROCS_ShapeQuery>
_x1247relevant_x1083L0AP1_x1305L0BP1_

> <ROCS_TanimotoCombo>
0.820 

> <ROCS_ShapeTanimoto>
0.516 

> <ROCS_ColorTanimoto>
0.304 

> <ROCS_RefTversky>
0.434 

> <ROCS_RefColorTversky>
0.353 

> <ROCS_RefTverskyCombo>
0.788 

> <ROCS_FitTversky>
1.568 

> <ROCS_FitColorTversky>
0.687 

> <ROCS_FitTverskyCombo>
2.255 

> <ROCS_ColorScore>
-7.517

> <ROCS_Overlap>
1280.049

> <ROCS_Rank>
432                 

$$$$
untitled-dbase-78731_5
  -OEChem-06232314393D

 27 29  0     1  0  0  0  0  0999 V2000
  -11.6784   16.0315  -38.7728 C   0  0  0  0  0  0  0  0  0  0  0  0
  -11.9878   14.9688  -37.9132 C   0  0  0  0  0  0  0  0  0  0  0  0
  -12.7637   16.1333  -39.6129 C   0  0  0  0  0  0  0  0  0  0  0  0
  -15.2048   15.7626  -40.8998 C   0  0  0  0  0  0  0  0  0  0  0  0
  -14.8750   14.9688  -39.8761 C   0  0  0  0  0  0  0  0  0  0  0  0
  -14.1859   16.7880  -41.2392 C   0  0  0  0  0  0  0  0  0  0  0  0
   -9.1214   13.6501  -37.9198 C   0  0  0  0  0  0  0  0  0  0  0  0
   -8.3035   14.6301  -37.0926 C   0  0  0  0  0  0  0  0  0  0  0  0
  -10.2497   15.4371  -36.0353 C   0  0  0  0  0  0  0  0  0  0  0  0
  -11.1339   14.4168  -36.7768 C   0  0  2  0  0  0  0  0  0  0  0  0
  -13.1756   14.4221  -38.1702 N   0  0  0  0  0  0  0  0  0  0  0  0
  -13.0439   16.9740  -40.6497 N   0  0  0  0  0  0  0  0  0  0  0  0
  -13.6592   15.1375  -39.2192 N   0  0  0  0  0  0  0  0  0  0  0  0
  -10.3230   13.2587  -37.1880 N   0  0  0  0  0  0  0  0  0  0  0  0
   -9.0824   15.7838  -36.7835 O   0  0  0  0  0  0  0  0  0  0  0  0
  -10.7905   16.6474  -38.7888 H   0  0  0  0  0  0  0  0  0  0  0  0
  -16.1275   15.6933  -41.4567 H   0  0  0  0  0  0  0  0  0  0  0  0
  -15.5252   14.1781  -39.5219 H   0  0  0  0  0  0  0  0  0  0  0  0
  -14.4551   17.4446  -42.0829 H   0  0  0  0  0  0  0  0  0  0  0  0
   -9.4046   14.1039  -38.8734 H   0  0  0  0  0  0  0  0  0  0  0  0
   -8.5300   12.7557  -38.1415 H   0  0  0  0  0  0  0  0  0  0  0  0
   -8.0088   14.1639  -36.1467 H   0  0  0  0  0  0  0  0  0  0  0  0
   -7.3856   14.9341  -37.6111 H   0  0  0  0  0  0  0  0  0  0  0  0
  -10.8069   16.3588  -35.7842 H   0  0  0  0  0  0  0  0  0  0  0  0
   -9.9113   15.0146  -35.0742 H   0  0  0  0  0  0  0  0  0  0  0  0
  -11.8819   14.0102  -36.0034 H   0  0  0  0  0  0  0  0  0  0  0  0
  -10.8902   12.6566  -37.8005 H   0  0  0  0  0  0  0  0  0  0  0  0
  1  2  1  0  0  0  0
  1  3  2  0  0  0  0
  2 10  1  0  0  0  0
  2 11  2  0  0  0  0
  3 12  1  0  0  0  0
  3 13  1  0  0  0  0
  4  5  2  0  0  0  0
  4  6  1  0  0  0  0
  5 13  1  0  0  0  0
  6 12  2  0  0  0  0
  7  8  1  0  0  0  0
  7 14  1  0  0  0  0
  8 15  1  0  0  0  0
  9 10  1  0  0  0  0
  9 15  1  0  0  0  0
 10 14  1  0  0  0  0
 11 13  1  0  0  0  0
  1 16  1  0  0  0  0
  4 17  1  0  0  0  0
  5 18  1  0  0  0  0
  6 19  1  0  0  0  0
  7 20  1  0  0  0  0
  7 21  1  0  0  0  0
  8 22  1  0  0  0  0
  8 23  1  0  0  0  0
  9 24  1  0  0  0  0
  9 25  1  0  0  0  0
 10 26  1  0  0  0  0
 14 27  1  0  0  0  0
M  END
> <id>
EN300-1746838

> <smiles>
C1COCC(N1)C=2C=C3N=CC=CN3N2

> <IUPAC Name>
3-{pyrazolo[1,5-a]pyrimidin-2-yl}morpholine

> <CAS>
2228484-85-1

> <URL>
https://www.enaminestore.com/catalog/EN300-1746838

> <ROCS_ShapeQuery>
_x1247relevant_x1083L0AP1_x1305L0BP1_

> <ROCS_TanimotoCombo>
0.820 

> <ROCS_ShapeTanimoto>
0.511 

> <ROCS_ColorTanimoto>
0.309 

> <ROCS_RefTversky>
0.432 

> <ROCS_RefColorTversky>
0.333 

> <ROCS_RefTverskyCombo>
0.765 

> <ROCS_FitTversky>
1.562 

> <ROCS_FitColorTversky>
0.809 

> <ROCS_FitTverskyCombo>
2.371 

> <ROCS_ColorScore>
-7.055

> <ROCS_Overlap>
1271.245

> <ROCS_Rank>
433                 

$$$$
untitled-dbase-142566_10
  -OEChem-06232314393D

 28 29  0     1  0  0  0  0  0999 V2000
  -14.1018   15.8187  -38.9323 C   0  0  0  0  0  0  0  0  0  0  0  0
  -13.3131   13.8614  -37.4821 C   0  0  0  0  0  0  0  0  0  0  0  0
  -12.9845   16.8559  -38.7834 C   0  0  0  0  0  0  0  0  0  0  0  0
  -12.8326   14.8947  -36.4655 C   0  0  0  0  0  0  0  0  0  0  0  0
  -12.2718   14.3448  -39.7346 C   0  0  0  0  0  0  0  0  0  0  0  0
  -13.5550   14.3881  -38.9085 C   0  0  2  0  0  0  0  0  0  0  0  0
  -11.6499   16.2359  -38.3549 C   0  0  1  0  0  0  0  0  0  0  0  0
  -11.6373   15.7439  -36.8968 C   0  0  2  0  0  0  0  0  0  0  0  0
  -10.3304   13.5064  -37.4486 N   0  0  0  0  0  0  0  0  0  0  0  0
   -9.0383   15.7008  -37.0853 O   0  0  0  0  0  0  0  0  0  0  0  0
  -10.1424   14.5696  -35.1138 O   0  0  0  0  0  0  0  0  0  0  0  0
  -11.2425   15.1958  -39.2479 O   0  0  0  0  0  0  0  0  0  0  0  0
  -10.1100   14.9133  -36.5178 S   0  0  0  0  0  0  0  0  0  0  0  0
  -14.8554   15.9663  -38.1515 H   0  0  0  0  0  0  0  0  0  0  0  0
  -14.6145   16.0024  -39.8836 H   0  0  0  0  0  0  0  0  0  0  0  0
  -12.5572   13.0673  -37.5286 H   0  0  0  0  0  0  0  0  0  0  0  0
  -14.2239   13.3803  -37.1064 H   0  0  0  0  0  0  0  0  0  0  0  0
  -12.8428   17.3454  -39.7590 H   0  0  0  0  0  0  0  0  0  0  0  0
  -13.2962   17.6445  -38.0842 H   0  0  0  0  0  0  0  0  0  0  0  0
  -13.6790   15.5536  -36.2111 H   0  0  0  0  0  0  0  0  0  0  0  0
  -12.5964   14.3765  -35.5207 H   0  0  0  0  0  0  0  0  0  0  0  0
  -11.8717   13.3255  -39.7770 H   0  0  0  0  0  0  0  0  0  0  0  0
  -12.4836   14.6436  -40.7685 H   0  0  0  0  0  0  0  0  0  0  0  0
  -14.2958   13.7323  -39.3761 H   0  0  0  0  0  0  0  0  0  0  0  0
  -10.8872   17.0350  -38.4701 H   0  0  0  0  0  0  0  0  0  0  0  0
  -11.5943   16.6566  -36.2220 H   0  0  0  0  0  0  0  0  0  0  0  0
   -9.7606   13.3951  -38.2963 H   0  0  0  0  0  0  0  0  0  0  0  0
  -10.5128   12.6248  -36.9536 H   0  0  0  0  0  0  0  0  0  0  0  0
  1  3  1  0  0  0  0
  1  6  1  0  0  0  0
  2  4  1  0  0  0  0
  2  6  1  0  0  0  0
  3  7  1  0  0  0  0
  4  8  1  0  0  0  0
  5  6  1  0  0  0  0
  5 12  1  0  0  0  0
  7  8  1  0  0  0  0
  7 12  1  0  0  0  0
  8 13  1  0  0  0  0
  9 13  1  0  0  0  0
 10 13  2  0  0  0  0
 11 13  2  0  0  0  0
  1 14  1  0  0  0  0
  1 15  1  0  0  0  0
  2 16  1  0  0  0  0
  2 17  1  0  0  0  0
  3 18  1  0  0  0  0
  3 19  1  0  0  0  0
  4 20  1  0  0  0  0
  4 21  1  0  0  0  0
  5 22  1  0  0  0  0
  5 23  1  0  0  0  0
  6 24  1  0  0  0  0
  7 25  1  0  0  0  0
  8 26  1  0  0  0  0
  9 27  1  0  0  0  0
  9 28  1  0  0  0  0
M  END
> <id>
EN300-27734465

> <smiles>
NS(=O)(=O)C1CCC2CCC1OC2

> <IUPAC Name>
6-oxabicyclo[3.2.2]nonane-4-sulfonamide

> <CAS>
2580184-09-2

> <URL>
https://www.enaminestore.com/catalog/EN300-27734465

> <ROCS_ShapeQuery>
_x1247relevant_x1083L0AP1_x1305L0BP1_

> <ROCS_TanimotoCombo>
0.820 

> <ROCS_ShapeTanimoto>
0.461 

> <ROCS_ColorTanimoto>
0.359 

> <ROCS_RefTversky>
0.388 

> <ROCS_RefColorTversky>
0.391 

> <ROCS_RefTverskyCombo>
0.779 

> <ROCS_FitTversky>
1.700 

> <ROCS_FitColorTversky>
0.813 

> <ROCS_FitTverskyCombo>
2.513 

> <ROCS_ColorScore>
-8.301

> <ROCS_Overlap>
1139.187

> <ROCS_Rank>
434                 

$$$$
untitled-dbase-51503_1
  -OEChem-06232314393D

 23 25  0     1  0  0  0  0  0999 V2000
  -10.2493   15.2099  -36.8383 C   0  0  0  0  0  0  0  0  0  0  0  0
  -13.8438   14.8857  -37.4081 C   0  0  0  0  0  0  0  0  0  0  0  0
  -13.0936   16.7339  -38.5569 C   0  0  0  0  0  0  0  0  0  0  0  0
  -11.9560   13.7264  -38.0339 C   0  0  0  0  0  0  0  0  0  0  0  0
  -11.2036   15.5799  -39.1857 C   0  0  0  0  0  0  0  0  0  0  0  0
  -12.7359   15.9389  -37.2961 C   0  0  0  0  0  0  0  0  0  0  0  0
  -13.2309   14.2829  -38.6764 C   0  0  2  0  0  0  0  0  0  0  0  0
  -12.7079   15.5712  -39.4771 C   0  0  1  0  0  0  0  0  0  0  0  0
  -11.4272   15.1315  -37.7404 C   0  0  0  0  0  0  0  0  0  0  0  0
   -9.1662   15.6897  -37.1383 O   0  0  0  0  0  0  0  0  0  0  0  0
  -10.5366   14.6716  -35.6279 O   0  0  0  0  0  0  0  0  0  0  0  0
  -13.8798   14.2017  -36.5536 H   0  0  0  0  0  0  0  0  0  0  0  0
  -14.8466   15.2969  -37.5636 H   0  0  0  0  0  0  0  0  0  0  0  0
  -14.1491   17.0152  -38.6316 H   0  0  0  0  0  0  0  0  0  0  0  0
  -12.4861   17.6357  -38.6878 H   0  0  0  0  0  0  0  0  0  0  0  0
  -12.1171   13.1175  -37.1374 H   0  0  0  0  0  0  0  0  0  0  0  0
  -11.3389   13.1458  -38.7283 H   0  0  0  0  0  0  0  0  0  0  0  0
  -10.6394   14.8684  -39.7987 H   0  0  0  0  0  0  0  0  0  0  0  0
  -10.7201   16.5590  -39.2755 H   0  0  0  0  0  0  0  0  0  0  0  0
  -12.6985   16.5030  -36.3641 H   0  0  0  0  0  0  0  0  0  0  0  0
  -13.8487   13.5734  -39.2263 H   0  0  0  0  0  0  0  0  0  0  0  0
  -13.0018   15.6593  -40.5227 H   0  0  0  0  0  0  0  0  0  0  0  0
  -11.4588   14.3399  -35.5840 H   0  0  0  0  0  0  0  0  0  0  0  0
  1  9  1  0  0  0  0
  1 10  2  0  0  0  0
  1 11  1  0  0  0  0
  2  6  1  0  0  0  0
  2  7  1  0  0  0  0
  3  6  1  0  0  0  0
  3  8  1  0  0  0  0
  4  7  1  0  0  0  0
  4  9  1  0  0  0  0
  5  8  1  0  0  0  0
  5  9  1  0  0  0  0
  6  9  1  0  0  0  0
  7  8  1  0  0  0  0
  2 12  1  0  0  0  0
  2 13  1  0  0  0  0
  3 14  1  0  0  0  0
  3 15  1  0  0  0  0
  4 16  1  0  0  0  0
  4 17  1  0  0  0  0
  5 18  1  0  0  0  0
  5 19  1  0  0  0  0
  6 20  1  0  0  0  0
  7 21  1  0  0  0  0
  8 22  1  0  0  0  0
 11 23  1  0  0  0  0
M  END
> <id>
EN300-7709573

> <smiles>
OC(=O)C12CC3CC2CC3C1

> <MDLNUMBER>
MFCD20643411

> <IUPAC Name>
tricyclo[3.3.0.0,3,7]octane-1-carboxylic acid

> <CAS>
19027-07-7

> <Purity>
95

> <URL>
https://www.enaminestore.com/catalog/EN300-7709573

> <ROCS_ShapeQuery>
_x1247relevant_x1083L0AP1_x1305L0BP1_

> <ROCS_TanimotoCombo>
0.820 

> <ROCS_ShapeTanimoto>
0.463 

> <ROCS_ColorTanimoto>
0.357 

> <ROCS_RefTversky>
0.386 

> <ROCS_RefColorTversky>
0.566 

> <ROCS_RefTverskyCombo>
0.952 

> <ROCS_FitTversky>
1.763 

> <ROCS_FitColorTversky>
0.491 

> <ROCS_FitTverskyCombo>
2.254 

> <ROCS_ColorScore>
-12.467

> <ROCS_Overlap>
1133.187

> <ROCS_Rank>
435                 

$$$$
untitled-dbase-79243_12
  -OEChem-06232314393D

 24 25  0     1  0  0  0  0  0999 V2000
  -10.0787   15.3210  -36.7324 C   0  0  0  0  0  0  0  0  0  0  0  0
  -13.6137   16.0561  -39.6046 C   0  0  0  0  0  0  0  0  0  0  0  0
  -12.1345   16.0969  -39.9686 C   0  0  0  0  0  0  0  0  0  0  0  0
  -14.0391   14.7637  -38.9076 C   0  0  0  0  0  0  0  0  0  0  0  0
  -11.2044   16.3561  -38.7801 C   0  0  0  0  0  0  0  0  0  0  0  0
  -12.6931   15.5453  -36.7754 C   0  0  0  0  0  0  0  0  0  0  0  0
  -13.2208   14.4107  -37.6669 C   0  0  2  0  0  0  0  0  0  0  0  0
  -11.3733   15.4086  -37.5824 C   0  0  2  0  0  0  0  0  0  0  0  0
  -11.8177   14.0467  -37.9865 N   0  0  0  0  0  0  0  0  0  0  0  0
   -9.0418   15.9230  -36.9689 O   0  0  0  0  0  0  0  0  0  0  0  0
  -10.2501   14.4787  -35.6844 O   0  0  0  0  0  0  0  0  0  0  0  0
  -13.8337   16.8913  -38.9288 H   0  0  0  0  0  0  0  0  0  0  0  0
  -14.2215   16.2224  -40.5020 H   0  0  0  0  0  0  0  0  0  0  0  0
  -11.8565   15.1269  -40.4027 H   0  0  0  0  0  0  0  0  0  0  0  0
  -11.9642   16.8379  -40.7598 H   0  0  0  0  0  0  0  0  0  0  0  0
  -15.0970   14.8268  -38.6325 H   0  0  0  0  0  0  0  0  0  0  0  0
  -13.9578   13.9479  -39.6342 H   0  0  0  0  0  0  0  0  0  0  0  0
  -10.1606   16.3306  -39.1253 H   0  0  0  0  0  0  0  0  0  0  0  0
  -11.3846   17.3874  -38.4450 H   0  0  0  0  0  0  0  0  0  0  0  0
  -13.2170   16.5029  -36.8225 H   0  0  0  0  0  0  0  0  0  0  0  0
  -12.6010   15.2628  -35.7189 H   0  0  0  0  0  0  0  0  0  0  0  0
  -13.7467   13.6395  -37.0899 H   0  0  0  0  0  0  0  0  0  0  0  0
  -11.4623   13.3020  -37.3853 H   0  0  0  0  0  0  0  0  0  0  0  0
   -9.4405   14.4081  -35.1349 H   0  0  0  0  0  0  0  0  0  0  0  0
  1  8  1  0  0  0  0
  1 10  2  0  0  0  0
  1 11  1  0  0  0  0
  2  3  1  0  0  0  0
  2  4  1  0  0  0  0
  3  5  1  0  0  0  0
  4  7  1  0  0  0  0
  5  8  1  0  0  0  0
  6  7  1  0  0  0  0
  6  8  1  0  0  0  0
  7  9  1  0  0  0  0
  8  9  1  0  0  0  0
  2 12  1  0  0  0  0
  2 13  1  0  0  0  0
  3 14  1  0  0  0  0
  3 15  1  0  0  0  0
  4 16  1  0  0  0  0
  4 17  1  0  0  0  0
  5 18  1  0  0  0  0
  5 19  1  0  0  0  0
  6 20  1  0  0  0  0
  6 21  1  0  0  0  0
  7 22  1  0  0  0  0
  9 23  1  0  0  0  0
 11 24  1  0  0  0  0
M  END
> <id>
EN300-37276270

> <smiles>
OC(=O)C1(CC2CCCC1)N2

> <IUPAC Name>
7-azabicyclo[4.1.1]octane-1-carboxylic acid

> <CAS>
2743434-23-1

> <URL>
https://www.enaminestore.com/catalog/EN300-37276270

> <ROCS_ShapeQuery>
_x1247relevant_x1083L0AP1_x1305L0BP1_

> <ROCS_TanimotoCombo>
0.820 

> <ROCS_ShapeTanimoto>
0.450 

> <ROCS_ColorTanimoto>
0.370 

> <ROCS_RefTversky>
0.374 

> <ROCS_RefColorTversky>
0.413 

> <ROCS_RefTverskyCombo>
0.787 

> <ROCS_FitTversky>
1.814 

> <ROCS_FitColorTversky>
0.780 

> <ROCS_FitTverskyCombo>
2.594 

> <ROCS_ColorScore>
-8.789

> <ROCS_Overlap>
1099.116

> <ROCS_Rank>
436                 

$$$$
untitled-dbase-79244_9
  -OEChem-06232314393D

 27 28  0     1  0  0  0  0  0999 V2000
  -10.0366   15.1376  -36.8373 C   0  0  0  0  0  0  0  0  0  0  0  0
  -13.7435   16.2236  -39.3603 C   0  0  0  0  0  0  0  0  0  0  0  0
  -12.2883   16.3894  -39.7808 C   0  0  0  0  0  0  0  0  0  0  0  0
  -14.0887   14.8115  -38.8869 C   0  0  0  0  0  0  0  0  0  0  0  0
  -11.3041   16.4719  -38.6106 C   0  0  0  0  0  0  0  0  0  0  0  0
  -12.6555   15.2575  -36.7154 C   0  0  0  0  0  0  0  0  0  0  0  0
  -13.1937   14.2783  -37.7698 C   0  0  2  0  0  0  0  0  0  0  0  0
  -11.3775   15.3208  -37.5954 C   0  0  2  0  0  0  0  0  0  0  0  0
   -8.9787   13.8271  -35.1798 C   0  0  0  0  0  0  0  0  0  0  0  0
  -11.7989   14.0351  -38.2156 N   0  0  0  0  0  0  0  0  0  0  0  0
   -9.0431   15.8264  -37.0260 O   0  0  0  0  0  0  0  0  0  0  0  0
  -10.1510   14.1076  -35.9512 O   0  0  0  0  0  0  0  0  0  0  0  0
  -13.9535   16.9158  -38.5361 H   0  0  0  0  0  0  0  0  0  0  0  0
  -14.4040   16.5210  -40.1836 H   0  0  0  0  0  0  0  0  0  0  0  0
  -12.0029   15.5241  -40.3945 H   0  0  0  0  0  0  0  0  0  0  0  0
  -12.1849   17.2654  -40.4336 H   0  0  0  0  0  0  0  0  0  0  0  0
  -15.1318   14.7810  -38.5552 H   0  0  0  0  0  0  0  0  0  0  0  0
  -14.0206   14.1416  -39.7510 H   0  0  0  0  0  0  0  0  0  0  0  0
  -10.2802   16.5513  -39.0038 H   0  0  0  0  0  0  0  0  0  0  0  0
  -11.4991   17.4191  -38.0879 H   0  0  0  0  0  0  0  0  0  0  0  0
  -13.2117   16.1858  -36.5652 H   0  0  0  0  0  0  0  0  0  0  0  0
  -12.4973   14.7962  -35.7322 H   0  0  0  0  0  0  0  0  0  0  0  0
  -13.6625   13.3958  -37.3161 H   0  0  0  0  0  0  0  0  0  0  0  0
   -9.1768   12.9900  -34.5059 H   0  0  0  0  0  0  0  0  0  0  0  0
   -8.6992   14.7134  -34.6047 H   0  0  0  0  0  0  0  0  0  0  0  0
   -8.1629   13.5620  -35.8565 H   0  0  0  0  0  0  0  0  0  0  0  0
  -11.3877   13.2109  -37.7752 H   0  0  0  0  0  0  0  0  0  0  0  0
  1  8  1  0  0  0  0
  1 11  2  0  0  0  0
  1 12  1  0  0  0  0
  2  3  1  0  0  0  0
  2  4  1  0  0  0  0
  3  5  1  0  0  0  0
  4  7  1  0  0  0  0
  5  8  1  0  0  0  0
  6  7  1  0  0  0  0
  6  8  1  0  0  0  0
  7 10  1  0  0  0  0
  8 10  1  0  0  0  0
  9 12  1  0  0  0  0
  2 13  1  0  0  0  0
  2 14  1  0  0  0  0
  3 15  1  0  0  0  0
  3 16  1  0  0  0  0
  4 17  1  0  0  0  0
  4 18  1  0  0  0  0
  5 19  1  0  0  0  0
  5 20  1  0  0  0  0
  6 21  1  0  0  0  0
  6 22  1  0  0  0  0
  7 23  1  0  0  0  0
  9 24  1  0  0  0  0
  9 25  1  0  0  0  0
  9 26  1  0  0  0  0
 10 27  1  0  0  0  0
M  END
> <id>
EN300-37276271

> <smiles>
COC(=O)C1(CC2CCCC1)N2

> <IUPAC Name>
methyl 7-azabicyclo[4.1.1]octane-1-carboxylate

> <CAS>
2743438-19-7

> <URL>
https://www.enaminestore.com/catalog/EN300-37276271

> <ROCS_ShapeQuery>
_x1247relevant_x1083L0AP1_x1305L0BP1_

> <ROCS_TanimotoCombo>
0.820 

> <ROCS_ShapeTanimoto>
0.463 

> <ROCS_ColorTanimoto>
0.357 

> <ROCS_RefTversky>
0.386 

> <ROCS_RefColorTversky>
0.379 

> <ROCS_RefTverskyCombo>
0.765 

> <ROCS_FitTversky>
1.755 

> <ROCS_FitColorTversky>
0.859 

> <ROCS_FitTverskyCombo>
2.613 

> <ROCS_ColorScore>
-8.036

> <ROCS_Overlap>
1133.813

> <ROCS_Rank>
437                 

$$$$
untitled-dbase-47022_16
  -OEChem-06232314393D

 37 39  0     1  0  0  0  0  0999 V2000
  -13.4650   16.6747  -38.1783 C   0  0  0  0  0  0  0  0  0  0  0  0
  -14.0971   15.4257  -37.5666 C   0  0  0  0  0  0  0  0  0  0  0  0
  -11.1248   15.4496  -36.0630 C   0  0  0  0  0  0  0  0  0  0  0  0
  -11.0736   15.8364  -38.5851 C   0  0  0  0  0  0  0  0  0  0  0  0
  -12.1857   13.7221  -37.6511 C   0  0  0  0  0  0  0  0  0  0  0  0
   -9.6980   15.9071  -35.8175 C   0  0  0  0  0  0  0  0  0  0  0  0
  -12.4617   16.1332  -39.1959 C   0  0  1  0  0  0  0  0  0  0  0  0
  -13.4607   14.2610  -38.3288 C   0  0  2  0  0  0  0  0  0  0  0  0
   -9.6520   14.1339  -37.3323 C   0  0  2  0  0  0  0  0  0  0  0  0
  -11.0639   14.7699  -37.4373 C   0  0  0  0  0  0  0  0  0  0  0  0
  -14.1135   14.9688  -40.5741 C   0  0  0  0  0  0  0  0  0  0  0  0
   -9.5582   12.8132  -36.5654 C   0  0  0  0  0  0  0  0  0  0  0  0
  -13.0230   14.8375  -39.6113 N   0  0  0  0  0  0  0  0  0  0  0  0
   -9.5350   13.0637  -35.1612 N   0  0  0  0  0  0  0  0  0  0  0  0
   -8.8419   15.0922  -36.6256 O   0  0  0  0  0  0  0  0  0  0  0  0
  -14.2421   17.2642  -38.6790 H   0  0  0  0  0  0  0  0  0  0  0  0
  -13.0041   17.3202  -37.4252 H   0  0  0  0  0  0  0  0  0  0  0  0
  -13.9553   15.3610  -36.4850 H   0  0  0  0  0  0  0  0  0  0  0  0
  -15.1801   15.4473  -37.7410 H   0  0  0  0  0  0  0  0  0  0  0  0
  -11.4836   14.8311  -35.2391 H   0  0  0  0  0  0  0  0  0  0  0  0
  -11.7743   16.3345  -36.0999 H   0  0  0  0  0  0  0  0  0  0  0  0
  -10.4244   15.4851  -39.3981 H   0  0  0  0  0  0  0  0  0  0  0  0
  -10.6252   16.7736  -38.2332 H   0  0  0  0  0  0  0  0  0  0  0  0
  -12.4636   13.2401  -36.7034 H   0  0  0  0  0  0  0  0  0  0  0  0
  -11.8225   12.9112  -38.2959 H   0  0  0  0  0  0  0  0  0  0  0  0
   -9.5531   16.9608  -36.0793 H   0  0  0  0  0  0  0  0  0  0  0  0
   -9.4029   15.7724  -34.7708 H   0  0  0  0  0  0  0  0  0  0  0  0
  -12.3304   16.8244  -40.0390 H   0  0  0  0  0  0  0  0  0  0  0  0
  -14.1641   13.4328  -38.4564 H   0  0  0  0  0  0  0  0  0  0  0  0
   -9.2232   13.9974  -38.3059 H   0  0  0  0  0  0  0  0  0  0  0  0
  -14.4879   13.9701  -40.8433 H   0  0  0  0  0  0  0  0  0  0  0  0
  -14.9282   15.5575  -40.1272 H   0  0  0  0  0  0  0  0  0  0  0  0
  -13.7458   15.4780  -41.4772 H   0  0  0  0  0  0  0  0  0  0  0  0
  -10.4318   12.2159  -36.8295 H   0  0  0  0  0  0  0  0  0  0  0  0
   -8.6389   12.3156  -36.8769 H   0  0  0  0  0  0  0  0  0  0  0  0
  -10.3617   13.5620  -34.8864 H   0  0  0  0  0  0  0  0  0  0  0  0
   -9.4963   12.1963  -34.6577 H   0  0  0  0  0  0  0  0  0  0  0  0
  1  2  1  0  0  0  0
  1  7  1  0  0  0  0
  2  8  1  0  0  0  0
  3  6  1  0  0  0  0
  3 10  1  0  0  0  0
  4  7  1  0  0  0  0
  4 10  1  0  0  0  0
  5  8  1  0  0  0  0
  5 10  1  0  0  0  0
  6 15  1  0  0  0  0
  7 13  1  0  0  0  0
  8 13  1  0  0  0  0
  9 10  1  0  0  0  0
  9 12  1  0  0  0  0
  9 15  1  0  0  0  0
 11 13  1  0  0  0  0
 12 14  1  0  0  0  0
  1 16  1  0  0  0  0
  1 17  1  0  0  0  0
  2 18  1  0  0  0  0
  2 19  1  0  0  0  0
  3 20  1  0  0  0  0
  3 21  1  0  0  0  0
  4 22  1  0  0  0  0
  4 23  1  0  0  0  0
  5 24  1  0  0  0  0
  5 25  1  0  0  0  0
  6 26  1  0  0  0  0
  6 27  1  0  0  0  0
  7 28  1  0  0  0  0
  8 29  1  0  0  0  0
  9 30  1  0  0  0  0
 11 31  1  0  0  0  0
 11 32  1  0  0  0  0
 11 33  1  0  0  0  0
 12 34  1  0  0  0  0
 12 35  1  0  0  0  0
 14 36  1  0  0  0  0
 14 37  1  0  0  0  0
M  END
> <id>
EN300-1479060

> <smiles>
CN1C2CCC1CC3(CCOC3CN)C2

> <IUPAC Name>
{8-methyl-8-azaspiro[bicyclo[3.2.1]octane-3,3'-oxolane]-2'-yl}methanamine

> <CAS>
2166659-25-0

> <URL>
https://www.enaminestore.com/catalog/EN300-1479060

> <ROCS_ShapeQuery>
_x1247relevant_x1083L0AP1_x1305L0BP1_

> <ROCS_TanimotoCombo>
0.820 

> <ROCS_ShapeTanimoto>
0.528 

> <ROCS_ColorTanimoto>
0.292 

> <ROCS_RefTversky>
0.438 

> <ROCS_RefColorTversky>
0.346 

> <ROCS_RefTverskyCombo>
0.783 

> <ROCS_FitTversky>
1.643 

> <ROCS_FitColorTversky>
0.650 

> <ROCS_FitTverskyCombo>
2.293 

> <ROCS_ColorScore>
-7.365

> <ROCS_Overlap>
1288.431

> <ROCS_Rank>
438                 

$$$$
untitled-dbase-29706_5
  -OEChem-06232314393D

 29 31  0     1  0  0  0  0  0999 V2000
  -10.3208   15.2264  -36.6238 C   0  0  0  0  0  0  0  0  0  0  0  0
  -13.2694   13.9649  -38.7467 C   0  0  0  0  0  0  0  0  0  0  0  0
  -13.5229   16.5139  -38.6031 C   0  0  0  0  0  0  0  0  0  0  0  0
  -12.7759   14.6883  -36.2526 C   0  0  0  0  0  0  0  0  0  0  0  0
  -13.2063   15.3018  -39.5297 C   0  0  1  0  0  0  0  0  0  0  0  0
  -12.3912   13.9597  -37.5083 C   0  0  2  0  0  0  0  0  0  0  0  0
  -12.0064   16.4018  -38.1878 C   0  0  1  0  0  0  0  0  0  0  0  0
  -11.7030   15.2823  -37.1503 C   0  0  2  0  0  0  0  0  0  0  0  0
  -11.7699   15.9653  -39.7146 C   0  0  0  0  0  0  0  0  0  0  0  0
  -10.6167   15.0040  -40.0240 C   0  0  0  0  0  0  0  0  0  0  0  0
  -11.6829   17.1280  -40.7219 C   0  0  0  0  0  0  0  0  0  0  0  0
   -9.3319   15.6523  -37.2018 O   0  0  0  0  0  0  0  0  0  0  0  0
  -10.2961   14.6326  -35.4056 O   0  0  0  0  0  0  0  0  0  0  0  0
  -14.3056   13.7487  -38.4621 H   0  0  0  0  0  0  0  0  0  0  0  0
  -12.9471   13.1537  -39.4100 H   0  0  0  0  0  0  0  0  0  0  0  0
  -13.8067   17.4419  -39.1101 H   0  0  0  0  0  0  0  0  0  0  0  0
  -14.2812   16.3551  -37.8334 H   0  0  0  0  0  0  0  0  0  0  0  0
  -13.7489   15.1545  -36.1883 H   0  0  0  0  0  0  0  0  0  0  0  0
  -12.4683   14.2463  -35.3097 H   0  0  0  0  0  0  0  0  0  0  0  0
  -13.8143   15.2571  -40.4399 H   0  0  0  0  0  0  0  0  0  0  0  0
  -11.8469   13.0305  -37.3912 H   0  0  0  0  0  0  0  0  0  0  0  0
  -11.5523   17.3546  -37.8938 H   0  0  0  0  0  0  0  0  0  0  0  0
   -9.6925   15.5665  -40.1283 H   0  0  0  0  0  0  0  0  0  0  0  0
  -10.8235   14.4744  -40.9503 H   0  0  0  0  0  0  0  0  0  0  0  0
  -10.5136   14.2872  -39.2135 H   0  0  0  0  0  0  0  0  0  0  0  0
  -10.6622   17.4919  -40.7578 H   0  0  0  0  0  0  0  0  0  0  0  0
  -12.3457   17.9247  -40.4032 H   0  0  0  0  0  0  0  0  0  0  0  0
  -11.9807   16.7724  -41.7020 H   0  0  0  0  0  0  0  0  0  0  0  0
   -9.3871   14.5842  -35.0400 H   0  0  0  0  0  0  0  0  0  0  0  0
  1  8  1  0  0  0  0
  1 12  2  0  0  0  0
  1 13  1  0  0  0  0
  2  5  1  0  0  0  0
  2  6  1  0  0  0  0
  3  5  1  0  0  0  0
  3  7  1  0  0  0  0
  4  6  1  0  0  0  0
  4  8  1  0  0  0  0
  5  9  1  0  0  0  0
  6  8  1  0  0  0  0
  7  8  1  0  0  0  0
  7  9  1  0  0  0  0
  9 10  1  0  0  0  0
  9 11  1  0  0  0  0
  2 14  1  0  0  0  0
  2 15  1  0  0  0  0
  3 16  1  0  0  0  0
  3 17  1  0  0  0  0
  4 18  1  0  0  0  0
  4 19  1  0  0  0  0
  5 20  1  0  0  0  0
  6 21  1  0  0  0  0
  7 22  1  0  0  0  0
 10 23  1  0  0  0  0
 10 24  1  0  0  0  0
 10 25  1  0  0  0  0
 11 26  1  0  0  0  0
 11 27  1  0  0  0  0
 11 28  1  0  0  0  0
 13 29  1  0  0  0  0
M  END
> <id>
EN300-1461526

> <smiles>
CC1(C)C2CC1C3(CC3C2)C(=O)O

> <IUPAC Name>
7,7-dimethyltricyclo[4.1.1.0,2,4]octane-2-carboxylic acid

> <CAS>
2167476-36-8

> <URL>
https://www.enaminestore.com/catalog/EN300-1461526

> <ROCS_ShapeQuery>
_x1247relevant_x1083L0AP1_x1305L0BP1_

> <ROCS_TanimotoCombo>
0.820 

> <ROCS_ShapeTanimoto>
0.477 

> <ROCS_ColorTanimoto>
0.343 

> <ROCS_RefTversky>
0.399 

> <ROCS_RefColorTversky>
0.506 

> <ROCS_RefTverskyCombo>
0.905 

> <ROCS_FitTversky>
1.684 

> <ROCS_FitColorTversky>
0.515 

> <ROCS_FitTverskyCombo>
2.199 

> <ROCS_ColorScore>
-11.044

> <ROCS_Overlap>
1174.379

> <ROCS_Rank>
439                 

$$$$
untitled-dbase-104783_329
  -OEChem-06232314393D

 34 35  0     0  0  0  0  0  0999 V2000
  -10.0206   15.0603  -36.7860 C   0  0  0  0  0  0  0  0  0  0  0  0
  -13.4956   15.7311  -37.6621 C   0  0  0  0  0  0  0  0  0  0  0  0
  -12.8530   14.1702  -38.9005 C   0  0  0  0  0  0  0  0  0  0  0  0
  -11.2730   16.0846  -38.7234 C   0  0  0  0  0  0  0  0  0  0  0  0
  -12.4702   14.5623  -37.4264 C   0  0  0  0  0  0  0  0  0  0  0  0
  -12.7406   15.7377  -39.0481 C   0  0  0  0  0  0  0  0  0  0  0  0
   -8.4191   13.1154  -36.9594 C   0  0  0  0  0  0  0  0  0  0  0  0
   -8.5794   13.0376  -34.4539 C   0  0  0  0  0  0  0  0  0  0  0  0
  -10.2340   11.7676  -35.8529 C   0  0  0  0  0  0  0  0  0  0  0  0
  -13.3403   16.4330  -40.2358 C   0  0  0  0  0  0  0  0  0  0  0  0
   -9.3652   13.0214  -35.7632 C   0  0  0  0  0  0  0  0  0  0  0  0
  -11.1493   15.2108  -37.5584 N   0  0  0  0  0  0  0  0  0  0  0  0
   -8.9634   15.6528  -36.9867 O   0  0  0  0  0  0  0  0  0  0  0  0
  -14.7426   16.1888  -40.2711 O   0  0  0  0  0  0  0  0  0  0  0  0
  -10.2203   14.1697  -35.7673 O   0  0  0  0  0  0  0  0  0  0  0  0
  -14.5555   15.4527  -37.6802 H   0  0  0  0  0  0  0  0  0  0  0  0
  -13.3721   16.6197  -37.0354 H   0  0  0  0  0  0  0  0  0  0  0  0
  -12.1187   13.5746  -39.4514 H   0  0  0  0  0  0  0  0  0  0  0  0
  -13.8473   13.7324  -39.0453 H   0  0  0  0  0  0  0  0  0  0  0  0
  -10.5641   15.7793  -39.4981 H   0  0  0  0  0  0  0  0  0  0  0  0
  -11.1189   17.1263  -38.4289 H   0  0  0  0  0  0  0  0  0  0  0  0
  -12.6298   13.8539  -36.6166 H   0  0  0  0  0  0  0  0  0  0  0  0
   -8.9794   13.1041  -37.9012 H   0  0  0  0  0  0  0  0  0  0  0  0
   -7.8150   14.0279  -36.9251 H   0  0  0  0  0  0  0  0  0  0  0  0
   -7.7427   12.2536  -36.9917 H   0  0  0  0  0  0  0  0  0  0  0  0
   -9.2543   12.9703  -33.5929 H   0  0  0  0  0  0  0  0  0  0  0  0
   -8.0281   13.9782  -34.3412 H   0  0  0  0  0  0  0  0  0  0  0  0
   -7.8658   12.2090  -34.4006 H   0  0  0  0  0  0  0  0  0  0  0  0
  -10.9127   11.6999  -34.9951 H   0  0  0  0  0  0  0  0  0  0  0  0
  -10.8331   11.7567  -36.7693 H   0  0  0  0  0  0  0  0  0  0  0  0
   -9.6158   10.8628  -35.8303 H   0  0  0  0  0  0  0  0  0  0  0  0
  -12.9033   16.0637  -41.1736 H   0  0  0  0  0  0  0  0  0  0  0  0
  -13.1816   17.5187  -40.1817 H   0  0  0  0  0  0  0  0  0  0  0  0
  -15.0859   16.6543  -41.0499 H   0  0  0  0  0  0  0  0  0  0  0  0
  1 12  1  0  0  0  0
  1 13  2  0  0  0  0
  1 15  1  0  0  0  0
  2  5  1  0  0  0  0
  2  6  1  0  0  0  0
  3  5  1  0  0  0  0
  3  6  1  0  0  0  0
  4  6  1  0  0  0  0
  4 12  1  0  0  0  0
  5 12  1  0  0  0  0
  6 10  1  0  0  0  0
  7 11  1  0  0  0  0
  8 11  1  0  0  0  0
  9 11  1  0  0  0  0
 10 14  1  0  0  0  0
 11 15  1  0  0  0  0
  2 16  1  0  0  0  0
  2 17  1  0  0  0  0
  3 18  1  0  0  0  0
  3 19  1  0  0  0  0
  4 20  1  0  0  0  0
  4 21  1  0  0  0  0
  5 22  1  0  0  0  0
  7 23  1  0  0  0  0
  7 24  1  0  0  0  0
  7 25  1  0  0  0  0
  8 26  1  0  0  0  0
  8 27  1  0  0  0  0
  8 28  1  0  0  0  0
  9 29  1  0  0  0  0
  9 30  1  0  0  0  0
  9 31  1  0  0  0  0
 10 32  1  0  0  0  0
 10 33  1  0  0  0  0
 14 34  1  0  0  0  0
M  END
> <id>
EN300-7456668

> <smiles>
CC(C)(C)OC(=O)N1CC2(CO)CC1C2

> <MDLNUMBER>
MFCD18073347

> <IUPAC Name>
tert-butyl 4-(hydroxymethyl)-2-azabicyclo[2.1.1]hexane-2-carboxylate

> <CAS>
220598-43-6

> <Purity>
95

> <URL>
https://www.enaminestore.com/catalog/EN300-7456668

> <ROCS_ShapeQuery>
_x1247relevant_x1083L0AP1_x1305L0BP1_

> <ROCS_TanimotoCombo>
0.819 

> <ROCS_ShapeTanimoto>
0.482 

> <ROCS_ColorTanimoto>
0.338 

> <ROCS_RefTversky>
0.411 

> <ROCS_RefColorTversky>
0.387 

> <ROCS_RefTverskyCombo>
0.798 

> <ROCS_FitTversky>
1.550 

> <ROCS_FitColorTversky>
0.727 

> <ROCS_FitTverskyCombo>
2.277 

> <ROCS_ColorScore>
-8.242

> <ROCS_Overlap>
1210.884

> <ROCS_Rank>
440                 

$$$$
untitled-dbase-163181_7
  -OEChem-06232314393D

 25 28  0     1  0  0  0  0  0999 V2000
  -13.5794   16.2232  -40.5395 C   0  0  0  0  0  0  0  0  0  0  0  0
  -14.7738   14.4553  -39.4305 C   0  0  0  0  0  0  0  0  0  0  0  0
  -12.6666   16.3661  -39.3262 C   0  0  2  0  0  0  0  0  0  0  0  0
  -13.8591   14.5994  -38.2188 C   0  0  1  0  0  0  0  0  0  0  0  0
  -11.7154   15.1878  -39.1938 C   0  0  2  0  0  0  0  0  0  0  0  0
  -12.4557   14.0912  -38.5067 C   0  0  1  0  0  0  0  0  0  0  0  0
  -13.4229   16.0803  -37.9916 C   0  0  0  0  0  0  0  0  0  0  0  0
  -11.5222   14.9640  -37.7254 C   0  0  0  0  0  0  0  0  0  0  0  0
  -10.2661   14.5010  -37.1116 C   0  0  0  0  0  0  0  0  0  0  0  0
  -10.1052   13.0716  -37.2320 N   0  0  0  0  0  0  0  0  0  0  0  0
  -14.8474   15.6578  -40.1994 O   0  0  0  0  0  0  0  0  0  0  0  0
  -12.3341   15.9512  -37.0247 O   0  0  0  0  0  0  0  0  0  0  0  0
  -13.7422   17.1938  -41.0193 H   0  0  0  0  0  0  0  0  0  0  0  0
  -13.1205   15.5562  -41.2751 H   0  0  0  0  0  0  0  0  0  0  0  0
  -14.3917   13.6748  -40.0952 H   0  0  0  0  0  0  0  0  0  0  0  0
  -15.7852   14.1705  -39.1223 H   0  0  0  0  0  0  0  0  0  0  0  0
  -12.1247   17.3149  -39.3030 H   0  0  0  0  0  0  0  0  0  0  0  0
  -14.2655   14.1418  -37.3132 H   0  0  0  0  0  0  0  0  0  0  0  0
  -10.9478   15.0196  -39.9250 H   0  0  0  0  0  0  0  0  0  0  0  0
  -12.2780   13.0486  -38.6902 H   0  0  0  0  0  0  0  0  0  0  0  0
  -14.1931   16.7883  -37.6912 H   0  0  0  0  0  0  0  0  0  0  0  0
   -9.4038   14.9890  -37.6032 H   0  0  0  0  0  0  0  0  0  0  0  0
  -10.2531   14.7616  -36.0368 H   0  0  0  0  0  0  0  0  0  0  0  0
  -10.0740   12.8257  -38.1986 H   0  0  0  0  0  0  0  0  0  0  0  0
   -9.2548   12.7995  -36.7863 H   0  0  0  0  0  0  0  0  0  0  0  0
  1  3  1  0  0  0  0
  1 11  1  0  0  0  0
  2  4  1  0  0  0  0
  2 11  1  0  0  0  0
  3  5  1  0  0  0  0
  3  7  1  0  0  0  0
  4  6  1  0  0  0  0
  4  7  1  0  0  0  0
  5  6  1  0  0  0  0
  5  8  1  0  0  0  0
  6  8  1  0  0  0  0
  7 12  1  0  0  0  0
  8  9  1  0  0  0  0
  8 12  1  0  0  0  0
  9 10  1  0  0  0  0
  1 13  1  0  0  0  0
  1 14  1  0  0  0  0
  2 15  1  0  0  0  0
  2 16  1  0  0  0  0
  3 17  1  0  0  0  0
  4 18  1  0  0  0  0
  5 19  1  0  0  0  0
  6 20  1  0  0  0  0
  7 21  1  0  0  0  0
  9 22  1  0  0  0  0
  9 23  1  0  0  0  0
 10 24  1  0  0  0  0
 10 25  1  0  0  0  0
M  END
> <id>
EN300-696463

> <smiles>
NCC12OC3C4COCC3C2C41

> <IUPAC Name>
{5,9-dioxatetracyclo[4.4.0.0^{2,4}.0^{3,7}]decan-4-yl}methanamine

> <CAS>
2138399-44-5

> <URL>
https://www.enaminestore.com/catalog/EN300-696463

> <ROCS_ShapeQuery>
_x1247relevant_x1083L0AP1_x1305L0BP1_

> <ROCS_TanimotoCombo>
0.819 

> <ROCS_ShapeTanimoto>
0.474 

> <ROCS_ColorTanimoto>
0.345 

> <ROCS_RefTversky>
0.397 

> <ROCS_RefColorTversky>
0.687 

> <ROCS_RefTverskyCombo>
1.084 

> <ROCS_FitTversky>
1.685 

> <ROCS_FitColorTversky>
0.410 

> <ROCS_FitTverskyCombo>
2.095 

> <ROCS_ColorScore>
-15.587

> <ROCS_Overlap>
1168.425

> <ROCS_Rank>
441                 

$$$$
untitled-dbase-155804_21
  -OEChem-06232314393D

 27 28  0     1  0  0  0  0  0999 V2000
  -13.2666   16.7215  -40.4572 C   0  0  0  0  0  0  0  0  0  0  0  0
   -9.7803   15.1204  -36.4917 C   0  0  0  0  0  0  0  0  0  0  0  0
  -13.3381   16.5090  -37.9864 C   0  0  0  0  0  0  0  0  0  0  0  0
  -12.2923   14.7694  -36.4448 C   0  0  0  0  0  0  0  0  0  0  0  0
  -10.9722   14.3920  -38.5280 C   0  0  0  0  0  0  0  0  0  0  0  0
  -12.4981   16.2973  -39.2423 C   0  0  1  0  0  0  0  0  0  0  0  0
  -13.4536   15.1105  -37.3863 C   0  0  2  0  0  0  0  0  0  0  0  0
  -12.2515   14.7884  -39.2719 C   0  0  2  0  0  0  0  0  0  0  0  0
   -9.6674   14.6845  -35.0524 C   0  0  0  0  0  0  0  0  0  0  0  0
  -10.9903   14.8445  -37.1302 N   0  0  0  0  0  0  0  0  0  0  0  0
  -12.8967   17.5619  -41.2635 O   0  0  0  0  0  0  0  0  0  0  0  0
   -8.8291   15.6917  -37.0303 O   0  0  0  0  0  0  0  0  0  0  0  0
  -13.3555   14.2405  -38.5253 O   0  0  0  0  0  0  0  0  0  0  0  0
  -14.4382   16.0453  -40.5428 O   0  0  0  0  0  0  0  0  0  0  0  0
  -12.8822   17.2213  -37.2908 H   0  0  0  0  0  0  0  0  0  0  0  0
  -14.3361   16.8901  -38.2342 H   0  0  0  0  0  0  0  0  0  0  0  0
  -12.3130   15.4254  -35.5713 H   0  0  0  0  0  0  0  0  0  0  0  0
  -12.3883   13.7341  -36.0967 H   0  0  0  0  0  0  0  0  0  0  0  0
  -10.8872   13.2993  -38.4900 H   0  0  0  0  0  0  0  0  0  0  0  0
  -10.0871   14.7825  -39.0409 H   0  0  0  0  0  0  0  0  0  0  0  0
  -11.5693   16.8771  -39.2287 H   0  0  0  0  0  0  0  0  0  0  0  0
  -14.4134   14.9541  -36.8848 H   0  0  0  0  0  0  0  0  0  0  0  0
  -12.2567   14.3614  -40.2800 H   0  0  0  0  0  0  0  0  0  0  0  0
   -9.2735   13.6742  -35.0176 H   0  0  0  0  0  0  0  0  0  0  0  0
  -10.6505   14.7154  -34.5936 H   0  0  0  0  0  0  0  0  0  0  0  0
   -9.0005   15.3611  -34.5279 H   0  0  0  0  0  0  0  0  0  0  0  0
  -14.5523   15.4145  -39.8002 H   0  0  0  0  0  0  0  0  0  0  0  0
  1  6  1  0  0  0  0
  1 11  2  0  0  0  0
  1 14  1  0  0  0  0
  2  9  1  0  0  0  0
  2 10  1  0  0  0  0
  2 12  2  0  0  0  0
  3  6  1  0  0  0  0
  3  7  1  0  0  0  0
  4  7  1  0  0  0  0
  4 10  1  0  0  0  0
  5  8  1  0  0  0  0
  5 10  1  0  0  0  0
  6  8  1  0  0  0  0
  7 13  1  0  0  0  0
  8 13  1  0  0  0  0
  3 15  1  0  0  0  0
  3 16  1  0  0  0  0
  4 17  1  0  0  0  0
  4 18  1  0  0  0  0
  5 19  1  0  0  0  0
  5 20  1  0  0  0  0
  6 21  1  0  0  0  0
  7 22  1  0  0  0  0
  8 23  1  0  0  0  0
  9 24  1  0  0  0  0
  9 25  1  0  0  0  0
  9 26  1  0  0  0  0
 14 27  1  0  0  0  0
M  END
> <id>
EN300-28272212

> <smiles>
CC(=O)N1CC2CC(C(C1)O2)C(=O)O

> <IUPAC Name>
3-acetyl-8-oxa-3-azabicyclo[3.2.1]octane-6-carboxylic acid

> <CAS>
2680899-00-5

> <URL>
https://www.enaminestore.com/catalog/EN300-28272212

> <ROCS_ShapeQuery>
_x1247relevant_x1083L0AP1_x1305L0BP1_

> <ROCS_TanimotoCombo>
0.819 

> <ROCS_ShapeTanimoto>
0.484 

> <ROCS_ColorTanimoto>
0.335 

> <ROCS_RefTversky>
0.409 

> <ROCS_RefColorTversky>
0.385 

> <ROCS_RefTverskyCombo>
0.795 

> <ROCS_FitTversky>
1.611 

> <ROCS_FitColorTversky>
0.719 

> <ROCS_FitTverskyCombo>
2.330 

> <ROCS_ColorScore>
-8.207

> <ROCS_Overlap>
1204.383

> <ROCS_Rank>
442                 

$$$$
untitled-dbase-134662_3
  -OEChem-06232314393D

 32 34  0     1  0  0  0  0  0999 V2000
   -9.1687   15.5728  -35.5668 C   0  0  0  0  0  0  0  0  0  0  0  0
   -8.1570   14.6480  -36.2346 C   0  0  0  0  0  0  0  0  0  0  0  0
  -10.4994   14.8526  -35.3651 C   0  0  0  0  0  0  0  0  0  0  0  0
  -13.6255   16.3205  -39.4378 C   0  0  0  0  0  0  0  0  0  0  0  0
  -12.4209   15.5616  -39.9959 C   0  0  0  0  0  0  0  0  0  0  0  0
  -12.7952   15.9475  -37.0923 C   0  0  0  0  0  0  0  0  0  0  0  0
   -8.7268   14.0277  -37.5077 C   0  0  0  0  0  0  0  0  0  0  0  0
  -11.5665   15.2125  -37.6533 C   0  0  1  0  0  0  0  0  0  0  0  0
  -11.0147   14.1932  -36.6533 C   0  0  1  0  0  0  0  0  0  0  0  0
  -13.8741   15.5961  -38.1167 C   0  0  2  0  0  0  0  0  0  0  0  0
  -12.1553   14.5318  -38.8981 C   0  0  1  0  0  0  0  0  0  0  0  0
   -9.9923   13.3297  -37.2645 N   0  0  0  0  0  0  0  0  0  0  0  0
  -13.5048   14.2414  -38.4616 O   0  0  0  0  0  0  0  0  0  0  0  0
   -8.7801   15.9000  -34.5949 H   0  0  0  0  0  0  0  0  0  0  0  0
   -9.3162   16.4714  -36.1753 H   0  0  0  0  0  0  0  0  0  0  0  0
   -7.2477   15.2145  -36.4750 H   0  0  0  0  0  0  0  0  0  0  0  0
   -7.8625   13.8561  -35.5360 H   0  0  0  0  0  0  0  0  0  0  0  0
  -10.3831   14.0918  -34.5762 H   0  0  0  0  0  0  0  0  0  0  0  0
  -11.2441   15.5735  -34.9862 H   0  0  0  0  0  0  0  0  0  0  0  0
  -13.4374   17.3906  -39.3114 H   0  0  0  0  0  0  0  0  0  0  0  0
  -14.4796   16.1965  -40.1128 H   0  0  0  0  0  0  0  0  0  0  0  0
  -12.7042   15.0635  -40.9302 H   0  0  0  0  0  0  0  0  0  0  0  0
  -11.5610   16.2071  -40.1966 H   0  0  0  0  0  0  0  0  0  0  0  0
  -13.0703   15.5617  -36.1042 H   0  0  0  0  0  0  0  0  0  0  0  0
  -12.6366   17.0269  -37.0051 H   0  0  0  0  0  0  0  0  0  0  0  0
   -8.8955   14.8148  -38.2548 H   0  0  0  0  0  0  0  0  0  0  0  0
   -8.0004   13.3323  -37.9524 H   0  0  0  0  0  0  0  0  0  0  0  0
  -10.7658   15.9115  -37.9197 H   0  0  0  0  0  0  0  0  0  0  0  0
  -11.8841   13.5255  -36.3665 H   0  0  0  0  0  0  0  0  0  0  0  0
  -14.8976   15.6699  -37.7429 H   0  0  0  0  0  0  0  0  0  0  0  0
  -11.6271   13.6375  -39.2377 H   0  0  0  0  0  0  0  0  0  0  0  0
  -10.3484   12.9681  -38.1549 H   0  0  0  0  0  0  0  0  0  0  0  0
  1  2  1  0  0  0  0
  1  3  1  0  0  0  0
  2  7  1  0  0  0  0
  3  9  1  0  0  0  0
  4  5  1  0  0  0  0
  4 10  1  0  0  0  0
  5 11  1  0  0  0  0
  6  8  1  0  0  0  0
  6 10  1  0  0  0  0
  7 12  1  0  0  0  0
  8  9  1  0  0  0  0
  8 11  1  0  0  0  0
  9 12  1  0  0  0  0
 10 13  1  0  0  0  0
 11 13  1  0  0  0  0
  1 14  1  0  0  0  0
  1 15  1  0  0  0  0
  2 16  1  0  0  0  0
  2 17  1  0  0  0  0
  3 18  1  0  0  0  0
  3 19  1  0  0  0  0
  4 20  1  0  0  0  0
  4 21  1  0  0  0  0
  5 22  1  0  0  0  0
  5 23  1  0  0  0  0
  6 24  1  0  0  0  0
  6 25  1  0  0  0  0
  7 26  1  0  0  0  0
  7 27  1  0  0  0  0
  8 28  1  0  0  0  0
  9 29  1  0  0  0  0
 10 30  1  0  0  0  0
 11 31  1  0  0  0  0
 12 32  1  0  0  0  0
M  END
> <id>
EN300-1756192

> <smiles>
C1CC2OC1CC2C3CCCCN3

> <IUPAC Name>
2-{7-oxabicyclo[2.2.1]heptan-2-yl}piperidine

> <CAS>
2229620-97-5

> <URL>
https://www.enaminestore.com/catalog/EN300-1756192

> <ROCS_ShapeQuery>
_x1247relevant_x1083L0AP1_x1305L0BP1_

> <ROCS_TanimotoCombo>
0.819 

> <ROCS_ShapeTanimoto>
0.457 

> <ROCS_ColorTanimoto>
0.362 

> <ROCS_RefTversky>
0.389 

> <ROCS_RefColorTversky>
0.402 

> <ROCS_RefTverskyCombo>
0.791 

> <ROCS_FitTversky>
1.630 

> <ROCS_FitColorTversky>
0.783 

> <ROCS_FitTverskyCombo>
2.413 

> <ROCS_ColorScore>
-8.560

> <ROCS_Overlap>
1142.715

> <ROCS_Rank>
443                 

$$$$
untitled-dbase-151535_38
  -OEChem-06232314393D

 29 30  0     1  0  0  0  0  0999 V2000
  -12.9892   16.6158  -40.4678 C   0  0  0  0  0  0  0  0  0  0  0  0
   -9.7418   15.0710  -37.0011 C   0  0  0  0  0  0  0  0  0  0  0  0
  -12.8603   14.2716  -39.5597 C   0  0  0  0  0  0  0  0  0  0  0  0
  -13.4101   13.6501  -38.2677 C   0  0  0  0  0  0  0  0  0  0  0  0
  -13.7916   15.9998  -38.1807 C   0  0  0  0  0  0  0  0  0  0  0  0
  -11.3409   16.1028  -38.6734 C   0  0  0  0  0  0  0  0  0  0  0  0
  -12.1612   15.0450  -36.5471 C   0  0  0  0  0  0  0  0  0  0  0  0
  -12.7285   15.7779  -39.2538 C   0  0  2  0  0  0  0  0  0  0  0  0
  -13.4850   14.8155  -37.2793 C   0  0  2  0  0  0  0  0  0  0  0  0
   -9.5500   13.7952  -36.2192 C   0  0  0  0  0  0  0  0  0  0  0  0
  -11.0392   15.3385  -37.4481 N   0  0  0  0  0  0  0  0  0  0  0  0
  -12.1890   17.3902  -40.9712 O   0  0  0  0  0  0  0  0  0  0  0  0
   -8.7752   15.8101  -37.2038 O   0  0  0  0  0  0  0  0  0  0  0  0
  -14.2427   16.4016  -40.9372 O   0  0  0  0  0  0  0  0  0  0  0  0
  -14.4724   14.6203  -36.3804 F   0  0  0  0  0  0  0  0  0  0  0  0
  -10.7157   13.1356  -36.0997 F   0  0  0  0  0  0  0  0  0  0  0  0
   -8.6698   12.9886  -36.8381 F   0  0  0  0  0  0  0  0  0  0  0  0
   -9.0854   14.0588  -34.9851 F   0  0  0  0  0  0  0  0  0  0  0  0
  -11.9017   13.8211  -39.8417 H   0  0  0  0  0  0  0  0  0  0  0  0
  -13.5572   14.0827  -40.3853 H   0  0  0  0  0  0  0  0  0  0  0  0
  -14.4083   13.2323  -38.4434 H   0  0  0  0  0  0  0  0  0  0  0  0
  -12.7772   12.8330  -37.9059 H   0  0  0  0  0  0  0  0  0  0  0  0
  -13.6980   16.9629  -37.6664 H   0  0  0  0  0  0  0  0  0  0  0  0
  -14.8128   15.9423  -38.5780 H   0  0  0  0  0  0  0  0  0  0  0  0
  -10.5709   15.9177  -39.4289 H   0  0  0  0  0  0  0  0  0  0  0  0
  -11.2730   17.1654  -38.4078 H   0  0  0  0  0  0  0  0  0  0  0  0
  -12.2555   15.8970  -35.8623 H   0  0  0  0  0  0  0  0  0  0  0  0
  -11.9208   14.1774  -35.9218 H   0  0  0  0  0  0  0  0  0  0  0  0
  -14.4338   16.9434  -41.7323 H   0  0  0  0  0  0  0  0  0  0  0  0
  1  8  1  0  0  0  0
  1 12  2  0  0  0  0
  1 14  1  0  0  0  0
  2 10  1  0  0  0  0
  2 11  1  0  0  0  0
  2 13  2  0  0  0  0
  3  4  1  0  0  0  0
  3  8  1  0  0  0  0
  4  9  1  0  0  0  0
  5  8  1  0  0  0  0
  5  9  1  0  0  0  0
  6  8  1  0  0  0  0
  6 11  1  0  0  0  0
  7  9  1  0  0  0  0
  7 11  1  0  0  0  0
  9 15  1  0  0  0  0
 10 16  1  0  0  0  0
 10 17  1  0  0  0  0
 10 18  1  0  0  0  0
  3 19  1  0  0  0  0
  3 20  1  0  0  0  0
  4 21  1  0  0  0  0
  4 22  1  0  0  0  0
  5 23  1  0  0  0  0
  5 24  1  0  0  0  0
  6 25  1  0  0  0  0
  6 26  1  0  0  0  0
  7 27  1  0  0  0  0
  7 28  1  0  0  0  0
 14 29  1  0  0  0  0
M  END
> <id>
EN300-28282959

> <smiles>
OC(=O)C1(CCC2(F)C1)CN(C2)C(=O)C(F)(F)F

> <IUPAC Name>
5-fluoro-3-(2,2,2-trifluoroacetyl)-3-azabicyclo[3.2.1]octane-1-carboxylic acid

> <CAS>
2680846-04-0

> <URL>
https://www.enaminestore.com/catalog/EN300-28282959

> <ROCS_ShapeQuery>
_x1247relevant_x1083L0AP1_x1305L0BP1_

> <ROCS_TanimotoCombo>
0.819 

> <ROCS_ShapeTanimoto>
0.526 

> <ROCS_ColorTanimoto>
0.294 

> <ROCS_RefTversky>
0.454 

> <ROCS_RefColorTversky>
0.338 

> <ROCS_RefTverskyCombo>
0.793 

> <ROCS_FitTversky>
1.427 

> <ROCS_FitColorTversky>
0.690 

> <ROCS_FitTverskyCombo>
2.117 

> <ROCS_ColorScore>
-7.191

> <ROCS_Overlap>
1340.740

> <ROCS_Rank>
444                 

$$$$
untitled-dbase-118399_2
  -OEChem-06232314393D

 24 25  0     1  0  0  0  0  0999 V2000
  -10.5744   15.0997  -36.4291 C   0  0  0  0  0  0  0  0  0  0  0  0
  -14.0882   15.7007  -37.8241 C   0  0  0  0  0  0  0  0  0  0  0  0
  -13.9224   14.8229  -39.0763 C   0  0  0  0  0  0  0  0  0  0  0  0
  -12.0665   16.3066  -38.9034 C   0  0  0  0  0  0  0  0  0  0  0  0
  -11.9019   14.8179  -37.0565 C   0  0  1  0  0  0  0  0  0  0  0  0
  -12.6334   16.0902  -37.5011 C   0  0  2  0  0  0  0  0  0  0  0  0
  -12.4077   14.8914  -39.3427 C   0  0  1  0  0  0  0  0  0  0  0  0
   -8.5150   16.1972  -36.8011 C   0  0  0  0  0  0  0  0  0  0  0  0
  -11.6891   14.0929  -38.3236 N   0  0  0  0  0  0  0  0  0  0  0  0
  -10.2428   14.7036  -35.3199 O   0  0  0  0  0  0  0  0  0  0  0  0
   -9.8190   15.8519  -37.2792 O   0  0  0  0  0  0  0  0  0  0  0  0
  -14.6873   16.5877  -38.0592 H   0  0  0  0  0  0  0  0  0  0  0  0
  -14.5772   15.1634  -37.0055 H   0  0  0  0  0  0  0  0  0  0  0  0
  -14.2726   13.7984  -38.9119 H   0  0  0  0  0  0  0  0  0  0  0  0
  -14.4873   15.2476  -39.9137 H   0  0  0  0  0  0  0  0  0  0  0  0
  -12.6000   17.0772  -39.4708 H   0  0  0  0  0  0  0  0  0  0  0  0
  -10.9937   16.5269  -38.9176 H   0  0  0  0  0  0  0  0  0  0  0  0
  -12.4872   14.2145  -36.3549 H   0  0  0  0  0  0  0  0  0  0  0  0
  -12.5356   16.9438  -36.8269 H   0  0  0  0  0  0  0  0  0  0  0  0
  -12.1263   14.6302  -40.3650 H   0  0  0  0  0  0  0  0  0  0  0  0
   -7.9969   16.7963  -37.5539 H   0  0  0  0  0  0  0  0  0  0  0  0
   -7.9492   15.2856  -36.5928 H   0  0  0  0  0  0  0  0  0  0  0  0
   -8.6160   16.7791  -35.8819 H   0  0  0  0  0  0  0  0  0  0  0  0
  -10.6966   14.0852  -38.5608 H   0  0  0  0  0  0  0  0  0  0  0  0
  1  5  1  0  0  0  0
  1 10  2  0  0  0  0
  1 11  1  0  0  0  0
  2  3  1  0  0  0  0
  2  6  1  0  0  0  0
  3  7  1  0  0  0  0
  4  6  1  0  0  0  0
  4  7  1  0  0  0  0
  5  6  1  0  0  0  0
  5  9  1  0  0  0  0
  7  9  1  0  0  0  0
  8 11  1  0  0  0  0
  2 12  1  0  0  0  0
  2 13  1  0  0  0  0
  3 14  1  0  0  0  0
  3 15  1  0  0  0  0
  4 16  1  0  0  0  0
  4 17  1  0  0  0  0
  5 18  1  0  0  0  0
  6 19  1  0  0  0  0
  7 20  1  0  0  0  0
  8 21  1  0  0  0  0
  8 22  1  0  0  0  0
  8 23  1  0  0  0  0
  9 24  1  0  0  0  0
M  END
> <id>
EN300-1661075

> <smiles>
COC(=O)C1NC2CCC1C2

> <MDLNUMBER>
MFCD20542573

> <IUPAC Name>
methyl 2-azabicyclo[2.2.1]heptane-3-carboxylate

> <CAS>
88260-07-5

> <URL>
https://www.enaminestore.com/catalog/EN300-1661075

> <ROCS_ShapeQuery>
_x1247relevant_x1083L0AP1_x1305L0BP1_

> <ROCS_TanimotoCombo>
0.819 

> <ROCS_ShapeTanimoto>
0.425 

> <ROCS_ColorTanimoto>
0.394 

> <ROCS_RefTversky>
0.361 

> <ROCS_RefColorTversky>
0.416 

> <ROCS_RefTverskyCombo>
0.777 

> <ROCS_FitTversky>
1.713 

> <ROCS_FitColorTversky>
0.884 

> <ROCS_FitTverskyCombo>
2.597 

> <ROCS_ColorScore>
-8.829

> <ROCS_Overlap>
1059.737

> <ROCS_Rank>
445                 

$$$$
untitled-dbase-85607_2
  -OEChem-06232314393D

 24 25  0     1  0  0  0  0  0999 V2000
  -10.5744   15.0997  -36.4291 C   0  0  0  0  0  0  0  0  0  0  0  0
  -14.0882   15.7007  -37.8241 C   0  0  0  0  0  0  0  0  0  0  0  0
  -13.9224   14.8229  -39.0763 C   0  0  0  0  0  0  0  0  0  0  0  0
  -12.0665   16.3066  -38.9034 C   0  0  0  0  0  0  0  0  0  0  0  0
  -11.9019   14.8179  -37.0565 C   0  0  1  0  0  0  0  0  0  0  0  0
  -12.6334   16.0902  -37.5011 C   0  0  2  0  0  0  0  0  0  0  0  0
  -12.4077   14.8914  -39.3427 C   0  0  1  0  0  0  0  0  0  0  0  0
   -8.5150   16.1972  -36.8011 C   0  0  0  0  0  0  0  0  0  0  0  0
  -11.6891   14.0929  -38.3236 N   0  0  0  0  0  0  0  0  0  0  0  0
  -10.2428   14.7036  -35.3199 O   0  0  0  0  0  0  0  0  0  0  0  0
   -9.8190   15.8519  -37.2792 O   0  0  0  0  0  0  0  0  0  0  0  0
  -14.6873   16.5877  -38.0592 H   0  0  0  0  0  0  0  0  0  0  0  0
  -14.5772   15.1634  -37.0055 H   0  0  0  0  0  0  0  0  0  0  0  0
  -14.2726   13.7984  -38.9119 H   0  0  0  0  0  0  0  0  0  0  0  0
  -14.4873   15.2476  -39.9137 H   0  0  0  0  0  0  0  0  0  0  0  0
  -12.6000   17.0772  -39.4708 H   0  0  0  0  0  0  0  0  0  0  0  0
  -10.9937   16.5269  -38.9176 H   0  0  0  0  0  0  0  0  0  0  0  0
  -12.4872   14.2145  -36.3549 H   0  0  0  0  0  0  0  0  0  0  0  0
  -12.5356   16.9438  -36.8269 H   0  0  0  0  0  0  0  0  0  0  0  0
  -12.1263   14.6302  -40.3650 H   0  0  0  0  0  0  0  0  0  0  0  0
   -7.9969   16.7963  -37.5539 H   0  0  0  0  0  0  0  0  0  0  0  0
   -7.9492   15.2856  -36.5928 H   0  0  0  0  0  0  0  0  0  0  0  0
   -8.6160   16.7791  -35.8819 H   0  0  0  0  0  0  0  0  0  0  0  0
  -10.6966   14.0852  -38.5608 H   0  0  0  0  0  0  0  0  0  0  0  0
  1  5  1  0  0  0  0
  1 10  2  0  0  0  0
  1 11  1  0  0  0  0
  2  3  1  0  0  0  0
  2  6  1  0  0  0  0
  3  7  1  0  0  0  0
  4  6  1  0  0  0  0
  4  7  1  0  0  0  0
  5  6  1  0  0  0  0
  5  9  1  0  0  0  0
  7  9  1  0  0  0  0
  8 11  1  0  0  0  0
  2 12  1  0  0  0  0
  2 13  1  0  0  0  0
  3 14  1  0  0  0  0
  3 15  1  0  0  0  0
  4 16  1  0  0  0  0
  4 17  1  0  0  0  0
  5 18  1  0  0  0  0
  6 19  1  0  0  0  0
  7 20  1  0  0  0  0
  8 21  1  0  0  0  0
  8 22  1  0  0  0  0
  8 23  1  0  0  0  0
  9 24  1  0  0  0  0
M  END
> <id>
EN300-6482582

> <smiles>
Cl.COC(=O)C1NC2CCC1C2

> <MDLNUMBER>
MFCD29916674

> <IUPAC Name>
methyl 2-azabicyclo[2.2.1]heptane-3-carboxylate hydrochloride

> <CAS>
88259-98-7

> <Purity>
95

> <URL>
https://www.enaminestore.com/catalog/EN300-6482582

> <Saltdate>
Cl

> <MP>
163-165

> <ROCS_ShapeQuery>
_x1247relevant_x1083L0AP1_x1305L0BP1_

> <ROCS_TanimotoCombo>
0.819 

> <ROCS_ShapeTanimoto>
0.425 

> <ROCS_ColorTanimoto>
0.394 

> <ROCS_RefTversky>
0.361 

> <ROCS_RefColorTversky>
0.416 

> <ROCS_RefTverskyCombo>
0.777 

> <ROCS_FitTversky>
1.713 

> <ROCS_FitColorTversky>
0.884 

> <ROCS_FitTverskyCombo>
2.597 

> <ROCS_ColorScore>
-8.829

> <ROCS_Overlap>
1059.737

> <ROCS_Rank>
446                 

$$$$
untitled-dbase-110422_5
  -OEChem-06232314393D

 34 36  0     1  0  0  0  0  0999 V2000
  -12.3399   16.6773  -40.7226 C   0  0  0  0  0  0  0  0  0  0  0  0
  -13.8316   15.9063  -37.2232 C   0  0  0  0  0  0  0  0  0  0  0  0
  -13.6244   13.7549  -38.5200 C   0  0  0  0  0  0  0  0  0  0  0  0
  -11.9719   14.3053  -36.7197 C   0  0  0  0  0  0  0  0  0  0  0  0
  -11.4839   16.5002  -37.8366 C   0  0  0  0  0  0  0  0  0  0  0  0
  -11.2769   14.3519  -39.1316 C   0  0  0  0  0  0  0  0  0  0  0  0
  -13.4459   14.4184  -37.1427 C   0  0  0  0  0  0  0  0  0  0  0  0
  -12.9603   16.6259  -38.2776 C   0  0  1  0  0  0  0  0  0  0  0  0
  -12.7531   14.4744  -39.5744 C   0  0  2  0  0  0  0  0  0  0  0  0
  -13.1581   15.9688  -39.6686 C   0  0  0  0  0  0  0  0  0  0  0  0
  -11.0640   15.0143  -37.7506 C   0  0  0  0  0  0  0  0  0  0  0  0
   -9.5966   14.9007  -37.3275 C   0  0  0  0  0  0  0  0  0  0  0  0
  -14.5295   16.1302  -40.1637 N   0  0  0  0  0  0  0  0  0  0  0  0
  -11.1926   16.3908  -41.0304 O   0  0  0  0  0  0  0  0  0  0  0  0
  -13.0524   17.6838  -41.2851 O   0  0  0  0  0  0  0  0  0  0  0  0
   -9.2428   13.6102  -37.2517 F   0  0  0  0  0  0  0  0  0  0  0  0
   -8.8147   15.5172  -38.2245 F   0  0  0  0  0  0  0  0  0  0  0  0
   -9.4227   15.4733  -36.1282 F   0  0  0  0  0  0  0  0  0  0  0  0
  -14.8969   16.0091  -37.4577 H   0  0  0  0  0  0  0  0  0  0  0  0
  -13.6894   16.3786  -36.2427 H   0  0  0  0  0  0  0  0  0  0  0  0
  -13.3315   12.6987  -38.4608 H   0  0  0  0  0  0  0  0  0  0  0  0
  -14.6809   13.7582  -38.8089 H   0  0  0  0  0  0  0  0  0  0  0  0
  -11.8378   14.7503  -35.7251 H   0  0  0  0  0  0  0  0  0  0  0  0
  -11.6930   13.2476  -36.6301 H   0  0  0  0  0  0  0  0  0  0  0  0
  -10.8313   17.0402  -38.5335 H   0  0  0  0  0  0  0  0  0  0  0  0
  -11.3534   16.9846  -36.8596 H   0  0  0  0  0  0  0  0  0  0  0  0
  -10.9975   13.2909  -39.0866 H   0  0  0  0  0  0  0  0  0  0  0  0
  -10.6160   14.8089  -39.8783 H   0  0  0  0  0  0  0  0  0  0  0  0
  -14.0784   13.9128  -36.4045 H   0  0  0  0  0  0  0  0  0  0  0  0
  -13.2289   17.6896  -38.3094 H   0  0  0  0  0  0  0  0  0  0  0  0
  -12.8719   13.9790  -40.5463 H   0  0  0  0  0  0  0  0  0  0  0  0
  -14.7191   17.1006  -40.2228 H   0  0  0  0  0  0  0  0  0  0  0  0
  -14.5825   15.7026  -41.0555 H   0  0  0  0  0  0  0  0  0  0  0  0
  -12.5370   18.1582  -41.9719 H   0  0  0  0  0  0  0  0  0  0  0  0
  1 10  1  0  0  0  0
  1 14  2  0  0  0  0
  1 15  1  0  0  0  0
  2  7  1  0  0  0  0
  2  8  1  0  0  0  0
  3  7  1  0  0  0  0
  3  9  1  0  0  0  0
  4  7  1  0  0  0  0
  4 11  1  0  0  0  0
  5  8  1  0  0  0  0
  5 11  1  0  0  0  0
  6  9  1  0  0  0  0
  6 11  1  0  0  0  0
  8 10  1  0  0  0  0
  9 10  1  0  0  0  0
 10 13  1  6  0  0  0
 11 12  1  1  0  0  0
 12 16  1  0  0  0  0
 12 17  1  0  0  0  0
 12 18  1  0  0  0  0
  2 19  1  0  0  0  0
  2 20  1  0  0  0  0
  3 21  1  0  0  0  0
  3 22  1  0  0  0  0
  4 23  1  0  0  0  0
  4 24  1  0  0  0  0
  5 25  1  0  0  0  0
  5 26  1  0  0  0  0
  6 27  1  0  0  0  0
  6 28  1  0  0  0  0
  7 29  1  0  0  0  0
  8 30  1  0  0  0  0
  9 31  1  0  0  0  0
 13 32  1  0  0  0  0
 13 33  1  0  0  0  0
 15 34  1  0  0  0  0
M  END
> <id>
EN300-53523

> <smiles>
N[C@]1(C2CC3CC1C[C@](C3)(C2)C(F)(F)F)C(=O)O

> <IUPAC Name>
(2s,5r)-2-amino-5-(trifluoromethyl)adamantane-2-carboxylic acid

> <URL>
https://www.enaminestore.com/catalog/EN300-53523

> <ROCS_ShapeQuery>
_x1247relevant_x1083L0AP1_x1305L0BP1_

> <ROCS_TanimotoCombo>
0.819 

> <ROCS_ShapeTanimoto>
0.562 

> <ROCS_ColorTanimoto>
0.257 

> <ROCS_RefTversky>
0.475 

> <ROCS_RefColorTversky>
0.319 

> <ROCS_RefTverskyCombo>
0.795 

> <ROCS_FitTversky>
1.482 

> <ROCS_FitColorTversky>
0.568 

> <ROCS_FitTverskyCombo>
2.050 

> <ROCS_ColorScore>
-6.806

> <ROCS_Overlap>
1404.116

> <ROCS_Rank>
447                 

$$$$
untitled-dbase-110660_5
  -OEChem-06232314393D

 34 36  0     1  0  0  0  0  0999 V2000
  -12.3399   16.6773  -40.7226 C   0  0  0  0  0  0  0  0  0  0  0  0
  -13.8316   15.9063  -37.2232 C   0  0  0  0  0  0  0  0  0  0  0  0
  -13.6244   13.7549  -38.5200 C   0  0  0  0  0  0  0  0  0  0  0  0
  -11.9719   14.3053  -36.7197 C   0  0  0  0  0  0  0  0  0  0  0  0
  -11.4839   16.5002  -37.8366 C   0  0  0  0  0  0  0  0  0  0  0  0
  -11.2769   14.3519  -39.1316 C   0  0  0  0  0  0  0  0  0  0  0  0
  -13.4459   14.4184  -37.1427 C   0  0  0  0  0  0  0  0  0  0  0  0
  -12.9603   16.6259  -38.2776 C   0  0  1  0  0  0  0  0  0  0  0  0
  -12.7531   14.4744  -39.5744 C   0  0  2  0  0  0  0  0  0  0  0  0
  -13.1581   15.9688  -39.6686 C   0  0  0  0  0  0  0  0  0  0  0  0
  -11.0640   15.0143  -37.7506 C   0  0  0  0  0  0  0  0  0  0  0  0
   -9.5966   14.9007  -37.3275 C   0  0  0  0  0  0  0  0  0  0  0  0
  -14.5295   16.1302  -40.1637 N   0  0  0  0  0  0  0  0  0  0  0  0
  -11.1926   16.3908  -41.0304 O   0  0  0  0  0  0  0  0  0  0  0  0
  -13.0524   17.6838  -41.2851 O   0  0  0  0  0  0  0  0  0  0  0  0
   -9.2428   13.6102  -37.2517 F   0  0  0  0  0  0  0  0  0  0  0  0
   -8.8147   15.5172  -38.2245 F   0  0  0  0  0  0  0  0  0  0  0  0
   -9.4227   15.4733  -36.1282 F   0  0  0  0  0  0  0  0  0  0  0  0
  -14.8969   16.0091  -37.4577 H   0  0  0  0  0  0  0  0  0  0  0  0
  -13.6894   16.3786  -36.2427 H   0  0  0  0  0  0  0  0  0  0  0  0
  -13.3315   12.6987  -38.4608 H   0  0  0  0  0  0  0  0  0  0  0  0
  -14.6809   13.7582  -38.8089 H   0  0  0  0  0  0  0  0  0  0  0  0
  -11.8378   14.7503  -35.7251 H   0  0  0  0  0  0  0  0  0  0  0  0
  -11.6930   13.2476  -36.6301 H   0  0  0  0  0  0  0  0  0  0  0  0
  -10.8313   17.0402  -38.5335 H   0  0  0  0  0  0  0  0  0  0  0  0
  -11.3534   16.9846  -36.8596 H   0  0  0  0  0  0  0  0  0  0  0  0
  -10.9975   13.2909  -39.0866 H   0  0  0  0  0  0  0  0  0  0  0  0
  -10.6160   14.8089  -39.8783 H   0  0  0  0  0  0  0  0  0  0  0  0
  -14.0784   13.9128  -36.4045 H   0  0  0  0  0  0  0  0  0  0  0  0
  -13.2289   17.6896  -38.3094 H   0  0  0  0  0  0  0  0  0  0  0  0
  -12.8719   13.9790  -40.5463 H   0  0  0  0  0  0  0  0  0  0  0  0
  -14.7191   17.1006  -40.2228 H   0  0  0  0  0  0  0  0  0  0  0  0
  -14.5825   15.7026  -41.0555 H   0  0  0  0  0  0  0  0  0  0  0  0
  -12.5370   18.1582  -41.9719 H   0  0  0  0  0  0  0  0  0  0  0  0
  1 10  1  0  0  0  0
  1 14  2  0  0  0  0
  1 15  1  0  0  0  0
  2  7  1  0  0  0  0
  2  8  1  0  0  0  0
  3  7  1  0  0  0  0
  3  9  1  0  0  0  0
  4  7  1  0  0  0  0
  4 11  1  0  0  0  0
  5  8  1  0  0  0  0
  5 11  1  0  0  0  0
  6  9  1  0  0  0  0
  6 11  1  0  0  0  0
  8 10  1  0  0  0  0
  9 10  1  0  0  0  0
 10 13  1  6  0  0  0
 11 12  1  1  0  0  0
 12 16  1  0  0  0  0
 12 17  1  0  0  0  0
 12 18  1  0  0  0  0
  2 19  1  0  0  0  0
  2 20  1  0  0  0  0
  3 21  1  0  0  0  0
  3 22  1  0  0  0  0
  4 23  1  0  0  0  0
  4 24  1  0  0  0  0
  5 25  1  0  0  0  0
  5 26  1  0  0  0  0
  6 27  1  0  0  0  0
  6 28  1  0  0  0  0
  7 29  1  0  0  0  0
  8 30  1  0  0  0  0
  9 31  1  0  0  0  0
 13 32  1  0  0  0  0
 13 33  1  0  0  0  0
 15 34  1  0  0  0  0
M  END
> <id>
EN300-88783

> <smiles>
Cl.N[C@]1(C2CC3CC1C[C@](C3)(C2)C(F)(F)F)C(=O)O

> <IUPAC Name>
(2s,5r)-2-amino-5-(trifluoromethyl)adamantane-2-carboxylic acid hydrochloride

> <URL>
https://www.enaminestore.com/catalog/EN300-88783

> <Saltdate>
Cl

> <ROCS_ShapeQuery>
_x1247relevant_x1083L0AP1_x1305L0BP1_

> <ROCS_TanimotoCombo>
0.819 

> <ROCS_ShapeTanimoto>
0.562 

> <ROCS_ColorTanimoto>
0.257 

> <ROCS_RefTversky>
0.475 

> <ROCS_RefColorTversky>
0.319 

> <ROCS_RefTverskyCombo>
0.795 

> <ROCS_FitTversky>
1.482 

> <ROCS_FitColorTversky>
0.568 

> <ROCS_FitTverskyCombo>
2.050 

> <ROCS_ColorScore>
-6.806

> <ROCS_Overlap>
1404.116

> <ROCS_Rank>
448                 

$$$$
untitled-dbase-133672_3
  -OEChem-06232314393D

 24 26  0     1  0  0  0  0  0999 V2000
  -14.3193   15.2401  -38.0876 C   0  0  0  0  0  0  0  0  0  0  0  0
  -13.7354   14.0649  -38.9026 C   0  0  0  0  0  0  0  0  0  0  0  0
  -12.2798   15.2880  -36.6384 C   0  0  0  0  0  0  0  0  0  0  0  0
  -13.1823   16.1446  -37.5599 C   0  0  1  0  0  0  0  0  0  0  0  0
  -12.1906   14.1402  -38.9049 C   0  0  1  0  0  0  0  0  0  0  0  0
  -12.3094   16.6260  -38.7015 C   0  0  1  0  0  0  0  0  0  0  0  0
  -11.7380   15.4736  -39.4755 C   0  0  2  0  0  0  0  0  0  0  0  0
  -11.7396   14.0669  -37.4227 C   0  0  1  0  0  0  0  0  0  0  0  0
   -9.6027   12.5619  -37.5980 O   0  0  0  0  0  0  0  0  0  0  0  0
   -9.5719   14.5547  -36.0352 O   0  0  0  0  0  0  0  0  0  0  0  0
  -12.7297   16.3397  -40.0382 O   0  0  0  0  0  0  0  0  0  0  0  0
   -9.3759   14.8206  -38.4302 F   0  0  0  0  0  0  0  0  0  0  0  0
   -9.9808   13.9213  -37.2717 S   0  0  0  0  0  0  0  0  0  0  0  0
  -15.0043   15.8191  -38.7188 H   0  0  0  0  0  0  0  0  0  0  0  0
  -14.9135   14.8522  -37.2517 H   0  0  0  0  0  0  0  0  0  0  0  0
  -14.0717   13.1131  -38.4745 H   0  0  0  0  0  0  0  0  0  0  0  0
  -14.1206   14.1002  -39.9289 H   0  0  0  0  0  0  0  0  0  0  0  0
  -11.4621   15.9044  -36.2455 H   0  0  0  0  0  0  0  0  0  0  0  0
  -12.8563   14.9394  -35.7729 H   0  0  0  0  0  0  0  0  0  0  0  0
  -13.5960   16.9971  -37.0118 H   0  0  0  0  0  0  0  0  0  0  0  0
  -11.7701   13.3174  -39.4926 H   0  0  0  0  0  0  0  0  0  0  0  0
  -11.6910   17.4861  -38.4971 H   0  0  0  0  0  0  0  0  0  0  0  0
  -10.7220   15.5195  -39.8347 H   0  0  0  0  0  0  0  0  0  0  0  0
  -12.1274   13.1465  -36.9680 H   0  0  0  0  0  0  0  0  0  0  0  0
  1  2  1  0  0  0  0
  1  4  1  0  0  0  0
  2  5  1  0  0  0  0
  3  4  1  0  0  0  0
  3  8  1  0  0  0  0
  4  6  1  0  0  0  0
  5  7  1  0  0  0  0
  5  8  1  0  0  0  0
  6  7  1  0  0  0  0
  6 11  1  0  0  0  0
  7 11  1  0  0  0  0
  8 13  1  0  0  0  0
  9 13  2  0  0  0  0
 10 13  2  0  0  0  0
 12 13  1  0  0  0  0
  1 14  1  0  0  0  0
  1 15  1  0  0  0  0
  2 16  1  0  0  0  0
  2 17  1  0  0  0  0
  3 18  1  0  0  0  0
  3 19  1  0  0  0  0
  4 20  1  0  0  0  0
  5 21  1  0  0  0  0
  6 22  1  0  0  0  0
  7 23  1  0  0  0  0
  8 24  1  0  0  0  0
M  END
> <id>
EN300-223596

> <smiles>
FS(=O)(=O)C1CC2CCC1C3OC32

> <MDLNUMBER>
MFCD29033914

> <IUPAC Name>
3-oxatricyclo[3.2.2.0,2,4]nonane-6-sulfonyl fluoride

> <CAS>
1864062-77-0

> <URL>
https://www.enaminestore.com/catalog/EN300-223596

> <ROCS_ShapeQuery>
_x1247relevant_x1083L0AP1_x1305L0BP1_

> <ROCS_TanimotoCombo>
0.819 

> <ROCS_ShapeTanimoto>
0.473 

> <ROCS_ColorTanimoto>
0.347 

> <ROCS_RefTversky>
0.396 

> <ROCS_RefColorTversky>
0.467 

> <ROCS_RefTverskyCombo>
0.863 

> <ROCS_FitTversky>
1.684 

> <ROCS_FitColorTversky>
0.574 

> <ROCS_FitTverskyCombo>
2.257 

> <ROCS_ColorScore>
-10.097

> <ROCS_Overlap>
1165.517

> <ROCS_Rank>
449                 

$$$$
untitled-dbase-155552_10
  -OEChem-06232314393D

 29 30  0     1  0  0  0  0  0999 V2000
  -13.2100   16.5265  -40.3097 C   0  0  0  0  0  0  0  0  0  0  0  0
  -10.2476   14.7524  -36.7235 C   0  0  0  0  0  0  0  0  0  0  0  0
  -13.1980   14.1834  -39.2922 C   0  0  0  0  0  0  0  0  0  0  0  0
  -13.2082   13.6851  -37.8295 C   0  0  0  0  0  0  0  0  0  0  0  0
  -13.5071   16.0400  -37.8324 C   0  0  0  0  0  0  0  0  0  0  0  0
  -11.3477   15.7983  -38.7512 C   0  0  0  0  0  0  0  0  0  0  0  0
  -12.8246   15.6746  -39.1498 C   0  0  2  0  0  0  0  0  0  0  0  0
  -12.7721   14.9409  -37.0460 C   0  0  1  0  0  0  0  0  0  0  0  0
   -9.1307   14.2235  -37.5895 C   0  0  0  0  0  0  0  0  0  0  0  0
  -13.1120   14.9327  -35.5694 C   0  0  0  0  0  0  0  0  0  0  0  0
  -11.3607   15.2094  -37.4080 N   0  0  0  0  0  0  0  0  0  0  0  0
  -12.4314   17.1712  -40.9963 O   0  0  0  0  0  0  0  0  0  0  0  0
  -10.1254   14.7527  -35.4984 O   0  0  0  0  0  0  0  0  0  0  0  0
  -14.5512   16.4937  -40.5030 O   0  0  0  0  0  0  0  0  0  0  0  0
  -12.4723   13.6328  -39.9007 H   0  0  0  0  0  0  0  0  0  0  0  0
  -14.1859   14.0484  -39.7475 H   0  0  0  0  0  0  0  0  0  0  0  0
  -14.2193   13.3678  -37.5482 H   0  0  0  0  0  0  0  0  0  0  0  0
  -12.5327   12.8365  -37.6785 H   0  0  0  0  0  0  0  0  0  0  0  0
  -13.2761   17.0543  -37.4854 H   0  0  0  0  0  0  0  0  0  0  0  0
  -14.5961   15.9133  -37.8571 H   0  0  0  0  0  0  0  0  0  0  0  0
  -10.6762   15.2464  -39.4158 H   0  0  0  0  0  0  0  0  0  0  0  0
  -11.0105   16.8380  -38.6762 H   0  0  0  0  0  0  0  0  0  0  0  0
   -8.4575   15.0377  -37.8351 H   0  0  0  0  0  0  0  0  0  0  0  0
   -9.5536   13.8045  -38.4966 H   0  0  0  0  0  0  0  0  0  0  0  0
   -8.5971   13.4508  -37.0462 H   0  0  0  0  0  0  0  0  0  0  0  0
  -12.7688   15.8552  -35.0941 H   0  0  0  0  0  0  0  0  0  0  0  0
  -12.6310   14.0866  -35.0722 H   0  0  0  0  0  0  0  0  0  0  0  0
  -14.1926   14.8503  -35.4274 H   0  0  0  0  0  0  0  0  0  0  0  0
  -14.8256   17.0508  -41.2624 H   0  0  0  0  0  0  0  0  0  0  0  0
  1  7  1  0  0  0  0
  1 12  2  0  0  0  0
  1 14  1  0  0  0  0
  2  9  1  0  0  0  0
  2 11  1  0  0  0  0
  2 13  2  0  0  0  0
  3  4  1  0  0  0  0
  3  7  1  0  0  0  0
  4  8  1  0  0  0  0
  5  7  1  0  0  0  0
  5  8  1  0  0  0  0
  6  7  1  0  0  0  0
  6 11  1  0  0  0  0
  8 10  1  0  0  0  0
  8 11  1  0  0  0  0
  3 15  1  0  0  0  0
  3 16  1  0  0  0  0
  4 17  1  0  0  0  0
  4 18  1  0  0  0  0
  5 19  1  0  0  0  0
  5 20  1  0  0  0  0
  6 21  1  0  0  0  0
  6 22  1  0  0  0  0
  9 23  1  0  0  0  0
  9 24  1  0  0  0  0
  9 25  1  0  0  0  0
 10 26  1  0  0  0  0
 10 27  1  0  0  0  0
 10 28  1  0  0  0  0
 14 29  1  0  0  0  0
M  END
> <id>
EN300-28272068

> <smiles>
CC(=O)N1CC2(CCC1(C)C2)C(=O)O

> <IUPAC Name>
2-acetyl-1-methyl-2-azabicyclo[2.2.1]heptane-4-carboxylic acid

> <CAS>
2680786-41-6

> <URL>
https://www.enaminestore.com/catalog/EN300-28272068

> <ROCS_ShapeQuery>
_x1247relevant_x1083L0AP1_x1305L0BP1_

> <ROCS_TanimotoCombo>
0.819 

> <ROCS_ShapeTanimoto>
0.494 

> <ROCS_ColorTanimoto>
0.325 

> <ROCS_RefTversky>
0.415 

> <ROCS_RefColorTversky>
0.372 

> <ROCS_RefTverskyCombo>
0.787 

> <ROCS_FitTversky>
1.627 

> <ROCS_FitColorTversky>
0.723 

> <ROCS_FitTverskyCombo>
2.350 

> <ROCS_ColorScore>
-7.910

> <ROCS_Overlap>
1220.905

> <ROCS_Rank>
450                 

$$$$
untitled-dbase-157110_132
  -OEChem-06232314393D

 40 42  0     1  0  0  0  0  0999 V2000
  -10.1795   14.9237  -36.5825 C   0  0  0  0  0  0  0  0  0  0  0  0
  -14.0644   13.3160  -38.8936 C   0  0  0  0  0  0  0  0  0  0  0  0
  -13.5973   16.7115  -37.7499 C   0  0  0  0  0  0  0  0  0  0  0  0
  -13.1680   15.8228  -36.5646 C   0  0  0  0  0  0  0  0  0  0  0  0
  -12.1890   16.0018  -39.7470 C   0  0  0  0  0  0  0  0  0  0  0  0
  -10.6589   14.0596  -38.9130 C   0  0  0  0  0  0  0  0  0  0  0  0
  -10.9876   15.5294  -38.9529 C   0  0  2  0  0  0  0  0  0  0  0  0
  -13.5158   15.8006  -38.9880 C   0  0  1  0  0  0  0  0  0  0  0  0
  -12.6421   14.5405  -37.2198 C   0  0  2  0  0  0  0  0  0  0  0  0
  -11.1835   14.7383  -37.6583 C   0  0  2  0  0  0  0  0  0  0  0  0
  -16.4280   13.8553  -39.8867 C   0  0  0  0  0  0  0  0  0  0  0  0
  -15.3945   13.9526  -42.1739 C   0  0  0  0  0  0  0  0  0  0  0  0
  -15.7438   11.7324  -41.0528 C   0  0  0  0  0  0  0  0  0  0  0  0
  -15.4221   13.2108  -40.8393 C   0  0  0  0  0  0  0  0  0  0  0  0
  -13.4900   14.4703  -38.3988 N   0  0  0  0  0  0  0  0  0  0  0  0
  -10.2627   14.4558  -35.4566 O   0  0  0  0  0  0  0  0  0  0  0  0
  -14.4767   12.3945  -38.1931 O   0  0  0  0  0  0  0  0  0  0  0  0
   -9.1490   15.6901  -37.0162 O   0  0  0  0  0  0  0  0  0  0  0  0
  -14.1162   13.3143  -40.2612 O   0  0  0  0  0  0  0  0  0  0  0  0
  -14.6253   17.0562  -37.5902 H   0  0  0  0  0  0  0  0  0  0  0  0
  -12.9577   17.5963  -37.8354 H   0  0  0  0  0  0  0  0  0  0  0  0
  -12.4379   16.3315  -35.9283 H   0  0  0  0  0  0  0  0  0  0  0  0
  -14.0474   15.5945  -35.9499 H   0  0  0  0  0  0  0  0  0  0  0  0
  -12.0637   17.0620  -39.9964 H   0  0  0  0  0  0  0  0  0  0  0  0
  -12.2218   15.4561  -40.6981 H   0  0  0  0  0  0  0  0  0  0  0  0
  -11.2915   13.3630  -39.4480 H   0  0  0  0  0  0  0  0  0  0  0  0
   -9.6095   13.7852  -38.9518 H   0  0  0  0  0  0  0  0  0  0  0  0
  -10.1538   16.2177  -39.0255 H   0  0  0  0  0  0  0  0  0  0  0  0
  -14.3683   15.9475  -39.6578 H   0  0  0  0  0  0  0  0  0  0  0  0
  -12.7440   13.6557  -36.5843 H   0  0  0  0  0  0  0  0  0  0  0  0
  -16.4508   13.3257  -38.9275 H   0  0  0  0  0  0  0  0  0  0  0  0
  -16.1882   14.9067  -39.6977 H   0  0  0  0  0  0  0  0  0  0  0  0
  -17.4438   13.7999  -40.2946 H   0  0  0  0  0  0  0  0  0  0  0  0
  -14.6741   13.4936  -42.8606 H   0  0  0  0  0  0  0  0  0  0  0  0
  -15.0717   14.9910  -42.0367 H   0  0  0  0  0  0  0  0  0  0  0  0
  -16.3781   13.9559  -42.6547 H   0  0  0  0  0  0  0  0  0  0  0  0
  -15.0224   11.2699  -41.7362 H   0  0  0  0  0  0  0  0  0  0  0  0
  -15.7317   11.1767  -40.1096 H   0  0  0  0  0  0  0  0  0  0  0  0
  -16.7299   11.6111  -41.5158 H   0  0  0  0  0  0  0  0  0  0  0  0
   -8.4741   15.8261  -36.3174 H   0  0  0  0  0  0  0  0  0  0  0  0
  1 10  1  0  0  0  0
  1 16  2  0  0  0  0
  1 18  1  0  0  0  0
  2 15  1  0  0  0  0
  2 17  2  0  0  0  0
  2 19  1  0  0  0  0
  3  4  1  0  0  0  0
  3  8  1  0  0  0  0
  4  9  1  0  0  0  0
  5  7  1  0  0  0  0
  5  8  1  0  0  0  0
  6  7  1  0  0  0  0
  6 10  1  0  0  0  0
  7 10  1  0  0  0  0
  8 15  1  0  0  0  0
  9 10  1  0  0  0  0
  9 15  1  0  0  0  0
 11 14  1  0  0  0  0
 12 14  1  0  0  0  0
 13 14  1  0  0  0  0
 14 19  1  0  0  0  0
  3 20  1  0  0  0  0
  3 21  1  0  0  0  0
  4 22  1  0  0  0  0
  4 23  1  0  0  0  0
  5 24  1  0  0  0  0
  5 25  1  0  0  0  0
  6 26  1  0  0  0  0
  6 27  1  0  0  0  0
  7 28  1  0  0  0  0
  8 29  1  0  0  0  0
  9 30  1  0  0  0  0
 11 31  1  0  0  0  0
 11 32  1  0  0  0  0
 11 33  1  0  0  0  0
 12 34  1  0  0  0  0
 12 35  1  0  0  0  0
 12 36  1  0  0  0  0
 13 37  1  0  0  0  0
 13 38  1  0  0  0  0
 13 39  1  0  0  0  0
 18 40  1  0  0  0  0
M  END
> <id>
EN300-1178093

> <smiles>
CC(C)(C)OC(=O)N1C2CCC1C3(CC3C2)C(=O)O

> <IUPAC Name>
9-[(tert-butoxy)carbonyl]-9-azatricyclo[4.2.1.0,2,4]nonane-2-carboxylic acid

> <CAS>
2384608-56-2

> <URL>
https://www.enaminestore.com/catalog/EN300-1178093

> <ROCS_ShapeQuery>
_x1247relevant_x1083L0AP1_x1305L0BP1_

> <ROCS_TanimotoCombo>
0.819 

> <ROCS_ShapeTanimoto>
0.497 

> <ROCS_ColorTanimoto>
0.322 

> <ROCS_RefTversky>
0.441 

> <ROCS_RefColorTversky>
0.416 

> <ROCS_RefTverskyCombo>
0.857 

> <ROCS_FitTversky>
1.344 

> <ROCS_FitColorTversky>
0.587 

> <ROCS_FitTverskyCombo>
1.930 

> <ROCS_ColorScore>
-8.954

> <ROCS_Overlap>
1303.069

> <ROCS_Rank>
451                 

$$$$
untitled-dbase-142559_109
  -OEChem-06232314393D

 31 32  0     1  0  0  0  0  0999 V2000
   -9.7716   14.9273  -37.2500 C   0  0  0  0  0  0  0  0  0  0  0  0
  -11.8349   16.3096  -37.3972 C   0  0  0  0  0  0  0  0  0  0  0  0
  -10.9916   15.2268  -38.0592 C   0  0  2  0  0  0  0  0  0  0  0  0
  -13.1228   14.1797  -38.6805 C   0  0  1  0  0  0  0  0  0  0  0  0
  -13.7493   15.5644  -38.6339 C   0  0  2  0  0  0  0  0  0  0  0  0
  -13.4393   14.9077  -39.9358 C   0  0  0  0  0  0  0  0  0  0  0  0
  -10.4829   14.5888  -34.7660 C   0  0  0  0  0  0  0  0  0  0  0  0
  -10.5472   12.1103  -35.1691 C   0  0  0  0  0  0  0  0  0  0  0  0
   -8.3378   13.2888  -34.9741 C   0  0  0  0  0  0  0  0  0  0  0  0
   -9.7879   13.4072  -35.4410 C   0  0  0  0  0  0  0  0  0  0  0  0
  -11.7491   13.9767  -38.1723 N   0  0  0  0  0  0  0  0  0  0  0  0
   -8.8999   15.7474  -36.9956 O   0  0  0  0  0  0  0  0  0  0  0  0
  -12.8969   16.6787  -38.2782 O   0  0  0  0  0  0  0  0  0  0  0  0
   -9.7949   13.6223  -36.8558 O   0  0  0  0  0  0  0  0  0  0  0  0
  -12.4476   15.3956  -40.7563 F   0  0  0  0  0  0  0  0  0  0  0  0
  -14.4627   14.4763  -40.7507 F   0  0  0  0  0  0  0  0  0  0  0  0
  -12.2505   15.9934  -36.4317 H   0  0  0  0  0  0  0  0  0  0  0  0
  -11.2324   17.2054  -37.2111 H   0  0  0  0  0  0  0  0  0  0  0  0
  -10.6678   15.5541  -39.0622 H   0  0  0  0  0  0  0  0  0  0  0  0
  -13.7783   13.3459  -38.4464 H   0  0  0  0  0  0  0  0  0  0  0  0
  -14.7904   15.6279  -38.3403 H   0  0  0  0  0  0  0  0  0  0  0  0
   -9.9409   15.5216  -34.9588 H   0  0  0  0  0  0  0  0  0  0  0  0
  -11.5129   14.7058  -35.1184 H   0  0  0  0  0  0  0  0  0  0  0  0
  -10.5018   14.4616  -33.6776 H   0  0  0  0  0  0  0  0  0  0  0  0
  -10.0520   11.2598  -35.6515 H   0  0  0  0  0  0  0  0  0  0  0  0
  -11.5594   12.1557  -35.5869 H   0  0  0  0  0  0  0  0  0  0  0  0
  -10.6236   11.9042  -34.0966 H   0  0  0  0  0  0  0  0  0  0  0  0
   -7.8391   12.4413  -35.4582 H   0  0  0  0  0  0  0  0  0  0  0  0
   -7.7677   14.1971  -35.1946 H   0  0  0  0  0  0  0  0  0  0  0  0
   -8.2898   13.1008  -33.8954 H   0  0  0  0  0  0  0  0  0  0  0  0
  -11.2455   13.3139  -38.7608 H   0  0  0  0  0  0  0  0  0  0  0  0
  1  3  1  0  0  0  0
  1 12  2  0  0  0  0
  1 14  1  0  0  0  0
  2  3  1  0  0  0  0
  2 13  1  0  0  0  0
  3 11  1  0  0  0  0
  4  5  1  0  0  0  0
  4  6  1  0  0  0  0
  4 11  1  0  0  0  0
  5  6  1  0  0  0  0
  5 13  1  0  0  0  0
  6 15  1  0  0  0  0
  6 16  1  0  0  0  0
  7 10  1  0  0  0  0
  8 10  1  0  0  0  0
  9 10  1  0  0  0  0
 10 14  1  0  0  0  0
  2 17  1  0  0  0  0
  2 18  1  0  0  0  0
  3 19  1  0  0  0  0
  4 20  1  0  0  0  0
  5 21  1  0  0  0  0
  7 22  1  0  0  0  0
  7 23  1  0  0  0  0
  7 24  1  0  0  0  0
  8 25  1  0  0  0  0
  8 26  1  0  0  0  0
  8 27  1  0  0  0  0
  9 28  1  0  0  0  0
  9 29  1  0  0  0  0
  9 30  1  0  0  0  0
 11 31  1  0  0  0  0
M  END
> <id>
EN300-27732430

> <smiles>
CC(C)(C)OC(=O)C1COC2C(N1)C2(F)F

> <IUPAC Name>
tert-butyl 7,7-difluoro-2-oxa-5-azabicyclo[4.1.0]heptane-4-carboxylate

> <CAS>
2580179-55-9

> <URL>
https://www.enaminestore.com/catalog/EN300-27732430

> <ROCS_ShapeQuery>
_x1247relevant_x1083L0AP1_x1305L0BP1_

> <ROCS_TanimotoCombo>
0.819 

> <ROCS_ShapeTanimoto>
0.475 

> <ROCS_ColorTanimoto>
0.344 

> <ROCS_RefTversky>
0.412 

> <ROCS_RefColorTversky>
0.371 

> <ROCS_RefTverskyCombo>
0.783 

> <ROCS_FitTversky>
1.468 

> <ROCS_FitColorTversky>
0.829 

> <ROCS_FitTverskyCombo>
2.297 

> <ROCS_ColorScore>
-7.861

> <ROCS_Overlap>
1214.766

> <ROCS_Rank>
452                 

$$$$
untitled-dbase-170201_1345
  -OEChem-06232314393D

 54 55  0     1  0  0  0  0  0999 V2000
   -9.7102   14.8423  -37.1141 C   0  0  0  0  0  0  0  0  0  0  0  0
  -13.4881   15.4296  -40.7573 C   0  0  0  0  0  0  0  0  0  0  0  0
  -13.7373   14.5386  -37.3092 C   0  0  0  0  0  0  0  0  0  0  0  0
  -13.5972   16.0726  -37.2326 C   0  0  0  0  0  0  0  0  0  0  0  0
  -11.5724   13.8939  -38.4489 C   0  0  0  0  0  0  0  0  0  0  0  0
  -13.0750   14.1531  -38.6378 C   0  0  2  0  0  0  0  0  0  0  0  0
  -12.8487   16.4649  -38.5169 C   0  0  1  0  0  0  0  0  0  0  0  0
  -11.3152   16.4216  -38.2876 C   0  0  2  0  0  0  0  0  0  0  0  0
   -8.4635   14.4368  -34.5709 C   0  0  0  0  0  0  0  0  0  0  0  0
   -8.8414   11.9880  -34.9834 C   0  0  0  0  0  0  0  0  0  0  0  0
   -7.3625   13.3032  -36.5298 C   0  0  0  0  0  0  0  0  0  0  0  0
  -15.1551   14.9159  -43.0213 C   0  0  0  0  0  0  0  0  0  0  0  0
  -14.8767   12.4875  -42.4427 C   0  0  0  0  0  0  0  0  0  0  0  0
  -15.9925   14.0410  -40.8149 C   0  0  0  0  0  0  0  0  0  0  0  0
  -10.5400   16.8907  -39.5228 C   0  0  0  0  0  0  0  0  0  0  0  0
   -8.5999   13.3482  -35.6344 C   0  0  0  0  0  0  0  0  0  0  0  0
  -14.9183   13.9120  -41.8939 C   0  0  0  0  0  0  0  0  0  0  0  0
  -10.8610   15.0591  -37.8843 N   0  0  0  0  0  0  0  0  0  0  0  0
  -13.2021   15.3728  -39.4084 N   0  0  0  0  0  0  0  0  0  0  0  0
   -8.7711   15.6324  -37.0361 O   0  0  0  0  0  0  0  0  0  0  0  0
  -13.5929   16.4730  -41.3979 O   0  0  0  0  0  0  0  0  0  0  0  0
  -10.4742   15.8170  -40.4404 O   0  0  0  0  0  0  0  0  0  0  0  0
   -9.7405   13.6459  -36.4476 O   0  0  0  0  0  0  0  0  0  0  0  0
  -13.6431   14.1838  -41.3023 O   0  0  0  0  0  0  0  0  0  0  0  0
  -13.2792   14.0460  -36.4455 H   0  0  0  0  0  0  0  0  0  0  0  0
  -14.8009   14.2731  -37.3221 H   0  0  0  0  0  0  0  0  0  0  0  0
  -14.5955   16.5259  -37.2227 H   0  0  0  0  0  0  0  0  0  0  0  0
  -13.0787   16.3872  -36.3212 H   0  0  0  0  0  0  0  0  0  0  0  0
  -11.4156   13.0223  -37.8037 H   0  0  0  0  0  0  0  0  0  0  0  0
  -11.1003   13.6723  -39.4138 H   0  0  0  0  0  0  0  0  0  0  0  0
  -13.5613   13.3032  -39.1256 H   0  0  0  0  0  0  0  0  0  0  0  0
  -13.1680   17.4394  -38.8981 H   0  0  0  0  0  0  0  0  0  0  0  0
  -11.0761   17.1130  -37.4704 H   0  0  0  0  0  0  0  0  0  0  0  0
   -8.2901   15.4147  -35.0342 H   0  0  0  0  0  0  0  0  0  0  0  0
   -9.3589   14.5028  -33.9442 H   0  0  0  0  0  0  0  0  0  0  0  0
   -7.6009   14.2444  -33.9228 H   0  0  0  0  0  0  0  0  0  0  0  0
   -8.9398   11.2040  -35.7428 H   0  0  0  0  0  0  0  0  0  0  0  0
   -9.7792   11.9878  -34.4162 H   0  0  0  0  0  0  0  0  0  0  0  0
   -8.0263   11.7140  -34.3058 H   0  0  0  0  0  0  0  0  0  0  0  0
   -7.4601   12.5225  -37.2928 H   0  0  0  0  0  0  0  0  0  0  0  0
   -7.1947   14.2603  -37.0343 H   0  0  0  0  0  0  0  0  0  0  0  0
   -6.4683   13.0555  -35.9465 H   0  0  0  0  0  0  0  0  0  0  0  0
  -15.1857   15.9396  -42.6314 H   0  0  0  0  0  0  0  0  0  0  0  0
  -14.3722   14.8576  -43.7844 H   0  0  0  0  0  0  0  0  0  0  0  0
  -16.1231   14.7401  -43.5044 H   0  0  0  0  0  0  0  0  0  0  0  0
  -14.7070   11.7639  -41.6372 H   0  0  0  0  0  0  0  0  0  0  0  0
  -14.0466   12.3649  -43.1477 H   0  0  0  0  0  0  0  0  0  0  0  0
  -15.8080   12.2244  -42.9546 H   0  0  0  0  0  0  0  0  0  0  0  0
  -15.8229   13.3211  -40.0062 H   0  0  0  0  0  0  0  0  0  0  0  0
  -16.0121   15.0471  -40.3836 H   0  0  0  0  0  0  0  0  0  0  0  0
  -16.9846   13.8182  -41.2242 H   0  0  0  0  0  0  0  0  0  0  0  0
   -9.5334   17.1846  -39.2329 H   0  0  0  0  0  0  0  0  0  0  0  0
  -11.0563   17.7311  -39.9815 H   0  0  0  0  0  0  0  0  0  0  0  0
  -10.0137   15.0852  -39.9941 H   0  0  0  0  0  0  0  0  0  0  0  0
  1 18  1  0  0  0  0
  1 20  2  0  0  0  0
  1 23  1  0  0  0  0
  2 19  1  0  0  0  0
  2 21  2  0  0  0  0
  2 24  1  0  0  0  0
  3  4  1  0  0  0  0
  3  6  1  6  0  0  0
  4  7  1  6  0  0  0
  5  6  1  0  0  0  0
  5 18  1  0  0  0  0
  6 19  1  0  0  0  0
  7  8  1  0  0  0  0
  7 19  1  0  0  0  0
  8 15  1  1  0  0  0
  8 18  1  0  0  0  0
  9 16  1  0  0  0  0
 10 16  1  0  0  0  0
 11 16  1  0  0  0  0
 12 17  1  0  0  0  0
 13 17  1  0  0  0  0
 14 17  1  0  0  0  0
 15 22  1  0  0  0  0
 16 23  1  0  0  0  0
 17 24  1  0  0  0  0
  3 25  1  0  0  0  0
  3 26  1  0  0  0  0
  4 27  1  0  0  0  0
  4 28  1  0  0  0  0
  5 29  1  0  0  0  0
  5 30  1  0  0  0  0
  6 31  1  0  0  0  0
  7 32  1  0  0  0  0
  8 33  1  0  0  0  0
  9 34  1  0  0  0  0
  9 35  1  0  0  0  0
  9 36  1  0  0  0  0
 10 37  1  0  0  0  0
 10 38  1  0  0  0  0
 10 39  1  0  0  0  0
 11 40  1  0  0  0  0
 11 41  1  0  0  0  0
 11 42  1  0  0  0  0
 12 43  1  0  0  0  0
 12 44  1  0  0  0  0
 12 45  1  0  0  0  0
 13 46  1  0  0  0  0
 13 47  1  0  0  0  0
 13 48  1  0  0  0  0
 14 49  1  0  0  0  0
 14 50  1  0  0  0  0
 14 51  1  0  0  0  0
 15 52  1  0  0  0  0
 15 53  1  0  0  0  0
 22 54  1  0  0  0  0
M  END
> <id>
EN300-37100400

> <smiles>
CC(C)(C)OC(=O)N1[C@@H]2CC[C@H]1[C@H](CO)N(C2)C(=O)OC(C)(C)C |&1:8,11,12,r|

> <IUPAC Name>
rac-3,8-di-tert-butyl (1R,2S,5S)-2-(hydroxymethyl)-3,8-diazabicyclo[3.2.1]octane-3,8-dicarboxylate

> <CAS>
2763965-32-6

> <URL>
https://www.enaminestore.com/catalog/EN300-37100400

> <ROCS_ShapeQuery>
_x1247relevant_x1083L0AP1_x1305L0BP1_

> <ROCS_TanimotoCombo>
0.819 

> <ROCS_ShapeTanimoto>
0.515 

> <ROCS_ColorTanimoto>
0.304 

> <ROCS_RefTversky>
0.474 

> <ROCS_RefColorTversky>
0.368 

> <ROCS_RefTverskyCombo>
0.842 

> <ROCS_FitTversky>
1.201 

> <ROCS_FitColorTversky>
0.637 

> <ROCS_FitTverskyCombo>
1.838 

> <ROCS_ColorScore>
-7.867

> <ROCS_Overlap>
1404.646

> <ROCS_Rank>
453                 

$$$$
untitled-dbase-110599_5
  -OEChem-06232314393D

 31 33  0     1  0  0  0  0  0999 V2000
  -10.4141   15.1672  -36.6124 C   0  0  0  0  0  0  0  0  0  0  0  0
  -13.6248   17.1198  -38.1125 C   0  0  0  0  0  0  0  0  0  0  0  0
  -13.4942   16.3762  -36.7783 C   0  0  0  0  0  0  0  0  0  0  0  0
  -11.4571   16.1268  -38.7237 C   0  0  0  0  0  0  0  0  0  0  0  0
  -12.5551   13.6114  -39.1408 C   0  0  0  0  0  0  0  0  0  0  0  0
  -12.9546   16.1516  -39.0940 C   0  0  1  0  0  0  0  0  0  0  0  0
  -11.4729   15.0234  -37.6495 C   0  0  2  0  0  0  0  0  0  0  0  0
  -12.9498   14.9824  -37.1710 C   0  0  2  0  0  0  0  0  0  0  0  0
  -13.4485   14.7510  -38.6121 C   0  0  2  0  0  0  0  0  0  0  0  0
  -13.3249   13.9276  -36.1332 C   0  0  0  0  0  0  0  0  0  0  0  0
  -14.9283   14.4735  -38.8259 C   0  0  0  0  0  0  0  0  0  0  0  0
  -11.3193   13.7319  -38.3430 N   0  0  0  0  0  0  0  0  0  0  0  0
  -10.5118   14.7930  -35.4532 O   0  0  0  0  0  0  0  0  0  0  0  0
   -9.3184   15.7761  -37.1282 O   0  0  0  0  0  0  0  0  0  0  0  0
  -14.6774   17.2802  -38.3679 H   0  0  0  0  0  0  0  0  0  0  0  0
  -13.1409   18.1015  -38.0819 H   0  0  0  0  0  0  0  0  0  0  0  0
  -12.8133   16.8933  -36.0936 H   0  0  0  0  0  0  0  0  0  0  0  0
  -14.4746   16.3155  -36.2928 H   0  0  0  0  0  0  0  0  0  0  0  0
  -10.8351   15.8569  -39.5862 H   0  0  0  0  0  0  0  0  0  0  0  0
  -11.0881   17.0883  -38.3490 H   0  0  0  0  0  0  0  0  0  0  0  0
  -13.0001   12.6246  -38.9741 H   0  0  0  0  0  0  0  0  0  0  0  0
  -12.3454   13.7205  -40.2101 H   0  0  0  0  0  0  0  0  0  0  0  0
  -13.1422   16.3872  -40.1439 H   0  0  0  0  0  0  0  0  0  0  0  0
  -12.9307   12.9575  -36.4326 H   0  0  0  0  0  0  0  0  0  0  0  0
  -14.4086   13.8607  -36.0488 H   0  0  0  0  0  0  0  0  0  0  0  0
  -12.9081   14.1976  -35.1640 H   0  0  0  0  0  0  0  0  0  0  0  0
  -15.5254   15.3009  -38.4395 H   0  0  0  0  0  0  0  0  0  0  0  0
  -15.2178   13.5587  -38.3066 H   0  0  0  0  0  0  0  0  0  0  0  0
  -15.1384   14.3553  -39.8900 H   0  0  0  0  0  0  0  0  0  0  0  0
  -11.2854   12.9732  -37.6628 H   0  0  0  0  0  0  0  0  0  0  0  0
   -9.4355   15.9994  -38.0762 H   0  0  0  0  0  0  0  0  0  0  0  0
  1  7  1  6  0  0  0
  1 13  2  0  0  0  0
  1 14  1  0  0  0  0
  2  3  1  0  0  0  0
  2  6  1  0  0  0  0
  3  8  1  0  0  0  0
  4  6  1  6  0  0  0
  4  7  1  0  0  0  0
  5  9  1  0  0  0  0
  5 12  1  0  0  0  0
  6  9  1  0  0  0  0
  7  8  1  0  0  0  0
  7 12  1  0  0  0  0
  8  9  1  0  0  0  0
  8 10  1  1  0  0  0
  9 11  1  1  0  0  0
  2 15  1  0  0  0  0
  2 16  1  0  0  0  0
  3 17  1  0  0  0  0
  3 18  1  0  0  0  0
  4 19  1  0  0  0  0
  4 20  1  0  0  0  0
  5 21  1  0  0  0  0
  5 22  1  0  0  0  0
  6 23  1  0  0  0  0
 10 24  1  0  0  0  0
 10 25  1  0  0  0  0
 10 26  1  0  0  0  0
 11 27  1  0  0  0  0
 11 28  1  0  0  0  0
 11 29  1  0  0  0  0
 12 30  1  0  0  0  0
 14 31  1  0  0  0  0
M  END
> <id>
EN300-86643

> <smiles>
Cl.C[C@]12CN[C@]3(C[C@@H]2CC[C@@]13C)C(=O)O

> <MDLNUMBER>
MFCD08457562

> <IUPAC Name>
(1S,3S,6R,7S)-6,7-dimethyl-4-azatricyclo[4.3.0.0,3,7]nonane-3-carboxylic acid hydrochloride

> <CAS>
1955473-57-0

> <URL>
https://www.enaminestore.com/catalog/EN300-86643

> <Saltdate>
Cl

> <ROCS_ShapeQuery>
_x1247relevant_x1083L0AP1_x1305L0BP1_

> <ROCS_TanimotoCombo>
0.819 

> <ROCS_ShapeTanimoto>
0.480 

> <ROCS_ColorTanimoto>
0.339 

> <ROCS_RefTversky>
0.409 

> <ROCS_RefColorTversky>
0.459 

> <ROCS_RefTverskyCombo>
0.869 

> <ROCS_FitTversky>
1.565 

> <ROCS_FitColorTversky>
0.564 

> <ROCS_FitTverskyCombo>
2.129 

> <ROCS_ColorScore>
-9.935

> <ROCS_Overlap>
1204.627

> <ROCS_Rank>
454                 

$$$$
untitled-dbase-10002_5
  -OEChem-06232314393D

 31 33  0     1  0  0  0  0  0999 V2000
  -10.4141   15.1672  -36.6124 C   0  0  0  0  0  0  0  0  0  0  0  0
  -13.6248   17.1198  -38.1125 C   0  0  0  0  0  0  0  0  0  0  0  0
  -13.4942   16.3762  -36.7783 C   0  0  0  0  0  0  0  0  0  0  0  0
  -11.4571   16.1268  -38.7237 C   0  0  0  0  0  0  0  0  0  0  0  0
  -12.5551   13.6114  -39.1408 C   0  0  0  0  0  0  0  0  0  0  0  0
  -12.9546   16.1516  -39.0940 C   0  0  1  0  0  0  0  0  0  0  0  0
  -11.4729   15.0234  -37.6495 C   0  0  2  0  0  0  0  0  0  0  0  0
  -12.9498   14.9824  -37.1710 C   0  0  2  0  0  0  0  0  0  0  0  0
  -13.4485   14.7510  -38.6121 C   0  0  2  0  0  0  0  0  0  0  0  0
  -13.3249   13.9276  -36.1332 C   0  0  0  0  0  0  0  0  0  0  0  0
  -14.9283   14.4735  -38.8259 C   0  0  0  0  0  0  0  0  0  0  0  0
  -11.3193   13.7319  -38.3430 N   0  0  0  0  0  0  0  0  0  0  0  0
  -10.5118   14.7930  -35.4532 O   0  0  0  0  0  0  0  0  0  0  0  0
   -9.3184   15.7761  -37.1282 O   0  0  0  0  0  0  0  0  0  0  0  0
  -14.6774   17.2802  -38.3679 H   0  0  0  0  0  0  0  0  0  0  0  0
  -13.1409   18.1015  -38.0819 H   0  0  0  0  0  0  0  0  0  0  0  0
  -12.8133   16.8933  -36.0936 H   0  0  0  0  0  0  0  0  0  0  0  0
  -14.4746   16.3155  -36.2928 H   0  0  0  0  0  0  0  0  0  0  0  0
  -10.8351   15.8569  -39.5862 H   0  0  0  0  0  0  0  0  0  0  0  0
  -11.0881   17.0883  -38.3490 H   0  0  0  0  0  0  0  0  0  0  0  0
  -13.0001   12.6246  -38.9741 H   0  0  0  0  0  0  0  0  0  0  0  0
  -12.3454   13.7205  -40.2101 H   0  0  0  0  0  0  0  0  0  0  0  0
  -13.1422   16.3872  -40.1439 H   0  0  0  0  0  0  0  0  0  0  0  0
  -12.9307   12.9575  -36.4326 H   0  0  0  0  0  0  0  0  0  0  0  0
  -14.4086   13.8607  -36.0488 H   0  0  0  0  0  0  0  0  0  0  0  0
  -12.9081   14.1976  -35.1640 H   0  0  0  0  0  0  0  0  0  0  0  0
  -15.5254   15.3009  -38.4395 H   0  0  0  0  0  0  0  0  0  0  0  0
  -15.2178   13.5587  -38.3066 H   0  0  0  0  0  0  0  0  0  0  0  0
  -15.1384   14.3553  -39.8900 H   0  0  0  0  0  0  0  0  0  0  0  0
  -11.2854   12.9732  -37.6628 H   0  0  0  0  0  0  0  0  0  0  0  0
   -9.4355   15.9994  -38.0762 H   0  0  0  0  0  0  0  0  0  0  0  0
  1  7  1  6  0  0  0
  1 13  2  0  0  0  0
  1 14  1  0  0  0  0
  2  3  1  0  0  0  0
  2  6  1  0  0  0  0
  3  8  1  0  0  0  0
  4  6  1  6  0  0  0
  4  7  1  0  0  0  0
  5  9  1  0  0  0  0
  5 12  1  0  0  0  0
  6  9  1  0  0  0  0
  7  8  1  0  0  0  0
  7 12  1  0  0  0  0
  8  9  1  0  0  0  0
  8 10  1  1  0  0  0
  9 11  1  1  0  0  0
  2 15  1  0  0  0  0
  2 16  1  0  0  0  0
  3 17  1  0  0  0  0
  3 18  1  0  0  0  0
  4 19  1  0  0  0  0
  4 20  1  0  0  0  0
  5 21  1  0  0  0  0
  5 22  1  0  0  0  0
  6 23  1  0  0  0  0
 10 24  1  0  0  0  0
 10 25  1  0  0  0  0
 10 26  1  0  0  0  0
 11 27  1  0  0  0  0
 11 28  1  0  0  0  0
 11 29  1  0  0  0  0
 12 30  1  0  0  0  0
 14 31  1  0  0  0  0
M  END
> <id>
EN300-146862

> <smiles>
C[C@]12CN[C@]3(C[C@@H]2CC[C@@]13C)C(=O)O

> <MDLNUMBER>
MFCD08444730

> <IUPAC Name>
(1S,3S,6R,7S)-6,7-dimethyl-4-azatricyclo[4.3.0.0,3,7]nonane-3-carboxylic acid

> <CAS>
1932582-78-9

> <URL>
https://www.enaminestore.com/catalog/EN300-146862

> <ROCS_ShapeQuery>
_x1247relevant_x1083L0AP1_x1305L0BP1_

> <ROCS_TanimotoCombo>
0.819 

> <ROCS_ShapeTanimoto>
0.480 

> <ROCS_ColorTanimoto>
0.339 

> <ROCS_RefTversky>
0.409 

> <ROCS_RefColorTversky>
0.459 

> <ROCS_RefTverskyCombo>
0.869 

> <ROCS_FitTversky>
1.565 

> <ROCS_FitColorTversky>
0.564 

> <ROCS_FitTverskyCombo>
2.129 

> <ROCS_ColorScore>
-9.935

> <ROCS_Overlap>
1204.627

> <ROCS_Rank>
455                 

$$$$
untitled-dbase-107390_13
  -OEChem-06232314393D

 36 38  0     1  0  0  0  0  0999 V2000
  -13.2616   14.0448  -38.9871 C   0  0  0  0  0  0  0  0  0  0  0  0
  -13.4499   14.2741  -37.6793 C   0  0  0  0  0  0  0  0  0  0  0  0
  -10.5128   14.5245  -34.0188 C   0  0  0  0  0  0  0  0  0  0  0  0
   -8.3818   14.4678  -35.4134 C   0  0  0  0  0  0  0  0  0  0  0  0
  -11.4068   14.6279  -35.2625 C   0  0  0  0  0  0  0  0  0  0  0  0
   -9.2282   15.3508  -36.3414 C   0  0  0  0  0  0  0  0  0  0  0  0
  -13.3763   16.3363  -38.7157 C   0  0  0  0  0  0  0  0  0  0  0  0
  -11.2055   15.4081  -39.0492 C   0  0  0  0  0  0  0  0  0  0  0  0
  -12.6539   15.2953  -39.5767 C   0  0  1  0  0  0  0  0  0  0  0  0
  -12.9591   15.6750  -37.3957 C   0  0  2  0  0  0  0  0  0  0  0  0
  -11.4146   15.7305  -37.5367 C   0  0  1  0  0  0  0  0  0  0  0  0
   -9.1806   13.8288  -34.2723 C   0  0  0  0  0  0  0  0  0  0  0  0
  -10.6399   14.7950  -36.5963 C   0  0  0  0  0  0  0  0  0  0  0  0
  -10.5206   13.4876  -37.2608 N   0  0  0  0  0  0  0  0  0  0  0  0
   -9.4071   12.4468  -34.5467 O   0  0  0  0  0  0  0  0  0  0  0  0
  -13.4578   13.1232  -39.5111 H   0  0  0  0  0  0  0  0  0  0  0  0
  -13.8251   13.5713  -36.9528 H   0  0  0  0  0  0  0  0  0  0  0  0
  -10.3266   15.5391  -33.6178 H   0  0  0  0  0  0  0  0  0  0  0  0
  -11.0559   14.0114  -33.2021 H   0  0  0  0  0  0  0  0  0  0  0  0
   -7.8712   13.6800  -35.9963 H   0  0  0  0  0  0  0  0  0  0  0  0
   -7.5579   15.0686  -34.9885 H   0  0  0  0  0  0  0  0  0  0  0  0
  -12.0617   13.7415  -35.3059 H   0  0  0  0  0  0  0  0  0  0  0  0
  -12.0851   15.4873  -35.1252 H   0  0  0  0  0  0  0  0  0  0  0  0
   -9.3045   16.3476  -35.8850 H   0  0  0  0  0  0  0  0  0  0  0  0
   -8.6888   15.4910  -37.2877 H   0  0  0  0  0  0  0  0  0  0  0  0
  -12.9805   17.3508  -38.8395 H   0  0  0  0  0  0  0  0  0  0  0  0
  -14.4627   16.3554  -38.8711 H   0  0  0  0  0  0  0  0  0  0  0  0
  -10.6272   14.4924  -39.2163 H   0  0  0  0  0  0  0  0  0  0  0  0
  -10.6828   16.2397  -39.5355 H   0  0  0  0  0  0  0  0  0  0  0  0
  -12.7824   15.4061  -40.6537 H   0  0  0  0  0  0  0  0  0  0  0  0
  -13.3740   16.1380  -36.4995 H   0  0  0  0  0  0  0  0  0  0  0  0
  -11.0777   16.7594  -37.3507 H   0  0  0  0  0  0  0  0  0  0  0  0
   -8.5722   13.8730  -33.3415 H   0  0  0  0  0  0  0  0  0  0  0  0
  -10.0256   12.8845  -36.6522 H   0  0  0  0  0  0  0  0  0  0  0  0
  -11.4360   13.1521  -37.4304 H   0  0  0  0  0  0  0  0  0  0  0  0
   -9.8461   12.0767  -33.7647 H   0  0  0  0  0  0  0  0  0  0  0  0
  1  2  2  0  0  0  0
  1  9  1  0  0  0  0
  2 10  1  0  0  0  0
  3  5  1  0  0  0  0
  3 12  1  0  0  0  0
  4  6  1  0  0  0  0
  4 12  1  0  0  0  0
  5 13  1  0  0  0  0
  6 13  1  0  0  0  0
  7  9  1  0  0  0  0
  7 10  1  0  0  0  0
  8  9  1  0  0  0  0
  8 11  1  0  0  0  0
 10 11  1  0  0  0  0
 11 13  1  0  0  0  0
 12 15  1  0  0  0  0
 13 14  1  0  0  0  0
  1 16  1  0  0  0  0
  2 17  1  0  0  0  0
  3 18  1  0  0  0  0
  3 19  1  0  0  0  0
  4 20  1  0  0  0  0
  4 21  1  0  0  0  0
  5 22  1  0  0  0  0
  5 23  1  0  0  0  0
  6 24  1  0  0  0  0
  6 25  1  0  0  0  0
  7 26  1  0  0  0  0
  7 27  1  0  0  0  0
  8 28  1  0  0  0  0
  8 29  1  0  0  0  0
  9 30  1  0  0  0  0
 10 31  1  0  0  0  0
 11 32  1  0  0  0  0
 12 33  1  0  0  0  0
 14 34  1  0  0  0  0
 14 35  1  0  0  0  0
 15 36  1  0  0  0  0
M  END
> <id>
EN300-1822946

> <smiles>
NC1(CCC(O)CC1)C2CC3CC2C=C3

> <IUPAC Name>
4-amino-4-{bicyclo[2.2.1]hept-5-en-2-yl}cyclohexan-1-ol

> <CAS>
2229004-94-6

> <URL>
https://www.enaminestore.com/catalog/EN300-1822946

> <ROCS_ShapeQuery>
_x1247relevant_x1083L0AP1_x1305L0BP1_

> <ROCS_TanimotoCombo>
0.819 

> <ROCS_ShapeTanimoto>
0.457 

> <ROCS_ColorTanimoto>
0.362 

> <ROCS_RefTversky>
0.397 

> <ROCS_RefColorTversky>
0.414 

> <ROCS_RefTverskyCombo>
0.811 

> <ROCS_FitTversky>
1.487 

> <ROCS_FitColorTversky>
0.743 

> <ROCS_FitTverskyCombo>
2.230 

> <ROCS_ColorScore>
-8.834

> <ROCS_Overlap>
1169.541

> <ROCS_Rank>
456                 

$$$$
untitled-dbase-161514_5
  -OEChem-06232314393D

 31 33  0     1  0  0  0  0  0999 V2000
  -10.4147   15.1670  -36.6123 C   0  0  0  0  0  0  0  0  0  0  0  0
  -13.6249   17.1208  -38.1120 C   0  0  0  0  0  0  0  0  0  0  0  0
  -13.4949   16.3768  -36.7779 C   0  0  0  0  0  0  0  0  0  0  0  0
  -11.4574   16.1273  -38.7231 C   0  0  0  0  0  0  0  0  0  0  0  0
  -12.5564   13.6119  -39.1404 C   0  0  0  0  0  0  0  0  0  0  0  0
  -12.9548   16.1526  -39.0936 C   0  0  1  0  0  0  0  0  0  0  0  0
  -11.4737   15.0238  -37.6491 C   0  0  2  0  0  0  0  0  0  0  0  0
  -12.9507   14.9830  -37.1708 C   0  0  2  0  0  0  0  0  0  0  0  0
  -13.4493   14.7521  -38.6120 C   0  0  2  0  0  0  0  0  0  0  0  0
  -13.3257   13.9275  -36.1337 C   0  0  0  0  0  0  0  0  0  0  0  0
  -14.9292   14.4748  -38.8260 C   0  0  0  0  0  0  0  0  0  0  0  0
  -11.3200   13.7325  -38.3433 N   0  0  0  0  0  0  0  0  0  0  0  0
  -10.5122   14.7927  -35.4531 O   0  0  0  0  0  0  0  0  0  0  0  0
   -9.3189   15.7755  -37.1282 O   0  0  0  0  0  0  0  0  0  0  0  0
  -14.6774   17.2817  -38.3678 H   0  0  0  0  0  0  0  0  0  0  0  0
  -13.1412   18.1027  -38.0815 H   0  0  0  0  0  0  0  0  0  0  0  0
  -12.8139   16.8934  -36.0933 H   0  0  0  0  0  0  0  0  0  0  0  0
  -14.4753   16.3165  -36.2920 H   0  0  0  0  0  0  0  0  0  0  0  0
  -10.8354   15.8575  -39.5856 H   0  0  0  0  0  0  0  0  0  0  0  0
  -11.0879   17.0886  -38.3482 H   0  0  0  0  0  0  0  0  0  0  0  0
  -13.0016   12.6251  -38.9732 H   0  0  0  0  0  0  0  0  0  0  0  0
  -12.3469   13.7208  -40.2097 H   0  0  0  0  0  0  0  0  0  0  0  0
  -13.1425   16.3885  -40.1434 H   0  0  0  0  0  0  0  0  0  0  0  0
  -12.9314   12.9577  -36.4336 H   0  0  0  0  0  0  0  0  0  0  0  0
  -14.4094   13.8605  -36.0494 H   0  0  0  0  0  0  0  0  0  0  0  0
  -12.9090   14.1971  -35.1643 H   0  0  0  0  0  0  0  0  0  0  0  0
  -15.5261   15.3024  -38.4399 H   0  0  0  0  0  0  0  0  0  0  0  0
  -15.2189   13.5603  -38.3065 H   0  0  0  0  0  0  0  0  0  0  0  0
  -15.1391   14.3564  -39.8900 H   0  0  0  0  0  0  0  0  0  0  0  0
  -11.2854   12.9734  -37.6635 H   0  0  0  0  0  0  0  0  0  0  0  0
   -9.4360   15.9989  -38.0762 H   0  0  0  0  0  0  0  0  0  0  0  0
  1  7  1  0  0  0  0
  1 13  2  0  0  0  0
  1 14  1  0  0  0  0
  2  3  1  0  0  0  0
  2  6  1  0  0  0  0
  3  8  1  0  0  0  0
  4  6  1  0  0  0  0
  4  7  1  0  0  0  0
  5  9  1  0  0  0  0
  5 12  1  0  0  0  0
  6  9  1  0  0  0  0
  7  8  1  0  0  0  0
  7 12  1  0  0  0  0
  8  9  1  0  0  0  0
  8 10  1  0  0  0  0
  9 11  1  0  0  0  0
  2 15  1  0  0  0  0
  2 16  1  0  0  0  0
  3 17  1  0  0  0  0
  3 18  1  0  0  0  0
  4 19  1  0  0  0  0
  4 20  1  0  0  0  0
  5 21  1  0  0  0  0
  5 22  1  0  0  0  0
  6 23  1  0  0  0  0
 10 24  1  0  0  0  0
 10 25  1  0  0  0  0
 10 26  1  0  0  0  0
 11 27  1  0  0  0  0
 11 28  1  0  0  0  0
 11 29  1  0  0  0  0
 12 30  1  0  0  0  0
 14 31  1  0  0  0  0
M  END
> <id>
EN300-295732

> <smiles>
Cl.CC12CNC3(CC2CCC13C)C(=O)O

> <MDLNUMBER>
MFCD07755134

> <IUPAC Name>
6,7-dimethyl-4-azatricyclo[4.3.0.0,3,7]nonane-3-carboxylic acid hydrochloride

> <CAS>
1217750-02-1

> <URL>
https://www.enaminestore.com/catalog/EN300-295732

> <Saltdate>
Cl

> <ROCS_ShapeQuery>
_x1247relevant_x1083L0AP1_x1305L0BP1_

> <ROCS_TanimotoCombo>
0.819 

> <ROCS_ShapeTanimoto>
0.480 

> <ROCS_ColorTanimoto>
0.339 

> <ROCS_RefTversky>
0.409 

> <ROCS_RefColorTversky>
0.459 

> <ROCS_RefTverskyCombo>
0.869 

> <ROCS_FitTversky>
1.565 

> <ROCS_FitColorTversky>
0.563 

> <ROCS_FitTverskyCombo>
2.129 

> <ROCS_ColorScore>
-9.935

> <ROCS_Overlap>
1204.547

> <ROCS_Rank>
457                 

$$$$
untitled-dbase-145278_3
  -OEChem-06232314393D

 22 23  0     1  0  0  0  0  0999 V2000
  -12.6248   14.1996  -39.4523 C   0  0  0  0  0  0  0  0  0  0  0  0
  -11.4590   15.1878  -39.4950 C   0  0  0  0  0  0  0  0  0  0  0  0
  -12.9025   14.5650  -36.9821 C   0  0  0  0  0  0  0  0  0  0  0  0
  -13.5120   14.8024  -38.3649 C   0  0  1  0  0  0  0  0  0  0  0  0
  -11.8247   16.1662  -38.3788 C   0  0  2  0  0  0  0  0  0  0  0  0
  -11.7425   15.5619  -36.9771 C   0  0  2  0  0  0  0  0  0  0  0  0
  -10.3044   13.3696  -37.3977 N   0  0  0  0  0  0  0  0  0  0  0  0
   -9.1380   15.6504  -37.1653 O   0  0  0  0  0  0  0  0  0  0  0  0
  -10.1800   14.5761  -35.1293 O   0  0  0  0  0  0  0  0  0  0  0  0
  -13.2656   16.2173  -38.5486 O   0  0  0  0  0  0  0  0  0  0  0  0
  -10.1958   14.8528  -36.5594 S   0  0  0  0  0  0  0  0  0  0  0  0
  -13.1407   14.1996  -40.4189 H   0  0  0  0  0  0  0  0  0  0  0  0
  -12.3115   13.1756  -39.2285 H   0  0  0  0  0  0  0  0  0  0  0  0
  -10.4829   14.7126  -39.3765 H   0  0  0  0  0  0  0  0  0  0  0  0
  -11.4632   15.7039  -40.4625 H   0  0  0  0  0  0  0  0  0  0  0  0
  -13.6219   14.8458  -36.2041 H   0  0  0  0  0  0  0  0  0  0  0  0
  -12.6141   13.5221  -36.8201 H   0  0  0  0  0  0  0  0  0  0  0  0
  -14.5707   14.5468  -38.4460 H   0  0  0  0  0  0  0  0  0  0  0  0
  -11.3639   17.1520  -38.4767 H   0  0  0  0  0  0  0  0  0  0  0  0
  -11.9389   16.3362  -36.2259 H   0  0  0  0  0  0  0  0  0  0  0  0
   -9.7094   13.2463  -38.2262 H   0  0  0  0  0  0  0  0  0  0  0  0
  -10.4193   12.5148  -36.8395 H   0  0  0  0  0  0  0  0  0  0  0  0
  1  2  1  0  0  0  0
  1  4  1  0  0  0  0
  2  5  1  1  0  0  0
  3  4  1  1  0  0  0
  3  6  1  0  0  0  0
  4 10  1  0  0  0  0
  5  6  1  0  0  0  0
  5 10  1  0  0  0  0
  6 11  1  1  0  0  0
  7 11  1  0  0  0  0
  8 11  2  0  0  0  0
  9 11  2  0  0  0  0
  1 12  1  0  0  0  0
  1 13  1  0  0  0  0
  2 14  1  0  0  0  0
  2 15  1  0  0  0  0
  3 16  1  0  0  0  0
  3 17  1  0  0  0  0
  4 18  1  0  0  0  0
  5 19  1  0  0  0  0
  6 20  1  0  0  0  0
  7 21  1  0  0  0  0
  7 22  1  0  0  0  0
M  END
> <id>
EN300-27734302

> <smiles>
NS(=O)(=O)[C@@H]1C[C@@H]2CC[C@H]1O2 |&1:4,6,9,r|

> <IUPAC Name>
rac-(1R,2R,4S)-7-oxabicyclo[2.2.1]heptane-2-sulfonamide

> <CAS>
2580094-55-7

> <URL>
https://www.enaminestore.com/catalog/EN300-27734302

> <ROCS_ShapeQuery>
_x1247relevant_x1083L0AP1_x1305L0BP1_

> <ROCS_TanimotoCombo>
0.819 

> <ROCS_ShapeTanimoto>
0.434 

> <ROCS_ColorTanimoto>
0.385 

> <ROCS_RefTversky>
0.364 

> <ROCS_RefColorTversky>
0.421 

> <ROCS_RefTverskyCombo>
0.785 

> <ROCS_FitTversky>
1.782 

> <ROCS_FitColorTversky>
0.820 

> <ROCS_FitTverskyCombo>
2.602 

> <ROCS_ColorScore>
-8.954

> <ROCS_Overlap>
1068.836

> <ROCS_Rank>
458                 

$$$$
untitled-dbase-145412_26
  -OEChem-06232314393D

 24 25  0     1  0  0  0  0  0999 V2000
  -12.2711   14.9917  -37.8605 C   0  0  0  0  0  0  0  0  0  0  0  0
  -13.8595   14.8658  -39.2090 C   0  0  0  0  0  0  0  0  0  0  0  0
   -9.4061   13.8190  -38.2924 C   0  0  0  0  0  0  0  0  0  0  0  0
   -8.9322   15.2628  -38.1689 C   0  0  0  0  0  0  0  0  0  0  0  0
  -10.2940   15.6575  -36.2507 C   0  0  0  0  0  0  0  0  0  0  0  0
  -11.2225   14.5687  -36.8344 C   0  0  2  0  0  0  0  0  0  0  0  0
  -14.9797   14.4710  -40.0780 C   0  0  0  0  0  0  0  0  0  0  0  0
  -13.1610   14.1061  -38.3976 N   0  0  0  0  0  0  0  0  0  0  0  0
  -12.3751   16.2516  -38.2886 N   0  0  0  0  0  0  0  0  0  0  0  0
  -13.3981   16.1438  -39.1500 N   0  0  0  0  0  0  0  0  0  0  0  0
  -10.3964   13.4470  -37.2885 N   0  0  0  0  0  0  0  0  0  0  0  0
   -8.9789   15.6936  -36.8165 O   0  0  0  0  0  0  0  0  0  0  0  0
   -9.8282   13.6483  -39.3022 H   0  0  0  0  0  0  0  0  0  0  0  0
   -8.5399   13.1314  -38.2106 H   0  0  0  0  0  0  0  0  0  0  0  0
   -7.8926   15.3410  -38.5111 H   0  0  0  0  0  0  0  0  0  0  0  0
   -9.5318   15.9399  -38.7946 H   0  0  0  0  0  0  0  0  0  0  0  0
  -10.7502   16.6735  -36.3390 H   0  0  0  0  0  0  0  0  0  0  0  0
  -10.1732   15.4992  -35.1553 H   0  0  0  0  0  0  0  0  0  0  0  0
  -11.8248   14.1507  -35.9374 H   0  0  0  0  0  0  0  0  0  0  0  0
  -15.9470   14.5671  -39.5548 H   0  0  0  0  0  0  0  0  0  0  0  0
  -15.0356   15.0867  -40.9938 H   0  0  0  0  0  0  0  0  0  0  0  0
  -14.8922   13.4249  -40.4236 H   0  0  0  0  0  0  0  0  0  0  0  0
  -13.7156   16.9677  -39.6471 H   0  0  0  0  0  0  0  0  0  0  0  0
  -11.0115   12.7231  -37.6992 H   0  0  0  0  0  0  0  0  0  0  0  0
  1  6  1  0  0  0  0
  1  8  1  0  0  0  0
  1  9  2  0  0  0  0
  2  7  1  0  0  0  0
  2  8  2  0  0  0  0
  2 10  1  0  0  0  0
  3  4  1  0  0  0  0
  3 11  1  0  0  0  0
  4 12  1  0  0  0  0
  5  6  1  0  0  0  0
  5 12  1  0  0  0  0
  6 11  1  0  0  0  0
  9 10  1  0  0  0  0
  3 13  1  0  0  0  0
  3 14  1  0  0  0  0
  4 15  1  0  0  0  0
  4 16  1  0  0  0  0
  5 17  1  0  0  0  0
  5 18  1  0  0  0  0
  6 19  1  0  0  0  0
  7 20  1  0  0  0  0
  7 21  1  0  0  0  0
  7 22  1  0  0  0  0
 10 23  1  0  0  0  0
 11 24  1  0  0  0  0
M  END
> <id>
EN300-27780128

> <smiles>
Cl.CC1=NC(=NN1)C2COCCN2

> <MDLNUMBER>
MFCD33549146

> <IUPAC Name>
3-(5-methyl-1H-1,2,4-triazol-3-yl)morpholine hydrochloride

> <CAS>
2639415-72-6

> <Purity>
95

> <URL>
https://www.enaminestore.com/catalog/EN300-27780128

> <ROCS_ShapeQuery>
_x1247relevant_x1083L0AP1_x1305L0BP1_

> <ROCS_TanimotoCombo>
0.819 

> <ROCS_ShapeTanimoto>
0.458 

> <ROCS_ColorTanimoto>
0.361 

> <ROCS_RefTversky>
0.385 

> <ROCS_RefColorTversky>
0.374 

> <ROCS_RefTverskyCombo>
0.759 

> <ROCS_FitTversky>
1.705 

> <ROCS_FitColorTversky>
0.909 

> <ROCS_FitTverskyCombo>
2.614 

> <ROCS_ColorScore>
-7.914

> <ROCS_Overlap>
1131.760

> <ROCS_Rank>
459                 

$$$$
untitled-dbase-150742_169
  -OEChem-06232314393D

 37 38  0     1  0  0  0  0  0999 V2000
  -10.4366   14.2360  -36.5284 C   0  0  0  0  0  0  0  0  0  0  0  0
  -13.4862   14.3191  -38.4609 C   0  0  0  0  0  0  0  0  0  0  0  0
  -11.6820   15.5333  -39.4108 C   0  0  0  0  0  0  0  0  0  0  0  0
  -12.6262   15.5202  -36.6141 C   0  0  0  0  0  0  0  0  0  0  0  0
  -13.5231   15.7277  -37.8500 C   0  0  1  0  0  0  0  0  0  0  0  0
  -12.7271   16.5571  -38.8944 C   0  0  2  0  0  0  0  0  0  0  0  0
  -11.9601   14.2972  -38.5366 C   0  0  1  0  0  0  0  0  0  0  0  0
   -7.9747   13.0657  -35.6718 C   0  0  0  0  0  0  0  0  0  0  0  0
   -7.6253   12.4795  -38.0891 C   0  0  0  0  0  0  0  0  0  0  0  0
   -7.7872   14.8885  -37.3971 C   0  0  0  0  0  0  0  0  0  0  0  0
  -13.6060   17.1013  -40.0145 C   0  0  0  0  0  0  0  0  0  0  0  0
   -8.2689   13.4657  -37.1168 C   0  0  0  0  0  0  0  0  0  0  0  0
  -11.5928   14.6424  -37.1604 N   0  0  0  0  0  0  0  0  0  0  0  0
  -10.1163   14.5693  -35.3902 O   0  0  0  0  0  0  0  0  0  0  0  0
  -14.6081   16.1445  -40.3082 O   0  0  0  0  0  0  0  0  0  0  0  0
   -9.6849   13.4145  -37.3245 O   0  0  0  0  0  0  0  0  0  0  0  0
  -13.8936   13.5504  -37.7951 H   0  0  0  0  0  0  0  0  0  0  0  0
  -13.9729   14.2476  -39.4382 H   0  0  0  0  0  0  0  0  0  0  0  0
  -11.8355   15.2973  -40.4699 H   0  0  0  0  0  0  0  0  0  0  0  0
  -10.6576   15.9024  -39.2900 H   0  0  0  0  0  0  0  0  0  0  0  0
  -12.1835   16.4410  -36.2229 H   0  0  0  0  0  0  0  0  0  0  0  0
  -13.1423   14.9871  -35.8091 H   0  0  0  0  0  0  0  0  0  0  0  0
  -14.5163   16.1152  -37.6148 H   0  0  0  0  0  0  0  0  0  0  0  0
  -12.2232   17.4033  -38.4119 H   0  0  0  0  0  0  0  0  0  0  0  0
  -11.4938   13.3750  -38.8882 H   0  0  0  0  0  0  0  0  0  0  0  0
   -8.4350   13.7711  -34.9707 H   0  0  0  0  0  0  0  0  0  0  0  0
   -8.3464   12.0605  -35.4478 H   0  0  0  0  0  0  0  0  0  0  0  0
   -6.8975   13.0890  -35.4712 H   0  0  0  0  0  0  0  0  0  0  0  0
   -7.8339   12.7627  -39.1272 H   0  0  0  0  0  0  0  0  0  0  0  0
   -8.0383   11.4732  -37.9548 H   0  0  0  0  0  0  0  0  0  0  0  0
   -6.5400   12.4296  -37.9547 H   0  0  0  0  0  0  0  0  0  0  0  0
   -7.9982   15.1757  -38.4336 H   0  0  0  0  0  0  0  0  0  0  0  0
   -8.2667   15.6148  -36.7329 H   0  0  0  0  0  0  0  0  0  0  0  0
   -6.7012   14.9643  -37.2702 H   0  0  0  0  0  0  0  0  0  0  0  0
  -13.0057   17.2787  -40.9074 H   0  0  0  0  0  0  0  0  0  0  0  0
  -14.0790   18.0321  -39.6996 H   0  0  0  0  0  0  0  0  0  0  0  0
  -15.1223   16.0111  -39.4939 H   0  0  0  0  0  0  0  0  0  0  0  0
  1 13  1  0  0  0  0
  1 14  2  0  0  0  0
  1 16  1  0  0  0  0
  2  5  1  0  0  0  0
  2  7  1  0  0  0  0
  3  6  1  0  0  0  0
  3  7  1  6  0  0  0
  4  5  1  6  0  0  0
  4 13  1  0  0  0  0
  5  6  1  0  0  0  0
  6 11  1  1  0  0  0
  7 13  1  0  0  0  0
  8 12  1  0  0  0  0
  9 12  1  0  0  0  0
 10 12  1  0  0  0  0
 11 15  1  0  0  0  0
 12 16  1  0  0  0  0
  2 17  1  0  0  0  0
  2 18  1  0  0  0  0
  3 19  1  0  0  0  0
  3 20  1  0  0  0  0
  4 21  1  0  0  0  0
  4 22  1  0  0  0  0
  5 23  1  0  0  0  0
  6 24  1  0  0  0  0
  7 25  1  0  0  0  0
  8 26  1  0  0  0  0
  8 27  1  0  0  0  0
  8 28  1  0  0  0  0
  9 29  1  0  0  0  0
  9 30  1  0  0  0  0
  9 31  1  0  0  0  0
 10 32  1  0  0  0  0
 10 33  1  0  0  0  0
 10 34  1  0  0  0  0
 11 35  1  0  0  0  0
 11 36  1  0  0  0  0
 15 37  1  0  0  0  0
M  END
> <id>
EN300-28230329

> <smiles>
CC(C)(C)OC(=O)N1C[C@@H]2C[C@H]1C[C@H]2CO |&1:9,11,13,r|

> <IUPAC Name>
rac-tert-butyl (1R,4S,5S)-5-(hydroxymethyl)-2-azabicyclo[2.2.1]heptane-2-carboxylate

> <CAS>
2165939-46-6

> <Purity>
95

> <URL>
https://www.enaminestore.com/catalog/EN300-28230329

> <ROCS_ShapeQuery>
_x1247relevant_x1083L0AP1_x1305L0BP1_

> <ROCS_TanimotoCombo>
0.819 

> <ROCS_ShapeTanimoto>
0.472 

> <ROCS_ColorTanimoto>
0.347 

> <ROCS_RefTversky>
0.410 

> <ROCS_RefColorTversky>
0.390 

> <ROCS_RefTverskyCombo>
0.800 

> <ROCS_FitTversky>
1.466 

> <ROCS_FitColorTversky>
0.758 

> <ROCS_FitTverskyCombo>
2.224 

> <ROCS_ColorScore>
-8.294

> <ROCS_Overlap>
1208.980

> <ROCS_Rank>
460                 

$$$$
untitled-dbase-139969_3
  -OEChem-06232314393D

 31 33  0     1  0  0  0  0  0999 V2000
   -8.2911   14.3959  -36.4862 C   0  0  0  0  0  0  0  0  0  0  0  0
  -14.0514   16.0200  -39.0687 C   0  0  0  0  0  0  0  0  0  0  0  0
  -12.6379   16.4695  -39.4685 C   0  0  0  0  0  0  0  0  0  0  0  0
   -9.3235   15.5106  -36.6033 C   0  0  0  0  0  0  0  0  0  0  0  0
  -12.6000   14.1336  -39.0550 C   0  0  0  0  0  0  0  0  0  0  0  0
  -13.1683   15.0460  -36.9326 C   0  0  0  0  0  0  0  0  0  0  0  0
   -9.0537   13.1095  -36.7734 C   0  0  0  0  0  0  0  0  0  0  0  0
  -13.7941   14.7132  -38.2994 C   0  0  1  0  0  0  0  0  0  0  0  0
  -11.7414   15.3828  -38.8455 C   0  0  2  0  0  0  0  0  0  0  0  0
  -11.7617   15.5600  -37.3082 C   0  0  2  0  0  0  0  0  0  0  0  0
  -10.6593   14.7825  -36.6107 C   0  0  1  0  0  0  0  0  0  0  0  0
  -10.3365   13.5443  -37.3214 N   0  0  0  0  0  0  0  0  0  0  0  0
   -7.4802   14.5521  -37.2060 H   0  0  0  0  0  0  0  0  0  0  0  0
   -7.8520   14.3693  -35.4831 H   0  0  0  0  0  0  0  0  0  0  0  0
  -14.5656   16.7708  -38.4605 H   0  0  0  0  0  0  0  0  0  0  0  0
  -14.6539   15.8337  -39.9648 H   0  0  0  0  0  0  0  0  0  0  0  0
  -12.5394   16.4755  -40.5601 H   0  0  0  0  0  0  0  0  0  0  0  0
  -12.4048   17.4736  -39.1008 H   0  0  0  0  0  0  0  0  0  0  0  0
   -9.2474   16.2241  -35.7762 H   0  0  0  0  0  0  0  0  0  0  0  0
   -9.1601   16.0635  -37.5374 H   0  0  0  0  0  0  0  0  0  0  0  0
  -12.1890   13.2329  -38.5891 H   0  0  0  0  0  0  0  0  0  0  0  0
  -12.8150   13.9306  -40.1097 H   0  0  0  0  0  0  0  0  0  0  0  0
  -13.7442   15.8031  -36.3902 H   0  0  0  0  0  0  0  0  0  0  0  0
  -13.1163   14.1473  -36.3073 H   0  0  0  0  0  0  0  0  0  0  0  0
   -8.5170   12.4594  -37.4710 H   0  0  0  0  0  0  0  0  0  0  0  0
   -9.2166   12.5442  -35.8487 H   0  0  0  0  0  0  0  0  0  0  0  0
  -14.6700   14.0651  -38.2321 H   0  0  0  0  0  0  0  0  0  0  0  0
  -10.7410   15.3448  -39.2822 H   0  0  0  0  0  0  0  0  0  0  0  0
  -11.6570   16.6175  -37.0369 H   0  0  0  0  0  0  0  0  0  0  0  0
  -10.9739   14.5454  -35.5881 H   0  0  0  0  0  0  0  0  0  0  0  0
  -10.2160   13.7509  -38.3143 H   0  0  0  0  0  0  0  0  0  0  0  0
  1  4  1  0  0  0  0
  1  7  1  0  0  0  0
  2  3  1  0  0  0  0
  2  8  1  0  0  0  0
  3  9  1  0  0  0  0
  4 11  1  0  0  0  0
  5  8  1  0  0  0  0
  5  9  1  0  0  0  0
  6  8  1  0  0  0  0
  6 10  1  0  0  0  0
  7 12  1  0  0  0  0
  9 10  1  0  0  0  0
 10 11  1  0  0  0  0
 11 12  1  0  0  0  0
  1 13  1  0  0  0  0
  1 14  1  0  0  0  0
  2 15  1  0  0  0  0
  2 16  1  0  0  0  0
  3 17  1  0  0  0  0
  3 18  1  0  0  0  0
  4 19  1  0  0  0  0
  4 20  1  0  0  0  0
  5 21  1  0  0  0  0
  5 22  1  0  0  0  0
  6 23  1  0  0  0  0
  6 24  1  0  0  0  0
  7 25  1  0  0  0  0
  7 26  1  0  0  0  0
  8 27  1  0  0  0  0
  9 28  1  0  0  0  0
 10 29  1  0  0  0  0
 11 30  1  0  0  0  0
 12 31  1  0  0  0  0
M  END
> <id>
EN300-1844439

> <smiles>
C1CNC(C1)C2CC3CCC2C3

> <MDLNUMBER>
MFCD14643163

> <IUPAC Name>
2-{bicyclo[2.2.1]heptan-2-yl}pyrrolidine

> <CAS>
1248351-43-0

> <URL>
https://www.enaminestore.com/catalog/EN300-1844439

> <ROCS_ShapeQuery>
_x1247relevant_x1083L0AP1_x1305L0BP1_

> <ROCS_TanimotoCombo>
0.819 

> <ROCS_ShapeTanimoto>
0.463 

> <ROCS_ColorTanimoto>
0.355 

> <ROCS_RefTversky>
0.387 

> <ROCS_RefColorTversky>
0.385 

> <ROCS_RefTverskyCombo>
0.772 

> <ROCS_FitTversky>
1.733 

> <ROCS_FitColorTversky>
0.821 

> <ROCS_FitTverskyCombo>
2.554 

> <ROCS_ColorScore>
-8.168

> <ROCS_Overlap>
1138.300

> <ROCS_Rank>
461                 

$$$$
untitled-dbase-118261_61
  -OEChem-06232314393D

 33 34  0     0  0  0  0  0  0999 V2000
  -10.4535   15.0523  -36.6772 C   0  0  0  0  0  0  0  0  0  0  0  0
  -13.9981   14.8375  -37.8110 C   0  0  0  0  0  0  0  0  0  0  0  0
  -12.6372   16.1104  -39.5060 C   0  0  0  0  0  0  0  0  0  0  0  0
  -13.0034   15.2358  -36.7127 C   0  0  0  0  0  0  0  0  0  0  0  0
  -11.6405   16.5083  -38.4101 C   0  0  0  0  0  0  0  0  0  0  0  0
  -13.1053   14.7233  -39.0504 C   0  0  0  0  0  0  0  0  0  0  0  0
  -11.6825   15.2966  -37.4786 C   0  0  0  0  0  0  0  0  0  0  0  0
   -9.4626   12.7401  -37.3571 C   0  0  0  0  0  0  0  0  0  0  0  0
   -7.9175   13.9202  -38.9475 C   0  0  0  0  0  0  0  0  0  0  0  0
   -7.4840   14.0219  -36.4756 C   0  0  0  0  0  0  0  0  0  0  0  0
   -8.5572   13.9539  -37.5612 C   0  0  0  0  0  0  0  0  0  0  0  0
  -11.8773   14.1871  -38.4356 N   0  0  0  0  0  0  0  0  0  0  0  0
  -10.4543   14.8140  -35.4770 O   0  0  0  0  0  0  0  0  0  0  0  0
   -9.3583   15.1374  -37.4847 O   0  0  0  0  0  0  0  0  0  0  0  0
  -14.4627   13.8752  -37.5654 H   0  0  0  0  0  0  0  0  0  0  0  0
  -14.7910   15.5824  -37.9323 H   0  0  0  0  0  0  0  0  0  0  0  0
  -13.4612   16.8263  -39.5889 H   0  0  0  0  0  0  0  0  0  0  0  0
  -12.1254   16.0552  -40.4738 H   0  0  0  0  0  0  0  0  0  0  0  0
  -13.2677   16.1987  -36.2622 H   0  0  0  0  0  0  0  0  0  0  0  0
  -12.9934   14.4841  -35.9142 H   0  0  0  0  0  0  0  0  0  0  0  0
  -10.6451   16.6712  -38.8405 H   0  0  0  0  0  0  0  0  0  0  0  0
  -11.9442   17.4322  -37.9063 H   0  0  0  0  0  0  0  0  0  0  0  0
  -13.5287   14.1116  -39.8501 H   0  0  0  0  0  0  0  0  0  0  0  0
   -9.9237   12.7606  -36.3632 H   0  0  0  0  0  0  0  0  0  0  0  0
  -10.2578   12.6990  -38.1086 H   0  0  0  0  0  0  0  0  0  0  0  0
   -8.8866   11.8092  -37.4115 H   0  0  0  0  0  0  0  0  0  0  0  0
   -7.2670   14.7894  -39.0982 H   0  0  0  0  0  0  0  0  0  0  0  0
   -8.6820   13.9671  -39.7314 H   0  0  0  0  0  0  0  0  0  0  0  0
   -7.3235   13.0127  -39.0963 H   0  0  0  0  0  0  0  0  0  0  0  0
   -6.8345   14.8925  -36.6218 H   0  0  0  0  0  0  0  0  0  0  0  0
   -7.9253   14.0839  -35.4756 H   0  0  0  0  0  0  0  0  0  0  0  0
   -6.8335   13.1407  -36.5151 H   0  0  0  0  0  0  0  0  0  0  0  0
  -12.0751   13.3148  -37.9446 H   0  0  0  0  0  0  0  0  0  0  0  0
  1  7  1  0  0  0  0
  1 13  2  0  0  0  0
  1 14  1  0  0  0  0
  2  4  1  0  0  0  0
  2  6  1  0  0  0  0
  3  5  1  0  0  0  0
  3  6  1  0  0  0  0
  4  7  1  0  0  0  0
  5  7  1  0  0  0  0
  6 12  1  0  0  0  0
  7 12  1  0  0  0  0
  8 11  1  0  0  0  0
  9 11  1  0  0  0  0
 10 11  1  0  0  0  0
 11 14  1  0  0  0  0
  2 15  1  0  0  0  0
  2 16  1  0  0  0  0
  3 17  1  0  0  0  0
  3 18  1  0  0  0  0
  4 19  1  0  0  0  0
  4 20  1  0  0  0  0
  5 21  1  0  0  0  0
  5 22  1  0  0  0  0
  6 23  1  0  0  0  0
  8 24  1  0  0  0  0
  8 25  1  0  0  0  0
  8 26  1  0  0  0  0
  9 27  1  0  0  0  0
  9 28  1  0  0  0  0
  9 29  1  0  0  0  0
 10 30  1  0  0  0  0
 10 31  1  0  0  0  0
 10 32  1  0  0  0  0
 12 33  1  0  0  0  0
M  END
> <id>
EN300-906320

> <smiles>
CC(C)(C)OC(=O)C1(CCC2CC1)N2

> <MDLNUMBER>
MFCD20667775

> <IUPAC Name>
tert-butyl 7-azabicyclo[2.2.1]heptane-1-carboxylate

> <CAS>
182137-45-7

> <URL>
https://www.enaminestore.com/catalog/EN300-906320

> <ROCS_ShapeQuery>
_x1247relevant_x1083L0AP1_x1305L0BP1_

> <ROCS_TanimotoCombo>
0.819 

> <ROCS_ShapeTanimoto>
0.459 

> <ROCS_ColorTanimoto>
0.360 

> <ROCS_RefTversky>
0.394 

> <ROCS_RefColorTversky>
0.401 

> <ROCS_RefTverskyCombo>
0.795 

> <ROCS_FitTversky>
1.552 

> <ROCS_FitColorTversky>
0.780 

> <ROCS_FitTverskyCombo>
2.333 

> <ROCS_ColorScore>
-8.522

> <ROCS_Overlap>
1159.880

> <ROCS_Rank>
462                 

$$$$
untitled-dbase-81229_0
  -OEChem-06232314393D

 37 39  0     1  0  0  0  0  0999 V2000
   -8.8864   15.8099  -35.7735 C   0  0  0  0  0  0  0  0  0  0  0  0
  -14.0966   15.1397  -37.5297 C   0  0  0  0  0  0  0  0  0  0  0  0
  -12.8443   15.0588  -36.6394 C   0  0  0  0  0  0  0  0  0  0  0  0
   -9.9266   14.7164  -35.4434 C   0  0  0  0  0  0  0  0  0  0  0  0
   -8.9433   15.3371  -37.2433 C   0  0  0  0  0  0  0  0  0  0  0  0
  -12.4638   14.1787  -39.2456 C   0  0  0  0  0  0  0  0  0  0  0  0
  -13.7146   15.0843  -39.0156 C   0  0  2  0  0  0  0  0  0  0  0  0
  -11.5600   15.6037  -37.3052 C   0  0  2  0  0  0  0  0  0  0  0  0
  -11.6481   15.4495  -38.8375 C   0  0  2  0  0  0  0  0  0  0  0  0
  -10.3530   14.7710  -36.9331 C   0  0  0  0  0  0  0  0  0  0  0  0
  -12.8138   16.2847  -39.5156 C   0  0  0  0  0  0  0  0  0  0  0  0
  -12.7079   16.4229  -41.0472 C   0  0  0  0  0  0  0  0  0  0  0  0
  -13.1106   17.6756  -38.9431 C   0  0  0  0  0  0  0  0  0  0  0  0
  -10.4211   13.4020  -37.4423 N   0  0  0  0  0  0  0  0  0  0  0  0
   -9.2552   16.8310  -35.6232 H   0  0  0  0  0  0  0  0  0  0  0  0
   -7.9170   15.7068  -35.2794 H   0  0  0  0  0  0  0  0  0  0  0  0
  -14.7593   14.3008  -37.2853 H   0  0  0  0  0  0  0  0  0  0  0  0
  -14.6662   16.0501  -37.3146 H   0  0  0  0  0  0  0  0  0  0  0  0
  -13.0218   15.5705  -35.6860 H   0  0  0  0  0  0  0  0  0  0  0  0
  -12.6953   14.0044  -36.3682 H   0  0  0  0  0  0  0  0  0  0  0  0
   -9.4656   13.7770  -35.1151 H   0  0  0  0  0  0  0  0  0  0  0  0
  -10.6851   15.0047  -34.7104 H   0  0  0  0  0  0  0  0  0  0  0  0
   -8.8946   16.1356  -37.9887 H   0  0  0  0  0  0  0  0  0  0  0  0
   -8.1741   14.5922  -37.4804 H   0  0  0  0  0  0  0  0  0  0  0  0
  -12.3747   13.2917  -38.6111 H   0  0  0  0  0  0  0  0  0  0  0  0
  -12.3146   13.8369  -40.2753 H   0  0  0  0  0  0  0  0  0  0  0  0
  -14.5763   14.8634  -39.6543 H   0  0  0  0  0  0  0  0  0  0  0  0
  -11.3842   16.6474  -37.0254 H   0  0  0  0  0  0  0  0  0  0  0  0
  -10.6836   15.5685  -39.3454 H   0  0  0  0  0  0  0  0  0  0  0  0
  -12.0731   17.2691  -41.2842 H   0  0  0  0  0  0  0  0  0  0  0  0
  -13.6984   16.5798  -41.4587 H   0  0  0  0  0  0  0  0  0  0  0  0
  -12.2790   15.5153  -41.4566 H   0  0  0  0  0  0  0  0  0  0  0  0
  -12.4213   18.3991  -39.3703 H   0  0  0  0  0  0  0  0  0  0  0  0
  -12.9910   17.6569  -37.8630 H   0  0  0  0  0  0  0  0  0  0  0  0
  -14.1305   17.9595  -39.1888 H   0  0  0  0  0  0  0  0  0  0  0  0
   -9.5224   12.9899  -37.3505 H   0  0  0  0  0  0  0  0  0  0  0  0
  -11.0911   12.9031  -36.9054 H   0  0  0  0  0  0  0  0  0  0  0  0
  1  4  1  0  0  0  0
  1  5  1  0  0  0  0
  2  3  1  0  0  0  0
  2  7  1  0  0  0  0
  3  8  1  0  0  0  0
  4 10  1  0  0  0  0
  5 10  1  0  0  0  0
  6  7  1  0  0  0  0
  6  9  1  0  0  0  0
  7 11  1  0  0  0  0
  8  9  1  0  0  0  0
  8 10  1  0  0  0  0
  9 11  1  0  0  0  0
 10 14  1  0  0  0  0
 11 12  1  0  0  0  0
 11 13  1  0  0  0  0
  1 15  1  0  0  0  0
  1 16  1  0  0  0  0
  2 17  1  0  0  0  0
  2 18  1  0  0  0  0
  3 19  1  0  0  0  0
  3 20  1  0  0  0  0
  4 21  1  0  0  0  0
  4 22  1  0  0  0  0
  5 23  1  0  0  0  0
  5 24  1  0  0  0  0
  6 25  1  0  0  0  0
  6 26  1  0  0  0  0
  7 27  1  0  0  0  0
  8 28  1  0  0  0  0
  9 29  1  0  0  0  0
 12 30  1  0  0  0  0
 12 31  1  0  0  0  0
 12 32  1  0  0  0  0
 13 33  1  0  0  0  0
 13 34  1  0  0  0  0
 13 35  1  0  0  0  0
 14 36  1  0  0  0  0
 14 37  1  0  0  0  0
M  END
> <id>
EN300-1810131

> <smiles>
CC1(C)C2CC1C(CC2)C3(N)CCC3

> <IUPAC Name>
1-{6,6-dimethylbicyclo[3.1.1]heptan-2-yl}cyclobutan-1-amine

> <CAS>
2229462-51-3

> <URL>
https://www.enaminestore.com/catalog/EN300-1810131

> <ROCS_ShapeQuery>
_x1247relevant_x1083L0AP1_x1305L0BP1_

> <ROCS_TanimotoCombo>
0.819 

> <ROCS_ShapeTanimoto>
0.489 

> <ROCS_ColorTanimoto>
0.330 

> <ROCS_RefTversky>
0.410 

> <ROCS_RefColorTversky>
0.372 

> <ROCS_RefTverskyCombo>
0.782 

> <ROCS_FitTversky>
1.647 

> <ROCS_FitColorTversky>
0.742 

> <ROCS_FitTverskyCombo>
2.390 

> <ROCS_ColorScore>
-7.916

> <ROCS_Overlap>
1206.120

> <ROCS_Rank>
463                 

$$$$
untitled-dbase-137768_2
  -OEChem-06232314393D

 29 31  0     1  0  0  0  0  0999 V2000
   -9.9838   15.2266  -36.6063 C   0  0  0  0  0  0  0  0  0  0  0  0
  -14.0888   14.6012  -37.7915 C   0  0  0  0  0  0  0  0  0  0  0  0
  -11.7151   13.7980  -37.6937 C   0  0  0  0  0  0  0  0  0  0  0  0
  -12.3316   16.0226  -36.7033 C   0  0  0  0  0  0  0  0  0  0  0  0
  -12.7127   14.4963  -39.8875 C   0  0  0  0  0  0  0  0  0  0  0  0
  -13.3306   16.7225  -38.8964 C   0  0  0  0  0  0  0  0  0  0  0  0
  -10.9504   15.9212  -38.8001 C   0  0  0  0  0  0  0  0  0  0  0  0
  -13.0003   13.8116  -38.5391 C   0  0  2  0  0  0  0  0  0  0  0  0
  -13.6198   16.0454  -37.5442 C   0  0  1  0  0  0  0  0  0  0  0  0
  -11.2302   15.2399  -37.4445 C   0  0  0  0  0  0  0  0  0  0  0  0
  -12.2357   15.9425  -39.6506 C   0  0  0  0  0  0  0  0  0  0  0  0
   -8.9027   15.6819  -36.9489 O   0  0  0  0  0  0  0  0  0  0  0  0
  -10.2180   14.6350  -35.4095 O   0  0  0  0  0  0  0  0  0  0  0  0
  -11.9067   16.7321  -41.2194 Cl  0  0  0  0  0  0  0  0  0  0  0  0
  -15.0171   14.6041  -38.3759 H   0  0  0  0  0  0  0  0  0  0  0  0
  -14.3157   14.1127  -36.8359 H   0  0  0  0  0  0  0  0  0  0  0  0
  -11.9028   13.2863  -36.7405 H   0  0  0  0  0  0  0  0  0  0  0  0
  -10.9363   13.2173  -38.2052 H   0  0  0  0  0  0  0  0  0  0  0  0
  -12.0001   17.0494  -36.4997 H   0  0  0  0  0  0  0  0  0  0  0  0
  -12.5325   15.5662  -35.7250 H   0  0  0  0  0  0  0  0  0  0  0  0
  -11.9518   13.9243  -40.4343 H   0  0  0  0  0  0  0  0  0  0  0  0
  -13.6208   14.4865  -40.5044 H   0  0  0  0  0  0  0  0  0  0  0  0
  -14.2525   16.7630  -39.4911 H   0  0  0  0  0  0  0  0  0  0  0  0
  -13.0164   17.7606  -38.7272 H   0  0  0  0  0  0  0  0  0  0  0  0
  -10.5822   16.9438  -38.6384 H   0  0  0  0  0  0  0  0  0  0  0  0
  -10.1479   15.3876  -39.3279 H   0  0  0  0  0  0  0  0  0  0  0  0
  -13.3405   12.7843  -38.7111 H   0  0  0  0  0  0  0  0  0  0  0  0
  -14.3995   16.6015  -37.0118 H   0  0  0  0  0  0  0  0  0  0  0  0
   -9.4143   14.6147  -34.8473 H   0  0  0  0  0  0  0  0  0  0  0  0
  1 10  1  0  0  0  0
  1 12  2  0  0  0  0
  1 13  1  0  0  0  0
  2  8  1  0  0  0  0
  2  9  1  0  0  0  0
  3  8  1  0  0  0  0
  3 10  1  0  0  0  0
  4  9  1  0  0  0  0
  4 10  1  0  0  0  0
  5  8  1  0  0  0  0
  5 11  1  0  0  0  0
  6  9  1  0  0  0  0
  6 11  1  0  0  0  0
  7 10  1  0  0  0  0
  7 11  1  0  0  0  0
 11 14  1  0  0  0  0
  2 15  1  0  0  0  0
  2 16  1  0  0  0  0
  3 17  1  0  0  0  0
  3 18  1  0  0  0  0
  4 19  1  0  0  0  0
  4 20  1  0  0  0  0
  5 21  1  0  0  0  0
  5 22  1  0  0  0  0
  6 23  1  0  0  0  0
  6 24  1  0  0  0  0
  7 25  1  0  0  0  0
  7 26  1  0  0  0  0
  8 27  1  0  0  0  0
  9 28  1  0  0  0  0
 13 29  1  0  0  0  0
M  END
> <id>
EN300-00092

> <smiles>
OC(=O)C1(CC2CC3CC(Cl)(C2)C1)C3

> <IUPAC Name>
3-chloroadamantane-1-carboxylic acid

> <CAS>
34859-74-0

> <Purity>
95

> <URL>
https://www.enaminestore.com/catalog/EN300-00092

> <ROCS_ShapeQuery>
_x1247relevant_x1083L0AP1_x1305L0BP1_

> <ROCS_TanimotoCombo>
0.819 

> <ROCS_ShapeTanimoto>
0.499 

> <ROCS_ColorTanimoto>
0.320 

> <ROCS_RefTversky>
0.417 

> <ROCS_RefColorTversky>
0.358 

> <ROCS_RefTverskyCombo>
0.775 

> <ROCS_FitTversky>
1.644 

> <ROCS_FitColorTversky>
0.752 

> <ROCS_FitTverskyCombo>
2.396 

> <ROCS_ColorScore>
-7.594

> <ROCS_Overlap>
1227.340

> <ROCS_Rank>
464                 

$$$$
untitled-dbase-175385_0
  -OEChem-06232314393D

 19 21  0     1  0  0  0  0  0999 V2000
  -12.7285   16.0176  -39.4982 C   0  0  0  0  0  0  0  0  0  0  0  0
  -10.4251   15.3070  -36.6374 C   0  0  0  0  0  0  0  0  0  0  0  0
  -12.0965   13.8894  -38.7150 C   0  0  0  0  0  0  0  0  0  0  0  0
  -11.4847   15.3113  -38.9608 C   0  0  2  0  0  0  0  0  0  0  0  0
  -13.6995   15.6954  -38.4207 C   0  0  1  0  0  0  0  0  0  0  0  0
  -11.4507   15.9297  -37.5222 C   0  0  1  0  0  0  0  0  0  0  0  0
  -13.2807   14.3513  -37.8878 C   0  0  2  0  0  0  0  0  0  0  0  0
  -12.8846   15.5878  -37.1557 C   0  0  2  0  0  0  0  0  0  0  0  0
  -12.9208   16.6683  -40.5024 O   0  0  0  0  0  0  0  0  0  0  0  0
  -10.6676   14.6558  -35.6321 O   0  0  0  0  0  0  0  0  0  0  0  0
   -9.1763   15.5630  -37.0981 O   0  0  0  0  0  0  0  0  0  0  0  0
  -12.4206   13.4084  -39.6435 H   0  0  0  0  0  0  0  0  0  0  0  0
  -11.4316   13.2261  -38.1556 H   0  0  0  0  0  0  0  0  0  0  0  0
  -10.5865   15.3715  -39.5710 H   0  0  0  0  0  0  0  0  0  0  0  0
  -14.7249   16.0187  -38.4138 H   0  0  0  0  0  0  0  0  0  0  0  0
  -11.2953   17.0141  -37.5499 H   0  0  0  0  0  0  0  0  0  0  0  0
  -13.9808   13.6370  -37.5026 H   0  0  0  0  0  0  0  0  0  0  0  0
  -13.2795   15.8631  -36.1974 H   0  0  0  0  0  0  0  0  0  0  0  0
   -8.4860   15.1627  -36.5275 H   0  0  0  0  0  0  0  0  0  0  0  0
  1  4  1  0  0  0  0
  1  5  1  0  0  0  0
  1  9  2  0  0  0  0
  2  6  1  1  0  0  0
  2 10  2  0  0  0  0
  2 11  1  0  0  0  0
  3  4  1  1  0  0  0
  3  7  1  0  0  0  0
  4  6  1  0  0  0  0
  5  7  1  1  0  0  0
  5  8  1  0  0  0  0
  6  8  1  0  0  0  0
  7  8  1  0  0  0  0
  3 12  1  0  0  0  0
  3 13  1  0  0  0  0
  4 14  1  0  0  0  0
  5 15  1  0  0  0  0
  6 16  1  0  0  0  0
  7 17  1  0  0  0  0
  8 18  1  0  0  0  0
 11 19  1  0  0  0  0
M  END
> <id>
EN300-44825923

> <smiles>
OC(=O)[C@@H]1C2C3C[C@H]1C(=O)[C@@H]32 |&1:3,7,10,r|

> <IUPAC Name>
rac-(3R,4R,6S)-5-oxotricyclo[2.2.1.0,2,6]heptane-3-carboxylic acid

> <Purity>
95

> <URL>
https://www.enaminestore.com/catalog/EN300-44825923

> <ROCS_ShapeQuery>
_x1247relevant_x1083L0AP1_x1305L0BP1_

> <ROCS_TanimotoCombo>
0.818 

> <ROCS_ShapeTanimoto>
0.453 

> <ROCS_ColorTanimoto>
0.365 

> <ROCS_RefTversky>
0.380 

> <ROCS_RefColorTversky>
0.646 

> <ROCS_RefTverskyCombo>
1.026 

> <ROCS_FitTversky>
1.744 

> <ROCS_FitColorTversky>
0.457 

> <ROCS_FitTverskyCombo>
2.201 

> <ROCS_ColorScore>
-14.451

> <ROCS_Overlap>
1114.789

> <ROCS_Rank>
465                 

$$$$
untitled-dbase-69569_5
  -OEChem-06232314393D

 28 30  0     1  0  0  0  0  0999 V2000
   -9.3387   15.5189  -36.6503 C   0  0  0  0  0  0  0  0  0  0  0  0
  -14.4329   15.4968  -38.7530 C   0  0  0  0  0  0  0  0  0  0  0  0
  -13.4509   16.4788  -39.4101 C   0  0  0  0  0  0  0  0  0  0  0  0
  -11.7121   13.5982  -36.6282 C   0  0  0  0  0  0  0  0  0  0  0  0
  -10.2001   14.9800  -37.7492 C   0  0  2  0  0  0  0  0  0  0  0  0
  -13.2796   14.5217  -38.4940 C   0  0  1  0  0  0  0  0  0  0  0  0
  -12.3109   15.4765  -39.1905 C   0  0  2  0  0  0  0  0  0  0  0  0
  -12.5508   14.7538  -37.1554 C   0  0  2  0  0  0  0  0  0  0  0  0
  -11.5495   15.6809  -37.8643 C   0  0  1  0  0  0  0  0  0  0  0  0
   -9.3057   15.9476  -34.3267 C   0  0  0  0  0  0  0  0  0  0  0  0
  -10.4708   13.5743  -37.4148 N   0  0  0  0  0  0  0  0  0  0  0  0
   -8.2019   15.9405  -36.8149 O   0  0  0  0  0  0  0  0  0  0  0  0
  -10.0172   15.4610  -35.4691 O   0  0  0  0  0  0  0  0  0  0  0  0
  -14.9417   15.8784  -37.8624 H   0  0  0  0  0  0  0  0  0  0  0  0
  -15.1892   15.1075  -39.4430 H   0  0  0  0  0  0  0  0  0  0  0  0
  -13.6680   16.6784  -40.4648 H   0  0  0  0  0  0  0  0  0  0  0  0
  -13.3460   17.4376  -38.8925 H   0  0  0  0  0  0  0  0  0  0  0  0
  -11.4683   13.7665  -35.5723 H   0  0  0  0  0  0  0  0  0  0  0  0
  -12.2381   12.6414  -36.7009 H   0  0  0  0  0  0  0  0  0  0  0  0
   -9.6246   15.0420  -38.6764 H   0  0  0  0  0  0  0  0  0  0  0  0
  -13.3597   13.5082  -38.8894 H   0  0  0  0  0  0  0  0  0  0  0  0
  -11.7770   15.1024  -40.0650 H   0  0  0  0  0  0  0  0  0  0  0  0
  -13.1651   15.2257  -36.3806 H   0  0  0  0  0  0  0  0  0  0  0  0
  -11.5403   16.7206  -37.5170 H   0  0  0  0  0  0  0  0  0  0  0  0
   -9.9355   15.8567  -33.4383 H   0  0  0  0  0  0  0  0  0  0  0  0
   -9.0306   16.9933  -34.4859 H   0  0  0  0  0  0  0  0  0  0  0  0
   -8.4003   15.3513  -34.1913 H   0  0  0  0  0  0  0  0  0  0  0  0
   -9.7080   13.1448  -36.8951 H   0  0  0  0  0  0  0  0  0  0  0  0
  1  5  1  0  0  0  0
  1 12  2  0  0  0  0
  1 13  1  0  0  0  0
  2  3  1  0  0  0  0
  2  6  1  0  0  0  0
  3  7  1  0  0  0  0
  4  8  1  0  0  0  0
  4 11  1  0  0  0  0
  5  9  1  0  0  0  0
  5 11  1  0  0  0  0
  6  7  1  0  0  0  0
  6  8  1  0  0  0  0
  7  9  1  0  0  0  0
  8  9  1  0  0  0  0
 10 13  1  0  0  0  0
  2 14  1  0  0  0  0
  2 15  1  0  0  0  0
  3 16  1  0  0  0  0
  3 17  1  0  0  0  0
  4 18  1  0  0  0  0
  4 19  1  0  0  0  0
  5 20  1  0  0  0  0
  6 21  1  0  0  0  0
  7 22  1  0  0  0  0
  8 23  1  0  0  0  0
  9 24  1  0  0  0  0
 10 25  1  0  0  0  0
 10 26  1  0  0  0  0
 10 27  1  0  0  0  0
 11 28  1  0  0  0  0
M  END
> <id>
EN300-37419434

> <smiles>
COC(=O)C1NCC2C3CCC3C21

> <IUPAC Name>
methyl 8-azatricyclo[4.3.0.0,2,5]nonane-7-carboxylate

> <URL>
https://www.enaminestore.com/catalog/EN300-37419434

> <ROCS_ShapeQuery>
_x1247relevant_x1083L0AP1_x1305L0BP1_

> <ROCS_TanimotoCombo>
0.818 

> <ROCS_ShapeTanimoto>
0.463 

> <ROCS_ColorTanimoto>
0.355 

> <ROCS_RefTversky>
0.393 

> <ROCS_RefColorTversky>
0.433 

> <ROCS_RefTverskyCombo>
0.826 

> <ROCS_FitTversky>
1.627 

> <ROCS_FitColorTversky>
0.663 

> <ROCS_FitTverskyCombo>
2.290 

> <ROCS_ColorScore>
-9.288

> <ROCS_Overlap>
1155.905

> <ROCS_Rank>
466                 

$$$$
untitled-dbase-43165_5
  -OEChem-06232314393D

 24 25  0     1  0  0  0  0  0999 V2000
  -10.1910   15.3254  -36.7775 C   0  0  0  0  0  0  0  0  0  0  0  0
  -12.4662   16.4586  -39.6869 C   0  0  0  0  0  0  0  0  0  0  0  0
  -13.1621   15.1020  -39.8392 C   0  0  0  0  0  0  0  0  0  0  0  0
  -13.8274   15.0733  -37.3676 C   0  0  0  0  0  0  0  0  0  0  0  0
  -11.2224   16.3623  -38.7974 C   0  0  0  0  0  0  0  0  0  0  0  0
  -12.6656   15.8504  -36.7422 C   0  0  0  0  0  0  0  0  0  0  0  0
  -13.1974   14.3010  -38.5271 C   0  0  2  0  0  0  0  0  0  0  0  0
  -11.4485   15.4513  -37.5793 C   0  0  2  0  0  0  0  0  0  0  0  0
  -11.8108   14.1080  -38.0679 N   0  0  0  0  0  0  0  0  0  0  0  0
   -9.1296   15.8677  -37.0470 O   0  0  0  0  0  0  0  0  0  0  0  0
  -10.3861   14.5208  -35.7043 O   0  0  0  0  0  0  0  0  0  0  0  0
  -12.1993   16.8610  -40.6707 H   0  0  0  0  0  0  0  0  0  0  0  0
  -13.1697   17.1750  -39.2445 H   0  0  0  0  0  0  0  0  0  0  0  0
  -14.1811   15.2575  -40.2123 H   0  0  0  0  0  0  0  0  0  0  0  0
  -12.6338   14.5156  -40.6022 H   0  0  0  0  0  0  0  0  0  0  0  0
  -14.2381   14.3786  -36.6247 H   0  0  0  0  0  0  0  0  0  0  0  0
  -14.6377   15.7355  -37.6891 H   0  0  0  0  0  0  0  0  0  0  0  0
  -10.3857   15.9776  -39.3967 H   0  0  0  0  0  0  0  0  0  0  0  0
  -10.9257   17.3683  -38.4751 H   0  0  0  0  0  0  0  0  0  0  0  0
  -12.8513   16.9300  -36.7648 H   0  0  0  0  0  0  0  0  0  0  0  0
  -12.5559   15.5620  -35.6894 H   0  0  0  0  0  0  0  0  0  0  0  0
  -13.6978   13.3417  -38.6925 H   0  0  0  0  0  0  0  0  0  0  0  0
  -11.8222   13.4563  -37.2814 H   0  0  0  0  0  0  0  0  0  0  0  0
  -11.3060   14.1827  -35.6623 H   0  0  0  0  0  0  0  0  0  0  0  0
  1  8  1  0  0  0  0
  1 10  2  0  0  0  0
  1 11  1  0  0  0  0
  2  3  1  0  0  0  0
  2  5  1  0  0  0  0
  3  7  1  0  0  0  0
  4  6  1  0  0  0  0
  4  7  1  6  0  0  0
  5  8  1  0  0  0  0
  6  8  1  0  0  0  0
  7  9  1  0  0  0  0
  8  9  1  0  0  0  0
  2 12  1  0  0  0  0
  2 13  1  0  0  0  0
  3 14  1  0  0  0  0
  3 15  1  0  0  0  0
  4 16  1  0  0  0  0
  4 17  1  0  0  0  0
  5 18  1  0  0  0  0
  5 19  1  0  0  0  0
  6 20  1  0  0  0  0
  6 21  1  0  0  0  0
  7 22  1  0  0  0  0
  9 23  1  0  0  0  0
 11 24  1  0  0  0  0
M  END
> <id>
EN300-92075

> <smiles>
OC(=O)C1(CC[C@H]2CCC1)N2

> <MDLNUMBER>
MFCD20441775

> <IUPAC Name>
(5R)-8-azabicyclo[3.2.1]octane-1-carboxylic acid

> <CAS>
1354973-32-2

> <URL>
https://www.enaminestore.com/catalog/EN300-92075

> <ROCS_ShapeQuery>
_x1247relevant_x1083L0AP1_x1305L0BP1_

> <ROCS_TanimotoCombo>
0.818 

> <ROCS_ShapeTanimoto>
0.441 

> <ROCS_ColorTanimoto>
0.377 

> <ROCS_RefTversky>
0.370 

> <ROCS_RefColorTversky>
0.420 

> <ROCS_RefTverskyCombo>
0.791 

> <ROCS_FitTversky>
1.762 

> <ROCS_FitColorTversky>
0.787 

> <ROCS_FitTverskyCombo>
2.549 

> <ROCS_ColorScore>
-8.950

> <ROCS_Overlap>
1086.969

> <ROCS_Rank>
467                 

$$$$
untitled-dbase-94075_0
  -OEChem-06232314393D

 26 27  0     1  0  0  0  0  0999 V2000
   -9.9626   15.1976  -36.5452 C   0  0  0  0  0  0  0  0  0  0  0  0
  -14.2018   14.5576  -37.7943 C   0  0  0  0  0  0  0  0  0  0  0  0
  -13.4818   13.7679  -38.8980 C   0  0  0  0  0  0  0  0  0  0  0  0
  -12.3016   15.9569  -36.8423 C   0  0  0  0  0  0  0  0  0  0  0  0
  -11.1008   14.6406  -38.6856 C   0  0  0  0  0  0  0  0  0  0  0  0
  -11.2794   14.8571  -37.1740 C   0  0  1  0  0  0  0  0  0  0  0  0
  -13.5252   15.9399  -37.7748 C   0  0  1  0  0  0  0  0  0  0  0  0
  -12.4243   14.7323  -39.4650 C   0  0  2  0  0  0  0  0  0  0  0  0
  -13.0504   16.1048  -39.2188 C   0  0  0  0  0  0  0  0  0  0  0  0
   -9.0622   15.8159  -37.0931 O   0  0  0  0  0  0  0  0  0  0  0  0
   -9.9004   14.7223  -35.2773 O   0  0  0  0  0  0  0  0  0  0  0  0
  -14.1596   16.3236  -40.0798 O   0  0  0  0  0  0  0  0  0  0  0  0
  -15.2627   14.6590  -38.0531 H   0  0  0  0  0  0  0  0  0  0  0  0
  -14.1515   14.0499  -36.8255 H   0  0  0  0  0  0  0  0  0  0  0  0
  -13.0452   12.8376  -38.5204 H   0  0  0  0  0  0  0  0  0  0  0  0
  -14.2026   13.4954  -39.6784 H   0  0  0  0  0  0  0  0  0  0  0  0
  -12.6282   15.8428  -35.8009 H   0  0  0  0  0  0  0  0  0  0  0  0
  -11.8258   16.9449  -36.9022 H   0  0  0  0  0  0  0  0  0  0  0  0
  -10.3998   15.3803  -39.0947 H   0  0  0  0  0  0  0  0  0  0  0  0
  -10.6374   13.6604  -38.8563 H   0  0  0  0  0  0  0  0  0  0  0  0
  -11.6123   13.9166  -36.7175 H   0  0  0  0  0  0  0  0  0  0  0  0
  -14.2415   16.7141  -37.4800 H   0  0  0  0  0  0  0  0  0  0  0  0
  -12.2550   14.5344  -40.5286 H   0  0  0  0  0  0  0  0  0  0  0  0
  -12.3461   16.9340  -39.3446 H   0  0  0  0  0  0  0  0  0  0  0  0
  -10.7234   14.2540  -35.0208 H   0  0  0  0  0  0  0  0  0  0  0  0
  -13.8027   16.4208  -40.9775 H   0  0  0  0  0  0  0  0  0  0  0  0
  1  6  1  6  0  0  0
  1 10  2  0  0  0  0
  1 11  1  0  0  0  0
  2  3  1  0  0  0  0
  2  7  1  1  0  0  0
  3  8  1  1  0  0  0
  4  6  1  0  0  0  0
  4  7  1  0  0  0  0
  5  6  1  0  0  0  0
  5  8  1  0  0  0  0
  7  9  1  0  0  0  0
  8  9  1  0  0  0  0
  9 12  1  0  0  0  0
  2 13  1  0  0  0  0
  2 14  1  0  0  0  0
  3 15  1  0  0  0  0
  3 16  1  0  0  0  0
  4 17  1  0  0  0  0
  4 18  1  0  0  0  0
  5 19  1  0  0  0  0
  5 20  1  0  0  0  0
  6 21  1  0  0  0  0
  7 22  1  0  0  0  0
  8 23  1  0  0  0  0
  9 24  1  0  0  0  0
 11 25  1  0  0  0  0
 12 26  1  0  0  0  0
M  END
> <id>
EN300-7441396

> <smiles>
OC1[C@H]2CC[C@@H]1C[C@H](C2)C(=O)O

> <MDLNUMBER>
MFCD32197900

> <IUPAC Name>
(1R,3S,5S)-8-hydroxybicyclo[3.2.1]octane-3-carboxylic acid

> <Purity>
95

> <URL>
https://www.enaminestore.com/catalog/EN300-7441396

> <ROCS_ShapeQuery>
_x1247relevant_x1083L0AP1_x1305L0BP1_

> <ROCS_TanimotoCombo>
0.818 

> <ROCS_ShapeTanimoto>
0.436 

> <ROCS_ColorTanimoto>
0.382 

> <ROCS_RefTversky>
0.371 

> <ROCS_RefColorTversky>
0.424 

> <ROCS_RefTverskyCombo>
0.795 

> <ROCS_FitTversky>
1.676 

> <ROCS_FitColorTversky>
0.794 

> <ROCS_FitTverskyCombo>
2.470 

> <ROCS_ColorScore>
-9.028

> <ROCS_Overlap>
1089.437

> <ROCS_Rank>
468                 

$$$$
untitled-dbase-110320_10
  -OEChem-06232314393D

 24 25  0     1  0  0  0  0  0999 V2000
  -10.0592   15.2920  -36.6445 C   0  0  0  0  0  0  0  0  0  0  0  0
  -13.4360   14.9060  -39.3393 C   0  0  0  0  0  0  0  0  0  0  0  0
  -13.5107   14.1632  -37.9975 C   0  0  0  0  0  0  0  0  0  0  0  0
  -12.7457   16.3615  -37.5875 C   0  0  0  0  0  0  0  0  0  0  0  0
  -11.0166   15.4539  -38.9680 C   0  0  0  0  0  0  0  0  0  0  0  0
  -12.4407   16.0439  -39.0505 C   0  0  1  0  0  0  0  0  0  0  0  0
  -12.4890   14.9189  -37.1256 C   0  0  2  0  0  0  0  0  0  0  0  0
  -11.0360   14.6934  -37.6231 C   0  0  2  0  0  0  0  0  0  0  0  0
  -10.6332   13.2992  -37.7391 N   0  0  0  0  0  0  0  0  0  0  0  0
   -9.0176   15.8545  -36.9477 O   0  0  0  0  0  0  0  0  0  0  0  0
  -10.4912   15.1201  -35.3712 O   0  0  0  0  0  0  0  0  0  0  0  0
  -13.1030   14.2539  -40.1530 H   0  0  0  0  0  0  0  0  0  0  0  0
  -14.4216   15.3055  -39.6032 H   0  0  0  0  0  0  0  0  0  0  0  0
  -14.5178   14.2634  -37.5748 H   0  0  0  0  0  0  0  0  0  0  0  0
  -13.3058   13.0944  -38.0980 H   0  0  0  0  0  0  0  0  0  0  0  0
  -12.0599   17.0950  -37.1516 H   0  0  0  0  0  0  0  0  0  0  0  0
  -13.7778   16.6901  -37.4234 H   0  0  0  0  0  0  0  0  0  0  0  0
  -10.8085   14.8064  -39.8276 H   0  0  0  0  0  0  0  0  0  0  0  0
  -10.2717   16.2584  -38.9719 H   0  0  0  0  0  0  0  0  0  0  0  0
  -12.5243   16.8826  -39.7443 H   0  0  0  0  0  0  0  0  0  0  0  0
  -12.6334   14.7580  -36.0539 H   0  0  0  0  0  0  0  0  0  0  0  0
   -9.6978   13.2682  -38.0738 H   0  0  0  0  0  0  0  0  0  0  0  0
  -10.6950   12.8781  -36.8409 H   0  0  0  0  0  0  0  0  0  0  0  0
  -11.3489   14.6454  -35.3362 H   0  0  0  0  0  0  0  0  0  0  0  0
  1  8  1  0  0  0  0
  1 10  2  0  0  0  0
  1 11  1  0  0  0  0
  2  3  1  0  0  0  0
  2  6  1  0  0  0  0
  3  7  1  6  0  0  0
  4  6  1  0  0  0  0
  4  7  1  0  0  0  0
  5  6  1  6  0  0  0
  5  8  1  0  0  0  0
  7  8  1  0  0  0  0
  8  9  1  6  0  0  0
  2 12  1  0  0  0  0
  2 13  1  0  0  0  0
  3 14  1  0  0  0  0
  3 15  1  0  0  0  0
  4 16  1  0  0  0  0
  4 17  1  0  0  0  0
  5 18  1  0  0  0  0
  5 19  1  0  0  0  0
  6 20  1  0  0  0  0
  7 21  1  0  0  0  0
  9 22  1  0  0  0  0
  9 23  1  0  0  0  0
 11 24  1  0  0  0  0
M  END
> <id>
EN300-34986

> <smiles>
Cl.N[C@]1(C[C@H]2CC[C@@H]1C2)C(=O)O

> <MDLNUMBER>
MFCD08460288

> <IUPAC Name>
(1R,2S,4S)-2-aminobicyclo[2.2.1]heptane-2-carboxylic acid hydrochloride

> <CAS>
1807938-28-8

> <URL>
https://www.enaminestore.com/catalog/EN300-34986

> <Saltdate>
Cl

> <MP>
300-301

> <ROCS_ShapeQuery>
_x1247relevant_x1083L0AP1_x1305L0BP1_

> <ROCS_TanimotoCombo>
0.818 

> <ROCS_ShapeTanimoto>
0.450 

> <ROCS_ColorTanimoto>
0.369 

> <ROCS_RefTversky>
0.376 

> <ROCS_RefColorTversky>
0.419 

> <ROCS_RefTverskyCombo>
0.794 

> <ROCS_FitTversky>
1.776 

> <ROCS_FitColorTversky>
0.755 

> <ROCS_FitTverskyCombo>
2.531 

> <ROCS_ColorScore>
-8.929

> <ROCS_Overlap>
1102.989

> <ROCS_Rank>
469                 

$$$$
untitled-dbase-9704_10
  -OEChem-06232314393D

 24 25  0     1  0  0  0  0  0999 V2000
  -10.0592   15.2920  -36.6445 C   0  0  0  0  0  0  0  0  0  0  0  0
  -13.4360   14.9060  -39.3393 C   0  0  0  0  0  0  0  0  0  0  0  0
  -13.5107   14.1632  -37.9975 C   0  0  0  0  0  0  0  0  0  0  0  0
  -12.7457   16.3615  -37.5875 C   0  0  0  0  0  0  0  0  0  0  0  0
  -11.0166   15.4539  -38.9680 C   0  0  0  0  0  0  0  0  0  0  0  0
  -12.4407   16.0439  -39.0505 C   0  0  1  0  0  0  0  0  0  0  0  0
  -12.4890   14.9189  -37.1256 C   0  0  2  0  0  0  0  0  0  0  0  0
  -11.0360   14.6934  -37.6231 C   0  0  2  0  0  0  0  0  0  0  0  0
  -10.6332   13.2992  -37.7391 N   0  0  0  0  0  0  0  0  0  0  0  0
   -9.0176   15.8545  -36.9477 O   0  0  0  0  0  0  0  0  0  0  0  0
  -10.4912   15.1201  -35.3712 O   0  0  0  0  0  0  0  0  0  0  0  0
  -13.1030   14.2539  -40.1530 H   0  0  0  0  0  0  0  0  0  0  0  0
  -14.4216   15.3055  -39.6032 H   0  0  0  0  0  0  0  0  0  0  0  0
  -14.5178   14.2634  -37.5748 H   0  0  0  0  0  0  0  0  0  0  0  0
  -13.3058   13.0944  -38.0980 H   0  0  0  0  0  0  0  0  0  0  0  0
  -12.0599   17.0950  -37.1516 H   0  0  0  0  0  0  0  0  0  0  0  0
  -13.7778   16.6901  -37.4234 H   0  0  0  0  0  0  0  0  0  0  0  0
  -10.8085   14.8064  -39.8276 H   0  0  0  0  0  0  0  0  0  0  0  0
  -10.2717   16.2584  -38.9719 H   0  0  0  0  0  0  0  0  0  0  0  0
  -12.5243   16.8826  -39.7443 H   0  0  0  0  0  0  0  0  0  0  0  0
  -12.6334   14.7580  -36.0539 H   0  0  0  0  0  0  0  0  0  0  0  0
   -9.6978   13.2682  -38.0738 H   0  0  0  0  0  0  0  0  0  0  0  0
  -10.6950   12.8781  -36.8409 H   0  0  0  0  0  0  0  0  0  0  0  0
  -11.3489   14.6454  -35.3362 H   0  0  0  0  0  0  0  0  0  0  0  0
  1  8  1  0  0  0  0
  1 10  2  0  0  0  0
  1 11  1  0  0  0  0
  2  3  1  0  0  0  0
  2  6  1  0  0  0  0
  3  7  1  6  0  0  0
  4  6  1  0  0  0  0
  4  7  1  0  0  0  0
  5  6  1  6  0  0  0
  5  8  1  0  0  0  0
  7  8  1  0  0  0  0
  8  9  1  6  0  0  0
  2 12  1  0  0  0  0
  2 13  1  0  0  0  0
  3 14  1  0  0  0  0
  3 15  1  0  0  0  0
  4 16  1  0  0  0  0
  4 17  1  0  0  0  0
  5 18  1  0  0  0  0
  5 19  1  0  0  0  0
  6 20  1  0  0  0  0
  7 21  1  0  0  0  0
  9 22  1  0  0  0  0
  9 23  1  0  0  0  0
 11 24  1  0  0  0  0
M  END
> <id>
EN300-57577

> <smiles>
N[C@]1(C[C@H]2CC[C@@H]1C2)C(=O)O

> <IUPAC Name>
(1R,2S,4S)-2-aminobicyclo[2.2.1]heptane-2-carboxylic acid

> <CAS>
34270-17-2

> <URL>
https://www.enaminestore.com/catalog/EN300-57577

> <ROCS_ShapeQuery>
_x1247relevant_x1083L0AP1_x1305L0BP1_

> <ROCS_TanimotoCombo>
0.818 

> <ROCS_ShapeTanimoto>
0.450 

> <ROCS_ColorTanimoto>
0.369 

> <ROCS_RefTversky>
0.376 

> <ROCS_RefColorTversky>
0.419 

> <ROCS_RefTverskyCombo>
0.794 

> <ROCS_FitTversky>
1.776 

> <ROCS_FitColorTversky>
0.755 

> <ROCS_FitTverskyCombo>
2.531 

> <ROCS_ColorScore>
-8.929

> <ROCS_Overlap>
1102.989

> <ROCS_Rank>
470                 

$$$$
untitled-dbase-118042_21
  -OEChem-06232314393D

 36 37  0     1  0  0  0  0  0999 V2000
  -10.2125   15.2252  -36.8679 C   0  0  0  0  0  0  0  0  0  0  0  0
  -12.4028   16.3091  -39.8804 C   0  0  0  0  0  0  0  0  0  0  0  0
  -13.7503   16.2370  -39.1509 C   0  0  0  0  0  0  0  0  0  0  0  0
  -11.2023   16.2689  -38.9258 C   0  0  0  0  0  0  0  0  0  0  0  0
  -12.6702   15.7297  -36.9654 C   0  0  0  0  0  0  0  0  0  0  0  0
  -13.2168   13.8842  -38.3273 C   0  0  0  0  0  0  0  0  0  0  0  0
  -13.7380   15.2733  -37.9479 C   0  0  2  0  0  0  0  0  0  0  0  0
  -11.4258   15.3177  -37.7368 C   0  0  2  0  0  0  0  0  0  0  0  0
   -8.2938   14.6904  -34.8359 C   0  0  0  0  0  0  0  0  0  0  0  0
   -9.7910   12.7824  -34.1823 C   0  0  0  0  0  0  0  0  0  0  0  0
   -8.7356   12.8200  -36.4611 C   0  0  0  0  0  0  0  0  0  0  0  0
   -9.3167   13.6693  -35.3315 C   0  0  0  0  0  0  0  0  0  0  0  0
  -11.7505   13.9507  -38.1825 N   0  0  0  0  0  0  0  0  0  0  0  0
   -9.1711   15.8322  -37.0784 O   0  0  0  0  0  0  0  0  0  0  0  0
  -10.4577   14.3736  -35.8317 O   0  0  0  0  0  0  0  0  0  0  0  0
  -12.3301   15.4594  -40.5715 H   0  0  0  0  0  0  0  0  0  0  0  0
  -12.3591   17.2092  -40.5043 H   0  0  0  0  0  0  0  0  0  0  0  0
  -14.0185   17.2410  -38.7983 H   0  0  0  0  0  0  0  0  0  0  0  0
  -14.5288   15.9359  -39.8617 H   0  0  0  0  0  0  0  0  0  0  0  0
  -10.3020   15.9893  -39.4879 H   0  0  0  0  0  0  0  0  0  0  0  0
  -11.0193   17.2832  -38.5461 H   0  0  0  0  0  0  0  0  0  0  0  0
  -12.7125   16.8036  -36.7521 H   0  0  0  0  0  0  0  0  0  0  0  0
  -12.7575   15.1959  -36.0098 H   0  0  0  0  0  0  0  0  0  0  0  0
  -13.6099   13.1349  -37.6299 H   0  0  0  0  0  0  0  0  0  0  0  0
  -13.5048   13.5829  -39.3392 H   0  0  0  0  0  0  0  0  0  0  0  0
  -14.7291   15.2309  -37.4859 H   0  0  0  0  0  0  0  0  0  0  0  0
   -7.9509   15.3289  -35.6579 H   0  0  0  0  0  0  0  0  0  0  0  0
   -8.7095   15.3290  -34.0497 H   0  0  0  0  0  0  0  0  0  0  0  0
   -7.4023   14.1904  -34.4403 H   0  0  0  0  0  0  0  0  0  0  0  0
  -10.5251   12.0483  -34.5333 H   0  0  0  0  0  0  0  0  0  0  0  0
  -10.2940   13.3778  -33.4118 H   0  0  0  0  0  0  0  0  0  0  0  0
   -8.9586   12.2450  -33.7166 H   0  0  0  0  0  0  0  0  0  0  0  0
   -9.4692   12.0875  -36.8167 H   0  0  0  0  0  0  0  0  0  0  0  0
   -8.4238   13.4370  -37.3101 H   0  0  0  0  0  0  0  0  0  0  0  0
   -7.8700   12.2459  -36.1112 H   0  0  0  0  0  0  0  0  0  0  0  0
  -11.4785   13.2778  -37.4647 H   0  0  0  0  0  0  0  0  0  0  0  0
  1  8  1  6  0  0  0
  1 14  2  0  0  0  0
  1 15  1  0  0  0  0
  2  3  1  0  0  0  0
  2  4  1  0  0  0  0
  3  7  1  0  0  0  0
  4  8  1  0  0  0  0
  5  7  1  0  0  0  0
  5  8  1  0  0  0  0
  6  7  1  1  0  0  0
  6 13  1  0  0  0  0
  8 13  1  0  0  0  0
  9 12  1  0  0  0  0
 10 12  1  0  0  0  0
 11 12  1  0  0  0  0
 12 15  1  0  0  0  0
  2 16  1  0  0  0  0
  2 17  1  0  0  0  0
  3 18  1  0  0  0  0
  3 19  1  0  0  0  0
  4 20  1  0  0  0  0
  4 21  1  0  0  0  0
  5 22  1  0  0  0  0
  5 23  1  0  0  0  0
  6 24  1  0  0  0  0
  6 25  1  0  0  0  0
  7 26  1  0  0  0  0
  9 27  1  0  0  0  0
  9 28  1  0  0  0  0
  9 29  1  0  0  0  0
 10 30  1  0  0  0  0
 10 31  1  0  0  0  0
 10 32  1  0  0  0  0
 11 33  1  0  0  0  0
 11 34  1  0  0  0  0
 11 35  1  0  0  0  0
 13 36  1  0  0  0  0
M  END
> <id>
EN300-6508175

> <smiles>
CC(C)(C)OC(=O)[C@@]1(C[C@@H]2CN1)CCC2

> <MDLNUMBER>
MFCD28389793

> <IUPAC Name>
tert-butyl (1R,5S)-6-azabicyclo[3.2.1]octane-5-carboxylate

> <CAS>
2166237-00-7

> <URL>
https://www.enaminestore.com/catalog/EN300-6508175

> <ROCS_ShapeQuery>
_x1247relevant_x1083L0AP1_x1305L0BP1_

> <ROCS_TanimotoCombo>
0.818 

> <ROCS_ShapeTanimoto>
0.485 

> <ROCS_ColorTanimoto>
0.333 

> <ROCS_RefTversky>
0.413 

> <ROCS_RefColorTversky>
0.373 

> <ROCS_RefTverskyCombo>
0.786 

> <ROCS_FitTversky>
1.555 

> <ROCS_FitColorTversky>
0.759 

> <ROCS_FitTverskyCombo>
2.314 

> <ROCS_ColorScore>
-7.917

> <ROCS_Overlap>
1216.619

> <ROCS_Rank>
471                 

$$$$
untitled-dbase-158034_21
  -OEChem-06232314393D

 36 37  0     1  0  0  0  0  0999 V2000
  -10.2125   15.2252  -36.8679 C   0  0  0  0  0  0  0  0  0  0  0  0
  -12.4028   16.3092  -39.8804 C   0  0  0  0  0  0  0  0  0  0  0  0
  -13.7503   16.2370  -39.1508 C   0  0  0  0  0  0  0  0  0  0  0  0
  -11.2023   16.2690  -38.9258 C   0  0  0  0  0  0  0  0  0  0  0  0
  -12.6702   15.7297  -36.9654 C   0  0  0  0  0  0  0  0  0  0  0  0
  -13.2168   13.8842  -38.3273 C   0  0  0  0  0  0  0  0  0  0  0  0
  -13.7380   15.2733  -37.9479 C   0  0  2  0  0  0  0  0  0  0  0  0
  -11.4258   15.3177  -37.7368 C   0  0  2  0  0  0  0  0  0  0  0  0
   -8.2937   14.6903  -34.8360 C   0  0  0  0  0  0  0  0  0  0  0  0
   -9.7908   12.7823  -34.1824 C   0  0  0  0  0  0  0  0  0  0  0  0
   -8.7355   12.8200  -36.4612 C   0  0  0  0  0  0  0  0  0  0  0  0
   -9.3166   13.6692  -35.3316 C   0  0  0  0  0  0  0  0  0  0  0  0
  -11.7506   13.9507  -38.1825 N   0  0  0  0  0  0  0  0  0  0  0  0
   -9.1711   15.8322  -37.0784 O   0  0  0  0  0  0  0  0  0  0  0  0
  -10.4576   14.3735  -35.8318 O   0  0  0  0  0  0  0  0  0  0  0  0
  -12.3303   15.4591  -40.5709 H   0  0  0  0  0  0  0  0  0  0  0  0
  -12.3591   17.2087  -40.5050 H   0  0  0  0  0  0  0  0  0  0  0  0
  -14.0186   17.2410  -38.7986 H   0  0  0  0  0  0  0  0  0  0  0  0
  -14.5285   15.9356  -39.8619 H   0  0  0  0  0  0  0  0  0  0  0  0
  -10.3017   15.9897  -39.4875 H   0  0  0  0  0  0  0  0  0  0  0  0
  -11.0196   17.2832  -38.5457 H   0  0  0  0  0  0  0  0  0  0  0  0
  -12.7126   16.8036  -36.7523 H   0  0  0  0  0  0  0  0  0  0  0  0
  -12.7570   15.1962  -36.0096 H   0  0  0  0  0  0  0  0  0  0  0  0
  -13.6099   13.1349  -37.6300 H   0  0  0  0  0  0  0  0  0  0  0  0
  -13.5042   13.5828  -39.3394 H   0  0  0  0  0  0  0  0  0  0  0  0
  -14.7292   15.2308  -37.4859 H   0  0  0  0  0  0  0  0  0  0  0  0
   -7.9509   15.3289  -35.6580 H   0  0  0  0  0  0  0  0  0  0  0  0
   -8.7095   15.3289  -34.0498 H   0  0  0  0  0  0  0  0  0  0  0  0
   -7.4022   14.1904  -34.4404 H   0  0  0  0  0  0  0  0  0  0  0  0
  -10.5249   12.0481  -34.5335 H   0  0  0  0  0  0  0  0  0  0  0  0
  -10.2939   13.3776  -33.4119 H   0  0  0  0  0  0  0  0  0  0  0  0
   -8.9584   12.2448  -33.7168 H   0  0  0  0  0  0  0  0  0  0  0  0
   -9.4691   12.0875  -36.8169 H   0  0  0  0  0  0  0  0  0  0  0  0
   -8.4237   13.4370  -37.3102 H   0  0  0  0  0  0  0  0  0  0  0  0
   -7.8699   12.2459  -36.1114 H   0  0  0  0  0  0  0  0  0  0  0  0
  -11.4790   13.2781  -37.4642 H   0  0  0  0  0  0  0  0  0  0  0  0
  1  8  1  0  0  0  0
  1 14  2  0  0  0  0
  1 15  1  0  0  0  0
  2  3  1  0  0  0  0
  2  4  1  0  0  0  0
  3  7  1  0  0  0  0
  4  8  1  0  0  0  0
  5  7  1  0  0  0  0
  5  8  1  0  0  0  0
  6  7  1  0  0  0  0
  6 13  1  0  0  0  0
  8 13  1  0  0  0  0
  9 12  1  0  0  0  0
 10 12  1  0  0  0  0
 11 12  1  0  0  0  0
 12 15  1  0  0  0  0
  2 16  1  0  0  0  0
  2 17  1  0  0  0  0
  3 18  1  0  0  0  0
  3 19  1  0  0  0  0
  4 20  1  0  0  0  0
  4 21  1  0  0  0  0
  5 22  1  0  0  0  0
  5 23  1  0  0  0  0
  6 24  1  0  0  0  0
  6 25  1  0  0  0  0
  7 26  1  0  0  0  0
  9 27  1  0  0  0  0
  9 28  1  0  0  0  0
  9 29  1  0  0  0  0
 10 30  1  0  0  0  0
 10 31  1  0  0  0  0
 10 32  1  0  0  0  0
 11 33  1  0  0  0  0
 11 34  1  0  0  0  0
 11 35  1  0  0  0  0
 13 36  1  0  0  0  0
M  END
> <id>
EN300-19456159

> <smiles>
CC(C)(C)OC(=O)C1(CC2CN1)CCC2

> <MDLNUMBER>
MFCD28389668

> <IUPAC Name>
tert-butyl 6-azabicyclo[3.2.1]octane-5-carboxylate

> <CAS>
1987411-91-5

> <URL>
https://www.enaminestore.com/catalog/EN300-19456159

> <ROCS_ShapeQuery>
_x1247relevant_x1083L0AP1_x1305L0BP1_

> <ROCS_TanimotoCombo>
0.818 

> <ROCS_ShapeTanimoto>
0.485 

> <ROCS_ColorTanimoto>
0.333 

> <ROCS_RefTversky>
0.413 

> <ROCS_RefColorTversky>
0.373 

> <ROCS_RefTverskyCombo>
0.786 

> <ROCS_FitTversky>
1.555 

> <ROCS_FitColorTversky>
0.759 

> <ROCS_FitTverskyCombo>
2.314 

> <ROCS_ColorScore>
-7.917

> <ROCS_Overlap>
1216.616

> <ROCS_Rank>
472                 

$$$$
untitled-dbase-20978_10
  -OEChem-06232314393D

 24 25  0     1  0  0  0  0  0999 V2000
  -10.0634   15.2933  -36.6460 C   0  0  0  0  0  0  0  0  0  0  0  0
  -13.4312   14.8939  -39.3358 C   0  0  0  0  0  0  0  0  0  0  0  0
  -13.4941   14.1532  -37.9918 C   0  0  0  0  0  0  0  0  0  0  0  0
  -12.7492   16.3656  -37.5937 C   0  0  0  0  0  0  0  0  0  0  0  0
  -11.0149   15.4591  -38.9639 C   0  0  0  0  0  0  0  0  0  0  0  0
  -12.4426   16.0387  -39.0547 C   0  0  1  0  0  0  0  0  0  0  0  0
  -12.4870   14.9301  -37.1205 C   0  0  2  0  0  0  0  0  0  0  0  0
  -11.0432   14.6969  -37.6248 C   0  0  2  0  0  0  0  0  0  0  0  0
  -10.6365   13.3032  -37.7404 N   0  0  0  0  0  0  0  0  0  0  0  0
   -9.0197   15.8516  -36.9498 O   0  0  0  0  0  0  0  0  0  0  0  0
  -10.4960   15.1245  -35.3726 O   0  0  0  0  0  0  0  0  0  0  0  0
  -13.0974   14.2421  -40.1493 H   0  0  0  0  0  0  0  0  0  0  0  0
  -14.4212   15.2852  -39.5954 H   0  0  0  0  0  0  0  0  0  0  0  0
  -14.5029   14.2417  -37.5703 H   0  0  0  0  0  0  0  0  0  0  0  0
  -13.2784   13.0863  -38.0883 H   0  0  0  0  0  0  0  0  0  0  0  0
  -12.0669   17.1058  -37.1638 H   0  0  0  0  0  0  0  0  0  0  0  0
  -13.7830   16.6896  -37.4314 H   0  0  0  0  0  0  0  0  0  0  0  0
  -10.7975   14.8150  -39.8239 H   0  0  0  0  0  0  0  0  0  0  0  0
  -10.2754   16.2686  -38.9621 H   0  0  0  0  0  0  0  0  0  0  0  0
  -12.5300   16.8724  -39.7541 H   0  0  0  0  0  0  0  0  0  0  0  0
  -12.6309   14.7729  -36.0484 H   0  0  0  0  0  0  0  0  0  0  0  0
   -9.7015   13.2751  -38.0758 H   0  0  0  0  0  0  0  0  0  0  0  0
  -10.6965   12.8829  -36.8419 H   0  0  0  0  0  0  0  0  0  0  0  0
  -11.3555   14.6530  -35.3371 H   0  0  0  0  0  0  0  0  0  0  0  0
  1  8  1  0  0  0  0
  1 10  2  0  0  0  0
  1 11  1  0  0  0  0
  2  3  1  0  0  0  0
  2  6  1  0  0  0  0
  3  7  1  0  0  0  0
  4  6  1  0  0  0  0
  4  7  1  0  0  0  0
  5  6  1  0  0  0  0
  5  8  1  0  0  0  0
  7  8  1  0  0  0  0
  8  9  1  0  0  0  0
  2 12  1  0  0  0  0
  2 13  1  0  0  0  0
  3 14  1  0  0  0  0
  3 15  1  0  0  0  0
  4 16  1  0  0  0  0
  4 17  1  0  0  0  0
  5 18  1  0  0  0  0
  5 19  1  0  0  0  0
  6 20  1  0  0  0  0
  7 21  1  0  0  0  0
  9 22  1  0  0  0  0
  9 23  1  0  0  0  0
 11 24  1  0  0  0  0
M  END
> <id>
EN300-295511

> <smiles>
Cl.NC1(CC2CCC1C2)C(=O)O

> <MDLNUMBER>
MFCD30180454

> <IUPAC Name>
2-aminobicyclo[2.2.1]heptane-2-carboxylic acid hydrochloride

> <CAS>
1955506-00-9

> <Purity>
95

> <URL>
https://www.enaminestore.com/catalog/EN300-295511

> <Saltdate>
Cl

> <ROCS_ShapeQuery>
_x1247relevant_x1083L0AP1_x1305L0BP1_

> <ROCS_TanimotoCombo>
0.818 

> <ROCS_ShapeTanimoto>
0.450 

> <ROCS_ColorTanimoto>
0.368 

> <ROCS_RefTversky>
0.376 

> <ROCS_RefColorTversky>
0.419 

> <ROCS_RefTverskyCombo>
0.794 

> <ROCS_FitTversky>
1.775 

> <ROCS_FitColorTversky>
0.754 

> <ROCS_FitTverskyCombo>
2.529 

> <ROCS_ColorScore>
-8.925

> <ROCS_Overlap>
1103.284

> <ROCS_Rank>
473                 

$$$$
untitled-dbase-21350_10
  -OEChem-06232314393D

 24 25  0     1  0  0  0  0  0999 V2000
  -10.0634   15.2933  -36.6460 C   0  0  0  0  0  0  0  0  0  0  0  0
  -13.4312   14.8939  -39.3358 C   0  0  0  0  0  0  0  0  0  0  0  0
  -13.4941   14.1532  -37.9918 C   0  0  0  0  0  0  0  0  0  0  0  0
  -12.7492   16.3656  -37.5937 C   0  0  0  0  0  0  0  0  0  0  0  0
  -11.0149   15.4591  -38.9639 C   0  0  0  0  0  0  0  0  0  0  0  0
  -12.4426   16.0387  -39.0547 C   0  0  1  0  0  0  0  0  0  0  0  0
  -12.4870   14.9301  -37.1205 C   0  0  2  0  0  0  0  0  0  0  0  0
  -11.0432   14.6969  -37.6248 C   0  0  2  0  0  0  0  0  0  0  0  0
  -10.6365   13.3032  -37.7404 N   0  0  0  0  0  0  0  0  0  0  0  0
   -9.0197   15.8516  -36.9498 O   0  0  0  0  0  0  0  0  0  0  0  0
  -10.4960   15.1245  -35.3726 O   0  0  0  0  0  0  0  0  0  0  0  0
  -13.0974   14.2421  -40.1493 H   0  0  0  0  0  0  0  0  0  0  0  0
  -14.4212   15.2852  -39.5954 H   0  0  0  0  0  0  0  0  0  0  0  0
  -14.5029   14.2417  -37.5703 H   0  0  0  0  0  0  0  0  0  0  0  0
  -13.2784   13.0863  -38.0883 H   0  0  0  0  0  0  0  0  0  0  0  0
  -12.0669   17.1058  -37.1638 H   0  0  0  0  0  0  0  0  0  0  0  0
  -13.7830   16.6896  -37.4314 H   0  0  0  0  0  0  0  0  0  0  0  0
  -10.7975   14.8150  -39.8239 H   0  0  0  0  0  0  0  0  0  0  0  0
  -10.2754   16.2686  -38.9621 H   0  0  0  0  0  0  0  0  0  0  0  0
  -12.5300   16.8724  -39.7541 H   0  0  0  0  0  0  0  0  0  0  0  0
  -12.6309   14.7729  -36.0484 H   0  0  0  0  0  0  0  0  0  0  0  0
   -9.7015   13.2751  -38.0758 H   0  0  0  0  0  0  0  0  0  0  0  0
  -10.6965   12.8829  -36.8419 H   0  0  0  0  0  0  0  0  0  0  0  0
  -11.3555   14.6530  -35.3371 H   0  0  0  0  0  0  0  0  0  0  0  0
  1  8  1  0  0  0  0
  1 10  2  0  0  0  0
  1 11  1  0  0  0  0
  2  3  1  0  0  0  0
  2  6  1  0  0  0  0
  3  7  1  0  0  0  0
  4  6  1  0  0  0  0
  4  7  1  0  0  0  0
  5  6  1  0  0  0  0
  5  8  1  0  0  0  0
  7  8  1  0  0  0  0
  8  9  1  0  0  0  0
  2 12  1  0  0  0  0
  2 13  1  0  0  0  0
  3 14  1  0  0  0  0
  3 15  1  0  0  0  0
  4 16  1  0  0  0  0
  4 17  1  0  0  0  0
  5 18  1  0  0  0  0
  5 19  1  0  0  0  0
  6 20  1  0  0  0  0
  7 21  1  0  0  0  0
  9 22  1  0  0  0  0
  9 23  1  0  0  0  0
 11 24  1  0  0  0  0
M  END
> <id>
EN300-29540

> <smiles>
NC1(CC2CCC1C2)C(=O)O

> <IUPAC Name>
2-aminobicyclo[2.2.1]heptane-2-carboxylic acid

> <CAS>
20448-79-7

> <URL>
https://www.enaminestore.com/catalog/EN300-29540

> <ROCS_ShapeQuery>
_x1247relevant_x1083L0AP1_x1305L0BP1_

> <ROCS_TanimotoCombo>
0.818 

> <ROCS_ShapeTanimoto>
0.450 

> <ROCS_ColorTanimoto>
0.368 

> <ROCS_RefTversky>
0.376 

> <ROCS_RefColorTversky>
0.419 

> <ROCS_RefTverskyCombo>
0.794 

> <ROCS_FitTversky>
1.775 

> <ROCS_FitColorTversky>
0.754 

> <ROCS_FitTverskyCombo>
2.529 

> <ROCS_ColorScore>
-8.925

> <ROCS_Overlap>
1103.284

> <ROCS_Rank>
474                 

$$$$
untitled-dbase-97099_5
  -OEChem-06232314393D

 32 33  0     1  0  0  0  0  0999 V2000
  -12.3990   15.9375  -39.5885 C   0  0  0  0  0  0  0  0  0  0  0  0
  -10.3971   15.0784  -36.6321 C   0  0  0  0  0  0  0  0  0  0  0  0
  -11.2526   16.2927  -38.6748 C   0  0  0  0  0  0  0  0  0  0  0  0
  -13.9655   15.4543  -37.8202 C   0  0  0  0  0  0  0  0  0  0  0  0
  -12.8360   15.7702  -36.8135 C   0  0  0  0  0  0  0  0  0  0  0  0
  -13.2104   14.7907  -38.9972 C   0  0  2  0  0  0  0  0  0  0  0  0
  -11.5616   15.2777  -37.5470 C   0  0  2  0  0  0  0  0  0  0  0  0
  -12.0605   14.0028  -38.2995 C   0  0  0  0  0  0  0  0  0  0  0  0
  -14.0935   14.0278  -39.9579 C   0  0  0  0  0  0  0  0  0  0  0  0
  -12.5327   12.8621  -37.3731 C   0  0  0  0  0  0  0  0  0  0  0  0
  -11.0488   13.3746  -39.2842 C   0  0  0  0  0  0  0  0  0  0  0  0
  -12.6357   16.5658  -40.6881 N   0  0  0  0  0  0  0  0  0  0  0  0
  -10.3840   14.3310  -35.6654 O   0  0  0  0  0  0  0  0  0  0  0  0
   -9.3482   15.8452  -37.0182 O   0  0  0  0  0  0  0  0  0  0  0  0
  -13.7581   15.9935  -41.2911 O   0  0  0  0  0  0  0  0  0  0  0  0
  -10.2919   16.1191  -39.1667 H   0  0  0  0  0  0  0  0  0  0  0  0
  -11.3155   17.3348  -38.3498 H   0  0  0  0  0  0  0  0  0  0  0  0
  -14.7069   14.7840  -37.3725 H   0  0  0  0  0  0  0  0  0  0  0  0
  -14.4846   16.3708  -38.1243 H   0  0  0  0  0  0  0  0  0  0  0  0
  -12.7951   16.8407  -36.5821 H   0  0  0  0  0  0  0  0  0  0  0  0
  -12.9964   15.2469  -35.8642 H   0  0  0  0  0  0  0  0  0  0  0  0
  -14.6302   13.2297  -39.4362 H   0  0  0  0  0  0  0  0  0  0  0  0
  -13.4949   13.5761  -40.7547 H   0  0  0  0  0  0  0  0  0  0  0  0
  -14.8297   14.6950  -40.4164 H   0  0  0  0  0  0  0  0  0  0  0  0
  -11.6660   12.3786  -36.9387 H   0  0  0  0  0  0  0  0  0  0  0  0
  -13.1011   12.1470  -37.9556 H   0  0  0  0  0  0  0  0  0  0  0  0
  -13.1549   13.2782  -36.5899 H   0  0  0  0  0  0  0  0  0  0  0  0
  -10.2887   12.8496  -38.7194 H   0  0  0  0  0  0  0  0  0  0  0  0
  -10.5954   14.1628  -39.8721 H   0  0  0  0  0  0  0  0  0  0  0  0
  -11.5727   12.6832  -39.9323 H   0  0  0  0  0  0  0  0  0  0  0  0
   -8.5731   15.7298  -36.4281 H   0  0  0  0  0  0  0  0  0  0  0  0
  -13.8444   16.5330  -42.0953 H   0  0  0  0  0  0  0  0  0  0  0  0
  1  3  1  0  0  0  0
  1  6  1  0  0  0  0
  1 12  2  3  0  0  0
  2  7  1  0  0  0  0
  2 13  2  0  0  0  0
  2 14  1  0  0  0  0
  3  7  1  0  0  0  0
  4  5  1  0  0  0  0
  4  6  1  0  0  0  0
  5  7  1  0  0  0  0
  6  8  1  0  0  0  0
  6  9  1  0  0  0  0
  7  8  1  0  0  0  0
  8 10  1  0  0  0  0
  8 11  1  0  0  0  0
 12 15  1  0  0  0  0
  3 16  1  0  0  0  0
  3 17  1  0  0  0  0
  4 18  1  0  0  0  0
  4 19  1  0  0  0  0
  5 20  1  0  0  0  0
  5 21  1  0  0  0  0
  9 22  1  0  0  0  0
  9 23  1  0  0  0  0
  9 24  1  0  0  0  0
 10 25  1  0  0  0  0
 10 26  1  0  0  0  0
 10 27  1  0  0  0  0
 11 28  1  0  0  0  0
 11 29  1  0  0  0  0
 11 30  1  0  0  0  0
 14 31  1  0  0  0  0
 15 32  1  0  0  0  0
M  END
> <id>
EN300-236414

> <smiles>
CC1(C)C2(C)CCC1(CC2=NO)C(=O)O

> <IUPAC Name>
3-(hydroxyimino)-4,7,7-trimethylbicyclo[2.2.1]heptane-1-carboxylic acid

> <CAS>
100055-50-3

> <URL>
https://www.enaminestore.com/catalog/EN300-236414

> <ROCS_ShapeQuery>
_x1247relevant_x1083L0AP1_x1305L0BP1_

> <ROCS_TanimotoCombo>
0.818 

> <ROCS_ShapeTanimoto>
0.511 

> <ROCS_ColorTanimoto>
0.307 

> <ROCS_RefTversky>
0.429 

> <ROCS_RefColorTversky>
0.376 

> <ROCS_RefTverskyCombo>
0.805 

> <ROCS_FitTversky>
1.592 

> <ROCS_FitColorTversky>
0.626 

> <ROCS_FitTverskyCombo>
2.218 

> <ROCS_ColorScore>
-8.028

> <ROCS_Overlap>
1264.383

> <ROCS_Rank>
475                 

$$$$
untitled-dbase-45258_4
  -OEChem-06232314393D

 46 48  0     1  0  0  0  0  0999 V2000
  -13.5156   15.9446  -37.1906 C   0  0  0  0  0  0  0  0  0  0  0  0
  -13.4278   13.8068  -38.4106 C   0  0  0  0  0  0  0  0  0  0  0  0
  -13.1883   16.7192  -38.4756 C   0  0  0  0  0  0  0  0  0  0  0  0
  -13.2896   14.6427  -39.6922 C   0  0  0  0  0  0  0  0  0  0  0  0
   -9.5488   13.4329  -36.4404 C   0  0  0  0  0  0  0  0  0  0  0  0
  -11.1679   15.4695  -38.9177 C   0  0  0  0  0  0  0  0  0  0  0  0
  -12.7939   14.5791  -37.2356 C   0  0  0  0  0  0  0  0  0  0  0  0
   -9.4668   15.9085  -36.1716 C   0  0  1  0  0  0  0  0  0  0  0  0
   -8.6064   14.6457  -36.4394 C   0  0  0  0  0  0  0  0  0  0  0  0
  -11.2691   14.8257  -37.5023 C   0  0  1  0  0  0  0  0  0  0  0  0
   -7.5751   14.4759  -35.3032 C   0  0  0  0  0  0  0  0  0  0  0  0
   -7.8105   14.7096  -37.7617 C   0  0  0  0  0  0  0  0  0  0  0  0
   -9.8855   18.3712  -36.4185 C   0  0  0  0  0  0  0  0  0  0  0  0
   -7.5398   17.5170  -36.1511 C   0  0  0  0  0  0  0  0  0  0  0  0
   -8.9247   17.2241  -36.7239 C   0  0  0  0  0  0  0  0  0  0  0  0
  -10.5397   13.5472  -37.5008 N   0  0  0  0  0  0  0  0  0  0  0  0
  -12.4919   15.8662  -39.4614 N   0  0  0  0  0  0  0  0  0  0  0  0
  -10.8513   15.7694  -36.5009 O   0  0  0  0  0  0  0  0  0  0  0  0
  -13.2127   16.5232  -36.3124 H   0  0  0  0  0  0  0  0  0  0  0  0
  -14.5977   15.7899  -37.1120 H   0  0  0  0  0  0  0  0  0  0  0  0
  -14.4867   13.6116  -38.2061 H   0  0  0  0  0  0  0  0  0  0  0  0
  -12.9395   12.8348  -38.5363 H   0  0  0  0  0  0  0  0  0  0  0  0
  -14.1107   17.1169  -38.9149 H   0  0  0  0  0  0  0  0  0  0  0  0
  -12.5703   17.5946  -38.2422 H   0  0  0  0  0  0  0  0  0  0  0  0
  -12.8284   14.0397  -40.4834 H   0  0  0  0  0  0  0  0  0  0  0  0
  -14.2819   14.9153  -40.0716 H   0  0  0  0  0  0  0  0  0  0  0  0
   -8.9845   12.5058  -36.5894 H   0  0  0  0  0  0  0  0  0  0  0  0
  -10.0529   13.3260  -35.4740 H   0  0  0  0  0  0  0  0  0  0  0  0
  -10.5126   16.3525  -38.8993 H   0  0  0  0  0  0  0  0  0  0  0  0
  -10.7051   14.7881  -39.6474 H   0  0  0  0  0  0  0  0  0  0  0  0
  -12.9734   14.0475  -36.2939 H   0  0  0  0  0  0  0  0  0  0  0  0
   -9.4401   16.0735  -35.0195 H   0  0  0  0  0  0  0  0  0  0  0  0
   -6.9068   15.3300  -35.2980 H   0  0  0  0  0  0  0  0  0  0  0  0
   -7.0073   13.5672  -35.4704 H   0  0  0  0  0  0  0  0  0  0  0  0
   -8.0972   14.4130  -34.3547 H   0  0  0  0  0  0  0  0  0  0  0  0
   -7.1547   15.5712  -37.7367 H   0  0  0  0  0  0  0  0  0  0  0  0
   -8.5060   14.7981  -38.5872 H   0  0  0  0  0  0  0  0  0  0  0  0
   -7.2267   13.8031  -37.8653 H   0  0  0  0  0  0  0  0  0  0  0  0
  -10.0117   18.5087  -35.3390 H   0  0  0  0  0  0  0  0  0  0  0  0
  -10.8721   18.1779  -36.8527 H   0  0  0  0  0  0  0  0  0  0  0  0
   -9.5135   19.3118  -36.8383 H   0  0  0  0  0  0  0  0  0  0  0  0
   -7.5730   17.6206  -35.0612 H   0  0  0  0  0  0  0  0  0  0  0  0
   -7.1354   18.4456  -36.5676 H   0  0  0  0  0  0  0  0  0  0  0  0
   -6.8406   16.7095  -36.3932 H   0  0  0  0  0  0  0  0  0  0  0  0
   -8.8348   17.1302  -37.8130 H   0  0  0  0  0  0  0  0  0  0  0  0
  -10.0713   13.4297  -38.4064 H   0  0  0  0  0  0  0  0  0  0  0  0
  1  3  1  0  0  0  0
  1  7  1  0  0  0  0
  2  4  1  0  0  0  0
  2  7  1  0  0  0  0
  3 17  1  0  0  0  0
  4 17  1  0  0  0  0
  5  9  1  0  0  0  0
  5 16  1  0  0  0  0
  6 10  1  0  0  0  0
  6 17  1  0  0  0  0
  7 10  1  0  0  0  0
  8  9  1  0  0  0  0
  8 15  1  0  0  0  0
  8 18  1  0  0  0  0
  9 11  1  0  0  0  0
  9 12  1  0  0  0  0
 10 16  1  0  0  0  0
 10 18  1  0  0  0  0
 13 15  1  0  0  0  0
 14 15  1  0  0  0  0
  1 19  1  0  0  0  0
  1 20  1  0  0  0  0
  2 21  1  0  0  0  0
  2 22  1  0  0  0  0
  3 23  1  0  0  0  0
  3 24  1  0  0  0  0
  4 25  1  0  0  0  0
  4 26  1  0  0  0  0
  5 27  1  0  0  0  0
  5 28  1  0  0  0  0
  6 29  1  0  0  0  0
  6 30  1  0  0  0  0
  7 31  1  0  0  0  0
  8 32  1  0  0  0  0
 11 33  1  0  0  0  0
 11 34  1  0  0  0  0
 11 35  1  0  0  0  0
 12 36  1  0  0  0  0
 12 37  1  0  0  0  0
 12 38  1  0  0  0  0
 13 39  1  0  0  0  0
 13 40  1  0  0  0  0
 13 41  1  0  0  0  0
 14 42  1  0  0  0  0
 14 43  1  0  0  0  0
 14 44  1  0  0  0  0
 15 45  1  0  0  0  0
 16 46  1  0  0  0  0
M  END
> <id>
EN300-1279099

> <smiles>
CC(C)C1OC2(CN3CCC2CC3)NCC1(C)C

> <IUPAC Name>
5',5'-dimethyl-6'-(propan-2-yl)-4-azaspiro[bicyclo[2.2.2]octane-2,2'-[1,3]oxazinane]

> <CAS>
2172266-72-5

> <URL>
https://www.enaminestore.com/catalog/EN300-1279099

> <ROCS_ShapeQuery>
_x1247relevant_x1083L0AP1_x1305L0BP1_

> <ROCS_TanimotoCombo>
0.818 

> <ROCS_ShapeTanimoto>
0.483 

> <ROCS_ColorTanimoto>
0.334 

> <ROCS_RefTversky>
0.426 

> <ROCS_RefColorTversky>
0.409 

> <ROCS_RefTverskyCombo>
0.835 

> <ROCS_FitTversky>
1.384 

> <ROCS_FitColorTversky>
0.647 

> <ROCS_FitTverskyCombo>
2.031 

> <ROCS_ColorScore>
-8.747

> <ROCS_Overlap>
1257.962

> <ROCS_Rank>
476                 

$$$$
untitled-dbase-91452_6
  -OEChem-06232314393D

 26 28  0     1  0  0  0  0  0999 V2000
   -9.7164   14.2573  -36.0207 C   0  0  0  0  0  0  0  0  0  0  0  0
   -9.0885   15.1622  -36.9001 C   0  0  0  0  0  0  0  0  0  0  0  0
  -11.0497   13.8827  -36.2038 C   0  0  0  0  0  0  0  0  0  0  0  0
   -9.7795   15.7136  -37.9829 C   0  0  0  0  0  0  0  0  0  0  0  0
  -11.7173   14.4262  -37.2799 C   0  0  0  0  0  0  0  0  0  0  0  0
  -11.0921   15.3310  -38.1608 C   0  0  0  0  0  0  0  0  0  0  0  0
  -11.6493   16.2529  -40.4702 C   0  0  0  0  0  0  0  0  0  0  0  0
  -13.8811   15.5943  -37.4802 C   0  0  0  0  0  0  0  0  0  0  0  0
  -13.1928   16.5981  -38.4493 C   0  0  0  0  0  0  0  0  0  0  0  0
  -12.8932   14.3832  -39.2677 C   0  0  0  0  0  0  0  0  0  0  0  0
  -13.1434   14.2665  -37.7529 C   0  0  1  0  0  0  0  0  0  0  0  0
  -12.1433   15.7277  -39.1725 C   0  0  2  0  0  0  0  0  0  0  0  0
  -10.5947   15.9358  -41.0000 O   0  0  0  0  0  0  0  0  0  0  0  0
  -12.5296   17.1409  -40.9936 O   0  0  0  0  0  0  0  0  0  0  0  0
   -9.1535   13.8492  -35.1851 H   0  0  0  0  0  0  0  0  0  0  0  0
   -8.0513   15.4387  -36.7285 H   0  0  0  0  0  0  0  0  0  0  0  0
  -11.5348   13.1933  -35.5230 H   0  0  0  0  0  0  0  0  0  0  0  0
   -9.2944   16.4175  -38.6490 H   0  0  0  0  0  0  0  0  0  0  0  0
  -13.7954   15.9201  -36.4379 H   0  0  0  0  0  0  0  0  0  0  0  0
  -14.9444   15.5073  -37.7305 H   0  0  0  0  0  0  0  0  0  0  0  0
  -13.9273   17.0136  -39.1492 H   0  0  0  0  0  0  0  0  0  0  0  0
  -12.7414   17.4332  -37.9012 H   0  0  0  0  0  0  0  0  0  0  0  0
  -12.2769   13.5686  -39.6719 H   0  0  0  0  0  0  0  0  0  0  0  0
  -13.8171   14.4448  -39.8552 H   0  0  0  0  0  0  0  0  0  0  0  0
  -13.6452   13.3562  -37.4229 H   0  0  0  0  0  0  0  0  0  0  0  0
  -12.2199   17.5014  -41.8517 H   0  0  0  0  0  0  0  0  0  0  0  0
  1  2  2  0  0  0  0
  1  3  1  0  0  0  0
  2  4  1  0  0  0  0
  3  5  2  0  0  0  0
  4  6  2  0  0  0  0
  5  6  1  0  0  0  0
  5 11  1  0  0  0  0
  6 12  1  0  0  0  0
  7 12  1  0  0  0  0
  7 13  2  0  0  0  0
  7 14  1  0  0  0  0
  8  9  1  0  0  0  0
  8 11  1  0  0  0  0
  9 12  1  0  0  0  0
 10 11  1  0  0  0  0
 10 12  1  0  0  0  0
  1 15  1  0  0  0  0
  2 16  1  0  0  0  0
  3 17  1  0  0  0  0
  4 18  1  0  0  0  0
  8 19  1  0  0  0  0
  8 20  1  0  0  0  0
  9 21  1  0  0  0  0
  9 22  1  0  0  0  0
 10 23  1  0  0  0  0
 10 24  1  0  0  0  0
 11 25  1  0  0  0  0
 14 26  1  0  0  0  0
M  END
> <id>
EN300-7354809

> <smiles>
OC(=O)C1(CCC2C1)C=3C=CC=CC23

> <MDLNUMBER>
MFCD20640097

> <IUPAC Name>
tricyclo[6.2.1.0,2,7]undeca-2,4,6-triene-1-carboxylic acid

> <CAS>
13733-46-5

> <Purity>
95

> <URL>
https://www.enaminestore.com/catalog/EN300-7354809

> <MP>
93-94

> <ROCS_ShapeQuery>
_x1247relevant_x1083L0AP1_x1305L0BP1_

> <ROCS_TanimotoCombo>
0.818 

> <ROCS_ShapeTanimoto>
0.511 

> <ROCS_ColorTanimoto>
0.306 

> <ROCS_RefTversky>
0.427 

> <ROCS_RefColorTversky>
0.355 

> <ROCS_RefTverskyCombo>
0.782 

> <ROCS_FitTversky>
1.628 

> <ROCS_FitColorTversky>
0.688 

> <ROCS_FitTverskyCombo>
2.317 

> <ROCS_ColorScore>
-7.561

> <ROCS_Overlap>
1257.452

> <ROCS_Rank>
477                 

$$$$
untitled-dbase-160484_18
  -OEChem-06232314393D

 35 37  0     1  0  0  0  0  0999 V2000
  -14.5750   14.9708  -37.7637 C   0  0  0  0  0  0  0  0  0  0  0  0
  -12.4970   15.8725  -36.6858 C   0  0  0  0  0  0  0  0  0  0  0  0
  -12.4189   13.7028  -37.9530 C   0  0  0  0  0  0  0  0  0  0  0  0
  -13.4619   17.0121  -38.6993 C   0  0  0  0  0  0  0  0  0  0  0  0
  -13.3819   14.8477  -39.9642 C   0  0  0  0  0  0  0  0  0  0  0  0
  -11.3003   15.7470  -38.8911 C   0  0  0  0  0  0  0  0  0  0  0  0
  -13.8021   16.2522  -37.4081 C   0  0  1  0  0  0  0  0  0  0  0  0
  -13.7230   14.0763  -38.6801 C   0  0  2  0  0  0  0  0  0  0  0  0
  -11.6173   14.9756  -37.5897 C   0  0  0  0  0  0  0  0  0  0  0  0
  -12.6026   16.1271  -39.6183 C   0  0  0  0  0  0  0  0  0  0  0  0
   -9.2129   15.5933  -37.1615 C   0  0  0  0  0  0  0  0  0  0  0  0
  -10.3219   14.5992  -36.8659 C   0  0  2  0  0  0  0  0  0  0  0  0
   -9.9008   13.2521  -37.3121 N   0  0  0  0  0  0  0  0  0  0  0  0
  -12.3025   16.8479  -40.8049 O   0  0  0  0  0  0  0  0  0  0  0  0
  -14.8384   14.4261  -36.8487 H   0  0  0  0  0  0  0  0  0  0  0  0
  -15.5169   15.2287  -38.2634 H   0  0  0  0  0  0  0  0  0  0  0  0
  -11.9509   16.7837  -36.4096 H   0  0  0  0  0  0  0  0  0  0  0  0
  -12.7333   15.3508  -35.7494 H   0  0  0  0  0  0  0  0  0  0  0  0
  -12.6540   13.1310  -37.0461 H   0  0  0  0  0  0  0  0  0  0  0  0
  -11.8164   13.0451  -38.5928 H   0  0  0  0  0  0  0  0  0  0  0  0
  -14.3799   17.3165  -39.2186 H   0  0  0  0  0  0  0  0  0  0  0  0
  -12.9301   17.9440  -38.4672 H   0  0  0  0  0  0  0  0  0  0  0  0
  -12.7937   14.2175  -40.6439 H   0  0  0  0  0  0  0  0  0  0  0  0
  -14.2975   15.1009  -40.5142 H   0  0  0  0  0  0  0  0  0  0  0  0
  -10.7184   16.6529  -38.6742 H   0  0  0  0  0  0  0  0  0  0  0  0
  -10.6653   15.1434  -39.5538 H   0  0  0  0  0  0  0  0  0  0  0  0
  -14.4148   16.8848  -36.7565 H   0  0  0  0  0  0  0  0  0  0  0  0
  -14.2799   13.1668  -38.9311 H   0  0  0  0  0  0  0  0  0  0  0  0
   -9.0161   15.6379  -38.2382 H   0  0  0  0  0  0  0  0  0  0  0  0
   -8.2837   15.3059  -36.6587 H   0  0  0  0  0  0  0  0  0  0  0  0
   -9.4797   16.6043  -36.8337 H   0  0  0  0  0  0  0  0  0  0  0  0
  -10.5103   14.5623  -35.7905 H   0  0  0  0  0  0  0  0  0  0  0  0
   -9.0801   13.0243  -36.8143 H   0  0  0  0  0  0  0  0  0  0  0  0
  -10.6391   12.6327  -37.1016 H   0  0  0  0  0  0  0  0  0  0  0  0
  -11.7615   16.2628  -41.3599 H   0  0  0  0  0  0  0  0  0  0  0  0
  1  7  1  0  0  0  0
  1  8  1  0  0  0  0
  2  7  1  0  0  0  0
  2  9  1  0  0  0  0
  3  8  1  0  0  0  0
  3  9  1  0  0  0  0
  4  7  1  0  0  0  0
  4 10  1  0  0  0  0
  5  8  1  0  0  0  0
  5 10  1  0  0  0  0
  6  9  1  0  0  0  0
  6 10  1  0  0  0  0
  9 12  1  0  0  0  0
 10 14  1  0  0  0  0
 11 12  1  0  0  0  0
 12 13  1  0  0  0  0
  1 15  1  0  0  0  0
  1 16  1  0  0  0  0
  2 17  1  0  0  0  0
  2 18  1  0  0  0  0
  3 19  1  0  0  0  0
  3 20  1  0  0  0  0
  4 21  1  0  0  0  0
  4 22  1  0  0  0  0
  5 23  1  0  0  0  0
  5 24  1  0  0  0  0
  6 25  1  0  0  0  0
  6 26  1  0  0  0  0
  7 27  1  0  0  0  0
  8 28  1  0  0  0  0
 11 29  1  0  0  0  0
 11 30  1  0  0  0  0
 11 31  1  0  0  0  0
 12 32  1  0  0  0  0
 13 33  1  0  0  0  0
 13 34  1  0  0  0  0
 14 35  1  0  0  0  0
M  END
> <id>
EN300-297461

> <smiles>
Cl.CC(N)C1(CC2CC3CC(O)(C2)C1)C3

> <IUPAC Name>
3-(1-aminoethyl)adamantan-1-ol hydrochloride

> <CAS>
128487-57-0

> <URL>
https://www.enaminestore.com/catalog/EN300-297461

> <Saltdate>
Cl

> <ROCS_ShapeQuery>
_x1247relevant_x1083L0AP1_x1305L0BP1_

> <ROCS_TanimotoCombo>
0.818 

> <ROCS_ShapeTanimoto>
0.509 

> <ROCS_ColorTanimoto>
0.309 

> <ROCS_RefTversky>
0.423 

> <ROCS_RefColorTversky>
0.358 

> <ROCS_RefTverskyCombo>
0.781 

> <ROCS_FitTversky>
1.668 

> <ROCS_FitColorTversky>
0.691 

> <ROCS_FitTverskyCombo>
2.359 

> <ROCS_ColorScore>
-7.628

> <ROCS_Overlap>
1243.311

> <ROCS_Rank>
478                 

$$$$
untitled-dbase-21364_18
  -OEChem-06232314393D

 35 37  0     1  0  0  0  0  0999 V2000
  -14.5750   14.9708  -37.7637 C   0  0  0  0  0  0  0  0  0  0  0  0
  -12.4970   15.8725  -36.6858 C   0  0  0  0  0  0  0  0  0  0  0  0
  -12.4189   13.7028  -37.9530 C   0  0  0  0  0  0  0  0  0  0  0  0
  -13.4619   17.0121  -38.6993 C   0  0  0  0  0  0  0  0  0  0  0  0
  -13.3819   14.8477  -39.9642 C   0  0  0  0  0  0  0  0  0  0  0  0
  -11.3003   15.7470  -38.8911 C   0  0  0  0  0  0  0  0  0  0  0  0
  -13.8021   16.2522  -37.4081 C   0  0  1  0  0  0  0  0  0  0  0  0
  -13.7230   14.0763  -38.6801 C   0  0  2  0  0  0  0  0  0  0  0  0
  -11.6173   14.9756  -37.5897 C   0  0  0  0  0  0  0  0  0  0  0  0
  -12.6026   16.1271  -39.6183 C   0  0  0  0  0  0  0  0  0  0  0  0
   -9.2129   15.5933  -37.1615 C   0  0  0  0  0  0  0  0  0  0  0  0
  -10.3219   14.5992  -36.8659 C   0  0  2  0  0  0  0  0  0  0  0  0
   -9.9008   13.2521  -37.3121 N   0  0  0  0  0  0  0  0  0  0  0  0
  -12.3025   16.8479  -40.8049 O   0  0  0  0  0  0  0  0  0  0  0  0
  -14.8384   14.4261  -36.8487 H   0  0  0  0  0  0  0  0  0  0  0  0
  -15.5169   15.2287  -38.2634 H   0  0  0  0  0  0  0  0  0  0  0  0
  -11.9509   16.7837  -36.4096 H   0  0  0  0  0  0  0  0  0  0  0  0
  -12.7333   15.3508  -35.7494 H   0  0  0  0  0  0  0  0  0  0  0  0
  -12.6540   13.1310  -37.0461 H   0  0  0  0  0  0  0  0  0  0  0  0
  -11.8164   13.0451  -38.5928 H   0  0  0  0  0  0  0  0  0  0  0  0
  -14.3799   17.3165  -39.2186 H   0  0  0  0  0  0  0  0  0  0  0  0
  -12.9301   17.9440  -38.4672 H   0  0  0  0  0  0  0  0  0  0  0  0
  -12.7937   14.2175  -40.6439 H   0  0  0  0  0  0  0  0  0  0  0  0
  -14.2975   15.1009  -40.5142 H   0  0  0  0  0  0  0  0  0  0  0  0
  -10.7184   16.6529  -38.6742 H   0  0  0  0  0  0  0  0  0  0  0  0
  -10.6653   15.1434  -39.5538 H   0  0  0  0  0  0  0  0  0  0  0  0
  -14.4148   16.8848  -36.7565 H   0  0  0  0  0  0  0  0  0  0  0  0
  -14.2799   13.1668  -38.9311 H   0  0  0  0  0  0  0  0  0  0  0  0
   -9.0161   15.6379  -38.2382 H   0  0  0  0  0  0  0  0  0  0  0  0
   -8.2837   15.3059  -36.6587 H   0  0  0  0  0  0  0  0  0  0  0  0
   -9.4797   16.6043  -36.8337 H   0  0  0  0  0  0  0  0  0  0  0  0
  -10.5103   14.5623  -35.7905 H   0  0  0  0  0  0  0  0  0  0  0  0
   -9.0801   13.0243  -36.8143 H   0  0  0  0  0  0  0  0  0  0  0  0
  -10.6391   12.6327  -37.1016 H   0  0  0  0  0  0  0  0  0  0  0  0
  -11.7615   16.2628  -41.3599 H   0  0  0  0  0  0  0  0  0  0  0  0
  1  7  1  0  0  0  0
  1  8  1  0  0  0  0
  2  7  1  0  0  0  0
  2  9  1  0  0  0  0
  3  8  1  0  0  0  0
  3  9  1  0  0  0  0
  4  7  1  0  0  0  0
  4 10  1  0  0  0  0
  5  8  1  0  0  0  0
  5 10  1  0  0  0  0
  6  9  1  0  0  0  0
  6 10  1  0  0  0  0
  9 12  1  0  0  0  0
 10 14  1  0  0  0  0
 11 12  1  0  0  0  0
 12 13  1  0  0  0  0
  1 15  1  0  0  0  0
  1 16  1  0  0  0  0
  2 17  1  0  0  0  0
  2 18  1  0  0  0  0
  3 19  1  0  0  0  0
  3 20  1  0  0  0  0
  4 21  1  0  0  0  0
  4 22  1  0  0  0  0
  5 23  1  0  0  0  0
  5 24  1  0  0  0  0
  6 25  1  0  0  0  0
  6 26  1  0  0  0  0
  7 27  1  0  0  0  0
  8 28  1  0  0  0  0
 11 29  1  0  0  0  0
 11 30  1  0  0  0  0
 11 31  1  0  0  0  0
 12 32  1  0  0  0  0
 13 33  1  0  0  0  0
 13 34  1  0  0  0  0
 14 35  1  0  0  0  0
M  END
> <id>
EN300-297462

> <smiles>
CC(N)C1(CC2CC3CC(O)(C2)C1)C3

> <IUPAC Name>
3-(1-aminoethyl)adamantan-1-ol

> <CAS>
90812-24-1

> <URL>
https://www.enaminestore.com/catalog/EN300-297462

> <ROCS_ShapeQuery>
_x1247relevant_x1083L0AP1_x1305L0BP1_

> <ROCS_TanimotoCombo>
0.818 

> <ROCS_ShapeTanimoto>
0.509 

> <ROCS_ColorTanimoto>
0.309 

> <ROCS_RefTversky>
0.423 

> <ROCS_RefColorTversky>
0.358 

> <ROCS_RefTverskyCombo>
0.781 

> <ROCS_FitTversky>
1.668 

> <ROCS_FitColorTversky>
0.691 

> <ROCS_FitTverskyCombo>
2.359 

> <ROCS_ColorScore>
-7.628

> <ROCS_Overlap>
1243.311

> <ROCS_Rank>
479                 

$$$$
untitled-dbase-130055_9
  -OEChem-06232314393D

 25 26  0     1  0  0  0  0  0999 V2000
  -12.2265   14.9653  -37.7673 C   0  0  0  0  0  0  0  0  0  0  0  0
  -13.6281   15.5723  -39.1901 C   0  0  0  0  0  0  0  0  0  0  0  0
   -9.3737   15.0306  -35.9981 C   0  0  0  0  0  0  0  0  0  0  0  0
  -10.8138   14.7287  -35.5947 C   0  0  0  0  0  0  0  0  0  0  0  0
   -9.1773   14.3477  -37.3417 C   0  0  0  0  0  0  0  0  0  0  0  0
  -11.4528   14.0669  -36.8171 C   0  0  2  0  0  0  0  0  0  0  0  0
  -12.9127   17.9951  -39.2734 C   0  0  0  0  0  0  0  0  0  0  0  0
  -13.2523   14.4970  -38.5375 N   0  0  0  0  0  0  0  0  0  0  0  0
  -11.9440   16.2627  -37.9024 N   0  0  0  0  0  0  0  0  0  0  0  0
  -12.8546   16.6272  -38.8179 N   0  0  0  0  0  0  0  0  0  0  0  0
  -10.2980   13.4204  -37.4566 N   0  0  0  0  0  0  0  0  0  0  0  0
  -14.6069   15.7323  -40.1086 N   0  0  0  0  0  0  0  0  0  0  0  0
   -9.2372   16.1202  -36.1024 H   0  0  0  0  0  0  0  0  0  0  0  0
   -8.6515   14.6825  -35.2441 H   0  0  0  0  0  0  0  0  0  0  0  0
  -10.8127   14.0243  -34.7505 H   0  0  0  0  0  0  0  0  0  0  0  0
  -11.3235   15.6429  -35.2610 H   0  0  0  0  0  0  0  0  0  0  0  0
   -9.1586   15.0710  -38.1731 H   0  0  0  0  0  0  0  0  0  0  0  0
   -8.2231   13.7935  -37.3674 H   0  0  0  0  0  0  0  0  0  0  0  0
  -12.1465   13.2646  -36.4669 H   0  0  0  0  0  0  0  0  0  0  0  0
  -13.5988   18.5396  -38.6192 H   0  0  0  0  0  0  0  0  0  0  0  0
  -11.9128   18.4360  -39.2306 H   0  0  0  0  0  0  0  0  0  0  0  0
  -13.2698   18.0171  -40.3068 H   0  0  0  0  0  0  0  0  0  0  0  0
  -10.4909   13.2893  -38.4534 H   0  0  0  0  0  0  0  0  0  0  0  0
  -14.8305   16.6520  -40.5144 H   0  0  0  0  0  0  0  0  0  0  0  0
  -15.2365   14.9623  -40.3757 H   0  0  0  0  0  0  0  0  0  0  0  0
  1  6  1  6  0  0  0
  1  8  1  0  0  0  0
  1  9  2  0  0  0  0
  2  8  2  0  0  0  0
  2 10  1  0  0  0  0
  2 12  1  0  0  0  0
  3  4  1  0  0  0  0
  3  5  1  0  0  0  0
  4  6  1  0  0  0  0
  5 11  1  0  0  0  0
  6 11  1  0  0  0  0
  7 10  1  0  0  0  0
  9 10  1  0  0  0  0
  3 13  1  0  0  0  0
  3 14  1  0  0  0  0
  4 15  1  0  0  0  0
  4 16  1  0  0  0  0
  5 17  1  0  0  0  0
  5 18  1  0  0  0  0
  6 19  1  0  0  0  0
  7 20  1  0  0  0  0
  7 21  1  0  0  0  0
  7 22  1  0  0  0  0
 11 23  1  0  0  0  0
 12 24  1  0  0  0  0
 12 25  1  0  0  0  0
M  END
> <id>
EN300-2010244

> <smiles>
Cl.Cl.CN1N=C(N=C1N)[C@@H]2CCCN2

> <MDLNUMBER>
MFCD31667408

> <IUPAC Name>
1-methyl-3-[(2S)-pyrrolidin-2-yl]-1H-1,2,4-triazol-5-amine dihydrochloride

> <CAS>
2230789-70-3

> <Purity>
95

> <URL>
https://www.enaminestore.com/catalog/EN300-2010244

> <Saltdate>
Cl

> <ROCS_ShapeQuery>
_x1247relevant_x1083L0AP1_x1305L0BP1_

> <ROCS_TanimotoCombo>
0.818 

> <ROCS_ShapeTanimoto>
0.452 

> <ROCS_ColorTanimoto>
0.365 

> <ROCS_RefTversky>
0.382 

> <ROCS_RefColorTversky>
0.378 

> <ROCS_RefTverskyCombo>
0.760 

> <ROCS_FitTversky>
1.680 

> <ROCS_FitColorTversky>
0.918 

> <ROCS_FitTverskyCombo>
2.598 

> <ROCS_ColorScore>
-7.992

> <ROCS_Overlap>
1122.902

> <ROCS_Rank>
480                 

$$$$
untitled-dbase-79570_9
  -OEChem-06232314393D

 25 26  0     1  0  0  0  0  0999 V2000
  -12.2265   14.9653  -37.7673 C   0  0  0  0  0  0  0  0  0  0  0  0
  -13.6281   15.5723  -39.1901 C   0  0  0  0  0  0  0  0  0  0  0  0
   -9.3737   15.0306  -35.9981 C   0  0  0  0  0  0  0  0  0  0  0  0
  -10.8138   14.7287  -35.5947 C   0  0  0  0  0  0  0  0  0  0  0  0
   -9.1773   14.3477  -37.3417 C   0  0  0  0  0  0  0  0  0  0  0  0
  -11.4528   14.0669  -36.8171 C   0  0  2  0  0  0  0  0  0  0  0  0
  -12.9127   17.9951  -39.2734 C   0  0  0  0  0  0  0  0  0  0  0  0
  -13.2523   14.4970  -38.5375 N   0  0  0  0  0  0  0  0  0  0  0  0
  -11.9440   16.2627  -37.9024 N   0  0  0  0  0  0  0  0  0  0  0  0
  -12.8546   16.6272  -38.8179 N   0  0  0  0  0  0  0  0  0  0  0  0
  -10.2980   13.4204  -37.4566 N   0  0  0  0  0  0  0  0  0  0  0  0
  -14.6069   15.7323  -40.1086 N   0  0  0  0  0  0  0  0  0  0  0  0
   -9.2372   16.1202  -36.1024 H   0  0  0  0  0  0  0  0  0  0  0  0
   -8.6515   14.6825  -35.2441 H   0  0  0  0  0  0  0  0  0  0  0  0
  -10.8127   14.0243  -34.7505 H   0  0  0  0  0  0  0  0  0  0  0  0
  -11.3235   15.6429  -35.2610 H   0  0  0  0  0  0  0  0  0  0  0  0
   -9.1586   15.0710  -38.1731 H   0  0  0  0  0  0  0  0  0  0  0  0
   -8.2231   13.7935  -37.3674 H   0  0  0  0  0  0  0  0  0  0  0  0
  -12.1465   13.2646  -36.4669 H   0  0  0  0  0  0  0  0  0  0  0  0
  -13.5988   18.5396  -38.6192 H   0  0  0  0  0  0  0  0  0  0  0  0
  -11.9128   18.4360  -39.2306 H   0  0  0  0  0  0  0  0  0  0  0  0
  -13.2698   18.0171  -40.3068 H   0  0  0  0  0  0  0  0  0  0  0  0
  -10.4909   13.2893  -38.4534 H   0  0  0  0  0  0  0  0  0  0  0  0
  -14.8305   16.6520  -40.5144 H   0  0  0  0  0  0  0  0  0  0  0  0
  -15.2365   14.9623  -40.3757 H   0  0  0  0  0  0  0  0  0  0  0  0
  1  6  1  6  0  0  0
  1  8  1  0  0  0  0
  1  9  2  0  0  0  0
  2  8  2  0  0  0  0
  2 10  1  0  0  0  0
  2 12  1  0  0  0  0
  3  4  1  0  0  0  0
  3  5  1  0  0  0  0
  4  6  1  0  0  0  0
  5 11  1  0  0  0  0
  6 11  1  0  0  0  0
  7 10  1  0  0  0  0
  9 10  1  0  0  0  0
  3 13  1  0  0  0  0
  3 14  1  0  0  0  0
  4 15  1  0  0  0  0
  4 16  1  0  0  0  0
  5 17  1  0  0  0  0
  5 18  1  0  0  0  0
  6 19  1  0  0  0  0
  7 20  1  0  0  0  0
  7 21  1  0  0  0  0
  7 22  1  0  0  0  0
 11 23  1  0  0  0  0
 12 24  1  0  0  0  0
 12 25  1  0  0  0  0
M  END
> <id>
EN300-874850

> <smiles>
CN1N=C(N=C1N)[C@@H]2CCCN2

> <MDLNUMBER>
MFCD32859357

> <IUPAC Name>
1-methyl-3-[(2S)-pyrrolidin-2-yl]-1H-1,2,4-triazol-5-amine

> <CAS>
1604377-14-1

> <URL>
https://www.enaminestore.com/catalog/EN300-874850

> <ROCS_ShapeQuery>
_x1247relevant_x1083L0AP1_x1305L0BP1_

> <ROCS_TanimotoCombo>
0.818 

> <ROCS_ShapeTanimoto>
0.452 

> <ROCS_ColorTanimoto>
0.365 

> <ROCS_RefTversky>
0.382 

> <ROCS_RefColorTversky>
0.378 

> <ROCS_RefTverskyCombo>
0.760 

> <ROCS_FitTversky>
1.680 

> <ROCS_FitColorTversky>
0.918 

> <ROCS_FitTverskyCombo>
2.598 

> <ROCS_ColorScore>
-7.992

> <ROCS_Overlap>
1122.902

> <ROCS_Rank>
481                 

$$$$
untitled-dbase-166120_7
  -OEChem-06232314393D

 30 31  0     1  0  0  0  0  0999 V2000
  -12.4784   14.8847  -37.7757 C   0  0  0  0  0  0  0  0  0  0  0  0
   -9.3171   15.1430  -36.8062 C   0  0  0  0  0  0  0  0  0  0  0  0
  -10.6058   15.5430  -36.1270 C   0  0  0  0  0  0  0  0  0  0  0  0
  -10.7457   13.2707  -36.9068 C   0  0  0  0  0  0  0  0  0  0  0  0
  -11.6194   14.4822  -36.5883 C   0  0  2  0  0  0  0  0  0  0  0  0
  -16.1641   14.0624  -39.4900 C   0  0  0  0  0  0  0  0  0  0  0  0
  -14.3831   13.2074  -41.0637 C   0  0  0  0  0  0  0  0  0  0  0  0
  -15.2745   15.5137  -41.2996 C   0  0  0  0  0  0  0  0  0  0  0  0
  -14.8791   14.4325  -40.2636 C   0  0  0  0  0  0  0  0  0  0  0  0
  -12.4045   16.1120  -38.3647 N   0  0  0  0  0  0  0  0  0  0  0  0
  -13.3661   14.0619  -38.3400 N   0  0  0  0  0  0  0  0  0  0  0  0
  -13.2829   16.0935  -39.3596 N   0  0  0  0  0  0  0  0  0  0  0  0
  -13.8250   14.8688  -39.3070 N   0  0  0  0  0  0  0  0  0  0  0  0
   -9.4676   13.8347  -37.2460 N   0  0  0  0  0  0  0  0  0  0  0  0
   -8.3247   15.8477  -36.9073 O   0  0  0  0  0  0  0  0  0  0  0  0
  -10.4394   15.4968  -35.0445 H   0  0  0  0  0  0  0  0  0  0  0  0
  -10.8901   16.5604  -36.4135 H   0  0  0  0  0  0  0  0  0  0  0  0
  -10.5932   12.6312  -36.0302 H   0  0  0  0  0  0  0  0  0  0  0  0
  -11.1113   12.6623  -37.7402 H   0  0  0  0  0  0  0  0  0  0  0  0
  -12.3185   14.2317  -35.7556 H   0  0  0  0  0  0  0  0  0  0  0  0
  -16.5377   14.9161  -38.9127 H   0  0  0  0  0  0  0  0  0  0  0  0
  -16.9744   13.7491  -40.1569 H   0  0  0  0  0  0  0  0  0  0  0  0
  -15.9776   13.2399  -38.7897 H   0  0  0  0  0  0  0  0  0  0  0  0
  -13.4710   13.4230  -41.6301 H   0  0  0  0  0  0  0  0  0  0  0  0
  -14.1544   12.3668  -40.3984 H   0  0  0  0  0  0  0  0  0  0  0  0
  -15.1431   12.8718  -41.7789 H   0  0  0  0  0  0  0  0  0  0  0  0
  -14.4062   15.8283  -41.8913 H   0  0  0  0  0  0  0  0  0  0  0  0
  -16.0246   15.1408  -42.0066 H   0  0  0  0  0  0  0  0  0  0  0  0
  -15.6735   16.4117  -40.8139 H   0  0  0  0  0  0  0  0  0  0  0  0
   -8.7493   13.3287  -37.7544 H   0  0  0  0  0  0  0  0  0  0  0  0
  1  5  1  0  0  0  0
  1 10  1  0  0  0  0
  1 11  2  0  0  0  0
  2  3  1  0  0  0  0
  2 14  1  0  0  0  0
  2 15  2  0  0  0  0
  3  5  1  0  0  0  0
  4  5  1  0  0  0  0
  4 14  1  0  0  0  0
  6  9  1  0  0  0  0
  7  9  1  0  0  0  0
  8  9  1  0  0  0  0
  9 13  1  0  0  0  0
 10 12  2  0  0  0  0
 11 13  1  0  0  0  0
 12 13  1  0  0  0  0
  3 16  1  0  0  0  0
  3 17  1  0  0  0  0
  4 18  1  0  0  0  0
  4 19  1  0  0  0  0
  5 20  1  0  0  0  0
  6 21  1  0  0  0  0
  6 22  1  0  0  0  0
  6 23  1  0  0  0  0
  7 24  1  0  0  0  0
  7 25  1  0  0  0  0
  7 26  1  0  0  0  0
  8 27  1  0  0  0  0
  8 28  1  0  0  0  0
  8 29  1  0  0  0  0
 14 30  1  0  0  0  0
M  END
> <id>
EN300-1757794

> <smiles>
CC(C)(C)N1N=NC(=N1)C2CNC(=O)C2

> <IUPAC Name>
4-(2-tert-butyl-2H-1,2,3,4-tetrazol-5-yl)pyrrolidin-2-one

> <CAS>
2007329-48-6

> <URL>
https://www.enaminestore.com/catalog/EN300-1757794

> <ROCS_ShapeQuery>
_x1247relevant_x1083L0AP1_x1305L0BP1_

> <ROCS_TanimotoCombo>
0.818 

> <ROCS_ShapeTanimoto>
0.493 

> <ROCS_ColorTanimoto>
0.324 

> <ROCS_RefTversky>
0.419 

> <ROCS_RefColorTversky>
0.349 

> <ROCS_RefTverskyCombo>
0.768 

> <ROCS_FitTversky>
1.560 

> <ROCS_FitColorTversky>
0.819 

> <ROCS_FitTverskyCombo>
2.378 

> <ROCS_ColorScore>
-7.401

> <ROCS_Overlap>
1233.858

> <ROCS_Rank>
482                 

$$$$
untitled-dbase-12199_9
  -OEChem-06232314393D

 25 26  0     1  0  0  0  0  0999 V2000
  -12.2266   14.9652  -37.7675 C   0  0  0  0  0  0  0  0  0  0  0  0
  -13.6281   15.5723  -39.1902 C   0  0  0  0  0  0  0  0  0  0  0  0
   -9.3734   15.0293  -35.9970 C   0  0  0  0  0  0  0  0  0  0  0  0
  -10.8141   14.7287  -35.5946 C   0  0  0  0  0  0  0  0  0  0  0  0
   -9.1771   14.3475  -37.3411 C   0  0  0  0  0  0  0  0  0  0  0  0
  -11.4529   14.0669  -36.8172 C   0  0  2  0  0  0  0  0  0  0  0  0
  -12.9126   17.9951  -39.2736 C   0  0  0  0  0  0  0  0  0  0  0  0
  -13.2524   14.4970  -38.5375 N   0  0  0  0  0  0  0  0  0  0  0  0
  -11.9439   16.2626  -37.9026 N   0  0  0  0  0  0  0  0  0  0  0  0
  -12.8545   16.6272  -38.8181 N   0  0  0  0  0  0  0  0  0  0  0  0
  -10.2979   13.4204  -37.4566 N   0  0  0  0  0  0  0  0  0  0  0  0
  -14.6070   15.7323  -40.1086 N   0  0  0  0  0  0  0  0  0  0  0  0
   -9.2353   16.1190  -36.0999 H   0  0  0  0  0  0  0  0  0  0  0  0
   -8.6519   14.6795  -35.2429 H   0  0  0  0  0  0  0  0  0  0  0  0
  -10.8136   14.0243  -34.7503 H   0  0  0  0  0  0  0  0  0  0  0  0
  -11.3235   15.6432  -35.2611 H   0  0  0  0  0  0  0  0  0  0  0  0
   -9.1584   15.0715  -38.1719 H   0  0  0  0  0  0  0  0  0  0  0  0
   -8.2229   13.7932  -37.3673 H   0  0  0  0  0  0  0  0  0  0  0  0
  -12.1466   13.2647  -36.4670 H   0  0  0  0  0  0  0  0  0  0  0  0
  -13.5985   18.5396  -38.6194 H   0  0  0  0  0  0  0  0  0  0  0  0
  -11.9127   18.4359  -39.2309 H   0  0  0  0  0  0  0  0  0  0  0  0
  -13.2697   18.0170  -40.3070 H   0  0  0  0  0  0  0  0  0  0  0  0
  -10.4903   13.2894  -38.4534 H   0  0  0  0  0  0  0  0  0  0  0  0
  -14.8306   16.6520  -40.5144 H   0  0  0  0  0  0  0  0  0  0  0  0
  -15.2367   14.9624  -40.3756 H   0  0  0  0  0  0  0  0  0  0  0  0
  1  6  1  0  0  0  0
  1  8  1  0  0  0  0
  1  9  2  0  0  0  0
  2  8  2  0  0  0  0
  2 10  1  0  0  0  0
  2 12  1  0  0  0  0
  3  4  1  0  0  0  0
  3  5  1  0  0  0  0
  4  6  1  0  0  0  0
  5 11  1  0  0  0  0
  6 11  1  0  0  0  0
  7 10  1  0  0  0  0
  9 10  1  0  0  0  0
  3 13  1  0  0  0  0
  3 14  1  0  0  0  0
  4 15  1  0  0  0  0
  4 16  1  0  0  0  0
  5 17  1  0  0  0  0
  5 18  1  0  0  0  0
  6 19  1  0  0  0  0
  7 20  1  0  0  0  0
  7 21  1  0  0  0  0
  7 22  1  0  0  0  0
 11 23  1  0  0  0  0
 12 24  1  0  0  0  0
 12 25  1  0  0  0  0
M  END
> <id>
EN300-200607

> <smiles>
CN1N=C(N=C1N)C2CCCN2

> <MDLNUMBER>
MFCD26917310

> <IUPAC Name>
1-methyl-3-(pyrrolidin-2-yl)-1H-1,2,4-triazol-5-amine

> <CAS>
1566270-54-9

> <URL>
https://www.enaminestore.com/catalog/EN300-200607

> <ROCS_ShapeQuery>
_x1247relevant_x1083L0AP1_x1305L0BP1_

> <ROCS_TanimotoCombo>
0.817 

> <ROCS_ShapeTanimoto>
0.452 

> <ROCS_ColorTanimoto>
0.365 

> <ROCS_RefTversky>
0.382 

> <ROCS_RefColorTversky>
0.378 

> <ROCS_RefTverskyCombo>
0.760 

> <ROCS_FitTversky>
1.680 

> <ROCS_FitColorTversky>
0.918 

> <ROCS_FitTverskyCombo>
2.598 

> <ROCS_ColorScore>
-7.992

> <ROCS_Overlap>
1122.864

> <ROCS_Rank>
483                 

$$$$
untitled-dbase-12198_9
  -OEChem-06232314393D

 25 26  0     1  0  0  0  0  0999 V2000
  -12.2266   14.9652  -37.7675 C   0  0  0  0  0  0  0  0  0  0  0  0
  -13.6281   15.5723  -39.1902 C   0  0  0  0  0  0  0  0  0  0  0  0
   -9.3734   15.0293  -35.9970 C   0  0  0  0  0  0  0  0  0  0  0  0
  -10.8141   14.7287  -35.5946 C   0  0  0  0  0  0  0  0  0  0  0  0
   -9.1771   14.3475  -37.3411 C   0  0  0  0  0  0  0  0  0  0  0  0
  -11.4529   14.0669  -36.8172 C   0  0  2  0  0  0  0  0  0  0  0  0
  -12.9126   17.9951  -39.2736 C   0  0  0  0  0  0  0  0  0  0  0  0
  -13.2524   14.4970  -38.5375 N   0  0  0  0  0  0  0  0  0  0  0  0
  -11.9439   16.2626  -37.9026 N   0  0  0  0  0  0  0  0  0  0  0  0
  -12.8545   16.6272  -38.8181 N   0  0  0  0  0  0  0  0  0  0  0  0
  -10.2979   13.4204  -37.4566 N   0  0  0  0  0  0  0  0  0  0  0  0
  -14.6070   15.7323  -40.1086 N   0  0  0  0  0  0  0  0  0  0  0  0
   -9.2353   16.1190  -36.0999 H   0  0  0  0  0  0  0  0  0  0  0  0
   -8.6519   14.6795  -35.2429 H   0  0  0  0  0  0  0  0  0  0  0  0
  -10.8136   14.0243  -34.7503 H   0  0  0  0  0  0  0  0  0  0  0  0
  -11.3235   15.6432  -35.2611 H   0  0  0  0  0  0  0  0  0  0  0  0
   -9.1584   15.0715  -38.1719 H   0  0  0  0  0  0  0  0  0  0  0  0
   -8.2229   13.7932  -37.3673 H   0  0  0  0  0  0  0  0  0  0  0  0
  -12.1466   13.2647  -36.4670 H   0  0  0  0  0  0  0  0  0  0  0  0
  -13.5985   18.5396  -38.6194 H   0  0  0  0  0  0  0  0  0  0  0  0
  -11.9127   18.4359  -39.2309 H   0  0  0  0  0  0  0  0  0  0  0  0
  -13.2697   18.0170  -40.3070 H   0  0  0  0  0  0  0  0  0  0  0  0
  -10.4903   13.2894  -38.4534 H   0  0  0  0  0  0  0  0  0  0  0  0
  -14.8306   16.6520  -40.5144 H   0  0  0  0  0  0  0  0  0  0  0  0
  -15.2367   14.9624  -40.3756 H   0  0  0  0  0  0  0  0  0  0  0  0
  1  6  1  0  0  0  0
  1  8  1  0  0  0  0
  1  9  2  0  0  0  0
  2  8  2  0  0  0  0
  2 10  1  0  0  0  0
  2 12  1  0  0  0  0
  3  4  1  0  0  0  0
  3  5  1  0  0  0  0
  4  6  1  0  0  0  0
  5 11  1  0  0  0  0
  6 11  1  0  0  0  0
  7 10  1  0  0  0  0
  9 10  1  0  0  0  0
  3 13  1  0  0  0  0
  3 14  1  0  0  0  0
  4 15  1  0  0  0  0
  4 16  1  0  0  0  0
  5 17  1  0  0  0  0
  5 18  1  0  0  0  0
  6 19  1  0  0  0  0
  7 20  1  0  0  0  0
  7 21  1  0  0  0  0
  7 22  1  0  0  0  0
 11 23  1  0  0  0  0
 12 24  1  0  0  0  0
 12 25  1  0  0  0  0
M  END
> <id>
EN300-200606

> <smiles>
Cl.Cl.CN1N=C(N=C1N)C2CCCN2

> <MDLNUMBER>
MFCD28246481

> <IUPAC Name>
1-methyl-3-(pyrrolidin-2-yl)-1H-1,2,4-triazol-5-amine dihydrochloride

> <CAS>
1803610-42-5

> <URL>
https://www.enaminestore.com/catalog/EN300-200606

> <Saltdate>
Cl

> <ROCS_ShapeQuery>
_x1247relevant_x1083L0AP1_x1305L0BP1_

> <ROCS_TanimotoCombo>
0.817 

> <ROCS_ShapeTanimoto>
0.452 

> <ROCS_ColorTanimoto>
0.365 

> <ROCS_RefTversky>
0.382 

> <ROCS_RefColorTversky>
0.378 

> <ROCS_RefTverskyCombo>
0.760 

> <ROCS_FitTversky>
1.680 

> <ROCS_FitColorTversky>
0.918 

> <ROCS_FitTverskyCombo>
2.598 

> <ROCS_ColorScore>
-7.992

> <ROCS_Overlap>
1122.864

> <ROCS_Rank>
484                 

$$$$
untitled-dbase-89670_7
  -OEChem-06232314393D

 20 21  0     0  0  0  0  0  0999 V2000
  -13.5913   16.2519  -40.2093 C   0  0  0  0  0  0  0  0  0  0  0  0
  -11.3959   15.2482  -39.0390 C   0  0  0  0  0  0  0  0  0  0  0  0
  -12.5465   16.4145  -37.7435 C   0  0  0  0  0  0  0  0  0  0  0  0
  -12.7668   13.9873  -37.4377 C   0  0  0  0  0  0  0  0  0  0  0  0
  -12.9392   15.5713  -39.0170 C   0  0  0  0  0  0  0  0  0  0  0  0
  -11.7068   15.1076  -37.5049 C   0  0  0  0  0  0  0  0  0  0  0  0
  -10.6062   15.0630  -36.4885 C   0  0  0  0  0  0  0  0  0  0  0  0
  -14.7535   16.0998  -40.5552 O   0  0  0  0  0  0  0  0  0  0  0  0
  -13.6105   14.3742  -38.5355 O   0  0  0  0  0  0  0  0  0  0  0  0
  -12.7046   17.0555  -40.8459 O   0  0  0  0  0  0  0  0  0  0  0  0
   -9.8609   16.1900  -36.5261 F   0  0  0  0  0  0  0  0  0  0  0  0
  -11.1019   14.9390  -35.2372 F   0  0  0  0  0  0  0  0  0  0  0  0
   -9.7801   14.0162  -36.7093 F   0  0  0  0  0  0  0  0  0  0  0  0
  -11.1058   14.3277  -39.5543 H   0  0  0  0  0  0  0  0  0  0  0  0
  -10.7215   16.0584  -39.3380 H   0  0  0  0  0  0  0  0  0  0  0  0
  -11.9877   17.3418  -37.9125 H   0  0  0  0  0  0  0  0  0  0  0  0
  -13.3509   16.6038  -37.0264 H   0  0  0  0  0  0  0  0  0  0  0  0
  -12.3465   12.9951  -37.6254 H   0  0  0  0  0  0  0  0  0  0  0  0
  -13.3402   14.0020  -36.5064 H   0  0  0  0  0  0  0  0  0  0  0  0
  -13.1064   17.5031  -41.6208 H   0  0  0  0  0  0  0  0  0  0  0  0
  1  5  1  0  0  0  0
  1  8  2  0  0  0  0
  1 10  1  0  0  0  0
  2  5  1  0  0  0  0
  2  6  1  0  0  0  0
  3  5  1  0  0  0  0
  3  6  1  0  0  0  0
  4  6  1  0  0  0  0
  4  9  1  0  0  0  0
  5  9  1  0  0  0  0
  6  7  1  0  0  0  0
  7 11  1  0  0  0  0
  7 12  1  0  0  0  0
  7 13  1  0  0  0  0
  2 14  1  0  0  0  0
  2 15  1  0  0  0  0
  3 16  1  0  0  0  0
  3 17  1  0  0  0  0
  4 18  1  0  0  0  0
  4 19  1  0  0  0  0
 10 20  1  0  0  0  0
M  END
> <id>
EN300-6736511

> <smiles>
OC(=O)C1(CC2(C1)C(F)(F)F)OC2

> <MDLNUMBER>
MFCD31746121

> <IUPAC Name>
4-(trifluoromethyl)-2-oxabicyclo[2.1.1]hexane-1-carboxylic acid

> <CAS>
2287318-89-0

> <Purity>
95

> <URL>
https://www.enaminestore.com/catalog/EN300-6736511

> <ROCS_ShapeQuery>
_x1247relevant_x1083L0AP1_x1305L0BP1_

> <ROCS_TanimotoCombo>
0.817 

> <ROCS_ShapeTanimoto>
0.487 

> <ROCS_ColorTanimoto>
0.331 

> <ROCS_RefTversky>
0.407 

> <ROCS_RefColorTversky>
0.381 

> <ROCS_RefTverskyCombo>
0.788 

> <ROCS_FitTversky>
1.669 

> <ROCS_FitColorTversky>
0.715 

> <ROCS_FitTverskyCombo>
2.384 

> <ROCS_ColorScore>
-8.112

> <ROCS_Overlap>
1197.765

> <ROCS_Rank>
485                 

$$$$
untitled-dbase-98970_10
  -OEChem-06232314393D

 20 22  0     1  0  0  0  0  0999 V2000
  -12.3781   15.5265  -36.6485 C   0  0  0  0  0  0  0  0  0  0  0  0
  -11.1639   15.1963  -37.5572 C   0  0  2  0  0  0  0  0  0  0  0  0
  -13.5602   15.1890  -37.5670 C   0  0  1  0  0  0  0  0  0  0  0  0
  -11.8678   14.6939  -38.8340 C   0  0  2  0  0  0  0  0  0  0  0  0
  -13.6453   16.2135  -38.6693 C   0  0  1  0  0  0  0  0  0  0  0  0
  -12.4916   15.8728  -39.5397 C   0  0  2  0  0  0  0  0  0  0  0  0
  -10.2690   14.1289  -36.9380 C   0  0  0  0  0  0  0  0  0  0  0  0
  -13.0159   14.0268  -38.2447 O   0  0  0  0  0  0  0  0  0  0  0  0
  -13.8382   15.7216  -39.9990 O   0  0  0  0  0  0  0  0  0  0  0  0
  -10.1591   14.3816  -35.5488 O   0  0  0  0  0  0  0  0  0  0  0  0
  -12.3895   14.8873  -35.7588 H   0  0  0  0  0  0  0  0  0  0  0  0
  -12.3818   16.5733  -36.3285 H   0  0  0  0  0  0  0  0  0  0  0  0
  -10.5647   16.0927  -37.7555 H   0  0  0  0  0  0  0  0  0  0  0  0
  -14.5037   14.9697  -37.0634 H   0  0  0  0  0  0  0  0  0  0  0  0
  -11.2907   14.0264  -39.4777 H   0  0  0  0  0  0  0  0  0  0  0  0
  -13.8628   17.2346  -38.4086 H   0  0  0  0  0  0  0  0  0  0  0  0
  -11.8458   16.6390  -39.9320 H   0  0  0  0  0  0  0  0  0  0  0  0
   -9.2772   14.1655  -37.3897 H   0  0  0  0  0  0  0  0  0  0  0  0
  -10.7054   13.1413  -37.0904 H   0  0  0  0  0  0  0  0  0  0  0  0
  -11.0578   14.3415  -35.1797 H   0  0  0  0  0  0  0  0  0  0  0  0
  1  2  1  0  0  0  0
  1  3  1  6  0  0  0
  2  4  1  0  0  0  0
  2  7  1  1  0  0  0
  3  5  1  0  0  0  0
  3  8  1  0  0  0  0
  4  6  1  6  0  0  0
  4  8  1  0  0  0  0
  5  6  1  0  0  0  0
  5  9  1  0  0  0  0
  6  9  1  0  0  0  0
  7 10  1  0  0  0  0
  1 11  1  0  0  0  0
  1 12  1  0  0  0  0
  2 13  1  0  0  0  0
  3 14  1  0  0  0  0
  4 15  1  0  0  0  0
  5 16  1  0  0  0  0
  6 17  1  0  0  0  0
  7 18  1  0  0  0  0
  7 19  1  0  0  0  0
 10 20  1  0  0  0  0
M  END
> <id>
EN300-37334717

> <smiles>
OC[C@@H]1C[C@@H]2O[C@H]1C3OC32 |&1:2,4,6,r|

> <IUPAC Name>
rac-[(1R,5S,6R)-3,8-dioxatricyclo[3.2.1.0,2,4]octan-6-yl]methanol

> <URL>
https://www.enaminestore.com/catalog/EN300-37334717

> <ROCS_ShapeQuery>
_x1247relevant_x1083L0AP1_x1305L0BP1_

> <ROCS_TanimotoCombo>
0.817 

> <ROCS_ShapeTanimoto>
0.428 

> <ROCS_ColorTanimoto>
0.389 

> <ROCS_RefTversky>
0.360 

> <ROCS_RefColorTversky>
0.554 

> <ROCS_RefTverskyCombo>
0.915 

> <ROCS_FitTversky>
1.791 

> <ROCS_FitColorTversky>
0.566 

> <ROCS_FitTverskyCombo>
2.357 

> <ROCS_ColorScore>
-12.100

> <ROCS_Overlap>
1056.570

> <ROCS_Rank>
486                 

$$$$
untitled-dbase-170191_7
  -OEChem-06232314393D

 20 21  0     0  0  0  0  0  0999 V2000
  -13.5913   16.2520  -40.2093 C   0  0  0  0  0  0  0  0  0  0  0  0
  -11.3958   15.2481  -39.0390 C   0  0  0  0  0  0  0  0  0  0  0  0
  -12.5464   16.4144  -37.7435 C   0  0  0  0  0  0  0  0  0  0  0  0
  -12.7670   13.9873  -37.4377 C   0  0  0  0  0  0  0  0  0  0  0  0
  -12.9391   15.5714  -39.0170 C   0  0  0  0  0  0  0  0  0  0  0  0
  -11.7068   15.1075  -37.5050 C   0  0  0  0  0  0  0  0  0  0  0  0
  -10.6066   15.0636  -36.4882 C   0  0  0  0  0  0  0  0  0  0  0  0
  -14.7535   16.0998  -40.5551 O   0  0  0  0  0  0  0  0  0  0  0  0
  -13.6105   14.3742  -38.5355 O   0  0  0  0  0  0  0  0  0  0  0  0
  -12.7046   17.0555  -40.8459 O   0  0  0  0  0  0  0  0  0  0  0  0
   -9.8619   16.1910  -36.5256 F   0  0  0  0  0  0  0  0  0  0  0  0
  -11.1026   14.9395  -35.2370 F   0  0  0  0  0  0  0  0  0  0  0  0
   -9.7798   14.0172  -36.7086 F   0  0  0  0  0  0  0  0  0  0  0  0
  -11.1057   14.3276  -39.5542 H   0  0  0  0  0  0  0  0  0  0  0  0
  -10.7210   16.0580  -39.3379 H   0  0  0  0  0  0  0  0  0  0  0  0
  -11.9872   17.3415  -37.9124 H   0  0  0  0  0  0  0  0  0  0  0  0
  -13.3508   16.6033  -37.0264 H   0  0  0  0  0  0  0  0  0  0  0  0
  -12.3468   12.9950  -37.6253 H   0  0  0  0  0  0  0  0  0  0  0  0
  -13.3404   14.0024  -36.5064 H   0  0  0  0  0  0  0  0  0  0  0  0
  -13.1065   17.5032  -41.6207 H   0  0  0  0  0  0  0  0  0  0  0  0
  1  5  1  1  0  0  0
  1  8  2  0  0  0  0
  1 10  1  0  0  0  0
  2  5  1  0  0  0  0
  2  6  1  0  0  0  0
  3  5  1  0  0  0  0
  3  6  1  0  0  0  0
  4  6  1  0  0  0  0
  4  9  1  0  0  0  0
  5  9  1  0  0  0  0
  6  7  1  1  0  0  0
  7 11  1  0  0  0  0
  7 12  1  0  0  0  0
  7 13  1  0  0  0  0
  2 14  1  0  0  0  0
  2 15  1  0  0  0  0
  3 16  1  0  0  0  0
  3 17  1  0  0  0  0
  4 18  1  0  0  0  0
  4 19  1  0  0  0  0
 10 20  1  0  0  0  0
M  END
> <id>
EN300-27708404

> <smiles>
OC(=O)[C@]1(C[C@]2(C1)C(F)(F)F)OC2

> <IUPAC Name>
(1r,4r)-4-(trifluoromethyl)-2-oxabicyclo[2.1.1]hexane-1-carboxylic acid

> <CAS>
2287318-89-0

> <URL>
https://www.enaminestore.com/catalog/EN300-27708404

> <ROCS_ShapeQuery>
_x1247relevant_x1083L0AP1_x1305L0BP1_

> <ROCS_TanimotoCombo>
0.817 

> <ROCS_ShapeTanimoto>
0.487 

> <ROCS_ColorTanimoto>
0.331 

> <ROCS_RefTversky>
0.407 

> <ROCS_RefColorTversky>
0.381 

> <ROCS_RefTverskyCombo>
0.788 

> <ROCS_FitTversky>
1.669 

> <ROCS_FitColorTversky>
0.715 

> <ROCS_FitTverskyCombo>
2.384 

> <ROCS_ColorScore>
-8.113

> <ROCS_Overlap>
1197.704

> <ROCS_Rank>
487                 

$$$$
untitled-dbase-115235_17
  -OEChem-06232314393D

 25 26  0     1  0  0  0  0  0999 V2000
  -13.3894   16.2470  -39.2141 C   0  0  0  0  0  0  0  0  0  0  0  0
  -12.3462   16.3365  -38.2617 C   0  0  0  0  0  0  0  0  0  0  0  0
  -12.1474   15.0591  -37.7919 C   0  0  0  0  0  0  0  0  0  0  0  0
  -13.7535   14.9213  -39.2585 C   0  0  0  0  0  0  0  0  0  0  0  0
   -9.2797   13.7839  -38.1171 C   0  0  0  0  0  0  0  0  0  0  0  0
   -8.4034   14.7275  -37.3076 C   0  0  0  0  0  0  0  0  0  0  0  0
  -10.2595   15.4461  -36.0446 C   0  0  0  0  0  0  0  0  0  0  0  0
  -11.1942   14.4565  -36.7655 C   0  0  2  0  0  0  0  0  0  0  0  0
  -11.6229   17.5556  -37.8576 C   0  0  0  0  0  0  0  0  0  0  0  0
  -10.4106   13.3350  -37.3096 N   0  0  0  0  0  0  0  0  0  0  0  0
  -13.0011   14.1905  -38.3946 O   0  0  0  0  0  0  0  0  0  0  0  0
   -9.1637   15.8508  -36.8682 O   0  0  0  0  0  0  0  0  0  0  0  0
  -15.1136   14.1979  -40.3626 Br  0  0  0  0  0  0  0  0  0  0  0  0
  -13.8193   17.0527  -39.7934 H   0  0  0  0  0  0  0  0  0  0  0  0
   -9.6469   14.2870  -39.0158 H   0  0  0  0  0  0  0  0  0  0  0  0
   -8.7005   12.9121  -38.4393 H   0  0  0  0  0  0  0  0  0  0  0  0
   -8.0247   14.2136  -36.4178 H   0  0  0  0  0  0  0  0  0  0  0  0
   -7.5360   15.0730  -37.8839 H   0  0  0  0  0  0  0  0  0  0  0  0
  -10.8010   16.3447  -35.6947 H   0  0  0  0  0  0  0  0  0  0  0  0
   -9.8347   14.9758  -35.1416 H   0  0  0  0  0  0  0  0  0  0  0  0
  -11.8686   13.9903  -35.9646 H   0  0  0  0  0  0  0  0  0  0  0  0
  -12.1189   18.0503  -37.0056 H   0  0  0  0  0  0  0  0  0  0  0  0
  -10.5817   17.3416  -37.5588 H   0  0  0  0  0  0  0  0  0  0  0  0
  -11.5573   18.2914  -38.6784 H   0  0  0  0  0  0  0  0  0  0  0  0
  -11.0237   12.7605  -37.9039 H   0  0  0  0  0  0  0  0  0  0  0  0
  1  2  1  0  0  0  0
  1  4  2  0  0  0  0
  2  3  2  0  0  0  0
  2  9  1  0  0  0  0
  3  8  1  0  0  0  0
  3 11  1  0  0  0  0
  4 11  1  0  0  0  0
  4 13  1  0  0  0  0
  5  6  1  0  0  0  0
  5 10  1  0  0  0  0
  6 12  1  0  0  0  0
  7  8  1  0  0  0  0
  7 12  1  0  0  0  0
  8 10  1  0  0  0  0
  1 14  1  0  0  0  0
  5 15  1  0  0  0  0
  5 16  1  0  0  0  0
  6 17  1  0  0  0  0
  6 18  1  0  0  0  0
  7 19  1  0  0  0  0
  7 20  1  0  0  0  0
  8 21  1  0  0  0  0
  9 22  1  0  0  0  0
  9 23  1  0  0  0  0
  9 24  1  0  0  0  0
 10 25  1  0  0  0  0
M  END
> <id>
EN300-1910132

> <smiles>
CC=1C=C(Br)OC1C2COCCN2

> <IUPAC Name>
3-(5-bromo-3-methylfuran-2-yl)morpholine

> <CAS>
2228721-40-0

> <URL>
https://www.enaminestore.com/catalog/EN300-1910132

> <ROCS_ShapeQuery>
_x1247relevant_x1083L0AP1_x1305L0BP1_

> <ROCS_TanimotoCombo>
0.817 

> <ROCS_ShapeTanimoto>
0.467 

> <ROCS_ColorTanimoto>
0.351 

> <ROCS_RefTversky>
0.392 

> <ROCS_RefColorTversky>
0.355 

> <ROCS_RefTverskyCombo>
0.747 

> <ROCS_FitTversky>
1.679 

> <ROCS_FitColorTversky>
0.968 

> <ROCS_FitTverskyCombo>
2.647 

> <ROCS_ColorScore>
-7.493

> <ROCS_Overlap>
1153.489

> <ROCS_Rank>
488                 

$$$$
untitled-dbase-160458_20
  -OEChem-06232314393D

 35 37  0     1  0  0  0  0  0999 V2000
  -14.5783   14.9609  -37.7749 C   0  0  0  0  0  0  0  0  0  0  0  0
  -12.4171   13.7012  -37.9629 C   0  0  0  0  0  0  0  0  0  0  0  0
  -12.5095   15.8592  -36.6768 C   0  0  0  0  0  0  0  0  0  0  0  0
  -13.3735   14.8577  -39.9705 C   0  0  0  0  0  0  0  0  0  0  0  0
  -13.4657   17.0141  -38.6856 C   0  0  0  0  0  0  0  0  0  0  0  0
  -11.3027   15.7580  -38.8775 C   0  0  0  0  0  0  0  0  0  0  0  0
  -13.7187   14.0759  -38.6937 C   0  0  2  0  0  0  0  0  0  0  0  0
  -13.8114   16.2414  -37.4034 C   0  0  1  0  0  0  0  0  0  0  0  0
  -11.6223   14.9738  -37.5845 C   0  0  0  0  0  0  0  0  0  0  0  0
  -12.6015   16.1384  -39.6091 C   0  0  0  0  0  0  0  0  0  0  0  0
   -9.2225   15.5972  -37.1392 C   0  0  0  0  0  0  0  0  0  0  0  0
  -10.3288   14.5960  -36.8580 C   0  0  2  0  0  0  0  0  0  0  0  0
   -9.9001   13.2547  -37.3144 N   0  0  0  0  0  0  0  0  0  0  0  0
  -12.2966   16.8463  -40.8021 O   0  0  0  0  0  0  0  0  0  0  0  0
  -15.5175   15.2205  -38.2785 H   0  0  0  0  0  0  0  0  0  0  0  0
  -14.8462   14.4080  -36.8661 H   0  0  0  0  0  0  0  0  0  0  0  0
  -12.6549   13.1210  -37.0619 H   0  0  0  0  0  0  0  0  0  0  0  0
  -11.8088   13.0511  -38.6049 H   0  0  0  0  0  0  0  0  0  0  0  0
  -11.9680   16.7695  -36.3889 H   0  0  0  0  0  0  0  0  0  0  0  0
  -12.7491   15.3279  -35.7466 H   0  0  0  0  0  0  0  0  0  0  0  0
  -12.7779   14.2368  -40.6522 H   0  0  0  0  0  0  0  0  0  0  0  0
  -14.2874   15.1114  -40.5232 H   0  0  0  0  0  0  0  0  0  0  0  0
  -14.3819   17.3212  -39.2066 H   0  0  0  0  0  0  0  0  0  0  0  0
  -12.9377   17.9450  -38.4416 H   0  0  0  0  0  0  0  0  0  0  0  0
  -10.7253   16.6637  -38.6475 H   0  0  0  0  0  0  0  0  0  0  0  0
  -10.6619   15.1644  -39.5434 H   0  0  0  0  0  0  0  0  0  0  0  0
  -14.2713   13.1663  -38.9542 H   0  0  0  0  0  0  0  0  0  0  0  0
  -14.4296   16.8667  -36.7497 H   0  0  0  0  0  0  0  0  0  0  0  0
   -9.0208   15.6523  -38.2146 H   0  0  0  0  0  0  0  0  0  0  0  0
   -8.2945   15.3090  -36.6346 H   0  0  0  0  0  0  0  0  0  0  0  0
   -9.4949   16.6041  -36.8036 H   0  0  0  0  0  0  0  0  0  0  0  0
  -10.5221   14.5486  -35.7839 H   0  0  0  0  0  0  0  0  0  0  0  0
   -9.0809   13.0257  -36.8148 H   0  0  0  0  0  0  0  0  0  0  0  0
  -10.6370   12.6305  -37.1131 H   0  0  0  0  0  0  0  0  0  0  0  0
  -11.7537   16.2551  -41.3487 H   0  0  0  0  0  0  0  0  0  0  0  0
  1  7  1  0  0  0  0
  1  8  1  0  0  0  0
  2  7  1  1  0  0  0
  2  9  1  0  0  0  0
  3  8  1  1  0  0  0
  3  9  1  0  0  0  0
  4  7  1  0  0  0  0
  4 10  1  0  0  0  0
  5  8  1  0  0  0  0
  5 10  1  0  0  0  0
  6  9  1  0  0  0  0
  6 10  1  0  0  0  0
  9 12  1  1  0  0  0
 10 14  1  6  0  0  0
 11 12  1  0  0  0  0
 12 13  1  0  0  0  0
  1 15  1  0  0  0  0
  1 16  1  0  0  0  0
  2 17  1  0  0  0  0
  2 18  1  0  0  0  0
  3 19  1  0  0  0  0
  3 20  1  0  0  0  0
  4 21  1  0  0  0  0
  4 22  1  0  0  0  0
  5 23  1  0  0  0  0
  5 24  1  0  0  0  0
  6 25  1  0  0  0  0
  6 26  1  0  0  0  0
  7 27  1  0  0  0  0
  8 28  1  0  0  0  0
 11 29  1  0  0  0  0
 11 30  1  0  0  0  0
 11 31  1  0  0  0  0
 12 32  1  0  0  0  0
 13 33  1  0  0  0  0
 13 34  1  0  0  0  0
 14 35  1  0  0  0  0
M  END
> <id>
EN300-236146

> <smiles>
Cl.CC(N)[C@@]1(C[C@H]2C[C@@H]3C[C@](O)(C2)C1)C3

> <MDLNUMBER>
MFCD01825645

> <IUPAC Name>
(1s,3r,5R,7S)-3-(1-aminoethyl)adamantan-1-ol hydrochloride

> <CAS>
128487-57-0

> <URL>
https://www.enaminestore.com/catalog/EN300-236146

> <Saltdate>
Cl

> <ROCS_ShapeQuery>
_x1247relevant_x1083L0AP1_x1305L0BP1_

> <ROCS_TanimotoCombo>
0.817 

> <ROCS_ShapeTanimoto>
0.509 

> <ROCS_ColorTanimoto>
0.309 

> <ROCS_RefTversky>
0.423 

> <ROCS_RefColorTversky>
0.358 

> <ROCS_RefTverskyCombo>
0.781 

> <ROCS_FitTversky>
1.668 

> <ROCS_FitColorTversky>
0.691 

> <ROCS_FitTverskyCombo>
2.358 

> <ROCS_ColorScore>
-7.624

> <ROCS_Overlap>
1243.291

> <ROCS_Rank>
489                 

$$$$
untitled-dbase-15433_20
  -OEChem-06232314393D

 35 37  0     1  0  0  0  0  0999 V2000
  -14.5783   14.9609  -37.7749 C   0  0  0  0  0  0  0  0  0  0  0  0
  -12.4171   13.7012  -37.9629 C   0  0  0  0  0  0  0  0  0  0  0  0
  -12.5095   15.8592  -36.6768 C   0  0  0  0  0  0  0  0  0  0  0  0
  -13.3735   14.8577  -39.9705 C   0  0  0  0  0  0  0  0  0  0  0  0
  -13.4657   17.0141  -38.6856 C   0  0  0  0  0  0  0  0  0  0  0  0
  -11.3027   15.7580  -38.8775 C   0  0  0  0  0  0  0  0  0  0  0  0
  -13.7187   14.0759  -38.6937 C   0  0  2  0  0  0  0  0  0  0  0  0
  -13.8114   16.2414  -37.4034 C   0  0  1  0  0  0  0  0  0  0  0  0
  -11.6223   14.9738  -37.5845 C   0  0  0  0  0  0  0  0  0  0  0  0
  -12.6015   16.1384  -39.6091 C   0  0  0  0  0  0  0  0  0  0  0  0
   -9.2225   15.5972  -37.1392 C   0  0  0  0  0  0  0  0  0  0  0  0
  -10.3288   14.5960  -36.8580 C   0  0  2  0  0  0  0  0  0  0  0  0
   -9.9001   13.2547  -37.3144 N   0  0  0  0  0  0  0  0  0  0  0  0
  -12.2966   16.8463  -40.8021 O   0  0  0  0  0  0  0  0  0  0  0  0
  -15.5175   15.2205  -38.2785 H   0  0  0  0  0  0  0  0  0  0  0  0
  -14.8462   14.4080  -36.8661 H   0  0  0  0  0  0  0  0  0  0  0  0
  -12.6549   13.1210  -37.0619 H   0  0  0  0  0  0  0  0  0  0  0  0
  -11.8088   13.0511  -38.6049 H   0  0  0  0  0  0  0  0  0  0  0  0
  -11.9680   16.7695  -36.3889 H   0  0  0  0  0  0  0  0  0  0  0  0
  -12.7491   15.3279  -35.7466 H   0  0  0  0  0  0  0  0  0  0  0  0
  -12.7779   14.2368  -40.6522 H   0  0  0  0  0  0  0  0  0  0  0  0
  -14.2874   15.1114  -40.5232 H   0  0  0  0  0  0  0  0  0  0  0  0
  -14.3819   17.3212  -39.2066 H   0  0  0  0  0  0  0  0  0  0  0  0
  -12.9377   17.9450  -38.4416 H   0  0  0  0  0  0  0  0  0  0  0  0
  -10.7253   16.6637  -38.6475 H   0  0  0  0  0  0  0  0  0  0  0  0
  -10.6619   15.1644  -39.5434 H   0  0  0  0  0  0  0  0  0  0  0  0
  -14.2713   13.1663  -38.9542 H   0  0  0  0  0  0  0  0  0  0  0  0
  -14.4296   16.8667  -36.7497 H   0  0  0  0  0  0  0  0  0  0  0  0
   -9.0208   15.6523  -38.2146 H   0  0  0  0  0  0  0  0  0  0  0  0
   -8.2945   15.3090  -36.6346 H   0  0  0  0  0  0  0  0  0  0  0  0
   -9.4949   16.6041  -36.8036 H   0  0  0  0  0  0  0  0  0  0  0  0
  -10.5221   14.5486  -35.7839 H   0  0  0  0  0  0  0  0  0  0  0  0
   -9.0809   13.0257  -36.8148 H   0  0  0  0  0  0  0  0  0  0  0  0
  -10.6370   12.6305  -37.1131 H   0  0  0  0  0  0  0  0  0  0  0  0
  -11.7537   16.2551  -41.3487 H   0  0  0  0  0  0  0  0  0  0  0  0
  1  7  1  0  0  0  0
  1  8  1  0  0  0  0
  2  7  1  1  0  0  0
  2  9  1  0  0  0  0
  3  8  1  1  0  0  0
  3  9  1  0  0  0  0
  4  7  1  0  0  0  0
  4 10  1  0  0  0  0
  5  8  1  0  0  0  0
  5 10  1  0  0  0  0
  6  9  1  0  0  0  0
  6 10  1  0  0  0  0
  9 12  1  1  0  0  0
 10 14  1  6  0  0  0
 11 12  1  0  0  0  0
 12 13  1  0  0  0  0
  1 15  1  0  0  0  0
  1 16  1  0  0  0  0
  2 17  1  0  0  0  0
  2 18  1  0  0  0  0
  3 19  1  0  0  0  0
  3 20  1  0  0  0  0
  4 21  1  0  0  0  0
  4 22  1  0  0  0  0
  5 23  1  0  0  0  0
  5 24  1  0  0  0  0
  6 25  1  0  0  0  0
  6 26  1  0  0  0  0
  7 27  1  0  0  0  0
  8 28  1  0  0  0  0
 11 29  1  0  0  0  0
 11 30  1  0  0  0  0
 11 31  1  0  0  0  0
 12 32  1  0  0  0  0
 13 33  1  0  0  0  0
 13 34  1  0  0  0  0
 14 35  1  0  0  0  0
M  END
> <id>
EN300-241647

> <smiles>
CC(N)[C@@]1(C[C@H]2C[C@@H]3C[C@](O)(C2)C1)C3

> <MDLNUMBER>
MFCD01821203

> <IUPAC Name>
(1s,3r,5R,7S)-3-(1-aminoethyl)adamantan-1-ol

> <CAS>
90812-24-1

> <URL>
https://www.enaminestore.com/catalog/EN300-241647

> <ROCS_ShapeQuery>
_x1247relevant_x1083L0AP1_x1305L0BP1_

> <ROCS_TanimotoCombo>
0.817 

> <ROCS_ShapeTanimoto>
0.509 

> <ROCS_ColorTanimoto>
0.309 

> <ROCS_RefTversky>
0.423 

> <ROCS_RefColorTversky>
0.358 

> <ROCS_RefTverskyCombo>
0.781 

> <ROCS_FitTversky>
1.668 

> <ROCS_FitColorTversky>
0.691 

> <ROCS_FitTverskyCombo>
2.358 

> <ROCS_ColorScore>
-7.624

> <ROCS_Overlap>
1243.291

> <ROCS_Rank>
490                 

$$$$
untitled-dbase-179870_5
  -OEChem-06232314393D

 19 20  0     1  0  0  0  0  0999 V2000
  -12.9854   16.4811  -38.9814 C   0  0  0  0  0  0  0  0  0  0  0  0
  -13.4073   15.2903  -39.4359 C   0  0  0  0  0  0  0  0  0  0  0  0
  -10.1856   15.2579  -36.7192 C   0  0  0  0  0  0  0  0  0  0  0  0
  -13.2809   15.1324  -37.1328 C   0  0  0  0  0  0  0  0  0  0  0  0
  -12.3362   16.2235  -37.6380 C   0  0  1  0  0  0  0  0  0  0  0  0
  -13.0678   14.2705  -38.3716 C   0  0  2  0  0  0  0  0  0  0  0  0
  -11.0602   15.4095  -37.9220 C   0  0  2  0  0  0  0  0  0  0  0  0
  -11.5960   14.0706  -38.2994 N   0  0  0  0  0  0  0  0  0  0  0  0
  -10.5491   14.8196  -35.6379 O   0  0  0  0  0  0  0  0  0  0  0  0
   -8.9250   15.6772  -36.9880 O   0  0  0  0  0  0  0  0  0  0  0  0
  -13.0311   17.4237  -39.5020 H   0  0  0  0  0  0  0  0  0  0  0  0
  -13.8670   15.0914  -40.3905 H   0  0  0  0  0  0  0  0  0  0  0  0
  -12.9554   14.6576  -36.1999 H   0  0  0  0  0  0  0  0  0  0  0  0
  -14.3168   15.4739  -37.0070 H   0  0  0  0  0  0  0  0  0  0  0  0
  -12.2448   17.0902  -36.9822 H   0  0  0  0  0  0  0  0  0  0  0  0
  -13.6586   13.3537  -38.4049 H   0  0  0  0  0  0  0  0  0  0  0  0
  -10.4559   15.8263  -38.7357 H   0  0  0  0  0  0  0  0  0  0  0  0
  -11.3991   13.3968  -37.5585 H   0  0  0  0  0  0  0  0  0  0  0  0
   -8.8334   15.9937  -37.9120 H   0  0  0  0  0  0  0  0  0  0  0  0
  1  2  2  0  0  0  0
  1  5  1  0  0  0  0
  2  6  1  0  0  0  0
  3  7  1  0  0  0  0
  3  9  2  0  0  0  0
  3 10  1  0  0  0  0
  4  5  1  0  0  0  0
  4  6  1  0  0  0  0
  5  7  1  0  0  0  0
  6  8  1  0  0  0  0
  7  8  1  0  0  0  0
  1 11  1  0  0  0  0
  2 12  1  0  0  0  0
  4 13  1  0  0  0  0
  4 14  1  0  0  0  0
  5 15  1  0  0  0  0
  6 16  1  0  0  0  0
  7 17  1  0  0  0  0
  8 18  1  0  0  0  0
 10 19  1  0  0  0  0
M  END
> <id>
EN300-1661071

> <smiles>
OC(=O)C1NC2CC1C=C2

> <MDLNUMBER>
MFCD22071081

> <IUPAC Name>
2-azabicyclo[2.2.1]hept-5-ene-3-carboxylic acid

> <CAS>
1367697-62-8

> <URL>
https://www.enaminestore.com/catalog/EN300-1661071

> <ROCS_ShapeQuery>
_x1247relevant_x1083L0AP1_x1305L0BP1_

> <ROCS_TanimotoCombo>
0.817 

> <ROCS_ShapeTanimoto>
0.423 

> <ROCS_ColorTanimoto>
0.394 

> <ROCS_RefTversky>
0.357 

> <ROCS_RefColorTversky>
0.441 

> <ROCS_RefTverskyCombo>
0.797 

> <ROCS_FitTversky>
1.788 

> <ROCS_FitColorTversky>
0.788 

> <ROCS_FitTverskyCombo>
2.576 

> <ROCS_ColorScore>
-9.399

> <ROCS_Overlap>
1046.852

> <ROCS_Rank>
491                 

$$$$
untitled-dbase-73447_0
  -OEChem-06232314393D

 31 33  0     1  0  0  0  0  0999 V2000
   -8.8960   15.9103  -35.9012 C   0  0  0  0  0  0  0  0  0  0  0  0
  -14.0875   15.9958  -38.8293 C   0  0  0  0  0  0  0  0  0  0  0  0
  -12.7711   16.3946  -39.5134 C   0  0  0  0  0  0  0  0  0  0  0  0
   -9.9567   14.8555  -35.5154 C   0  0  0  0  0  0  0  0  0  0  0  0
   -8.8996   15.3074  -37.3237 C   0  0  0  0  0  0  0  0  0  0  0  0
  -12.6805   14.0826  -38.9885 C   0  0  0  0  0  0  0  0  0  0  0  0
  -12.8246   15.1142  -36.8495 C   0  0  0  0  0  0  0  0  0  0  0  0
  -13.7026   14.7250  -38.0529 C   0  0  1  0  0  0  0  0  0  0  0  0
  -11.7843   15.3228  -39.0135 C   0  0  2  0  0  0  0  0  0  0  0  0
  -11.5097   15.5788  -37.5121 C   0  0  2  0  0  0  0  0  0  0  0  0
  -10.3247   14.7777  -37.0196 C   0  0  0  0  0  0  0  0  0  0  0  0
  -10.3838   13.3688  -37.4061 N   0  0  0  0  0  0  0  0  0  0  0  0
   -9.2622   16.9424  -35.8578 H   0  0  0  0  0  0  0  0  0  0  0  0
   -7.9472   15.8479  -35.3622 H   0  0  0  0  0  0  0  0  0  0  0  0
  -14.4688   16.7877  -38.1766 H   0  0  0  0  0  0  0  0  0  0  0  0
  -14.8511   15.7764  -39.5839 H   0  0  0  0  0  0  0  0  0  0  0  0
  -12.8822   16.3437  -40.6025 H   0  0  0  0  0  0  0  0  0  0  0  0
  -12.4610   17.4108  -39.2504 H   0  0  0  0  0  0  0  0  0  0  0  0
   -9.5162   13.9476  -35.0860 H   0  0  0  0  0  0  0  0  0  0  0  0
  -10.7408   15.2120  -34.8418 H   0  0  0  0  0  0  0  0  0  0  0  0
   -8.8159   16.0354  -38.1353 H   0  0  0  0  0  0  0  0  0  0  0  0
   -8.1274   14.5411  -37.4627 H   0  0  0  0  0  0  0  0  0  0  0  0
  -12.2004   13.1970  -38.5617 H   0  0  0  0  0  0  0  0  0  0  0  0
  -13.0945   13.8313  -39.9709 H   0  0  0  0  0  0  0  0  0  0  0  0
  -13.2795   15.9131  -36.2538 H   0  0  0  0  0  0  0  0  0  0  0  0
  -12.6664   14.2510  -36.1930 H   0  0  0  0  0  0  0  0  0  0  0  0
  -14.5566   14.0996  -37.7857 H   0  0  0  0  0  0  0  0  0  0  0  0
  -10.8859   15.2346  -39.6285 H   0  0  0  0  0  0  0  0  0  0  0  0
  -11.3289   16.6422  -37.3167 H   0  0  0  0  0  0  0  0  0  0  0  0
   -9.4926   12.9629  -37.2425 H   0  0  0  0  0  0  0  0  0  0  0  0
  -11.0780   12.9233  -36.8534 H   0  0  0  0  0  0  0  0  0  0  0  0
  1  4  1  0  0  0  0
  1  5  1  0  0  0  0
  2  3  1  0  0  0  0
  2  8  1  0  0  0  0
  3  9  1  0  0  0  0
  4 11  1  0  0  0  0
  5 11  1  0  0  0  0
  6  8  1  0  0  0  0
  6  9  1  0  0  0  0
  7  8  1  0  0  0  0
  7 10  1  0  0  0  0
  9 10  1  0  0  0  0
 10 11  1  0  0  0  0
 11 12  1  0  0  0  0
  1 13  1  0  0  0  0
  1 14  1  0  0  0  0
  2 15  1  0  0  0  0
  2 16  1  0  0  0  0
  3 17  1  0  0  0  0
  3 18  1  0  0  0  0
  4 19  1  0  0  0  0
  4 20  1  0  0  0  0
  5 21  1  0  0  0  0
  5 22  1  0  0  0  0
  6 23  1  0  0  0  0
  6 24  1  0  0  0  0
  7 25  1  0  0  0  0
  7 26  1  0  0  0  0
  8 27  1  0  0  0  0
  9 28  1  0  0  0  0
 10 29  1  0  0  0  0
 12 30  1  0  0  0  0
 12 31  1  0  0  0  0
M  END
> <id>
EN300-1868731

> <smiles>
NC1(CCC1)C2CC3CCC2C3

> <IUPAC Name>
1-{bicyclo[2.2.1]heptan-2-yl}cyclobutan-1-amine

> <CAS>
1699588-75-4

> <URL>
https://www.enaminestore.com/catalog/EN300-1868731

> <ROCS_ShapeQuery>
_x1247relevant_x1083L0AP1_x1305L0BP1_

> <ROCS_TanimotoCombo>
0.817 

> <ROCS_ShapeTanimoto>
0.468 

> <ROCS_ColorTanimoto>
0.350 

> <ROCS_RefTversky>
0.390 

> <ROCS_RefColorTversky>
0.381 

> <ROCS_RefTverskyCombo>
0.771 

> <ROCS_FitTversky>
1.738 

> <ROCS_FitColorTversky>
0.812 

> <ROCS_FitTverskyCombo>
2.550 

> <ROCS_ColorScore>
-8.076

> <ROCS_Overlap>
1145.903

> <ROCS_Rank>
492                 

$$$$
untitled-dbase-137218_36
  -OEChem-06232314393D

 33 34  0     1  0  0  0  0  0999 V2000
  -10.6286   14.9079  -36.5086 C   0  0  0  0  0  0  0  0  0  0  0  0
  -12.4081   16.8225  -37.9808 C   0  0  0  0  0  0  0  0  0  0  0  0
  -12.2161   16.2603  -39.3969 C   0  0  0  0  0  0  0  0  0  0  0  0
  -13.8925   14.9959  -38.2722 C   0  0  0  0  0  0  0  0  0  0  0  0
  -11.9426   14.4957  -37.0840 C   0  0  1  0  0  0  0  0  0  0  0  0
  -12.9829   15.6144  -37.2134 C   0  0  1  0  0  0  0  0  0  0  0  0
  -12.7469   14.8236  -39.2617 C   0  0  2  0  0  0  0  0  0  0  0  0
   -8.8063   13.2240  -37.3053 C   0  0  0  0  0  0  0  0  0  0  0  0
   -8.2276   14.8023  -39.1716 C   0  0  0  0  0  0  0  0  0  0  0  0
   -7.5236   15.3344  -36.8202 C   0  0  0  0  0  0  0  0  0  0  0  0
   -8.5966   14.6867  -37.6942 C   0  0  0  0  0  0  0  0  0  0  0  0
  -11.7715   14.0301  -38.4769 N   0  0  0  0  0  0  0  0  0  0  0  0
  -10.3408   14.8162  -35.3229 O   0  0  0  0  0  0  0  0  0  0  0  0
   -9.8276   15.3904  -37.5009 O   0  0  0  0  0  0  0  0  0  0  0  0
  -11.4785   17.2107  -37.5559 H   0  0  0  0  0  0  0  0  0  0  0  0
  -13.1334   17.6444  -38.0008 H   0  0  0  0  0  0  0  0  0  0  0  0
  -12.8146   16.8324  -40.1150 H   0  0  0  0  0  0  0  0  0  0  0  0
  -11.1704   16.3002  -39.7196 H   0  0  0  0  0  0  0  0  0  0  0  0
  -14.3485   14.0498  -37.9594 H   0  0  0  0  0  0  0  0  0  0  0  0
  -14.6735   15.6780  -38.6253 H   0  0  0  0  0  0  0  0  0  0  0  0
  -12.3370   13.6722  -36.4777 H   0  0  0  0  0  0  0  0  0  0  0  0
  -13.4712   15.8817  -36.2739 H   0  0  0  0  0  0  0  0  0  0  0  0
  -13.0088   14.3542  -40.2120 H   0  0  0  0  0  0  0  0  0  0  0  0
   -9.0713   13.1367  -36.2455 H   0  0  0  0  0  0  0  0  0  0  0  0
   -9.5977   12.7577  -37.9011 H   0  0  0  0  0  0  0  0  0  0  0  0
   -7.8846   12.6469  -37.4419 H   0  0  0  0  0  0  0  0  0  0  0  0
   -8.0761   15.8501  -39.4551 H   0  0  0  0  0  0  0  0  0  0  0  0
   -9.0371   14.4246  -39.8068 H   0  0  0  0  0  0  0  0  0  0  0  0
   -7.3149   14.2446  -39.4050 H   0  0  0  0  0  0  0  0  0  0  0  0
   -7.3729   16.3836  -37.0990 H   0  0  0  0  0  0  0  0  0  0  0  0
   -7.7891   15.2935  -35.7588 H   0  0  0  0  0  0  0  0  0  0  0  0
   -6.5568   14.8363  -36.9566 H   0  0  0  0  0  0  0  0  0  0  0  0
  -10.8279   14.2070  -38.8184 H   0  0  0  0  0  0  0  0  0  0  0  0
  1  5  1  1  0  0  0
  1 13  2  0  0  0  0
  1 14  1  0  0  0  0
  2  3  1  0  0  0  0
  2  6  1  1  0  0  0
  3  7  1  1  0  0  0
  4  6  1  0  0  0  0
  4  7  1  0  0  0  0
  5  6  1  0  0  0  0
  5 12  1  0  0  0  0
  7 12  1  0  0  0  0
  8 11  1  0  0  0  0
  9 11  1  0  0  0  0
 10 11  1  0  0  0  0
 11 14  1  0  0  0  0
  2 15  1  0  0  0  0
  2 16  1  0  0  0  0
  3 17  1  0  0  0  0
  3 18  1  0  0  0  0
  4 19  1  0  0  0  0
  4 20  1  0  0  0  0
  5 21  1  0  0  0  0
  6 22  1  0  0  0  0
  7 23  1  0  0  0  0
  8 24  1  0  0  0  0
  8 25  1  0  0  0  0
  8 26  1  0  0  0  0
  9 27  1  0  0  0  0
  9 28  1  0  0  0  0
  9 29  1  0  0  0  0
 10 30  1  0  0  0  0
 10 31  1  0  0  0  0
 10 32  1  0  0  0  0
 12 33  1  0  0  0  0
M  END
> <id>
EN300-6747225

> <smiles>
CC(C)(C)OC(=O)[C@@H]1N[C@@H]2CC[C@H]1C2 |&1:7,9,12,r|

> <IUPAC Name>
rac-tert-butyl (1R,3R,4S)-2-azabicyclo[2.2.1]heptane-3-carboxylate

> <CAS>
2287236-74-0

> <URL>
https://www.enaminestore.com/catalog/EN300-6747225

> <ROCS_ShapeQuery>
_x1247relevant_x1083L0AP1_x1305L0BP1_

> <ROCS_TanimotoCombo>
0.817 

> <ROCS_ShapeTanimoto>
0.464 

> <ROCS_ColorTanimoto>
0.353 

> <ROCS_RefTversky>
0.397 

> <ROCS_RefColorTversky>
0.395 

> <ROCS_RefTverskyCombo>
0.792 

> <ROCS_FitTversky>
1.570 

> <ROCS_FitColorTversky>
0.770 

> <ROCS_FitTverskyCombo>
2.340 

> <ROCS_ColorScore>
-8.408

> <ROCS_Overlap>
1167.766

> <ROCS_Rank>
493                 

$$$$
untitled-dbase-171483_85
  -OEChem-06232314393D

 26 27  0     1  0  0  0  0  0999 V2000
  -14.4099   14.7830  -40.2024 C   0  0  0  0  0  0  0  0  0  0  0  0
  -10.1663   14.8903  -37.0379 C   0  0  0  0  0  0  0  0  0  0  0  0
  -13.2456   13.8680  -38.2048 C   0  0  0  0  0  0  0  0  0  0  0  0
  -12.0517   15.5132  -39.8148 C   0  0  0  0  0  0  0  0  0  0  0  0
  -13.0643   16.3916  -37.5694 C   0  0  0  0  0  0  0  0  0  0  0  0
  -13.0724   14.3685  -39.6544 C   0  0  0  0  0  0  0  0  0  0  0  0
  -12.7756   14.9126  -37.1928 C   0  0  2  0  0  0  0  0  0  0  0  0
  -11.8231   16.2428  -38.4919 C   0  0  1  0  0  0  0  0  0  0  0  0
  -10.0963   13.4628  -36.5677 C   0  0  0  0  0  0  0  0  0  0  0  0
  -11.3953   15.2762  -37.4870 N   0  0  0  0  0  0  0  0  0  0  0  0
  -15.2111   14.0331  -40.7400 O   0  0  0  0  0  0  0  0  0  0  0  0
   -9.1814   15.6262  -37.0042 O   0  0  0  0  0  0  0  0  0  0  0  0
  -14.6102   16.1114  -40.0220 O   0  0  0  0  0  0  0  0  0  0  0  0
  -11.2933   12.8607  -36.6957 F   0  0  0  0  0  0  0  0  0  0  0  0
   -9.1976   12.7665  -37.2886 F   0  0  0  0  0  0  0  0  0  0  0  0
   -9.7325   13.4015  -35.2730 F   0  0  0  0  0  0  0  0  0  0  0  0
  -14.2907   13.6044  -38.0019 H   0  0  0  0  0  0  0  0  0  0  0  0
  -12.6621   12.9488  -38.0686 H   0  0  0  0  0  0  0  0  0  0  0  0
  -11.0971   15.0997  -40.1649 H   0  0  0  0  0  0  0  0  0  0  0  0
  -12.3781   16.2283  -40.5794 H   0  0  0  0  0  0  0  0  0  0  0  0
  -14.0224   16.6073  -38.0462 H   0  0  0  0  0  0  0  0  0  0  0  0
  -12.9286   17.1019  -36.7429 H   0  0  0  0  0  0  0  0  0  0  0  0
  -12.7700   13.5240  -40.2872 H   0  0  0  0  0  0  0  0  0  0  0  0
  -12.9689   14.6610  -36.1466 H   0  0  0  0  0  0  0  0  0  0  0  0
  -11.1872   17.1300  -38.5584 H   0  0  0  0  0  0  0  0  0  0  0  0
  -15.4780   16.4023  -40.3751 H   0  0  0  0  0  0  0  0  0  0  0  0
  1  6  1  6  0  0  0
  1 11  2  0  0  0  0
  1 13  1  0  0  0  0
  2  9  1  0  0  0  0
  2 10  1  0  0  0  0
  2 12  2  0  0  0  0
  3  6  1  0  0  0  0
  3  7  1  1  0  0  0
  4  6  1  0  0  0  0
  4  8  1  0  0  0  0
  5  7  1  0  0  0  0
  5  8  1  6  0  0  0
  7 10  1  0  0  0  0
  8 10  1  0  0  0  0
  9 14  1  0  0  0  0
  9 15  1  0  0  0  0
  9 16  1  0  0  0  0
  3 17  1  0  0  0  0
  3 18  1  0  0  0  0
  4 19  1  0  0  0  0
  4 20  1  0  0  0  0
  5 21  1  0  0  0  0
  5 22  1  0  0  0  0
  6 23  1  0  0  0  0
  7 24  1  0  0  0  0
  8 25  1  0  0  0  0
 13 26  1  0  0  0  0
M  END
> <id>
EN300-39918357

> <smiles>
OC(=O)[C@@H]1C[C@@H]2C[C@H](C1)N2C(=O)C(F)(F)F

> <IUPAC Name>
(1R,3s,5S)-6-(2,2,2-trifluoroacetyl)-6-azabicyclo[3.1.1]heptane-3-carboxylic acid

> <URL>
https://www.enaminestore.com/catalog/EN300-39918357

> <ROCS_ShapeQuery>
_x1247relevant_x1083L0AP1_x1305L0BP1_

> <ROCS_TanimotoCombo>
0.817 

> <ROCS_ShapeTanimoto>
0.527 

> <ROCS_ColorTanimoto>
0.290 

> <ROCS_RefTversky>
0.444 

> <ROCS_RefColorTversky>
0.339 

> <ROCS_RefTverskyCombo>
0.783 

> <ROCS_FitTversky>
1.544 

> <ROCS_FitColorTversky>
0.670 

> <ROCS_FitTverskyCombo>
2.214 

> <ROCS_ColorScore>
-7.200

> <ROCS_Overlap>
1309.965

> <ROCS_Rank>
494                 

$$$$
untitled-dbase-55900_0
  -OEChem-06232314393D

 37 41  0     1  0  0  0  0  0999 V2000
  -10.0985   15.2925  -36.3475 C   0  0  0  0  0  0  0  0  0  0  0  0
  -13.7760   15.4312  -40.7353 C   0  0  0  0  0  0  0  0  0  0  0  0
  -11.4555   16.3360  -40.5106 C   0  0  0  0  0  0  0  0  0  0  0  0
  -13.3721   17.5429  -39.4554 C   0  0  0  0  0  0  0  0  0  0  0  0
  -11.9048   13.4143  -37.9939 C   0  0  0  0  0  0  0  0  0  0  0  0
  -13.8296   14.6074  -36.9414 C   0  0  0  0  0  0  0  0  0  0  0  0
  -11.5400   15.5491  -36.6818 C   0  0  2  0  0  0  0  0  0  0  0  0
  -12.9340   16.7130  -40.6692 C   0  0  0  0  0  0  0  0  0  0  0  0
  -12.3445   14.2406  -36.7734 C   0  0  0  0  0  0  0  0  0  0  0  0
  -13.5882   14.6053  -39.4530 C   0  0  0  0  0  0  0  0  0  0  0  0
  -11.2485   15.5165  -39.2260 C   0  0  2  0  0  0  0  0  0  0  0  0
  -13.1814   16.7348  -38.1627 C   0  0  1  0  0  0  0  0  0  0  0  0
  -12.0961   14.2223  -39.2862 C   0  0  1  0  0  0  0  0  0  0  0  0
  -14.0309   15.4361  -38.2225 C   0  0  2  0  0  0  0  0  0  0  0  0
  -11.6843   16.3508  -37.9897 C   0  0  0  0  0  0  0  0  0  0  0  0
   -9.1471   15.6362  -37.0332 O   0  0  0  0  0  0  0  0  0  0  0  0
   -9.9912   14.6209  -35.1751 O   0  0  0  0  0  0  0  0  0  0  0  0
  -14.8353   15.6852  -40.8633 H   0  0  0  0  0  0  0  0  0  0  0  0
  -13.4839   14.8357  -41.6088 H   0  0  0  0  0  0  0  0  0  0  0  0
  -11.1222   15.7558  -41.3799 H   0  0  0  0  0  0  0  0  0  0  0  0
  -10.8384   17.2423  -40.4782 H   0  0  0  0  0  0  0  0  0  0  0  0
  -12.7884   18.4703  -39.4050 H   0  0  0  0  0  0  0  0  0  0  0  0
  -14.4242   17.8349  -39.5611 H   0  0  0  0  0  0  0  0  0  0  0  0
  -10.8554   13.1131  -37.8935 H   0  0  0  0  0  0  0  0  0  0  0  0
  -12.4910   12.4883  -38.0460 H   0  0  0  0  0  0  0  0  0  0  0  0
  -14.4384   13.6959  -36.9867 H   0  0  0  0  0  0  0  0  0  0  0  0
  -14.1763   15.1776  -36.0709 H   0  0  0  0  0  0  0  0  0  0  0  0
  -11.9225   16.1508  -35.8464 H   0  0  0  0  0  0  0  0  0  0  0  0
  -13.0724   17.2955  -41.5868 H   0  0  0  0  0  0  0  0  0  0  0  0
  -12.2124   13.6439  -35.8633 H   0  0  0  0  0  0  0  0  0  0  0  0
  -14.1973   13.6954  -39.5230 H   0  0  0  0  0  0  0  0  0  0  0  0
  -10.1861   15.2565  -39.1441 H   0  0  0  0  0  0  0  0  0  0  0  0
  -13.5057   17.3469  -37.3116 H   0  0  0  0  0  0  0  0  0  0  0  0
  -11.7760   13.6111  -40.1394 H   0  0  0  0  0  0  0  0  0  0  0  0
  -15.0931   15.6953  -38.3154 H   0  0  0  0  0  0  0  0  0  0  0  0
  -11.0754   17.2627  -37.9347 H   0  0  0  0  0  0  0  0  0  0  0  0
   -9.0558   14.4418  -34.9397 H   0  0  0  0  0  0  0  0  0  0  0  0
  1  7  1  0  0  0  0
  1 16  2  0  0  0  0
  1 17  1  0  0  0  0
  2  8  1  0  0  0  0
  2 10  1  0  0  0  0
  3  8  1  0  0  0  0
  3 11  1  0  0  0  0
  4  8  1  0  0  0  0
  4 12  1  0  0  0  0
  5  9  1  0  0  0  0
  5 13  1  0  0  0  0
  6  9  1  0  0  0  0
  6 14  1  0  0  0  0
  7  9  1  0  0  0  0
  7 15  1  0  0  0  0
 10 13  1  0  0  0  0
 10 14  1  0  0  0  0
 11 13  1  0  0  0  0
 11 15  1  0  0  0  0
 12 14  1  0  0  0  0
 12 15  1  0  0  0  0
  2 18  1  0  0  0  0
  2 19  1  0  0  0  0
  3 20  1  0  0  0  0
  3 21  1  0  0  0  0
  4 22  1  0  0  0  0
  4 23  1  0  0  0  0
  5 24  1  0  0  0  0
  5 25  1  0  0  0  0
  6 26  1  0  0  0  0
  6 27  1  0  0  0  0
  7 28  1  0  0  0  0
  8 29  1  0  0  0  0
  9 30  1  0  0  0  0
 10 31  1  0  0  0  0
 11 32  1  0  0  0  0
 12 33  1  0  0  0  0
 13 34  1  0  0  0  0
 14 35  1  0  0  0  0
 15 36  1  0  0  0  0
 17 37  1  0  0  0  0
M  END
> <id>
EN300-7500004

> <smiles>
OC(=O)C1C2CC3C4CC5CC3C1C(C5)C4C2

> <IUPAC Name>
pentacyclo[7.3.1.1^{4,12}.0^{2,7}.0^{6,11}]tetradecane-3-carboxylic acid

> <CAS>
78010-42-1

> <Purity>
95

> <URL>
https://www.enaminestore.com/catalog/EN300-7500004

> <MP>
165-166

> <ROCS_ShapeQuery>
_x1247relevant_x1083L0AP1_x1305L0BP1_

> <ROCS_TanimotoCombo>
0.817 

> <ROCS_ShapeTanimoto>
0.551 

> <ROCS_ColorTanimoto>
0.266 

> <ROCS_RefTversky>
0.465 

> <ROCS_RefColorTversky>
0.360 

> <ROCS_RefTverskyCombo>
0.825 

> <ROCS_FitTversky>
1.504 

> <ROCS_FitColorTversky>
0.504 

> <ROCS_FitTverskyCombo>
2.007 

> <ROCS_ColorScore>
-7.737

> <ROCS_Overlap>
1373.502

> <ROCS_Rank>
495                 

$$$$
untitled-dbase-28899_4
  -OEChem-06232314393D

 26 27  0     1  0  0  0  0  0999 V2000
  -13.6537   16.3698  -37.7169 C   0  0  0  0  0  0  0  0  0  0  0  0
  -13.0771   13.9885  -37.4077 C   0  0  0  0  0  0  0  0  0  0  0  0
  -13.5023   16.2071  -39.2397 C   0  0  0  0  0  0  0  0  0  0  0  0
  -13.0654   13.8607  -38.9393 C   0  0  0  0  0  0  0  0  0  0  0  0
  -11.2321   15.4042  -39.0663 C   0  0  0  0  0  0  0  0  0  0  0  0
  -12.6732   15.4184  -37.0081 C   0  0  0  0  0  0  0  0  0  0  0  0
  -11.2739   15.7364  -37.5647 C   0  0  1  0  0  0  0  0  0  0  0  0
  -12.5848   15.0995  -39.5889 N   0  0  0  0  0  0  0  0  0  0  0  0
  -10.0145   13.4015  -37.4503 N   0  0  0  0  0  0  0  0  0  0  0  0
   -8.7322   15.5812  -36.9796 O   0  0  0  0  0  0  0  0  0  0  0  0
  -10.4259   14.7499  -35.2986 O   0  0  0  0  0  0  0  0  0  0  0  0
   -9.9865   14.9178  -36.6722 S   0  0  0  0  0  0  0  0  0  0  0  0
  -13.4513   17.4086  -37.4304 H   0  0  0  0  0  0  0  0  0  0  0  0
  -14.6834   16.1441  -37.4144 H   0  0  0  0  0  0  0  0  0  0  0  0
  -14.0808   13.7636  -37.0269 H   0  0  0  0  0  0  0  0  0  0  0  0
  -12.3980   13.2541  -36.9619 H   0  0  0  0  0  0  0  0  0  0  0  0
  -14.4853   16.0309  -39.6940 H   0  0  0  0  0  0  0  0  0  0  0  0
  -13.1367   17.1419  -39.6832 H   0  0  0  0  0  0  0  0  0  0  0  0
  -12.4335   13.0147  -39.2374 H   0  0  0  0  0  0  0  0  0  0  0  0
  -14.0713   13.6180  -39.3043 H   0  0  0  0  0  0  0  0  0  0  0  0
  -10.8185   16.2582  -39.6178 H   0  0  0  0  0  0  0  0  0  0  0  0
  -10.5597   14.5652  -39.2851 H   0  0  0  0  0  0  0  0  0  0  0  0
  -12.7192   15.5465  -35.9217 H   0  0  0  0  0  0  0  0  0  0  0  0
  -11.0672   16.8055  -37.4243 H   0  0  0  0  0  0  0  0  0  0  0  0
   -9.2280   13.1658  -38.0679 H   0  0  0  0  0  0  0  0  0  0  0  0
  -10.3817   12.5998  -36.9232 H   0  0  0  0  0  0  0  0  0  0  0  0
  1  3  1  0  0  0  0
  1  6  1  0  0  0  0
  2  4  1  0  0  0  0
  2  6  1  0  0  0  0
  3  8  1  0  0  0  0
  4  8  1  0  0  0  0
  5  7  1  0  0  0  0
  5  8  1  0  0  0  0
  6  7  1  0  0  0  0
  7 12  1  0  0  0  0
  9 12  1  0  0  0  0
 10 12  2  0  0  0  0
 11 12  2  0  0  0  0
  1 13  1  0  0  0  0
  1 14  1  0  0  0  0
  2 15  1  0  0  0  0
  2 16  1  0  0  0  0
  3 17  1  0  0  0  0
  3 18  1  0  0  0  0
  4 19  1  0  0  0  0
  4 20  1  0  0  0  0
  5 21  1  0  0  0  0
  5 22  1  0  0  0  0
  6 23  1  0  0  0  0
  7 24  1  0  0  0  0
  9 25  1  0  0  0  0
  9 26  1  0  0  0  0
M  END
> <id>
EN300-679524

> <smiles>
NS(=O)(=O)C1CN2CCC1CC2

> <MDLNUMBER>
MFCD16671846

> <IUPAC Name>
1-azabicyclo[2.2.2]octane-3-sulfonamide

> <CAS>
1897633-92-9

> <URL>
https://www.enaminestore.com/catalog/EN300-679524

> <ROCS_ShapeQuery>
_x1247relevant_x1083L0AP1_x1305L0BP1_

> <ROCS_TanimotoCombo>
0.817 

> <ROCS_ShapeTanimoto>
0.456 

> <ROCS_ColorTanimoto>
0.361 

> <ROCS_RefTversky>
0.381 

> <ROCS_RefColorTversky>
0.398 

> <ROCS_RefTverskyCombo>
0.779 

> <ROCS_FitTversky>
1.765 

> <ROCS_FitColorTversky>
0.793 

> <ROCS_FitTverskyCombo>
2.559 

> <ROCS_ColorScore>
-8.473

> <ROCS_Overlap>
1117.827

> <ROCS_Rank>
496                 

$$$$
untitled-dbase-110995_10
  -OEChem-06232314393D

 31 33  0     1  0  0  0  0  0999 V2000
   -9.6783   16.5308  -36.9524 C   0  0  0  0  0  0  0  0  0  0  0  0
  -13.9035   14.7911  -39.4385 C   0  0  0  0  0  0  0  0  0  0  0  0
  -12.5888   15.3498  -39.9965 C   0  0  0  0  0  0  0  0  0  0  0  0
  -13.1446   16.5612  -38.0379 C   0  0  0  0  0  0  0  0  0  0  0  0
  -12.8148   14.3362  -37.2325 C   0  0  0  0  0  0  0  0  0  0  0  0
   -9.7346   14.1839  -36.1754 C   0  0  0  0  0  0  0  0  0  0  0  0
  -10.5617   13.7931  -38.3354 C   0  0  0  0  0  0  0  0  0  0  0  0
  -10.5854   15.3940  -36.5768 C   0  0  2  0  0  0  0  0  0  0  0  0
  -13.8537   15.2110  -37.9609 C   0  0  2  0  0  0  0  0  0  0  0  0
  -11.9233   15.9823  -38.7584 C   0  0  1  0  0  0  0  0  0  0  0  0
  -11.4504   14.8929  -37.7569 C   0  0  2  0  0  0  0  0  0  0  0  0
  -10.0430   13.1274  -37.1416 N   0  0  0  0  0  0  0  0  0  0  0  0
  -10.0519   17.6366  -37.3146 O   0  0  0  0  0  0  0  0  0  0  0  0
   -8.3785   16.1640  -36.8381 O   0  0  0  0  0  0  0  0  0  0  0  0
  -14.7561   15.2539  -39.9481 H   0  0  0  0  0  0  0  0  0  0  0  0
  -13.9775   13.7066  -39.5661 H   0  0  0  0  0  0  0  0  0  0  0  0
  -11.9789   14.5822  -40.4796 H   0  0  0  0  0  0  0  0  0  0  0  0
  -12.8032   16.1193  -40.7479 H   0  0  0  0  0  0  0  0  0  0  0  0
  -13.6890   17.2989  -38.6372 H   0  0  0  0  0  0  0  0  0  0  0  0
  -12.9165   16.9890  -37.0568 H   0  0  0  0  0  0  0  0  0  0  0  0
  -12.9208   14.4641  -36.1493 H   0  0  0  0  0  0  0  0  0  0  0  0
  -12.9630   13.2741  -37.4568 H   0  0  0  0  0  0  0  0  0  0  0  0
   -8.6610   14.4044  -36.1795 H   0  0  0  0  0  0  0  0  0  0  0  0
  -10.0004   13.8373  -35.1714 H   0  0  0  0  0  0  0  0  0  0  0  0
  -11.1068   13.0776  -38.9578 H   0  0  0  0  0  0  0  0  0  0  0  0
   -9.7402   14.2131  -38.9282 H   0  0  0  0  0  0  0  0  0  0  0  0
  -11.1910   15.7420  -35.7325 H   0  0  0  0  0  0  0  0  0  0  0  0
  -14.8323   15.2183  -37.4768 H   0  0  0  0  0  0  0  0  0  0  0  0
  -11.1646   16.7174  -39.0334 H   0  0  0  0  0  0  0  0  0  0  0  0
   -9.2130   12.5797  -37.3604 H   0  0  0  0  0  0  0  0  0  0  0  0
   -7.7692   16.8934  -37.0812 H   0  0  0  0  0  0  0  0  0  0  0  0
  1  8  1  0  0  0  0
  1 13  2  0  0  0  0
  1 14  1  0  0  0  0
  2  3  1  0  0  0  0
  2  9  1  0  0  0  0
  3 10  1  0  0  0  0
  4  9  1  0  0  0  0
  4 10  1  0  0  0  0
  5  9  1  0  0  0  0
  5 11  1  0  0  0  0
  6  8  1  0  0  0  0
  6 12  1  0  0  0  0
  7 11  1  0  0  0  0
  7 12  1  0  0  0  0
  8 11  1  0  0  0  0
 10 11  1  0  0  0  0
  2 15  1  0  0  0  0
  2 16  1  0  0  0  0
  3 17  1  0  0  0  0
  3 18  1  0  0  0  0
  4 19  1  0  0  0  0
  4 20  1  0  0  0  0
  5 21  1  0  0  0  0
  5 22  1  0  0  0  0
  6 23  1  0  0  0  0
  6 24  1  0  0  0  0
  7 25  1  0  0  0  0
  7 26  1  0  0  0  0
  8 27  1  0  0  0  0
  9 28  1  0  0  0  0
 10 29  1  0  0  0  0
 12 30  1  0  0  0  0
 14 31  1  0  0  0  0
M  END
> <id>
EN300-1455460

> <smiles>
OC(=O)C1CNCC21CC3CCC2C3

> <MDLNUMBER>
MFCD24121796

> <IUPAC Name>
spiro[bicyclo[2.2.1]heptane-2,3'-pyrrolidine]-4'-carboxylic acid

> <CAS>
1559114-20-3

> <URL>
https://www.enaminestore.com/catalog/EN300-1455460

> <ROCS_ShapeQuery>
_x1247relevant_x1083L0AP1_x1305L0BP1_

> <ROCS_TanimotoCombo>
0.817 

> <ROCS_ShapeTanimoto>
0.484 

> <ROCS_ColorTanimoto>
0.333 

> <ROCS_RefTversky>
0.410 

> <ROCS_RefColorTversky>
0.399 

> <ROCS_RefTverskyCombo>
0.809 

> <ROCS_FitTversky>
1.599 

> <ROCS_FitColorTversky>
0.667 

> <ROCS_FitTverskyCombo>
2.266 

> <ROCS_ColorScore>
-8.527

> <ROCS_Overlap>
1206.276

> <ROCS_Rank>
497                 

$$$$
untitled-dbase-56509_91
  -OEChem-06232314393D

 39 40  0     1  0  0  0  0  0999 V2000
  -14.4475   15.0200  -40.1550 C   0  0  0  0  0  0  0  0  0  0  0  0
   -9.6402   14.8499  -36.9648 C   0  0  0  0  0  0  0  0  0  0  0  0
  -13.7258   15.2291  -37.2127 C   0  0  0  0  0  0  0  0  0  0  0  0
  -13.2451   16.5604  -37.8038 C   0  0  0  0  0  0  0  0  0  0  0  0
  -11.7593   13.7313  -37.7431 C   0  0  0  0  0  0  0  0  0  0  0  0
  -10.9908   15.9173  -38.7427 C   0  0  0  0  0  0  0  0  0  0  0  0
  -13.1022   14.8579  -39.5113 C   0  0  0  0  0  0  0  0  0  0  0  0
  -13.1813   14.1465  -38.1613 C   0  0  2  0  0  0  0  0  0  0  0  0
  -12.4690   16.1791  -39.0775 C   0  0  1  0  0  0  0  0  0  0  0  0
  -10.2453   15.0794  -34.4224 C   0  0  0  0  0  0  0  0  0  0  0  0
  -10.0231   12.5881  -34.1915 C   0  0  0  0  0  0  0  0  0  0  0  0
   -7.9661   14.0119  -34.4143 C   0  0  0  0  0  0  0  0  0  0  0  0
   -9.4307   13.8486  -34.8179 C   0  0  0  0  0  0  0  0  0  0  0  0
  -10.8074   14.8579  -37.7391 N   0  0  0  0  0  0  0  0  0  0  0  0
  -15.1701   14.1014  -40.5117 O   0  0  0  0  0  0  0  0  0  0  0  0
   -8.8236   15.7689  -36.9350 O   0  0  0  0  0  0  0  0  0  0  0  0
  -14.7574   16.3324  -40.2924 O   0  0  0  0  0  0  0  0  0  0  0  0
   -9.4975   13.6958  -36.2405 O   0  0  0  0  0  0  0  0  0  0  0  0
  -13.3878   15.0943  -36.1799 H   0  0  0  0  0  0  0  0  0  0  0  0
  -14.8220   15.2077  -37.2017 H   0  0  0  0  0  0  0  0  0  0  0  0
  -14.1107   17.1846  -38.0547 H   0  0  0  0  0  0  0  0  0  0  0  0
  -12.6341   17.1258  -37.0922 H   0  0  0  0  0  0  0  0  0  0  0  0
  -11.7856   13.2665  -36.7517 H   0  0  0  0  0  0  0  0  0  0  0  0
  -11.3617   12.9855  -38.4419 H   0  0  0  0  0  0  0  0  0  0  0  0
  -10.4503   15.5977  -39.6420 H   0  0  0  0  0  0  0  0  0  0  0  0
  -10.5122   16.8380  -38.3900 H   0  0  0  0  0  0  0  0  0  0  0  0
  -12.4776   14.3106  -40.2273 H   0  0  0  0  0  0  0  0  0  0  0  0
  -13.8388   13.2708  -38.1783 H   0  0  0  0  0  0  0  0  0  0  0  0
  -12.5503   16.9616  -39.8392 H   0  0  0  0  0  0  0  0  0  0  0  0
   -9.8233   15.9863  -34.8701 H   0  0  0  0  0  0  0  0  0  0  0  0
  -11.2901   14.9899  -34.7373 H   0  0  0  0  0  0  0  0  0  0  0  0
  -10.2227   15.2311  -33.3372 H   0  0  0  0  0  0  0  0  0  0  0  0
   -9.4418   11.7025  -34.4726 H   0  0  0  0  0  0  0  0  0  0  0  0
  -11.0433   12.4151  -34.5528 H   0  0  0  0  0  0  0  0  0  0  0  0
  -10.0486   12.6536  -33.0989 H   0  0  0  0  0  0  0  0  0  0  0  0
   -7.3816   13.1292  -34.6979 H   0  0  0  0  0  0  0  0  0  0  0  0
   -7.5139   14.8913  -34.8842 H   0  0  0  0  0  0  0  0  0  0  0  0
   -7.8701   14.1100  -33.3269 H   0  0  0  0  0  0  0  0  0  0  0  0
  -15.6341   16.4597  -40.7138 H   0  0  0  0  0  0  0  0  0  0  0  0
  1  7  1  0  0  0  0
  1 15  2  0  0  0  0
  1 17  1  0  0  0  0
  2 14  1  0  0  0  0
  2 16  2  0  0  0  0
  2 18  1  0  0  0  0
  3  4  1  0  0  0  0
  3  8  1  0  0  0  0
  4  9  1  0  0  0  0
  5  8  1  0  0  0  0
  5 14  1  0  0  0  0
  6  9  1  0  0  0  0
  6 14  1  0  0  0  0
  7  8  1  0  0  0  0
  7  9  1  0  0  0  0
 10 13  1  0  0  0  0
 11 13  1  0  0  0  0
 12 13  1  0  0  0  0
 13 18  1  0  0  0  0
  3 19  1  0  0  0  0
  3 20  1  0  0  0  0
  4 21  1  0  0  0  0
  4 22  1  0  0  0  0
  5 23  1  0  0  0  0
  5 24  1  0  0  0  0
  6 25  1  0  0  0  0
  6 26  1  0  0  0  0
  7 27  1  0  0  0  0
  8 28  1  0  0  0  0
  9 29  1  0  0  0  0
 10 30  1  0  0  0  0
 10 31  1  0  0  0  0
 10 32  1  0  0  0  0
 11 33  1  0  0  0  0
 11 34  1  0  0  0  0
 11 35  1  0  0  0  0
 12 36  1  0  0  0  0
 12 37  1  0  0  0  0
 12 38  1  0  0  0  0
 17 39  1  0  0  0  0
M  END
> <id>
EN300-268884

> <smiles>
CC(C)(C)OC(=O)N1CC2CCC(C1)C2C(=O)O

> <MDLNUMBER>
MFCD17016674

> <IUPAC Name>
3-[(tert-butoxy)carbonyl]-3-azabicyclo[3.2.1]octane-8-carboxylic acid

> <CAS>
1250997-29-5

> <Purity>
95

> <URL>
https://www.enaminestore.com/catalog/EN300-268884

> <ROCS_ShapeQuery>
_x1247relevant_x1083L0AP1_x1305L0BP1_

> <ROCS_TanimotoCombo>
0.817 

> <ROCS_ShapeTanimoto>
0.536 

> <ROCS_ColorTanimoto>
0.281 

> <ROCS_RefTversky>
0.457 

> <ROCS_RefColorTversky>
0.337 

> <ROCS_RefTverskyCombo>
0.793 

> <ROCS_FitTversky>
1.479 

> <ROCS_FitColorTversky>
0.630 

> <ROCS_FitTverskyCombo>
2.109 

> <ROCS_ColorScore>
-7.170

> <ROCS_Overlap>
1347.544

> <ROCS_Rank>
498                 

$$$$
untitled-dbase-181029_78
  -OEChem-06232314393D

 37 38  0     1  0  0  0  0  0999 V2000
  -10.0971   15.1509  -36.8506 C   0  0  0  0  0  0  0  0  0  0  0  0
  -13.0923   16.2975  -38.6220 C   0  0  0  0  0  0  0  0  0  0  0  0
  -11.2822   14.8173  -39.0509 C   0  0  0  0  0  0  0  0  0  0  0  0
  -13.3976   14.5390  -37.1224 C   0  0  0  0  0  0  0  0  0  0  0  0
  -12.5371   15.7960  -37.2875 C   0  0  2  0  0  0  0  0  0  0  0  0
  -12.7862   14.9763  -39.3120 C   0  0  2  0  0  0  0  0  0  0  0  0
  -12.6209   16.8030  -36.1618 C   0  0  0  0  0  0  0  0  0  0  0  0
   -9.0471   12.6967  -37.8784 C   0  0  0  0  0  0  0  0  0  0  0  0
   -6.9336   13.9886  -38.2946 C   0  0  0  0  0  0  0  0  0  0  0  0
   -7.7882   13.7108  -35.9493 C   0  0  0  0  0  0  0  0  0  0  0  0
  -13.2050   14.8563  -40.7554 C   0  0  0  0  0  0  0  0  0  0  0  0
   -8.1784   13.8665  -37.4184 C   0  0  0  0  0  0  0  0  0  0  0  0
  -11.1920   15.3252  -37.6795 N   0  0  0  0  0  0  0  0  0  0  0  0
  -10.1447   15.0745  -35.6261 O   0  0  0  0  0  0  0  0  0  0  0  0
  -13.4751   14.0067  -38.4760 O   0  0  0  0  0  0  0  0  0  0  0  0
   -8.9295   15.0770  -37.5648 O   0  0  0  0  0  0  0  0  0  0  0  0
  -15.2974   14.4621  -40.9209 I   0  0  0  0  0  0  0  0  0  0  0  0
  -14.1643   16.5216  -38.5757 H   0  0  0  0  0  0  0  0  0  0  0  0
  -12.5494   17.1542  -39.0359 H   0  0  0  0  0  0  0  0  0  0  0  0
  -10.9466   13.7760  -39.0800 H   0  0  0  0  0  0  0  0  0  0  0  0
  -10.6580   15.4428  -39.6967 H   0  0  0  0  0  0  0  0  0  0  0  0
  -12.9592   13.7872  -36.4587 H   0  0  0  0  0  0  0  0  0  0  0  0
  -14.4171   14.7633  -36.7909 H   0  0  0  0  0  0  0  0  0  0  0  0
  -12.2089   16.3829  -35.2397 H   0  0  0  0  0  0  0  0  0  0  0  0
  -13.6611   17.0863  -35.9771 H   0  0  0  0  0  0  0  0  0  0  0  0
  -12.0564   17.7059  -36.4119 H   0  0  0  0  0  0  0  0  0  0  0  0
   -9.9417   12.6057  -37.2519 H   0  0  0  0  0  0  0  0  0  0  0  0
   -9.3627   12.8138  -38.9202 H   0  0  0  0  0  0  0  0  0  0  0  0
   -8.5066   11.7478  -37.7850 H   0  0  0  0  0  0  0  0  0  0  0  0
   -6.3074   14.8267  -37.9682 H   0  0  0  0  0  0  0  0  0  0  0  0
   -7.2078   14.1952  -39.3355 H   0  0  0  0  0  0  0  0  0  0  0  0
   -6.3308   13.0751  -38.2697 H   0  0  0  0  0  0  0  0  0  0  0  0
   -7.1651   14.5498  -35.6191 H   0  0  0  0  0  0  0  0  0  0  0  0
   -8.6692   13.6586  -35.3013 H   0  0  0  0  0  0  0  0  0  0  0  0
   -7.1911   12.8041  -35.7987 H   0  0  0  0  0  0  0  0  0  0  0  0
  -12.6429   14.0489  -41.2454 H   0  0  0  0  0  0  0  0  0  0  0  0
  -12.9652   15.7825  -41.2964 H   0  0  0  0  0  0  0  0  0  0  0  0
  1 13  1  0  0  0  0
  1 14  2  0  0  0  0
  1 16  1  0  0  0  0
  2  5  1  0  0  0  0
  2  6  1  0  0  0  0
  3  6  1  0  0  0  0
  3 13  1  0  0  0  0
  4  5  1  0  0  0  0
  4 15  1  0  0  0  0
  5  7  1  0  0  0  0
  5 13  1  0  0  0  0
  6 11  1  0  0  0  0
  6 15  1  0  0  0  0
  8 12  1  0  0  0  0
  9 12  1  0  0  0  0
 10 12  1  0  0  0  0
 11 17  1  0  0  0  0
 12 16  1  0  0  0  0
  2 18  1  0  0  0  0
  2 19  1  0  0  0  0
  3 20  1  0  0  0  0
  3 21  1  0  0  0  0
  4 22  1  0  0  0  0
  4 23  1  0  0  0  0
  7 24  1  0  0  0  0
  7 25  1  0  0  0  0
  7 26  1  0  0  0  0
  8 27  1  0  0  0  0
  8 28  1  0  0  0  0
  8 29  1  0  0  0  0
  9 30  1  0  0  0  0
  9 31  1  0  0  0  0
  9 32  1  0  0  0  0
 10 33  1  0  0  0  0
 10 34  1  0  0  0  0
 10 35  1  0  0  0  0
 11 36  1  0  0  0  0
 11 37  1  0  0  0  0
M  END
> <id>
EN300-45274168

> <smiles>
CC(C)(C)OC(=O)N1CC2(CI)CC1(C)CO2

> <IUPAC Name>
tert-butyl 1-(iodomethyl)-4-methyl-2-oxa-5-azabicyclo[2.2.1]heptane-5-carboxylate

> <Purity>
95

> <URL>
https://www.enaminestore.com/catalog/EN300-45274168

> <ROCS_ShapeQuery>
_x1247relevant_x1083L0AP1_x1305L0BP1_

> <ROCS_TanimotoCombo>
0.817 

> <ROCS_ShapeTanimoto>
0.475 

> <ROCS_ColorTanimoto>
0.342 

> <ROCS_RefTversky>
0.416 

> <ROCS_RefColorTversky>
0.387 

> <ROCS_RefTverskyCombo>
0.803 

> <ROCS_FitTversky>
1.420 

> <ROCS_FitColorTversky>
0.748 

> <ROCS_FitTverskyCombo>
2.168 

> <ROCS_ColorScore>
-8.226

> <ROCS_Overlap>
1227.393

> <ROCS_Rank>
499                 

$$$$
untitled-dbase-135970_2
  -OEChem-06232314393D

 24 26  0     1  0  0  0  0  0999 V2000
  -13.4941   16.3377  -39.3237 C   0  0  0  0  0  0  0  0  0  0  0  0
  -12.3621   15.5482  -40.0173 C   0  0  0  0  0  0  0  0  0  0  0  0
  -12.0812   16.6267  -37.2787 C   0  0  0  0  0  0  0  0  0  0  0  0
  -13.4472   16.1123  -37.7952 C   0  0  2  0  0  0  0  0  0  0  0  0
  -11.5107   14.8073  -38.9600 C   0  0  2  0  0  0  0  0  0  0  0  0
  -13.5078   14.6331  -37.4713 C   0  0  2  0  0  0  0  0  0  0  0  0
  -12.3939   13.8814  -38.1405 C   0  0  1  0  0  0  0  0  0  0  0  0
  -10.9332   15.8923  -38.0140 C   0  0  2  0  0  0  0  0  0  0  0  0
   -9.1956   16.3057  -36.0978 O   0  0  0  0  0  0  0  0  0  0  0  0
   -8.9182   14.2744  -37.5849 O   0  0  0  0  0  0  0  0  0  0  0  0
  -13.7587   13.7185  -38.5418 O   0  0  0  0  0  0  0  0  0  0  0  0
  -10.5990   14.3528  -35.8488 F   0  0  0  0  0  0  0  0  0  0  0  0
   -9.7552   15.2195  -36.8753 S   0  0  0  0  0  0  0  0  0  0  0  0
  -13.3947   17.4056  -39.5519 H   0  0  0  0  0  0  0  0  0  0  0  0
  -14.4632   16.0187  -39.7261 H   0  0  0  0  0  0  0  0  0  0  0  0
  -12.7934   14.8333  -40.7285 H   0  0  0  0  0  0  0  0  0  0  0  0
  -11.7363   16.2327  -40.6021 H   0  0  0  0  0  0  0  0  0  0  0  0
  -11.9980   17.7055  -37.4586 H   0  0  0  0  0  0  0  0  0  0  0  0
  -12.0183   16.4819  -36.1933 H   0  0  0  0  0  0  0  0  0  0  0  0
  -14.2702   16.6430  -37.3059 H   0  0  0  0  0  0  0  0  0  0  0  0
  -10.7139   14.2343  -39.4459 H   0  0  0  0  0  0  0  0  0  0  0  0
  -13.7871   14.3788  -36.4607 H   0  0  0  0  0  0  0  0  0  0  0  0
  -11.8923   13.0846  -37.6143 H   0  0  0  0  0  0  0  0  0  0  0  0
  -10.3578   16.6197  -38.6007 H   0  0  0  0  0  0  0  0  0  0  0  0
  1  2  1  0  0  0  0
  1  4  1  0  0  0  0
  2  5  1  1  0  0  0
  3  4  1  6  0  0  0
  3  8  1  0  0  0  0
  4  6  1  0  0  0  0
  5  7  1  0  0  0  0
  5  8  1  0  0  0  0
  6  7  1  0  0  0  0
  6 11  1  1  0  0  0
  7 11  1  1  0  0  0
  8 13  1  6  0  0  0
  9 13  2  0  0  0  0
 10 13  2  0  0  0  0
 12 13  1  0  0  0  0
  1 14  1  0  0  0  0
  1 15  1  0  0  0  0
  2 16  1  0  0  0  0
  2 17  1  0  0  0  0
  3 18  1  0  0  0  0
  3 19  1  0  0  0  0
  4 20  1  0  0  0  0
  5 21  1  0  0  0  0
  6 22  1  0  0  0  0
  7 23  1  0  0  0  0
  8 24  1  0  0  0  0
M  END
> <id>
EN300-7354343

> <smiles>
FS(=O)(=O)[C@@H]1C[C@H]2CC[C@@H]1[C@@H]3O[C@@H]32 |&1:4,6,9,10,12,r|

> <IUPAC Name>
rac-(1R,2R,4S,5R,6R)-3-oxatricyclo[3.2.2.0,2,4]nonane-6-sulfonyl fluoride

> <CAS>
2309433-17-6

> <Purity>
95

> <URL>
https://www.enaminestore.com/catalog/EN300-7354343

> <ROCS_ShapeQuery>
_x1247relevant_x1083L0AP1_x1305L0BP1_

> <ROCS_TanimotoCombo>
0.817 

> <ROCS_ShapeTanimoto>
0.473 

> <ROCS_ColorTanimoto>
0.344 

> <ROCS_RefTversky>
0.397 

> <ROCS_RefColorTversky>
0.464 

> <ROCS_RefTverskyCombo>
0.861 

> <ROCS_FitTversky>
1.685 

> <ROCS_FitColorTversky>
0.570 

> <ROCS_FitTverskyCombo>
2.255 

> <ROCS_ColorScore>
-10.037

> <ROCS_Overlap>
1165.706

> <ROCS_Rank>
500                 

$$$$
