x0133_1B§1
     RDKit          3D

 13 13  0  0  0  0  0  0  0  0999 V2000
  -31.1470    1.1010  -39.5710 N   0  0  0  0  0  0  0  0  0  0  0  0
  -25.4000    0.6780  -44.8940 C   0  0  0  0  0  0  0  0  0  0  0  0
  -31.2170   -1.2550  -40.2640 O   0  0  0  0  0  0  0  0  0  0  0  0
  -26.3890    0.4850  -43.7740 C   0  0  0  0  0  0  0  0  0  0  0  0
  -30.8060    0.5170  -41.9350 O   0  0  0  0  0  0  0  0  0  0  0  0
  -26.7170   -0.7890  -43.3190 C   0  0  0  0  0  0  0  0  0  0  0  0
  -27.5380   -0.9740  -42.2230 C   0  0  0  0  0  0  0  0  0  0  0  0
  -28.0620    0.1090  -41.5370 C   0  0  0  0  0  0  0  0  0  0  0  0
  -28.8780   -0.0910  -40.2910 C   0  0  0  0  0  0  0  0  0  0  0  0
  -27.7780    1.3880  -42.0000 C   0  0  0  0  0  0  0  0  0  0  0  0
  -26.9630    1.5380  -43.0960 C   0  0  0  0  0  0  0  0  0  0  0  0
  -26.7260    2.7900  -43.5450 F   0  0  0  0  0  0  0  0  0  0  0  0
  -30.6340    0.0000  -40.6150 S   0  0  1  0  0  0  0  0  0  0  0  0
 13  1  1  1
  2  4  1  0
  3 13  2  0
  4  6  2  0
  4 11  1  0
  5 13  2  0
  6  7  1  0
  7  8  2  0
  8  9  1  0
  8 10  1  0
  9 13  1  0
 10 11  2  0
 11 12  1  0
A    1
 N  
A    2
 C  
A    3
 O  
A    4
 C1 
A    5
 O1 
A    6
 C2 
A    7
 C3 
A    8
 C4 
A    9
 C5 
A   10
 C6 
A   11
 C7 
A   12
 F  
A   13
 S  
M  END
>  <XChem_code>  (1) 
D68EV3CPROA-x0133

>  <Occupancy>  (1) 
[0.35, 0.35, 0.35, 0.35, 0.35, 0.35, 0.35, 0.35, 0.35, 0.35, 0.35, 0.35, 0.35]

>  <TempFactor>  (1) 
[84.63, 63.16, 85.93, 62.82, 85.97, 63.93, 63.71, 65.58, 72.43, 63.72, 61.62, 60.02, 84.86]

>  <RealCrystalName>  (1) 
D68EV3CPROA-x0133

>  <smiles>  (1) 
Cc1ccc(CS(=O)(=O)N)cc1F

>  <new_smiles>  (1) 
Cc1ccc(CS(=O)(=O)N)cc1F

>  <alternate_name>  (1) 
Z1143279263

>  <site_name>  (1) 
4

>  <pdb_entry>  (1) 
nan

>  <mol>  (1) 
<rdkit.Chem.rdchem.Mol object at 0x16324cc80>

>  <single_smiles>  (1) 
Cc1ccc(CS(N)(=O)=O)cc1F

>  <base_name>  (1) 
D68EV3CPROA-x0133_1B

>  <lig_resn>  (1) 
LIG

>  <lig_resi>  (1) 
201

>  <lig_chain>  (1) 
B

>  <lig_segi>  (1) 


>  <lig_alt>  (1) 
A

>  <polymer_chain>  (1) 
B

$$$$
x0133_1B§2
     RDKit          3D

 13 13  0  0  0  0  0  0  0  0999 V2000
  -30.5660   -0.7430  -42.1620 N   0  0  0  0  0  0  0  0  0  0  0  0
  -25.1740    0.8500  -45.1350 C   0  0  0  0  0  0  0  0  0  0  0  0
  -30.3590    1.6260  -41.5420 O   0  0  0  0  0  0  0  0  0  0  0  0
  -26.0860    0.6180  -43.9570 C   0  0  0  0  0  0  0  0  0  0  0  0
  -31.1660   -0.0290  -39.8820 O   0  0  0  0  0  0  0  0  0  0  0  0
  -26.4810   -0.6650  -43.5880 C   0  0  0  0  0  0  0  0  0  0  0  0
  -27.2910   -0.8810  -42.4890 C   0  0  0  0  0  0  0  0  0  0  0  0
  -27.7280    0.1790  -41.7090 C   0  0  0  0  0  0  0  0  0  0  0  0
  -28.6330   -0.0480  -40.5300 C   0  0  0  0  0  0  0  0  0  0  0  0
  -27.3460    1.4660  -42.0640 C   0  0  0  0  0  0  0  0  0  0  0  0
  -26.5520    1.6470  -43.1670 C   0  0  0  0  0  0  0  0  0  0  0  0
  -26.2130    2.9090  -43.4940 F   0  0  0  0  0  0  0  0  0  0  0  0
  -30.3230    0.3120  -40.9840 S   0  0  1  0  0  0  0  0  0  0  0  0
 13  1  1  6
  2  4  1  0
  3 13  2  0
  4  6  2  0
  4 11  1  0
  5 13  2  0
  6  7  1  0
  7  8  2  0
  8  9  1  0
  8 10  1  0
  9 13  1  0
 10 11  2  0
 11 12  1  0
A    1
 N  
A    2
 C  
A    3
 O  
A    4
 C1 
A    5
 O1 
A    6
 C2 
A    7
 C3 
A    8
 C4 
A    9
 C5 
A   10
 C6 
A   11
 C7 
A   12
 F  
A   13
 S  
M  END
>  <XChem_code>  (2) 
D68EV3CPROA-x0133

>  <Occupancy>  (2) 
[0.4, 0.4, 0.4, 0.4, 0.4, 0.4, 0.4, 0.4, 0.4, 0.4, 0.4, 0.4, 0.4]

>  <TempFactor>  (2) 
[28.79, 26.78, 30.94, 26.5, 29.74, 25.13, 25.13, 26.58, 27.65, 26.99, 27.01, 29.23, 28.34]

>  <RealCrystalName>  (2) 
D68EV3CPROA-x0133

>  <smiles>  (2) 
Cc1ccc(CS(=O)(=O)N)cc1F

>  <new_smiles>  (2) 
Cc1ccc(CS(=O)(=O)N)cc1F

>  <alternate_name>  (2) 
Z1143279263

>  <site_name>  (2) 
4

>  <pdb_entry>  (2) 
nan

>  <mol>  (2) 
<rdkit.Chem.rdchem.Mol object at 0x16324cc80>

>  <single_smiles>  (2) 
Cc1ccc(CS(N)(=O)=O)cc1F

>  <base_name>  (2) 
D68EV3CPROA-x0133_1B

>  <lig_resn>  (2) 
LIG

>  <lig_resi>  (2) 
201

>  <lig_chain>  (2) 
A

>  <lig_segi>  (2) 


>  <lig_alt>  (2) 


>  <polymer_chain>  (2) 
A

$$$$
x0133_1B§3
     RDKit          3D

 13 13  0  0  0  0  0  0  0  0999 V2000
  -31.0960    1.1720  -39.4080 N   0  0  0  0  0  0  0  0  0  0  0  0
  -25.1480    1.1940  -44.7150 C   0  0  0  0  0  0  0  0  0  0  0  0
  -31.3780   -0.8160  -40.8230 O   0  0  0  0  0  0  0  0  0  0  0  0
  -26.2590    0.9030  -43.7390 C   0  0  0  0  0  0  0  0  0  0  0  0
  -30.7180    1.3410  -41.8280 O   0  0  0  0  0  0  0  0  0  0  0  0
  -26.8400    1.9180  -42.9860 C   0  0  0  0  0  0  0  0  0  0  0  0
  -27.7290    1.6390  -41.9650 C   0  0  0  0  0  0  0  0  0  0  0  0
  -28.0770    0.3320  -41.6610 C   0  0  0  0  0  0  0  0  0  0  0  0
  -28.9300    0.0230  -40.4650 C   0  0  0  0  0  0  0  0  0  0  0  0
  -27.5500   -0.6910  -42.4430 C   0  0  0  0  0  0  0  0  0  0  0  0
  -26.6670   -0.3790  -43.4470 C   0  0  0  0  0  0  0  0  0  0  0  0
  -26.1550   -1.3850  -44.1930 F   0  0  0  0  0  0  0  0  0  0  0  0
  -30.6520    0.4130  -40.7470 S   0  0  1  0  0  0  0  0  0  0  0  0
 13  1  1  1
  2  4  1  0
  3 13  2  0
  4  6  2  0
  4 11  1  0
  5 13  2  0
  6  7  1  0
  7  8  2  0
  8  9  1  0
  8 10  1  0
  9 13  1  0
 10 11  2  0
 11 12  1  0
A    1
 N  
A    2
 C  
A    3
 O  
A    4
 C1 
A    5
 O1 
A    6
 C2 
A    7
 C3 
A    8
 C4 
A    9
 C5 
A   10
 C6 
A   11
 C7 
A   12
 F  
A   13
 S  
M  END
>  <XChem_code>  (3) 
D68EV3CPROA-x0133

>  <Occupancy>  (3) 
[0.34, 0.34, 0.34, 0.34, 0.34, 0.34, 0.34, 0.34, 0.34, 0.34, 0.34, 0.34, 0.34]

>  <TempFactor>  (3) 
[64.94, 49.37, 65.75, 49.61, 66.72, 50.14, 51.77, 52.5, 56.76, 50.14, 50.05, 46.49, 64.5]

>  <RealCrystalName>  (3) 
D68EV3CPROA-x0133

>  <smiles>  (3) 
Cc1ccc(CS(=O)(=O)N)cc1F

>  <new_smiles>  (3) 
Cc1ccc(CS(=O)(=O)N)cc1F

>  <alternate_name>  (3) 
Z1143279263

>  <site_name>  (3) 
4

>  <pdb_entry>  (3) 
nan

>  <mol>  (3) 
<rdkit.Chem.rdchem.Mol object at 0x16324cc80>

>  <single_smiles>  (3) 
Cc1ccc(CS(N)(=O)=O)cc1F

>  <base_name>  (3) 
D68EV3CPROA-x0133_1B

>  <lig_resn>  (3) 
LIG

>  <lig_resi>  (3) 
201

>  <lig_chain>  (3) 
B

>  <lig_segi>  (3) 


>  <lig_alt>  (3) 
B

>  <polymer_chain>  (3) 
B

$$$$
x0128_0A§1
     RDKit          3D

 11 11  0  0  0  0  0  0  0  0999 V2000
    1.3410    3.9530  -24.4280 N   0  0  0  0  0  0  0  0  0  0  0  0
    1.1670    1.8960  -25.6860 C   0  0  0  0  0  0  0  0  0  0  0  0
    2.9040    2.3280  -24.1070 O   0  0  0  0  0  0  0  0  0  0  0  0
    1.8760    2.7230  -24.6580 C   0  0  0  0  0  0  0  0  0  0  0  0
   -2.0650    4.7720  -25.6870 N   0  0  0  0  0  0  0  0  0  0  0  0
    0.0030    4.4370  -24.4780 C   0  0  0  0  0  0  0  0  0  0  0  0
   -0.8710    4.1910  -25.5420 C   0  0  0  0  0  0  0  0  0  0  0  0
   -2.4370    5.6410  -24.7470 C   0  0  0  0  0  0  0  0  0  0  0  0
   -1.6690    5.9390  -23.6400 C   0  0  0  0  0  0  0  0  0  0  0  0
   -0.4250    5.3330  -23.4760 C   0  0  0  0  0  0  0  0  0  0  0  0
    0.4230    5.6450  -22.2680 C   0  0  0  0  0  0  0  0  0  0  0  0
  1  4  1  0
  1  6  1  0
  2  4  1  0
  3  4  2  0
  5  7  2  0
  5  8  1  0
  6  7  1  0
  6 10  2  0
  8  9  2  0
  9 10  1  0
 10 11  1  0
A    1
 N  
A    2
 C  
A    3
 O  
A    4
 C1 
A    5
 N1 
A    6
 C2 
A    7
 C3 
A    8
 C4 
A    9
 C5 
A   10
 C6 
A   11
 C7 
M  END
>  <XChem_code>  (4) 
D68EV3CPROA-x0128

>  <Occupancy>  (4) 
[0.54, 0.54, 0.54, 0.54, 0.54, 0.54, 0.54, 0.54, 0.54, 0.54, 0.54]

>  <TempFactor>  (4) 
[44.46, 43.88, 44.93, 45.19, 42.07, 44.0, 42.36, 42.05, 43.96, 44.05, 44.62]

>  <RealCrystalName>  (4) 
D68EV3CPROA-x0128

>  <smiles>  (4) 
CC(=O)Nc1cnccc1C

>  <new_smiles>  (4) 
CC(=O)Nc1cnccc1C

>  <alternate_name>  (4) 
Z1129283193

>  <site_name>  (4) 
3

>  <pdb_entry>  (4) 
nan

>  <mol>  (4) 
<rdkit.Chem.rdchem.Mol object at 0x16324d000>

>  <single_smiles>  (4) 
CC(=O)Nc1cnccc1C

>  <base_name>  (4) 
D68EV3CPROA-x0128_0A

>  <lig_resn>  (4) 
LIG

>  <lig_resi>  (4) 
201

>  <lig_chain>  (4) 
A

>  <lig_segi>  (4) 


>  <lig_alt>  (4) 


>  <polymer_chain>  (4) 
A

$$$$
x0128_0A§2
     RDKit          3D

 11 11  0  0  0  0  0  0  0  0999 V2000
  -12.2990   -0.5380  -14.2430 N   0  0  0  0  0  0  0  0  0  0  0  0
  -11.5170   -2.5780  -15.2780 C   0  0  0  0  0  0  0  0  0  0  0  0
  -13.6320   -1.5830  -15.7650 O   0  0  0  0  0  0  0  0  0  0  0  0
  -12.5710   -1.5230  -15.1420 C   0  0  0  0  0  0  0  0  0  0  0  0
   -8.8500   -0.1380  -12.8990 N   0  0  0  0  0  0  0  0  0  0  0  0
  -11.0770    0.0600  -13.8230 C   0  0  0  0  0  0  0  0  0  0  0  0
   -9.9440   -0.6710  -13.4550 C   0  0  0  0  0  0  0  0  0  0  0  0
   -8.8540    1.1770  -12.6890 C   0  0  0  0  0  0  0  0  0  0  0  0
   -9.9050    2.0000  -13.0390 C   0  0  0  0  0  0  0  0  0  0  0  0
  -11.0470    1.4570  -13.6250 C   0  0  0  0  0  0  0  0  0  0  0  0
  -12.2000    2.3450  -14.0170 C   0  0  0  0  0  0  0  0  0  0  0  0
  1  4  1  0
  1  6  1  0
  2  4  1  0
  3  4  2  0
  5  7  2  0
  5  8  1  0
  6  7  1  0
  6 10  2  0
  8  9  2  0
  9 10  1  0
 10 11  1  0
A    1
 N  
A    2
 C  
A    3
 O  
A    4
 C1 
A    5
 N1 
A    6
 C2 
A    7
 C3 
A    8
 C4 
A    9
 C5 
A   10
 C6 
A   11
 C7 
M  END
>  <XChem_code>  (5) 
D68EV3CPROA-x0128

>  <Occupancy>  (5) 
[0.54, 0.54, 0.54, 0.54, 0.54, 0.54, 0.54, 0.54, 0.54, 0.54, 0.54]

>  <TempFactor>  (5) 
[44.46, 43.88, 44.93, 45.19, 42.07, 44.0, 42.36, 42.05, 43.96, 44.05, 44.62]

>  <RealCrystalName>  (5) 
D68EV3CPROA-x0128

>  <smiles>  (5) 
CC(=O)Nc1cnccc1C

>  <new_smiles>  (5) 
CC(=O)Nc1cnccc1C

>  <alternate_name>  (5) 
Z1129283193

>  <site_name>  (5) 
3

>  <pdb_entry>  (5) 
nan

>  <mol>  (5) 
<rdkit.Chem.rdchem.Mol object at 0x16324d000>

>  <single_smiles>  (5) 
CC(=O)Nc1cnccc1C

>  <base_name>  (5) 
D68EV3CPROA-x0128_0A

>  <lig_resn>  (5) 
LIG

>  <lig_resi>  (5) 
201

>  <lig_chain>  (5) 
A

>  <lig_segi>  (5) 


>  <lig_alt>  (5) 


>  <polymer_chain>  (5) 
B

$$$$
x1052_0A§1
     RDKit          3D

 14 14  0  0  0  0  0  0  0  0999 V2000
  -22.4830   19.3570  -21.6960 N   0  0  0  0  0  0  0  0  0  0  0  0
  -19.0560   18.5470  -19.4690 C   0  0  0  0  0  0  0  0  0  0  0  0
  -19.4060   19.8540  -19.9950 O   0  0  0  0  0  0  0  0  0  0  0  0
  -20.1420   19.9030  -21.1170 C   0  0  0  0  0  0  0  0  0  0  0  0
  -25.5790   17.5940  -21.6130 N   0  0  0  0  0  0  0  0  0  0  0  0
  -19.9330   20.6790  -22.0150 O   0  0  0  0  0  0  0  0  0  0  0  0
  -21.2590   18.8890  -21.0800 C   0  0  0  0  0  0  0  0  0  0  0  0
  -23.9810   19.2820  -20.0090 O   0  0  0  0  0  0  0  0  0  0  0  0
  -23.6750   19.0450  -21.1800 C   0  0  0  0  0  0  0  0  0  0  0  0
  -26.2290   17.0810  -22.7590 O   0  0  0  0  0  0  0  0  0  0  0  0
  -24.6190   18.3580  -22.0940 C   0  0  0  0  0  0  0  0  0  0  0  0
  -24.6110   18.3810  -23.4960 C   0  0  0  0  0  0  0  0  0  0  0  0
  -25.6200   17.5750  -23.8590 C   0  0  0  0  0  0  0  0  0  0  0  0
  -26.1770   17.1370  -25.1640 C   0  0  0  0  0  0  0  0  0  0  0  0
  1  7  1  0
  1  9  1  0
  2  3  1  0
  3  4  1  0
  4  6  2  0
  4  7  1  0
  5 10  1  0
  5 11  2  0
  8  9  2  0
  9 11  1  0
 10 13  1  0
 11 12  1  0
 12 13  2  0
 13 14  1  0
A    1
 N  
A    2
 C  
A    3
 O  
A    4
 C1 
A    5
 N1 
A    6
 O1 
A    7
 C2 
A    8
 O2 
A    9
 C3 
A   10
 O3 
A   11
 C4 
A   12
 C5 
A   13
 C6 
A   14
 C7 
M  END
>  <XChem_code>  (6) 
D68EV3CPROA-x1052

>  <Occupancy>  (6) 
[0.7, 0.7, 0.7, 0.7, 0.7, 0.7, 0.7, 0.7, 0.7, 0.7, 0.7, 0.7, 0.7, 0.7]

>  <TempFactor>  (6) 
[61.03, 58.77, 61.05, 60.8, 56.63, 59.18, 60.15, 64.17, 60.74, 58.66, 59.2, 56.56, 57.51, 54.82]

>  <RealCrystalName>  (6) 
D68EV3CPROA-x1052

>  <smiles>  (6) 
COC(=O)CNC(=O)c1cc(C)on1

>  <new_smiles>  (6) 
COC(=O)CNC(=O)c1cc(C)on1

>  <alternate_name>  (6) 
Z375990520

>  <site_name>  (6) 
5

>  <pdb_entry>  (6) 
nan

>  <mol>  (6) 
<rdkit.Chem.rdchem.Mol object at 0x164f2b060>

>  <single_smiles>  (6) 
COC(=O)CNC(=O)c1cc(C)on1

>  <base_name>  (6) 
D68EV3CPROA-x1052_0A

>  <lig_resn>  (6) 
LIG

>  <lig_resi>  (6) 
301

>  <lig_chain>  (6) 
A

>  <lig_segi>  (6) 


>  <lig_alt>  (6) 


>  <polymer_chain>  (6) 
A

$$$$
x1052_0A§2
     RDKit          3D

 14 14  0  0  0  0  0  0  0  0999 V2000
   -8.9340   16.8010  -32.6350 N   0  0  0  0  0  0  0  0  0  0  0  0
  -10.7170   19.2530  -28.9520 C   0  0  0  0  0  0  0  0  0  0  0  0
   -9.5900   18.8570  -29.7700 O   0  0  0  0  0  0  0  0  0  0  0  0
   -9.8680   18.2240  -30.8990 C   0  0  0  0  0  0  0  0  0  0  0  0
   -8.7920   15.9030  -35.2540 N   0  0  0  0  0  0  0  0  0  0  0  0
  -10.8540   18.3850  -31.5170 O   0  0  0  0  0  0  0  0  0  0  0  0
   -8.7560   17.2950  -31.2850 C   0  0  0  0  0  0  0  0  0  0  0  0
   -9.2950   14.6660  -31.9880 O   0  0  0  0  0  0  0  0  0  0  0  0
   -9.1810   15.5110  -32.8840 C   0  0  0  0  0  0  0  0  0  0  0  0
   -9.0790   15.2200  -36.4650 O   0  0  0  0  0  0  0  0  0  0  0  0
   -9.3040   15.1370  -34.3130 C   0  0  0  0  0  0  0  0  0  0  0  0
   -9.9160   13.9860  -34.8470 C   0  0  0  0  0  0  0  0  0  0  0  0
   -9.7420   14.0850  -36.1740 C   0  0  0  0  0  0  0  0  0  0  0  0
  -10.0760   13.2130  -37.3290 C   0  0  0  0  0  0  0  0  0  0  0  0
  1  7  1  0
  1  9  1  0
  2  3  1  0
  3  4  1  0
  4  6  2  0
  4  7  1  0
  5 10  1  0
  5 11  2  0
  8  9  2  0
  9 11  1  0
 10 13  1  0
 11 12  1  0
 12 13  2  0
 13 14  1  0
A    1
 N  
A    2
 C  
A    3
 O  
A    4
 C1 
A    5
 N1 
A    6
 O1 
A    7
 C2 
A    8
 O2 
A    9
 C3 
A   10
 O3 
A   11
 C4 
A   12
 C5 
A   13
 C6 
A   14
 C7 
M  END
>  <XChem_code>  (7) 
D68EV3CPROA-x1052

>  <Occupancy>  (7) 
[0.7, 0.7, 0.7, 0.7, 0.7, 0.7, 0.7, 0.7, 0.7, 0.7, 0.7, 0.7, 0.7, 0.7]

>  <TempFactor>  (7) 
[35.38, 39.32, 40.62, 32.41, 41.61, 27.04, 35.25, 35.17, 39.06, 43.83, 40.83, 44.55, 43.47, 43.64]

>  <RealCrystalName>  (7) 
D68EV3CPROA-x1052

>  <smiles>  (7) 
COC(=O)CNC(=O)c1cc(C)on1

>  <new_smiles>  (7) 
COC(=O)CNC(=O)c1cc(C)on1

>  <alternate_name>  (7) 
Z375990520

>  <site_name>  (7) 
5

>  <pdb_entry>  (7) 
nan

>  <mol>  (7) 
<rdkit.Chem.rdchem.Mol object at 0x164f2b060>

>  <single_smiles>  (7) 
COC(=O)CNC(=O)c1cc(C)on1

>  <base_name>  (7) 
D68EV3CPROA-x1052_0A

>  <lig_resn>  (7) 
LIG

>  <lig_resi>  (7) 
201

>  <lig_chain>  (7) 
A

>  <lig_segi>  (7) 


>  <lig_alt>  (7) 


>  <polymer_chain>  (7) 
A

$$$$
x0712_0A§1
     RDKit          3D

 15 16  0  0  0  0  0  0  0  0999 V2000
  -27.5430    3.2170  -46.8230 N   0  0  0  0  0  0  0  0  0  0  0  0
  -27.8610    2.8150  -45.5840 C   0  0  0  0  0  0  0  0  0  0  0  0
  -28.7820    3.3340  -44.9500 O   0  0  0  0  0  0  0  0  0  0  0  0
  -28.4220    4.0560  -47.6360 C   0  0  2  0  0  0  0  0  0  0  0  0
  -26.8330    5.9900  -47.7410 N   0  0  0  0  0  0  0  0  0  0  0  0
  -28.2510    3.7460  -49.1240 C   0  0  0  0  0  0  0  0  0  0  0  0
  -27.2060    4.6500  -49.7750 C   0  0  0  0  0  0  0  0  0  0  0  0
  -26.2020    5.1250  -48.7530 C   0  0  0  0  0  0  0  0  0  0  0  0
  -28.1690    5.5270  -47.3490 C   0  0  0  0  0  0  0  0  0  0  0  0
  -27.0350    1.7030  -45.0030 C   0  0  0  0  0  0  0  0  0  0  0  0
  -27.6000    0.7860  -44.1100 C   0  0  0  0  0  0  0  0  0  0  0  0
  -26.8450   -0.2700  -43.6090 C   0  0  0  0  0  0  0  0  0  0  0  0
  -25.5270   -0.4270  -43.9850 C   0  0  0  0  0  0  0  0  0  0  0  0
  -24.9500    0.4780  -44.8570 C   0  0  0  0  0  0  0  0  0  0  0  0
  -25.6920    1.5390  -45.3620 C   0  0  0  0  0  0  0  0  0  0  0  0
  1  2  1  0
  4  1  1  1
  2  3  2  0
  2 10  1  0
  4  6  1  0
  4  9  1  0
  5  8  1  0
  5  9  1  0
  6  7  1  0
  7  8  1  0
 10 11  2  0
 10 15  1  0
 11 12  1  0
 12 13  2  0
 13 14  1  0
 14 15  2  0
A    1
 N  
A    2
 C  
A    3
 O  
A    4
 C1 
A    5
 N1 
A    6
 C2 
A    7
 C3 
A    8
 C4 
A    9
 C5 
A   10
 C6 
A   11
 C7 
A   12
 C8 
A   13
 C9 
A   14
 C10
A   15
 C11
M  END
>  <XChem_code>  (8) 
D68EV3CPROA-x0712

>  <Occupancy>  (8) 
[0.62, 0.62, 0.62, 0.62, 0.62, 0.62, 0.62, 0.62, 0.62, 0.62, 0.62, 0.62, 0.62, 0.62, 0.62]

>  <TempFactor>  (8) 
[39.77, 41.48, 36.85, 41.19, 41.36, 40.75, 41.07, 41.97, 41.58, 42.6, 44.3, 44.16, 42.64, 42.37, 43.03]

>  <RealCrystalName>  (8) 
D68EV3CPROA-x0712

>  <smiles>  (8) 
Cl.O=C(NC1CCCNC1)c2ccccc2

>  <new_smiles>  (8) 
Cl.O=C(NC1CCCNC1)c2ccccc2

>  <alternate_name>  (8) 
Z1456069604

>  <site_name>  (8) 
4

>  <pdb_entry>  (8) 
nan

>  <mol>  (8) 
<rdkit.Chem.rdchem.Mol object at 0x162e32b20>

>  <single_smiles>  (8) 
O=C(NC1CCCNC1)c1ccccc1

>  <base_name>  (8) 
D68EV3CPROA-x0712_0A

>  <lig_resn>  (8) 
LIG

>  <lig_resi>  (8) 
201

>  <lig_chain>  (8) 
A

>  <lig_segi>  (8) 


>  <lig_alt>  (8) 


>  <polymer_chain>  (8) 
A

$$$$
x1580_0B§1
     RDKit          3D

 14 15  0  0  0  0  0  0  0  0999 V2000
   -7.2160    1.7500  -53.4640 N   0  0  0  0  0  0  0  0  0  0  0  0
   -7.9340    0.6760  -52.7540 C   0  0  1  0  0  0  0  0  0  0  0  0
   -7.9580   -0.6190  -53.5600 C   0  0  0  0  0  0  0  0  0  0  0  0
   -8.6440   -0.6630  -54.7680 C   0  0  0  0  0  0  0  0  0  0  0  0
   -8.6900   -1.8290  -55.5110 C   0  0  0  0  0  0  0  0  0  0  0  0
   -8.0640   -2.9670  -55.0570 C   0  0  0  0  0  0  0  0  0  0  0  0
   -7.3940   -2.9440  -53.8560 C   0  0  0  0  0  0  0  0  0  0  0  0
   -7.3360   -1.7790  -53.1120 C   0  0  0  0  0  0  0  0  0  0  0  0
   -7.4890    0.5400  -51.3030 C   0  0  0  0  0  0  0  0  0  0  0  0
   -8.4210    0.2990  -50.3050 C   0  0  0  0  0  0  0  0  0  0  0  0
   -8.0270    0.1680  -48.9830 C   0  0  0  0  0  0  0  0  0  0  0  0
   -6.7020    0.2810  -48.6410 C   0  0  0  0  0  0  0  0  0  0  0  0
   -5.7600    0.5290  -49.6210 C   0  0  0  0  0  0  0  0  0  0  0  0
   -6.1500    0.6520  -50.9450 C   0  0  0  0  0  0  0  0  0  0  0  0
  2  1  1  6
  2  3  1  0
  2  9  1  0
  3  4  2  0
  3  8  1  0
  4  5  1  0
  5  6  2  0
  6  7  1  0
  7  8  2  0
  9 10  2  0
  9 14  1  0
 10 11  1  0
 11 12  2  0
 12 13  1  0
 13 14  2  0
A    1
 N  
A    2
 C  
A    3
 C1 
A    4
 C2 
A    5
 C3 
A    6
 C4 
A    7
 C5 
A    8
 C6 
A    9
 C7 
A   10
 C8 
A   11
 C9 
A   12
 C10
A   13
 C11
A   14
 C12
M  END
>  <XChem_code>  (9) 
D68EV3CPROA-x1580

>  <Occupancy>  (9) 
[0.74, 0.74, 0.74, 0.74, 0.74, 0.74, 0.74, 0.74, 0.74, 0.74, 0.74, 0.74, 0.74, 0.74]

>  <TempFactor>  (9) 
[41.41, 37.78, 36.62, 36.71, 38.33, 37.47, 36.54, 36.02, 34.03, 31.75, 30.72, 29.78, 31.2, 33.06]

>  <RealCrystalName>  (9) 
D68EV3CPROA-x1580

>  <smiles>  (9) 
NC(C=1C=CC=CC1)C=2C=CC=CC2

>  <new_smiles>  (9) 
NC(C=1C=CC=CC1)C=2C=CC=CC2

>  <alternate_name>  (9) 
Z44548882

>  <site_name>  (9) 
2

>  <pdb_entry>  (9) 
nan

>  <mol>  (9) 
<rdkit.Chem.rdchem.Mol object at 0x165034900>

>  <single_smiles>  (9) 
NC(c1ccccc1)c1ccccc1

>  <base_name>  (9) 
D68EV3CPROA-x1580_0B

>  <lig_resn>  (9) 
LIG

>  <lig_resi>  (9) 
201

>  <lig_chain>  (9) 
B

>  <lig_segi>  (9) 


>  <lig_alt>  (9) 


>  <polymer_chain>  (9) 
B

$$$$
x1532_0B§1
     RDKit          3D

  6  6  0  0  0  0  0  0  0  0999 V2000
   -9.2580    1.0120  -51.0240 N   0  0  0  0  0  0  0  0  0  0  0  0
   -8.1930    0.9330  -50.2390 C   0  0  0  0  0  0  0  0  0  0  0  0
   -6.9400    1.4520  -50.5510 C   0  0  0  0  0  0  0  0  0  0  0  0
   -6.9480    0.4700  -48.6050 N   0  0  0  0  0  0  0  0  0  0  0  0
   -6.1700    1.1300  -49.4710 C   0  0  0  0  0  0  0  0  0  0  0  0
   -8.2120    0.3370  -49.0630 N   0  0  0  0  0  0  0  0  0  0  0  0
  1  2  1  0
  2  3  1  0
  2  6  2  0
  3  5  2  0
  4  6  1  0
  4  5  1  0
A    1
 N  
A    2
 C  
A    3
 C1 
A    4
 N1 
A    5
 C2 
A    6
 N2 
M  END
>  <XChem_code>  (10) 
D68EV3CPROA-x1532

>  <Occupancy>  (10) 
[0.82, 0.82, 0.82, 0.82, 0.82, 0.82]

>  <TempFactor>  (10) 
[32.43, 33.34, 31.86, 33.32, 32.87, 33.44]

>  <RealCrystalName>  (10) 
D68EV3CPROA-x1532

>  <smiles>  (10) 
NC=1C=CNN1

>  <new_smiles>  (10) 
NC=1C=CNN1

>  <alternate_name>  (10) 
Z241119328

>  <site_name>  (10) 
2

>  <pdb_entry>  (10) 
nan

>  <mol>  (10) 
<rdkit.Chem.rdchem.Mol object at 0x165034580>

>  <single_smiles>  (10) 
Nc1cc[nH]n1

>  <base_name>  (10) 
D68EV3CPROA-x1532_0B

>  <lig_resn>  (10) 
LIG

>  <lig_resi>  (10) 
201

>  <lig_chain>  (10) 
B

>  <lig_segi>  (10) 


>  <lig_alt>  (10) 


>  <polymer_chain>  (10) 
B

$$$$
x1741_0B§1
     RDKit          3D

 10 11  0  0  0  0  0  0  0  0999 V2000
  -24.8150  -13.0850  -29.2820 N   0  0  0  0  0  0  0  0  0  0  0  0
  -24.6440  -14.2830  -28.8260 C   0  0  0  0  0  0  0  0  0  0  0  0
  -23.6640  -14.4970  -27.9110 O   0  0  0  0  0  0  0  0  0  0  0  0
  -25.3270  -15.5650  -29.2660 Cl  0  0  0  0  0  0  0  0  0  0  0  0
  -23.7990  -12.3760  -28.6350 C   0  0  0  0  0  0  0  0  0  0  0  0
  -23.3410  -11.0720  -28.7960 C   0  0  0  0  0  0  0  0  0  0  0  0
  -22.2080  -10.6710  -28.0900 C   0  0  0  0  0  0  0  0  0  0  0  0
  -21.5410  -11.5520  -27.2490 C   0  0  0  0  0  0  0  0  0  0  0  0
  -21.9890  -12.8530  -27.0900 C   0  0  0  0  0  0  0  0  0  0  0  0
  -23.1050  -13.2340  -27.8030 C   0  0  0  0  0  0  0  0  0  0  0  0
  1  2  2  0
  1  5  1  0
  2  3  1  0
  2  4  1  0
  3 10  1  0
  5  6  2  0
  5 10  1  0
  6  7  1  0
  7  8  2  0
  8  9  1  0
  9 10  2  0
A    1
 N  
A    2
 C  
A    3
 O  
A    4
CL  
A    5
 C1 
A    6
 C2 
A    7
 C3 
A    8
 C4 
A    9
 C5 
A   10
 C6 
M  END
>  <XChem_code>  (11) 
D68EV3CPROA-x1741

>  <Occupancy>  (11) 
[0.43, 0.43, 0.43, 0.43, 0.43, 0.43, 0.43, 0.43, 0.43, 0.43]

>  <TempFactor>  (11) 
[15.65, 17.58, 16.73, 20.48, 15.8, 15.56, 15.48, 15.56, 15.63, 16.17]

>  <RealCrystalName>  (11) 
D68EV3CPROA-x1741

>  <smiles>  (11) 
ClC1=NC=2C=CC=CC2O1

>  <new_smiles>  (11) 
ClC1=NC=2C=CC=CC2O1

>  <alternate_name>  (11) 
Z235343929

>  <site_name>  (11) 
5

>  <pdb_entry>  (11) 
nan

>  <mol>  (11) 
<rdkit.Chem.rdchem.Mol object at 0x1650350e0>

>  <single_smiles>  (11) 
Clc1nc2ccccc2o1

>  <base_name>  (11) 
D68EV3CPROA-x1741_0B

>  <lig_resn>  (11) 
LIG

>  <lig_resi>  (11) 
201

>  <lig_chain>  (11) 
B

>  <lig_segi>  (11) 


>  <lig_alt>  (11) 


>  <polymer_chain>  (11) 
B

$$$$
x0878_0B§1
     RDKit          3D

 14 14  0  0  0  0  0  0  0  0999 V2000
  -22.7340   23.3980  -36.9320 N   0  0  0  0  0  0  0  0  0  0  0  0
  -21.0700   21.7130  -39.9850 C   0  0  0  0  0  0  0  0  0  0  0  0
  -22.0770   22.4960  -39.3480 O   0  0  0  0  0  0  0  0  0  0  0  0
  -21.8010   23.8180  -39.1350 C   0  0  0  0  0  0  0  0  0  0  0  0
  -24.3050   23.1560  -33.5660 N   0  0  0  0  0  0  0  0  0  0  0  0
  -24.2330   24.7270  -35.8310 O   0  0  0  0  0  0  0  0  0  0  0  0
  -21.2120   24.6560  -40.0660 C   0  0  0  0  0  0  0  0  0  0  0  0
  -20.8860   25.9510  -39.7030 C   0  0  0  0  0  0  0  0  0  0  0  0
  -21.1410   26.4370  -38.4260 C   0  0  0  0  0  0  0  0  0  0  0  0
  -20.7550   27.8450  -38.0440 C   0  0  0  0  0  0  0  0  0  0  0  0
  -21.7530   25.5960  -37.5060 C   0  0  0  0  0  0  0  0  0  0  0  0
  -22.0940   24.2870  -37.8400 C   0  0  0  0  0  0  0  0  0  0  0  0
  -23.5190   23.7270  -35.8760 C   0  0  0  0  0  0  0  0  0  0  0  0
  -23.4670   22.7340  -34.6820 C   0  0  0  0  0  0  0  0  0  0  0  0
  1 12  1  0
  1 13  1  0
  2  3  1  0
  3  4  1  0
  4  7  2  0
  4 12  1  0
  5 14  1  0
  6 13  2  0
  7  8  1  0
  8  9  2  0
  9 10  1  0
  9 11  1  0
 11 12  2  0
 13 14  1  0
A    1
 N  
A    2
 C  
A    3
 O  
A    4
 C1 
A    5
 N1 
A    6
 O1 
A    7
 C2 
A    8
 C3 
A    9
 C4 
A   10
 C5 
A   11
 C6 
A   12
 C7 
A   13
 C8 
A   14
 C9 
M  END
>  <XChem_code>  (12) 
D68EV3CPROA-x0878

>  <Occupancy>  (12) 
[0.78, 0.78, 0.78, 0.78, 0.78, 0.78, 0.78, 0.78, 0.78, 0.78, 0.78, 0.78, 0.78, 0.78]

>  <TempFactor>  (12) 
[119.37, 115.44, 119.26, 121.03, 92.71, 121.17, 119.56, 119.23, 118.93, 119.35, 120.02, 122.36, 110.74, 99.78]

>  <RealCrystalName>  (12) 
D68EV3CPROA-x0878

>  <smiles>  (12) 
Cl.COc1ccc(C)cc1NC(=O)CN

>  <new_smiles>  (12) 
Cl.COc1ccc(C)cc1NC(=O)CN

>  <alternate_name>  (12) 
Z235341991

>  <site_name>  (12) 
2

>  <pdb_entry>  (12) 
nan

>  <mol>  (12) 
<rdkit.Chem.rdchem.Mol object at 0x164f2a260>

>  <single_smiles>  (12) 
COc1ccc(C)cc1NC(=O)CN

>  <base_name>  (12) 
D68EV3CPROA-x0878_0B

>  <lig_resn>  (12) 
LIG

>  <lig_resi>  (12) 
301

>  <lig_chain>  (12) 
A

>  <lig_segi>  (12) 


>  <lig_alt>  (12) 


>  <polymer_chain>  (12) 
A

$$$$
x0878_0B§2
     RDKit          3D

 14 14  0  0  0  0  0  0  0  0999 V2000
  -22.3980    3.6710  -50.6540 N   0  0  0  0  0  0  0  0  0  0  0  0
  -18.4980    4.0340  -50.1430 C   0  0  0  0  0  0  0  0  0  0  0  0
  -19.7920    4.0960  -50.7330 O   0  0  0  0  0  0  0  0  0  0  0  0
  -20.2240    3.0040  -51.4380 C   0  0  0  0  0  0  0  0  0  0  0  0
  -24.6420    6.1030  -52.2180 N   0  0  0  0  0  0  0  0  0  0  0  0
  -22.5340    5.9370  -50.4710 O   0  0  0  0  0  0  0  0  0  0  0  0
  -19.4020    2.1410  -52.1310 C   0  0  0  0  0  0  0  0  0  0  0  0
  -19.9630    1.1580  -52.9270 C   0  0  0  0  0  0  0  0  0  0  0  0
  -21.3410    1.0230  -53.0540 C   0  0  0  0  0  0  0  0  0  0  0  0
  -21.9340   -0.0030  -53.9890 C   0  0  0  0  0  0  0  0  0  0  0  0
  -22.1610    1.8780  -52.3280 C   0  0  0  0  0  0  0  0  0  0  0  0
  -21.6180    2.8600  -51.5060 C   0  0  0  0  0  0  0  0  0  0  0  0
  -22.9630    4.8660  -50.9050 C   0  0  0  0  0  0  0  0  0  0  0  0
  -24.2160    4.7820  -51.7950 C   0  0  0  0  0  0  0  0  0  0  0  0
  1 12  1  0
  1 13  1  0
  2  3  1  0
  3  4  1  0
  4  7  2  0
  4 12  1  0
  5 14  1  0
  6 13  2  0
  7  8  1  0
  8  9  2  0
  9 10  1  0
  9 11  1  0
 11 12  2  0
 13 14  1  0
A    1
 N  
A    2
 C  
A    3
 O  
A    4
 C1 
A    5
 N1 
A    6
 O1 
A    7
 C2 
A    8
 C3 
A    9
 C4 
A   10
 C5 
A   11
 C6 
A   12
 C7 
A   13
 C8 
A   14
 C9 
M  END
>  <XChem_code>  (13) 
D68EV3CPROA-x0878

>  <Occupancy>  (13) 
[0.72, 0.72, 0.72, 0.72, 0.72, 0.72, 0.72, 0.72, 0.72, 0.72, 0.72, 0.72, 0.72, 0.72]

>  <TempFactor>  (13) 
[69.11, 54.6, 58.56, 59.82, 79.07, 72.61, 58.24, 58.05, 60.67, 61.0, 59.9, 63.53, 73.06, 76.88]

>  <RealCrystalName>  (13) 
D68EV3CPROA-x0878

>  <smiles>  (13) 
Cl.COc1ccc(C)cc1NC(=O)CN

>  <new_smiles>  (13) 
Cl.COc1ccc(C)cc1NC(=O)CN

>  <alternate_name>  (13) 
Z235341991

>  <site_name>  (13) 
2

>  <pdb_entry>  (13) 
nan

>  <mol>  (13) 
<rdkit.Chem.rdchem.Mol object at 0x164f2a260>

>  <single_smiles>  (13) 
COc1ccc(C)cc1NC(=O)CN

>  <base_name>  (13) 
D68EV3CPROA-x0878_0B

>  <lig_resn>  (13) 
LIG

>  <lig_resi>  (13) 
201

>  <lig_chain>  (13) 
A

>  <lig_segi>  (13) 


>  <lig_alt>  (13) 


>  <polymer_chain>  (13) 
A

$$$$
x0878_0B§3
     RDKit          3D

 14 14  0  0  0  0  0  0  0  0999 V2000
   -5.5890    3.2740  -51.9630 N   0  0  0  0  0  0  0  0  0  0  0  0
   -2.8440    3.1910  -49.6160 C   0  0  0  0  0  0  0  0  0  0  0  0
   -3.5000    2.4220  -50.6270 O   0  0  0  0  0  0  0  0  0  0  0  0
   -4.6790    1.8130  -50.2910 C   0  0  0  0  0  0  0  0  0  0  0  0
   -6.9570    5.1340  -54.8140 N   0  0  0  0  0  0  0  0  0  0  0  0
   -7.6790    4.0780  -52.4440 O   0  0  0  0  0  0  0  0  0  0  0  0
   -4.8100    0.8270  -49.3220 C   0  0  0  0  0  0  0  0  0  0  0  0
   -6.0710    0.3390  -49.0210 C   0  0  0  0  0  0  0  0  0  0  0  0
   -7.2100    0.8030  -49.6710 C   0  0  0  0  0  0  0  0  0  0  0  0
   -8.5750    0.2550  -49.3320 C   0  0  0  0  0  0  0  0  0  0  0  0
   -7.0620    1.7800  -50.6470 C   0  0  0  0  0  0  0  0  0  0  0  0
   -5.8050    2.2920  -50.9710 C   0  0  0  0  0  0  0  0  0  0  0  0
   -6.5080    3.8710  -52.7620 C   0  0  0  0  0  0  0  0  0  0  0  0
   -5.9710    4.3190  -54.1490 C   0  0  0  0  0  0  0  0  0  0  0  0
  1 12  1  0
  1 13  1  0
  2  3  1  0
  3  4  1  0
  4  7  2  0
  4 12  1  0
  5 14  1  0
  6 13  2  0
  7  8  1  0
  8  9  2  0
  9 10  1  0
  9 11  1  0
 11 12  2  0
 13 14  1  0
A    1
 N  
A    2
 C  
A    3
 O  
A    4
 C1 
A    5
 N1 
A    6
 O1 
A    7
 C2 
A    8
 C3 
A    9
 C4 
A   10
 C5 
A   11
 C6 
A   12
 C7 
A   13
 C8 
A   14
 C9 
M  END
>  <XChem_code>  (14) 
D68EV3CPROA-x0878

>  <Occupancy>  (14) 
[0.56, 0.56, 0.56, 0.56, 0.56, 0.56, 0.56, 0.56, 0.56, 0.56, 0.56, 0.56, 0.56, 0.56]

>  <TempFactor>  (14) 
[41.78, 39.93, 40.44, 40.27, 41.15, 43.68, 39.17, 39.33, 37.22, 35.41, 37.79, 38.7, 44.53, 43.4]

>  <RealCrystalName>  (14) 
D68EV3CPROA-x0878

>  <smiles>  (14) 
Cl.COc1ccc(C)cc1NC(=O)CN

>  <new_smiles>  (14) 
Cl.COc1ccc(C)cc1NC(=O)CN

>  <alternate_name>  (14) 
Z235341991

>  <site_name>  (14) 
2

>  <pdb_entry>  (14) 
nan

>  <mol>  (14) 
<rdkit.Chem.rdchem.Mol object at 0x164f2a260>

>  <single_smiles>  (14) 
COc1ccc(C)cc1NC(=O)CN

>  <base_name>  (14) 
D68EV3CPROA-x0878_0B

>  <lig_resn>  (14) 
LIG

>  <lig_resi>  (14) 
201

>  <lig_chain>  (14) 
B

>  <lig_segi>  (14) 


>  <lig_alt>  (14) 


>  <polymer_chain>  (14) 
B

$$$$
x0130_0B§1
     RDKit          3D

 13 14  0  0  0  0  0  0  0  0999 V2000
   -8.0490    2.6340  -52.9030 N   0  0  0  0  0  0  0  0  0  0  0  0
   -7.5340    4.8040  -53.9330 C   0  0  0  0  0  0  0  0  0  0  0  0
   -7.0270    3.6790  -53.0760 C   0  0  0  0  0  0  0  0  0  0  0  0
   -4.1310    0.6360  -49.4380 N   0  0  0  0  0  0  0  0  0  0  0  0
   -7.5650    1.2610  -52.7130 C   0  0  0  0  0  0  0  0  0  0  0  0
   -7.1660    0.9580  -51.2910 C   0  0  0  0  0  0  0  0  0  0  0  0
   -8.1420    0.6810  -50.3320 C   0  0  0  0  0  0  0  0  0  0  0  0
   -7.8110    0.3720  -49.0200 C   0  0  0  0  0  0  0  0  0  0  0  0
   -6.4860    0.3330  -48.6130 C   0  0  0  0  0  0  0  0  0  0  0  0
   -5.5000    0.6090  -49.5550 C   0  0  0  0  0  0  0  0  0  0  0  0
   -3.5810    0.9590  -50.6530 C   0  0  0  0  0  0  0  0  0  0  0  0
   -4.5600    1.1460  -51.5700 C   0  0  0  0  0  0  0  0  0  0  0  0
   -5.8100    0.9270  -50.8940 C   0  0  0  0  0  0  0  0  0  0  0  0
  1  3  1  0
  1  5  1  0
  2  3  1  0
  4 10  1  0
  4 11  1  0
  5  6  1  0
  6  7  1  0
  6 13  2  0
  7  8  2  0
  8  9  1  0
  9 10  2  0
 10 13  1  0
 11 12  2  0
 12 13  1  0
A    1
 N  
A    2
 C  
A    3
 C1 
A    4
 N1 
A    5
 C2 
A    6
 C3 
A    7
 C4 
A    8
 C5 
A    9
 C6 
A   10
 C7 
A   11
 C8 
A   12
 C9 
A   13
 C10
M  END
>  <XChem_code>  (15) 
D68EV3CPROA-x0130

>  <Occupancy>  (15) 
[0.94, 0.94, 0.94, 0.94, 0.94, 0.94, 0.94, 0.94, 0.94, 0.94, 0.94, 0.94, 0.94]

>  <TempFactor>  (15) 
[85.44, 83.01, 87.31, 75.75, 80.04, 75.6, 69.4, 66.87, 70.12, 74.37, 75.47, 76.02, 75.51]

>  <RealCrystalName>  (15) 
D68EV3CPROA-x0130

>  <smiles>  (15) 
CCNCc1cccc2[nH]ccc12

>  <new_smiles>  (15) 
CCNCc1cccc2[nH]ccc12

>  <alternate_name>  (15) 
Z1137725943

>  <site_name>  (15) 
2

>  <pdb_entry>  (15) 
nan

>  <mol>  (15) 
<rdkit.Chem.rdchem.Mol object at 0x16324ce40>

>  <single_smiles>  (15) 
CCNCc1cccc2[nH]ccc12

>  <base_name>  (15) 
D68EV3CPROA-x0130_0B

>  <lig_resn>  (15) 
LIG

>  <lig_resi>  (15) 
201

>  <lig_chain>  (15) 
B

>  <lig_segi>  (15) 


>  <lig_alt>  (15) 


>  <polymer_chain>  (15) 
B

$$$$
x1300_0A§1
     RDKit          3D

 10 10  0  0  0  0  0  0  0  0999 V2000
   -2.6870    5.2580  -25.0490 N   0  0  0  0  0  0  0  0  0  0  0  0
    2.4300    1.6560  -24.9220 C   0  0  0  0  0  0  0  0  0  0  0  0
    0.8140    3.1850  -24.0530 O   0  0  0  0  0  0  0  0  0  0  0  0
    2.2030    2.7420  -23.9460 C   0  0  0  0  0  0  0  0  0  0  0  0
   -2.4410    6.2900  -24.2090 N   0  0  0  0  0  0  0  0  0  0  0  0
    1.1720    4.8340  -22.5590 O   0  0  0  0  0  0  0  0  0  0  0  0
    0.4950    4.3280  -23.4220 C   0  0  0  0  0  0  0  0  0  0  0  0
   -0.7790    4.8980  -23.9090 C   0  0  0  0  0  0  0  0  0  0  0  0
   -1.6800    4.4080  -24.8720 C   0  0  0  0  0  0  0  0  0  0  0  0
   -1.3170    6.1140  -23.5080 C   0  0  0  0  0  0  0  0  0  0  0  0
  1  5  1  0
  1  9  2  0
  2  4  1  0
  3  4  1  0
  3  7  1  0
  5 10  1  0
  6  7  2  0
  7  8  1  0
  8  9  1  0
  8 10  2  0
A    1
 N  
A    2
 C  
A    3
 O  
A    4
 C1 
A    5
 N1 
A    6
 O1 
A    7
 C2 
A    8
 C3 
A    9
 C4 
A   10
 C5 
M  END
>  <XChem_code>  (16) 
D68EV3CPROA-x1300

>  <Occupancy>  (16) 
[0.56, 0.56, 0.56, 0.56, 0.56, 0.56, 0.56, 0.56, 0.56, 0.56]

>  <TempFactor>  (16) 
[37.59, 37.53, 36.99, 36.9, 38.21, 36.39, 37.18, 36.78, 36.22, 37.38]

>  <RealCrystalName>  (16) 
D68EV3CPROA-x1300

>  <smiles>  (16) 
CCOC(=O)c1cn[nH]c1

>  <new_smiles>  (16) 
CCOC(=O)c1cn[nH]c1

>  <alternate_name>  (16) 
Z975817026

>  <site_name>  (16) 
3

>  <pdb_entry>  (16) 
nan

>  <mol>  (16) 
<rdkit.Chem.rdchem.Mol object at 0x164f2bbc0>

>  <single_smiles>  (16) 
CCOC(=O)c1cn[nH]c1

>  <base_name>  (16) 
D68EV3CPROA-x1300_0A

>  <lig_resn>  (16) 
LIG

>  <lig_resi>  (16) 
201

>  <lig_chain>  (16) 
A

>  <lig_segi>  (16) 


>  <lig_alt>  (16) 


>  <polymer_chain>  (16) 
A

$$$$
x1300_0A§2
     RDKit          3D

 10 10  0  0  0  0  0  0  0  0999 V2000
   -8.5720    0.9040  -12.6830 N   0  0  0  0  0  0  0  0  0  0  0  0
  -12.9260   -2.4430  -15.6860 C   0  0  0  0  0  0  0  0  0  0  0  0
  -11.8420   -0.4580  -14.9200 O   0  0  0  0  0  0  0  0  0  0  0  0
  -13.1260   -1.0230  -15.3310 C   0  0  0  0  0  0  0  0  0  0  0  0
   -9.1810    2.0480  -12.2920 N   0  0  0  0  0  0  0  0  0  0  0  0
  -12.8200    1.4990  -14.3800 O   0  0  0  0  0  0  0  0  0  0  0  0
  -11.8750    0.7470  -14.3260 C   0  0  0  0  0  0  0  0  0  0  0  0
  -10.6260    1.0460  -13.5960 C   0  0  0  0  0  0  0  0  0  0  0  0
   -9.4450    0.2900  -13.4760 C   0  0  0  0  0  0  0  0  0  0  0  0
  -10.4040    2.1740  -12.8160 C   0  0  0  0  0  0  0  0  0  0  0  0
  1  5  1  0
  1  9  2  0
  2  4  1  0
  3  4  1  0
  3  7  1  0
  5 10  1  0
  6  7  2  0
  7  8  1  0
  8  9  1  0
  8 10  2  0
A    1
 N  
A    2
 C  
A    3
 O  
A    4
 C1 
A    5
 N1 
A    6
 O1 
A    7
 C2 
A    8
 C3 
A    9
 C4 
A   10
 C5 
M  END
>  <XChem_code>  (17) 
D68EV3CPROA-x1300

>  <Occupancy>  (17) 
[0.56, 0.56, 0.56, 0.56, 0.56, 0.56, 0.56, 0.56, 0.56, 0.56]

>  <TempFactor>  (17) 
[37.59, 37.53, 36.99, 36.9, 38.21, 36.39, 37.18, 36.78, 36.22, 37.38]

>  <RealCrystalName>  (17) 
D68EV3CPROA-x1300

>  <smiles>  (17) 
CCOC(=O)c1cn[nH]c1

>  <new_smiles>  (17) 
CCOC(=O)c1cn[nH]c1

>  <alternate_name>  (17) 
Z975817026

>  <site_name>  (17) 
3

>  <pdb_entry>  (17) 
nan

>  <mol>  (17) 
<rdkit.Chem.rdchem.Mol object at 0x164f2bbc0>

>  <single_smiles>  (17) 
CCOC(=O)c1cn[nH]c1

>  <base_name>  (17) 
D68EV3CPROA-x1300_0A

>  <lig_resn>  (17) 
LIG

>  <lig_resi>  (17) 
201

>  <lig_chain>  (17) 
A

>  <lig_segi>  (17) 


>  <lig_alt>  (17) 


>  <polymer_chain>  (17) 
B

$$$$
x1495_0B§1
     RDKit          3D

  8  8  0  0  0  0  0  0  0  0999 V2000
  -17.3960  -15.6260  -27.1630 C   0  0  0  0  0  0  0  0  0  0  0  0
  -18.5380  -15.5270  -26.5620 O   0  0  0  0  0  0  0  0  0  0  0  0
  -16.1550  -15.1120  -26.4320 C   0  0  0  0  0  0  0  0  0  0  0  0
  -17.2960  -16.2140  -28.2530 O   0  0  0  0  0  0  0  0  0  0  0  0
  -14.8620  -15.0070  -26.9770 C   0  0  0  0  0  0  0  0  0  0  0  0
  -13.9430  -14.5520  -26.1010 C   0  0  0  0  0  0  0  0  0  0  0  0
  -16.1540  -14.6850  -25.1250 C   0  0  0  0  0  0  0  0  0  0  0  0
  -14.5870  -14.2150  -24.5940 S   0  0  0  0  0  0  0  0  0  0  0  0
  1  2  2  0
  1  3  1  0
  1  4  1  0
  3  5  1  0
  3  7  2  0
  5  6  2  0
  6  8  1  0
  7  8  1  0
A    1
 C  
A    2
 O  
A    3
 C1 
A    4
 O1 
A    5
 C2 
A    6
 C3 
A    7
 C4 
A    8
 S  
M  END
>  <XChem_code>  (18) 
D68EV3CPROA-x1495

>  <Occupancy>  (18) 
[0.52, 0.52, 0.52, 0.52, 0.52, 0.52, 0.52, 0.52]

>  <TempFactor>  (18) 
[25.31, 23.4, 25.53, 28.89, 23.57, 24.32, 26.12, 29.61]

>  <RealCrystalName>  (18) 
D68EV3CPROA-x1495

>  <smiles>  (18) 
OC(=O)C=1C=CSC1

>  <new_smiles>  (18) 
OC(=O)C=1C=CSC1

>  <alternate_name>  (18) 
Z166605460

>  <site_name>  (18) 
5

>  <pdb_entry>  (18) 
nan

>  <mol>  (18) 
<rdkit.Chem.rdchem.Mol object at 0x1650342e0>

>  <single_smiles>  (18) 
O=C(O)c1ccsc1

>  <base_name>  (18) 
D68EV3CPROA-x1495_0B

>  <lig_resn>  (18) 
LIG

>  <lig_resi>  (18) 
201

>  <lig_chain>  (18) 
A

>  <lig_segi>  (18) 


>  <lig_alt>  (18) 


>  <polymer_chain>  (18) 
A

$$$$
x1495_0B§2
     RDKit          3D

  8  8  0  0  0  0  0  0  0  0999 V2000
   -4.8120    0.3590  -49.6420 C   0  0  0  0  0  0  0  0  0  0  0  0
   -4.1210    0.7230  -50.7140 O   0  0  0  0  0  0  0  0  0  0  0  0
   -6.3060    0.4900  -49.7440 C   0  0  0  0  0  0  0  0  0  0  0  0
   -4.2940   -0.1000  -48.5980 O   0  0  0  0  0  0  0  0  0  0  0  0
   -7.1060    0.8460  -50.8900 C   0  0  0  0  0  0  0  0  0  0  0  0
   -8.4370    0.7550  -50.6720 C   0  0  0  0  0  0  0  0  0  0  0  0
   -7.0890    0.1400  -48.6750 C   0  0  0  0  0  0  0  0  0  0  0  0
   -8.7370    0.2070  -49.0330 S   0  0  0  0  0  0  0  0  0  0  0  0
  1  2  2  0
  1  3  1  0
  1  4  1  0
  3  5  1  0
  3  7  2  0
  5  6  2  0
  6  8  1  0
  7  8  1  0
A    1
 C  
A    2
 O  
A    3
 C1 
A    4
 O1 
A    5
 C2 
A    6
 C3 
A    7
 C4 
A    8
 S  
M  END
>  <XChem_code>  (19) 
D68EV3CPROA-x1495

>  <Occupancy>  (19) 
[0.84, 0.84, 0.84, 0.84, 0.84, 0.84, 0.84, 0.84]

>  <TempFactor>  (19) 
[46.72, 52.55, 36.72, 50.79, 33.61, 30.81, 31.55, 28.27]

>  <RealCrystalName>  (19) 
D68EV3CPROA-x1495

>  <smiles>  (19) 
OC(=O)C=1C=CSC1

>  <new_smiles>  (19) 
OC(=O)C=1C=CSC1

>  <alternate_name>  (19) 
Z166605460

>  <site_name>  (19) 
5

>  <pdb_entry>  (19) 
nan

>  <mol>  (19) 
<rdkit.Chem.rdchem.Mol object at 0x1650342e0>

>  <single_smiles>  (19) 
O=C(O)c1ccsc1

>  <base_name>  (19) 
D68EV3CPROA-x1495_0B

>  <lig_resn>  (19) 
LIG

>  <lig_resi>  (19) 
201

>  <lig_chain>  (19) 
B

>  <lig_segi>  (19) 


>  <lig_alt>  (19) 


>  <polymer_chain>  (19) 
B

$$$$
x1495_0B§3
     RDKit          3D

  8  8  0  0  0  0  0  0  0  0999 V2000
  -15.1910  -12.1700  -38.9930 C   0  0  0  0  0  0  0  0  0  0  0  0
  -16.3870  -11.6520  -39.1620 O   0  0  0  0  0  0  0  0  0  0  0  0
  -14.6280  -12.1170  -37.6140 C   0  0  0  0  0  0  0  0  0  0  0  0
  -14.5490  -12.6830  -39.8940 O   0  0  0  0  0  0  0  0  0  0  0  0
  -13.3520  -12.6110  -37.1750 C   0  0  0  0  0  0  0  0  0  0  0  0
  -13.1310  -12.3940  -35.8360 C   0  0  0  0  0  0  0  0  0  0  0  0
  -15.3190  -11.5480  -36.5780 C   0  0  0  0  0  0  0  0  0  0  0  0
  -14.4530  -11.6110  -35.1300 S   0  0  0  0  0  0  0  0  0  0  0  0
  1  2  2  0
  1  3  1  0
  1  4  1  0
  3  5  1  0
  3  7  2  0
  5  6  2  0
  6  8  1  0
  7  8  1  0
A    1
 C  
A    2
 O  
A    3
 C1 
A    4
 O1 
A    5
 C2 
A    6
 C3 
A    7
 C4 
A    8
 S  
M  END
>  <XChem_code>  (20) 
D68EV3CPROA-x1495

>  <Occupancy>  (20) 
[0.67, 0.67, 0.67, 0.67, 0.67, 0.67, 0.67, 0.67]

>  <TempFactor>  (20) 
[29.34, 33.13, 29.5, 30.61, 28.5, 27.56, 28.31, 30.65]

>  <RealCrystalName>  (20) 
D68EV3CPROA-x1495

>  <smiles>  (20) 
OC(=O)C=1C=CSC1

>  <new_smiles>  (20) 
OC(=O)C=1C=CSC1

>  <alternate_name>  (20) 
Z166605460

>  <site_name>  (20) 
5

>  <pdb_entry>  (20) 
nan

>  <mol>  (20) 
<rdkit.Chem.rdchem.Mol object at 0x1650342e0>

>  <single_smiles>  (20) 
O=C(O)c1ccsc1

>  <base_name>  (20) 
D68EV3CPROA-x1495_0B

>  <lig_resn>  (20) 
LIG

>  <lig_resi>  (20) 
301

>  <lig_chain>  (20) 
B

>  <lig_segi>  (20) 


>  <lig_alt>  (20) 


>  <polymer_chain>  (20) 
B

$$$$
x1427_0B§1
     RDKit          3D

  6  6  0  0  0  0  0  0  0  0999 V2000
  -26.4630   11.9580  -17.7970 N   0  0  0  0  0  0  0  0  0  0  0  0
  -28.4150   12.6830  -18.5750 C   0  0  0  0  0  0  0  0  0  0  0  0
  -27.4790   11.7670  -16.8420 O   0  0  0  0  0  0  0  0  0  0  0  0
  -28.6320   12.2260  -17.3420 C   0  0  0  0  0  0  0  0  0  0  0  0
  -27.0530   12.5160  -18.8090 C   0  0  0  0  0  0  0  0  0  0  0  0
  -29.7280   13.2750  -19.7940 Br  0  0  0  0  0  0  0  0  0  0  0  0
  1  3  1  0
  1  5  2  0
  2  4  2  0
  2  5  1  0
  2  6  1  0
  3  4  1  0
A    1
 N  
A    2
 C  
A    3
 O  
A    4
 C1 
A    5
 C2 
A    6
BR  
M  END
>  <XChem_code>  (21) 
D68EV3CPROA-x1427

>  <Occupancy>  (21) 
[0.28, 0.28, 0.28, 0.28, 0.28, 0.28]

>  <TempFactor>  (21) 
[28.76, 32.67, 29.56, 31.48, 31.53, 37.44]

>  <RealCrystalName>  (21) 
D68EV3CPROA-x1427

>  <smiles>  (21) 
BrC1=CON=C1

>  <new_smiles>  (21) 
BrC1=CON=C1

>  <alternate_name>  (21) 
NCL-00023820

>  <site_name>  (21) 
5

>  <pdb_entry>  (21) 
nan

>  <mol>  (21) 
<rdkit.Chem.rdchem.Mol object at 0x165034040>

>  <single_smiles>  (21) 
Brc1cnoc1

>  <base_name>  (21) 
D68EV3CPROA-x1427_0B

>  <lig_resn>  (21) 
LIG

>  <lig_resi>  (21) 
201

>  <lig_chain>  (21) 
B

>  <lig_segi>  (21) 


>  <lig_alt>  (21) 


>  <polymer_chain>  (21) 
B

$$$$
x0819_0B§1
     RDKit          3D

 15 16  0  0  0  0  0  0  0  0999 V2000
    0.1910    6.1240  -22.6530 N   0  0  0  0  0  0  0  0  0  0  0  0
    1.8100    2.2210  -22.9490 C   0  0  0  0  0  0  0  0  0  0  0  0
    1.4460    8.1620  -24.0720 O   0  0  0  0  0  0  0  0  0  0  0  0
    1.2410    3.5960  -22.7860 C   0  0  0  0  0  0  0  0  0  0  0  0
    1.7530    4.5580  -23.5690 N   0  0  0  0  0  0  0  0  0  0  0  0
    0.2030    3.8570  -21.9090 C   0  0  0  0  0  0  0  0  0  0  0  0
   -1.4120    5.4790  -21.1080 N   0  0  0  0  0  0  0  0  0  0  0  0
   -0.3170    5.1530  -21.8800 C   0  0  0  0  0  0  0  0  0  0  0  0
    1.2030    5.7750  -23.4640 C   0  0  0  0  0  0  0  0  0  0  0  0
    1.8130    6.8280  -24.4050 C   0  0  0  0  0  0  0  0  0  0  0  0
   -2.0310    6.8060  -21.1670 C   0  0  0  0  0  0  0  0  0  0  0  0
   -3.4460    6.7260  -21.7130 C   0  0  0  0  0  0  0  0  0  0  0  0
   -4.3470    5.9550  -20.7680 C   0  0  0  0  0  0  0  0  0  0  0  0
   -3.5390    4.9610  -19.9650 C   0  0  0  0  0  0  0  0  0  0  0  0
   -2.3830    4.4280  -20.7780 C   0  0  0  0  0  0  0  0  0  0  0  0
  1  8  2  0
  1  9  1  0
  2  4  1  0
  3 10  1  0
  4  5  1  0
  4  6  2  0
  5  9  2  0
  6  8  1  0
  7  8  1  0
  7 11  1  0
  7 15  1  0
  9 10  1  0
 11 12  1  0
 12 13  1  0
 13 14  1  0
 14 15  1  0
A    1
 N  
A    2
 C  
A    3
 O  
A    4
 C1 
A    5
 N1 
A    6
 C2 
A    7
 N2 
A    8
 C3 
A    9
 C4 
A   10
 C5 
A   11
 C6 
A   12
 C7 
A   13
 C8 
A   14
 C9 
A   15
 C10
M  END
>  <XChem_code>  (22) 
D68EV3CPROA-x0819

>  <Occupancy>  (22) 
[0.4, 0.4, 0.4, 0.4, 0.4, 0.4, 0.4, 0.4, 0.4, 0.4, 0.4, 0.4, 0.4, 0.4, 0.4]

>  <TempFactor>  (22) 
[36.79, 35.63, 36.96, 36.25, 36.47, 37.03, 36.1, 36.22, 36.62, 36.77, 35.75, 36.92, 37.27, 37.35, 36.86]

>  <RealCrystalName>  (22) 
D68EV3CPROA-x0819

>  <smiles>  (22) 
Cc1cc(nc(CO)n1)N2CCCCC2

>  <new_smiles>  (22) 
Cc1cc(nc(CO)n1)N2CCCCC2

>  <alternate_name>  (22) 
Z1980894300

>  <site_name>  (22) 
3

>  <pdb_entry>  (22) 
nan

>  <mol>  (22) 
<rdkit.Chem.rdchem.Mol object at 0x162e32570>

>  <single_smiles>  (22) 
Cc1cc(N2CCCCC2)nc(CO)n1

>  <base_name>  (22) 
D68EV3CPROA-x0819_0B

>  <lig_resn>  (22) 
LIG

>  <lig_resi>  (22) 
201

>  <lig_chain>  (22) 
B

>  <lig_segi>  (22) 


>  <lig_alt>  (22) 


>  <polymer_chain>  (22) 
A

$$$$
x0819_0B§2
     RDKit          3D

 15 16  0  0  0  0  0  0  0  0999 V2000
  -12.0090    2.3550  -13.0450 N   0  0  0  0  0  0  0  0  0  0  0  0
  -12.8900   -0.4290  -16.1140 C   0  0  0  0  0  0  0  0  0  0  0  0
  -13.1370    1.9260  -10.5390 O   0  0  0  0  0  0  0  0  0  0  0  0
  -12.5960    0.5980  -15.0660 C   0  0  0  0  0  0  0  0  0  0  0  0
  -13.0230    0.3310  -13.8220 N   0  0  0  0  0  0  0  0  0  0  0  0
  -11.8750    1.7450  -15.3490 C   0  0  0  0  0  0  0  0  0  0  0  0
  -10.7890    3.7240  -14.4640 N   0  0  0  0  0  0  0  0  0  0  0  0
  -11.5810    2.6090  -14.2910 C   0  0  0  0  0  0  0  0  0  0  0  0
  -12.7080    1.2220  -12.8730 C   0  0  0  0  0  0  0  0  0  0  0  0
  -13.2000    0.8470  -11.4640 C   0  0  0  0  0  0  0  0  0  0  0  0
  -10.3820    4.5650  -13.3340 C   0  0  0  0  0  0  0  0  0  0  0  0
   -8.8770    4.5160  -13.1290 C   0  0  0  0  0  0  0  0  0  0  0  0
   -8.1520    5.1300  -14.3100 C   0  0  0  0  0  0  0  0  0  0  0  0
   -8.9840    5.0000  -15.5650 C   0  0  0  0  0  0  0  0  0  0  0  0
   -9.7930    3.7240  -15.5420 C   0  0  0  0  0  0  0  0  0  0  0  0
  1  8  2  0
  1  9  1  0
  2  4  1  0
  3 10  1  0
  4  5  1  0
  4  6  2  0
  5  9  2  0
  6  8  1  0
  7  8  1  0
  7 11  1  0
  7 15  1  0
  9 10  1  0
 11 12  1  0
 12 13  1  0
 13 14  1  0
 14 15  1  0
A    1
 N  
A    2
 C  
A    3
 O  
A    4
 C1 
A    5
 N1 
A    6
 C2 
A    7
 N2 
A    8
 C3 
A    9
 C4 
A   10
 C5 
A   11
 C6 
A   12
 C7 
A   13
 C8 
A   14
 C9 
A   15
 C10
M  END
>  <XChem_code>  (23) 
D68EV3CPROA-x0819

>  <Occupancy>  (23) 
[0.4, 0.4, 0.4, 0.4, 0.4, 0.4, 0.4, 0.4, 0.4, 0.4, 0.4, 0.4, 0.4, 0.4, 0.4]

>  <TempFactor>  (23) 
[36.79, 35.63, 36.96, 36.25, 36.47, 37.03, 36.1, 36.22, 36.62, 36.77, 35.75, 36.92, 37.27, 37.35, 36.86]

>  <RealCrystalName>  (23) 
D68EV3CPROA-x0819

>  <smiles>  (23) 
Cc1cc(nc(CO)n1)N2CCCCC2

>  <new_smiles>  (23) 
Cc1cc(nc(CO)n1)N2CCCCC2

>  <alternate_name>  (23) 
Z1980894300

>  <site_name>  (23) 
3

>  <pdb_entry>  (23) 
nan

>  <mol>  (23) 
<rdkit.Chem.rdchem.Mol object at 0x162e32570>

>  <single_smiles>  (23) 
Cc1cc(N2CCCCC2)nc(CO)n1

>  <base_name>  (23) 
D68EV3CPROA-x0819_0B

>  <lig_resn>  (23) 
LIG

>  <lig_resi>  (23) 
201

>  <lig_chain>  (23) 
B

>  <lig_segi>  (23) 


>  <lig_alt>  (23) 


>  <polymer_chain>  (23) 
B

$$$$
x0102_1B§1
     RDKit          3D

  9  9  0  0  0  0  0  0  0  0999 V2000
   -8.2660    2.4980  -51.5290 C   0  0  0  0  0  0  0  0  0  0  0  0
   -5.1190    2.9450  -51.3730 O   0  0  0  0  0  0  0  0  0  0  0  0
   -7.7240    1.5690  -50.4840 C   0  0  0  0  0  0  0  0  0  0  0  0
   -4.3120    0.8510  -51.2920 O   0  0  0  0  0  0  0  0  0  0  0  0
   -8.5390    0.8770  -49.5570 C   0  0  0  0  0  0  0  0  0  0  0  0
   -7.8450    0.1130  -48.7000 C   0  0  0  0  0  0  0  0  0  0  0  0
   -6.3950    1.2880  -50.2850 C   0  0  0  0  0  0  0  0  0  0  0  0
   -5.2170    1.7720  -51.0310 C   0  0  0  0  0  0  0  0  0  0  0  0
   -6.1660    0.1930  -48.9720 S   0  0  0  0  0  0  0  0  0  0  0  0
  1  3  1  0
  2  8  2  0
  3  5  1  0
  3  7  2  0
  4  8  1  0
  5  6  2  0
  6  9  1  0
  7  8  1  0
  7  9  1  0
A    1
 C  
A    2
 O  
A    3
 C1 
A    4
 O1 
A    5
 C2 
A    6
 C3 
A    7
 C4 
A    8
 C5 
A    9
 S  
M  END
>  <XChem_code>  (24) 
D68EV3CPROA-x0102

>  <Occupancy>  (24) 
[0.67, 0.67, 0.67, 0.67, 0.67, 0.67, 0.67, 0.67, 0.67]

>  <TempFactor>  (24) 
[50.71, 51.35, 52.04, 51.6, 51.81, 52.27, 52.25, 53.41, 55.44]

>  <RealCrystalName>  (24) 
D68EV3CPROA-x0102

>  <smiles>  (24) 
Cc1ccsc1C(=O)O

>  <new_smiles>  (24) 
Cc1ccsc1C(=O)O

>  <alternate_name>  (24) 
Z104474228

>  <site_name>  (24) 
2

>  <pdb_entry>  (24) 
nan

>  <mol>  (24) 
<rdkit.Chem.rdchem.Mol object at 0x16324d380>

>  <single_smiles>  (24) 
Cc1ccsc1C(=O)O

>  <base_name>  (24) 
D68EV3CPROA-x0102_1B

>  <lig_resn>  (24) 
LIG

>  <lig_resi>  (24) 
201

>  <lig_chain>  (24) 
B

>  <lig_segi>  (24) 


>  <lig_alt>  (24) 


>  <polymer_chain>  (24) 
B

$$$$
x0102_1B§2
     RDKit          3D

  9  9  0  0  0  0  0  0  0  0999 V2000
  -15.7530  -10.6070  -36.2740 C   0  0  0  0  0  0  0  0  0  0  0  0
  -15.9680  -11.4670  -39.0980 O   0  0  0  0  0  0  0  0  0  0  0  0
  -14.6690  -11.6360  -36.4280 C   0  0  0  0  0  0  0  0  0  0  0  0
  -14.1360  -12.6210  -39.9050 O   0  0  0  0  0  0  0  0  0  0  0  0
  -13.8700  -12.0920  -35.3560 C   0  0  0  0  0  0  0  0  0  0  0  0
  -12.9420  -12.9980  -35.7230 C   0  0  0  0  0  0  0  0  0  0  0  0
  -14.3090  -12.2400  -37.6070 C   0  0  0  0  0  0  0  0  0  0  0  0
  -14.8840  -12.0820  -38.9420 C   0  0  0  0  0  0  0  0  0  0  0  0
  -12.9960  -13.3390  -37.3880 S   0  0  0  0  0  0  0  0  0  0  0  0
  1  3  1  0
  2  8  2  0
  3  5  1  0
  3  7  2  0
  4  8  1  0
  5  6  2  0
  6  9  1  0
  7  8  1  0
  7  9  1  0
A    1
 C  
A    2
 O  
A    3
 C1 
A    4
 O1 
A    5
 C2 
A    6
 C3 
A    7
 C4 
A    8
 C5 
A    9
 S  
M  END
>  <XChem_code>  (25) 
D68EV3CPROA-x0102

>  <Occupancy>  (25) 
[0.65, 0.65, 0.65, 0.65, 0.65, 0.65, 0.65, 0.65, 0.65]

>  <TempFactor>  (25) 
[29.37, 38.39, 30.02, 39.92, 30.55, 31.47, 33.82, 32.42, 31.66]

>  <RealCrystalName>  (25) 
D68EV3CPROA-x0102

>  <smiles>  (25) 
Cc1ccsc1C(=O)O

>  <new_smiles>  (25) 
Cc1ccsc1C(=O)O

>  <alternate_name>  (25) 
Z104474228

>  <site_name>  (25) 
2

>  <pdb_entry>  (25) 
nan

>  <mol>  (25) 
<rdkit.Chem.rdchem.Mol object at 0x16324d380>

>  <single_smiles>  (25) 
Cc1ccsc1C(=O)O

>  <base_name>  (25) 
D68EV3CPROA-x0102_1B

>  <lig_resn>  (25) 
LIG

>  <lig_resi>  (25) 
301

>  <lig_chain>  (25) 
B

>  <lig_segi>  (25) 


>  <lig_alt>  (25) 


>  <polymer_chain>  (25) 
B

$$$$
x0253_0B§1
     RDKit          3D

 15 15  0  0  0  0  0  0  0  0999 V2000
   -4.6120    1.6720  -49.1920 N   0  0  0  0  0  0  0  0  0  0  0  0
   -8.8080    0.6240  -49.3840 C   0  0  0  0  0  0  0  0  0  0  0  0
   -6.1330   -0.0200  -49.1670 O   0  0  0  0  0  0  0  0  0  0  0  0
   -8.0670    1.3140  -50.5040 C   0  0  0  0  0  0  0  0  0  0  0  0
   -3.0330    1.9610  -46.8540 O   0  0  0  0  0  0  0  0  0  0  0  0
   -6.8390    2.1110  -50.0350 C   0  0  2  0  0  0  0  0  0  0  0  0
   -6.1660    2.8290  -51.2180 C   0  0  0  0  0  0  0  0  0  0  0  0
   -7.0640    3.8120  -51.9390 C   0  0  0  0  0  0  0  0  0  0  0  0
   -5.8500    1.1560  -49.3820 C   0  0  0  0  0  0  0  0  0  0  0  0
   -3.4270    0.9450  -48.9290 C   0  0  0  0  0  0  0  0  0  0  0  0
   -3.1030   -0.1800  -49.6920 C   0  0  0  0  0  0  0  0  0  0  0  0
   -1.8530   -0.7650  -49.5630 C   0  0  0  0  0  0  0  0  0  0  0  0
   -0.9250   -0.2420  -48.6820 C   0  0  0  0  0  0  0  0  0  0  0  0
   -1.2470    0.8550  -47.8970 C   0  0  0  0  0  0  0  0  0  0  0  0
   -2.5070    1.4480  -48.0010 C   0  0  0  0  0  0  0  0  0  0  0  0
  1  9  1  0
  1 10  1  0
  2  4  1  0
  3  9  2  0
  6  4  1  6
  5 15  1  0
  6  7  1  0
  6  9  1  0
  7  8  1  0
 10 11  2  0
 10 15  1  0
 11 12  1  0
 12 13  2  0
 13 14  1  0
 14 15  2  0
A    1
 N  
A    2
 C  
A    3
 O  
A    4
 C1 
A    5
 O1 
A    6
 C2 
A    7
 C3 
A    8
 C4 
A    9
 C5 
A   10
 C6 
A   11
 C7 
A   12
 C8 
A   13
 C9 
A   14
 C10
A   15
 C11
M  END
>  <XChem_code>  (26) 
D68EV3CPROA-x0253

>  <Occupancy>  (26) 
[0.86, 0.86, 0.86, 0.86, 0.86, 0.86, 0.86, 0.86, 0.86, 0.86, 0.86, 0.86, 0.86, 0.86, 0.86]

>  <TempFactor>  (26) 
[83.71, 53.95, 79.29, 60.01, 82.45, 65.18, 61.84, 64.47, 75.61, 88.07, 88.29, 88.38, 88.74, 90.44, 89.12]

>  <RealCrystalName>  (26) 
D68EV3CPROA-x0253

>  <smiles>  (26) 
CCC(CC)C(=O)Nc1ccccc1O

>  <new_smiles>  (26) 
CCC(CC)C(=O)Nc1ccccc1O

>  <alternate_name>  (26) 
Z1331830630

>  <site_name>  (26) 
2

>  <pdb_entry>  (26) 
nan

>  <mol>  (26) 
<rdkit.Chem.rdchem.Mol object at 0x162e338b0>

>  <single_smiles>  (26) 
CCC(CC)C(=O)Nc1ccccc1O

>  <base_name>  (26) 
D68EV3CPROA-x0253_0B

>  <lig_resn>  (26) 
LIG

>  <lig_resi>  (26) 
201

>  <lig_chain>  (26) 
B

>  <lig_segi>  (26) 


>  <lig_alt>  (26) 


>  <polymer_chain>  (26) 
B

$$$$
x1585_0B§1
     RDKit          3D

 15 17  0  0  0  0  0  0  0  0999 V2000
   -6.4910    2.3680  -50.1380 N   0  0  0  0  0  0  0  0  0  0  0  0
   -7.1430    1.1810  -49.8550 C   0  0  0  0  0  0  0  0  0  0  0  0
   -7.0680    0.5590  -48.7990 O   0  0  0  0  0  0  0  0  0  0  0  0
   -6.8300    2.8490  -51.3680 C   0  0  0  0  0  0  0  0  0  0  0  0
   -7.9090    0.8730  -50.9270 N   0  0  0  0  0  0  0  0  0  0  0  0
   -6.4350    3.8880  -51.8750 O   0  0  0  0  0  0  0  0  0  0  0  0
   -7.8000    1.8440  -52.0090 C   0  0  2  0  0  0  0  0  0  0  0  0
   -7.1620    1.2640  -53.2910 C   0  0  0  0  0  0  0  0  0  0  0  0
   -8.3480    0.7060  -54.0910 C   0  0  0  0  0  0  0  0  0  0  0  0
   -9.5010    1.5590  -53.6370 C   0  0  0  0  0  0  0  0  0  0  0  0
  -10.7740    1.6880  -54.1760 C   0  0  0  0  0  0  0  0  0  0  0  0
  -11.6810    2.5660  -53.6070 C   0  0  0  0  0  0  0  0  0  0  0  0
  -11.3210    3.3160  -52.5110 C   0  0  0  0  0  0  0  0  0  0  0  0
  -10.0580    3.1870  -51.9550 C   0  0  0  0  0  0  0  0  0  0  0  0
   -9.1560    2.2970  -52.5150 C   0  0  0  0  0  0  0  0  0  0  0  0
  1  2  1  0
  1  4  1  0
  2  3  2  0
  2  5  1  0
  4  6  2  0
  4  7  1  0
  5  7  1  0
  7  8  1  6
  7 15  1  0
  8  9  1  0
  9 10  1  0
 10 11  1  0
 10 15  2  0
 11 12  2  0
 12 13  1  0
 13 14  2  0
 14 15  1  0
A    1
 N  
A    2
 C  
A    3
 O  
A    4
 C1 
A    5
 N1 
A    6
 O1 
A    7
 C2 
A    8
 C3 
A    9
 C4 
A   10
 C5 
A   11
 C6 
A   12
 C7 
A   13
 C8 
A   14
 C9 
A   15
 C10
M  END
>  <XChem_code>  (27) 
D68EV3CPROA-x1585

>  <Occupancy>  (27) 
[0.68, 0.68, 0.68, 0.68, 0.68, 0.68, 0.68, 0.68, 0.68, 0.68, 0.68, 0.68, 0.68, 0.68, 0.68]

>  <TempFactor>  (27) 
[45.63, 45.18, 38.02, 46.84, 44.73, 50.49, 43.37, 41.85, 39.15, 38.17, 35.83, 35.51, 35.82, 35.37, 39.5]

>  <RealCrystalName>  (27) 
D68EV3CPROA-x1585

>  <smiles>  (27) 
O=C1NC(=O)C2(CCC=3C=CC=CC32)N1

>  <new_smiles>  (27) 
O=C1NC(=O)C2(CCC=3C=CC=CC32)N1

>  <alternate_name>  (27) 
Z56862798

>  <site_name>  (27) 
4

>  <pdb_entry>  (27) 
nan

>  <mol>  (27) 
<rdkit.Chem.rdchem.Mol object at 0x1650349e0>

>  <single_smiles>  (27) 
O=C1NC(=O)C2(CCc3ccccc32)N1

>  <base_name>  (27) 
D68EV3CPROA-x1585_0B

>  <lig_resn>  (27) 
LIG

>  <lig_resi>  (27) 
201

>  <lig_chain>  (27) 
B

>  <lig_segi>  (27) 


>  <lig_alt>  (27) 


>  <polymer_chain>  (27) 
B

$$$$
x1585_0B§2
     RDKit          3D

 15 17  0  0  0  0  0  0  0  0999 V2000
  -28.5250    1.0250  -40.4450 N   0  0  0  0  0  0  0  0  0  0  0  0
  -28.3990   -0.3190  -40.7540 C   0  0  0  0  0  0  0  0  0  0  0  0
  -28.5550   -1.2420  -39.9610 O   0  0  0  0  0  0  0  0  0  0  0  0
  -28.2690    1.8170  -41.5280 C   0  0  0  0  0  0  0  0  0  0  0  0
  -28.0630   -0.4090  -42.0630 N   0  0  0  0  0  0  0  0  0  0  0  0
  -28.3570    3.0390  -41.5790 O   0  0  0  0  0  0  0  0  0  0  0  0
  -27.8760    0.8920  -42.6960 C   0  0  2  0  0  0  0  0  0  0  0  0
  -26.4000    1.1370  -43.1020 C   0  0  0  0  0  0  0  0  0  0  0  0
  -26.3730    1.4980  -44.5860 C   0  0  0  0  0  0  0  0  0  0  0  0
  -27.8180    1.5980  -44.9910 C   0  0  0  0  0  0  0  0  0  0  0  0
  -28.3670    1.9940  -46.2090 C   0  0  0  0  0  0  0  0  0  0  0  0
  -29.7390    1.9440  -46.3990 C   0  0  0  0  0  0  0  0  0  0  0  0
  -30.5650    1.5030  -45.3820 C   0  0  0  0  0  0  0  0  0  0  0  0
  -30.0280    1.1170  -44.1590 C   0  0  0  0  0  0  0  0  0  0  0  0
  -28.6540    1.1750  -43.9650 C   0  0  0  0  0  0  0  0  0  0  0  0
  1  2  1  0
  1  4  1  0
  2  3  2  0
  2  5  1  0
  4  6  2  0
  4  7  1  0
  5  7  1  0
  7  8  1  6
  7 15  1  0
  8  9  1  0
  9 10  1  0
 10 11  1  0
 10 15  2  0
 11 12  2  0
 12 13  1  0
 13 14  2  0
 14 15  1  0
A    1
 N  
A    2
 C  
A    3
 O  
A    4
 C1 
A    5
 N1 
A    6
 O1 
A    7
 C2 
A    8
 C3 
A    9
 C4 
A   10
 C5 
A   11
 C6 
A   12
 C7 
A   13
 C8 
A   14
 C9 
A   15
 C10
M  END
>  <XChem_code>  (28) 
D68EV3CPROA-x1585

>  <Occupancy>  (28) 
[0.77, 0.77, 0.77, 0.77, 0.77, 0.77, 0.77, 0.77, 0.77, 0.77, 0.77, 0.77, 0.77, 0.77, 0.77]

>  <TempFactor>  (28) 
[47.06, 46.09, 42.91, 54.42, 51.75, 54.2, 55.82, 58.69, 60.73, 63.11, 65.62, 66.27, 67.0, 64.36, 61.89]

>  <RealCrystalName>  (28) 
D68EV3CPROA-x1585

>  <smiles>  (28) 
O=C1NC(=O)C2(CCC=3C=CC=CC32)N1

>  <new_smiles>  (28) 
O=C1NC(=O)C2(CCC=3C=CC=CC32)N1

>  <alternate_name>  (28) 
Z56862798

>  <site_name>  (28) 
4

>  <pdb_entry>  (28) 
nan

>  <mol>  (28) 
<rdkit.Chem.rdchem.Mol object at 0x1650349e0>

>  <single_smiles>  (28) 
O=C1NC(=O)C2(CCc3ccccc32)N1

>  <base_name>  (28) 
D68EV3CPROA-x1585_0B

>  <lig_resn>  (28) 
LIG

>  <lig_resi>  (28) 
301

>  <lig_chain>  (28) 
B

>  <lig_segi>  (28) 


>  <lig_alt>  (28) 


>  <polymer_chain>  (28) 
B

$$$$
x1576_0B§1
     RDKit          3D

 12 13  0  0  0  0  0  0  0  0999 V2000
   -6.0620    3.2180  -51.5250 N   0  0  0  0  0  0  0  0  0  0  0  0
   -4.6460    3.4880  -51.7540 C   0  0  0  0  0  0  0  0  0  0  0  0
   -7.0460    6.1950  -52.7240 O   0  0  0  0  0  0  0  0  0  0  0  0
   -7.1510    3.8240  -52.1070 C   0  0  0  0  0  0  0  0  0  0  0  0
   -8.2970    3.3450  -51.6800 N   0  0  0  0  0  0  0  0  0  0  0  0
   -7.0380    4.8760  -53.2180 C   0  0  0  0  0  0  0  0  0  0  0  0
   -7.9530    2.3370  -50.7770 C   0  0  0  0  0  0  0  0  0  0  0  0
   -8.7630    1.4620  -50.0550 C   0  0  0  0  0  0  0  0  0  0  0  0
   -8.1620    0.5210  -49.2340 C   0  0  0  0  0  0  0  0  0  0  0  0
   -6.7700    0.4470  -49.1290 C   0  0  0  0  0  0  0  0  0  0  0  0
   -5.9530    1.3120  -49.8490 C   0  0  0  0  0  0  0  0  0  0  0  0
   -6.5690    2.2470  -50.6640 C   0  0  0  0  0  0  0  0  0  0  0  0
  1  2  1  0
  1  4  1  0
  1 12  1  0
  3  6  1  0
  4  5  2  0
  4  6  1  0
  5  7  1  0
  7  8  1  0
  7 12  2  0
  8  9  2  0
  9 10  1  0
 10 11  2  0
 11 12  1  0
A    1
 N  
A    2
 C  
A    3
 O  
A    4
 C1 
A    5
 N1 
A    6
 C2 
A    7
 C3 
A    8
 C4 
A    9
 C5 
A   10
 C6 
A   11
 C7 
A   12
 C8 
M  END
>  <XChem_code>  (29) 
D68EV3CPROA-x1576

>  <Occupancy>  (29) 
[0.92, 0.92, 0.92, 0.92, 0.92, 0.92, 0.92, 0.92, 0.92, 0.92, 0.92, 0.92]

>  <TempFactor>  (29) 
[45.44, 46.76, 51.47, 47.84, 44.21, 48.33, 42.17, 40.3, 39.49, 41.21, 41.36, 44.04]

>  <RealCrystalName>  (29) 
D68EV3CPROA-x1576

>  <smiles>  (29) 
CN1C(CO)=NC=2C=CC=CC12

>  <new_smiles>  (29) 
CN1C(CO)=NC=2C=CC=CC12

>  <alternate_name>  (29) 
Z57299966

>  <site_name>  (29) 
2

>  <pdb_entry>  (29) 
nan

>  <mol>  (29) 
<rdkit.Chem.rdchem.Mol object at 0x165034890>

>  <single_smiles>  (29) 
Cn1c(CO)nc2ccccc21

>  <base_name>  (29) 
D68EV3CPROA-x1576_0B

>  <lig_resn>  (29) 
LIG

>  <lig_resi>  (29) 
201

>  <lig_chain>  (29) 
B

>  <lig_segi>  (29) 


>  <lig_alt>  (29) 


>  <polymer_chain>  (29) 
B

$$$$
x1453_0B§1
     RDKit          3D

 11 11  0  0  0  0  0  0  0  0999 V2000
  -13.4340  -11.7150  -12.9280 C   0  0  0  0  0  0  0  0  0  0  0  0
  -10.1200  -13.1030  -12.6300 O   0  0  0  0  0  0  0  0  0  0  0  0
  -12.2740  -12.3920  -13.2320 C   0  0  0  0  0  0  0  0  0  0  0  0
   -9.1800  -12.2870  -10.4740 O   0  0  0  0  0  0  0  0  0  0  0  0
  -11.2550  -12.4440  -12.2980 C   0  0  0  0  0  0  0  0  0  0  0  0
  -10.6170  -11.9290   -8.7940 O   0  0  0  0  0  0  0  0  0  0  0  0
  -11.4010  -11.8200  -11.0450 C   0  0  0  0  0  0  0  0  0  0  0  0
  -10.3690  -12.0200   -9.9930 C   0  0  0  0  0  0  0  0  0  0  0  0
  -12.5950  -11.1520  -10.7720 C   0  0  0  0  0  0  0  0  0  0  0  0
  -13.6120  -11.0950  -11.7110 C   0  0  0  0  0  0  0  0  0  0  0  0
  -14.8160  -11.6320  -14.2250 Br  0  0  0  0  0  0  0  0  0  0  0  0
  1  3  2  0
  1 10  1  0
  1 11  1  0
  2  5  1  0
  3  5  1  0
  4  8  2  0
  5  7  2  0
  6  8  1  0
  7  8  1  0
  7  9  1  0
  9 10  2  0
A    1
 C  
A    2
 O  
A    3
 C1 
A    4
 O1 
A    5
 C2 
A    6
 O2 
A    7
 C3 
A    8
 C4 
A    9
 C5 
A   10
 C6 
A   11
BR  
M  END
>  <XChem_code>  (30) 
D68EV3CPROA-x1453

>  <Occupancy>  (30) 
[0.44, 0.44, 0.44, 0.44, 0.44, 0.44, 0.44, 0.44, 0.44, 0.44, 0.44]

>  <TempFactor>  (30) 
[43.72, 43.31, 44.8, 42.43, 43.46, 42.52, 43.85, 43.88, 44.27, 44.16, 45.33]

>  <RealCrystalName>  (30) 
D68EV3CPROA-x1453

>  <smiles>  (30) 
BrC1=CC(O)=C(C(O)=O)C=C1

>  <new_smiles>  (30) 
BrC1=CC(O)=C(C(O)=O)C=C1

>  <alternate_name>  (30) 
NCL-00024667

>  <site_name>  (30) 
1

>  <pdb_entry>  (30) 
nan

>  <mol>  (30) 
<rdkit.Chem.rdchem.Mol object at 0x165034120>

>  <single_smiles>  (30) 
O=C(O)c1ccc(Br)cc1O

>  <base_name>  (30) 
D68EV3CPROA-x1453_0B

>  <lig_resn>  (30) 
LIG

>  <lig_resi>  (30) 
201

>  <lig_chain>  (30) 
B

>  <lig_segi>  (30) 


>  <lig_alt>  (30) 


>  <polymer_chain>  (30) 
A

$$$$
x1453_0B§2
     RDKit          3D

 11 11  0  0  0  0  0  0  0  0999 V2000
    1.2850    4.5440  -33.7140 C   0  0  0  0  0  0  0  0  0  0  0  0
   -1.7520    3.0630  -34.9710 O   0  0  0  0  0  0  0  0  0  0  0  0
    0.3540    3.6000  -34.0840 C   0  0  0  0  0  0  0  0  0  0  0  0
   -3.3150    4.9320  -35.4840 O   0  0  0  0  0  0  0  0  0  0  0  0
   -0.8480    4.0130  -34.6310 C   0  0  0  0  0  0  0  0  0  0  0  0
   -2.4160    6.8710  -36.1550 O   0  0  0  0  0  0  0  0  0  0  0  0
   -1.1170    5.3810  -34.8180 C   0  0  0  0  0  0  0  0  0  0  0  0
   -2.3380    5.8030  -35.5540 C   0  0  0  0  0  0  0  0  0  0  0  0
   -0.1430    6.3050  -34.4400 C   0  0  0  0  0  0  0  0  0  0  0  0
    1.0570    5.8920  -33.8850 C   0  0  0  0  0  0  0  0  0  0  0  0
    2.9210    3.9690  -32.9450 Br  0  0  0  0  0  0  0  0  0  0  0  0
  1  3  2  0
  1 10  1  0
  1 11  1  0
  2  5  1  0
  3  5  1  0
  4  8  2  0
  5  7  2  0
  6  8  1  0
  7  8  1  0
  7  9  1  0
  9 10  2  0
A    1
 C  
A    2
 O  
A    3
 C1 
A    4
 O1 
A    5
 C2 
A    6
 O2 
A    7
 C3 
A    8
 C4 
A    9
 C5 
A   10
 C6 
A   11
BR  
M  END
>  <XChem_code>  (31) 
D68EV3CPROA-x1453

>  <Occupancy>  (31) 
[0.44, 0.44, 0.44, 0.44, 0.44, 0.44, 0.44, 0.44, 0.44, 0.44, 0.44]

>  <TempFactor>  (31) 
[43.72, 43.31, 44.8, 42.43, 43.46, 42.52, 43.85, 43.88, 44.27, 44.16, 45.33]

>  <RealCrystalName>  (31) 
D68EV3CPROA-x1453

>  <smiles>  (31) 
BrC1=CC(O)=C(C(O)=O)C=C1

>  <new_smiles>  (31) 
BrC1=CC(O)=C(C(O)=O)C=C1

>  <alternate_name>  (31) 
NCL-00024667

>  <site_name>  (31) 
1

>  <pdb_entry>  (31) 
nan

>  <mol>  (31) 
<rdkit.Chem.rdchem.Mol object at 0x165034120>

>  <single_smiles>  (31) 
O=C(O)c1ccc(Br)cc1O

>  <base_name>  (31) 
D68EV3CPROA-x1453_0B

>  <lig_resn>  (31) 
LIG

>  <lig_resi>  (31) 
201

>  <lig_chain>  (31) 
B

>  <lig_segi>  (31) 


>  <lig_alt>  (31) 


>  <polymer_chain>  (31) 
B

$$$$
x1498_0A§1
     RDKit          3D

  7  7  0  0  0  0  0  0  0  0999 V2000
   -5.6760   11.4090  -29.8020 N   0  0  0  0  0  0  0  0  0  0  0  0
   -6.5010   10.3800  -30.1470 C   0  0  0  0  0  0  0  0  0  0  0  0
   -7.1160    9.7560  -29.1800 O   0  0  0  0  0  0  0  0  0  0  0  0
   -6.7610   10.0140  -31.4690 C   0  0  0  0  0  0  0  0  0  0  0  0
   -6.1610   10.7590  -32.4710 C   0  0  0  0  0  0  0  0  0  0  0  0
   -5.3260   11.8150  -32.1470 C   0  0  0  0  0  0  0  0  0  0  0  0
   -5.1130   12.0970  -30.8080 C   0  0  0  0  0  0  0  0  0  0  0  0
  1  2  2  0
  1  7  1  0
  2  3  1  0
  2  4  1  0
  4  5  2  0
  5  6  1  0
  6  7  2  0
A    1
 N  
A    2
 C  
A    3
 O  
A    4
 C1 
A    5
 C2 
A    6
 C3 
A    7
 C4 
M  END
>  <XChem_code>  (32) 
D68EV3CPROA-x1498

>  <Occupancy>  (32) 
[0.88, 0.88, 0.88, 0.88, 0.88, 0.88, 0.88]

>  <TempFactor>  (32) 
[42.68, 37.56, 35.8, 40.47, 43.12, 43.66, 44.2]

>  <RealCrystalName>  (32) 
D68EV3CPROA-x1498

>  <smiles>  (32) 
OC=1C=CC=CN1

>  <new_smiles>  (32) 
OC=1C=CC=CN1

>  <alternate_name>  (32) 
Z1741982125

>  <site_name>  (32) 
1

>  <pdb_entry>  (32) 
nan

>  <mol>  (32) 
<rdkit.Chem.rdchem.Mol object at 0x1650343c0>

>  <single_smiles>  (32) 
Oc1ccccn1

>  <base_name>  (32) 
D68EV3CPROA-x1498_0A

>  <lig_resn>  (32) 
LIG

>  <lig_resi>  (32) 
201

>  <lig_chain>  (32) 
A

>  <lig_segi>  (32) 


>  <lig_alt>  (32) 


>  <polymer_chain>  (32) 
A

$$$$
x1498_0A§2
     RDKit          3D

  7  7  0  0  0  0  0  0  0  0999 V2000
  -18.2580   19.9450  -20.8390 N   0  0  0  0  0  0  0  0  0  0  0  0
  -19.3030   19.1730  -21.2740 C   0  0  0  0  0  0  0  0  0  0  0  0
  -19.7950   18.2350  -20.4300 O   0  0  0  0  0  0  0  0  0  0  0  0
  -19.8620   19.3270  -22.5430 C   0  0  0  0  0  0  0  0  0  0  0  0
  -19.3240   20.2810  -23.3900 C   0  0  0  0  0  0  0  0  0  0  0  0
  -18.2770   21.0700  -22.9690 C   0  0  0  0  0  0  0  0  0  0  0  0
  -17.7820   20.8710  -21.6940 C   0  0  0  0  0  0  0  0  0  0  0  0
  1  2  2  0
  1  7  1  0
  2  3  1  0
  2  4  1  0
  4  5  2  0
  5  6  1  0
  6  7  2  0
A    1
 N  
A    2
 C  
A    3
 O  
A    4
 C1 
A    5
 C2 
A    6
 C3 
A    7
 C4 
M  END
>  <XChem_code>  (33) 
D68EV3CPROA-x1498

>  <Occupancy>  (33) 
[0.88, 0.88, 0.88, 0.88, 0.88, 0.88, 0.88]

>  <TempFactor>  (33) 
[53.3, 52.52, 51.54, 47.0, 49.42, 50.99, 52.44]

>  <RealCrystalName>  (33) 
D68EV3CPROA-x1498

>  <smiles>  (33) 
OC=1C=CC=CN1

>  <new_smiles>  (33) 
OC=1C=CC=CN1

>  <alternate_name>  (33) 
Z1741982125

>  <site_name>  (33) 
1

>  <pdb_entry>  (33) 
nan

>  <mol>  (33) 
<rdkit.Chem.rdchem.Mol object at 0x1650343c0>

>  <single_smiles>  (33) 
Oc1ccccn1

>  <base_name>  (33) 
D68EV3CPROA-x1498_0A

>  <lig_resn>  (33) 
LIG

>  <lig_resi>  (33) 
201

>  <lig_chain>  (33) 
B

>  <lig_segi>  (33) 


>  <lig_alt>  (33) 


>  <polymer_chain>  (33) 
B

$$$$
x1498_0A§3
     RDKit          3D

  7  7  0  0  0  0  0  0  0  0999 V2000
  -25.7720  -12.6800  -37.0900 N   0  0  0  0  0  0  0  0  0  0  0  0
  -27.0190  -12.3010  -37.4870 C   0  0  0  0  0  0  0  0  0  0  0  0
  -27.2540  -10.9840  -37.6450 O   0  0  0  0  0  0  0  0  0  0  0  0
  -28.0390  -13.2250  -37.7230 C   0  0  0  0  0  0  0  0  0  0  0  0
  -27.7590  -14.5720  -37.5430 C   0  0  0  0  0  0  0  0  0  0  0  0
  -26.5050  -14.9720  -37.1300 C   0  0  0  0  0  0  0  0  0  0  0  0
  -25.5470  -13.9970  -36.9200 C   0  0  0  0  0  0  0  0  0  0  0  0
  1  2  2  0
  1  7  1  0
  2  3  1  0
  2  4  1  0
  4  5  2  0
  5  6  1  0
  6  7  2  0
A    1
 N  
A    2
 C  
A    3
 O  
A    4
 C1 
A    5
 C2 
A    6
 C3 
A    7
 C4 
M  END
>  <XChem_code>  (34) 
D68EV3CPROA-x1498

>  <Occupancy>  (34) 
[0.62, 0.62, 0.62, 0.62, 0.62, 0.62, 0.62]

>  <TempFactor>  (34) 
[32.45, 33.25, 31.28, 30.67, 32.17, 31.98, 32.5]

>  <RealCrystalName>  (34) 
D68EV3CPROA-x1498

>  <smiles>  (34) 
OC=1C=CC=CN1

>  <new_smiles>  (34) 
OC=1C=CC=CN1

>  <alternate_name>  (34) 
Z1741982125

>  <site_name>  (34) 
1

>  <pdb_entry>  (34) 
nan

>  <mol>  (34) 
<rdkit.Chem.rdchem.Mol object at 0x1650343c0>

>  <single_smiles>  (34) 
Oc1ccccn1

>  <base_name>  (34) 
D68EV3CPROA-x1498_0A

>  <lig_resn>  (34) 
LIG

>  <lig_resi>  (34) 
301

>  <lig_chain>  (34) 
B

>  <lig_segi>  (34) 


>  <lig_alt>  (34) 


>  <polymer_chain>  (34) 
B

$$$$
x1649_0A§1
     RDKit          3D

 11 12  0  0  0  0  0  0  0  0999 V2000
   -1.2320    5.9560  -23.6320 N   0  0  0  0  0  0  0  0  0  0  0  0
   -1.5070    6.5780  -21.2380 C   0  0  0  0  0  0  0  0  0  0  0  0
   -0.9360    6.9660  -22.5660 C   0  0  0  0  0  0  0  0  0  0  0  0
   -2.2730    4.9460  -25.3440 N   0  0  0  0  0  0  0  0  0  0  0  0
   -2.3020    5.9290  -24.4760 C   0  0  0  0  0  0  0  0  0  0  0  0
   -1.0880    4.2640  -25.0530 C   0  0  0  0  0  0  0  0  0  0  0  0
   -0.5160    3.1510  -25.6680 C   0  0  0  0  0  0  0  0  0  0  0  0
    0.7020    2.6750  -25.1940 C   0  0  0  0  0  0  0  0  0  0  0  0
    1.3530    3.3060  -24.1320 C   0  0  0  0  0  0  0  0  0  0  0  0
    0.7980    4.4260  -23.5200 C   0  0  0  0  0  0  0  0  0  0  0  0
   -0.4300    4.8790  -23.9880 C   0  0  0  0  0  0  0  0  0  0  0  0
  1  3  1  0
  1  5  1  0
  1 11  1  0
  2  3  1  0
  4  5  2  0
  4  6  1  0
  6  7  1  0
  6 11  2  0
  7  8  2  0
  8  9  1  0
  9 10  2  0
 10 11  1  0
A    1
 N  
A    2
 C  
A    3
 C1 
A    4
 N1 
A    5
 C2 
A    6
 C3 
A    7
 C4 
A    8
 C5 
A    9
 C6 
A   10
 C7 
A   11
 C8 
M  END
>  <XChem_code>  (35) 
D68EV3CPROA-x1649

>  <Occupancy>  (35) 
[0.78, 0.78, 0.78, 0.78, 0.78, 0.78, 0.78, 0.78, 0.78, 0.78, 0.78]

>  <TempFactor>  (35) 
[48.54, 45.3, 46.26, 47.61, 47.28, 44.87, 43.5, 45.73, 46.05, 48.86, 46.81]

>  <RealCrystalName>  (35) 
D68EV3CPROA-x1649

>  <smiles>  (35) 
CCN1C=NC=2C=CC=CC12

>  <new_smiles>  (35) 
CCN1C=NC=2C=CC=CC12

>  <alternate_name>  (35) 
Z53833304

>  <site_name>  (35) 
3

>  <pdb_entry>  (35) 
nan

>  <mol>  (35) 
<rdkit.Chem.rdchem.Mol object at 0x165034dd0>

>  <single_smiles>  (35) 
CCn1cnc2ccccc21

>  <base_name>  (35) 
D68EV3CPROA-x1649_0A

>  <lig_resn>  (35) 
LIG

>  <lig_resi>  (35) 
201

>  <lig_chain>  (35) 
A

>  <lig_segi>  (35) 


>  <lig_alt>  (35) 


>  <polymer_chain>  (35) 
A

$$$$
x1649_0A§2
     RDKit          3D

 11 12  0  0  0  0  0  0  0  0999 V2000
  -10.3420    1.9640  -13.1040 N   0  0  0  0  0  0  0  0  0  0  0  0
  -10.7380    4.2850  -13.9070 C   0  0  0  0  0  0  0  0  0  0  0  0
  -11.0320    3.2680  -12.8490 C   0  0  0  0  0  0  0  0  0  0  0  0
   -8.7850    0.3510  -13.0030 N   0  0  0  0  0  0  0  0  0  0  0  0
   -9.1110    1.5750  -12.6630 C   0  0  0  0  0  0  0  0  0  0  0  0
   -9.8860   -0.1110  -13.7290 C   0  0  0  0  0  0  0  0  0  0  0  0
  -10.1190   -1.3540  -14.3150 C   0  0  0  0  0  0  0  0  0  0  0  0
  -11.3280   -1.5710  -14.9700 C   0  0  0  0  0  0  0  0  0  0  0  0
  -12.3000   -0.5700  -15.0290 C   0  0  0  0  0  0  0  0  0  0  0  0
  -12.0830    0.6700  -14.4340 C   0  0  0  0  0  0  0  0  0  0  0  0
  -10.8630    0.8810  -13.8020 C   0  0  0  0  0  0  0  0  0  0  0  0
  1  3  1  0
  1  5  1  0
  1 11  1  0
  2  3  1  0
  4  5  2  0
  4  6  1  0
  6  7  1  0
  6 11  2  0
  7  8  2  0
  8  9  1  0
  9 10  2  0
 10 11  1  0
A    1
 N  
A    2
 C  
A    3
 C1 
A    4
 N1 
A    5
 C2 
A    6
 C3 
A    7
 C4 
A    8
 C5 
A    9
 C6 
A   10
 C7 
A   11
 C8 
M  END
>  <XChem_code>  (36) 
D68EV3CPROA-x1649

>  <Occupancy>  (36) 
[0.78, 0.78, 0.78, 0.78, 0.78, 0.78, 0.78, 0.78, 0.78, 0.78, 0.78]

>  <TempFactor>  (36) 
[48.54, 45.3, 46.26, 47.61, 47.28, 44.87, 43.5, 45.73, 46.05, 48.86, 46.81]

>  <RealCrystalName>  (36) 
D68EV3CPROA-x1649

>  <smiles>  (36) 
CCN1C=NC=2C=CC=CC12

>  <new_smiles>  (36) 
CCN1C=NC=2C=CC=CC12

>  <alternate_name>  (36) 
Z53833304

>  <site_name>  (36) 
3

>  <pdb_entry>  (36) 
nan

>  <mol>  (36) 
<rdkit.Chem.rdchem.Mol object at 0x165034dd0>

>  <single_smiles>  (36) 
CCn1cnc2ccccc21

>  <base_name>  (36) 
D68EV3CPROA-x1649_0A

>  <lig_resn>  (36) 
LIG

>  <lig_resi>  (36) 
201

>  <lig_chain>  (36) 
A

>  <lig_segi>  (36) 


>  <lig_alt>  (36) 


>  <polymer_chain>  (36) 
B

$$$$
x0818_0B§1
     RDKit          3D

 14 14  0  0  0  0  0  0  0  0999 V2000
   -7.6410    3.6130  -53.8350 N   0  0  0  0  0  0  0  0  0  0  0  0
   -6.8560    4.8280  -54.0620 C   0  0  0  0  0  0  0  0  0  0  0  0
   -8.8820    2.3690  -52.4440 O   0  0  0  0  0  0  0  0  0  0  0  0
   -8.1170    2.9570  -55.0550 C   0  0  0  0  0  0  0  0  0  0  0  0
   -6.1620    2.3990  -51.1500 O   0  0  0  0  0  0  0  0  0  0  0  0
   -7.9280    3.1120  -52.6200 C   0  0  0  0  0  0  0  0  0  0  0  0
   -7.0490    3.4750  -51.4310 C   0  0  0  0  0  0  0  0  0  0  0  0
   -6.5280    1.5440  -50.1470 C   0  0  0  0  0  0  0  0  0  0  0  0
   -5.5680    1.0500  -49.2810 C   0  0  0  0  0  0  0  0  0  0  0  0
   -5.9630    0.2400  -48.2320 C   0  0  0  0  0  0  0  0  0  0  0  0
   -7.2920   -0.0940  -48.0580 C   0  0  0  0  0  0  0  0  0  0  0  0
   -8.2010    0.4030  -48.9470 C   0  0  0  0  0  0  0  0  0  0  0  0
   -7.8690    1.2210  -49.9900 C   0  0  0  0  0  0  0  0  0  0  0  0
   -9.5020    0.0550  -48.8090 F   0  0  0  0  0  0  0  0  0  0  0  0
  1  2  1  0
  1  4  1  0
  1  6  1  0
  3  6  2  0
  5  7  1  0
  5  8  1  0
  6  7  1  0
  8  9  2  0
  8 13  1  0
  9 10  1  0
 10 11  2  0
 11 12  1  0
 12 13  2  0
 12 14  1  0
A    1
 N  
A    2
 C  
A    3
 O  
A    4
 C1 
A    5
 O1 
A    6
 C2 
A    7
 C3 
A    8
 C4 
A    9
 C5 
A   10
 C6 
A   11
 C7 
A   12
 C8 
A   13
 C9 
A   14
 F  
M  END
>  <XChem_code>  (37) 
D68EV3CPROA-x0818

>  <Occupancy>  (37) 
[0.68, 0.68, 0.68, 0.68, 0.68, 0.68, 0.68, 0.68, 0.68, 0.68, 0.68, 0.68, 0.68, 0.68]

>  <TempFactor>  (37) 
[74.66, 70.74, 84.12, 71.46, 69.92, 77.4, 74.2, 65.21, 64.01, 63.41, 62.77, 62.29, 63.9, 62.79]

>  <RealCrystalName>  (37) 
D68EV3CPROA-x0818

>  <smiles>  (37) 
CN(C)C(=O)COc1cccc(F)c1

>  <new_smiles>  (37) 
CN(C)C(=O)COc1cccc(F)c1

>  <alternate_name>  (37) 
Z19755216

>  <site_name>  (37) 
2

>  <pdb_entry>  (37) 
nan

>  <mol>  (37) 
<rdkit.Chem.rdchem.Mol object at 0x162e325e0>

>  <single_smiles>  (37) 
CN(C)C(=O)COc1cccc(F)c1

>  <base_name>  (37) 
D68EV3CPROA-x0818_0B

>  <lig_resn>  (37) 
LIG

>  <lig_resi>  (37) 
201

>  <lig_chain>  (37) 
B

>  <lig_segi>  (37) 


>  <lig_alt>  (37) 


>  <polymer_chain>  (37) 
B

$$$$
x1374_0A§1
     RDKit          3D

 14 14  0  0  0  0  0  0  0  0999 V2000
  -28.0210    0.2670  -42.7610 N   0  0  0  0  0  0  0  0  0  0  0  0
  -29.3430    2.3580  -42.5030 C   0  0  0  0  0  0  0  0  0  0  0  0
  -31.6360    0.5690  -43.3280 O   0  0  0  0  0  0  0  0  0  0  0  0
  -29.4000    0.8300  -42.5410 C   0  0  1  0  0  0  0  0  0  0  0  0
  -30.0030   -0.2230  -44.6300 O   0  0  0  0  0  0  0  0  0  0  0  0
  -30.3600    0.3300  -43.6290 C   0  0  0  0  0  0  0  0  0  0  0  0
  -27.6400    1.0900  -45.0530 O   0  0  0  0  0  0  0  0  0  0  0  0
  -32.5890   -0.4370  -43.7500 C   0  0  0  0  0  0  0  0  0  0  0  0
  -26.0230    1.6140  -43.2810 O   0  0  0  0  0  0  0  0  0  0  0  0
  -26.0100   -0.7660  -44.2930 C   0  0  0  0  0  0  0  0  0  0  0  0
  -27.6840   -0.7200  -41.7120 C   0  0  0  0  0  0  0  0  0  0  0  0
  -28.4830   -0.2110  -40.5400 C   0  0  0  0  0  0  0  0  0  0  0  0
  -29.8010    0.2390  -41.1680 C   0  0  0  0  0  0  0  0  0  0  0  0
  -26.9150    0.6830  -43.8930 S   0  0  1  0  0  0  0  0  0  0  0  0
  1  4  1  0
  1 11  1  0
  1 14  1  0
  4  2  1  1
  3  6  1  0
  3  8  1  0
  4  6  1  0
  4 13  1  0
  5  6  2  0
  7 14  2  0
  9 14  2  0
 14 10  1  6
 11 12  1  0
 12 13  1  0
A    1
 N  
A    2
 C  
A    3
 O  
A    4
 C1 
A    5
 O1 
A    6
 C2 
A    7
 O2 
A    8
 C3 
A    9
 O3 
A   10
 C4 
A   11
 C5 
A   12
 C6 
A   13
 C7 
A   14
 S  
M  END
>  <XChem_code>  (38) 
D68EV3CPROA-x1374

>  <Occupancy>  (38) 
[0.82, 0.82, 0.82, 0.82, 0.82, 0.82, 0.82, 0.82, 0.82, 0.82, 0.82, 0.82, 0.82, 0.82]

>  <TempFactor>  (38) 
[149.65, 140.09, 130.19, 141.61, 127.65, 134.49, 167.95, 126.45, 158.02, 154.65, 141.41, 136.38, 138.79, 162.21]

>  <RealCrystalName>  (38) 
D68EV3CPROA-x1374

>  <smiles>  (38) 
CC1(C(OC)=O)N(S(=O)(C)=O)CCC1

>  <new_smiles>  (38) 
CC1(C(OC)=O)N(S(=O)(C)=O)CCC1

>  <alternate_name>  (38) 
POB0008

>  <site_name>  (38) 
4

>  <pdb_entry>  (38) 
nan

>  <mol>  (38) 
<rdkit.Chem.rdchem.Mol object at 0x164f2bdf0>

>  <single_smiles>  (38) 
COC(=O)C1(C)CCCN1S(C)(=O)=O

>  <base_name>  (38) 
D68EV3CPROA-x1374_0A

>  <lig_resn>  (38) 
LIG

>  <lig_resi>  (38) 
201

>  <lig_chain>  (38) 
A

>  <lig_segi>  (38) 


>  <lig_alt>  (38) 


>  <polymer_chain>  (38) 
A

$$$$
x0243_0B§1
     RDKit          3D

 12 12  0  0  0  0  0  0  0  0999 V2000
    5.4220    3.2100  -23.2730 N   0  0  0  0  0  0  0  0  0  0  0  0
   -0.2660    2.2350  -25.3520 C   0  0  0  0  0  0  0  0  0  0  0  0
    5.2980    0.7640  -23.0900 O   0  0  0  0  0  0  0  0  0  0  0  0
    1.2210    2.0190  -25.4870 C   0  0  0  0  0  0  0  0  0  0  0  0
    3.6370    2.1730  -21.9420 O   0  0  0  0  0  0  0  0  0  0  0  0
    1.8000    1.8520  -26.7370 C   0  0  0  0  0  0  0  0  0  0  0  0
    3.1590    1.6900  -26.8310 C   0  0  0  0  0  0  0  0  0  0  0  0
    3.9980    1.6740  -25.7510 C   0  0  0  0  0  0  0  0  0  0  0  0
    3.4140    1.8460  -24.5070 C   0  0  0  0  0  0  0  0  0  0  0  0
    2.0430    2.0120  -24.3660 C   0  0  0  0  0  0  0  0  0  0  0  0
    3.7100    1.5540  -28.0710 F   0  0  0  0  0  0  0  0  0  0  0  0
    4.4650    1.9310  -23.0890 S   0  0  1  0  0  0  0  0  0  0  0  0
 12  1  1  6
  2  4  1  0
  3 12  2  0
  4  6  2  0
  4 10  1  0
  5 12  2  0
  6  7  1  0
  7  8  2  0
  7 11  1  0
  8  9  1  0
  9 10  2  0
  9 12  1  0
A    1
 N  
A    2
 C  
A    3
 O  
A    4
 C1 
A    5
 O1 
A    6
 C2 
A    7
 C3 
A    8
 C4 
A    9
 C5 
A   10
 C6 
A   11
 F  
A   12
 S  
M  END
>  <XChem_code>  (39) 
D68EV3CPROA-x0243

>  <Occupancy>  (39) 
[0.5, 0.5, 0.5, 0.5, 0.5, 0.5, 0.5, 0.5, 0.5, 0.5, 0.5, 0.5]

>  <TempFactor>  (39) 
[38.65, 35.23, 37.35, 35.2, 37.2, 35.98, 35.67, 35.65, 34.54, 35.23, 37.25, 37.33]

>  <RealCrystalName>  (39) 
D68EV3CPROA-x0243

>  <smiles>  (39) 
Cc1cc(F)cc(c1)S(=O)(=O)N

>  <new_smiles>  (39) 
Cc1cc(F)cc(c1)S(=O)(=O)N

>  <alternate_name>  (39) 
Z1295863442

>  <site_name>  (39) 
3

>  <pdb_entry>  (39) 
nan

>  <mol>  (39) 
<rdkit.Chem.rdchem.Mol object at 0x162e33990>

>  <single_smiles>  (39) 
Cc1cc(F)cc(S(N)(=O)=O)c1

>  <base_name>  (39) 
D68EV3CPROA-x0243_0B

>  <lig_resn>  (39) 
LIG

>  <lig_resi>  (39) 
201

>  <lig_chain>  (39) 
B

>  <lig_segi>  (39) 


>  <lig_alt>  (39) 


>  <polymer_chain>  (39) 
A

$$$$
x0243_0B§2
     RDKit          3D

 12 12  0  0  0  0  0  0  0  0999 V2000
  -16.5910   -1.2450  -15.4170 N   0  0  0  0  0  0  0  0  0  0  0  0
  -10.4910   -1.8050  -15.1120 C   0  0  0  0  0  0  0  0  0  0  0  0
  -16.1400   -2.3350  -17.5720 O   0  0  0  0  0  0  0  0  0  0  0  0
  -11.8500   -2.4500  -15.2200 C   0  0  0  0  0  0  0  0  0  0  0  0
  -15.0400   -0.2030  -17.0110 O   0  0  0  0  0  0  0  0  0  0  0  0
  -12.0800   -3.7080  -14.6820 C   0  0  0  0  0  0  0  0  0  0  0  0
  -13.3360   -4.2560  -14.7660 C   0  0  0  0  0  0  0  0  0  0  0  0
  -14.3960   -3.6330  -15.3650 C   0  0  0  0  0  0  0  0  0  0  0  0
  -14.1610   -2.3760  -15.8950 C   0  0  0  0  0  0  0  0  0  0  0  0
  -12.9060   -1.7860  -15.8330 C   0  0  0  0  0  0  0  0  0  0  0  0
  -13.5460   -5.4820  -14.2080 F   0  0  0  0  0  0  0  0  0  0  0  0
  -15.5210   -1.4890  -16.5920 S   0  0  1  0  0  0  0  0  0  0  0  0
 12  1  1  1
  2  4  1  0
  3 12  2  0
  4  6  2  0
  4 10  1  0
  5 12  2  0
  6  7  1  0
  7  8  2  0
  7 11  1  0
  8  9  1  0
  9 10  2  0
  9 12  1  0
A    1
 N  
A    2
 C  
A    3
 O  
A    4
 C1 
A    5
 O1 
A    6
 C2 
A    7
 C3 
A    8
 C4 
A    9
 C5 
A   10
 C6 
A   11
 F  
A   12
 S  
M  END
>  <XChem_code>  (40) 
D68EV3CPROA-x0243

>  <Occupancy>  (40) 
[0.5, 0.5, 0.5, 0.5, 0.5, 0.5, 0.5, 0.5, 0.5, 0.5, 0.5, 0.5]

>  <TempFactor>  (40) 
[38.65, 35.23, 37.35, 35.2, 37.2, 35.98, 35.67, 35.65, 34.54, 35.23, 37.25, 37.33]

>  <RealCrystalName>  (40) 
D68EV3CPROA-x0243

>  <smiles>  (40) 
Cc1cc(F)cc(c1)S(=O)(=O)N

>  <new_smiles>  (40) 
Cc1cc(F)cc(c1)S(=O)(=O)N

>  <alternate_name>  (40) 
Z1295863442

>  <site_name>  (40) 
3

>  <pdb_entry>  (40) 
nan

>  <mol>  (40) 
<rdkit.Chem.rdchem.Mol object at 0x162e33990>

>  <single_smiles>  (40) 
Cc1cc(F)cc(S(N)(=O)=O)c1

>  <base_name>  (40) 
D68EV3CPROA-x0243_0B

>  <lig_resn>  (40) 
LIG

>  <lig_resi>  (40) 
201

>  <lig_chain>  (40) 
B

>  <lig_segi>  (40) 


>  <lig_alt>  (40) 


>  <polymer_chain>  (40) 
B

$$$$
x0121_0B§1
     RDKit          3D

 15 16  0  0  0  0  0  0  0  0999 V2000
   -4.9950    2.6580  -51.3560 N   0  0  0  0  0  0  0  0  0  0  0  0
   -5.2100    1.5090  -50.6970 C   0  0  0  0  0  0  0  0  0  0  0  0
   -4.3290    0.6700  -50.4920 O   0  0  0  0  0  0  0  0  0  0  0  0
   -4.1300    2.7440  -52.5350 C   0  0  2  0  0  0  0  0  0  0  0  0
   -4.0590    5.1820  -52.6790 N   0  0  0  0  0  0  0  0  0  0  0  0
   -3.1870    6.1820  -50.8950 O   0  0  0  0  0  0  0  0  0  0  0  0
   -2.6550    2.7860  -52.1370 C   0  0  0  0  0  0  0  0  0  0  0  0
   -7.6660    1.9130  -50.8900 N   0  0  0  0  0  0  0  0  0  0  0  0
   -2.2120    4.1130  -51.5160 C   0  0  0  0  0  0  0  0  0  0  0  0
   -3.1900    5.2380  -51.6810 C   0  0  0  0  0  0  0  0  0  0  0  0
   -4.4960    3.9650  -53.3580 C   0  0  0  0  0  0  0  0  0  0  0  0
   -6.6060    1.2870  -50.2500 C   0  0  0  0  0  0  0  0  0  0  0  0
   -6.9580    0.4080  -49.2780 C   0  0  0  0  0  0  0  0  0  0  0  0
   -8.7890    1.4750  -50.4000 C   0  0  0  0  0  0  0  0  0  0  0  0
   -8.6540    0.3150  -49.1530 S   0  0  0  0  0  0  0  0  0  0  0  0
  1  2  1  0
  4  1  1  1
  2  3  2  0
  2 12  1  0
  4  7  1  0
  4 11  1  0
  5 10  1  0
  5 11  1  0
  6 10  2  0
  7  9  1  0
  8 12  1  0
  8 14  2  0
  9 10  1  0
 12 13  2  0
 13 15  1  0
 14 15  1  0
A    1
 N  
A    2
 C  
A    3
 O  
A    4
 C1 
A    5
 N1 
A    6
 O1 
A    7
 C2 
A    8
 N2 
A    9
 C3 
A   10
 C4 
A   11
 C5 
A   12
 C6 
A   13
 C7 
A   14
 C8 
A   15
 S  
M  END
>  <XChem_code>  (41) 
D68EV3CPROA-x0121

>  <Occupancy>  (41) 
[0.86, 0.86, 0.86, 0.86, 0.86, 0.86, 0.86, 0.86, 0.86, 0.86, 0.86, 0.86, 0.86, 0.86, 0.86]

>  <TempFactor>  (41) 
[72.77, 67.56, 69.62, 78.04, 85.06, 83.39, 80.9, 55.94, 81.99, 83.1, 81.3, 58.53, 54.42, 52.91, 47.47]

>  <RealCrystalName>  (41) 
D68EV3CPROA-x0121

>  <smiles>  (41) 
O=C(NC1CCC(=O)NC1)c2cscn2

>  <new_smiles>  (41) 
O=C(NC1CCC(=O)NC1)c2cscn2

>  <alternate_name>  (41) 
Z1102357527

>  <site_name>  (41) 
2

>  <pdb_entry>  (41) 
nan

>  <mol>  (41) 
<rdkit.Chem.rdchem.Mol object at 0x16324d1c0>

>  <single_smiles>  (41) 
O=C1CCC(NC(=O)c2cscn2)CN1

>  <base_name>  (41) 
D68EV3CPROA-x0121_0B

>  <lig_resn>  (41) 
LIG

>  <lig_resi>  (41) 
201

>  <lig_chain>  (41) 
B

>  <lig_segi>  (41) 


>  <lig_alt>  (41) 


>  <polymer_chain>  (41) 
B

$$$$
x1094_0A§1
     RDKit          3D

 15 16  0  0  0  0  0  0  0  0999 V2000
  -19.9030  -12.9630  -22.4590 N   0  0  0  0  0  0  0  0  0  0  0  0
  -13.9200  -13.9710  -24.5040 C   0  0  0  0  0  0  0  0  0  0  0  0
  -20.5000  -13.1360  -24.6310 O   0  0  0  0  0  0  0  0  0  0  0  0
  -15.3060  -14.1510  -23.9610 C   0  0  0  0  0  0  0  0  0  0  0  0
  -15.5160  -13.8400  -22.6640 N   0  0  0  0  0  0  0  0  0  0  0  0
  -16.3560  -14.5660  -24.7800 C   0  0  0  0  0  0  0  0  0  0  0  0
  -17.6360  -14.6220  -24.2610 C   0  0  0  0  0  0  0  0  0  0  0  0
  -17.8690  -14.2850  -22.9420 C   0  0  0  0  0  0  0  0  0  0  0  0
  -19.2610  -14.2670  -22.3590 C   0  0  0  0  0  0  0  0  0  0  0  0
  -20.3530  -12.4570  -23.6120 C   0  0  0  0  0  0  0  0  0  0  0  0
  -20.7080  -10.9960  -23.5820 C   0  0  2  0  0  0  0  0  0  0  0  0
  -22.1640  -10.7010  -23.8920 C   0  0  0  0  0  0  0  0  0  0  0  0
  -21.6950   -9.7740  -25.0480 C   0  0  0  0  0  0  0  0  0  0  0  0
  -20.2440  -10.1380  -24.7750 C   0  0  0  0  0  0  0  0  0  0  0  0
  -16.7700  -13.9180  -22.1870 C   0  0  0  0  0  0  0  0  0  0  0  0
  1  9  1  0
  1 10  1  0
  2  4  1  0
  3 10  2  0
  4  5  2  0
  4  6  1  0
  5 15  1  0
  6  7  2  0
  7  8  1  0
  8  9  1  0
  8 15  2  0
 11 10  1  6
 11 12  1  0
 11 14  1  0
 12 13  1  0
 13 14  1  0
A    1
 N  
A    2
 C  
A    3
 O  
A    4
 C1 
A    5
 N1 
A    6
 C2 
A    7
 C3 
A    8
 C4 
A    9
 C5 
A   10
 C6 
A   11
 C7 
A   12
 C8 
A   13
 C9 
A   14
 C10
A   15
 C11
M  END
>  <XChem_code>  (42) 
D68EV3CPROA-x1094

>  <Occupancy>  (42) 
[0.56, 0.56, 0.56, 0.56, 0.56, 0.56, 0.56, 0.56, 0.56, 0.56, 0.56, 0.56, 0.56, 0.56, 0.56]

>  <TempFactor>  (42) 
[28.32, 24.94, 30.47, 25.64, 26.66, 25.8, 25.53, 26.07, 26.72, 28.98, 28.59, 28.64, 29.28, 28.95, 25.14]

>  <RealCrystalName>  (42) 
D68EV3CPROA-x1094

>  <smiles>  (42) 
Cc1ccc(CNC(=O)C2CCC2)cn1

>  <new_smiles>  (42) 
Cc1ccc(CNC(=O)C2CCC2)cn1

>  <alternate_name>  (42) 
Z437516460

>  <site_name>  (42) 
5

>  <pdb_entry>  (42) 
nan

>  <mol>  (42) 
<rdkit.Chem.rdchem.Mol object at 0x164f2b370>

>  <single_smiles>  (42) 
Cc1ccc(CNC(=O)C2CCC2)cn1

>  <base_name>  (42) 
D68EV3CPROA-x1094_0A

>  <lig_resn>  (42) 
LIG

>  <lig_resi>  (42) 
201

>  <lig_chain>  (42) 
A

>  <lig_segi>  (42) 


>  <lig_alt>  (42) 


>  <polymer_chain>  (42) 
A

$$$$
x0232_0B§1
     RDKit          3D

 13 14  0  0  0  0  0  0  0  0999 V2000
  -28.9430    5.1370  -43.6670 N   0  0  0  0  0  0  0  0  0  0  0  0
  -27.9720    2.8620  -42.5090 C   0  0  0  0  0  0  0  0  0  0  0  0
  -27.1950    5.2630  -41.9620 O   0  0  0  0  0  0  0  0  0  0  0  0
  -28.6530    1.8670  -41.8130 C   0  0  0  0  0  0  0  0  0  0  0  0
  -26.8540   -1.0940  -43.1930 N   0  0  0  0  0  0  0  0  0  0  0  0
  -29.4900    4.6060  -41.3390 O   0  0  0  0  0  0  0  0  0  0  0  0
  -25.3950    0.5280  -44.5860 S   0  0  0  0  0  0  0  0  0  0  0  0
  -28.3200    0.5350  -42.0120 C   0  0  0  0  0  0  0  0  0  0  0  0
  -27.3000    0.1970  -42.9010 C   0  0  0  0  0  0  0  0  0  0  0  0
  -25.8830   -1.0430  -44.0380 C   0  0  0  0  0  0  0  0  0  0  0  0
  -26.6240    1.2180  -43.5770 C   0  0  0  0  0  0  0  0  0  0  0  0
  -26.9510    2.5530  -43.3950 C   0  0  0  0  0  0  0  0  0  0  0  0
  -28.4030    4.5580  -42.2720 S   0  0  1  0  0  0  0  0  0  0  0  0
 13  1  1  6
  2  4  2  0
  2 12  1  0
  2 13  1  0
  3 13  2  0
  4  8  1  0
  5  9  1  0
  5 10  2  0
  6 13  2  0
  7 10  1  0
  7 11  1  0
  8  9  2  0
  9 11  1  0
 11 12  2  0
A    1
 N  
A    2
 C  
A    3
 O  
A    4
 C1 
A    5
 N1 
A    6
 O1 
A    7
 S1 
A    8
 C2 
A    9
 C3 
A   10
 C4 
A   11
 C5 
A   12
 C6 
A   13
 S  
M  END
>  <XChem_code>  (43) 
D68EV3CPROA-x0232

>  <Occupancy>  (43) 
[0.66, 0.66, 0.66, 0.66, 0.66, 0.66, 0.66, 0.66, 0.66, 0.66, 0.66, 0.66, 0.66]

>  <TempFactor>  (43) 
[60.8, 58.09, 60.48, 59.46, 56.24, 55.39, 51.37, 58.49, 56.62, 54.25, 55.45, 56.25, 62.86]

>  <RealCrystalName>  (43) 
D68EV3CPROA-x0232

>  <smiles>  (43) 
NS(=O)(=O)c1ccc2ncsc2c1

>  <new_smiles>  (43) 
NS(=O)(=O)c1ccc2ncsc2c1

>  <alternate_name>  (43) 
Z1269184613

>  <site_name>  (43) 
4

>  <pdb_entry>  (43) 
nan

>  <mol>  (43) 
<rdkit.Chem.rdchem.Mol object at 0x162e33a70>

>  <single_smiles>  (43) 
NS(=O)(=O)c1ccc2ncsc2c1

>  <base_name>  (43) 
D68EV3CPROA-x0232_0B

>  <lig_resn>  (43) 
LIG

>  <lig_resi>  (43) 
202

>  <lig_chain>  (43) 
B

>  <lig_segi>  (43) 


>  <lig_alt>  (43) 


>  <polymer_chain>  (43) 
B

$$$$
x0232_0B§2
     RDKit          3D

 13 14  0  0  0  0  0  0  0  0999 V2000
  -14.1630  -11.2460  -13.7220 N   0  0  0  0  0  0  0  0  0  0  0  0
  -12.3920  -12.3900  -11.9670 C   0  0  0  0  0  0  0  0  0  0  0  0
  -13.6670  -10.1770  -11.5750 O   0  0  0  0  0  0  0  0  0  0  0  0
  -11.4390  -11.9550  -11.0540 C   0  0  0  0  0  0  0  0  0  0  0  0
   -8.8900  -14.6240  -11.5900 N   0  0  0  0  0  0  0  0  0  0  0  0
  -14.9550  -12.2690  -11.6510 O   0  0  0  0  0  0  0  0  0  0  0  0
  -10.4610  -15.6790  -13.3530 S   0  0  0  0  0  0  0  0  0  0  0  0
  -10.2770  -12.6850  -10.8690 C   0  0  0  0  0  0  0  0  0  0  0  0
  -10.0390  -13.8280  -11.6290 C   0  0  0  0  0  0  0  0  0  0  0  0
   -8.9980  -15.5940  -12.4290 C   0  0  0  0  0  0  0  0  0  0  0  0
  -11.0140  -14.2480  -12.5400 C   0  0  0  0  0  0  0  0  0  0  0  0
  -12.1980  -13.5450  -12.7110 C   0  0  0  0  0  0  0  0  0  0  0  0
  -13.8860  -11.4650  -12.1620 S   0  0  1  0  0  0  0  0  0  0  0  0
 13  1  1  6
  2  4  2  0
  2 12  1  0
  2 13  1  0
  3 13  2  0
  4  8  1  0
  5  9  1  0
  5 10  2  0
  6 13  2  0
  7 10  1  0
  7 11  1  0
  8  9  2  0
  9 11  1  0
 11 12  2  0
A    1
 N  
A    2
 C  
A    3
 O  
A    4
 C1 
A    5
 N1 
A    6
 O1 
A    7
 S1 
A    8
 C2 
A    9
 C3 
A   10
 C4 
A   11
 C5 
A   12
 C6 
A   13
 S  
M  END
>  <XChem_code>  (44) 
D68EV3CPROA-x0232

>  <Occupancy>  (44) 
[0.64, 0.64, 0.64, 0.64, 0.64, 0.64, 0.64, 0.64, 0.64, 0.64, 0.64, 0.64, 0.64]

>  <TempFactor>  (44) 
[48.88, 49.78, 50.91, 49.09, 53.61, 52.54, 57.54, 51.16, 52.47, 54.77, 51.84, 50.42, 48.86]

>  <RealCrystalName>  (44) 
D68EV3CPROA-x0232

>  <smiles>  (44) 
NS(=O)(=O)c1ccc2ncsc2c1

>  <new_smiles>  (44) 
NS(=O)(=O)c1ccc2ncsc2c1

>  <alternate_name>  (44) 
Z1269184613

>  <site_name>  (44) 
4

>  <pdb_entry>  (44) 
nan

>  <mol>  (44) 
<rdkit.Chem.rdchem.Mol object at 0x162e33a70>

>  <single_smiles>  (44) 
NS(=O)(=O)c1ccc2ncsc2c1

>  <base_name>  (44) 
D68EV3CPROA-x0232_0B

>  <lig_resn>  (44) 
LIG

>  <lig_resi>  (44) 
201

>  <lig_chain>  (44) 
B

>  <lig_segi>  (44) 


>  <lig_alt>  (44) 


>  <polymer_chain>  (44) 
A

$$$$
x0232_0B§3
     RDKit          3D

 13 14  0  0  0  0  0  0  0  0999 V2000
    2.0030    4.8220  -32.3020 N   0  0  0  0  0  0  0  0  0  0  0  0
    0.0760    5.1100  -34.2320 C   0  0  0  0  0  0  0  0  0  0  0  0
    0.7970    6.9380  -32.5550 O   0  0  0  0  0  0  0  0  0  0  0  0
   -1.1390    5.7700  -34.3670 C   0  0  0  0  0  0  0  0  0  0  0  0
   -2.9540    3.2010  -36.3700 N   0  0  0  0  0  0  0  0  0  0  0  0
    2.4110    6.2190  -34.2630 O   0  0  0  0  0  0  0  0  0  0  0  0
   -0.8250    1.7340  -36.2960 S   0  0  0  0  0  0  0  0  0  0  0  0
   -2.1630    5.1900  -35.0990 C   0  0  0  0  0  0  0  0  0  0  0  0
   -1.9920    3.9270  -35.6610 C   0  0  0  0  0  0  0  0  0  0  0  0
   -2.4670    2.0680  -36.7390 C   0  0  0  0  0  0  0  0  0  0  0  0
   -0.7600    3.2830  -35.5140 C   0  0  0  0  0  0  0  0  0  0  0  0
    0.2850    3.8670  -34.8120 C   0  0  0  0  0  0  0  0  0  0  0  0
    1.3820    5.8830  -33.3260 S   0  0  1  0  0  0  0  0  0  0  0  0
 13  1  1  1
  2  4  2  0
  2 12  1  0
  2 13  1  0
  3 13  2  0
  4  8  1  0
  5  9  1  0
  5 10  2  0
  6 13  2  0
  7 10  1  0
  7 11  1  0
  8  9  2  0
  9 11  1  0
 11 12  2  0
A    1
 N  
A    2
 C  
A    3
 O  
A    4
 C1 
A    5
 N1 
A    6
 O1 
A    7
 S1 
A    8
 C2 
A    9
 C3 
A   10
 C4 
A   11
 C5 
A   12
 C6 
A   13
 S  
M  END
>  <XChem_code>  (45) 
D68EV3CPROA-x0232

>  <Occupancy>  (45) 
[0.64, 0.64, 0.64, 0.64, 0.64, 0.64, 0.64, 0.64, 0.64, 0.64, 0.64, 0.64, 0.64]

>  <TempFactor>  (45) 
[48.88, 49.78, 50.91, 49.09, 53.61, 52.54, 57.54, 51.16, 52.47, 54.77, 51.84, 50.42, 48.86]

>  <RealCrystalName>  (45) 
D68EV3CPROA-x0232

>  <smiles>  (45) 
NS(=O)(=O)c1ccc2ncsc2c1

>  <new_smiles>  (45) 
NS(=O)(=O)c1ccc2ncsc2c1

>  <alternate_name>  (45) 
Z1269184613

>  <site_name>  (45) 
4

>  <pdb_entry>  (45) 
nan

>  <mol>  (45) 
<rdkit.Chem.rdchem.Mol object at 0x162e33a70>

>  <single_smiles>  (45) 
NS(=O)(=O)c1ccc2ncsc2c1

>  <base_name>  (45) 
D68EV3CPROA-x0232_0B

>  <lig_resn>  (45) 
LIG

>  <lig_resi>  (45) 
201

>  <lig_chain>  (45) 
B

>  <lig_segi>  (45) 


>  <lig_alt>  (45) 


>  <polymer_chain>  (45) 
B

$$$$
x0157_1B§1
     RDKit          3D

 11 12  0  0  0  0  0  0  0  0999 V2000
   -6.6810    1.8140  -50.1560 N   0  0  0  0  0  0  0  0  0  0  0  0
   -6.6540    3.8190  -51.9380 C   0  0  0  0  0  0  0  0  0  0  0  0
   -6.6010    4.8270  -52.8150 O   0  0  0  0  0  0  0  0  0  0  0  0
   -5.4160    3.3580  -51.4340 C   0  0  0  0  0  0  0  0  0  0  0  0
   -8.9220    1.6910  -50.2090 N   0  0  0  0  0  0  0  0  0  0  0  0
   -4.4180    1.7130  -50.0400 O   0  0  0  0  0  0  0  0  0  0  0  0
   -5.4540    2.3230  -50.5400 C   0  0  0  0  0  0  0  0  0  0  0  0
   -7.8180    3.3260  -51.6080 N   0  0  0  0  0  0  0  0  0  0  0  0
   -7.0490    0.8300  -49.2550 C   0  0  0  0  0  0  0  0  0  0  0  0
   -8.4050    0.7750  -49.3100 C   0  0  0  0  0  0  0  0  0  0  0  0
   -7.8550    2.3150  -50.7050 C   0  0  0  0  0  0  0  0  0  0  0  0
  1  7  1  0
  1  9  1  0
  1 11  1  0
  2  3  1  0
  2  4  1  0
  2  8  2  0
  4  7  2  0
  5 10  1  0
  5 11  2  0
  6  7  1  0
  8 11  1  0
  9 10  2  0
A    1
 N  
A    2
 C  
A    3
 O  
A    4
 C1 
A    5
 N1 
A    6
 O1 
A    7
 C2 
A    8
 N2 
A    9
 C3 
A   10
 C4 
A   11
 C5 
M  END
>  <XChem_code>  (46) 
D68EV3CPROA-x0157

>  <Occupancy>  (46) 
[0.55, 0.55, 0.55, 0.55, 0.55, 0.55, 0.55, 0.55, 0.55, 0.55, 0.55]

>  <TempFactor>  (46) 
[30.73, 32.15, 34.77, 31.9, 29.31, 40.22, 31.01, 30.83, 29.02, 27.84, 29.38]

>  <RealCrystalName>  (46) 
D68EV3CPROA-x0157

>  <smiles>  (46) 
Oc1cc(O)n2ccnc2n1

>  <new_smiles>  (46) 
Oc1cc(O)n2ccnc2n1

>  <alternate_name>  (46) 
Z1198233191

>  <site_name>  (46) 
2

>  <pdb_entry>  (46) 
nan

>  <mol>  (46) 
<rdkit.Chem.rdchem.Mol object at 0x16324c660>

>  <single_smiles>  (46) 
Oc1cc(O)n2ccnc2n1

>  <base_name>  (46) 
D68EV3CPROA-x0157_1B

>  <lig_resn>  (46) 
LIG

>  <lig_resi>  (46) 
201

>  <lig_chain>  (46) 
B

>  <lig_segi>  (46) 


>  <lig_alt>  (46) 


>  <polymer_chain>  (46) 
B

$$$$
x0157_1B§2
     RDKit          3D

 11 12  0  0  0  0  0  0  0  0999 V2000
    0.7280    3.1940  -24.6760 N   0  0  0  0  0  0  0  0  0  0  0  0
   -0.2560    4.5480  -22.6130 C   0  0  0  0  0  0  0  0  0  0  0  0
   -0.7210    5.2140  -21.5610 O   0  0  0  0  0  0  0  0  0  0  0  0
    0.9550    3.8150  -22.4240 C   0  0  0  0  0  0  0  0  0  0  0  0
   -0.9830    3.8220  -25.9840 N   0  0  0  0  0  0  0  0  0  0  0  0
    2.5950    2.4830  -23.5710 O   0  0  0  0  0  0  0  0  0  0  0  0
    1.4520    3.1400  -23.5130 C   0  0  0  0  0  0  0  0  0  0  0  0
   -0.9220    4.6160  -23.7240 N   0  0  0  0  0  0  0  0  0  0  0  0
    0.9220    2.5870  -25.9040 C   0  0  0  0  0  0  0  0  0  0  0  0
   -0.1260    2.9830  -26.6710 C   0  0  0  0  0  0  0  0  0  0  0  0
   -0.4470    3.9320  -24.7740 C   0  0  0  0  0  0  0  0  0  0  0  0
  1  7  1  0
  1  9  1  0
  1 11  1  0
  2  3  1  0
  2  4  1  0
  2  8  2  0
  4  7  2  0
  5 10  1  0
  5 11  2  0
  6  7  1  0
  8 11  1  0
  9 10  2  0
A    1
 N  
A    2
 C  
A    3
 O  
A    4
 C1 
A    5
 N1 
A    6
 O1 
A    7
 C2 
A    8
 N2 
A    9
 C3 
A   10
 C4 
A   11
 C5 
M  END
>  <XChem_code>  (47) 
D68EV3CPROA-x0157

>  <Occupancy>  (47) 
[0.55, 0.55, 0.55, 0.55, 0.55, 0.55, 0.55, 0.55, 0.55, 0.55, 0.55]

>  <TempFactor>  (47) 
[37.81, 37.12, 36.26, 38.11, 37.97, 42.73, 37.94, 35.31, 38.32, 38.05, 36.24]

>  <RealCrystalName>  (47) 
D68EV3CPROA-x0157

>  <smiles>  (47) 
Oc1cc(O)n2ccnc2n1

>  <new_smiles>  (47) 
Oc1cc(O)n2ccnc2n1

>  <alternate_name>  (47) 
Z1198233191

>  <site_name>  (47) 
2

>  <pdb_entry>  (47) 
nan

>  <mol>  (47) 
<rdkit.Chem.rdchem.Mol object at 0x16324c660>

>  <single_smiles>  (47) 
Oc1cc(O)n2ccnc2n1

>  <base_name>  (47) 
D68EV3CPROA-x0157_1B

>  <lig_resn>  (47) 
LIG

>  <lig_resi>  (47) 
301

>  <lig_chain>  (47) 
B

>  <lig_segi>  (47) 


>  <lig_alt>  (47) 


>  <polymer_chain>  (47) 
A

$$$$
x0157_1B§3
     RDKit          3D

 11 12  0  0  0  0  0  0  0  0999 V2000
  -11.6410   -0.9250  -14.7890 N   0  0  0  0  0  0  0  0  0  0  0  0
  -11.3960    1.7200  -14.7890 C   0  0  0  0  0  0  0  0  0  0  0  0
  -11.3020    3.0460  -14.8100 O   0  0  0  0  0  0  0  0  0  0  0  0
  -12.4870    1.1430  -15.5070 C   0  0  0  0  0  0  0  0  0  0  0  0
   -9.7890   -1.1590  -13.5440 N   0  0  0  0  0  0  0  0  0  0  0  0
  -13.5820   -0.9420  -15.9910 O   0  0  0  0  0  0  0  0  0  0  0  0
  -12.6020   -0.2270  -15.4730 C   0  0  0  0  0  0  0  0  0  0  0  0
  -10.5050    1.0540  -14.1220 N   0  0  0  0  0  0  0  0  0  0  0  0
  -11.4420   -2.2840  -14.6220 C   0  0  0  0  0  0  0  0  0  0  0  0
  -10.3180   -2.3930  -13.8690 C   0  0  0  0  0  0  0  0  0  0  0  0
  -10.6070   -0.2820  -14.1170 C   0  0  0  0  0  0  0  0  0  0  0  0
  1  7  1  0
  1  9  1  0
  1 11  1  0
  2  3  1  0
  2  4  1  0
  2  8  2  0
  4  7  2  0
  5 10  1  0
  5 11  2  0
  6  7  1  0
  8 11  1  0
  9 10  2  0
A    1
 N  
A    2
 C  
A    3
 O  
A    4
 C1 
A    5
 N1 
A    6
 O1 
A    7
 C2 
A    8
 N2 
A    9
 C3 
A   10
 C4 
A   11
 C5 
M  END
>  <XChem_code>  (48) 
D68EV3CPROA-x0157

>  <Occupancy>  (48) 
[0.55, 0.55, 0.55, 0.55, 0.55, 0.55, 0.55, 0.55, 0.55, 0.55, 0.55]

>  <TempFactor>  (48) 
[37.81, 37.12, 36.26, 38.11, 37.97, 42.73, 37.94, 35.31, 38.32, 38.05, 36.24]

>  <RealCrystalName>  (48) 
D68EV3CPROA-x0157

>  <smiles>  (48) 
Oc1cc(O)n2ccnc2n1

>  <new_smiles>  (48) 
Oc1cc(O)n2ccnc2n1

>  <alternate_name>  (48) 
Z1198233191

>  <site_name>  (48) 
2

>  <pdb_entry>  (48) 
nan

>  <mol>  (48) 
<rdkit.Chem.rdchem.Mol object at 0x16324c660>

>  <single_smiles>  (48) 
Oc1cc(O)n2ccnc2n1

>  <base_name>  (48) 
D68EV3CPROA-x0157_1B

>  <lig_resn>  (48) 
LIG

>  <lig_resi>  (48) 
301

>  <lig_chain>  (48) 
B

>  <lig_segi>  (48) 


>  <lig_alt>  (48) 


>  <polymer_chain>  (48) 
B

$$$$
x0688_0B§1
     RDKit          3D

 18 20  0  0  0  0  0  0  0  0999 V2000
   -3.4990    0.0590  -50.5640 N   0  0  0  0  0  0  0  0  0  0  0  0
   -2.1440   -1.5570  -50.8540 C   0  0  2  0  0  0  0  0  0  0  0  0
   -1.7300   -2.3480  -51.9620 O   0  0  0  0  0  0  0  0  0  0  0  0
   -3.6660   -1.4130  -50.7200 C   0  0  0  0  0  0  0  0  0  0  0  0
   -2.1110   -0.0410  -51.0930 C   0  0  0  0  0  0  0  0  0  0  0  0
   -4.4770    0.9110  -51.2810 C   0  0  2  0  0  0  0  0  0  0  0  0
   -4.0510    2.3750  -51.2600 C   0  0  0  0  0  0  0  0  0  0  0  0
   -4.3260    3.2070  -52.3350 C   0  0  0  0  0  0  0  0  0  0  0  0
   -3.9450    4.5410  -52.3140 C   0  0  0  0  0  0  0  0  0  0  0  0
   -3.2800    5.0570  -51.2210 C   0  0  0  0  0  0  0  0  0  0  0  0
   -2.9930    4.2390  -50.1490 C   0  0  0  0  0  0  0  0  0  0  0  0
   -3.3780    2.9070  -50.1660 C   0  0  0  0  0  0  0  0  0  0  0  0
   -5.8830    0.7010  -50.7290 C   0  0  0  0  0  0  0  0  0  0  0  0
   -6.9840    0.6330  -51.5730 C   0  0  0  0  0  0  0  0  0  0  0  0
   -8.2560    0.4220  -51.0640 C   0  0  0  0  0  0  0  0  0  0  0  0
   -8.4440    0.2730  -49.7070 C   0  0  0  0  0  0  0  0  0  0  0  0
   -7.3610    0.3340  -48.8570 C   0  0  0  0  0  0  0  0  0  0  0  0
   -6.0880    0.5520  -49.3640 C   0  0  0  0  0  0  0  0  0  0  0  0
  1  4  1  0
  1  5  1  0
  6  1  1  1
  2  3  1  6
  2  4  1  0
  2  5  1  0
  6  7  1  0
  6 13  1  0
  7  8  2  0
  7 12  1  0
  8  9  1  0
  9 10  2  0
 10 11  1  0
 11 12  2  0
 13 14  2  0
 13 18  1  0
 14 15  1  0
 15 16  2  0
 16 17  1  0
 17 18  2  0
A    1
 N  
A    2
 C  
A    3
 O  
A    4
 C1 
A    5
 C2 
A    6
 C3 
A    7
 C4 
A    8
 C5 
A    9
 C6 
A   10
 C7 
A   11
 C8 
A   12
 C9 
A   13
 C10
A   14
 C11
A   15
 C12
A   16
 C13
A   17
 C14
A   18
 C15
M  END
>  <XChem_code>  (49) 
D68EV3CPROA-x0688

>  <Occupancy>  (49) 
[0.7, 0.7, 0.7, 0.7, 0.7, 0.7, 0.7, 0.7, 0.7, 0.7, 0.7, 0.7, 0.7, 0.7, 0.7, 0.7, 0.7, 0.7]

>  <TempFactor>  (49) 
[43.46, 44.92, 47.88, 44.56, 44.64, 40.08, 39.45, 39.06, 40.19, 38.32, 38.19, 37.82, 38.63, 37.44, 36.74, 36.53, 37.84, 38.09]

>  <RealCrystalName>  (49) 
D68EV3CPROA-x0688

>  <smiles>  (49) 
OC1CN(C1)C(c2ccccc2)c3ccccc3

>  <new_smiles>  (49) 
OC1CN(C1)C(c2ccccc2)c3ccccc3

>  <alternate_name>  (49) 
Z1342868616

>  <site_name>  (49) 
2

>  <pdb_entry>  (49) 
nan

>  <mol>  (49) 
<rdkit.Chem.rdchem.Mol object at 0x162e33290>

>  <single_smiles>  (49) 
OC1CN(C(c2ccccc2)c2ccccc2)C1

>  <base_name>  (49) 
D68EV3CPROA-x0688_0B

>  <lig_resn>  (49) 
LIG

>  <lig_resi>  (49) 
201

>  <lig_chain>  (49) 
B

>  <lig_segi>  (49) 


>  <lig_alt>  (49) 


>  <polymer_chain>  (49) 
B

$$$$
x0771_1A§1
     RDKit          3D

 12 13  0  0  0  0  0  0  0  0999 V2000
   -5.6790   11.9310  -29.3990 N   0  0  0  0  0  0  0  0  0  0  0  0
   -6.3840   10.8960  -29.8420 C   0  0  0  0  0  0  0  0  0  0  0  0
   -6.9430   10.0880  -29.0820 O   0  0  0  0  0  0  0  0  0  0  0  0
   -6.5020   10.7170  -31.3270 C   0  0  0  0  0  0  0  0  0  0  0  0
   -6.7520   10.0160  -35.4110 N   0  0  0  0  0  0  0  0  0  0  0  0
   -6.5570   11.8360  -32.1720 C   0  0  0  0  0  0  0  0  0  0  0  0
   -6.6430   11.6880  -33.5490 C   0  0  0  0  0  0  0  0  0  0  0  0
   -6.6470   10.3990  -34.0790 C   0  0  0  0  0  0  0  0  0  0  0  0
   -6.3200    8.6230  -35.5550 C   0  0  0  0  0  0  0  0  0  0  0  0
   -6.4470    8.0560  -34.1300 C   0  0  0  0  0  0  0  0  0  0  0  0
   -6.5640    9.2800  -33.2630 C   0  0  0  0  0  0  0  0  0  0  0  0
   -6.5210    9.4400  -31.8850 C   0  0  0  0  0  0  0  0  0  0  0  0
  1  2  1  0
  2  3  2  0
  2  4  1  0
  4  6  2  0
  4 12  1  0
  5  8  1  0
  5  9  1  0
  6  7  1  0
  7  8  2  0
  8 11  1  0
  9 10  1  0
 10 11  1  0
 11 12  2  0
A    1
 N  
A    2
 C  
A    3
 O  
A    4
 C1 
A    5
 N1 
A    6
 C2 
A    7
 C3 
A    8
 C4 
A    9
 C5 
A   10
 C6 
A   11
 C7 
A   12
 C8 
M  END
>  <XChem_code>  (50) 
D68EV3CPROA-x0771

>  <Occupancy>  (50) 
[0.64, 0.64, 0.64, 0.64, 0.64, 0.64, 0.64, 0.64, 0.64, 0.64, 0.64, 0.64]

>  <TempFactor>  (50) 
[49.02, 50.98, 46.17, 54.1, 60.3, 56.33, 58.38, 60.28, 61.4, 60.15, 59.84, 57.61]

>  <RealCrystalName>  (50) 
D68EV3CPROA-x0771

>  <smiles>  (50) 
Cl.NC(=O)c1ccc2NCCc2c1

>  <new_smiles>  (50) 
Cl.NC(=O)c1ccc2NCCc2c1

>  <alternate_name>  (50) 
Z1696091761

>  <site_name>  (50) 
3

>  <pdb_entry>  (50) 
nan

>  <mol>  (50) 
<rdkit.Chem.rdchem.Mol object at 0x162e329d0>

>  <single_smiles>  (50) 
NC(=O)c1ccc2c(c1)CCN2

>  <base_name>  (50) 
D68EV3CPROA-x0771_1A

>  <lig_resn>  (50) 
LIG

>  <lig_resi>  (50) 
301

>  <lig_chain>  (50) 
A

>  <lig_segi>  (50) 


>  <lig_alt>  (50) 


>  <polymer_chain>  (50) 
A

$$$$
x0771_1A§2
     RDKit          3D

 12 13  0  0  0  0  0  0  0  0999 V2000
   -2.6830    5.4030  -25.0080 N   0  0  0  0  0  0  0  0  0  0  0  0
   -1.7550    5.7130  -24.1080 C   0  0  0  0  0  0  0  0  0  0  0  0
   -1.7930    6.7610  -23.4370 O   0  0  0  0  0  0  0  0  0  0  0  0
   -0.6140    4.7500  -23.9150 C   0  0  0  0  0  0  0  0  0  0  0  0
    2.6400    2.1790  -23.7060 N   0  0  0  0  0  0  0  0  0  0  0  0
    0.1500    4.7670  -22.7340 C   0  0  0  0  0  0  0  0  0  0  0  0
    1.2330    3.9130  -22.5710 C   0  0  0  0  0  0  0  0  0  0  0  0
    1.5550    3.0420  -23.6100 C   0  0  0  0  0  0  0  0  0  0  0  0
    2.7380    1.6080  -25.0490 C   0  0  0  0  0  0  0  0  0  0  0  0
    1.3730    1.9370  -25.6830 C   0  0  0  0  0  0  0  0  0  0  0  0
    0.8020    2.9910  -24.7740 C   0  0  0  0  0  0  0  0  0  0  0  0
   -0.2840    3.8470  -24.9270 C   0  0  0  0  0  0  0  0  0  0  0  0
  1  2  1  0
  2  3  2  0
  2  4  1  0
  4  6  2  0
  4 12  1  0
  5  8  1  0
  5  9  1  0
  6  7  1  0
  7  8  2  0
  8 11  1  0
  9 10  1  0
 10 11  1  0
 11 12  2  0
A    1
 N  
A    2
 C  
A    3
 O  
A    4
 C1 
A    5
 N1 
A    6
 C2 
A    7
 C3 
A    8
 C4 
A    9
 C5 
A   10
 C6 
A   11
 C7 
A   12
 C8 
M  END
>  <XChem_code>  (51) 
D68EV3CPROA-x0771

>  <Occupancy>  (51) 
[0.64, 0.64, 0.64, 0.64, 0.64, 0.64, 0.64, 0.64, 0.64, 0.64, 0.64, 0.64]

>  <TempFactor>  (51) 
[53.92, 56.89, 55.28, 56.68, 57.15, 58.7, 57.68, 56.24, 55.33, 55.38, 56.13, 56.56]

>  <RealCrystalName>  (51) 
D68EV3CPROA-x0771

>  <smiles>  (51) 
Cl.NC(=O)c1ccc2NCCc2c1

>  <new_smiles>  (51) 
Cl.NC(=O)c1ccc2NCCc2c1

>  <alternate_name>  (51) 
Z1696091761

>  <site_name>  (51) 
3

>  <pdb_entry>  (51) 
nan

>  <mol>  (51) 
<rdkit.Chem.rdchem.Mol object at 0x162e329d0>

>  <single_smiles>  (51) 
NC(=O)c1ccc2c(c1)CCN2

>  <base_name>  (51) 
D68EV3CPROA-x0771_1A

>  <lig_resn>  (51) 
LIG

>  <lig_resi>  (51) 
201

>  <lig_chain>  (51) 
A

>  <lig_segi>  (51) 


>  <lig_alt>  (51) 


>  <polymer_chain>  (51) 
A

$$$$
x0771_1A§3
     RDKit          3D

 12 13  0  0  0  0  0  0  0  0999 V2000
   -8.5330    0.9990  -12.7170 N   0  0  0  0  0  0  0  0  0  0  0  0
   -9.6880    1.6140  -12.9490 C   0  0  0  0  0  0  0  0  0  0  0  0
   -9.9740    2.7170  -12.4470 O   0  0  0  0  0  0  0  0  0  0  0  0
  -10.6800    0.9290  -13.8510 C   0  0  0  0  0  0  0  0  0  0  0  0
  -13.4530   -1.2040  -16.0870 N   0  0  0  0  0  0  0  0  0  0  0  0
  -11.7010    1.6600  -14.4840 C   0  0  0  0  0  0  0  0  0  0  0  0
  -12.6470    1.0260  -15.2790 C   0  0  0  0  0  0  0  0  0  0  0  0
  -12.5690   -0.3580  -15.4290 C   0  0  0  0  0  0  0  0  0  0  0  0
  -13.1330   -2.6060  -15.8200 C   0  0  0  0  0  0  0  0  0  0  0  0
  -11.7220   -2.5450  -15.2050 C   0  0  0  0  0  0  0  0  0  0  0  0
  -11.5570   -1.0970  -14.8330 C   0  0  0  0  0  0  0  0  0  0  0  0
  -10.6120   -0.4510  -14.0420 C   0  0  0  0  0  0  0  0  0  0  0  0
  1  2  1  0
  2  3  2  0
  2  4  1  0
  4  6  2  0
  4 12  1  0
  5  8  1  0
  5  9  1  0
  6  7  1  0
  7  8  2  0
  8 11  1  0
  9 10  1  0
 10 11  1  0
 11 12  2  0
A    1
 N  
A    2
 C  
A    3
 O  
A    4
 C1 
A    5
 N1 
A    6
 C2 
A    7
 C3 
A    8
 C4 
A    9
 C5 
A   10
 C6 
A   11
 C7 
A   12
 C8 
M  END
>  <XChem_code>  (52) 
D68EV3CPROA-x0771

>  <Occupancy>  (52) 
[0.64, 0.64, 0.64, 0.64, 0.64, 0.64, 0.64, 0.64, 0.64, 0.64, 0.64, 0.64]

>  <TempFactor>  (52) 
[53.92, 56.89, 55.28, 56.68, 57.15, 58.7, 57.68, 56.24, 55.33, 55.38, 56.13, 56.56]

>  <RealCrystalName>  (52) 
D68EV3CPROA-x0771

>  <smiles>  (52) 
Cl.NC(=O)c1ccc2NCCc2c1

>  <new_smiles>  (52) 
Cl.NC(=O)c1ccc2NCCc2c1

>  <alternate_name>  (52) 
Z1696091761

>  <site_name>  (52) 
3

>  <pdb_entry>  (52) 
nan

>  <mol>  (52) 
<rdkit.Chem.rdchem.Mol object at 0x162e329d0>

>  <single_smiles>  (52) 
NC(=O)c1ccc2c(c1)CCN2

>  <base_name>  (52) 
D68EV3CPROA-x0771_1A

>  <lig_resn>  (52) 
LIG

>  <lig_resi>  (52) 
201

>  <lig_chain>  (52) 
A

>  <lig_segi>  (52) 


>  <lig_alt>  (52) 


>  <polymer_chain>  (52) 
B

$$$$
x1686_0B§1
     RDKit          3D

  6  6  0  0  0  0  0  0  0  0999 V2000
   -2.1990    4.6850  -24.5900 N   0  0  0  0  0  0  0  0  0  0  0  0
   -0.8460    3.5230  -25.8160 C   0  0  0  0  0  0  0  0  0  0  0  0
   -0.8810    4.3760  -24.7660 C   0  0  0  0  0  0  0  0  0  0  0  0
   -2.1030    3.2940  -26.3030 N   0  0  0  0  0  0  0  0  0  0  0  0
   -2.8900    4.0170  -25.5200 C   0  0  0  0  0  0  0  0  0  0  0  0
    0.8310    2.6230  -26.6260 I   0  0  0  0  0  0  0  0  0  0  0  0
  1  3  1  0
  1  5  1  0
  2  3  2  0
  2  4  1  0
  2  6  1  0
  4  5  2  0
A    1
 N  
A    2
 C  
A    3
 C1 
A    4
 N1 
A    5
 C2 
A    6
 I  
M  END
>  <XChem_code>  (53) 
D68EV3CPROA-x1686

>  <Occupancy>  (53) 
[0.46, 0.46, 0.46, 0.46, 0.46, 0.46]

>  <TempFactor>  (53) 
[87.39, 90.6, 89.43, 89.49, 87.85, 114.03]

>  <RealCrystalName>  (53) 
D68EV3CPROA-x1686

>  <smiles>  (53) 
IC1=CNC=N1

>  <new_smiles>  (53) 
IC1=CNC=N1

>  <alternate_name>  (53) 
Z1201621250

>  <site_name>  (53) 
2

>  <pdb_entry>  (53) 
nan

>  <mol>  (53) 
<rdkit.Chem.rdchem.Mol object at 0x165034f20>

>  <single_smiles>  (53) 
Ic1c[nH]cn1

>  <base_name>  (53) 
D68EV3CPROA-x1686_0B

>  <lig_resn>  (53) 
LIG

>  <lig_resi>  (53) 
201

>  <lig_chain>  (53) 
A

>  <lig_segi>  (53) 


>  <lig_alt>  (53) 


>  <polymer_chain>  (53) 
A

$$$$
x1686_0B§2
     RDKit          3D

  6  6  0  0  0  0  0  0  0  0999 V2000
   -8.9820    0.8770  -13.5200 N   0  0  0  0  0  0  0  0  0  0  0  0
   -9.8080   -1.1040  -13.7960 C   0  0  0  0  0  0  0  0  0  0  0  0
  -10.1560    0.1980  -13.6700 C   0  0  0  0  0  0  0  0  0  0  0  0
   -8.4510   -1.2570  -13.7230 N   0  0  0  0  0  0  0  0  0  0  0  0
   -7.9950   -0.0240  -13.5620 C   0  0  0  0  0  0  0  0  0  0  0  0
  -11.0840   -2.7060  -14.0830 I   0  0  0  0  0  0  0  0  0  0  0  0
  1  3  1  0
  1  5  1  0
  2  3  2  0
  2  4  1  0
  2  6  1  0
  4  5  2  0
A    1
 N  
A    2
 C  
A    3
 C1 
A    4
 N1 
A    5
 C2 
A    6
 I  
M  END
>  <XChem_code>  (54) 
D68EV3CPROA-x1686

>  <Occupancy>  (54) 
[0.46, 0.46, 0.46, 0.46, 0.46, 0.46]

>  <TempFactor>  (54) 
[87.39, 90.6, 89.43, 89.49, 87.85, 114.03]

>  <RealCrystalName>  (54) 
D68EV3CPROA-x1686

>  <smiles>  (54) 
IC1=CNC=N1

>  <new_smiles>  (54) 
IC1=CNC=N1

>  <alternate_name>  (54) 
Z1201621250

>  <site_name>  (54) 
2

>  <pdb_entry>  (54) 
nan

>  <mol>  (54) 
<rdkit.Chem.rdchem.Mol object at 0x165034f20>

>  <single_smiles>  (54) 
Ic1c[nH]cn1

>  <base_name>  (54) 
D68EV3CPROA-x1686_0B

>  <lig_resn>  (54) 
LIG

>  <lig_resi>  (54) 
201

>  <lig_chain>  (54) 
A

>  <lig_segi>  (54) 


>  <lig_alt>  (54) 


>  <polymer_chain>  (54) 
B

$$$$
x1686_0B§3
     RDKit          3D

  6  6  0  0  0  0  0  0  0  0999 V2000
   -9.3050    0.5180  -50.0960 N   0  0  0  0  0  0  0  0  0  0  0  0
   -7.2170    0.6990  -49.5700 C   0  0  0  0  0  0  0  0  0  0  0  0
   -8.3110   -0.0840  -49.3930 C   0  0  0  0  0  0  0  0  0  0  0  0
   -7.5110    1.7820  -50.3480 N   0  0  0  0  0  0  0  0  0  0  0  0
   -8.7930    1.6230  -50.6430 C   0  0  0  0  0  0  0  0  0  0  0  0
   -5.3120    0.3570  -48.8360 I   0  0  0  0  0  0  0  0  0  0  0  0
  1  3  1  0
  1  5  1  0
  2  3  2  0
  2  4  1  0
  2  6  1  0
  4  5  2  0
A    1
 N  
A    2
 C  
A    3
 C1 
A    4
 N1 
A    5
 C2 
A    6
 I  
M  END
>  <XChem_code>  (55) 
D68EV3CPROA-x1686

>  <Occupancy>  (55) 
[0.32, 0.32, 0.32, 0.32, 0.32, 0.32]

>  <TempFactor>  (55) 
[31.28, 35.4, 33.07, 34.43, 32.39, 41.9]

>  <RealCrystalName>  (55) 
D68EV3CPROA-x1686

>  <smiles>  (55) 
IC1=CNC=N1

>  <new_smiles>  (55) 
IC1=CNC=N1

>  <alternate_name>  (55) 
Z1201621250

>  <site_name>  (55) 
2

>  <pdb_entry>  (55) 
nan

>  <mol>  (55) 
<rdkit.Chem.rdchem.Mol object at 0x165034f20>

>  <single_smiles>  (55) 
Ic1c[nH]cn1

>  <base_name>  (55) 
D68EV3CPROA-x1686_0B

>  <lig_resn>  (55) 
LIG

>  <lig_resi>  (55) 
201

>  <lig_chain>  (55) 
B

>  <lig_segi>  (55) 


>  <lig_alt>  (55) 


>  <polymer_chain>  (55) 
B

$$$$
x1457_0B§1
     RDKit          3D

 12 11  0  0  0  0  0  0  0  0999 V2000
  -27.0550    2.1370  -43.6170 N   0  0  0  0  0  0  0  0  0  0  0  0
  -28.4130    3.6310  -44.9130 C   0  0  0  0  0  0  0  0  0  0  0  0
  -27.7710    4.0140  -42.6420 O   0  0  0  0  0  0  0  0  0  0  0  0
  -27.7210    3.2850  -43.6280 C   0  0  0  0  0  0  0  0  0  0  0  0
  -25.9830    0.1600  -45.1350 N   0  0  0  0  0  0  0  0  0  0  0  0
  -24.0080    1.2290  -45.2930 O   0  0  0  0  0  0  0  0  0  0  0  0
  -25.6180    2.1020  -43.7620 C   0  0  0  0  0  0  0  0  0  0  0  0
  -25.1270    1.1200  -44.8030 C   0  0  0  0  0  0  0  0  0  0  0  0
  -26.1110   -1.0510  -44.3390 C   0  0  0  0  0  0  0  0  0  0  0  0
  -26.9230   -0.8710  -43.1300 C   0  0  0  0  0  0  0  0  0  0  0  0
  -27.5230   -0.6040  -42.1540 C   0  0  0  0  0  0  0  0  0  0  0  0
  -28.4040   -0.1050  -40.6690 Br  0  0  0  0  0  0  0  0  0  0  0  0
  1  4  1  0
  1  7  1  0
  2  4  1  0
  3  4  2  0
  5  8  1  0
  5  9  1  0
  6  8  2  0
  7  8  1  0
  9 10  1  0
 10 11  3  0
 11 12  1  0
A    1
 N  
A    2
 C  
A    3
 O  
A    4
 C1 
A    5
 N1 
A    6
 O1 
A    7
 C2 
A    8
 C3 
A    9
 C4 
A   10
 C5 
A   11
 C6 
A   12
BR  
M  END
>  <XChem_code>  (56) 
D68EV3CPROA-x1457

>  <Occupancy>  (56) 
[0.52, 0.52, 0.52, 0.52, 0.52, 0.52, 0.52, 0.52, 0.52, 0.52, 0.52, 0.52]

>  <TempFactor>  (56) 
[51.58, 51.12, 51.56, 51.8, 56.17, 55.44, 54.06, 54.19, 53.97, 54.52, 55.45, 59.88]

>  <RealCrystalName>  (56) 
D68EV3CPROA-x1457

>  <smiles>  (56) 
CC(=O)NCC(=O)NCC#CBr

>  <new_smiles>  (56) 
CC(=O)NCC(=O)NCC#CBr

>  <alternate_name>  (56) 
NCL-00025345

>  <site_name>  (56) 
4

>  <pdb_entry>  (56) 
nan

>  <mol>  (56) 
<rdkit.Chem.rdchem.Mol object at 0x165034200>

>  <single_smiles>  (56) 
CC(=O)NCC(=O)NCC#CBr

>  <base_name>  (56) 
D68EV3CPROA-x1457_0B

>  <lig_resn>  (56) 
LIG

>  <lig_resi>  (56) 
201

>  <lig_chain>  (56) 
B

>  <lig_segi>  (56) 


>  <lig_alt>  (56) 


>  <polymer_chain>  (56) 
B

$$$$
x0865_0A§1
     RDKit          3D

 15 16  0  0  0  0  0  0  0  0999 V2000
    0.7100    3.7070  -24.7720 N   0  0  0  0  0  0  0  0  0  0  0  0
    2.0780    1.2180  -27.1090 C   0  0  0  0  0  0  0  0  0  0  0  0
    3.4040    1.6190  -23.6190 O   0  0  0  0  0  0  0  0  0  0  0  0
    2.1240    2.6510  -26.6100 C   0  0  2  0  0  0  0  0  0  0  0  0
    3.0690    2.7290  -25.5310 N   0  0  0  0  0  0  0  0  0  0  0  0
    0.6710    3.1540  -26.1300 C   0  0  0  0  0  0  0  0  0  0  0  0
    0.3610    5.6590  -23.5340 N   0  0  0  0  0  0  0  0  0  0  0  0
    1.4320    2.9300  -23.7680 C   0  0  0  0  0  0  0  0  0  0  0  0
    2.7240    2.3810  -24.2940 C   0  0  0  0  0  0  0  0  0  0  0  0
   -0.1420    4.7300  -24.3690 C   0  0  0  0  0  0  0  0  0  0  0  0
   -0.4410    6.6450  -23.0980 C   0  0  0  0  0  0  0  0  0  0  0  0
   -1.7670    6.7680  -23.4530 C   0  0  0  0  0  0  0  0  0  0  0  0
   -2.3090    5.8380  -24.3220 C   0  0  0  0  0  0  0  0  0  0  0  0
   -1.5000    4.8240  -24.7750 C   0  0  0  0  0  0  0  0  0  0  0  0
   -2.0210    3.9230  -25.6340 F   0  0  0  0  0  0  0  0  0  0  0  0
  1  6  1  0
  1  8  1  0
  1 10  1  0
  4  2  1  1
  3  9  2  0
  4  5  1  0
  4  6  1  0
  5  9  1  0
  7 10  2  0
  7 11  1  0
  8  9  1  0
 10 14  1  0
 11 12  2  0
 12 13  1  0
 13 14  2  0
 14 15  1  0
A    1
 N  
A    2
 C  
A    3
 O  
A    4
 C1 
A    5
 N1 
A    6
 C2 
A    7
 N2 
A    8
 C3 
A    9
 C4 
A   10
 C5 
A   11
 C6 
A   12
 C7 
A   13
 C8 
A   14
 C9 
A   15
 F  
M  END
>  <XChem_code>  (57) 
D68EV3CPROA-x0865

>  <Occupancy>  (57) 
[0.5, 0.5, 0.5, 0.5, 0.5, 0.5, 0.5, 0.5, 0.5, 0.5, 0.5, 0.5, 0.5, 0.5, 0.5]

>  <TempFactor>  (57) 
[43.35, 46.76, 44.95, 45.67, 45.52, 44.53, 41.67, 42.66, 43.77, 43.04, 41.13, 40.87, 42.18, 44.01, 46.92]

>  <RealCrystalName>  (57) 
D68EV3CPROA-x0865

>  <smiles>  (57) 
CC1CN(CC(=O)N1)c2ncccc2F

>  <new_smiles>  (57) 
CC1CN(CC(=O)N1)c2ncccc2F

>  <alternate_name>  (57) 
Z2273972081

>  <site_name>  (57) 
3

>  <pdb_entry>  (57) 
nan

>  <mol>  (57) 
<rdkit.Chem.rdchem.Mol object at 0x162e320a0>

>  <single_smiles>  (57) 
CC1CN(c2ncccc2F)CC(=O)N1

>  <base_name>  (57) 
D68EV3CPROA-x0865_0A

>  <lig_resn>  (57) 
LIG

>  <lig_resi>  (57) 
201

>  <lig_chain>  (57) 
A

>  <lig_segi>  (57) 


>  <lig_alt>  (57) 


>  <polymer_chain>  (57) 
A

$$$$
x0865_0A§2
     RDKit          3D

 15 16  0  0  0  0  0  0  0  0999 V2000
  -11.7210   -0.9580  -14.1330 N   0  0  0  0  0  0  0  0  0  0  0  0
  -12.0650   -4.5190  -14.9860 C   0  0  0  0  0  0  0  0  0  0  0  0
  -14.2600   -1.8800  -16.5100 O   0  0  0  0  0  0  0  0  0  0  0  0
  -12.4550   -3.3960  -14.0410 C   0  0  2  0  0  0  0  0  0  0  0  0
  -13.6380   -2.7600  -14.5510 N   0  0  0  0  0  0  0  0  0  0  0  0
  -11.2620   -2.3260  -13.8750 C   0  0  0  0  0  0  0  0  0  0  0  0
  -11.9960    1.1440  -13.1450 N   0  0  0  0  0  0  0  0  0  0  0  0
  -12.5400   -0.7540  -15.3240 C   0  0  0  0  0  0  0  0  0  0  0  0
  -13.5600   -1.8370  -15.5060 C   0  0  0  0  0  0  0  0  0  0  0  0
  -11.1650    0.1400  -13.4850 C   0  0  0  0  0  0  0  0  0  0  0  0
  -11.4900    2.2340  -12.5450 C   0  0  0  0  0  0  0  0  0  0  0  0
  -10.1530    2.3970  -12.2540 C   0  0  0  0  0  0  0  0  0  0  0  0
   -9.2760    1.3780  -12.5770 C   0  0  0  0  0  0  0  0  0  0  0  0
   -9.7800    0.2570  -13.1900 C   0  0  0  0  0  0  0  0  0  0  0  0
   -8.9300   -0.7460  -13.4930 F   0  0  0  0  0  0  0  0  0  0  0  0
  1  6  1  0
  1  8  1  0
  1 10  1  0
  4  2  1  6
  3  9  2  0
  4  5  1  0
  4  6  1  0
  5  9  1  0
  7 10  2  0
  7 11  1  0
  8  9  1  0
 10 14  1  0
 11 12  2  0
 12 13  1  0
 13 14  2  0
 14 15  1  0
A    1
 N  
A    2
 C  
A    3
 O  
A    4
 C1 
A    5
 N1 
A    6
 C2 
A    7
 N2 
A    8
 C3 
A    9
 C4 
A   10
 C5 
A   11
 C6 
A   12
 C7 
A   13
 C8 
A   14
 C9 
A   15
 F  
M  END
>  <XChem_code>  (58) 
D68EV3CPROA-x0865

>  <Occupancy>  (58) 
[0.5, 0.5, 0.5, 0.5, 0.5, 0.5, 0.5, 0.5, 0.5, 0.5, 0.5, 0.5, 0.5, 0.5, 0.5]

>  <TempFactor>  (58) 
[43.35, 46.76, 44.95, 45.67, 45.52, 44.53, 41.67, 42.66, 43.77, 43.04, 41.13, 40.87, 42.18, 44.01, 46.92]

>  <RealCrystalName>  (58) 
D68EV3CPROA-x0865

>  <smiles>  (58) 
CC1CN(CC(=O)N1)c2ncccc2F

>  <new_smiles>  (58) 
CC1CN(CC(=O)N1)c2ncccc2F

>  <alternate_name>  (58) 
Z2273972081

>  <site_name>  (58) 
3

>  <pdb_entry>  (58) 
nan

>  <mol>  (58) 
<rdkit.Chem.rdchem.Mol object at 0x162e320a0>

>  <single_smiles>  (58) 
CC1CN(c2ncccc2F)CC(=O)N1

>  <base_name>  (58) 
D68EV3CPROA-x0865_0A

>  <lig_resn>  (58) 
LIG

>  <lig_resi>  (58) 
201

>  <lig_chain>  (58) 
A

>  <lig_segi>  (58) 


>  <lig_alt>  (58) 


>  <polymer_chain>  (58) 
B

$$$$
x1556_0B§1
     RDKit          3D

  7  7  0  0  0  0  0  0  0  0999 V2000
   -1.6950    2.9600  -25.8210 N   0  0  0  0  0  0  0  0  0  0  0  0
   -0.5790    2.7630  -25.7260 C   0  0  0  0  0  0  0  0  0  0  0  0
    0.8160    2.5190  -25.4980 C   0  0  0  0  0  0  0  0  0  0  0  0
    2.7770    2.2750  -24.5860 N   0  0  0  0  0  0  0  0  0  0  0  0
    1.4870    2.6000  -24.3170 C   0  0  0  0  0  0  0  0  0  0  0  0
    1.6780    2.1420  -26.4970 N   0  0  0  0  0  0  0  0  0  0  0  0
    2.8500    2.0130  -25.8960 C   0  0  0  0  0  0  0  0  0  0  0  0
  1  2  3  0
  2  3  1  0
  3  5  2  0
  3  6  1  0
  4  5  1  0
  4  7  1  0
  6  7  2  0
A    1
 N  
A    2
 C  
A    3
 C1 
A    4
 N1 
A    5
 C2 
A    6
 N2 
A    7
 C3 
M  END
>  <XChem_code>  (59) 
D68EV3CPROA-x1556

>  <Occupancy>  (59) 
[0.61, 0.61, 0.61, 0.61, 0.61, 0.61, 0.61]

>  <TempFactor>  (59) 
[23.4, 21.67, 22.73, 23.78, 21.77, 23.7, 23.29]

>  <RealCrystalName>  (59) 
D68EV3CPROA-x1556

>  <smiles>  (59) 
Cl.N#CC1=CNC=N1

>  <new_smiles>  (59) 
Cl.N#CC1=CNC=N1

>  <alternate_name>  (59) 
Z2301685688

>  <site_name>  (59) 
2

>  <pdb_entry>  (59) 
nan

>  <mol>  (59) 
<rdkit.Chem.rdchem.Mol object at 0x1650346d0>

>  <single_smiles>  (59) 
N#Cc1c[nH]cn1

>  <base_name>  (59) 
D68EV3CPROA-x1556_0B

>  <lig_resn>  (59) 
LIG

>  <lig_resi>  (59) 
201

>  <lig_chain>  (59) 
A

>  <lig_segi>  (59) 


>  <lig_alt>  (59) 


>  <polymer_chain>  (59) 
A

$$$$
x1556_0B§2
     RDKit          3D

  7  7  0  0  0  0  0  0  0  0999 V2000
   -9.1880   -1.1770  -14.3940 N   0  0  0  0  0  0  0  0  0  0  0  0
  -10.2470   -1.5220  -14.6240 C   0  0  0  0  0  0  0  0  0  0  0  0
  -11.5960   -1.8660  -14.9720 C   0  0  0  0  0  0  0  0  0  0  0  0
  -13.6440   -1.8240  -15.7060 N   0  0  0  0  0  0  0  0  0  0  0  0
  -12.5230   -1.0700  -15.5700 C   0  0  0  0  0  0  0  0  0  0  0  0
  -12.1300   -3.1090  -14.7400 N   0  0  0  0  0  0  0  0  0  0  0  0
  -13.3700   -3.0300  -15.1960 C   0  0  0  0  0  0  0  0  0  0  0  0
  1  2  3  0
  2  3  1  0
  3  5  2  0
  3  6  1  0
  4  5  1  0
  4  7  1  0
  6  7  2  0
A    1
 N  
A    2
 C  
A    3
 C1 
A    4
 N1 
A    5
 C2 
A    6
 N2 
A    7
 C3 
M  END
>  <XChem_code>  (60) 
D68EV3CPROA-x1556

>  <Occupancy>  (60) 
[0.61, 0.61, 0.61, 0.61, 0.61, 0.61, 0.61]

>  <TempFactor>  (60) 
[23.4, 21.67, 22.73, 23.78, 21.77, 23.7, 23.29]

>  <RealCrystalName>  (60) 
D68EV3CPROA-x1556

>  <smiles>  (60) 
Cl.N#CC1=CNC=N1

>  <new_smiles>  (60) 
Cl.N#CC1=CNC=N1

>  <alternate_name>  (60) 
Z2301685688

>  <site_name>  (60) 
2

>  <pdb_entry>  (60) 
nan

>  <mol>  (60) 
<rdkit.Chem.rdchem.Mol object at 0x1650346d0>

>  <single_smiles>  (60) 
N#Cc1c[nH]cn1

>  <base_name>  (60) 
D68EV3CPROA-x1556_0B

>  <lig_resn>  (60) 
LIG

>  <lig_resi>  (60) 
201

>  <lig_chain>  (60) 
A

>  <lig_segi>  (60) 


>  <lig_alt>  (60) 


>  <polymer_chain>  (60) 
B

$$$$
x1556_0B§3
     RDKit          3D

  7  7  0  0  0  0  0  0  0  0999 V2000
   -5.1030   -0.2140  -48.1040 N   0  0  0  0  0  0  0  0  0  0  0  0
   -6.0010    0.2410  -48.6530 C   0  0  0  0  0  0  0  0  0  0  0  0
   -7.0620    0.8690  -49.3940 C   0  0  0  0  0  0  0  0  0  0  0  0
   -8.9740    1.3650  -50.3300 N   0  0  0  0  0  0  0  0  0  0  0  0
   -8.3750    0.4950  -49.4730 C   0  0  0  0  0  0  0  0  0  0  0  0
   -6.8530    1.9710  -50.1860 N   0  0  0  0  0  0  0  0  0  0  0  0
   -8.0320    2.2290  -50.7370 C   0  0  0  0  0  0  0  0  0  0  0  0
  1  2  3  0
  2  3  1  0
  3  5  2  0
  3  6  1  0
  4  5  1  0
  4  7  1  0
  6  7  2  0
A    1
 N  
A    2
 C  
A    3
 C1 
A    4
 N1 
A    5
 C2 
A    6
 N2 
A    7
 C3 
M  END
>  <XChem_code>  (61) 
D68EV3CPROA-x1556

>  <Occupancy>  (61) 
[0.82, 0.82, 0.82, 0.82, 0.82, 0.82, 0.82]

>  <TempFactor>  (61) 
[31.23, 33.16, 30.86, 29.99, 30.28, 30.59, 30.06]

>  <RealCrystalName>  (61) 
D68EV3CPROA-x1556

>  <smiles>  (61) 
Cl.N#CC1=CNC=N1

>  <new_smiles>  (61) 
Cl.N#CC1=CNC=N1

>  <alternate_name>  (61) 
Z2301685688

>  <site_name>  (61) 
2

>  <pdb_entry>  (61) 
nan

>  <mol>  (61) 
<rdkit.Chem.rdchem.Mol object at 0x1650346d0>

>  <single_smiles>  (61) 
N#Cc1c[nH]cn1

>  <base_name>  (61) 
D68EV3CPROA-x1556_0B

>  <lig_resn>  (61) 
LIG

>  <lig_resi>  (61) 
201

>  <lig_chain>  (61) 
B

>  <lig_segi>  (61) 


>  <lig_alt>  (61) 


>  <polymer_chain>  (61) 
B

$$$$
x0698_0B§1
     RDKit          3D

 15 16  0  0  0  0  0  0  0  0999 V2000
   -5.4580   -3.7620  -54.8830 N   0  0  0  0  0  0  0  0  0  0  0  0
   -7.2180   -3.6720  -56.5530 C   0  0  0  0  0  0  0  0  0  0  0  0
   -8.5750   -1.8180  -54.9020 O   0  0  0  0  0  0  0  0  0  0  0  0
   -6.9000   -3.5830  -55.0640 C   0  0  2  0  0  0  0  0  0  0  0  0
   -6.8020   -1.5050  -53.6420 N   0  0  0  0  0  0  0  0  0  0  0  0
   -7.3990   -2.2960  -54.4700 C   0  0  0  0  0  0  0  0  0  0  0  0
   -8.7300   -0.5490  -54.2930 N   0  0  0  0  0  0  0  0  0  0  0  0
   -7.6500   -0.4300  -53.5850 C   0  0  0  0  0  0  0  0  0  0  0  0
   -7.2880    0.8170  -52.8430 C   0  0  0  0  0  0  0  0  0  0  0  0
   -7.2590    0.6530  -51.3430 C   0  0  0  0  0  0  0  0  0  0  0  0
   -8.4320    0.4820  -50.6230 C   0  0  0  0  0  0  0  0  0  0  0  0
   -8.3980    0.2810  -49.2520 C   0  0  0  0  0  0  0  0  0  0  0  0
   -7.1950    0.2600  -48.5880 C   0  0  0  0  0  0  0  0  0  0  0  0
   -6.0260    0.4460  -49.2860 C   0  0  0  0  0  0  0  0  0  0  0  0
   -6.0550    0.6350  -50.6550 C   0  0  0  0  0  0  0  0  0  0  0  0
  1  4  1  0
  4  2  1  6
  3  6  1  0
  3  7  1  0
  4  6  1  0
  5  6  2  0
  5  8  1  0
  7  8  2  0
  8  9  1  0
  9 10  1  0
 10 11  2  0
 10 15  1  0
 11 12  1  0
 12 13  2  0
 13 14  1  0
 14 15  2  0
A    1
 N  
A    2
 C  
A    3
 O  
A    4
 C1 
A    5
 N1 
A    6
 C2 
A    7
 N2 
A    8
 C3 
A    9
 C4 
A   10
 C5 
A   11
 C6 
A   12
 C7 
A   13
 C8 
A   14
 C9 
A   15
 C10
M  END
>  <XChem_code>  (62) 
D68EV3CPROA-x0698

>  <Occupancy>  (62) 
[0.62, 0.62, 0.62, 0.62, 0.62, 0.62, 0.62, 0.62, 0.62, 0.62, 0.62, 0.62, 0.62, 0.62, 0.62]

>  <TempFactor>  (62) 
[46.22, 44.12, 45.17, 45.42, 41.39, 43.48, 41.25, 39.31, 37.8, 35.12, 33.96, 32.96, 32.07, 33.52, 34.44]

>  <RealCrystalName>  (62) 
D68EV3CPROA-x0698

>  <smiles>  (62) 
Cl.CC(N)c1nc(Cc2ccccc2)no1

>  <new_smiles>  (62) 
Cl.CC(N)c1nc(Cc2ccccc2)no1

>  <alternate_name>  (62) 
Z1398461996

>  <site_name>  (62) 
2

>  <pdb_entry>  (62) 
nan

>  <mol>  (62) 
<rdkit.Chem.rdchem.Mol object at 0x162e32f10>

>  <single_smiles>  (62) 
CC(N)c1nc(Cc2ccccc2)no1

>  <base_name>  (62) 
D68EV3CPROA-x0698_0B

>  <lig_resn>  (62) 
LIG

>  <lig_resi>  (62) 
201

>  <lig_chain>  (62) 
B

>  <lig_segi>  (62) 


>  <lig_alt>  (62) 


>  <polymer_chain>  (62) 
B

$$$$
x1315_0A§1
     RDKit          3D

 10 11  0  0  0  0  0  0  0  0999 V2000
  -28.0620    0.8940  -41.7670 N   0  0  0  0  0  0  0  0  0  0  0  0
  -27.5050   -1.4590  -42.3440 C   0  0  0  0  0  0  0  0  0  0  0  0
  -27.5350    0.0070  -42.5680 C   0  0  0  0  0  0  0  0  0  0  0  0
  -27.9070    2.1420  -42.3710 N   0  0  0  0  0  0  0  0  0  0  0  0
  -27.3020    1.9400  -43.5160 C   0  0  0  0  0  0  0  0  0  0  0  0
  -25.9890    2.3900  -45.6330 N   0  0  0  0  0  0  0  0  0  0  0  0
  -26.9920    2.8480  -44.6640 C   0  0  0  0  0  0  0  0  0  0  0  0
  -27.0210    0.6150  -43.6700 N   0  0  0  0  0  0  0  0  0  0  0  0
  -25.2530    1.1980  -45.1580 C   0  0  0  0  0  0  0  0  0  0  0  0
  -26.2200    0.0980  -44.7950 C   0  0  0  0  0  0  0  0  0  0  0  0
  1  3  2  0
  1  4  1  0
  2  3  1  0
  3  8  1  0
  4  5  2  0
  5  7  1  0
  5  8  1  0
  6  7  1  0
  6  9  1  0
  8 10  1  0
  9 10  1  0
A    1
 N  
A    2
 C  
A    3
 C1 
A    4
 N1 
A    5
 C2 
A    6
 N2 
A    7
 C3 
A    8
 N3 
A    9
 C4 
A   10
 C5 
M  END
>  <XChem_code>  (63) 
D68EV3CPROA-x1315

>  <Occupancy>  (63) 
[0.44, 0.44, 0.44, 0.44, 0.44, 0.44, 0.44, 0.44, 0.44, 0.44]

>  <TempFactor>  (63) 
[26.41, 26.09, 26.14, 25.63, 26.66, 27.61, 27.35, 26.47, 26.4, 27.65]

>  <RealCrystalName>  (63) 
D68EV3CPROA-x1315

>  <smiles>  (63) 
Cc1nnc2CNCCn12

>  <new_smiles>  (63) 
Cc1nnc2CNCCn12

>  <alternate_name>  (63) 
Z992916756

>  <site_name>  (63) 
4

>  <pdb_entry>  (63) 
nan

>  <mol>  (63) 
<rdkit.Chem.rdchem.Mol object at 0x164f2bca0>

>  <single_smiles>  (63) 
Cc1nnc2n1CCNC2

>  <base_name>  (63) 
D68EV3CPROA-x1315_0A

>  <lig_resn>  (63) 
LIG

>  <lig_resi>  (63) 
201

>  <lig_chain>  (63) 
A

>  <lig_segi>  (63) 


>  <lig_alt>  (63) 


>  <polymer_chain>  (63) 
A

$$$$
x1315_0A§2
     RDKit          3D

 10 11  0  0  0  0  0  0  0  0999 V2000
  -26.9990    2.6790  -43.8920 N   0  0  0  0  0  0  0  0  0  0  0  0
  -25.6470    1.0160  -45.1510 C   0  0  0  0  0  0  0  0  0  0  0  0
  -26.6280    1.4480  -44.1240 C   0  0  0  0  0  0  0  0  0  0  0  0
  -27.8630    2.6550  -42.7980 N   0  0  0  0  0  0  0  0  0  0  0  0
  -27.9740    1.4040  -42.4180 C   0  0  0  0  0  0  0  0  0  0  0  0
  -28.0900   -0.4730  -40.8680 N   0  0  0  0  0  0  0  0  0  0  0  0
  -28.6970    0.7990  -41.2610 C   0  0  0  0  0  0  0  0  0  0  0  0
  -27.2200    0.5970  -43.2380 N   0  0  0  0  0  0  0  0  0  0  0  0
  -28.0170   -1.3880  -42.0150 C   0  0  0  0  0  0  0  0  0  0  0  0
  -27.1100   -0.8670  -43.1060 C   0  0  0  0  0  0  0  0  0  0  0  0
  1  3  2  0
  1  4  1  0
  2  3  1  0
  3  8  1  0
  4  5  2  0
  5  7  1  0
  5  8  1  0
  6  7  1  0
  6  9  1  0
  8 10  1  0
  9 10  1  0
A    1
 N  
A    2
 C  
A    3
 C1 
A    4
 N1 
A    5
 C2 
A    6
 N2 
A    7
 C3 
A    8
 N3 
A    9
 C4 
A   10
 C5 
M  END
>  <XChem_code>  (64) 
D68EV3CPROA-x1315

>  <Occupancy>  (64) 
[0.64, 0.64, 0.64, 0.64, 0.64, 0.64, 0.64, 0.64, 0.64, 0.64]

>  <TempFactor>  (64) 
[36.85, 39.49, 38.25, 39.99, 38.82, 40.56, 40.77, 38.82, 41.45, 39.55]

>  <RealCrystalName>  (64) 
D68EV3CPROA-x1315

>  <smiles>  (64) 
Cc1nnc2CNCCn12

>  <new_smiles>  (64) 
Cc1nnc2CNCCn12

>  <alternate_name>  (64) 
Z992916756

>  <site_name>  (64) 
4

>  <pdb_entry>  (64) 
nan

>  <mol>  (64) 
<rdkit.Chem.rdchem.Mol object at 0x164f2bca0>

>  <single_smiles>  (64) 
Cc1nnc2n1CCNC2

>  <base_name>  (64) 
D68EV3CPROA-x1315_0A

>  <lig_resn>  (64) 
LIG

>  <lig_resi>  (64) 
201

>  <lig_chain>  (64) 
B

>  <lig_segi>  (64) 


>  <lig_alt>  (64) 


>  <polymer_chain>  (64) 
B

$$$$
x1607_0A§1
     RDKit          3D

 12 13  0  0  0  0  0  0  0  0999 V2000
    0.7560    3.0810  -24.5970 N   0  0  0  0  0  0  0  0  0  0  0  0
    1.7560    2.6950  -25.4210 C   0  0  0  0  0  0  0  0  0  0  0  0
    1.7790    2.9350  -26.6280 O   0  0  0  0  0  0  0  0  0  0  0  0
   -0.4200    3.7930  -24.9410 C   0  0  0  0  0  0  0  0  0  0  0  0
   -0.9230    4.7380  -24.0530 C   0  0  0  0  0  0  0  0  0  0  0  0
   -2.0680    5.4500  -24.3770 C   0  0  0  0  0  0  0  0  0  0  0  0
   -2.7100    5.2300  -25.5760 C   0  0  0  0  0  0  0  0  0  0  0  0
   -2.2150    4.2920  -26.4590 C   0  0  0  0  0  0  0  0  0  0  0  0
   -1.0750    3.5680  -26.1470 C   0  0  0  0  0  0  0  0  0  0  0  0
    2.8550    1.9180  -24.7440 C   0  0  1  0  0  0  0  0  0  0  0  0
    3.7760    1.1230  -25.6280 C   0  0  0  0  0  0  0  0  0  0  0  0
    4.2690    2.3640  -24.9910 C   0  0  0  0  0  0  0  0  0  0  0  0
  1  2  1  0
  1  4  1  0
  2  3  2  0
 10  2  1  6
  4  5  2  0
  4  9  1  0
  5  6  1  0
  6  7  2  0
  7  8  1  0
  8  9  2  0
 10 11  1  0
 10 12  1  0
 11 12  1  0
A    1
 N  
A    2
 C  
A    3
 O  
A    4
 C1 
A    5
 C2 
A    6
 C3 
A    7
 C4 
A    8
 C5 
A    9
 C6 
A   10
 C7 
A   11
 C8 
A   12
 C9 
M  END
>  <XChem_code>  (65) 
D68EV3CPROA-x1607

>  <Occupancy>  (65) 
[0.52, 0.52, 0.52, 0.52, 0.52, 0.52, 0.52, 0.52, 0.52, 0.52, 0.52, 0.52]

>  <TempFactor>  (65) 
[41.35, 40.74, 41.2, 41.96, 42.07, 43.44, 42.16, 42.08, 41.36, 38.94, 37.83, 37.89]

>  <RealCrystalName>  (65) 
D68EV3CPROA-x1607

>  <smiles>  (65) 
O=C(NC=1C=CC=CC1)C2CC2

>  <new_smiles>  (65) 
O=C(NC=1C=CC=CC1)C2CC2

>  <alternate_name>  (65) 
Z27782662

>  <site_name>  (65) 
3

>  <pdb_entry>  (65) 
nan

>  <mol>  (65) 
<rdkit.Chem.rdchem.Mol object at 0x165034c80>

>  <single_smiles>  (65) 
O=C(Nc1ccccc1)C1CC1

>  <base_name>  (65) 
D68EV3CPROA-x1607_0A

>  <lig_resn>  (65) 
LIG

>  <lig_resi>  (65) 
201

>  <lig_chain>  (65) 
A

>  <lig_segi>  (65) 


>  <lig_alt>  (65) 


>  <polymer_chain>  (65) 
A

$$$$
x1607_0A§2
     RDKit          3D

 12 13  0  0  0  0  0  0  0  0999 V2000
  -11.5330   -0.8680  -14.8150 N   0  0  0  0  0  0  0  0  0  0  0  0
  -12.2330   -2.0160  -14.6740 C   0  0  0  0  0  0  0  0  0  0  0  0
  -11.9980   -2.8590  -13.8090 O   0  0  0  0  0  0  0  0  0  0  0  0
  -10.4290   -0.4300  -14.0430 C   0  0  0  0  0  0  0  0  0  0  0  0
  -10.3040    0.9230  -13.7470 C   0  0  0  0  0  0  0  0  0  0  0  0
   -9.2350    1.3700  -12.9860 C   0  0  0  0  0  0  0  0  0  0  0  0
   -8.2940    0.4780  -12.5160 C   0  0  0  0  0  0  0  0  0  0  0  0
   -8.4140   -0.8650  -12.8090 C   0  0  0  0  0  0  0  0  0  0  0  0
   -9.4740   -1.3250  -13.5730 C   0  0  0  0  0  0  0  0  0  0  0  0
  -13.3360   -2.2010  -15.6840 C   0  0  1  0  0  0  0  0  0  0  0  0
  -13.8840   -3.5910  -15.8520 C   0  0  0  0  0  0  0  0  0  0  0  0
  -14.6970   -2.5660  -15.1620 C   0  0  0  0  0  0  0  0  0  0  0  0
  1  2  1  0
  1  4  1  0
  2  3  2  0
 10  2  1  1
  4  5  2  0
  4  9  1  0
  5  6  1  0
  6  7  2  0
  7  8  1  0
  8  9  2  0
 10 11  1  0
 10 12  1  0
 11 12  1  0
A    1
 N  
A    2
 C  
A    3
 O  
A    4
 C1 
A    5
 C2 
A    6
 C3 
A    7
 C4 
A    8
 C5 
A    9
 C6 
A   10
 C7 
A   11
 C8 
A   12
 C9 
M  END
>  <XChem_code>  (66) 
D68EV3CPROA-x1607

>  <Occupancy>  (66) 
[0.52, 0.52, 0.52, 0.52, 0.52, 0.52, 0.52, 0.52, 0.52, 0.52, 0.52, 0.52]

>  <TempFactor>  (66) 
[41.35, 40.74, 41.2, 41.96, 42.07, 43.44, 42.16, 42.08, 41.36, 38.94, 37.83, 37.89]

>  <RealCrystalName>  (66) 
D68EV3CPROA-x1607

>  <smiles>  (66) 
O=C(NC=1C=CC=CC1)C2CC2

>  <new_smiles>  (66) 
O=C(NC=1C=CC=CC1)C2CC2

>  <alternate_name>  (66) 
Z27782662

>  <site_name>  (66) 
3

>  <pdb_entry>  (66) 
nan

>  <mol>  (66) 
<rdkit.Chem.rdchem.Mol object at 0x165034c80>

>  <single_smiles>  (66) 
O=C(Nc1ccccc1)C1CC1

>  <base_name>  (66) 
D68EV3CPROA-x1607_0A

>  <lig_resn>  (66) 
LIG

>  <lig_resi>  (66) 
201

>  <lig_chain>  (66) 
A

>  <lig_segi>  (66) 


>  <lig_alt>  (66) 


>  <polymer_chain>  (66) 
B

$$$$
x0980_0B§1
     RDKit          3D

 17 18  0  0  0  0  0  0  0  0999 V2000
   -4.3660   13.8820  -31.0770 N   0  0  0  0  0  0  0  0  0  0  0  0
   -2.8990   13.8130  -33.5730 C   0  0  0  0  0  0  0  0  0  0  0  0
   -2.8790   12.5190  -30.0510 O   0  0  0  0  0  0  0  0  0  0  0  0
   -2.7490   14.9250  -32.5660 C   0  0  0  0  0  0  0  0  0  0  0  0
   -7.1710    9.9370  -29.6620 N   0  0  0  0  0  0  0  0  0  0  0  0
   -1.8480   15.9640  -32.7910 C   0  0  0  0  0  0  0  0  0  0  0  0
   -1.6300   16.9590  -31.8560 C   0  0  0  0  0  0  0  0  0  0  0  0
   -2.3440   16.9140  -30.6860 C   0  0  0  0  0  0  0  0  0  0  0  0
   -3.2680   15.9380  -30.4090 C   0  0  0  0  0  0  0  0  0  0  0  0
   -3.4680   14.9320  -31.3550 C   0  0  0  0  0  0  0  0  0  0  0  0
   -4.0230   12.7490  -30.4300 C   0  0  0  0  0  0  0  0  0  0  0  0
   -5.1320   11.7810  -30.1740 C   0  0  0  0  0  0  0  0  0  0  0  0
   -5.8670   11.2200  -31.2140 C   0  0  0  0  0  0  0  0  0  0  0  0
   -6.8630   10.3130  -30.9100 C   0  0  0  0  0  0  0  0  0  0  0  0
   -6.4560   10.4850  -28.6720 C   0  0  0  0  0  0  0  0  0  0  0  0
   -5.4400   11.4000  -28.8740 C   0  0  0  0  0  0  0  0  0  0  0  0
   -2.1100   17.8670  -29.7410 F   0  0  0  0  0  0  0  0  0  0  0  0
  1 10  1  0
  1 11  1  0
  2  4  1  0
  3 11  2  0
  4  6  2  0
  4 10  1  0
  5 14  2  0
  5 15  1  0
  6  7  1  0
  7  8  2  0
  8  9  1  0
  8 17  1  0
  9 10  2  0
 11 12  1  0
 12 13  2  0
 12 16  1  0
 13 14  1  0
 15 16  2  0
A    1
 N  
A    2
 C  
A    3
 O  
A    4
 C1 
A    5
 N1 
A    6
 C2 
A    7
 C3 
A    8
 C4 
A    9
 C5 
A   10
 C6 
A   11
 C7 
A   12
 C8 
A   13
 C9 
A   14
 C10
A   15
 C11
A   16
 C12
A   17
 F  
M  END
>  <XChem_code>  (67) 
D68EV3CPROA-x0980

>  <Occupancy>  (67) 
[0.62, 0.62, 0.62, 0.62, 0.62, 0.62, 0.62, 0.62, 0.62, 0.62, 0.62, 0.62, 0.62, 0.62, 0.62, 0.62, 0.62]

>  <TempFactor>  (67) 
[63.79, 74.68, 53.61, 73.53, 45.77, 75.37, 78.48, 80.64, 76.38, 71.86, 57.46, 53.08, 49.42, 49.52, 51.16, 51.21, 87.9]

>  <RealCrystalName>  (67) 
D68EV3CPROA-x0980

>  <smiles>  (67) 
Cc1ccc(F)cc1NC(=O)c2ccncc2

>  <new_smiles>  (67) 
Cc1ccc(F)cc1NC(=O)c2ccncc2

>  <alternate_name>  (67) 
Z30904160

>  <site_name>  (67) 
1

>  <pdb_entry>  (67) 
nan

>  <mol>  (67) 
<rdkit.Chem.rdchem.Mol object at 0x164f2af10>

>  <single_smiles>  (67) 
Cc1ccc(F)cc1NC(=O)c1ccncc1

>  <base_name>  (67) 
D68EV3CPROA-x0980_0B

>  <lig_resn>  (67) 
LIG

>  <lig_resi>  (67) 
201

>  <lig_chain>  (67) 
B

>  <lig_segi>  (67) 


>  <lig_alt>  (67) 


>  <polymer_chain>  (67) 
B

$$$$
x0916_0B§1
     RDKit          3D

 16 17  0  0  0  0  0  0  0  0999 V2000
   -7.0160    4.9690  -53.7110 N   0  0  0  0  0  0  0  0  0  0  0  0
   -4.7090    7.2850  -53.8210 C   0  0  0  0  0  0  0  0  0  0  0  0
   -6.2550    3.4700  -55.2030 O   0  0  0  0  0  0  0  0  0  0  0  0
   -4.1940    6.0600  -54.5760 C   0  0  0  0  0  0  0  0  0  0  0  0
   -8.1810    3.1750  -51.2940 N   0  0  0  0  0  0  0  0  0  0  0  0
   -4.6210    4.7170  -53.9770 C   0  0  0  0  0  0  0  0  0  0  0  0
   -5.9640    3.0920  -51.0450 N   0  0  0  0  0  0  0  0  0  0  0  0
   -6.0360    4.3300  -54.3520 C   0  0  0  0  0  0  0  0  0  0  0  0
   -7.0290    5.0970  -52.2680 C   0  0  0  0  0  0  0  0  0  0  0  0
   -7.0230    3.7490  -51.5780 C   0  0  0  0  0  0  0  0  0  0  0  0
   -7.8560    2.0920  -50.4770 C   0  0  0  0  0  0  0  0  0  0  0  0
   -8.6750    1.1910  -49.8000 C   0  0  0  0  0  0  0  0  0  0  0  0
   -8.0880    0.2530  -48.9650 C   0  0  0  0  0  0  0  0  0  0  0  0
   -6.7040    0.2020  -48.8100 C   0  0  0  0  0  0  0  0  0  0  0  0
   -5.8750    1.0850  -49.4900 C   0  0  0  0  0  0  0  0  0  0  0  0
   -6.4710    2.0300  -50.3130 C   0  0  0  0  0  0  0  0  0  0  0  0
  1  8  1  0
  1  9  1  0
  2  4  1  0
  3  8  2  0
  4  6  1  0
  5 10  2  0
  5 11  1  0
  6  8  1  0
  7 10  1  0
  7 16  1  0
  9 10  1  0
 11 12  2  0
 11 16  1  0
 12 13  1  0
 13 14  2  0
 14 15  1  0
 15 16  2  0
A    1
 N  
A    2
 C  
A    3
 O  
A    4
 C1 
A    5
 N1 
A    6
 C2 
A    7
 N2 
A    8
 C3 
A    9
 C4 
A   10
 C5 
A   11
 C6 
A   12
 C7 
A   13
 C8 
A   14
 C9 
A   15
 C10
A   16
 C11
M  END
>  <XChem_code>  (68) 
D68EV3CPROA-x0916

>  <Occupancy>  (68) 
[0.88, 0.88, 0.88, 0.88, 0.88, 0.88, 0.88, 0.88, 0.88, 0.88, 0.88, 0.88, 0.88, 0.88, 0.88, 0.88]

>  <TempFactor>  (68) 
[54.68, 55.3, 62.51, 58.64, 47.94, 60.81, 47.79, 59.76, 53.79, 50.42, 44.33, 41.24, 41.7, 43.52, 44.81, 45.15]

>  <RealCrystalName>  (68) 
D68EV3CPROA-x0916

>  <smiles>  (68) 
CCCC(=O)NCc1nc2ccccc2[nH]1

>  <new_smiles>  (68) 
CCCC(=O)NCc1nc2ccccc2[nH]1

>  <alternate_name>  (68) 
Z26781952

>  <site_name>  (68) 
2

>  <pdb_entry>  (68) 
nan

>  <mol>  (68) 
<rdkit.Chem.rdchem.Mol object at 0x164f2aab0>

>  <single_smiles>  (68) 
CCCC(=O)NCc1nc2ccccc2[nH]1

>  <base_name>  (68) 
D68EV3CPROA-x0916_0B

>  <lig_resn>  (68) 
LIG

>  <lig_resi>  (68) 
201

>  <lig_chain>  (68) 
B

>  <lig_segi>  (68) 


>  <lig_alt>  (68) 


>  <polymer_chain>  (68) 
B

$$$$
x0147_0A§1
     RDKit          3D

  9 10  0  0  0  0  0  0  0  0999 V2000
   -7.2300    9.6790  -30.3200 N   0  0  0  0  0  0  0  0  0  0  0  0
   -6.6340   10.0970  -31.4020 C   0  0  0  0  0  0  0  0  0  0  0  0
   -5.8950   11.3220  -29.7400 C   0  0  0  0  0  0  0  0  0  0  0  0
   -6.7690   10.4490  -29.2520 N   0  0  0  0  0  0  0  0  0  0  0  0
   -5.0960   12.3520  -29.1780 C   0  0  0  0  0  0  0  0  0  0  0  0
   -4.2700   13.0910  -29.8760 N   0  0  0  0  0  0  0  0  0  0  0  0
   -4.1850   12.8380  -31.2230 C   0  0  0  0  0  0  0  0  0  0  0  0
   -5.7810   11.1200  -31.1120 N   0  0  0  0  0  0  0  0  0  0  0  0
   -4.9040   11.8930  -31.8620 C   0  0  0  0  0  0  0  0  0  0  0  0
  1  2  2  0
  1  4  1  0
  2  8  1  0
  3  4  2  0
  3  5  1  0
  3  8  1  0
  5  6  2  0
  6  7  1  0
  7  9  2  0
  8  9  1  0
A    1
 N  
A    2
 C  
A    3
 C1 
A    4
 N1 
A    5
 C2 
A    6
 N2 
A    7
 C3 
A    8
 N3 
A    9
 C4 
M  END
>  <XChem_code>  (69) 
D68EV3CPROA-x0147

>  <Occupancy>  (69) 
[0.66, 0.66, 0.66, 0.66, 0.66, 0.66, 0.66, 0.66, 0.66]

>  <TempFactor>  (69) 
[40.37, 43.04, 42.99, 41.58, 44.34, 44.94, 44.77, 45.02, 45.86]

>  <RealCrystalName>  (69) 
D68EV3CPROA-x0147

>  <smiles>  (69) 
c1nnc2cnccn12

>  <new_smiles>  (69) 
c1nnc2cnccn12

>  <alternate_name>  (69) 
Z1182328459

>  <site_name>  (69) 
1

>  <pdb_entry>  (69) 
nan

>  <mol>  (69) 
<rdkit.Chem.rdchem.Mol object at 0x16324cc10>

>  <single_smiles>  (69) 
c1cn2cnnc2cn1

>  <base_name>  (69) 
D68EV3CPROA-x0147_0A

>  <lig_resn>  (69) 
LIG

>  <lig_resi>  (69) 
201

>  <lig_chain>  (69) 
A

>  <lig_segi>  (69) 


>  <lig_alt>  (69) 


>  <polymer_chain>  (69) 
A

$$$$
x1108_0A§1
     RDKit          3D

 14 15  0  0  0  0  0  0  0  0999 V2000
    0.8370    3.2570  -24.0870 N   0  0  0  0  0  0  0  0  0  0  0  0
    1.8500    2.9830  -24.9490 C   0  0  0  0  0  0  0  0  0  0  0  0
    1.7710    3.2010  -26.1470 O   0  0  0  0  0  0  0  0  0  0  0  0
   -0.4080    3.8320  -24.4130 C   0  0  0  0  0  0  0  0  0  0  0  0
    2.9740    2.4530  -24.3960 N   0  0  0  0  0  0  0  0  0  0  0  0
   -1.1280    3.3960  -25.5150 C   0  0  0  0  0  0  0  0  0  0  0  0
   -2.3400    3.9800  -25.8200 C   0  0  0  0  0  0  0  0  0  0  0  0
   -2.8400    5.0000  -25.0410 C   0  0  0  0  0  0  0  0  0  0  0  0
   -2.1330    5.4340  -23.9460 C   0  0  0  0  0  0  0  0  0  0  0  0
   -0.9180    4.8550  -23.6250 C   0  0  0  0  0  0  0  0  0  0  0  0
    4.2450    2.2740  -25.1010 C   0  0  0  0  0  0  0  0  0  0  0  0
    5.1070    1.5330  -24.0970 C   0  0  0  0  0  0  0  0  0  0  0  0
    4.5600    1.8860  -22.7770 C   0  0  0  0  0  0  0  0  0  0  0  0
    3.0750    2.0260  -23.0010 C   0  0  0  0  0  0  0  0  0  0  0  0
  1  2  1  0
  1  4  1  0
  2  3  2  0
  2  5  1  0
  4  6  2  0
  4 10  1  0
  5 11  1  0
  5 14  1  0
  6  7  1  0
  7  8  2  0
  8  9  1  0
  9 10  2  0
 11 12  1  0
 12 13  1  0
 13 14  1  0
A    1
 N  
A    2
 C  
A    3
 O  
A    4
 C1 
A    5
 N1 
A    6
 C2 
A    7
 C3 
A    8
 C4 
A    9
 C5 
A   10
 C6 
A   11
 C7 
A   12
 C8 
A   13
 C9 
A   14
 C10
M  END
>  <XChem_code>  (70) 
D68EV3CPROA-x1108

>  <Occupancy>  (70) 
[0.5, 0.5, 0.5, 0.5, 0.5, 0.5, 0.5, 0.5, 0.5, 0.5, 0.5, 0.5, 0.5, 0.5]

>  <TempFactor>  (70) 
[34.79, 37.77, 40.08, 34.89, 38.35, 33.53, 34.2, 33.38, 35.08, 33.64, 40.46, 40.73, 40.08, 39.79]

>  <RealCrystalName>  (70) 
D68EV3CPROA-x1108

>  <smiles>  (70) 
O=C(Nc1ccccc1)N2CCCC2

>  <new_smiles>  (70) 
O=C(Nc1ccccc1)N2CCCC2

>  <alternate_name>  (70) 
Z44585777

>  <site_name>  (70) 
3

>  <pdb_entry>  (70) 
nan

>  <mol>  (70) 
<rdkit.Chem.rdchem.Mol object at 0x164f2b3e0>

>  <single_smiles>  (70) 
O=C(Nc1ccccc1)N1CCCC1

>  <base_name>  (70) 
D68EV3CPROA-x1108_0A

>  <lig_resn>  (70) 
LIG

>  <lig_resi>  (70) 
201

>  <lig_chain>  (70) 
A

>  <lig_segi>  (70) 


>  <lig_alt>  (70) 


>  <polymer_chain>  (70) 
A

$$$$
x1108_0A§2
     RDKit          3D

 14 15  0  0  0  0  0  0  0  0999 V2000
  -11.7480   -0.4780  -14.8660 N   0  0  0  0  0  0  0  0  0  0  0  0
  -12.4570   -1.6080  -14.6110 C   0  0  0  0  0  0  0  0  0  0  0  0
  -12.1110   -2.4270  -13.7760 O   0  0  0  0  0  0  0  0  0  0  0  0
  -10.5620   -0.0700  -14.2230 C   0  0  0  0  0  0  0  0  0  0  0  0
  -13.5920   -1.7750  -15.3420 N   0  0  0  0  0  0  0  0  0  0  0  0
   -9.5300   -0.9680  -13.9970 C   0  0  0  0  0  0  0  0  0  0  0  0
   -8.3800   -0.5480  -13.3580 C   0  0  0  0  0  0  0  0  0  0  0  0
   -8.2530    0.7560  -12.9350 C   0  0  0  0  0  0  0  0  0  0  0  0
   -9.2710    1.6510  -13.1590 C   0  0  0  0  0  0  0  0  0  0  0  0
  -10.4270    1.2460  -13.8030 C   0  0  0  0  0  0  0  0  0  0  0  0
  -14.6010   -2.8060  -15.0900 C   0  0  0  0  0  0  0  0  0  0  0  0
  -15.5700   -2.6450  -16.2460 C   0  0  0  0  0  0  0  0  0  0  0  0
  -15.4340   -1.2450  -16.6790 C   0  0  0  0  0  0  0  0  0  0  0  0
  -13.9790   -0.9130  -16.4590 C   0  0  0  0  0  0  0  0  0  0  0  0
  1  2  1  0
  1  4  1  0
  2  3  2  0
  2  5  1  0
  4  6  2  0
  4 10  1  0
  5 11  1  0
  5 14  1  0
  6  7  1  0
  7  8  2  0
  8  9  1  0
  9 10  2  0
 11 12  1  0
 12 13  1  0
 13 14  1  0
A    1
 N  
A    2
 C  
A    3
 O  
A    4
 C1 
A    5
 N1 
A    6
 C2 
A    7
 C3 
A    8
 C4 
A    9
 C5 
A   10
 C6 
A   11
 C7 
A   12
 C8 
A   13
 C9 
A   14
 C10
M  END
>  <XChem_code>  (71) 
D68EV3CPROA-x1108

>  <Occupancy>  (71) 
[0.5, 0.5, 0.5, 0.5, 0.5, 0.5, 0.5, 0.5, 0.5, 0.5, 0.5, 0.5, 0.5, 0.5]

>  <TempFactor>  (71) 
[34.79, 37.77, 40.08, 34.89, 38.35, 33.53, 34.2, 33.38, 35.08, 33.64, 40.46, 40.73, 40.08, 39.79]

>  <RealCrystalName>  (71) 
D68EV3CPROA-x1108

>  <smiles>  (71) 
O=C(Nc1ccccc1)N2CCCC2

>  <new_smiles>  (71) 
O=C(Nc1ccccc1)N2CCCC2

>  <alternate_name>  (71) 
Z44585777

>  <site_name>  (71) 
3

>  <pdb_entry>  (71) 
nan

>  <mol>  (71) 
<rdkit.Chem.rdchem.Mol object at 0x164f2b3e0>

>  <single_smiles>  (71) 
O=C(Nc1ccccc1)N1CCCC1

>  <base_name>  (71) 
D68EV3CPROA-x1108_0A

>  <lig_resn>  (71) 
LIG

>  <lig_resi>  (71) 
201

>  <lig_chain>  (71) 
A

>  <lig_segi>  (71) 


>  <lig_alt>  (71) 


>  <polymer_chain>  (71) 
B

$$$$
x1285_0B§1
     RDKit          3D

 13 14  0  0  0  0  0  0  0  0999 V2000
   -7.7300    2.4750  -52.9420 N   0  0  0  0  0  0  0  0  0  0  0  0
   -9.0920    2.4220  -55.3340 C   0  0  1  0  0  0  0  0  0  0  0  0
   -9.5040    2.5670  -56.6910 O   0  0  0  0  0  0  0  0  0  0  0  0
   -7.8860    1.5140  -55.2300 C   0  0  0  0  0  0  0  0  0  0  0  0
   -7.5180    1.2690  -53.7660 C   0  0  0  0  0  0  0  0  0  0  0  0
   -6.7960    2.5170  -51.8240 C   0  0  0  0  0  0  0  0  0  0  0  0
   -7.1960    1.5840  -50.7140 C   0  0  0  0  0  0  0  0  0  0  0  0
   -6.3110    0.8940  -49.8420 C   0  0  0  0  0  0  0  0  0  0  0  0
   -6.9430    0.1670  -48.9130 C   0  0  0  0  0  0  0  0  0  0  0  0
   -8.5000    1.3340  -50.4150 C   0  0  0  0  0  0  0  0  0  0  0  0
   -7.6190    3.6800  -53.7710 C   0  0  0  0  0  0  0  0  0  0  0  0
   -8.7870    3.7750  -54.7310 C   0  0  0  0  0  0  0  0  0  0  0  0
   -8.6390    0.2900  -49.0980 S   0  0  0  0  0  0  0  0  0  0  0  0
  1  5  1  0
  1  6  1  0
  1 11  1  0
  2  3  1  6
  2  4  1  0
  2 12  1  0
  4  5  1  0
  6  7  1  0
  7  8  1  0
  7 10  2  0
  8  9  2  0
  9 13  1  0
 10 13  1  0
 11 12  1  0
A    1
 N  
A    2
 C  
A    3
 O  
A    4
 C1 
A    5
 C2 
A    6
 C3 
A    7
 C4 
A    8
 C5 
A    9
 C6 
A   10
 C7 
A   11
 C8 
A   12
 C9 
A   13
 S  
M  END
>  <XChem_code>  (72) 
D68EV3CPROA-x1285

>  <Occupancy>  (72) 
[0.74, 0.74, 0.74, 0.74, 0.74, 0.74, 0.74, 0.74, 0.74, 0.74, 0.74, 0.74, 0.74]

>  <TempFactor>  (72) 
[45.75, 50.38, 54.88, 49.45, 48.56, 41.9, 35.04, 31.62, 29.82, 31.62, 47.24, 49.38, 29.38]

>  <RealCrystalName>  (72) 
D68EV3CPROA-x1285

>  <smiles>  (72) 
OC1CCN(Cc2ccsc2)CC1

>  <new_smiles>  (72) 
OC1CCN(Cc2ccsc2)CC1

>  <alternate_name>  (72) 
Z905434478

>  <site_name>  (72) 
5

>  <pdb_entry>  (72) 
nan

>  <mol>  (72) 
<rdkit.Chem.rdchem.Mol object at 0x164f2bae0>

>  <single_smiles>  (72) 
OC1CCN(Cc2ccsc2)CC1

>  <base_name>  (72) 
D68EV3CPROA-x1285_0B

>  <lig_resn>  (72) 
LIG

>  <lig_resi>  (72) 
201

>  <lig_chain>  (72) 
B

>  <lig_segi>  (72) 


>  <lig_alt>  (72) 


>  <polymer_chain>  (72) 
B

$$$$
x1285_0B§2
     RDKit          3D

 13 14  0  0  0  0  0  0  0  0999 V2000
  -10.6520   19.6760  -30.1380 N   0  0  0  0  0  0  0  0  0  0  0  0
   -9.9820   17.1800  -31.2410 C   0  0  1  0  0  0  0  0  0  0  0  0
  -10.9250   16.5330  -30.3940 O   0  0  0  0  0  0  0  0  0  0  0  0
  -10.6930   18.1730  -32.1210 C   0  0  0  0  0  0  0  0  0  0  0  0
  -11.4430   19.1980  -31.2830 C   0  0  0  0  0  0  0  0  0  0  0  0
  -10.8780   21.1100  -29.9290 C   0  0  0  0  0  0  0  0  0  0  0  0
  -11.3020   21.5050  -28.5370 C   0  0  0  0  0  0  0  0  0  0  0  0
  -11.2000   22.8270  -27.9980 C   0  0  0  0  0  0  0  0  0  0  0  0
  -11.6850   22.9370  -26.7200 C   0  0  0  0  0  0  0  0  0  0  0  0
  -11.8630   20.6350  -27.6410 C   0  0  0  0  0  0  0  0  0  0  0  0
   -9.2200   19.3860  -30.3540 C   0  0  0  0  0  0  0  0  0  0  0  0
   -8.9480   17.8850  -30.4010 C   0  0  0  0  0  0  0  0  0  0  0  0
  -12.2700   21.3910  -26.1670 S   0  0  0  0  0  0  0  0  0  0  0  0
  1  5  1  0
  1  6  1  0
  1 11  1  0
  2  3  1  1
  2  4  1  0
  2 12  1  0
  4  5  1  0
  6  7  1  0
  7  8  1  0
  7 10  2  0
  8  9  2  0
  9 13  1  0
 10 13  1  0
 11 12  1  0
A    1
 N  
A    2
 C  
A    3
 O  
A    4
 C1 
A    5
 C2 
A    6
 C3 
A    7
 C4 
A    8
 C5 
A    9
 C6 
A   10
 C7 
A   11
 C8 
A   12
 C9 
A   13
 S  
M  END
>  <XChem_code>  (73) 
D68EV3CPROA-x1285

>  <Occupancy>  (73) 
[0.98, 0.98, 0.98, 0.98, 0.98, 0.98, 0.98, 0.98, 0.98, 0.98, 0.98, 0.98, 0.98]

>  <TempFactor>  (73) 
[62.92, 53.85, 55.84, 55.42, 59.07, 67.89, 75.42, 75.35, 79.39, 78.53, 58.69, 54.38, 86.51]

>  <RealCrystalName>  (73) 
D68EV3CPROA-x1285

>  <smiles>  (73) 
OC1CCN(Cc2ccsc2)CC1

>  <new_smiles>  (73) 
OC1CCN(Cc2ccsc2)CC1

>  <alternate_name>  (73) 
Z905434478

>  <site_name>  (73) 
5

>  <pdb_entry>  (73) 
nan

>  <mol>  (73) 
<rdkit.Chem.rdchem.Mol object at 0x164f2bae0>

>  <single_smiles>  (73) 
OC1CCN(Cc2ccsc2)CC1

>  <base_name>  (73) 
D68EV3CPROA-x1285_0B

>  <lig_resn>  (73) 
LIG

>  <lig_resi>  (73) 
301

>  <lig_chain>  (73) 
B

>  <lig_segi>  (73) 


>  <lig_alt>  (73) 


>  <polymer_chain>  (73) 
B

$$$$
x0957_0B§1
     RDKit          3D

 12 12  0  0  0  0  0  0  0  0999 V2000
   -0.3520    4.3450  -26.1550 N   0  0  0  0  0  0  0  0  0  0  0  0
   -1.7200    4.0460  -26.4980 C   0  0  0  0  0  0  0  0  0  0  0  0
   -0.0380    4.9120  -21.7640 O   0  0  0  0  0  0  0  0  0  0  0  0
    0.4190    3.5140  -25.4000 C   0  0  0  0  0  0  0  0  0  0  0  0
   -0.1610    6.2160  -23.8440 O   0  0  0  0  0  0  0  0  0  0  0  0
    1.1780    2.5080  -25.9960 C   0  0  0  0  0  0  0  0  0  0  0  0
    2.0420    1.7390  -25.2340 C   0  0  0  0  0  0  0  0  0  0  0  0
    2.1480    1.9460  -23.8780 C   0  0  0  0  0  0  0  0  0  0  0  0
    1.3840    2.9170  -23.2510 C   0  0  0  0  0  0  0  0  0  0  0  0
    0.5270    3.7050  -24.0090 C   0  0  0  0  0  0  0  0  0  0  0  0
   -2.0640    4.5400  -23.3310 C   0  0  0  0  0  0  0  0  0  0  0  0
   -0.3760    4.9750  -23.1560 S   0  0  1  0  0  0  0  0  0  0  0  0
  1  2  1  0
  1  4  1  0
  3 12  2  0
  4  6  2  0
  4 10  1  0
  5 12  2  0
  6  7  1  0
  7  8  2  0
  8  9  1  0
  9 10  2  0
 10 12  1  0
 12 11  1  1
A    1
 N  
A    2
 C  
A    3
 O  
A    4
 C1 
A    5
 O1 
A    6
 C2 
A    7
 C3 
A    8
 C4 
A    9
 C5 
A   10
 C6 
A   11
 C7 
A   12
 S  
M  END
>  <XChem_code>  (74) 
D68EV3CPROA-x0957

>  <Occupancy>  (74) 
[0.51, 0.51, 0.51, 0.51, 0.51, 0.51, 0.51, 0.51, 0.51, 0.51, 0.51, 0.51]

>  <TempFactor>  (74) 
[72.04, 70.39, 79.79, 74.12, 84.07, 72.48, 72.26, 74.06, 74.3, 77.29, 77.97, 81.75]

>  <RealCrystalName>  (74) 
D68EV3CPROA-x0957

>  <smiles>  (74) 
CNc1ccccc1S(=O)(=O)C

>  <new_smiles>  (74) 
CNc1ccccc1S(=O)(=O)C

>  <alternate_name>  (74) 
Z285782452

>  <site_name>  (74) 
4

>  <pdb_entry>  (74) 
nan

>  <mol>  (74) 
<rdkit.Chem.rdchem.Mol object at 0x164f2ae30>

>  <single_smiles>  (74) 
CNc1ccccc1S(C)(=O)=O

>  <base_name>  (74) 
D68EV3CPROA-x0957_0B

>  <lig_resn>  (74) 
LIG

>  <lig_resi>  (74) 
201

>  <lig_chain>  (74) 
A

>  <lig_segi>  (74) 


>  <lig_alt>  (74) 


>  <polymer_chain>  (74) 
A

$$$$
x0957_0B§2
     RDKit          3D

 12 12  0  0  0  0  0  0  0  0999 V2000
  -10.5310   -1.2920  -13.0350 N   0  0  0  0  0  0  0  0  0  0  0  0
   -9.0910   -1.3350  -13.0960 C   0  0  0  0  0  0  0  0  0  0  0  0
  -11.9630    2.4560  -14.9320 O   0  0  0  0  0  0  0  0  0  0  0  0
  -11.3200   -1.3320  -14.1450 C   0  0  0  0  0  0  0  0  0  0  0  0
  -11.5540    1.4880  -12.7110 O   0  0  0  0  0  0  0  0  0  0  0  0
  -11.7490   -2.5490  -14.6710 C   0  0  0  0  0  0  0  0  0  0  0  0
  -12.6380   -2.5770  -15.7330 C   0  0  0  0  0  0  0  0  0  0  0  0
  -13.0940   -1.4050  -16.2920 C   0  0  0  0  0  0  0  0  0  0  0  0
  -12.6610   -0.1800  -15.8120 C   0  0  0  0  0  0  0  0  0  0  0  0
  -11.7830   -0.1410  -14.7360 C   0  0  0  0  0  0  0  0  0  0  0  0
   -9.5900    1.5750  -14.3920 C   0  0  0  0  0  0  0  0  0  0  0  0
  -11.3180    1.4620  -14.1260 S   0  0  1  0  0  0  0  0  0  0  0  0
  1  2  1  0
  1  4  1  0
  3 12  2  0
  4  6  2  0
  4 10  1  0
  5 12  2  0
  6  7  1  0
  7  8  2  0
  8  9  1  0
  9 10  2  0
 10 12  1  0
 12 11  1  1
A    1
 N  
A    2
 C  
A    3
 O  
A    4
 C1 
A    5
 O1 
A    6
 C2 
A    7
 C3 
A    8
 C4 
A    9
 C5 
A   10
 C6 
A   11
 C7 
A   12
 S  
M  END
>  <XChem_code>  (75) 
D68EV3CPROA-x0957

>  <Occupancy>  (75) 
[0.51, 0.51, 0.51, 0.51, 0.51, 0.51, 0.51, 0.51, 0.51, 0.51, 0.51, 0.51]

>  <TempFactor>  (75) 
[72.04, 70.39, 79.79, 74.12, 84.07, 72.48, 72.26, 74.06, 74.3, 77.29, 77.97, 81.75]

>  <RealCrystalName>  (75) 
D68EV3CPROA-x0957

>  <smiles>  (75) 
CNc1ccccc1S(=O)(=O)C

>  <new_smiles>  (75) 
CNc1ccccc1S(=O)(=O)C

>  <alternate_name>  (75) 
Z285782452

>  <site_name>  (75) 
4

>  <pdb_entry>  (75) 
nan

>  <mol>  (75) 
<rdkit.Chem.rdchem.Mol object at 0x164f2ae30>

>  <single_smiles>  (75) 
CNc1ccccc1S(C)(=O)=O

>  <base_name>  (75) 
D68EV3CPROA-x0957_0B

>  <lig_resn>  (75) 
LIG

>  <lig_resi>  (75) 
201

>  <lig_chain>  (75) 
A

>  <lig_segi>  (75) 


>  <lig_alt>  (75) 


>  <polymer_chain>  (75) 
B

$$$$
x0957_0B§3
     RDKit          3D

 12 12  0  0  0  0  0  0  0  0999 V2000
   -5.4220    2.3750  -51.4220 N   0  0  0  0  0  0  0  0  0  0  0  0
   -4.9990    3.7500  -51.2740 C   0  0  0  0  0  0  0  0  0  0  0  0
   -3.8180    1.6870  -49.0300 O   0  0  0  0  0  0  0  0  0  0  0  0
   -6.4560    1.8220  -50.7040 C   0  0  0  0  0  0  0  0  0  0  0  0
   -4.6290   -0.4210  -48.0620 O   0  0  0  0  0  0  0  0  0  0  0  0
   -7.7830    2.1290  -51.0030 C   0  0  0  0  0  0  0  0  0  0  0  0
   -8.8190    1.5030  -50.3260 C   0  0  0  0  0  0  0  0  0  0  0  0
   -8.5520    0.5750  -49.3420 C   0  0  0  0  0  0  0  0  0  0  0  0
   -7.2470    0.2580  -49.0160 C   0  0  0  0  0  0  0  0  0  0  0  0
   -6.2010    0.8780  -49.6900 C   0  0  0  0  0  0  0  0  0  0  0  0
   -3.8820   -0.4170  -50.5450 C   0  0  0  0  0  0  0  0  0  0  0  0
   -4.5530    0.4640  -49.1870 S   0  0  1  0  0  0  0  0  0  0  0  0
  1  2  1  0
  1  4  1  0
  3 12  2  0
  4  6  2  0
  4 10  1  0
  5 12  2  0
  6  7  1  0
  7  8  2  0
  8  9  1  0
  9 10  2  0
 10 12  1  0
 12 11  1  6
A    1
 N  
A    2
 C  
A    3
 O  
A    4
 C1 
A    5
 O1 
A    6
 C2 
A    7
 C3 
A    8
 C4 
A    9
 C5 
A   10
 C6 
A   11
 C7 
A   12
 S  
M  END
>  <XChem_code>  (76) 
D68EV3CPROA-x0957

>  <Occupancy>  (76) 
[0.7, 0.7, 0.7, 0.7, 0.7, 0.7, 0.7, 0.7, 0.7, 0.7, 0.7, 0.7]

>  <TempFactor>  (76) 
[45.09, 47.61, 45.08, 43.37, 40.28, 39.38, 39.51, 36.23, 40.27, 41.26, 41.32, 43.18]

>  <RealCrystalName>  (76) 
D68EV3CPROA-x0957

>  <smiles>  (76) 
CNc1ccccc1S(=O)(=O)C

>  <new_smiles>  (76) 
CNc1ccccc1S(=O)(=O)C

>  <alternate_name>  (76) 
Z285782452

>  <site_name>  (76) 
4

>  <pdb_entry>  (76) 
nan

>  <mol>  (76) 
<rdkit.Chem.rdchem.Mol object at 0x164f2ae30>

>  <single_smiles>  (76) 
CNc1ccccc1S(C)(=O)=O

>  <base_name>  (76) 
D68EV3CPROA-x0957_0B

>  <lig_resn>  (76) 
LIG

>  <lig_resi>  (76) 
201

>  <lig_chain>  (76) 
B

>  <lig_segi>  (76) 


>  <lig_alt>  (76) 


>  <polymer_chain>  (76) 
B

$$$$
x0957_0B§4
     RDKit          3D

 12 12  0  0  0  0  0  0  0  0999 V2000
  -29.4220    8.4840  -38.9020 N   0  0  0  0  0  0  0  0  0  0  0  0
  -28.8600    8.5740  -37.5710 C   0  0  0  0  0  0  0  0  0  0  0  0
  -28.9950    8.7290  -43.2900 O   0  0  0  0  0  0  0  0  0  0  0  0
  -29.3330    7.3480  -39.6720 C   0  0  0  0  0  0  0  0  0  0  0  0
  -29.6750    9.9410  -41.2560 O   0  0  0  0  0  0  0  0  0  0  0  0
  -29.5280    6.0850  -39.1120 C   0  0  0  0  0  0  0  0  0  0  0  0
  -29.3940    4.9440  -39.8900 C   0  0  0  0  0  0  0  0  0  0  0  0
  -29.0610    5.0390  -41.2230 C   0  0  0  0  0  0  0  0  0  0  0  0
  -28.8710    6.2800  -41.8110 C   0  0  0  0  0  0  0  0  0  0  0  0
  -29.0150    7.4290  -41.0440 C   0  0  0  0  0  0  0  0  0  0  0  0
  -27.1630    9.4580  -41.6250 C   0  0  0  0  0  0  0  0  0  0  0  0
  -28.8220    8.9750  -41.8880 S   0  0  1  0  0  0  0  0  0  0  0  0
  1  2  1  0
  1  4  1  0
  3 12  2  0
  4  6  2  0
  4 10  1  0
  5 12  2  0
  6  7  1  0
  7  8  2  0
  8  9  1  0
  9 10  2  0
 10 12  1  0
 12 11  1  6
A    1
 N  
A    2
 C  
A    3
 O  
A    4
 C1 
A    5
 O1 
A    6
 C2 
A    7
 C3 
A    8
 C4 
A    9
 C5 
A   10
 C6 
A   11
 C7 
A   12
 S  
M  END
>  <XChem_code>  (77) 
D68EV3CPROA-x0957

>  <Occupancy>  (77) 
[0.61, 0.61, 0.61, 0.61, 0.61, 0.61, 0.61, 0.61, 0.61, 0.61, 0.61, 0.61]

>  <TempFactor>  (77) 
[54.23, 50.39, 53.02, 54.0, 59.0, 52.34, 52.32, 53.36, 53.47, 54.7, 52.13, 55.2]

>  <RealCrystalName>  (77) 
D68EV3CPROA-x0957

>  <smiles>  (77) 
CNc1ccccc1S(=O)(=O)C

>  <new_smiles>  (77) 
CNc1ccccc1S(=O)(=O)C

>  <alternate_name>  (77) 
Z285782452

>  <site_name>  (77) 
4

>  <pdb_entry>  (77) 
nan

>  <mol>  (77) 
<rdkit.Chem.rdchem.Mol object at 0x164f2ae30>

>  <single_smiles>  (77) 
CNc1ccccc1S(C)(=O)=O

>  <base_name>  (77) 
D68EV3CPROA-x0957_0B

>  <lig_resn>  (77) 
LIG

>  <lig_resi>  (77) 
301

>  <lig_chain>  (77) 
B

>  <lig_segi>  (77) 


>  <lig_alt>  (77) 


>  <polymer_chain>  (77) 
B

$$$$
x0881_0B§1
     RDKit          3D

 17 19  0  0  0  0  0  0  0  0999 V2000
    0.6370    4.4500  -23.3650 N   0  0  0  0  0  0  0  0  0  0  0  0
    5.0670    0.9770  -24.1510 C   0  0  0  0  0  0  0  0  0  0  0  0
    5.7470    0.6380  -22.9390 O   0  0  0  0  0  0  0  0  0  0  0  0
    3.8640    1.8530  -23.9670 C   0  0  0  0  0  0  0  0  0  0  0  0
   -0.5610    6.0600  -22.3650 N   0  0  0  0  0  0  0  0  0  0  0  0
    3.1390    1.8280  -22.7850 C   0  0  0  0  0  0  0  0  0  0  0  0
    2.0570    2.6630  -22.5920 C   0  0  0  0  0  0  0  0  0  0  0  0
    1.6850    3.5490  -23.5850 C   0  0  0  0  0  0  0  0  0  0  0  0
    2.3870    3.5730  -24.7840 C   0  0  0  0  0  0  0  0  0  0  0  0
    3.4650    2.7280  -24.9660 C   0  0  0  0  0  0  0  0  0  0  0  0
    0.5270    5.3330  -22.3360 C   0  0  0  0  0  0  0  0  0  0  0  0
   -1.2290    5.6350  -23.5150 C   0  0  0  0  0  0  0  0  0  0  0  0
   -2.4160    6.0870  -24.0830 C   0  0  0  0  0  0  0  0  0  0  0  0
   -2.8410    5.5180  -25.2780 C   0  0  0  0  0  0  0  0  0  0  0  0
   -2.1010    4.5120  -25.8990 C   0  0  0  0  0  0  0  0  0  0  0  0
   -0.9220    4.0450  -25.3360 C   0  0  0  0  0  0  0  0  0  0  0  0
   -0.5020    4.6280  -24.1490 C   0  0  0  0  0  0  0  0  0  0  0  0
  1  8  1  0
  1 11  1  0
  1 17  1  0
  2  3  1  0
  2  4  1  0
  4  6  2  0
  4 10  1  0
  5 11  2  0
  5 12  1  0
  6  7  1  0
  7  8  2  0
  8  9  1  0
  9 10  2  0
 12 13  2  0
 12 17  1  0
 13 14  1  0
 14 15  2  0
 15 16  1  0
 16 17  2  0
A    1
 N  
A    2
 C  
A    3
 O  
A    4
 C1 
A    5
 N1 
A    6
 C2 
A    7
 C3 
A    8
 C4 
A    9
 C5 
A   10
 C6 
A   11
 C7 
A   12
 C8 
A   13
 C9 
A   14
 C10
A   15
 C11
A   16
 C12
A   17
 C13
M  END
>  <XChem_code>  (78) 
D68EV3CPROA-x0881

>  <Occupancy>  (78) 
[0.52, 0.52, 0.52, 0.52, 0.52, 0.52, 0.52, 0.52, 0.52, 0.52, 0.52, 0.52, 0.52, 0.52, 0.52, 0.52, 0.52]

>  <TempFactor>  (78) 
[49.53, 50.93, 50.7, 49.75, 49.56, 49.88, 49.44, 50.22, 49.77, 50.09, 49.47, 48.9, 48.93, 48.35, 47.35, 46.49, 48.61]

>  <RealCrystalName>  (78) 
D68EV3CPROA-x0881

>  <smiles>  (78) 
OCc1ccc(cc1)n2cnc3ccccc23

>  <new_smiles>  (78) 
OCc1ccc(cc1)n2cnc3ccccc23

>  <alternate_name>  (78) 
Z235449082

>  <site_name>  (78) 
3

>  <pdb_entry>  (78) 
nan

>  <mol>  (78) 
<rdkit.Chem.rdchem.Mol object at 0x164f2a880>

>  <single_smiles>  (78) 
OCc1ccc(-n2cnc3ccccc32)cc1

>  <base_name>  (78) 
D68EV3CPROA-x0881_0B

>  <lig_resn>  (78) 
LIG

>  <lig_resi>  (78) 
201

>  <lig_chain>  (78) 
B

>  <lig_segi>  (78) 


>  <lig_alt>  (78) 


>  <polymer_chain>  (78) 
A

$$$$
x0881_0B§2
     RDKit          3D

 17 19  0  0  0  0  0  0  0  0999 V2000
  -11.9070    0.9220  -14.1730 N   0  0  0  0  0  0  0  0  0  0  0  0
  -15.4440   -2.8370  -16.5520 C   0  0  0  0  0  0  0  0  0  0  0  0
  -16.3490   -2.2520  -17.4930 O   0  0  0  0  0  0  0  0  0  0  0  0
  -14.4660   -1.8760  -15.9450 C   0  0  0  0  0  0  0  0  0  0  0  0
  -11.2450    2.9230  -13.4080 N   0  0  0  0  0  0  0  0  0  0  0  0
  -14.0640   -0.7400  -16.6340 C   0  0  0  0  0  0  0  0  0  0  0  0
  -13.1990    0.1720  -16.0630 C   0  0  0  0  0  0  0  0  0  0  0  0
  -12.7240   -0.0370  -14.7830 C   0  0  0  0  0  0  0  0  0  0  0  0
  -13.1000   -1.1790  -14.0870 C   0  0  0  0  0  0  0  0  0  0  0  0
  -13.9620   -2.0870  -14.6710 C   0  0  0  0  0  0  0  0  0  0  0  0
  -12.1880    2.2430  -14.0100 C   0  0  0  0  0  0  0  0  0  0  0  0
  -10.2560    1.9750  -13.1360 C   0  0  0  0  0  0  0  0  0  0  0  0
   -9.0440    2.1080  -12.4660 C   0  0  0  0  0  0  0  0  0  0  0  0
   -8.2560    0.9770  -12.2850 C   0  0  0  0  0  0  0  0  0  0  0  0
   -8.6620   -0.2670  -12.7670 C   0  0  0  0  0  0  0  0  0  0  0  0
   -9.8630   -0.4090  -13.4460 C   0  0  0  0  0  0  0  0  0  0  0  0
  -10.6460    0.7240  -13.6100 C   0  0  0  0  0  0  0  0  0  0  0  0
  1  8  1  0
  1 11  1  0
  1 17  1  0
  2  3  1  0
  2  4  1  0
  4  6  2  0
  4 10  1  0
  5 11  2  0
  5 12  1  0
  6  7  1  0
  7  8  2  0
  8  9  1  0
  9 10  2  0
 12 13  2  0
 12 17  1  0
 13 14  1  0
 14 15  2  0
 15 16  1  0
 16 17  2  0
A    1
 N  
A    2
 C  
A    3
 O  
A    4
 C1 
A    5
 N1 
A    6
 C2 
A    7
 C3 
A    8
 C4 
A    9
 C5 
A   10
 C6 
A   11
 C7 
A   12
 C8 
A   13
 C9 
A   14
 C10
A   15
 C11
A   16
 C12
A   17
 C13
M  END
>  <XChem_code>  (79) 
D68EV3CPROA-x0881

>  <Occupancy>  (79) 
[0.52, 0.52, 0.52, 0.52, 0.52, 0.52, 0.52, 0.52, 0.52, 0.52, 0.52, 0.52, 0.52, 0.52, 0.52, 0.52, 0.52]

>  <TempFactor>  (79) 
[49.53, 50.93, 50.7, 49.75, 49.56, 49.88, 49.44, 50.22, 49.77, 50.09, 49.47, 48.9, 48.93, 48.35, 47.35, 46.49, 48.61]

>  <RealCrystalName>  (79) 
D68EV3CPROA-x0881

>  <smiles>  (79) 
OCc1ccc(cc1)n2cnc3ccccc23

>  <new_smiles>  (79) 
OCc1ccc(cc1)n2cnc3ccccc23

>  <alternate_name>  (79) 
Z235449082

>  <site_name>  (79) 
3

>  <pdb_entry>  (79) 
nan

>  <mol>  (79) 
<rdkit.Chem.rdchem.Mol object at 0x164f2a880>

>  <single_smiles>  (79) 
OCc1ccc(-n2cnc3ccccc32)cc1

>  <base_name>  (79) 
D68EV3CPROA-x0881_0B

>  <lig_resn>  (79) 
LIG

>  <lig_resi>  (79) 
201

>  <lig_chain>  (79) 
B

>  <lig_segi>  (79) 


>  <lig_alt>  (79) 


>  <polymer_chain>  (79) 
B

$$$$
x1652_0A§1
     RDKit          3D

 13 14  0  0  0  0  0  0  0  0999 V2000
    1.5900    3.1270  -24.0940 N   0  0  0  0  0  0  0  0  0  0  0  0
    3.5120    2.4160  -25.3150 C   0  0  0  0  0  0  0  0  0  0  0  0
    4.6080    1.6090  -25.3770 O   0  0  0  0  0  0  0  0  0  0  0  0
    2.8060    2.5680  -24.1380 C   0  0  0  0  0  0  0  0  0  0  0  0
    1.6900    3.4450  -26.4610 N   0  0  0  0  0  0  0  0  0  0  0  0
    1.0840    3.5390  -25.2680 C   0  0  0  0  0  0  0  0  0  0  0  0
    2.9020    2.8760  -26.4670 C   0  0  0  0  0  0  0  0  0  0  0  0
   -0.2740    4.1490  -25.2440 C   0  0  0  0  0  0  0  0  0  0  0  0
   -0.6650    4.9870  -24.1990 C   0  0  0  0  0  0  0  0  0  0  0  0
   -1.8910    5.6330  -24.2340 C   0  0  0  0  0  0  0  0  0  0  0  0
   -2.7460    5.4460  -25.2950 C   0  0  0  0  0  0  0  0  0  0  0  0
   -2.3840    4.6080  -26.3250 C   0  0  0  0  0  0  0  0  0  0  0  0
   -1.1590    3.9580  -26.3020 C   0  0  0  0  0  0  0  0  0  0  0  0
  1  4  2  0
  1  6  1  0
  2  3  1  0
  2  4  1  0
  2  7  2  0
  5  6  2  0
  5  7  1  0
  6  8  1  0
  8  9  2  0
  8 13  1  0
  9 10  1  0
 10 11  2  0
 11 12  1  0
 12 13  2  0
A    1
 N  
A    2
 C  
A    3
 O  
A    4
 C1 
A    5
 N1 
A    6
 C2 
A    7
 C3 
A    8
 C4 
A    9
 C5 
A   10
 C6 
A   11
 C7 
A   12
 C8 
A   13
 C9 
M  END
>  <XChem_code>  (80) 
D68EV3CPROA-x1652

>  <Occupancy>  (80) 
[0.66, 0.66, 0.66, 0.66, 0.66, 0.66, 0.66, 0.66, 0.66, 0.66, 0.66, 0.66, 0.66]

>  <TempFactor>  (80) 
[28.57, 32.18, 32.82, 30.77, 30.77, 30.18, 32.23, 29.38, 28.96, 30.12, 28.4, 29.05, 29.85]

>  <RealCrystalName>  (80) 
D68EV3CPROA-x1652

>  <smiles>  (80) 
OC=1C=NC(=NC1)C=2C=CC=CC2

>  <new_smiles>  (80) 
OC=1C=NC(=NC1)C=2C=CC=CC2

>  <alternate_name>  (80) 
Z362043378

>  <site_name>  (80) 
3

>  <pdb_entry>  (80) 
nan

>  <mol>  (80) 
<rdkit.Chem.rdchem.Mol object at 0x165034e40>

>  <single_smiles>  (80) 
Oc1cnc(-c2ccccc2)nc1

>  <base_name>  (80) 
D68EV3CPROA-x1652_0A

>  <lig_resn>  (80) 
LIG

>  <lig_resi>  (80) 
201

>  <lig_chain>  (80) 
A

>  <lig_segi>  (80) 


>  <lig_alt>  (80) 


>  <polymer_chain>  (80) 
A

$$$$
x1652_0A§2
     RDKit          3D

 13 14  0  0  0  0  0  0  0  0999 V2000
  -12.3920   -0.6570  -15.0440 N   0  0  0  0  0  0  0  0  0  0  0  0
  -13.8350   -2.5530  -14.9370 C   0  0  0  0  0  0  0  0  0  0  0  0
  -14.7540   -3.3430  -15.5600 O   0  0  0  0  0  0  0  0  0  0  0  0
  -13.4660   -1.3340  -15.4700 C   0  0  0  0  0  0  0  0  0  0  0  0
  -11.9610   -2.4020  -13.4680 N   0  0  0  0  0  0  0  0  0  0  0  0
  -11.6830   -1.2290  -14.0580 C   0  0  0  0  0  0  0  0  0  0  0  0
  -13.0390   -3.0530  -13.9240 C   0  0  0  0  0  0  0  0  0  0  0  0
  -10.4760   -0.5010  -13.5810 C   0  0  0  0  0  0  0  0  0  0  0  0
  -10.4760    0.8890  -13.4650 C   0  0  0  0  0  0  0  0  0  0  0  0
   -9.3860    1.5530  -12.9230 C   0  0  0  0  0  0  0  0  0  0  0  0
   -8.2810    0.8490  -12.5030 C   0  0  0  0  0  0  0  0  0  0  0  0
   -8.2560   -0.5210  -12.6270 C   0  0  0  0  0  0  0  0  0  0  0  0
   -9.3420   -1.1960  -13.1650 C   0  0  0  0  0  0  0  0  0  0  0  0
  1  4  2  0
  1  6  1  0
  2  3  1  0
  2  4  1  0
  2  7  2  0
  5  6  2  0
  5  7  1  0
  6  8  1  0
  8  9  2  0
  8 13  1  0
  9 10  1  0
 10 11  2  0
 11 12  1  0
 12 13  2  0
A    1
 N  
A    2
 C  
A    3
 O  
A    4
 C1 
A    5
 N1 
A    6
 C2 
A    7
 C3 
A    8
 C4 
A    9
 C5 
A   10
 C6 
A   11
 C7 
A   12
 C8 
A   13
 C9 
M  END
>  <XChem_code>  (81) 
D68EV3CPROA-x1652

>  <Occupancy>  (81) 
[0.66, 0.66, 0.66, 0.66, 0.66, 0.66, 0.66, 0.66, 0.66, 0.66, 0.66, 0.66, 0.66]

>  <TempFactor>  (81) 
[28.57, 32.18, 32.82, 30.77, 30.77, 30.18, 32.23, 29.38, 28.96, 30.12, 28.4, 29.05, 29.85]

>  <RealCrystalName>  (81) 
D68EV3CPROA-x1652

>  <smiles>  (81) 
OC=1C=NC(=NC1)C=2C=CC=CC2

>  <new_smiles>  (81) 
OC=1C=NC(=NC1)C=2C=CC=CC2

>  <alternate_name>  (81) 
Z362043378

>  <site_name>  (81) 
3

>  <pdb_entry>  (81) 
nan

>  <mol>  (81) 
<rdkit.Chem.rdchem.Mol object at 0x165034e40>

>  <single_smiles>  (81) 
Oc1cnc(-c2ccccc2)nc1

>  <base_name>  (81) 
D68EV3CPROA-x1652_0A

>  <lig_resn>  (81) 
LIG

>  <lig_resi>  (81) 
201

>  <lig_chain>  (81) 
A

>  <lig_segi>  (81) 


>  <lig_alt>  (81) 


>  <polymer_chain>  (81) 
B

$$$$
x1498_1B§1
     RDKit          3D

  7  7  0  0  0  0  0  0  0  0999 V2000
   -5.6770   11.4110  -29.8030 N   0  0  0  0  0  0  0  0  0  0  0  0
   -6.5030   10.3810  -30.1480 C   0  0  0  0  0  0  0  0  0  0  0  0
   -7.1170    9.7570  -29.1810 O   0  0  0  0  0  0  0  0  0  0  0  0
   -6.7630   10.0140  -31.4690 C   0  0  0  0  0  0  0  0  0  0  0  0
   -6.1620   10.7610  -32.4710 C   0  0  0  0  0  0  0  0  0  0  0  0
   -5.3280   11.8160  -32.1480 C   0  0  0  0  0  0  0  0  0  0  0  0
   -5.1140   12.0970  -30.8080 C   0  0  0  0  0  0  0  0  0  0  0  0
  1  2  2  0
  1  7  1  0
  2  3  1  0
  2  4  1  0
  4  5  2  0
  5  6  1  0
  6  7  2  0
A    1
 N  
A    2
 C  
A    3
 O  
A    4
 C1 
A    5
 C2 
A    6
 C3 
A    7
 C4 
M  END
>  <XChem_code>  (82) 
D68EV3CPROA-x1498

>  <Occupancy>  (82) 
[0.88, 0.88, 0.88, 0.88, 0.88, 0.88, 0.88]

>  <TempFactor>  (82) 
[42.68, 37.56, 35.8, 40.47, 43.12, 43.66, 44.2]

>  <RealCrystalName>  (82) 
D68EV3CPROA-x1498

>  <smiles>  (82) 
OC=1C=CC=CN1

>  <new_smiles>  (82) 
OC=1C=CC=CN1

>  <alternate_name>  (82) 
Z1741982125

>  <site_name>  (82) 
5

>  <pdb_entry>  (82) 
nan

>  <mol>  (82) 
<rdkit.Chem.rdchem.Mol object at 0x1650344a0>

>  <single_smiles>  (82) 
Oc1ccccn1

>  <base_name>  (82) 
D68EV3CPROA-x1498_1B

>  <lig_resn>  (82) 
LIG

>  <lig_resi>  (82) 
201

>  <lig_chain>  (82) 
A

>  <lig_segi>  (82) 


>  <lig_alt>  (82) 


>  <polymer_chain>  (82) 
A

$$$$
x1498_1B§2
     RDKit          3D

  7  7  0  0  0  0  0  0  0  0999 V2000
  -18.2570   19.9470  -20.8410 N   0  0  0  0  0  0  0  0  0  0  0  0
  -19.3030   19.1750  -21.2760 C   0  0  0  0  0  0  0  0  0  0  0  0
  -19.7950   18.2360  -20.4320 O   0  0  0  0  0  0  0  0  0  0  0  0
  -19.8620   19.3290  -22.5450 C   0  0  0  0  0  0  0  0  0  0  0  0
  -19.3230   20.2830  -23.3930 C   0  0  0  0  0  0  0  0  0  0  0  0
  -18.2760   21.0720  -22.9710 C   0  0  0  0  0  0  0  0  0  0  0  0
  -17.7810   20.8730  -21.6970 C   0  0  0  0  0  0  0  0  0  0  0  0
  1  2  2  0
  1  7  1  0
  2  3  1  0
  2  4  1  0
  4  5  2  0
  5  6  1  0
  6  7  2  0
A    1
 N  
A    2
 C  
A    3
 O  
A    4
 C1 
A    5
 C2 
A    6
 C3 
A    7
 C4 
M  END
>  <XChem_code>  (83) 
D68EV3CPROA-x1498

>  <Occupancy>  (83) 
[0.88, 0.88, 0.88, 0.88, 0.88, 0.88, 0.88]

>  <TempFactor>  (83) 
[53.3, 52.52, 51.54, 47.0, 49.42, 50.99, 52.44]

>  <RealCrystalName>  (83) 
D68EV3CPROA-x1498

>  <smiles>  (83) 
OC=1C=CC=CN1

>  <new_smiles>  (83) 
OC=1C=CC=CN1

>  <alternate_name>  (83) 
Z1741982125

>  <site_name>  (83) 
5

>  <pdb_entry>  (83) 
nan

>  <mol>  (83) 
<rdkit.Chem.rdchem.Mol object at 0x1650344a0>

>  <single_smiles>  (83) 
Oc1ccccn1

>  <base_name>  (83) 
D68EV3CPROA-x1498_1B

>  <lig_resn>  (83) 
LIG

>  <lig_resi>  (83) 
201

>  <lig_chain>  (83) 
B

>  <lig_segi>  (83) 


>  <lig_alt>  (83) 


>  <polymer_chain>  (83) 
B

$$$$
x1498_1B§3
     RDKit          3D

  7  7  0  0  0  0  0  0  0  0999 V2000
  -25.7700  -12.6800  -37.0880 N   0  0  0  0  0  0  0  0  0  0  0  0
  -27.0180  -12.3010  -37.4850 C   0  0  0  0  0  0  0  0  0  0  0  0
  -27.2530  -10.9840  -37.6430 O   0  0  0  0  0  0  0  0  0  0  0  0
  -28.0380  -13.2260  -37.7200 C   0  0  0  0  0  0  0  0  0  0  0  0
  -27.7580  -14.5720  -37.5410 C   0  0  0  0  0  0  0  0  0  0  0  0
  -26.5040  -14.9720  -37.1280 C   0  0  0  0  0  0  0  0  0  0  0  0
  -25.5460  -13.9970  -36.9170 C   0  0  0  0  0  0  0  0  0  0  0  0
  1  2  2  0
  1  7  1  0
  2  3  1  0
  2  4  1  0
  4  5  2  0
  5  6  1  0
  6  7  2  0
A    1
 N  
A    2
 C  
A    3
 O  
A    4
 C1 
A    5
 C2 
A    6
 C3 
A    7
 C4 
M  END
>  <XChem_code>  (84) 
D68EV3CPROA-x1498

>  <Occupancy>  (84) 
[0.62, 0.62, 0.62, 0.62, 0.62, 0.62, 0.62]

>  <TempFactor>  (84) 
[32.45, 33.25, 31.28, 30.67, 32.17, 31.98, 32.5]

>  <RealCrystalName>  (84) 
D68EV3CPROA-x1498

>  <smiles>  (84) 
OC=1C=CC=CN1

>  <new_smiles>  (84) 
OC=1C=CC=CN1

>  <alternate_name>  (84) 
Z1741982125

>  <site_name>  (84) 
5

>  <pdb_entry>  (84) 
nan

>  <mol>  (84) 
<rdkit.Chem.rdchem.Mol object at 0x1650344a0>

>  <single_smiles>  (84) 
Oc1ccccn1

>  <base_name>  (84) 
D68EV3CPROA-x1498_1B

>  <lig_resn>  (84) 
LIG

>  <lig_resi>  (84) 
301

>  <lig_chain>  (84) 
B

>  <lig_segi>  (84) 


>  <lig_alt>  (84) 


>  <polymer_chain>  (84) 
B

$$$$
x1133_1B§1
     RDKit          3D

 15 16  0  0  0  0  0  0  0  0999 V2000
   -7.6120    2.4210  -51.8360 N   0  0  0  0  0  0  0  0  0  0  0  0
   -6.1850    3.2680  -53.6790 C   0  0  0  0  0  0  0  0  0  0  0  0
   -3.4490   -1.3260  -50.9370 O   0  0  0  0  0  0  0  0  0  0  0  0
   -6.4300    2.6030  -52.3740 C   0  0  0  0  0  0  0  0  0  0  0  0
   -5.4240    2.0640  -51.6130 N   0  0  0  0  0  0  0  0  0  0  0  0
   -7.3840    1.7080  -50.6610 C   0  0  0  0  0  0  0  0  0  0  0  0
   -1.9620    0.3090  -50.5480 N   0  0  0  0  0  0  0  0  0  0  0  0
   -8.2870    1.1850  -49.7380 C   0  0  0  0  0  0  0  0  0  0  0  0
   -7.7880    0.4520  -48.6700 C   0  0  0  0  0  0  0  0  0  0  0  0
   -6.4170    0.2590  -48.5090 C   0  0  0  0  0  0  0  0  0  0  0  0
   -5.5110    0.7830  -49.4210 C   0  0  0  0  0  0  0  0  0  0  0  0
   -6.0210    1.4900  -50.4990 C   0  0  0  0  0  0  0  0  0  0  0  0
   -3.9880    2.0110  -51.9020 C   0  0  0  0  0  0  0  0  0  0  0  0
   -3.5450    0.6190  -52.3300 C   0  0  0  0  0  0  0  0  0  0  0  0
   -2.9790   -0.2170  -51.2060 C   0  0  0  0  0  0  0  0  0  0  0  0
  1  4  2  0
  1  6  1  0
  2  4  1  0
  3 15  2  0
  4  5  1  0
  5 12  1  0
  5 13  1  0
  6  8  2  0
  6 12  1  0
  7 15  1  0
  8  9  1  0
  9 10  2  0
 10 11  1  0
 11 12  2  0
 13 14  1  0
 14 15  1  0
A    1
 N  
A    2
 C  
A    3
 O  
A    4
 C1 
A    5
 N1 
A    6
 C2 
A    7
 N2 
A    8
 C3 
A    9
 C4 
A   10
 C5 
A   11
 C6 
A   12
 C7 
A   13
 C8 
A   14
 C9 
A   15
 C10
M  END
>  <XChem_code>  (85) 
D68EV3CPROA-x1133

>  <Occupancy>  (85) 
[0.52, 0.52, 0.52, 0.52, 0.52, 0.52, 0.52, 0.52, 0.52, 0.52, 0.52, 0.52, 0.52, 0.52, 0.52]

>  <TempFactor>  (85) 
[88.03, 87.26, 61.81, 87.84, 82.69, 85.17, 67.59, 81.21, 81.37, 83.38, 83.68, 82.83, 75.26, 70.72, 66.81]

>  <RealCrystalName>  (85) 
D68EV3CPROA-x1133

>  <smiles>  (85) 
Cc1nc2ccccc2n1CCC(=O)N

>  <new_smiles>  (85) 
Cc1nc2ccccc2n1CCC(=O)N

>  <alternate_name>  (85) 
Z53116498

>  <site_name>  (85) 
2

>  <pdb_entry>  (85) 
nan

>  <mol>  (85) 
<rdkit.Chem.rdchem.Mol object at 0x164f2b530>

>  <single_smiles>  (85) 
Cc1nc2ccccc2n1CCC(N)=O

>  <base_name>  (85) 
D68EV3CPROA-x1133_1B

>  <lig_resn>  (85) 
LIG

>  <lig_resi>  (85) 
201

>  <lig_chain>  (85) 
B

>  <lig_segi>  (85) 


>  <lig_alt>  (85) 
A

>  <polymer_chain>  (85) 
B

$$$$
x1133_1B§2
     RDKit          3D

 15 16  0  0  0  0  0  0  0  0999 V2000
   -5.5690    1.4240  -51.7250 N   0  0  0  0  0  0  0  0  0  0  0  0
   -6.3910    2.7740  -53.6360 C   0  0  0  0  0  0  0  0  0  0  0  0
  -11.1160    4.3220  -51.1680 O   0  0  0  0  0  0  0  0  0  0  0  0
   -6.5230    2.0990  -52.3200 C   0  0  0  0  0  0  0  0  0  0  0  0
   -7.6890    2.0940  -51.6010 N   0  0  0  0  0  0  0  0  0  0  0  0
   -6.1350    0.9350  -50.5510 C   0  0  0  0  0  0  0  0  0  0  0  0
  -10.1850    6.2710  -51.7760 N   0  0  0  0  0  0  0  0  0  0  0  0
   -5.5790    0.1580  -49.5370 C   0  0  0  0  0  0  0  0  0  0  0  0
   -6.3820   -0.2060  -48.4670 C   0  0  0  0  0  0  0  0  0  0  0  0
   -7.7170    0.1850  -48.4080 C   0  0  0  0  0  0  0  0  0  0  0  0
   -8.2790    0.9680  -49.4040 C   0  0  0  0  0  0  0  0  0  0  0  0
   -7.4640    1.3350  -50.4640 C   0  0  0  0  0  0  0  0  0  0  0  0
   -8.9440    2.7790  -51.9240 C   0  0  0  0  0  0  0  0  0  0  0  0
   -8.8180    4.2900  -51.8130 C   0  0  0  0  0  0  0  0  0  0  0  0
  -10.1420    4.9650  -51.5580 C   0  0  0  0  0  0  0  0  0  0  0  0
  1  4  2  0
  1  6  1  0
  2  4  1  0
  3 15  2  0
  4  5  1  0
  5 12  1  0
  5 13  1  0
  6  8  2  0
  6 12  1  0
  7 15  1  0
  8  9  1  0
  9 10  2  0
 10 11  1  0
 11 12  2  0
 13 14  1  0
 14 15  1  0
A    1
 N  
A    2
 C  
A    3
 O  
A    4
 C1 
A    5
 N1 
A    6
 C2 
A    7
 N2 
A    8
 C3 
A    9
 C4 
A   10
 C5 
A   11
 C6 
A   12
 C7 
A   13
 C8 
A   14
 C9 
A   15
 C10
M  END
>  <XChem_code>  (86) 
D68EV3CPROA-x1133

>  <Occupancy>  (86) 
[0.29, 0.29, 0.29, 0.29, 0.29, 0.29, 0.29, 0.29, 0.29, 0.29, 0.29, 0.29, 0.29, 0.29, 0.29]

>  <TempFactor>  (86) 
[66.91, 66.54, 49.99, 66.76, 63.72, 65.33, 50.2, 66.51, 66.06, 64.63, 63.6, 65.0, 59.22, 54.81, 50.89]

>  <RealCrystalName>  (86) 
D68EV3CPROA-x1133

>  <smiles>  (86) 
Cc1nc2ccccc2n1CCC(=O)N

>  <new_smiles>  (86) 
Cc1nc2ccccc2n1CCC(=O)N

>  <alternate_name>  (86) 
Z53116498

>  <site_name>  (86) 
2

>  <pdb_entry>  (86) 
nan

>  <mol>  (86) 
<rdkit.Chem.rdchem.Mol object at 0x164f2b530>

>  <single_smiles>  (86) 
Cc1nc2ccccc2n1CCC(N)=O

>  <base_name>  (86) 
D68EV3CPROA-x1133_1B

>  <lig_resn>  (86) 
LIG

>  <lig_resi>  (86) 
201

>  <lig_chain>  (86) 
B

>  <lig_segi>  (86) 


>  <lig_alt>  (86) 
B

>  <polymer_chain>  (86) 
B

$$$$
x1262_0B§1
     RDKit          3D

 15 15  0  0  0  0  0  0  0  0999 V2000
   -1.4580    0.0070  -49.5940 N   0  0  0  0  0  0  0  0  0  0  0  0
   -1.0980    0.9360  -48.5210 C   0  0  0  0  0  0  0  0  0  0  0  0
   -2.8910   -1.4160  -50.5770 O   0  0  0  0  0  0  0  0  0  0  0  0
   -0.4310   -0.1540  -50.6190 C   0  0  0  0  0  0  0  0  0  0  0  0
   -9.1350    0.6370  -51.2380 N   0  0  0  0  0  0  0  0  0  0  0  0
   -4.2750    0.7640  -48.6120 O   0  0  0  0  0  0  0  0  0  0  0  0
   -2.6260   -0.6610  -49.6550 C   0  0  0  0  0  0  0  0  0  0  0  0
   -3.6240   -0.4900  -48.5340 C   0  0  0  0  0  0  0  0  0  0  0  0
   -5.4990    0.7620  -49.2230 C   0  0  0  0  0  0  0  0  0  0  0  0
   -5.5540    1.0990  -50.5650 C   0  0  0  0  0  0  0  0  0  0  0  0
   -6.7650    1.0650  -51.2280 C   0  0  0  0  0  0  0  0  0  0  0  0
   -7.9420    0.6990  -50.5710 C   0  0  0  0  0  0  0  0  0  0  0  0
   -7.8410    0.3850  -49.2240 C   0  0  0  0  0  0  0  0  0  0  0  0
   -6.6500    0.4020  -48.5340 C   0  0  0  0  0  0  0  0  0  0  0  0
   -8.9760    0.0680  -48.5680 F   0  0  0  0  0  0  0  0  0  0  0  0
  1  2  1  0
  1  4  1  0
  1  7  1  0
  3  7  2  0
  5 12  1  0
  6  8  1  0
  6  9  1  0
  7  8  1  0
  9 10  2  0
  9 14  1  0
 10 11  1  0
 11 12  2  0
 12 13  1  0
 13 14  2  0
 13 15  1  0
A    1
 N  
A    2
 C  
A    3
 O  
A    4
 C1 
A    5
 N1 
A    6
 O1 
A    7
 C2 
A    8
 C3 
A    9
 C4 
A   10
 C5 
A   11
 C6 
A   12
 C7 
A   13
 C8 
A   14
 C9 
A   15
 F  
M  END
>  <XChem_code>  (87) 
D68EV3CPROA-x1262

>  <Occupancy>  (87) 
[0.54, 0.54, 0.54, 0.54, 0.54, 0.54, 0.54, 0.54, 0.54, 0.54, 0.54, 0.54, 0.54, 0.54, 0.54]

>  <TempFactor>  (87) 
[78.68, 77.88, 72.09, 79.57, 74.65, 69.04, 74.61, 71.91, 69.87, 68.46, 68.66, 69.22, 69.04, 70.85, 61.26]

>  <RealCrystalName>  (87) 
D68EV3CPROA-x1262

>  <smiles>  (87) 
CN(C)C(=O)COc1ccc(N)c(F)c1

>  <new_smiles>  (87) 
CN(C)C(=O)COc1ccc(N)c(F)c1

>  <alternate_name>  (87) 
Z839157334

>  <site_name>  (87) 
2

>  <pdb_entry>  (87) 
nan

>  <mol>  (87) 
<rdkit.Chem.rdchem.Mol object at 0x164f2ba00>

>  <single_smiles>  (87) 
CN(C)C(=O)COc1ccc(N)c(F)c1

>  <base_name>  (87) 
D68EV3CPROA-x1262_0B

>  <lig_resn>  (87) 
LIG

>  <lig_resi>  (87) 
201

>  <lig_chain>  (87) 
B

>  <lig_segi>  (87) 


>  <lig_alt>  (87) 


>  <polymer_chain>  (87) 
B

$$$$
x1246_0B§1
     RDKit          3D

 12 13  0  0  0  0  0  0  0  0999 V2000
   -2.8880    5.0890  -25.0790 N   0  0  0  0  0  0  0  0  0  0  0  0
   -1.6420    4.4980  -24.9900 C   0  0  0  0  0  0  0  0  0  0  0  0
    2.4590    1.5930  -25.4710 O   0  0  0  0  0  0  0  0  0  0  0  0
   -0.7560    4.8470  -23.9690 C   0  0  0  0  0  0  0  0  0  0  0  0
    3.2120    3.0250  -23.9740 N   0  0  0  0  0  0  0  0  0  0  0  0
    0.4890    4.2510  -23.8800 C   0  0  0  0  0  0  0  0  0  0  0  0
    3.8130    1.2570  -25.2370 N   0  0  0  0  0  0  0  0  0  0  0  0
    0.8820    3.2790  -24.7940 C   0  0  0  0  0  0  0  0  0  0  0  0
    0.0050    2.9320  -25.8160 C   0  0  0  0  0  0  0  0  0  0  0  0
   -1.2370    3.5330  -25.9160 C   0  0  0  0  0  0  0  0  0  0  0  0
    2.1980    2.6530  -24.6890 C   0  0  0  0  0  0  0  0  0  0  0  0
    4.2080    2.1750  -24.3230 C   0  0  0  0  0  0  0  0  0  0  0  0
  1  2  1  0
  2  4  2  0
  2 10  1  0
  3  7  1  0
  3 11  1  0
  4  6  1  0
  5 11  2  0
  5 12  1  0
  6  8  2  0
  7 12  2  0
  8  9  1  0
  8 11  1  0
  9 10  2  0
A    1
 N  
A    2
 C  
A    3
 O  
A    4
 C1 
A    5
 N1 
A    6
 C2 
A    7
 N2 
A    8
 C3 
A    9
 C4 
A   10
 C5 
A   11
 C6 
A   12
 C7 
M  END
>  <XChem_code>  (88) 
D68EV3CPROA-x1246

>  <Occupancy>  (88) 
[0.69, 0.69, 0.69, 0.69, 0.69, 0.69, 0.69, 0.69, 0.69, 0.69, 0.69, 0.69]

>  <TempFactor>  (88) 
[45.26, 44.93, 49.72, 45.72, 50.84, 48.35, 46.4, 47.87, 46.28, 45.51, 49.57, 49.21]

>  <RealCrystalName>  (88) 
D68EV3CPROA-x1246

>  <smiles>  (88) 
Nc1ccc(cc1)c2ncno2

>  <new_smiles>  (88) 
Nc1ccc(cc1)c2ncno2

>  <alternate_name>  (88) 
Z760031264

>  <site_name>  (88) 
3

>  <pdb_entry>  (88) 
nan

>  <mol>  (88) 
<rdkit.Chem.rdchem.Mol object at 0x164f2b840>

>  <single_smiles>  (88) 
Nc1ccc(-c2ncno2)cc1

>  <base_name>  (88) 
D68EV3CPROA-x1246_0B

>  <lig_resn>  (88) 
LIG

>  <lig_resi>  (88) 
201

>  <lig_chain>  (88) 
B

>  <lig_segi>  (88) 


>  <lig_alt>  (88) 


>  <polymer_chain>  (88) 
A

$$$$
x1246_0B§2
     RDKit          3D

 12 13  0  0  0  0  0  0  0  0999 V2000
   -8.2740    0.8010  -12.8870 N   0  0  0  0  0  0  0  0  0  0  0  0
   -9.3980    0.1980  -13.4190 C   0  0  0  0  0  0  0  0  0  0  0  0
  -12.7620   -2.9090  -15.5430 O   0  0  0  0  0  0  0  0  0  0  0  0
  -10.5500    0.9420  -13.6850 C   0  0  0  0  0  0  0  0  0  0  0  0
  -14.0680   -1.1740  -15.1710 N   0  0  0  0  0  0  0  0  0  0  0  0
  -11.6720    0.3380  -14.2210 C   0  0  0  0  0  0  0  0  0  0  0  0
  -14.0640   -3.2920  -15.9420 N   0  0  0  0  0  0  0  0  0  0  0  0
  -11.6760   -1.0200  -14.5240 C   0  0  0  0  0  0  0  0  0  0  0  0
  -10.5330   -1.7660  -14.2560 C   0  0  0  0  0  0  0  0  0  0  0  0
   -9.4110   -1.1690  -13.7090 C   0  0  0  0  0  0  0  0  0  0  0  0
  -12.8650   -1.6490  -15.0940 C   0  0  0  0  0  0  0  0  0  0  0  0
  -14.8070   -2.1900  -15.6780 C   0  0  0  0  0  0  0  0  0  0  0  0
  1  2  1  0
  2  4  2  0
  2 10  1  0
  3  7  1  0
  3 11  1  0
  4  6  1  0
  5 11  2  0
  5 12  1  0
  6  8  2  0
  7 12  2  0
  8  9  1  0
  8 11  1  0
  9 10  2  0
A    1
 N  
A    2
 C  
A    3
 O  
A    4
 C1 
A    5
 N1 
A    6
 C2 
A    7
 N2 
A    8
 C3 
A    9
 C4 
A   10
 C5 
A   11
 C6 
A   12
 C7 
M  END
>  <XChem_code>  (89) 
D68EV3CPROA-x1246

>  <Occupancy>  (89) 
[0.69, 0.69, 0.69, 0.69, 0.69, 0.69, 0.69, 0.69, 0.69, 0.69, 0.69, 0.69]

>  <TempFactor>  (89) 
[45.26, 44.93, 49.72, 45.72, 50.84, 48.35, 46.4, 47.87, 46.28, 45.51, 49.57, 49.21]

>  <RealCrystalName>  (89) 
D68EV3CPROA-x1246

>  <smiles>  (89) 
Nc1ccc(cc1)c2ncno2

>  <new_smiles>  (89) 
Nc1ccc(cc1)c2ncno2

>  <alternate_name>  (89) 
Z760031264

>  <site_name>  (89) 
3

>  <pdb_entry>  (89) 
nan

>  <mol>  (89) 
<rdkit.Chem.rdchem.Mol object at 0x164f2b840>

>  <single_smiles>  (89) 
Nc1ccc(-c2ncno2)cc1

>  <base_name>  (89) 
D68EV3CPROA-x1246_0B

>  <lig_resn>  (89) 
LIG

>  <lig_resi>  (89) 
201

>  <lig_chain>  (89) 
B

>  <lig_segi>  (89) 


>  <lig_alt>  (89) 


>  <polymer_chain>  (89) 
B

$$$$
x1064_0B§1
     RDKit          3D

 14 14  0  0  0  0  0  0  0  0999 V2000
   -4.1650   -0.2450  -49.6340 N   0  0  0  0  0  0  0  0  0  0  0  0
   -4.8910    2.0600  -50.9190 C   0  0  0  0  0  0  0  0  0  0  0  0
   -4.1260    1.8890  -48.4390 O   0  0  0  0  0  0  0  0  0  0  0  0
   -4.2190    3.2750  -50.9530 C   0  0  0  0  0  0  0  0  0  0  0  0
   -6.2740    0.8600  -49.0850 O   0  0  0  0  0  0  0  0  0  0  0  0
   -4.2000    4.0100  -52.1270 C   0  0  0  0  0  0  0  0  0  0  0  0
   -6.1500    0.3470  -51.9520 O   0  0  0  0  0  0  0  0  0  0  0  0
   -4.8350    3.5390  -53.2550 C   0  0  0  0  0  0  0  0  0  0  0  0
   -5.4970    2.3210  -53.2350 C   0  0  0  0  0  0  0  0  0  0  0  0
   -5.5370    1.5730  -52.0680 C   0  0  0  0  0  0  0  0  0  0  0  0
   -7.3220    0.0020  -52.5690 C   0  0  2  0  0  0  0  0  0  0  0  0
   -7.0200   -0.9720  -53.4390 F   0  0  0  0  0  0  0  0  0  0  0  0
   -7.8470    0.9580  -53.3570 F   0  0  0  0  0  0  0  0  0  0  0  0
   -4.9050    1.1530  -49.3920 S   0  0  2  0  0  0  0  0  0  0  0  0
 14  1  1  6
  2  4  2  0
  2 10  1  0
  2 14  1  0
  3 14  2  0
  4  6  1  0
  5 14  2  0
  6  8  2  0
  7 10  1  0
  7 11  1  0
  8  9  1  0
  9 10  2  0
 11 12  1  6
 11 13  1  0
A    1
 N  
A    2
 C  
A    3
 O  
A    4
 C1 
A    5
 O1 
A    6
 C2 
A    7
 O2 
A    8
 C3 
A    9
 C4 
A   10
 C5 
A   11
 C6 
A   12
 F  
A   13
 F1 
A   14
 S  
M  END
>  <XChem_code>  (90) 
D68EV3CPROA-x1064

>  <Occupancy>  (90) 
[0.8, 0.8, 0.8, 0.8, 0.8, 0.8, 0.8, 0.8, 0.8, 0.8, 0.8, 0.8, 0.8, 0.8]

>  <TempFactor>  (90) 
[122.94, 124.76, 136.38, 118.93, 130.39, 117.1, 131.59, 118.32, 120.64, 125.14, 132.27, 127.97, 136.09, 131.08]

>  <RealCrystalName>  (90) 
D68EV3CPROA-x1064

>  <smiles>  (90) 
NS(=O)(=O)c1ccccc1OC(F)F

>  <new_smiles>  (90) 
NS(=O)(=O)c1ccccc1OC(F)F

>  <alternate_name>  (90) 
Z385450668

>  <site_name>  (90) 
3

>  <pdb_entry>  (90) 
nan

>  <mol>  (90) 
<rdkit.Chem.rdchem.Mol object at 0x164f2b1b0>

>  <single_smiles>  (90) 
NS(=O)(=O)c1ccccc1OC(F)F

>  <base_name>  (90) 
D68EV3CPROA-x1064_0B

>  <lig_resn>  (90) 
LIG

>  <lig_resi>  (90) 
201

>  <lig_chain>  (90) 
B

>  <lig_segi>  (90) 


>  <lig_alt>  (90) 


>  <polymer_chain>  (90) 
B

$$$$
x1064_0B§2
     RDKit          3D

 14 15  0  0  0  0  0  0  0  0999 V2000
   -2.9430    4.2360  -24.5810 N   0  0  0  0  0  0  0  0  0  0  0  0
   -0.3370    3.7940  -25.2670 C   0  0  2  0  0  0  0  0  0  0  0  0
   -1.4980    6.0990  -25.2140 O   0  0  0  0  0  0  0  0  0  0  0  0
    0.1750    3.0130  -26.2920 C   0  0  0  0  0  0  0  0  0  0  0  0
   -2.2420    4.4530  -26.9110 O   0  0  0  0  0  0  0  0  0  0  0  0
    1.2460    2.1750  -26.0340 C   0  0  0  0  0  0  0  0  0  0  0  0
   -0.3440    4.5600  -23.0420 O   0  0  0  0  0  0  0  0  0  0  0  0
    1.8140    2.1320  -24.7780 C   0  0  0  0  0  0  0  0  0  0  0  0
    1.3230    2.9270  -23.7550 C   0  0  0  0  0  0  0  0  0  0  0  0
    0.2420    3.7640  -23.9910 C   0  0  0  0  0  0  0  0  0  0  0  0
    0.4260    5.3810  -22.3720 C   0  0  1  0  0  0  0  0  0  0  0  0
   -0.0970    6.6000  -22.3530 F   0  0  0  0  0  0  0  0  0  0  0  0
    0.1910    4.6350  -21.3270 F   0  0  0  0  0  0  0  0  0  0  0  0
   -1.7990    4.7440  -25.5760 S   0  0  2  0  0  0  0  0  0  0  0  0
 14  1  1  1
  2  4  1  1
  2 10  1  0
  2 14  1  0
  3 14  1  0
  4  6  1  0
  5 14  1  0
  6  8  1  0
  7 10  1  0
  7 11  1  0
  7 13  1  0
  8  9  1  0
  9 10  1  0
 11 12  1  1
 11 13  1  0
A    1
 N  
A    2
 C  
A    3
 O  
A    4
 C1 
A    5
 O1 
A    6
 C2 
A    7
 O2 
A    8
 C3 
A    9
 C4 
A   10
 C5 
A   11
 C6 
A   12
 F  
A   13
 F1 
A   14
 S  
M  END
>  <XChem_code>  (91) 
D68EV3CPROA-x1064

>  <Occupancy>  (91) 
[0.6, 0.6, 0.6, 0.6, 0.6, 0.6, 0.6, 0.6, 0.6, 0.6, 0.6, 0.6, 0.6, 0.6]

>  <TempFactor>  (91) 
[40.5, 39.08, 44.55, 37.78, 42.75, 37.25, 37.51, 36.67, 35.55, 38.41, 36.35, 40.3, 37.28, 46.25]

>  <RealCrystalName>  (91) 
D68EV3CPROA-x1064

>  <smiles>  (91) 
NS(=O)(=O)c1ccccc1OC(F)F

>  <new_smiles>  (91) 
NS(=O)(=O)c1ccccc1OC(F)F

>  <alternate_name>  (91) 
Z385450668

>  <site_name>  (91) 
3

>  <pdb_entry>  (91) 
nan

>  <mol>  (91) 
<rdkit.Chem.rdchem.Mol object at 0x164f2b1b0>

>  <single_smiles>  (91) 
NS(=O)(=O)c1ccccc1OC(F)F

>  <base_name>  (91) 
D68EV3CPROA-x1064_0B

>  <lig_resn>  (91) 
LIG

>  <lig_resi>  (91) 
301

>  <lig_chain>  (91) 
B

>  <lig_segi>  (91) 


>  <lig_alt>  (91) 


>  <polymer_chain>  (91) 
A

$$$$
x1064_0B§3
     RDKit          3D

 14 15  0  0  0  0  0  0  0  0999 V2000
   -8.3650    0.6420  -13.8810 N   0  0  0  0  0  0  0  0  0  0  0  0
  -10.6210   -0.8990  -13.8770 C   0  0  2  0  0  0  0  0  0  0  0  0
   -9.8930    0.6900  -11.9770 O   0  0  0  0  0  0  0  0  0  0  0  0
  -10.7350   -2.2770  -13.9690 C   0  0  0  0  0  0  0  0  0  0  0  0
   -8.5030   -1.3130  -12.4220 O   0  0  0  0  0  0  0  0  0  0  0  0
  -11.6880   -2.8220  -14.8120 C   0  0  0  0  0  0  0  0  0  0  0  0
  -11.2780    1.2850  -14.4550 O   0  0  0  0  0  0  0  0  0  0  0  0
  -12.5300   -2.0050  -15.5360 C   0  0  0  0  0  0  0  0  0  0  0  0
  -12.4360   -0.6270  -15.4320 C   0  0  0  0  0  0  0  0  0  0  0  0
  -11.4800   -0.0620  -14.6010 C   0  0  0  0  0  0  0  0  0  0  0  0
  -12.3090    2.0270  -14.1360 C   0  0  1  0  0  0  0  0  0  0  0  0
  -12.0090    2.8340  -13.1260 F   0  0  0  0  0  0  0  0  0  0  0  0
  -12.2190    2.5410  -15.3330 F   0  0  0  0  0  0  0  0  0  0  0  0
   -9.2990   -0.2220  -12.9110 S   0  0  2  0  0  0  0  0  0  0  0  0
 14  1  1  6
  2  4  1  6
  2 10  1  0
  2 14  1  0
  3 14  1  0
  4  6  1  0
  5 14  1  0
  6  8  1  0
  7 10  1  0
  7 11  1  0
  7 13  1  0
  8  9  1  0
  9 10  1  0
 11 12  1  1
 11 13  1  0
A    1
 N  
A    2
 C  
A    3
 O  
A    4
 C1 
A    5
 O1 
A    6
 C2 
A    7
 O2 
A    8
 C3 
A    9
 C4 
A   10
 C5 
A   11
 C6 
A   12
 F  
A   13
 F1 
A   14
 S  
M  END
>  <XChem_code>  (92) 
D68EV3CPROA-x1064

>  <Occupancy>  (92) 
[0.6, 0.6, 0.6, 0.6, 0.6, 0.6, 0.6, 0.6, 0.6, 0.6, 0.6, 0.6, 0.6, 0.6]

>  <TempFactor>  (92) 
[40.5, 39.08, 44.55, 37.78, 42.75, 37.25, 37.51, 36.67, 35.55, 38.41, 36.35, 40.3, 37.28, 46.25]

>  <RealCrystalName>  (92) 
D68EV3CPROA-x1064

>  <smiles>  (92) 
NS(=O)(=O)c1ccccc1OC(F)F

>  <new_smiles>  (92) 
NS(=O)(=O)c1ccccc1OC(F)F

>  <alternate_name>  (92) 
Z385450668

>  <site_name>  (92) 
3

>  <pdb_entry>  (92) 
nan

>  <mol>  (92) 
<rdkit.Chem.rdchem.Mol object at 0x164f2b1b0>

>  <single_smiles>  (92) 
NS(=O)(=O)c1ccccc1OC(F)F

>  <base_name>  (92) 
D68EV3CPROA-x1064_0B

>  <lig_resn>  (92) 
LIG

>  <lig_resi>  (92) 
301

>  <lig_chain>  (92) 
B

>  <lig_segi>  (92) 


>  <lig_alt>  (92) 


>  <polymer_chain>  (92) 
B

$$$$
x0188_0B§1
     RDKit          3D

 16 17  0  0  0  0  0  0  0  0999 V2000
   -6.1770   -0.7420  -54.3010 N   0  0  0  0  0  0  0  0  0  0  0  0
   -4.8790   -2.0160  -52.7180 C   0  0  0  0  0  0  0  0  0  0  0  0
   -6.9970   -2.7080  -53.5950 O   0  0  0  0  0  0  0  0  0  0  0  0
   -6.1080   -1.8560  -53.5670 C   0  0  0  0  0  0  0  0  0  0  0  0
   -9.1490    0.6770  -51.2630 N   0  0  0  0  0  0  0  0  0  0  0  0
   -5.4420    0.4790  -53.9730 C   0  0  0  0  0  0  0  0  0  0  0  0
   -6.3590    1.6030  -53.5130 C   0  0  0  0  0  0  0  0  0  0  0  0
   -7.2900    1.1970  -52.4060 C   0  0  0  0  0  0  0  0  0  0  0  0
   -8.6450    1.0520  -52.4790 C   0  0  0  0  0  0  0  0  0  0  0  0
   -8.1160    0.5630  -50.3670 C   0  0  0  0  0  0  0  0  0  0  0  0
   -8.1180    0.1770  -49.0330 C   0  0  0  0  0  0  0  0  0  0  0  0
   -6.9080    0.1050  -48.3610 C   0  0  0  0  0  0  0  0  0  0  0  0
   -5.7530    0.4270  -49.0410 C   0  0  0  0  0  0  0  0  0  0  0  0
   -5.7170    0.8250  -50.3610 C   0  0  0  0  0  0  0  0  0  0  0  0
   -6.9270    0.8870  -51.0470 C   0  0  0  0  0  0  0  0  0  0  0  0
   -4.5750    0.3360  -48.3720 F   0  0  0  0  0  0  0  0  0  0  0  0
  1  4  1  0
  1  6  1  0
  2  4  1  0
  3  4  2  0
  5  9  1  0
  5 10  1  0
  6  7  1  0
  7  8  1  0
  8  9  2  0
  8 15  1  0
 10 11  2  0
 10 15  1  0
 11 12  1  0
 12 13  2  0
 13 16  1  0
 13 14  1  0
 14 15  2  0
A    1
 N  
A    2
 C  
A    3
 O  
A    4
 C1 
A    5
 N1 
A    6
 C2 
A    7
 C3 
A    8
 C4 
A    9
 C5 
A   10
 C6 
A   11
 C7 
A   12
 C8 
A   13
 C9 
A   14
 C10
A   15
 C11
A   16
 F  
M  END
>  <XChem_code>  (93) 
D68EV3CPROA-x0188

>  <Occupancy>  (93) 
[0.7, 0.7, 0.7, 0.7, 0.7, 0.7, 0.7, 0.7, 0.7, 0.7, 0.7, 0.7, 0.7, 0.7, 0.7, 0.7]

>  <TempFactor>  (93) 
[43.29, 44.29, 42.29, 44.25, 40.55, 41.75, 41.15, 41.0, 41.66, 40.64, 39.68, 40.87, 41.32, 40.83, 40.49, 38.41]

>  <RealCrystalName>  (93) 
D68EV3CPROA-x0188

>  <smiles>  (93) 
CC(=O)NCCc1c[nH]c2ccc(F)cc12

>  <new_smiles>  (93) 
CC(=O)NCCc1c[nH]c2ccc(F)cc12

>  <alternate_name>  (93) 
Z1220452176

>  <site_name>  (93) 
2

>  <pdb_entry>  (93) 
nan

>  <mol>  (93) 
<rdkit.Chem.rdchem.Mol object at 0x162e33ed0>

>  <single_smiles>  (93) 
CC(=O)NCCc1c[nH]c2ccc(F)cc12

>  <base_name>  (93) 
D68EV3CPROA-x0188_0B

>  <lig_resn>  (93) 
LIG

>  <lig_resi>  (93) 
201

>  <lig_chain>  (93) 
B

>  <lig_segi>  (93) 


>  <lig_alt>  (93) 


>  <polymer_chain>  (93) 
B

$$$$
x0988_0A§1
     RDKit          3D

 14 15  0  0  0  0  0  0  0  0999 V2000
  -21.8040  -15.1370  -19.9720 N   0  0  0  0  0  0  0  0  0  0  0  0
  -21.4300  -16.5580  -20.0610 C   0  0  0  0  0  0  0  0  0  0  0  0
  -22.9520  -12.7740  -24.3120 O   0  0  0  0  0  0  0  0  0  0  0  0
  -20.7550  -14.2830  -20.5330 C   0  0  0  0  0  0  0  0  0  0  0  0
  -22.1080  -13.3930  -22.3360 N   0  0  0  0  0  0  0  0  0  0  0  0
  -21.2480  -10.4020  -23.2670 O   0  0  0  0  0  0  0  0  0  0  0  0
  -21.3460  -13.0360  -21.1400 C   0  0  0  0  0  0  0  0  0  0  0  0
  -22.8610  -14.6360  -22.1420 C   0  0  0  0  0  0  0  0  0  0  0  0
  -23.0760  -14.8880  -20.6540 C   0  0  0  0  0  0  0  0  0  0  0  0
  -22.0800  -12.6750  -23.4690 C   0  0  0  0  0  0  0  0  0  0  0  0
  -20.8970  -11.7290  -23.6740 C   0  0  1  0  0  0  0  0  0  0  0  0
  -20.4580  -11.6730  -25.0920 C   0  0  0  0  0  0  0  0  0  0  0  0
  -20.7190  -10.2480  -25.5300 C   0  0  0  0  0  0  0  0  0  0  0  0
  -20.7160   -9.5070  -24.2500 C   0  0  0  0  0  0  0  0  0  0  0  0
  1  2  1  0
  1  4  1  0
  1  9  1  0
  3 10  2  0
  4  7  1  0
  5  7  1  0
  5  8  1  0
  5 10  1  0
  6 11  1  0
  6 14  1  0
  8  9  1  0
 11 10  1  6
 11 12  1  0
 12 13  1  0
 13 14  1  0
A    1
 N  
A    2
 C  
A    3
 O  
A    4
 C1 
A    5
 N1 
A    6
 O1 
A    7
 C2 
A    8
 C3 
A    9
 C4 
A   10
 C5 
A   11
 C6 
A   12
 C7 
A   13
 C8 
A   14
 C9 
M  END
>  <XChem_code>  (94) 
D68EV3CPROA-x0988

>  <Occupancy>  (94) 
[0.74, 0.74, 0.74, 0.74, 0.74, 0.74, 0.74, 0.74, 0.74, 0.74, 0.74, 0.74, 0.74, 0.74]

>  <TempFactor>  (94) 
[84.22, 83.92, 58.48, 80.64, 73.07, 52.68, 75.34, 79.34, 83.58, 62.93, 54.65, 53.31, 51.28, 53.22]

>  <RealCrystalName>  (94) 
D68EV3CPROA-x0988

>  <smiles>  (94) 
CN1CCN(CC1)C(=O)C2CCCO2

>  <new_smiles>  (94) 
CN1CCN(CC1)C(=O)C2CCCO2

>  <alternate_name>  (94) 
Z31432964

>  <site_name>  (94) 
5

>  <pdb_entry>  (94) 
nan

>  <mol>  (94) 
<rdkit.Chem.rdchem.Mol object at 0x164f2af80>

>  <single_smiles>  (94) 
CN1CCN(C(=O)C2CCCO2)CC1

>  <base_name>  (94) 
D68EV3CPROA-x0988_0A

>  <lig_resn>  (94) 
LIG

>  <lig_resi>  (94) 
201

>  <lig_chain>  (94) 
A

>  <lig_segi>  (94) 


>  <lig_alt>  (94) 


>  <polymer_chain>  (94) 
A

$$$$
x0176_0A§1
     RDKit          3D

 11 12  0  0  0  0  0  0  0  0999 V2000
    2.3050    0.1520  -29.3670 N   0  0  0  0  0  0  0  0  0  0  0  0
    1.4190   -0.9490  -29.4440 C   0  0  0  0  0  0  0  0  0  0  0  0
    0.6260   -1.2210  -28.2080 C   0  0  0  0  0  0  0  0  0  0  0  0
   -0.8040   -2.0670  -25.9750 N   0  0  0  0  0  0  0  0  0  0  0  0
   -0.2990   -2.3360  -28.2660 C   0  0  0  0  0  0  0  0  0  0  0  0
    0.0140   -0.4680  -24.6460 N   0  0  0  0  0  0  0  0  0  0  0  0
   -0.9700   -2.7200  -27.1750 C   0  0  0  0  0  0  0  0  0  0  0  0
   -1.3710   -2.2490  -24.7340 C   0  0  0  0  0  0  0  0  0  0  0  0
   -0.8650   -1.2710  -23.9480 C   0  0  0  0  0  0  0  0  0  0  0  0
    0.0530   -0.9720  -25.8750 C   0  0  0  0  0  0  0  0  0  0  0  0
    0.7750   -0.5550  -27.0320 C   0  0  0  0  0  0  0  0  0  0  0  0
  1  2  1  0
  2  3  1  0
  3  5  1  0
  3 11  2  0
  4  7  1  0
  4  8  1  0
  4 10  1  0
  5  7  2  0
  6  9  1  0
  6 10  2  0
  8  9  2  0
 10 11  1  0
A    1
 N  
A    2
 C  
A    3
 C1 
A    4
 N1 
A    5
 C2 
A    6
 N2 
A    7
 C3 
A    8
 C4 
A    9
 C5 
A   10
 C6 
A   11
 C7 
M  END
>  <XChem_code>  (95) 
D68EV3CPROA-x0176

>  <Occupancy>  (95) 
[0.63, 0.63, 0.63, 0.63, 0.63, 0.63, 0.63, 0.63, 0.63, 0.63, 0.63]

>  <TempFactor>  (95) 
[22.07, 22.83, 21.04, 21.98, 20.8, 21.72, 21.61, 20.49, 21.0, 20.88, 20.64]

>  <RealCrystalName>  (95) 
D68EV3CPROA-x0176

>  <smiles>  (95) 
NCc1ccn2ccnc2c1

>  <new_smiles>  (95) 
NCc1ccn2ccnc2c1

>  <alternate_name>  (95) 
Z1203586731

>  <site_name>  (95) 
3

>  <pdb_entry>  (95) 
nan

>  <mol>  (95) 
<rdkit.Chem.rdchem.Mol object at 0x16324c430>

>  <single_smiles>  (95) 
NCc1ccn2ccnc2c1

>  <base_name>  (95) 
D68EV3CPROA-x0176_0A

>  <lig_resn>  (95) 
LIG

>  <lig_resi>  (95) 
201

>  <lig_chain>  (95) 
A

>  <lig_segi>  (95) 


>  <lig_alt>  (95) 


>  <polymer_chain>  (95) 
A

$$$$
x0176_0A§2
     RDKit          3D

 11 12  0  0  0  0  0  0  0  0999 V2000
  -10.9320   -6.7860  -14.4020 N   0  0  0  0  0  0  0  0  0  0  0  0
   -9.9150   -7.1640  -15.3110 C   0  0  0  0  0  0  0  0  0  0  0  0
   -9.4510   -6.0870  -16.2360 C   0  0  0  0  0  0  0  0  0  0  0  0
   -8.5660   -4.3310  -18.2060 N   0  0  0  0  0  0  0  0  0  0  0  0
   -8.3980   -6.4460  -17.1680 C   0  0  0  0  0  0  0  0  0  0  0  0
   -9.9210   -2.6760  -17.5640 N   0  0  0  0  0  0  0  0  0  0  0  0
   -7.9970   -5.5810  -18.1050 C   0  0  0  0  0  0  0  0  0  0  0  0
   -8.3310   -3.2710  -19.0520 C   0  0  0  0  0  0  0  0  0  0  0  0
   -9.1580   -2.2810  -18.6450 C   0  0  0  0  0  0  0  0  0  0  0  0
   -9.5610   -3.9290  -17.3160 C   0  0  0  0  0  0  0  0  0  0  0  0
   -9.9990   -4.8460  -16.3140 C   0  0  0  0  0  0  0  0  0  0  0  0
  1  2  1  0
  2  3  1  0
  3  5  1  0
  3 11  2  0
  4  7  1  0
  4  8  1  0
  4 10  1  0
  5  7  2  0
  6  9  1  0
  6 10  2  0
  8  9  2  0
 10 11  1  0
A    1
 N  
A    2
 C  
A    3
 C1 
A    4
 N1 
A    5
 C2 
A    6
 N2 
A    7
 C3 
A    8
 C4 
A    9
 C5 
A   10
 C6 
A   11
 C7 
M  END
>  <XChem_code>  (96) 
D68EV3CPROA-x0176

>  <Occupancy>  (96) 
[0.63, 0.63, 0.63, 0.63, 0.63, 0.63, 0.63, 0.63, 0.63, 0.63, 0.63]

>  <TempFactor>  (96) 
[22.07, 22.83, 21.04, 21.98, 20.8, 21.72, 21.61, 20.49, 21.0, 20.88, 20.64]

>  <RealCrystalName>  (96) 
D68EV3CPROA-x0176

>  <smiles>  (96) 
NCc1ccn2ccnc2c1

>  <new_smiles>  (96) 
NCc1ccn2ccnc2c1

>  <alternate_name>  (96) 
Z1203586731

>  <site_name>  (96) 
3

>  <pdb_entry>  (96) 
nan

>  <mol>  (96) 
<rdkit.Chem.rdchem.Mol object at 0x16324c430>

>  <single_smiles>  (96) 
NCc1ccn2ccnc2c1

>  <base_name>  (96) 
D68EV3CPROA-x0176_0A

>  <lig_resn>  (96) 
LIG

>  <lig_resi>  (96) 
201

>  <lig_chain>  (96) 
A

>  <lig_segi>  (96) 


>  <lig_alt>  (96) 


>  <polymer_chain>  (96) 
B

$$$$
x1583_0A§1
     RDKit          3D

 14 15  0  0  0  0  0  0  0  0999 V2000
    1.5530    3.1290  -23.9850 N   0  0  0  0  0  0  0  0  0  0  0  0
    4.2790    1.7670  -26.1750 C   0  0  0  0  0  0  0  0  0  0  0  0
    4.1350    1.3710  -27.4440 O   0  0  0  0  0  0  0  0  0  0  0  0
    3.1040    2.4050  -25.5590 C   0  0  0  0  0  0  0  0  0  0  0  0
    5.3220    1.6260  -25.5250 O   0  0  0  0  0  0  0  0  0  0  0  0
    2.7490    2.5050  -24.2570 C   0  0  0  0  0  0  0  0  0  0  0  0
    0.9690    3.5120  -25.0910 C   0  0  0  0  0  0  0  0  0  0  0  0
   -0.3630    4.1360  -25.1440 C   0  0  0  0  0  0  0  0  0  0  0  0
   -0.6950    5.1640  -24.2690 C   0  0  0  0  0  0  0  0  0  0  0  0
   -1.9340    5.7860  -24.3520 C   0  0  0  0  0  0  0  0  0  0  0  0
   -2.8460    5.3930  -25.3040 C   0  0  0  0  0  0  0  0  0  0  0  0
   -2.5300    4.3710  -26.1770 C   0  0  0  0  0  0  0  0  0  0  0  0
   -1.2960    3.7390  -26.0960 C   0  0  0  0  0  0  0  0  0  0  0  0
    1.8730    3.1580  -26.5300 S   0  0  0  0  0  0  0  0  0  0  0  0
  1  6  1  0
  1  7  2  0
  2  3  2  0
  2  4  1  0
  2  5  1  0
  4  6  2  0
  4 14  1  0
  7  8  1  0
  7 14  1  0
  8  9  2  0
  8 13  1  0
  9 10  1  0
 10 11  2  0
 11 12  1  0
 12 13  2  0
A    1
 N  
A    2
 C  
A    3
 O  
A    4
 C1 
A    5
 O1 
A    6
 C2 
A    7
 C3 
A    8
 C4 
A    9
 C5 
A   10
 C6 
A   11
 C7 
A   12
 C8 
A   13
 C9 
A   14
 S  
M  END
>  <XChem_code>  (97) 
D68EV3CPROA-x1583

>  <Occupancy>  (97) 
[0.72, 0.72, 0.72, 0.72, 0.72, 0.72, 0.72, 0.72, 0.72, 0.72, 0.72, 0.72, 0.72, 0.72]

>  <TempFactor>  (97) 
[36.69, 42.14, 41.39, 38.57, 39.42, 38.04, 37.86, 36.39, 36.98, 37.92, 34.59, 35.99, 36.48, 38.22]

>  <RealCrystalName>  (97) 
D68EV3CPROA-x1583

>  <smiles>  (97) 
OC(=O)C1=CN=C(S1)C=2C=CC=CC2

>  <new_smiles>  (97) 
OC(=O)C1=CN=C(S1)C=2C=CC=CC2

>  <alternate_name>  (97) 
Z315923746

>  <site_name>  (97) 
3

>  <pdb_entry>  (97) 
nan

>  <mol>  (97) 
<rdkit.Chem.rdchem.Mol object at 0x165034970>

>  <single_smiles>  (97) 
O=C(O)c1cnc(-c2ccccc2)s1

>  <base_name>  (97) 
D68EV3CPROA-x1583_0A

>  <lig_resn>  (97) 
LIG

>  <lig_resi>  (97) 
201

>  <lig_chain>  (97) 
A

>  <lig_segi>  (97) 


>  <lig_alt>  (97) 


>  <polymer_chain>  (97) 
A

$$$$
x1583_0A§2
     RDKit          3D

 14 15  0  0  0  0  0  0  0  0999 V2000
  -12.4180   -0.5290  -15.0890 N   0  0  0  0  0  0  0  0  0  0  0  0
  -14.3100   -3.7670  -14.9850 C   0  0  0  0  0  0  0  0  0  0  0  0
  -13.8110   -4.9510  -14.6140 O   0  0  0  0  0  0  0  0  0  0  0  0
  -13.4240   -2.6060  -14.8060 C   0  0  0  0  0  0  0  0  0  0  0  0
  -15.4460   -3.6170  -15.4520 O   0  0  0  0  0  0  0  0  0  0  0  0
  -13.4090   -1.4140  -15.4460 C   0  0  0  0  0  0  0  0  0  0  0  0
  -11.6500   -1.0430  -14.1630 C   0  0  0  0  0  0  0  0  0  0  0  0
  -10.4510   -0.3790  -13.6280 C   0  0  0  0  0  0  0  0  0  0  0  0
  -10.4920    0.9610  -13.2590 C   0  0  0  0  0  0  0  0  0  0  0  0
   -9.3750    1.5740  -12.7070 C   0  0  0  0  0  0  0  0  0  0  0  0
   -8.2140    0.8600  -12.5170 C   0  0  0  0  0  0  0  0  0  0  0  0
   -8.1580   -0.4700  -12.8830 C   0  0  0  0  0  0  0  0  0  0  0  0
   -9.2690   -1.0890  -13.4420 C   0  0  0  0  0  0  0  0  0  0  0  0
  -12.1210   -2.6340  -13.6530 S   0  0  0  0  0  0  0  0  0  0  0  0
  1  6  1  0
  1  7  2  0
  2  3  2  0
  2  4  1  0
  2  5  1  0
  4  6  2  0
  4 14  1  0
  7  8  1  0
  7 14  1  0
  8  9  2  0
  8 13  1  0
  9 10  1  0
 10 11  2  0
 11 12  1  0
 12 13  2  0
A    1
 N  
A    2
 C  
A    3
 O  
A    4
 C1 
A    5
 O1 
A    6
 C2 
A    7
 C3 
A    8
 C4 
A    9
 C5 
A   10
 C6 
A   11
 C7 
A   12
 C8 
A   13
 C9 
A   14
 S  
M  END
>  <XChem_code>  (98) 
D68EV3CPROA-x1583

>  <Occupancy>  (98) 
[0.72, 0.72, 0.72, 0.72, 0.72, 0.72, 0.72, 0.72, 0.72, 0.72, 0.72, 0.72, 0.72, 0.72]

>  <TempFactor>  (98) 
[36.69, 42.14, 41.39, 38.57, 39.42, 38.04, 37.86, 36.39, 36.98, 37.92, 34.59, 35.99, 36.48, 38.22]

>  <RealCrystalName>  (98) 
D68EV3CPROA-x1583

>  <smiles>  (98) 
OC(=O)C1=CN=C(S1)C=2C=CC=CC2

>  <new_smiles>  (98) 
OC(=O)C1=CN=C(S1)C=2C=CC=CC2

>  <alternate_name>  (98) 
Z315923746

>  <site_name>  (98) 
3

>  <pdb_entry>  (98) 
nan

>  <mol>  (98) 
<rdkit.Chem.rdchem.Mol object at 0x165034970>

>  <single_smiles>  (98) 
O=C(O)c1cnc(-c2ccccc2)s1

>  <base_name>  (98) 
D68EV3CPROA-x1583_0A

>  <lig_resn>  (98) 
LIG

>  <lig_resi>  (98) 
201

>  <lig_chain>  (98) 
A

>  <lig_segi>  (98) 


>  <lig_alt>  (98) 


>  <polymer_chain>  (98) 
B

$$$$
x0832_0B§1
     RDKit          3D

 14 14  0  0  0  0  0  0  0  0999 V2000
    1.7990    2.5500  -24.9350 N   0  0  0  0  0  0  0  0  0  0  0  0
    1.2250    2.3120  -26.2530 C   0  0  0  0  0  0  0  0  0  0  0  0
    4.0090    4.1590  -25.3220 O   0  0  0  0  0  0  0  0  0  0  0  0
    3.1320    2.0120  -24.6940 C   0  0  0  0  0  0  0  0  0  0  0  0
    5.4250    2.6980  -24.3560 N   0  0  0  0  0  0  0  0  0  0  0  0
    4.2340    3.0550  -24.8130 C   0  0  0  0  0  0  0  0  0  0  0  0
    0.6410    4.4280  -21.8440 N   0  0  0  0  0  0  0  0  0  0  0  0
    1.1440    3.2710  -23.9740 C   0  0  0  0  0  0  0  0  0  0  0  0
   -1.5260    4.1420  -26.1460 N   0  0  0  0  0  0  0  0  0  0  0  0
   -0.2430    4.6610  -22.7870 C   0  0  0  0  0  0  0  0  0  0  0  0
   -1.3510    5.5680  -22.3650 C   0  0  0  0  0  0  0  0  0  0  0  0
   -0.0290    4.0190  -24.0570 C   0  0  0  0  0  0  0  0  0  0  0  0
   -0.8810    4.1060  -25.2010 C   0  0  0  0  0  0  0  0  0  0  0  0
    1.8150    3.4110  -22.3980 S   0  0  0  0  0  0  0  0  0  0  0  0
  1  2  1  0
  1  4  1  0
  1  8  1  0
  3  6  2  0
  4  6  1  0
  5  6  1  0
  7 14  1  0
  7 10  2  0
  8 12  2  0
  8 14  1  0
  9 13  3  0
 10 11  1  0
 10 12  1  0
 12 13  1  0
A    1
 N  
A    2
 C  
A    3
 O  
A    4
 C1 
A    5
 N1 
A    6
 C2 
A    7
 N2 
A    8
 C3 
A    9
 N3 
A   10
 C4 
A   11
 C5 
A   12
 C6 
A   13
 C7 
A   14
 S  
M  END
>  <XChem_code>  (99) 
D68EV3CPROA-x0832

>  <Occupancy>  (99) 
[0.53, 0.53, 0.53, 0.53, 0.53, 0.53, 0.53, 0.53, 0.53, 0.53, 0.53, 0.53, 0.53, 0.53]

>  <TempFactor>  (99) 
[40.05, 40.35, 38.53, 38.55, 38.92, 39.0, 40.43, 40.67, 47.03, 42.7, 41.86, 42.73, 45.92, 42.41]

>  <RealCrystalName>  (99) 
D68EV3CPROA-x0832

>  <smiles>  (99) 
CN(CC(=O)N)c1snc(C)c1C#N

>  <new_smiles>  (99) 
CN(CC(=O)N)c1snc(C)c1C#N

>  <alternate_name>  (99) 
Z2033637875

>  <site_name>  (99) 
3

>  <pdb_entry>  (99) 
nan

>  <mol>  (99) 
<rdkit.Chem.rdchem.Mol object at 0x162e322d0>

>  <single_smiles>  (99) 
Cc1nsc(N(C)CC(N)=O)c1C#N

>  <base_name>  (99) 
D68EV3CPROA-x0832_0B

>  <lig_resn>  (99) 
LIG

>  <lig_resi>  (99) 
201

>  <lig_chain>  (99) 
B

>  <lig_segi>  (99) 


>  <lig_alt>  (99) 


>  <polymer_chain>  (99) 
A

$$$$
x0832_0B§2
     RDKit          3D

 14 14  0  0  0  0  0  0  0  0999 V2000
  -12.4760   -2.2750  -15.1000 N   0  0  0  0  0  0  0  0  0  0  0  0
  -11.5560   -3.3010  -14.6220 C   0  0  0  0  0  0  0  0  0  0  0  0
  -14.7460   -2.4740  -13.5410 O   0  0  0  0  0  0  0  0  0  0  0  0
  -13.7200   -2.7380  -15.6990 C   0  0  0  0  0  0  0  0  0  0  0  0
  -16.1050   -2.8150  -15.3060 N   0  0  0  0  0  0  0  0  0  0  0  0
  -14.9110   -2.6590  -14.7530 C   0  0  0  0  0  0  0  0  0  0  0  0
  -12.4550    1.5220  -15.0560 N   0  0  0  0  0  0  0  0  0  0  0  0
  -12.2100   -0.9400  -14.9650 C   0  0  0  0  0  0  0  0  0  0  0  0
   -9.2550   -1.4990  -13.0770 N   0  0  0  0  0  0  0  0  0  0  0  0
  -11.4120    1.1260  -14.3640 C   0  0  0  0  0  0  0  0  0  0  0  0
  -10.6080    2.2450  -13.7890 C   0  0  0  0  0  0  0  0  0  0  0  0
  -11.1910   -0.2930  -14.2680 C   0  0  0  0  0  0  0  0  0  0  0  0
  -10.1030   -0.9340  -13.5990 C   0  0  0  0  0  0  0  0  0  0  0  0
  -13.2710    0.2210  -15.6590 S   0  0  0  0  0  0  0  0  0  0  0  0
  1  2  1  0
  1  4  1  0
  1  8  1  0
  3  6  2  0
  4  6  1  0
  5  6  1  0
  7 14  1  0
  7 10  2  0
  8 12  2  0
  8 14  1  0
  9 13  3  0
 10 11  1  0
 10 12  1  0
 12 13  1  0
A    1
 N  
A    2
 C  
A    3
 O  
A    4
 C1 
A    5
 N1 
A    6
 C2 
A    7
 N2 
A    8
 C3 
A    9
 N3 
A   10
 C4 
A   11
 C5 
A   12
 C6 
A   13
 C7 
A   14
 S  
M  END
>  <XChem_code>  (100) 
D68EV3CPROA-x0832

>  <Occupancy>  (100) 
[0.53, 0.53, 0.53, 0.53, 0.53, 0.53, 0.53, 0.53, 0.53, 0.53, 0.53, 0.53, 0.53, 0.53]

>  <TempFactor>  (100) 
[40.05, 40.35, 38.53, 38.55, 38.92, 39.0, 40.43, 40.67, 47.03, 42.7, 41.86, 42.73, 45.92, 42.41]

>  <RealCrystalName>  (100) 
D68EV3CPROA-x0832

>  <smiles>  (100) 
CN(CC(=O)N)c1snc(C)c1C#N

>  <new_smiles>  (100) 
CN(CC(=O)N)c1snc(C)c1C#N

>  <alternate_name>  (100) 
Z2033637875

>  <site_name>  (100) 
3

>  <pdb_entry>  (100) 
nan

>  <mol>  (100) 
<rdkit.Chem.rdchem.Mol object at 0x162e322d0>

>  <single_smiles>  (100) 
Cc1nsc(N(C)CC(N)=O)c1C#N

>  <base_name>  (100) 
D68EV3CPROA-x0832_0B

>  <lig_resn>  (100) 
LIG

>  <lig_resi>  (100) 
201

>  <lig_chain>  (100) 
B

>  <lig_segi>  (100) 


>  <lig_alt>  (100) 


>  <polymer_chain>  (100) 
B

$$$$
x1564_0A§1
     RDKit          3D

 14 14  0  0  0  0  0  0  0  0999 V2000
  -14.7650   20.8840  -44.0330 N   0  0  0  0  0  0  0  0  0  0  0  0
  -12.7150   19.1580  -43.6820 C   0  0  0  0  0  0  0  0  0  0  0  0
  -12.4300   21.7610  -43.8040 O   0  0  0  0  0  0  0  0  0  0  0  0
  -15.8890   20.2020  -43.4760 C   0  0  0  0  0  0  0  0  0  0  0  0
  -13.6840   20.7930  -41.9090 O   0  0  0  0  0  0  0  0  0  0  0  0
  -16.0170   18.8350  -43.6890 C   0  0  0  0  0  0  0  0  0  0  0  0
  -20.0850   18.5620  -41.1860 O   0  0  0  0  0  0  0  0  0  0  0  0
  -17.0910   18.1440  -43.1580 C   0  0  0  0  0  0  0  0  0  0  0  0
  -19.1140   16.7340  -42.0190 O   0  0  0  0  0  0  0  0  0  0  0  0
  -18.0670   18.7970  -42.4130 C   0  0  0  0  0  0  0  0  0  0  0  0
  -17.9310   20.1680  -42.1940 C   0  0  0  0  0  0  0  0  0  0  0  0
  -16.8530   20.8650  -42.7180 C   0  0  0  0  0  0  0  0  0  0  0  0
  -19.1870   18.0220  -41.8120 C   0  0  0  0  0  0  0  0  0  0  0  0
  -13.3220   20.7580  -43.2960 S   0  0  1  0  0  0  0  0  0  0  0  0
  1  4  1  0
  1 14  1  0
 14  2  1  1
  3 14  2  0
  4  6  2  0
  4 12  1  0
  5 14  2  0
  6  8  1  0
  7 13  2  0
  8 10  2  0
  9 13  1  0
 10 11  1  0
 10 13  1  0
 11 12  2  0
A    1
 N  
A    2
 C  
A    3
 O  
A    4
 C1 
A    5
 O1 
A    6
 C2 
A    7
 O2 
A    8
 C3 
A    9
 O3 
A   10
 C4 
A   11
 C5 
A   12
 C6 
A   13
 C7 
A   14
 S  
M  END
>  <XChem_code>  (101) 
D68EV3CPROA-x1564

>  <Occupancy>  (101) 
[0.64, 0.64, 0.64, 0.64, 0.64, 0.64, 0.64, 0.64, 0.64, 0.64, 0.64, 0.64, 0.64, 0.64]

>  <TempFactor>  (101) 
[24.82, 26.32, 21.16, 25.3, 29.24, 25.39, 19.57, 24.66, 19.67, 22.64, 24.26, 24.72, 20.86, 26.52]

>  <RealCrystalName>  (101) 
D68EV3CPROA-x1564

>  <smiles>  (101) 
CS(=O)(=O)NC=1C=CC(=CC1)C(=O)O

>  <new_smiles>  (101) 
CS(=O)(=O)NC=1C=CC(=CC1)C(=O)O

>  <alternate_name>  (101) 
Z45636695

>  <site_name>  (101) 
5

>  <pdb_entry>  (101) 
nan

>  <mol>  (101) 
<rdkit.Chem.rdchem.Mol object at 0x165034740>

>  <single_smiles>  (101) 
CS(=O)(=O)Nc1ccc(C(=O)O)cc1

>  <base_name>  (101) 
D68EV3CPROA-x1564_0A

>  <lig_resn>  (101) 
LIG

>  <lig_resi>  (101) 
201

>  <lig_chain>  (101) 
A

>  <lig_segi>  (101) 


>  <lig_alt>  (101) 


>  <polymer_chain>  (101) 
A

$$$$
x0878_1A§1
     RDKit          3D

 14 14  0  0  0  0  0  0  0  0999 V2000
  -22.7350   23.3970  -36.9320 N   0  0  0  0  0  0  0  0  0  0  0  0
  -21.0700   21.7130  -39.9840 C   0  0  0  0  0  0  0  0  0  0  0  0
  -22.0780   22.4960  -39.3470 O   0  0  0  0  0  0  0  0  0  0  0  0
  -21.8020   23.8170  -39.1340 C   0  0  0  0  0  0  0  0  0  0  0  0
  -24.3050   23.1560  -33.5650 N   0  0  0  0  0  0  0  0  0  0  0  0
  -24.2340   24.7270  -35.8300 O   0  0  0  0  0  0  0  0  0  0  0  0
  -21.2130   24.6560  -40.0650 C   0  0  0  0  0  0  0  0  0  0  0  0
  -20.8870   25.9510  -39.7020 C   0  0  0  0  0  0  0  0  0  0  0  0
  -21.1430   26.4370  -38.4250 C   0  0  0  0  0  0  0  0  0  0  0  0
  -20.7550   27.8440  -38.0430 C   0  0  0  0  0  0  0  0  0  0  0  0
  -21.7550   25.5960  -37.5050 C   0  0  0  0  0  0  0  0  0  0  0  0
  -22.0950   24.2870  -37.8390 C   0  0  0  0  0  0  0  0  0  0  0  0
  -23.5200   23.7270  -35.8740 C   0  0  0  0  0  0  0  0  0  0  0  0
  -23.4670   22.7330  -34.6800 C   0  0  0  0  0  0  0  0  0  0  0  0
  1 12  1  0
  1 13  1  0
  2  3  1  0
  3  4  1  0
  4  7  2  0
  4 12  1  0
  5 14  1  0
  6 13  2  0
  7  8  1  0
  8  9  2  0
  9 10  1  0
  9 11  1  0
 11 12  2  0
 13 14  1  0
A    1
 N  
A    2
 C  
A    3
 O  
A    4
 C1 
A    5
 N1 
A    6
 O1 
A    7
 C2 
A    8
 C3 
A    9
 C4 
A   10
 C5 
A   11
 C6 
A   12
 C7 
A   13
 C8 
A   14
 C9 
M  END
>  <XChem_code>  (102) 
D68EV3CPROA-x0878

>  <Occupancy>  (102) 
[0.78, 0.78, 0.78, 0.78, 0.78, 0.78, 0.78, 0.78, 0.78, 0.78, 0.78, 0.78, 0.78, 0.78]

>  <TempFactor>  (102) 
[119.37, 115.44, 119.26, 121.03, 92.71, 121.17, 119.56, 119.23, 118.93, 119.35, 120.02, 122.36, 110.74, 99.78]

>  <RealCrystalName>  (102) 
D68EV3CPROA-x0878

>  <smiles>  (102) 
Cl.COc1ccc(C)cc1NC(=O)CN

>  <new_smiles>  (102) 
Cl.COc1ccc(C)cc1NC(=O)CN

>  <alternate_name>  (102) 
Z235341991

>  <site_name>  (102) 
4

>  <pdb_entry>  (102) 
nan

>  <mol>  (102) 
<rdkit.Chem.rdchem.Mol object at 0x164f2aa40>

>  <single_smiles>  (102) 
COc1ccc(C)cc1NC(=O)CN

>  <base_name>  (102) 
D68EV3CPROA-x0878_1A

>  <lig_resn>  (102) 
LIG

>  <lig_resi>  (102) 
301

>  <lig_chain>  (102) 
A

>  <lig_segi>  (102) 


>  <lig_alt>  (102) 


>  <polymer_chain>  (102) 
A

$$$$
x0878_1A§2
     RDKit          3D

 14 14  0  0  0  0  0  0  0  0999 V2000
  -22.3990    3.6710  -50.6530 N   0  0  0  0  0  0  0  0  0  0  0  0
  -18.5000    4.0340  -50.1420 C   0  0  0  0  0  0  0  0  0  0  0  0
  -19.7930    4.0940  -50.7330 O   0  0  0  0  0  0  0  0  0  0  0  0
  -20.2250    3.0040  -51.4370 C   0  0  0  0  0  0  0  0  0  0  0  0
  -24.6430    6.1030  -52.2170 N   0  0  0  0  0  0  0  0  0  0  0  0
  -22.5350    5.9360  -50.4700 O   0  0  0  0  0  0  0  0  0  0  0  0
  -19.4030    2.1410  -52.1310 C   0  0  0  0  0  0  0  0  0  0  0  0
  -19.9640    1.1580  -52.9270 C   0  0  0  0  0  0  0  0  0  0  0  0
  -21.3430    1.0230  -53.0530 C   0  0  0  0  0  0  0  0  0  0  0  0
  -21.9350   -0.0020  -53.9890 C   0  0  0  0  0  0  0  0  0  0  0  0
  -22.1620    1.8780  -52.3280 C   0  0  0  0  0  0  0  0  0  0  0  0
  -21.6190    2.8600  -51.5050 C   0  0  0  0  0  0  0  0  0  0  0  0
  -22.9650    4.8660  -50.9050 C   0  0  0  0  0  0  0  0  0  0  0  0
  -24.2170    4.7820  -51.7940 C   0  0  0  0  0  0  0  0  0  0  0  0
  1 12  1  0
  1 13  1  0
  2  3  1  0
  3  4  1  0
  4  7  2  0
  4 12  1  0
  5 14  1  0
  6 13  2  0
  7  8  1  0
  8  9  2  0
  9 10  1  0
  9 11  1  0
 11 12  2  0
 13 14  1  0
A    1
 N  
A    2
 C  
A    3
 O  
A    4
 C1 
A    5
 N1 
A    6
 O1 
A    7
 C2 
A    8
 C3 
A    9
 C4 
A   10
 C5 
A   11
 C6 
A   12
 C7 
A   13
 C8 
A   14
 C9 
M  END
>  <XChem_code>  (103) 
D68EV3CPROA-x0878

>  <Occupancy>  (103) 
[0.72, 0.72, 0.72, 0.72, 0.72, 0.72, 0.72, 0.72, 0.72, 0.72, 0.72, 0.72, 0.72, 0.72]

>  <TempFactor>  (103) 
[69.11, 54.6, 58.56, 59.82, 79.07, 72.61, 58.24, 58.05, 60.67, 61.0, 59.9, 63.53, 73.06, 76.88]

>  <RealCrystalName>  (103) 
D68EV3CPROA-x0878

>  <smiles>  (103) 
Cl.COc1ccc(C)cc1NC(=O)CN

>  <new_smiles>  (103) 
Cl.COc1ccc(C)cc1NC(=O)CN

>  <alternate_name>  (103) 
Z235341991

>  <site_name>  (103) 
4

>  <pdb_entry>  (103) 
nan

>  <mol>  (103) 
<rdkit.Chem.rdchem.Mol object at 0x164f2aa40>

>  <single_smiles>  (103) 
COc1ccc(C)cc1NC(=O)CN

>  <base_name>  (103) 
D68EV3CPROA-x0878_1A

>  <lig_resn>  (103) 
LIG

>  <lig_resi>  (103) 
201

>  <lig_chain>  (103) 
A

>  <lig_segi>  (103) 


>  <lig_alt>  (103) 


>  <polymer_chain>  (103) 
A

$$$$
x0878_1A§3
     RDKit          3D

 14 14  0  0  0  0  0  0  0  0999 V2000
   -5.5900    3.2740  -51.9640 N   0  0  0  0  0  0  0  0  0  0  0  0
   -2.8440    3.1920  -49.6160 C   0  0  0  0  0  0  0  0  0  0  0  0
   -3.5000    2.4220  -50.6270 O   0  0  0  0  0  0  0  0  0  0  0  0
   -4.6790    1.8120  -50.2900 C   0  0  0  0  0  0  0  0  0  0  0  0
   -6.9560    5.1340  -54.8130 N   0  0  0  0  0  0  0  0  0  0  0  0
   -7.6780    4.0780  -52.4440 O   0  0  0  0  0  0  0  0  0  0  0  0
   -4.8100    0.8270  -49.3210 C   0  0  0  0  0  0  0  0  0  0  0  0
   -6.0700    0.3390  -49.0210 C   0  0  0  0  0  0  0  0  0  0  0  0
   -7.2100    0.8040  -49.6720 C   0  0  0  0  0  0  0  0  0  0  0  0
   -8.5750    0.2550  -49.3330 C   0  0  0  0  0  0  0  0  0  0  0  0
   -7.0620    1.7810  -50.6470 C   0  0  0  0  0  0  0  0  0  0  0  0
   -5.8060    2.2920  -50.9710 C   0  0  0  0  0  0  0  0  0  0  0  0
   -6.5080    3.8700  -52.7620 C   0  0  0  0  0  0  0  0  0  0  0  0
   -5.9720    4.3190  -54.1480 C   0  0  0  0  0  0  0  0  0  0  0  0
  1 12  1  0
  1 13  1  0
  2  3  1  0
  3  4  1  0
  4  7  2  0
  4 12  1  0
  5 14  1  0
  6 13  2  0
  7  8  1  0
  8  9  2  0
  9 10  1  0
  9 11  1  0
 11 12  2  0
 13 14  1  0
A    1
 N  
A    2
 C  
A    3
 O  
A    4
 C1 
A    5
 N1 
A    6
 O1 
A    7
 C2 
A    8
 C3 
A    9
 C4 
A   10
 C5 
A   11
 C6 
A   12
 C7 
A   13
 C8 
A   14
 C9 
M  END
>  <XChem_code>  (104) 
D68EV3CPROA-x0878

>  <Occupancy>  (104) 
[0.56, 0.56, 0.56, 0.56, 0.56, 0.56, 0.56, 0.56, 0.56, 0.56, 0.56, 0.56, 0.56, 0.56]

>  <TempFactor>  (104) 
[41.78, 39.93, 40.44, 40.27, 41.15, 43.68, 39.17, 39.33, 37.22, 35.41, 37.79, 38.7, 44.53, 43.4]

>  <RealCrystalName>  (104) 
D68EV3CPROA-x0878

>  <smiles>  (104) 
Cl.COc1ccc(C)cc1NC(=O)CN

>  <new_smiles>  (104) 
Cl.COc1ccc(C)cc1NC(=O)CN

>  <alternate_name>  (104) 
Z235341991

>  <site_name>  (104) 
4

>  <pdb_entry>  (104) 
nan

>  <mol>  (104) 
<rdkit.Chem.rdchem.Mol object at 0x164f2aa40>

>  <single_smiles>  (104) 
COc1ccc(C)cc1NC(=O)CN

>  <base_name>  (104) 
D68EV3CPROA-x0878_1A

>  <lig_resn>  (104) 
LIG

>  <lig_resi>  (104) 
201

>  <lig_chain>  (104) 
B

>  <lig_segi>  (104) 


>  <lig_alt>  (104) 


>  <polymer_chain>  (104) 
B

$$$$
x0117_0A§1
     RDKit          3D

 15 16  0  0  0  0  0  0  0  0999 V2000
  -30.8690   -1.7900  -25.0980 N   0  0  0  0  0  0  0  0  0  0  0  0
  -31.5670   -2.8970  -25.7770 C   0  0  1  0  0  0  0  0  0  0  0  0
  -30.0570   -0.4180  -23.1980 O   0  0  0  0  0  0  0  0  0  0  0  0
  -33.0460   -3.0320  -25.4300 C   0  0  0  0  0  0  0  0  0  0  0  0
  -32.1990   -1.6410  -23.0080 O   0  0  0  0  0  0  0  0  0  0  0  0
  -33.6390   -3.8360  -26.5800 C   0  0  0  0  0  0  0  0  0  0  0  0
  -27.8950   -4.0320  -21.1910 O   0  0  0  0  0  0  0  0  0  0  0  0
  -32.6830   -3.6920  -27.7540 C   0  0  0  0  0  0  0  0  0  0  0  0
  -31.5860   -2.7460  -27.2910 C   0  0  0  0  0  0  0  0  0  0  0  0
  -29.9840   -3.0190  -22.8960 C   0  0  1  0  0  0  0  0  0  0  0  0
  -28.5040   -2.9330  -23.2660 C   0  0  0  0  0  0  0  0  0  0  0  0
  -27.7460   -4.0590  -22.6120 C   0  0  0  0  0  0  0  0  0  0  0  0
  -29.2660   -4.2010  -20.8250 C   0  0  0  0  0  0  0  0  0  0  0  0
  -30.1240   -3.0880  -21.3750 C   0  0  0  0  0  0  0  0  0  0  0  0
  -30.8460   -1.5790  -23.4850 S   0  0  1  0  0  0  0  0  0  0  0  0
  2  1  1  1
 15  1  1  6
  2  4  1  0
  2  9  1  0
  3 15  2  0
  4  6  1  0
  5 15  2  0
  6  8  1  0
  7 12  1  0
  7 13  1  0
  8  9  1  0
 10 11  1  1
 10 14  1  0
 10 15  1  0
 11 12  1  0
 13 14  1  0
A    1
 N  
A    2
 C  
A    3
 O  
A    4
 C1 
A    5
 O1 
A    6
 C2 
A    7
 O2 
A    8
 C3 
A    9
 C4 
A   10
 C5 
A   11
 C6 
A   12
 C7 
A   13
 C8 
A   14
 C9 
A   15
 S  
M  END
>  <XChem_code>  (105) 
D68EV3CPROA-x0117

>  <Occupancy>  (105) 
[0.66, 0.66, 0.66, 0.66, 0.66, 0.66, 0.66, 0.66, 0.66, 0.66, 0.66, 0.66, 0.66, 0.66, 0.66]

>  <TempFactor>  (105) 
[74.3, 72.1, 72.98, 71.68, 75.89, 73.01, 67.27, 72.12, 72.22, 70.77, 67.14, 67.0, 68.88, 69.26, 73.98]

>  <RealCrystalName>  (105) 
D68EV3CPROA-x0117

>  <smiles>  (105) 
O=S(=O)(NC1CCCC1)C2CCOCC2

>  <new_smiles>  (105) 
O=S(=O)(NC1CCCC1)C2CCOCC2

>  <alternate_name>  (105) 
Z1082839290

>  <site_name>  (105) 
5

>  <pdb_entry>  (105) 
nan

>  <mol>  (105) 
<rdkit.Chem.rdchem.Mol object at 0x16324d230>

>  <single_smiles>  (105) 
O=S(=O)(NC1CCCC1)C1CCOCC1

>  <base_name>  (105) 
D68EV3CPROA-x0117_0A

>  <lig_resn>  (105) 
LIG

>  <lig_resi>  (105) 
201

>  <lig_chain>  (105) 
A

>  <lig_segi>  (105) 


>  <lig_alt>  (105) 


>  <polymer_chain>  (105) 
A

$$$$
x1399_0A§1
     RDKit          3D

 13 13  0  0  0  0  0  0  0  0999 V2000
   -5.6830   -1.1110  -54.5780 N   0  0  0  0  0  0  0  0  0  0  0  0
   -6.8640   -4.7460  -54.3300 C   0  0  0  0  0  0  0  0  0  0  0  0
   -4.1480   -3.9580  -52.8950 O   0  0  0  0  0  0  0  0  0  0  0  0
   -6.7720   -3.2980  -54.7890 C   0  0  2  0  0  0  0  0  0  0  0  0
   -4.0090   -0.4340  -52.9220 O   0  0  0  0  0  0  0  0  0  0  0  0
   -5.7350   -2.4890  -54.0200 C   0  0  1  0  0  0  0  0  0  0  0  0
   -4.7660    1.1680  -54.6280 O   0  0  0  0  0  0  0  0  0  0  0  0
   -4.4090   -3.2350  -54.0950 C   0  0  0  0  0  0  0  0  0  0  0  0
   -3.0940   -0.6630  -55.3350 C   0  0  0  0  0  0  0  0  0  0  0  0
   -6.9860   -0.3700  -54.6090 C   0  0  0  0  0  0  0  0  0  0  0  0
   -8.0800   -1.1850  -55.2720 C   0  0  0  0  0  0  0  0  0  0  0  0
   -8.1260   -2.6000  -54.7100 C   0  0  0  0  0  0  0  0  0  0  0  0
   -4.3950   -0.1660  -54.2700 S   0  0  2  0  0  0  0  0  0  0  0  0
  1  6  1  0
  1 10  1  0
  1 13  1  0
  4  2  1  1
  3  8  1  0
  4  6  1  0
  4 12  1  0
  5 13  2  0
  6  8  1  6
  7 13  2  0
 13  9  1  6
 10 11  1  0
 11 12  1  0
A    1
 N  
A    2
 C  
A    3
 O  
A    4
 C1 
A    5
 O1 
A    6
 C2 
A    7
 O2 
A    8
 C3 
A    9
 C4 
A   10
 C5 
A   11
 C6 
A   12
 C7 
A   13
 S  
M  END
>  <XChem_code>  (106) 
D68EV3CPROA-x1399

>  <Occupancy>  (106) 
[0.56, 0.56, 0.56, 0.56, 0.56, 0.56, 0.56, 0.56, 0.56, 0.56, 0.56, 0.56, 0.56]

>  <TempFactor>  (106) 
[39.2, 43.39, 44.23, 41.84, 31.97, 40.02, 32.04, 42.49, 36.79, 39.82, 38.83, 38.94, 35.13]

>  <RealCrystalName>  (106) 
D68EV3CPROA-x1399

>  <smiles>  (106) 
C[C@@H]1[C@@H](CO)N(S(C)(=O)=O)CCC1

>  <new_smiles>  (106) 
C[C@@H]1[C@@H](CO)N(S(C)(=O)=O)CCC1

>  <alternate_name>  (106) 
POB0026

>  <site_name>  (106) 
5

>  <pdb_entry>  (106) 
nan

>  <mol>  (106) 
<rdkit.Chem.rdchem.Mol object at 0x164f2bf40>

>  <single_smiles>  (106) 
C[C@H]1CCCN(S(C)(=O)=O)[C@@H]1CO

>  <base_name>  (106) 
D68EV3CPROA-x1399_0A

>  <lig_resn>  (106) 
LIG

>  <lig_resi>  (106) 
201

>  <lig_chain>  (106) 
A

>  <lig_segi>  (106) 


>  <lig_alt>  (106) 


>  <polymer_chain>  (106) 
A

$$$$
x0191_0A§1
     RDKit          3D

 14 15  0  0  0  0  0  0  0  0999 V2000
  -21.2760  -10.6670  -20.6060 N   0  0  0  0  0  0  0  0  0  0  0  0
  -21.6070  -11.8600  -24.0770 C   0  0  0  0  0  0  0  0  0  0  0  0
  -22.8670  -12.2020  -24.1440 O   0  0  0  0  0  0  0  0  0  0  0  0
  -21.2080  -11.5190  -22.7170 C   0  0  0  0  0  0  0  0  0  0  0  0
  -21.9830  -10.9040  -21.7570 N   0  0  0  0  0  0  0  0  0  0  0  0
  -20.8310  -11.8560  -25.0380 O   0  0  0  0  0  0  0  0  0  0  0  0
  -19.9630  -11.6970  -22.1440 C   0  0  0  0  0  0  0  0  0  0  0  0
  -25.6910   -9.6080  -20.2800 O   0  0  0  0  0  0  0  0  0  0  0  0
  -20.0680  -11.1540  -20.8670 C   0  0  0  0  0  0  0  0  0  0  0  0
  -23.4020  -10.4960  -21.7580 C   0  0  1  0  0  0  0  0  0  0  0  0
  -24.2270  -11.4450  -20.8970 C   0  0  0  0  0  0  0  0  0  0  0  0
  -25.6450  -10.9400  -20.7920 C   0  0  0  0  0  0  0  0  0  0  0  0
  -25.0060   -8.7120  -21.1500 C   0  0  0  0  0  0  0  0  0  0  0  0
  -23.5430   -9.0610  -21.2570 C   0  0  0  0  0  0  0  0  0  0  0  0
  1  5  1  0
  1  9  2  0
  2  3  2  0
  2  4  1  0
  2  6  1  0
  4  5  1  0
  4  7  2  0
 10  5  1  1
  7  9  1  0
  8 12  1  0
  8 13  1  0
 10 11  1  0
 10 14  1  0
 11 12  1  0
 13 14  1  0
A    1
 N  
A    2
 C  
A    3
 O  
A    4
 C1 
A    5
 N1 
A    6
 O1 
A    7
 C2 
A    8
 O2 
A    9
 C3 
A   10
 C4 
A   11
 C5 
A   12
 C6 
A   13
 C7 
A   14
 C8 
M  END
>  <XChem_code>  (107) 
D68EV3CPROA-x0191

>  <Occupancy>  (107) 
[0.62, 0.62, 0.62, 0.62, 0.62, 0.62, 0.62, 0.62, 0.62, 0.62, 0.62, 0.62, 0.62, 0.62]

>  <TempFactor>  (107) 
[39.9, 39.52, 38.68, 40.67, 40.01, 46.35, 38.94, 43.78, 39.31, 41.63, 43.0, 44.3, 42.52, 40.87]

>  <RealCrystalName>  (107) 
D68EV3CPROA-x0191

>  <smiles>  (107) 
OC(=O)c1ccnn1C2CCOCC2

>  <new_smiles>  (107) 
OC(=O)c1ccnn1C2CCOCC2

>  <alternate_name>  (107) 
Z1230013388

>  <site_name>  (107) 
5

>  <pdb_entry>  (107) 
nan

>  <mol>  (107) 
<rdkit.Chem.rdchem.Mol object at 0x162e33ca0>

>  <single_smiles>  (107) 
O=C(O)c1ccnn1C1CCOCC1

>  <base_name>  (107) 
D68EV3CPROA-x0191_0A

>  <lig_resn>  (107) 
LIG

>  <lig_resi>  (107) 
201

>  <lig_chain>  (107) 
A

>  <lig_segi>  (107) 


>  <lig_alt>  (107) 


>  <polymer_chain>  (107) 
A

$$$$
x0133_0A§1
     RDKit          3D

 13 13  0  0  0  0  0  0  0  0999 V2000
  -31.1460    1.1010  -39.5720 N   0  0  0  0  0  0  0  0  0  0  0  0
  -25.3990    0.6770  -44.8940 C   0  0  0  0  0  0  0  0  0  0  0  0
  -31.2160   -1.2550  -40.2650 O   0  0  0  0  0  0  0  0  0  0  0  0
  -26.3890    0.4850  -43.7750 C   0  0  0  0  0  0  0  0  0  0  0  0
  -30.8060    0.5170  -41.9340 O   0  0  0  0  0  0  0  0  0  0  0  0
  -26.7170   -0.7890  -43.3190 C   0  0  0  0  0  0  0  0  0  0  0  0
  -27.5380   -0.9740  -42.2220 C   0  0  0  0  0  0  0  0  0  0  0  0
  -28.0620    0.1080  -41.5370 C   0  0  0  0  0  0  0  0  0  0  0  0
  -28.8780   -0.0920  -40.2910 C   0  0  0  0  0  0  0  0  0  0  0  0
  -27.7770    1.3890  -42.0000 C   0  0  0  0  0  0  0  0  0  0  0  0
  -26.9630    1.5380  -43.0970 C   0  0  0  0  0  0  0  0  0  0  0  0
  -26.7260    2.7890  -43.5450 F   0  0  0  0  0  0  0  0  0  0  0  0
  -30.6340    0.0000  -40.6150 S   0  0  1  0  0  0  0  0  0  0  0  0
 13  1  1  1
  2  4  1  0
  3 13  2  0
  4  6  2  0
  4 11  1  0
  5 13  2  0
  6  7  1  0
  7  8  2  0
  8  9  1  0
  8 10  1  0
  9 13  1  0
 10 11  2  0
 11 12  1  0
A    1
 N  
A    2
 C  
A    3
 O  
A    4
 C1 
A    5
 O1 
A    6
 C2 
A    7
 C3 
A    8
 C4 
A    9
 C5 
A   10
 C6 
A   11
 C7 
A   12
 F  
A   13
 S  
M  END
>  <XChem_code>  (108) 
D68EV3CPROA-x0133

>  <Occupancy>  (108) 
[0.35, 0.35, 0.35, 0.35, 0.35, 0.35, 0.35, 0.35, 0.35, 0.35, 0.35, 0.35, 0.35]

>  <TempFactor>  (108) 
[84.63, 63.16, 85.93, 62.82, 85.97, 63.93, 63.71, 65.58, 72.43, 63.72, 61.62, 60.02, 84.86]

>  <RealCrystalName>  (108) 
D68EV3CPROA-x0133

>  <smiles>  (108) 
Cc1ccc(CS(=O)(=O)N)cc1F

>  <new_smiles>  (108) 
Cc1ccc(CS(=O)(=O)N)cc1F

>  <alternate_name>  (108) 
Z1143279263

>  <site_name>  (108) 
4

>  <pdb_entry>  (108) 
nan

>  <mol>  (108) 
<rdkit.Chem.rdchem.Mol object at 0x16324cd60>

>  <single_smiles>  (108) 
Cc1ccc(CS(N)(=O)=O)cc1F

>  <base_name>  (108) 
D68EV3CPROA-x0133_0A

>  <lig_resn>  (108) 
LIG

>  <lig_resi>  (108) 
201

>  <lig_chain>  (108) 
B

>  <lig_segi>  (108) 


>  <lig_alt>  (108) 
A

>  <polymer_chain>  (108) 
B

$$$$
x0133_0A§2
     RDKit          3D

 13 13  0  0  0  0  0  0  0  0999 V2000
  -30.5670   -0.7420  -42.1620 N   0  0  0  0  0  0  0  0  0  0  0  0
  -25.1740    0.8490  -45.1350 C   0  0  0  0  0  0  0  0  0  0  0  0
  -30.3590    1.6260  -41.5430 O   0  0  0  0  0  0  0  0  0  0  0  0
  -26.0850    0.6180  -43.9570 C   0  0  0  0  0  0  0  0  0  0  0  0
  -31.1650   -0.0290  -39.8810 O   0  0  0  0  0  0  0  0  0  0  0  0
  -26.4810   -0.6660  -43.5880 C   0  0  0  0  0  0  0  0  0  0  0  0
  -27.2920   -0.8810  -42.4900 C   0  0  0  0  0  0  0  0  0  0  0  0
  -27.7280    0.1790  -41.7090 C   0  0  0  0  0  0  0  0  0  0  0  0
  -28.6330   -0.0470  -40.5300 C   0  0  0  0  0  0  0  0  0  0  0  0
  -27.3460    1.4650  -42.0640 C   0  0  0  0  0  0  0  0  0  0  0  0
  -26.5520    1.6470  -43.1660 C   0  0  0  0  0  0  0  0  0  0  0  0
  -26.2130    2.9080  -43.4940 F   0  0  0  0  0  0  0  0  0  0  0  0
  -30.3230    0.3120  -40.9830 S   0  0  1  0  0  0  0  0  0  0  0  0
 13  1  1  6
  2  4  1  0
  3 13  2  0
  4  6  2  0
  4 11  1  0
  5 13  2  0
  6  7  1  0
  7  8  2  0
  8  9  1  0
  8 10  1  0
  9 13  1  0
 10 11  2  0
 11 12  1  0
A    1
 N  
A    2
 C  
A    3
 O  
A    4
 C1 
A    5
 O1 
A    6
 C2 
A    7
 C3 
A    8
 C4 
A    9
 C5 
A   10
 C6 
A   11
 C7 
A   12
 F  
A   13
 S  
M  END
>  <XChem_code>  (109) 
D68EV3CPROA-x0133

>  <Occupancy>  (109) 
[0.4, 0.4, 0.4, 0.4, 0.4, 0.4, 0.4, 0.4, 0.4, 0.4, 0.4, 0.4, 0.4]

>  <TempFactor>  (109) 
[28.79, 26.78, 30.94, 26.5, 29.74, 25.13, 25.13, 26.58, 27.65, 26.99, 27.01, 29.23, 28.34]

>  <RealCrystalName>  (109) 
D68EV3CPROA-x0133

>  <smiles>  (109) 
Cc1ccc(CS(=O)(=O)N)cc1F

>  <new_smiles>  (109) 
Cc1ccc(CS(=O)(=O)N)cc1F

>  <alternate_name>  (109) 
Z1143279263

>  <site_name>  (109) 
4

>  <pdb_entry>  (109) 
nan

>  <mol>  (109) 
<rdkit.Chem.rdchem.Mol object at 0x16324cd60>

>  <single_smiles>  (109) 
Cc1ccc(CS(N)(=O)=O)cc1F

>  <base_name>  (109) 
D68EV3CPROA-x0133_0A

>  <lig_resn>  (109) 
LIG

>  <lig_resi>  (109) 
201

>  <lig_chain>  (109) 
A

>  <lig_segi>  (109) 


>  <lig_alt>  (109) 


>  <polymer_chain>  (109) 
A

$$$$
x0133_0A§3
     RDKit          3D

 13 13  0  0  0  0  0  0  0  0999 V2000
  -31.0960    1.1720  -39.4090 N   0  0  0  0  0  0  0  0  0  0  0  0
  -25.1480    1.1930  -44.7150 C   0  0  0  0  0  0  0  0  0  0  0  0
  -31.3780   -0.8160  -40.8240 O   0  0  0  0  0  0  0  0  0  0  0  0
  -26.2590    0.9040  -43.7380 C   0  0  0  0  0  0  0  0  0  0  0  0
  -30.7180    1.3410  -41.8290 O   0  0  0  0  0  0  0  0  0  0  0  0
  -26.8410    1.9180  -42.9860 C   0  0  0  0  0  0  0  0  0  0  0  0
  -27.7290    1.6390  -41.9650 C   0  0  0  0  0  0  0  0  0  0  0  0
  -28.0770    0.3310  -41.6620 C   0  0  0  0  0  0  0  0  0  0  0  0
  -28.9310    0.0230  -40.4650 C   0  0  0  0  0  0  0  0  0  0  0  0
  -27.5510   -0.6910  -42.4440 C   0  0  0  0  0  0  0  0  0  0  0  0
  -26.6670   -0.3790  -43.4470 C   0  0  0  0  0  0  0  0  0  0  0  0
  -26.1560   -1.3850  -44.1930 F   0  0  0  0  0  0  0  0  0  0  0  0
  -30.6530    0.4130  -40.7470 S   0  0  1  0  0  0  0  0  0  0  0  0
 13  1  1  1
  2  4  1  0
  3 13  2  0
  4  6  2  0
  4 11  1  0
  5 13  2  0
  6  7  1  0
  7  8  2  0
  8  9  1  0
  8 10  1  0
  9 13  1  0
 10 11  2  0
 11 12  1  0
A    1
 N  
A    2
 C  
A    3
 O  
A    4
 C1 
A    5
 O1 
A    6
 C2 
A    7
 C3 
A    8
 C4 
A    9
 C5 
A   10
 C6 
A   11
 C7 
A   12
 F  
A   13
 S  
M  END
>  <XChem_code>  (110) 
D68EV3CPROA-x0133

>  <Occupancy>  (110) 
[0.34, 0.34, 0.34, 0.34, 0.34, 0.34, 0.34, 0.34, 0.34, 0.34, 0.34, 0.34, 0.34]

>  <TempFactor>  (110) 
[64.94, 49.37, 65.75, 49.61, 66.72, 50.14, 51.77, 52.5, 56.76, 50.14, 50.05, 46.49, 64.5]

>  <RealCrystalName>  (110) 
D68EV3CPROA-x0133

>  <smiles>  (110) 
Cc1ccc(CS(=O)(=O)N)cc1F

>  <new_smiles>  (110) 
Cc1ccc(CS(=O)(=O)N)cc1F

>  <alternate_name>  (110) 
Z1143279263

>  <site_name>  (110) 
4

>  <pdb_entry>  (110) 
nan

>  <mol>  (110) 
<rdkit.Chem.rdchem.Mol object at 0x16324cd60>

>  <single_smiles>  (110) 
Cc1ccc(CS(N)(=O)=O)cc1F

>  <base_name>  (110) 
D68EV3CPROA-x0133_0A

>  <lig_resn>  (110) 
LIG

>  <lig_resi>  (110) 
201

>  <lig_chain>  (110) 
B

>  <lig_segi>  (110) 


>  <lig_alt>  (110) 
B

>  <polymer_chain>  (110) 
B

$$$$
x0878_0A§1
     RDKit          3D

 14 14  0  0  0  0  0  0  0  0999 V2000
  -22.7350   23.3970  -36.9320 N   0  0  0  0  0  0  0  0  0  0  0  0
  -21.0700   21.7130  -39.9840 C   0  0  0  0  0  0  0  0  0  0  0  0
  -22.0780   22.4960  -39.3470 O   0  0  0  0  0  0  0  0  0  0  0  0
  -21.8020   23.8170  -39.1340 C   0  0  0  0  0  0  0  0  0  0  0  0
  -24.3050   23.1560  -33.5650 N   0  0  0  0  0  0  0  0  0  0  0  0
  -24.2340   24.7270  -35.8300 O   0  0  0  0  0  0  0  0  0  0  0  0
  -21.2130   24.6560  -40.0650 C   0  0  0  0  0  0  0  0  0  0  0  0
  -20.8870   25.9510  -39.7020 C   0  0  0  0  0  0  0  0  0  0  0  0
  -21.1430   26.4370  -38.4250 C   0  0  0  0  0  0  0  0  0  0  0  0
  -20.7550   27.8440  -38.0430 C   0  0  0  0  0  0  0  0  0  0  0  0
  -21.7550   25.5960  -37.5050 C   0  0  0  0  0  0  0  0  0  0  0  0
  -22.0950   24.2870  -37.8390 C   0  0  0  0  0  0  0  0  0  0  0  0
  -23.5200   23.7270  -35.8740 C   0  0  0  0  0  0  0  0  0  0  0  0
  -23.4670   22.7330  -34.6800 C   0  0  0  0  0  0  0  0  0  0  0  0
  1 12  1  0
  1 13  1  0
  2  3  1  0
  3  4  1  0
  4  7  2  0
  4 12  1  0
  5 14  1  0
  6 13  2  0
  7  8  1  0
  8  9  2  0
  9 10  1  0
  9 11  1  0
 11 12  2  0
 13 14  1  0
A    1
 N  
A    2
 C  
A    3
 O  
A    4
 C1 
A    5
 N1 
A    6
 O1 
A    7
 C2 
A    8
 C3 
A    9
 C4 
A   10
 C5 
A   11
 C6 
A   12
 C7 
A   13
 C8 
A   14
 C9 
M  END
>  <XChem_code>  (111) 
D68EV3CPROA-x0878

>  <Occupancy>  (111) 
[0.78, 0.78, 0.78, 0.78, 0.78, 0.78, 0.78, 0.78, 0.78, 0.78, 0.78, 0.78, 0.78, 0.78]

>  <TempFactor>  (111) 
[119.37, 115.44, 119.26, 121.03, 92.71, 121.17, 119.56, 119.23, 118.93, 119.35, 120.02, 122.36, 110.74, 99.78]

>  <RealCrystalName>  (111) 
D68EV3CPROA-x0878

>  <smiles>  (111) 
Cl.COc1ccc(C)cc1NC(=O)CN

>  <new_smiles>  (111) 
Cl.COc1ccc(C)cc1NC(=O)CN

>  <alternate_name>  (111) 
Z235341991

>  <site_name>  (111) 
5

>  <pdb_entry>  (111) 
nan

>  <mol>  (111) 
<rdkit.Chem.rdchem.Mol object at 0x164f2a9d0>

>  <single_smiles>  (111) 
COc1ccc(C)cc1NC(=O)CN

>  <base_name>  (111) 
D68EV3CPROA-x0878_0A

>  <lig_resn>  (111) 
LIG

>  <lig_resi>  (111) 
301

>  <lig_chain>  (111) 
A

>  <lig_segi>  (111) 


>  <lig_alt>  (111) 


>  <polymer_chain>  (111) 
A

$$$$
x0878_0A§2
     RDKit          3D

 14 14  0  0  0  0  0  0  0  0999 V2000
  -22.3990    3.6710  -50.6530 N   0  0  0  0  0  0  0  0  0  0  0  0
  -18.5000    4.0340  -50.1420 C   0  0  0  0  0  0  0  0  0  0  0  0
  -19.7930    4.0940  -50.7330 O   0  0  0  0  0  0  0  0  0  0  0  0
  -20.2250    3.0040  -51.4370 C   0  0  0  0  0  0  0  0  0  0  0  0
  -24.6430    6.1030  -52.2170 N   0  0  0  0  0  0  0  0  0  0  0  0
  -22.5350    5.9360  -50.4700 O   0  0  0  0  0  0  0  0  0  0  0  0
  -19.4030    2.1410  -52.1310 C   0  0  0  0  0  0  0  0  0  0  0  0
  -19.9640    1.1580  -52.9270 C   0  0  0  0  0  0  0  0  0  0  0  0
  -21.3430    1.0230  -53.0530 C   0  0  0  0  0  0  0  0  0  0  0  0
  -21.9350   -0.0020  -53.9890 C   0  0  0  0  0  0  0  0  0  0  0  0
  -22.1620    1.8780  -52.3280 C   0  0  0  0  0  0  0  0  0  0  0  0
  -21.6190    2.8600  -51.5050 C   0  0  0  0  0  0  0  0  0  0  0  0
  -22.9650    4.8660  -50.9050 C   0  0  0  0  0  0  0  0  0  0  0  0
  -24.2170    4.7820  -51.7940 C   0  0  0  0  0  0  0  0  0  0  0  0
  1 12  1  0
  1 13  1  0
  2  3  1  0
  3  4  1  0
  4  7  2  0
  4 12  1  0
  5 14  1  0
  6 13  2  0
  7  8  1  0
  8  9  2  0
  9 10  1  0
  9 11  1  0
 11 12  2  0
 13 14  1  0
A    1
 N  
A    2
 C  
A    3
 O  
A    4
 C1 
A    5
 N1 
A    6
 O1 
A    7
 C2 
A    8
 C3 
A    9
 C4 
A   10
 C5 
A   11
 C6 
A   12
 C7 
A   13
 C8 
A   14
 C9 
M  END
>  <XChem_code>  (112) 
D68EV3CPROA-x0878

>  <Occupancy>  (112) 
[0.72, 0.72, 0.72, 0.72, 0.72, 0.72, 0.72, 0.72, 0.72, 0.72, 0.72, 0.72, 0.72, 0.72]

>  <TempFactor>  (112) 
[69.11, 54.6, 58.56, 59.82, 79.07, 72.61, 58.24, 58.05, 60.67, 61.0, 59.9, 63.53, 73.06, 76.88]

>  <RealCrystalName>  (112) 
D68EV3CPROA-x0878

>  <smiles>  (112) 
Cl.COc1ccc(C)cc1NC(=O)CN

>  <new_smiles>  (112) 
Cl.COc1ccc(C)cc1NC(=O)CN

>  <alternate_name>  (112) 
Z235341991

>  <site_name>  (112) 
5

>  <pdb_entry>  (112) 
nan

>  <mol>  (112) 
<rdkit.Chem.rdchem.Mol object at 0x164f2a9d0>

>  <single_smiles>  (112) 
COc1ccc(C)cc1NC(=O)CN

>  <base_name>  (112) 
D68EV3CPROA-x0878_0A

>  <lig_resn>  (112) 
LIG

>  <lig_resi>  (112) 
201

>  <lig_chain>  (112) 
A

>  <lig_segi>  (112) 


>  <lig_alt>  (112) 


>  <polymer_chain>  (112) 
A

$$$$
x0878_0A§3
     RDKit          3D

 14 14  0  0  0  0  0  0  0  0999 V2000
   -5.5900    3.2740  -51.9640 N   0  0  0  0  0  0  0  0  0  0  0  0
   -2.8440    3.1920  -49.6160 C   0  0  0  0  0  0  0  0  0  0  0  0
   -3.5000    2.4220  -50.6270 O   0  0  0  0  0  0  0  0  0  0  0  0
   -4.6790    1.8120  -50.2900 C   0  0  0  0  0  0  0  0  0  0  0  0
   -6.9560    5.1340  -54.8130 N   0  0  0  0  0  0  0  0  0  0  0  0
   -7.6780    4.0780  -52.4440 O   0  0  0  0  0  0  0  0  0  0  0  0
   -4.8100    0.8270  -49.3210 C   0  0  0  0  0  0  0  0  0  0  0  0
   -6.0700    0.3390  -49.0210 C   0  0  0  0  0  0  0  0  0  0  0  0
   -7.2100    0.8040  -49.6720 C   0  0  0  0  0  0  0  0  0  0  0  0
   -8.5750    0.2550  -49.3330 C   0  0  0  0  0  0  0  0  0  0  0  0
   -7.0620    1.7810  -50.6470 C   0  0  0  0  0  0  0  0  0  0  0  0
   -5.8060    2.2920  -50.9710 C   0  0  0  0  0  0  0  0  0  0  0  0
   -6.5080    3.8700  -52.7620 C   0  0  0  0  0  0  0  0  0  0  0  0
   -5.9720    4.3190  -54.1480 C   0  0  0  0  0  0  0  0  0  0  0  0
  1 12  1  0
  1 13  1  0
  2  3  1  0
  3  4  1  0
  4  7  2  0
  4 12  1  0
  5 14  1  0
  6 13  2  0
  7  8  1  0
  8  9  2  0
  9 10  1  0
  9 11  1  0
 11 12  2  0
 13 14  1  0
A    1
 N  
A    2
 C  
A    3
 O  
A    4
 C1 
A    5
 N1 
A    6
 O1 
A    7
 C2 
A    8
 C3 
A    9
 C4 
A   10
 C5 
A   11
 C6 
A   12
 C7 
A   13
 C8 
A   14
 C9 
M  END
>  <XChem_code>  (113) 
D68EV3CPROA-x0878

>  <Occupancy>  (113) 
[0.56, 0.56, 0.56, 0.56, 0.56, 0.56, 0.56, 0.56, 0.56, 0.56, 0.56, 0.56, 0.56, 0.56]

>  <TempFactor>  (113) 
[41.78, 39.93, 40.44, 40.27, 41.15, 43.68, 39.17, 39.33, 37.22, 35.41, 37.79, 38.7, 44.53, 43.4]

>  <RealCrystalName>  (113) 
D68EV3CPROA-x0878

>  <smiles>  (113) 
Cl.COc1ccc(C)cc1NC(=O)CN

>  <new_smiles>  (113) 
Cl.COc1ccc(C)cc1NC(=O)CN

>  <alternate_name>  (113) 
Z235341991

>  <site_name>  (113) 
5

>  <pdb_entry>  (113) 
nan

>  <mol>  (113) 
<rdkit.Chem.rdchem.Mol object at 0x164f2a9d0>

>  <single_smiles>  (113) 
COc1ccc(C)cc1NC(=O)CN

>  <base_name>  (113) 
D68EV3CPROA-x0878_0A

>  <lig_resn>  (113) 
LIG

>  <lig_resi>  (113) 
201

>  <lig_chain>  (113) 
B

>  <lig_segi>  (113) 


>  <lig_alt>  (113) 


>  <polymer_chain>  (113) 
B

$$$$
x1136_0B§1
     RDKit          3D

 13 13  0  0  0  0  0  0  0  0999 V2000
   -4.4370    1.0470  -49.9240 N   0  0  0  0  0  0  0  0  0  0  0  0
   -3.3310    0.2460  -52.5090 C   0  0  0  0  0  0  0  0  0  0  0  0
   -3.9900   -1.2350  -49.0800 O   0  0  0  0  0  0  0  0  0  0  0  0
   -3.0480   -0.7870  -51.4440 C   0  0  0  0  0  0  0  0  0  0  0  0
   -2.1470    0.3980  -49.2960 O   0  0  0  0  0  0  0  0  0  0  0  0
   -5.8560    0.9110  -49.9320 C   0  0  0  0  0  0  0  0  0  0  0  0
   -6.5510    0.3120  -48.8780 C   0  0  0  0  0  0  0  0  0  0  0  0
   -7.9330    0.1950  -48.9340 C   0  0  0  0  0  0  0  0  0  0  0  0
   -8.6320    0.6650  -50.0250 C   0  0  0  0  0  0  0  0  0  0  0  0
   -7.9660    1.2690  -51.0750 C   0  0  0  0  0  0  0  0  0  0  0  0
   -6.6000    1.3840  -51.0010 C   0  0  0  0  0  0  0  0  0  0  0  0
   -5.9390    2.0200  -51.9950 F   0  0  0  0  0  0  0  0  0  0  0  0
   -3.3580   -0.1750  -49.8040 S   0  0  1  0  0  0  0  0  0  0  0  0
  1  6  1  0
  1 13  1  0
  2  4  1  0
  3 13  2  0
 13  4  1  6
  5 13  2  0
  6  7  2  0
  6 11  1  0
  7  8  1  0
  8  9  2  0
  9 10  1  0
 10 11  2  0
 11 12  1  0
A    1
 N  
A    2
 C  
A    3
 O  
A    4
 C1 
A    5
 O1 
A    6
 C2 
A    7
 C3 
A    8
 C4 
A    9
 C5 
A   10
 C6 
A   11
 C7 
A   12
 F  
A   13
 S  
M  END
>  <XChem_code>  (114) 
D68EV3CPROA-x1136

>  <Occupancy>  (114) 
[0.7, 0.7, 0.7, 0.7, 0.7, 0.7, 0.7, 0.7, 0.7, 0.7, 0.7, 0.7, 0.7]

>  <TempFactor>  (114) 
[104.68, 108.76, 108.97, 108.58, 115.08, 93.82, 88.25, 82.92, 82.12, 85.33, 89.89, 93.33, 109.7]

>  <RealCrystalName>  (114) 
D68EV3CPROA-x1136

>  <smiles>  (114) 
CCS(=O)(=O)Nc1ccccc1F

>  <new_smiles>  (114) 
CCS(=O)(=O)Nc1ccccc1F

>  <alternate_name>  (114) 
Z53825177

>  <site_name>  (114) 
2

>  <pdb_entry>  (114) 
nan

>  <mol>  (114) 
<rdkit.Chem.rdchem.Mol object at 0x164f2b610>

>  <single_smiles>  (114) 
CCS(=O)(=O)Nc1ccccc1F

>  <base_name>  (114) 
D68EV3CPROA-x1136_0B

>  <lig_resn>  (114) 
LIG

>  <lig_resi>  (114) 
201

>  <lig_chain>  (114) 
B

>  <lig_segi>  (114) 


>  <lig_alt>  (114) 


>  <polymer_chain>  (114) 
B

$$$$
x1184_0B§1
     RDKit          3D

 12 12  0  0  0  0  0  0  0  0999 V2000
  -10.8340    2.8560  -52.3180 C   0  0  0  0  0  0  0  0  0  0  0  0
  -11.9410    2.4590  -52.9150 O   0  0  0  0  0  0  0  0  0  0  0  0
   -9.6230    2.0570  -52.7260 C   0  0  0  0  0  0  0  0  0  0  0  0
  -10.7620    3.7910  -51.5300 O   0  0  0  0  0  0  0  0  0  0  0  0
   -7.9980    1.7320  -50.9620 C   0  0  0  0  0  0  0  0  0  0  0  0
   -8.4720    2.5000  -51.9940 O   0  0  0  0  0  0  0  0  0  0  0  0
   -8.7250    0.9240  -50.1010 C   0  0  0  0  0  0  0  0  0  0  0  0
   -8.0930    0.3160  -49.0330 C   0  0  0  0  0  0  0  0  0  0  0  0
   -6.7530    0.5380  -48.8610 C   0  0  0  0  0  0  0  0  0  0  0  0
   -6.0020    1.2880  -49.7240 C   0  0  0  0  0  0  0  0  0  0  0  0
   -6.6400    1.9010  -50.7860 C   0  0  0  0  0  0  0  0  0  0  0  0
   -6.1560    0.0670  -47.7370 F   0  0  0  0  0  0  0  0  0  0  0  0
  1  2  2  0
  1  3  1  0
  1  4  1  0
  3  6  1  0
  5  6  1  0
  5  7  2  0
  5 11  1  0
  7  8  1  0
  8  9  2  0
  9 10  1  0
  9 12  1  0
 10 11  2  0
A    1
 C  
A    2
 O  
A    3
 C1 
A    4
 O1 
A    5
 C2 
A    6
 O2 
A    7
 C3 
A    8
 C4 
A    9
 C5 
A   10
 C6 
A   11
 C7 
A   12
 F  
M  END
>  <XChem_code>  (115) 
D68EV3CPROA-x1184

>  <Occupancy>  (115) 
[0.66, 0.66, 0.66, 0.66, 0.66, 0.66, 0.66, 0.66, 0.66, 0.66, 0.66, 0.66]

>  <TempFactor>  (115) 
[39.03, 36.01, 42.14, 35.56, 39.58, 41.73, 38.45, 38.43, 38.5, 39.21, 39.15, 38.4]

>  <RealCrystalName>  (115) 
D68EV3CPROA-x1184

>  <smiles>  (115) 
OC(=O)COc1ccc(F)cc1

>  <new_smiles>  (115) 
OC(=O)COc1ccc(F)cc1

>  <alternate_name>  (115) 
Z56978034

>  <site_name>  (115) 
2

>  <pdb_entry>  (115) 
nan

>  <mol>  (115) 
<rdkit.Chem.rdchem.Mol object at 0x164f2b6f0>

>  <single_smiles>  (115) 
O=C(O)COc1ccc(F)cc1

>  <base_name>  (115) 
D68EV3CPROA-x1184_0B

>  <lig_resn>  (115) 
LIG

>  <lig_resi>  (115) 
201

>  <lig_chain>  (115) 
B

>  <lig_segi>  (115) 


>  <lig_alt>  (115) 


>  <polymer_chain>  (115) 
B

$$$$
x0695_0B§1
     RDKit          3D

 18 19  0  0  0  0  0  0  0  0999 V2000
   -5.9080   -4.0060  -56.2850 N   0  0  0  0  0  0  0  0  0  0  0  0
   -5.9270   -6.3210  -57.0870 C   0  0  0  0  0  0  0  0  0  0  0  0
   -4.1320   -5.3240  -55.9050 O   0  0  0  0  0  0  0  0  0  0  0  0
   -5.2510   -5.1920  -56.3740 C   0  0  0  0  0  0  0  0  0  0  0  0
   -6.8220   -2.4130  -54.3900 N   0  0  0  0  0  0  0  0  0  0  0  0
   -5.2180   -2.7110  -56.2550 C   0  0  0  0  0  0  0  0  0  0  0  0
   -5.5580   -1.9400  -54.9820 C   0  0  0  0  0  0  0  0  0  0  0  0
   -7.3550   -1.4820  -53.3750 C   0  0  0  0  0  0  0  0  0  0  0  0
   -7.2040    0.0020  -53.7070 C   0  0  0  0  0  0  0  0  0  0  0  0
   -7.8660    0.9900  -52.7330 C   0  0  0  0  0  0  0  0  0  0  0  0
   -7.4660    0.8150  -51.2860 C   0  0  0  0  0  0  0  0  0  0  0  0
   -8.4200    0.5380  -50.3160 C   0  0  0  0  0  0  0  0  0  0  0  0
   -8.0470    0.3090  -49.0010 C   0  0  0  0  0  0  0  0  0  0  0  0
   -6.7190    0.3600  -48.6370 C   0  0  0  0  0  0  0  0  0  0  0  0
   -5.7620    0.6510  -49.5860 C   0  0  0  0  0  0  0  0  0  0  0  0
   -6.1330    0.8790  -50.9020 C   0  0  0  0  0  0  0  0  0  0  0  0
   -7.7900   -2.6710  -55.4610 C   0  0  0  0  0  0  0  0  0  0  0  0
   -7.3700   -3.8830  -56.2740 C   0  0  0  0  0  0  0  0  0  0  0  0
  1  4  1  0
  1  6  1  0
  1 18  1  0
  2  4  1  0
  3  4  2  0
  5  7  1  0
  5  8  1  0
  5 17  1  0
  6  7  1  0
  8  9  1  0
  9 10  1  0
 10 11  1  0
 11 12  2  0
 11 16  1  0
 12 13  1  0
 13 14  2  0
 14 15  1  0
 15 16  2  0
 17 18  1  0
A    1
 N  
A    2
 C  
A    3
 O  
A    4
 C1 
A    5
 N1 
A    6
 C2 
A    7
 C3 
A    8
 C4 
A    9
 C5 
A   10
 C6 
A   11
 C7 
A   12
 C8 
A   13
 C9 
A   14
 C10
A   15
 C11
A   16
 C12
A   17
 C13
A   18
 C14
M  END
>  <XChem_code>  (116) 
D68EV3CPROA-x0695

>  <Occupancy>  (116) 
[0.6, 0.6, 0.6, 0.6, 0.6, 0.6, 0.6, 0.6, 0.6, 0.6, 0.6, 0.6, 0.6, 0.6, 0.6, 0.6, 0.6, 0.6]

>  <TempFactor>  (116) 
[46.73, 45.5, 48.43, 47.39, 42.76, 45.41, 43.83, 40.03, 39.73, 37.65, 35.61, 34.68, 34.68, 34.43, 34.4, 34.33, 44.36, 45.06]

>  <RealCrystalName>  (116) 
D68EV3CPROA-x0695

>  <smiles>  (116) 
CC(=O)N1CCN(CCCc2ccccc2)CC1

>  <new_smiles>  (116) 
CC(=O)N1CCN(CCCc2ccccc2)CC1

>  <alternate_name>  (116) 
Z137811222

>  <site_name>  (116) 
2

>  <pdb_entry>  (116) 
nan

>  <mol>  (116) 
<rdkit.Chem.rdchem.Mol object at 0x162e32f80>

>  <single_smiles>  (116) 
CC(=O)N1CCN(CCCc2ccccc2)CC1

>  <base_name>  (116) 
D68EV3CPROA-x0695_0B

>  <lig_resn>  (116) 
LIG

>  <lig_resi>  (116) 
201

>  <lig_chain>  (116) 
B

>  <lig_segi>  (116) 


>  <lig_alt>  (116) 


>  <polymer_chain>  (116) 
B

$$$$
x1594_0A§1
     RDKit          3D

 10 11  0  0  0  0  0  0  0  0999 V2000
   -6.8740    9.8340  -32.5350 N   0  0  0  0  0  0  0  0  0  0  0  0
   -6.6660   10.2800  -31.2910 C   0  0  0  0  0  0  0  0  0  0  0  0
   -5.8820   11.4760  -29.6270 C   0  0  0  0  0  0  0  0  0  0  0  0
   -7.1990    9.8070  -30.1740 N   0  0  0  0  0  0  0  0  0  0  0  0
   -5.0830   12.4690  -29.0140 C   0  0  0  0  0  0  0  0  0  0  0  0
   -6.7030   10.5680  -29.1130 N   0  0  0  0  0  0  0  0  0  0  0  0
   -4.2680   13.2420  -29.7830 C   0  0  0  0  0  0  0  0  0  0  0  0
   -5.8120   11.3450  -31.0120 N   0  0  0  0  0  0  0  0  0  0  0  0
   -4.2110   13.0710  -31.1840 C   0  0  0  0  0  0  0  0  0  0  0  0
   -4.9820   12.1370  -31.7840 C   0  0  0  0  0  0  0  0  0  0  0  0
  1  2  1  0
  2  4  2  0
  2  8  1  0
  3  5  1  0
  3  6  2  0
  3  8  1  0
  4  6  1  0
  5  7  2  0
  7  9  1  0
  8 10  1  0
  9 10  2  0
A    1
 N  
A    2
 C  
A    3
 C1 
A    4
 N1 
A    5
 C2 
A    6
 N2 
A    7
 C3 
A    8
 N3 
A    9
 C4 
A   10
 C5 
M  END
>  <XChem_code>  (117) 
D68EV3CPROA-x1594

>  <Occupancy>  (117) 
[0.66, 0.66, 0.66, 0.66, 0.66, 0.66, 0.66, 0.66, 0.66, 0.66]

>  <TempFactor>  (117) 
[32.44, 31.86, 32.44, 29.37, 32.27, 30.89, 34.56, 32.15, 34.73, 34.07]

>  <RealCrystalName>  (117) 
D68EV3CPROA-x1594

>  <smiles>  (117) 
NC1=NN=C2C=CC=CN12

>  <new_smiles>  (117) 
NC1=NN=C2C=CC=CN12

>  <alternate_name>  (117) 
Z362020366

>  <site_name>  (117) 
1

>  <pdb_entry>  (117) 
nan

>  <mol>  (117) 
<rdkit.Chem.rdchem.Mol object at 0x165034b30>

>  <single_smiles>  (117) 
Nc1nnc2ccccn12

>  <base_name>  (117) 
D68EV3CPROA-x1594_0A

>  <lig_resn>  (117) 
LIG

>  <lig_resi>  (117) 
201

>  <lig_chain>  (117) 
A

>  <lig_segi>  (117) 


>  <lig_alt>  (117) 


>  <polymer_chain>  (117) 
A

$$$$
x1264_0B§1
     RDKit          3D

 19 20  0  0  0  0  0  0  0  0999 V2000
  -28.1690    0.1410  -43.1810 N   0  0  0  0  0  0  0  0  0  0  0  0
  -25.5220    1.8560  -44.9240 C   0  0  1  0  0  0  0  0  0  0  0  0
  -27.1050   -1.2220  -44.6020 O   0  0  0  0  0  0  0  0  0  0  0  0
  -26.7690    1.7780  -45.7660 C   0  0  0  0  0  0  0  0  0  0  0  0
  -28.2830    0.9470  -40.5260 N   0  0  0  0  0  0  0  0  0  0  0  0
  -28.4480   -1.1590  -39.8180 O   0  0  0  0  0  0  0  0  0  0  0  0
  -26.9410    2.6940  -46.7990 C   0  0  0  0  0  0  0  0  0  0  0  0
  -28.1140    2.7000  -47.5380 C   0  0  0  0  0  0  0  0  0  0  0  0
  -29.1210    1.8030  -47.2570 C   0  0  0  0  0  0  0  0  0  0  0  0
  -28.9690    0.8780  -46.2380 C   0  0  0  0  0  0  0  0  0  0  0  0
  -27.7920    0.8540  -45.4880 C   0  0  0  0  0  0  0  0  0  0  0  0
  -27.6670   -0.1650  -44.3890 C   0  0  0  0  0  0  0  0  0  0  0  0
  -28.8790    1.3840  -42.8470 C   0  0  0  0  0  0  0  0  0  0  0  0
  -28.3570    1.9730  -41.5590 C   0  0  0  0  0  0  0  0  0  0  0  0
  -28.2550   -0.3570  -40.7270 C   0  0  0  0  0  0  0  0  0  0  0  0
  -27.9930   -0.8480  -42.1200 C   0  0  0  0  0  0  0  0  0  0  0  0
  -25.7510    2.4490  -43.7550 F   0  0  0  0  0  0  0  0  0  0  0  0
  -25.0270    0.6590  -44.6300 F   0  0  0  0  0  0  0  0  0  0  0  0
  -24.5230    2.5030  -45.5240 F   0  0  0  0  0  0  0  0  0  0  0  0
  1 12  1  0
  1 13  1  0
  1 16  1  0
  2  4  1  0
  2 17  1  1
  2 18  1  0
  2 19  1  0
  3 12  2  0
  4  7  2  0
  4 11  1  0
  5 14  1  0
  5 15  1  0
  6 15  2  0
  7  8  1  0
  8  9  2  0
  9 10  1  0
 10 11  2  0
 11 12  1  0
 13 14  1  0
 15 16  1  0
A    1
 N  
A    2
 C  
A    3
 O  
A    4
 C1 
A    5
 N1 
A    6
 O1 
A    7
 C2 
A    8
 C3 
A    9
 C4 
A   10
 C5 
A   11
 C6 
A   12
 C7 
A   13
 C8 
A   14
 C9 
A   15
 C10
A   16
 C11
A   17
 F  
A   18
 F1 
A   19
 F2 
M  END
>  <XChem_code>  (118) 
D68EV3CPROA-x1264

>  <Occupancy>  (118) 
[0.72, 0.72, 0.72, 0.72, 0.72, 0.72, 0.72, 0.72, 0.72, 0.72, 0.72, 0.72, 0.72, 0.72, 0.72, 0.72, 0.72, 0.72, 0.72]

>  <TempFactor>  (118) 
[28.51, 32.32, 34.75, 32.38, 25.54, 26.96, 32.91, 33.57, 33.49, 34.21, 32.38, 31.62, 27.37, 26.61, 25.5, 27.95, 31.81, 33.64, 30.12]

>  <RealCrystalName>  (118) 
D68EV3CPROA-x1264

>  <smiles>  (118) 
FC(F)(F)c1ccccc1C(=O)N2CCNC(=O)C2

>  <new_smiles>  (118) 
FC(F)(F)c1ccccc1C(=O)N2CCNC(=O)C2

>  <alternate_name>  (118) 
Z85249949

>  <site_name>  (118) 
4

>  <pdb_entry>  (118) 
nan

>  <mol>  (118) 
<rdkit.Chem.rdchem.Mol object at 0x164f2ba70>

>  <single_smiles>  (118) 
O=C1CN(C(=O)c2ccccc2C(F)(F)F)CCN1

>  <base_name>  (118) 
D68EV3CPROA-x1264_0B

>  <lig_resn>  (118) 
LIG

>  <lig_resi>  (118) 
201

>  <lig_chain>  (118) 
B

>  <lig_segi>  (118) 


>  <lig_alt>  (118) 


>  <polymer_chain>  (118) 
B

$$$$
x1379_0A§1
     RDKit          3D

 16 17  0  0  0  0  0  0  0  0999 V2000
  -18.6070  -13.6580  -21.6020 N   0  0  0  0  0  0  0  0  0  0  0  0
  -22.2210   -8.1140  -17.9360 C   0  0  0  0  0  0  0  0  0  0  0  0
  -20.2330  -10.1590  -23.4970 O   0  0  0  0  0  0  0  0  0  0  0  0
  -21.7540   -9.1460  -18.9330 C   0  0  0  0  0  0  0  0  0  0  0  0
  -21.3080  -11.9850  -24.1930 O   0  0  0  0  0  0  0  0  0  0  0  0
  -20.4670   -9.6610  -18.8790 C   0  0  0  0  0  0  0  0  0  0  0  0
  -20.0150  -10.5640  -19.8250 C   0  0  0  0  0  0  0  0  0  0  0  0
  -22.5820   -9.5770  -19.9580 C   0  0  0  0  0  0  0  0  0  0  0  0
  -22.1380  -10.4790  -20.9090 C   0  0  0  0  0  0  0  0  0  0  0  0
  -20.8410  -10.9840  -20.8670 C   0  0  0  0  0  0  0  0  0  0  0  0
  -20.3670  -11.9630  -21.9490 C   0  0  1  0  0  0  0  0  0  0  0  0
  -20.7060  -11.3950  -23.3420 C   0  0  0  0  0  0  0  0  0  0  0  0
  -20.0660   -9.6950  -24.8600 C   0  0  0  0  0  0  0  0  0  0  0  0
  -18.8410  -12.2480  -21.9090 C   0  0  0  0  0  0  0  0  0  0  0  0
  -19.8080  -14.3480  -22.0660 C   0  0  0  0  0  0  0  0  0  0  0  0
  -20.9620  -13.3880  -21.7690 C   0  0  0  0  0  0  0  0  0  0  0  0
  1 14  1  0
  1 15  1  0
  2  4  1  0
  3 12  1  0
  3 13  1  0
  4  6  2  0
  4  8  1  0
  5 12  2  0
  6  7  1  0
  7 10  2  0
  8  9  2  0
  9 10  1  0
 10 11  1  0
 11 12  1  6
 11 14  1  0
 11 16  1  0
 15 16  1  0
A    1
 N  
A    2
 C  
A    3
 O  
A    4
 C1 
A    5
 O1 
A    6
 C2 
A    7
 C3 
A    8
 C4 
A    9
 C5 
A   10
 C6 
A   11
 C7 
A   12
 C8 
A   13
 C9 
A   14
 C10
A   15
 C11
A   16
 C12
M  END
>  <XChem_code>  (119) 
D68EV3CPROA-x1379

>  <Occupancy>  (119) 
[0.59, 0.59, 0.59, 0.59, 0.59, 0.59, 0.59, 0.59, 0.59, 0.59, 0.59, 0.59, 0.59, 0.59, 0.59, 0.59]

>  <TempFactor>  (119) 
[40.55, 45.9, 38.96, 44.37, 40.61, 43.32, 43.1, 43.79, 43.49, 42.7, 40.92, 39.34, 36.4, 40.82, 40.22, 40.55]

>  <RealCrystalName>  (119) 
D68EV3CPROA-x1379

>  <smiles>  (119) 
CC(C=C1)=CC=C1C2(C(OC)=O)CNCC2

>  <new_smiles>  (119) 
CC(C=C1)=CC=C1C2(C(OC)=O)CNCC2

>  <alternate_name>  (119) 
POB0095

>  <site_name>  (119) 
5

>  <pdb_entry>  (119) 
nan

>  <mol>  (119) 
<rdkit.Chem.rdchem.Mol object at 0x164f2be60>

>  <single_smiles>  (119) 
COC(=O)C1(c2ccc(C)cc2)CCNC1

>  <base_name>  (119) 
D68EV3CPROA-x1379_0A

>  <lig_resn>  (119) 
LIG

>  <lig_resi>  (119) 
201

>  <lig_chain>  (119) 
A

>  <lig_segi>  (119) 


>  <lig_alt>  (119) 


>  <polymer_chain>  (119) 
A

$$$$
x1056_0B§1
     RDKit          3D

 15 16  0  0  0  0  0  0  0  0999 V2000
   -5.1660    1.5320  -48.8910 N   0  0  0  0  0  0  0  0  0  0  0  0
   -4.3730    0.6880  -48.1850 C   0  0  0  0  0  0  0  0  0  0  0  0
   -4.6430   -0.4840  -47.9420 O   0  0  0  0  0  0  0  0  0  0  0  0
   -6.4390    1.2950  -49.4320 C   0  0  0  0  0  0  0  0  0  0  0  0
   -6.7390    2.0980  -50.4620 N   0  0  0  0  0  0  0  0  0  0  0  0
   -1.2860    2.8730  -48.1080 O   0  0  0  0  0  0  0  0  0  0  0  0
   -7.3650    0.4110  -48.8660 C   0  0  0  0  0  0  0  0  0  0  0  0
   -3.2150    1.7810  -46.3680 O   0  0  0  0  0  0  0  0  0  0  0  0
   -8.6500    0.4010  -49.3820 C   0  0  0  0  0  0  0  0  0  0  0  0
   -8.9780    1.2360  -50.4210 C   0  0  0  0  0  0  0  0  0  0  0  0
   -7.9960    2.0590  -50.9320 C   0  0  0  0  0  0  0  0  0  0  0  0
   -3.0500    1.2740  -47.7010 C   0  0  2  0  0  0  0  0  0  0  0  0
   -2.5340    2.3770  -48.5990 C   0  0  0  0  0  0  0  0  0  0  0  0
   -1.4380    3.3550  -46.7690 C   0  0  0  0  0  0  0  0  0  0  0  0
   -1.9720    2.2920  -45.8570 C   0  0  0  0  0  0  0  0  0  0  0  0
  1  2  1  0
  1  4  1  0
  2  3  2  0
 12  2  1  6
  4  5  2  0
  4  7  1  0
  5 11  1  0
  6 13  1  0
  6 14  1  0
  7  9  2  0
  8 12  1  0
  8 15  1  0
  9 10  1  0
 10 11  2  0
 12 13  1  0
 14 15  1  0
A    1
 N  
A    2
 C  
A    3
 O  
A    4
 C1 
A    5
 N1 
A    6
 O1 
A    7
 C2 
A    8
 O2 
A    9
 C3 
A   10
 C4 
A   11
 C5 
A   12
 C6 
A   13
 C7 
A   14
 C8 
A   15
 C9 
M  END
>  <XChem_code>  (120) 
D68EV3CPROA-x1056

>  <Occupancy>  (120) 
[0.84, 0.84, 0.84, 0.84, 0.84, 0.84, 0.84, 0.84, 0.84, 0.84, 0.84, 0.84, 0.84, 0.84, 0.84]

>  <TempFactor>  (120) 
[47.25, 48.84, 49.46, 41.81, 39.76, 56.79, 39.35, 51.64, 37.34, 37.02, 37.78, 51.62, 53.79, 55.75, 52.8]

>  <RealCrystalName>  (120) 
D68EV3CPROA-x1056

>  <smiles>  (120) 
O=C(Nc1ccccn1)C2COCCO2

>  <new_smiles>  (120) 
O=C(Nc1ccccn1)C2COCCO2

>  <alternate_name>  (120) 
Z381474098

>  <site_name>  (120) 
2

>  <pdb_entry>  (120) 
nan

>  <mol>  (120) 
<rdkit.Chem.rdchem.Mol object at 0x164f2b140>

>  <single_smiles>  (120) 
O=C(Nc1ccccn1)C1COCCO1

>  <base_name>  (120) 
D68EV3CPROA-x1056_0B

>  <lig_resn>  (120) 
LIG

>  <lig_resi>  (120) 
201

>  <lig_chain>  (120) 
B

>  <lig_segi>  (120) 


>  <lig_alt>  (120) 


>  <polymer_chain>  (120) 
B

$$$$
x1495_0A§1
     RDKit          3D

  8  8  0  0  0  0  0  0  0  0999 V2000
  -17.3960  -15.6260  -27.1630 C   0  0  0  0  0  0  0  0  0  0  0  0
  -18.5380  -15.5270  -26.5620 O   0  0  0  0  0  0  0  0  0  0  0  0
  -16.1550  -15.1120  -26.4320 C   0  0  0  0  0  0  0  0  0  0  0  0
  -17.2960  -16.2140  -28.2520 O   0  0  0  0  0  0  0  0  0  0  0  0
  -14.8620  -15.0070  -26.9770 C   0  0  0  0  0  0  0  0  0  0  0  0
  -13.9440  -14.5520  -26.1010 C   0  0  0  0  0  0  0  0  0  0  0  0
  -16.1550  -14.6860  -25.1240 C   0  0  0  0  0  0  0  0  0  0  0  0
  -14.5880  -14.2140  -24.5940 S   0  0  0  0  0  0  0  0  0  0  0  0
  1  2  2  0
  1  3  1  0
  1  4  1  0
  3  5  1  0
  3  7  2  0
  5  6  2  0
  6  8  1  0
  7  8  1  0
A    1
 C  
A    2
 O  
A    3
 C1 
A    4
 O1 
A    5
 C2 
A    6
 C3 
A    7
 C4 
A    8
 S  
M  END
>  <XChem_code>  (121) 
D68EV3CPROA-x1495

>  <Occupancy>  (121) 
[0.52, 0.52, 0.52, 0.52, 0.52, 0.52, 0.52, 0.52]

>  <TempFactor>  (121) 
[25.31, 23.4, 25.53, 28.89, 23.57, 24.32, 26.12, 29.61]

>  <RealCrystalName>  (121) 
D68EV3CPROA-x1495

>  <smiles>  (121) 
OC(=O)C=1C=CSC1

>  <new_smiles>  (121) 
OC(=O)C=1C=CSC1

>  <alternate_name>  (121) 
Z166605460

>  <site_name>  (121) 
5

>  <pdb_entry>  (121) 
nan

>  <mol>  (121) 
<rdkit.Chem.rdchem.Mol object at 0x165034270>

>  <single_smiles>  (121) 
O=C(O)c1ccsc1

>  <base_name>  (121) 
D68EV3CPROA-x1495_0A

>  <lig_resn>  (121) 
LIG

>  <lig_resi>  (121) 
201

>  <lig_chain>  (121) 
A

>  <lig_segi>  (121) 


>  <lig_alt>  (121) 


>  <polymer_chain>  (121) 
A

$$$$
x1495_0A§2
     RDKit          3D

  8  8  0  0  0  0  0  0  0  0999 V2000
   -4.8120    0.3600  -49.6430 C   0  0  0  0  0  0  0  0  0  0  0  0
   -4.1220    0.7230  -50.7140 O   0  0  0  0  0  0  0  0  0  0  0  0
   -6.3050    0.4900  -49.7450 C   0  0  0  0  0  0  0  0  0  0  0  0
   -4.2950   -0.1000  -48.5980 O   0  0  0  0  0  0  0  0  0  0  0  0
   -7.1060    0.8460  -50.8900 C   0  0  0  0  0  0  0  0  0  0  0  0
   -8.4360    0.7550  -50.6720 C   0  0  0  0  0  0  0  0  0  0  0  0
   -7.0900    0.1390  -48.6750 C   0  0  0  0  0  0  0  0  0  0  0  0
   -8.7370    0.2070  -49.0330 S   0  0  0  0  0  0  0  0  0  0  0  0
  1  2  2  0
  1  3  1  0
  1  4  1  0
  3  5  1  0
  3  7  2  0
  5  6  2  0
  6  8  1  0
  7  8  1  0
A    1
 C  
A    2
 O  
A    3
 C1 
A    4
 O1 
A    5
 C2 
A    6
 C3 
A    7
 C4 
A    8
 S  
M  END
>  <XChem_code>  (122) 
D68EV3CPROA-x1495

>  <Occupancy>  (122) 
[0.84, 0.84, 0.84, 0.84, 0.84, 0.84, 0.84, 0.84]

>  <TempFactor>  (122) 
[46.72, 52.55, 36.72, 50.79, 33.61, 30.81, 31.55, 28.27]

>  <RealCrystalName>  (122) 
D68EV3CPROA-x1495

>  <smiles>  (122) 
OC(=O)C=1C=CSC1

>  <new_smiles>  (122) 
OC(=O)C=1C=CSC1

>  <alternate_name>  (122) 
Z166605460

>  <site_name>  (122) 
5

>  <pdb_entry>  (122) 
nan

>  <mol>  (122) 
<rdkit.Chem.rdchem.Mol object at 0x165034270>

>  <single_smiles>  (122) 
O=C(O)c1ccsc1

>  <base_name>  (122) 
D68EV3CPROA-x1495_0A

>  <lig_resn>  (122) 
LIG

>  <lig_resi>  (122) 
201

>  <lig_chain>  (122) 
B

>  <lig_segi>  (122) 


>  <lig_alt>  (122) 


>  <polymer_chain>  (122) 
B

$$$$
x1495_0A§3
     RDKit          3D

  8  8  0  0  0  0  0  0  0  0999 V2000
  -15.1910  -12.1710  -38.9940 C   0  0  0  0  0  0  0  0  0  0  0  0
  -16.3860  -11.6520  -39.1610 O   0  0  0  0  0  0  0  0  0  0  0  0
  -14.6290  -12.1180  -37.6140 C   0  0  0  0  0  0  0  0  0  0  0  0
  -14.5480  -12.6830  -39.8940 O   0  0  0  0  0  0  0  0  0  0  0  0
  -13.3530  -12.6110  -37.1750 C   0  0  0  0  0  0  0  0  0  0  0  0
  -13.1320  -12.3930  -35.8360 C   0  0  0  0  0  0  0  0  0  0  0  0
  -15.3200  -11.5480  -36.5780 C   0  0  0  0  0  0  0  0  0  0  0  0
  -14.4530  -11.6110  -35.1300 S   0  0  0  0  0  0  0  0  0  0  0  0
  1  2  2  0
  1  3  1  0
  1  4  1  0
  3  5  1  0
  3  7  2  0
  5  6  2  0
  6  8  1  0
  7  8  1  0
A    1
 C  
A    2
 O  
A    3
 C1 
A    4
 O1 
A    5
 C2 
A    6
 C3 
A    7
 C4 
A    8
 S  
M  END
>  <XChem_code>  (123) 
D68EV3CPROA-x1495

>  <Occupancy>  (123) 
[0.67, 0.67, 0.67, 0.67, 0.67, 0.67, 0.67, 0.67]

>  <TempFactor>  (123) 
[29.34, 33.13, 29.5, 30.61, 28.5, 27.56, 28.31, 30.65]

>  <RealCrystalName>  (123) 
D68EV3CPROA-x1495

>  <smiles>  (123) 
OC(=O)C=1C=CSC1

>  <new_smiles>  (123) 
OC(=O)C=1C=CSC1

>  <alternate_name>  (123) 
Z166605460

>  <site_name>  (123) 
5

>  <pdb_entry>  (123) 
nan

>  <mol>  (123) 
<rdkit.Chem.rdchem.Mol object at 0x165034270>

>  <single_smiles>  (123) 
O=C(O)c1ccsc1

>  <base_name>  (123) 
D68EV3CPROA-x1495_0A

>  <lig_resn>  (123) 
LIG

>  <lig_resi>  (123) 
301

>  <lig_chain>  (123) 
B

>  <lig_segi>  (123) 


>  <lig_alt>  (123) 


>  <polymer_chain>  (123) 
B

$$$$
x1537_0A§1
     RDKit          3D

  6  6  0  0  0  0  0  0  0  0999 V2000
   -6.1610   11.4540  -31.1560 N   0  0  0  0  0  0  0  0  0  0  0  0
   -5.0770   12.6190  -29.2410 C   0  0  0  0  0  0  0  0  0  0  0  0
   -6.0060   11.6350  -29.8650 C   0  0  0  0  0  0  0  0  0  0  0  0
   -7.0430   10.4260  -31.2910 N   0  0  0  0  0  0  0  0  0  0  0  0
   -7.4280    9.9910  -30.1340 N   0  0  0  0  0  0  0  0  0  0  0  0
   -6.7910   10.7450  -29.2200 N   0  0  0  0  0  0  0  0  0  0  0  0
  1  3  2  0
  1  4  1  0
  2  3  1  0
  3  6  1  0
  4  5  2  0
  5  6  1  0
A    1
 N  
A    2
 C  
A    3
 C1 
A    4
 N1 
A    5
 N2 
A    6
 N3 
M  END
>  <XChem_code>  (124) 
D68EV3CPROA-x1537

>  <Occupancy>  (124) 
[0.67, 0.67, 0.67, 0.67, 0.67, 0.67]

>  <TempFactor>  (124) 
[19.84, 19.74, 18.86, 19.5, 17.53, 18.3]

>  <RealCrystalName>  (124) 
D68EV3CPROA-x1537

>  <smiles>  (124) 
CC1=NN=NN1

>  <new_smiles>  (124) 
CC1=NN=NN1

>  <alternate_name>  (124) 
Z56761437

>  <site_name>  (124) 
1

>  <pdb_entry>  (124) 
nan

>  <mol>  (124) 
<rdkit.Chem.rdchem.Mol object at 0x1650345f0>

>  <single_smiles>  (124) 
Cc1nnn[nH]1

>  <base_name>  (124) 
D68EV3CPROA-x1537_0A

>  <lig_resn>  (124) 
LIG

>  <lig_resi>  (124) 
201

>  <lig_chain>  (124) 
A

>  <lig_segi>  (124) 


>  <lig_alt>  (124) 


>  <polymer_chain>  (124) 
A

$$$$
x1604_0A§1
     RDKit          3D

 15 16  0  0  0  0  0  0  0  0999 V2000
   -2.2250   15.0480  -29.0690 C   0  0  0  0  0  0  0  0  0  0  0  0
   -2.5240   13.6820  -31.0050 O   0  0  0  0  0  0  0  0  0  0  0  0
   -3.2430   14.3520  -29.9410 C   0  0  2  0  0  0  0  0  0  0  0  0
   -2.7250   12.4690  -32.8290 O   0  0  0  0  0  0  0  0  0  0  0  0
   -4.2730   15.2990  -30.5210 C   0  0  0  0  0  0  0  0  0  0  0  0
   -7.3450   10.1200  -29.0680 O   0  0  0  0  0  0  0  0  0  0  0  0
   -3.1620   12.7220  -31.7330 C   0  0  0  0  0  0  0  0  0  0  0  0
   -3.9100   13.3750  -29.1090 O   0  0  0  0  0  0  0  0  0  0  0  0
   -4.3010   12.0730  -31.0890 C   0  0  0  0  0  0  0  0  0  0  0  0
   -5.0350   11.0750  -31.7270 C   0  0  0  0  0  0  0  0  0  0  0  0
   -6.0580   10.4410  -31.0390 C   0  0  0  0  0  0  0  0  0  0  0  0
   -6.3750   10.7900  -29.7310 C   0  0  0  0  0  0  0  0  0  0  0  0
   -5.6600   11.8040  -29.1130 C   0  0  0  0  0  0  0  0  0  0  0  0
   -4.6330   12.4240  -29.7900 C   0  0  0  0  0  0  0  0  0  0  0  0
   -7.0310    9.0590  -31.8950 Br  0  0  0  0  0  0  0  0  0  0  0  0
  3  1  1  1
  2  3  1  0
  2  7  1  0
  3  5  1  0
  3  8  1  0
  4  7  2  0
  6 12  1  0
  7  9  1  0
  8 14  1  0
  9 10  2  0
  9 14  1  0
 10 11  1  0
 11 12  2  0
 11 15  1  0
 12 13  1  0
 13 14  2  0
A    1
 C  
A    2
 O  
A    3
 C1 
A    4
 O1 
A    5
 C2 
A    6
 O2 
A    7
 C3 
A    8
 O3 
A    9
 C4 
A   10
 C5 
A   11
 C6 
A   12
 C7 
A   13
 C8 
A   14
 C9 
A   15
BR  
M  END
>  <XChem_code>  (125) 
D68EV3CPROA-x1604

>  <Occupancy>  (125) 
[0.7, 0.7, 0.7, 0.7, 0.7, 0.7, 0.7, 0.7, 0.7, 0.7, 0.7, 0.7, 0.7, 0.7, 0.7]

>  <TempFactor>  (125) 
[72.3, 77.66, 74.79, 71.79, 72.05, 62.52, 75.7, 75.21, 75.25, 76.05, 72.74, 67.77, 70.53, 72.83, 84.1]

>  <RealCrystalName>  (125) 
D68EV3CPROA-x1604

>  <smiles>  (125) 
CC1(C)OC(=O)C=2C=C(Br)C(O)=CC2O1

>  <new_smiles>  (125) 
CC1(C)OC(=O)C=2C=C(Br)C(O)=CC2O1

>  <alternate_name>  (125) 
Z1509711879

>  <site_name>  (125) 
1

>  <pdb_entry>  (125) 
nan

>  <mol>  (125) 
<rdkit.Chem.rdchem.Mol object at 0x165034c10>

>  <single_smiles>  (125) 
CC1(C)OC(=O)c2cc(Br)c(O)cc2O1

>  <base_name>  (125) 
D68EV3CPROA-x1604_0A

>  <lig_resn>  (125) 
LIG

>  <lig_resi>  (125) 
201

>  <lig_chain>  (125) 
A

>  <lig_segi>  (125) 


>  <lig_alt>  (125) 


>  <polymer_chain>  (125) 
A

$$$$
x1618_0B§1
     RDKit          3D

 12 13  0  0  0  0  0  0  0  0999 V2000
    1.4950    3.2220  -23.9240 N   0  0  0  0  0  0  0  0  0  0  0  0
    3.8280    0.9650  -25.6280 C   0  0  0  0  0  0  0  0  0  0  0  0
    2.6550    1.7960  -25.2240 C   0  0  0  0  0  0  0  0  0  0  0  0
    2.6390    2.4950  -24.0740 N   0  0  0  0  0  0  0  0  0  0  0  0
    1.4660    2.0630  -25.8590 C   0  0  0  0  0  0  0  0  0  0  0  0
    0.7760    2.9650  -25.0250 C   0  0  0  0  0  0  0  0  0  0  0  0
   -0.5160    3.6360  -25.2580 C   0  0  0  0  0  0  0  0  0  0  0  0
   -0.9590    4.6460  -24.4050 C   0  0  0  0  0  0  0  0  0  0  0  0
   -2.1710    5.2780  -24.6330 C   0  0  0  0  0  0  0  0  0  0  0  0
   -2.9500    4.9200  -25.7090 C   0  0  0  0  0  0  0  0  0  0  0  0
   -2.5220    3.9270  -26.5660 C   0  0  0  0  0  0  0  0  0  0  0  0
   -1.3140    3.2860  -26.3470 C   0  0  0  0  0  0  0  0  0  0  0  0
  1  4  1  0
  1  6  2  0
  2  3  1  0
  3  4  1  0
  3  5  2  0
  5  6  1  0
  6  7  1  0
  7  8  2  0
  7 12  1  0
  8  9  1  0
  9 10  2  0
 10 11  1  0
 11 12  2  0
A    1
 N  
A    2
 C  
A    3
 C1 
A    4
 N1 
A    5
 C2 
A    6
 C3 
A    7
 C4 
A    8
 C5 
A    9
 C6 
A   10
 C7 
A   11
 C8 
A   12
 C9 
M  END
>  <XChem_code>  (126) 
D68EV3CPROA-x1618

>  <Occupancy>  (126) 
[0.64, 0.64, 0.64, 0.64, 0.64, 0.64, 0.64, 0.64, 0.64, 0.64, 0.64, 0.64]

>  <TempFactor>  (126) 
[55.68, 54.19, 55.28, 55.43, 55.76, 55.71, 54.68, 53.91, 53.69, 51.8, 52.72, 53.71]

>  <RealCrystalName>  (126) 
D68EV3CPROA-x1618

>  <smiles>  (126) 
CC1=CC(=NN1)C=2C=CC=CC2

>  <new_smiles>  (126) 
CC1=CC(=NN1)C=2C=CC=CC2

>  <alternate_name>  (126) 
Z667925512

>  <site_name>  (126) 
3

>  <pdb_entry>  (126) 
nan

>  <mol>  (126) 
<rdkit.Chem.rdchem.Mol object at 0x165034cf0>

>  <single_smiles>  (126) 
Cc1cc(-c2ccccc2)n[nH]1

>  <base_name>  (126) 
D68EV3CPROA-x1618_0B

>  <lig_resn>  (126) 
LIG

>  <lig_resi>  (126) 
201

>  <lig_chain>  (126) 
B

>  <lig_segi>  (126) 


>  <lig_alt>  (126) 


>  <polymer_chain>  (126) 
A

$$$$
x1618_0B§2
     RDKit          3D

 12 13  0  0  0  0  0  0  0  0999 V2000
  -12.4920   -0.5660  -14.9360 N   0  0  0  0  0  0  0  0  0  0  0  0
  -13.9440   -3.8050  -15.8520 C   0  0  0  0  0  0  0  0  0  0  0  0
  -13.0520   -2.6970  -15.3950 C   0  0  0  0  0  0  0  0  0  0  0  0
  -13.4350   -1.4080  -15.4460 N   0  0  0  0  0  0  0  0  0  0  0  0
  -11.7980   -2.7100  -14.8370 C   0  0  0  0  0  0  0  0  0  0  0  0
  -11.4870   -1.3660  -14.5520 C   0  0  0  0  0  0  0  0  0  0  0  0
  -10.2960   -0.8140  -13.8790 C   0  0  0  0  0  0  0  0  0  0  0  0
  -10.2440    0.5300  -13.5120 C   0  0  0  0  0  0  0  0  0  0  0  0
   -9.1260    1.0410  -12.8730 C   0  0  0  0  0  0  0  0  0  0  0  0
   -8.0540    0.2260  -12.5880 C   0  0  0  0  0  0  0  0  0  0  0  0
   -8.0950   -1.1070  -12.9390 C   0  0  0  0  0  0  0  0  0  0  0  0
   -9.2060   -1.6290  -13.5800 C   0  0  0  0  0  0  0  0  0  0  0  0
  1  4  1  0
  1  6  2  0
  2  3  1  0
  3  4  1  0
  3  5  2  0
  5  6  1  0
  6  7  1  0
  7  8  2  0
  7 12  1  0
  8  9  1  0
  9 10  2  0
 10 11  1  0
 11 12  2  0
A    1
 N  
A    2
 C  
A    3
 C1 
A    4
 N1 
A    5
 C2 
A    6
 C3 
A    7
 C4 
A    8
 C5 
A    9
 C6 
A   10
 C7 
A   11
 C8 
A   12
 C9 
M  END
>  <XChem_code>  (127) 
D68EV3CPROA-x1618

>  <Occupancy>  (127) 
[0.64, 0.64, 0.64, 0.64, 0.64, 0.64, 0.64, 0.64, 0.64, 0.64, 0.64, 0.64]

>  <TempFactor>  (127) 
[55.68, 54.19, 55.28, 55.43, 55.76, 55.71, 54.68, 53.91, 53.69, 51.8, 52.72, 53.71]

>  <RealCrystalName>  (127) 
D68EV3CPROA-x1618

>  <smiles>  (127) 
CC1=CC(=NN1)C=2C=CC=CC2

>  <new_smiles>  (127) 
CC1=CC(=NN1)C=2C=CC=CC2

>  <alternate_name>  (127) 
Z667925512

>  <site_name>  (127) 
3

>  <pdb_entry>  (127) 
nan

>  <mol>  (127) 
<rdkit.Chem.rdchem.Mol object at 0x165034cf0>

>  <single_smiles>  (127) 
Cc1cc(-c2ccccc2)n[nH]1

>  <base_name>  (127) 
D68EV3CPROA-x1618_0B

>  <lig_resn>  (127) 
LIG

>  <lig_resi>  (127) 
201

>  <lig_chain>  (127) 
B

>  <lig_segi>  (127) 


>  <lig_alt>  (127) 


>  <polymer_chain>  (127) 
B

$$$$
x1498_0B§1
     RDKit          3D

  7  7  0  0  0  0  0  0  0  0999 V2000
   -5.6770   11.4110  -29.8030 N   0  0  0  0  0  0  0  0  0  0  0  0
   -6.5030   10.3810  -30.1480 C   0  0  0  0  0  0  0  0  0  0  0  0
   -7.1170    9.7570  -29.1810 O   0  0  0  0  0  0  0  0  0  0  0  0
   -6.7630   10.0140  -31.4690 C   0  0  0  0  0  0  0  0  0  0  0  0
   -6.1620   10.7610  -32.4710 C   0  0  0  0  0  0  0  0  0  0  0  0
   -5.3280   11.8160  -32.1480 C   0  0  0  0  0  0  0  0  0  0  0  0
   -5.1140   12.0970  -30.8080 C   0  0  0  0  0  0  0  0  0  0  0  0
  1  2  2  0
  1  7  1  0
  2  3  1  0
  2  4  1  0
  4  5  2  0
  5  6  1  0
  6  7  2  0
A    1
 N  
A    2
 C  
A    3
 O  
A    4
 C1 
A    5
 C2 
A    6
 C3 
A    7
 C4 
M  END
>  <XChem_code>  (128) 
D68EV3CPROA-x1498

>  <Occupancy>  (128) 
[0.88, 0.88, 0.88, 0.88, 0.88, 0.88, 0.88]

>  <TempFactor>  (128) 
[42.68, 37.56, 35.8, 40.47, 43.12, 43.66, 44.2]

>  <RealCrystalName>  (128) 
D68EV3CPROA-x1498

>  <smiles>  (128) 
OC=1C=CC=CN1

>  <new_smiles>  (128) 
OC=1C=CC=CN1

>  <alternate_name>  (128) 
Z1741982125

>  <site_name>  (128) 
5

>  <pdb_entry>  (128) 
nan

>  <mol>  (128) 
<rdkit.Chem.rdchem.Mol object at 0x165034430>

>  <single_smiles>  (128) 
Oc1ccccn1

>  <base_name>  (128) 
D68EV3CPROA-x1498_0B

>  <lig_resn>  (128) 
LIG

>  <lig_resi>  (128) 
201

>  <lig_chain>  (128) 
A

>  <lig_segi>  (128) 


>  <lig_alt>  (128) 


>  <polymer_chain>  (128) 
A

$$$$
x1498_0B§2
     RDKit          3D

  7  7  0  0  0  0  0  0  0  0999 V2000
  -18.2570   19.9470  -20.8410 N   0  0  0  0  0  0  0  0  0  0  0  0
  -19.3030   19.1750  -21.2760 C   0  0  0  0  0  0  0  0  0  0  0  0
  -19.7950   18.2360  -20.4320 O   0  0  0  0  0  0  0  0  0  0  0  0
  -19.8620   19.3290  -22.5450 C   0  0  0  0  0  0  0  0  0  0  0  0
  -19.3230   20.2830  -23.3930 C   0  0  0  0  0  0  0  0  0  0  0  0
  -18.2760   21.0720  -22.9710 C   0  0  0  0  0  0  0  0  0  0  0  0
  -17.7810   20.8730  -21.6970 C   0  0  0  0  0  0  0  0  0  0  0  0
  1  2  2  0
  1  7  1  0
  2  3  1  0
  2  4  1  0
  4  5  2  0
  5  6  1  0
  6  7  2  0
A    1
 N  
A    2
 C  
A    3
 O  
A    4
 C1 
A    5
 C2 
A    6
 C3 
A    7
 C4 
M  END
>  <XChem_code>  (129) 
D68EV3CPROA-x1498

>  <Occupancy>  (129) 
[0.88, 0.88, 0.88, 0.88, 0.88, 0.88, 0.88]

>  <TempFactor>  (129) 
[53.3, 52.52, 51.54, 47.0, 49.42, 50.99, 52.44]

>  <RealCrystalName>  (129) 
D68EV3CPROA-x1498

>  <smiles>  (129) 
OC=1C=CC=CN1

>  <new_smiles>  (129) 
OC=1C=CC=CN1

>  <alternate_name>  (129) 
Z1741982125

>  <site_name>  (129) 
5

>  <pdb_entry>  (129) 
nan

>  <mol>  (129) 
<rdkit.Chem.rdchem.Mol object at 0x165034430>

>  <single_smiles>  (129) 
Oc1ccccn1

>  <base_name>  (129) 
D68EV3CPROA-x1498_0B

>  <lig_resn>  (129) 
LIG

>  <lig_resi>  (129) 
201

>  <lig_chain>  (129) 
B

>  <lig_segi>  (129) 


>  <lig_alt>  (129) 


>  <polymer_chain>  (129) 
B

$$$$
x1498_0B§3
     RDKit          3D

  7  7  0  0  0  0  0  0  0  0999 V2000
  -25.7700  -12.6800  -37.0880 N   0  0  0  0  0  0  0  0  0  0  0  0
  -27.0180  -12.3010  -37.4850 C   0  0  0  0  0  0  0  0  0  0  0  0
  -27.2530  -10.9840  -37.6430 O   0  0  0  0  0  0  0  0  0  0  0  0
  -28.0380  -13.2260  -37.7200 C   0  0  0  0  0  0  0  0  0  0  0  0
  -27.7580  -14.5720  -37.5410 C   0  0  0  0  0  0  0  0  0  0  0  0
  -26.5040  -14.9720  -37.1280 C   0  0  0  0  0  0  0  0  0  0  0  0
  -25.5460  -13.9970  -36.9170 C   0  0  0  0  0  0  0  0  0  0  0  0
  1  2  2  0
  1  7  1  0
  2  3  1  0
  2  4  1  0
  4  5  2  0
  5  6  1  0
  6  7  2  0
A    1
 N  
A    2
 C  
A    3
 O  
A    4
 C1 
A    5
 C2 
A    6
 C3 
A    7
 C4 
M  END
>  <XChem_code>  (130) 
D68EV3CPROA-x1498

>  <Occupancy>  (130) 
[0.62, 0.62, 0.62, 0.62, 0.62, 0.62, 0.62]

>  <TempFactor>  (130) 
[32.45, 33.25, 31.28, 30.67, 32.17, 31.98, 32.5]

>  <RealCrystalName>  (130) 
D68EV3CPROA-x1498

>  <smiles>  (130) 
OC=1C=CC=CN1

>  <new_smiles>  (130) 
OC=1C=CC=CN1

>  <alternate_name>  (130) 
Z1741982125

>  <site_name>  (130) 
5

>  <pdb_entry>  (130) 
nan

>  <mol>  (130) 
<rdkit.Chem.rdchem.Mol object at 0x165034430>

>  <single_smiles>  (130) 
Oc1ccccn1

>  <base_name>  (130) 
D68EV3CPROA-x1498_0B

>  <lig_resn>  (130) 
LIG

>  <lig_resi>  (130) 
301

>  <lig_chain>  (130) 
B

>  <lig_segi>  (130) 


>  <lig_alt>  (130) 


>  <polymer_chain>  (130) 
B

$$$$
x0170_0A§1
     RDKit          3D

 12 13  0  0  0  0  0  0  0  0999 V2000
   -0.9740    7.0580  -21.6660 N   0  0  0  0  0  0  0  0  0  0  0  0
   -1.0200    6.2930  -22.5150 C   0  0  0  0  0  0  0  0  0  0  0  0
    0.6730    2.3700  -25.0190 O   0  0  0  0  0  0  0  0  0  0  0  0
   -1.0470    5.3130  -23.5700 C   0  0  0  0  0  0  0  0  0  0  0  0
   -2.1800    4.5440  -25.5700 N   0  0  0  0  0  0  0  0  0  0  0  0
   -2.0600    5.3770  -24.5310 C   0  0  0  0  0  0  0  0  0  0  0  0
    0.9380    4.1020  -22.8380 N   0  0  0  0  0  0  0  0  0  0  0  0
   -1.2640    3.5800  -25.7010 C   0  0  0  0  0  0  0  0  0  0  0  0
   -0.2170    3.3990  -24.8210 C   0  0  0  0  0  0  0  0  0  0  0  0
    1.9530    2.5460  -24.3830 C   0  0  0  0  0  0  0  0  0  0  0  0
    1.7900    2.9330  -22.9490 C   0  0  0  0  0  0  0  0  0  0  0  0
   -0.0990    4.2770  -23.7320 C   0  0  0  0  0  0  0  0  0  0  0  0
  1  2  3  0
  2  4  1  0
  3  9  1  0
  3 10  1  0
  4  6  1  0
  4 12  2  0
  5  6  2  0
  5  8  1  0
  7 11  1  0
  7 12  1  0
  8  9  2  0
  9 12  1  0
 10 11  1  0
A    1
 N  
A    2
 C  
A    3
 O  
A    4
 C1 
A    5
 N1 
A    6
 C2 
A    7
 N2 
A    8
 C3 
A    9
 C4 
A   10
 C5 
A   11
 C6 
A   12
 C7 
M  END
>  <XChem_code>  (131) 
D68EV3CPROA-x0170

>  <Occupancy>  (131) 
[0.58, 0.58, 0.58, 0.58, 0.58, 0.58, 0.58, 0.58, 0.58, 0.58, 0.58, 0.58]

>  <TempFactor>  (131) 
[43.61, 43.36, 38.05, 42.36, 41.32, 42.97, 41.75, 38.88, 40.06, 38.75, 39.46, 41.11]

>  <RealCrystalName>  (131) 
D68EV3CPROA-x0170

>  <smiles>  (131) 
N#Cc1cncc2OCCNc12

>  <new_smiles>  (131) 
N#Cc1cncc2OCCNc12

>  <alternate_name>  (131) 
Z1201628402

>  <site_name>  (131) 
3

>  <pdb_entry>  (131) 
nan

>  <mol>  (131) 
<rdkit.Chem.rdchem.Mol object at 0x16324c580>

>  <single_smiles>  (131) 
N#Cc1cncc2c1NCCO2

>  <base_name>  (131) 
D68EV3CPROA-x0170_0A

>  <lig_resn>  (131) 
LIG

>  <lig_resi>  (131) 
201

>  <lig_chain>  (131) 
A

>  <lig_segi>  (131) 


>  <lig_alt>  (131) 


>  <polymer_chain>  (131) 
A

$$$$
x0170_0A§2
     RDKit          3D

 12 13  0  0  0  0  0  0  0  0999 V2000
  -11.3330    3.7460  -13.1090 N   0  0  0  0  0  0  0  0  0  0  0  0
  -10.9600    2.6800  -13.2960 C   0  0  0  0  0  0  0  0  0  0  0  0
  -11.3530   -1.8540  -15.2490 O   0  0  0  0  0  0  0  0  0  0  0  0
  -10.5220    1.3330  -13.5540 C   0  0  0  0  0  0  0  0  0  0  0  0
   -8.8260   -0.3440  -13.1270 N   0  0  0  0  0  0  0  0  0  0  0  0
   -9.3260    0.8870  -12.9850 C   0  0  0  0  0  0  0  0  0  0  0  0
  -12.4140    0.7190  -14.9640 N   0  0  0  0  0  0  0  0  0  0  0  0
   -9.5200   -1.2140  -13.8670 C   0  0  0  0  0  0  0  0  0  0  0  0
  -10.7110   -0.9040  -14.4900 C   0  0  0  0  0  0  0  0  0  0  0  0
  -12.7620   -1.6240  -15.4400 C   0  0  0  0  0  0  0  0  0  0  0  0
  -13.0200   -0.2220  -15.8870 C   0  0  0  0  0  0  0  0  0  0  0  0
  -11.2280    0.3920  -14.3370 C   0  0  0  0  0  0  0  0  0  0  0  0
  1  2  3  0
  2  4  1  0
  3  9  1  0
  3 10  1  0
  4  6  1  0
  4 12  2  0
  5  6  2  0
  5  8  1  0
  7 11  1  0
  7 12  1  0
  8  9  2  0
  9 12  1  0
 10 11  1  0
A    1
 N  
A    2
 C  
A    3
 O  
A    4
 C1 
A    5
 N1 
A    6
 C2 
A    7
 N2 
A    8
 C3 
A    9
 C4 
A   10
 C5 
A   11
 C6 
A   12
 C7 
M  END
>  <XChem_code>  (132) 
D68EV3CPROA-x0170

>  <Occupancy>  (132) 
[0.58, 0.58, 0.58, 0.58, 0.58, 0.58, 0.58, 0.58, 0.58, 0.58, 0.58, 0.58]

>  <TempFactor>  (132) 
[43.61, 43.36, 38.05, 42.36, 41.32, 42.97, 41.75, 38.88, 40.06, 38.75, 39.46, 41.11]

>  <RealCrystalName>  (132) 
D68EV3CPROA-x0170

>  <smiles>  (132) 
N#Cc1cncc2OCCNc12

>  <new_smiles>  (132) 
N#Cc1cncc2OCCNc12

>  <alternate_name>  (132) 
Z1201628402

>  <site_name>  (132) 
3

>  <pdb_entry>  (132) 
nan

>  <mol>  (132) 
<rdkit.Chem.rdchem.Mol object at 0x16324c580>

>  <single_smiles>  (132) 
N#Cc1cncc2c1NCCO2

>  <base_name>  (132) 
D68EV3CPROA-x0170_0A

>  <lig_resn>  (132) 
LIG

>  <lig_resi>  (132) 
201

>  <lig_chain>  (132) 
A

>  <lig_segi>  (132) 


>  <lig_alt>  (132) 


>  <polymer_chain>  (132) 
B

$$$$
x1251_0B§1
     RDKit          3D

 12 12  0  0  0  0  0  0  0  0999 V2000
   -4.8170    0.0370  -50.0350 N   0  0  0  0  0  0  0  0  0  0  0  0
   -2.9470   -1.4470  -50.7130 C   0  0  0  0  0  0  0  0  0  0  0  0
   -3.9950   -0.4680  -47.9400 O   0  0  0  0  0  0  0  0  0  0  0  0
   -3.6110   -0.0850  -50.8580 C   0  0  0  0  0  0  0  0  0  0  0  0
   -6.0270    0.2870  -50.6210 N   0  0  0  0  0  0  0  0  0  0  0  0
   -6.8940    0.3430  -49.6800 C   0  0  0  0  0  0  0  0  0  0  0  0
   -6.3260    0.2040  -48.3050 C   0  0  0  0  0  0  0  0  0  0  0  0
   -4.9050   -0.1230  -48.6740 C   0  0  0  0  0  0  0  0  0  0  0  0
   -8.3720    0.5480  -49.8450 C   0  0  1  0  0  0  0  0  0  0  0  0
   -9.0160   -0.6020  -49.8550 F   0  0  0  0  0  0  0  0  0  0  0  0
   -8.8920    1.2610  -48.8860 F   0  0  0  0  0  0  0  0  0  0  0  0
   -8.6580    1.1790  -50.9420 F   0  0  0  0  0  0  0  0  0  0  0  0
  1  4  1  0
  1  5  1  0
  1  8  1  0
  2  4  1  0
  3  8  2  0
  5  6  2  0
  6  7  1  0
  6  9  1  0
  7  8  1  0
  9 10  1  6
  9 11  1  0
  9 12  1  0
A    1
 N  
A    2
 C  
A    3
 O  
A    4
 C1 
A    5
 N1 
A    6
 C2 
A    7
 C3 
A    8
 C4 
A    9
 C5 
A   10
 F  
A   11
 F1 
A   12
 F2 
M  END
>  <XChem_code>  (133) 
D68EV3CPROA-x1251

>  <Occupancy>  (133) 
[0.7, 0.7, 0.7, 0.7, 0.7, 0.7, 0.7, 0.7, 0.7, 0.7, 0.7, 0.7]

>  <TempFactor>  (133) 
[43.23, 46.67, 38.88, 44.96, 43.16, 39.21, 39.88, 39.57, 39.22, 42.08, 36.63, 39.5]

>  <RealCrystalName>  (133) 
D68EV3CPROA-x1251

>  <smiles>  (133) 
CCN1N=C(CC1=O)C(F)(F)F

>  <new_smiles>  (133) 
CCN1N=C(CC1=O)C(F)(F)F

>  <alternate_name>  (133) 
Z802540802

>  <site_name>  (133) 
2

>  <pdb_entry>  (133) 
nan

>  <mol>  (133) 
<rdkit.Chem.rdchem.Mol object at 0x164f2b920>

>  <single_smiles>  (133) 
CCN1N=C(C(F)(F)F)CC1=O

>  <base_name>  (133) 
D68EV3CPROA-x1251_0B

>  <lig_resn>  (133) 
LIG

>  <lig_resi>  (133) 
201

>  <lig_chain>  (133) 
B

>  <lig_segi>  (133) 


>  <lig_alt>  (133) 


>  <polymer_chain>  (133) 
B

$$$$
x1200_0B§1
     RDKit          3D

 16 16  0  0  0  0  0  0  0  0999 V2000
   -3.6510    3.2970  -51.3860 N   0  0  0  0  0  0  0  0  0  0  0  0
   -1.6980    4.3770  -52.3600 C   0  0  0  0  0  0  0  0  0  0  0  0
   -2.5620    4.4200  -49.2730 O   0  0  0  0  0  0  0  0  0  0  0  0
   -3.0450    4.6080  -51.6800 C   0  0  2  0  0  0  0  0  0  0  0  0
   -5.2210    1.7640  -50.7770 N   0  0  0  0  0  0  0  0  0  0  0  0
   -3.3100    6.3940  -53.3800 O   0  0  0  0  0  0  0  0  0  0  0  0
   -2.8500    5.3150  -50.3410 C   0  0  0  0  0  0  0  0  0  0  0  0
   -5.7880    3.9650  -50.9720 O   0  0  0  0  0  0  0  0  0  0  0  0
   -3.9690    5.4190  -52.5860 C   0  0  0  0  0  0  0  0  0  0  0  0
   -4.9380    3.0780  -51.0290 C   0  0  0  0  0  0  0  0  0  0  0  0
   -6.4540    1.2450  -50.3420 C   0  0  0  0  0  0  0  0  0  0  0  0
   -7.6370    1.4260  -51.0440 C   0  0  0  0  0  0  0  0  0  0  0  0
   -8.8230    0.9280  -50.5340 C   0  0  0  0  0  0  0  0  0  0  0  0
   -8.8350    0.2550  -49.3310 C   0  0  0  0  0  0  0  0  0  0  0  0
   -7.6650    0.0780  -48.6340 C   0  0  0  0  0  0  0  0  0  0  0  0
   -6.4720    0.5640  -49.1330 C   0  0  0  0  0  0  0  0  0  0  0  0
  1  4  1  0
  1 10  1  0
  4  2  1  6
  3  7  1  0
  4  7  1  0
  4  9  1  0
  5 10  1  0
  5 11  1  0
  6  9  1  0
  8 10  2  0
 11 12  2  0
 11 16  1  0
 12 13  1  0
 13 14  2  0
 14 15  1  0
 15 16  2  0
A    1
 N  
A    2
 C  
A    3
 O  
A    4
 C1 
A    5
 N1 
A    6
 O1 
A    7
 C2 
A    8
 O2 
A    9
 C3 
A   10
 C4 
A   11
 C5 
A   12
 C6 
A   13
 C7 
A   14
 C8 
A   15
 C9 
A   16
 C10
M  END
>  <XChem_code>  (134) 
D68EV3CPROA-x1200

>  <Occupancy>  (134) 
[0.66, 0.66, 0.66, 0.66, 0.66, 0.66, 0.66, 0.66, 0.66, 0.66, 0.66, 0.66, 0.66, 0.66, 0.66, 0.66]

>  <TempFactor>  (134) 
[66.33, 68.9, 64.01, 69.19, 59.78, 75.43, 67.44, 63.43, 72.71, 63.25, 53.01, 50.16, 48.49, 47.26, 48.01, 50.11]

>  <RealCrystalName>  (134) 
D68EV3CPROA-x1200

>  <smiles>  (134) 
CC(CO)(CO)NC(=O)Nc1ccccc1

>  <new_smiles>  (134) 
CC(CO)(CO)NC(=O)Nc1ccccc1

>  <alternate_name>  (134) 
Z57472297

>  <site_name>  (134) 
2

>  <pdb_entry>  (134) 
nan

>  <mol>  (134) 
<rdkit.Chem.rdchem.Mol object at 0x164f2b7d0>

>  <single_smiles>  (134) 
CC(CO)(CO)NC(=O)Nc1ccccc1

>  <base_name>  (134) 
D68EV3CPROA-x1200_0B

>  <lig_resn>  (134) 
LIG

>  <lig_resi>  (134) 
201

>  <lig_chain>  (134) 
B

>  <lig_segi>  (134) 


>  <lig_alt>  (134) 


>  <polymer_chain>  (134) 
B

$$$$
x1339_0A§1
     RDKit          3D

 13 13  0  0  0  0  0  0  0  0999 V2000
  -21.3440  -11.8000  -21.2770 N   0  0  0  0  0  0  0  0  0  0  0  0
  -19.0490  -11.8050  -20.3870 C   0  0  0  0  0  0  0  0  0  0  0  0
  -19.9620  -13.4920  -21.7920 O   0  0  0  0  0  0  0  0  0  0  0  0
  -20.1390  -12.4370  -21.2040 C   0  0  0  0  0  0  0  0  0  0  0  0
  -21.1300  -12.2520  -24.7150 O   0  0  0  0  0  0  0  0  0  0  0  0
  -22.0700  -11.7720  -22.5490 C   0  0  1  0  0  0  0  0  0  0  0  0
  -20.5730  -10.3480  -23.7020 O   0  0  0  0  0  0  0  0  0  0  0  0
  -23.1030  -10.6710  -22.3160 C   0  0  0  0  0  0  0  0  0  0  0  0
  -23.4450  -10.8300  -20.8300 C   0  0  0  0  0  0  0  0  0  0  0  0
  -22.1120  -11.1790  -20.1670 C   0  0  2  0  0  0  0  0  0  0  0  0
  -21.4090   -9.9650  -19.5730 C   0  0  0  0  0  0  0  0  0  0  0  0
  -21.2140  -11.5070  -23.7810 C   0  0  0  0  0  0  0  0  0  0  0  0
  -20.3910   -9.6310  -24.9510 C   0  0  0  0  0  0  0  0  0  0  0  0
  1  4  1  0
  1  6  1  0
  1 10  1  0
  2  4  1  0
  3  4  2  0
  5 12  2  0
  6  8  1  0
  6 12  1  6
  7 12  1  0
  7 13  1  0
  8  9  1  0
  9 10  1  0
 10 11  1  6
A    1
 N  
A    2
 C  
A    3
 O  
A    4
 C1 
A    5
 O1 
A    6
 C2 
A    7
 O2 
A    8
 C3 
A    9
 C4 
A   10
 C5 
A   11
 C6 
A   12
 C7 
A   13
 C8 
M  END
>  <XChem_code>  (135) 
D68EV3CPROA-x1339

>  <Occupancy>  (135) 
[0.82, 0.82, 0.82, 0.82, 0.82, 0.82, 0.82, 0.82, 0.82, 0.82, 0.82, 0.82, 0.82]

>  <TempFactor>  (135) 
[61.29, 59.89, 61.02, 61.27, 45.03, 57.85, 48.16, 62.1, 64.93, 66.09, 66.09, 49.66, 44.77]

>  <RealCrystalName>  (135) 
D68EV3CPROA-x1339

>  <smiles>  (135) 
CC(=O)N1[C@@H](CC[C@@H]1C)C(=O)OC

>  <new_smiles>  (135) 
CC(=O)N1[C@@H](CC[C@@H]1C)C(=O)OC

>  <alternate_name>  (135) 
POB0050

>  <site_name>  (135) 
5

>  <pdb_entry>  (135) 
nan

>  <mol>  (135) 
<rdkit.Chem.rdchem.Mol object at 0x164f2bd80>

>  <single_smiles>  (135) 
COC(=O)[C@@H]1CC[C@H](C)N1C(C)=O

>  <base_name>  (135) 
D68EV3CPROA-x1339_0A

>  <lig_resn>  (135) 
LIG

>  <lig_resi>  (135) 
201

>  <lig_chain>  (135) 
A

>  <lig_segi>  (135) 


>  <lig_alt>  (135) 


>  <polymer_chain>  (135) 
A

$$$$
x1133_0B§1
     RDKit          3D

 15 16  0  0  0  0  0  0  0  0999 V2000
   -7.6120    2.4210  -51.8360 N   0  0  0  0  0  0  0  0  0  0  0  0
   -6.1850    3.2680  -53.6790 C   0  0  0  0  0  0  0  0  0  0  0  0
   -3.4490   -1.3260  -50.9370 O   0  0  0  0  0  0  0  0  0  0  0  0
   -6.4300    2.6030  -52.3740 C   0  0  0  0  0  0  0  0  0  0  0  0
   -5.4240    2.0640  -51.6130 N   0  0  0  0  0  0  0  0  0  0  0  0
   -7.3840    1.7080  -50.6610 C   0  0  0  0  0  0  0  0  0  0  0  0
   -1.9620    0.3090  -50.5480 N   0  0  0  0  0  0  0  0  0  0  0  0
   -8.2870    1.1850  -49.7380 C   0  0  0  0  0  0  0  0  0  0  0  0
   -7.7880    0.4520  -48.6700 C   0  0  0  0  0  0  0  0  0  0  0  0
   -6.4170    0.2590  -48.5090 C   0  0  0  0  0  0  0  0  0  0  0  0
   -5.5110    0.7830  -49.4210 C   0  0  0  0  0  0  0  0  0  0  0  0
   -6.0210    1.4900  -50.4990 C   0  0  0  0  0  0  0  0  0  0  0  0
   -3.9880    2.0110  -51.9020 C   0  0  0  0  0  0  0  0  0  0  0  0
   -3.5450    0.6190  -52.3300 C   0  0  0  0  0  0  0  0  0  0  0  0
   -2.9790   -0.2170  -51.2060 C   0  0  0  0  0  0  0  0  0  0  0  0
  1  4  2  0
  1  6  1  0
  2  4  1  0
  3 15  2  0
  4  5  1  0
  5 12  1  0
  5 13  1  0
  6  8  2  0
  6 12  1  0
  7 15  1  0
  8  9  1  0
  9 10  2  0
 10 11  1  0
 11 12  2  0
 13 14  1  0
 14 15  1  0
A    1
 N  
A    2
 C  
A    3
 O  
A    4
 C1 
A    5
 N1 
A    6
 C2 
A    7
 N2 
A    8
 C3 
A    9
 C4 
A   10
 C5 
A   11
 C6 
A   12
 C7 
A   13
 C8 
A   14
 C9 
A   15
 C10
M  END
>  <XChem_code>  (136) 
D68EV3CPROA-x1133

>  <Occupancy>  (136) 
[0.52, 0.52, 0.52, 0.52, 0.52, 0.52, 0.52, 0.52, 0.52, 0.52, 0.52, 0.52, 0.52, 0.52, 0.52]

>  <TempFactor>  (136) 
[88.03, 87.26, 61.81, 87.84, 82.69, 85.17, 67.59, 81.21, 81.37, 83.38, 83.68, 82.83, 75.26, 70.72, 66.81]

>  <RealCrystalName>  (136) 
D68EV3CPROA-x1133

>  <smiles>  (136) 
Cc1nc2ccccc2n1CCC(=O)N

>  <new_smiles>  (136) 
Cc1nc2ccccc2n1CCC(=O)N

>  <alternate_name>  (136) 
Z53116498

>  <site_name>  (136) 
2

>  <pdb_entry>  (136) 
nan

>  <mol>  (136) 
<rdkit.Chem.rdchem.Mol object at 0x164f2b4c0>

>  <single_smiles>  (136) 
Cc1nc2ccccc2n1CCC(N)=O

>  <base_name>  (136) 
D68EV3CPROA-x1133_0B

>  <lig_resn>  (136) 
LIG

>  <lig_resi>  (136) 
201

>  <lig_chain>  (136) 
B

>  <lig_segi>  (136) 


>  <lig_alt>  (136) 
A

>  <polymer_chain>  (136) 
B

$$$$
x1133_0B§2
     RDKit          3D

 15 16  0  0  0  0  0  0  0  0999 V2000
   -5.5690    1.4240  -51.7250 N   0  0  0  0  0  0  0  0  0  0  0  0
   -6.3910    2.7740  -53.6360 C   0  0  0  0  0  0  0  0  0  0  0  0
  -11.1160    4.3220  -51.1680 O   0  0  0  0  0  0  0  0  0  0  0  0
   -6.5230    2.0990  -52.3200 C   0  0  0  0  0  0  0  0  0  0  0  0
   -7.6890    2.0940  -51.6010 N   0  0  0  0  0  0  0  0  0  0  0  0
   -6.1350    0.9350  -50.5510 C   0  0  0  0  0  0  0  0  0  0  0  0
  -10.1850    6.2710  -51.7760 N   0  0  0  0  0  0  0  0  0  0  0  0
   -5.5790    0.1580  -49.5370 C   0  0  0  0  0  0  0  0  0  0  0  0
   -6.3820   -0.2060  -48.4670 C   0  0  0  0  0  0  0  0  0  0  0  0
   -7.7170    0.1850  -48.4080 C   0  0  0  0  0  0  0  0  0  0  0  0
   -8.2790    0.9680  -49.4040 C   0  0  0  0  0  0  0  0  0  0  0  0
   -7.4640    1.3350  -50.4640 C   0  0  0  0  0  0  0  0  0  0  0  0
   -8.9440    2.7790  -51.9240 C   0  0  0  0  0  0  0  0  0  0  0  0
   -8.8180    4.2900  -51.8130 C   0  0  0  0  0  0  0  0  0  0  0  0
  -10.1420    4.9650  -51.5580 C   0  0  0  0  0  0  0  0  0  0  0  0
  1  4  2  0
  1  6  1  0
  2  4  1  0
  3 15  2  0
  4  5  1  0
  5 12  1  0
  5 13  1  0
  6  8  2  0
  6 12  1  0
  7 15  1  0
  8  9  1  0
  9 10  2  0
 10 11  1  0
 11 12  2  0
 13 14  1  0
 14 15  1  0
A    1
 N  
A    2
 C  
A    3
 O  
A    4
 C1 
A    5
 N1 
A    6
 C2 
A    7
 N2 
A    8
 C3 
A    9
 C4 
A   10
 C5 
A   11
 C6 
A   12
 C7 
A   13
 C8 
A   14
 C9 
A   15
 C10
M  END
>  <XChem_code>  (137) 
D68EV3CPROA-x1133

>  <Occupancy>  (137) 
[0.29, 0.29, 0.29, 0.29, 0.29, 0.29, 0.29, 0.29, 0.29, 0.29, 0.29, 0.29, 0.29, 0.29, 0.29]

>  <TempFactor>  (137) 
[66.91, 66.54, 49.99, 66.76, 63.72, 65.33, 50.2, 66.51, 66.06, 64.63, 63.6, 65.0, 59.22, 54.81, 50.89]

>  <RealCrystalName>  (137) 
D68EV3CPROA-x1133

>  <smiles>  (137) 
Cc1nc2ccccc2n1CCC(=O)N

>  <new_smiles>  (137) 
Cc1nc2ccccc2n1CCC(=O)N

>  <alternate_name>  (137) 
Z53116498

>  <site_name>  (137) 
2

>  <pdb_entry>  (137) 
nan

>  <mol>  (137) 
<rdkit.Chem.rdchem.Mol object at 0x164f2b4c0>

>  <single_smiles>  (137) 
Cc1nc2ccccc2n1CCC(N)=O

>  <base_name>  (137) 
D68EV3CPROA-x1133_0B

>  <lig_resn>  (137) 
LIG

>  <lig_resi>  (137) 
201

>  <lig_chain>  (137) 
B

>  <lig_segi>  (137) 


>  <lig_alt>  (137) 
B

>  <polymer_chain>  (137) 
B

$$$$
x0105_0A§1
     RDKit          3D

 15 15  0  0  0  0  0  0  0  0999 V2000
  -24.9810  -11.6150  -19.7150 C   0  0  0  0  0  0  0  0  0  0  0  0
  -24.0790  -10.5320  -19.9430 O   0  0  0  0  0  0  0  0  0  0  0  0
  -22.9460  -10.7960  -20.6590 C   0  0  0  0  0  0  0  0  0  0  0  0
  -19.3970  -10.8230  -19.8590 O   0  0  0  0  0  0  0  0  0  0  0  0
  -22.9420  -11.2110  -21.9780 C   0  0  0  0  0  0  0  0  0  0  0  0
  -21.7410  -10.1640  -18.6730 O   0  0  0  0  0  0  0  0  0  0  0  0
  -21.7380  -11.5000  -22.6160 C   0  0  0  0  0  0  0  0  0  0  0  0
  -20.7650  -11.7980  -24.7630 O   0  0  0  0  0  0  0  0  0  0  0  0
  -20.5340  -11.3810  -21.9270 C   0  0  0  0  0  0  0  0  0  0  0  0
  -22.8560  -12.4920  -24.4300 O   0  0  0  0  0  0  0  0  0  0  0  0
  -20.5300  -10.9590  -20.6090 C   0  0  0  0  0  0  0  0  0  0  0  0
  -18.4980  -11.9320  -19.8100 C   0  0  0  0  0  0  0  0  0  0  0  0
  -21.7380  -10.6490  -19.9670 C   0  0  0  0  0  0  0  0  0  0  0  0
  -21.9950   -8.7660  -18.5430 C   0  0  0  0  0  0  0  0  0  0  0  0
  -21.7400  -11.9380  -24.0380 C   0  0  0  0  0  0  0  0  0  0  0  0
  1  2  1  0
  2  3  1  0
  3  5  2  0
  3 13  1  0
  4 11  1  0
  4 12  1  0
  5  7  1  0
  6 13  1  0
  6 14  1  0
  7  9  2  0
  7 15  1  0
  8 15  2  0
  9 11  1  0
 10 15  1  0
 11 13  2  0
A    1
 C  
A    2
 O  
A    3
 C1 
A    4
 O1 
A    5
 C2 
A    6
 O2 
A    7
 C3 
A    8
 O3 
A    9
 C4 
A   10
 O4 
A   11
 C5 
A   12
 C6 
A   13
 C7 
A   14
 C8 
A   15
 C9 
M  END
>  <XChem_code>  (138) 
D68EV3CPROA-x0105

>  <Occupancy>  (138) 
[0.78, 0.78, 0.78, 0.78, 0.78, 0.78, 0.78, 0.78, 0.78, 0.78, 0.78, 0.78, 0.78, 0.78, 0.78]

>  <TempFactor>  (138) 
[62.14, 64.33, 59.57, 48.43, 55.19, 56.29, 51.28, 41.65, 52.9, 47.4, 54.08, 49.83, 58.36, 55.73, 47.82]

>  <RealCrystalName>  (138) 
D68EV3CPROA-x0105

>  <smiles>  (138) 
COc1cc(cc(OC)c1OC)C(=O)O

>  <new_smiles>  (138) 
COc1cc(cc(OC)c1OC)C(=O)O

>  <alternate_name>  (138) 
Z104475702

>  <site_name>  (138) 
5

>  <pdb_entry>  (138) 
nan

>  <mol>  (138) 
<rdkit.Chem.rdchem.Mol object at 0x16324d2a0>

>  <single_smiles>  (138) 
COc1cc(C(=O)O)cc(OC)c1OC

>  <base_name>  (138) 
D68EV3CPROA-x0105_0A

>  <lig_resn>  (138) 
LIG

>  <lig_resi>  (138) 
201

>  <lig_chain>  (138) 
A

>  <lig_segi>  (138) 


>  <lig_alt>  (138) 


>  <polymer_chain>  (138) 
A

$$$$
x1064_1B§1
     RDKit          3D

 14 14  0  0  0  0  0  0  0  0999 V2000
   -4.1650   -0.2450  -49.6340 N   0  0  0  0  0  0  0  0  0  0  0  0
   -4.8910    2.0600  -50.9190 C   0  0  0  0  0  0  0  0  0  0  0  0
   -4.1260    1.8890  -48.4390 O   0  0  0  0  0  0  0  0  0  0  0  0
   -4.2190    3.2750  -50.9530 C   0  0  0  0  0  0  0  0  0  0  0  0
   -6.2740    0.8600  -49.0850 O   0  0  0  0  0  0  0  0  0  0  0  0
   -4.2000    4.0100  -52.1270 C   0  0  0  0  0  0  0  0  0  0  0  0
   -6.1500    0.3470  -51.9520 O   0  0  0  0  0  0  0  0  0  0  0  0
   -4.8350    3.5390  -53.2550 C   0  0  0  0  0  0  0  0  0  0  0  0
   -5.4970    2.3210  -53.2350 C   0  0  0  0  0  0  0  0  0  0  0  0
   -5.5370    1.5730  -52.0680 C   0  0  0  0  0  0  0  0  0  0  0  0
   -7.3220    0.0020  -52.5690 C   0  0  2  0  0  0  0  0  0  0  0  0
   -7.0200   -0.9720  -53.4390 F   0  0  0  0  0  0  0  0  0  0  0  0
   -7.8470    0.9580  -53.3570 F   0  0  0  0  0  0  0  0  0  0  0  0
   -4.9050    1.1530  -49.3920 S   0  0  2  0  0  0  0  0  0  0  0  0
 14  1  1  6
  2  4  2  0
  2 10  1  0
  2 14  1  0
  3 14  2  0
  4  6  1  0
  5 14  2  0
  6  8  2  0
  7 10  1  0
  7 11  1  0
  8  9  1  0
  9 10  2  0
 11 12  1  6
 11 13  1  0
A    1
 N  
A    2
 C  
A    3
 O  
A    4
 C1 
A    5
 O1 
A    6
 C2 
A    7
 O2 
A    8
 C3 
A    9
 C4 
A   10
 C5 
A   11
 C6 
A   12
 F  
A   13
 F1 
A   14
 S  
M  END
>  <XChem_code>  (139) 
D68EV3CPROA-x1064

>  <Occupancy>  (139) 
[0.8, 0.8, 0.8, 0.8, 0.8, 0.8, 0.8, 0.8, 0.8, 0.8, 0.8, 0.8, 0.8, 0.8]

>  <TempFactor>  (139) 
[122.94, 124.76, 136.38, 118.93, 130.39, 117.1, 131.59, 118.32, 120.64, 125.14, 132.27, 127.97, 136.09, 131.08]

>  <RealCrystalName>  (139) 
D68EV3CPROA-x1064

>  <smiles>  (139) 
NS(=O)(=O)c1ccccc1OC(F)F

>  <new_smiles>  (139) 
NS(=O)(=O)c1ccccc1OC(F)F

>  <alternate_name>  (139) 
Z385450668

>  <site_name>  (139) 
2

>  <pdb_entry>  (139) 
nan

>  <mol>  (139) 
<rdkit.Chem.rdchem.Mol object at 0x164f2b220>

>  <single_smiles>  (139) 
NS(=O)(=O)c1ccccc1OC(F)F

>  <base_name>  (139) 
D68EV3CPROA-x1064_1B

>  <lig_resn>  (139) 
LIG

>  <lig_resi>  (139) 
201

>  <lig_chain>  (139) 
B

>  <lig_segi>  (139) 


>  <lig_alt>  (139) 


>  <polymer_chain>  (139) 
B

$$$$
x1064_1B§2
     RDKit          3D

 14 15  0  0  0  0  0  0  0  0999 V2000
   -2.9430    4.2360  -24.5810 N   0  0  0  0  0  0  0  0  0  0  0  0
   -0.3370    3.7940  -25.2670 C   0  0  2  0  0  0  0  0  0  0  0  0
   -1.4980    6.0990  -25.2140 O   0  0  0  0  0  0  0  0  0  0  0  0
    0.1750    3.0130  -26.2920 C   0  0  0  0  0  0  0  0  0  0  0  0
   -2.2420    4.4530  -26.9110 O   0  0  0  0  0  0  0  0  0  0  0  0
    1.2460    2.1750  -26.0340 C   0  0  0  0  0  0  0  0  0  0  0  0
   -0.3440    4.5600  -23.0420 O   0  0  0  0  0  0  0  0  0  0  0  0
    1.8140    2.1320  -24.7780 C   0  0  0  0  0  0  0  0  0  0  0  0
    1.3230    2.9270  -23.7550 C   0  0  0  0  0  0  0  0  0  0  0  0
    0.2420    3.7640  -23.9910 C   0  0  0  0  0  0  0  0  0  0  0  0
    0.4260    5.3810  -22.3720 C   0  0  1  0  0  0  0  0  0  0  0  0
   -0.0970    6.6000  -22.3530 F   0  0  0  0  0  0  0  0  0  0  0  0
    0.1910    4.6350  -21.3270 F   0  0  0  0  0  0  0  0  0  0  0  0
   -1.7990    4.7440  -25.5760 S   0  0  2  0  0  0  0  0  0  0  0  0
 14  1  1  1
  2  4  1  1
  2 10  1  0
  2 14  1  0
  3 14  1  0
  4  6  1  0
  5 14  1  0
  6  8  1  0
  7 10  1  0
  7 11  1  0
  7 13  1  0
  8  9  1  0
  9 10  1  0
 11 12  1  1
 11 13  1  0
A    1
 N  
A    2
 C  
A    3
 O  
A    4
 C1 
A    5
 O1 
A    6
 C2 
A    7
 O2 
A    8
 C3 
A    9
 C4 
A   10
 C5 
A   11
 C6 
A   12
 F  
A   13
 F1 
A   14
 S  
M  END
>  <XChem_code>  (140) 
D68EV3CPROA-x1064

>  <Occupancy>  (140) 
[0.6, 0.6, 0.6, 0.6, 0.6, 0.6, 0.6, 0.6, 0.6, 0.6, 0.6, 0.6, 0.6, 0.6]

>  <TempFactor>  (140) 
[40.5, 39.08, 44.55, 37.78, 42.75, 37.25, 37.51, 36.67, 35.55, 38.41, 36.35, 40.3, 37.28, 46.25]

>  <RealCrystalName>  (140) 
D68EV3CPROA-x1064

>  <smiles>  (140) 
NS(=O)(=O)c1ccccc1OC(F)F

>  <new_smiles>  (140) 
NS(=O)(=O)c1ccccc1OC(F)F

>  <alternate_name>  (140) 
Z385450668

>  <site_name>  (140) 
2

>  <pdb_entry>  (140) 
nan

>  <mol>  (140) 
<rdkit.Chem.rdchem.Mol object at 0x164f2b220>

>  <single_smiles>  (140) 
NS(=O)(=O)c1ccccc1OC(F)F

>  <base_name>  (140) 
D68EV3CPROA-x1064_1B

>  <lig_resn>  (140) 
LIG

>  <lig_resi>  (140) 
301

>  <lig_chain>  (140) 
B

>  <lig_segi>  (140) 


>  <lig_alt>  (140) 


>  <polymer_chain>  (140) 
A

$$$$
x1064_1B§3
     RDKit          3D

 14 15  0  0  0  0  0  0  0  0999 V2000
   -8.3650    0.6420  -13.8810 N   0  0  0  0  0  0  0  0  0  0  0  0
  -10.6210   -0.8990  -13.8770 C   0  0  2  0  0  0  0  0  0  0  0  0
   -9.8930    0.6900  -11.9770 O   0  0  0  0  0  0  0  0  0  0  0  0
  -10.7350   -2.2770  -13.9690 C   0  0  0  0  0  0  0  0  0  0  0  0
   -8.5030   -1.3130  -12.4220 O   0  0  0  0  0  0  0  0  0  0  0  0
  -11.6880   -2.8220  -14.8120 C   0  0  0  0  0  0  0  0  0  0  0  0
  -11.2780    1.2850  -14.4550 O   0  0  0  0  0  0  0  0  0  0  0  0
  -12.5300   -2.0050  -15.5360 C   0  0  0  0  0  0  0  0  0  0  0  0
  -12.4360   -0.6270  -15.4320 C   0  0  0  0  0  0  0  0  0  0  0  0
  -11.4800   -0.0620  -14.6010 C   0  0  0  0  0  0  0  0  0  0  0  0
  -12.3090    2.0270  -14.1360 C   0  0  1  0  0  0  0  0  0  0  0  0
  -12.0090    2.8340  -13.1260 F   0  0  0  0  0  0  0  0  0  0  0  0
  -12.2190    2.5410  -15.3330 F   0  0  0  0  0  0  0  0  0  0  0  0
   -9.2990   -0.2220  -12.9110 S   0  0  2  0  0  0  0  0  0  0  0  0
 14  1  1  6
  2  4  1  6
  2 10  1  0
  2 14  1  0
  3 14  1  0
  4  6  1  0
  5 14  1  0
  6  8  1  0
  7 10  1  0
  7 11  1  0
  7 13  1  0
  8  9  1  0
  9 10  1  0
 11 12  1  1
 11 13  1  0
A    1
 N  
A    2
 C  
A    3
 O  
A    4
 C1 
A    5
 O1 
A    6
 C2 
A    7
 O2 
A    8
 C3 
A    9
 C4 
A   10
 C5 
A   11
 C6 
A   12
 F  
A   13
 F1 
A   14
 S  
M  END
>  <XChem_code>  (141) 
D68EV3CPROA-x1064

>  <Occupancy>  (141) 
[0.6, 0.6, 0.6, 0.6, 0.6, 0.6, 0.6, 0.6, 0.6, 0.6, 0.6, 0.6, 0.6, 0.6]

>  <TempFactor>  (141) 
[40.5, 39.08, 44.55, 37.78, 42.75, 37.25, 37.51, 36.67, 35.55, 38.41, 36.35, 40.3, 37.28, 46.25]

>  <RealCrystalName>  (141) 
D68EV3CPROA-x1064

>  <smiles>  (141) 
NS(=O)(=O)c1ccccc1OC(F)F

>  <new_smiles>  (141) 
NS(=O)(=O)c1ccccc1OC(F)F

>  <alternate_name>  (141) 
Z385450668

>  <site_name>  (141) 
2

>  <pdb_entry>  (141) 
nan

>  <mol>  (141) 
<rdkit.Chem.rdchem.Mol object at 0x164f2b220>

>  <single_smiles>  (141) 
NS(=O)(=O)c1ccccc1OC(F)F

>  <base_name>  (141) 
D68EV3CPROA-x1064_1B

>  <lig_resn>  (141) 
LIG

>  <lig_resi>  (141) 
301

>  <lig_chain>  (141) 
B

>  <lig_segi>  (141) 


>  <lig_alt>  (141) 


>  <polymer_chain>  (141) 
B

$$$$
x1599_0B§1
     RDKit          3D

 16 17  0  0  0  0  0  0  0  0999 V2000
  -28.9330    9.1630  -39.5310 N   0  0  0  0  0  0  0  0  0  0  0  0
  -31.0500    8.9360  -35.1150 C   0  0  0  0  0  0  0  0  0  0  0  0
  -31.8090    8.1930  -34.3240 O   0  0  0  0  0  0  0  0  0  0  0  0
  -30.7500    8.3270  -36.4320 C   0  0  0  0  0  0  0  0  0  0  0  0
  -29.4000    8.1430  -41.5720 N   0  0  0  0  0  0  0  0  0  0  0  0
  -30.5930   10.0290  -34.8010 O   0  0  0  0  0  0  0  0  0  0  0  0
  -31.2840    7.0840  -36.7730 C   0  0  0  0  0  0  0  0  0  0  0  0
  -27.7430    9.8690  -41.3400 N   0  0  0  0  0  0  0  0  0  0  0  0
  -30.9990    6.5140  -37.9990 C   0  0  0  0  0  0  0  0  0  0  0  0
  -30.2030    7.1900  -38.9110 C   0  0  0  0  0  0  0  0  0  0  0  0
  -29.6950    8.4460  -38.5930 C   0  0  0  0  0  0  0  0  0  0  0  0
  -28.6560    9.0120  -40.8570 C   0  0  0  0  0  0  0  0  0  0  0  0
  -29.1900    8.1640  -42.8940 C   0  0  0  0  0  0  0  0  0  0  0  0
  -28.2680    8.9930  -43.5040 C   0  0  0  0  0  0  0  0  0  0  0  0
  -27.5540    9.8280  -42.6660 C   0  0  0  0  0  0  0  0  0  0  0  0
  -29.9310    8.9950  -37.3400 C   0  0  0  0  0  0  0  0  0  0  0  0
  1 11  1  0
  1 12  1  0
  2  3  2  0
  2  4  1  0
  2  6  1  0
  4  7  2  0
  4 16  1  0
  5 12  2  0
  5 13  1  0
  7  9  1  0
  8 12  1  0
  8 15  2  0
  9 10  2  0
 10 11  1  0
 11 16  2  0
 13 14  2  0
 14 15  1  0
A    1
 N  
A    2
 C  
A    3
 O  
A    4
 C1 
A    5
 N1 
A    6
 O1 
A    7
 C2 
A    8
 N2 
A    9
 C3 
A   10
 C4 
A   11
 C5 
A   12
 C6 
A   13
 C7 
A   14
 C8 
A   15
 C9 
A   16
 C10
M  END
>  <XChem_code>  (142) 
D68EV3CPROA-x1599

>  <Occupancy>  (142) 
[0.69, 0.69, 0.69, 0.69, 0.69, 0.69, 0.69, 0.69, 0.69, 0.69, 0.69, 0.69, 0.69, 0.69, 0.69, 0.69]

>  <TempFactor>  (142) 
[26.33, 28.7, 30.37, 28.37, 23.39, 26.2, 27.0, 21.59, 27.1, 26.54, 26.12, 24.31, 23.1, 24.59, 23.78, 25.74]

>  <RealCrystalName>  (142) 
D68EV3CPROA-x1599

>  <smiles>  (142) 
OC(=O)C=1C=CC=C(NC=2N=CC=CN2)C1

>  <new_smiles>  (142) 
OC(=O)C=1C=CC=C(NC=2N=CC=CN2)C1

>  <alternate_name>  (142) 
Z228589380

>  <site_name>  (142) 
4

>  <pdb_entry>  (142) 
nan

>  <mol>  (142) 
<rdkit.Chem.rdchem.Mol object at 0x165034ba0>

>  <single_smiles>  (142) 
O=C(O)c1cccc(Nc2ncccn2)c1

>  <base_name>  (142) 
D68EV3CPROA-x1599_0B

>  <lig_resn>  (142) 
LIG

>  <lig_resi>  (142) 
201

>  <lig_chain>  (142) 
B

>  <lig_segi>  (142) 


>  <lig_alt>  (142) 


>  <polymer_chain>  (142) 
B

$$$$
x1527_0A§1
     RDKit          3D

  7  7  0  0  0  0  0  0  0  0999 V2000
  -18.1760  -12.4040  -50.5660 N   0  0  0  0  0  0  0  0  0  0  0  0
  -19.3270  -12.8880  -50.8870 C   0  0  0  0  0  0  0  0  0  0  0  0
  -20.7090  -14.9270  -51.2440 C   0  0  0  0  0  0  0  0  0  0  0  0
  -19.4410  -14.2420  -50.9820 N   0  0  0  0  0  0  0  0  0  0  0  0
  -21.6740  -14.0220  -51.9670 C   0  0  0  0  0  0  0  0  0  0  0  0
  -20.4310  -12.1260  -51.0700 N   0  0  0  0  0  0  0  0  0  0  0  0
  -21.7520  -12.6680  -51.3540 C   0  0  0  0  0  0  0  0  0  0  0  0
  1  2  2  0
  2  4  1  0
  2  6  1  0
  3  4  1  0
  3  5  1  0
  5  7  1  0
  6  7  1  0
A    1
 N  
A    2
 C  
A    3
 C1 
A    4
 N1 
A    5
 C2 
A    6
 N2 
A    7
 C3 
M  END
>  <XChem_code>  (143) 
D68EV3CPROA-x1527

>  <Occupancy>  (143) 
[0.59, 0.59, 0.59, 0.59, 0.59, 0.59, 0.59]

>  <TempFactor>  (143) 
[27.32, 24.96, 25.84, 25.65, 26.06, 24.78, 25.03]

>  <RealCrystalName>  (143) 
D68EV3CPROA-x1527

>  <smiles>  (143) 
Cl.N=C1NCCCN1

>  <new_smiles>  (143) 
Cl.N=C1NCCCN1

>  <alternate_name>  (143) 
Z1954800348

>  <site_name>  (143) 
5

>  <pdb_entry>  (143) 
nan

>  <mol>  (143) 
<rdkit.Chem.rdchem.Mol object at 0x165034510>

>  <single_smiles>  (143) 
N=C1NCCCN1

>  <base_name>  (143) 
D68EV3CPROA-x1527_0A

>  <lig_resn>  (143) 
LIG

>  <lig_resi>  (143) 
201

>  <lig_chain>  (143) 
A

>  <lig_segi>  (143) 


>  <lig_alt>  (143) 


>  <polymer_chain>  (143) 
A

$$$$
x1556_0A§1
     RDKit          3D

  7  7  0  0  0  0  0  0  0  0999 V2000
   -1.6950    2.9600  -25.8210 N   0  0  0  0  0  0  0  0  0  0  0  0
   -0.5780    2.7630  -25.7250 C   0  0  0  0  0  0  0  0  0  0  0  0
    0.8150    2.5190  -25.4980 C   0  0  0  0  0  0  0  0  0  0  0  0
    2.7770    2.2750  -24.5860 N   0  0  0  0  0  0  0  0  0  0  0  0
    1.4860    2.6000  -24.3170 C   0  0  0  0  0  0  0  0  0  0  0  0
    1.6780    2.1420  -26.4970 N   0  0  0  0  0  0  0  0  0  0  0  0
    2.8500    2.0140  -25.8960 C   0  0  0  0  0  0  0  0  0  0  0  0
  1  2  3  0
  2  3  1  0
  3  5  2  0
  3  6  1  0
  4  5  1  0
  4  7  1  0
  6  7  2  0
A    1
 N  
A    2
 C  
A    3
 C1 
A    4
 N1 
A    5
 C2 
A    6
 N2 
A    7
 C3 
M  END
>  <XChem_code>  (144) 
D68EV3CPROA-x1556

>  <Occupancy>  (144) 
[0.61, 0.61, 0.61, 0.61, 0.61, 0.61, 0.61]

>  <TempFactor>  (144) 
[23.4, 21.67, 22.73, 23.78, 21.77, 23.7, 23.29]

>  <RealCrystalName>  (144) 
D68EV3CPROA-x1556

>  <smiles>  (144) 
Cl.N#CC1=CNC=N1

>  <new_smiles>  (144) 
Cl.N#CC1=CNC=N1

>  <alternate_name>  (144) 
Z2301685688

>  <site_name>  (144) 
3

>  <pdb_entry>  (144) 
nan

>  <mol>  (144) 
<rdkit.Chem.rdchem.Mol object at 0x165034660>

>  <single_smiles>  (144) 
N#Cc1c[nH]cn1

>  <base_name>  (144) 
D68EV3CPROA-x1556_0A

>  <lig_resn>  (144) 
LIG

>  <lig_resi>  (144) 
201

>  <lig_chain>  (144) 
A

>  <lig_segi>  (144) 


>  <lig_alt>  (144) 


>  <polymer_chain>  (144) 
A

$$$$
x1556_0A§2
     RDKit          3D

  7  7  0  0  0  0  0  0  0  0999 V2000
   -9.1880   -1.1770  -14.3930 N   0  0  0  0  0  0  0  0  0  0  0  0
  -10.2480   -1.5220  -14.6240 C   0  0  0  0  0  0  0  0  0  0  0  0
  -11.5950   -1.8660  -14.9710 C   0  0  0  0  0  0  0  0  0  0  0  0
  -13.6440   -1.8250  -15.7060 N   0  0  0  0  0  0  0  0  0  0  0  0
  -12.5220   -1.0700  -15.5700 C   0  0  0  0  0  0  0  0  0  0  0  0
  -12.1290   -3.1090  -14.7400 N   0  0  0  0  0  0  0  0  0  0  0  0
  -13.3700   -3.0300  -15.1960 C   0  0  0  0  0  0  0  0  0  0  0  0
  1  2  3  0
  2  3  1  0
  3  5  2  0
  3  6  1  0
  4  5  1  0
  4  7  1  0
  6  7  2  0
A    1
 N  
A    2
 C  
A    3
 C1 
A    4
 N1 
A    5
 C2 
A    6
 N2 
A    7
 C3 
M  END
>  <XChem_code>  (145) 
D68EV3CPROA-x1556

>  <Occupancy>  (145) 
[0.61, 0.61, 0.61, 0.61, 0.61, 0.61, 0.61]

>  <TempFactor>  (145) 
[23.4, 21.67, 22.73, 23.78, 21.77, 23.7, 23.29]

>  <RealCrystalName>  (145) 
D68EV3CPROA-x1556

>  <smiles>  (145) 
Cl.N#CC1=CNC=N1

>  <new_smiles>  (145) 
Cl.N#CC1=CNC=N1

>  <alternate_name>  (145) 
Z2301685688

>  <site_name>  (145) 
3

>  <pdb_entry>  (145) 
nan

>  <mol>  (145) 
<rdkit.Chem.rdchem.Mol object at 0x165034660>

>  <single_smiles>  (145) 
N#Cc1c[nH]cn1

>  <base_name>  (145) 
D68EV3CPROA-x1556_0A

>  <lig_resn>  (145) 
LIG

>  <lig_resi>  (145) 
201

>  <lig_chain>  (145) 
A

>  <lig_segi>  (145) 


>  <lig_alt>  (145) 


>  <polymer_chain>  (145) 
B

$$$$
x1556_0A§3
     RDKit          3D

  7  7  0  0  0  0  0  0  0  0999 V2000
   -5.1040   -0.2130  -48.1040 N   0  0  0  0  0  0  0  0  0  0  0  0
   -6.0010    0.2420  -48.6530 C   0  0  0  0  0  0  0  0  0  0  0  0
   -7.0630    0.8690  -49.3930 C   0  0  0  0  0  0  0  0  0  0  0  0
   -8.9730    1.3650  -50.3300 N   0  0  0  0  0  0  0  0  0  0  0  0
   -8.3750    0.4950  -49.4730 C   0  0  0  0  0  0  0  0  0  0  0  0
   -6.8530    1.9720  -50.1860 N   0  0  0  0  0  0  0  0  0  0  0  0
   -8.0320    2.2290  -50.7370 C   0  0  0  0  0  0  0  0  0  0  0  0
  1  2  3  0
  2  3  1  0
  3  5  2  0
  3  6  1  0
  4  5  1  0
  4  7  1  0
  6  7  2  0
A    1
 N  
A    2
 C  
A    3
 C1 
A    4
 N1 
A    5
 C2 
A    6
 N2 
A    7
 C3 
M  END
>  <XChem_code>  (146) 
D68EV3CPROA-x1556

>  <Occupancy>  (146) 
[0.82, 0.82, 0.82, 0.82, 0.82, 0.82, 0.82]

>  <TempFactor>  (146) 
[31.23, 33.16, 30.86, 29.99, 30.28, 30.59, 30.06]

>  <RealCrystalName>  (146) 
D68EV3CPROA-x1556

>  <smiles>  (146) 
Cl.N#CC1=CNC=N1

>  <new_smiles>  (146) 
Cl.N#CC1=CNC=N1

>  <alternate_name>  (146) 
Z2301685688

>  <site_name>  (146) 
3

>  <pdb_entry>  (146) 
nan

>  <mol>  (146) 
<rdkit.Chem.rdchem.Mol object at 0x165034660>

>  <single_smiles>  (146) 
N#Cc1c[nH]cn1

>  <base_name>  (146) 
D68EV3CPROA-x1556_0A

>  <lig_resn>  (146) 
LIG

>  <lig_resi>  (146) 
201

>  <lig_chain>  (146) 
B

>  <lig_segi>  (146) 


>  <lig_alt>  (146) 


>  <polymer_chain>  (146) 
B

$$$$
x0789_0A§1
     RDKit          3D

 14 15  0  0  0  0  0  0  0  0999 V2000
   -5.0840   12.5720  -31.8370 N   0  0  0  0  0  0  0  0  0  0  0  0
   -2.2140   12.6440  -32.8890 C   0  0  0  0  0  0  0  0  0  0  0  0
   -3.2670   15.7120  -32.3610 O   0  0  0  0  0  0  0  0  0  0  0  0
   -3.0400   13.7050  -33.6190 C   0  0  2  0  0  0  0  0  0  0  0  0
   -6.3400   10.6340  -29.0490 N   0  0  0  0  0  0  0  0  0  0  0  0
   -4.5700   14.3130  -30.4410 O   0  0  0  0  0  0  0  0  0  0  0  0
   -2.1950   14.7940  -34.2650 C   0  0  0  0  0  0  0  0  0  0  0  0
   -6.8740    9.8470  -29.9140 N   0  0  0  0  0  0  0  0  0  0  0  0
   -2.0740   15.8090  -33.1560 C   0  0  0  0  0  0  0  0  0  0  0  0
   -4.0140   14.5500  -32.7700 C   0  0  1  0  0  0  0  0  0  0  0  0
   -4.5740   13.8060  -31.5620 C   0  0  0  0  0  0  0  0  0  0  0  0
   -5.6560   11.7000  -30.9130 C   0  0  0  0  0  0  0  0  0  0  0  0
   -5.6500   11.6820  -29.5590 C   0  0  0  0  0  0  0  0  0  0  0  0
   -6.5580   10.3550  -31.4830 S   0  0  0  0  0  0  0  0  0  0  0  0
  1 11  1  0
  1 12  1  0
  4  2  1  1
  3  9  1  0
  3 10  1  0
  4  7  1  0
  4 10  1  0
  5  8  2  0
  5 13  1  0
  6 11  2  0
  7  9  1  0
  8 14  1  0
 10 11  1  1
 12 13  2  0
 12 14  1  0
A    1
 N  
A    2
 C  
A    3
 O  
A    4
 C1 
A    5
 N1 
A    6
 O1 
A    7
 C2 
A    8
 N2 
A    9
 C3 
A   10
 C4 
A   11
 C5 
A   12
 C6 
A   13
 C7 
A   14
 S  
M  END
>  <XChem_code>  (147) 
D68EV3CPROA-x0789

>  <Occupancy>  (147) 
[0.7, 0.7, 0.7, 0.7, 0.7, 0.7, 0.7, 0.7, 0.7, 0.7, 0.7, 0.7, 0.7, 0.7]

>  <TempFactor>  (147) 
[56.59, 66.21, 67.77, 68.43, 44.39, 60.91, 69.25, 42.57, 69.8, 66.66, 61.67, 48.87, 42.82, 49.48]

>  <RealCrystalName>  (147) 
D68EV3CPROA-x0789

>  <smiles>  (147) 
CC1CCOC1C(=O)Nc2cnns2

>  <new_smiles>  (147) 
CC1CCOC1C(=O)Nc2cnns2

>  <alternate_name>  (147) 
Z1827602749

>  <site_name>  (147) 
1

>  <pdb_entry>  (147) 
nan

>  <mol>  (147) 
<rdkit.Chem.rdchem.Mol object at 0x162e32730>

>  <single_smiles>  (147) 
CC1CCOC1C(=O)Nc1cnns1

>  <base_name>  (147) 
D68EV3CPROA-x0789_0A

>  <lig_resn>  (147) 
LIG

>  <lig_resi>  (147) 
201

>  <lig_chain>  (147) 
A

>  <lig_segi>  (147) 


>  <lig_alt>  (147) 


>  <polymer_chain>  (147) 
A

$$$$
x1195_0B§1
     RDKit          3D

 13 13  0  0  0  0  0  0  0  0999 V2000
   -7.0680    1.7560  -52.8620 N   0  0  0  0  0  0  0  0  0  0  0  0
   -8.9300    0.0410  -51.2700 C   0  0  0  0  0  0  0  0  0  0  0  0
   -8.3820    1.7670  -55.7660 O   0  0  0  0  0  0  0  0  0  0  0  0
   -7.7090    0.1620  -50.4140 C   0  0  0  0  0  0  0  0  0  0  0  0
   -7.7090   -0.0900  -49.0220 C   0  0  0  0  0  0  0  0  0  0  0  0
   -6.4830   -0.0180  -48.4630 C   0  0  0  0  0  0  0  0  0  0  0  0
   -6.4650    0.4500  -50.8750 C   0  0  0  0  0  0  0  0  0  0  0  0
   -6.0730    0.8620  -52.2630 C   0  0  0  0  0  0  0  0  0  0  0  0
   -6.8300    2.6050  -54.0620 C   0  0  1  0  0  0  0  0  0  0  0  0
   -7.8830    3.7100  -54.0960 C   0  0  0  0  0  0  0  0  0  0  0  0
   -5.4320    3.2250  -54.0360 C   0  0  0  0  0  0  0  0  0  0  0  0
   -7.0340    1.7630  -55.3120 C   0  0  0  0  0  0  0  0  0  0  0  0
   -5.2940    0.3720  -49.6040 S   0  0  0  0  0  0  0  0  0  0  0  0
  1  8  1  0
  1  9  1  0
  2  4  1  0
  3 12  1  0
  4  5  1  0
  4  7  2  0
  5  6  2  0
  6 13  1  0
  7  8  1  0
  7 13  1  0
  9 10  1  6
  9 11  1  0
  9 12  1  0
A    1
 N  
A    2
 C  
A    3
 O  
A    4
 C1 
A    5
 C2 
A    6
 C3 
A    7
 C4 
A    8
 C5 
A    9
 C6 
A   10
 C7 
A   11
 C8 
A   12
 C9 
A   13
 S  
M  END
>  <XChem_code>  (148) 
D68EV3CPROA-x1195

>  <Occupancy>  (148) 
[0.72, 0.72, 0.72, 0.72, 0.72, 0.72, 0.72, 0.72, 0.72, 0.72, 0.72, 0.72, 0.72]

>  <TempFactor>  (148) 
[79.42, 72.91, 74.68, 72.59, 70.99, 71.53, 75.16, 77.18, 78.73, 76.25, 80.39, 77.07, 73.58]

>  <RealCrystalName>  (148) 
D68EV3CPROA-x1195

>  <smiles>  (148) 
Cc1ccsc1CNC(C)(C)CO

>  <new_smiles>  (148) 
Cc1ccsc1CNC(C)(C)CO

>  <alternate_name>  (148) 
Z57328552

>  <site_name>  (148) 
2

>  <pdb_entry>  (148) 
nan

>  <mol>  (148) 
<rdkit.Chem.rdchem.Mol object at 0x164f2b760>

>  <single_smiles>  (148) 
Cc1ccsc1CNC(C)(C)CO

>  <base_name>  (148) 
D68EV3CPROA-x1195_0B

>  <lig_resn>  (148) 
LIG

>  <lig_resi>  (148) 
201

>  <lig_chain>  (148) 
B

>  <lig_segi>  (148) 


>  <lig_alt>  (148) 


>  <polymer_chain>  (148) 
B

$$$$
x1315_0B§1
     RDKit          3D

 10 11  0  0  0  0  0  0  0  0999 V2000
  -28.0630    0.8940  -41.7670 N   0  0  0  0  0  0  0  0  0  0  0  0
  -27.5050   -1.4600  -42.3440 C   0  0  0  0  0  0  0  0  0  0  0  0
  -27.5350    0.0070  -42.5680 C   0  0  0  0  0  0  0  0  0  0  0  0
  -27.9070    2.1430  -42.3710 N   0  0  0  0  0  0  0  0  0  0  0  0
  -27.3020    1.9410  -43.5160 C   0  0  0  0  0  0  0  0  0  0  0  0
  -25.9890    2.3900  -45.6330 N   0  0  0  0  0  0  0  0  0  0  0  0
  -26.9910    2.8480  -44.6640 C   0  0  0  0  0  0  0  0  0  0  0  0
  -27.0210    0.6150  -43.6710 N   0  0  0  0  0  0  0  0  0  0  0  0
  -25.2530    1.1980  -45.1580 C   0  0  0  0  0  0  0  0  0  0  0  0
  -26.2200    0.0990  -44.7950 C   0  0  0  0  0  0  0  0  0  0  0  0
  1  3  2  0
  1  4  1  0
  2  3  1  0
  3  8  1  0
  4  5  2  0
  5  7  1  0
  5  8  1  0
  6  7  1  0
  6  9  1  0
  8 10  1  0
  9 10  1  0
A    1
 N  
A    2
 C  
A    3
 C1 
A    4
 N1 
A    5
 C2 
A    6
 N2 
A    7
 C3 
A    8
 N3 
A    9
 C4 
A   10
 C5 
M  END
>  <XChem_code>  (149) 
D68EV3CPROA-x1315

>  <Occupancy>  (149) 
[0.44, 0.44, 0.44, 0.44, 0.44, 0.44, 0.44, 0.44, 0.44, 0.44]

>  <TempFactor>  (149) 
[26.41, 26.09, 26.14, 25.63, 26.66, 27.61, 27.35, 26.47, 26.4, 27.65]

>  <RealCrystalName>  (149) 
D68EV3CPROA-x1315

>  <smiles>  (149) 
Cc1nnc2CNCCn12

>  <new_smiles>  (149) 
Cc1nnc2CNCCn12

>  <alternate_name>  (149) 
Z992916756

>  <site_name>  (149) 
4

>  <pdb_entry>  (149) 
nan

>  <mol>  (149) 
<rdkit.Chem.rdchem.Mol object at 0x164f2bd10>

>  <single_smiles>  (149) 
Cc1nnc2n1CCNC2

>  <base_name>  (149) 
D68EV3CPROA-x1315_0B

>  <lig_resn>  (149) 
LIG

>  <lig_resi>  (149) 
201

>  <lig_chain>  (149) 
A

>  <lig_segi>  (149) 


>  <lig_alt>  (149) 


>  <polymer_chain>  (149) 
A

$$$$
x1315_0B§2
     RDKit          3D

 10 11  0  0  0  0  0  0  0  0999 V2000
  -26.9980    2.6780  -43.8920 N   0  0  0  0  0  0  0  0  0  0  0  0
  -25.6470    1.0160  -45.1510 C   0  0  0  0  0  0  0  0  0  0  0  0
  -26.6290    1.4480  -44.1230 C   0  0  0  0  0  0  0  0  0  0  0  0
  -27.8630    2.6550  -42.7980 N   0  0  0  0  0  0  0  0  0  0  0  0
  -27.9740    1.4030  -42.4180 C   0  0  0  0  0  0  0  0  0  0  0  0
  -28.0900   -0.4730  -40.8680 N   0  0  0  0  0  0  0  0  0  0  0  0
  -28.6970    0.8000  -41.2610 C   0  0  0  0  0  0  0  0  0  0  0  0
  -27.2200    0.5970  -43.2370 N   0  0  0  0  0  0  0  0  0  0  0  0
  -28.0170   -1.3880  -42.0150 C   0  0  0  0  0  0  0  0  0  0  0  0
  -27.1110   -0.8680  -43.1050 C   0  0  0  0  0  0  0  0  0  0  0  0
  1  3  2  0
  1  4  1  0
  2  3  1  0
  3  8  1  0
  4  5  2  0
  5  7  1  0
  5  8  1  0
  6  7  1  0
  6  9  1  0
  8 10  1  0
  9 10  1  0
A    1
 N  
A    2
 C  
A    3
 C1 
A    4
 N1 
A    5
 C2 
A    6
 N2 
A    7
 C3 
A    8
 N3 
A    9
 C4 
A   10
 C5 
M  END
>  <XChem_code>  (150) 
D68EV3CPROA-x1315

>  <Occupancy>  (150) 
[0.64, 0.64, 0.64, 0.64, 0.64, 0.64, 0.64, 0.64, 0.64, 0.64]

>  <TempFactor>  (150) 
[36.85, 39.49, 38.25, 39.99, 38.82, 40.56, 40.77, 38.82, 41.45, 39.55]

>  <RealCrystalName>  (150) 
D68EV3CPROA-x1315

>  <smiles>  (150) 
Cc1nnc2CNCCn12

>  <new_smiles>  (150) 
Cc1nnc2CNCCn12

>  <alternate_name>  (150) 
Z992916756

>  <site_name>  (150) 
4

>  <pdb_entry>  (150) 
nan

>  <mol>  (150) 
<rdkit.Chem.rdchem.Mol object at 0x164f2bd10>

>  <single_smiles>  (150) 
Cc1nnc2n1CCNC2

>  <base_name>  (150) 
D68EV3CPROA-x1315_0B

>  <lig_resn>  (150) 
LIG

>  <lig_resi>  (150) 
201

>  <lig_chain>  (150) 
B

>  <lig_segi>  (150) 


>  <lig_alt>  (150) 


>  <polymer_chain>  (150) 
B

$$$$
x1261_0B§1
     RDKit          3D

 13 13  0  0  0  0  0  0  0  0999 V2000
   -9.9180    0.8930  -55.0700 C   0  0  0  0  0  0  0  0  0  0  0  0
   -7.6530    0.6410  -56.3340 O   0  0  0  0  0  0  0  0  0  0  0  0
   -7.5150    0.8980  -53.8020 C   0  0  0  0  0  0  0  0  0  0  0  0
   -8.1880    2.8240  -55.3300 O   0  0  0  0  0  0  0  0  0  0  0  0
   -7.9240    1.7500  -52.6170 C   0  0  2  0  0  0  0  0  0  0  0  0
   -7.4280    3.0740  -52.7840 O   0  0  0  0  0  0  0  0  0  0  0  0
   -7.4420    1.1640  -51.3060 C   0  0  0  0  0  0  0  0  0  0  0  0
   -8.3460    0.6940  -50.3660 C   0  0  0  0  0  0  0  0  0  0  0  0
   -7.9110    0.2480  -49.1290 C   0  0  0  0  0  0  0  0  0  0  0  0
   -6.5670    0.2600  -48.8220 C   0  0  0  0  0  0  0  0  0  0  0  0
   -5.6580    0.7090  -49.7530 C   0  0  0  0  0  0  0  0  0  0  0  0
   -6.0910    1.1560  -50.9900 C   0  0  0  0  0  0  0  0  0  0  0  0
   -8.2480    1.3880  -55.2570 S   0  0  2  0  0  0  0  0  0  0  0  0
 13  1  1  1
  2 13  2  0
  3  5  1  0
  3 13  1  0
  4 13  2  0
  5  6  1  6
  5  7  1  0
  7  8  2  0
  7 12  1  0
  8  9  1  0
  9 10  2  0
 10 11  1  0
 11 12  2  0
A    1
 C  
A    2
 O  
A    3
 C1 
A    4
 O1 
A    5
 C2 
A    6
 O2 
A    7
 C3 
A    8
 C4 
A    9
 C5 
A   10
 C6 
A   11
 C7 
A   12
 C8 
A   13
 S  
M  END
>  <XChem_code>  (151) 
D68EV3CPROA-x1261

>  <Occupancy>  (151) 
[0.72, 0.72, 0.72, 0.72, 0.72, 0.72, 0.72, 0.72, 0.72, 0.72, 0.72, 0.72, 0.72]

>  <TempFactor>  (151) 
[80.05, 85.46, 80.18, 80.09, 77.32, 80.96, 70.92, 68.63, 67.9, 67.84, 66.91, 68.3, 83.69]

>  <RealCrystalName>  (151) 
D68EV3CPROA-x1261

>  <smiles>  (151) 
CS(=O)(=O)CC(O)c1ccccc1

>  <new_smiles>  (151) 
CS(=O)(=O)CC(O)c1ccccc1

>  <alternate_name>  (151) 
Z822382694

>  <site_name>  (151) 
2

>  <pdb_entry>  (151) 
nan

>  <mol>  (151) 
<rdkit.Chem.rdchem.Mol object at 0x164f2b990>

>  <single_smiles>  (151) 
CS(=O)(=O)CC(O)c1ccccc1

>  <base_name>  (151) 
D68EV3CPROA-x1261_0B

>  <lig_resn>  (151) 
LIG

>  <lig_resi>  (151) 
201

>  <lig_chain>  (151) 
B

>  <lig_segi>  (151) 


>  <lig_alt>  (151) 


>  <polymer_chain>  (151) 
B

$$$$
x0174_0A§1
     RDKit          3D

 11 11  0  0  0  0  0  0  0  0999 V2000
  -20.8090  -10.8320  -23.1750 N   0  0  0  0  0  0  0  0  0  0  0  0
  -20.4680   -9.7600  -24.1110 C   0  0  0  0  0  0  0  0  0  0  0  0
  -21.0970  -12.2410  -24.8650 O   0  0  0  0  0  0  0  0  0  0  0  0
  -21.0680  -12.0690  -23.6410 C   0  0  0  0  0  0  0  0  0  0  0  0
  -19.5790  -10.3610  -19.6940 N   0  0  0  0  0  0  0  0  0  0  0  0
  -21.2520  -13.1650  -22.6230 C   0  0  0  0  0  0  0  0  0  0  0  0
  -20.8080  -10.5480  -21.7620 C   0  0  0  0  0  0  0  0  0  0  0  0
  -21.9570  -10.0730  -21.1380 C   0  0  0  0  0  0  0  0  0  0  0  0
  -21.9000   -9.7350  -19.7930 C   0  0  0  0  0  0  0  0  0  0  0  0
  -20.6940   -9.8840  -19.1200 C   0  0  0  0  0  0  0  0  0  0  0  0
  -19.6500  -10.6920  -20.9920 C   0  0  0  0  0  0  0  0  0  0  0  0
  1  2  1  0
  1  4  1  0
  1  7  1  0
  3  4  2  0
  4  6  1  0
  5 10  2  0
  5 11  1  0
  7  8  1  0
  7 11  2  0
  8  9  2  0
  9 10  1  0
A    1
 N  
A    2
 C  
A    3
 O  
A    4
 C1 
A    5
 N1 
A    6
 C2 
A    7
 C3 
A    8
 C4 
A    9
 C5 
A   10
 C6 
A   11
 C7 
M  END
>  <XChem_code>  (152) 
D68EV3CPROA-x0174

>  <Occupancy>  (152) 
[0.8, 0.8, 0.8, 0.8, 0.8, 0.8, 0.8, 0.8, 0.8, 0.8, 0.8]

>  <TempFactor>  (152) 
[38.86, 40.1, 32.76, 39.32, 41.79, 38.01, 42.64, 46.0, 45.61, 44.28, 41.1]

>  <RealCrystalName>  (152) 
D68EV3CPROA-x0174

>  <smiles>  (152) 
CN(C(=O)C)c1cccnc1

>  <new_smiles>  (152) 
CN(C(=O)C)c1cccnc1

>  <alternate_name>  (152) 
Z1203252645

>  <site_name>  (152) 
5

>  <pdb_entry>  (152) 
nan

>  <mol>  (152) 
<rdkit.Chem.rdchem.Mol object at 0x16324c4a0>

>  <single_smiles>  (152) 
CC(=O)N(C)c1cccnc1

>  <base_name>  (152) 
D68EV3CPROA-x0174_0A

>  <lig_resn>  (152) 
LIG

>  <lig_resi>  (152) 
201

>  <lig_chain>  (152) 
A

>  <lig_segi>  (152) 


>  <lig_alt>  (152) 


>  <polymer_chain>  (152) 
A

$$$$
x1127_0B§1
     RDKit          3D

 13 14  0  0  0  0  0  0  0  0999 V2000
   -6.7580    3.7220  -52.4770 N   0  0  0  0  0  0  0  0  0  0  0  0
   -6.3400    5.2030  -54.3500 C   0  0  0  0  0  0  0  0  0  0  0  0
   -9.9440    4.1290  -51.1890 O   0  0  0  0  0  0  0  0  0  0  0  0
   -7.1720    4.6660  -53.2320 C   0  0  0  0  0  0  0  0  0  0  0  0
   -7.7800    3.4040  -51.5990 N   0  0  0  0  0  0  0  0  0  0  0  0
   -8.8950    4.1970  -51.8060 C   0  0  0  0  0  0  0  0  0  0  0  0
   -8.5540    5.1410  -52.9270 C   0  0  0  0  0  0  0  0  0  0  0  0
   -7.5840    2.3450  -50.6530 C   0  0  0  0  0  0  0  0  0  0  0  0
   -8.6720    1.6230  -50.1640 C   0  0  0  0  0  0  0  0  0  0  0  0
   -8.4690    0.6280  -49.2190 C   0  0  0  0  0  0  0  0  0  0  0  0
   -7.1950    0.3450  -48.7670 C   0  0  0  0  0  0  0  0  0  0  0  0
   -6.1140    1.0490  -49.2640 C   0  0  0  0  0  0  0  0  0  0  0  0
   -6.2980    2.0480  -50.2060 C   0  0  0  0  0  0  0  0  0  0  0  0
  1  4  2  0
  1  5  1  0
  2  4  1  0
  3  6  2  0
  4  7  1  0
  5  6  1  0
  5  8  1  0
  6  7  1  0
  8  9  2  0
  8 13  1  0
  9 10  1  0
 10 11  2  0
 11 12  1  0
 12 13  2  0
A    1
 N  
A    2
 C  
A    3
 O  
A    4
 C1 
A    5
 N1 
A    6
 C2 
A    7
 C3 
A    8
 C4 
A    9
 C5 
A   10
 C6 
A   11
 C7 
A   12
 C8 
A   13
 C9 
M  END
>  <XChem_code>  (153) 
D68EV3CPROA-x1127

>  <Occupancy>  (153) 
[0.76, 0.76, 0.76, 0.76, 0.76, 0.76, 0.76, 0.76, 0.76, 0.76, 0.76, 0.76, 0.76]

>  <TempFactor>  (153) 
[29.63, 30.27, 23.76, 29.34, 28.2, 27.13, 28.08, 26.59, 25.47, 24.47, 25.58, 26.95, 26.99]

>  <RealCrystalName>  (153) 
D68EV3CPROA-x1127

>  <smiles>  (153) 
CC1=NN(C(=O)C1)c2ccccc2

>  <new_smiles>  (153) 
CC1=NN(C(=O)C1)c2ccccc2

>  <alternate_name>  (153) 
Z50145861

>  <site_name>  (153) 
2

>  <pdb_entry>  (153) 
nan

>  <mol>  (153) 
<rdkit.Chem.rdchem.Mol object at 0x164f2b450>

>  <single_smiles>  (153) 
CC1=NN(c2ccccc2)C(=O)C1

>  <base_name>  (153) 
D68EV3CPROA-x1127_0B

>  <lig_resn>  (153) 
LIG

>  <lig_resi>  (153) 
201

>  <lig_chain>  (153) 
B

>  <lig_segi>  (153) 


>  <lig_alt>  (153) 


>  <polymer_chain>  (153) 
B

$$$$
x1285_1B§1
     RDKit          3D

 13 14  0  0  0  0  0  0  0  0999 V2000
   -7.7300    2.4750  -52.9420 N   0  0  0  0  0  0  0  0  0  0  0  0
   -9.0920    2.4220  -55.3340 C   0  0  1  0  0  0  0  0  0  0  0  0
   -9.5040    2.5670  -56.6910 O   0  0  0  0  0  0  0  0  0  0  0  0
   -7.8860    1.5140  -55.2300 C   0  0  0  0  0  0  0  0  0  0  0  0
   -7.5180    1.2690  -53.7660 C   0  0  0  0  0  0  0  0  0  0  0  0
   -6.7960    2.5170  -51.8240 C   0  0  0  0  0  0  0  0  0  0  0  0
   -7.1960    1.5840  -50.7140 C   0  0  0  0  0  0  0  0  0  0  0  0
   -6.3110    0.8940  -49.8420 C   0  0  0  0  0  0  0  0  0  0  0  0
   -6.9430    0.1670  -48.9130 C   0  0  0  0  0  0  0  0  0  0  0  0
   -8.5000    1.3340  -50.4150 C   0  0  0  0  0  0  0  0  0  0  0  0
   -7.6190    3.6800  -53.7710 C   0  0  0  0  0  0  0  0  0  0  0  0
   -8.7870    3.7750  -54.7310 C   0  0  0  0  0  0  0  0  0  0  0  0
   -8.6390    0.2900  -49.0980 S   0  0  0  0  0  0  0  0  0  0  0  0
  1  5  1  0
  1  6  1  0
  1 11  1  0
  2  3  1  6
  2  4  1  0
  2 12  1  0
  4  5  1  0
  6  7  1  0
  7  8  1  0
  7 10  2  0
  8  9  2  0
  9 13  1  0
 10 13  1  0
 11 12  1  0
A    1
 N  
A    2
 C  
A    3
 O  
A    4
 C1 
A    5
 C2 
A    6
 C3 
A    7
 C4 
A    8
 C5 
A    9
 C6 
A   10
 C7 
A   11
 C8 
A   12
 C9 
A   13
 S  
M  END
>  <XChem_code>  (154) 
D68EV3CPROA-x1285

>  <Occupancy>  (154) 
[0.74, 0.74, 0.74, 0.74, 0.74, 0.74, 0.74, 0.74, 0.74, 0.74, 0.74, 0.74, 0.74]

>  <TempFactor>  (154) 
[45.75, 50.38, 54.88, 49.45, 48.56, 41.9, 35.04, 31.62, 29.82, 31.62, 47.24, 49.38, 29.38]

>  <RealCrystalName>  (154) 
D68EV3CPROA-x1285

>  <smiles>  (154) 
OC1CCN(Cc2ccsc2)CC1

>  <new_smiles>  (154) 
OC1CCN(Cc2ccsc2)CC1

>  <alternate_name>  (154) 
Z905434478

>  <site_name>  (154) 
2

>  <pdb_entry>  (154) 
nan

>  <mol>  (154) 
<rdkit.Chem.rdchem.Mol object at 0x164f2bb50>

>  <single_smiles>  (154) 
OC1CCN(Cc2ccsc2)CC1

>  <base_name>  (154) 
D68EV3CPROA-x1285_1B

>  <lig_resn>  (154) 
LIG

>  <lig_resi>  (154) 
201

>  <lig_chain>  (154) 
B

>  <lig_segi>  (154) 


>  <lig_alt>  (154) 


>  <polymer_chain>  (154) 
B

$$$$
x1285_1B§2
     RDKit          3D

 13 14  0  0  0  0  0  0  0  0999 V2000
  -10.6520   19.6760  -30.1380 N   0  0  0  0  0  0  0  0  0  0  0  0
   -9.9820   17.1800  -31.2410 C   0  0  1  0  0  0  0  0  0  0  0  0
  -10.9250   16.5330  -30.3940 O   0  0  0  0  0  0  0  0  0  0  0  0
  -10.6930   18.1730  -32.1210 C   0  0  0  0  0  0  0  0  0  0  0  0
  -11.4430   19.1980  -31.2830 C   0  0  0  0  0  0  0  0  0  0  0  0
  -10.8780   21.1100  -29.9290 C   0  0  0  0  0  0  0  0  0  0  0  0
  -11.3020   21.5050  -28.5370 C   0  0  0  0  0  0  0  0  0  0  0  0
  -11.2000   22.8270  -27.9980 C   0  0  0  0  0  0  0  0  0  0  0  0
  -11.6850   22.9370  -26.7200 C   0  0  0  0  0  0  0  0  0  0  0  0
  -11.8630   20.6350  -27.6410 C   0  0  0  0  0  0  0  0  0  0  0  0
   -9.2200   19.3860  -30.3540 C   0  0  0  0  0  0  0  0  0  0  0  0
   -8.9480   17.8850  -30.4010 C   0  0  0  0  0  0  0  0  0  0  0  0
  -12.2700   21.3910  -26.1670 S   0  0  0  0  0  0  0  0  0  0  0  0
  1  5  1  0
  1  6  1  0
  1 11  1  0
  2  3  1  1
  2  4  1  0
  2 12  1  0
  4  5  1  0
  6  7  1  0
  7  8  1  0
  7 10  2  0
  8  9  2  0
  9 13  1  0
 10 13  1  0
 11 12  1  0
A    1
 N  
A    2
 C  
A    3
 O  
A    4
 C1 
A    5
 C2 
A    6
 C3 
A    7
 C4 
A    8
 C5 
A    9
 C6 
A   10
 C7 
A   11
 C8 
A   12
 C9 
A   13
 S  
M  END
>  <XChem_code>  (155) 
D68EV3CPROA-x1285

>  <Occupancy>  (155) 
[0.98, 0.98, 0.98, 0.98, 0.98, 0.98, 0.98, 0.98, 0.98, 0.98, 0.98, 0.98, 0.98]

>  <TempFactor>  (155) 
[62.92, 53.85, 55.84, 55.42, 59.07, 67.89, 75.42, 75.35, 79.39, 78.53, 58.69, 54.38, 86.51]

>  <RealCrystalName>  (155) 
D68EV3CPROA-x1285

>  <smiles>  (155) 
OC1CCN(Cc2ccsc2)CC1

>  <new_smiles>  (155) 
OC1CCN(Cc2ccsc2)CC1

>  <alternate_name>  (155) 
Z905434478

>  <site_name>  (155) 
2

>  <pdb_entry>  (155) 
nan

>  <mol>  (155) 
<rdkit.Chem.rdchem.Mol object at 0x164f2bb50>

>  <single_smiles>  (155) 
OC1CCN(Cc2ccsc2)CC1

>  <base_name>  (155) 
D68EV3CPROA-x1285_1B

>  <lig_resn>  (155) 
LIG

>  <lig_resi>  (155) 
301

>  <lig_chain>  (155) 
B

>  <lig_segi>  (155) 


>  <lig_alt>  (155) 


>  <polymer_chain>  (155) 
B

$$$$
x1305_0B§1
     RDKit          3D

 13 14  0  0  0  0  0  0  0  0999 V2000
  -13.2820   14.1010  -38.5020 N   0  0  0  0  0  0  0  0  0  0  0  0
  -14.6500   13.0400  -40.8950 C   0  0  0  0  0  0  0  0  0  0  0  0
  -13.3650   16.1330  -39.3370 O   0  0  0  0  0  0  0  0  0  0  0  0
  -14.7440   14.4950  -40.4990 C   0  0  1  0  0  0  0  0  0  0  0  0
  -12.4120   16.1650  -38.2940 N   0  0  0  0  0  0  0  0  0  0  0  0
  -16.1590   14.8330  -40.1060 C   0  0  0  0  0  0  0  0  0  0  0  0
  -10.4200   13.5300  -37.3880 N   0  0  0  0  0  0  0  0  0  0  0  0
  -13.8120   14.8680  -39.3940 C   0  0  0  0  0  0  0  0  0  0  0  0
  -12.4080   14.9380  -37.8620 C   0  0  0  0  0  0  0  0  0  0  0  0
  -11.4670   14.3920  -36.8230 C   0  0  2  0  0  0  0  0  0  0  0  0
  -10.6800   15.4890  -36.0930 C   0  0  0  0  0  0  0  0  0  0  0  0
   -9.4290   15.6740  -36.9460 C   0  0  0  0  0  0  0  0  0  0  0  0
   -9.1590   14.2890  -37.5220 C   0  0  0  0  0  0  0  0  0  0  0  0
  1  8  2  0
  1  9  1  0
  4  2  1  1
  3  5  1  0
  3  8  1  0
  4  6  1  0
  4  8  1  0
  5  9  2  0
  7 10  1  0
  7 13  1  0
 10  9  1  6
 10 11  1  0
 11 12  1  0
 12 13  1  0
A    1
 N  
A    2
 C  
A    3
 O  
A    4
 C1 
A    5
 N1 
A    6
 C2 
A    7
 N2 
A    8
 C3 
A    9
 C4 
A   10
 C5 
A   11
 C6 
A   12
 C7 
A   13
 C8 
M  END
>  <XChem_code>  (156) 
D68EV3CPROA-x1305

>  <Occupancy>  (156) 
[0.4, 0.4, 0.4, 0.4, 0.4, 0.4, 0.4, 0.4, 0.4, 0.4, 0.4, 0.4, 0.4]

>  <TempFactor>  (156) 
[35.95, 35.27, 35.89, 35.43, 37.1, 34.72, 40.22, 36.12, 37.53, 39.88, 41.17, 41.72, 42.18]

>  <RealCrystalName>  (156) 
D68EV3CPROA-x1305

>  <smiles>  (156) 
CC(C)c1nc(no1)C2CCCN2

>  <new_smiles>  (156) 
CC(C)c1nc(no1)C2CCCN2

>  <alternate_name>  (156) 
Z979742720

>  <site_name>  (156) 
1

>  <pdb_entry>  (156) 
nan

>  <mol>  (156) 
<rdkit.Chem.rdchem.Mol object at 0x164f2bc30>

>  <single_smiles>  (156) 
CC(C)c1nc(C2CCCN2)no1

>  <base_name>  (156) 
D68EV3CPROA-x1305_0B

>  <lig_resn>  (156) 
LIG

>  <lig_resi>  (156) 
201

>  <lig_chain>  (156) 
B

>  <lig_segi>  (156) 


>  <lig_alt>  (156) 


>  <polymer_chain>  (156) 
B

$$$$
x0957_1B§1
     RDKit          3D

 12 12  0  0  0  0  0  0  0  0999 V2000
   -0.3520    4.3450  -26.1550 N   0  0  0  0  0  0  0  0  0  0  0  0
   -1.7200    4.0460  -26.4980 C   0  0  0  0  0  0  0  0  0  0  0  0
   -0.0380    4.9120  -21.7640 O   0  0  0  0  0  0  0  0  0  0  0  0
    0.4190    3.5140  -25.4000 C   0  0  0  0  0  0  0  0  0  0  0  0
   -0.1610    6.2160  -23.8440 O   0  0  0  0  0  0  0  0  0  0  0  0
    1.1780    2.5080  -25.9960 C   0  0  0  0  0  0  0  0  0  0  0  0
    2.0420    1.7390  -25.2340 C   0  0  0  0  0  0  0  0  0  0  0  0
    2.1480    1.9460  -23.8780 C   0  0  0  0  0  0  0  0  0  0  0  0
    1.3840    2.9170  -23.2510 C   0  0  0  0  0  0  0  0  0  0  0  0
    0.5270    3.7050  -24.0090 C   0  0  0  0  0  0  0  0  0  0  0  0
   -2.0640    4.5400  -23.3310 C   0  0  0  0  0  0  0  0  0  0  0  0
   -0.3760    4.9750  -23.1560 S   0  0  1  0  0  0  0  0  0  0  0  0
  1  2  1  0
  1  4  1  0
  3 12  2  0
  4  6  2  0
  4 10  1  0
  5 12  2  0
  6  7  1  0
  7  8  2  0
  8  9  1  0
  9 10  2  0
 10 12  1  0
 12 11  1  1
A    1
 N  
A    2
 C  
A    3
 O  
A    4
 C1 
A    5
 O1 
A    6
 C2 
A    7
 C3 
A    8
 C4 
A    9
 C5 
A   10
 C6 
A   11
 C7 
A   12
 S  
M  END
>  <XChem_code>  (157) 
D68EV3CPROA-x0957

>  <Occupancy>  (157) 
[0.51, 0.51, 0.51, 0.51, 0.51, 0.51, 0.51, 0.51, 0.51, 0.51, 0.51, 0.51]

>  <TempFactor>  (157) 
[72.04, 70.39, 79.79, 74.12, 84.07, 72.48, 72.26, 74.06, 74.3, 77.29, 77.97, 81.75]

>  <RealCrystalName>  (157) 
D68EV3CPROA-x0957

>  <smiles>  (157) 
CNc1ccccc1S(=O)(=O)C

>  <new_smiles>  (157) 
CNc1ccccc1S(=O)(=O)C

>  <alternate_name>  (157) 
Z285782452

>  <site_name>  (157) 
2

>  <pdb_entry>  (157) 
nan

>  <mol>  (157) 
<rdkit.Chem.rdchem.Mol object at 0x164f2aea0>

>  <single_smiles>  (157) 
CNc1ccccc1S(C)(=O)=O

>  <base_name>  (157) 
D68EV3CPROA-x0957_1B

>  <lig_resn>  (157) 
LIG

>  <lig_resi>  (157) 
201

>  <lig_chain>  (157) 
A

>  <lig_segi>  (157) 


>  <lig_alt>  (157) 


>  <polymer_chain>  (157) 
A

$$$$
x0957_1B§2
     RDKit          3D

 12 12  0  0  0  0  0  0  0  0999 V2000
  -10.5310   -1.2920  -13.0350 N   0  0  0  0  0  0  0  0  0  0  0  0
   -9.0910   -1.3350  -13.0960 C   0  0  0  0  0  0  0  0  0  0  0  0
  -11.9630    2.4560  -14.9320 O   0  0  0  0  0  0  0  0  0  0  0  0
  -11.3200   -1.3320  -14.1450 C   0  0  0  0  0  0  0  0  0  0  0  0
  -11.5540    1.4880  -12.7110 O   0  0  0  0  0  0  0  0  0  0  0  0
  -11.7490   -2.5490  -14.6710 C   0  0  0  0  0  0  0  0  0  0  0  0
  -12.6380   -2.5770  -15.7330 C   0  0  0  0  0  0  0  0  0  0  0  0
  -13.0940   -1.4050  -16.2920 C   0  0  0  0  0  0  0  0  0  0  0  0
  -12.6610   -0.1800  -15.8120 C   0  0  0  0  0  0  0  0  0  0  0  0
  -11.7830   -0.1410  -14.7360 C   0  0  0  0  0  0  0  0  0  0  0  0
   -9.5900    1.5750  -14.3920 C   0  0  0  0  0  0  0  0  0  0  0  0
  -11.3180    1.4620  -14.1260 S   0  0  1  0  0  0  0  0  0  0  0  0
  1  2  1  0
  1  4  1  0
  3 12  2  0
  4  6  2  0
  4 10  1  0
  5 12  2  0
  6  7  1  0
  7  8  2  0
  8  9  1  0
  9 10  2  0
 10 12  1  0
 12 11  1  1
A    1
 N  
A    2
 C  
A    3
 O  
A    4
 C1 
A    5
 O1 
A    6
 C2 
A    7
 C3 
A    8
 C4 
A    9
 C5 
A   10
 C6 
A   11
 C7 
A   12
 S  
M  END
>  <XChem_code>  (158) 
D68EV3CPROA-x0957

>  <Occupancy>  (158) 
[0.51, 0.51, 0.51, 0.51, 0.51, 0.51, 0.51, 0.51, 0.51, 0.51, 0.51, 0.51]

>  <TempFactor>  (158) 
[72.04, 70.39, 79.79, 74.12, 84.07, 72.48, 72.26, 74.06, 74.3, 77.29, 77.97, 81.75]

>  <RealCrystalName>  (158) 
D68EV3CPROA-x0957

>  <smiles>  (158) 
CNc1ccccc1S(=O)(=O)C

>  <new_smiles>  (158) 
CNc1ccccc1S(=O)(=O)C

>  <alternate_name>  (158) 
Z285782452

>  <site_name>  (158) 
2

>  <pdb_entry>  (158) 
nan

>  <mol>  (158) 
<rdkit.Chem.rdchem.Mol object at 0x164f2aea0>

>  <single_smiles>  (158) 
CNc1ccccc1S(C)(=O)=O

>  <base_name>  (158) 
D68EV3CPROA-x0957_1B

>  <lig_resn>  (158) 
LIG

>  <lig_resi>  (158) 
201

>  <lig_chain>  (158) 
A

>  <lig_segi>  (158) 


>  <lig_alt>  (158) 


>  <polymer_chain>  (158) 
B

$$$$
x0957_1B§3
     RDKit          3D

 12 12  0  0  0  0  0  0  0  0999 V2000
   -5.4220    2.3750  -51.4220 N   0  0  0  0  0  0  0  0  0  0  0  0
   -4.9990    3.7500  -51.2740 C   0  0  0  0  0  0  0  0  0  0  0  0
   -3.8180    1.6870  -49.0300 O   0  0  0  0  0  0  0  0  0  0  0  0
   -6.4560    1.8220  -50.7040 C   0  0  0  0  0  0  0  0  0  0  0  0
   -4.6290   -0.4210  -48.0620 O   0  0  0  0  0  0  0  0  0  0  0  0
   -7.7830    2.1290  -51.0030 C   0  0  0  0  0  0  0  0  0  0  0  0
   -8.8190    1.5030  -50.3260 C   0  0  0  0  0  0  0  0  0  0  0  0
   -8.5520    0.5750  -49.3420 C   0  0  0  0  0  0  0  0  0  0  0  0
   -7.2470    0.2580  -49.0160 C   0  0  0  0  0  0  0  0  0  0  0  0
   -6.2010    0.8780  -49.6900 C   0  0  0  0  0  0  0  0  0  0  0  0
   -3.8820   -0.4170  -50.5450 C   0  0  0  0  0  0  0  0  0  0  0  0
   -4.5530    0.4640  -49.1870 S   0  0  1  0  0  0  0  0  0  0  0  0
  1  2  1  0
  1  4  1  0
  3 12  2  0
  4  6  2  0
  4 10  1  0
  5 12  2  0
  6  7  1  0
  7  8  2  0
  8  9  1  0
  9 10  2  0
 10 12  1  0
 12 11  1  6
A    1
 N  
A    2
 C  
A    3
 O  
A    4
 C1 
A    5
 O1 
A    6
 C2 
A    7
 C3 
A    8
 C4 
A    9
 C5 
A   10
 C6 
A   11
 C7 
A   12
 S  
M  END
>  <XChem_code>  (159) 
D68EV3CPROA-x0957

>  <Occupancy>  (159) 
[0.7, 0.7, 0.7, 0.7, 0.7, 0.7, 0.7, 0.7, 0.7, 0.7, 0.7, 0.7]

>  <TempFactor>  (159) 
[45.09, 47.61, 45.08, 43.37, 40.28, 39.38, 39.51, 36.23, 40.27, 41.26, 41.32, 43.18]

>  <RealCrystalName>  (159) 
D68EV3CPROA-x0957

>  <smiles>  (159) 
CNc1ccccc1S(=O)(=O)C

>  <new_smiles>  (159) 
CNc1ccccc1S(=O)(=O)C

>  <alternate_name>  (159) 
Z285782452

>  <site_name>  (159) 
2

>  <pdb_entry>  (159) 
nan

>  <mol>  (159) 
<rdkit.Chem.rdchem.Mol object at 0x164f2aea0>

>  <single_smiles>  (159) 
CNc1ccccc1S(C)(=O)=O

>  <base_name>  (159) 
D68EV3CPROA-x0957_1B

>  <lig_resn>  (159) 
LIG

>  <lig_resi>  (159) 
201

>  <lig_chain>  (159) 
B

>  <lig_segi>  (159) 


>  <lig_alt>  (159) 


>  <polymer_chain>  (159) 
B

$$$$
x0957_1B§4
     RDKit          3D

 12 12  0  0  0  0  0  0  0  0999 V2000
  -29.4220    8.4840  -38.9020 N   0  0  0  0  0  0  0  0  0  0  0  0
  -28.8600    8.5740  -37.5710 C   0  0  0  0  0  0  0  0  0  0  0  0
  -28.9950    8.7290  -43.2900 O   0  0  0  0  0  0  0  0  0  0  0  0
  -29.3330    7.3480  -39.6720 C   0  0  0  0  0  0  0  0  0  0  0  0
  -29.6750    9.9410  -41.2560 O   0  0  0  0  0  0  0  0  0  0  0  0
  -29.5280    6.0850  -39.1120 C   0  0  0  0  0  0  0  0  0  0  0  0
  -29.3940    4.9440  -39.8900 C   0  0  0  0  0  0  0  0  0  0  0  0
  -29.0610    5.0390  -41.2230 C   0  0  0  0  0  0  0  0  0  0  0  0
  -28.8710    6.2800  -41.8110 C   0  0  0  0  0  0  0  0  0  0  0  0
  -29.0150    7.4290  -41.0440 C   0  0  0  0  0  0  0  0  0  0  0  0
  -27.1630    9.4580  -41.6250 C   0  0  0  0  0  0  0  0  0  0  0  0
  -28.8220    8.9750  -41.8880 S   0  0  1  0  0  0  0  0  0  0  0  0
  1  2  1  0
  1  4  1  0
  3 12  2  0
  4  6  2  0
  4 10  1  0
  5 12  2  0
  6  7  1  0
  7  8  2  0
  8  9  1  0
  9 10  2  0
 10 12  1  0
 12 11  1  6
A    1
 N  
A    2
 C  
A    3
 O  
A    4
 C1 
A    5
 O1 
A    6
 C2 
A    7
 C3 
A    8
 C4 
A    9
 C5 
A   10
 C6 
A   11
 C7 
A   12
 S  
M  END
>  <XChem_code>  (160) 
D68EV3CPROA-x0957

>  <Occupancy>  (160) 
[0.61, 0.61, 0.61, 0.61, 0.61, 0.61, 0.61, 0.61, 0.61, 0.61, 0.61, 0.61]

>  <TempFactor>  (160) 
[54.23, 50.39, 53.02, 54.0, 59.0, 52.34, 52.32, 53.36, 53.47, 54.7, 52.13, 55.2]

>  <RealCrystalName>  (160) 
D68EV3CPROA-x0957

>  <smiles>  (160) 
CNc1ccccc1S(=O)(=O)C

>  <new_smiles>  (160) 
CNc1ccccc1S(=O)(=O)C

>  <alternate_name>  (160) 
Z285782452

>  <site_name>  (160) 
2

>  <pdb_entry>  (160) 
nan

>  <mol>  (160) 
<rdkit.Chem.rdchem.Mol object at 0x164f2aea0>

>  <single_smiles>  (160) 
CNc1ccccc1S(C)(=O)=O

>  <base_name>  (160) 
D68EV3CPROA-x0957_1B

>  <lig_resn>  (160) 
LIG

>  <lig_resi>  (160) 
301

>  <lig_chain>  (160) 
B

>  <lig_segi>  (160) 


>  <lig_alt>  (160) 


>  <polymer_chain>  (160) 
B

$$$$
x1686_0A§1
     RDKit          3D

  6  6  0  0  0  0  0  0  0  0999 V2000
   -2.2000    4.6840  -24.5890 N   0  0  0  0  0  0  0  0  0  0  0  0
   -0.8450    3.5220  -25.8170 C   0  0  0  0  0  0  0  0  0  0  0  0
   -0.8810    4.3760  -24.7650 C   0  0  0  0  0  0  0  0  0  0  0  0
   -2.1030    3.2940  -26.3030 N   0  0  0  0  0  0  0  0  0  0  0  0
   -2.8900    4.0180  -25.5200 C   0  0  0  0  0  0  0  0  0  0  0  0
    0.8310    2.6230  -26.6250 I   0  0  0  0  0  0  0  0  0  0  0  0
  1  3  1  0
  1  5  1  0
  2  3  2  0
  2  4  1  0
  2  6  1  0
  4  5  2  0
A    1
 N  
A    2
 C  
A    3
 C1 
A    4
 N1 
A    5
 C2 
A    6
 I  
M  END
>  <XChem_code>  (161) 
D68EV3CPROA-x1686

>  <Occupancy>  (161) 
[0.46, 0.46, 0.46, 0.46, 0.46, 0.46]

>  <TempFactor>  (161) 
[87.39, 90.6, 89.43, 89.49, 87.85, 114.03]

>  <RealCrystalName>  (161) 
D68EV3CPROA-x1686

>  <smiles>  (161) 
IC1=CNC=N1

>  <new_smiles>  (161) 
IC1=CNC=N1

>  <alternate_name>  (161) 
Z1201621250

>  <site_name>  (161) 
3

>  <pdb_entry>  (161) 
nan

>  <mol>  (161) 
<rdkit.Chem.rdchem.Mol object at 0x165034eb0>

>  <single_smiles>  (161) 
Ic1c[nH]cn1

>  <base_name>  (161) 
D68EV3CPROA-x1686_0A

>  <lig_resn>  (161) 
LIG

>  <lig_resi>  (161) 
201

>  <lig_chain>  (161) 
A

>  <lig_segi>  (161) 


>  <lig_alt>  (161) 


>  <polymer_chain>  (161) 
A

$$$$
x1686_0A§2
     RDKit          3D

  6  6  0  0  0  0  0  0  0  0999 V2000
   -8.9810    0.8770  -13.5210 N   0  0  0  0  0  0  0  0  0  0  0  0
   -9.8080   -1.1050  -13.7960 C   0  0  0  0  0  0  0  0  0  0  0  0
  -10.1560    0.1980  -13.6710 C   0  0  0  0  0  0  0  0  0  0  0  0
   -8.4510   -1.2570  -13.7230 N   0  0  0  0  0  0  0  0  0  0  0  0
   -7.9950   -0.0240  -13.5610 C   0  0  0  0  0  0  0  0  0  0  0  0
  -11.0850   -2.7060  -14.0830 I   0  0  0  0  0  0  0  0  0  0  0  0
  1  3  1  0
  1  5  1  0
  2  3  2  0
  2  4  1  0
  2  6  1  0
  4  5  2  0
A    1
 N  
A    2
 C  
A    3
 C1 
A    4
 N1 
A    5
 C2 
A    6
 I  
M  END
>  <XChem_code>  (162) 
D68EV3CPROA-x1686

>  <Occupancy>  (162) 
[0.46, 0.46, 0.46, 0.46, 0.46, 0.46]

>  <TempFactor>  (162) 
[87.39, 90.6, 89.43, 89.49, 87.85, 114.03]

>  <RealCrystalName>  (162) 
D68EV3CPROA-x1686

>  <smiles>  (162) 
IC1=CNC=N1

>  <new_smiles>  (162) 
IC1=CNC=N1

>  <alternate_name>  (162) 
Z1201621250

>  <site_name>  (162) 
3

>  <pdb_entry>  (162) 
nan

>  <mol>  (162) 
<rdkit.Chem.rdchem.Mol object at 0x165034eb0>

>  <single_smiles>  (162) 
Ic1c[nH]cn1

>  <base_name>  (162) 
D68EV3CPROA-x1686_0A

>  <lig_resn>  (162) 
LIG

>  <lig_resi>  (162) 
201

>  <lig_chain>  (162) 
A

>  <lig_segi>  (162) 


>  <lig_alt>  (162) 


>  <polymer_chain>  (162) 
B

$$$$
x1686_0A§3
     RDKit          3D

  6  6  0  0  0  0  0  0  0  0999 V2000
   -9.3050    0.5190  -50.0970 N   0  0  0  0  0  0  0  0  0  0  0  0
   -7.2170    0.6990  -49.5700 C   0  0  0  0  0  0  0  0  0  0  0  0
   -8.3110   -0.0830  -49.3940 C   0  0  0  0  0  0  0  0  0  0  0  0
   -7.5110    1.7820  -50.3480 N   0  0  0  0  0  0  0  0  0  0  0  0
   -8.7920    1.6230  -50.6430 C   0  0  0  0  0  0  0  0  0  0  0  0
   -5.3130    0.3570  -48.8360 I   0  0  0  0  0  0  0  0  0  0  0  0
  1  3  1  0
  1  5  1  0
  2  3  2  0
  2  4  1  0
  2  6  1  0
  4  5  2  0
A    1
 N  
A    2
 C  
A    3
 C1 
A    4
 N1 
A    5
 C2 
A    6
 I  
M  END
>  <XChem_code>  (163) 
D68EV3CPROA-x1686

>  <Occupancy>  (163) 
[0.32, 0.32, 0.32, 0.32, 0.32, 0.32]

>  <TempFactor>  (163) 
[31.28, 35.4, 33.07, 34.43, 32.39, 41.9]

>  <RealCrystalName>  (163) 
D68EV3CPROA-x1686

>  <smiles>  (163) 
IC1=CNC=N1

>  <new_smiles>  (163) 
IC1=CNC=N1

>  <alternate_name>  (163) 
Z1201621250

>  <site_name>  (163) 
3

>  <pdb_entry>  (163) 
nan

>  <mol>  (163) 
<rdkit.Chem.rdchem.Mol object at 0x165034eb0>

>  <single_smiles>  (163) 
Ic1c[nH]cn1

>  <base_name>  (163) 
D68EV3CPROA-x1686_0A

>  <lig_resn>  (163) 
LIG

>  <lig_resi>  (163) 
201

>  <lig_chain>  (163) 
B

>  <lig_segi>  (163) 


>  <lig_alt>  (163) 


>  <polymer_chain>  (163) 
B

$$$$
x0232_1B§1
     RDKit          3D

 13 14  0  0  0  0  0  0  0  0999 V2000
  -28.9430    5.1370  -43.6670 N   0  0  0  0  0  0  0  0  0  0  0  0
  -27.9720    2.8620  -42.5090 C   0  0  0  0  0  0  0  0  0  0  0  0
  -27.1950    5.2630  -41.9620 O   0  0  0  0  0  0  0  0  0  0  0  0
  -28.6530    1.8670  -41.8130 C   0  0  0  0  0  0  0  0  0  0  0  0
  -26.8540   -1.0940  -43.1930 N   0  0  0  0  0  0  0  0  0  0  0  0
  -29.4900    4.6060  -41.3390 O   0  0  0  0  0  0  0  0  0  0  0  0
  -25.3950    0.5280  -44.5860 S   0  0  0  0  0  0  0  0  0  0  0  0
  -28.3200    0.5350  -42.0120 C   0  0  0  0  0  0  0  0  0  0  0  0
  -27.3000    0.1970  -42.9010 C   0  0  0  0  0  0  0  0  0  0  0  0
  -25.8830   -1.0430  -44.0380 C   0  0  0  0  0  0  0  0  0  0  0  0
  -26.6240    1.2180  -43.5770 C   0  0  0  0  0  0  0  0  0  0  0  0
  -26.9510    2.5530  -43.3950 C   0  0  0  0  0  0  0  0  0  0  0  0
  -28.4030    4.5580  -42.2720 S   0  0  1  0  0  0  0  0  0  0  0  0
 13  1  1  6
  2  4  2  0
  2 12  1  0
  2 13  1  0
  3 13  2  0
  4  8  1  0
  5  9  1  0
  5 10  2  0
  6 13  2  0
  7 10  1  0
  7 11  1  0
  8  9  2  0
  9 11  1  0
 11 12  2  0
A    1
 N  
A    2
 C  
A    3
 O  
A    4
 C1 
A    5
 N1 
A    6
 O1 
A    7
 S1 
A    8
 C2 
A    9
 C3 
A   10
 C4 
A   11
 C5 
A   12
 C6 
A   13
 S  
M  END
>  <XChem_code>  (164) 
D68EV3CPROA-x0232

>  <Occupancy>  (164) 
[0.66, 0.66, 0.66, 0.66, 0.66, 0.66, 0.66, 0.66, 0.66, 0.66, 0.66, 0.66, 0.66]

>  <TempFactor>  (164) 
[60.8, 58.09, 60.48, 59.46, 56.24, 55.39, 51.37, 58.49, 56.62, 54.25, 55.45, 56.25, 62.86]

>  <RealCrystalName>  (164) 
D68EV3CPROA-x0232

>  <smiles>  (164) 
NS(=O)(=O)c1ccc2ncsc2c1

>  <new_smiles>  (164) 
NS(=O)(=O)c1ccc2ncsc2c1

>  <alternate_name>  (164) 
Z1269184613

>  <site_name>  (164) 
1

>  <pdb_entry>  (164) 
nan

>  <mol>  (164) 
<rdkit.Chem.rdchem.Mol object at 0x162e33a00>

>  <single_smiles>  (164) 
NS(=O)(=O)c1ccc2ncsc2c1

>  <base_name>  (164) 
D68EV3CPROA-x0232_1B

>  <lig_resn>  (164) 
LIG

>  <lig_resi>  (164) 
202

>  <lig_chain>  (164) 
B

>  <lig_segi>  (164) 


>  <lig_alt>  (164) 


>  <polymer_chain>  (164) 
B

$$$$
x0232_1B§2
     RDKit          3D

 13 14  0  0  0  0  0  0  0  0999 V2000
  -14.1630  -11.2460  -13.7220 N   0  0  0  0  0  0  0  0  0  0  0  0
  -12.3920  -12.3900  -11.9670 C   0  0  0  0  0  0  0  0  0  0  0  0
  -13.6670  -10.1770  -11.5750 O   0  0  0  0  0  0  0  0  0  0  0  0
  -11.4390  -11.9550  -11.0540 C   0  0  0  0  0  0  0  0  0  0  0  0
   -8.8900  -14.6240  -11.5900 N   0  0  0  0  0  0  0  0  0  0  0  0
  -14.9550  -12.2690  -11.6510 O   0  0  0  0  0  0  0  0  0  0  0  0
  -10.4610  -15.6790  -13.3530 S   0  0  0  0  0  0  0  0  0  0  0  0
  -10.2770  -12.6850  -10.8690 C   0  0  0  0  0  0  0  0  0  0  0  0
  -10.0390  -13.8280  -11.6290 C   0  0  0  0  0  0  0  0  0  0  0  0
   -8.9980  -15.5940  -12.4290 C   0  0  0  0  0  0  0  0  0  0  0  0
  -11.0140  -14.2480  -12.5400 C   0  0  0  0  0  0  0  0  0  0  0  0
  -12.1980  -13.5450  -12.7110 C   0  0  0  0  0  0  0  0  0  0  0  0
  -13.8860  -11.4650  -12.1620 S   0  0  1  0  0  0  0  0  0  0  0  0
 13  1  1  6
  2  4  2  0
  2 12  1  0
  2 13  1  0
  3 13  2  0
  4  8  1  0
  5  9  1  0
  5 10  2  0
  6 13  2  0
  7 10  1  0
  7 11  1  0
  8  9  2  0
  9 11  1  0
 11 12  2  0
A    1
 N  
A    2
 C  
A    3
 O  
A    4
 C1 
A    5
 N1 
A    6
 O1 
A    7
 S1 
A    8
 C2 
A    9
 C3 
A   10
 C4 
A   11
 C5 
A   12
 C6 
A   13
 S  
M  END
>  <XChem_code>  (165) 
D68EV3CPROA-x0232

>  <Occupancy>  (165) 
[0.64, 0.64, 0.64, 0.64, 0.64, 0.64, 0.64, 0.64, 0.64, 0.64, 0.64, 0.64, 0.64]

>  <TempFactor>  (165) 
[48.88, 49.78, 50.91, 49.09, 53.61, 52.54, 57.54, 51.16, 52.47, 54.77, 51.84, 50.42, 48.86]

>  <RealCrystalName>  (165) 
D68EV3CPROA-x0232

>  <smiles>  (165) 
NS(=O)(=O)c1ccc2ncsc2c1

>  <new_smiles>  (165) 
NS(=O)(=O)c1ccc2ncsc2c1

>  <alternate_name>  (165) 
Z1269184613

>  <site_name>  (165) 
1

>  <pdb_entry>  (165) 
nan

>  <mol>  (165) 
<rdkit.Chem.rdchem.Mol object at 0x162e33a00>

>  <single_smiles>  (165) 
NS(=O)(=O)c1ccc2ncsc2c1

>  <base_name>  (165) 
D68EV3CPROA-x0232_1B

>  <lig_resn>  (165) 
LIG

>  <lig_resi>  (165) 
201

>  <lig_chain>  (165) 
B

>  <lig_segi>  (165) 


>  <lig_alt>  (165) 


>  <polymer_chain>  (165) 
A

$$$$
x0232_1B§3
     RDKit          3D

 13 14  0  0  0  0  0  0  0  0999 V2000
    2.0030    4.8220  -32.3020 N   0  0  0  0  0  0  0  0  0  0  0  0
    0.0760    5.1100  -34.2320 C   0  0  0  0  0  0  0  0  0  0  0  0
    0.7970    6.9380  -32.5550 O   0  0  0  0  0  0  0  0  0  0  0  0
   -1.1390    5.7700  -34.3670 C   0  0  0  0  0  0  0  0  0  0  0  0
   -2.9540    3.2010  -36.3700 N   0  0  0  0  0  0  0  0  0  0  0  0
    2.4110    6.2190  -34.2630 O   0  0  0  0  0  0  0  0  0  0  0  0
   -0.8250    1.7340  -36.2960 S   0  0  0  0  0  0  0  0  0  0  0  0
   -2.1630    5.1900  -35.0990 C   0  0  0  0  0  0  0  0  0  0  0  0
   -1.9920    3.9270  -35.6610 C   0  0  0  0  0  0  0  0  0  0  0  0
   -2.4670    2.0680  -36.7390 C   0  0  0  0  0  0  0  0  0  0  0  0
   -0.7600    3.2830  -35.5140 C   0  0  0  0  0  0  0  0  0  0  0  0
    0.2850    3.8670  -34.8120 C   0  0  0  0  0  0  0  0  0  0  0  0
    1.3820    5.8830  -33.3260 S   0  0  1  0  0  0  0  0  0  0  0  0
 13  1  1  1
  2  4  2  0
  2 12  1  0
  2 13  1  0
  3 13  2  0
  4  8  1  0
  5  9  1  0
  5 10  2  0
  6 13  2  0
  7 10  1  0
  7 11  1  0
  8  9  2  0
  9 11  1  0
 11 12  2  0
A    1
 N  
A    2
 C  
A    3
 O  
A    4
 C1 
A    5
 N1 
A    6
 O1 
A    7
 S1 
A    8
 C2 
A    9
 C3 
A   10
 C4 
A   11
 C5 
A   12
 C6 
A   13
 S  
M  END
>  <XChem_code>  (166) 
D68EV3CPROA-x0232

>  <Occupancy>  (166) 
[0.64, 0.64, 0.64, 0.64, 0.64, 0.64, 0.64, 0.64, 0.64, 0.64, 0.64, 0.64, 0.64]

>  <TempFactor>  (166) 
[48.88, 49.78, 50.91, 49.09, 53.61, 52.54, 57.54, 51.16, 52.47, 54.77, 51.84, 50.42, 48.86]

>  <RealCrystalName>  (166) 
D68EV3CPROA-x0232

>  <smiles>  (166) 
NS(=O)(=O)c1ccc2ncsc2c1

>  <new_smiles>  (166) 
NS(=O)(=O)c1ccc2ncsc2c1

>  <alternate_name>  (166) 
Z1269184613

>  <site_name>  (166) 
1

>  <pdb_entry>  (166) 
nan

>  <mol>  (166) 
<rdkit.Chem.rdchem.Mol object at 0x162e33a00>

>  <single_smiles>  (166) 
NS(=O)(=O)c1ccc2ncsc2c1

>  <base_name>  (166) 
D68EV3CPROA-x0232_1B

>  <lig_resn>  (166) 
LIG

>  <lig_resi>  (166) 
201

>  <lig_chain>  (166) 
B

>  <lig_segi>  (166) 


>  <lig_alt>  (166) 


>  <polymer_chain>  (166) 
B

$$$$
x1388_0B§1
     RDKit          3D

 15 17  0  0  0  0  0  0  0  0999 V2000
   -5.6560    2.2120  -52.1380 N   0  0  0  0  0  0  0  0  0  0  0  0
   -6.2850    2.7110  -53.2190 C   0  0  0  0  0  0  0  0  0  0  0  0
   -5.6900    3.3520  -54.0750 O   0  0  0  0  0  0  0  0  0  0  0  0
   -6.2590    1.5440  -51.0730 C   0  0  0  0  0  0  0  0  0  0  0  0
   -7.9260    1.3340  -54.3150 N   0  0  0  0  0  0  0  0  0  0  0  0
   -7.6560    1.4270  -51.0420 C   0  0  0  0  0  0  0  0  0  0  0  0
   -8.2420    0.7620  -49.9670 C   0  0  0  0  0  0  0  0  0  0  0  0
   -7.4690    0.2470  -48.9440 C   0  0  0  0  0  0  0  0  0  0  0  0
   -6.0980    0.3700  -48.9820 C   0  0  0  0  0  0  0  0  0  0  0  0
   -5.4830    1.0130  -50.0440 C   0  0  0  0  0  0  0  0  0  0  0  0
   -8.5200    2.0770  -52.0870 C   0  0  0  0  0  0  0  0  0  0  0  0
   -7.7750    2.4590  -53.3760 C   0  0  1  0  0  0  0  0  0  0  0  0
   -8.5600    1.7770  -55.5660 C   0  0  0  0  0  0  0  0  0  0  0  0
   -8.4290    3.2880  -55.5670 C   0  0  0  0  0  0  0  0  0  0  0  0
   -8.4380    3.6540  -54.0910 C   0  0  0  0  0  0  0  0  0  0  0  0
  1  2  1  0
  1  4  1  0
  2  3  2  0
  2 12  1  0
  4  6  2  0
  4 10  1  0
  5 12  1  0
  5 13  1  0
  6  7  1  0
  6 11  1  0
  7  8  2  0
  8  9  1  0
  9 10  2  0
 12 11  1  1
 12 15  1  0
 13 14  1  0
 14 15  1  0
A    1
 N  
A    2
 C  
A    3
 O  
A    4
 C1 
A    5
 N1 
A    6
 C2 
A    7
 C3 
A    8
 C4 
A    9
 C5 
A   10
 C6 
A   11
 C7 
A   12
 C8 
A   13
 C9 
A   14
 C10
A   15
 C11
M  END
>  <XChem_code>  (167) 
D68EV3CPROA-x1388

>  <Occupancy>  (167) 
[0.88, 0.88, 0.88, 0.88, 0.88, 0.88, 0.88, 0.88, 0.88, 0.88, 0.88, 0.88, 0.88, 0.88, 0.88]

>  <TempFactor>  (167) 
[92.25, 97.06, 97.35, 88.35, 101.9, 87.22, 81.16, 76.95, 80.47, 84.86, 94.78, 99.47, 101.25, 99.84, 100.1]

>  <RealCrystalName>  (167) 
D68EV3CPROA-x1388

>  <smiles>  (167) 
O=C1NC2=C(C=CC=C2)CC31NCCC3

>  <new_smiles>  (167) 
O=C1NC2=C(C=CC=C2)CC31NCCC3

>  <alternate_name>  (167) 
POB0120

>  <site_name>  (167) 
2

>  <pdb_entry>  (167) 
nan

>  <mol>  (167) 
<rdkit.Chem.rdchem.Mol object at 0x164f2bed0>

>  <single_smiles>  (167) 
O=C1Nc2ccccc2CC12CCCN2

>  <base_name>  (167) 
D68EV3CPROA-x1388_0B

>  <lig_resn>  (167) 
LIG

>  <lig_resi>  (167) 
201

>  <lig_chain>  (167) 
B

>  <lig_segi>  (167) 


>  <lig_alt>  (167) 


>  <polymer_chain>  (167) 
B

$$$$
x0157_0B§1
     RDKit          3D

 11 12  0  0  0  0  0  0  0  0999 V2000
   -6.6810    1.8140  -50.1560 N   0  0  0  0  0  0  0  0  0  0  0  0
   -6.6540    3.8190  -51.9380 C   0  0  0  0  0  0  0  0  0  0  0  0
   -6.6010    4.8270  -52.8150 O   0  0  0  0  0  0  0  0  0  0  0  0
   -5.4160    3.3580  -51.4340 C   0  0  0  0  0  0  0  0  0  0  0  0
   -8.9220    1.6910  -50.2090 N   0  0  0  0  0  0  0  0  0  0  0  0
   -4.4180    1.7130  -50.0400 O   0  0  0  0  0  0  0  0  0  0  0  0
   -5.4540    2.3230  -50.5400 C   0  0  0  0  0  0  0  0  0  0  0  0
   -7.8180    3.3260  -51.6080 N   0  0  0  0  0  0  0  0  0  0  0  0
   -7.0490    0.8300  -49.2550 C   0  0  0  0  0  0  0  0  0  0  0  0
   -8.4050    0.7750  -49.3100 C   0  0  0  0  0  0  0  0  0  0  0  0
   -7.8550    2.3150  -50.7050 C   0  0  0  0  0  0  0  0  0  0  0  0
  1  7  1  0
  1  9  1  0
  1 11  1  0
  2  3  1  0
  2  4  1  0
  2  8  2  0
  4  7  2  0
  5 10  1  0
  5 11  2  0
  6  7  1  0
  8 11  1  0
  9 10  2  0
A    1
 N  
A    2
 C  
A    3
 O  
A    4
 C1 
A    5
 N1 
A    6
 O1 
A    7
 C2 
A    8
 N2 
A    9
 C3 
A   10
 C4 
A   11
 C5 
M  END
>  <XChem_code>  (168) 
D68EV3CPROA-x0157

>  <Occupancy>  (168) 
[0.55, 0.55, 0.55, 0.55, 0.55, 0.55, 0.55, 0.55, 0.55, 0.55, 0.55]

>  <TempFactor>  (168) 
[30.73, 32.15, 34.77, 31.9, 29.31, 40.22, 31.01, 30.83, 29.02, 27.84, 29.38]

>  <RealCrystalName>  (168) 
D68EV3CPROA-x0157

>  <smiles>  (168) 
Oc1cc(O)n2ccnc2n1

>  <new_smiles>  (168) 
Oc1cc(O)n2ccnc2n1

>  <alternate_name>  (168) 
Z1198233191

>  <site_name>  (168) 
3

>  <pdb_entry>  (168) 
nan

>  <mol>  (168) 
<rdkit.Chem.rdchem.Mol object at 0x16324c6d0>

>  <single_smiles>  (168) 
Oc1cc(O)n2ccnc2n1

>  <base_name>  (168) 
D68EV3CPROA-x0157_0B

>  <lig_resn>  (168) 
LIG

>  <lig_resi>  (168) 
201

>  <lig_chain>  (168) 
B

>  <lig_segi>  (168) 


>  <lig_alt>  (168) 


>  <polymer_chain>  (168) 
B

$$$$
x0157_0B§2
     RDKit          3D

 11 12  0  0  0  0  0  0  0  0999 V2000
    0.7280    3.1940  -24.6760 N   0  0  0  0  0  0  0  0  0  0  0  0
   -0.2560    4.5480  -22.6130 C   0  0  0  0  0  0  0  0  0  0  0  0
   -0.7210    5.2140  -21.5610 O   0  0  0  0  0  0  0  0  0  0  0  0
    0.9550    3.8150  -22.4240 C   0  0  0  0  0  0  0  0  0  0  0  0
   -0.9830    3.8220  -25.9840 N   0  0  0  0  0  0  0  0  0  0  0  0
    2.5950    2.4830  -23.5710 O   0  0  0  0  0  0  0  0  0  0  0  0
    1.4520    3.1400  -23.5130 C   0  0  0  0  0  0  0  0  0  0  0  0
   -0.9220    4.6160  -23.7240 N   0  0  0  0  0  0  0  0  0  0  0  0
    0.9220    2.5870  -25.9040 C   0  0  0  0  0  0  0  0  0  0  0  0
   -0.1260    2.9830  -26.6710 C   0  0  0  0  0  0  0  0  0  0  0  0
   -0.4470    3.9320  -24.7740 C   0  0  0  0  0  0  0  0  0  0  0  0
  1  7  1  0
  1  9  1  0
  1 11  1  0
  2  3  1  0
  2  4  1  0
  2  8  2  0
  4  7  2  0
  5 10  1  0
  5 11  2  0
  6  7  1  0
  8 11  1  0
  9 10  2  0
A    1
 N  
A    2
 C  
A    3
 O  
A    4
 C1 
A    5
 N1 
A    6
 O1 
A    7
 C2 
A    8
 N2 
A    9
 C3 
A   10
 C4 
A   11
 C5 
M  END
>  <XChem_code>  (169) 
D68EV3CPROA-x0157

>  <Occupancy>  (169) 
[0.55, 0.55, 0.55, 0.55, 0.55, 0.55, 0.55, 0.55, 0.55, 0.55, 0.55]

>  <TempFactor>  (169) 
[37.81, 37.12, 36.26, 38.11, 37.97, 42.73, 37.94, 35.31, 38.32, 38.05, 36.24]

>  <RealCrystalName>  (169) 
D68EV3CPROA-x0157

>  <smiles>  (169) 
Oc1cc(O)n2ccnc2n1

>  <new_smiles>  (169) 
Oc1cc(O)n2ccnc2n1

>  <alternate_name>  (169) 
Z1198233191

>  <site_name>  (169) 
3

>  <pdb_entry>  (169) 
nan

>  <mol>  (169) 
<rdkit.Chem.rdchem.Mol object at 0x16324c6d0>

>  <single_smiles>  (169) 
Oc1cc(O)n2ccnc2n1

>  <base_name>  (169) 
D68EV3CPROA-x0157_0B

>  <lig_resn>  (169) 
LIG

>  <lig_resi>  (169) 
301

>  <lig_chain>  (169) 
B

>  <lig_segi>  (169) 


>  <lig_alt>  (169) 


>  <polymer_chain>  (169) 
A

$$$$
x0157_0B§3
     RDKit          3D

 11 12  0  0  0  0  0  0  0  0999 V2000
  -11.6410   -0.9250  -14.7890 N   0  0  0  0  0  0  0  0  0  0  0  0
  -11.3960    1.7200  -14.7890 C   0  0  0  0  0  0  0  0  0  0  0  0
  -11.3020    3.0460  -14.8100 O   0  0  0  0  0  0  0  0  0  0  0  0
  -12.4870    1.1430  -15.5070 C   0  0  0  0  0  0  0  0  0  0  0  0
   -9.7890   -1.1590  -13.5440 N   0  0  0  0  0  0  0  0  0  0  0  0
  -13.5820   -0.9420  -15.9910 O   0  0  0  0  0  0  0  0  0  0  0  0
  -12.6020   -0.2270  -15.4730 C   0  0  0  0  0  0  0  0  0  0  0  0
  -10.5050    1.0540  -14.1220 N   0  0  0  0  0  0  0  0  0  0  0  0
  -11.4420   -2.2840  -14.6220 C   0  0  0  0  0  0  0  0  0  0  0  0
  -10.3180   -2.3930  -13.8690 C   0  0  0  0  0  0  0  0  0  0  0  0
  -10.6070   -0.2820  -14.1170 C   0  0  0  0  0  0  0  0  0  0  0  0
  1  7  1  0
  1  9  1  0
  1 11  1  0
  2  3  1  0
  2  4  1  0
  2  8  2  0
  4  7  2  0
  5 10  1  0
  5 11  2  0
  6  7  1  0
  8 11  1  0
  9 10  2  0
A    1
 N  
A    2
 C  
A    3
 O  
A    4
 C1 
A    5
 N1 
A    6
 O1 
A    7
 C2 
A    8
 N2 
A    9
 C3 
A   10
 C4 
A   11
 C5 
M  END
>  <XChem_code>  (170) 
D68EV3CPROA-x0157

>  <Occupancy>  (170) 
[0.55, 0.55, 0.55, 0.55, 0.55, 0.55, 0.55, 0.55, 0.55, 0.55, 0.55]

>  <TempFactor>  (170) 
[37.81, 37.12, 36.26, 38.11, 37.97, 42.73, 37.94, 35.31, 38.32, 38.05, 36.24]

>  <RealCrystalName>  (170) 
D68EV3CPROA-x0157

>  <smiles>  (170) 
Oc1cc(O)n2ccnc2n1

>  <new_smiles>  (170) 
Oc1cc(O)n2ccnc2n1

>  <alternate_name>  (170) 
Z1198233191

>  <site_name>  (170) 
3

>  <pdb_entry>  (170) 
nan

>  <mol>  (170) 
<rdkit.Chem.rdchem.Mol object at 0x16324c6d0>

>  <single_smiles>  (170) 
Oc1cc(O)n2ccnc2n1

>  <base_name>  (170) 
D68EV3CPROA-x0157_0B

>  <lig_resn>  (170) 
LIG

>  <lig_resi>  (170) 
301

>  <lig_chain>  (170) 
B

>  <lig_segi>  (170) 


>  <lig_alt>  (170) 


>  <polymer_chain>  (170) 
B

$$$$
x0708_0B§1
     RDKit          3D

 14 15  0  0  0  0  0  0  0  0999 V2000
    1.3410    3.6080  -25.0080 N   0  0  0  0  0  0  0  0  0  0  0  0
    3.5690    0.9270  -26.5190 C   0  0  0  0  0  0  0  0  0  0  0  0
    1.2510    1.2560  -26.3010 O   0  0  0  0  0  0  0  0  0  0  0  0
    2.4790    1.9650  -26.4100 C   0  0  1  0  0  0  0  0  0  0  0  0
   -0.0190    4.8110  -23.5310 N   0  0  0  0  0  0  0  0  0  0  0  0
    0.0950    2.1030  -26.4410 C   0  0  0  0  0  0  0  0  0  0  0  0
    0.2870    3.9540  -21.3950 N   0  0  0  0  0  0  0  0  0  0  0  0
    0.4320    3.5440  -26.1550 C   0  0  0  0  0  0  0  0  0  0  0  0
    2.6200    2.8930  -25.2040 C   0  0  1  0  0  0  0  0  0  0  0  0
    3.7910    3.8470  -25.3670 C   0  0  0  0  0  0  0  0  0  0  0  0
    0.8720    3.8760  -23.7770 C   0  0  0  0  0  0  0  0  0  0  0  0
   -0.3090    4.8140  -22.1880 C   0  0  0  0  0  0  0  0  0  0  0  0
   -1.2690    5.7870  -21.6030 C   0  0  0  0  0  0  0  0  0  0  0  0
    1.3260    3.0300  -22.3250 S   0  0  0  0  0  0  0  0  0  0  0  0
  1  8  1  0
  1  9  1  0
  1 11  1  0
  4  2  1  1
  3  4  1  0
  3  6  1  0
  4  9  1  0
  5 11  2  0
  5 12  1  0
  6  8  1  0
  7 14  1  0
  7 12  2  0
  9 10  1  6
 11 14  1  0
 12 13  1  0
A    1
 N  
A    2
 C  
A    3
 O  
A    4
 C1 
A    5
 N1 
A    6
 C2 
A    7
 N2 
A    8
 C3 
A    9
 C4 
A   10
 C5 
A   11
 C6 
A   12
 C7 
A   13
 C8 
A   14
 S  
M  END
>  <XChem_code>  (171) 
D68EV3CPROA-x0708

>  <Occupancy>  (171) 
[0.62, 0.62, 0.62, 0.62, 0.62, 0.62, 0.62, 0.62, 0.62, 0.62, 0.62, 0.62, 0.62, 0.62]

>  <TempFactor>  (171) 
[72.85, 71.6, 74.64, 73.37, 70.74, 74.81, 69.69, 72.63, 73.18, 73.2, 71.59, 69.67, 68.33, 68.95]

>  <RealCrystalName>  (171) 
D68EV3CPROA-x0708

>  <smiles>  (171) 
CC1OCCN(C1C)c2nc(C)ns2

>  <new_smiles>  (171) 
CC1OCCN(C1C)c2nc(C)ns2

>  <alternate_name>  (171) 
Z1439422127

>  <site_name>  (171) 
3

>  <pdb_entry>  (171) 
nan

>  <mol>  (171) 
<rdkit.Chem.rdchem.Mol object at 0x162e32c70>

>  <single_smiles>  (171) 
Cc1nsc(N2CCOC(C)C2C)n1

>  <base_name>  (171) 
D68EV3CPROA-x0708_0B

>  <lig_resn>  (171) 
LIG

>  <lig_resi>  (171) 
201

>  <lig_chain>  (171) 
B

>  <lig_segi>  (171) 


>  <lig_alt>  (171) 


>  <polymer_chain>  (171) 
A

$$$$
x0708_0B§2
     RDKit          3D

 14 15  0  0  0  0  0  0  0  0999 V2000
  -12.1310   -1.0990  -14.1250 N   0  0  0  0  0  0  0  0  0  0  0  0
  -13.5000   -4.3590  -15.5160 C   0  0  0  0  0  0  0  0  0  0  0  0
  -11.3790   -3.3530  -15.3750 O   0  0  0  0  0  0  0  0  0  0  0  0
  -12.6380   -3.4120  -14.7160 C   0  0  1  0  0  0  0  0  0  0  0  0
  -11.3610    1.1040  -13.9430 N   0  0  0  0  0  0  0  0  0  0  0  0
  -10.3640   -2.6890  -14.5990 C   0  0  0  0  0  0  0  0  0  0  0  0
  -12.0380    2.2710  -15.8330 N   0  0  0  0  0  0  0  0  0  0  0  0
  -10.9740   -1.7920  -13.5520 C   0  0  0  0  0  0  0  0  0  0  0  0
  -13.2020   -1.9970  -14.6060 C   0  0  1  0  0  0  0  0  0  0  0  0
  -14.4310   -1.9530  -13.7130 C   0  0  0  0  0  0  0  0  0  0  0  0
  -12.0160    0.1600  -14.5820 C   0  0  0  0  0  0  0  0  0  0  0  0
  -11.4060    2.2610  -14.6820 C   0  0  0  0  0  0  0  0  0  0  0  0
  -10.7730    3.5170  -14.1990 C   0  0  0  0  0  0  0  0  0  0  0  0
  -12.6720    0.7440  -16.0850 S   0  0  0  0  0  0  0  0  0  0  0  0
  1  8  1  0
  1  9  1  0
  1 11  1  0
  4  2  1  6
  3  4  1  0
  3  6  1  0
  4  9  1  0
  5 11  2  0
  5 12  1  0
  6  8  1  0
  7 14  1  0
  7 12  2  0
  9 10  1  1
 11 14  1  0
 12 13  1  0
A    1
 N  
A    2
 C  
A    3
 O  
A    4
 C1 
A    5
 N1 
A    6
 C2 
A    7
 N2 
A    8
 C3 
A    9
 C4 
A   10
 C5 
A   11
 C6 
A   12
 C7 
A   13
 C8 
A   14
 S  
M  END
>  <XChem_code>  (172) 
D68EV3CPROA-x0708

>  <Occupancy>  (172) 
[0.62, 0.62, 0.62, 0.62, 0.62, 0.62, 0.62, 0.62, 0.62, 0.62, 0.62, 0.62, 0.62, 0.62]

>  <TempFactor>  (172) 
[72.85, 71.6, 74.64, 73.37, 70.74, 74.81, 69.69, 72.63, 73.18, 73.2, 71.59, 69.67, 68.33, 68.95]

>  <RealCrystalName>  (172) 
D68EV3CPROA-x0708

>  <smiles>  (172) 
CC1OCCN(C1C)c2nc(C)ns2

>  <new_smiles>  (172) 
CC1OCCN(C1C)c2nc(C)ns2

>  <alternate_name>  (172) 
Z1439422127

>  <site_name>  (172) 
3

>  <pdb_entry>  (172) 
nan

>  <mol>  (172) 
<rdkit.Chem.rdchem.Mol object at 0x162e32c70>

>  <single_smiles>  (172) 
Cc1nsc(N2CCOC(C)C2C)n1

>  <base_name>  (172) 
D68EV3CPROA-x0708_0B

>  <lig_resn>  (172) 
LIG

>  <lig_resi>  (172) 
201

>  <lig_chain>  (172) 
B

>  <lig_segi>  (172) 


>  <lig_alt>  (172) 


>  <polymer_chain>  (172) 
B

$$$$
x0771_0A§1
     RDKit          3D

 12 13  0  0  0  0  0  0  0  0999 V2000
   -5.6790   11.9310  -29.3990 N   0  0  0  0  0  0  0  0  0  0  0  0
   -6.3840   10.8960  -29.8420 C   0  0  0  0  0  0  0  0  0  0  0  0
   -6.9430   10.0880  -29.0820 O   0  0  0  0  0  0  0  0  0  0  0  0
   -6.5020   10.7170  -31.3270 C   0  0  0  0  0  0  0  0  0  0  0  0
   -6.7520   10.0160  -35.4110 N   0  0  0  0  0  0  0  0  0  0  0  0
   -6.5570   11.8360  -32.1720 C   0  0  0  0  0  0  0  0  0  0  0  0
   -6.6430   11.6880  -33.5490 C   0  0  0  0  0  0  0  0  0  0  0  0
   -6.6470   10.3990  -34.0790 C   0  0  0  0  0  0  0  0  0  0  0  0
   -6.3200    8.6230  -35.5550 C   0  0  0  0  0  0  0  0  0  0  0  0
   -6.4470    8.0560  -34.1300 C   0  0  0  0  0  0  0  0  0  0  0  0
   -6.5640    9.2800  -33.2630 C   0  0  0  0  0  0  0  0  0  0  0  0
   -6.5210    9.4400  -31.8850 C   0  0  0  0  0  0  0  0  0  0  0  0
  1  2  1  0
  2  3  2  0
  2  4  1  0
  4  6  2  0
  4 12  1  0
  5  8  1  0
  5  9  1  0
  6  7  1  0
  7  8  2  0
  8 11  1  0
  9 10  1  0
 10 11  1  0
 11 12  2  0
A    1
 N  
A    2
 C  
A    3
 O  
A    4
 C1 
A    5
 N1 
A    6
 C2 
A    7
 C3 
A    8
 C4 
A    9
 C5 
A   10
 C6 
A   11
 C7 
A   12
 C8 
M  END
>  <XChem_code>  (173) 
D68EV3CPROA-x0771

>  <Occupancy>  (173) 
[0.64, 0.64, 0.64, 0.64, 0.64, 0.64, 0.64, 0.64, 0.64, 0.64, 0.64, 0.64]

>  <TempFactor>  (173) 
[49.02, 50.98, 46.17, 54.1, 60.3, 56.33, 58.38, 60.28, 61.4, 60.15, 59.84, 57.61]

>  <RealCrystalName>  (173) 
D68EV3CPROA-x0771

>  <smiles>  (173) 
Cl.NC(=O)c1ccc2NCCc2c1

>  <new_smiles>  (173) 
Cl.NC(=O)c1ccc2NCCc2c1

>  <alternate_name>  (173) 
Z1696091761

>  <site_name>  (173) 
1

>  <pdb_entry>  (173) 
nan

>  <mol>  (173) 
<rdkit.Chem.rdchem.Mol object at 0x162e32a40>

>  <single_smiles>  (173) 
NC(=O)c1ccc2c(c1)CCN2

>  <base_name>  (173) 
D68EV3CPROA-x0771_0A

>  <lig_resn>  (173) 
LIG

>  <lig_resi>  (173) 
301

>  <lig_chain>  (173) 
A

>  <lig_segi>  (173) 


>  <lig_alt>  (173) 


>  <polymer_chain>  (173) 
A

$$$$
x0771_0A§2
     RDKit          3D

 12 13  0  0  0  0  0  0  0  0999 V2000
   -2.6830    5.4030  -25.0080 N   0  0  0  0  0  0  0  0  0  0  0  0
   -1.7550    5.7130  -24.1080 C   0  0  0  0  0  0  0  0  0  0  0  0
   -1.7930    6.7610  -23.4370 O   0  0  0  0  0  0  0  0  0  0  0  0
   -0.6140    4.7500  -23.9150 C   0  0  0  0  0  0  0  0  0  0  0  0
    2.6400    2.1790  -23.7060 N   0  0  0  0  0  0  0  0  0  0  0  0
    0.1500    4.7670  -22.7340 C   0  0  0  0  0  0  0  0  0  0  0  0
    1.2330    3.9130  -22.5710 C   0  0  0  0  0  0  0  0  0  0  0  0
    1.5550    3.0420  -23.6100 C   0  0  0  0  0  0  0  0  0  0  0  0
    2.7380    1.6080  -25.0490 C   0  0  0  0  0  0  0  0  0  0  0  0
    1.3730    1.9370  -25.6830 C   0  0  0  0  0  0  0  0  0  0  0  0
    0.8020    2.9910  -24.7740 C   0  0  0  0  0  0  0  0  0  0  0  0
   -0.2840    3.8470  -24.9270 C   0  0  0  0  0  0  0  0  0  0  0  0
  1  2  1  0
  2  3  2  0
  2  4  1  0
  4  6  2  0
  4 12  1  0
  5  8  1  0
  5  9  1  0
  6  7  1  0
  7  8  2  0
  8 11  1  0
  9 10  1  0
 10 11  1  0
 11 12  2  0
A    1
 N  
A    2
 C  
A    3
 O  
A    4
 C1 
A    5
 N1 
A    6
 C2 
A    7
 C3 
A    8
 C4 
A    9
 C5 
A   10
 C6 
A   11
 C7 
A   12
 C8 
M  END
>  <XChem_code>  (174) 
D68EV3CPROA-x0771

>  <Occupancy>  (174) 
[0.64, 0.64, 0.64, 0.64, 0.64, 0.64, 0.64, 0.64, 0.64, 0.64, 0.64, 0.64]

>  <TempFactor>  (174) 
[53.92, 56.89, 55.28, 56.68, 57.15, 58.7, 57.68, 56.24, 55.33, 55.38, 56.13, 56.56]

>  <RealCrystalName>  (174) 
D68EV3CPROA-x0771

>  <smiles>  (174) 
Cl.NC(=O)c1ccc2NCCc2c1

>  <new_smiles>  (174) 
Cl.NC(=O)c1ccc2NCCc2c1

>  <alternate_name>  (174) 
Z1696091761

>  <site_name>  (174) 
1

>  <pdb_entry>  (174) 
nan

>  <mol>  (174) 
<rdkit.Chem.rdchem.Mol object at 0x162e32a40>

>  <single_smiles>  (174) 
NC(=O)c1ccc2c(c1)CCN2

>  <base_name>  (174) 
D68EV3CPROA-x0771_0A

>  <lig_resn>  (174) 
LIG

>  <lig_resi>  (174) 
201

>  <lig_chain>  (174) 
A

>  <lig_segi>  (174) 


>  <lig_alt>  (174) 


>  <polymer_chain>  (174) 
A

$$$$
x0771_0A§3
     RDKit          3D

 12 13  0  0  0  0  0  0  0  0999 V2000
   -8.5330    0.9990  -12.7170 N   0  0  0  0  0  0  0  0  0  0  0  0
   -9.6880    1.6140  -12.9490 C   0  0  0  0  0  0  0  0  0  0  0  0
   -9.9740    2.7170  -12.4470 O   0  0  0  0  0  0  0  0  0  0  0  0
  -10.6800    0.9290  -13.8510 C   0  0  0  0  0  0  0  0  0  0  0  0
  -13.4530   -1.2040  -16.0870 N   0  0  0  0  0  0  0  0  0  0  0  0
  -11.7010    1.6600  -14.4840 C   0  0  0  0  0  0  0  0  0  0  0  0
  -12.6470    1.0260  -15.2790 C   0  0  0  0  0  0  0  0  0  0  0  0
  -12.5690   -0.3580  -15.4290 C   0  0  0  0  0  0  0  0  0  0  0  0
  -13.1330   -2.6060  -15.8200 C   0  0  0  0  0  0  0  0  0  0  0  0
  -11.7220   -2.5450  -15.2050 C   0  0  0  0  0  0  0  0  0  0  0  0
  -11.5570   -1.0970  -14.8330 C   0  0  0  0  0  0  0  0  0  0  0  0
  -10.6120   -0.4510  -14.0420 C   0  0  0  0  0  0  0  0  0  0  0  0
  1  2  1  0
  2  3  2  0
  2  4  1  0
  4  6  2  0
  4 12  1  0
  5  8  1  0
  5  9  1  0
  6  7  1  0
  7  8  2  0
  8 11  1  0
  9 10  1  0
 10 11  1  0
 11 12  2  0
A    1
 N  
A    2
 C  
A    3
 O  
A    4
 C1 
A    5
 N1 
A    6
 C2 
A    7
 C3 
A    8
 C4 
A    9
 C5 
A   10
 C6 
A   11
 C7 
A   12
 C8 
M  END
>  <XChem_code>  (175) 
D68EV3CPROA-x0771

>  <Occupancy>  (175) 
[0.64, 0.64, 0.64, 0.64, 0.64, 0.64, 0.64, 0.64, 0.64, 0.64, 0.64, 0.64]

>  <TempFactor>  (175) 
[53.92, 56.89, 55.28, 56.68, 57.15, 58.7, 57.68, 56.24, 55.33, 55.38, 56.13, 56.56]

>  <RealCrystalName>  (175) 
D68EV3CPROA-x0771

>  <smiles>  (175) 
Cl.NC(=O)c1ccc2NCCc2c1

>  <new_smiles>  (175) 
Cl.NC(=O)c1ccc2NCCc2c1

>  <alternate_name>  (175) 
Z1696091761

>  <site_name>  (175) 
1

>  <pdb_entry>  (175) 
nan

>  <mol>  (175) 
<rdkit.Chem.rdchem.Mol object at 0x162e32a40>

>  <single_smiles>  (175) 
NC(=O)c1ccc2c(c1)CCN2

>  <base_name>  (175) 
D68EV3CPROA-x0771_0A

>  <lig_resn>  (175) 
LIG

>  <lig_resi>  (175) 
201

>  <lig_chain>  (175) 
A

>  <lig_segi>  (175) 


>  <lig_alt>  (175) 


>  <polymer_chain>  (175) 
B

$$$$
x0957_0A§1
     RDKit          3D

 12 12  0  0  0  0  0  0  0  0999 V2000
   -0.3510    4.3450  -26.1550 N   0  0  0  0  0  0  0  0  0  0  0  0
   -1.7210    4.0470  -26.4980 C   0  0  0  0  0  0  0  0  0  0  0  0
   -0.0370    4.9120  -21.7640 O   0  0  0  0  0  0  0  0  0  0  0  0
    0.4190    3.5140  -25.4000 C   0  0  0  0  0  0  0  0  0  0  0  0
   -0.1610    6.2170  -23.8440 O   0  0  0  0  0  0  0  0  0  0  0  0
    1.1780    2.5080  -25.9960 C   0  0  0  0  0  0  0  0  0  0  0  0
    2.0410    1.7400  -25.2340 C   0  0  0  0  0  0  0  0  0  0  0  0
    2.1490    1.9470  -23.8780 C   0  0  0  0  0  0  0  0  0  0  0  0
    1.3840    2.9170  -23.2510 C   0  0  0  0  0  0  0  0  0  0  0  0
    0.5270    3.7050  -24.0100 C   0  0  0  0  0  0  0  0  0  0  0  0
   -2.0640    4.5410  -23.3310 C   0  0  0  0  0  0  0  0  0  0  0  0
   -0.3760    4.9750  -23.1560 S   0  0  1  0  0  0  0  0  0  0  0  0
  1  2  1  0
  1  4  1  0
  3 12  2  0
  4  6  2  0
  4 10  1  0
  5 12  2  0
  6  7  1  0
  7  8  2  0
  8  9  1  0
  9 10  2  0
 10 12  1  0
 12 11  1  1
A    1
 N  
A    2
 C  
A    3
 O  
A    4
 C1 
A    5
 O1 
A    6
 C2 
A    7
 C3 
A    8
 C4 
A    9
 C5 
A   10
 C6 
A   11
 C7 
A   12
 S  
M  END
>  <XChem_code>  (176) 
D68EV3CPROA-x0957

>  <Occupancy>  (176) 
[0.51, 0.51, 0.51, 0.51, 0.51, 0.51, 0.51, 0.51, 0.51, 0.51, 0.51, 0.51]

>  <TempFactor>  (176) 
[72.04, 70.39, 79.79, 74.12, 84.07, 72.48, 72.26, 74.06, 74.3, 77.29, 77.97, 81.75]

>  <RealCrystalName>  (176) 
D68EV3CPROA-x0957

>  <smiles>  (176) 
CNc1ccccc1S(=O)(=O)C

>  <new_smiles>  (176) 
CNc1ccccc1S(=O)(=O)C

>  <alternate_name>  (176) 
Z285782452

>  <site_name>  (176) 
3

>  <pdb_entry>  (176) 
nan

>  <mol>  (176) 
<rdkit.Chem.rdchem.Mol object at 0x164f2adc0>

>  <single_smiles>  (176) 
CNc1ccccc1S(C)(=O)=O

>  <base_name>  (176) 
D68EV3CPROA-x0957_0A

>  <lig_resn>  (176) 
LIG

>  <lig_resi>  (176) 
201

>  <lig_chain>  (176) 
A

>  <lig_segi>  (176) 


>  <lig_alt>  (176) 


>  <polymer_chain>  (176) 
A

$$$$
x0957_0A§2
     RDKit          3D

 12 12  0  0  0  0  0  0  0  0999 V2000
  -10.5320   -1.2920  -13.0350 N   0  0  0  0  0  0  0  0  0  0  0  0
   -9.0900   -1.3340  -13.0960 C   0  0  0  0  0  0  0  0  0  0  0  0
  -11.9630    2.4570  -14.9320 O   0  0  0  0  0  0  0  0  0  0  0  0
  -11.3190   -1.3320  -14.1450 C   0  0  0  0  0  0  0  0  0  0  0  0
  -11.5550    1.4880  -12.7100 O   0  0  0  0  0  0  0  0  0  0  0  0
  -11.7490   -2.5490  -14.6710 C   0  0  0  0  0  0  0  0  0  0  0  0
  -12.6380   -2.5770  -15.7320 C   0  0  0  0  0  0  0  0  0  0  0  0
  -13.0950   -1.4060  -16.2910 C   0  0  0  0  0  0  0  0  0  0  0  0
  -12.6610   -0.1800  -15.8120 C   0  0  0  0  0  0  0  0  0  0  0  0
  -11.7820   -0.1410  -14.7360 C   0  0  0  0  0  0  0  0  0  0  0  0
   -9.5900    1.5750  -14.3920 C   0  0  0  0  0  0  0  0  0  0  0  0
  -11.3180    1.4610  -14.1250 S   0  0  1  0  0  0  0  0  0  0  0  0
  1  2  1  0
  1  4  1  0
  3 12  2  0
  4  6  2  0
  4 10  1  0
  5 12  2  0
  6  7  1  0
  7  8  2  0
  8  9  1  0
  9 10  2  0
 10 12  1  0
 12 11  1  1
A    1
 N  
A    2
 C  
A    3
 O  
A    4
 C1 
A    5
 O1 
A    6
 C2 
A    7
 C3 
A    8
 C4 
A    9
 C5 
A   10
 C6 
A   11
 C7 
A   12
 S  
M  END
>  <XChem_code>  (177) 
D68EV3CPROA-x0957

>  <Occupancy>  (177) 
[0.51, 0.51, 0.51, 0.51, 0.51, 0.51, 0.51, 0.51, 0.51, 0.51, 0.51, 0.51]

>  <TempFactor>  (177) 
[72.04, 70.39, 79.79, 74.12, 84.07, 72.48, 72.26, 74.06, 74.3, 77.29, 77.97, 81.75]

>  <RealCrystalName>  (177) 
D68EV3CPROA-x0957

>  <smiles>  (177) 
CNc1ccccc1S(=O)(=O)C

>  <new_smiles>  (177) 
CNc1ccccc1S(=O)(=O)C

>  <alternate_name>  (177) 
Z285782452

>  <site_name>  (177) 
3

>  <pdb_entry>  (177) 
nan

>  <mol>  (177) 
<rdkit.Chem.rdchem.Mol object at 0x164f2adc0>

>  <single_smiles>  (177) 
CNc1ccccc1S(C)(=O)=O

>  <base_name>  (177) 
D68EV3CPROA-x0957_0A

>  <lig_resn>  (177) 
LIG

>  <lig_resi>  (177) 
201

>  <lig_chain>  (177) 
A

>  <lig_segi>  (177) 


>  <lig_alt>  (177) 


>  <polymer_chain>  (177) 
B

$$$$
x0957_0A§3
     RDKit          3D

 12 12  0  0  0  0  0  0  0  0999 V2000
   -5.4210    2.3740  -51.4210 N   0  0  0  0  0  0  0  0  0  0  0  0
   -4.9990    3.7490  -51.2740 C   0  0  0  0  0  0  0  0  0  0  0  0
   -3.8180    1.6860  -49.0300 O   0  0  0  0  0  0  0  0  0  0  0  0
   -6.4560    1.8210  -50.7040 C   0  0  0  0  0  0  0  0  0  0  0  0
   -4.6290   -0.4210  -48.0620 O   0  0  0  0  0  0  0  0  0  0  0  0
   -7.7840    2.1290  -51.0030 C   0  0  0  0  0  0  0  0  0  0  0  0
   -8.8190    1.5030  -50.3260 C   0  0  0  0  0  0  0  0  0  0  0  0
   -8.5530    0.5750  -49.3420 C   0  0  0  0  0  0  0  0  0  0  0  0
   -7.2460    0.2580  -49.0160 C   0  0  0  0  0  0  0  0  0  0  0  0
   -6.2020    0.8780  -49.6900 C   0  0  0  0  0  0  0  0  0  0  0  0
   -3.8830   -0.4170  -50.5460 C   0  0  0  0  0  0  0  0  0  0  0  0
   -4.5520    0.4650  -49.1860 S   0  0  1  0  0  0  0  0  0  0  0  0
  1  2  1  0
  1  4  1  0
  3 12  2  0
  4  6  2  0
  4 10  1  0
  5 12  2  0
  6  7  1  0
  7  8  2  0
  8  9  1  0
  9 10  2  0
 10 12  1  0
 12 11  1  6
A    1
 N  
A    2
 C  
A    3
 O  
A    4
 C1 
A    5
 O1 
A    6
 C2 
A    7
 C3 
A    8
 C4 
A    9
 C5 
A   10
 C6 
A   11
 C7 
A   12
 S  
M  END
>  <XChem_code>  (178) 
D68EV3CPROA-x0957

>  <Occupancy>  (178) 
[0.7, 0.7, 0.7, 0.7, 0.7, 0.7, 0.7, 0.7, 0.7, 0.7, 0.7, 0.7]

>  <TempFactor>  (178) 
[45.09, 47.61, 45.08, 43.37, 40.28, 39.38, 39.51, 36.23, 40.27, 41.26, 41.32, 43.18]

>  <RealCrystalName>  (178) 
D68EV3CPROA-x0957

>  <smiles>  (178) 
CNc1ccccc1S(=O)(=O)C

>  <new_smiles>  (178) 
CNc1ccccc1S(=O)(=O)C

>  <alternate_name>  (178) 
Z285782452

>  <site_name>  (178) 
3

>  <pdb_entry>  (178) 
nan

>  <mol>  (178) 
<rdkit.Chem.rdchem.Mol object at 0x164f2adc0>

>  <single_smiles>  (178) 
CNc1ccccc1S(C)(=O)=O

>  <base_name>  (178) 
D68EV3CPROA-x0957_0A

>  <lig_resn>  (178) 
LIG

>  <lig_resi>  (178) 
201

>  <lig_chain>  (178) 
B

>  <lig_segi>  (178) 


>  <lig_alt>  (178) 


>  <polymer_chain>  (178) 
B

$$$$
x0957_0A§4
     RDKit          3D

 12 12  0  0  0  0  0  0  0  0999 V2000
  -29.4220    8.4840  -38.9020 N   0  0  0  0  0  0  0  0  0  0  0  0
  -28.8600    8.5750  -37.5710 C   0  0  0  0  0  0  0  0  0  0  0  0
  -28.9950    8.7290  -43.2910 O   0  0  0  0  0  0  0  0  0  0  0  0
  -29.3340    7.3480  -39.6720 C   0  0  0  0  0  0  0  0  0  0  0  0
  -29.6760    9.9410  -41.2560 O   0  0  0  0  0  0  0  0  0  0  0  0
  -29.5280    6.0860  -39.1110 C   0  0  0  0  0  0  0  0  0  0  0  0
  -29.3940    4.9440  -39.8900 C   0  0  0  0  0  0  0  0  0  0  0  0
  -29.0610    5.0390  -41.2230 C   0  0  0  0  0  0  0  0  0  0  0  0
  -28.8720    6.2790  -41.8110 C   0  0  0  0  0  0  0  0  0  0  0  0
  -29.0140    7.4280  -41.0440 C   0  0  0  0  0  0  0  0  0  0  0  0
  -27.1630    9.4580  -41.6250 C   0  0  0  0  0  0  0  0  0  0  0  0
  -28.8210    8.9750  -41.8880 S   0  0  1  0  0  0  0  0  0  0  0  0
  1  2  1  0
  1  4  1  0
  3 12  2  0
  4  6  2  0
  4 10  1  0
  5 12  2  0
  6  7  1  0
  7  8  2  0
  8  9  1  0
  9 10  2  0
 10 12  1  0
 12 11  1  6
A    1
 N  
A    2
 C  
A    3
 O  
A    4
 C1 
A    5
 O1 
A    6
 C2 
A    7
 C3 
A    8
 C4 
A    9
 C5 
A   10
 C6 
A   11
 C7 
A   12
 S  
M  END
>  <XChem_code>  (179) 
D68EV3CPROA-x0957

>  <Occupancy>  (179) 
[0.61, 0.61, 0.61, 0.61, 0.61, 0.61, 0.61, 0.61, 0.61, 0.61, 0.61, 0.61]

>  <TempFactor>  (179) 
[54.23, 50.39, 53.02, 54.0, 59.0, 52.34, 52.32, 53.36, 53.47, 54.7, 52.13, 55.2]

>  <RealCrystalName>  (179) 
D68EV3CPROA-x0957

>  <smiles>  (179) 
CNc1ccccc1S(=O)(=O)C

>  <new_smiles>  (179) 
CNc1ccccc1S(=O)(=O)C

>  <alternate_name>  (179) 
Z285782452

>  <site_name>  (179) 
3

>  <pdb_entry>  (179) 
nan

>  <mol>  (179) 
<rdkit.Chem.rdchem.Mol object at 0x164f2adc0>

>  <single_smiles>  (179) 
CNc1ccccc1S(C)(=O)=O

>  <base_name>  (179) 
D68EV3CPROA-x0957_0A

>  <lig_resn>  (179) 
LIG

>  <lig_resi>  (179) 
301

>  <lig_chain>  (179) 
B

>  <lig_segi>  (179) 


>  <lig_alt>  (179) 


>  <polymer_chain>  (179) 
B

$$$$
x1633_0B§1
     RDKit          3D

 16 17  0  0  0  0  0  0  0  0999 V2000
   -7.9600    3.8470  -52.5690 N   0  0  0  0  0  0  0  0  0  0  0  0
   -4.8700    5.8300  -54.8750 C   0  0  0  0  0  0  0  0  0  0  0  0
   -4.8460    7.0810  -54.2040 O   0  0  0  0  0  0  0  0  0  0  0  0
   -6.0800    5.0000  -54.4710 C   0  0  1  0  0  0  0  0  0  0  0  0
   -9.5020    4.2840  -50.9910 O   0  0  0  0  0  0  0  0  0  0  0  0
   -5.6790    3.8790  -53.5200 C   0  0  0  0  0  0  0  0  0  0  0  0
   -6.8900    3.0290  -53.1570 C   0  0  0  0  0  0  0  0  0  0  0  0
   -8.3710    4.9450  -53.4540 C   0  0  0  0  0  0  0  0  0  0  0  0
   -7.1870    5.8250  -53.8250 C   0  0  0  0  0  0  0  0  0  0  0  0
   -8.5440    3.6290  -51.3700 C   0  0  0  0  0  0  0  0  0  0  0  0
   -8.0390    2.5100  -50.5130 C   0  0  0  0  0  0  0  0  0  0  0  0
   -8.9100    1.5120  -50.0780 C   0  0  0  0  0  0  0  0  0  0  0  0
   -8.4610    0.5030  -49.2420 C   0  0  0  0  0  0  0  0  0  0  0  0
   -7.1460    0.4760  -48.8320 C   0  0  0  0  0  0  0  0  0  0  0  0
   -6.2700    1.4460  -49.2670 C   0  0  0  0  0  0  0  0  0  0  0  0
   -6.7090    2.4620  -50.1020 C   0  0  0  0  0  0  0  0  0  0  0  0
  1  7  1  0
  1  8  1  0
  1 10  1  0
  2  3  1  0
  4  2  1  1
  4  6  1  0
  4  9  1  0
  5 10  2  0
  6  7  1  0
  8  9  1  0
 10 11  1  0
 11 12  2  0
 11 16  1  0
 12 13  1  0
 13 14  2  0
 14 15  1  0
 15 16  2  0
A    1
 N  
A    2
 C  
A    3
 O  
A    4
 C1 
A    5
 O1 
A    6
 C2 
A    7
 C3 
A    8
 C4 
A    9
 C5 
A   10
 C6 
A   11
 C7 
A   12
 C8 
A   13
 C9 
A   14
 C10
A   15
 C11
A   16
 C12
M  END
>  <XChem_code>  (180) 
D68EV3CPROA-x1633

>  <Occupancy>  (180) 
[0.66, 0.66, 0.66, 0.66, 0.66, 0.66, 0.66, 0.66, 0.66, 0.66, 0.66, 0.66, 0.66, 0.66, 0.66, 0.66]

>  <TempFactor>  (180) 
[43.83, 43.8, 45.14, 44.72, 43.39, 45.22, 45.99, 43.43, 43.64, 43.35, 41.42, 40.77, 39.42, 40.59, 41.54, 41.49]

>  <RealCrystalName>  (180) 
D68EV3CPROA-x1633

>  <smiles>  (180) 
OCC1CCN(CC1)C(=O)C=2C=CC=CC2

>  <new_smiles>  (180) 
OCC1CCN(CC1)C(=O)C=2C=CC=CC2

>  <alternate_name>  (180) 
Z635046794

>  <site_name>  (180) 
2

>  <pdb_entry>  (180) 
nan

>  <mol>  (180) 
<rdkit.Chem.rdchem.Mol object at 0x165034d60>

>  <single_smiles>  (180) 
O=C(c1ccccc1)N1CCC(CO)CC1

>  <base_name>  (180) 
D68EV3CPROA-x1633_0B

>  <lig_resn>  (180) 
LIG

>  <lig_resi>  (180) 
201

>  <lig_chain>  (180) 
B

>  <lig_segi>  (180) 


>  <lig_alt>  (180) 


>  <polymer_chain>  (180) 
B

$$$$
x1565_0B§1
     RDKit          3D

 11 11  0  0  0  0  0  0  0  0999 V2000
    5.8790    3.2880  -25.9780 N   0  0  0  0  0  0  0  0  0  0  0  0
    4.5760    2.8360  -25.8020 C   0  0  0  0  0  0  0  0  0  0  0  0
    3.8380    3.1970  -24.6770 C   0  0  0  0  0  0  0  0  0  0  0  0
    2.5230    2.7950  -24.5250 C   0  0  0  0  0  0  0  0  0  0  0  0
    1.9170    2.0130  -25.4990 C   0  0  0  0  0  0  0  0  0  0  0  0
   -0.6160    3.1830  -25.7230 C   0  0  2  0  0  0  0  0  0  0  0  0
    2.6450    1.6320  -26.6160 C   0  0  0  0  0  0  0  0  0  0  0  0
    3.9630    2.0260  -26.7590 C   0  0  0  0  0  0  0  0  0  0  0  0
   -1.7790    3.3080  -25.0590 F   0  0  0  0  0  0  0  0  0  0  0  0
   -0.9680    3.1880  -27.0210 F   0  0  0  0  0  0  0  0  0  0  0  0
    0.2290    1.5050  -25.3170 S   0  0  0  0  0  0  0  0  0  0  0  0
  1  2  1  0
  2  3  2  0
  2  8  1  0
  3  4  1  0
  4  5  2  0
  5  7  1  0
  5 11  1  0
  6  9  1  1
  6 10  1  0
  6 11  1  0
  7  8  2  0
A    1
 N  
A    2
 C  
A    3
 C1 
A    4
 C2 
A    5
 C3 
A    6
 C4 
A    7
 C5 
A    8
 C6 
A    9
 F  
A   10
 F1 
A   11
 S  
M  END
>  <XChem_code>  (181) 
D68EV3CPROA-x1565

>  <Occupancy>  (181) 
[0.63, 0.63, 0.63, 0.63, 0.63, 0.63, 0.63, 0.63, 0.63, 0.63, 0.63]

>  <TempFactor>  (181) 
[72.96, 73.51, 70.16, 67.24, 66.14, 59.5, 68.1, 71.56, 57.74, 59.29, 61.87]

>  <RealCrystalName>  (181) 
D68EV3CPROA-x1565

>  <smiles>  (181) 
NC=1C=CC(SC(F)F)=CC1

>  <new_smiles>  (181) 
NC=1C=CC(SC(F)F)=CC1

>  <alternate_name>  (181) 
Z57965168

>  <site_name>  (181) 
3

>  <pdb_entry>  (181) 
nan

>  <mol>  (181) 
<rdkit.Chem.rdchem.Mol object at 0x1650347b0>

>  <single_smiles>  (181) 
Nc1ccc(SC(F)F)cc1

>  <base_name>  (181) 
D68EV3CPROA-x1565_0B

>  <lig_resn>  (181) 
LIG

>  <lig_resi>  (181) 
201

>  <lig_chain>  (181) 
B

>  <lig_segi>  (181) 


>  <lig_alt>  (181) 


>  <polymer_chain>  (181) 
A

$$$$
x1565_0B§2
     RDKit          3D

 11 11  0  0  0  0  0  0  0  0999 V2000
  -16.2920   -3.4170  -13.9220 N   0  0  0  0  0  0  0  0  0  0  0  0
  -15.0140   -3.1410  -14.3980 C   0  0  0  0  0  0  0  0  0  0  0  0
  -14.6350   -1.8400  -14.7210 C   0  0  0  0  0  0  0  0  0  0  0  0
  -13.3490   -1.5550  -15.1420 C   0  0  0  0  0  0  0  0  0  0  0  0
  -12.4120   -2.5720  -15.2560 C   0  0  0  0  0  0  0  0  0  0  0  0
  -10.1160   -1.4020  -14.1620 C   0  0  2  0  0  0  0  0  0  0  0  0
  -12.7800   -3.8740  -14.9530 C   0  0  0  0  0  0  0  0  0  0  0  0
  -14.0700   -4.1570  -14.5440 C   0  0  0  0  0  0  0  0  0  0  0  0
   -9.1810   -0.4720  -14.4270 F   0  0  0  0  0  0  0  0  0  0  0  0
   -9.4670   -2.3340  -13.4390 F   0  0  0  0  0  0  0  0  0  0  0  0
  -10.7580   -2.2110  -15.7830 S   0  0  0  0  0  0  0  0  0  0  0  0
  1  2  1  0
  2  3  2  0
  2  8  1  0
  3  4  1  0
  4  5  2  0
  5  7  1  0
  5 11  1  0
  6  9  1  6
  6 10  1  0
  6 11  1  0
  7  8  2  0
A    1
 N  
A    2
 C  
A    3
 C1 
A    4
 C2 
A    5
 C3 
A    6
 C4 
A    7
 C5 
A    8
 C6 
A    9
 F  
A   10
 F1 
A   11
 S  
M  END
>  <XChem_code>  (182) 
D68EV3CPROA-x1565

>  <Occupancy>  (182) 
[0.63, 0.63, 0.63, 0.63, 0.63, 0.63, 0.63, 0.63, 0.63, 0.63, 0.63]

>  <TempFactor>  (182) 
[72.96, 73.51, 70.16, 67.24, 66.14, 59.5, 68.1, 71.56, 57.74, 59.29, 61.87]

>  <RealCrystalName>  (182) 
D68EV3CPROA-x1565

>  <smiles>  (182) 
NC=1C=CC(SC(F)F)=CC1

>  <new_smiles>  (182) 
NC=1C=CC(SC(F)F)=CC1

>  <alternate_name>  (182) 
Z57965168

>  <site_name>  (182) 
3

>  <pdb_entry>  (182) 
nan

>  <mol>  (182) 
<rdkit.Chem.rdchem.Mol object at 0x1650347b0>

>  <single_smiles>  (182) 
Nc1ccc(SC(F)F)cc1

>  <base_name>  (182) 
D68EV3CPROA-x1565_0B

>  <lig_resn>  (182) 
LIG

>  <lig_resi>  (182) 
201

>  <lig_chain>  (182) 
B

>  <lig_segi>  (182) 


>  <lig_alt>  (182) 


>  <polymer_chain>  (182) 
B

$$$$
x1083_0A§1
     RDKit          3D

 11 11  0  0  0  0  0  0  0  0999 V2000
  -11.0190   15.1770  -37.5360 N   0  0  0  0  0  0  0  0  0  0  0  0
   -9.1670   13.2040  -37.2360 C   0  0  0  0  0  0  0  0  0  0  0  0
  -10.1710   14.5990  -35.2970 O   0  0  0  0  0  0  0  0  0  0  0  0
  -10.7570   15.7650  -38.8640 C   0  0  0  0  0  0  0  0  0  0  0  0
   -8.7000   15.7280  -36.9110 O   0  0  0  0  0  0  0  0  0  0  0  0
  -12.0220   16.4240  -39.4010 C   0  0  0  0  0  0  0  0  0  0  0  0
  -14.3580   16.0450  -39.9370 O   0  0  0  0  0  0  0  0  0  0  0  0
  -13.1620   15.4330  -39.4530 C   0  0  2  0  0  0  0  0  0  0  0  0
  -13.3930   14.8470  -38.0810 C   0  0  0  0  0  0  0  0  0  0  0  0
  -12.1210   14.1950  -37.5610 C   0  0  0  0  0  0  0  0  0  0  0  0
   -9.7170   14.7620  -36.6420 S   0  0  2  0  0  0  0  0  0  0  0  0
  1  4  1  0
  1 10  1  0
  1 11  1  0
 11  2  1  6
  3 11  2  0
  4  6  1  0
  5 11  2  0
  6  8  1  0
  8  7  1  1
  8  9  1  0
  9 10  1  0
A    1
 N  
A    2
 C  
A    3
 O  
A    4
 C1 
A    5
 O1 
A    6
 C2 
A    7
 O2 
A    8
 C3 
A    9
 C4 
A   10
 C5 
A   11
 S  
M  END
>  <XChem_code>  (183) 
D68EV3CPROA-x1083

>  <Occupancy>  (183) 
[0.88, 0.88, 0.88, 0.88, 0.88, 0.88, 0.88, 0.88, 0.88, 0.88, 0.88]

>  <TempFactor>  (183) 
[71.89, 65.62, 69.14, 69.53, 73.16, 68.13, 65.29, 67.13, 67.96, 69.22, 68.91]

>  <RealCrystalName>  (183) 
D68EV3CPROA-x1083

>  <smiles>  (183) 
CS(=O)(=O)N1CCC(O)CC1

>  <new_smiles>  (183) 
CS(=O)(=O)N1CCC(O)CC1

>  <alternate_name>  (183) 
Z425757818

>  <site_name>  (183) 
1

>  <pdb_entry>  (183) 
nan

>  <mol>  (183) 
<rdkit.Chem.rdchem.Mol object at 0x164f2b300>

>  <single_smiles>  (183) 
CS(=O)(=O)N1CCC(O)CC1

>  <base_name>  (183) 
D68EV3CPROA-x1083_0A

>  <lig_resn>  (183) 
LIG

>  <lig_resi>  (183) 
201

>  <lig_chain>  (183) 
A

>  <lig_segi>  (183) 


>  <lig_alt>  (183) 


>  <polymer_chain>  (183) 
A

$$$$
x0153_0B§1
     RDKit          3D

 10 10  0  0  0  0  0  0  0  0999 V2000
    2.6360    2.2570  -24.7190 N   0  0  0  0  0  0  0  0  0  0  0  0
    4.5650    2.2060  -26.2710 C   0  0  0  0  0  0  0  0  0  0  0  0
    4.0360    1.8660  -24.8990 C   0  0  0  0  0  0  0  0  0  0  0  0
   -1.5580    3.6850  -25.7640 N   0  0  0  0  0  0  0  0  0  0  0  0
    2.0710    2.7940  -23.6240 C   0  0  0  0  0  0  0  0  0  0  0  0
    1.7470    2.1080  -25.7300 N   0  0  0  0  0  0  0  0  0  0  0  0
    0.7640    3.0180  -23.9200 C   0  0  0  0  0  0  0  0  0  0  0  0
    0.6010    2.5830  -25.2280 C   0  0  0  0  0  0  0  0  0  0  0  0
   -0.6330    2.5960  -26.0710 C   0  0  0  0  0  0  0  0  0  0  0  0
   -2.5940    3.2830  -24.8140 C   0  0  0  0  0  0  0  0  0  0  0  0
  1  3  1  0
  1  5  1  0
  1  6  1  0
  2  3  1  0
  4  9  1  0
  4 10  1  0
  5  7  2  0
  6  8  2  0
  7  8  1  0
  8  9  1  0
A    1
 N  
A    2
 C  
A    3
 C1 
A    4
 N1 
A    5
 C2 
A    6
 N2 
A    7
 C3 
A    8
 C4 
A    9
 C5 
A   10
 C6 
M  END
>  <XChem_code>  (184) 
D68EV3CPROA-x0153

>  <Occupancy>  (184) 
[0.46, 0.46, 0.46, 0.46, 0.46, 0.46, 0.46, 0.46, 0.46, 0.46]

>  <TempFactor>  (184) 
[33.0, 35.27, 33.79, 37.02, 31.33, 34.18, 32.57, 33.21, 35.59, 37.18]

>  <RealCrystalName>  (184) 
D68EV3CPROA-x0153

>  <smiles>  (184) 
CCn1ccc(CNC)n1

>  <new_smiles>  (184) 
CCn1ccc(CNC)n1

>  <alternate_name>  (184) 
Z1198162455

>  <site_name>  (184) 
3

>  <pdb_entry>  (184) 
nan

>  <mol>  (184) 
<rdkit.Chem.rdchem.Mol object at 0x16324cba0>

>  <single_smiles>  (184) 
CCn1ccc(CNC)n1

>  <base_name>  (184) 
D68EV3CPROA-x0153_0B

>  <lig_resn>  (184) 
LIG

>  <lig_resi>  (184) 
301

>  <lig_chain>  (184) 
B

>  <lig_segi>  (184) 


>  <lig_alt>  (184) 


>  <polymer_chain>  (184) 
A

$$$$
x0153_0B§2
     RDKit          3D

 10 10  0  0  0  0  0  0  0  0999 V2000
  -13.3610   -2.2450  -15.4020 N   0  0  0  0  0  0  0  0  0  0  0  0
  -14.8150   -4.0820  -14.5970 C   0  0  0  0  0  0  0  0  0  0  0  0
  -14.5940   -3.0040  -15.6290 C   0  0  0  0  0  0  0  0  0  0  0  0
   -9.3220   -1.1080  -13.6380 N   0  0  0  0  0  0  0  0  0  0  0  0
  -13.1770   -0.9220  -15.5480 C   0  0  0  0  0  0  0  0  0  0  0  0
  -12.2390   -2.8720  -14.9770 N   0  0  0  0  0  0  0  0  0  0  0  0
  -11.8910   -0.6590  -15.2000 C   0  0  0  0  0  0  0  0  0  0  0  0
  -11.3420   -1.8850  -14.8520 C   0  0  0  0  0  0  0  0  0  0  0  0
   -9.9570   -2.1920  -14.3840 C   0  0  0  0  0  0  0  0  0  0  0  0
   -8.5020   -0.2510  -14.4940 C   0  0  0  0  0  0  0  0  0  0  0  0
  1  3  1  0
  1  5  1  0
  1  6  1  0
  2  3  1  0
  4  9  1  0
  4 10  1  0
  5  7  2  0
  6  8  2  0
  7  8  1  0
  8  9  1  0
A    1
 N  
A    2
 C  
A    3
 C1 
A    4
 N1 
A    5
 C2 
A    6
 N2 
A    7
 C3 
A    8
 C4 
A    9
 C5 
A   10
 C6 
M  END
>  <XChem_code>  (185) 
D68EV3CPROA-x0153

>  <Occupancy>  (185) 
[0.46, 0.46, 0.46, 0.46, 0.46, 0.46, 0.46, 0.46, 0.46, 0.46]

>  <TempFactor>  (185) 
[33.0, 35.27, 33.79, 37.02, 31.33, 34.18, 32.57, 33.21, 35.59, 37.18]

>  <RealCrystalName>  (185) 
D68EV3CPROA-x0153

>  <smiles>  (185) 
CCn1ccc(CNC)n1

>  <new_smiles>  (185) 
CCn1ccc(CNC)n1

>  <alternate_name>  (185) 
Z1198162455

>  <site_name>  (185) 
3

>  <pdb_entry>  (185) 
nan

>  <mol>  (185) 
<rdkit.Chem.rdchem.Mol object at 0x16324cba0>

>  <single_smiles>  (185) 
CCn1ccc(CNC)n1

>  <base_name>  (185) 
D68EV3CPROA-x0153_0B

>  <lig_resn>  (185) 
LIG

>  <lig_resi>  (185) 
301

>  <lig_chain>  (185) 
B

>  <lig_segi>  (185) 


>  <lig_alt>  (185) 


>  <polymer_chain>  (185) 
B

$$$$
x0102_0B§1
     RDKit          3D

  9  9  0  0  0  0  0  0  0  0999 V2000
   -8.2660    2.4980  -51.5290 C   0  0  0  0  0  0  0  0  0  0  0  0
   -5.1190    2.9450  -51.3730 O   0  0  0  0  0  0  0  0  0  0  0  0
   -7.7240    1.5690  -50.4840 C   0  0  0  0  0  0  0  0  0  0  0  0
   -4.3120    0.8510  -51.2920 O   0  0  0  0  0  0  0  0  0  0  0  0
   -8.5390    0.8770  -49.5570 C   0  0  0  0  0  0  0  0  0  0  0  0
   -7.8450    0.1130  -48.7000 C   0  0  0  0  0  0  0  0  0  0  0  0
   -6.3950    1.2880  -50.2850 C   0  0  0  0  0  0  0  0  0  0  0  0
   -5.2170    1.7720  -51.0310 C   0  0  0  0  0  0  0  0  0  0  0  0
   -6.1660    0.1930  -48.9720 S   0  0  0  0  0  0  0  0  0  0  0  0
  1  3  1  0
  2  8  2  0
  3  5  1  0
  3  7  2  0
  4  8  1  0
  5  6  2  0
  6  9  1  0
  7  8  1  0
  7  9  1  0
A    1
 C  
A    2
 O  
A    3
 C1 
A    4
 O1 
A    5
 C2 
A    6
 C3 
A    7
 C4 
A    8
 C5 
A    9
 S  
M  END
>  <XChem_code>  (186) 
D68EV3CPROA-x0102

>  <Occupancy>  (186) 
[0.67, 0.67, 0.67, 0.67, 0.67, 0.67, 0.67, 0.67, 0.67]

>  <TempFactor>  (186) 
[50.71, 51.35, 52.04, 51.6, 51.81, 52.27, 52.25, 53.41, 55.44]

>  <RealCrystalName>  (186) 
D68EV3CPROA-x0102

>  <smiles>  (186) 
Cc1ccsc1C(=O)O

>  <new_smiles>  (186) 
Cc1ccsc1C(=O)O

>  <alternate_name>  (186) 
Z104474228

>  <site_name>  (186) 
5

>  <pdb_entry>  (186) 
nan

>  <mol>  (186) 
<rdkit.Chem.rdchem.Mol object at 0x16324d540>

>  <single_smiles>  (186) 
Cc1ccsc1C(=O)O

>  <base_name>  (186) 
D68EV3CPROA-x0102_0B

>  <lig_resn>  (186) 
LIG

>  <lig_resi>  (186) 
201

>  <lig_chain>  (186) 
B

>  <lig_segi>  (186) 


>  <lig_alt>  (186) 


>  <polymer_chain>  (186) 
B

$$$$
x0102_0B§2
     RDKit          3D

  9  9  0  0  0  0  0  0  0  0999 V2000
  -15.7530  -10.6070  -36.2740 C   0  0  0  0  0  0  0  0  0  0  0  0
  -15.9680  -11.4670  -39.0980 O   0  0  0  0  0  0  0  0  0  0  0  0
  -14.6690  -11.6360  -36.4280 C   0  0  0  0  0  0  0  0  0  0  0  0
  -14.1360  -12.6210  -39.9050 O   0  0  0  0  0  0  0  0  0  0  0  0
  -13.8700  -12.0920  -35.3560 C   0  0  0  0  0  0  0  0  0  0  0  0
  -12.9420  -12.9980  -35.7230 C   0  0  0  0  0  0  0  0  0  0  0  0
  -14.3090  -12.2400  -37.6070 C   0  0  0  0  0  0  0  0  0  0  0  0
  -14.8840  -12.0820  -38.9420 C   0  0  0  0  0  0  0  0  0  0  0  0
  -12.9960  -13.3390  -37.3880 S   0  0  0  0  0  0  0  0  0  0  0  0
  1  3  1  0
  2  8  2  0
  3  5  1  0
  3  7  2  0
  4  8  1  0
  5  6  2  0
  6  9  1  0
  7  8  1  0
  7  9  1  0
A    1
 C  
A    2
 O  
A    3
 C1 
A    4
 O1 
A    5
 C2 
A    6
 C3 
A    7
 C4 
A    8
 C5 
A    9
 S  
M  END
>  <XChem_code>  (187) 
D68EV3CPROA-x0102

>  <Occupancy>  (187) 
[0.65, 0.65, 0.65, 0.65, 0.65, 0.65, 0.65, 0.65, 0.65]

>  <TempFactor>  (187) 
[29.37, 38.39, 30.02, 39.92, 30.55, 31.47, 33.82, 32.42, 31.66]

>  <RealCrystalName>  (187) 
D68EV3CPROA-x0102

>  <smiles>  (187) 
Cc1ccsc1C(=O)O

>  <new_smiles>  (187) 
Cc1ccsc1C(=O)O

>  <alternate_name>  (187) 
Z104474228

>  <site_name>  (187) 
5

>  <pdb_entry>  (187) 
nan

>  <mol>  (187) 
<rdkit.Chem.rdchem.Mol object at 0x16324d540>

>  <single_smiles>  (187) 
Cc1ccsc1C(=O)O

>  <base_name>  (187) 
D68EV3CPROA-x0102_0B

>  <lig_resn>  (187) 
LIG

>  <lig_resi>  (187) 
301

>  <lig_chain>  (187) 
B

>  <lig_segi>  (187) 


>  <lig_alt>  (187) 


>  <polymer_chain>  (187) 
B

$$$$
x1454_0B§1
     RDKit          3D

 10 10  0  0  0  0  0  0  0  0999 V2000
  -13.1000   20.6900  -24.7880 N   0  0  0  0  0  0  0  0  0  0  0  0
  -13.5430   22.5390  -25.8060 C   0  0  0  0  0  0  0  0  0  0  0  0
  -13.1570   20.6920  -21.6490 O   0  0  0  0  0  0  0  0  0  0  0  0
  -13.6010   21.9170  -24.5990 C   0  0  0  0  0  0  0  0  0  0  0  0
  -12.7100   20.4830  -26.0700 N   0  0  0  0  0  0  0  0  0  0  0  0
  -12.9470   19.6370  -23.7880 C   0  0  0  0  0  0  0  0  0  0  0  0
  -13.8390   19.8640  -22.5850 C   0  0  0  0  0  0  0  0  0  0  0  0
  -13.6640   20.5860  -20.3230 C   0  0  0  0  0  0  0  0  0  0  0  0
  -12.9860   21.6190  -26.6900 C   0  0  0  0  0  0  0  0  0  0  0  0
  -14.1100   24.2940  -26.1670 Br  0  0  0  0  0  0  0  0  0  0  0  0
  1  4  1  0
  1  5  1  0
  1  6  1  0
  2  4  2  0
  2  9  1  0
  2 10  1  0
  3  7  1  0
  3  8  1  0
  5  9  2  0
  6  7  1  0
A    1
 N  
A    2
 C  
A    3
 O  
A    4
 C1 
A    5
 N1 
A    6
 C2 
A    7
 C3 
A    8
 C4 
A    9
 C5 
A   10
BR  
M  END
>  <XChem_code>  (188) 
D68EV3CPROA-x1454

>  <Occupancy>  (188) 
[0.56, 0.56, 0.56, 0.56, 0.56, 0.56, 0.56, 0.56, 0.56, 0.56]

>  <TempFactor>  (188) 
[64.49, 70.01, 58.28, 68.53, 65.68, 61.84, 60.11, 56.28, 67.78, 78.55]

>  <RealCrystalName>  (188) 
D68EV3CPROA-x1454

>  <smiles>  (188) 
BrC1=CN(CCOC)N=C1

>  <new_smiles>  (188) 
BrC1=CN(CCOC)N=C1

>  <alternate_name>  (188) 
NCL-00024673

>  <site_name>  (188) 
5

>  <pdb_entry>  (188) 
nan

>  <mol>  (188) 
<rdkit.Chem.rdchem.Mol object at 0x165034190>

>  <single_smiles>  (188) 
COCCn1cc(Br)cn1

>  <base_name>  (188) 
D68EV3CPROA-x1454_0B

>  <lig_resn>  (188) 
LIG

>  <lig_resi>  (188) 
201

>  <lig_chain>  (188) 
B

>  <lig_segi>  (188) 


>  <lig_alt>  (188) 


>  <polymer_chain>  (188) 
B

$$$$
x1585_1B§1
     RDKit          3D

 15 17  0  0  0  0  0  0  0  0999 V2000
   -6.4910    2.3680  -50.1380 N   0  0  0  0  0  0  0  0  0  0  0  0
   -7.1430    1.1810  -49.8550 C   0  0  0  0  0  0  0  0  0  0  0  0
   -7.0680    0.5590  -48.7990 O   0  0  0  0  0  0  0  0  0  0  0  0
   -6.8300    2.8490  -51.3680 C   0  0  0  0  0  0  0  0  0  0  0  0
   -7.9090    0.8730  -50.9270 N   0  0  0  0  0  0  0  0  0  0  0  0
   -6.4350    3.8880  -51.8750 O   0  0  0  0  0  0  0  0  0  0  0  0
   -7.8000    1.8440  -52.0090 C   0  0  2  0  0  0  0  0  0  0  0  0
   -7.1620    1.2640  -53.2910 C   0  0  0  0  0  0  0  0  0  0  0  0
   -8.3480    0.7060  -54.0910 C   0  0  0  0  0  0  0  0  0  0  0  0
   -9.5010    1.5590  -53.6370 C   0  0  0  0  0  0  0  0  0  0  0  0
  -10.7740    1.6880  -54.1760 C   0  0  0  0  0  0  0  0  0  0  0  0
  -11.6810    2.5660  -53.6070 C   0  0  0  0  0  0  0  0  0  0  0  0
  -11.3210    3.3160  -52.5110 C   0  0  0  0  0  0  0  0  0  0  0  0
  -10.0580    3.1870  -51.9550 C   0  0  0  0  0  0  0  0  0  0  0  0
   -9.1560    2.2970  -52.5150 C   0  0  0  0  0  0  0  0  0  0  0  0
  1  2  1  0
  1  4  1  0
  2  3  2  0
  2  5  1  0
  4  6  2  0
  4  7  1  0
  5  7  1  0
  7  8  1  6
  7 15  1  0
  8  9  1  0
  9 10  1  0
 10 11  1  0
 10 15  2  0
 11 12  2  0
 12 13  1  0
 13 14  2  0
 14 15  1  0
A    1
 N  
A    2
 C  
A    3
 O  
A    4
 C1 
A    5
 N1 
A    6
 O1 
A    7
 C2 
A    8
 C3 
A    9
 C4 
A   10
 C5 
A   11
 C6 
A   12
 C7 
A   13
 C8 
A   14
 C9 
A   15
 C10
M  END
>  <XChem_code>  (189) 
D68EV3CPROA-x1585

>  <Occupancy>  (189) 
[0.68, 0.68, 0.68, 0.68, 0.68, 0.68, 0.68, 0.68, 0.68, 0.68, 0.68, 0.68, 0.68, 0.68, 0.68]

>  <TempFactor>  (189) 
[45.63, 45.18, 38.02, 46.84, 44.73, 50.49, 43.37, 41.85, 39.15, 38.17, 35.83, 35.51, 35.82, 35.37, 39.5]

>  <RealCrystalName>  (189) 
D68EV3CPROA-x1585

>  <smiles>  (189) 
O=C1NC(=O)C2(CCC=3C=CC=CC32)N1

>  <new_smiles>  (189) 
O=C1NC(=O)C2(CCC=3C=CC=CC32)N1

>  <alternate_name>  (189) 
Z56862798

>  <site_name>  (189) 
2

>  <pdb_entry>  (189) 
nan

>  <mol>  (189) 
<rdkit.Chem.rdchem.Mol object at 0x165034a50>

>  <single_smiles>  (189) 
O=C1NC(=O)C2(CCc3ccccc32)N1

>  <base_name>  (189) 
D68EV3CPROA-x1585_1B

>  <lig_resn>  (189) 
LIG

>  <lig_resi>  (189) 
201

>  <lig_chain>  (189) 
B

>  <lig_segi>  (189) 


>  <lig_alt>  (189) 


>  <polymer_chain>  (189) 
B

$$$$
x1585_1B§2
     RDKit          3D

 15 17  0  0  0  0  0  0  0  0999 V2000
  -28.5250    1.0250  -40.4450 N   0  0  0  0  0  0  0  0  0  0  0  0
  -28.3990   -0.3190  -40.7540 C   0  0  0  0  0  0  0  0  0  0  0  0
  -28.5550   -1.2420  -39.9610 O   0  0  0  0  0  0  0  0  0  0  0  0
  -28.2690    1.8170  -41.5280 C   0  0  0  0  0  0  0  0  0  0  0  0
  -28.0630   -0.4090  -42.0630 N   0  0  0  0  0  0  0  0  0  0  0  0
  -28.3570    3.0390  -41.5790 O   0  0  0  0  0  0  0  0  0  0  0  0
  -27.8760    0.8920  -42.6960 C   0  0  2  0  0  0  0  0  0  0  0  0
  -26.4000    1.1370  -43.1020 C   0  0  0  0  0  0  0  0  0  0  0  0
  -26.3730    1.4980  -44.5860 C   0  0  0  0  0  0  0  0  0  0  0  0
  -27.8180    1.5980  -44.9910 C   0  0  0  0  0  0  0  0  0  0  0  0
  -28.3670    1.9940  -46.2090 C   0  0  0  0  0  0  0  0  0  0  0  0
  -29.7390    1.9440  -46.3990 C   0  0  0  0  0  0  0  0  0  0  0  0
  -30.5650    1.5030  -45.3820 C   0  0  0  0  0  0  0  0  0  0  0  0
  -30.0280    1.1170  -44.1590 C   0  0  0  0  0  0  0  0  0  0  0  0
  -28.6540    1.1750  -43.9650 C   0  0  0  0  0  0  0  0  0  0  0  0
  1  2  1  0
  1  4  1  0
  2  3  2  0
  2  5  1  0
  4  6  2  0
  4  7  1  0
  5  7  1  0
  7  8  1  6
  7 15  1  0
  8  9  1  0
  9 10  1  0
 10 11  1  0
 10 15  2  0
 11 12  2  0
 12 13  1  0
 13 14  2  0
 14 15  1  0
A    1
 N  
A    2
 C  
A    3
 O  
A    4
 C1 
A    5
 N1 
A    6
 O1 
A    7
 C2 
A    8
 C3 
A    9
 C4 
A   10
 C5 
A   11
 C6 
A   12
 C7 
A   13
 C8 
A   14
 C9 
A   15
 C10
M  END
>  <XChem_code>  (190) 
D68EV3CPROA-x1585

>  <Occupancy>  (190) 
[0.77, 0.77, 0.77, 0.77, 0.77, 0.77, 0.77, 0.77, 0.77, 0.77, 0.77, 0.77, 0.77, 0.77, 0.77]

>  <TempFactor>  (190) 
[47.06, 46.09, 42.91, 54.42, 51.75, 54.2, 55.82, 58.69, 60.73, 63.11, 65.62, 66.27, 67.0, 64.36, 61.89]

>  <RealCrystalName>  (190) 
D68EV3CPROA-x1585

>  <smiles>  (190) 
O=C1NC(=O)C2(CCC=3C=CC=CC32)N1

>  <new_smiles>  (190) 
O=C1NC(=O)C2(CCC=3C=CC=CC32)N1

>  <alternate_name>  (190) 
Z56862798

>  <site_name>  (190) 
2

>  <pdb_entry>  (190) 
nan

>  <mol>  (190) 
<rdkit.Chem.rdchem.Mol object at 0x165034a50>

>  <single_smiles>  (190) 
O=C1NC(=O)C2(CCc3ccccc32)N1

>  <base_name>  (190) 
D68EV3CPROA-x1585_1B

>  <lig_resn>  (190) 
LIG

>  <lig_resi>  (190) 
301

>  <lig_chain>  (190) 
B

>  <lig_segi>  (190) 


>  <lig_alt>  (190) 


>  <polymer_chain>  (190) 
B

$$$$
x1702_0B§1
     RDKit          3D

  7  7  0  0  0  0  0  0  0  0999 V2000
   -1.5460    3.1160  -25.5550 N   0  0  0  0  0  0  0  0  0  0  0  0
   -0.4370    2.8470  -25.5980 C   0  0  0  0  0  0  0  0  0  0  0  0
    0.9580    2.4980  -25.5840 C   0  0  0  0  0  0  0  0  0  0  0  0
    3.0110    2.0400  -24.9900 N   0  0  0  0  0  0  0  0  0  0  0  0
    1.7810    2.3790  -24.5040 C   0  0  0  0  0  0  0  0  0  0  0  0
    1.6680    2.2330  -26.7330 N   0  0  0  0  0  0  0  0  0  0  0  0
    2.9010    1.9610  -26.3200 C   0  0  0  0  0  0  0  0  0  0  0  0
  1  2  3  0
  2  3  1  0
  3  5  2  0
  3  6  1  0
  4  5  1  0
  4  7  1  0
  6  7  2  0
A    1
 N  
A    2
 C  
A    3
 C1 
A    4
 N1 
A    5
 C2 
A    6
 N2 
A    7
 C3 
M  END
>  <XChem_code>  (191) 
D68EV3CPROA-x1702

>  <Occupancy>  (191) 
[0.52, 0.52, 0.52, 0.52, 0.52, 0.52, 0.52]

>  <TempFactor>  (191) 
[29.58, 29.13, 30.15, 29.94, 29.53, 31.25, 31.16]

>  <RealCrystalName>  (191) 
D68EV3CPROA-x1702

>  <smiles>  (191) 
N#CC1=CNC=N1

>  <new_smiles>  (191) 
N#CC1=CNC=N1

>  <alternate_name>  (191) 
Z1198152494

>  <site_name>  (191) 
3

>  <pdb_entry>  (191) 
nan

>  <mol>  (191) 
<rdkit.Chem.rdchem.Mol object at 0x165035000>

>  <single_smiles>  (191) 
N#Cc1c[nH]cn1

>  <base_name>  (191) 
D68EV3CPROA-x1702_0B

>  <lig_resn>  (191) 
LIG

>  <lig_resi>  (191) 
201

>  <lig_chain>  (191) 
B

>  <lig_segi>  (191) 


>  <lig_alt>  (191) 


>  <polymer_chain>  (191) 
A

$$$$
x1702_0B§2
     RDKit          3D

  7  7  0  0  0  0  0  0  0  0999 V2000
   -9.2470   -0.9310  -14.3220 N   0  0  0  0  0  0  0  0  0  0  0  0
  -10.2570   -1.4250  -14.5250 C   0  0  0  0  0  0  0  0  0  0  0  0
  -11.5400   -1.9960  -14.8270 C   0  0  0  0  0  0  0  0  0  0  0  0
  -13.5740   -2.3530  -15.5470 N   0  0  0  0  0  0  0  0  0  0  0  0
  -12.5620   -1.4350  -15.5330 C   0  0  0  0  0  0  0  0  0  0  0  0
  -11.9100   -3.2540  -14.4060 N   0  0  0  0  0  0  0  0  0  0  0  0
  -13.1450   -3.4210  -14.8680 C   0  0  0  0  0  0  0  0  0  0  0  0
  1  2  3  0
  2  3  1  0
  3  5  2  0
  3  6  1  0
  4  5  1  0
  4  7  1  0
  6  7  2  0
A    1
 N  
A    2
 C  
A    3
 C1 
A    4
 N1 
A    5
 C2 
A    6
 N2 
A    7
 C3 
M  END
>  <XChem_code>  (192) 
D68EV3CPROA-x1702

>  <Occupancy>  (192) 
[0.52, 0.52, 0.52, 0.52, 0.52, 0.52, 0.52]

>  <TempFactor>  (192) 
[29.58, 29.13, 30.15, 29.94, 29.53, 31.25, 31.16]

>  <RealCrystalName>  (192) 
D68EV3CPROA-x1702

>  <smiles>  (192) 
N#CC1=CNC=N1

>  <new_smiles>  (192) 
N#CC1=CNC=N1

>  <alternate_name>  (192) 
Z1198152494

>  <site_name>  (192) 
3

>  <pdb_entry>  (192) 
nan

>  <mol>  (192) 
<rdkit.Chem.rdchem.Mol object at 0x165035000>

>  <single_smiles>  (192) 
N#Cc1c[nH]cn1

>  <base_name>  (192) 
D68EV3CPROA-x1702_0B

>  <lig_resn>  (192) 
LIG

>  <lig_resi>  (192) 
201

>  <lig_chain>  (192) 
B

>  <lig_segi>  (192) 


>  <lig_alt>  (192) 


>  <polymer_chain>  (192) 
B

$$$$
x0765_0A§1
     RDKit          3D

 15 17  0  0  0  0  0  0  0  0999 V2000
   -0.8890    3.1180  -26.4400 N   0  0  0  0  0  0  0  0  0  0  0  0
    0.4680    3.1970  -25.9080 C   0  0  0  0  0  0  0  0  0  0  0  0
   -1.6500    4.6120  -22.5210 O   0  0  0  0  0  0  0  0  0  0  0  0
   -1.2090    2.6710  -27.7010 C   0  0  0  0  0  0  0  0  0  0  0  0
   -3.1010    3.2510  -26.6440 N   0  0  0  0  0  0  0  0  0  0  0  0
   -2.5540    2.7590  -27.8050 C   0  0  0  0  0  0  0  0  0  0  0  0
   -1.1080    4.1250  -23.7380 N   0  0  0  0  0  0  0  0  0  0  0  0
   -2.0700    3.4560  -25.8380 C   0  0  0  0  0  0  0  0  0  0  0  0
   -3.3550    4.3040  -23.8810 N   0  0  0  0  0  0  0  0  0  0  0  0
   -2.1660    3.9670  -24.4810 C   0  0  0  0  0  0  0  0  0  0  0  0
   -2.9790    4.6820  -22.7060 C   0  0  0  0  0  0  0  0  0  0  0  0
   -3.8040    5.1630  -21.5820 C   0  0  2  0  0  0  0  0  0  0  0  0
   -3.2070    6.3710  -20.8470 C   0  0  0  0  0  0  0  0  0  0  0  0
   -3.4820    5.6590  -19.5190 C   0  0  0  0  0  0  0  0  0  0  0  0
   -3.6300    4.3410  -20.3000 C   0  0  0  0  0  0  0  0  0  0  0  0
  1  2  1  0
  1  4  1  0
  1  8  1  0
  3  7  1  0
  3 11  1  0
  4  6  2  0
  5  6  1  0
  5  8  2  0
  7 10  2  0
  8 10  1  0
  9 10  1  0
  9 11  2  0
 12 11  1  6
 12 13  1  0
 12 15  1  0
 13 14  1  0
 14 15  1  0
A    1
 N  
A    2
 C  
A    3
 O  
A    4
 C1 
A    5
 N1 
A    6
 C2 
A    7
 N2 
A    8
 C3 
A    9
 N3 
A   10
 C4 
A   11
 C5 
A   12
 C6 
A   13
 C7 
A   14
 C8 
A   15
 C9 
M  END
>  <XChem_code>  (193) 
D68EV3CPROA-x0765

>  <Occupancy>  (193) 
[0.51, 0.51, 0.51, 0.51, 0.51, 0.51, 0.51, 0.51, 0.51, 0.51, 0.51, 0.51, 0.51, 0.51, 0.51]

>  <TempFactor>  (193) 
[46.94, 47.7, 45.68, 46.48, 46.84, 46.35, 45.62, 46.45, 45.23, 45.96, 45.15, 44.84, 44.78, 44.35, 44.06]

>  <RealCrystalName>  (193) 
D68EV3CPROA-x0765

>  <smiles>  (193) 
Cn1ccnc1c2noc(n2)C3CCC3

>  <new_smiles>  (193) 
Cn1ccnc1c2noc(n2)C3CCC3

>  <alternate_name>  (193) 
Z1685106505

>  <site_name>  (193) 
3

>  <pdb_entry>  (193) 
nan

>  <mol>  (193) 
<rdkit.Chem.rdchem.Mol object at 0x162e32ab0>

>  <single_smiles>  (193) 
Cn1ccnc1-c1noc(C2CCC2)n1

>  <base_name>  (193) 
D68EV3CPROA-x0765_0A

>  <lig_resn>  (193) 
LIG

>  <lig_resi>  (193) 
201

>  <lig_chain>  (193) 
A

>  <lig_segi>  (193) 


>  <lig_alt>  (193) 


>  <polymer_chain>  (193) 
A

$$$$
x0765_0A§2
     RDKit          3D

 15 17  0  0  0  0  0  0  0  0999 V2000
   -9.6100   -1.9890  -13.3530 N   0  0  0  0  0  0  0  0  0  0  0  0
  -11.0550   -1.9440  -13.5540 C   0  0  0  0  0  0  0  0  0  0  0  0
  -10.1660    2.1380  -14.2630 O   0  0  0  0  0  0  0  0  0  0  0  0
   -8.8980   -3.1240  -13.0420 C   0  0  0  0  0  0  0  0  0  0  0  0
   -7.4720   -1.3980  -13.1700 N   0  0  0  0  0  0  0  0  0  0  0  0
   -7.6050   -2.7450  -12.9370 C   0  0  0  0  0  0  0  0  0  0  0  0
  -10.2810    0.7500  -13.9940 N   0  0  0  0  0  0  0  0  0  0  0  0
   -8.7000   -0.9690  -13.4220 C   0  0  0  0  0  0  0  0  0  0  0  0
   -8.1330    1.4240  -13.8080 N   0  0  0  0  0  0  0  0  0  0  0  0
   -9.0520    0.4050  -13.7390 C   0  0  0  0  0  0  0  0  0  0  0  0
   -8.8640    2.4380  -14.1270 C   0  0  0  0  0  0  0  0  0  0  0  0
   -8.4540    3.8370  -14.3560 C   0  0  2  0  0  0  0  0  0  0  0  0
   -9.4060    4.8700  -13.7370 C   0  0  0  0  0  0  0  0  0  0  0  0
   -9.3900    5.6340  -15.0660 C   0  0  0  0  0  0  0  0  0  0  0  0
   -8.8360    4.3680  -15.7430 C   0  0  0  0  0  0  0  0  0  0  0  0
  1  2  1  0
  1  4  1  0
  1  8  1  0
  3  7  1  0
  3 11  1  0
  4  6  2  0
  5  6  1  0
  5  8  2  0
  7 10  2  0
  8 10  1  0
  9 10  1  0
  9 11  2  0
 12 11  1  6
 12 13  1  0
 12 15  1  0
 13 14  1  0
 14 15  1  0
A    1
 N  
A    2
 C  
A    3
 O  
A    4
 C1 
A    5
 N1 
A    6
 C2 
A    7
 N2 
A    8
 C3 
A    9
 N3 
A   10
 C4 
A   11
 C5 
A   12
 C6 
A   13
 C7 
A   14
 C8 
A   15
 C9 
M  END
>  <XChem_code>  (194) 
D68EV3CPROA-x0765

>  <Occupancy>  (194) 
[0.51, 0.51, 0.51, 0.51, 0.51, 0.51, 0.51, 0.51, 0.51, 0.51, 0.51, 0.51, 0.51, 0.51, 0.51]

>  <TempFactor>  (194) 
[46.94, 47.7, 45.68, 46.48, 46.84, 46.35, 45.62, 46.45, 45.23, 45.96, 45.15, 44.84, 44.78, 44.35, 44.06]

>  <RealCrystalName>  (194) 
D68EV3CPROA-x0765

>  <smiles>  (194) 
Cn1ccnc1c2noc(n2)C3CCC3

>  <new_smiles>  (194) 
Cn1ccnc1c2noc(n2)C3CCC3

>  <alternate_name>  (194) 
Z1685106505

>  <site_name>  (194) 
3

>  <pdb_entry>  (194) 
nan

>  <mol>  (194) 
<rdkit.Chem.rdchem.Mol object at 0x162e32ab0>

>  <single_smiles>  (194) 
Cn1ccnc1-c1noc(C2CCC2)n1

>  <base_name>  (194) 
D68EV3CPROA-x0765_0A

>  <lig_resn>  (194) 
LIG

>  <lig_resi>  (194) 
201

>  <lig_chain>  (194) 
A

>  <lig_segi>  (194) 


>  <lig_alt>  (194) 


>  <polymer_chain>  (194) 
B

$$$$
x1592_0B§1
     RDKit          3D

 13 14  0  0  0  0  0  0  0  0999 V2000
   -3.8500   -0.5080  -51.0200 N   0  0  0  0  0  0  0  0  0  0  0  0
   -6.1880    1.7450  -50.4680 C   0  0  0  0  0  0  0  0  0  0  0  0
   -5.4200    2.6120  -51.1880 O   0  0  0  0  0  0  0  0  0  0  0  0
   -7.5500    2.0300  -50.3570 C   0  0  0  0  0  0  0  0  0  0  0  0
   -3.4520    0.3170  -48.9590 O   0  0  0  0  0  0  0  0  0  0  0  0
   -8.3760    1.2090  -49.6050 C   0  0  0  0  0  0  0  0  0  0  0  0
   -7.8550    0.1230  -48.9480 C   0  0  0  0  0  0  0  0  0  0  0  0
   -6.5040   -0.1730  -49.0450 C   0  0  0  0  0  0  0  0  0  0  0  0
   -5.6460    0.6120  -49.8200 C   0  0  0  0  0  0  0  0  0  0  0  0
   -4.2210    0.1390  -49.8990 C   0  0  0  0  0  0  0  0  0  0  0  0
   -2.6850   -1.3970  -51.0820 C   0  0  2  0  0  0  0  0  0  0  0  0
   -2.8980   -2.8150  -51.4600 C   0  0  0  0  0  0  0  0  0  0  0  0
   -2.5390   -2.4620  -50.0640 C   0  0  0  0  0  0  0  0  0  0  0  0
  1 10  1  0
 11  1  1  1
  2  3  1  0
  2  4  2  0
  2  9  1  0
  4  6  1  0
  5 10  2  0
  6  7  2  0
  7  8  1  0
  8  9  2  0
  9 10  1  0
 11 12  1  0
 11 13  1  0
 12 13  1  0
A    1
 N  
A    2
 C  
A    3
 O  
A    4
 C1 
A    5
 O1 
A    6
 C2 
A    7
 C3 
A    8
 C4 
A    9
 C5 
A   10
 C6 
A   11
 C7 
A   12
 C8 
A   13
 C9 
M  END
>  <XChem_code>  (195) 
D68EV3CPROA-x1592

>  <Occupancy>  (195) 
[0.84, 0.84, 0.84, 0.84, 0.84, 0.84, 0.84, 0.84, 0.84, 0.84, 0.84, 0.84, 0.84]

>  <TempFactor>  (195) 
[64.12, 59.49, 54.56, 58.16, 75.46, 57.92, 58.65, 63.96, 64.29, 67.2, 63.61, 63.47, 62.07]

>  <RealCrystalName>  (195) 
D68EV3CPROA-x1592

>  <smiles>  (195) 
OC=1C=CC=CC1C(=O)NC2CC2

>  <new_smiles>  (195) 
OC=1C=CC=CC1C(=O)NC2CC2

>  <alternate_name>  (195) 
Z57473948

>  <site_name>  (195) 
2

>  <pdb_entry>  (195) 
nan

>  <mol>  (195) 
<rdkit.Chem.rdchem.Mol object at 0x165034ac0>

>  <single_smiles>  (195) 
O=C(NC1CC1)c1ccccc1O

>  <base_name>  (195) 
D68EV3CPROA-x1592_0B

>  <lig_resn>  (195) 
LIG

>  <lig_resi>  (195) 
201

>  <lig_chain>  (195) 
B

>  <lig_segi>  (195) 


>  <lig_alt>  (195) 


>  <polymer_chain>  (195) 
B

$$$$
x1444_0B§1
     RDKit          3D

 10 10  0  0  0  0  0  0  0  0999 V2000
  -32.2060   15.0080  -32.7460 N   0  0  0  0  0  0  0  0  0  0  0  0
  -32.9000   11.9840  -34.2620 C   0  0  0  0  0  0  0  0  0  0  0  0
  -31.5560   12.1680  -34.5900 O   0  0  0  0  0  0  0  0  0  0  0  0
  -33.5510   12.9370  -33.4600 C   0  0  0  0  0  0  0  0  0  0  0  0
  -32.8150   14.0930  -33.0290 C   0  0  0  0  0  0  0  0  0  0  0  0
  -34.9170   12.8130  -33.1690 C   0  0  0  0  0  0  0  0  0  0  0  0
  -35.6240   11.7550  -33.7140 C   0  0  0  0  0  0  0  0  0  0  0  0
  -34.9980   10.7890  -34.4820 C   0  0  0  0  0  0  0  0  0  0  0  0
  -33.6440   10.8990  -34.7480 C   0  0  0  0  0  0  0  0  0  0  0  0
  -37.5270   11.7050  -33.5480 Br  0  0  0  0  0  0  0  0  0  0  0  0
  1  5  3  0
  2  3  1  0
  2  4  2  0
  2  9  1  0
  4  5  1  0
  4  6  1  0
  6  7  2  0
  7  8  1  0
  7 10  1  0
  8  9  2  0
A    1
 N  
A    2
 C  
A    3
 O  
A    4
 C1 
A    5
 C2 
A    6
 C3 
A    7
 C4 
A    8
 C5 
A    9
 C6 
A   10
BR  
M  END
>  <XChem_code>  (196) 
D68EV3CPROA-x1444

>  <Occupancy>  (196) 
[0.5, 0.5, 0.5, 0.5, 0.5, 0.5, 0.5, 0.5, 0.5, 0.5]

>  <TempFactor>  (196) 
[7.11, 9.48, 13.6, 9.37, 8.24, 10.14, 10.76, 10.73, 9.83, 15.19]

>  <RealCrystalName>  (196) 
D68EV3CPROA-x1444

>  <smiles>  (196) 
OC1=C(C#N)C=C(Br)C=C1

>  <new_smiles>  (196) 
OC1=C(C#N)C=C(Br)C=C1

>  <alternate_name>  (196) 
NCL-00024661

>  <site_name>  (196) 
5

>  <pdb_entry>  (196) 
nan

>  <mol>  (196) 
<rdkit.Chem.rdchem.Mol object at 0x1650340b0>

>  <single_smiles>  (196) 
N#Cc1cc(Br)ccc1O

>  <base_name>  (196) 
D68EV3CPROA-x1444_0B

>  <lig_resn>  (196) 
LIG

>  <lig_resi>  (196) 
201

>  <lig_chain>  (196) 
B

>  <lig_segi>  (196) 


>  <lig_alt>  (196) 


>  <polymer_chain>  (196) 
B

$$$$
x1695_0B§1
     RDKit          3D

  6  6  0  0  0  0  0  0  0  0999 V2000
   -8.9330    2.1150  -50.7230 N   0  0  0  0  0  0  0  0  0  0  0  0
   -7.4300    0.6840  -49.9310 C   0  0  0  0  0  0  0  0  0  0  0  0
   -8.4860   -0.0550  -50.3830 C   0  0  0  0  0  0  0  0  0  0  0  0
   -7.7120    1.9920  -50.1400 N   0  0  0  0  0  0  0  0  0  0  0  0
   -9.3900    0.8800  -50.8730 C   0  0  0  0  0  0  0  0  0  0  0  0
   -5.6390    0.1230  -49.0850 I   0  0  0  0  0  0  0  0  0  0  0  0
  1  4  1  0
  1  5  2  0
  2  3  2  0
  2  4  1  0
  2  6  1  0
  3  5  1  0
A    1
 N  
A    2
 C  
A    3
 C1 
A    4
 N1 
A    5
 C2 
A    6
 I  
M  END
>  <XChem_code>  (197) 
D68EV3CPROA-x1695

>  <Occupancy>  (197) 
[0.4, 0.4, 0.4, 0.4, 0.4, 0.4]

>  <TempFactor>  (197) 
[60.56, 64.07, 61.38, 61.75, 60.07, 85.55]

>  <RealCrystalName>  (197) 
D68EV3CPROA-x1695

>  <smiles>  (197) 
IC1=CC=NN1

>  <new_smiles>  (197) 
IC1=CC=NN1

>  <alternate_name>  (197) 
Z3227118860

>  <site_name>  (197) 
2

>  <pdb_entry>  (197) 
nan

>  <mol>  (197) 
<rdkit.Chem.rdchem.Mol object at 0x165034f90>

>  <single_smiles>  (197) 
Ic1ccn[nH]1

>  <base_name>  (197) 
D68EV3CPROA-x1695_0B

>  <lig_resn>  (197) 
LIG

>  <lig_resi>  (197) 
201

>  <lig_chain>  (197) 
B

>  <lig_segi>  (197) 


>  <lig_alt>  (197) 


>  <polymer_chain>  (197) 
B

$$$$
x1068_0B§1
     RDKit          3D

 15 16  0  0  0  0  0  0  0  0999 V2000
  -31.2870   15.7500  -31.8250 N   0  0  0  0  0  0  0  0  0  0  0  0
  -28.5400   15.2080  -30.9690 C   0  0  0  0  0  0  0  0  0  0  0  0
  -31.5470   12.6830  -34.7600 O   0  0  0  0  0  0  0  0  0  0  0  0
  -29.1890   16.5640  -30.8550 C   0  0  0  0  0  0  0  0  0  0  0  0
  -32.8440   14.2720  -31.8110 N   0  0  0  0  0  0  0  0  0  0  0  0
  -33.4030   12.2710  -33.5960 O   0  0  0  0  0  0  0  0  0  0  0  0
  -28.4860   17.6340  -30.3000 C   0  0  0  0  0  0  0  0  0  0  0  0
  -32.3460   15.2750  -31.1260 N   0  0  0  0  0  0  0  0  0  0  0  0
  -29.0620   18.8850  -30.1700 C   0  0  0  0  0  0  0  0  0  0  0  0
  -30.3550   19.0960  -30.5870 C   0  0  0  0  0  0  0  0  0  0  0  0
  -31.0860   18.0600  -31.1470 C   0  0  0  0  0  0  0  0  0  0  0  0
  -30.4980   16.8070  -31.2790 C   0  0  0  0  0  0  0  0  0  0  0  0
  -31.1270   15.0550  -32.9720 C   0  0  0  0  0  0  0  0  0  0  0  0
  -32.1030   14.0960  -32.9410 C   0  0  0  0  0  0  0  0  0  0  0  0
  -32.3230   12.9600  -33.8590 C   0  0  0  0  0  0  0  0  0  0  0  0
  1  8  1  0
  1 12  1  0
  1 13  1  0
  2  4  1  0
  3 15  2  0
  4  7  2  0
  4 12  1  0
  5  8  2  0
  5 14  1  0
  6 15  1  0
  7  9  1  0
  9 10  2  0
 10 11  1  0
 11 12  2  0
 13 14  2  0
 14 15  1  0
A    1
 N  
A    2
 C  
A    3
 O  
A    4
 C1 
A    5
 N1 
A    6
 O1 
A    7
 C2 
A    8
 N2 
A    9
 C3 
A   10
 C4 
A   11
 C5 
A   12
 C6 
A   13
 C7 
A   14
 C8 
A   15
 C9 
M  END
>  <XChem_code>  (198) 
D68EV3CPROA-x1068

>  <Occupancy>  (198) 
[0.72, 0.72, 0.72, 0.72, 0.72, 0.72, 0.72, 0.72, 0.72, 0.72, 0.72, 0.72, 0.72, 0.72, 0.72]

>  <TempFactor>  (198) 
[22.66, 20.74, 21.4, 21.95, 24.49, 22.51, 22.37, 23.46, 22.04, 22.32, 22.21, 22.08, 22.84, 23.17, 23.32]

>  <RealCrystalName>  (198) 
D68EV3CPROA-x1068

>  <smiles>  (198) 
Cc1ccccc1n2cc(nn2)C(=O)O

>  <new_smiles>  (198) 
Cc1ccccc1n2cc(nn2)C(=O)O

>  <alternate_name>  (198) 
Z401437758

>  <site_name>  (198) 
5

>  <pdb_entry>  (198) 
nan

>  <mol>  (198) 
<rdkit.Chem.rdchem.Mol object at 0x164f2b290>

>  <single_smiles>  (198) 
Cc1ccccc1-n1cc(C(=O)O)nn1

>  <base_name>  (198) 
D68EV3CPROA-x1068_0B

>  <lig_resn>  (198) 
LIG

>  <lig_resi>  (198) 
201

>  <lig_chain>  (198) 
B

>  <lig_segi>  (198) 


>  <lig_alt>  (198) 


>  <polymer_chain>  (198) 
B

$$$$
x1247_0A§1
     RDKit          3D

 15 16  0  0  0  0  0  0  0  0999 V2000
  -10.5260   15.7430  -40.5350 N   0  0  0  0  0  0  0  0  0  0  0  0
   -6.9170   14.4620  -43.1680 C   0  0  0  0  0  0  0  0  0  0  0  0
  -12.5510   16.8430  -40.6540 O   0  0  0  0  0  0  0  0  0  0  0  0
   -8.2730   15.0850  -43.1210 C   0  0  0  0  0  0  0  0  0  0  0  0
  -11.8400   14.3240  -38.2560 N   0  0  0  0  0  0  0  0  0  0  0  0
   -8.9610   15.4340  -44.2800 C   0  0  0  0  0  0  0  0  0  0  0  0
   -8.7860   15.3070  -41.9030 N   0  0  0  0  0  0  0  0  0  0  0  0
  -10.1980   16.0390  -44.1710 C   0  0  0  0  0  0  0  0  0  0  0  0
  -10.7300   16.2860  -42.9200 C   0  0  0  0  0  0  0  0  0  0  0  0
   -9.9960   15.8680  -41.8180 C   0  0  0  0  0  0  0  0  0  0  0  0
  -11.7080   16.1850  -40.0490 C   0  0  0  0  0  0  0  0  0  0  0  0
  -11.9620   15.7230  -38.6590 C   0  0  1  0  0  0  0  0  0  0  0  0
  -13.0570   16.4330  -37.8990 C   0  0  0  0  0  0  0  0  0  0  0  0
  -13.9300   15.2810  -37.4610 C   0  0  0  0  0  0  0  0  0  0  0  0
  -12.9410   14.1170  -37.2950 C   0  0  0  0  0  0  0  0  0  0  0  0
  1 10  1  0
  1 11  1  0
  2  4  1  0
  3 11  2  0
  4  6  2  0
  4  7  1  0
  5 12  1  0
  5 15  1  0
  6  8  1  0
  7 10  2  0
  8  9  2  0
  9 10  1  0
 12 11  1  6
 12 13  1  0
 13 14  1  0
 14 15  1  0
A    1
 N  
A    2
 C  
A    3
 O  
A    4
 C1 
A    5
 N1 
A    6
 C2 
A    7
 N2 
A    8
 C3 
A    9
 C4 
A   10
 C5 
A   11
 C6 
A   12
 C7 
A   13
 C8 
A   14
 C9 
A   15
 C10
M  END
>  <XChem_code>  (199) 
D68EV3CPROA-x1247

>  <Occupancy>  (199) 
[0.86, 0.86, 0.86, 0.86, 0.86, 0.86, 0.86, 0.86, 0.86, 0.86, 0.86, 0.86, 0.86, 0.86, 0.86]

>  <TempFactor>  (199) 
[17.15, 19.7, 14.92, 19.7, 19.21, 19.17, 18.3, 19.2, 18.34, 17.39, 17.02, 17.11, 16.88, 17.4, 17.37]

>  <RealCrystalName>  (199) 
D68EV3CPROA-x1247

>  <smiles>  (199) 
Cc1cccc(NC(=O)[C@@H]2CCCN2)n1

>  <new_smiles>  (199) 
Cc1cccc(NC(=O)[C@@H]2CCCN2)n1

>  <alternate_name>  (199) 
Z760048004

>  <site_name>  (199) 
1

>  <pdb_entry>  (199) 
nan

>  <mol>  (199) 
<rdkit.Chem.rdchem.Mol object at 0x164f2b8b0>

>  <single_smiles>  (199) 
Cc1cccc(NC(=O)[C@@H]2CCCN2)n1

>  <base_name>  (199) 
D68EV3CPROA-x1247_0A

>  <lig_resn>  (199) 
LIG

>  <lig_resi>  (199) 
201

>  <lig_chain>  (199) 
A

>  <lig_segi>  (199) 


>  <lig_alt>  (199) 


>  <polymer_chain>  (199) 
A

$$$$
x1140_0A§1
     RDKit          3D

 16 17  0  0  0  0  0  0  0  0999 V2000
   -8.9730   12.5540  -34.4110 N   0  0  0  0  0  0  0  0  0  0  0  0
   -9.4550   15.9100  -34.4360 C   0  0  0  0  0  0  0  0  0  0  0  0
   -6.6410   13.2300  -33.9060 O   0  0  0  0  0  0  0  0  0  0  0  0
   -8.1620   15.1860  -34.7160 C   0  0  0  0  0  0  0  0  0  0  0  0
   -8.4880   13.9520  -32.4200 O   0  0  0  0  0  0  0  0  0  0  0  0
   -8.8040   12.1290  -35.8070 C   0  0  0  0  0  0  0  0  0  0  0  0
  -12.3780   15.1360  -38.9480 O   0  0  0  0  0  0  0  0  0  0  0  0
   -9.7270   12.9150  -36.7030 C   0  0  0  0  0  0  0  0  0  0  0  0
  -13.2430   13.9950  -37.1200 O   0  0  0  0  0  0  0  0  0  0  0  0
   -9.2490   13.4970  -37.8770 C   0  0  0  0  0  0  0  0  0  0  0  0
  -10.0660   14.2520  -38.7030 C   0  0  0  0  0  0  0  0  0  0  0  0
  -11.3900   14.3960  -38.3360 C   0  0  0  0  0  0  0  0  0  0  0  0
  -13.5590   14.9200  -38.1680 C   0  0  0  0  0  0  0  0  0  0  0  0
  -11.8830   13.8010  -37.2020 C   0  0  0  0  0  0  0  0  0  0  0  0
  -11.0690   13.0730  -36.3620 C   0  0  0  0  0  0  0  0  0  0  0  0
   -7.9880   13.6990  -33.7420 S   0  0  1  0  0  0  0  0  0  0  0  0
  1  6  1  0
  1 16  1  0
  2  4  1  0
  3 16  2  0
 16  4  1  6
  5 16  2  0
  6  8  1  0
  7 12  1  0
  7 13  1  0
  8 10  2  0
  8 15  1  0
  9 13  1  0
  9 14  1  0
 10 11  1  0
 11 12  2  0
 12 14  1  0
 14 15  2  0
A    1
 N  
A    2
 C  
A    3
 O  
A    4
 C1 
A    5
 O1 
A    6
 C2 
A    7
 O2 
A    8
 C3 
A    9
 O3 
A   10
 C4 
A   11
 C5 
A   12
 C6 
A   13
 C7 
A   14
 C8 
A   15
 C9 
A   16
 S  
M  END
>  <XChem_code>  (200) 
D68EV3CPROA-x1140

>  <Occupancy>  (200) 
[0.9, 0.9, 0.9, 0.9, 0.9, 0.9, 0.9, 0.9, 0.9, 0.9, 0.9, 0.9, 0.9, 0.9, 0.9, 0.9]

>  <TempFactor>  (200) 
[76.56, 80.45, 89.2, 82.82, 75.67, 71.09, 59.04, 66.24, 61.28, 64.65, 62.93, 62.44, 59.61, 62.66, 63.49, 87.18]

>  <RealCrystalName>  (200) 
D68EV3CPROA-x1140

>  <smiles>  (200) 
CCS(=O)(=O)NCc1ccc2OCOc2c1

>  <new_smiles>  (200) 
CCS(=O)(=O)NCc1ccc2OCOc2c1

>  <alternate_name>  (200) 
Z53860899

>  <site_name>  (200) 
1

>  <pdb_entry>  (200) 
nan

>  <mol>  (200) 
<rdkit.Chem.rdchem.Mol object at 0x164f2b680>

>  <single_smiles>  (200) 
CCS(=O)(=O)NCc1ccc2c(c1)OCO2

>  <base_name>  (200) 
D68EV3CPROA-x1140_0A

>  <lig_resn>  (200) 
LIG

>  <lig_resi>  (200) 
201

>  <lig_chain>  (200) 
A

>  <lig_segi>  (200) 


>  <lig_alt>  (200) 


>  <polymer_chain>  (200) 
A

$$$$
x1495_1B§1
     RDKit          3D

  8  8  0  0  0  0  0  0  0  0999 V2000
  -17.3960  -15.6260  -27.1630 C   0  0  0  0  0  0  0  0  0  0  0  0
  -18.5380  -15.5270  -26.5620 O   0  0  0  0  0  0  0  0  0  0  0  0
  -16.1550  -15.1120  -26.4320 C   0  0  0  0  0  0  0  0  0  0  0  0
  -17.2960  -16.2140  -28.2530 O   0  0  0  0  0  0  0  0  0  0  0  0
  -14.8620  -15.0070  -26.9770 C   0  0  0  0  0  0  0  0  0  0  0  0
  -13.9430  -14.5520  -26.1010 C   0  0  0  0  0  0  0  0  0  0  0  0
  -16.1540  -14.6850  -25.1250 C   0  0  0  0  0  0  0  0  0  0  0  0
  -14.5870  -14.2150  -24.5940 S   0  0  0  0  0  0  0  0  0  0  0  0
  1  2  2  0
  1  3  1  0
  1  4  1  0
  3  5  1  0
  3  7  2  0
  5  6  2  0
  6  8  1  0
  7  8  1  0
A    1
 C  
A    2
 O  
A    3
 C1 
A    4
 O1 
A    5
 C2 
A    6
 C3 
A    7
 C4 
A    8
 S  
M  END
>  <XChem_code>  (201) 
D68EV3CPROA-x1495

>  <Occupancy>  (201) 
[0.52, 0.52, 0.52, 0.52, 0.52, 0.52, 0.52, 0.52]

>  <TempFactor>  (201) 
[25.31, 23.4, 25.53, 28.89, 23.57, 24.32, 26.12, 29.61]

>  <RealCrystalName>  (201) 
D68EV3CPROA-x1495

>  <smiles>  (201) 
OC(=O)C=1C=CSC1

>  <new_smiles>  (201) 
OC(=O)C=1C=CSC1

>  <alternate_name>  (201) 
Z166605460

>  <site_name>  (201) 
2

>  <pdb_entry>  (201) 
nan

>  <mol>  (201) 
<rdkit.Chem.rdchem.Mol object at 0x165034350>

>  <single_smiles>  (201) 
O=C(O)c1ccsc1

>  <base_name>  (201) 
D68EV3CPROA-x1495_1B

>  <lig_resn>  (201) 
LIG

>  <lig_resi>  (201) 
201

>  <lig_chain>  (201) 
A

>  <lig_segi>  (201) 


>  <lig_alt>  (201) 


>  <polymer_chain>  (201) 
A

$$$$
x1495_1B§2
     RDKit          3D

  8  8  0  0  0  0  0  0  0  0999 V2000
   -4.8120    0.3590  -49.6420 C   0  0  0  0  0  0  0  0  0  0  0  0
   -4.1210    0.7230  -50.7140 O   0  0  0  0  0  0  0  0  0  0  0  0
   -6.3060    0.4900  -49.7440 C   0  0  0  0  0  0  0  0  0  0  0  0
   -4.2940   -0.1000  -48.5980 O   0  0  0  0  0  0  0  0  0  0  0  0
   -7.1060    0.8460  -50.8900 C   0  0  0  0  0  0  0  0  0  0  0  0
   -8.4370    0.7550  -50.6720 C   0  0  0  0  0  0  0  0  0  0  0  0
   -7.0890    0.1400  -48.6750 C   0  0  0  0  0  0  0  0  0  0  0  0
   -8.7370    0.2070  -49.0330 S   0  0  0  0  0  0  0  0  0  0  0  0
  1  2  2  0
  1  3  1  0
  1  4  1  0
  3  5  1  0
  3  7  2  0
  5  6  2  0
  6  8  1  0
  7  8  1  0
A    1
 C  
A    2
 O  
A    3
 C1 
A    4
 O1 
A    5
 C2 
A    6
 C3 
A    7
 C4 
A    8
 S  
M  END
>  <XChem_code>  (202) 
D68EV3CPROA-x1495

>  <Occupancy>  (202) 
[0.84, 0.84, 0.84, 0.84, 0.84, 0.84, 0.84, 0.84]

>  <TempFactor>  (202) 
[46.72, 52.55, 36.72, 50.79, 33.61, 30.81, 31.55, 28.27]

>  <RealCrystalName>  (202) 
D68EV3CPROA-x1495

>  <smiles>  (202) 
OC(=O)C=1C=CSC1

>  <new_smiles>  (202) 
OC(=O)C=1C=CSC1

>  <alternate_name>  (202) 
Z166605460

>  <site_name>  (202) 
2

>  <pdb_entry>  (202) 
nan

>  <mol>  (202) 
<rdkit.Chem.rdchem.Mol object at 0x165034350>

>  <single_smiles>  (202) 
O=C(O)c1ccsc1

>  <base_name>  (202) 
D68EV3CPROA-x1495_1B

>  <lig_resn>  (202) 
LIG

>  <lig_resi>  (202) 
201

>  <lig_chain>  (202) 
B

>  <lig_segi>  (202) 


>  <lig_alt>  (202) 


>  <polymer_chain>  (202) 
B

$$$$
x1495_1B§3
     RDKit          3D

  8  8  0  0  0  0  0  0  0  0999 V2000
  -15.1910  -12.1700  -38.9930 C   0  0  0  0  0  0  0  0  0  0  0  0
  -16.3870  -11.6520  -39.1620 O   0  0  0  0  0  0  0  0  0  0  0  0
  -14.6280  -12.1170  -37.6140 C   0  0  0  0  0  0  0  0  0  0  0  0
  -14.5490  -12.6830  -39.8940 O   0  0  0  0  0  0  0  0  0  0  0  0
  -13.3520  -12.6110  -37.1750 C   0  0  0  0  0  0  0  0  0  0  0  0
  -13.1310  -12.3940  -35.8360 C   0  0  0  0  0  0  0  0  0  0  0  0
  -15.3190  -11.5480  -36.5780 C   0  0  0  0  0  0  0  0  0  0  0  0
  -14.4530  -11.6110  -35.1300 S   0  0  0  0  0  0  0  0  0  0  0  0
  1  2  2  0
  1  3  1  0
  1  4  1  0
  3  5  1  0
  3  7  2  0
  5  6  2  0
  6  8  1  0
  7  8  1  0
A    1
 C  
A    2
 O  
A    3
 C1 
A    4
 O1 
A    5
 C2 
A    6
 C3 
A    7
 C4 
A    8
 S  
M  END
>  <XChem_code>  (203) 
D68EV3CPROA-x1495

>  <Occupancy>  (203) 
[0.67, 0.67, 0.67, 0.67, 0.67, 0.67, 0.67, 0.67]

>  <TempFactor>  (203) 
[29.34, 33.13, 29.5, 30.61, 28.5, 27.56, 28.31, 30.65]

>  <RealCrystalName>  (203) 
D68EV3CPROA-x1495

>  <smiles>  (203) 
OC(=O)C=1C=CSC1

>  <new_smiles>  (203) 
OC(=O)C=1C=CSC1

>  <alternate_name>  (203) 
Z166605460

>  <site_name>  (203) 
2

>  <pdb_entry>  (203) 
nan

>  <mol>  (203) 
<rdkit.Chem.rdchem.Mol object at 0x165034350>

>  <single_smiles>  (203) 
O=C(O)c1ccsc1

>  <base_name>  (203) 
D68EV3CPROA-x1495_1B

>  <lig_resn>  (203) 
LIG

>  <lig_resi>  (203) 
301

>  <lig_chain>  (203) 
B

>  <lig_segi>  (203) 


>  <lig_alt>  (203) 


>  <polymer_chain>  (203) 
B

$$$$
x0853_0A§1
     RDKit          3D

 14 15  0  0  0  0  0  0  0  0999 V2000
  -22.3640  -11.6470  -22.7500 N   0  0  0  0  0  0  0  0  0  0  0  0
  -22.7980  -13.0830  -20.8410 C   0  0  0  0  0  0  0  0  0  0  0  0
  -21.5090  -12.1000  -24.7860 O   0  0  0  0  0  0  0  0  0  0  0  0
  -22.6050  -13.0440  -22.3540 C   0  0  1  0  0  0  0  0  0  0  0  0
  -25.8000  -13.4690  -24.3880 N   0  0  0  0  0  0  0  0  0  0  0  0
  -21.7380  -11.3070  -23.8820 C   0  0  0  0  0  0  0  0  0  0  0  0
  -21.3720   -9.8860  -24.0020 C   0  0  1  0  0  0  0  0  0  0  0  0
  -20.2120   -9.5490  -24.9010 C   0  0  0  0  0  0  0  0  0  0  0  0
  -21.5900   -9.2450  -25.3460 C   0  0  0  0  0  0  0  0  0  0  0  0
  -23.7580  -13.6970  -23.1170 C   0  0  0  0  0  0  0  0  0  0  0  0
  -23.9300  -15.0810  -23.1210 C   0  0  0  0  0  0  0  0  0  0  0  0
  -25.0440  -15.6450  -23.7270 C   0  0  0  0  0  0  0  0  0  0  0  0
  -25.9550  -14.8050  -24.3390 C   0  0  0  0  0  0  0  0  0  0  0  0
  -24.7260  -12.9490  -23.7800 C   0  0  0  0  0  0  0  0  0  0  0  0
  1  4  1  0
  1  6  1  0
  4  2  1  1
  3  6  2  0
  4 10  1  0
  5 13  2  0
  5 14  1  0
  7  6  1  6
  7  8  1  0
  7  9  1  0
  8  9  1  0
 10 11  1  0
 10 14  2  0
 11 12  2  0
 12 13  1  0
A    1
 N  
A    2
 C  
A    3
 O  
A    4
 C1 
A    5
 N1 
A    6
 C2 
A    7
 C3 
A    8
 C4 
A    9
 C5 
A   10
 C6 
A   11
 C7 
A   12
 C8 
A   13
 C9 
A   14
 C10
M  END
>  <XChem_code>  (204) 
D68EV3CPROA-x0853

>  <Occupancy>  (204) 
[0.82, 0.82, 0.82, 0.82, 0.82, 0.82, 0.82, 0.82, 0.82, 0.82, 0.82, 0.82, 0.82, 0.82]

>  <TempFactor>  (204) 
[38.75, 40.14, 38.87, 39.66, 31.89, 38.06, 42.21, 41.41, 44.06, 37.47, 34.42, 33.47, 34.15, 33.37]

>  <RealCrystalName>  (204) 
D68EV3CPROA-x0853

>  <smiles>  (204) 
CC(NC(=O)C1CC1)c2cccnc2

>  <new_smiles>  (204) 
CC(NC(=O)C1CC1)c2cccnc2

>  <alternate_name>  (204) 
Z220996120

>  <site_name>  (204) 
5

>  <pdb_entry>  (204) 
nan

>  <mol>  (204) 
<rdkit.Chem.rdchem.Mol object at 0x162e321f0>

>  <single_smiles>  (204) 
CC(NC(=O)C1CC1)c1cccnc1

>  <base_name>  (204) 
D68EV3CPROA-x0853_0A

>  <lig_resn>  (204) 
LIG

>  <lig_resi>  (204) 
201

>  <lig_chain>  (204) 
A

>  <lig_segi>  (204) 


>  <lig_alt>  (204) 


>  <polymer_chain>  (204) 
A

$$$$
x1135_0A§1
     RDKit          3D

 14 14  0  0  0  0  0  0  0  0999 V2000
  -20.5320  -10.6280  -19.9960 N   0  0  0  0  0  0  0  0  0  0  0  0
  -19.6180  -10.3120  -16.0350 C   0  0  0  0  0  0  0  0  0  0  0  0
  -20.7390   -8.6040  -18.5970 O   0  0  0  0  0  0  0  0  0  0  0  0
  -20.2940  -10.8270  -17.2870 C   0  0  0  0  0  0  0  0  0  0  0  0
  -18.5500   -9.6880  -18.8620 O   0  0  0  0  0  0  0  0  0  0  0  0
  -19.6530  -11.5630  -20.7250 C   0  0  0  0  0  0  0  0  0  0  0  0
  -22.9710  -12.2860  -23.9850 O   0  0  0  0  0  0  0  0  0  0  0  0
  -19.9470  -11.4680  -22.2150 C   0  0  0  0  0  0  0  0  0  0  0  0
  -20.9070  -11.8310  -24.6390 O   0  0  0  0  0  0  0  0  0  0  0  0
  -21.4430  -11.2460  -22.4590 C   0  0  2  0  0  0  0  0  0  0  0  0
  -22.2470  -11.8330  -21.2960 C   0  0  0  0  0  0  0  0  0  0  0  0
  -21.9430  -11.0590  -20.0150 C   0  0  0  0  0  0  0  0  0  0  0  0
  -21.8620  -11.8470  -23.7730 C   0  0  0  0  0  0  0  0  0  0  0  0
  -19.9640   -9.8000  -18.7020 S   0  0  1  0  0  0  0  0  0  0  0  0
  1  6  1  0
  1 12  1  0
  1 14  1  0
  2  4  1  0
  3 14  2  0
 14  4  1  1
  5 14  2  0
  6  8  1  0
  7 13  2  0
  8 10  1  0
  9 13  1  0
 10 11  1  0
 10 13  1  6
 11 12  1  0
A    1
 N  
A    2
 C  
A    3
 O  
A    4
 C1 
A    5
 O1 
A    6
 C2 
A    7
 O2 
A    8
 C3 
A    9
 O3 
A   10
 C4 
A   11
 C5 
A   12
 C6 
A   13
 C7 
A   14
 S  
M  END
>  <XChem_code>  (205) 
D68EV3CPROA-x1135

>  <Occupancy>  (205) 
[0.8, 0.8, 0.8, 0.8, 0.8, 0.8, 0.8, 0.8, 0.8, 0.8, 0.8, 0.8, 0.8, 0.8]

>  <TempFactor>  (205) 
[122.68, 132.71, 133.52, 134.8, 130.85, 111.73, 94.09, 106.83, 81.03, 101.43, 111.15, 119.54, 90.92, 134.95]

>  <RealCrystalName>  (205) 
D68EV3CPROA-x1135

>  <smiles>  (205) 
CCS(=O)(=O)N1CCC(CC1)C(=O)O

>  <new_smiles>  (205) 
CCS(=O)(=O)N1CCC(CC1)C(=O)O

>  <alternate_name>  (205) 
Z53825020

>  <site_name>  (205) 
5

>  <pdb_entry>  (205) 
nan

>  <mol>  (205) 
<rdkit.Chem.rdchem.Mol object at 0x164f2b5a0>

>  <single_smiles>  (205) 
CCS(=O)(=O)N1CCC(C(=O)O)CC1

>  <base_name>  (205) 
D68EV3CPROA-x1135_0A

>  <lig_resn>  (205) 
LIG

>  <lig_resi>  (205) 
201

>  <lig_chain>  (205) 
A

>  <lig_segi>  (205) 


>  <lig_alt>  (205) 


>  <polymer_chain>  (205) 
A

$$$$
x0228_0A§1
     RDKit          3D

 12 13  0  0  0  0  0  0  0  0999 V2000
  -26.5560    1.0500  -43.5780 N   0  0  0  0  0  0  0  0  0  0  0  0
  -27.3310    1.3620  -42.5270 C   0  0  0  0  0  0  0  0  0  0  0  0
  -27.7260    2.5040  -42.3140 O   0  0  0  0  0  0  0  0  0  0  0  0
  -25.9880   -0.2610  -43.9410 C   0  0  0  0  0  0  0  0  0  0  0  0
  -28.1090   -0.8620  -39.7010 N   0  0  0  0  0  0  0  0  0  0  0  0
  -25.2030    0.0290  -45.2100 C   0  0  0  0  0  0  0  0  0  0  0  0
  -28.4710   -1.5780  -40.7830 N   0  0  0  0  0  0  0  0  0  0  0  0
  -24.9050    1.4950  -45.1550 C   0  0  0  0  0  0  0  0  0  0  0  0
  -26.1490    2.0820  -44.5360 C   0  0  0  0  0  0  0  0  0  0  0  0
  -27.7130    0.3110  -41.5850 C   0  0  0  0  0  0  0  0  0  0  0  0
  -27.6510    0.2860  -40.1800 C   0  0  0  0  0  0  0  0  0  0  0  0
  -28.2490   -0.9210  -41.9240 C   0  0  0  0  0  0  0  0  0  0  0  0
  1  2  1  0
  1  4  1  0
  1  9  1  0
  2  3  2  0
  2 10  1  0
  4  6  1  0
  5  7  1  0
  5 11  2  0
  6  8  1  0
  7 12  1  0
  8  9  1  0
 10 11  1  0
 10 12  2  0
A    1
 N  
A    2
 C  
A    3
 O  
A    4
 C1 
A    5
 N1 
A    6
 C2 
A    7
 N2 
A    8
 C3 
A    9
 C4 
A   10
 C5 
A   11
 C6 
A   12
 C7 
M  END
>  <XChem_code>  (206) 
D68EV3CPROA-x0228

>  <Occupancy>  (206) 
[0.48, 0.48, 0.48, 0.48, 0.48, 0.48, 0.48, 0.48, 0.48, 0.48, 0.48, 0.48]

>  <TempFactor>  (206) 
[38.31, 36.28, 36.84, 38.19, 33.92, 38.12, 33.84, 37.99, 38.12, 35.15, 34.76, 35.42]

>  <RealCrystalName>  (206) 
D68EV3CPROA-x0228

>  <smiles>  (206) 
Cl.O=C(N1CCCC1)c2cn[nH]c2

>  <new_smiles>  (206) 
Cl.O=C(N1CCCC1)c2cn[nH]c2

>  <alternate_name>  (206) 
Z1266933824

>  <site_name>  (206) 
4

>  <pdb_entry>  (206) 
nan

>  <mol>  (206) 
<rdkit.Chem.rdchem.Mol object at 0x162e33bc0>

>  <single_smiles>  (206) 
O=C(c1cn[nH]c1)N1CCCC1

>  <base_name>  (206) 
D68EV3CPROA-x0228_0A

>  <lig_resn>  (206) 
LIG

>  <lig_resi>  (206) 
201

>  <lig_chain>  (206) 
A

>  <lig_segi>  (206) 


>  <lig_alt>  (206) 


>  <polymer_chain>  (206) 
A

$$$$
x0133_0B§1
     RDKit          3D

 13 13  0  0  0  0  0  0  0  0999 V2000
  -31.1470    1.1010  -39.5710 N   0  0  0  0  0  0  0  0  0  0  0  0
  -25.4000    0.6780  -44.8940 C   0  0  0  0  0  0  0  0  0  0  0  0
  -31.2170   -1.2550  -40.2640 O   0  0  0  0  0  0  0  0  0  0  0  0
  -26.3890    0.4850  -43.7740 C   0  0  0  0  0  0  0  0  0  0  0  0
  -30.8060    0.5170  -41.9350 O   0  0  0  0  0  0  0  0  0  0  0  0
  -26.7170   -0.7890  -43.3190 C   0  0  0  0  0  0  0  0  0  0  0  0
  -27.5380   -0.9740  -42.2230 C   0  0  0  0  0  0  0  0  0  0  0  0
  -28.0620    0.1090  -41.5370 C   0  0  0  0  0  0  0  0  0  0  0  0
  -28.8780   -0.0910  -40.2910 C   0  0  0  0  0  0  0  0  0  0  0  0
  -27.7780    1.3880  -42.0000 C   0  0  0  0  0  0  0  0  0  0  0  0
  -26.9630    1.5380  -43.0960 C   0  0  0  0  0  0  0  0  0  0  0  0
  -26.7260    2.7900  -43.5450 F   0  0  0  0  0  0  0  0  0  0  0  0
  -30.6340    0.0000  -40.6150 S   0  0  1  0  0  0  0  0  0  0  0  0
 13  1  1  1
  2  4  1  0
  3 13  2  0
  4  6  2  0
  4 11  1  0
  5 13  2  0
  6  7  1  0
  7  8  2  0
  8  9  1  0
  8 10  1  0
  9 13  1  0
 10 11  2  0
 11 12  1  0
A    1
 N  
A    2
 C  
A    3
 O  
A    4
 C1 
A    5
 O1 
A    6
 C2 
A    7
 C3 
A    8
 C4 
A    9
 C5 
A   10
 C6 
A   11
 C7 
A   12
 F  
A   13
 S  
M  END
>  <XChem_code>  (207) 
D68EV3CPROA-x0133

>  <Occupancy>  (207) 
[0.35, 0.35, 0.35, 0.35, 0.35, 0.35, 0.35, 0.35, 0.35, 0.35, 0.35, 0.35, 0.35]

>  <TempFactor>  (207) 
[84.63, 63.16, 85.93, 62.82, 85.97, 63.93, 63.71, 65.58, 72.43, 63.72, 61.62, 60.02, 84.86]

>  <RealCrystalName>  (207) 
D68EV3CPROA-x0133

>  <smiles>  (207) 
Cc1ccc(CS(=O)(=O)N)cc1F

>  <new_smiles>  (207) 
Cc1ccc(CS(=O)(=O)N)cc1F

>  <alternate_name>  (207) 
Z1143279263

>  <site_name>  (207) 
4

>  <pdb_entry>  (207) 
nan

>  <mol>  (207) 
<rdkit.Chem.rdchem.Mol object at 0x16324ccf0>

>  <single_smiles>  (207) 
Cc1ccc(CS(N)(=O)=O)cc1F

>  <base_name>  (207) 
D68EV3CPROA-x0133_0B

>  <lig_resn>  (207) 
LIG

>  <lig_resi>  (207) 
201

>  <lig_chain>  (207) 
B

>  <lig_segi>  (207) 


>  <lig_alt>  (207) 
A

>  <polymer_chain>  (207) 
B

$$$$
x0133_0B§2
     RDKit          3D

 13 13  0  0  0  0  0  0  0  0999 V2000
  -30.5660   -0.7430  -42.1620 N   0  0  0  0  0  0  0  0  0  0  0  0
  -25.1740    0.8500  -45.1350 C   0  0  0  0  0  0  0  0  0  0  0  0
  -30.3590    1.6260  -41.5420 O   0  0  0  0  0  0  0  0  0  0  0  0
  -26.0860    0.6180  -43.9570 C   0  0  0  0  0  0  0  0  0  0  0  0
  -31.1660   -0.0290  -39.8820 O   0  0  0  0  0  0  0  0  0  0  0  0
  -26.4810   -0.6650  -43.5880 C   0  0  0  0  0  0  0  0  0  0  0  0
  -27.2910   -0.8810  -42.4890 C   0  0  0  0  0  0  0  0  0  0  0  0
  -27.7280    0.1790  -41.7090 C   0  0  0  0  0  0  0  0  0  0  0  0
  -28.6330   -0.0480  -40.5300 C   0  0  0  0  0  0  0  0  0  0  0  0
  -27.3460    1.4660  -42.0640 C   0  0  0  0  0  0  0  0  0  0  0  0
  -26.5520    1.6470  -43.1670 C   0  0  0  0  0  0  0  0  0  0  0  0
  -26.2130    2.9090  -43.4940 F   0  0  0  0  0  0  0  0  0  0  0  0
  -30.3230    0.3120  -40.9840 S   0  0  1  0  0  0  0  0  0  0  0  0
 13  1  1  6
  2  4  1  0
  3 13  2  0
  4  6  2  0
  4 11  1  0
  5 13  2  0
  6  7  1  0
  7  8  2  0
  8  9  1  0
  8 10  1  0
  9 13  1  0
 10 11  2  0
 11 12  1  0
A    1
 N  
A    2
 C  
A    3
 O  
A    4
 C1 
A    5
 O1 
A    6
 C2 
A    7
 C3 
A    8
 C4 
A    9
 C5 
A   10
 C6 
A   11
 C7 
A   12
 F  
A   13
 S  
M  END
>  <XChem_code>  (208) 
D68EV3CPROA-x0133

>  <Occupancy>  (208) 
[0.4, 0.4, 0.4, 0.4, 0.4, 0.4, 0.4, 0.4, 0.4, 0.4, 0.4, 0.4, 0.4]

>  <TempFactor>  (208) 
[28.79, 26.78, 30.94, 26.5, 29.74, 25.13, 25.13, 26.58, 27.65, 26.99, 27.01, 29.23, 28.34]

>  <RealCrystalName>  (208) 
D68EV3CPROA-x0133

>  <smiles>  (208) 
Cc1ccc(CS(=O)(=O)N)cc1F

>  <new_smiles>  (208) 
Cc1ccc(CS(=O)(=O)N)cc1F

>  <alternate_name>  (208) 
Z1143279263

>  <site_name>  (208) 
4

>  <pdb_entry>  (208) 
nan

>  <mol>  (208) 
<rdkit.Chem.rdchem.Mol object at 0x16324ccf0>

>  <single_smiles>  (208) 
Cc1ccc(CS(N)(=O)=O)cc1F

>  <base_name>  (208) 
D68EV3CPROA-x0133_0B

>  <lig_resn>  (208) 
LIG

>  <lig_resi>  (208) 
201

>  <lig_chain>  (208) 
A

>  <lig_segi>  (208) 


>  <lig_alt>  (208) 


>  <polymer_chain>  (208) 
A

$$$$
x0133_0B§3
     RDKit          3D

 13 13  0  0  0  0  0  0  0  0999 V2000
  -31.0960    1.1720  -39.4080 N   0  0  0  0  0  0  0  0  0  0  0  0
  -25.1480    1.1940  -44.7150 C   0  0  0  0  0  0  0  0  0  0  0  0
  -31.3780   -0.8160  -40.8230 O   0  0  0  0  0  0  0  0  0  0  0  0
  -26.2590    0.9030  -43.7390 C   0  0  0  0  0  0  0  0  0  0  0  0
  -30.7180    1.3410  -41.8280 O   0  0  0  0  0  0  0  0  0  0  0  0
  -26.8400    1.9180  -42.9860 C   0  0  0  0  0  0  0  0  0  0  0  0
  -27.7290    1.6390  -41.9650 C   0  0  0  0  0  0  0  0  0  0  0  0
  -28.0770    0.3320  -41.6610 C   0  0  0  0  0  0  0  0  0  0  0  0
  -28.9300    0.0230  -40.4650 C   0  0  0  0  0  0  0  0  0  0  0  0
  -27.5500   -0.6910  -42.4430 C   0  0  0  0  0  0  0  0  0  0  0  0
  -26.6670   -0.3790  -43.4470 C   0  0  0  0  0  0  0  0  0  0  0  0
  -26.1550   -1.3850  -44.1930 F   0  0  0  0  0  0  0  0  0  0  0  0
  -30.6520    0.4130  -40.7470 S   0  0  1  0  0  0  0  0  0  0  0  0
 13  1  1  1
  2  4  1  0
  3 13  2  0
  4  6  2  0
  4 11  1  0
  5 13  2  0
  6  7  1  0
  7  8  2  0
  8  9  1  0
  8 10  1  0
  9 13  1  0
 10 11  2  0
 11 12  1  0
A    1
 N  
A    2
 C  
A    3
 O  
A    4
 C1 
A    5
 O1 
A    6
 C2 
A    7
 C3 
A    8
 C4 
A    9
 C5 
A   10
 C6 
A   11
 C7 
A   12
 F  
A   13
 S  
M  END
>  <XChem_code>  (209) 
D68EV3CPROA-x0133

>  <Occupancy>  (209) 
[0.34, 0.34, 0.34, 0.34, 0.34, 0.34, 0.34, 0.34, 0.34, 0.34, 0.34, 0.34, 0.34]

>  <TempFactor>  (209) 
[64.94, 49.37, 65.75, 49.61, 66.72, 50.14, 51.77, 52.5, 56.76, 50.14, 50.05, 46.49, 64.5]

>  <RealCrystalName>  (209) 
D68EV3CPROA-x0133

>  <smiles>  (209) 
Cc1ccc(CS(=O)(=O)N)cc1F

>  <new_smiles>  (209) 
Cc1ccc(CS(=O)(=O)N)cc1F

>  <alternate_name>  (209) 
Z1143279263

>  <site_name>  (209) 
4

>  <pdb_entry>  (209) 
nan

>  <mol>  (209) 
<rdkit.Chem.rdchem.Mol object at 0x16324ccf0>

>  <single_smiles>  (209) 
Cc1ccc(CS(N)(=O)=O)cc1F

>  <base_name>  (209) 
D68EV3CPROA-x0133_0B

>  <lig_resn>  (209) 
LIG

>  <lig_resi>  (209) 
201

>  <lig_chain>  (209) 
B

>  <lig_segi>  (209) 


>  <lig_alt>  (209) 
B

>  <polymer_chain>  (209) 
B

$$$$
x1052_1A§1
     RDKit          3D

 14 14  0  0  0  0  0  0  0  0999 V2000
  -22.4830   19.3570  -21.6960 N   0  0  0  0  0  0  0  0  0  0  0  0
  -19.0560   18.5470  -19.4690 C   0  0  0  0  0  0  0  0  0  0  0  0
  -19.4060   19.8540  -19.9950 O   0  0  0  0  0  0  0  0  0  0  0  0
  -20.1420   19.9030  -21.1170 C   0  0  0  0  0  0  0  0  0  0  0  0
  -25.5790   17.5940  -21.6130 N   0  0  0  0  0  0  0  0  0  0  0  0
  -19.9330   20.6790  -22.0150 O   0  0  0  0  0  0  0  0  0  0  0  0
  -21.2590   18.8890  -21.0800 C   0  0  0  0  0  0  0  0  0  0  0  0
  -23.9810   19.2820  -20.0090 O   0  0  0  0  0  0  0  0  0  0  0  0
  -23.6750   19.0450  -21.1800 C   0  0  0  0  0  0  0  0  0  0  0  0
  -26.2290   17.0810  -22.7590 O   0  0  0  0  0  0  0  0  0  0  0  0
  -24.6190   18.3580  -22.0940 C   0  0  0  0  0  0  0  0  0  0  0  0
  -24.6110   18.3810  -23.4960 C   0  0  0  0  0  0  0  0  0  0  0  0
  -25.6200   17.5750  -23.8590 C   0  0  0  0  0  0  0  0  0  0  0  0
  -26.1770   17.1370  -25.1640 C   0  0  0  0  0  0  0  0  0  0  0  0
  1  7  1  0
  1  9  1  0
  2  3  1  0
  3  4  1  0
  4  6  2  0
  4  7  1  0
  5 10  1  0
  5 11  2  0
  8  9  2  0
  9 11  1  0
 10 13  1  0
 11 12  1  0
 12 13  2  0
 13 14  1  0
A    1
 N  
A    2
 C  
A    3
 O  
A    4
 C1 
A    5
 N1 
A    6
 O1 
A    7
 C2 
A    8
 O2 
A    9
 C3 
A   10
 O3 
A   11
 C4 
A   12
 C5 
A   13
 C6 
A   14
 C7 
M  END
>  <XChem_code>  (210) 
D68EV3CPROA-x1052

>  <Occupancy>  (210) 
[0.7, 0.7, 0.7, 0.7, 0.7, 0.7, 0.7, 0.7, 0.7, 0.7, 0.7, 0.7, 0.7, 0.7]

>  <TempFactor>  (210) 
[61.03, 58.77, 61.05, 60.8, 56.63, 59.18, 60.15, 64.17, 60.74, 58.66, 59.2, 56.56, 57.51, 54.82]

>  <RealCrystalName>  (210) 
D68EV3CPROA-x1052

>  <smiles>  (210) 
COC(=O)CNC(=O)c1cc(C)on1

>  <new_smiles>  (210) 
COC(=O)CNC(=O)c1cc(C)on1

>  <alternate_name>  (210) 
Z375990520

>  <site_name>  (210) 
1

>  <pdb_entry>  (210) 
nan

>  <mol>  (210) 
<rdkit.Chem.rdchem.Mol object at 0x164f2b0d0>

>  <single_smiles>  (210) 
COC(=O)CNC(=O)c1cc(C)on1

>  <base_name>  (210) 
D68EV3CPROA-x1052_1A

>  <lig_resn>  (210) 
LIG

>  <lig_resi>  (210) 
301

>  <lig_chain>  (210) 
A

>  <lig_segi>  (210) 


>  <lig_alt>  (210) 


>  <polymer_chain>  (210) 
A

$$$$
x1052_1A§2
     RDKit          3D

 14 14  0  0  0  0  0  0  0  0999 V2000
   -8.9340   16.8010  -32.6350 N   0  0  0  0  0  0  0  0  0  0  0  0
  -10.7170   19.2530  -28.9520 C   0  0  0  0  0  0  0  0  0  0  0  0
   -9.5900   18.8570  -29.7700 O   0  0  0  0  0  0  0  0  0  0  0  0
   -9.8680   18.2240  -30.8990 C   0  0  0  0  0  0  0  0  0  0  0  0
   -8.7920   15.9030  -35.2540 N   0  0  0  0  0  0  0  0  0  0  0  0
  -10.8540   18.3850  -31.5170 O   0  0  0  0  0  0  0  0  0  0  0  0
   -8.7560   17.2950  -31.2850 C   0  0  0  0  0  0  0  0  0  0  0  0
   -9.2950   14.6660  -31.9880 O   0  0  0  0  0  0  0  0  0  0  0  0
   -9.1810   15.5110  -32.8840 C   0  0  0  0  0  0  0  0  0  0  0  0
   -9.0790   15.2200  -36.4650 O   0  0  0  0  0  0  0  0  0  0  0  0
   -9.3040   15.1370  -34.3130 C   0  0  0  0  0  0  0  0  0  0  0  0
   -9.9160   13.9860  -34.8470 C   0  0  0  0  0  0  0  0  0  0  0  0
   -9.7420   14.0850  -36.1740 C   0  0  0  0  0  0  0  0  0  0  0  0
  -10.0760   13.2130  -37.3290 C   0  0  0  0  0  0  0  0  0  0  0  0
  1  7  1  0
  1  9  1  0
  2  3  1  0
  3  4  1  0
  4  6  2  0
  4  7  1  0
  5 10  1  0
  5 11  2  0
  8  9  2  0
  9 11  1  0
 10 13  1  0
 11 12  1  0
 12 13  2  0
 13 14  1  0
A    1
 N  
A    2
 C  
A    3
 O  
A    4
 C1 
A    5
 N1 
A    6
 O1 
A    7
 C2 
A    8
 O2 
A    9
 C3 
A   10
 O3 
A   11
 C4 
A   12
 C5 
A   13
 C6 
A   14
 C7 
M  END
>  <XChem_code>  (211) 
D68EV3CPROA-x1052

>  <Occupancy>  (211) 
[0.7, 0.7, 0.7, 0.7, 0.7, 0.7, 0.7, 0.7, 0.7, 0.7, 0.7, 0.7, 0.7, 0.7]

>  <TempFactor>  (211) 
[35.38, 39.32, 40.62, 32.41, 41.61, 27.04, 35.25, 35.17, 39.06, 43.83, 40.83, 44.55, 43.47, 43.64]

>  <RealCrystalName>  (211) 
D68EV3CPROA-x1052

>  <smiles>  (211) 
COC(=O)CNC(=O)c1cc(C)on1

>  <new_smiles>  (211) 
COC(=O)CNC(=O)c1cc(C)on1

>  <alternate_name>  (211) 
Z375990520

>  <site_name>  (211) 
1

>  <pdb_entry>  (211) 
nan

>  <mol>  (211) 
<rdkit.Chem.rdchem.Mol object at 0x164f2b0d0>

>  <single_smiles>  (211) 
COC(=O)CNC(=O)c1cc(C)on1

>  <base_name>  (211) 
D68EV3CPROA-x1052_1A

>  <lig_resn>  (211) 
LIG

>  <lig_resi>  (211) 
201

>  <lig_chain>  (211) 
A

>  <lig_segi>  (211) 


>  <lig_alt>  (211) 


>  <polymer_chain>  (211) 
A

$$$$
x1707_0B§1
     RDKit          3D

  6  6  0  0  0  0  0  0  0  0999 V2000
   -9.0690    1.2550  -50.3830 N   0  0  0  0  0  0  0  0  0  0  0  0
   -7.1020    0.9350  -49.4500 C   0  0  0  0  0  0  0  0  0  0  0  0
   -5.7830    0.3470  -48.4990 Cl  0  0  0  0  0  0  0  0  0  0  0  0
   -8.4300    0.4980  -49.4410 C   0  0  0  0  0  0  0  0  0  0  0  0
   -6.9610    1.9280  -50.3670 N   0  0  0  0  0  0  0  0  0  0  0  0
   -8.1590    2.0890  -50.9090 C   0  0  0  0  0  0  0  0  0  0  0  0
  1  4  1  0
  1  6  1  0
  2  3  1  0
  2  4  2  0
  2  5  1  0
  5  6  2  0
A    1
 N  
A    2
 C  
A    3
CL  
A    4
 C1 
A    5
 N1 
A    6
 C2 
M  END
>  <XChem_code>  (212) 
D68EV3CPROA-x1707

>  <Occupancy>  (212) 
[0.72, 0.72, 0.72, 0.72, 0.72, 0.72]

>  <TempFactor>  (212) 
[35.74, 38.31, 46.26, 36.25, 37.0, 35.7]

>  <RealCrystalName>  (212) 
D68EV3CPROA-x1707

>  <smiles>  (212) 
ClC1=CNC=N1

>  <new_smiles>  (212) 
ClC1=CNC=N1

>  <alternate_name>  (212) 
Z1198183601

>  <site_name>  (212) 
2

>  <pdb_entry>  (212) 
nan

>  <mol>  (212) 
<rdkit.Chem.rdchem.Mol object at 0x165035070>

>  <single_smiles>  (212) 
Clc1c[nH]cn1

>  <base_name>  (212) 
D68EV3CPROA-x1707_0B

>  <lig_resn>  (212) 
LIG

>  <lig_resi>  (212) 
201

>  <lig_chain>  (212) 
B

>  <lig_segi>  (212) 


>  <lig_alt>  (212) 


>  <polymer_chain>  (212) 
B

$$$$
x1568_0A§1
     RDKit          3D

 14 15  0  0  0  0  0  0  0  0999 V2000
  -14.1180  -13.1350  -36.5530 N   0  0  0  0  0  0  0  0  0  0  0  0
  -19.5770   -9.1010  -42.9540 C   0  0  0  0  0  0  0  0  0  0  0  0
  -18.1540   -9.2470  -42.8960 O   0  0  0  0  0  0  0  0  0  0  0  0
  -17.6240  -10.0600  -41.9310 C   0  0  0  0  0  0  0  0  0  0  0  0
  -16.2440  -10.1440  -42.0210 C   0  0  0  0  0  0  0  0  0  0  0  0
  -15.5280  -10.7800  -41.0280 C   0  0  0  0  0  0  0  0  0  0  0  0
  -16.1800  -11.3560  -39.9320 C   0  0  0  0  0  0  0  0  0  0  0  0
  -17.5740  -11.3180  -39.8950 C   0  0  0  0  0  0  0  0  0  0  0  0
  -18.2930  -10.6730  -40.8860 C   0  0  0  0  0  0  0  0  0  0  0  0
  -15.4050  -11.9410  -38.8110 C   0  0  0  0  0  0  0  0  0  0  0  0
  -14.3660  -12.7600  -39.0070 C   0  0  0  0  0  0  0  0  0  0  0  0
  -13.6360  -13.4330  -37.8980 C   0  0  0  0  0  0  0  0  0  0  0  0
  -15.5440  -12.8380  -36.4930 C   0  0  0  0  0  0  0  0  0  0  0  0
  -15.8450  -11.6380  -37.3820 C   0  0  0  0  0  0  0  0  0  0  0  0
  1 12  1  0
  1 13  1  0
  2  3  1  0
  3  4  1  0
  4  5  2  0
  4  9  1  0
  5  6  1  0
  6  7  2  0
  7  8  1  0
  7 10  1  0
  8  9  2  0
 10 11  2  0
 10 14  1  0
 11 12  1  0
 13 14  1  0
A    1
 N  
A    2
 C  
A    3
 O  
A    4
 C1 
A    5
 C2 
A    6
 C3 
A    7
 C4 
A    8
 C5 
A    9
 C6 
A   10
 C7 
A   11
 C8 
A   12
 C9 
A   13
 C10
A   14
 C11
M  END
>  <XChem_code>  (213) 
D68EV3CPROA-x1568

>  <Occupancy>  (213) 
[0.66, 0.66, 0.66, 0.66, 0.66, 0.66, 0.66, 0.66, 0.66, 0.66, 0.66, 0.66, 0.66, 0.66]

>  <TempFactor>  (213) 
[34.41, 25.28, 26.36, 26.24, 26.5, 27.95, 30.98, 30.21, 28.39, 32.51, 32.62, 33.45, 35.03, 33.23]

>  <RealCrystalName>  (213) 
D68EV3CPROA-x1568

>  <smiles>  (213) 
COC=1C=CC(=CC1)C2=CCNCC2

>  <new_smiles>  (213) 
COC=1C=CC(=CC1)C2=CCNCC2

>  <alternate_name>  (213) 
Z281773378

>  <site_name>  (213) 
5

>  <pdb_entry>  (213) 
nan

>  <mol>  (213) 
<rdkit.Chem.rdchem.Mol object at 0x165034820>

>  <single_smiles>  (213) 
COc1ccc(C2=CCNCC2)cc1

>  <base_name>  (213) 
D68EV3CPROA-x1568_0A

>  <lig_resn>  (213) 
LIG

>  <lig_resi>  (213) 
201

>  <lig_chain>  (213) 
A

>  <lig_segi>  (213) 


>  <lig_alt>  (213) 


>  <polymer_chain>  (213) 
A

$$$$
x1020_0A§1
     RDKit          3D

 13 13  0  0  0  0  0  0  0  0999 V2000
   -9.8390   15.6950  -41.5220 N   0  0  0  0  0  0  0  0  0  0  0  0
   -7.4360   15.9950  -43.1230 C   0  0  0  0  0  0  0  0  0  0  0  0
  -10.9260   16.4940  -43.3510 O   0  0  0  0  0  0  0  0  0  0  0  0
   -8.7640   15.4980  -43.6550 C   0  0  0  0  0  0  0  0  0  0  0  0
  -11.8530   13.9490  -42.0680 O   0  0  0  0  0  0  0  0  0  0  0  0
   -9.9410   15.9670  -42.8400 C   0  0  0  0  0  0  0  0  0  0  0  0
  -10.9170   15.6060  -40.6150 C   0  0  0  0  0  0  0  0  0  0  0  0
  -11.0270   16.4280  -39.5000 C   0  0  0  0  0  0  0  0  0  0  0  0
  -12.1190   16.2940  -38.6590 C   0  0  0  0  0  0  0  0  0  0  0  0
  -13.1090   15.3520  -38.9000 C   0  0  0  0  0  0  0  0  0  0  0  0
  -14.3030   15.2280  -37.9860 C   0  0  0  0  0  0  0  0  0  0  0  0
  -12.9860   14.5350  -40.0140 C   0  0  0  0  0  0  0  0  0  0  0  0
  -11.9070   14.6510  -40.8730 C   0  0  0  0  0  0  0  0  0  0  0  0
  1  6  1  0
  1  7  1  0
  2  4  1  0
  3  6  2  0
  4  6  1  0
  5 13  1  0
  7  8  2  0
  7 13  1  0
  8  9  1  0
  9 10  2  0
 10 11  1  0
 10 12  1  0
 12 13  2  0
A    1
 N  
A    2
 C  
A    3
 O  
A    4
 C1 
A    5
 O1 
A    6
 C2 
A    7
 C3 
A    8
 C4 
A    9
 C5 
A   10
 C6 
A   11
 C7 
A   12
 C8 
A   13
 C9 
M  END
>  <XChem_code>  (214) 
D68EV3CPROA-x1020

>  <Occupancy>  (214) 
[0.74, 0.74, 0.74, 0.74, 0.74, 0.74, 0.74, 0.74, 0.74, 0.74, 0.74, 0.74, 0.74]

>  <TempFactor>  (214) 
[38.7, 47.2, 41.94, 46.47, 36.63, 43.1, 33.8, 32.03, 32.2, 32.53, 29.65, 32.48, 33.92]

>  <RealCrystalName>  (214) 
D68EV3CPROA-x1020

>  <smiles>  (214) 
CCC(=O)Nc1ccc(C)cc1O

>  <new_smiles>  (214) 
CCC(=O)Nc1ccc(C)cc1O

>  <alternate_name>  (214) 
Z33452106

>  <site_name>  (214) 
1

>  <pdb_entry>  (214) 
nan

>  <mol>  (214) 
<rdkit.Chem.rdchem.Mol object at 0x164f2aff0>

>  <single_smiles>  (214) 
CCC(=O)Nc1ccc(C)cc1O

>  <base_name>  (214) 
D68EV3CPROA-x1020_0A

>  <lig_resn>  (214) 
LIG

>  <lig_resi>  (214) 
201

>  <lig_chain>  (214) 
A

>  <lig_segi>  (214) 


>  <lig_alt>  (214) 


>  <polymer_chain>  (214) 
A

$$$$
