x1498L0AP1
     RDKit          3D

  7  7  0  0  0  0  0  0  0  0999 V2000
   -5.6760   11.4090  -29.8020 N   0  0  0  0  0  0  0  0  0  0  0  0
   -6.5010   10.3800  -30.1470 C   0  0  0  0  0  0  0  0  0  0  0  0
   -7.1160    9.7560  -29.1800 O   0  0  0  0  0  0  0  0  0  0  0  0
   -6.7610   10.0140  -31.4690 C   0  0  0  0  0  0  0  0  0  0  0  0
   -6.1610   10.7590  -32.4710 C   0  0  0  0  0  0  0  0  0  0  0  0
   -5.3260   11.8150  -32.1470 C   0  0  0  0  0  0  0  0  0  0  0  0
   -5.1130   12.0970  -30.8080 C   0  0  0  0  0  0  0  0  0  0  0  0
  1  2  2  0
  1  7  1  0
  2  3  1  0
  2  4  1  0
  4  5  2  0
  5  6  1  0
  6  7  2  0
A    1
 N  
A    2
 C  
A    3
 O  
A    4
 C1 
A    5
 C2 
A    6
 C3 
A    7
 C4 
M  END
>  <XChem_code>  (1) 
D68EV3CPROA-x1498

>  <Occupancy>  (1) 
[0.88, 0.88, 0.88, 0.88, 0.88, 0.88, 0.88]

>  <TempFactor>  (1) 
[42.68, 37.56, 35.8, 40.47, 43.12, 43.66, 44.2]

>  <RealCrystalName>  (1) 
D68EV3CPROA-x1498

>  <smiles>  (1) 
OC=1C=CC=CN1

>  <new_smiles>  (1) 
OC=1C=CC=CN1

>  <alternate_name>  (1) 
Z1741982125

>  <site_name>  (1) 
1

>  <pdb_entry>  (1) 
nan

>  <mol>  (1) 
<rdkit.Chem.rdchem.Mol object at 0x13a26d1c0>

>  <single_smiles>  (1) 
Oc1ccccn1

>  <base_name>  (1) 
D68EV3CPROA-x1498_0A

>  <lig_resn>  (1) 
LIG

>  <lig_resi>  (1) 
201

>  <lig_chain>  (1) 
A

>  <lig_segi>  (1) 


>  <lig_alt>  (1) 


>  <polymer_chain>  (1) 
A

$$$$
x1498L0AP2
     RDKit          3D

  7  7  0  0  0  0  0  0  0  0999 V2000
  -18.2580   19.9450  -20.8390 N   0  0  0  0  0  0  0  0  0  0  0  0
  -19.3030   19.1730  -21.2740 C   0  0  0  0  0  0  0  0  0  0  0  0
  -19.7950   18.2350  -20.4300 O   0  0  0  0  0  0  0  0  0  0  0  0
  -19.8620   19.3270  -22.5430 C   0  0  0  0  0  0  0  0  0  0  0  0
  -19.3240   20.2810  -23.3900 C   0  0  0  0  0  0  0  0  0  0  0  0
  -18.2770   21.0700  -22.9690 C   0  0  0  0  0  0  0  0  0  0  0  0
  -17.7820   20.8710  -21.6940 C   0  0  0  0  0  0  0  0  0  0  0  0
  1  2  2  0
  1  7  1  0
  2  3  1  0
  2  4  1  0
  4  5  2  0
  5  6  1  0
  6  7  2  0
A    1
 N  
A    2
 C  
A    3
 O  
A    4
 C1 
A    5
 C2 
A    6
 C3 
A    7
 C4 
M  END
>  <XChem_code>  (2) 
D68EV3CPROA-x1498

>  <Occupancy>  (2) 
[0.88, 0.88, 0.88, 0.88, 0.88, 0.88, 0.88]

>  <TempFactor>  (2) 
[53.3, 52.52, 51.54, 47.0, 49.42, 50.99, 52.44]

>  <RealCrystalName>  (2) 
D68EV3CPROA-x1498

>  <smiles>  (2) 
OC=1C=CC=CN1

>  <new_smiles>  (2) 
OC=1C=CC=CN1

>  <alternate_name>  (2) 
Z1741982125

>  <site_name>  (2) 
1

>  <pdb_entry>  (2) 
nan

>  <mol>  (2) 
<rdkit.Chem.rdchem.Mol object at 0x13a26d1c0>

>  <single_smiles>  (2) 
Oc1ccccn1

>  <base_name>  (2) 
D68EV3CPROA-x1498_0A

>  <lig_resn>  (2) 
LIG

>  <lig_resi>  (2) 
201

>  <lig_chain>  (2) 
B

>  <lig_segi>  (2) 


>  <lig_alt>  (2) 


>  <polymer_chain>  (2) 
B

$$$$
x0771L1AP1
     RDKit          3D

 12 13  0  0  0  0  0  0  0  0999 V2000
   -5.6790   11.9310  -29.3990 N   0  0  0  0  0  0  0  0  0  0  0  0
   -6.3840   10.8960  -29.8420 C   0  0  0  0  0  0  0  0  0  0  0  0
   -6.9430   10.0880  -29.0820 O   0  0  0  0  0  0  0  0  0  0  0  0
   -6.5020   10.7170  -31.3270 C   0  0  0  0  0  0  0  0  0  0  0  0
   -6.7520   10.0160  -35.4110 N   0  0  0  0  0  0  0  0  0  0  0  0
   -6.5570   11.8360  -32.1720 C   0  0  0  0  0  0  0  0  0  0  0  0
   -6.6430   11.6880  -33.5490 C   0  0  0  0  0  0  0  0  0  0  0  0
   -6.6470   10.3990  -34.0790 C   0  0  0  0  0  0  0  0  0  0  0  0
   -6.3200    8.6230  -35.5550 C   0  0  0  0  0  0  0  0  0  0  0  0
   -6.4470    8.0560  -34.1300 C   0  0  0  0  0  0  0  0  0  0  0  0
   -6.5640    9.2800  -33.2630 C   0  0  0  0  0  0  0  0  0  0  0  0
   -6.5210    9.4400  -31.8850 C   0  0  0  0  0  0  0  0  0  0  0  0
  1  2  1  0
  2  3  2  0
  2  4  1  0
  4  6  2  0
  4 12  1  0
  5  8  1  0
  5  9  1  0
  6  7  1  0
  7  8  2  0
  8 11  1  0
  9 10  1  0
 10 11  1  0
 11 12  2  0
A    1
 N  
A    2
 C  
A    3
 O  
A    4
 C1 
A    5
 N1 
A    6
 C2 
A    7
 C3 
A    8
 C4 
A    9
 C5 
A   10
 C6 
A   11
 C7 
A   12
 C8 
M  END
>  <XChem_code>  (3) 
D68EV3CPROA-x0771

>  <Occupancy>  (3) 
[0.64, 0.64, 0.64, 0.64, 0.64, 0.64, 0.64, 0.64, 0.64, 0.64, 0.64, 0.64]

>  <TempFactor>  (3) 
[49.02, 50.98, 46.17, 54.1, 60.3, 56.33, 58.38, 60.28, 61.4, 60.15, 59.84, 57.61]

>  <RealCrystalName>  (3) 
D68EV3CPROA-x0771

>  <smiles>  (3) 
Cl.NC(=O)c1ccc2NCCc2c1

>  <new_smiles>  (3) 
Cl.NC(=O)c1ccc2NCCc2c1

>  <alternate_name>  (3) 
Z1696091761

>  <site_name>  (3) 
3

>  <pdb_entry>  (3) 
nan

>  <mol>  (3) 
<rdkit.Chem.rdchem.Mol object at 0x13a1a3680>

>  <single_smiles>  (3) 
NC(=O)c1ccc2c(c1)CCN2

>  <base_name>  (3) 
D68EV3CPROA-x0771_1A

>  <lig_resn>  (3) 
LIG

>  <lig_resi>  (3) 
301

>  <lig_chain>  (3) 
A

>  <lig_segi>  (3) 


>  <lig_alt>  (3) 


>  <polymer_chain>  (3) 
A

$$$$
x0980L0BP1
     RDKit          3D

 17 18  0  0  0  0  0  0  0  0999 V2000
   -4.3660   13.8820  -31.0770 N   0  0  0  0  0  0  0  0  0  0  0  0
   -2.8990   13.8130  -33.5730 C   0  0  0  0  0  0  0  0  0  0  0  0
   -2.8790   12.5190  -30.0510 O   0  0  0  0  0  0  0  0  0  0  0  0
   -2.7490   14.9250  -32.5660 C   0  0  0  0  0  0  0  0  0  0  0  0
   -7.1710    9.9370  -29.6620 N   0  0  0  0  0  0  0  0  0  0  0  0
   -1.8480   15.9640  -32.7910 C   0  0  0  0  0  0  0  0  0  0  0  0
   -1.6300   16.9590  -31.8560 C   0  0  0  0  0  0  0  0  0  0  0  0
   -2.3440   16.9140  -30.6860 C   0  0  0  0  0  0  0  0  0  0  0  0
   -3.2680   15.9380  -30.4090 C   0  0  0  0  0  0  0  0  0  0  0  0
   -3.4680   14.9320  -31.3550 C   0  0  0  0  0  0  0  0  0  0  0  0
   -4.0230   12.7490  -30.4300 C   0  0  0  0  0  0  0  0  0  0  0  0
   -5.1320   11.7810  -30.1740 C   0  0  0  0  0  0  0  0  0  0  0  0
   -5.8670   11.2200  -31.2140 C   0  0  0  0  0  0  0  0  0  0  0  0
   -6.8630   10.3130  -30.9100 C   0  0  0  0  0  0  0  0  0  0  0  0
   -6.4560   10.4850  -28.6720 C   0  0  0  0  0  0  0  0  0  0  0  0
   -5.4400   11.4000  -28.8740 C   0  0  0  0  0  0  0  0  0  0  0  0
   -2.1100   17.8670  -29.7410 F   0  0  0  0  0  0  0  0  0  0  0  0
  1 10  1  0
  1 11  1  0
  2  4  1  0
  3 11  2  0
  4  6  2  0
  4 10  1  0
  5 14  2  0
  5 15  1  0
  6  7  1  0
  7  8  2  0
  8  9  1  0
  8 17  1  0
  9 10  2  0
 11 12  1  0
 12 13  2  0
 12 16  1  0
 13 14  1  0
 15 16  2  0
A    1
 N  
A    2
 C  
A    3
 O  
A    4
 C1 
A    5
 N1 
A    6
 C2 
A    7
 C3 
A    8
 C4 
A    9
 C5 
A   10
 C6 
A   11
 C7 
A   12
 C8 
A   13
 C9 
A   14
 C10
A   15
 C11
A   16
 C12
A   17
 F  
M  END
>  <XChem_code>  (4) 
D68EV3CPROA-x0980

>  <Occupancy>  (4) 
[0.62, 0.62, 0.62, 0.62, 0.62, 0.62, 0.62, 0.62, 0.62, 0.62, 0.62, 0.62, 0.62, 0.62, 0.62, 0.62, 0.62]

>  <TempFactor>  (4) 
[63.79, 74.68, 53.61, 73.53, 45.77, 75.37, 78.48, 80.64, 76.38, 71.86, 57.46, 53.08, 49.42, 49.52, 51.16, 51.21, 87.9]

>  <RealCrystalName>  (4) 
D68EV3CPROA-x0980

>  <smiles>  (4) 
Cc1ccc(F)cc1NC(=O)c2ccncc2

>  <new_smiles>  (4) 
Cc1ccc(F)cc1NC(=O)c2ccncc2

>  <alternate_name>  (4) 
Z30904160

>  <site_name>  (4) 
1

>  <pdb_entry>  (4) 
nan

>  <mol>  (4) 
<rdkit.Chem.rdchem.Mol object at 0x13a1a3d10>

>  <single_smiles>  (4) 
Cc1ccc(F)cc1NC(=O)c1ccncc1

>  <base_name>  (4) 
D68EV3CPROA-x0980_0B

>  <lig_resn>  (4) 
LIG

>  <lig_resi>  (4) 
201

>  <lig_chain>  (4) 
B

>  <lig_segi>  (4) 


>  <lig_alt>  (4) 


>  <polymer_chain>  (4) 
B

$$$$
x0147L0AP1
     RDKit          3D

  9 10  0  0  0  0  0  0  0  0999 V2000
   -7.2300    9.6790  -30.3200 N   0  0  0  0  0  0  0  0  0  0  0  0
   -6.6340   10.0970  -31.4020 C   0  0  0  0  0  0  0  0  0  0  0  0
   -5.8950   11.3220  -29.7400 C   0  0  0  0  0  0  0  0  0  0  0  0
   -6.7690   10.4490  -29.2520 N   0  0  0  0  0  0  0  0  0  0  0  0
   -5.0960   12.3520  -29.1780 C   0  0  0  0  0  0  0  0  0  0  0  0
   -4.2700   13.0910  -29.8760 N   0  0  0  0  0  0  0  0  0  0  0  0
   -4.1850   12.8380  -31.2230 C   0  0  0  0  0  0  0  0  0  0  0  0
   -5.7810   11.1200  -31.1120 N   0  0  0  0  0  0  0  0  0  0  0  0
   -4.9040   11.8930  -31.8620 C   0  0  0  0  0  0  0  0  0  0  0  0
  1  2  2  0
  1  4  1  0
  2  8  1  0
  3  4  2  0
  3  5  1  0
  3  8  1  0
  5  6  2  0
  6  7  1  0
  7  9  2  0
  8  9  1  0
A    1
 N  
A    2
 C  
A    3
 C1 
A    4
 N1 
A    5
 C2 
A    6
 N2 
A    7
 C3 
A    8
 N3 
A    9
 C4 
M  END
>  <XChem_code>  (5) 
D68EV3CPROA-x0147

>  <Occupancy>  (5) 
[0.66, 0.66, 0.66, 0.66, 0.66, 0.66, 0.66, 0.66, 0.66]

>  <TempFactor>  (5) 
[40.37, 43.04, 42.99, 41.58, 44.34, 44.94, 44.77, 45.02, 45.86]

>  <RealCrystalName>  (5) 
D68EV3CPROA-x0147

>  <smiles>  (5) 
c1nnc2cnccn12

>  <new_smiles>  (5) 
c1nnc2cnccn12

>  <alternate_name>  (5) 
Z1182328459

>  <site_name>  (5) 
1

>  <pdb_entry>  (5) 
nan

>  <mol>  (5) 
<rdkit.Chem.rdchem.Mol object at 0x13a1a2d50>

>  <single_smiles>  (5) 
c1cn2cnnc2cn1

>  <base_name>  (5) 
D68EV3CPROA-x0147_0A

>  <lig_resn>  (5) 
LIG

>  <lig_resi>  (5) 
201

>  <lig_chain>  (5) 
A

>  <lig_segi>  (5) 


>  <lig_alt>  (5) 


>  <polymer_chain>  (5) 
A

$$$$
x1285L0BP1
     RDKit          3D

 13 14  0  0  0  0  0  0  0  0999 V2000
  -10.6520   19.6760  -30.1380 N   0  0  0  0  0  0  0  0  0  0  0  0
   -9.9820   17.1800  -31.2410 C   0  0  0  0  0  0  0  0  0  0  0  0
  -10.9250   16.5330  -30.3940 O   0  0  0  0  0  0  0  0  0  0  0  0
  -10.6930   18.1730  -32.1210 C   0  0  0  0  0  0  0  0  0  0  0  0
  -11.4430   19.1980  -31.2830 C   0  0  0  0  0  0  0  0  0  0  0  0
  -10.8780   21.1100  -29.9290 C   0  0  0  0  0  0  0  0  0  0  0  0
  -11.3020   21.5050  -28.5370 C   0  0  0  0  0  0  0  0  0  0  0  0
  -11.2000   22.8270  -27.9980 C   0  0  0  0  0  0  0  0  0  0  0  0
  -11.6850   22.9370  -26.7200 C   0  0  0  0  0  0  0  0  0  0  0  0
  -11.8630   20.6350  -27.6410 C   0  0  0  0  0  0  0  0  0  0  0  0
   -9.2200   19.3860  -30.3540 C   0  0  0  0  0  0  0  0  0  0  0  0
   -8.9480   17.8850  -30.4010 C   0  0  0  0  0  0  0  0  0  0  0  0
  -12.2700   21.3910  -26.1670 S   0  0  0  0  0  0  0  0  0  0  0  0
  1  5  1  0
  1  6  1  0
  1 11  1  0
  2  3  1  0
  2  4  1  0
  2 12  1  0
  4  5  1  0
  6  7  1  0
  7  8  1  0
  7 10  2  0
  8  9  2  0
  9 13  1  0
 10 13  1  0
 11 12  1  0
A    1
 N  
A    2
 C  
A    3
 O  
A    4
 C1 
A    5
 C2 
A    6
 C3 
A    7
 C4 
A    8
 C5 
A    9
 C6 
A   10
 C7 
A   11
 C8 
A   12
 C9 
A   13
 S  
M  END
>  <XChem_code>  (6) 
D68EV3CPROA-x1285

>  <Occupancy>  (6) 
[0.98, 0.98, 0.98, 0.98, 0.98, 0.98, 0.98, 0.98, 0.98, 0.98, 0.98, 0.98, 0.98]

>  <TempFactor>  (6) 
[62.92, 53.85, 55.84, 55.42, 59.07, 67.89, 75.42, 75.35, 79.39, 78.53, 58.69, 54.38, 86.51]

>  <RealCrystalName>  (6) 
D68EV3CPROA-x1285

>  <smiles>  (6) 
OC1CCN(Cc2ccsc2)CC1

>  <new_smiles>  (6) 
OC1CCN(Cc2ccsc2)CC1

>  <alternate_name>  (6) 
Z905434478

>  <site_name>  (6) 
5

>  <pdb_entry>  (6) 
nan

>  <mol>  (6) 
<rdkit.Chem.rdchem.Mol object at 0x13a26c970>

>  <single_smiles>  (6) 
OC1CCN(Cc2ccsc2)CC1

>  <base_name>  (6) 
D68EV3CPROA-x1285_0B

>  <lig_resn>  (6) 
LIG

>  <lig_resi>  (6) 
301

>  <lig_chain>  (6) 
B

>  <lig_segi>  (6) 


>  <lig_alt>  (6) 


>  <polymer_chain>  (6) 
B

$$$$
x1498L1BP1
     RDKit          3D

  7  7  0  0  0  0  0  0  0  0999 V2000
   -5.6770   11.4110  -29.8030 N   0  0  0  0  0  0  0  0  0  0  0  0
   -6.5030   10.3810  -30.1480 C   0  0  0  0  0  0  0  0  0  0  0  0
   -7.1170    9.7570  -29.1810 O   0  0  0  0  0  0  0  0  0  0  0  0
   -6.7630   10.0140  -31.4690 C   0  0  0  0  0  0  0  0  0  0  0  0
   -6.1620   10.7610  -32.4710 C   0  0  0  0  0  0  0  0  0  0  0  0
   -5.3280   11.8160  -32.1480 C   0  0  0  0  0  0  0  0  0  0  0  0
   -5.1140   12.0970  -30.8080 C   0  0  0  0  0  0  0  0  0  0  0  0
  1  2  2  0
  1  7  1  0
  2  3  1  0
  2  4  1  0
  4  5  2  0
  5  6  1  0
  6  7  2  0
A    1
 N  
A    2
 C  
A    3
 O  
A    4
 C1 
A    5
 C2 
A    6
 C3 
A    7
 C4 
M  END
>  <XChem_code>  (7) 
D68EV3CPROA-x1498

>  <Occupancy>  (7) 
[0.88, 0.88, 0.88, 0.88, 0.88, 0.88, 0.88]

>  <TempFactor>  (7) 
[42.68, 37.56, 35.8, 40.47, 43.12, 43.66, 44.2]

>  <RealCrystalName>  (7) 
D68EV3CPROA-x1498

>  <smiles>  (7) 
OC=1C=CC=CN1

>  <new_smiles>  (7) 
OC=1C=CC=CN1

>  <alternate_name>  (7) 
Z1741982125

>  <site_name>  (7) 
5

>  <pdb_entry>  (7) 
nan

>  <mol>  (7) 
<rdkit.Chem.rdchem.Mol object at 0x13a26d2a0>

>  <single_smiles>  (7) 
Oc1ccccn1

>  <base_name>  (7) 
D68EV3CPROA-x1498_1B

>  <lig_resn>  (7) 
LIG

>  <lig_resi>  (7) 
201

>  <lig_chain>  (7) 
A

>  <lig_segi>  (7) 


>  <lig_alt>  (7) 


>  <polymer_chain>  (7) 
A

$$$$
x1498L1BP2
     RDKit          3D

  7  7  0  0  0  0  0  0  0  0999 V2000
  -18.2570   19.9470  -20.8410 N   0  0  0  0  0  0  0  0  0  0  0  0
  -19.3030   19.1750  -21.2760 C   0  0  0  0  0  0  0  0  0  0  0  0
  -19.7950   18.2360  -20.4320 O   0  0  0  0  0  0  0  0  0  0  0  0
  -19.8620   19.3290  -22.5450 C   0  0  0  0  0  0  0  0  0  0  0  0
  -19.3230   20.2830  -23.3930 C   0  0  0  0  0  0  0  0  0  0  0  0
  -18.2760   21.0720  -22.9710 C   0  0  0  0  0  0  0  0  0  0  0  0
  -17.7810   20.8730  -21.6970 C   0  0  0  0  0  0  0  0  0  0  0  0
  1  2  2  0
  1  7  1  0
  2  3  1  0
  2  4  1  0
  4  5  2  0
  5  6  1  0
  6  7  2  0
A    1
 N  
A    2
 C  
A    3
 O  
A    4
 C1 
A    5
 C2 
A    6
 C3 
A    7
 C4 
M  END
>  <XChem_code>  (8) 
D68EV3CPROA-x1498

>  <Occupancy>  (8) 
[0.88, 0.88, 0.88, 0.88, 0.88, 0.88, 0.88]

>  <TempFactor>  (8) 
[53.3, 52.52, 51.54, 47.0, 49.42, 50.99, 52.44]

>  <RealCrystalName>  (8) 
D68EV3CPROA-x1498

>  <smiles>  (8) 
OC=1C=CC=CN1

>  <new_smiles>  (8) 
OC=1C=CC=CN1

>  <alternate_name>  (8) 
Z1741982125

>  <site_name>  (8) 
5

>  <pdb_entry>  (8) 
nan

>  <mol>  (8) 
<rdkit.Chem.rdchem.Mol object at 0x13a26d2a0>

>  <single_smiles>  (8) 
Oc1ccccn1

>  <base_name>  (8) 
D68EV3CPROA-x1498_1B

>  <lig_resn>  (8) 
LIG

>  <lig_resi>  (8) 
201

>  <lig_chain>  (8) 
B

>  <lig_segi>  (8) 


>  <lig_alt>  (8) 


>  <polymer_chain>  (8) 
B

$$$$
x1594L0AP1
     RDKit          3D

 10 11  0  0  0  0  0  0  0  0999 V2000
   -6.8740    9.8340  -32.5350 N   0  0  0  0  0  0  0  0  0  0  0  0
   -6.6660   10.2800  -31.2910 C   0  0  0  0  0  0  0  0  0  0  0  0
   -5.8820   11.4760  -29.6270 C   0  0  0  0  0  0  0  0  0  0  0  0
   -7.1990    9.8070  -30.1740 N   0  0  0  0  0  0  0  0  0  0  0  0
   -5.0830   12.4690  -29.0140 C   0  0  0  0  0  0  0  0  0  0  0  0
   -6.7030   10.5680  -29.1130 N   0  0  0  0  0  0  0  0  0  0  0  0
   -4.2680   13.2420  -29.7830 C   0  0  0  0  0  0  0  0  0  0  0  0
   -5.8120   11.3450  -31.0120 N   0  0  0  0  0  0  0  0  0  0  0  0
   -4.2110   13.0710  -31.1840 C   0  0  0  0  0  0  0  0  0  0  0  0
   -4.9820   12.1370  -31.7840 C   0  0  0  0  0  0  0  0  0  0  0  0
  1  2  1  0
  2  4  2  0
  2  8  1  0
  3  5  1  0
  3  6  2  0
  3  8  1  0
  4  6  1  0
  5  7  2  0
  7  9  1  0
  8 10  1  0
  9 10  2  0
A    1
 N  
A    2
 C  
A    3
 C1 
A    4
 N1 
A    5
 C2 
A    6
 N2 
A    7
 C3 
A    8
 N3 
A    9
 C4 
A   10
 C5 
M  END
>  <XChem_code>  (9) 
D68EV3CPROA-x1594

>  <Occupancy>  (9) 
[0.66, 0.66, 0.66, 0.66, 0.66, 0.66, 0.66, 0.66, 0.66, 0.66]

>  <TempFactor>  (9) 
[32.44, 31.86, 32.44, 29.37, 32.27, 30.89, 34.56, 32.15, 34.73, 34.07]

>  <RealCrystalName>  (9) 
D68EV3CPROA-x1594

>  <smiles>  (9) 
NC1=NN=C2C=CC=CN12

>  <new_smiles>  (9) 
NC1=NN=C2C=CC=CN12

>  <alternate_name>  (9) 
Z362020366

>  <site_name>  (9) 
1

>  <pdb_entry>  (9) 
nan

>  <mol>  (9) 
<rdkit.Chem.rdchem.Mol object at 0x13a26d930>

>  <single_smiles>  (9) 
Nc1nnc2ccccn12

>  <base_name>  (9) 
D68EV3CPROA-x1594_0A

>  <lig_resn>  (9) 
LIG

>  <lig_resi>  (9) 
201

>  <lig_chain>  (9) 
A

>  <lig_segi>  (9) 


>  <lig_alt>  (9) 


>  <polymer_chain>  (9) 
A

$$$$
x1537L0AP1
     RDKit          3D

  6  6  0  0  0  0  0  0  0  0999 V2000
   -6.1610   11.4540  -31.1560 N   0  0  0  0  0  0  0  0  0  0  0  0
   -5.0770   12.6190  -29.2410 C   0  0  0  0  0  0  0  0  0  0  0  0
   -6.0060   11.6350  -29.8650 C   0  0  0  0  0  0  0  0  0  0  0  0
   -7.0430   10.4260  -31.2910 N   0  0  0  0  0  0  0  0  0  0  0  0
   -7.4280    9.9910  -30.1340 N   0  0  0  0  0  0  0  0  0  0  0  0
   -6.7910   10.7450  -29.2200 N   0  0  0  0  0  0  0  0  0  0  0  0
  1  3  2  0
  1  4  1  0
  2  3  1  0
  3  6  1  0
  4  5  2  0
  5  6  1  0
A    1
 N  
A    2
 C  
A    3
 C1 
A    4
 N1 
A    5
 N2 
A    6
 N3 
M  END
>  <XChem_code>  (10) 
D68EV3CPROA-x1537

>  <Occupancy>  (10) 
[0.67, 0.67, 0.67, 0.67, 0.67, 0.67]

>  <TempFactor>  (10) 
[19.84, 19.74, 18.86, 19.5, 17.53, 18.3]

>  <RealCrystalName>  (10) 
D68EV3CPROA-x1537

>  <smiles>  (10) 
CC1=NN=NN1

>  <new_smiles>  (10) 
CC1=NN=NN1

>  <alternate_name>  (10) 
Z56761437

>  <site_name>  (10) 
1

>  <pdb_entry>  (10) 
nan

>  <mol>  (10) 
<rdkit.Chem.rdchem.Mol object at 0x13a26d3f0>

>  <single_smiles>  (10) 
Cc1nnn[nH]1

>  <base_name>  (10) 
D68EV3CPROA-x1537_0A

>  <lig_resn>  (10) 
LIG

>  <lig_resi>  (10) 
201

>  <lig_chain>  (10) 
A

>  <lig_segi>  (10) 


>  <lig_alt>  (10) 


>  <polymer_chain>  (10) 
A

$$$$
x1604L0AP1
     RDKit          3D

 15 16  0  0  0  0  0  0  0  0999 V2000
   -2.2250   15.0480  -29.0690 C   0  0  0  0  0  0  0  0  0  0  0  0
   -2.5240   13.6820  -31.0050 O   0  0  0  0  0  0  0  0  0  0  0  0
   -3.2430   14.3520  -29.9410 C   0  0  0  0  0  0  0  0  0  0  0  0
   -2.7250   12.4690  -32.8290 O   0  0  0  0  0  0  0  0  0  0  0  0
   -4.2730   15.2990  -30.5210 C   0  0  0  0  0  0  0  0  0  0  0  0
   -7.3450   10.1200  -29.0680 O   0  0  0  0  0  0  0  0  0  0  0  0
   -3.1620   12.7220  -31.7330 C   0  0  0  0  0  0  0  0  0  0  0  0
   -3.9100   13.3750  -29.1090 O   0  0  0  0  0  0  0  0  0  0  0  0
   -4.3010   12.0730  -31.0890 C   0  0  0  0  0  0  0  0  0  0  0  0
   -5.0350   11.0750  -31.7270 C   0  0  0  0  0  0  0  0  0  0  0  0
   -6.0580   10.4410  -31.0390 C   0  0  0  0  0  0  0  0  0  0  0  0
   -6.3750   10.7900  -29.7310 C   0  0  0  0  0  0  0  0  0  0  0  0
   -5.6600   11.8040  -29.1130 C   0  0  0  0  0  0  0  0  0  0  0  0
   -4.6330   12.4240  -29.7900 C   0  0  0  0  0  0  0  0  0  0  0  0
   -7.0310    9.0590  -31.8950 Br  0  0  0  0  0  0  0  0  0  0  0  0
  3  1  1  0
  2  3  1  0
  2  7  1  0
  3  5  1  0
  3  8  1  0
  4  7  2  0
  6 12  1  0
  7  9  1  0
  8 14  1  0
  9 10  2  0
  9 14  1  0
 10 11  1  0
 11 12  2  0
 11 15  1  0
 12 13  1  0
 13 14  2  0
A    1
 C  
A    2
 O  
A    3
 C1 
A    4
 O1 
A    5
 C2 
A    6
 O2 
A    7
 C3 
A    8
 O3 
A    9
 C4 
A   10
 C5 
A   11
 C6 
A   12
 C7 
A   13
 C8 
A   14
 C9 
A   15
BR  
M  END
>  <XChem_code>  (11) 
D68EV3CPROA-x1604

>  <Occupancy>  (11) 
[0.7, 0.7, 0.7, 0.7, 0.7, 0.7, 0.7, 0.7, 0.7, 0.7, 0.7, 0.7, 0.7, 0.7, 0.7]

>  <TempFactor>  (11) 
[72.3, 77.66, 74.79, 71.79, 72.05, 62.52, 75.7, 75.21, 75.25, 76.05, 72.74, 67.77, 70.53, 72.83, 84.1]

>  <RealCrystalName>  (11) 
D68EV3CPROA-x1604

>  <smiles>  (11) 
CC1(C)OC(=O)C=2C=C(Br)C(O)=CC2O1

>  <new_smiles>  (11) 
CC1(C)OC(=O)C=2C=C(Br)C(O)=CC2O1

>  <alternate_name>  (11) 
Z1509711879

>  <site_name>  (11) 
1

>  <pdb_entry>  (11) 
nan

>  <mol>  (11) 
<rdkit.Chem.rdchem.Mol object at 0x13a26da10>

>  <single_smiles>  (11) 
CC1(C)OC(=O)c2cc(Br)c(O)cc2O1

>  <base_name>  (11) 
D68EV3CPROA-x1604_0A

>  <lig_resn>  (11) 
LIG

>  <lig_resi>  (11) 
201

>  <lig_chain>  (11) 
A

>  <lig_segi>  (11) 


>  <lig_alt>  (11) 


>  <polymer_chain>  (11) 
A

$$$$
x1498L0BP1
     RDKit          3D

  7  7  0  0  0  0  0  0  0  0999 V2000
   -5.6770   11.4110  -29.8030 N   0  0  0  0  0  0  0  0  0  0  0  0
   -6.5030   10.3810  -30.1480 C   0  0  0  0  0  0  0  0  0  0  0  0
   -7.1170    9.7570  -29.1810 O   0  0  0  0  0  0  0  0  0  0  0  0
   -6.7630   10.0140  -31.4690 C   0  0  0  0  0  0  0  0  0  0  0  0
   -6.1620   10.7610  -32.4710 C   0  0  0  0  0  0  0  0  0  0  0  0
   -5.3280   11.8160  -32.1480 C   0  0  0  0  0  0  0  0  0  0  0  0
   -5.1140   12.0970  -30.8080 C   0  0  0  0  0  0  0  0  0  0  0  0
  1  2  2  0
  1  7  1  0
  2  3  1  0
  2  4  1  0
  4  5  2  0
  5  6  1  0
  6  7  2  0
A    1
 N  
A    2
 C  
A    3
 O  
A    4
 C1 
A    5
 C2 
A    6
 C3 
A    7
 C4 
M  END
>  <XChem_code>  (12) 
D68EV3CPROA-x1498

>  <Occupancy>  (12) 
[0.88, 0.88, 0.88, 0.88, 0.88, 0.88, 0.88]

>  <TempFactor>  (12) 
[42.68, 37.56, 35.8, 40.47, 43.12, 43.66, 44.2]

>  <RealCrystalName>  (12) 
D68EV3CPROA-x1498

>  <smiles>  (12) 
OC=1C=CC=CN1

>  <new_smiles>  (12) 
OC=1C=CC=CN1

>  <alternate_name>  (12) 
Z1741982125

>  <site_name>  (12) 
5

>  <pdb_entry>  (12) 
nan

>  <mol>  (12) 
<rdkit.Chem.rdchem.Mol object at 0x13a26d230>

>  <single_smiles>  (12) 
Oc1ccccn1

>  <base_name>  (12) 
D68EV3CPROA-x1498_0B

>  <lig_resn>  (12) 
LIG

>  <lig_resi>  (12) 
201

>  <lig_chain>  (12) 
A

>  <lig_segi>  (12) 


>  <lig_alt>  (12) 


>  <polymer_chain>  (12) 
A

$$$$
x1498L0BP2
     RDKit          3D

  7  7  0  0  0  0  0  0  0  0999 V2000
  -18.2570   19.9470  -20.8410 N   0  0  0  0  0  0  0  0  0  0  0  0
  -19.3030   19.1750  -21.2760 C   0  0  0  0  0  0  0  0  0  0  0  0
  -19.7950   18.2360  -20.4320 O   0  0  0  0  0  0  0  0  0  0  0  0
  -19.8620   19.3290  -22.5450 C   0  0  0  0  0  0  0  0  0  0  0  0
  -19.3230   20.2830  -23.3930 C   0  0  0  0  0  0  0  0  0  0  0  0
  -18.2760   21.0720  -22.9710 C   0  0  0  0  0  0  0  0  0  0  0  0
  -17.7810   20.8730  -21.6970 C   0  0  0  0  0  0  0  0  0  0  0  0
  1  2  2  0
  1  7  1  0
  2  3  1  0
  2  4  1  0
  4  5  2  0
  5  6  1  0
  6  7  2  0
A    1
 N  
A    2
 C  
A    3
 O  
A    4
 C1 
A    5
 C2 
A    6
 C3 
A    7
 C4 
M  END
>  <XChem_code>  (13) 
D68EV3CPROA-x1498

>  <Occupancy>  (13) 
[0.88, 0.88, 0.88, 0.88, 0.88, 0.88, 0.88]

>  <TempFactor>  (13) 
[53.3, 52.52, 51.54, 47.0, 49.42, 50.99, 52.44]

>  <RealCrystalName>  (13) 
D68EV3CPROA-x1498

>  <smiles>  (13) 
OC=1C=CC=CN1

>  <new_smiles>  (13) 
OC=1C=CC=CN1

>  <alternate_name>  (13) 
Z1741982125

>  <site_name>  (13) 
5

>  <pdb_entry>  (13) 
nan

>  <mol>  (13) 
<rdkit.Chem.rdchem.Mol object at 0x13a26d230>

>  <single_smiles>  (13) 
Oc1ccccn1

>  <base_name>  (13) 
D68EV3CPROA-x1498_0B

>  <lig_resn>  (13) 
LIG

>  <lig_resi>  (13) 
201

>  <lig_chain>  (13) 
B

>  <lig_segi>  (13) 


>  <lig_alt>  (13) 


>  <polymer_chain>  (13) 
B

$$$$
x0789L0AP1
     RDKit          3D

 14 15  0  0  0  0  0  0  0  0999 V2000
   -5.0840   12.5720  -31.8370 N   0  0  0  0  0  0  0  0  0  0  0  0
   -2.2140   12.6440  -32.8890 C   0  0  0  0  0  0  0  0  0  0  0  0
   -3.2670   15.7120  -32.3610 O   0  0  0  0  0  0  0  0  0  0  0  0
   -3.0400   13.7050  -33.6190 C   0  0  2  0  0  0  0  0  0  0  0  0
   -6.3400   10.6340  -29.0490 N   0  0  0  0  0  0  0  0  0  0  0  0
   -4.5700   14.3130  -30.4410 O   0  0  0  0  0  0  0  0  0  0  0  0
   -2.1950   14.7940  -34.2650 C   0  0  0  0  0  0  0  0  0  0  0  0
   -6.8740    9.8470  -29.9140 N   0  0  0  0  0  0  0  0  0  0  0  0
   -2.0740   15.8090  -33.1560 C   0  0  0  0  0  0  0  0  0  0  0  0
   -4.0140   14.5500  -32.7700 C   0  0  1  0  0  0  0  0  0  0  0  0
   -4.5740   13.8060  -31.5620 C   0  0  0  0  0  0  0  0  0  0  0  0
   -5.6560   11.7000  -30.9130 C   0  0  0  0  0  0  0  0  0  0  0  0
   -5.6500   11.6820  -29.5590 C   0  0  0  0  0  0  0  0  0  0  0  0
   -6.5580   10.3550  -31.4830 S   0  0  0  0  0  0  0  0  0  0  0  0
  1 11  1  0
  1 12  1  0
  4  2  1  1
  3  9  1  0
  3 10  1  0
  4  7  1  0
  4 10  1  0
  5  8  2  0
  5 13  1  0
  6 11  2  0
  7  9  1  0
  8 14  1  0
 10 11  1  1
 12 13  2  0
 12 14  1  0
A    1
 N  
A    2
 C  
A    3
 O  
A    4
 C1 
A    5
 N1 
A    6
 O1 
A    7
 C2 
A    8
 N2 
A    9
 C3 
A   10
 C4 
A   11
 C5 
A   12
 C6 
A   13
 C7 
A   14
 S  
M  END
>  <XChem_code>  (14) 
D68EV3CPROA-x0789

>  <Occupancy>  (14) 
[0.7, 0.7, 0.7, 0.7, 0.7, 0.7, 0.7, 0.7, 0.7, 0.7, 0.7, 0.7, 0.7, 0.7]

>  <TempFactor>  (14) 
[56.59, 66.21, 67.77, 68.43, 44.39, 60.91, 69.25, 42.57, 69.8, 66.66, 61.67, 48.87, 42.82, 49.48]

>  <RealCrystalName>  (14) 
D68EV3CPROA-x0789

>  <smiles>  (14) 
CC1CCOC1C(=O)Nc2cnns2

>  <new_smiles>  (14) 
CC1CCOC1C(=O)Nc2cnns2

>  <alternate_name>  (14) 
Z1827602749

>  <site_name>  (14) 
1

>  <pdb_entry>  (14) 
nan

>  <mol>  (14) 
<rdkit.Chem.rdchem.Mol object at 0x13a1a36f0>

>  <single_smiles>  (14) 
CC1CCOC1C(=O)Nc1cnns1

>  <base_name>  (14) 
D68EV3CPROA-x0789_0A

>  <lig_resn>  (14) 
LIG

>  <lig_resi>  (14) 
201

>  <lig_chain>  (14) 
A

>  <lig_segi>  (14) 


>  <lig_alt>  (14) 


>  <polymer_chain>  (14) 
A

$$$$
x1285L1BP1
     RDKit          3D

 13 14  0  0  0  0  0  0  0  0999 V2000
  -10.6520   19.6760  -30.1380 N   0  0  0  0  0  0  0  0  0  0  0  0
   -9.9820   17.1800  -31.2410 C   0  0  0  0  0  0  0  0  0  0  0  0
  -10.9250   16.5330  -30.3940 O   0  0  0  0  0  0  0  0  0  0  0  0
  -10.6930   18.1730  -32.1210 C   0  0  0  0  0  0  0  0  0  0  0  0
  -11.4430   19.1980  -31.2830 C   0  0  0  0  0  0  0  0  0  0  0  0
  -10.8780   21.1100  -29.9290 C   0  0  0  0  0  0  0  0  0  0  0  0
  -11.3020   21.5050  -28.5370 C   0  0  0  0  0  0  0  0  0  0  0  0
  -11.2000   22.8270  -27.9980 C   0  0  0  0  0  0  0  0  0  0  0  0
  -11.6850   22.9370  -26.7200 C   0  0  0  0  0  0  0  0  0  0  0  0
  -11.8630   20.6350  -27.6410 C   0  0  0  0  0  0  0  0  0  0  0  0
   -9.2200   19.3860  -30.3540 C   0  0  0  0  0  0  0  0  0  0  0  0
   -8.9480   17.8850  -30.4010 C   0  0  0  0  0  0  0  0  0  0  0  0
  -12.2700   21.3910  -26.1670 S   0  0  0  0  0  0  0  0  0  0  0  0
  1  5  1  0
  1  6  1  0
  1 11  1  0
  2  3  1  0
  2  4  1  0
  2 12  1  0
  4  5  1  0
  6  7  1  0
  7  8  1  0
  7 10  2  0
  8  9  2  0
  9 13  1  0
 10 13  1  0
 11 12  1  0
A    1
 N  
A    2
 C  
A    3
 O  
A    4
 C1 
A    5
 C2 
A    6
 C3 
A    7
 C4 
A    8
 C5 
A    9
 C6 
A   10
 C7 
A   11
 C8 
A   12
 C9 
A   13
 S  
M  END
>  <XChem_code>  (15) 
D68EV3CPROA-x1285

>  <Occupancy>  (15) 
[0.98, 0.98, 0.98, 0.98, 0.98, 0.98, 0.98, 0.98, 0.98, 0.98, 0.98, 0.98, 0.98]

>  <TempFactor>  (15) 
[62.92, 53.85, 55.84, 55.42, 59.07, 67.89, 75.42, 75.35, 79.39, 78.53, 58.69, 54.38, 86.51]

>  <RealCrystalName>  (15) 
D68EV3CPROA-x1285

>  <smiles>  (15) 
OC1CCN(Cc2ccsc2)CC1

>  <new_smiles>  (15) 
OC1CCN(Cc2ccsc2)CC1

>  <alternate_name>  (15) 
Z905434478

>  <site_name>  (15) 
2

>  <pdb_entry>  (15) 
nan

>  <mol>  (15) 
<rdkit.Chem.rdchem.Mol object at 0x13a26c9e0>

>  <single_smiles>  (15) 
OC1CCN(Cc2ccsc2)CC1

>  <base_name>  (15) 
D68EV3CPROA-x1285_1B

>  <lig_resn>  (15) 
LIG

>  <lig_resi>  (15) 
301

>  <lig_chain>  (15) 
B

>  <lig_segi>  (15) 


>  <lig_alt>  (15) 


>  <polymer_chain>  (15) 
B

$$$$
x1305L0BP1
     RDKit          3D

 13 14  0  0  0  0  0  0  0  0999 V2000
  -13.2820   14.1010  -38.5020 N   0  0  0  0  0  0  0  0  0  0  0  0
  -14.6500   13.0400  -40.8950 C   0  0  0  0  0  0  0  0  0  0  0  0
  -13.3650   16.1330  -39.3370 O   0  0  0  0  0  0  0  0  0  0  0  0
  -14.7440   14.4950  -40.4990 C   0  0  0  0  0  0  0  0  0  0  0  0
  -12.4120   16.1650  -38.2940 N   0  0  0  0  0  0  0  0  0  0  0  0
  -16.1590   14.8330  -40.1060 C   0  0  0  0  0  0  0  0  0  0  0  0
  -10.4200   13.5300  -37.3880 N   0  0  0  0  0  0  0  0  0  0  0  0
  -13.8120   14.8680  -39.3940 C   0  0  0  0  0  0  0  0  0  0  0  0
  -12.4080   14.9380  -37.8620 C   0  0  0  0  0  0  0  0  0  0  0  0
  -11.4670   14.3920  -36.8230 C   0  0  2  0  0  0  0  0  0  0  0  0
  -10.6800   15.4890  -36.0930 C   0  0  0  0  0  0  0  0  0  0  0  0
   -9.4290   15.6740  -36.9460 C   0  0  0  0  0  0  0  0  0  0  0  0
   -9.1590   14.2890  -37.5220 C   0  0  0  0  0  0  0  0  0  0  0  0
  1  8  2  0
  1  9  1  0
  4  2  1  0
  3  5  1  0
  3  8  1  0
  4  6  1  0
  4  8  1  0
  5  9  2  0
  7 10  1  0
  7 13  1  0
 10  9  1  6
 10 11  1  0
 11 12  1  0
 12 13  1  0
A    1
 N  
A    2
 C  
A    3
 O  
A    4
 C1 
A    5
 N1 
A    6
 C2 
A    7
 N2 
A    8
 C3 
A    9
 C4 
A   10
 C5 
A   11
 C6 
A   12
 C7 
A   13
 C8 
M  END
>  <XChem_code>  (16) 
D68EV3CPROA-x1305

>  <Occupancy>  (16) 
[0.4, 0.4, 0.4, 0.4, 0.4, 0.4, 0.4, 0.4, 0.4, 0.4, 0.4, 0.4, 0.4]

>  <TempFactor>  (16) 
[35.95, 35.27, 35.89, 35.43, 37.1, 34.72, 40.22, 36.12, 37.53, 39.88, 41.17, 41.72, 42.18]

>  <RealCrystalName>  (16) 
D68EV3CPROA-x1305

>  <smiles>  (16) 
CC(C)c1nc(no1)C2CCCN2

>  <new_smiles>  (16) 
CC(C)c1nc(no1)C2CCCN2

>  <alternate_name>  (16) 
Z979742720

>  <site_name>  (16) 
1

>  <pdb_entry>  (16) 
nan

>  <mol>  (16) 
<rdkit.Chem.rdchem.Mol object at 0x13a26cac0>

>  <single_smiles>  (16) 
CC(C)c1nc(C2CCCN2)no1

>  <base_name>  (16) 
D68EV3CPROA-x1305_0B

>  <lig_resn>  (16) 
LIG

>  <lig_resi>  (16) 
201

>  <lig_chain>  (16) 
B

>  <lig_segi>  (16) 


>  <lig_alt>  (16) 


>  <polymer_chain>  (16) 
B

$$$$
x0771L0AP1
     RDKit          3D

 12 13  0  0  0  0  0  0  0  0999 V2000
   -5.6790   11.9310  -29.3990 N   0  0  0  0  0  0  0  0  0  0  0  0
   -6.3840   10.8960  -29.8420 C   0  0  0  0  0  0  0  0  0  0  0  0
   -6.9430   10.0880  -29.0820 O   0  0  0  0  0  0  0  0  0  0  0  0
   -6.5020   10.7170  -31.3270 C   0  0  0  0  0  0  0  0  0  0  0  0
   -6.7520   10.0160  -35.4110 N   0  0  0  0  0  0  0  0  0  0  0  0
   -6.5570   11.8360  -32.1720 C   0  0  0  0  0  0  0  0  0  0  0  0
   -6.6430   11.6880  -33.5490 C   0  0  0  0  0  0  0  0  0  0  0  0
   -6.6470   10.3990  -34.0790 C   0  0  0  0  0  0  0  0  0  0  0  0
   -6.3200    8.6230  -35.5550 C   0  0  0  0  0  0  0  0  0  0  0  0
   -6.4470    8.0560  -34.1300 C   0  0  0  0  0  0  0  0  0  0  0  0
   -6.5640    9.2800  -33.2630 C   0  0  0  0  0  0  0  0  0  0  0  0
   -6.5210    9.4400  -31.8850 C   0  0  0  0  0  0  0  0  0  0  0  0
  1  2  1  0
  2  3  2  0
  2  4  1  0
  4  6  2  0
  4 12  1  0
  5  8  1  0
  5  9  1  0
  6  7  1  0
  7  8  2  0
  8 11  1  0
  9 10  1  0
 10 11  1  0
 11 12  2  0
A    1
 N  
A    2
 C  
A    3
 O  
A    4
 C1 
A    5
 N1 
A    6
 C2 
A    7
 C3 
A    8
 C4 
A    9
 C5 
A   10
 C6 
A   11
 C7 
A   12
 C8 
M  END
>  <XChem_code>  (17) 
D68EV3CPROA-x0771

>  <Occupancy>  (17) 
[0.64, 0.64, 0.64, 0.64, 0.64, 0.64, 0.64, 0.64, 0.64, 0.64, 0.64, 0.64]

>  <TempFactor>  (17) 
[49.02, 50.98, 46.17, 54.1, 60.3, 56.33, 58.38, 60.28, 61.4, 60.15, 59.84, 57.61]

>  <RealCrystalName>  (17) 
D68EV3CPROA-x0771

>  <smiles>  (17) 
Cl.NC(=O)c1ccc2NCCc2c1

>  <new_smiles>  (17) 
Cl.NC(=O)c1ccc2NCCc2c1

>  <alternate_name>  (17) 
Z1696091761

>  <site_name>  (17) 
1

>  <pdb_entry>  (17) 
nan

>  <mol>  (17) 
<rdkit.Chem.rdchem.Mol object at 0x13a1a3610>

>  <single_smiles>  (17) 
NC(=O)c1ccc2c(c1)CCN2

>  <base_name>  (17) 
D68EV3CPROA-x0771_0A

>  <lig_resn>  (17) 
LIG

>  <lig_resi>  (17) 
301

>  <lig_chain>  (17) 
A

>  <lig_segi>  (17) 


>  <lig_alt>  (17) 


>  <polymer_chain>  (17) 
A

$$$$
x1083L0AP1
     RDKit          3D

 11 11  0  0  0  0  0  0  0  0999 V2000
  -11.0190   15.1770  -37.5360 N   0  0  0  0  0  0  0  0  0  0  0  0
   -9.1670   13.2040  -37.2360 C   0  0  0  0  0  0  0  0  0  0  0  0
  -10.1710   14.5990  -35.2970 O   0  0  0  0  0  0  0  0  0  0  0  0
  -10.7570   15.7650  -38.8640 C   0  0  0  0  0  0  0  0  0  0  0  0
   -8.7000   15.7280  -36.9110 O   0  0  0  0  0  0  0  0  0  0  0  0
  -12.0220   16.4240  -39.4010 C   0  0  0  0  0  0  0  0  0  0  0  0
  -14.3580   16.0450  -39.9370 O   0  0  0  0  0  0  0  0  0  0  0  0
  -13.1620   15.4330  -39.4530 C   0  0  0  0  0  0  0  0  0  0  0  0
  -13.3930   14.8470  -38.0810 C   0  0  0  0  0  0  0  0  0  0  0  0
  -12.1210   14.1950  -37.5610 C   0  0  0  0  0  0  0  0  0  0  0  0
   -9.7170   14.7620  -36.6420 S   0  0  0  0  0  0  0  0  0  0  0  0
  1  4  1  0
  1 10  1  0
  1 11  1  0
 11  2  1  0
  3 11  2  0
  4  6  1  0
  5 11  2  0
  6  8  1  0
  8  7  1  0
  8  9  1  0
  9 10  1  0
A    1
 N  
A    2
 C  
A    3
 O  
A    4
 C1 
A    5
 O1 
A    6
 C2 
A    7
 O2 
A    8
 C3 
A    9
 C4 
A   10
 C5 
A   11
 S  
M  END
>  <XChem_code>  (18) 
D68EV3CPROA-x1083

>  <Occupancy>  (18) 
[0.88, 0.88, 0.88, 0.88, 0.88, 0.88, 0.88, 0.88, 0.88, 0.88, 0.88]

>  <TempFactor>  (18) 
[71.89, 65.62, 69.14, 69.53, 73.16, 68.13, 65.29, 67.13, 67.96, 69.22, 68.91]

>  <RealCrystalName>  (18) 
D68EV3CPROA-x1083

>  <smiles>  (18) 
CS(=O)(=O)N1CCC(O)CC1

>  <new_smiles>  (18) 
CS(=O)(=O)N1CCC(O)CC1

>  <alternate_name>  (18) 
Z425757818

>  <site_name>  (18) 
1

>  <pdb_entry>  (18) 
nan

>  <mol>  (18) 
<rdkit.Chem.rdchem.Mol object at 0x13a26c190>

>  <single_smiles>  (18) 
CS(=O)(=O)N1CCC(O)CC1

>  <base_name>  (18) 
D68EV3CPROA-x1083_0A

>  <lig_resn>  (18) 
LIG

>  <lig_resi>  (18) 
201

>  <lig_chain>  (18) 
A

>  <lig_segi>  (18) 


>  <lig_alt>  (18) 


>  <polymer_chain>  (18) 
A

$$$$
x1247L0AP1
     RDKit          3D

 15 16  0  0  0  0  0  0  0  0999 V2000
  -10.5260   15.7430  -40.5350 N   0  0  0  0  0  0  0  0  0  0  0  0
   -6.9170   14.4620  -43.1680 C   0  0  0  0  0  0  0  0  0  0  0  0
  -12.5510   16.8430  -40.6540 O   0  0  0  0  0  0  0  0  0  0  0  0
   -8.2730   15.0850  -43.1210 C   0  0  0  0  0  0  0  0  0  0  0  0
  -11.8400   14.3240  -38.2560 N   0  0  0  0  0  0  0  0  0  0  0  0
   -8.9610   15.4340  -44.2800 C   0  0  0  0  0  0  0  0  0  0  0  0
   -8.7860   15.3070  -41.9030 N   0  0  0  0  0  0  0  0  0  0  0  0
  -10.1980   16.0390  -44.1710 C   0  0  0  0  0  0  0  0  0  0  0  0
  -10.7300   16.2860  -42.9200 C   0  0  0  0  0  0  0  0  0  0  0  0
   -9.9960   15.8680  -41.8180 C   0  0  0  0  0  0  0  0  0  0  0  0
  -11.7080   16.1850  -40.0490 C   0  0  0  0  0  0  0  0  0  0  0  0
  -11.9620   15.7230  -38.6590 C   0  0  1  0  0  0  0  0  0  0  0  0
  -13.0570   16.4330  -37.8990 C   0  0  0  0  0  0  0  0  0  0  0  0
  -13.9300   15.2810  -37.4610 C   0  0  0  0  0  0  0  0  0  0  0  0
  -12.9410   14.1170  -37.2950 C   0  0  0  0  0  0  0  0  0  0  0  0
  1 10  1  0
  1 11  1  0
  2  4  1  0
  3 11  2  0
  4  6  2  0
  4  7  1  0
  5 12  1  0
  5 15  1  0
  6  8  1  0
  7 10  2  0
  8  9  2  0
  9 10  1  0
 12 11  1  6
 12 13  1  0
 13 14  1  0
 14 15  1  0
A    1
 N  
A    2
 C  
A    3
 O  
A    4
 C1 
A    5
 N1 
A    6
 C2 
A    7
 N2 
A    8
 C3 
A    9
 C4 
A   10
 C5 
A   11
 C6 
A   12
 C7 
A   13
 C8 
A   14
 C9 
A   15
 C10
M  END
>  <XChem_code>  (19) 
D68EV3CPROA-x1247

>  <Occupancy>  (19) 
[0.86, 0.86, 0.86, 0.86, 0.86, 0.86, 0.86, 0.86, 0.86, 0.86, 0.86, 0.86, 0.86, 0.86, 0.86]

>  <TempFactor>  (19) 
[17.15, 19.7, 14.92, 19.7, 19.21, 19.17, 18.3, 19.2, 18.34, 17.39, 17.02, 17.11, 16.88, 17.4, 17.37]

>  <RealCrystalName>  (19) 
D68EV3CPROA-x1247

>  <smiles>  (19) 
Cc1cccc(NC(=O)[C@@H]2CCCN2)n1

>  <new_smiles>  (19) 
Cc1cccc(NC(=O)[C@@H]2CCCN2)n1

>  <alternate_name>  (19) 
Z760048004

>  <site_name>  (19) 
1

>  <pdb_entry>  (19) 
nan

>  <mol>  (19) 
<rdkit.Chem.rdchem.Mol object at 0x13a26c740>

>  <single_smiles>  (19) 
Cc1cccc(NC(=O)[C@@H]2CCCN2)n1

>  <base_name>  (19) 
D68EV3CPROA-x1247_0A

>  <lig_resn>  (19) 
LIG

>  <lig_resi>  (19) 
201

>  <lig_chain>  (19) 
A

>  <lig_segi>  (19) 


>  <lig_alt>  (19) 


>  <polymer_chain>  (19) 
A

$$$$
AG7P1
     RDKit          3D

 44 46  0  0  0  0  0  0  0  0999 V2000
   -8.9670   15.1660  -33.5270 C   0  0  0  0  0  0  0  0  0  0  0  0
  -10.3610   18.2920  -30.2190 C   0  0  0  0  0  0  0  0  0  0  0  0
   -9.3780   14.8340  -34.9810 C   0  0  0  0  0  0  0  0  0  0  0  0
  -11.4490   19.0700  -29.8790 C   0  0  0  0  0  0  0  0  0  0  0  0
  -11.4560   19.2030  -28.5220 C   0  0  0  0  0  0  0  0  0  0  0  0
   -9.0670   14.3600  -32.6690 O   0  0  0  0  0  0  0  0  0  0  0  0
   -9.6070   13.3430  -35.1580 C   0  0  1  0  0  0  0  0  0  0  0  0
  -12.4800   19.9840  -27.6840 C   0  0  0  0  0  0  0  0  0  0  0  0
  -10.4040   18.5290  -28.0300 O   0  0  0  0  0  0  0  0  0  0  0  0
   -9.8220   13.0040  -36.6320 C   0  0  0  0  0  0  0  0  0  0  0  0
   -9.7220   17.9610  -29.0990 N   0  0  0  0  0  0  0  0  0  0  0  0
  -10.9810   13.8390  -37.2650 C   0  0  0  0  0  0  0  0  0  0  0  0
  -12.4340   13.3870  -37.0950 C   0  0  0  0  0  0  0  0  0  0  0  0
  -13.5670   14.2110  -37.7240 C   0  0  0  0  0  0  0  0  0  0  0  0
  -13.2350   15.4760  -38.5200 C   0  0  0  0  0  0  0  0  0  0  0  0
  -11.7870   15.9270  -38.6960 C   0  0  0  0  0  0  0  0  0  0  0  0
  -10.6550   15.1030  -38.0670 C   0  0  0  0  0  0  0  0  0  0  0  0
   -8.6560   11.1530  -34.1940 N   0  0  0  0  0  0  0  0  0  0  0  0
   -7.5720   10.2480  -33.8100 C   0  0  1  0  0  0  0  0  0  0  0  0
   -7.4790   10.1100  -32.3050 C   0  0  0  0  0  0  0  0  0  0  0  0
   -6.9650   11.3310  -31.6770 C   0  0  1  0  0  0  0  0  0  0  0  0
   -6.7630   11.0640  -30.1170 C   0  0  0  0  0  0  0  0  0  0  0  0
   -5.5900   11.6330  -29.7910 N   0  0  0  0  0  0  0  0  0  0  0  0
   -7.4890   10.4750  -29.3970 O   0  0  0  0  0  0  0  0  0  0  0  0
   -7.9420    8.8790  -34.3950 C   0  0  2  0  0  0  0  0  0  0  0  0
   -8.0380    8.7560  -35.9460 C   0  0  0  0  0  0  0  0  0  0  0  0
   -6.7120    9.1220  -36.6620 C   0  0  0  0  0  0  0  0  0  0  0  0
   -6.6630    9.2000  -38.0780 O   0  0  0  0  0  0  0  0  0  0  0  0
   -5.7350    9.3330  -36.0330 O   0  0  0  0  0  0  0  0  0  0  0  0
   -8.3860   12.4890  -34.7650 C   0  0  0  0  0  0  0  0  0  0  0  0
   -7.2780   12.8740  -34.9380 O   0  0  0  0  0  0  0  0  0  0  0  0
   -7.2150   10.3580  -38.6790 C   0  0  0  0  0  0  0  0  0  0  0  0
   -6.0980   11.1210  -39.4160 C   0  0  0  0  0  0  0  0  0  0  0  0
   -8.4270   16.5590  -33.1920 C   0  0  1  0  0  0  0  0  0  0  0  0
   -8.8290   16.9260  -31.8420 N   0  0  0  0  0  0  0  0  0  0  0  0
   -9.9310   17.8800  -31.6460 C   0  0  0  0  0  0  0  0  0  0  0  0
  -10.4920   18.3500  -32.5750 O   0  0  0  0  0  0  0  0  0  0  0  0
   -6.9070   16.5400  -33.3360 C   0  0  0  0  0  0  0  0  0  0  0  0
   -6.3050   15.3610  -32.5860 C   0  0  0  0  0  0  0  0  0  0  0  0
   -6.3080   17.8490  -32.7930 C   0  0  0  0  0  0  0  0  0  0  0  0
   -4.9760   12.2950  -31.0880 C   0  0  0  0  0  0  0  0  0  0  0  0
   -5.5720   11.6820  -32.1610 C   0  0  0  0  0  0  0  0  0  0  0  0
   -9.4950    8.1700  -33.9330 R   0  0  0  0  0  0  0  0  0  0  0  0
  -14.2410   16.2030  -39.0780 F   0  0  0  0  0  0  0  0  0  0  0  0
  1  3  1  0
  1  6  2  0
  1 34  1  0
  2  4  1  0
  2 11  2  0
  2 36  1  0
  7  3  1  6
  4  5  2  0
  5  8  1  0
  5  9  1  0
  7 10  1  0
  7 30  1  0
  9 11  1  0
 10 12  1  0
 12 13  2  0
 12 17  1  0
 13 14  1  0
 14 15  2  0
 15 16  1  0
 15 44  1  0
 16 17  2  0
 18 19  1  0
 18 30  1  0
 19 20  1  1
 19 25  1  0
 21 20  1  6
 21 22  1  0
 21 42  1  0
 22 23  1  0
 22 24  2  0
 23 41  1  0
 25 26  1  0
 25 43  1  1
 26 27  1  0
 27 28  1  0
 27 29  2  0
 28 32  1  0
 30 31  2  0
 32 33  1  0
 34 35  1  1
 34 38  1  0
 35 36  1  0
 36 37  2  0
 38 39  1  0
 38 40  1  0
 41 42  1  0
V   43 *
A    1
 C01
A    2
 C1 
A    3
 C02
A    4
 C2 
A    5
 C3 
A    6
 O03
A    7
 C04
A    8
 C4 
A    9
 O4 
A   10
 C05
A   11
 N5 
A   12
 C06
A   13
 C07
A   14
 C08
A   15
 C09
A   16
 C10
A   17
 C11
A   18
 N12
A   19
 C13
A   20
 C14
A   21
 C15
A   22
 C16
A   23
 N17
A   24
 O18
A   25
 C19
A   26
 C20
A   27
 C21
A   28
 O22
A   29
 O23
A   30
 C47
A   31
 O48
A   32
 C50
A   33
 C53
A   34
 C57
A   35
 N58
A   36
 C59
A   37
 O60
A   38
 C78
A   39
 C81
A   40
 C82
A   41
 C83
A   42
 C84
A   43
 X  
A   44
 F1 
M  END
>  <XChem_code>  (20) 
AG7§1

>  <Occupancy>  (20) 
[1.0, 1.0, 1.0, 1.0, 1.0, 1.0, 1.0, 1.0, 1.0, 1.0, 1.0, 1.0, 1.0, 1.0, 1.0, 1.0, 1.0, 1.0, 1.0, 1.0, 1.0, 1.0, 1.0, 1.0, 1.0, 1.0, 1.0, 1.0, 1.0, 1.0, 1.0, 1.0, 1.0, 1.0, 1.0, 1.0, 1.0, 1.0, 1.0, 1.0, 1.0, 1.0, 1.0, 1.0]

>  <TempFactor>  (20) 
[27.43, 24.24, 28.92, 30.71, 25.26, 31.62, 25.98, 30.07, 31.48, 26.52, 28.51, 32.53, 36.38, 29.74, 29.67, 29.92, 32.9, 28.44, 30.67, 27.23, 22.26, 24.15, 27.42, 27.01, 29.05, 33.89, 30.31, 32.23, 39.3, 25.88, 27.54, 34.34, 31.54, 28.56, 32.59, 25.05, 28.93, 29.93, 36.51, 31.26, 26.19, 27.65, 26.83, 43.14]

>  <accession>  (20) 
7L8H_A

>  <description>  (20) 
Chain A, 3C Protease [enterovirus D68]

>  <evalue>  (20) 
8.33054e-132

>  <pdb_code>  (20) 
7L8H

>  <chain>  (20) 
A

>  <ligands>  (20) 
[{'chain_id': 'A', 'author_residue_number': 201, 'author_insertion_code': '', 'chem_comp_id': 'AG7', 'alternate_conformers': 0, 'entity_id': 2, 'struct_asym_id': 'C', 'residue_number': 1, 'chem_comp_name': '4-{2-(4-FLUORO-BENZYL)-6-METHYL-5-[(5-METHYL-ISOXAZOLE-3-CARBONYL)-AMINO]-4-OXO-HEPTANOYLAMINO}-5-(2-OXO-PYRROLIDIN-3-YL)-PENTANOIC ACID ETHYL ESTER', 'weight': 600.678, 'carbohydrate_polymer': False, 'branch_name': ''}, {'chain_id': 'B', 'author_residue_number': 201, 'author_insertion_code': '', 'chem_comp_id': 'AG7', 'alternate_conformers': 0, 'entity_id': 2, 'struct_asym_id': 'D', 'residue_number': 1, 'chem_comp_name': '4-{2-(4-FLUORO-BENZYL)-6-METHYL-5-[(5-METHYL-ISOXAZOLE-3-CARBONYL)-AMINO]-4-OXO-HEPTANOYLAMINO}-5-(2-OXO-PYRROLIDIN-3-YL)-PENTANOIC ACID ETHYL ESTER', 'weight': 600.678, 'carbohydrate_polymer': False, 'branch_name': ''}]

>  <ligand_codes>  (20) 
['AG7', 'AG7']

>  <cofactor_codes>  (20) 
[]

>  <has_cofactor>  (20) 
False

>  <covalent>  (20) 
True

>  <base_name>  (20) 
7L8H

>  <lig_resn>  (20) 
AG7

>  <lig_resi>  (20) 
201

>  <lig_chain>  (20) 
A

>  <lig_segi>  (20) 
C

>  <lig_alt>  (20) 


>  <polymer_chain>  (20) 
A

>  <single_smiles>  (20) 
CCOC(=O)CC[C@H](C[C@@H]1CCNC1=O)NC(=O)[C@@H](CC(=O)[C@@H](NC(=O)c2cc(C)on2)C(C)C)Cc3ccc(F)cc3

$$$$
I70P1
     RDKit          3D

 40 42  0  0  0  0  0  0  0  0999 V2000
   -6.7100    7.5940  -35.0980 C   0  0  0  0  0  0  0  0  0  0  0  0
   -5.7690    7.4620  -36.2130 N   0  0  0  0  0  0  0  0  0  0  0  0
   -6.5030    6.9520  -34.0860 O   0  0  0  0  0  0  0  0  0  0  0  0
  -10.2720   19.4140  -30.9250 C   0  0  0  0  0  0  0  0  0  0  0  0
   -7.9070    8.5330  -35.2310 C   0  0  2  0  0  0  0  0  0  0  0  0
   -9.3150   18.6410  -31.7230 N   0  0  0  0  0  0  0  0  0  0  0  0
   -9.5750   17.8270  -32.7770 C   0  0  0  0  0  0  0  0  0  0  0  0
   -8.2130    8.7260  -36.6160 O   0  0  0  0  0  0  0  0  0  0  0  0
   -8.9660   16.6250  -32.7020 N   0  0  0  0  0  0  0  0  0  0  0  0
   -8.3630   16.0030  -33.8690 C   0  0  2  0  0  0  0  0  0  0  0  0
   -9.0070   14.6310  -34.0940 C   0  0  0  0  0  0  0  0  0  0  0  0
   -9.2580   15.2350  -36.5040 C   0  0  0  0  0  0  0  0  0  0  0  0
   -9.2900   14.2880  -35.3720 N   0  0  0  0  0  0  0  0  0  0  0  0
   -9.6500   12.9180  -35.7630 C   0  0  2  0  0  0  0  0  0  0  0  0
   -8.4570   11.9880  -35.5730 C   0  0  0  0  0  0  0  0  0  0  0  0
   -9.7390   14.4350  -37.6990 C   0  0  2  0  0  0  0  0  0  0  0  0
   -8.6950   10.8790  -34.8670 N   0  0  0  0  0  0  0  0  0  0  0  0
   -7.6460    9.8980  -34.5540 C   0  0  1  0  0  0  0  0  0  0  0  0
  -11.1540   13.9060  -37.6990 C   0  0  0  0  0  0  0  0  0  0  0  0
   -7.5160    9.8180  -33.0360 C   0  0  0  0  0  0  0  0  0  0  0  0
   -6.8770   11.0810  -32.4750 C   0  0  2  0  0  0  0  0  0  0  0  0
   -5.4440   11.3950  -32.9000 C   0  0  0  0  0  0  0  0  0  0  0  0
   -4.7930   12.0080  -31.6580 C   0  0  0  0  0  0  0  0  0  0  0  0
  -12.1980   14.3060  -36.6810 C   0  0  0  0  0  0  0  0  0  0  0  0
   -5.7180   11.6730  -30.5800 N   0  0  0  0  0  0  0  0  0  0  0  0
   -6.7630   10.9530  -30.9740 C   0  0  0  0  0  0  0  0  0  0  0  0
  -11.7390   13.8010  -39.0890 C   0  0  0  0  0  0  0  0  0  0  0  0
   -6.1840   15.2770  -34.9440 C   0  0  0  0  0  0  0  0  0  0  0  0
   -7.5140   10.2610  -30.2510 O   0  0  0  0  0  0  0  0  0  0  0  0
  -10.6940   20.3840  -32.0240 C   0  0  0  0  0  0  0  0  0  0  0  0
  -11.5630   18.7460  -30.5020 C   0  0  0  0  0  0  0  0  0  0  0  0
   -9.7000   20.3340  -29.8730 C   0  0  0  0  0  0  0  0  0  0  0  0
  -10.2600   18.1440  -33.7750 O   0  0  0  0  0  0  0  0  0  0  0  0
   -6.8280   15.9940  -33.7560 C   0  0  0  0  0  0  0  0  0  0  0  0
   -6.3140   17.4370  -33.7470 C   0  0  0  0  0  0  0  0  0  0  0  0
   -6.3720   15.3070  -32.4630 C   0  0  0  0  0  0  0  0  0  0  0  0
   -9.2830   13.8960  -33.1310 O   0  0  0  0  0  0  0  0  0  0  0  0
  -10.0130   13.0150  -37.2410 C   0  0  2  0  0  0  0  0  0  0  0  0
   -7.3460   12.2960  -36.0060 O   0  0  0  0  0  0  0  0  0  0  0  0
   -9.3180    7.9910  -34.2220 R   0  0  0  0  0  0  0  0  0  0  0  0
  1  2  1  0
  1  3  1  0
  1  5  1  0
  4  6  1  0
  4 30  1  0
  4 31  1  0
  4 32  1  0
  5  8  1  0
  5 18  1  0
  5 40  1  1
  6  7  1  0
  7  9  1  0
  7 33  1  0
 10  9  1  1
 10 11  1  0
 10 34  1  0
 11 13  1  0
 11 37  1  0
 12 13  1  0
 16 12  1  1
 13 14  1  0
 14 15  1  6
 38 14  1  0
 15 17  1  0
 15 39  1  0
 16 19  1  0
 16 38  1  0
 17 18  1  0
 18 20  1  1
 19 24  1  0
 19 27  1  0
 38 19  1  1
 21 20  1  6
 21 22  1  0
 21 26  1  0
 22 23  1  0
 23 25  1  0
 25 26  1  0
 26 29  1  0
 34 28  1  0
 34 35  1  0
 34 36  1  0
V   40 *
A    1
 C1 
A    2
 N2 
A    3
 O5 
A    4
 C7 
A    5
 C8 
A    6
 N8 
A    7
 C9 
A    8
 O9 
A    9
 N10
A   10
 C11
A   11
 C12
A   12
 C13
A   13
 N13
A   14
 C14
A   15
 C15
A   16
 C16
A   17
 N16
A   18
 C17
A   19
 C18
A   20
 C19
A   21
 C20
A   22
 C21
A   23
 C22
A   24
 C23
A   25
 N23
A   26
 C24
A   27
 C25
A   28
 C26
A   29
 O26
A   30
 C27
A   31
 C28
A   32
 C29
A   33
 O29
A   34
 C30
A   35
 C31
A   36
 C32
A   37
 O33
A   38
 C34
A   39
 O38
A   40
 X  
M  END
>  <XChem_code>  (21) 
I70§1

>  <Occupancy>  (21) 
[1.0, 1.0, 1.0, 1.0, 1.0, 1.0, 1.0, 1.0, 1.0, 1.0, 1.0, 1.0, 1.0, 1.0, 1.0, 1.0, 1.0, 1.0, 1.0, 1.0, 1.0, 1.0, 1.0, 1.0, 1.0, 1.0, 1.0, 1.0, 1.0, 1.0, 1.0, 1.0, 1.0, 1.0, 1.0, 1.0, 1.0, 1.0, 1.0, 1.0]

>  <TempFactor>  (21) 
[63.58, 69.08, 56.96, 91.85, 58.99, 85.97, 82.0, 52.36, 73.05, 70.66, 67.47, 64.86, 62.73, 58.1, 56.76, 63.59, 54.89, 58.5, 61.5, 60.05, 60.39, 63.68, 62.48, 49.52, 61.26, 62.28, 64.93, 65.54, 55.79, 95.6, 91.48, 91.79, 68.22, 64.56, 72.88, 62.05, 61.78, 61.48, 53.44, 57.91]

>  <accession>  (21) 
7QUW_AAA

>  <description>  (21) 
Chain AAA, Protease 3C [Coxsackievirus B3]

>  <evalue>  (21) 
7.40103e-88

>  <pdb_code>  (21) 
7QUW

>  <chain>  (21) 
AAA

>  <ligands>  (21) 
[{'chain_id': 'AAA', 'author_residue_number': 201, 'author_insertion_code': '', 'chem_comp_id': 'I70', 'alternate_conformers': 0, 'entity_id': 2, 'struct_asym_id': 'B', 'residue_number': 1, 'chem_comp_name': '(1R,2S,5S)-N-{(2S,3R)-4-amino-3-hydroxy-4-oxo-1-[(3S)-2-oxopyrrolidin-3-yl]butan-2-yl}-3-[N-(tert-butylcarbamoyl)-3-methyl-L-valyl]-6,6-dimethyl-3-azabicyclo[3.1.0]hexane-2-carboxamide', 'weight': 550.691, 'carbohydrate_polymer': False, 'branch_name': ''}]

>  <ligand_codes>  (21) 
['I70']

>  <cofactor_codes>  (21) 
[]

>  <has_cofactor>  (21) 
False

>  <covalent>  (21) 
True

>  <base_name>  (21) 
7QUW

>  <lig_resn>  (21) 
I70

>  <lig_resi>  (21) 
201

>  <lig_chain>  (21) 
AAA

>  <lig_segi>  (21) 
B

>  <lig_alt>  (21) 


>  <polymer_chain>  (21) 
A

>  <single_smiles>  (21) 
CC(C)(C)NC(=O)N[C@H](C(=O)N1C[C@H]2[C@@H]([C@H]1C(=O)N[C@@H](C[C@@H]3CCNC3=O)[C@@H](O)C(N)=O)C2(C)C)C(C)(C)C

$$$$
EDOP5
     RDKit          3D

  4  3  0  0  0  0  0  0  0  0999 V2000
   -9.2720   15.7960  -39.3710 C   0  0  0  0  0  0  0  0  0  0  0  0
  -10.6280   16.2660  -39.3400 O   0  0  0  0  0  0  0  0  0  0  0  0
   -9.1810   14.3120  -39.1120 C   0  0  0  0  0  0  0  0  0  0  0  0
   -7.8180   13.8590  -39.0590 O   0  0  0  0  0  0  0  0  0  0  0  0
  1  2  1  0
  1  3  1  0
  3  4  1  0
A    1
 C1 
A    2
 O1 
A    3
 C2 
A    4
 O2 
M  END
>  <XChem_code>  (22) 
EDO§5

>  <Occupancy>  (22) 
[0.65, 0.65, 0.65, 0.65]

>  <TempFactor>  (22) 
[32.81, 31.23, 32.84, 28.15]

>  <accession>  (22) 
3Q3Y_A

>  <description>  (22) 
Chain A, HEVB EV93 3C protease [Enterovirus B]

>  <evalue>  (22) 
1.14606e-87

>  <pdb_code>  (22) 
3Q3Y

>  <chain>  (22) 
A

>  <ligands>  (22) 
[{'chain_id': 'A', 'author_residue_number': 190, 'author_insertion_code': '', 'chem_comp_id': 'XNV', 'alternate_conformers': 2, 'entity_id': 2, 'struct_asym_id': 'C', 'residue_number': 1, 'chem_comp_name': 'ethyl (4R)-4-({(2S)-2-[3-{[(5-methyl-1,2-oxazol-3-yl)carbonyl]amino}-2-oxopyridin-1(2H)-yl]pent-4-ynoyl}amino)-5-[(3S)-2-oxopyrrolidin-3-yl]pentanoate', 'weight': 525.554, 'carbohydrate_polymer': False, 'branch_name': ''}, {'chain_id': 'B', 'author_residue_number': 190, 'author_insertion_code': '', 'chem_comp_id': 'XNV', 'alternate_conformers': 2, 'entity_id': 2, 'struct_asym_id': 'L', 'residue_number': 1, 'chem_comp_name': 'ethyl (4R)-4-({(2S)-2-[3-{[(5-methyl-1,2-oxazol-3-yl)carbonyl]amino}-2-oxopyridin-1(2H)-yl]pent-4-ynoyl}amino)-5-[(3S)-2-oxopyrrolidin-3-yl]pentanoate', 'weight': 525.554, 'carbohydrate_polymer': False, 'branch_name': ''}, {'chain_id': 'A', 'author_residue_number': 191, 'author_insertion_code': '', 'chem_comp_id': 'EDO', 'alternate_conformers': 2, 'entity_id': 3, 'struct_asym_id': 'D', 'residue_number': 1, 'chem_comp_name': '1,2-ETHANEDIOL', 'weight': 62.068, 'carbohydrate_polymer': False, 'branch_name': ''}, {'chain_id': 'A', 'author_residue_number': 192, 'author_insertion_code': '', 'chem_comp_id': 'EDO', 'alternate_conformers': 2, 'entity_id': 3, 'struct_asym_id': 'E', 'residue_number': 1, 'chem_comp_name': '1,2-ETHANEDIOL', 'weight': 62.068, 'carbohydrate_polymer': False, 'branch_name': ''}, {'chain_id': 'A', 'author_residue_number': 193, 'author_insertion_code': '', 'chem_comp_id': 'EDO', 'alternate_conformers': 0, 'entity_id': 3, 'struct_asym_id': 'F', 'residue_number': 1, 'chem_comp_name': '1,2-ETHANEDIOL', 'weight': 62.068, 'carbohydrate_polymer': False, 'branch_name': ''}, {'chain_id': 'A', 'author_residue_number': 194, 'author_insertion_code': '', 'chem_comp_id': 'EDO', 'alternate_conformers': 1, 'entity_id': 3, 'struct_asym_id': 'G', 'residue_number': 1, 'chem_comp_name': '1,2-ETHANEDIOL', 'weight': 62.068, 'carbohydrate_polymer': False, 'branch_name': ''}, {'chain_id': 'B', 'author_residue_number': 191, 'author_insertion_code': '', 'chem_comp_id': 'EDO', 'alternate_conformers': 2, 'entity_id': 3, 'struct_asym_id': 'M', 'residue_number': 1, 'chem_comp_name': '1,2-ETHANEDIOL', 'weight': 62.068, 'carbohydrate_polymer': False, 'branch_name': ''}, {'chain_id': 'B', 'author_residue_number': 192, 'author_insertion_code': '', 'chem_comp_id': 'EDO', 'alternate_conformers': 0, 'entity_id': 3, 'struct_asym_id': 'N', 'residue_number': 1, 'chem_comp_name': '1,2-ETHANEDIOL', 'weight': 62.068, 'carbohydrate_polymer': False, 'branch_name': ''}, {'chain_id': 'B', 'author_residue_number': 193, 'author_insertion_code': '', 'chem_comp_id': 'EDO', 'alternate_conformers': 2, 'entity_id': 3, 'struct_asym_id': 'O', 'residue_number': 1, 'chem_comp_name': '1,2-ETHANEDIOL', 'weight': 62.068, 'carbohydrate_polymer': False, 'branch_name': ''}, {'chain_id': 'B', 'author_residue_number': 194, 'author_insertion_code': '', 'chem_comp_id': 'EDO', 'alternate_conformers': 1, 'entity_id': 3, 'struct_asym_id': 'P', 'residue_number': 1, 'chem_comp_name': '1,2-ETHANEDIOL', 'weight': 62.068, 'carbohydrate_polymer': False, 'branch_name': ''}, {'chain_id': 'A', 'author_residue_number': 195, 'author_insertion_code': '', 'chem_comp_id': 'PI', 'alternate_conformers': 1, 'entity_id': 4, 'struct_asym_id': 'H', 'residue_number': 1, 'chem_comp_name': 'HYDROGENPHOSPHATE ION', 'weight': 95.979, 'carbohydrate_polymer': False, 'branch_name': ''}, {'chain_id': 'A', 'author_residue_number': 196, 'author_insertion_code': '', 'chem_comp_id': 'PI', 'alternate_conformers': 1, 'entity_id': 4, 'struct_asym_id': 'I', 'residue_number': 1, 'chem_comp_name': 'HYDROGENPHOSPHATE ION', 'weight': 95.979, 'carbohydrate_polymer': False, 'branch_name': ''}, {'chain_id': 'B', 'author_residue_number': 195, 'author_insertion_code': '', 'chem_comp_id': 'PI', 'alternate_conformers': 1, 'entity_id': 4, 'struct_asym_id': 'Q', 'residue_number': 1, 'chem_comp_name': 'HYDROGENPHOSPHATE ION', 'weight': 95.979, 'carbohydrate_polymer': False, 'branch_name': ''}, {'chain_id': 'A', 'author_residue_number': 197, 'author_insertion_code': '', 'chem_comp_id': 'NH4', 'alternate_conformers': 2, 'entity_id': 5, 'struct_asym_id': 'J', 'residue_number': 1, 'chem_comp_name': 'AMMONIUM ION', 'weight': 18.038, 'carbohydrate_polymer': False, 'branch_name': ''}, {'chain_id': 'A', 'author_residue_number': 198, 'author_insertion_code': '', 'chem_comp_id': 'NH4', 'alternate_conformers': 0, 'entity_id': 5, 'struct_asym_id': 'K', 'residue_number': 1, 'chem_comp_name': 'AMMONIUM ION', 'weight': 18.038, 'carbohydrate_polymer': False, 'branch_name': ''}]

>  <ligand_codes>  (22) 
['XNV', 'XNV', 'EDO', 'EDO', 'EDO', 'EDO', 'EDO', 'EDO', 'EDO', 'EDO', 'PI', 'PI', 'PI', 'NH4', 'NH4']

>  <cofactor_codes>  (22) 
[]

>  <has_cofactor>  (22) 
False

>  <covalent>  (22) 
False

>  <base_name>  (22) 
3Q3Y

>  <lig_resn>  (22) 
EDO

>  <lig_resi>  (22) 
193

>  <lig_chain>  (22) 
A

>  <lig_segi>  (22) 
F

>  <lig_alt>  (22) 


>  <polymer_chain>  (22) 
A

>  <single_smiles>  (22) 
OCCO

$$$$
XNVP1
     RDKit          3D

  6  5  0  0  0  0  0  0  0  0999 V2000
   -6.4370    5.4350  -38.6720 C   0  0  0  0  0  0  0  0  0  0  0  0
   -6.9670    6.7070  -37.9880 C   0  0  0  0  0  0  0  0  0  0  0  0
   -5.9500    7.3430  -37.2070 O   0  0  0  0  0  0  0  0  0  0  0  0
   -6.2390    8.3590  -36.3130 C   0  0  2  0  0  0  0  0  0  0  0  0
   -5.3090    8.7040  -35.6100 O   0  0  0  0  0  0  0  0  0  0  0  0
   -7.7310    8.3810  -35.9230 R   0  0  0  0  0  0  0  0  0  0  0  0
  1  2  1  0
  2  3  1  0
  3  4  1  0
  4  5  1  0
  4  6  1  1
V    6 *
A    1
 C01
A    2
 C02
A    3
 O03
A    4
 C04
A    5
 O38
A    6
 X  
M  END
>  <XChem_code>  (23) 
XNV§1

>  <Occupancy>  (23) 
[0.31, 0.31, 0.31, 0.31, 0.31, 1.0]

>  <TempFactor>  (23) 
[61.0, 49.21, 32.51, 21.28, 18.23, 12.55]

>  <accession>  (23) 
3Q3Y_A

>  <description>  (23) 
Chain A, HEVB EV93 3C protease [Enterovirus B]

>  <evalue>  (23) 
1.14606e-87

>  <pdb_code>  (23) 
3Q3Y

>  <chain>  (23) 
A

>  <ligands>  (23) 
[{'chain_id': 'A', 'author_residue_number': 190, 'author_insertion_code': '', 'chem_comp_id': 'XNV', 'alternate_conformers': 2, 'entity_id': 2, 'struct_asym_id': 'C', 'residue_number': 1, 'chem_comp_name': 'ethyl (4R)-4-({(2S)-2-[3-{[(5-methyl-1,2-oxazol-3-yl)carbonyl]amino}-2-oxopyridin-1(2H)-yl]pent-4-ynoyl}amino)-5-[(3S)-2-oxopyrrolidin-3-yl]pentanoate', 'weight': 525.554, 'carbohydrate_polymer': False, 'branch_name': ''}, {'chain_id': 'B', 'author_residue_number': 190, 'author_insertion_code': '', 'chem_comp_id': 'XNV', 'alternate_conformers': 2, 'entity_id': 2, 'struct_asym_id': 'L', 'residue_number': 1, 'chem_comp_name': 'ethyl (4R)-4-({(2S)-2-[3-{[(5-methyl-1,2-oxazol-3-yl)carbonyl]amino}-2-oxopyridin-1(2H)-yl]pent-4-ynoyl}amino)-5-[(3S)-2-oxopyrrolidin-3-yl]pentanoate', 'weight': 525.554, 'carbohydrate_polymer': False, 'branch_name': ''}, {'chain_id': 'A', 'author_residue_number': 191, 'author_insertion_code': '', 'chem_comp_id': 'EDO', 'alternate_conformers': 2, 'entity_id': 3, 'struct_asym_id': 'D', 'residue_number': 1, 'chem_comp_name': '1,2-ETHANEDIOL', 'weight': 62.068, 'carbohydrate_polymer': False, 'branch_name': ''}, {'chain_id': 'A', 'author_residue_number': 192, 'author_insertion_code': '', 'chem_comp_id': 'EDO', 'alternate_conformers': 2, 'entity_id': 3, 'struct_asym_id': 'E', 'residue_number': 1, 'chem_comp_name': '1,2-ETHANEDIOL', 'weight': 62.068, 'carbohydrate_polymer': False, 'branch_name': ''}, {'chain_id': 'A', 'author_residue_number': 193, 'author_insertion_code': '', 'chem_comp_id': 'EDO', 'alternate_conformers': 0, 'entity_id': 3, 'struct_asym_id': 'F', 'residue_number': 1, 'chem_comp_name': '1,2-ETHANEDIOL', 'weight': 62.068, 'carbohydrate_polymer': False, 'branch_name': ''}, {'chain_id': 'A', 'author_residue_number': 194, 'author_insertion_code': '', 'chem_comp_id': 'EDO', 'alternate_conformers': 1, 'entity_id': 3, 'struct_asym_id': 'G', 'residue_number': 1, 'chem_comp_name': '1,2-ETHANEDIOL', 'weight': 62.068, 'carbohydrate_polymer': False, 'branch_name': ''}, {'chain_id': 'B', 'author_residue_number': 191, 'author_insertion_code': '', 'chem_comp_id': 'EDO', 'alternate_conformers': 2, 'entity_id': 3, 'struct_asym_id': 'M', 'residue_number': 1, 'chem_comp_name': '1,2-ETHANEDIOL', 'weight': 62.068, 'carbohydrate_polymer': False, 'branch_name': ''}, {'chain_id': 'B', 'author_residue_number': 192, 'author_insertion_code': '', 'chem_comp_id': 'EDO', 'alternate_conformers': 0, 'entity_id': 3, 'struct_asym_id': 'N', 'residue_number': 1, 'chem_comp_name': '1,2-ETHANEDIOL', 'weight': 62.068, 'carbohydrate_polymer': False, 'branch_name': ''}, {'chain_id': 'B', 'author_residue_number': 193, 'author_insertion_code': '', 'chem_comp_id': 'EDO', 'alternate_conformers': 2, 'entity_id': 3, 'struct_asym_id': 'O', 'residue_number': 1, 'chem_comp_name': '1,2-ETHANEDIOL', 'weight': 62.068, 'carbohydrate_polymer': False, 'branch_name': ''}, {'chain_id': 'B', 'author_residue_number': 194, 'author_insertion_code': '', 'chem_comp_id': 'EDO', 'alternate_conformers': 1, 'entity_id': 3, 'struct_asym_id': 'P', 'residue_number': 1, 'chem_comp_name': '1,2-ETHANEDIOL', 'weight': 62.068, 'carbohydrate_polymer': False, 'branch_name': ''}, {'chain_id': 'A', 'author_residue_number': 195, 'author_insertion_code': '', 'chem_comp_id': 'PI', 'alternate_conformers': 1, 'entity_id': 4, 'struct_asym_id': 'H', 'residue_number': 1, 'chem_comp_name': 'HYDROGENPHOSPHATE ION', 'weight': 95.979, 'carbohydrate_polymer': False, 'branch_name': ''}, {'chain_id': 'A', 'author_residue_number': 196, 'author_insertion_code': '', 'chem_comp_id': 'PI', 'alternate_conformers': 1, 'entity_id': 4, 'struct_asym_id': 'I', 'residue_number': 1, 'chem_comp_name': 'HYDROGENPHOSPHATE ION', 'weight': 95.979, 'carbohydrate_polymer': False, 'branch_name': ''}, {'chain_id': 'B', 'author_residue_number': 195, 'author_insertion_code': '', 'chem_comp_id': 'PI', 'alternate_conformers': 1, 'entity_id': 4, 'struct_asym_id': 'Q', 'residue_number': 1, 'chem_comp_name': 'HYDROGENPHOSPHATE ION', 'weight': 95.979, 'carbohydrate_polymer': False, 'branch_name': ''}, {'chain_id': 'A', 'author_residue_number': 197, 'author_insertion_code': '', 'chem_comp_id': 'NH4', 'alternate_conformers': 2, 'entity_id': 5, 'struct_asym_id': 'J', 'residue_number': 1, 'chem_comp_name': 'AMMONIUM ION', 'weight': 18.038, 'carbohydrate_polymer': False, 'branch_name': ''}, {'chain_id': 'A', 'author_residue_number': 198, 'author_insertion_code': '', 'chem_comp_id': 'NH4', 'alternate_conformers': 0, 'entity_id': 5, 'struct_asym_id': 'K', 'residue_number': 1, 'chem_comp_name': 'AMMONIUM ION', 'weight': 18.038, 'carbohydrate_polymer': False, 'branch_name': ''}]

>  <ligand_codes>  (23) 
['XNV', 'XNV', 'EDO', 'EDO', 'EDO', 'EDO', 'EDO', 'EDO', 'EDO', 'EDO', 'PI', 'PI', 'PI', 'NH4', 'NH4']

>  <cofactor_codes>  (23) 
[]

>  <has_cofactor>  (23) 
False

>  <covalent>  (23) 
True

>  <base_name>  (23) 
3Q3Y

>  <lig_resn>  (23) 
XNV

>  <lig_resi>  (23) 
190

>  <lig_chain>  (23) 
A

>  <lig_segi>  (23) 
C

>  <lig_alt>  (23) 
B

>  <polymer_chain>  (23) 
A

>  <single_smiles>  (23) 
CCOC(=O)CC[C@H](C[C@@H]1CCNC1=O)NC(=O)[C@H](CC#C)N2C=CC=C(NC(=O)c3cc(C)on3)C2=O

$$$$
XNVP5
     RDKit          3D

 44 46  0  0  0  0  0  0  0  0999 V2000
   -4.2700   11.1150  -37.7120 C   0  0  0  0  0  0  0  0  0  0  0  0
   -6.4370    5.4350  -38.6720 C   0  0  0  0  0  0  0  0  0  0  0  0
   -4.5680    9.6340  -37.4070 C   0  0  0  0  0  0  0  0  0  0  0  0
   -6.9670    6.7070  -37.9880 C   0  0  0  0  0  0  0  0  0  0  0  0
   -5.9620    9.3890  -37.1520 O   0  0  0  0  0  0  0  0  0  0  0  0
   -5.9500    7.3430  -37.2070 O   0  0  0  0  0  0  0  0  0  0  0  0
   -6.2830    8.2890  -36.3860 C   0  0  1  0  0  0  0  0  0  0  0  0
   -6.2390    8.3590  -36.3130 C   0  0  2  0  0  0  0  0  0  0  0  0
   -8.0140    8.4320  -34.3930 C   0  0  1  0  0  0  0  0  0  0  0  0
   -7.6700    9.8230  -33.7780 C   0  0  1  0  0  0  0  0  0  0  0  0
   -8.6960   10.7850  -34.1610 N   0  0  0  0  0  0  0  0  0  0  0  0
   -8.3660   11.9860  -34.7380 C   0  0  0  0  0  0  0  0  0  0  0  0
   -9.5440   12.8720  -35.1700 C   0  0  1  0  0  0  0  0  0  0  0  0
   -9.2290   14.2940  -34.9840 N   0  0  0  0  0  0  0  0  0  0  0  0
   -9.2700   14.7400  -33.6260 C   0  0  0  0  0  0  0  0  0  0  0  0
   -9.0490   16.1590  -33.3600 C   0  0  0  0  0  0  0  0  0  0  0  0
   -9.2490   16.5750  -32.0350 N   0  0  0  0  0  0  0  0  0  0  0  0
  -10.0950   17.6650  -31.7210 C   0  0  0  0  0  0  0  0  0  0  0  0
  -10.3340   17.8140  -30.2530 C   0  0  0  0  0  0  0  0  0  0  0  0
   -9.8210   17.0290  -29.3110 N   0  0  0  0  0  0  0  0  0  0  0  0
  -10.2850   17.4780  -28.1290 O   0  0  0  0  0  0  0  0  0  0  0  0
  -11.0580   18.5830  -28.2730 C   0  0  0  0  0  0  0  0  0  0  0  0
  -11.6710   19.3000  -27.1340 C   0  0  0  0  0  0  0  0  0  0  0  0
  -11.1330   18.8400  -29.6240 C   0  0  0  0  0  0  0  0  0  0  0  0
  -10.5810   18.4340  -32.5450 O   0  0  0  0  0  0  0  0  0  0  0  0
   -8.7180   16.9980  -34.4080 C   0  0  0  0  0  0  0  0  0  0  0  0
   -8.6520   16.4840  -35.7260 C   0  0  0  0  0  0  0  0  0  0  0  0
   -8.8880   15.1740  -35.9880 C   0  0  0  0  0  0  0  0  0  0  0  0
   -9.5210   13.9120  -32.7390 O   0  0  0  0  0  0  0  0  0  0  0  0
   -9.9610   12.5320  -36.6040 C   0  0  0  0  0  0  0  0  0  0  0  0
  -11.1420   13.3100  -36.9200 C   0  0  0  0  0  0  0  0  0  0  0  0
  -12.1000   13.9360  -37.1800 C   0  0  0  0  0  0  0  0  0  0  0  0
   -7.2170   12.3540  -34.9210 O   0  0  0  0  0  0  0  0  0  0  0  0
   -7.5070    9.7730  -32.2370 C   0  0  0  0  0  0  0  0  0  0  0  0
   -7.1020   11.0700  -31.5740 C   0  0  2  0  0  0  0  0  0  0  0  0
   -5.6570   11.5300  -31.9370 C   0  0  0  0  0  0  0  0  0  0  0  0
   -5.2110   12.3590  -30.7450 C   0  0  0  0  0  0  0  0  0  0  0  0
   -5.9230   11.6850  -29.6600 N   0  0  0  0  0  0  0  0  0  0  0  0
   -7.0130   10.9790  -30.0830 C   0  0  0  0  0  0  0  0  0  0  0  0
   -7.8230   10.4100  -29.3700 O   0  0  0  0  0  0  0  0  0  0  0  0
   -5.3980    7.7430  -35.7710 O   0  0  0  0  0  0  0  0  0  0  0  0
   -5.3090    8.7040  -35.6100 O   0  0  0  0  0  0  0  0  0  0  0  0
   -9.6590    8.0130  -33.9280 R   0  0  0  0  0  0  0  0  0  0  0  0
   -7.7310    8.3810  -35.9230 R   0  0  0  0  0  0  0  0  0  0  0  0
  1  3  1  0
  2  4  1  0
  3  5  1  0
  4  6  1  0
  5  7  1  0
  6  8  1  0
  7 41  1  1
  7 44  1  0
  8 42  1  1
  8 44  1  0
  9 10  1  0
  9 43  1  6
  9 44  1  0
 10 11  1  0
 10 34  1  1
 11 12  1  0
 12 13  1  0
 12 33  1  0
 13 14  1  0
 13 30  1  6
 14 15  1  0
 14 28  1  0
 15 16  1  0
 15 29  1  0
 16 17  1  0
 16 26  1  0
 17 18  1  0
 18 19  1  0
 18 25  1  0
 19 20  1  0
 19 24  1  0
 20 21  1  0
 21 22  1  0
 22 23  1  0
 22 24  1  0
 26 27  1  0
 27 28  1  0
 30 31  1  0
 31 32  1  0
 35 34  1  6
 35 36  1  0
 35 39  1  0
 36 37  1  0
 37 38  1  0
 38 39  1  0
 39 40  1  0
V   43 *
V   44 *
A    1
 C01
A    2
 C01
A    3
 C02
A    4
 C02
A    5
 O03
A    6
 O03
A    7
 C04
A    8
 C04
A    9
 C06
A   10
 C07
A   11
 N08
A   12
 C09
A   13
 C10
A   14
 N11
A   15
 C12
A   16
 C13
A   17
 N14
A   18
 C15
A   19
 C16
A   20
 N17
A   21
 O18
A   22
 C19
A   23
 C20
A   24
 C21
A   25
 O22
A   26
 C23
A   27
 C24
A   28
 C25
A   29
 O26
A   30
 C27
A   31
 C28
A   32
 C29
A   33
 O30
A   34
 C31
A   35
 C32
A   36
 C33
A   37
 C34
A   38
 N35
A   39
 C36
A   40
 O37
A   41
 O38
A   42
 O38
A   43
 X  
A   44
 X  
M  END
>  <XChem_code>  (24) 
XNV§5

>  <Occupancy>  (24) 
[0.69, 0.31, 0.69, 0.31, 0.69, 0.31, 0.69, 0.31, 1.0, 1.0, 1.0, 1.0, 1.0, 1.0, 1.0, 1.0, 1.0, 1.0, 1.0, 1.0, 1.0, 1.0, 1.0, 1.0, 1.0, 1.0, 1.0, 1.0, 1.0, 1.0, 1.0, 1.0, 1.0, 1.0, 1.0, 1.0, 1.0, 1.0, 1.0, 1.0, 0.69, 0.31, 1.0, 1.0]

>  <TempFactor>  (24) 
[53.57, 61.0, 41.59, 49.21, 23.74, 32.51, 19.1, 21.28, 7.6, 8.11, 8.4, 9.74, 8.05, 8.56, 8.33, 8.16, 7.98, 7.67, 8.77, 11.26, 12.79, 12.84, 16.26, 10.81, 9.75, 8.32, 9.11, 8.82, 8.1, 8.86, 9.21, 10.73, 9.43, 7.8, 6.74, 9.87, 8.87, 8.14, 7.89, 8.51, 19.72, 18.23, 7.31, 12.55]

>  <accession>  (24) 
3Q3Y_A

>  <description>  (24) 
Chain A, HEVB EV93 3C protease [Enterovirus B]

>  <evalue>  (24) 
1.14606e-87

>  <pdb_code>  (24) 
3Q3Y

>  <chain>  (24) 
A

>  <ligands>  (24) 
[{'chain_id': 'A', 'author_residue_number': 190, 'author_insertion_code': '', 'chem_comp_id': 'XNV', 'alternate_conformers': 2, 'entity_id': 2, 'struct_asym_id': 'C', 'residue_number': 1, 'chem_comp_name': 'ethyl (4R)-4-({(2S)-2-[3-{[(5-methyl-1,2-oxazol-3-yl)carbonyl]amino}-2-oxopyridin-1(2H)-yl]pent-4-ynoyl}amino)-5-[(3S)-2-oxopyrrolidin-3-yl]pentanoate', 'weight': 525.554, 'carbohydrate_polymer': False, 'branch_name': ''}, {'chain_id': 'B', 'author_residue_number': 190, 'author_insertion_code': '', 'chem_comp_id': 'XNV', 'alternate_conformers': 2, 'entity_id': 2, 'struct_asym_id': 'L', 'residue_number': 1, 'chem_comp_name': 'ethyl (4R)-4-({(2S)-2-[3-{[(5-methyl-1,2-oxazol-3-yl)carbonyl]amino}-2-oxopyridin-1(2H)-yl]pent-4-ynoyl}amino)-5-[(3S)-2-oxopyrrolidin-3-yl]pentanoate', 'weight': 525.554, 'carbohydrate_polymer': False, 'branch_name': ''}, {'chain_id': 'A', 'author_residue_number': 191, 'author_insertion_code': '', 'chem_comp_id': 'EDO', 'alternate_conformers': 2, 'entity_id': 3, 'struct_asym_id': 'D', 'residue_number': 1, 'chem_comp_name': '1,2-ETHANEDIOL', 'weight': 62.068, 'carbohydrate_polymer': False, 'branch_name': ''}, {'chain_id': 'A', 'author_residue_number': 192, 'author_insertion_code': '', 'chem_comp_id': 'EDO', 'alternate_conformers': 2, 'entity_id': 3, 'struct_asym_id': 'E', 'residue_number': 1, 'chem_comp_name': '1,2-ETHANEDIOL', 'weight': 62.068, 'carbohydrate_polymer': False, 'branch_name': ''}, {'chain_id': 'A', 'author_residue_number': 193, 'author_insertion_code': '', 'chem_comp_id': 'EDO', 'alternate_conformers': 0, 'entity_id': 3, 'struct_asym_id': 'F', 'residue_number': 1, 'chem_comp_name': '1,2-ETHANEDIOL', 'weight': 62.068, 'carbohydrate_polymer': False, 'branch_name': ''}, {'chain_id': 'A', 'author_residue_number': 194, 'author_insertion_code': '', 'chem_comp_id': 'EDO', 'alternate_conformers': 1, 'entity_id': 3, 'struct_asym_id': 'G', 'residue_number': 1, 'chem_comp_name': '1,2-ETHANEDIOL', 'weight': 62.068, 'carbohydrate_polymer': False, 'branch_name': ''}, {'chain_id': 'B', 'author_residue_number': 191, 'author_insertion_code': '', 'chem_comp_id': 'EDO', 'alternate_conformers': 2, 'entity_id': 3, 'struct_asym_id': 'M', 'residue_number': 1, 'chem_comp_name': '1,2-ETHANEDIOL', 'weight': 62.068, 'carbohydrate_polymer': False, 'branch_name': ''}, {'chain_id': 'B', 'author_residue_number': 192, 'author_insertion_code': '', 'chem_comp_id': 'EDO', 'alternate_conformers': 0, 'entity_id': 3, 'struct_asym_id': 'N', 'residue_number': 1, 'chem_comp_name': '1,2-ETHANEDIOL', 'weight': 62.068, 'carbohydrate_polymer': False, 'branch_name': ''}, {'chain_id': 'B', 'author_residue_number': 193, 'author_insertion_code': '', 'chem_comp_id': 'EDO', 'alternate_conformers': 2, 'entity_id': 3, 'struct_asym_id': 'O', 'residue_number': 1, 'chem_comp_name': '1,2-ETHANEDIOL', 'weight': 62.068, 'carbohydrate_polymer': False, 'branch_name': ''}, {'chain_id': 'B', 'author_residue_number': 194, 'author_insertion_code': '', 'chem_comp_id': 'EDO', 'alternate_conformers': 1, 'entity_id': 3, 'struct_asym_id': 'P', 'residue_number': 1, 'chem_comp_name': '1,2-ETHANEDIOL', 'weight': 62.068, 'carbohydrate_polymer': False, 'branch_name': ''}, {'chain_id': 'A', 'author_residue_number': 195, 'author_insertion_code': '', 'chem_comp_id': 'PI', 'alternate_conformers': 1, 'entity_id': 4, 'struct_asym_id': 'H', 'residue_number': 1, 'chem_comp_name': 'HYDROGENPHOSPHATE ION', 'weight': 95.979, 'carbohydrate_polymer': False, 'branch_name': ''}, {'chain_id': 'A', 'author_residue_number': 196, 'author_insertion_code': '', 'chem_comp_id': 'PI', 'alternate_conformers': 1, 'entity_id': 4, 'struct_asym_id': 'I', 'residue_number': 1, 'chem_comp_name': 'HYDROGENPHOSPHATE ION', 'weight': 95.979, 'carbohydrate_polymer': False, 'branch_name': ''}, {'chain_id': 'B', 'author_residue_number': 195, 'author_insertion_code': '', 'chem_comp_id': 'PI', 'alternate_conformers': 1, 'entity_id': 4, 'struct_asym_id': 'Q', 'residue_number': 1, 'chem_comp_name': 'HYDROGENPHOSPHATE ION', 'weight': 95.979, 'carbohydrate_polymer': False, 'branch_name': ''}, {'chain_id': 'A', 'author_residue_number': 197, 'author_insertion_code': '', 'chem_comp_id': 'NH4', 'alternate_conformers': 2, 'entity_id': 5, 'struct_asym_id': 'J', 'residue_number': 1, 'chem_comp_name': 'AMMONIUM ION', 'weight': 18.038, 'carbohydrate_polymer': False, 'branch_name': ''}, {'chain_id': 'A', 'author_residue_number': 198, 'author_insertion_code': '', 'chem_comp_id': 'NH4', 'alternate_conformers': 0, 'entity_id': 5, 'struct_asym_id': 'K', 'residue_number': 1, 'chem_comp_name': 'AMMONIUM ION', 'weight': 18.038, 'carbohydrate_polymer': False, 'branch_name': ''}]

>  <ligand_codes>  (24) 
['XNV', 'XNV', 'EDO', 'EDO', 'EDO', 'EDO', 'EDO', 'EDO', 'EDO', 'EDO', 'PI', 'PI', 'PI', 'NH4', 'NH4']

>  <cofactor_codes>  (24) 
[]

>  <has_cofactor>  (24) 
False

>  <covalent>  (24) 
True

>  <base_name>  (24) 
3Q3Y

>  <lig_resn>  (24) 
XNV

>  <lig_resi>  (24) 
190

>  <lig_chain>  (24) 
A

>  <lig_segi>  (24) 
C

>  <lig_alt>  (24) 


>  <polymer_chain>  (24) 
A

>  <single_smiles>  (24) 
CCOC(=O)CC[C@H](C[C@@H]1CCNC1=O)NC(=O)[C@H](CC#C)N2C=CC=C(NC(=O)c3cc(C)on3)C2=O

$$$$
XNVP6
     RDKit          3D

  6  5  0  0  0  0  0  0  0  0999 V2000
   -4.2700   11.1150  -37.7120 C   0  0  0  0  0  0  0  0  0  0  0  0
   -4.5680    9.6340  -37.4070 C   0  0  0  0  0  0  0  0  0  0  0  0
   -5.9620    9.3890  -37.1520 O   0  0  0  0  0  0  0  0  0  0  0  0
   -6.2830    8.2890  -36.3860 C   0  0  1  0  0  0  0  0  0  0  0  0
   -5.3980    7.7430  -35.7710 O   0  0  0  0  0  0  0  0  0  0  0  0
   -7.7310    8.3810  -35.9230 R   0  0  0  0  0  0  0  0  0  0  0  0
  1  2  1  0
  2  3  1  0
  3  4  1  0
  4  5  1  0
  4  6  1  1
V    6 *
A    1
 C01
A    2
 C02
A    3
 O03
A    4
 C04
A    5
 O38
A    6
 X  
M  END
>  <XChem_code>  (25) 
XNV§6

>  <Occupancy>  (25) 
[0.69, 0.69, 0.69, 0.69, 0.69, 1.0]

>  <TempFactor>  (25) 
[53.57, 41.59, 23.74, 19.1, 19.72, 12.55]

>  <accession>  (25) 
3Q3Y_A

>  <description>  (25) 
Chain A, HEVB EV93 3C protease [Enterovirus B]

>  <evalue>  (25) 
1.14606e-87

>  <pdb_code>  (25) 
3Q3Y

>  <chain>  (25) 
A

>  <ligands>  (25) 
[{'chain_id': 'A', 'author_residue_number': 190, 'author_insertion_code': '', 'chem_comp_id': 'XNV', 'alternate_conformers': 2, 'entity_id': 2, 'struct_asym_id': 'C', 'residue_number': 1, 'chem_comp_name': 'ethyl (4R)-4-({(2S)-2-[3-{[(5-methyl-1,2-oxazol-3-yl)carbonyl]amino}-2-oxopyridin-1(2H)-yl]pent-4-ynoyl}amino)-5-[(3S)-2-oxopyrrolidin-3-yl]pentanoate', 'weight': 525.554, 'carbohydrate_polymer': False, 'branch_name': ''}, {'chain_id': 'B', 'author_residue_number': 190, 'author_insertion_code': '', 'chem_comp_id': 'XNV', 'alternate_conformers': 2, 'entity_id': 2, 'struct_asym_id': 'L', 'residue_number': 1, 'chem_comp_name': 'ethyl (4R)-4-({(2S)-2-[3-{[(5-methyl-1,2-oxazol-3-yl)carbonyl]amino}-2-oxopyridin-1(2H)-yl]pent-4-ynoyl}amino)-5-[(3S)-2-oxopyrrolidin-3-yl]pentanoate', 'weight': 525.554, 'carbohydrate_polymer': False, 'branch_name': ''}, {'chain_id': 'A', 'author_residue_number': 191, 'author_insertion_code': '', 'chem_comp_id': 'EDO', 'alternate_conformers': 2, 'entity_id': 3, 'struct_asym_id': 'D', 'residue_number': 1, 'chem_comp_name': '1,2-ETHANEDIOL', 'weight': 62.068, 'carbohydrate_polymer': False, 'branch_name': ''}, {'chain_id': 'A', 'author_residue_number': 192, 'author_insertion_code': '', 'chem_comp_id': 'EDO', 'alternate_conformers': 2, 'entity_id': 3, 'struct_asym_id': 'E', 'residue_number': 1, 'chem_comp_name': '1,2-ETHANEDIOL', 'weight': 62.068, 'carbohydrate_polymer': False, 'branch_name': ''}, {'chain_id': 'A', 'author_residue_number': 193, 'author_insertion_code': '', 'chem_comp_id': 'EDO', 'alternate_conformers': 0, 'entity_id': 3, 'struct_asym_id': 'F', 'residue_number': 1, 'chem_comp_name': '1,2-ETHANEDIOL', 'weight': 62.068, 'carbohydrate_polymer': False, 'branch_name': ''}, {'chain_id': 'A', 'author_residue_number': 194, 'author_insertion_code': '', 'chem_comp_id': 'EDO', 'alternate_conformers': 1, 'entity_id': 3, 'struct_asym_id': 'G', 'residue_number': 1, 'chem_comp_name': '1,2-ETHANEDIOL', 'weight': 62.068, 'carbohydrate_polymer': False, 'branch_name': ''}, {'chain_id': 'B', 'author_residue_number': 191, 'author_insertion_code': '', 'chem_comp_id': 'EDO', 'alternate_conformers': 2, 'entity_id': 3, 'struct_asym_id': 'M', 'residue_number': 1, 'chem_comp_name': '1,2-ETHANEDIOL', 'weight': 62.068, 'carbohydrate_polymer': False, 'branch_name': ''}, {'chain_id': 'B', 'author_residue_number': 192, 'author_insertion_code': '', 'chem_comp_id': 'EDO', 'alternate_conformers': 0, 'entity_id': 3, 'struct_asym_id': 'N', 'residue_number': 1, 'chem_comp_name': '1,2-ETHANEDIOL', 'weight': 62.068, 'carbohydrate_polymer': False, 'branch_name': ''}, {'chain_id': 'B', 'author_residue_number': 193, 'author_insertion_code': '', 'chem_comp_id': 'EDO', 'alternate_conformers': 2, 'entity_id': 3, 'struct_asym_id': 'O', 'residue_number': 1, 'chem_comp_name': '1,2-ETHANEDIOL', 'weight': 62.068, 'carbohydrate_polymer': False, 'branch_name': ''}, {'chain_id': 'B', 'author_residue_number': 194, 'author_insertion_code': '', 'chem_comp_id': 'EDO', 'alternate_conformers': 1, 'entity_id': 3, 'struct_asym_id': 'P', 'residue_number': 1, 'chem_comp_name': '1,2-ETHANEDIOL', 'weight': 62.068, 'carbohydrate_polymer': False, 'branch_name': ''}, {'chain_id': 'A', 'author_residue_number': 195, 'author_insertion_code': '', 'chem_comp_id': 'PI', 'alternate_conformers': 1, 'entity_id': 4, 'struct_asym_id': 'H', 'residue_number': 1, 'chem_comp_name': 'HYDROGENPHOSPHATE ION', 'weight': 95.979, 'carbohydrate_polymer': False, 'branch_name': ''}, {'chain_id': 'A', 'author_residue_number': 196, 'author_insertion_code': '', 'chem_comp_id': 'PI', 'alternate_conformers': 1, 'entity_id': 4, 'struct_asym_id': 'I', 'residue_number': 1, 'chem_comp_name': 'HYDROGENPHOSPHATE ION', 'weight': 95.979, 'carbohydrate_polymer': False, 'branch_name': ''}, {'chain_id': 'B', 'author_residue_number': 195, 'author_insertion_code': '', 'chem_comp_id': 'PI', 'alternate_conformers': 1, 'entity_id': 4, 'struct_asym_id': 'Q', 'residue_number': 1, 'chem_comp_name': 'HYDROGENPHOSPHATE ION', 'weight': 95.979, 'carbohydrate_polymer': False, 'branch_name': ''}, {'chain_id': 'A', 'author_residue_number': 197, 'author_insertion_code': '', 'chem_comp_id': 'NH4', 'alternate_conformers': 2, 'entity_id': 5, 'struct_asym_id': 'J', 'residue_number': 1, 'chem_comp_name': 'AMMONIUM ION', 'weight': 18.038, 'carbohydrate_polymer': False, 'branch_name': ''}, {'chain_id': 'A', 'author_residue_number': 198, 'author_insertion_code': '', 'chem_comp_id': 'NH4', 'alternate_conformers': 0, 'entity_id': 5, 'struct_asym_id': 'K', 'residue_number': 1, 'chem_comp_name': 'AMMONIUM ION', 'weight': 18.038, 'carbohydrate_polymer': False, 'branch_name': ''}]

>  <ligand_codes>  (25) 
['XNV', 'XNV', 'EDO', 'EDO', 'EDO', 'EDO', 'EDO', 'EDO', 'EDO', 'EDO', 'PI', 'PI', 'PI', 'NH4', 'NH4']

>  <cofactor_codes>  (25) 
[]

>  <has_cofactor>  (25) 
False

>  <covalent>  (25) 
True

>  <base_name>  (25) 
3Q3Y

>  <lig_resn>  (25) 
XNV

>  <lig_resi>  (25) 
190

>  <lig_chain>  (25) 
A

>  <lig_segi>  (25) 
C

>  <lig_alt>  (25) 
A

>  <polymer_chain>  (25) 
A

>  <single_smiles>  (25) 
CCOC(=O)CC[C@H](C[C@@H]1CCNC1=O)NC(=O)[C@H](CC#C)N2C=CC=C(NC(=O)c3cc(C)on3)C2=O

$$$$
G83P1
     RDKit          3D

 50 52  0  0  0  0  0  0  0  0999 V2000
   -9.7810   20.9510  -26.7880 C   0  0  0  0  0  0  0  0  0  0  0  0
   -6.4670   17.7660  -34.5460 O   0  0  0  0  0  0  0  0  0  0  0  0
   -9.6890   20.8420  -28.1960 C   0  0  0  0  0  0  0  0  0  0  0  0
   -5.3760   17.6500  -32.4930 O   0  0  0  0  0  0  0  0  0  0  0  0
   -5.3610   10.2030  -38.0740 C   0  0  0  0  0  0  0  0  0  0  0  0
  -10.4040   19.8340  -28.8340 C   0  0  0  0  0  0  0  0  0  0  0  0
   -4.5750    9.1110  -38.7950 C   0  0  0  0  0  0  0  0  0  0  0  0
  -11.1970   18.9310  -28.1220 C   0  0  0  0  0  0  0  0  0  0  0  0
  -13.4670   14.3010  -36.6620 C   0  0  0  0  0  0  0  0  0  0  0  0
  -11.3130   19.0390  -26.7440 C   0  0  0  0  0  0  0  0  0  0  0  0
  -13.4100   15.2640  -37.6860 C   0  0  0  0  0  0  0  0  0  0  0  0
  -10.5960   20.0640  -26.0750 C   0  0  0  0  0  0  0  0  0  0  0  0
  -12.1840   15.4150  -38.3560 C   0  0  0  0  0  0  0  0  0  0  0  0
   -3.6770   16.1600  -33.5370 C   0  0  0  0  0  0  0  0  0  0  0  0
  -10.3020   19.6950  -30.3210 C   0  0  0  0  0  0  0  0  0  0  0  0
   -6.3360   17.1850  -33.4620 C   0  0  0  0  0  0  0  0  0  0  0  0
   -9.9650   18.3270  -30.5810 O   0  0  0  0  0  0  0  0  0  0  0  0
   -9.6140   17.8180  -31.9050 C   0  0  0  0  0  0  0  0  0  0  0  0
   -9.9760   18.4340  -32.9180 O   0  0  0  0  0  0  0  0  0  0  0  0
   -8.9270   16.6710  -31.9560 N   0  0  0  0  0  0  0  0  0  0  0  0
   -8.5890   16.1350  -33.2460 C   0  0  1  0  0  0  0  0  0  0  0  0
   -7.0940   15.9700  -33.0860 C   0  0  0  0  0  0  0  0  0  0  0  0
   -4.0330   17.1570  -32.4230 C   0  0  0  0  0  0  0  0  0  0  0  0
   -9.0700   14.7310  -33.4520 C   0  0  0  0  0  0  0  0  0  0  0  0
   -9.2610   14.3500  -34.7310 N   0  0  0  0  0  0  0  0  0  0  0  0
   -9.1660   13.9920  -32.4630 O   0  0  0  0  0  0  0  0  0  0  0  0
   -9.6510   12.9770  -35.0820 C   0  0  2  0  0  0  0  0  0  0  0  0
   -8.4620   12.0930  -34.7840 C   0  0  0  0  0  0  0  0  0  0  0  0
   -9.8940   12.8970  -36.5940 C   0  0  0  0  0  0  0  0  0  0  0  0
   -3.9520   16.4650  -31.0680 C   0  0  0  0  0  0  0  0  0  0  0  0
   -3.0820   18.3540  -32.5240 C   0  0  0  0  0  0  0  0  0  0  0  0
   -7.3180   12.4750  -35.0590 O   0  0  0  0  0  0  0  0  0  0  0  0
   -8.7450   10.9170  -34.2200 N   0  0  0  0  0  0  0  0  0  0  0  0
  -11.1210   13.7000  -36.9770 C   0  0  0  0  0  0  0  0  0  0  0  0
  -12.3400   13.5180  -36.3250 C   0  0  0  0  0  0  0  0  0  0  0  0
  -11.0320   14.6580  -38.0030 C   0  0  0  0  0  0  0  0  0  0  0  0
   -7.7310    9.9410  -33.8290 C   0  0  1  0  0  0  0  0  0  0  0  0
   -7.6750    9.9230  -32.2970 C   0  0  0  0  0  0  0  0  0  0  0  0
   -7.2530   11.2580  -31.6380 C   0  0  1  0  0  0  0  0  0  0  0  0
   -8.1830    8.5770  -34.4040 C   0  0  2  0  0  0  0  0  0  0  0  0
   -7.1040   11.1020  -30.1450 C   0  0  0  0  0  0  0  0  0  0  0  0
   -7.8010   10.3100  -29.5070 O   0  0  0  0  0  0  0  0  0  0  0  0
   -6.2280   11.9150  -29.7100 N   0  0  0  0  0  0  0  0  0  0  0  0
   -5.4330   12.6240  -30.7080 C   0  0  0  0  0  0  0  0  0  0  0  0
   -5.9010   11.8850  -31.9840 C   0  0  0  0  0  0  0  0  0  0  0  0
   -8.1980    8.6230  -35.9360 C   0  0  0  0  0  0  0  0  0  0  0  0
   -6.8090    8.9220  -36.4600 C   0  0  0  0  0  0  0  0  0  0  0  0
   -6.6580    9.7290  -37.6550 O   0  0  0  0  0  0  0  0  0  0  0  0
   -5.8080    8.4980  -35.8980 O   0  0  0  0  0  0  0  0  0  0  0  0
   -9.8310    8.1200  -33.8380 R   0  0  0  0  0  0  0  0  0  0  0  0
  1  3  2  0
  1 12  1  0
  2 16  2  0
  3  6  1  0
  4 23  1  0
  4 16  1  0
  5  7  1  0
  5 48  1  0
  6  8  2  0
  6 15  1  0
  8 10  1  0
  9 11  2  0
  9 35  1  0
 10 12  2  0
 11 13  1  0
 13 36  2  0
 23 14  1  0
 15 17  1  0
 16 22  1  0
 17 18  1  0
 18 20  1  0
 18 19  2  0
 20 21  1  0
 21 22  1  1
 21 24  1  0
 23 30  1  0
 23 31  1  0
 24 25  1  0
 24 26  2  0
 25 27  1  0
 27 28  1  0
 27 29  1  6
 28 32  2  0
 28 33  1  0
 29 34  1  0
 33 37  1  0
 34 35  2  0
 34 36  1  0
 37 38  1  1
 37 40  1  0
 39 38  1  6
 39 41  1  0
 39 45  1  0
 40 46  1  0
 40 50  1  1
 41 42  2  0
 41 43  1  0
 43 44  1  0
 44 45  1  0
 46 47  1  0
 47 48  1  0
 47 49  2  0
V   50 *
A    1
 C1 
A    2
 O1 
A    3
 C2 
A    4
 O2 
A    5
 C3 
A    6
 C4 
A    7
 C5 
A    8
 C6 
A    9
 C7 
A   10
 C8 
A   11
 C9 
A   12
 C10
A   13
 C11
A   14
 C12
A   15
 C13
A   16
 C14
A   17
 O15
A   18
 C17
A   19
 O19
A   20
 N21
A   21
 C23
A   22
 C25
A   23
 C29
A   24
 C31
A   25
 N33
A   26
 O35
A   27
 C37
A   28
 C39
A   29
 C41
A   30
 C43
A   31
 C45
A   32
 O47
A   33
 N49
A   34
 C51
A   35
 C53
A   36
 C55
A   37
 C57
A   38
 C59
A   39
 C61
A   40
 C63
A   41
 C65
A   42
 O66
A   43
 N69
A   44
 C71
A   45
 C73
A   46
 C82
A   47
 C84
A   48
 O86
A   49
 O88
A   50
 X  
M  END
>  <XChem_code>  (26) 
G83§1

>  <Occupancy>  (26) 
[1.0, 1.0, 1.0, 1.0, 1.0, 1.0, 1.0, 1.0, 1.0, 1.0, 1.0, 1.0, 1.0, 1.0, 1.0, 1.0, 1.0, 1.0, 1.0, 1.0, 1.0, 1.0, 1.0, 1.0, 1.0, 1.0, 1.0, 1.0, 1.0, 1.0, 1.0, 1.0, 1.0, 1.0, 1.0, 1.0, 1.0, 1.0, 1.0, 1.0, 1.0, 1.0, 1.0, 1.0, 1.0, 1.0, 1.0, 1.0, 1.0, 1.0]

>  <TempFactor>  (26) 
[21.5, 44.89, 24.36, 42.16, 38.25, 23.95, 40.64, 20.41, 29.29, 22.5, 27.31, 23.15, 28.56, 41.84, 29.6, 38.53, 33.37, 31.58, 30.86, 27.88, 28.97, 31.52, 43.05, 27.66, 27.42, 21.95, 25.67, 24.02, 25.01, 43.36, 43.87, 19.31, 17.05, 26.62, 26.73, 28.95, 20.4, 17.34, 20.74, 21.57, 21.69, 20.06, 20.47, 18.67, 21.64, 27.5, 29.51, 35.17, 31.37, 18.86]

>  <accession>  (26) 
3ZZC_A

>  <description>  (26) 
Chain A, 3C PROTEINASE [Coxsackievirus B3]

>  <evalue>  (26) 
7.48654e-87

>  <pdb_code>  (26) 
3ZZC

>  <chain>  (26) 
A

>  <ligands>  (26) 
[{'chain_id': 'A', 'author_residue_number': 1181, 'author_insertion_code': '', 'chem_comp_id': 'G83', 'alternate_conformers': 0, 'entity_id': 2, 'struct_asym_id': 'B', 'residue_number': 1, 'chem_comp_name': 'ETHYL (5S,8S,11R)-8-BENZYL-5-(2-TERT-BUTOXY-2-OXOETHYL)-3,6,9-TRIOXO-11-{[(3S)-2-OXOPYRROLIDIN-3-YL]METHYL}-1-PHENYL-2-OXA-4,7,10-TRIAZATETRADECAN-14-OATE', 'weight': 680.788, 'carbohydrate_polymer': False, 'branch_name': ''}]

>  <ligand_codes>  (26) 
['G83']

>  <cofactor_codes>  (26) 
[]

>  <has_cofactor>  (26) 
False

>  <covalent>  (26) 
True

>  <base_name>  (26) 
3ZZC

>  <lig_resn>  (26) 
G83

>  <lig_resi>  (26) 
1181

>  <lig_chain>  (26) 
A

>  <lig_segi>  (26) 
B

>  <lig_alt>  (26) 


>  <polymer_chain>  (26) 
A

>  <single_smiles>  (26) 
CCOC(=O)CC[C@H](C[C@@H]1CCNC1=O)NC(=O)[C@H](Cc2ccccc2)NC(=O)[C@H](CC(=O)OC(C)(C)C)NC(=O)OCc3ccccc3

$$$$
E22P1
     RDKit          3D

 35 37  0  0  0  0  0  0  0  0999 V2000
   -9.9190   12.9430  -35.2650 C   0  0  1  0  0  0  0  0  0  0  0  0
   -9.5160   14.2860  -34.9670 N   0  0  0  0  0  0  0  0  0  0  0  0
   -7.7360   12.1130  -35.7460 O   0  0  0  0  0  0  0  0  0  0  0  0
  -10.4120   12.8110  -36.6940 C   0  0  0  0  0  0  0  0  0  0  0  0
   -6.6380    6.9450  -34.6150 N   0  0  0  0  0  0  0  0  0  0  0  0
   -9.3150   13.9250  -32.7120 O   0  0  0  0  0  0  0  0  0  0  0  0
   -8.7700   11.9720  -35.1380 C   0  0  0  0  0  0  0  0  0  0  0  0
   -8.8710   10.8540  -34.2980 N   0  0  0  0  0  0  0  0  0  0  0  0
   -7.8270    9.3530  -36.4740 O   0  0  0  0  0  0  0  0  0  0  0  0
   -9.1480   20.8220  -30.9950 C   0  0  0  0  0  0  0  0  0  0  0  0
   -6.1930   11.9110  -29.6060 N   0  0  0  0  0  0  0  0  0  0  0  0
   -7.6220    9.9280  -29.8110 O   0  0  0  0  0  0  0  0  0  0  0  0
   -9.2290   14.7180  -33.6340 C   0  0  0  0  0  0  0  0  0  0  0  0
   -5.5830   13.0950  -31.6740 C   0  0  0  0  0  0  0  0  0  0  0  0
  -11.6540   13.6210  -36.9560 C   0  0  0  0  0  0  0  0  0  0  0  0
  -10.4320   20.2770  -30.9840 C   0  0  0  0  0  0  0  0  0  0  0  0
   -8.8010   16.1560  -33.3590 C   0  0  0  0  0  0  0  0  0  0  0  0
   -8.1180   20.1680  -31.6780 C   0  0  0  0  0  0  0  0  0  0  0  0
   -7.7760   10.0440  -34.2160 C   0  0  1  0  0  0  0  0  0  0  0  0
  -11.6660   14.5500  -37.9930 C   0  0  0  0  0  0  0  0  0  0  0  0
   -6.1370   11.9120  -32.4520 C   0  0  0  0  0  0  0  0  0  0  0  0
  -10.6660   19.0760  -31.6610 C   0  0  0  0  0  0  0  0  0  0  0  0
   -7.0220   10.9800  -30.3480 C   0  0  0  0  0  0  0  0  0  0  0  0
   -9.9570   17.1090  -33.0820 C   0  0  0  0  0  0  0  0  0  0  0  0
   -7.5860    9.9340  -32.5820 C   0  0  0  0  0  0  0  0  0  0  0  0
  -12.7700   13.4400  -36.1440 C   0  0  0  0  0  0  0  0  0  0  0  0
   -7.2430    7.7760  -34.8330 C   0  0  0  0  0  0  0  0  0  0  0  0
  -13.9340   15.1220  -37.4080 C   0  0  0  0  0  0  0  0  0  0  0  0
   -9.6410   18.4120  -32.3490 C   0  0  0  0  0  0  0  0  0  0  0  0
  -12.8090   15.3130  -38.2220 C   0  0  0  0  0  0  0  0  0  0  0  0
  -13.9210   14.1890  -36.3740 C   0  0  0  0  0  0  0  0  0  0  0  0
   -8.0510    8.9360  -35.1760 C   0  0  2  0  0  0  0  0  0  0  0  0
   -7.1210   11.2530  -31.8690 C   0  0  2  0  0  0  0  0  0  0  0  0
   -8.3610   18.9710  -32.3500 C   0  0  0  0  0  0  0  0  0  0  0  0
   -5.1120   12.6510  -30.2840 C   0  0  0  0  0  0  0  0  0  0  0  0
  1  4  1  6
  1  7  1  0
  1  2  1  0
  2 13  1  0
  3  7  2  0
  4 15  1  0
  5 27  3  0
  6 13  2  0
  7  8  1  0
  8 19  1  0
 32  9  1  6
 10 18  2  0
 10 16  1  0
 11 23  1  0
 11 35  1  0
 12 23  2  0
 13 17  1  0
 14 21  1  0
 14 35  1  0
 15 20  2  0
 15 26  1  0
 16 22  2  0
 17 24  2  3
 18 34  1  0
 19 25  1  1
 19 32  1  0
 20 30  1  0
 21 33  1  0
 22 29  1  0
 23 33  1  0
 24 29  1  0
 33 25  1  6
 26 31  2  0
 27 32  1  0
 28 30  2  0
 28 31  1  0
 29 34  2  0
A    1
 C1 
A    2
 N1 
A    3
 O1 
A    4
 C2 
A    5
 N2 
A    6
 O2 
A    7
 C3 
A    8
 N3 
A    9
 O3 
A   10
 C4 
A   11
 N4 
A   12
 O4 
A   13
 C5 
A   14
 C6 
A   15
 C7 
A   16
 C8 
A   17
 C9 
A   18
 C10
A   19
 C11
A   20
 C12
A   21
 C13
A   22
 C14
A   23
 C15
A   24
 C16
A   25
 C17
A   26
 C18
A   27
 C19
A   28
 C20
A   29
 C21
A   30
 C22
A   31
 C23
A   32
 C24
A   33
 C25
A   34
 C26
A   35
 C27
M  END
>  <XChem_code>  (27) 
E22§1

>  <Occupancy>  (27) 
[1.0, 1.0, 1.0, 1.0, 1.0, 1.0, 1.0, 1.0, 1.0, 1.0, 1.0, 1.0, 1.0, 1.0, 1.0, 1.0, 1.0, 1.0, 1.0, 1.0, 1.0, 1.0, 1.0, 1.0, 1.0, 1.0, 1.0, 1.0, 1.0, 1.0, 1.0, 1.0, 1.0, 1.0, 1.0]

>  <TempFactor>  (27) 
[44.77, 46.95, 43.33, 43.58, 47.51, 47.9, 43.96, 46.53, 46.69, 77.84, 47.13, 39.22, 49.9, 43.36, 42.16, 75.89, 55.22, 72.09, 44.14, 43.03, 43.28, 76.01, 44.2, 62.42, 42.91, 44.07, 47.42, 45.41, 69.71, 44.62, 43.66, 46.14, 44.31, 70.66, 44.24]

>  <accession>  (27) 
5BPE_A

>  <description>  (27) 
Chain A, EV71 3Cpro [Enterovirus A71]

>  <evalue>  (27) 
1.30231e-85

>  <pdb_code>  (27) 
5BPE

>  <chain>  (27) 
A

>  <ligands>  (27) 
[{'chain_id': 'A', 'author_residue_number': 201, 'author_insertion_code': '', 'chem_comp_id': 'E22', 'alternate_conformers': 0, 'entity_id': 2, 'struct_asym_id': 'B', 'residue_number': 1, 'chem_comp_name': '(2~{S})-~{N}-[(1~{R},2~{S})-1-cyano-1-oxidanyl-3-[(3~{S})-2-oxidanylidenepiperidin-3-yl]propan-2-yl]-3-phenyl-2-[[(~{E})-3-phenylprop-2-enoyl]amino]propanamide', 'weight': 474.552, 'carbohydrate_polymer': False, 'branch_name': ''}]

>  <ligand_codes>  (27) 
['E22']

>  <cofactor_codes>  (27) 
[]

>  <has_cofactor>  (27) 
False

>  <covalent>  (27) 
False

>  <base_name>  (27) 
5BPE

>  <lig_resn>  (27) 
E22

>  <lig_resi>  (27) 
201

>  <lig_chain>  (27) 
A

>  <lig_segi>  (27) 
B

>  <lig_alt>  (27) 


>  <polymer_chain>  (27) 
A

>  <single_smiles>  (27) 
O[C@@H](C#N)[C@H](C[C@@H]1CCCNC1=O)NC(=O)[C@H](Cc2ccccc2)NC(=O)\C=C\c3ccccc3

$$$$
K36P1
     RDKit          3D

 30 31  0  0  0  0  0  0  0  0999 V2000
   -8.9700   17.5750  -31.0090 C   0  0  0  0  0  0  0  0  0  0  0  0
  -10.0590   16.9670  -30.4140 C   0  0  0  0  0  0  0  0  0  0  0  0
  -10.8920   17.7010  -29.5780 C   0  0  0  0  0  0  0  0  0  0  0  0
  -10.6400   19.0530  -29.3700 C   0  0  0  0  0  0  0  0  0  0  0  0
   -9.5570   19.6690  -29.9800 C   0  0  0  0  0  0  0  0  0  0  0  0
   -8.7130   18.9270  -30.8020 C   0  0  0  0  0  0  0  0  0  0  0  0
   -8.0750   16.7460  -31.8990 C   0  0  0  0  0  0  0  0  0  0  0  0
   -8.7990   16.3920  -33.0860 O   0  0  0  0  0  0  0  0  0  0  0  0
   -9.2260   15.0230  -33.2570 C   0  0  0  0  0  0  0  0  0  0  0  0
   -9.1610   14.2130  -32.3370 O   0  0  0  0  0  0  0  0  0  0  0  0
   -9.7150   14.7080  -34.4900 N   0  0  0  0  0  0  0  0  0  0  0  0
   -9.8030   13.3470  -35.0110 C   0  0  1  0  0  0  0  0  0  0  0  0
  -10.5080   13.1720  -36.3590 C   0  0  0  0  0  0  0  0  0  0  0  0
  -11.7110   14.0930  -36.5420 C   0  0  0  0  0  0  0  0  0  0  0  0
  -11.9690   14.3320  -38.0230 C   0  0  0  0  0  0  0  0  0  0  0  0
  -12.9410   13.5180  -35.8720 C   0  0  0  0  0  0  0  0  0  0  0  0
   -8.7060   12.3590  -34.7330 C   0  0  2  0  0  0  0  0  0  0  0  0
   -7.5560   12.6800  -35.0200 O   0  0  0  0  0  0  0  0  0  0  0  0
   -9.0120   11.1150  -34.2520 N   0  0  0  0  0  0  0  0  0  0  0  0
   -7.9480   10.1300  -33.9570 C   0  0  2  0  0  0  0  0  0  0  0  0
   -8.2670    8.7510  -34.5240 C   0  0  2  0  0  0  0  0  0  0  0  0
   -8.3190    8.8070  -35.9490 O   0  0  0  0  0  0  0  0  0  0  0  0
   -7.8060    9.9810  -32.4450 C   0  0  0  0  0  0  0  0  0  0  0  0
   -7.3520   11.2620  -31.7920 C   0  0  2  0  0  0  0  0  0  0  0  0
   -5.9980   11.7790  -32.2540 C   0  0  0  0  0  0  0  0  0  0  0  0
   -5.3830   12.4060  -31.0100 C   0  0  0  0  0  0  0  0  0  0  0  0
   -6.0060   11.7100  -29.8810 N   0  0  0  0  0  0  0  0  0  0  0  0
   -7.1020   11.0560  -30.3450 C   0  0  0  0  0  0  0  0  0  0  0  0
   -7.7710   10.3460  -29.6020 O   0  0  0  0  0  0  0  0  0  0  0  0
  -10.0160    8.3280  -33.9520 R   0  0  0  0  0  0  0  0  0  0  0  0
  1  2  1  0
  1  6  1  0
  1  7  1  0
  2  3  1  0
  3  4  1  0
  4  5  1  0
  5  6  1  0
  7  8  1  0
  8  9  1  0
  9 10  1  0
  9 11  1  0
 11 12  1  0
 12 13  1  6
 12 17  1  0
 13 14  1  0
 14 15  1  0
 14 16  1  0
 17 18  1  6
 17 19  1  0
 19 20  1  0
 20 21  1  0
 20 23  1  1
 21 22  1  0
 21 30  1  1
 24 23  1  6
 24 25  1  0
 24 28  1  0
 25 26  1  0
 26 27  1  0
 27 28  1  0
 28 29  1  0
V   30 *
A    1
 C1 
A    2
 C2 
A    3
 C3 
A    4
 C4 
A    5
 C5 
A    6
 C6 
A    7
 C7 
A    8
 O8 
A    9
 C9 
A   10
 O10
A   11
 N11
A   12
 C12
A   13
 C13
A   14
 C14
A   15
 C15
A   16
 C16
A   17
 C17
A   18
 O18
A   19
 N19
A   20
 C20
A   21
 C21
A   22
 O22
A   23
 C24
A   24
 C25
A   25
 C26
A   26
 C27
A   27
 N28
A   28
 C29
A   29
 O30
A   30
 X  
M  END
>  <XChem_code>  (28) 
K36§1

>  <Occupancy>  (28) 
[1.0, 1.0, 1.0, 1.0, 1.0, 1.0, 1.0, 1.0, 1.0, 1.0, 1.0, 1.0, 1.0, 1.0, 1.0, 1.0, 1.0, 1.0, 1.0, 1.0, 1.0, 1.0, 1.0, 1.0, 1.0, 1.0, 1.0, 1.0, 1.0, 1.0]

>  <TempFactor>  (28) 
[30.71, 25.76, 25.55, 30.93, 32.73, 33.09, 29.57, 27.45, 21.78, 20.1, 18.64, 16.74, 17.68, 18.03, 20.27, 18.93, 19.19, 22.15, 19.34, 15.88, 17.48, 19.25, 14.06, 14.56, 14.66, 16.75, 19.27, 15.98, 17.08, 17.2]

>  <accession>  (28) 
4DCD_A

>  <description>  (28) 
Chain A, Genome polyprotein [Human poliovirus 1 Mahoney]

>  <evalue>  (28) 
1.35829e-82

>  <pdb_code>  (28) 
4DCD

>  <chain>  (28) 
A

>  <ligands>  (28) 
[{'chain_id': 'A', 'author_residue_number': 201, 'author_insertion_code': '', 'chem_comp_id': 'DTT', 'alternate_conformers': 0, 'entity_id': 2, 'struct_asym_id': 'B', 'residue_number': 1, 'chem_comp_name': '2,3-DIHYDROXY-1,4-DITHIOBUTANE', 'weight': 154.251, 'carbohydrate_polymer': False, 'branch_name': ''}, {'chain_id': 'A', 'author_residue_number': 202, 'author_insertion_code': '', 'chem_comp_id': 'K36', 'alternate_conformers': 0, 'entity_id': 3, 'struct_asym_id': 'C', 'residue_number': 1, 'chem_comp_name': '(1S,2S)-2-({N-[(benzyloxy)carbonyl]-L-leucyl}amino)-1-hydroxy-3-[(3S)-2-oxopyrrolidin-3-yl]propane-1-sulfonic acid', 'weight': 485.551, 'carbohydrate_polymer': False, 'branch_name': ''}, {'chain_id': 'A', 'author_residue_number': 203, 'author_insertion_code': '', 'chem_comp_id': 'SO4', 'alternate_conformers': 0, 'entity_id': 4, 'struct_asym_id': 'D', 'residue_number': 1, 'chem_comp_name': 'SULFATE ION', 'weight': 96.063, 'carbohydrate_polymer': False, 'branch_name': ''}, {'chain_id': 'A', 'author_residue_number': 204, 'author_insertion_code': '', 'chem_comp_id': 'SO4', 'alternate_conformers': 0, 'entity_id': 4, 'struct_asym_id': 'E', 'residue_number': 1, 'chem_comp_name': 'SULFATE ION', 'weight': 96.063, 'carbohydrate_polymer': False, 'branch_name': ''}]

>  <ligand_codes>  (28) 
['DTT', 'K36', 'SO4', 'SO4']

>  <cofactor_codes>  (28) 
[]

>  <has_cofactor>  (28) 
False

>  <covalent>  (28) 
True

>  <base_name>  (28) 
4DCD

>  <lig_resn>  (28) 
K36

>  <lig_resi>  (28) 
202

>  <lig_chain>  (28) 
A

>  <lig_segi>  (28) 
C

>  <lig_alt>  (28) 


>  <polymer_chain>  (28) 
A

>  <single_smiles>  (28) 
CC(C)C[C@H](NC(=O)OCc1ccccc1)C(=O)N[C@@H](C[C@@H]2CCNC2=O)[C@@H](O)[S](O)(=O)=O

$$$$
AG7P8
     RDKit          3D

 44 46  0  0  0  0  0  0  0  0999 V2000
   -8.7340   14.8750  -33.6330 C   0  0  0  0  0  0  0  0  0  0  0  0
  -10.1690   17.8670  -30.1510 C   0  0  0  0  0  0  0  0  0  0  0  0
   -9.1250   14.5600  -35.0710 C   0  0  0  0  0  0  0  0  0  0  0  0
  -11.1420   18.9430  -29.6030 C   0  0  0  0  0  0  0  0  0  0  0  0
  -11.1970   18.7860  -28.1620 C   0  0  0  0  0  0  0  0  0  0  0  0
   -8.9120   14.0500  -32.7640 O   0  0  0  0  0  0  0  0  0  0  0  0
   -9.2650   13.0870  -35.4210 C   0  0  1  0  0  0  0  0  0  0  0  0
  -12.0110   19.6150  -27.2080 C   0  0  0  0  0  0  0  0  0  0  0  0
  -10.3350   17.7020  -27.7930 O   0  0  0  0  0  0  0  0  0  0  0  0
   -9.4060   12.8260  -36.9090 C   0  0  0  0  0  0  0  0  0  0  0  0
   -9.7110   17.1440  -29.0800 N   0  0  0  0  0  0  0  0  0  0  0  0
  -10.4680   13.6500  -37.5900 C   0  0  0  0  0  0  0  0  0  0  0  0
  -11.8920   13.3740  -37.3060 C   0  0  0  0  0  0  0  0  0  0  0  0
  -12.9410   14.1870  -37.9670 C   0  0  0  0  0  0  0  0  0  0  0  0
  -12.5760   15.2200  -38.8370 C   0  0  0  0  0  0  0  0  0  0  0  0
  -11.1310   15.5040  -39.1190 C   0  0  0  0  0  0  0  0  0  0  0  0
  -10.0960   14.6950  -38.4660 C   0  0  0  0  0  0  0  0  0  0  0  0
   -8.6690   10.9670  -34.0900 N   0  0  0  0  0  0  0  0  0  0  0  0
   -7.6950    9.9410  -33.7020 C   0  0  1  0  0  0  0  0  0  0  0  0
   -7.5680    9.8350  -32.1900 C   0  0  0  0  0  0  0  0  0  0  0  0
   -7.0030   11.1120  -31.5690 C   0  0  1  0  0  0  0  0  0  0  0  0
   -7.1160   11.2790  -30.0480 C   0  0  0  0  0  0  0  0  0  0  0  0
   -5.8140   11.8640  -29.5400 N   0  0  0  0  0  0  0  0  0  0  0  0
   -7.7570   10.3380  -29.3000 O   0  0  0  0  0  0  0  0  0  0  0  0
   -7.9440    8.6270  -34.4090 C   0  0  2  0  0  0  0  0  0  0  0  0
   -7.6890    8.6920  -35.9030 C   0  0  0  0  0  0  0  0  0  0  0  0
   -6.2280    8.9610  -36.2420 C   0  0  0  0  0  0  0  0  0  0  0  0
   -5.9130    9.9450  -37.0170 O   0  0  0  0  0  0  0  0  0  0  0  0
   -5.3400    8.4630  -35.5080 O   0  0  0  0  0  0  0  0  0  0  0  0
   -8.2190   12.1920  -34.7470 C   0  0  0  0  0  0  0  0  0  0  0  0
   -7.0310   12.4100  -34.8930 O   0  0  0  0  0  0  0  0  0  0  0  0
   -4.5540   10.2290  -37.2100 C   0  0  0  0  0  0  0  0  0  0  0  0
   -4.2040   11.6040  -37.7340 C   0  0  0  0  0  0  0  0  0  0  0  0
   -8.3660   16.3160  -33.2440 C   0  0  1  0  0  0  0  0  0  0  0  0
   -8.7350   16.6450  -31.8730 N   0  0  0  0  0  0  0  0  0  0  0  0
   -9.7620   17.6260  -31.5940 C   0  0  0  0  0  0  0  0  0  0  0  0
  -10.2070   18.3220  -32.4960 O   0  0  0  0  0  0  0  0  0  0  0  0
   -6.9450   16.7440  -33.5590 C   0  0  0  0  0  0  0  0  0  0  0  0
   -6.7430   18.1960  -33.2420 C   0  0  0  0  0  0  0  0  0  0  0  0
   -5.9160   15.8690  -32.9170 C   0  0  0  0  0  0  0  0  0  0  0  0
   -5.1080   12.3840  -30.7640 C   0  0  0  0  0  0  0  0  0  0  0  0
   -5.6150   11.5640  -31.9570 C   0  0  0  0  0  0  0  0  0  0  0  0
   -9.6990    8.3690  -34.0940 R   0  0  0  0  0  0  0  0  0  0  0  0
  -13.5230   15.9340  -39.4430 F   0  0  0  0  0  0  0  0  0  0  0  0
  1  3  1  0
  1  6  2  0
  1 34  1  0
  2  4  1  0
  2 11  2  0
  2 36  1  0
  7  3  1  6
  4  5  2  0
  5  8  1  0
  5  9  1  0
  7 10  1  0
  7 30  1  0
  9 11  1  0
 10 12  1  0
 12 13  2  0
 12 17  1  0
 13 14  1  0
 14 15  2  0
 15 16  1  0
 15 44  1  0
 16 17  2  0
 18 19  1  0
 18 30  1  0
 19 20  1  1
 19 25  1  0
 21 20  1  1
 21 22  1  0
 21 42  1  0
 22 23  1  0
 22 24  2  0
 23 41  1  0
 25 26  1  0
 25 43  1  6
 26 27  1  0
 27 28  1  0
 27 29  2  0
 28 32  1  0
 30 31  2  0
 32 33  1  0
 34 35  1  1
 34 38  1  0
 35 36  1  0
 36 37  2  0
 38 39  1  0
 38 40  1  0
 41 42  1  0
V   43 *
A    1
 C01
A    2
 C1 
A    3
 C02
A    4
 C2 
A    5
 C3 
A    6
 O03
A    7
 C04
A    8
 C4 
A    9
 O4 
A   10
 C05
A   11
 N5 
A   12
 C06
A   13
 C07
A   14
 C08
A   15
 C09
A   16
 C10
A   17
 C11
A   18
 N12
A   19
 C13
A   20
 C14
A   21
 C15
A   22
 C16
A   23
 N17
A   24
 O18
A   25
 C19
A   26
 C20
A   27
 C21
A   28
 O22
A   29
 O23
A   30
 C47
A   31
 O48
A   32
 C50
A   33
 C53
A   34
 C57
A   35
 N58
A   36
 C59
A   37
 O60
A   38
 C78
A   39
 C81
A   40
 C82
A   41
 C83
A   42
 C84
A   43
 X  
A   44
 F1 
M  END
>  <XChem_code>  (29) 
AG7§8

>  <Occupancy>  (29) 
[1.0, 1.0, 1.0, 1.0, 1.0, 1.0, 1.0, 1.0, 1.0, 1.0, 1.0, 1.0, 1.0, 1.0, 1.0, 1.0, 1.0, 1.0, 1.0, 1.0, 1.0, 1.0, 1.0, 1.0, 1.0, 1.0, 1.0, 1.0, 1.0, 1.0, 1.0, 1.0, 1.0, 1.0, 1.0, 1.0, 1.0, 1.0, 1.0, 1.0, 1.0, 1.0, 1.0, 1.0]

>  <TempFactor>  (29) 
[18.81, 27.66, 18.42, 28.47, 31.3, 19.86, 18.0, 36.49, 33.82, 16.63, 29.4, 22.13, 22.68, 21.54, 23.87, 26.44, 24.22, 19.0, 15.21, 18.33, 16.27, 19.18, 19.0, 17.13, 14.73, 16.04, 18.83, 23.76, 19.63, 17.66, 18.54, 25.52, 26.09, 23.51, 21.61, 23.49, 26.81, 22.53, 27.37, 21.38, 21.53, 22.61, 16.29, 28.88]

>  <accession>  (29) 
3SJO_A

>  <description>  (29) 
Chain A, 3C protease [Enterovirus A71]

>  <evalue>  (29) 
1.0179e-70

>  <pdb_code>  (29) 
3SJO

>  <chain>  (29) 
A

>  <ligands>  (29) 
[{'chain_id': 'A', 'author_residue_number': 501, 'author_insertion_code': '', 'chem_comp_id': 'AG7', 'alternate_conformers': 0, 'entity_id': 2, 'struct_asym_id': 'I', 'residue_number': 1, 'chem_comp_name': '4-{2-(4-FLUORO-BENZYL)-6-METHYL-5-[(5-METHYL-ISOXAZOLE-3-CARBONYL)-AMINO]-4-OXO-HEPTANOYLAMINO}-5-(2-OXO-PYRROLIDIN-3-YL)-PENTANOIC ACID ETHYL ESTER', 'weight': 600.678, 'carbohydrate_polymer': False, 'branch_name': ''}, {'chain_id': 'B', 'author_residue_number': 501, 'author_insertion_code': '', 'chem_comp_id': 'AG7', 'alternate_conformers': 0, 'entity_id': 2, 'struct_asym_id': 'J', 'residue_number': 1, 'chem_comp_name': '4-{2-(4-FLUORO-BENZYL)-6-METHYL-5-[(5-METHYL-ISOXAZOLE-3-CARBONYL)-AMINO]-4-OXO-HEPTANOYLAMINO}-5-(2-OXO-PYRROLIDIN-3-YL)-PENTANOIC ACID ETHYL ESTER', 'weight': 600.678, 'carbohydrate_polymer': False, 'branch_name': ''}, {'chain_id': 'C', 'author_residue_number': 501, 'author_insertion_code': '', 'chem_comp_id': 'AG7', 'alternate_conformers': 0, 'entity_id': 2, 'struct_asym_id': 'K', 'residue_number': 1, 'chem_comp_name': '4-{2-(4-FLUORO-BENZYL)-6-METHYL-5-[(5-METHYL-ISOXAZOLE-3-CARBONYL)-AMINO]-4-OXO-HEPTANOYLAMINO}-5-(2-OXO-PYRROLIDIN-3-YL)-PENTANOIC ACID ETHYL ESTER', 'weight': 600.678, 'carbohydrate_polymer': False, 'branch_name': ''}, {'chain_id': 'D', 'author_residue_number': 501, 'author_insertion_code': '', 'chem_comp_id': 'AG7', 'alternate_conformers': 0, 'entity_id': 2, 'struct_asym_id': 'L', 'residue_number': 1, 'chem_comp_name': '4-{2-(4-FLUORO-BENZYL)-6-METHYL-5-[(5-METHYL-ISOXAZOLE-3-CARBONYL)-AMINO]-4-OXO-HEPTANOYLAMINO}-5-(2-OXO-PYRROLIDIN-3-YL)-PENTANOIC ACID ETHYL ESTER', 'weight': 600.678, 'carbohydrate_polymer': False, 'branch_name': ''}, {'chain_id': 'E', 'author_residue_number': 501, 'author_insertion_code': '', 'chem_comp_id': 'AG7', 'alternate_conformers': 0, 'entity_id': 2, 'struct_asym_id': 'M', 'residue_number': 1, 'chem_comp_name': '4-{2-(4-FLUORO-BENZYL)-6-METHYL-5-[(5-METHYL-ISOXAZOLE-3-CARBONYL)-AMINO]-4-OXO-HEPTANOYLAMINO}-5-(2-OXO-PYRROLIDIN-3-YL)-PENTANOIC ACID ETHYL ESTER', 'weight': 600.678, 'carbohydrate_polymer': False, 'branch_name': ''}, {'chain_id': 'F', 'author_residue_number': 501, 'author_insertion_code': '', 'chem_comp_id': 'AG7', 'alternate_conformers': 0, 'entity_id': 2, 'struct_asym_id': 'N', 'residue_number': 1, 'chem_comp_name': '4-{2-(4-FLUORO-BENZYL)-6-METHYL-5-[(5-METHYL-ISOXAZOLE-3-CARBONYL)-AMINO]-4-OXO-HEPTANOYLAMINO}-5-(2-OXO-PYRROLIDIN-3-YL)-PENTANOIC ACID ETHYL ESTER', 'weight': 600.678, 'carbohydrate_polymer': False, 'branch_name': ''}, {'chain_id': 'G', 'author_residue_number': 501, 'author_insertion_code': '', 'chem_comp_id': 'AG7', 'alternate_conformers': 0, 'entity_id': 2, 'struct_asym_id': 'O', 'residue_number': 1, 'chem_comp_name': '4-{2-(4-FLUORO-BENZYL)-6-METHYL-5-[(5-METHYL-ISOXAZOLE-3-CARBONYL)-AMINO]-4-OXO-HEPTANOYLAMINO}-5-(2-OXO-PYRROLIDIN-3-YL)-PENTANOIC ACID ETHYL ESTER', 'weight': 600.678, 'carbohydrate_polymer': False, 'branch_name': ''}, {'chain_id': 'H', 'author_residue_number': 501, 'author_insertion_code': '', 'chem_comp_id': 'AG7', 'alternate_conformers': 0, 'entity_id': 2, 'struct_asym_id': 'P', 'residue_number': 1, 'chem_comp_name': '4-{2-(4-FLUORO-BENZYL)-6-METHYL-5-[(5-METHYL-ISOXAZOLE-3-CARBONYL)-AMINO]-4-OXO-HEPTANOYLAMINO}-5-(2-OXO-PYRROLIDIN-3-YL)-PENTANOIC ACID ETHYL ESTER', 'weight': 600.678, 'carbohydrate_polymer': False, 'branch_name': ''}]

>  <ligand_codes>  (29) 
['AG7', 'AG7', 'AG7', 'AG7', 'AG7', 'AG7', 'AG7', 'AG7']

>  <cofactor_codes>  (29) 
[]

>  <has_cofactor>  (29) 
False

>  <covalent>  (29) 
True

>  <base_name>  (29) 
3SJO

>  <lig_resn>  (29) 
AG7

>  <lig_resi>  (29) 
501

>  <lig_chain>  (29) 
A

>  <lig_segi>  (29) 
I

>  <lig_alt>  (29) 


>  <polymer_chain>  (29) 
A

>  <single_smiles>  (29) 
CCOC(=O)CC[C@H](C[C@@H]1CCNC1=O)NC(=O)[C@@H](CC(=O)[C@@H](NC(=O)c2cc(C)on2)C(C)C)Cc3ccc(F)cc3

$$$$
5E9P1
     RDKit          3D

 36 37  0  0  0  0  0  0  0  0999 V2000
   -8.6860   11.0770  -34.0170 N   0  0  0  0  0  0  0  0  0  0  0  0
   -8.6810   15.0160  -33.2280 C   0  0  0  0  0  0  0  0  0  0  0  0
   -8.6940   14.1780  -32.3210 O   0  0  0  0  0  0  0  0  0  0  0  0
   -5.8400   11.7270  -29.4300 N   0  0  0  0  0  0  0  0  0  0  0  0
   -7.6850   10.3310  -29.2400 O   0  0  0  0  0  0  0  0  0  0  0  0
   -9.3410   13.2140  -35.0270 C   0  0  1  0  0  0  0  0  0  0  0  0
   -8.2120   16.6720  -31.3740 N   0  0  0  0  0  0  0  0  0  0  0  0
   -6.0430   10.0350  -37.0530 O   0  0  0  0  0  0  0  0  0  0  0  0
   -9.5570   12.9440  -36.5080 C   0  0  0  0  0  0  0  0  0  0  0  0
   -5.5150    8.4070  -35.5500 O   0  0  0  0  0  0  0  0  0  0  0  0
  -10.6910   13.6950  -37.1830 C   0  0  0  0  0  0  0  0  0  0  0  0
   -7.0840   12.5120  -34.7360 O   0  0  0  0  0  0  0  0  0  0  0  0
  -10.3980   14.6980  -38.1120 C   0  0  0  0  0  0  0  0  0  0  0  0
  -11.4100   15.3950  -38.7580 C   0  0  0  0  0  0  0  0  0  0  0  0
  -12.7450   15.1100  -38.4840 C   0  0  0  0  0  0  0  0  0  0  0  0
  -13.0440   14.0840  -37.5690 C   0  0  0  0  0  0  0  0  0  0  0  0
  -12.0110   13.3850  -36.9280 C   0  0  0  0  0  0  0  0  0  0  0  0
   -7.6770   10.0790  -33.5580 C   0  0  1  0  0  0  0  0  0  0  0  0
   -7.6060    9.9880  -32.0610 C   0  0  0  0  0  0  0  0  0  0  0  0
   -7.0900   11.2740  -31.3660 C   0  0  1  0  0  0  0  0  0  0  0  0
   -6.9280   11.0630  -29.8890 C   0  0  0  0  0  0  0  0  0  0  0  0
   -8.1030    8.7640  -34.2130 C   0  0  0  0  0  0  0  0  0  0  0  0
   -7.8720    8.8940  -35.7110 C   0  0  0  0  0  0  0  0  0  0  0  0
   -6.4110    9.0680  -36.0560 C   0  0  0  0  0  0  0  0  0  0  0  0
   -8.2730   12.2270  -34.5900 C   0  0  0  0  0  0  0  0  0  0  0  0
   -5.0600    9.5580  -37.9640 C   0  0  0  0  0  0  0  0  0  0  0  0
   -5.6800    8.4450  -38.8020 C   0  0  0  0  0  0  0  0  0  0  0  0
   -8.2690   16.4470  -32.8570 C   0  0  1  0  0  0  0  0  0  0  0  0
   -8.9980   14.6950  -34.6930 C   0  0  0  0  0  0  0  0  0  0  0  0
   -6.8960   16.7890  -33.4690 C   0  0  0  0  0  0  0  0  0  0  0  0
   -6.4380   18.1830  -33.0660 C   0  0  0  0  0  0  0  0  0  0  0  0
   -5.8350   15.7520  -33.1000 C   0  0  0  0  0  0  0  0  0  0  0  0
   -5.0120   12.2750  -30.4960 C   0  0  0  0  0  0  0  0  0  0  0  0
   -5.6970   11.7410  -31.7720 C   0  0  0  0  0  0  0  0  0  0  0  0
   -9.7950    8.3550  -33.9060 R   0  0  0  0  0  0  0  0  0  0  0  0
  -13.7370   15.7770  -39.1250 F   0  0  0  0  0  0  0  0  0  0  0  0
  1 18  1  0
  1 25  1  0
  2  3  2  0
  2 28  1  0
  2 29  1  0
  4 21  1  0
  4 33  1  0
  5 21  2  0
  6  9  1  6
  6 25  1  0
  6 29  1  0
 28  7  1  1
  8 26  1  0
  8 24  1  0
  9 11  1  0
 10 24  2  0
 11 13  2  0
 11 17  1  0
 12 25  2  0
 13 14  1  0
 14 15  2  0
 15 16  1  0
 15 36  1  0
 16 17  2  0
 18 19  1  1
 18 22  1  0
 20 19  1  6
 20 21  1  0
 20 34  1  0
 22 23  2  3
 22 35  1  0
 23 24  1  0
 26 27  1  0
 28 30  1  0
 30 31  1  0
 30 32  1  0
 33 34  1  0
V   35 *
A    1
 N  
A    2
 C  
A    3
 O  
A    4
 N1 
A    5
 O1 
A    6
 C2 
A    7
 N2 
A    8
 O2 
A    9
 C3 
A   10
 O3 
A   11
 C4 
A   12
 O4 
A   13
 C5 
A   14
 C6 
A   15
 C7 
A   16
 C8 
A   17
 C9 
A   18
 C10
A   19
 C11
A   20
 C12
A   21
 C13
A   22
 C14
A   23
 C15
A   24
 C16
A   25
 C17
A   26
 C18
A   27
 C19
A   28
 C20
A   29
 C21
A   30
 C22
A   31
 C23
A   32
 C24
A   33
 C25
A   34
 C26
A   35
 X  
A   36
 F1 
M  END
>  <XChem_code>  (30) 
5E9§1

>  <Occupancy>  (30) 
[1.0, 1.0, 1.0, 1.0, 1.0, 1.0, 1.0, 1.0, 1.0, 1.0, 1.0, 1.0, 1.0, 1.0, 1.0, 1.0, 1.0, 1.0, 1.0, 1.0, 1.0, 1.0, 1.0, 1.0, 1.0, 1.0, 1.0, 1.0, 1.0, 1.0, 1.0, 1.0, 1.0, 1.0, 1.0, 1.0]

>  <TempFactor>  (30) 
[22.12, 29.54, 27.79, 22.79, 27.7, 25.48, 34.28, 30.31, 25.63, 28.02, 25.53, 25.12, 26.39, 27.1, 28.54, 27.02, 25.43, 21.61, 21.08, 22.98, 23.89, 22.26, 25.01, 26.4, 24.85, 30.29, 29.11, 33.7, 26.49, 36.07, 37.0, 35.62, 22.45, 21.88, 20.92, 29.67]

>  <accession>  (30) 
5DP5_A

>  <description>  (30) 
Chain A, 3C proteinase [Enterovirus A71]

>  <evalue>  (30) 
1.13719e-70

>  <pdb_code>  (30) 
5DP5

>  <chain>  (30) 
A

>  <ligands>  (30) 
[{'chain_id': 'A', 'author_residue_number': 201, 'author_insertion_code': '', 'chem_comp_id': '5E9', 'alternate_conformers': 0, 'entity_id': 2, 'struct_asym_id': 'B', 'residue_number': 1, 'chem_comp_name': 'ethyl (2Z,4S)-4-{[(2R,5S)-5-amino-2-(4-fluorobenzyl)-6-methyl-4-oxoheptanoyl]amino}-5-[(3S)-2-oxopyrrolidin-3-yl]pent-2-enoate', 'weight': 489.58, 'carbohydrate_polymer': False, 'branch_name': ''}]

>  <ligand_codes>  (30) 
['5E9']

>  <cofactor_codes>  (30) 
[]

>  <has_cofactor>  (30) 
False

>  <covalent>  (30) 
True

>  <base_name>  (30) 
5DP5

>  <lig_resn>  (30) 
5E9

>  <lig_resi>  (30) 
201

>  <lig_chain>  (30) 
A

>  <lig_segi>  (30) 
B

>  <lig_alt>  (30) 


>  <polymer_chain>  (30) 
A

>  <single_smiles>  (30) 
CCOC(=O)\C=C/[C@H](C[C@@H]1CCNC1=O)NC(=O)[C@@H](CC(=O)[C@@H](N)C(C)C)Cc2ccc(F)cc2

$$$$
AG7P11
     RDKit          3D

 43 45  0  0  0  0  0  0  0  0999 V2000
   -8.8720   15.0590  -33.3180 C   0  0  0  0  0  0  0  0  0  0  0  0
  -10.4440   17.9520  -29.9660 C   0  0  0  0  0  0  0  0  0  0  0  0
   -9.1810   14.8030  -34.8550 C   0  0  0  0  0  0  0  0  0  0  0  0
  -11.4110   18.8010  -29.4820 C   0  0  0  0  0  0  0  0  0  0  0  0
  -11.4910   18.5870  -28.1420 C   0  0  0  0  0  0  0  0  0  0  0  0
   -9.0100   14.2010  -32.4750 O   0  0  0  0  0  0  0  0  0  0  0  0
   -9.5290   13.3210  -35.1020 C   0  0  1  0  0  0  0  0  0  0  0  0
  -12.4230   19.2850  -27.1830 C   0  0  0  0  0  0  0  0  0  0  0  0
  -10.5980   17.6410  -27.8030 O   0  0  0  0  0  0  0  0  0  0  0  0
   -9.8470   13.1350  -36.6200 C   0  0  0  0  0  0  0  0  0  0  0  0
   -9.9480   17.2570  -28.9540 N   0  0  0  0  0  0  0  0  0  0  0  0
  -11.3050   13.7450  -36.8440 C   0  0  0  0  0  0  0  0  0  0  0  0
  -11.4560   14.8940  -37.6190 C   0  0  0  0  0  0  0  0  0  0  0  0
  -12.7230   15.4330  -37.8170 C   0  0  0  0  0  0  0  0  0  0  0  0
  -13.8400   14.8240  -37.2230 C   0  0  0  0  0  0  0  0  0  0  0  0
  -13.6950   13.6860  -36.4410 C   0  0  0  0  0  0  0  0  0  0  0  0
  -12.4130   13.1380  -36.2460 C   0  0  0  0  0  0  0  0  0  0  0  0
   -8.6990   11.1710  -34.0830 N   0  0  0  0  0  0  0  0  0  0  0  0
   -7.4890   10.3990  -33.7670 C   0  0  1  0  0  0  0  0  0  0  0  0
   -7.5780   10.0040  -32.2880 C   0  0  0  0  0  0  0  0  0  0  0  0
   -7.0990   11.3020  -31.5750 C   0  0  1  0  0  0  0  0  0  0  0  0
   -7.0230   11.0800  -29.9920 C   0  0  0  0  0  0  0  0  0  0  0  0
   -6.0040   11.8370  -29.5430 N   0  0  0  0  0  0  0  0  0  0  0  0
   -7.7390   10.4060  -29.3120 O   0  0  0  0  0  0  0  0  0  0  0  0
   -7.1540    9.1680  -34.5770 C   0  0  0  0  0  0  0  0  0  0  0  0
   -7.7230    9.1470  -35.9980 C   0  0  0  0  0  0  0  0  0  0  0  0
   -6.3230    9.0840  -36.5380 C   0  0  0  0  0  0  0  0  0  0  0  0
   -5.9850    9.6770  -37.7640 O   0  0  0  0  0  0  0  0  0  0  0  0
   -5.5070    8.5210  -35.8520 O   0  0  0  0  0  0  0  0  0  0  0  0
   -8.3810   12.4340  -34.7380 C   0  0  0  0  0  0  0  0  0  0  0  0
   -7.2420   12.6600  -34.9610 O   0  0  0  0  0  0  0  0  0  0  0  0
   -5.1320    8.8350  -38.5250 C   0  0  0  0  0  0  0  0  0  0  0  0
   -5.9370    8.4030  -39.7220 C   0  0  0  0  0  0  0  0  0  0  0  0
   -8.3700   16.4840  -32.8990 C   0  0  1  0  0  0  0  0  0  0  0  0
   -8.9490   16.7850  -31.6390 N   0  0  0  0  0  0  0  0  0  0  0  0
   -9.9620   17.8050  -31.4360 C   0  0  0  0  0  0  0  0  0  0  0  0
  -10.3840   18.4690  -32.3160 O   0  0  0  0  0  0  0  0  0  0  0  0
   -6.8180   16.5090  -32.7420 C   0  0  0  0  0  0  0  0  0  0  0  0
   -6.0760   16.0030  -34.0320 C   0  0  0  0  0  0  0  0  0  0  0  0
   -6.4180   17.9810  -32.4960 C   0  0  0  0  0  0  0  0  0  0  0  0
   -5.3380   12.5560  -30.7120 C   0  0  0  0  0  0  0  0  0  0  0  0
   -5.8440   11.7210  -31.9680 C   0  0  0  0  0  0  0  0  0  0  0  0
  -15.0840   15.3590  -37.4180 F   0  0  0  0  0  0  0  0  0  0  0  0
  1  3  1  0
  1  6  2  0
  1 34  1  0
  2  4  1  0
  2 11  2  0
  2 36  1  0
  7  3  1  6
  4  5  2  0
  5  8  1  0
  5  9  1  0
  7 10  1  0
  7 30  1  0
  9 11  1  0
 10 12  1  0
 12 13  2  0
 12 17  1  0
 13 14  1  0
 14 15  2  0
 15 16  1  0
 15 43  1  0
 16 17  2  0
 18 19  1  0
 18 30  1  0
 19 20  1  1
 19 25  1  0
 21 20  1  6
 21 22  1  0
 21 42  1  0
 22 23  1  0
 22 24  2  0
 23 41  1  0
 25 26  1  0
 26 27  1  0
 27 28  1  0
 27 29  2  0
 28 32  1  0
 30 31  2  0
 32 33  1  0
 34 35  1  1
 34 38  1  0
 35 36  1  0
 36 37  2  0
 38 39  1  0
 38 40  1  0
 41 42  1  0
A    1
 C01
A    2
 C1 
A    3
 C02
A    4
 C2 
A    5
 C3 
A    6
 O03
A    7
 C04
A    8
 C4 
A    9
 O4 
A   10
 C05
A   11
 N5 
A   12
 C06
A   13
 C07
A   14
 C08
A   15
 C09
A   16
 C10
A   17
 C11
A   18
 N12
A   19
 C13
A   20
 C14
A   21
 C15
A   22
 C16
A   23
 N17
A   24
 O18
A   25
 C19
A   26
 C20
A   27
 C21
A   28
 O22
A   29
 O23
A   30
 C47
A   31
 O48
A   32
 C50
A   33
 C53
A   34
 C57
A   35
 N58
A   36
 C59
A   37
 O60
A   38
 C78
A   39
 C81
A   40
 C82
A   41
 C83
A   42
 C84
A   43
 F1 
M  END
>  <XChem_code>  (31) 
AG7§11

>  <Occupancy>  (31) 
[1.0, 1.0, 1.0, 1.0, 1.0, 1.0, 1.0, 1.0, 1.0, 1.0, 1.0, 1.0, 1.0, 1.0, 1.0, 1.0, 1.0, 1.0, 1.0, 1.0, 1.0, 1.0, 1.0, 1.0, 1.0, 1.0, 1.0, 1.0, 1.0, 1.0, 1.0, 1.0, 1.0, 1.0, 1.0, 1.0, 1.0, 1.0, 1.0, 1.0, 1.0, 1.0, 1.0]

>  <TempFactor>  (31) 
[11.58, 15.03, 11.83, 16.25, 16.92, 12.34, 10.54, 20.22, 18.19, 14.53, 16.52, 20.55, 23.87, 20.72, 31.66, 32.21, 24.48, 11.55, 13.92, 10.24, 11.44, 10.75, 11.87, 10.52, 48.42, 14.67, 18.9, 51.51, 20.99, 12.24, 12.71, 37.77, 32.69, 13.62, 12.02, 16.3, 16.59, 14.61, 20.42, 22.35, 13.24, 10.96, 27.55]

>  <accession>  (31) 
5HXF_A

>  <description>  (31) 
Chain A, 3C protease [Enterovirus A71]

>  <evalue>  (31) 
1.33118e-69

>  <pdb_code>  (31) 
5HXF

>  <chain>  (31) 
A

>  <ligands>  (31) 
[{'chain_id': 'A', 'author_residue_number': 201, 'author_insertion_code': '', 'chem_comp_id': 'AG7', 'alternate_conformers': 0, 'entity_id': 2, 'struct_asym_id': 'B', 'residue_number': 1, 'chem_comp_name': '4-{2-(4-FLUORO-BENZYL)-6-METHYL-5-[(5-METHYL-ISOXAZOLE-3-CARBONYL)-AMINO]-4-OXO-HEPTANOYLAMINO}-5-(2-OXO-PYRROLIDIN-3-YL)-PENTANOIC ACID ETHYL ESTER', 'weight': 600.678, 'carbohydrate_polymer': False, 'branch_name': ''}, {'chain_id': 'A', 'author_residue_number': 202, 'author_insertion_code': '', 'chem_comp_id': 'SO4', 'alternate_conformers': 0, 'entity_id': 3, 'struct_asym_id': 'C', 'residue_number': 1, 'chem_comp_name': 'SULFATE ION', 'weight': 96.063, 'carbohydrate_polymer': False, 'branch_name': ''}, {'chain_id': 'A', 'author_residue_number': 203, 'author_insertion_code': '', 'chem_comp_id': 'SO4', 'alternate_conformers': 0, 'entity_id': 3, 'struct_asym_id': 'D', 'residue_number': 1, 'chem_comp_name': 'SULFATE ION', 'weight': 96.063, 'carbohydrate_polymer': False, 'branch_name': ''}]

>  <ligand_codes>  (31) 
['AG7', 'SO4', 'SO4']

>  <cofactor_codes>  (31) 
[]

>  <has_cofactor>  (31) 
False

>  <covalent>  (31) 
False

>  <base_name>  (31) 
5HXF

>  <lig_resn>  (31) 
AG7

>  <lig_resi>  (31) 
201

>  <lig_chain>  (31) 
A

>  <lig_segi>  (31) 
B

>  <lig_alt>  (31) 


>  <polymer_chain>  (31) 
A

>  <single_smiles>  (31) 
CCOC(=O)CC[C@H](C[C@@H]1CCNC1=O)NC(=O)[C@@H](CC(=O)[C@@H](NC(=O)c2cc(C)on2)C(C)C)Cc3ccc(F)cc3

$$$$
FHRP1
     RDKit          3D

 34 37  0  0  0  0  0  0  0  0999 V2000
   -8.8740   14.1120  -32.4470 O   0  0  0  0  0  0  0  0  0  0  0  0
   -8.8010   14.8950  -33.4010 C   0  0  0  0  0  0  0  0  0  0  0  0
   -8.1570   16.2030  -33.2710 C   0  0  0  0  0  0  0  0  0  0  0  0
   -8.0490   17.2730  -34.1240 C   0  0  0  0  0  0  0  0  0  0  0  0
   -7.2790   18.2580  -33.4560 C   0  0  0  0  0  0  0  0  0  0  0  0
   -6.8210   19.5470  -33.7830 C   0  0  0  0  0  0  0  0  0  0  0  0
   -6.0720   20.2410  -32.8640 C   0  0  0  0  0  0  0  0  0  0  0  0
   -5.7460   19.6920  -31.6270 C   0  0  0  0  0  0  0  0  0  0  0  0
   -6.1770   18.4360  -31.2640 C   0  0  0  0  0  0  0  0  0  0  0  0
   -6.9430   17.7290  -32.1870 C   0  0  0  0  0  0  0  0  0  0  0  0
   -7.4890   16.4770  -32.1010 N   0  0  0  0  0  0  0  0  0  0  0  0
   -9.2450   14.5580  -34.6270 N   0  0  0  0  0  0  0  0  0  0  0  0
   -9.7320   13.2190  -34.8780 C   0  0  1  0  0  0  0  0  0  0  0  0
  -10.3440   13.1100  -36.2770 C   0  0  0  0  0  0  0  0  0  0  0  0
  -11.6180   13.9040  -36.4220 C   0  0  0  0  0  0  0  0  0  0  0  0
  -12.7470   13.5850  -35.6890 C   0  0  0  0  0  0  0  0  0  0  0  0
  -13.9180   14.3150  -35.8260 C   0  0  0  0  0  0  0  0  0  0  0  0
  -13.9760   15.3680  -36.7080 C   0  0  0  0  0  0  0  0  0  0  0  0
  -12.8650   15.6960  -37.4450 C   0  0  0  0  0  0  0  0  0  0  0  0
  -11.6930   14.9670  -37.3080 C   0  0  0  0  0  0  0  0  0  0  0  0
   -8.5900   12.2250  -34.7110 C   0  0  0  0  0  0  0  0  0  0  0  0
   -8.9070   11.0690  -34.1230 N   0  0  0  0  0  0  0  0  0  0  0  0
   -7.9330   10.0300  -33.8370 C   0  0  1  0  0  0  0  0  0  0  0  0
   -7.6710    9.8790  -32.3370 C   0  0  0  0  0  0  0  0  0  0  0  0
   -7.0900   11.1330  -31.6650 C   0  0  2  0  0  0  0  0  0  0  0  0
   -5.7320   11.6370  -32.1410 C   0  0  0  0  0  0  0  0  0  0  0  0
   -5.1740   12.3620  -30.9250 C   0  0  0  0  0  0  0  0  0  0  0  0
   -5.7790   11.6220  -29.8190 N   0  0  0  0  0  0  0  0  0  0  0  0
   -6.8730   10.9530  -30.1760 C   0  0  0  0  0  0  0  0  0  0  0  0
   -7.6010   10.2890  -29.4180 O   0  0  0  0  0  0  0  0  0  0  0  0
   -8.3950    8.7250  -34.5150 C   0  0  0  0  0  0  0  0  0  0  0  0
   -8.2950    8.6890  -35.7580 O   0  0  0  0  0  0  0  0  0  0  0  0
   -7.4610   12.4990  -35.1080 O   0  0  0  0  0  0  0  0  0  0  0  0
   -9.9400    8.2440  -33.7820 R   0  0  0  0  0  0  0  0  0  0  0  0
  1  2  2  0
  2  3  1  0
  2 12  1  0
  3 11  1  0
  3  4  2  0
  4  5  1  0
  5  6  2  0
  5 10  1  0
  6  7  1  0
  7  8  2  0
  8  9  1  0
  9 10  2  0
 10 11  1  0
 12 13  1  0
 13 14  1  6
 13 21  1  0
 14 15  1  0
 15 16  1  0
 15 20  1  0
 16 17  1  0
 17 18  1  0
 18 19  1  0
 19 20  1  0
 21 22  1  0
 21 33  2  0
 22 23  1  0
 23 31  1  0
 23 24  1  1
 25 24  1  6
 25 26  1  0
 25 29  1  0
 26 27  1  0
 27 28  1  0
 28 29  1  0
 29 30  2  0
 31 32  2  0
 31 34  1  0
V   34 *
A    1
 O01
A    2
 C02
A    3
 C03
A    4
 C04
A    5
 C05
A    6
 C06
A    7
 C07
A    8
 C08
A    9
 C09
A   10
 C10
A   11
 N11
A   12
 N12
A   13
 C13
A   14
 C14
A   15
 C15
A   16
 C16
A   17
 C17
A   18
 C18
A   19
 C19
A   20
 C20
A   21
 C21
A   22
 N22
A   23
 C23
A   24
 C24
A   25
 C25
A   26
 C26
A   27
 C27
A   28
 N28
A   29
 C29
A   30
 O30
A   31
 C31
A   32
 O32
A   33
 O33
A   34
 X  
M  END
>  <XChem_code>  (32) 
FHR§1

>  <Occupancy>  (32) 
[1.0, 1.0, 1.0, 1.0, 1.0, 1.0, 1.0, 1.0, 1.0, 1.0, 1.0, 1.0, 1.0, 1.0, 1.0, 1.0, 1.0, 1.0, 1.0, 1.0, 1.0, 1.0, 1.0, 1.0, 1.0, 1.0, 1.0, 1.0, 1.0, 1.0, 1.0, 1.0, 1.0, 1.0]

>  <TempFactor>  (32) 
[12.8, 12.28, 12.67, 12.86, 13.41, 14.29, 15.58, 14.39, 13.97, 13.17, 13.23, 12.4, 11.86, 13.21, 13.36, 14.53, 14.53, 16.76, 17.82, 15.62, 11.61, 11.88, 12.06, 12.52, 13.0, 13.86, 15.8, 14.81, 13.31, 13.03, 12.29, 12.97, 13.13, 12.32]

>  <accession>  (32) 
7DNC_A

>  <description>  (32) 
Chain A, 3C protease [Enterovirus A71]

>  <evalue>  (32) 
1.33148e-69

>  <pdb_code>  (32) 
7DNC

>  <chain>  (32) 
A

>  <ligands>  (32) 
[{'chain_id': 'A', 'author_residue_number': 201, 'author_insertion_code': '', 'chem_comp_id': 'FHR', 'alternate_conformers': 0, 'entity_id': 2, 'struct_asym_id': 'B', 'residue_number': 1, 'chem_comp_name': '~{N}-[(2~{S})-3-cyclohexyl-1-oxidanylidene-1-[[(2~{S})-1-oxidanylidene-3-[(3~{S})-2-oxidanylidenepyrrolidin-3-yl]propan-2-yl]amino]propan-2-yl]-1~{H}-indole-2-carboxamide', 'weight': 452.546, 'carbohydrate_polymer': False, 'branch_name': ''}]

>  <ligand_codes>  (32) 
['FHR']

>  <cofactor_codes>  (32) 
[]

>  <has_cofactor>  (32) 
False

>  <covalent>  (32) 
True

>  <base_name>  (32) 
7DNC

>  <lig_resn>  (32) 
FHR

>  <lig_resi>  (32) 
201

>  <lig_chain>  (32) 
A

>  <lig_segi>  (32) 
B

>  <lig_alt>  (32) 


>  <polymer_chain>  (32) 
A

>  <single_smiles>  (32) 
O=C[C@H](C[C@@H]1CCNC1=O)NC(=O)[C@H](CC2CCCCC2)NC(=O)c3[nH]c4ccccc4c3

$$$$
I70P2
     RDKit          3D

 40 42  0  0  0  0  0  0  0  0999 V2000
   -6.7240    7.5570  -34.8770 C   0  0  0  0  0  0  0  0  0  0  0  0
   -6.3550    7.0790  -36.1900 N   0  0  0  0  0  0  0  0  0  0  0  0
   -6.1940    7.0820  -33.8870 O   0  0  0  0  0  0  0  0  0  0  0  0
  -11.1620   17.0450  -29.9270 C   0  0  0  0  0  0  0  0  0  0  0  0
   -7.7790    8.6510  -34.8260 C   0  0  2  0  0  0  0  0  0  0  0  0
   -9.7590   17.0040  -30.3830 N   0  0  0  0  0  0  0  0  0  0  0  0
   -9.3350   16.7390  -31.6320 C   0  0  0  0  0  0  0  0  0  0  0  0
   -8.0200    9.1050  -36.1750 O   0  0  0  0  0  0  0  0  0  0  0  0
   -8.0120   16.5180  -31.7410 N   0  0  0  0  0  0  0  0  0  0  0  0
   -7.4390   15.9640  -32.9440 C   0  0  2  0  0  0  0  0  0  0  0  0
   -8.1630   14.6430  -33.1990 C   0  0  0  0  0  0  0  0  0  0  0  0
   -8.5470   15.4100  -35.5660 C   0  0  0  0  0  0  0  0  0  0  0  0
   -8.5930   14.4450  -34.4520 N   0  0  0  0  0  0  0  0  0  0  0  0
   -9.0890   13.1220  -34.8270 C   0  0  2  0  0  0  0  0  0  0  0  0
   -7.9540   12.1060  -34.7500 C   0  0  2  0  0  0  0  0  0  0  0  0
   -9.2540   14.6710  -36.7020 C   0  0  2  0  0  0  0  0  0  0  0  0
   -8.3060   10.9400  -34.2130 N   0  0  0  0  0  0  0  0  0  0  0  0
   -7.3450    9.8640  -33.9670 C   0  0  1  0  0  0  0  0  0  0  0  0
  -10.6930   14.2350  -36.5490 C   0  0  0  0  0  0  0  0  0  0  0  0
   -7.2620    9.6380  -32.4590 C   0  0  0  0  0  0  0  0  0  0  0  0
   -6.5460   10.7690  -31.7170 C   0  0  2  0  0  0  0  0  0  0  0  0
   -5.1080   11.0020  -32.1640 C   0  0  0  0  0  0  0  0  0  0  0  0
   -4.3360   11.3780  -30.9010 C   0  0  0  0  0  0  0  0  0  0  0  0
  -11.5310   14.7790  -35.4150 C   0  0  0  0  0  0  0  0  0  0  0  0
   -5.2360   10.9640  -29.8330 N   0  0  0  0  0  0  0  0  0  0  0  0
   -6.4130   10.4980  -30.2370 C   0  0  0  0  0  0  0  0  0  0  0  0
  -11.5090   14.0530  -37.8150 C   0  0  0  0  0  0  0  0  0  0  0  0
   -5.2670   15.5850  -34.2610 C   0  0  0  0  0  0  0  0  0  0  0  0
   -7.2810    9.9600  -29.5060 O   0  0  0  0  0  0  0  0  0  0  0  0
  -11.7910   15.6780  -30.1870 C   0  0  0  0  0  0  0  0  0  0  0  0
  -11.0840   17.3350  -28.4360 C   0  0  0  0  0  0  0  0  0  0  0  0
  -11.9540   18.1520  -30.6230 C   0  0  0  0  0  0  0  0  0  0  0  0
  -10.0780   16.7320  -32.6140 O   0  0  0  0  0  0  0  0  0  0  0  0
   -5.8860   15.9050  -32.8920 C   0  0  0  0  0  0  0  0  0  0  0  0
   -5.3590   17.2790  -32.4720 C   0  0  0  0  0  0  0  0  0  0  0  0
   -5.4200   14.8480  -31.8910 C   0  0  0  0  0  0  0  0  0  0  0  0
   -8.3310   13.7970  -32.3050 O   0  0  0  0  0  0  0  0  0  0  0  0
   -9.5800   13.2630  -36.2440 C   0  0  2  0  0  0  0  0  0  0  0  0
   -6.7960   12.4060  -35.0600 O   0  0  0  0  0  0  0  0  0  0  0  0
   -9.3380    8.0100  -34.0010 R   0  0  0  0  0  0  0  0  0  0  0  0
  1  2  1  0
  1  3  1  0
  1  5  1  0
  4  6  1  0
  4 30  1  0
  4 31  1  0
  4 32  1  0
  5  8  1  0
  5 18  1  0
  5 40  1  1
  6  7  1  0
  7  9  1  0
  7 33  1  0
 10  9  1  1
 10 11  1  0
 10 34  1  0
 11 13  1  0
 11 37  1  0
 12 13  1  0
 16 12  1  1
 14 13  1  6
 14 15  1  0
 38 14  1  0
 15 17  1  0
 15 39  1  1
 16 19  1  0
 16 38  1  0
 17 18  1  0
 18 20  1  1
 19 24  1  0
 19 27  1  0
 38 19  1  1
 21 20  1  6
 21 22  1  0
 21 26  1  0
 22 23  1  0
 23 25  1  0
 25 26  1  0
 26 29  1  0
 34 28  1  0
 34 35  1  0
 34 36  1  0
V   40 *
A    1
 C1 
A    2
 N2 
A    3
 O5 
A    4
 C7 
A    5
 C8 
A    6
 N8 
A    7
 C9 
A    8
 O9 
A    9
 N10
A   10
 C11
A   11
 C12
A   12
 C13
A   13
 N13
A   14
 C14
A   15
 C15
A   16
 C16
A   17
 N16
A   18
 C17
A   19
 C18
A   20
 C19
A   21
 C20
A   22
 C21
A   23
 C22
A   24
 C23
A   25
 N23
A   26
 C24
A   27
 C25
A   28
 C26
A   29
 O26
A   30
 C27
A   31
 C28
A   32
 C29
A   33
 O29
A   34
 C30
A   35
 C31
A   36
 C32
A   37
 O33
A   38
 C34
A   39
 O38
A   40
 X  
M  END
>  <XChem_code>  (33) 
I70§2

>  <Occupancy>  (33) 
[1.0, 1.0, 1.0, 1.0, 1.0, 1.0, 1.0, 1.0, 1.0, 1.0, 1.0, 1.0, 1.0, 1.0, 1.0, 1.0, 1.0, 1.0, 1.0, 1.0, 1.0, 1.0, 1.0, 1.0, 1.0, 1.0, 1.0, 1.0, 1.0, 1.0, 1.0, 1.0, 1.0, 1.0, 1.0, 1.0, 1.0, 1.0, 1.0, 1.0]

>  <TempFactor>  (33) 
[39.88, 47.74, 47.6, 43.34, 41.2, 42.74, 42.84, 38.8, 38.28, 38.23, 36.42, 38.13, 35.96, 39.12, 39.61, 36.63, 35.46, 36.02, 40.94, 36.31, 36.8, 36.42, 33.49, 36.18, 34.36, 34.04, 41.73, 36.81, 34.52, 42.38, 42.33, 41.2, 40.48, 37.29, 39.85, 36.54, 36.22, 35.85, 36.77, 46.54]

>  <accession>  (33) 
7QUB_AAA

>  <description>  (33) 
Chain AAA, Protease 3C [Enterovirus A71]

>  <evalue>  (33) 
7.05e-68

>  <pdb_code>  (33) 
7QUB

>  <chain>  (33) 
AAA

>  <ligands>  (33) 
[{'chain_id': 'AAA', 'author_residue_number': 201, 'author_insertion_code': '', 'chem_comp_id': 'I70', 'alternate_conformers': 0, 'entity_id': 2, 'struct_asym_id': 'B', 'residue_number': 1, 'chem_comp_name': '(1R,2S,5S)-N-{(2S,3R)-4-amino-3-hydroxy-4-oxo-1-[(3S)-2-oxopyrrolidin-3-yl]butan-2-yl}-3-[N-(tert-butylcarbamoyl)-3-methyl-L-valyl]-6,6-dimethyl-3-azabicyclo[3.1.0]hexane-2-carboxamide', 'weight': 550.691, 'carbohydrate_polymer': False, 'branch_name': ''}, {'chain_id': 'AAA', 'author_residue_number': 202, 'author_insertion_code': '', 'chem_comp_id': 'NA', 'alternate_conformers': 0, 'entity_id': 3, 'struct_asym_id': 'C', 'residue_number': 1, 'chem_comp_name': 'SODIUM ION', 'weight': 22.99, 'carbohydrate_polymer': False, 'branch_name': ''}]

>  <ligand_codes>  (33) 
['I70', 'NA']

>  <cofactor_codes>  (33) 
[]

>  <has_cofactor>  (33) 
False

>  <covalent>  (33) 
True

>  <base_name>  (33) 
7QUB

>  <lig_resn>  (33) 
I70

>  <lig_resi>  (33) 
201

>  <lig_chain>  (33) 
AAA

>  <lig_segi>  (33) 
B

>  <lig_alt>  (33) 


>  <polymer_chain>  (33) 
A

>  <single_smiles>  (33) 
CC(C)(C)NC(=O)N[C@H](C(=O)N1C[C@H]2[C@@H]([C@H]1C(=O)N[C@@H](C[C@@H]3CCNC3=O)[C@@H](O)C(N)=O)C2(C)C)C(C)(C)C

$$$$
AG7P12
     RDKit          3D

 38 39  0  0  0  0  0  0  0  0999 V2000
   -8.5670   14.4320  -33.7110 C   0  0  0  0  0  0  0  0  0  0  0  0
   -8.9960   18.0230  -30.7400 C   0  0  0  0  0  0  0  0  0  0  0  0
   -8.6930   13.9260  -35.1370 C   0  0  0  0  0  0  0  0  0  0  0  0
   -8.6070   13.7560  -32.7230 O   0  0  0  0  0  0  0  0  0  0  0  0
   -9.3130   12.5410  -35.2750 C   0  0  1  0  0  0  0  0  0  0  0  0
   -9.7000   12.4750  -36.7420 C   0  0  0  0  0  0  0  0  0  0  0  0
  -11.0210   13.2200  -36.9910 C   0  0  0  0  0  0  0  0  0  0  0  0
  -12.1300   12.9450  -36.2050 C   0  0  0  0  0  0  0  0  0  0  0  0
  -13.3220   13.6160  -36.4240 C   0  0  0  0  0  0  0  0  0  0  0  0
  -13.4160   14.5720  -37.4290 C   0  0  0  0  0  0  0  0  0  0  0  0
  -12.3090   14.8520  -38.2170 C   0  0  0  0  0  0  0  0  0  0  0  0
  -11.1130   14.1790  -37.9990 C   0  0  0  0  0  0  0  0  0  0  0  0
   -8.4720   10.3790  -34.0520 N   0  0  0  0  0  0  0  0  0  0  0  0
   -7.3030    9.5660  -33.6750 C   0  0  1  0  0  0  0  0  0  0  0  0
   -7.3990    9.4630  -32.1610 C   0  0  0  0  0  0  0  0  0  0  0  0
   -6.9980   10.8370  -31.5010 C   0  0  1  0  0  0  0  0  0  0  0  0
   -6.7450   10.5870  -29.9270 C   0  0  0  0  0  0  0  0  0  0  0  0
   -5.7030   11.3120  -29.5520 N   0  0  0  0  0  0  0  0  0  0  0  0
   -7.3960    9.8790  -29.2360 O   0  0  0  0  0  0  0  0  0  0  0  0
   -7.0890    8.1890  -34.3170 C   0  0  0  0  0  0  0  0  0  0  0  0
   -7.6300    8.1640  -35.7550 C   0  0  0  0  0  0  0  0  0  0  0  0
   -6.3370    8.3890  -36.5060 C   0  0  0  0  0  0  0  0  0  0  0  0
   -6.2970    9.1800  -37.6510 O   0  0  0  0  0  0  0  0  0  0  0  0
   -5.3570    7.9030  -36.0570 O   0  0  0  0  0  0  0  0  0  0  0  0
   -8.2170   11.5620  -34.8560 C   0  0  0  0  0  0  0  0  0  0  0  0
   -7.1000   11.7820  -35.1800 O   0  0  0  0  0  0  0  0  0  0  0  0
   -4.9980    9.2960  -38.1470 C   0  0  0  0  0  0  0  0  0  0  0  0
   -5.0760    9.8510  -39.5680 C   0  0  0  0  0  0  0  0  0  0  0  0
   -8.3750   15.9370  -33.7070 C   0  0  1  0  0  0  0  0  0  0  0  0
   -8.4690   16.4220  -32.3850 N   0  0  0  0  0  0  0  0  0  0  0  0
   -9.0480   17.7050  -32.1870 C   0  0  0  0  0  0  0  0  0  0  0  0
   -9.4860   18.4290  -33.0250 O   0  0  0  0  0  0  0  0  0  0  0  0
   -6.9790   16.3080  -34.2120 C   0  0  0  0  0  0  0  0  0  0  0  0
   -6.7970   17.8160  -34.4290 C   0  0  0  0  0  0  0  0  0  0  0  0
   -5.9310   15.7820  -33.2260 C   0  0  0  0  0  0  0  0  0  0  0  0
   -5.1560   12.0710  -30.7490 C   0  0  0  0  0  0  0  0  0  0  0  0
   -5.8480   11.3340  -31.9880 C   0  0  0  0  0  0  0  0  0  0  0  0
  -14.5980   15.2330  -37.6340 F   0  0  0  0  0  0  0  0  0  0  0  0
  1  3  1  0
  1  4  1  0
  1 29  1  0
  2 31  1  0
  5  3  1  6
  5  6  1  0
  5 25  1  0
  6  7  1  0
  7  8  1  0
  7 12  1  0
  8  9  1  0
  9 10  1  0
 10 11  1  0
 10 38  1  0
 11 12  1  0
 13 14  1  0
 13 25  1  0
 14 15  1  1
 14 20  1  0
 16 15  1  6
 16 17  1  0
 16 37  1  0
 17 18  1  0
 17 19  1  0
 18 36  1  0
 20 21  1  0
 21 22  1  0
 22 23  1  0
 22 24  1  0
 23 27  1  0
 25 26  1  0
 27 28  1  0
 29 30  1  1
 29 33  1  0
 30 31  1  0
 31 32  1  0
 33 34  1  0
 33 35  1  0
 36 37  1  0
A    1
 C01
A    2
 C1 
A    3
 C02
A    4
 O03
A    5
 C04
A    6
 C05
A    7
 C06
A    8
 C07
A    9
 C08
A   10
 C09
A   11
 C10
A   12
 C11
A   13
 N12
A   14
 C13
A   15
 C14
A   16
 C15
A   17
 C16
A   18
 N17
A   19
 O18
A   20
 C19
A   21
 C20
A   22
 C21
A   23
 O22
A   24
 O23
A   25
 C47
A   26
 O48
A   27
 C50
A   28
 C53
A   29
 C57
A   30
 N58
A   31
 C59
A   32
 O60
A   33
 C78
A   34
 C81
A   35
 C82
A   36
 C83
A   37
 C84
A   38
 F1 
M  END
>  <XChem_code>  (34) 
AG7§12

>  <Occupancy>  (34) 
[1.0, 1.0, 1.0, 1.0, 1.0, 1.0, 1.0, 1.0, 1.0, 1.0, 1.0, 1.0, 1.0, 1.0, 1.0, 1.0, 1.0, 1.0, 1.0, 1.0, 1.0, 1.0, 1.0, 1.0, 1.0, 1.0, 1.0, 1.0, 1.0, 1.0, 1.0, 1.0, 1.0, 1.0, 1.0, 1.0, 1.0, 1.0]

>  <TempFactor>  (34) 
[56.87, 76.17, 55.13, 39.03, 48.62, 52.58, 47.89, 46.71, 48.3, 47.91, 49.6, 49.69, 42.73, 41.63, 39.08, 34.68, 26.06, 30.82, 26.95, 46.9, 46.82, 50.79, 56.24, 49.99, 47.58, 46.28, 59.41, 58.23, 62.42, 63.63, 73.33, 77.2, 64.57, 66.68, 74.14, 34.72, 36.83, 48.64]

>  <accession>  (34) 
6KU8_A

>  <description>  (34) 
Chain A, Genome polyprotein [Rhinovirus C]

>  <evalue>  (34) 
6.10813e-61

>  <pdb_code>  (34) 
6KU8

>  <chain>  (34) 
A

>  <ligands>  (34) 
[{'chain_id': 'A', 'author_residue_number': 501, 'author_insertion_code': '', 'chem_comp_id': 'AG7', 'alternate_conformers': 0, 'entity_id': 2, 'struct_asym_id': 'B', 'residue_number': 1, 'chem_comp_name': '4-{2-(4-FLUORO-BENZYL)-6-METHYL-5-[(5-METHYL-ISOXAZOLE-3-CARBONYL)-AMINO]-4-OXO-HEPTANOYLAMINO}-5-(2-OXO-PYRROLIDIN-3-YL)-PENTANOIC ACID ETHYL ESTER', 'weight': 600.678, 'carbohydrate_polymer': False, 'branch_name': ''}]

>  <ligand_codes>  (34) 
['AG7']

>  <cofactor_codes>  (34) 
[]

>  <has_cofactor>  (34) 
False

>  <covalent>  (34) 
False

>  <base_name>  (34) 
6KU8

>  <lig_resn>  (34) 
AG7

>  <lig_resi>  (34) 
501

>  <lig_chain>  (34) 
A

>  <lig_segi>  (34) 
B

>  <lig_alt>  (34) 


>  <polymer_chain>  (34) 
A

>  <single_smiles>  (34) 
CCOC(=O)CC[C@H](C[C@@H]1CCNC1=O)NC(=O)[C@@H](CC(=O)[C@@H](NC(=O)c2cc(C)on2)C(C)C)Cc3ccc(F)cc3

$$$$
AG7P14
     RDKit          3D

 44 46  0  0  0  0  0  0  0  0999 V2000
   -8.5080   14.9300  -33.3220 C   0  0  0  0  0  0  0  0  0  0  0  0
  -10.0180   17.8700  -29.8390 C   0  0  0  0  0  0  0  0  0  0  0  0
   -9.0470   14.7330  -34.7430 C   0  0  0  0  0  0  0  0  0  0  0  0
  -10.9400   18.9000  -29.3490 C   0  0  0  0  0  0  0  0  0  0  0  0
  -11.0910   18.5810  -27.9530 C   0  0  0  0  0  0  0  0  0  0  0  0
   -8.8050   14.1230  -32.4480 O   0  0  0  0  0  0  0  0  0  0  0  0
   -8.8530   13.2790  -35.2310 C   0  0  1  0  0  0  0  0  0  0  0  0
  -11.9400   19.3230  -26.9590 C   0  0  0  0  0  0  0  0  0  0  0  0
  -10.3500   17.5030  -27.7220 O   0  0  0  0  0  0  0  0  0  0  0  0
   -9.1730   12.9400  -36.6820 C   0  0  0  0  0  0  0  0  0  0  0  0
   -9.7280   17.0810  -28.8080 N   0  0  0  0  0  0  0  0  0  0  0  0
  -10.3460   13.7680  -37.1900 C   0  0  0  0  0  0  0  0  0  0  0  0
  -11.6330   13.4790  -36.7590 C   0  0  0  0  0  0  0  0  0  0  0  0
  -12.7160   14.2140  -37.2600 C   0  0  0  0  0  0  0  0  0  0  0  0
  -12.4920   15.2320  -38.1910 C   0  0  0  0  0  0  0  0  0  0  0  0
  -11.2050   15.5220  -38.6290 C   0  0  0  0  0  0  0  0  0  0  0  0
  -10.1200   14.7840  -38.1310 C   0  0  0  0  0  0  0  0  0  0  0  0
   -8.5060   11.1100  -33.8920 N   0  0  0  0  0  0  0  0  0  0  0  0
   -7.7300    9.9240  -33.4360 C   0  0  1  0  0  0  0  0  0  0  0  0
   -7.3190    9.7870  -31.9670 C   0  0  0  0  0  0  0  0  0  0  0  0
   -6.9490   11.1100  -31.3440 C   0  0  1  0  0  0  0  0  0  0  0  0
   -6.8820   10.9740  -29.8610 C   0  0  0  0  0  0  0  0  0  0  0  0
   -5.7440   11.6850  -29.4030 N   0  0  0  0  0  0  0  0  0  0  0  0
   -7.6250   10.3230  -29.1430 O   0  0  0  0  0  0  0  0  0  0  0  0
   -7.7770    8.6160  -34.2440 C   0  0  2  0  0  0  0  0  0  0  0  0
   -7.7810    8.8240  -35.7420 C   0  0  0  0  0  0  0  0  0  0  0  0
   -6.3340    8.9960  -36.1790 C   0  0  0  0  0  0  0  0  0  0  0  0
   -6.0510    9.6750  -37.2240 O   0  0  0  0  0  0  0  0  0  0  0  0
   -5.4140    8.5070  -35.4860 O   0  0  0  0  0  0  0  0  0  0  0  0
   -7.9150   12.2780  -34.5490 C   0  0  0  0  0  0  0  0  0  0  0  0
   -6.7310   12.3310  -34.8040 O   0  0  0  0  0  0  0  0  0  0  0  0
   -4.7230    9.9930  -37.5080 C   0  0  0  0  0  0  0  0  0  0  0  0
   -4.6910   10.8400  -38.7540 C   0  0  0  0  0  0  0  0  0  0  0  0
   -8.1450   16.3840  -32.9140 C   0  0  1  0  0  0  0  0  0  0  0  0
   -8.5860   16.6350  -31.5420 N   0  0  0  0  0  0  0  0  0  0  0  0
   -9.5070   17.7220  -31.2510 C   0  0  0  0  0  0  0  0  0  0  0  0
   -9.9070   18.4670  -32.1230 O   0  0  0  0  0  0  0  0  0  0  0  0
   -6.6630   16.7160  -33.0960 C   0  0  0  0  0  0  0  0  0  0  0  0
   -6.3990   18.1350  -32.6670 C   0  0  0  0  0  0  0  0  0  0  0  0
   -5.8390   15.7750  -32.2840 C   0  0  0  0  0  0  0  0  0  0  0  0
   -5.1300   12.3330  -30.5440 C   0  0  0  0  0  0  0  0  0  0  0  0
   -5.5910   11.5700  -31.7670 C   0  0  0  0  0  0  0  0  0  0  0  0
   -9.7150    8.3890  -33.9240 R   0  0  0  0  0  0  0  0  0  0  0  0
  -13.5350   15.9120  -38.6740 F   0  0  0  0  0  0  0  0  0  0  0  0
  1  3  1  0
  1  6  2  0
  1 34  1  0
  2  4  1  0
  2 11  2  0
  2 36  1  0
  7  3  1  6
  4  5  2  0
  5  8  1  0
  5  9  1  0
  7 10  1  0
  7 30  1  0
  9 11  1  0
 10 12  1  0
 12 13  2  0
 12 17  1  0
 13 14  1  0
 14 15  2  0
 15 16  1  0
 15 44  1  0
 16 17  2  0
 18 19  1  0
 18 30  1  0
 19 20  1  1
 19 25  1  0
 21 20  1  6
 21 22  1  0
 21 42  1  0
 22 23  1  0
 22 24  2  0
 23 41  1  0
 25 26  1  0
 25 43  1  1
 26 27  1  0
 27 28  1  0
 27 29  2  0
 28 32  1  0
 30 31  2  0
 32 33  1  0
 34 35  1  1
 34 38  1  0
 35 36  1  0
 36 37  2  0
 38 39  1  0
 38 40  1  0
 41 42  1  0
V   43 *
A    1
 C01
A    2
 C1 
A    3
 C02
A    4
 C2 
A    5
 C3 
A    6
 O03
A    7
 C04
A    8
 C4 
A    9
 O4 
A   10
 C05
A   11
 N5 
A   12
 C06
A   13
 C07
A   14
 C08
A   15
 C09
A   16
 C10
A   17
 C11
A   18
 N12
A   19
 C13
A   20
 C14
A   21
 C15
A   22
 C16
A   23
 N17
A   24
 O18
A   25
 C19
A   26
 C20
A   27
 C21
A   28
 O22
A   29
 O23
A   30
 C47
A   31
 O48
A   32
 C50
A   33
 C53
A   34
 C57
A   35
 N58
A   36
 C59
A   37
 O60
A   38
 C78
A   39
 C81
A   40
 C82
A   41
 C83
A   42
 C84
A   43
 X  
A   44
 F1 
M  END
>  <XChem_code>  (35) 
AG7§14

>  <Occupancy>  (35) 
[1.0, 1.0, 1.0, 1.0, 1.0, 1.0, 1.0, 1.0, 1.0, 1.0, 1.0, 1.0, 1.0, 1.0, 1.0, 1.0, 1.0, 1.0, 1.0, 1.0, 1.0, 1.0, 1.0, 1.0, 1.0, 1.0, 1.0, 1.0, 1.0, 1.0, 1.0, 1.0, 1.0, 1.0, 1.0, 1.0, 1.0, 1.0, 1.0, 1.0, 1.0, 1.0, 1.0, 1.0]

>  <TempFactor>  (35) 
[18.65, 18.72, 21.92, 17.65, 24.86, 15.28, 18.72, 30.43, 27.21, 19.54, 23.37, 32.17, 36.23, 46.57, 43.77, 41.12, 38.94, 15.18, 15.28, 13.93, 16.17, 15.35, 15.96, 15.01, 19.51, 19.89, 20.9, 31.74, 18.14, 17.75, 18.83, 41.08, 57.06, 15.9, 16.12, 18.19, 20.0, 16.9, 18.42, 18.16, 18.76, 20.9, 15.53, 47.08]

>  <accession>  (35) 
3QZQ_A

>  <description>  (35) 
Chain A, 3C protein [Enterovirus A71]

>  <evalue>  (35) 
7.17784e-59

>  <pdb_code>  (35) 
3QZQ

>  <chain>  (35) 
A

>  <ligands>  (35) 
[{'chain_id': 'A', 'author_residue_number': 501, 'author_insertion_code': '', 'chem_comp_id': 'AG7', 'alternate_conformers': 0, 'entity_id': 2, 'struct_asym_id': 'E', 'residue_number': 1, 'chem_comp_name': '4-{2-(4-FLUORO-BENZYL)-6-METHYL-5-[(5-METHYL-ISOXAZOLE-3-CARBONYL)-AMINO]-4-OXO-HEPTANOYLAMINO}-5-(2-OXO-PYRROLIDIN-3-YL)-PENTANOIC ACID ETHYL ESTER', 'weight': 600.678, 'carbohydrate_polymer': False, 'branch_name': ''}, {'chain_id': 'B', 'author_residue_number': 501, 'author_insertion_code': '', 'chem_comp_id': 'AG7', 'alternate_conformers': 0, 'entity_id': 2, 'struct_asym_id': 'F', 'residue_number': 1, 'chem_comp_name': '4-{2-(4-FLUORO-BENZYL)-6-METHYL-5-[(5-METHYL-ISOXAZOLE-3-CARBONYL)-AMINO]-4-OXO-HEPTANOYLAMINO}-5-(2-OXO-PYRROLIDIN-3-YL)-PENTANOIC ACID ETHYL ESTER', 'weight': 600.678, 'carbohydrate_polymer': False, 'branch_name': ''}, {'chain_id': 'C', 'author_residue_number': 501, 'author_insertion_code': '', 'chem_comp_id': 'AG7', 'alternate_conformers': 0, 'entity_id': 2, 'struct_asym_id': 'G', 'residue_number': 1, 'chem_comp_name': '4-{2-(4-FLUORO-BENZYL)-6-METHYL-5-[(5-METHYL-ISOXAZOLE-3-CARBONYL)-AMINO]-4-OXO-HEPTANOYLAMINO}-5-(2-OXO-PYRROLIDIN-3-YL)-PENTANOIC ACID ETHYL ESTER', 'weight': 600.678, 'carbohydrate_polymer': False, 'branch_name': ''}, {'chain_id': 'D', 'author_residue_number': 501, 'author_insertion_code': '', 'chem_comp_id': 'AG7', 'alternate_conformers': 0, 'entity_id': 2, 'struct_asym_id': 'H', 'residue_number': 1, 'chem_comp_name': '4-{2-(4-FLUORO-BENZYL)-6-METHYL-5-[(5-METHYL-ISOXAZOLE-3-CARBONYL)-AMINO]-4-OXO-HEPTANOYLAMINO}-5-(2-OXO-PYRROLIDIN-3-YL)-PENTANOIC ACID ETHYL ESTER', 'weight': 600.678, 'carbohydrate_polymer': False, 'branch_name': ''}]

>  <ligand_codes>  (35) 
['AG7', 'AG7', 'AG7', 'AG7']

>  <cofactor_codes>  (35) 
[]

>  <has_cofactor>  (35) 
False

>  <covalent>  (35) 
True

>  <base_name>  (35) 
3QZQ

>  <lig_resn>  (35) 
AG7

>  <lig_resi>  (35) 
501

>  <lig_chain>  (35) 
A

>  <lig_segi>  (35) 
E

>  <lig_alt>  (35) 


>  <polymer_chain>  (35) 
A

>  <single_smiles>  (35) 
CCOC(=O)CC[C@H](C[C@@H]1CCNC1=O)NC(=O)[C@@H](CC(=O)[C@@H](NC(=O)c2cc(C)on2)C(C)C)Cc3ccc(F)cc3

$$$$
AG7P17
     RDKit          3D

 43 45  0  0  0  0  0  0  0  0999 V2000
   -8.8710   15.0620  -33.3170 C   0  0  0  0  0  0  0  0  0  0  0  0
  -10.4440   17.9550  -29.9640 C   0  0  0  0  0  0  0  0  0  0  0  0
   -9.1800   14.8060  -34.8540 C   0  0  0  0  0  0  0  0  0  0  0  0
  -11.4110   18.8030  -29.4810 C   0  0  0  0  0  0  0  0  0  0  0  0
  -11.4910   18.5900  -28.1400 C   0  0  0  0  0  0  0  0  0  0  0  0
   -9.0090   14.2040  -32.4740 O   0  0  0  0  0  0  0  0  0  0  0  0
   -9.5280   13.3240  -35.1010 C   0  0  1  0  0  0  0  0  0  0  0  0
  -12.4230   19.2880  -27.1820 C   0  0  0  0  0  0  0  0  0  0  0  0
  -10.5980   17.6430  -27.8020 O   0  0  0  0  0  0  0  0  0  0  0  0
   -9.8460   13.1390  -36.6190 C   0  0  0  0  0  0  0  0  0  0  0  0
   -9.9470   17.2590  -28.9530 N   0  0  0  0  0  0  0  0  0  0  0  0
  -11.3040   13.7480  -36.8430 C   0  0  0  0  0  0  0  0  0  0  0  0
  -11.4550   14.8980  -37.6180 C   0  0  0  0  0  0  0  0  0  0  0  0
  -12.7210   15.4360  -37.8160 C   0  0  0  0  0  0  0  0  0  0  0  0
  -13.8390   14.8280  -37.2230 C   0  0  0  0  0  0  0  0  0  0  0  0
  -13.6940   13.6900  -36.4410 C   0  0  0  0  0  0  0  0  0  0  0  0
  -12.4120   13.1420  -36.2450 C   0  0  0  0  0  0  0  0  0  0  0  0
   -8.6980   11.1750  -34.0820 N   0  0  0  0  0  0  0  0  0  0  0  0
   -7.4890   10.4020  -33.7670 C   0  0  1  0  0  0  0  0  0  0  0  0
   -7.5780   10.0070  -32.2880 C   0  0  0  0  0  0  0  0  0  0  0  0
   -7.0980   11.3050  -31.5740 C   0  0  1  0  0  0  0  0  0  0  0  0
   -7.0220   11.0820  -29.9910 C   0  0  0  0  0  0  0  0  0  0  0  0
   -6.0040   11.8390  -29.5420 N   0  0  0  0  0  0  0  0  0  0  0  0
   -7.7390   10.4090  -29.3110 O   0  0  0  0  0  0  0  0  0  0  0  0
   -7.1530    9.1720  -34.5770 C   0  0  0  0  0  0  0  0  0  0  0  0
   -7.7220    9.1500  -35.9970 C   0  0  0  0  0  0  0  0  0  0  0  0
   -6.3220    9.0870  -36.5370 C   0  0  0  0  0  0  0  0  0  0  0  0
   -5.9840    9.6800  -37.7630 O   0  0  0  0  0  0  0  0  0  0  0  0
   -5.5050    8.5250  -35.8520 O   0  0  0  0  0  0  0  0  0  0  0  0
   -8.3800   12.4380  -34.7380 C   0  0  0  0  0  0  0  0  0  0  0  0
   -7.2410   12.6640  -34.9600 O   0  0  0  0  0  0  0  0  0  0  0  0
   -5.1310    8.8390  -38.5240 C   0  0  0  0  0  0  0  0  0  0  0  0
   -5.9360    8.4070  -39.7210 C   0  0  0  0  0  0  0  0  0  0  0  0
   -8.3700   16.4870  -32.8980 C   0  0  1  0  0  0  0  0  0  0  0  0
   -8.9480   16.7880  -31.6380 N   0  0  0  0  0  0  0  0  0  0  0  0
   -9.9620   17.8080  -31.4350 C   0  0  0  0  0  0  0  0  0  0  0  0
  -10.3830   18.4720  -32.3140 O   0  0  0  0  0  0  0  0  0  0  0  0
   -6.8170   16.5120  -32.7400 C   0  0  0  0  0  0  0  0  0  0  0  0
   -6.0760   16.0060  -34.0310 C   0  0  0  0  0  0  0  0  0  0  0  0
   -6.4170   17.9840  -32.4950 C   0  0  0  0  0  0  0  0  0  0  0  0
   -5.3380   12.5590  -30.7110 C   0  0  0  0  0  0  0  0  0  0  0  0
   -5.8430   11.7240  -31.9670 C   0  0  0  0  0  0  0  0  0  0  0  0
  -15.0820   15.3630  -37.4180 F   0  0  0  0  0  0  0  0  0  0  0  0
  1  3  1  0
  1  6  2  0
  1 34  1  0
  2  4  1  0
  2 11  2  0
  2 36  1  0
  7  3  1  6
  4  5  2  0
  5  8  1  0
  5  9  1  0
  7 10  1  0
  7 30  1  0
  9 11  1  0
 10 12  1  0
 12 13  2  0
 12 17  1  0
 13 14  1  0
 14 15  2  0
 15 16  1  0
 15 43  1  0
 16 17  2  0
 18 19  1  0
 18 30  1  0
 19 20  1  1
 19 25  1  0
 21 20  1  6
 21 22  1  0
 21 42  1  0
 22 23  1  0
 22 24  2  0
 23 41  1  0
 25 26  1  0
 26 27  1  0
 27 28  1  0
 27 29  2  0
 28 32  1  0
 30 31  2  0
 32 33  1  0
 34 35  1  1
 34 38  1  0
 35 36  1  0
 36 37  2  0
 38 39  1  0
 38 40  1  0
 41 42  1  0
A    1
 C01
A    2
 C1 
A    3
 C02
A    4
 C2 
A    5
 C3 
A    6
 O03
A    7
 C04
A    8
 C4 
A    9
 O4 
A   10
 C05
A   11
 N5 
A   12
 C06
A   13
 C07
A   14
 C08
A   15
 C09
A   16
 C10
A   17
 C11
A   18
 N12
A   19
 C13
A   20
 C14
A   21
 C15
A   22
 C16
A   23
 N17
A   24
 O18
A   25
 C19
A   26
 C20
A   27
 C21
A   28
 O22
A   29
 O23
A   30
 C47
A   31
 O48
A   32
 C50
A   33
 C53
A   34
 C57
A   35
 N58
A   36
 C59
A   37
 O60
A   38
 C78
A   39
 C81
A   40
 C82
A   41
 C83
A   42
 C84
A   43
 F1 
M  END
>  <XChem_code>  (36) 
AG7§17

>  <Occupancy>  (36) 
[1.0, 1.0, 1.0, 1.0, 1.0, 1.0, 1.0, 1.0, 1.0, 1.0, 1.0, 1.0, 1.0, 1.0, 1.0, 1.0, 1.0, 1.0, 1.0, 1.0, 1.0, 1.0, 1.0, 1.0, 1.0, 1.0, 1.0, 1.0, 1.0, 1.0, 1.0, 1.0, 1.0, 1.0, 1.0, 1.0, 1.0, 1.0, 1.0, 1.0, 1.0, 1.0, 1.0]

>  <TempFactor>  (36) 
[11.58, 15.03, 11.83, 16.25, 16.92, 12.34, 10.54, 20.22, 18.19, 14.53, 16.52, 20.55, 23.87, 20.72, 31.66, 32.21, 24.48, 11.55, 13.92, 10.24, 11.44, 10.75, 11.87, 10.52, 48.42, 14.67, 18.9, 51.51, 20.99, 12.24, 12.71, 37.77, 32.69, 13.62, 12.02, 16.3, 16.59, 14.61, 20.42, 22.35, 13.24, 10.96, 27.55]

>  <accession>  (36) 
5WQ2_A

>  <description>  (36) 
Chain A, 3C protein [Enterovirus A71]

>  <evalue>  (36) 
1.45212e-58

>  <pdb_code>  (36) 
5WQ2

>  <chain>  (36) 
A

>  <ligands>  (36) 
[{'chain_id': 'A', 'author_residue_number': 301, 'author_insertion_code': '', 'chem_comp_id': 'AG7', 'alternate_conformers': 0, 'entity_id': 2, 'struct_asym_id': 'B', 'residue_number': 1, 'chem_comp_name': '4-{2-(4-FLUORO-BENZYL)-6-METHYL-5-[(5-METHYL-ISOXAZOLE-3-CARBONYL)-AMINO]-4-OXO-HEPTANOYLAMINO}-5-(2-OXO-PYRROLIDIN-3-YL)-PENTANOIC ACID ETHYL ESTER', 'weight': 600.678, 'carbohydrate_polymer': False, 'branch_name': ''}, {'chain_id': 'A', 'author_residue_number': 302, 'author_insertion_code': '', 'chem_comp_id': 'SO4', 'alternate_conformers': 0, 'entity_id': 3, 'struct_asym_id': 'C', 'residue_number': 1, 'chem_comp_name': 'SULFATE ION', 'weight': 96.063, 'carbohydrate_polymer': False, 'branch_name': ''}, {'chain_id': 'A', 'author_residue_number': 303, 'author_insertion_code': '', 'chem_comp_id': 'SO4', 'alternate_conformers': 0, 'entity_id': 3, 'struct_asym_id': 'D', 'residue_number': 1, 'chem_comp_name': 'SULFATE ION', 'weight': 96.063, 'carbohydrate_polymer': False, 'branch_name': ''}]

>  <ligand_codes>  (36) 
['AG7', 'SO4', 'SO4']

>  <cofactor_codes>  (36) 
[]

>  <has_cofactor>  (36) 
False

>  <covalent>  (36) 
False

>  <base_name>  (36) 
5WQ2

>  <lig_resn>  (36) 
AG7

>  <lig_resi>  (36) 
301

>  <lig_chain>  (36) 
A

>  <lig_segi>  (36) 
B

>  <lig_alt>  (36) 


>  <polymer_chain>  (36) 
A

>  <single_smiles>  (36) 
CCOC(=O)CC[C@H](C[C@@H]1CCNC1=O)NC(=O)[C@@H](CC(=O)[C@@H](NC(=O)c2cc(C)on2)C(C)C)Cc3ccc(F)cc3

$$$$
EDOP14
     RDKit          3D

  4  3  0  0  0  0  0  0  0  0999 V2000
   -3.5240    6.1840  -39.1480 C   0  0  0  0  0  0  0  0  0  0  0  0
   -3.0550    4.8290  -39.2730 O   0  0  0  0  0  0  0  0  0  0  0  0
   -5.0220    6.2950  -38.8410 C   0  0  0  0  0  0  0  0  0  0  0  0
   -5.3830    5.7350  -37.5790 O   0  0  0  0  0  0  0  0  0  0  0  0
  1  2  1  0
  1  3  1  0
  3  4  1  0
A    1
 C1 
A    2
 O1 
A    3
 C2 
A    4
 O2 
M  END
>  <XChem_code>  (37) 
EDO§14

>  <Occupancy>  (37) 
[1.0, 1.0, 1.0, 1.0]

>  <TempFactor>  (37) 
[20.0, 20.0, 20.0, 20.0]

>  <accession>  (37) 
3QZR_A

>  <description>  (37) 
Chain A, 3C protein [Enterovirus A71]

>  <evalue>  (37) 
1.4913e-58

>  <pdb_code>  (37) 
3QZR

>  <chain>  (37) 
A

>  <ligands>  (37) 
[{'chain_id': 'A', 'author_residue_number': 501, 'author_insertion_code': '', 'chem_comp_id': 'AG7', 'alternate_conformers': 0, 'entity_id': 2, 'struct_asym_id': 'C', 'residue_number': 1, 'chem_comp_name': '4-{2-(4-FLUORO-BENZYL)-6-METHYL-5-[(5-METHYL-ISOXAZOLE-3-CARBONYL)-AMINO]-4-OXO-HEPTANOYLAMINO}-5-(2-OXO-PYRROLIDIN-3-YL)-PENTANOIC ACID ETHYL ESTER', 'weight': 600.678, 'carbohydrate_polymer': False, 'branch_name': ''}, {'chain_id': 'B', 'author_residue_number': 501, 'author_insertion_code': '', 'chem_comp_id': 'AG7', 'alternate_conformers': 0, 'entity_id': 2, 'struct_asym_id': 'E', 'residue_number': 1, 'chem_comp_name': '4-{2-(4-FLUORO-BENZYL)-6-METHYL-5-[(5-METHYL-ISOXAZOLE-3-CARBONYL)-AMINO]-4-OXO-HEPTANOYLAMINO}-5-(2-OXO-PYRROLIDIN-3-YL)-PENTANOIC ACID ETHYL ESTER', 'weight': 600.678, 'carbohydrate_polymer': False, 'branch_name': ''}, {'chain_id': 'A', 'author_residue_number': 184, 'author_insertion_code': '', 'chem_comp_id': 'EDO', 'alternate_conformers': 0, 'entity_id': 3, 'struct_asym_id': 'D', 'residue_number': 1, 'chem_comp_name': '1,2-ETHANEDIOL', 'weight': 62.068, 'carbohydrate_polymer': False, 'branch_name': ''}, {'chain_id': 'B', 'author_residue_number': 184, 'author_insertion_code': '', 'chem_comp_id': 'EDO', 'alternate_conformers': 0, 'entity_id': 3, 'struct_asym_id': 'F', 'residue_number': 1, 'chem_comp_name': '1,2-ETHANEDIOL', 'weight': 62.068, 'carbohydrate_polymer': False, 'branch_name': ''}]

>  <ligand_codes>  (37) 
['AG7', 'AG7', 'EDO', 'EDO']

>  <cofactor_codes>  (37) 
[]

>  <has_cofactor>  (37) 
False

>  <covalent>  (37) 
False

>  <base_name>  (37) 
3QZR

>  <lig_resn>  (37) 
EDO

>  <lig_resi>  (37) 
184

>  <lig_chain>  (37) 
A

>  <lig_segi>  (37) 
D

>  <lig_alt>  (37) 


>  <polymer_chain>  (37) 
A

>  <single_smiles>  (37) 
OCCO

$$$$
AG7P19
     RDKit          3D

 44 46  0  0  0  0  0  0  0  0999 V2000
   -8.6230   14.9040  -33.3450 C   0  0  0  0  0  0  0  0  0  0  0  0
  -10.2350   17.7380  -29.9200 C   0  0  0  0  0  0  0  0  0  0  0  0
   -8.7610   14.6330  -34.8480 C   0  0  0  0  0  0  0  0  0  0  0  0
  -11.1830   18.7320  -29.4090 C   0  0  0  0  0  0  0  0  0  0  0  0
  -11.2610   18.5430  -28.1050 C   0  0  0  0  0  0  0  0  0  0  0  0
   -8.8100   14.0450  -32.5010 O   0  0  0  0  0  0  0  0  0  0  0  0
   -9.0610   13.1510  -35.1400 C   0  0  1  0  0  0  0  0  0  0  0  0
  -12.1530   19.2960  -27.1450 C   0  0  0  0  0  0  0  0  0  0  0  0
  -10.4800   17.4310  -27.8070 O   0  0  0  0  0  0  0  0  0  0  0  0
   -9.1160   12.8370  -36.6190 C   0  0  0  0  0  0  0  0  0  0  0  0
   -9.8640   16.9490  -28.9170 N   0  0  0  0  0  0  0  0  0  0  0  0
  -10.1920   13.6740  -37.2710 C   0  0  0  0  0  0  0  0  0  0  0  0
  -11.5030   13.4290  -37.0200 C   0  0  0  0  0  0  0  0  0  0  0  0
  -12.5530   14.2540  -37.7000 C   0  0  0  0  0  0  0  0  0  0  0  0
  -12.1760   15.2480  -38.5460 C   0  0  0  0  0  0  0  0  0  0  0  0
  -10.7360   15.4850  -38.8530 C   0  0  0  0  0  0  0  0  0  0  0  0
   -9.7790   14.7490  -38.2190 C   0  0  0  0  0  0  0  0  0  0  0  0
   -8.4740   11.0120  -33.9140 N   0  0  0  0  0  0  0  0  0  0  0  0
   -7.5070    9.9600  -33.5600 C   0  0  1  0  0  0  0  0  0  0  0  0
   -7.4170    9.7980  -32.0510 C   0  0  0  0  0  0  0  0  0  0  0  0
   -6.9710   11.0950  -31.3590 C   0  0  1  0  0  0  0  0  0  0  0  0
   -6.8990   10.8960  -29.8990 C   0  0  0  0  0  0  0  0  0  0  0  0
   -5.7720   11.6390  -29.4080 N   0  0  0  0  0  0  0  0  0  0  0  0
   -7.6530   10.2300  -29.2060 O   0  0  0  0  0  0  0  0  0  0  0  0
   -7.8680    8.6790  -34.3150 C   0  0  2  0  0  0  0  0  0  0  0  0
   -7.7390    8.7380  -35.8290 C   0  0  0  0  0  0  0  0  0  0  0  0
   -6.3020    9.0130  -36.2080 C   0  0  0  0  0  0  0  0  0  0  0  0
   -6.0500    9.8390  -37.1600 O   0  0  0  0  0  0  0  0  0  0  0  0
   -5.3750    8.4590  -35.5800 O   0  0  0  0  0  0  0  0  0  0  0  0
   -8.0020   12.2570  -34.5340 C   0  0  0  0  0  0  0  0  0  0  0  0
   -6.8200   12.4370  -34.7580 O   0  0  0  0  0  0  0  0  0  0  0  0
   -4.7460   10.1970  -37.4660 C   0  0  0  0  0  0  0  0  0  0  0  0
   -4.7740   11.5170  -38.2110 C   0  0  0  0  0  0  0  0  0  0  0  0
   -8.3200   16.3610  -32.9460 C   0  0  1  0  0  0  0  0  0  0  0  0
   -8.7210   16.6270  -31.5860 N   0  0  0  0  0  0  0  0  0  0  0  0
   -9.7810   17.5780  -31.3410 C   0  0  0  0  0  0  0  0  0  0  0  0
  -10.2100   18.2950  -32.2350 O   0  0  0  0  0  0  0  0  0  0  0  0
   -6.8620   16.7390  -33.1570 C   0  0  0  0  0  0  0  0  0  0  0  0
   -6.6030   18.1760  -32.7090 C   0  0  0  0  0  0  0  0  0  0  0  0
   -5.9650   15.7790  -32.4070 C   0  0  0  0  0  0  0  0  0  0  0  0
   -5.1520   12.3480  -30.5140 C   0  0  0  0  0  0  0  0  0  0  0  0
   -5.5910   11.5560  -31.7360 C   0  0  0  0  0  0  0  0  0  0  0  0
   -9.7020    8.3680  -33.9610 R   0  0  0  0  0  0  0  0  0  0  0  0
  -13.0940   15.9620  -39.1740 F   0  0  0  0  0  0  0  0  0  0  0  0
  1  3  1  0
  1  6  2  0
  1 34  1  0
  2  4  1  0
  2 11  2  0
  2 36  1  0
  7  3  1  6
  4  5  2  0
  5  8  1  0
  5  9  1  0
  7 10  1  0
  7 30  1  0
  9 11  1  0
 10 12  1  0
 12 13  2  0
 12 17  1  0
 13 14  1  0
 14 15  2  0
 15 16  1  0
 15 44  1  0
 16 17  2  0
 18 19  1  0
 18 30  1  0
 19 20  1  1
 19 25  1  0
 21 20  1  6
 21 22  1  0
 21 42  1  0
 22 23  1  0
 22 24  2  0
 23 41  1  0
 25 26  1  0
 25 43  1  6
 26 27  1  0
 27 28  1  0
 27 29  2  0
 28 32  1  0
 30 31  2  0
 32 33  1  0
 34 35  1  1
 34 38  1  0
 35 36  1  0
 36 37  2  0
 38 39  1  0
 38 40  1  0
 41 42  1  0
V   43 *
A    1
 C01
A    2
 C1 
A    3
 C02
A    4
 C2 
A    5
 C3 
A    6
 O03
A    7
 C04
A    8
 C4 
A    9
 O4 
A   10
 C05
A   11
 N5 
A   12
 C06
A   13
 C07
A   14
 C08
A   15
 C09
A   16
 C10
A   17
 C11
A   18
 N12
A   19
 C13
A   20
 C14
A   21
 C15
A   22
 C16
A   23
 N17
A   24
 O18
A   25
 C19
A   26
 C20
A   27
 C21
A   28
 O22
A   29
 O23
A   30
 C47
A   31
 O48
A   32
 C50
A   33
 C53
A   34
 C57
A   35
 N58
A   36
 C59
A   37
 O60
A   38
 C78
A   39
 C81
A   40
 C82
A   41
 C83
A   42
 C84
A   43
 X  
A   44
 F1 
M  END
>  <XChem_code>  (38) 
AG7§19

>  <Occupancy>  (38) 
[1.0, 1.0, 1.0, 1.0, 1.0, 1.0, 1.0, 0.81, 0.67, 1.0, 0.9, 1.0, 0.99, 0.82, 1.0, 0.97, 0.92, 1.0, 1.0, 1.0, 1.0, 1.0, 1.0, 1.0, 1.0, 1.0, 0.96, 0.94, 0.88, 1.0, 0.97, 0.96, 0.82, 1.0, 1.0, 1.0, 0.94, 1.0, 1.0, 1.0, 1.0, 1.0, 1.0, 0.57]

>  <TempFactor>  (38) 
[8.55, 14.09, 10.4, 16.23, 18.11, 8.39, 11.04, 21.62, 18.04, 14.04, 16.09, 16.2, 18.25, 20.07, 20.39, 19.45, 18.39, 8.91, 9.58, 9.49, 9.06, 8.98, 10.12, 8.25, 10.26, 13.73, 15.91, 18.52, 15.13, 10.09, 11.37, 22.17, 24.58, 9.1, 9.37, 11.23, 12.49, 10.87, 13.0, 11.61, 11.25, 10.85, 9.88, 22.44]

>  <accession>  (38) 
3QZR_A

>  <description>  (38) 
Chain A, 3C protein [Enterovirus A71]

>  <evalue>  (38) 
1.4913e-58

>  <pdb_code>  (38) 
3QZR

>  <chain>  (38) 
A

>  <ligands>  (38) 
[{'chain_id': 'A', 'author_residue_number': 501, 'author_insertion_code': '', 'chem_comp_id': 'AG7', 'alternate_conformers': 0, 'entity_id': 2, 'struct_asym_id': 'C', 'residue_number': 1, 'chem_comp_name': '4-{2-(4-FLUORO-BENZYL)-6-METHYL-5-[(5-METHYL-ISOXAZOLE-3-CARBONYL)-AMINO]-4-OXO-HEPTANOYLAMINO}-5-(2-OXO-PYRROLIDIN-3-YL)-PENTANOIC ACID ETHYL ESTER', 'weight': 600.678, 'carbohydrate_polymer': False, 'branch_name': ''}, {'chain_id': 'B', 'author_residue_number': 501, 'author_insertion_code': '', 'chem_comp_id': 'AG7', 'alternate_conformers': 0, 'entity_id': 2, 'struct_asym_id': 'E', 'residue_number': 1, 'chem_comp_name': '4-{2-(4-FLUORO-BENZYL)-6-METHYL-5-[(5-METHYL-ISOXAZOLE-3-CARBONYL)-AMINO]-4-OXO-HEPTANOYLAMINO}-5-(2-OXO-PYRROLIDIN-3-YL)-PENTANOIC ACID ETHYL ESTER', 'weight': 600.678, 'carbohydrate_polymer': False, 'branch_name': ''}, {'chain_id': 'A', 'author_residue_number': 184, 'author_insertion_code': '', 'chem_comp_id': 'EDO', 'alternate_conformers': 0, 'entity_id': 3, 'struct_asym_id': 'D', 'residue_number': 1, 'chem_comp_name': '1,2-ETHANEDIOL', 'weight': 62.068, 'carbohydrate_polymer': False, 'branch_name': ''}, {'chain_id': 'B', 'author_residue_number': 184, 'author_insertion_code': '', 'chem_comp_id': 'EDO', 'alternate_conformers': 0, 'entity_id': 3, 'struct_asym_id': 'F', 'residue_number': 1, 'chem_comp_name': '1,2-ETHANEDIOL', 'weight': 62.068, 'carbohydrate_polymer': False, 'branch_name': ''}]

>  <ligand_codes>  (38) 
['AG7', 'AG7', 'EDO', 'EDO']

>  <cofactor_codes>  (38) 
[]

>  <has_cofactor>  (38) 
False

>  <covalent>  (38) 
True

>  <base_name>  (38) 
3QZR

>  <lig_resn>  (38) 
AG7

>  <lig_resi>  (38) 
501

>  <lig_chain>  (38) 
A

>  <lig_segi>  (38) 
C

>  <lig_alt>  (38) 


>  <polymer_chain>  (38) 
A

>  <single_smiles>  (38) 
CCOC(=O)CC[C@H](C[C@@H]1CCNC1=O)NC(=O)[C@@H](CC(=O)[C@@H](NC(=O)c2cc(C)on2)C(C)C)Cc3ccc(F)cc3

$$$$
5GIP2
     RDKit          3D

 33 36  0  0  0  0  0  0  0  0999 V2000
   -9.6710   13.3510  -34.9850 C   0  0  1  0  0  0  0  0  0  0  0  0
   -8.9930   14.5510  -34.7960 N   0  0  0  0  0  0  0  0  0  0  0  0
   -7.1670   18.2380  -33.5600 O   0  0  0  0  0  0  0  0  0  0  0  0
  -10.1810   13.2340  -36.3950 C   0  0  0  0  0  0  0  0  0  0  0  0
   -7.9700   17.3240  -34.0490 N   0  0  0  0  0  0  0  0  0  0  0  0
   -8.2950    8.5760  -35.9070 O   0  0  0  0  0  0  0  0  0  0  0  0
   -8.6310   12.3040  -34.7780 C   0  0  0  0  0  0  0  0  0  0  0  0
   -6.1150   11.6600  -29.5560 N   0  0  0  0  0  0  0  0  0  0  0  0
   -7.4990   12.5560  -35.0400 O   0  0  0  0  0  0  0  0  0  0  0  0
   -5.6040   18.6070  -31.6530 C   0  0  0  0  0  0  0  0  0  0  0  0
   -9.0340   11.0510  -34.2690 N   0  0  0  0  0  0  0  0  0  0  0  0
   -9.1710   14.3940  -32.5200 O   0  0  0  0  0  0  0  0  0  0  0  0
  -11.5500   13.8850  -36.5470 C   0  0  0  0  0  0  0  0  0  0  0  0
   -7.8430   10.1480  -29.7250 O   0  0  0  0  0  0  0  0  0  0  0  0
  -12.5600   13.5520  -35.7150 C   0  0  0  0  0  0  0  0  0  0  0  0
  -11.7250   14.8280  -37.5440 C   0  0  0  0  0  0  0  0  0  0  0  0
  -13.7800   14.1620  -35.8710 C   0  0  0  0  0  0  0  0  0  0  0  0
  -13.9420   15.1070  -36.8650 C   0  0  0  0  0  0  0  0  0  0  0  0
  -12.9370   15.4400  -37.6840 C   0  0  0  0  0  0  0  0  0  0  0  0
   -8.7720   15.0010  -33.4870 C   0  0  0  0  0  0  0  0  0  0  0  0
   -7.9860   16.2730  -33.2750 C   0  0  0  0  0  0  0  0  0  0  0  0
   -5.2060   12.5720  -30.2480 C   0  0  0  0  0  0  0  0  0  0  0  0
   -7.0900   16.5190  -32.1990 C   0  0  0  0  0  0  0  0  0  0  0  0
   -8.6530    8.7000  -34.7540 C   0  0  1  0  0  0  0  0  0  0  0  0
   -6.5960   17.8330  -32.4710 C   0  0  0  0  0  0  0  0  0  0  0  0
   -5.7020   13.0220  -31.6100 C   0  0  0  0  0  0  0  0  0  0  0  0
   -8.1730    9.9490  -34.0130 C   0  0  1  0  0  0  0  0  0  0  0  0
   -7.8050    9.9270  -32.5350 C   0  0  0  0  0  0  0  0  0  0  0  0
   -7.2790   11.1660  -31.7440 C   0  0  1  0  0  0  0  0  0  0  0  0
   -6.7840   10.6750  -30.4020 C   0  0  1  0  0  0  0  0  0  0  0  0
   -6.1590   11.8760  -32.4020 C   0  0  0  0  0  0  0  0  0  0  0  0
   -9.6480    8.6280  -34.0830 R   0  0  0  0  0  0  0  0  0  0  0  0
  -15.0890   15.7090  -37.0320 F   0  0  0  0  0  0  0  0  0  0  0  0
  1  2  1  0
  1  4  1  6
  1  7  1  0
  2 20  1  0
  3  5  1  0
  3 25  1  0
  4 13  1  0
  5 21  1  0
 24  6  1  6
  7  9  1  0
  7 11  1  0
  8 22  1  0
  8 30  1  0
 10 25  1  0
 11 27  1  0
 12 20  1  0
 13 15  1  0
 13 16  1  0
 30 14  1  1
 15 17  1  0
 16 19  1  0
 17 18  1  0
 18 19  1  0
 18 33  1  0
 20 21  1  0
 21 23  1  0
 22 26  1  0
 23 25  1  0
 24 27  1  0
 24 32  1  0
 26 31  1  0
 27 28  1  6
 27 32  1  0
 29 28  1  6
 29 30  1  0
 29 31  1  0
V   32 *
A    1
 C1 
A    2
 N1 
A    3
 O1 
A    4
 C2 
A    5
 N2 
A    6
 O2 
A    7
 C3 
A    8
 N3 
A    9
 O3 
A   10
 C4 
A   11
 N4 
A   12
 O4 
A   13
 C5 
A   14
 O5 
A   15
 C6 
A   16
 C7 
A   17
 C8 
A   18
 C9 
A   19
 C10
A   20
 C11
A   21
 C12
A   22
 C13
A   23
 C14
A   24
 C15
A   25
 C16
A   26
 C17
A   27
 C18
A   28
 C19
A   29
 C20
A   30
 C21
A   31
 C22
A   32
 X  
A   33
 F1 
M  END
>  <XChem_code>  (39) 
5GI§2

>  <Occupancy>  (39) 
[1.0, 1.0, 1.0, 1.0, 1.0, 1.0, 1.0, 1.0, 1.0, 1.0, 1.0, 1.0, 1.0, 1.0, 1.0, 1.0, 1.0, 1.0, 1.0, 1.0, 1.0, 1.0, 1.0, 1.0, 1.0, 1.0, 1.0, 1.0, 1.0, 1.0, 1.0, 1.0, 1.0]

>  <TempFactor>  (39) 
[49.16, 50.65, 59.43, 46.46, 58.44, 57.93, 50.07, 43.93, 50.57, 60.46, 51.52, 50.9, 45.67, 43.54, 43.98, 44.86, 44.03, 44.64, 44.87, 49.8, 58.55, 43.97, 57.73, 55.84, 59.19, 44.52, 53.05, 49.04, 46.38, 44.56, 45.51, 26.59, 45.13]

>  <accession>  (39) 
5GSW_A

>  <description>  (39) 
Chain A, 3C protein [Enterovirus A71]

>  <evalue>  (39) 
4.66342e-58

>  <pdb_code>  (39) 
5GSW

>  <chain>  (39) 
A

>  <ligands>  (39) 
[{'chain_id': 'A', 'author_residue_number': 201, 'author_insertion_code': '', 'chem_comp_id': '5GI', 'alternate_conformers': 0, 'entity_id': 2, 'struct_asym_id': 'F', 'residue_number': 1, 'chem_comp_name': '~{N}-[(2~{S})-3-(4-fluorophenyl)-1-oxidanylidene-1-[[(2~{S})-1-oxidanylidene-3-[(3~{S})-2-oxidanylidenepiperidin-3-yl]propan-2-yl]amino]propan-2-yl]-5-methyl-1,2-oxazole-3-carboxamide', 'weight': 444.456, 'carbohydrate_polymer': False, 'branch_name': ''}, {'chain_id': 'B', 'author_residue_number': 201, 'author_insertion_code': '', 'chem_comp_id': '5GI', 'alternate_conformers': 0, 'entity_id': 2, 'struct_asym_id': 'G', 'residue_number': 1, 'chem_comp_name': '~{N}-[(2~{S})-3-(4-fluorophenyl)-1-oxidanylidene-1-[[(2~{S})-1-oxidanylidene-3-[(3~{S})-2-oxidanylidenepiperidin-3-yl]propan-2-yl]amino]propan-2-yl]-5-methyl-1,2-oxazole-3-carboxamide', 'weight': 444.456, 'carbohydrate_polymer': False, 'branch_name': ''}, {'chain_id': 'C', 'author_residue_number': 201, 'author_insertion_code': '', 'chem_comp_id': '5GI', 'alternate_conformers': 0, 'entity_id': 2, 'struct_asym_id': 'H', 'residue_number': 1, 'chem_comp_name': '~{N}-[(2~{S})-3-(4-fluorophenyl)-1-oxidanylidene-1-[[(2~{S})-1-oxidanylidene-3-[(3~{S})-2-oxidanylidenepiperidin-3-yl]propan-2-yl]amino]propan-2-yl]-5-methyl-1,2-oxazole-3-carboxamide', 'weight': 444.456, 'carbohydrate_polymer': False, 'branch_name': ''}, {'chain_id': 'D', 'author_residue_number': 201, 'author_insertion_code': '', 'chem_comp_id': '5GI', 'alternate_conformers': 0, 'entity_id': 2, 'struct_asym_id': 'I', 'residue_number': 1, 'chem_comp_name': '~{N}-[(2~{S})-3-(4-fluorophenyl)-1-oxidanylidene-1-[[(2~{S})-1-oxidanylidene-3-[(3~{S})-2-oxidanylidenepiperidin-3-yl]propan-2-yl]amino]propan-2-yl]-5-methyl-1,2-oxazole-3-carboxamide', 'weight': 444.456, 'carbohydrate_polymer': False, 'branch_name': ''}, {'chain_id': 'E', 'author_residue_number': 201, 'author_insertion_code': '', 'chem_comp_id': '5GI', 'alternate_conformers': 0, 'entity_id': 2, 'struct_asym_id': 'J', 'residue_number': 1, 'chem_comp_name': '~{N}-[(2~{S})-3-(4-fluorophenyl)-1-oxidanylidene-1-[[(2~{S})-1-oxidanylidene-3-[(3~{S})-2-oxidanylidenepiperidin-3-yl]propan-2-yl]amino]propan-2-yl]-5-methyl-1,2-oxazole-3-carboxamide', 'weight': 444.456, 'carbohydrate_polymer': False, 'branch_name': ''}]

>  <ligand_codes>  (39) 
['5GI', '5GI', '5GI', '5GI', '5GI']

>  <cofactor_codes>  (39) 
[]

>  <has_cofactor>  (39) 
False

>  <covalent>  (39) 
True

>  <base_name>  (39) 
5GSW

>  <lig_resn>  (39) 
5GI

>  <lig_resi>  (39) 
201

>  <lig_chain>  (39) 
A

>  <lig_segi>  (39) 
F

>  <lig_alt>  (39) 


>  <polymer_chain>  (39) 
A

>  <single_smiles>  (39) 
Cc1onc(c1)C(=O)N[C@@H](Cc2ccc(F)cc2)C(=O)N[C@@H](C[C@@H]3CCCNC3=O)C=O

$$$$
EDOP15
     RDKit          3D

  4  3  0  0  0  0  0  0  0  0999 V2000
   -4.9320    6.3010  -38.7580 C   0  0  0  0  0  0  0  0  0  0  0  0
   -5.2750    5.6540  -37.5260 O   0  0  0  0  0  0  0  0  0  0  0  0
   -3.4330    6.1390  -39.0240 C   0  0  0  0  0  0  0  0  0  0  0  0
   -3.0690    4.7830  -39.3660 O   0  0  0  0  0  0  0  0  0  0  0  0
  1  2  1  0
  1  3  1  0
  3  4  1  0
A    1
 C1 
A    2
 O1 
A    3
 C2 
A    4
 O2 
M  END
>  <XChem_code>  (40) 
EDO§15

>  <Occupancy>  (40) 
[1.0, 1.0, 1.0, 1.0]

>  <TempFactor>  (40) 
[22.14, 21.87, 22.21, 21.34]

>  <accession>  (40) 
3R0F_A

>  <description>  (40) 
Chain A, 3C protein [Enterovirus A71]

>  <evalue>  (40) 
6.09465e-58

>  <pdb_code>  (40) 
3R0F

>  <chain>  (40) 
A

>  <ligands>  (40) 
[{'chain_id': 'A', 'author_residue_number': 501, 'author_insertion_code': '', 'chem_comp_id': 'AG7', 'alternate_conformers': 0, 'entity_id': 2, 'struct_asym_id': 'C', 'residue_number': 1, 'chem_comp_name': '4-{2-(4-FLUORO-BENZYL)-6-METHYL-5-[(5-METHYL-ISOXAZOLE-3-CARBONYL)-AMINO]-4-OXO-HEPTANOYLAMINO}-5-(2-OXO-PYRROLIDIN-3-YL)-PENTANOIC ACID ETHYL ESTER', 'weight': 600.678, 'carbohydrate_polymer': False, 'branch_name': ''}, {'chain_id': 'B', 'author_residue_number': 501, 'author_insertion_code': '', 'chem_comp_id': 'AG7', 'alternate_conformers': 0, 'entity_id': 2, 'struct_asym_id': 'F', 'residue_number': 1, 'chem_comp_name': '4-{2-(4-FLUORO-BENZYL)-6-METHYL-5-[(5-METHYL-ISOXAZOLE-3-CARBONYL)-AMINO]-4-OXO-HEPTANOYLAMINO}-5-(2-OXO-PYRROLIDIN-3-YL)-PENTANOIC ACID ETHYL ESTER', 'weight': 600.678, 'carbohydrate_polymer': False, 'branch_name': ''}, {'chain_id': 'A', 'author_residue_number': 184, 'author_insertion_code': '', 'chem_comp_id': 'EDO', 'alternate_conformers': 0, 'entity_id': 3, 'struct_asym_id': 'D', 'residue_number': 1, 'chem_comp_name': '1,2-ETHANEDIOL', 'weight': 62.068, 'carbohydrate_polymer': False, 'branch_name': ''}, {'chain_id': 'A', 'author_residue_number': 185, 'author_insertion_code': '', 'chem_comp_id': 'EDO', 'alternate_conformers': 0, 'entity_id': 3, 'struct_asym_id': 'E', 'residue_number': 1, 'chem_comp_name': '1,2-ETHANEDIOL', 'weight': 62.068, 'carbohydrate_polymer': False, 'branch_name': ''}, {'chain_id': 'B', 'author_residue_number': 184, 'author_insertion_code': '', 'chem_comp_id': 'EDO', 'alternate_conformers': 0, 'entity_id': 3, 'struct_asym_id': 'G', 'residue_number': 1, 'chem_comp_name': '1,2-ETHANEDIOL', 'weight': 62.068, 'carbohydrate_polymer': False, 'branch_name': ''}, {'chain_id': 'B', 'author_residue_number': 185, 'author_insertion_code': '', 'chem_comp_id': 'EDO', 'alternate_conformers': 0, 'entity_id': 3, 'struct_asym_id': 'H', 'residue_number': 1, 'chem_comp_name': '1,2-ETHANEDIOL', 'weight': 62.068, 'carbohydrate_polymer': False, 'branch_name': ''}]

>  <ligand_codes>  (40) 
['AG7', 'AG7', 'EDO', 'EDO', 'EDO', 'EDO']

>  <cofactor_codes>  (40) 
[]

>  <has_cofactor>  (40) 
False

>  <covalent>  (40) 
False

>  <base_name>  (40) 
3R0F

>  <lig_resn>  (40) 
EDO

>  <lig_resi>  (40) 
185

>  <lig_chain>  (40) 
A

>  <lig_segi>  (40) 
E

>  <lig_alt>  (40) 


>  <polymer_chain>  (40) 
A

>  <single_smiles>  (40) 
OCCO

$$$$
AG7P21
     RDKit          3D

 44 46  0  0  0  0  0  0  0  0999 V2000
   -8.6380   14.8860  -33.2600 C   0  0  0  0  0  0  0  0  0  0  0  0
  -10.1380   17.8080  -29.8610 C   0  0  0  0  0  0  0  0  0  0  0  0
   -8.6730   14.5850  -34.7520 C   0  0  0  0  0  0  0  0  0  0  0  0
  -11.1190   18.7800  -29.4370 C   0  0  0  0  0  0  0  0  0  0  0  0
  -11.2290   18.6960  -28.1430 C   0  0  0  0  0  0  0  0  0  0  0  0
   -8.8080   14.0630  -32.4060 O   0  0  0  0  0  0  0  0  0  0  0  0
   -9.0190   13.1280  -35.0570 C   0  0  1  0  0  0  0  0  0  0  0  0
  -12.1640   19.5270  -27.3100 C   0  0  0  0  0  0  0  0  0  0  0  0
  -10.5080   17.5930  -27.7590 O   0  0  0  0  0  0  0  0  0  0  0  0
   -9.1080   12.8250  -36.5400 C   0  0  0  0  0  0  0  0  0  0  0  0
   -9.8870   17.0260  -28.8310 N   0  0  0  0  0  0  0  0  0  0  0  0
  -10.1500   13.6920  -37.2180 C   0  0  0  0  0  0  0  0  0  0  0  0
  -11.4610   13.5630  -36.9490 C   0  0  0  0  0  0  0  0  0  0  0  0
  -12.4610   14.3840  -37.6880 C   0  0  0  0  0  0  0  0  0  0  0  0
  -12.0490   15.2290  -38.6420 C   0  0  0  0  0  0  0  0  0  0  0  0
  -10.6060   15.3460  -38.9640 C   0  0  0  0  0  0  0  0  0  0  0  0
   -9.6910   14.5990  -38.2790 C   0  0  0  0  0  0  0  0  0  0  0  0
   -8.3980   11.0090  -33.8670 N   0  0  0  0  0  0  0  0  0  0  0  0
   -7.4250    9.9840  -33.4820 C   0  0  1  0  0  0  0  0  0  0  0  0
   -7.3730    9.8180  -31.9860 C   0  0  0  0  0  0  0  0  0  0  0  0
   -6.9020   11.0990  -31.2870 C   0  0  1  0  0  0  0  0  0  0  0  0
   -6.8840   10.9300  -29.8210 C   0  0  0  0  0  0  0  0  0  0  0  0
   -5.7340   11.6000  -29.3140 N   0  0  0  0  0  0  0  0  0  0  0  0
   -7.5830   10.2190  -29.1600 O   0  0  0  0  0  0  0  0  0  0  0  0
   -7.8000    8.7080  -34.2240 C   0  0  2  0  0  0  0  0  0  0  0  0
   -7.6930    8.7200  -35.7320 C   0  0  0  0  0  0  0  0  0  0  0  0
   -6.2700    8.9490  -36.1640 C   0  0  0  0  0  0  0  0  0  0  0  0
   -6.0890    9.7380  -37.1470 O   0  0  0  0  0  0  0  0  0  0  0  0
   -5.3370    8.3840  -35.5820 O   0  0  0  0  0  0  0  0  0  0  0  0
   -7.9420   12.2650  -34.4580 C   0  0  0  0  0  0  0  0  0  0  0  0
   -6.7840   12.4330  -34.6620 O   0  0  0  0  0  0  0  0  0  0  0  0
   -4.7970   10.0720  -37.5320 C   0  0  0  0  0  0  0  0  0  0  0  0
   -4.8460   11.4130  -38.2360 C   0  0  0  0  0  0  0  0  0  0  0  0
   -8.3120   16.3420  -32.8970 C   0  0  1  0  0  0  0  0  0  0  0  0
   -8.7060   16.6300  -31.5470 N   0  0  0  0  0  0  0  0  0  0  0  0
   -9.7630   17.5740  -31.2860 C   0  0  0  0  0  0  0  0  0  0  0  0
  -10.1690   18.3250  -32.1460 O   0  0  0  0  0  0  0  0  0  0  0  0
   -6.8540   16.7080  -33.1340 C   0  0  0  0  0  0  0  0  0  0  0  0
   -6.6180   18.1230  -32.6450 C   0  0  0  0  0  0  0  0  0  0  0  0
   -5.9260   15.8060  -32.3870 C   0  0  0  0  0  0  0  0  0  0  0  0
   -5.0970   12.3000  -30.4180 C   0  0  0  0  0  0  0  0  0  0  0  0
   -5.5070   11.5250  -31.6520 C   0  0  0  0  0  0  0  0  0  0  0  0
   -9.6610    8.3310  -33.8000 R   0  0  0  0  0  0  0  0  0  0  0  0
  -12.9270   15.9490  -39.3140 F   0  0  0  0  0  0  0  0  0  0  0  0
  1  3  1  0
  1  6  2  0
  1 34  1  0
  2  4  1  0
  2 11  2  0
  2 36  1  0
  7  3  1  6
  4  5  2  0
  5  8  1  0
  5  9  1  0
  7 10  1  0
  7 30  1  0
  9 11  1  0
 10 12  1  0
 12 13  2  0
 12 17  1  0
 13 14  1  0
 14 15  2  0
 15 16  1  0
 15 44  1  0
 16 17  2  0
 18 19  1  0
 18 30  1  0
 19 20  1  1
 19 25  1  0
 21 20  1  6
 21 22  1  0
 21 42  1  0
 22 23  1  0
 22 24  2  0
 23 41  1  0
 25 26  1  0
 25 43  1  6
 26 27  1  0
 27 28  1  0
 27 29  2  0
 28 32  1  0
 30 31  2  0
 32 33  1  0
 34 35  1  1
 34 38  1  0
 35 36  1  0
 36 37  2  0
 38 39  1  0
 38 40  1  0
 41 42  1  0
V   43 *
A    1
 C01
A    2
 C1 
A    3
 C02
A    4
 C2 
A    5
 C3 
A    6
 O03
A    7
 C04
A    8
 C4 
A    9
 O4 
A   10
 C05
A   11
 N5 
A   12
 C06
A   13
 C07
A   14
 C08
A   15
 C09
A   16
 C10
A   17
 C11
A   18
 N12
A   19
 C13
A   20
 C14
A   21
 C15
A   22
 C16
A   23
 N17
A   24
 O18
A   25
 C19
A   26
 C20
A   27
 C21
A   28
 O22
A   29
 O23
A   30
 C47
A   31
 O48
A   32
 C50
A   33
 C53
A   34
 C57
A   35
 N58
A   36
 C59
A   37
 O60
A   38
 C78
A   39
 C81
A   40
 C82
A   41
 C83
A   42
 C84
A   43
 X  
A   44
 F1 
M  END
>  <XChem_code>  (41) 
AG7§21

>  <Occupancy>  (41) 
[1.0, 1.0, 1.0, 1.0, 1.0, 1.0, 1.0, 1.0, 1.0, 1.0, 1.0, 1.0, 1.0, 1.0, 1.0, 1.0, 1.0, 1.0, 1.0, 1.0, 1.0, 1.0, 1.0, 1.0, 1.0, 1.0, 1.0, 1.0, 1.0, 1.0, 1.0, 1.0, 1.0, 1.0, 1.0, 1.0, 1.0, 1.0, 1.0, 1.0, 1.0, 1.0, 1.0, 1.0]

>  <TempFactor>  (41) 
[11.1, 20.91, 12.33, 21.54, 28.02, 10.23, 11.74, 33.15, 31.53, 14.67, 25.91, 17.57, 20.17, 22.48, 24.62, 23.23, 20.48, 10.14, 10.8, 10.98, 11.96, 13.14, 11.93, 10.58, 15.79, 15.3, 17.28, 19.56, 15.73, 11.53, 12.15, 23.48, 27.32, 11.33, 13.47, 17.51, 18.05, 14.14, 15.23, 13.92, 11.83, 10.72, 9.75, 27.35]

>  <accession>  (41) 
3R0F_A

>  <description>  (41) 
Chain A, 3C protein [Enterovirus A71]

>  <evalue>  (41) 
6.09465e-58

>  <pdb_code>  (41) 
3R0F

>  <chain>  (41) 
A

>  <ligands>  (41) 
[{'chain_id': 'A', 'author_residue_number': 501, 'author_insertion_code': '', 'chem_comp_id': 'AG7', 'alternate_conformers': 0, 'entity_id': 2, 'struct_asym_id': 'C', 'residue_number': 1, 'chem_comp_name': '4-{2-(4-FLUORO-BENZYL)-6-METHYL-5-[(5-METHYL-ISOXAZOLE-3-CARBONYL)-AMINO]-4-OXO-HEPTANOYLAMINO}-5-(2-OXO-PYRROLIDIN-3-YL)-PENTANOIC ACID ETHYL ESTER', 'weight': 600.678, 'carbohydrate_polymer': False, 'branch_name': ''}, {'chain_id': 'B', 'author_residue_number': 501, 'author_insertion_code': '', 'chem_comp_id': 'AG7', 'alternate_conformers': 0, 'entity_id': 2, 'struct_asym_id': 'F', 'residue_number': 1, 'chem_comp_name': '4-{2-(4-FLUORO-BENZYL)-6-METHYL-5-[(5-METHYL-ISOXAZOLE-3-CARBONYL)-AMINO]-4-OXO-HEPTANOYLAMINO}-5-(2-OXO-PYRROLIDIN-3-YL)-PENTANOIC ACID ETHYL ESTER', 'weight': 600.678, 'carbohydrate_polymer': False, 'branch_name': ''}, {'chain_id': 'A', 'author_residue_number': 184, 'author_insertion_code': '', 'chem_comp_id': 'EDO', 'alternate_conformers': 0, 'entity_id': 3, 'struct_asym_id': 'D', 'residue_number': 1, 'chem_comp_name': '1,2-ETHANEDIOL', 'weight': 62.068, 'carbohydrate_polymer': False, 'branch_name': ''}, {'chain_id': 'A', 'author_residue_number': 185, 'author_insertion_code': '', 'chem_comp_id': 'EDO', 'alternate_conformers': 0, 'entity_id': 3, 'struct_asym_id': 'E', 'residue_number': 1, 'chem_comp_name': '1,2-ETHANEDIOL', 'weight': 62.068, 'carbohydrate_polymer': False, 'branch_name': ''}, {'chain_id': 'B', 'author_residue_number': 184, 'author_insertion_code': '', 'chem_comp_id': 'EDO', 'alternate_conformers': 0, 'entity_id': 3, 'struct_asym_id': 'G', 'residue_number': 1, 'chem_comp_name': '1,2-ETHANEDIOL', 'weight': 62.068, 'carbohydrate_polymer': False, 'branch_name': ''}, {'chain_id': 'B', 'author_residue_number': 185, 'author_insertion_code': '', 'chem_comp_id': 'EDO', 'alternate_conformers': 0, 'entity_id': 3, 'struct_asym_id': 'H', 'residue_number': 1, 'chem_comp_name': '1,2-ETHANEDIOL', 'weight': 62.068, 'carbohydrate_polymer': False, 'branch_name': ''}]

>  <ligand_codes>  (41) 
['AG7', 'AG7', 'EDO', 'EDO', 'EDO', 'EDO']

>  <cofactor_codes>  (41) 
[]

>  <has_cofactor>  (41) 
False

>  <covalent>  (41) 
True

>  <base_name>  (41) 
3R0F

>  <lig_resn>  (41) 
AG7

>  <lig_resi>  (41) 
501

>  <lig_chain>  (41) 
A

>  <lig_segi>  (41) 
C

>  <lig_alt>  (41) 


>  <polymer_chain>  (41) 
A

>  <single_smiles>  (41) 
CCOC(=O)CC[C@H](C[C@@H]1CCNC1=O)NC(=O)[C@@H](CC(=O)[C@@H](NC(=O)c2cc(C)on2)C(C)C)Cc3ccc(F)cc3

$$$$
7L4P1
     RDKit          3D

 17 19  0  0  0  0  0  0  0  0999 V2000
   -2.6370   15.4740  -29.2610 C   0  0  0  0  0  0  0  0  0  0  0  0
   -2.5800   14.1600  -28.8210 C   0  0  0  0  0  0  0  0  0  0  0  0
   -3.5050   13.2150  -29.2710 C   0  0  0  0  0  0  0  0  0  0  0  0
   -4.4900   13.5890  -30.1810 C   0  0  0  0  0  0  0  0  0  0  0  0
   -4.5620   14.9050  -30.6260 C   0  0  0  0  0  0  0  0  0  0  0  0
   -3.6350   15.8330  -30.1710 C   0  0  0  0  0  0  0  0  0  0  0  0
   -5.4690   12.6020  -30.6730 C   0  0  0  0  0  0  0  0  0  0  0  0
   -6.1210   11.7660  -29.7400 C   0  0  0  0  0  0  0  0  0  0  0  0
   -7.0440   10.8630  -30.2020 C   0  0  0  0  0  0  0  0  0  0  0  0
   -7.3170   10.8020  -31.5910 C   0  0  0  0  0  0  0  0  0  0  0  0
   -8.2360    9.8870  -32.1020 C   0  0  0  0  0  0  0  0  0  0  0  0
   -8.4900    9.8320  -33.4510 C   0  0  0  0  0  0  0  0  0  0  0  0
   -7.8020   10.6740  -34.3220 C   0  0  0  0  0  0  0  0  0  0  0  0
   -6.9060   11.5910  -33.8410 C   0  0  0  0  0  0  0  0  0  0  0  0
   -6.6340   11.6730  -32.4740 C   0  0  0  0  0  0  0  0  0  0  0  0
   -5.7360   12.5480  -31.9840 N   0  0  0  0  0  0  0  0  0  0  0  0
   -7.6750   10.0180  -29.3440 O   0  0  0  0  0  0  0  0  0  0  0  0
  1  2  2  0
  1  6  1  0
  2  3  1  0
  3  4  2  0
  4  5  1  0
  4  7  1  0
  5  6  2  0
  7  8  2  0
  7 16  1  0
  8  9  1  0
  9 10  2  0
  9 17  1  0
 10 11  1  0
 10 15  1  0
 11 12  2  0
 12 13  1  0
 13 14  2  0
 14 15  1  0
 15 16  2  0
A    1
 C1 
A    2
 C2 
A    3
 C3 
A    4
 C4 
A    5
 C5 
A    6
 C6 
A    7
 C7 
A    8
 C8 
A    9
 C9 
A   10
 C10
A   11
 C11
A   12
 C12
A   13
 C13
A   14
 C14
A   15
 C15
A   16
 N16
A   17
 O17
M  END
>  <XChem_code>  (42) 
7L4§1

>  <Occupancy>  (42) 
[1.0, 1.0, 1.0, 1.0, 1.0, 1.0, 1.0, 1.0, 1.0, 1.0, 1.0, 1.0, 1.0, 1.0, 1.0, 1.0, 1.0]

>  <TempFactor>  (42) 
[32.31, 34.48, 32.79, 30.49, 33.31, 34.74, 31.46, 28.75, 29.66, 28.63, 30.13, 29.65, 29.04, 29.23, 27.71, 30.29, 31.62]

>  <accession>  (42) 
2XYA_A

>  <description>  (42) 
Chain A, Picornain 3c [Human rhinovirus sp.]

>  <evalue>  (42) 
9.59605e-58

>  <pdb_code>  (42) 
2XYA

>  <chain>  (42) 
A

>  <ligands>  (42) 
[{'chain_id': 'A', 'author_residue_number': 1181, 'author_insertion_code': '', 'chem_comp_id': '7L4', 'alternate_conformers': 0, 'entity_id': 2, 'struct_asym_id': 'B', 'residue_number': 1, 'chem_comp_name': '2-PHENYLQUINOLIN-4-OL', 'weight': 221.254, 'carbohydrate_polymer': False, 'branch_name': ''}]

>  <ligand_codes>  (42) 
['7L4']

>  <cofactor_codes>  (42) 
[]

>  <has_cofactor>  (42) 
False

>  <covalent>  (42) 
False

>  <base_name>  (42) 
2XYA

>  <lig_resn>  (42) 
7L4

>  <lig_resi>  (42) 
1181

>  <lig_chain>  (42) 
A

>  <lig_segi>  (42) 
B

>  <lig_alt>  (42) 


>  <polymer_chain>  (42) 
A

>  <single_smiles>  (42) 
Oc1cc(nc2ccccc12)c3ccccc3

$$$$
AG7P22
     RDKit          3D

 44 46  0  0  0  0  0  0  0  0999 V2000
   -8.5840   14.6720  -33.4310 C   0  0  0  0  0  0  0  0  0  0  0  0
  -10.0630   17.4900  -30.2480 C   0  0  0  0  0  0  0  0  0  0  0  0
   -8.5890   14.3230  -34.9280 C   0  0  0  0  0  0  0  0  0  0  0  0
  -11.1890   18.2730  -30.0350 C   0  0  0  0  0  0  0  0  0  0  0  0
  -11.4230   18.1130  -28.6670 C   0  0  0  0  0  0  0  0  0  0  0  0
   -8.9950   13.8610  -32.6090 O   0  0  0  0  0  0  0  0  0  0  0  0
   -9.0560   12.8810  -35.1610 C   0  0  1  0  0  0  0  0  0  0  0  0
  -12.5130   18.7590  -27.8190 C   0  0  0  0  0  0  0  0  0  0  0  0
  -10.5110   17.3020  -28.1260 O   0  0  0  0  0  0  0  0  0  0  0  0
   -9.2680   12.7230  -36.6650 C   0  0  0  0  0  0  0  0  0  0  0  0
   -9.6280   16.9280  -29.1140 N   0  0  0  0  0  0  0  0  0  0  0  0
  -10.5280   13.3650  -37.0000 C   0  0  0  0  0  0  0  0  0  0  0  0
  -11.7240   12.8990  -36.4350 C   0  0  0  0  0  0  0  0  0  0  0  0
  -12.9320   13.5180  -36.7470 C   0  0  0  0  0  0  0  0  0  0  0  0
  -12.9510   14.6100  -37.6100 C   0  0  0  0  0  0  0  0  0  0  0  0
  -11.7810   15.0780  -38.1630 C   0  0  0  0  0  0  0  0  0  0  0  0
  -10.5610   14.4560  -37.8460 C   0  0  0  0  0  0  0  0  0  0  0  0
   -8.4650   10.8310  -33.9180 N   0  0  0  0  0  0  0  0  0  0  0  0
   -7.5030    9.8280  -33.4300 C   0  0  1  0  0  0  0  0  0  0  0  0
   -7.3880    9.7920  -31.9090 C   0  0  0  0  0  0  0  0  0  0  0  0
   -6.7420   11.0650  -31.3380 C   0  0  1  0  0  0  0  0  0  0  0  0
   -6.5610   11.0160  -29.8480 C   0  0  0  0  0  0  0  0  0  0  0  0
   -5.5900   11.7760  -29.4540 N   0  0  0  0  0  0  0  0  0  0  0  0
   -7.1850   10.2960  -29.0840 O   0  0  0  0  0  0  0  0  0  0  0  0
   -7.8280    8.4080  -34.0100 C   0  0  2  0  0  0  0  0  0  0  0  0
   -7.5620    8.3420  -35.5410 C   0  0  0  0  0  0  0  0  0  0  0  0
   -6.8410    7.0270  -35.9420 C   0  0  0  0  0  0  0  0  0  0  0  0
   -6.6320    6.9000  -37.2340 O   0  0  0  0  0  0  0  0  0  0  0  0
   -6.4740    6.2040  -35.1210 O   0  0  0  0  0  0  0  0  0  0  0  0
   -8.0530   11.8650  -34.6340 C   0  0  0  0  0  0  0  0  0  0  0  0
   -6.8480   12.0120  -34.8210 O   0  0  0  0  0  0  0  0  0  0  0  0
   -5.8650    5.7760  -37.7420 C   0  0  0  0  0  0  0  0  0  0  0  0
   -5.3170    6.1500  -39.1310 C   0  0  0  0  0  0  0  0  0  0  0  0
   -8.0860   16.0830  -33.0110 C   0  0  1  0  0  0  0  0  0  0  0  0
   -8.6290   16.3950  -31.6970 N   0  0  0  0  0  0  0  0  0  0  0  0
   -9.5640   17.2990  -31.5320 C   0  0  0  0  0  0  0  0  0  0  0  0
   -9.9690   17.8730  -32.5270 O   0  0  0  0  0  0  0  0  0  0  0  0
   -6.5580   16.1960  -32.8000 C   0  0  0  0  0  0  0  0  0  0  0  0
   -6.1440   17.6450  -33.1050 C   0  0  0  0  0  0  0  0  0  0  0  0
   -5.6460   15.2180  -33.5500 C   0  0  0  0  0  0  0  0  0  0  0  0
   -4.7450   12.2020  -30.5760 C   0  0  0  0  0  0  0  0  0  0  0  0
   -5.3020   11.3840  -31.7700 C   0  0  0  0  0  0  0  0  0  0  0  0
   -9.5770    7.9760  -33.7580 R   0  0  0  0  0  0  0  0  0  0  0  0
  -14.1050   15.1750  -37.9340 F   0  0  0  0  0  0  0  0  0  0  0  0
  1  3  1  0
  1  6  2  0
  1 34  1  0
  2  4  1  0
  2 11  2  0
  2 36  1  0
  7  3  1  6
  4  5  2  0
  5  8  1  0
  5  9  1  0
  7 10  1  0
  7 30  1  0
  9 11  1  0
 10 12  1  0
 12 13  2  0
 12 17  1  0
 13 14  1  0
 14 15  2  0
 15 16  1  0
 15 44  1  0
 16 17  2  0
 18 19  1  0
 18 30  1  0
 19 20  1  1
 19 25  1  0
 21 20  1  6
 21 22  1  0
 21 42  1  0
 22 23  1  0
 22 24  2  0
 23 41  1  0
 25 26  1  0
 25 43  1  6
 26 27  1  0
 27 28  1  0
 27 29  2  0
 28 32  1  0
 30 31  2  0
 32 33  1  0
 34 35  1  1
 34 38  1  0
 35 36  1  0
 36 37  2  0
 38 39  1  0
 38 40  1  0
 41 42  1  0
V   43 *
A    1
 C01
A    2
 C1 
A    3
 C02
A    4
 C2 
A    5
 C3 
A    6
 O03
A    7
 C04
A    8
 C4 
A    9
 O4 
A   10
 C05
A   11
 N5 
A   12
 C06
A   13
 C07
A   14
 C08
A   15
 C09
A   16
 C10
A   17
 C11
A   18
 N12
A   19
 C13
A   20
 C14
A   21
 C15
A   22
 C16
A   23
 N17
A   24
 O18
A   25
 C19
A   26
 C20
A   27
 C21
A   28
 O22
A   29
 O23
A   30
 C47
A   31
 O48
A   32
 C50
A   33
 C53
A   34
 C57
A   35
 N58
A   36
 C59
A   37
 O60
A   38
 C78
A   39
 C81
A   40
 C82
A   41
 C83
A   42
 C84
A   43
 X  
A   44
 F1 
M  END
>  <XChem_code>  (43) 
AG7§22

>  <Occupancy>  (43) 
[1.0, 1.0, 1.0, 1.0, 1.0, 1.0, 1.0, 1.0, 1.0, 1.0, 1.0, 1.0, 1.0, 1.0, 1.0, 1.0, 1.0, 1.0, 1.0, 1.0, 1.0, 1.0, 1.0, 1.0, 1.0, 1.0, 1.0, 1.0, 1.0, 1.0, 1.0, 1.0, 1.0, 1.0, 1.0, 1.0, 1.0, 1.0, 1.0, 1.0, 1.0, 1.0, 1.0, 1.0]

>  <TempFactor>  (43) 
[16.99, 17.37, 15.03, 17.27, 16.93, 17.74, 13.17, 18.44, 18.15, 13.03, 17.26, 13.64, 14.2, 14.77, 14.96, 13.35, 14.45, 12.48, 12.74, 12.98, 14.81, 13.66, 14.93, 16.5, 11.73, 10.42, 13.5, 14.67, 11.98, 13.75, 16.69, 15.21, 15.78, 16.7, 16.34, 17.46, 18.53, 17.19, 17.7, 18.6, 16.97, 15.33, 12.99, 18.88]

>  <accession>  (43) 
1CQQ_A

>  <description>  (43) 
Chain A, TYPE 2 RHINOVIRUS 3C PROTEASE [rhinovirus A2]

>  <evalue>  (43) 
1.03838e-57

>  <pdb_code>  (43) 
1CQQ

>  <chain>  (43) 
A

>  <ligands>  (43) 
[{'chain_id': 'A', 'author_residue_number': 501, 'author_insertion_code': '', 'chem_comp_id': 'AG7', 'alternate_conformers': 0, 'entity_id': 2, 'struct_asym_id': 'B', 'residue_number': 1, 'chem_comp_name': '4-{2-(4-FLUORO-BENZYL)-6-METHYL-5-[(5-METHYL-ISOXAZOLE-3-CARBONYL)-AMINO]-4-OXO-HEPTANOYLAMINO}-5-(2-OXO-PYRROLIDIN-3-YL)-PENTANOIC ACID ETHYL ESTER', 'weight': 600.678, 'carbohydrate_polymer': False, 'branch_name': ''}]

>  <ligand_codes>  (43) 
['AG7']

>  <cofactor_codes>  (43) 
[]

>  <has_cofactor>  (43) 
False

>  <covalent>  (43) 
True

>  <base_name>  (43) 
1CQQ

>  <lig_resn>  (43) 
AG7

>  <lig_resi>  (43) 
501

>  <lig_chain>  (43) 
A

>  <lig_segi>  (43) 
B

>  <lig_alt>  (43) 


>  <polymer_chain>  (43) 
A

>  <single_smiles>  (43) 
CCOC(=O)CC[C@H](C[C@@H]1CCNC1=O)NC(=O)[C@@H](CC(=O)[C@@H](NC(=O)c2cc(C)on2)C(C)C)Cc3ccc(F)cc3

$$$$
polymer
     RDKit          3D

 58 58  0  0  0  0  0  0  0  0999 V2000
  -15.3620   22.1790  -27.4390 N   0  0  0  0  0  0  0  0  0  0  0  0
  -12.5790   21.3540  -29.4810 N   0  0  0  0  0  0  0  0  0  0  0  0
  -11.9720   18.6270  -30.4030 N   0  0  0  0  0  0  0  0  0  0  0  0
   -9.7350   16.2520  -31.6700 N   0  0  0  0  0  0  0  0  0  0  0  0
   -9.6030   13.9290  -34.4410 N   0  0  0  0  0  0  0  0  0  0  0  0
   -8.5240   10.6110  -33.8090 N   0  0  0  0  0  0  0  0  0  0  0  0
  -14.0680   21.5380  -27.6320 C   0  0  2  0  0  0  0  0  0  0  0  0
  -12.2360   20.9510  -30.8060 C   0  0  2  0  0  0  0  0  0  0  0  0
  -11.2320   17.4190  -30.2140 C   0  0  2  0  0  0  0  0  0  0  0  0
   -9.2690   15.7910  -32.9510 C   0  0  2  0  0  0  0  0  0  0  0  0
   -9.7190   12.5240  -34.7630 C   0  0  2  0  0  0  0  0  0  0  0  0
   -7.3190    9.9670  -33.3460 C   0  0  1  0  0  0  0  0  0  0  0  0
  -15.4630   23.2690  -26.7060 C   0  0  1  0  0  0  0  0  0  0  0  0
  -13.8200   21.2840  -29.0930 C   0  0  0  0  0  0  0  0  0  0  0  0
  -11.3450   19.7670  -30.6210 C   0  0  1  0  0  0  0  0  0  0  0  0
  -10.8520   16.9140  -31.5780 C   0  0  0  0  0  0  0  0  0  0  0  0
   -9.4760   14.3090  -33.1760 C   0  0  0  0  0  0  0  0  0  0  0  0
   -8.4470   11.8470  -34.2880 C   0  0  0  0  0  0  0  0  0  0  0  0
  -14.4890   23.9180  -26.3430 O   0  0  0  0  0  0  0  0  0  0  0  0
  -14.7460   21.0290  -29.8620 O   0  0  0  0  0  0  0  0  0  0  0  0
  -10.1190   19.8830  -30.5960 O   0  0  0  0  0  0  0  0  0  0  0  0
  -11.5590   17.1540  -32.5510 O   0  0  0  0  0  0  0  0  0  0  0  0
   -9.5290   13.5200  -32.2290 O   0  0  0  0  0  0  0  0  0  0  0  0
   -7.3750   12.4480  -34.3620 O   0  0  0  0  0  0  0  0  0  0  0  0
  -13.9740   20.1330  -27.0070 C   0  0  0  0  0  0  0  0  0  0  0  0
  -11.5450   22.0000  -31.6560 C   0  0  0  0  0  0  0  0  0  0  0  0
  -12.0320   16.4040  -29.4200 C   0  0  0  0  0  0  0  0  0  0  0  0
   -7.7900   16.0900  -33.0900 C   0  0  0  0  0  0  0  0  0  0  0  0
   -9.8560   12.2790  -36.2650 C   0  0  0  0  0  0  0  0  0  0  0  0
   -7.3310    9.8470  -31.8170 C   0  0  0  0  0  0  0  0  0  0  0  0
  -14.0270   19.9780  -25.4860 C   0  0  0  0  0  0  0  0  0  0  0  0
  -11.2540   21.4640  -33.0520 C   0  0  0  0  0  0  0  0  0  0  0  0
   -7.1690   15.4980  -34.3400 C   0  0  0  0  0  0  0  0  0  0  0  0
  -11.0400   12.9250  -36.9220 C   0  0  0  0  0  0  0  0  0  0  0  0
   -7.1160   11.1980  -31.1200 C   0  0  0  0  0  0  0  0  0  0  0  0
  -10.4830   22.4400  -33.9180 C   0  0  0  0  0  0  0  0  0  0  0  0
   -7.1690   11.1210  -29.6010 C   0  0  0  0  0  0  0  0  0  0  0  0
  -13.2440   21.0650  -24.7650 C   0  0  0  0  0  0  0  0  0  0  0  0
   -7.6760   16.2470  -35.5700 C   0  0  0  0  0  0  0  0  0  0  0  0
  -12.3100   12.8260  -36.3750 C   0  0  0  0  0  0  0  0  0  0  0  0
  -15.4650   19.9240  -25.0200 C   0  0  0  0  0  0  0  0  0  0  0  0
   -5.6520   15.5520  -34.2470 C   0  0  0  0  0  0  0  0  0  0  0  0
  -10.8770   13.6090  -38.1140 C   0  0  0  0  0  0  0  0  0  0  0  0
  -13.3920   13.4040  -37.0080 C   0  0  0  0  0  0  0  0  0  0  0  0
  -11.9550   14.1810  -38.7530 C   0  0  0  0  0  0  0  0  0  0  0  0
   -6.5930   12.1190  -28.9300 N   0  0  0  0  0  0  0  0  0  0  0  0
  -11.1230   23.2880  -34.5660 O   0  0  0  0  0  0  0  0  0  0  0  0
   -7.7330   10.1910  -29.0350 O   0  0  0  0  0  0  0  0  0  0  0  0
   -9.2440   22.3600  -33.9420 O   0  0  0  0  0  0  0  0  0  0  0  0
  -13.2150   14.0820  -38.2020 C   0  0  0  0  0  0  0  0  0  0  0  0
  -16.8540   23.8480  -26.6190 C   0  0  0  0  0  0  0  0  0  0  0  0
   -3.6950    6.8460  -37.4040 C   0  0  0  0  0  0  0  0  0  0  0  0
   -2.6800    7.1950  -38.4770 C   0  0  0  0  0  0  0  0  0  0  0  0
   -7.0030    8.6240  -34.0690 C   0  0  0  0  0  0  0  0  0  0  0  0
   -5.9970    8.9560  -35.1740 C   0  0  0  0  0  0  0  0  0  0  0  0
   -5.3280    7.7460  -35.7790 C   0  0  0  0  0  0  0  0  0  0  0  0
   -5.6140    6.6180  -35.3820 O   0  0  0  0  0  0  0  0  0  0  0  0
   -4.4850    7.9540  -36.6840 O   0  0  0  0  0  0  0  0  0  0  0  0
  1  7  1  0
  1 13  1  0
  2  8  1  0
  2 14  1  0
  3  9  1  0
  3 15  1  0
  4 10  1  0
  4 16  1  0
  5 11  1  0
  5 17  1  0
  6 12  1  0
  6 18  1  0
  7 14  1  0
  7 25  1  1
  8 15  1  0
  8 26  1  1
  9 16  1  0
  9 27  1  6
 10 17  1  0
 10 28  1  1
 11 18  1  0
 11 29  1  6
 12 30  1  1
 12 54  1  0
 13 19  1  0
 13 51  1  6
 14 20  1  0
 15 21  1  1
 16 22  1  0
 17 23  1  0
 18 24  1  0
 25 31  1  0
 26 32  1  0
 28 33  1  0
 29 34  1  0
 30 35  1  0
 31 38  1  0
 31 41  1  0
 32 36  1  0
 33 39  1  0
 33 42  1  0
 34 40  1  0
 34 43  1  0
 35 37  1  0
 36 47  1  0
 36 49  1  0
 37 46  1  0
 37 48  1  0
 40 44  1  0
 43 45  1  0
 44 50  1  0
 45 50  1  0
 52 53  1  0
 52 58  1  0
 54 55  1  0
 55 56  1  0
 56 57  1  0
 56 58  1  0
M  CHG  1  49  -1
A    1
 N1 
A    2
 N1 
A    3
 N1 
A    4
 N1 
A    5
 N1 
A    6
 N1 
A    7
 C3 
A    8
 C3 
A    9
 C3 
A   10
 C3 
A   11
 C3 
A   12
 C3 
A   13
 C1 
A   14
 C1 
A   15
 C1 
A   16
 C1 
A   17
 C1 
A   18
 C1 
A   19
 O1 
A   20
 O1 
A   21
 O1 
A   22
 O1 
A   23
 O1 
A   24
 O1 
A   25
 C5 
A   26
 C5 
A   27
 C5 
A   28
 C5 
A   29
 C5 
A   30
 C5 
A   31
 C6 
A   32
 C6 
A   33
 C6 
A   34
 C6 
A   35
 C6 
A   36
 C13
A   37
 C13
A   38
 C7 
A   39
 C7 
A   40
 C7 
A   41
 C8 
A   42
 C8 
A   43
 C8 
A   44
 C29
A   45
 C30
A   46
 N7 
A   47
 O4 
A   48
 O4 
A   49
 O5 
A   50
 C31
A   51
 C2 
A   52
 C36
A   53
 C37
A   54
 C38
A   55
 C39
A   56
 C40
A   57
 O10
A   58
 O11
M  END
>  <XChem_code>  (44) 
polymer

>  <Occupancy>  (44) 
[1.0, 1.0, 1.0, 1.0, 1.0, 1.0, 1.0, 1.0, 1.0, 1.0, 1.0, 1.0, 1.0, 1.0, 1.0, 1.0, 1.0, 1.0, 1.0, 1.0, 1.0, 1.0, 1.0, 1.0, 1.0, 1.0, 1.0, 1.0, 1.0, 1.0, 1.0, 1.0, 1.0, 1.0, 1.0, 1.0, 1.0, 1.0, 1.0, 1.0, 1.0, 1.0, 1.0, 1.0, 1.0, 1.0, 1.0, 1.0, 1.0, 1.0, 1.0, 1.0, 1.0, 1.0, 1.0, 1.0, 1.0, 1.0]

>  <TempFactor>  (44) 
[0.0, 0.0, 0.0, 0.0, 0.0, 0.0, 0.0, 0.0, 0.0, 0.0, 0.0, 0.0, 0.0, 0.0, 0.0, 0.0, 0.0, 0.0, 0.0, 0.0, 0.0, 0.0, 0.0, 0.0, 0.0, 0.0, 0.0, 0.0, 0.0, 0.0, 0.0, 0.0, 0.0, 0.0, 0.0, 0.0, 0.0, 0.0, 0.0, 0.0, 0.0, 0.0, 0.0, 0.0, 0.0, 0.0, 0.0, 0.0, 0.0, 0.0, 0.0, 0.0, 0.0, 0.0, 0.0, 0.0, 0.0, 0.0]

>  <base_name>  (44) 
2b0f

>  <lig_resn>  (44) 
None

>  <lig_resi>  (44) 
1

>  <lig_chain>  (44) 
B

>  <lig_segi>  (44) 


>  <lig_alt>  (44) 


>  <polymer_chain>  (44) 
A

>  <single_smiles>  (44) 
None

$$$$
