x1498L0AP1
     RDKit          3D

  7  7  0  0  0  0  0  0  0  0999 V2000
   -5.6760   11.4090  -29.8020 N   0  0  0  0  0  0  0  0  0  0  0  0
   -6.5010   10.3800  -30.1470 C   0  0  0  0  0  0  0  0  0  0  0  0
   -7.1160    9.7560  -29.1800 O   0  0  0  0  0  0  0  0  0  0  0  0
   -6.7610   10.0140  -31.4690 C   0  0  0  0  0  0  0  0  0  0  0  0
   -6.1610   10.7590  -32.4710 C   0  0  0  0  0  0  0  0  0  0  0  0
   -5.3260   11.8150  -32.1470 C   0  0  0  0  0  0  0  0  0  0  0  0
   -5.1130   12.0970  -30.8080 C   0  0  0  0  0  0  0  0  0  0  0  0
  1  2  2  0
  1  7  1  0
  2  3  1  0
  2  4  1  0
  4  5  2  0
  5  6  1  0
  6  7  2  0
A    1
 N  
A    2
 C  
A    3
 O  
A    4
 C1 
A    5
 C2 
A    6
 C3 
A    7
 C4 
M  END
>  <XChem_code>  (1) 
D68EV3CPROA-x1498

>  <Occupancy>  (1) 
[0.88, 0.88, 0.88, 0.88, 0.88, 0.88, 0.88]

>  <TempFactor>  (1) 
[42.68, 37.56, 35.8, 40.47, 43.12, 43.66, 44.2]

>  <RealCrystalName>  (1) 
D68EV3CPROA-x1498

>  <smiles>  (1) 
OC=1C=CC=CN1

>  <new_smiles>  (1) 
OC=1C=CC=CN1

>  <alternate_name>  (1) 
Z1741982125

>  <site_name>  (1) 
1

>  <pdb_entry>  (1) 
nan

>  <mol>  (1) 
<rdkit.Chem.rdchem.Mol object at 0x13a26d1c0>

>  <single_smiles>  (1) 
Oc1ccccn1

>  <base_name>  (1) 
D68EV3CPROA-x1498_0A

>  <lig_resn>  (1) 
LIG

>  <lig_resi>  (1) 
201

>  <lig_chain>  (1) 
A

>  <lig_segi>  (1) 


>  <lig_alt>  (1) 


>  <polymer_chain>  (1) 
A

$$$$
x1498L0AP2
     RDKit          3D

  7  7  0  0  0  0  0  0  0  0999 V2000
  -18.2580   19.9450  -20.8390 N   0  0  0  0  0  0  0  0  0  0  0  0
  -19.3030   19.1730  -21.2740 C   0  0  0  0  0  0  0  0  0  0  0  0
  -19.7950   18.2350  -20.4300 O   0  0  0  0  0  0  0  0  0  0  0  0
  -19.8620   19.3270  -22.5430 C   0  0  0  0  0  0  0  0  0  0  0  0
  -19.3240   20.2810  -23.3900 C   0  0  0  0  0  0  0  0  0  0  0  0
  -18.2770   21.0700  -22.9690 C   0  0  0  0  0  0  0  0  0  0  0  0
  -17.7820   20.8710  -21.6940 C   0  0  0  0  0  0  0  0  0  0  0  0
  1  2  2  0
  1  7  1  0
  2  3  1  0
  2  4  1  0
  4  5  2  0
  5  6  1  0
  6  7  2  0
A    1
 N  
A    2
 C  
A    3
 O  
A    4
 C1 
A    5
 C2 
A    6
 C3 
A    7
 C4 
M  END
>  <XChem_code>  (2) 
D68EV3CPROA-x1498

>  <Occupancy>  (2) 
[0.88, 0.88, 0.88, 0.88, 0.88, 0.88, 0.88]

>  <TempFactor>  (2) 
[53.3, 52.52, 51.54, 47.0, 49.42, 50.99, 52.44]

>  <RealCrystalName>  (2) 
D68EV3CPROA-x1498

>  <smiles>  (2) 
OC=1C=CC=CN1

>  <new_smiles>  (2) 
OC=1C=CC=CN1

>  <alternate_name>  (2) 
Z1741982125

>  <site_name>  (2) 
1

>  <pdb_entry>  (2) 
nan

>  <mol>  (2) 
<rdkit.Chem.rdchem.Mol object at 0x13a26d1c0>

>  <single_smiles>  (2) 
Oc1ccccn1

>  <base_name>  (2) 
D68EV3CPROA-x1498_0A

>  <lig_resn>  (2) 
LIG

>  <lig_resi>  (2) 
201

>  <lig_chain>  (2) 
B

>  <lig_segi>  (2) 


>  <lig_alt>  (2) 


>  <polymer_chain>  (2) 
B

$$$$
x0771L1AP1
     RDKit          3D

 12 13  0  0  0  0  0  0  0  0999 V2000
   -5.6790   11.9310  -29.3990 N   0  0  0  0  0  0  0  0  0  0  0  0
   -6.3840   10.8960  -29.8420 C   0  0  0  0  0  0  0  0  0  0  0  0
   -6.9430   10.0880  -29.0820 O   0  0  0  0  0  0  0  0  0  0  0  0
   -6.5020   10.7170  -31.3270 C   0  0  0  0  0  0  0  0  0  0  0  0
   -6.7520   10.0160  -35.4110 N   0  0  0  0  0  0  0  0  0  0  0  0
   -6.5570   11.8360  -32.1720 C   0  0  0  0  0  0  0  0  0  0  0  0
   -6.6430   11.6880  -33.5490 C   0  0  0  0  0  0  0  0  0  0  0  0
   -6.6470   10.3990  -34.0790 C   0  0  0  0  0  0  0  0  0  0  0  0
   -6.3200    8.6230  -35.5550 C   0  0  0  0  0  0  0  0  0  0  0  0
   -6.4470    8.0560  -34.1300 C   0  0  0  0  0  0  0  0  0  0  0  0
   -6.5640    9.2800  -33.2630 C   0  0  0  0  0  0  0  0  0  0  0  0
   -6.5210    9.4400  -31.8850 C   0  0  0  0  0  0  0  0  0  0  0  0
  1  2  1  0
  2  3  2  0
  2  4  1  0
  4  6  2  0
  4 12  1  0
  5  8  1  0
  5  9  1  0
  6  7  1  0
  7  8  2  0
  8 11  1  0
  9 10  1  0
 10 11  1  0
 11 12  2  0
A    1
 N  
A    2
 C  
A    3
 O  
A    4
 C1 
A    5
 N1 
A    6
 C2 
A    7
 C3 
A    8
 C4 
A    9
 C5 
A   10
 C6 
A   11
 C7 
A   12
 C8 
M  END
>  <XChem_code>  (3) 
D68EV3CPROA-x0771

>  <Occupancy>  (3) 
[0.64, 0.64, 0.64, 0.64, 0.64, 0.64, 0.64, 0.64, 0.64, 0.64, 0.64, 0.64]

>  <TempFactor>  (3) 
[49.02, 50.98, 46.17, 54.1, 60.3, 56.33, 58.38, 60.28, 61.4, 60.15, 59.84, 57.61]

>  <RealCrystalName>  (3) 
D68EV3CPROA-x0771

>  <smiles>  (3) 
Cl.NC(=O)c1ccc2NCCc2c1

>  <new_smiles>  (3) 
Cl.NC(=O)c1ccc2NCCc2c1

>  <alternate_name>  (3) 
Z1696091761

>  <site_name>  (3) 
3

>  <pdb_entry>  (3) 
nan

>  <mol>  (3) 
<rdkit.Chem.rdchem.Mol object at 0x13a1a3680>

>  <single_smiles>  (3) 
NC(=O)c1ccc2c(c1)CCN2

>  <base_name>  (3) 
D68EV3CPROA-x0771_1A

>  <lig_resn>  (3) 
LIG

>  <lig_resi>  (3) 
301

>  <lig_chain>  (3) 
A

>  <lig_segi>  (3) 


>  <lig_alt>  (3) 


>  <polymer_chain>  (3) 
A

$$$$
x0980L0BP1
     RDKit          3D

 17 18  0  0  0  0  0  0  0  0999 V2000
   -4.3660   13.8820  -31.0770 N   0  0  0  0  0  0  0  0  0  0  0  0
   -2.8990   13.8130  -33.5730 C   0  0  0  0  0  0  0  0  0  0  0  0
   -2.8790   12.5190  -30.0510 O   0  0  0  0  0  0  0  0  0  0  0  0
   -2.7490   14.9250  -32.5660 C   0  0  0  0  0  0  0  0  0  0  0  0
   -7.1710    9.9370  -29.6620 N   0  0  0  0  0  0  0  0  0  0  0  0
   -1.8480   15.9640  -32.7910 C   0  0  0  0  0  0  0  0  0  0  0  0
   -1.6300   16.9590  -31.8560 C   0  0  0  0  0  0  0  0  0  0  0  0
   -2.3440   16.9140  -30.6860 C   0  0  0  0  0  0  0  0  0  0  0  0
   -3.2680   15.9380  -30.4090 C   0  0  0  0  0  0  0  0  0  0  0  0
   -3.4680   14.9320  -31.3550 C   0  0  0  0  0  0  0  0  0  0  0  0
   -4.0230   12.7490  -30.4300 C   0  0  0  0  0  0  0  0  0  0  0  0
   -5.1320   11.7810  -30.1740 C   0  0  0  0  0  0  0  0  0  0  0  0
   -5.8670   11.2200  -31.2140 C   0  0  0  0  0  0  0  0  0  0  0  0
   -6.8630   10.3130  -30.9100 C   0  0  0  0  0  0  0  0  0  0  0  0
   -6.4560   10.4850  -28.6720 C   0  0  0  0  0  0  0  0  0  0  0  0
   -5.4400   11.4000  -28.8740 C   0  0  0  0  0  0  0  0  0  0  0  0
   -2.1100   17.8670  -29.7410 F   0  0  0  0  0  0  0  0  0  0  0  0
  1 10  1  0
  1 11  1  0
  2  4  1  0
  3 11  2  0
  4  6  2  0
  4 10  1  0
  5 14  2  0
  5 15  1  0
  6  7  1  0
  7  8  2  0
  8  9  1  0
  8 17  1  0
  9 10  2  0
 11 12  1  0
 12 13  2  0
 12 16  1  0
 13 14  1  0
 15 16  2  0
A    1
 N  
A    2
 C  
A    3
 O  
A    4
 C1 
A    5
 N1 
A    6
 C2 
A    7
 C3 
A    8
 C4 
A    9
 C5 
A   10
 C6 
A   11
 C7 
A   12
 C8 
A   13
 C9 
A   14
 C10
A   15
 C11
A   16
 C12
A   17
 F  
M  END
>  <XChem_code>  (4) 
D68EV3CPROA-x0980

>  <Occupancy>  (4) 
[0.62, 0.62, 0.62, 0.62, 0.62, 0.62, 0.62, 0.62, 0.62, 0.62, 0.62, 0.62, 0.62, 0.62, 0.62, 0.62, 0.62]

>  <TempFactor>  (4) 
[63.79, 74.68, 53.61, 73.53, 45.77, 75.37, 78.48, 80.64, 76.38, 71.86, 57.46, 53.08, 49.42, 49.52, 51.16, 51.21, 87.9]

>  <RealCrystalName>  (4) 
D68EV3CPROA-x0980

>  <smiles>  (4) 
Cc1ccc(F)cc1NC(=O)c2ccncc2

>  <new_smiles>  (4) 
Cc1ccc(F)cc1NC(=O)c2ccncc2

>  <alternate_name>  (4) 
Z30904160

>  <site_name>  (4) 
1

>  <pdb_entry>  (4) 
nan

>  <mol>  (4) 
<rdkit.Chem.rdchem.Mol object at 0x13a1a3d10>

>  <single_smiles>  (4) 
Cc1ccc(F)cc1NC(=O)c1ccncc1

>  <base_name>  (4) 
D68EV3CPROA-x0980_0B

>  <lig_resn>  (4) 
LIG

>  <lig_resi>  (4) 
201

>  <lig_chain>  (4) 
B

>  <lig_segi>  (4) 


>  <lig_alt>  (4) 


>  <polymer_chain>  (4) 
B

$$$$
x0980L0BP1S1
     RDKit          3D

  8  8  0  0  0  0  0  0  0  0999 V2000
   -4.0230   12.7490  -30.4300 C   0  0  0  0  0  0  0  0  0  0  0  0
   -2.8790   12.5190  -30.0510 O   0  0  0  0  0  0  0  0  0  0  0  0
   -5.1320   11.7810  -30.1740 C   0  0  0  0  0  0  0  0  0  0  0  0
   -5.8670   11.2200  -31.2140 C   0  0  0  0  0  0  0  0  0  0  0  0
   -5.4400   11.4000  -28.8740 C   0  0  0  0  0  0  0  0  0  0  0  0
   -6.8630   10.3130  -30.9100 C   0  0  0  0  0  0  0  0  0  0  0  0
   -6.4560   10.4850  -28.6720 C   0  0  0  0  0  0  0  0  0  0  0  0
   -7.1710    9.9370  -29.6620 N   0  0  0  0  0  0  0  0  0  0  0  0
  2  1  2  0
  1  3  1  0
  3  4  2  0
  3  5  1  0
  4  6  1  0
  7  5  2  0
  8  6  2  0
  8  7  1  0
A    2
 O  
A    3
 C8 
A    4
 C9 
A    5
 C12
A    6
 C10
A    7
 C11
A    8
 N1 
M  END
>  <XChem_code>  (5) 
D68EV3CPROA-x0980

>  <Occupancy>  (5) 
[0.62, 0.62, 0.62, 0.62, 0.62, 0.62, 0.62, 0.62, 0.62, 0.62, 0.62, 0.62, 0.62, 0.62, 0.62, 0.62, 0.62]

>  <TempFactor>  (5) 
[63.79, 74.68, 53.61, 73.53, 45.77, 75.37, 78.48, 80.64, 76.38, 71.86, 57.46, 53.08, 49.42, 49.52, 51.16, 51.21, 87.9]

>  <RealCrystalName>  (5) 
D68EV3CPROA-x0980

>  <smiles>  (5) 
Cc1ccc(F)cc1NC(=O)c2ccncc2

>  <new_smiles>  (5) 
Cc1ccc(F)cc1NC(=O)c2ccncc2

>  <alternate_name>  (5) 
Z30904160

>  <site_name>  (5) 
1

>  <pdb_entry>  (5) 
nan

>  <mol>  (5) 
<rdkit.Chem.rdchem.Mol object at 0x13a1a3d10>

>  <single_smiles>  (5) 
Cc1ccc(F)cc1NC(=O)c1ccncc1

>  <base_name>  (5) 
D68EV3CPROA-x0980_0B

>  <lig_resn>  (5) 
LIG

>  <lig_resi>  (5) 
201

>  <lig_chain>  (5) 
B

>  <lig_segi>  (5) 


>  <lig_alt>  (5) 


>  <polymer_chain>  (5) 
B

$$$$
x0980L0BP1S2
     RDKit          3D

  9  9  0  0  0  0  0  0  0  0999 V2000
   -4.3660   13.8820  -31.0770 N   0  0  0  0  0  0  0  0  0  0  0  0
   -3.4680   14.9320  -31.3550 C   0  0  0  0  0  0  0  0  0  0  0  0
   -2.7490   14.9250  -32.5660 C   0  0  0  0  0  0  0  0  0  0  0  0
   -3.2680   15.9380  -30.4090 C   0  0  0  0  0  0  0  0  0  0  0  0
   -2.8990   13.8130  -33.5730 C   0  0  0  0  0  0  0  0  0  0  0  0
   -1.8480   15.9640  -32.7910 C   0  0  0  0  0  0  0  0  0  0  0  0
   -2.3440   16.9140  -30.6860 C   0  0  0  0  0  0  0  0  0  0  0  0
   -1.6300   16.9590  -31.8560 C   0  0  0  0  0  0  0  0  0  0  0  0
   -2.1100   17.8670  -29.7410 F   0  0  0  0  0  0  0  0  0  0  0  0
  1  2  1  0
  3  2  2  0
  4  2  1  0
  5  3  1  0
  3  6  1  0
  7  4  2  0
  6  8  2  0
  8  7  1  0
  7  9  1  0
A    2
 C6 
A    3
 C1 
A    4
 C5 
A    5
 C  
A    6
 C2 
A    7
 C4 
A    8
 C3 
A    9
 F  
M  END
>  <XChem_code>  (6) 
D68EV3CPROA-x0980

>  <Occupancy>  (6) 
[0.62, 0.62, 0.62, 0.62, 0.62, 0.62, 0.62, 0.62, 0.62, 0.62, 0.62, 0.62, 0.62, 0.62, 0.62, 0.62, 0.62]

>  <TempFactor>  (6) 
[63.79, 74.68, 53.61, 73.53, 45.77, 75.37, 78.48, 80.64, 76.38, 71.86, 57.46, 53.08, 49.42, 49.52, 51.16, 51.21, 87.9]

>  <RealCrystalName>  (6) 
D68EV3CPROA-x0980

>  <smiles>  (6) 
Cc1ccc(F)cc1NC(=O)c2ccncc2

>  <new_smiles>  (6) 
Cc1ccc(F)cc1NC(=O)c2ccncc2

>  <alternate_name>  (6) 
Z30904160

>  <site_name>  (6) 
1

>  <pdb_entry>  (6) 
nan

>  <mol>  (6) 
<rdkit.Chem.rdchem.Mol object at 0x13a1a3d10>

>  <single_smiles>  (6) 
Cc1ccc(F)cc1NC(=O)c1ccncc1

>  <base_name>  (6) 
D68EV3CPROA-x0980_0B

>  <lig_resn>  (6) 
LIG

>  <lig_resi>  (6) 
201

>  <lig_chain>  (6) 
B

>  <lig_segi>  (6) 


>  <lig_alt>  (6) 


>  <polymer_chain>  (6) 
B

$$$$
x0980L0BP1S3
     RDKit          3D

  8  8  0  0  0  0  0  0  0  0999 V2000
   -3.4680   14.9320  -31.3550 C   0  0  0  0  0  0  0  0  0  0  0  0
   -2.7490   14.9250  -32.5660 C   0  0  0  0  0  0  0  0  0  0  0  0
   -3.2680   15.9380  -30.4090 C   0  0  0  0  0  0  0  0  0  0  0  0
   -2.8990   13.8130  -33.5730 C   0  0  0  0  0  0  0  0  0  0  0  0
   -1.8480   15.9640  -32.7910 C   0  0  0  0  0  0  0  0  0  0  0  0
   -2.3440   16.9140  -30.6860 C   0  0  0  0  0  0  0  0  0  0  0  0
   -1.6300   16.9590  -31.8560 C   0  0  0  0  0  0  0  0  0  0  0  0
   -2.1100   17.8670  -29.7410 F   0  0  0  0  0  0  0  0  0  0  0  0
  2  1  2  0
  3  1  1  0
  4  2  1  0
  2  5  1  0
  6  3  2  0
  5  7  2  0
  7  6  1  0
  6  8  1  0
A    2
 C1 
A    3
 C5 
A    4
 C  
A    5
 C2 
A    6
 C4 
A    7
 C3 
A    8
 F  
M  END
>  <XChem_code>  (7) 
D68EV3CPROA-x0980

>  <Occupancy>  (7) 
[0.62, 0.62, 0.62, 0.62, 0.62, 0.62, 0.62, 0.62, 0.62, 0.62, 0.62, 0.62, 0.62, 0.62, 0.62, 0.62, 0.62]

>  <TempFactor>  (7) 
[63.79, 74.68, 53.61, 73.53, 45.77, 75.37, 78.48, 80.64, 76.38, 71.86, 57.46, 53.08, 49.42, 49.52, 51.16, 51.21, 87.9]

>  <RealCrystalName>  (7) 
D68EV3CPROA-x0980

>  <smiles>  (7) 
Cc1ccc(F)cc1NC(=O)c2ccncc2

>  <new_smiles>  (7) 
Cc1ccc(F)cc1NC(=O)c2ccncc2

>  <alternate_name>  (7) 
Z30904160

>  <site_name>  (7) 
1

>  <pdb_entry>  (7) 
nan

>  <mol>  (7) 
<rdkit.Chem.rdchem.Mol object at 0x13a1a3d10>

>  <single_smiles>  (7) 
Cc1ccc(F)cc1NC(=O)c1ccncc1

>  <base_name>  (7) 
D68EV3CPROA-x0980_0B

>  <lig_resn>  (7) 
LIG

>  <lig_resi>  (7) 
201

>  <lig_chain>  (7) 
B

>  <lig_segi>  (7) 


>  <lig_alt>  (7) 


>  <polymer_chain>  (7) 
B

$$$$
x0980L0BP1S4
     RDKit          3D

  9  9  0  0  0  0  0  0  0  0999 V2000
   -4.3660   13.8820  -31.0770 N   0  0  0  0  0  0  0  0  0  0  0  0
   -4.0230   12.7490  -30.4300 C   0  0  0  0  0  0  0  0  0  0  0  0
   -2.8790   12.5190  -30.0510 O   0  0  0  0  0  0  0  0  0  0  0  0
   -5.1320   11.7810  -30.1740 C   0  0  0  0  0  0  0  0  0  0  0  0
   -5.8670   11.2200  -31.2140 C   0  0  0  0  0  0  0  0  0  0  0  0
   -5.4400   11.4000  -28.8740 C   0  0  0  0  0  0  0  0  0  0  0  0
   -6.8630   10.3130  -30.9100 C   0  0  0  0  0  0  0  0  0  0  0  0
   -6.4560   10.4850  -28.6720 C   0  0  0  0  0  0  0  0  0  0  0  0
   -7.1710    9.9370  -29.6620 N   0  0  0  0  0  0  0  0  0  0  0  0
  1  2  1  0
  3  2  2  0
  2  4  1  0
  4  5  2  0
  4  6  1  0
  5  7  1  0
  8  6  2  0
  9  7  2  0
  9  8  1  0
A    2
 C7 
A    3
 O  
A    4
 C8 
A    5
 C9 
A    6
 C12
A    7
 C10
A    8
 C11
A    9
 N1 
M  END
>  <XChem_code>  (8) 
D68EV3CPROA-x0980

>  <Occupancy>  (8) 
[0.62, 0.62, 0.62, 0.62, 0.62, 0.62, 0.62, 0.62, 0.62, 0.62, 0.62, 0.62, 0.62, 0.62, 0.62, 0.62, 0.62]

>  <TempFactor>  (8) 
[63.79, 74.68, 53.61, 73.53, 45.77, 75.37, 78.48, 80.64, 76.38, 71.86, 57.46, 53.08, 49.42, 49.52, 51.16, 51.21, 87.9]

>  <RealCrystalName>  (8) 
D68EV3CPROA-x0980

>  <smiles>  (8) 
Cc1ccc(F)cc1NC(=O)c2ccncc2

>  <new_smiles>  (8) 
Cc1ccc(F)cc1NC(=O)c2ccncc2

>  <alternate_name>  (8) 
Z30904160

>  <site_name>  (8) 
1

>  <pdb_entry>  (8) 
nan

>  <mol>  (8) 
<rdkit.Chem.rdchem.Mol object at 0x13a1a3d10>

>  <single_smiles>  (8) 
Cc1ccc(F)cc1NC(=O)c1ccncc1

>  <base_name>  (8) 
D68EV3CPROA-x0980_0B

>  <lig_resn>  (8) 
LIG

>  <lig_resi>  (8) 
201

>  <lig_chain>  (8) 
B

>  <lig_segi>  (8) 


>  <lig_alt>  (8) 


>  <polymer_chain>  (8) 
B

$$$$
x0980L0BP1S5
     RDKit          3D

  6  6  0  0  0  0  0  0  0  0999 V2000
   -5.1320   11.7810  -30.1740 C   0  0  0  0  0  0  0  0  0  0  0  0
   -5.8670   11.2200  -31.2140 C   0  0  0  0  0  0  0  0  0  0  0  0
   -5.4400   11.4000  -28.8740 C   0  0  0  0  0  0  0  0  0  0  0  0
   -6.8630   10.3130  -30.9100 C   0  0  0  0  0  0  0  0  0  0  0  0
   -6.4560   10.4850  -28.6720 C   0  0  0  0  0  0  0  0  0  0  0  0
   -7.1710    9.9370  -29.6620 N   0  0  0  0  0  0  0  0  0  0  0  0
  1  2  2  0
  1  3  1  0
  2  4  1  0
  5  3  2  0
  6  4  2  0
  6  5  1  0
A    2
 C9 
A    3
 C12
A    4
 C10
A    5
 C11
A    6
 N1 
M  END
>  <XChem_code>  (9) 
D68EV3CPROA-x0980

>  <Occupancy>  (9) 
[0.62, 0.62, 0.62, 0.62, 0.62, 0.62, 0.62, 0.62, 0.62, 0.62, 0.62, 0.62, 0.62, 0.62, 0.62, 0.62, 0.62]

>  <TempFactor>  (9) 
[63.79, 74.68, 53.61, 73.53, 45.77, 75.37, 78.48, 80.64, 76.38, 71.86, 57.46, 53.08, 49.42, 49.52, 51.16, 51.21, 87.9]

>  <RealCrystalName>  (9) 
D68EV3CPROA-x0980

>  <smiles>  (9) 
Cc1ccc(F)cc1NC(=O)c2ccncc2

>  <new_smiles>  (9) 
Cc1ccc(F)cc1NC(=O)c2ccncc2

>  <alternate_name>  (9) 
Z30904160

>  <site_name>  (9) 
1

>  <pdb_entry>  (9) 
nan

>  <mol>  (9) 
<rdkit.Chem.rdchem.Mol object at 0x13a1a3d10>

>  <single_smiles>  (9) 
Cc1ccc(F)cc1NC(=O)c1ccncc1

>  <base_name>  (9) 
D68EV3CPROA-x0980_0B

>  <lig_resn>  (9) 
LIG

>  <lig_resi>  (9) 
201

>  <lig_chain>  (9) 
B

>  <lig_segi>  (9) 


>  <lig_alt>  (9) 


>  <polymer_chain>  (9) 
B

$$$$
x0980L0BP1S6
     RDKit          3D

 11 11  0  0  0  0  0  0  0  0999 V2000
   -4.0230   12.7490  -30.4300 C   0  0  0  0  0  0  0  0  0  0  0  0
   -4.3660   13.8820  -31.0770 N   0  0  0  0  0  0  0  0  0  0  0  0
   -2.8790   12.5190  -30.0510 O   0  0  0  0  0  0  0  0  0  0  0  0
   -3.4680   14.9320  -31.3550 C   0  0  0  0  0  0  0  0  0  0  0  0
   -2.7490   14.9250  -32.5660 C   0  0  0  0  0  0  0  0  0  0  0  0
   -3.2680   15.9380  -30.4090 C   0  0  0  0  0  0  0  0  0  0  0  0
   -2.8990   13.8130  -33.5730 C   0  0  0  0  0  0  0  0  0  0  0  0
   -1.8480   15.9640  -32.7910 C   0  0  0  0  0  0  0  0  0  0  0  0
   -2.3440   16.9140  -30.6860 C   0  0  0  0  0  0  0  0  0  0  0  0
   -1.6300   16.9590  -31.8560 C   0  0  0  0  0  0  0  0  0  0  0  0
   -2.1100   17.8670  -29.7410 F   0  0  0  0  0  0  0  0  0  0  0  0
  2  1  1  0
  3  1  2  0
  2  4  1  0
  5  4  2  0
  6  4  1  0
  7  5  1  0
  5  8  1  0
  9  6  2  0
  8 10  2  0
 10  9  1  0
  9 11  1  0
A    2
 N  
A    3
 O  
A    4
 C6 
A    5
 C1 
A    6
 C5 
A    7
 C  
A    8
 C2 
A    9
 C4 
A   10
 C3 
A   11
 F  
M  END
>  <XChem_code>  (10) 
D68EV3CPROA-x0980

>  <Occupancy>  (10) 
[0.62, 0.62, 0.62, 0.62, 0.62, 0.62, 0.62, 0.62, 0.62, 0.62, 0.62, 0.62, 0.62, 0.62, 0.62, 0.62, 0.62]

>  <TempFactor>  (10) 
[63.79, 74.68, 53.61, 73.53, 45.77, 75.37, 78.48, 80.64, 76.38, 71.86, 57.46, 53.08, 49.42, 49.52, 51.16, 51.21, 87.9]

>  <RealCrystalName>  (10) 
D68EV3CPROA-x0980

>  <smiles>  (10) 
Cc1ccc(F)cc1NC(=O)c2ccncc2

>  <new_smiles>  (10) 
Cc1ccc(F)cc1NC(=O)c2ccncc2

>  <alternate_name>  (10) 
Z30904160

>  <site_name>  (10) 
1

>  <pdb_entry>  (10) 
nan

>  <mol>  (10) 
<rdkit.Chem.rdchem.Mol object at 0x13a1a3d10>

>  <single_smiles>  (10) 
Cc1ccc(F)cc1NC(=O)c1ccncc1

>  <base_name>  (10) 
D68EV3CPROA-x0980_0B

>  <lig_resn>  (10) 
LIG

>  <lig_resi>  (10) 
201

>  <lig_chain>  (10) 
B

>  <lig_segi>  (10) 


>  <lig_alt>  (10) 


>  <polymer_chain>  (10) 
B

$$$$
x0147L0AP1
     RDKit          3D

  9 10  0  0  0  0  0  0  0  0999 V2000
   -7.2300    9.6790  -30.3200 N   0  0  0  0  0  0  0  0  0  0  0  0
   -6.6340   10.0970  -31.4020 C   0  0  0  0  0  0  0  0  0  0  0  0
   -5.8950   11.3220  -29.7400 C   0  0  0  0  0  0  0  0  0  0  0  0
   -6.7690   10.4490  -29.2520 N   0  0  0  0  0  0  0  0  0  0  0  0
   -5.0960   12.3520  -29.1780 C   0  0  0  0  0  0  0  0  0  0  0  0
   -4.2700   13.0910  -29.8760 N   0  0  0  0  0  0  0  0  0  0  0  0
   -4.1850   12.8380  -31.2230 C   0  0  0  0  0  0  0  0  0  0  0  0
   -5.7810   11.1200  -31.1120 N   0  0  0  0  0  0  0  0  0  0  0  0
   -4.9040   11.8930  -31.8620 C   0  0  0  0  0  0  0  0  0  0  0  0
  1  2  2  0
  1  4  1  0
  2  8  1  0
  3  4  2  0
  3  5  1  0
  3  8  1  0
  5  6  2  0
  6  7  1  0
  7  9  2  0
  8  9  1  0
A    1
 N  
A    2
 C  
A    3
 C1 
A    4
 N1 
A    5
 C2 
A    6
 N2 
A    7
 C3 
A    8
 N3 
A    9
 C4 
M  END
>  <XChem_code>  (11) 
D68EV3CPROA-x0147

>  <Occupancy>  (11) 
[0.66, 0.66, 0.66, 0.66, 0.66, 0.66, 0.66, 0.66, 0.66]

>  <TempFactor>  (11) 
[40.37, 43.04, 42.99, 41.58, 44.34, 44.94, 44.77, 45.02, 45.86]

>  <RealCrystalName>  (11) 
D68EV3CPROA-x0147

>  <smiles>  (11) 
c1nnc2cnccn12

>  <new_smiles>  (11) 
c1nnc2cnccn12

>  <alternate_name>  (11) 
Z1182328459

>  <site_name>  (11) 
1

>  <pdb_entry>  (11) 
nan

>  <mol>  (11) 
<rdkit.Chem.rdchem.Mol object at 0x13a1a2d50>

>  <single_smiles>  (11) 
c1cn2cnnc2cn1

>  <base_name>  (11) 
D68EV3CPROA-x0147_0A

>  <lig_resn>  (11) 
LIG

>  <lig_resi>  (11) 
201

>  <lig_chain>  (11) 
A

>  <lig_segi>  (11) 


>  <lig_alt>  (11) 


>  <polymer_chain>  (11) 
A

$$$$
x1285L0BP1
     RDKit          3D

 13 14  0  0  0  0  0  0  0  0999 V2000
  -10.6520   19.6760  -30.1380 N   0  0  0  0  0  0  0  0  0  0  0  0
   -9.9820   17.1800  -31.2410 C   0  0  0  0  0  0  0  0  0  0  0  0
  -10.9250   16.5330  -30.3940 O   0  0  0  0  0  0  0  0  0  0  0  0
  -10.6930   18.1730  -32.1210 C   0  0  0  0  0  0  0  0  0  0  0  0
  -11.4430   19.1980  -31.2830 C   0  0  0  0  0  0  0  0  0  0  0  0
  -10.8780   21.1100  -29.9290 C   0  0  0  0  0  0  0  0  0  0  0  0
  -11.3020   21.5050  -28.5370 C   0  0  0  0  0  0  0  0  0  0  0  0
  -11.2000   22.8270  -27.9980 C   0  0  0  0  0  0  0  0  0  0  0  0
  -11.6850   22.9370  -26.7200 C   0  0  0  0  0  0  0  0  0  0  0  0
  -11.8630   20.6350  -27.6410 C   0  0  0  0  0  0  0  0  0  0  0  0
   -9.2200   19.3860  -30.3540 C   0  0  0  0  0  0  0  0  0  0  0  0
   -8.9480   17.8850  -30.4010 C   0  0  0  0  0  0  0  0  0  0  0  0
  -12.2700   21.3910  -26.1670 S   0  0  0  0  0  0  0  0  0  0  0  0
  1  5  1  0
  1  6  1  0
  1 11  1  0
  2  3  1  0
  2  4  1  0
  2 12  1  0
  4  5  1  0
  6  7  1  0
  7  8  1  0
  7 10  2  0
  8  9  2  0
  9 13  1  0
 10 13  1  0
 11 12  1  0
A    1
 N  
A    2
 C  
A    3
 O  
A    4
 C1 
A    5
 C2 
A    6
 C3 
A    7
 C4 
A    8
 C5 
A    9
 C6 
A   10
 C7 
A   11
 C8 
A   12
 C9 
A   13
 S  
M  END
>  <XChem_code>  (12) 
D68EV3CPROA-x1285

>  <Occupancy>  (12) 
[0.98, 0.98, 0.98, 0.98, 0.98, 0.98, 0.98, 0.98, 0.98, 0.98, 0.98, 0.98, 0.98]

>  <TempFactor>  (12) 
[62.92, 53.85, 55.84, 55.42, 59.07, 67.89, 75.42, 75.35, 79.39, 78.53, 58.69, 54.38, 86.51]

>  <RealCrystalName>  (12) 
D68EV3CPROA-x1285

>  <smiles>  (12) 
OC1CCN(Cc2ccsc2)CC1

>  <new_smiles>  (12) 
OC1CCN(Cc2ccsc2)CC1

>  <alternate_name>  (12) 
Z905434478

>  <site_name>  (12) 
5

>  <pdb_entry>  (12) 
nan

>  <mol>  (12) 
<rdkit.Chem.rdchem.Mol object at 0x13a26c970>

>  <single_smiles>  (12) 
OC1CCN(Cc2ccsc2)CC1

>  <base_name>  (12) 
D68EV3CPROA-x1285_0B

>  <lig_resn>  (12) 
LIG

>  <lig_resi>  (12) 
301

>  <lig_chain>  (12) 
B

>  <lig_segi>  (12) 


>  <lig_alt>  (12) 


>  <polymer_chain>  (12) 
B

$$$$
x1285L0BP1S1
     RDKit          3D

  6  6  0  0  0  0  0  0  0  0999 V2000
  -10.8780   21.1100  -29.9290 C   0  0  0  0  0  0  0  0  0  0  0  0
  -11.3020   21.5050  -28.5370 C   0  0  0  0  0  0  0  0  0  0  0  0
  -11.2000   22.8270  -27.9980 C   0  0  0  0  0  0  0  0  0  0  0  0
  -11.8630   20.6350  -27.6410 C   0  0  0  0  0  0  0  0  0  0  0  0
  -11.6850   22.9370  -26.7200 C   0  0  0  0  0  0  0  0  0  0  0  0
  -12.2700   21.3910  -26.1670 S   0  0  0  0  0  0  0  0  0  0  0  0
  1  2  1  0
  2  3  1  0
  2  4  2  0
  3  5  2  0
  4  6  1  0
  5  6  1  0
A    2
 C4 
A    3
 C5 
A    4
 C7 
A    5
 C6 
A    6
 S  
M  END
>  <XChem_code>  (13) 
D68EV3CPROA-x1285

>  <Occupancy>  (13) 
[0.98, 0.98, 0.98, 0.98, 0.98, 0.98, 0.98, 0.98, 0.98, 0.98, 0.98, 0.98, 0.98]

>  <TempFactor>  (13) 
[62.92, 53.85, 55.84, 55.42, 59.07, 67.89, 75.42, 75.35, 79.39, 78.53, 58.69, 54.38, 86.51]

>  <RealCrystalName>  (13) 
D68EV3CPROA-x1285

>  <smiles>  (13) 
OC1CCN(Cc2ccsc2)CC1

>  <new_smiles>  (13) 
OC1CCN(Cc2ccsc2)CC1

>  <alternate_name>  (13) 
Z905434478

>  <site_name>  (13) 
5

>  <pdb_entry>  (13) 
nan

>  <mol>  (13) 
<rdkit.Chem.rdchem.Mol object at 0x13a26c970>

>  <single_smiles>  (13) 
OC1CCN(Cc2ccsc2)CC1

>  <base_name>  (13) 
D68EV3CPROA-x1285_0B

>  <lig_resn>  (13) 
LIG

>  <lig_resi>  (13) 
301

>  <lig_chain>  (13) 
B

>  <lig_segi>  (13) 


>  <lig_alt>  (13) 


>  <polymer_chain>  (13) 
B

$$$$
x1285L0BP1S2
     RDKit          3D

  7  7  0  0  0  0  0  0  0  0999 V2000
  -10.6520   19.6760  -30.1380 N   0  0  0  0  0  0  0  0  0  0  0  0
  -11.4430   19.1980  -31.2830 C   0  0  0  0  0  0  0  0  0  0  0  0
   -9.2200   19.3860  -30.3540 C   0  0  0  0  0  0  0  0  0  0  0  0
  -10.6930   18.1730  -32.1210 C   0  0  0  0  0  0  0  0  0  0  0  0
   -8.9480   17.8850  -30.4010 C   0  0  0  0  0  0  0  0  0  0  0  0
   -9.9820   17.1800  -31.2410 C   0  0  0  0  0  0  0  0  0  0  0  0
  -10.9250   16.5330  -30.3940 O   0  0  0  0  0  0  0  0  0  0  0  0
  1  2  1  0
  1  3  1  0
  4  2  1  0
  3  5  1  0
  6  4  1  0
  6  5  1  0
  6  7  1  0
A    2
 C2 
A    3
 C8 
A    4
 C1 
A    5
 C9 
A    6
 C  
A    7
 O  
M  END
>  <XChem_code>  (14) 
D68EV3CPROA-x1285

>  <Occupancy>  (14) 
[0.98, 0.98, 0.98, 0.98, 0.98, 0.98, 0.98, 0.98, 0.98, 0.98, 0.98, 0.98, 0.98]

>  <TempFactor>  (14) 
[62.92, 53.85, 55.84, 55.42, 59.07, 67.89, 75.42, 75.35, 79.39, 78.53, 58.69, 54.38, 86.51]

>  <RealCrystalName>  (14) 
D68EV3CPROA-x1285

>  <smiles>  (14) 
OC1CCN(Cc2ccsc2)CC1

>  <new_smiles>  (14) 
OC1CCN(Cc2ccsc2)CC1

>  <alternate_name>  (14) 
Z905434478

>  <site_name>  (14) 
5

>  <pdb_entry>  (14) 
nan

>  <mol>  (14) 
<rdkit.Chem.rdchem.Mol object at 0x13a26c970>

>  <single_smiles>  (14) 
OC1CCN(Cc2ccsc2)CC1

>  <base_name>  (14) 
D68EV3CPROA-x1285_0B

>  <lig_resn>  (14) 
LIG

>  <lig_resi>  (14) 
301

>  <lig_chain>  (14) 
B

>  <lig_segi>  (14) 


>  <lig_alt>  (14) 


>  <polymer_chain>  (14) 
B

$$$$
x1285L0BP1S3
     RDKit          3D

  5  5  0  0  0  0  0  0  0  0999 V2000
  -11.3020   21.5050  -28.5370 C   0  0  0  0  0  0  0  0  0  0  0  0
  -11.2000   22.8270  -27.9980 C   0  0  0  0  0  0  0  0  0  0  0  0
  -11.8630   20.6350  -27.6410 C   0  0  0  0  0  0  0  0  0  0  0  0
  -11.6850   22.9370  -26.7200 C   0  0  0  0  0  0  0  0  0  0  0  0
  -12.2700   21.3910  -26.1670 S   0  0  0  0  0  0  0  0  0  0  0  0
  1  2  1  0
  1  3  2  0
  2  4  2  0
  3  5  1  0
  4  5  1  0
A    2
 C5 
A    3
 C7 
A    4
 C6 
A    5
 S  
M  END
>  <XChem_code>  (15) 
D68EV3CPROA-x1285

>  <Occupancy>  (15) 
[0.98, 0.98, 0.98, 0.98, 0.98, 0.98, 0.98, 0.98, 0.98, 0.98, 0.98, 0.98, 0.98]

>  <TempFactor>  (15) 
[62.92, 53.85, 55.84, 55.42, 59.07, 67.89, 75.42, 75.35, 79.39, 78.53, 58.69, 54.38, 86.51]

>  <RealCrystalName>  (15) 
D68EV3CPROA-x1285

>  <smiles>  (15) 
OC1CCN(Cc2ccsc2)CC1

>  <new_smiles>  (15) 
OC1CCN(Cc2ccsc2)CC1

>  <alternate_name>  (15) 
Z905434478

>  <site_name>  (15) 
5

>  <pdb_entry>  (15) 
nan

>  <mol>  (15) 
<rdkit.Chem.rdchem.Mol object at 0x13a26c970>

>  <single_smiles>  (15) 
OC1CCN(Cc2ccsc2)CC1

>  <base_name>  (15) 
D68EV3CPROA-x1285_0B

>  <lig_resn>  (15) 
LIG

>  <lig_resi>  (15) 
301

>  <lig_chain>  (15) 
B

>  <lig_segi>  (15) 


>  <lig_alt>  (15) 


>  <polymer_chain>  (15) 
B

$$$$
x1285L0BP1S4
     RDKit          3D

  8  8  0  0  0  0  0  0  0  0999 V2000
  -10.8780   21.1100  -29.9290 C   0  0  0  0  0  0  0  0  0  0  0  0
  -10.6520   19.6760  -30.1380 N   0  0  0  0  0  0  0  0  0  0  0  0
  -11.4430   19.1980  -31.2830 C   0  0  0  0  0  0  0  0  0  0  0  0
   -9.2200   19.3860  -30.3540 C   0  0  0  0  0  0  0  0  0  0  0  0
  -10.6930   18.1730  -32.1210 C   0  0  0  0  0  0  0  0  0  0  0  0
   -8.9480   17.8850  -30.4010 C   0  0  0  0  0  0  0  0  0  0  0  0
   -9.9820   17.1800  -31.2410 C   0  0  0  0  0  0  0  0  0  0  0  0
  -10.9250   16.5330  -30.3940 O   0  0  0  0  0  0  0  0  0  0  0  0
  2  1  1  0
  2  3  1  0
  2  4  1  0
  5  3  1  0
  4  6  1  0
  7  5  1  0
  7  6  1  0
  7  8  1  0
A    2
 N  
A    3
 C2 
A    4
 C8 
A    5
 C1 
A    6
 C9 
A    7
 C  
A    8
 O  
M  END
>  <XChem_code>  (16) 
D68EV3CPROA-x1285

>  <Occupancy>  (16) 
[0.98, 0.98, 0.98, 0.98, 0.98, 0.98, 0.98, 0.98, 0.98, 0.98, 0.98, 0.98, 0.98]

>  <TempFactor>  (16) 
[62.92, 53.85, 55.84, 55.42, 59.07, 67.89, 75.42, 75.35, 79.39, 78.53, 58.69, 54.38, 86.51]

>  <RealCrystalName>  (16) 
D68EV3CPROA-x1285

>  <smiles>  (16) 
OC1CCN(Cc2ccsc2)CC1

>  <new_smiles>  (16) 
OC1CCN(Cc2ccsc2)CC1

>  <alternate_name>  (16) 
Z905434478

>  <site_name>  (16) 
5

>  <pdb_entry>  (16) 
nan

>  <mol>  (16) 
<rdkit.Chem.rdchem.Mol object at 0x13a26c970>

>  <single_smiles>  (16) 
OC1CCN(Cc2ccsc2)CC1

>  <base_name>  (16) 
D68EV3CPROA-x1285_0B

>  <lig_resn>  (16) 
LIG

>  <lig_resi>  (16) 
301

>  <lig_chain>  (16) 
B

>  <lig_segi>  (16) 


>  <lig_alt>  (16) 


>  <polymer_chain>  (16) 
B

$$$$
x1498L1BP1
     RDKit          3D

  7  7  0  0  0  0  0  0  0  0999 V2000
   -5.6770   11.4110  -29.8030 N   0  0  0  0  0  0  0  0  0  0  0  0
   -6.5030   10.3810  -30.1480 C   0  0  0  0  0  0  0  0  0  0  0  0
   -7.1170    9.7570  -29.1810 O   0  0  0  0  0  0  0  0  0  0  0  0
   -6.7630   10.0140  -31.4690 C   0  0  0  0  0  0  0  0  0  0  0  0
   -6.1620   10.7610  -32.4710 C   0  0  0  0  0  0  0  0  0  0  0  0
   -5.3280   11.8160  -32.1480 C   0  0  0  0  0  0  0  0  0  0  0  0
   -5.1140   12.0970  -30.8080 C   0  0  0  0  0  0  0  0  0  0  0  0
  1  2  2  0
  1  7  1  0
  2  3  1  0
  2  4  1  0
  4  5  2  0
  5  6  1  0
  6  7  2  0
A    1
 N  
A    2
 C  
A    3
 O  
A    4
 C1 
A    5
 C2 
A    6
 C3 
A    7
 C4 
M  END
>  <XChem_code>  (17) 
D68EV3CPROA-x1498

>  <Occupancy>  (17) 
[0.88, 0.88, 0.88, 0.88, 0.88, 0.88, 0.88]

>  <TempFactor>  (17) 
[42.68, 37.56, 35.8, 40.47, 43.12, 43.66, 44.2]

>  <RealCrystalName>  (17) 
D68EV3CPROA-x1498

>  <smiles>  (17) 
OC=1C=CC=CN1

>  <new_smiles>  (17) 
OC=1C=CC=CN1

>  <alternate_name>  (17) 
Z1741982125

>  <site_name>  (17) 
5

>  <pdb_entry>  (17) 
nan

>  <mol>  (17) 
<rdkit.Chem.rdchem.Mol object at 0x13a26d2a0>

>  <single_smiles>  (17) 
Oc1ccccn1

>  <base_name>  (17) 
D68EV3CPROA-x1498_1B

>  <lig_resn>  (17) 
LIG

>  <lig_resi>  (17) 
201

>  <lig_chain>  (17) 
A

>  <lig_segi>  (17) 


>  <lig_alt>  (17) 


>  <polymer_chain>  (17) 
A

$$$$
x1498L1BP2
     RDKit          3D

  7  7  0  0  0  0  0  0  0  0999 V2000
  -18.2570   19.9470  -20.8410 N   0  0  0  0  0  0  0  0  0  0  0  0
  -19.3030   19.1750  -21.2760 C   0  0  0  0  0  0  0  0  0  0  0  0
  -19.7950   18.2360  -20.4320 O   0  0  0  0  0  0  0  0  0  0  0  0
  -19.8620   19.3290  -22.5450 C   0  0  0  0  0  0  0  0  0  0  0  0
  -19.3230   20.2830  -23.3930 C   0  0  0  0  0  0  0  0  0  0  0  0
  -18.2760   21.0720  -22.9710 C   0  0  0  0  0  0  0  0  0  0  0  0
  -17.7810   20.8730  -21.6970 C   0  0  0  0  0  0  0  0  0  0  0  0
  1  2  2  0
  1  7  1  0
  2  3  1  0
  2  4  1  0
  4  5  2  0
  5  6  1  0
  6  7  2  0
A    1
 N  
A    2
 C  
A    3
 O  
A    4
 C1 
A    5
 C2 
A    6
 C3 
A    7
 C4 
M  END
>  <XChem_code>  (18) 
D68EV3CPROA-x1498

>  <Occupancy>  (18) 
[0.88, 0.88, 0.88, 0.88, 0.88, 0.88, 0.88]

>  <TempFactor>  (18) 
[53.3, 52.52, 51.54, 47.0, 49.42, 50.99, 52.44]

>  <RealCrystalName>  (18) 
D68EV3CPROA-x1498

>  <smiles>  (18) 
OC=1C=CC=CN1

>  <new_smiles>  (18) 
OC=1C=CC=CN1

>  <alternate_name>  (18) 
Z1741982125

>  <site_name>  (18) 
5

>  <pdb_entry>  (18) 
nan

>  <mol>  (18) 
<rdkit.Chem.rdchem.Mol object at 0x13a26d2a0>

>  <single_smiles>  (18) 
Oc1ccccn1

>  <base_name>  (18) 
D68EV3CPROA-x1498_1B

>  <lig_resn>  (18) 
LIG

>  <lig_resi>  (18) 
201

>  <lig_chain>  (18) 
B

>  <lig_segi>  (18) 


>  <lig_alt>  (18) 


>  <polymer_chain>  (18) 
B

$$$$
x1594L0AP1
     RDKit          3D

 10 11  0  0  0  0  0  0  0  0999 V2000
   -6.8740    9.8340  -32.5350 N   0  0  0  0  0  0  0  0  0  0  0  0
   -6.6660   10.2800  -31.2910 C   0  0  0  0  0  0  0  0  0  0  0  0
   -5.8820   11.4760  -29.6270 C   0  0  0  0  0  0  0  0  0  0  0  0
   -7.1990    9.8070  -30.1740 N   0  0  0  0  0  0  0  0  0  0  0  0
   -5.0830   12.4690  -29.0140 C   0  0  0  0  0  0  0  0  0  0  0  0
   -6.7030   10.5680  -29.1130 N   0  0  0  0  0  0  0  0  0  0  0  0
   -4.2680   13.2420  -29.7830 C   0  0  0  0  0  0  0  0  0  0  0  0
   -5.8120   11.3450  -31.0120 N   0  0  0  0  0  0  0  0  0  0  0  0
   -4.2110   13.0710  -31.1840 C   0  0  0  0  0  0  0  0  0  0  0  0
   -4.9820   12.1370  -31.7840 C   0  0  0  0  0  0  0  0  0  0  0  0
  1  2  1  0
  2  4  2  0
  2  8  1  0
  3  5  1  0
  3  6  2  0
  3  8  1  0
  4  6  1  0
  5  7  2  0
  7  9  1  0
  8 10  1  0
  9 10  2  0
A    1
 N  
A    2
 C  
A    3
 C1 
A    4
 N1 
A    5
 C2 
A    6
 N2 
A    7
 C3 
A    8
 N3 
A    9
 C4 
A   10
 C5 
M  END
>  <XChem_code>  (19) 
D68EV3CPROA-x1594

>  <Occupancy>  (19) 
[0.66, 0.66, 0.66, 0.66, 0.66, 0.66, 0.66, 0.66, 0.66, 0.66]

>  <TempFactor>  (19) 
[32.44, 31.86, 32.44, 29.37, 32.27, 30.89, 34.56, 32.15, 34.73, 34.07]

>  <RealCrystalName>  (19) 
D68EV3CPROA-x1594

>  <smiles>  (19) 
NC1=NN=C2C=CC=CN12

>  <new_smiles>  (19) 
NC1=NN=C2C=CC=CN12

>  <alternate_name>  (19) 
Z362020366

>  <site_name>  (19) 
1

>  <pdb_entry>  (19) 
nan

>  <mol>  (19) 
<rdkit.Chem.rdchem.Mol object at 0x13a26d930>

>  <single_smiles>  (19) 
Nc1nnc2ccccn12

>  <base_name>  (19) 
D68EV3CPROA-x1594_0A

>  <lig_resn>  (19) 
LIG

>  <lig_resi>  (19) 
201

>  <lig_chain>  (19) 
A

>  <lig_segi>  (19) 


>  <lig_alt>  (19) 


>  <polymer_chain>  (19) 
A

$$$$
x1537L0AP1
     RDKit          3D

  6  6  0  0  0  0  0  0  0  0999 V2000
   -6.1610   11.4540  -31.1560 N   0  0  0  0  0  0  0  0  0  0  0  0
   -5.0770   12.6190  -29.2410 C   0  0  0  0  0  0  0  0  0  0  0  0
   -6.0060   11.6350  -29.8650 C   0  0  0  0  0  0  0  0  0  0  0  0
   -7.0430   10.4260  -31.2910 N   0  0  0  0  0  0  0  0  0  0  0  0
   -7.4280    9.9910  -30.1340 N   0  0  0  0  0  0  0  0  0  0  0  0
   -6.7910   10.7450  -29.2200 N   0  0  0  0  0  0  0  0  0  0  0  0
  1  3  2  0
  1  4  1  0
  2  3  1  0
  3  6  1  0
  4  5  2  0
  5  6  1  0
A    1
 N  
A    2
 C  
A    3
 C1 
A    4
 N1 
A    5
 N2 
A    6
 N3 
M  END
>  <XChem_code>  (20) 
D68EV3CPROA-x1537

>  <Occupancy>  (20) 
[0.67, 0.67, 0.67, 0.67, 0.67, 0.67]

>  <TempFactor>  (20) 
[19.84, 19.74, 18.86, 19.5, 17.53, 18.3]

>  <RealCrystalName>  (20) 
D68EV3CPROA-x1537

>  <smiles>  (20) 
CC1=NN=NN1

>  <new_smiles>  (20) 
CC1=NN=NN1

>  <alternate_name>  (20) 
Z56761437

>  <site_name>  (20) 
1

>  <pdb_entry>  (20) 
nan

>  <mol>  (20) 
<rdkit.Chem.rdchem.Mol object at 0x13a26d3f0>

>  <single_smiles>  (20) 
Cc1nnn[nH]1

>  <base_name>  (20) 
D68EV3CPROA-x1537_0A

>  <lig_resn>  (20) 
LIG

>  <lig_resi>  (20) 
201

>  <lig_chain>  (20) 
A

>  <lig_segi>  (20) 


>  <lig_alt>  (20) 


>  <polymer_chain>  (20) 
A

$$$$
x1604L0AP1
     RDKit          3D

 15 16  0  0  0  0  0  0  0  0999 V2000
   -2.2250   15.0480  -29.0690 C   0  0  0  0  0  0  0  0  0  0  0  0
   -2.5240   13.6820  -31.0050 O   0  0  0  0  0  0  0  0  0  0  0  0
   -3.2430   14.3520  -29.9410 C   0  0  0  0  0  0  0  0  0  0  0  0
   -2.7250   12.4690  -32.8290 O   0  0  0  0  0  0  0  0  0  0  0  0
   -4.2730   15.2990  -30.5210 C   0  0  0  0  0  0  0  0  0  0  0  0
   -7.3450   10.1200  -29.0680 O   0  0  0  0  0  0  0  0  0  0  0  0
   -3.1620   12.7220  -31.7330 C   0  0  0  0  0  0  0  0  0  0  0  0
   -3.9100   13.3750  -29.1090 O   0  0  0  0  0  0  0  0  0  0  0  0
   -4.3010   12.0730  -31.0890 C   0  0  0  0  0  0  0  0  0  0  0  0
   -5.0350   11.0750  -31.7270 C   0  0  0  0  0  0  0  0  0  0  0  0
   -6.0580   10.4410  -31.0390 C   0  0  0  0  0  0  0  0  0  0  0  0
   -6.3750   10.7900  -29.7310 C   0  0  0  0  0  0  0  0  0  0  0  0
   -5.6600   11.8040  -29.1130 C   0  0  0  0  0  0  0  0  0  0  0  0
   -4.6330   12.4240  -29.7900 C   0  0  0  0  0  0  0  0  0  0  0  0
   -7.0310    9.0590  -31.8950 Br  0  0  0  0  0  0  0  0  0  0  0  0
  3  1  1  0
  2  3  1  0
  2  7  1  0
  3  5  1  0
  3  8  1  0
  4  7  2  0
  6 12  1  0
  7  9  1  0
  8 14  1  0
  9 10  2  0
  9 14  1  0
 10 11  1  0
 11 12  2  0
 11 15  1  0
 12 13  1  0
 13 14  2  0
A    1
 C  
A    2
 O  
A    3
 C1 
A    4
 O1 
A    5
 C2 
A    6
 O2 
A    7
 C3 
A    8
 O3 
A    9
 C4 
A   10
 C5 
A   11
 C6 
A   12
 C7 
A   13
 C8 
A   14
 C9 
A   15
BR  
M  END
>  <XChem_code>  (21) 
D68EV3CPROA-x1604

>  <Occupancy>  (21) 
[0.7, 0.7, 0.7, 0.7, 0.7, 0.7, 0.7, 0.7, 0.7, 0.7, 0.7, 0.7, 0.7, 0.7, 0.7]

>  <TempFactor>  (21) 
[72.3, 77.66, 74.79, 71.79, 72.05, 62.52, 75.7, 75.21, 75.25, 76.05, 72.74, 67.77, 70.53, 72.83, 84.1]

>  <RealCrystalName>  (21) 
D68EV3CPROA-x1604

>  <smiles>  (21) 
CC1(C)OC(=O)C=2C=C(Br)C(O)=CC2O1

>  <new_smiles>  (21) 
CC1(C)OC(=O)C=2C=C(Br)C(O)=CC2O1

>  <alternate_name>  (21) 
Z1509711879

>  <site_name>  (21) 
1

>  <pdb_entry>  (21) 
nan

>  <mol>  (21) 
<rdkit.Chem.rdchem.Mol object at 0x13a26da10>

>  <single_smiles>  (21) 
CC1(C)OC(=O)c2cc(Br)c(O)cc2O1

>  <base_name>  (21) 
D68EV3CPROA-x1604_0A

>  <lig_resn>  (21) 
LIG

>  <lig_resi>  (21) 
201

>  <lig_chain>  (21) 
A

>  <lig_segi>  (21) 


>  <lig_alt>  (21) 


>  <polymer_chain>  (21) 
A

$$$$
x1498L0BP1
     RDKit          3D

  7  7  0  0  0  0  0  0  0  0999 V2000
   -5.6770   11.4110  -29.8030 N   0  0  0  0  0  0  0  0  0  0  0  0
   -6.5030   10.3810  -30.1480 C   0  0  0  0  0  0  0  0  0  0  0  0
   -7.1170    9.7570  -29.1810 O   0  0  0  0  0  0  0  0  0  0  0  0
   -6.7630   10.0140  -31.4690 C   0  0  0  0  0  0  0  0  0  0  0  0
   -6.1620   10.7610  -32.4710 C   0  0  0  0  0  0  0  0  0  0  0  0
   -5.3280   11.8160  -32.1480 C   0  0  0  0  0  0  0  0  0  0  0  0
   -5.1140   12.0970  -30.8080 C   0  0  0  0  0  0  0  0  0  0  0  0
  1  2  2  0
  1  7  1  0
  2  3  1  0
  2  4  1  0
  4  5  2  0
  5  6  1  0
  6  7  2  0
A    1
 N  
A    2
 C  
A    3
 O  
A    4
 C1 
A    5
 C2 
A    6
 C3 
A    7
 C4 
M  END
>  <XChem_code>  (22) 
D68EV3CPROA-x1498

>  <Occupancy>  (22) 
[0.88, 0.88, 0.88, 0.88, 0.88, 0.88, 0.88]

>  <TempFactor>  (22) 
[42.68, 37.56, 35.8, 40.47, 43.12, 43.66, 44.2]

>  <RealCrystalName>  (22) 
D68EV3CPROA-x1498

>  <smiles>  (22) 
OC=1C=CC=CN1

>  <new_smiles>  (22) 
OC=1C=CC=CN1

>  <alternate_name>  (22) 
Z1741982125

>  <site_name>  (22) 
5

>  <pdb_entry>  (22) 
nan

>  <mol>  (22) 
<rdkit.Chem.rdchem.Mol object at 0x13a26d230>

>  <single_smiles>  (22) 
Oc1ccccn1

>  <base_name>  (22) 
D68EV3CPROA-x1498_0B

>  <lig_resn>  (22) 
LIG

>  <lig_resi>  (22) 
201

>  <lig_chain>  (22) 
A

>  <lig_segi>  (22) 


>  <lig_alt>  (22) 


>  <polymer_chain>  (22) 
A

$$$$
x1498L0BP2
     RDKit          3D

  7  7  0  0  0  0  0  0  0  0999 V2000
  -18.2570   19.9470  -20.8410 N   0  0  0  0  0  0  0  0  0  0  0  0
  -19.3030   19.1750  -21.2760 C   0  0  0  0  0  0  0  0  0  0  0  0
  -19.7950   18.2360  -20.4320 O   0  0  0  0  0  0  0  0  0  0  0  0
  -19.8620   19.3290  -22.5450 C   0  0  0  0  0  0  0  0  0  0  0  0
  -19.3230   20.2830  -23.3930 C   0  0  0  0  0  0  0  0  0  0  0  0
  -18.2760   21.0720  -22.9710 C   0  0  0  0  0  0  0  0  0  0  0  0
  -17.7810   20.8730  -21.6970 C   0  0  0  0  0  0  0  0  0  0  0  0
  1  2  2  0
  1  7  1  0
  2  3  1  0
  2  4  1  0
  4  5  2  0
  5  6  1  0
  6  7  2  0
A    1
 N  
A    2
 C  
A    3
 O  
A    4
 C1 
A    5
 C2 
A    6
 C3 
A    7
 C4 
M  END
>  <XChem_code>  (23) 
D68EV3CPROA-x1498

>  <Occupancy>  (23) 
[0.88, 0.88, 0.88, 0.88, 0.88, 0.88, 0.88]

>  <TempFactor>  (23) 
[53.3, 52.52, 51.54, 47.0, 49.42, 50.99, 52.44]

>  <RealCrystalName>  (23) 
D68EV3CPROA-x1498

>  <smiles>  (23) 
OC=1C=CC=CN1

>  <new_smiles>  (23) 
OC=1C=CC=CN1

>  <alternate_name>  (23) 
Z1741982125

>  <site_name>  (23) 
5

>  <pdb_entry>  (23) 
nan

>  <mol>  (23) 
<rdkit.Chem.rdchem.Mol object at 0x13a26d230>

>  <single_smiles>  (23) 
Oc1ccccn1

>  <base_name>  (23) 
D68EV3CPROA-x1498_0B

>  <lig_resn>  (23) 
LIG

>  <lig_resi>  (23) 
201

>  <lig_chain>  (23) 
B

>  <lig_segi>  (23) 


>  <lig_alt>  (23) 


>  <polymer_chain>  (23) 
B

$$$$
x0789L0AP1
     RDKit          3D

 14 15  0  0  0  0  0  0  0  0999 V2000
   -5.0840   12.5720  -31.8370 N   0  0  0  0  0  0  0  0  0  0  0  0
   -2.2140   12.6440  -32.8890 C   0  0  0  0  0  0  0  0  0  0  0  0
   -3.2670   15.7120  -32.3610 O   0  0  0  0  0  0  0  0  0  0  0  0
   -3.0400   13.7050  -33.6190 C   0  0  2  0  0  0  0  0  0  0  0  0
   -6.3400   10.6340  -29.0490 N   0  0  0  0  0  0  0  0  0  0  0  0
   -4.5700   14.3130  -30.4410 O   0  0  0  0  0  0  0  0  0  0  0  0
   -2.1950   14.7940  -34.2650 C   0  0  0  0  0  0  0  0  0  0  0  0
   -6.8740    9.8470  -29.9140 N   0  0  0  0  0  0  0  0  0  0  0  0
   -2.0740   15.8090  -33.1560 C   0  0  0  0  0  0  0  0  0  0  0  0
   -4.0140   14.5500  -32.7700 C   0  0  1  0  0  0  0  0  0  0  0  0
   -4.5740   13.8060  -31.5620 C   0  0  0  0  0  0  0  0  0  0  0  0
   -5.6560   11.7000  -30.9130 C   0  0  0  0  0  0  0  0  0  0  0  0
   -5.6500   11.6820  -29.5590 C   0  0  0  0  0  0  0  0  0  0  0  0
   -6.5580   10.3550  -31.4830 S   0  0  0  0  0  0  0  0  0  0  0  0
  1 11  1  0
  1 12  1  0
  4  2  1  1
  3  9  1  0
  3 10  1  0
  4  7  1  0
  4 10  1  0
  5  8  2  0
  5 13  1  0
  6 11  2  0
  7  9  1  0
  8 14  1  0
 10 11  1  1
 12 13  2  0
 12 14  1  0
A    1
 N  
A    2
 C  
A    3
 O  
A    4
 C1 
A    5
 N1 
A    6
 O1 
A    7
 C2 
A    8
 N2 
A    9
 C3 
A   10
 C4 
A   11
 C5 
A   12
 C6 
A   13
 C7 
A   14
 S  
M  END
>  <XChem_code>  (24) 
D68EV3CPROA-x0789

>  <Occupancy>  (24) 
[0.7, 0.7, 0.7, 0.7, 0.7, 0.7, 0.7, 0.7, 0.7, 0.7, 0.7, 0.7, 0.7, 0.7]

>  <TempFactor>  (24) 
[56.59, 66.21, 67.77, 68.43, 44.39, 60.91, 69.25, 42.57, 69.8, 66.66, 61.67, 48.87, 42.82, 49.48]

>  <RealCrystalName>  (24) 
D68EV3CPROA-x0789

>  <smiles>  (24) 
CC1CCOC1C(=O)Nc2cnns2

>  <new_smiles>  (24) 
CC1CCOC1C(=O)Nc2cnns2

>  <alternate_name>  (24) 
Z1827602749

>  <site_name>  (24) 
1

>  <pdb_entry>  (24) 
nan

>  <mol>  (24) 
<rdkit.Chem.rdchem.Mol object at 0x13a1a36f0>

>  <single_smiles>  (24) 
CC1CCOC1C(=O)Nc1cnns1

>  <base_name>  (24) 
D68EV3CPROA-x0789_0A

>  <lig_resn>  (24) 
LIG

>  <lig_resi>  (24) 
201

>  <lig_chain>  (24) 
A

>  <lig_segi>  (24) 


>  <lig_alt>  (24) 


>  <polymer_chain>  (24) 
A

$$$$
x0789L0AP1S1
     RDKit          3D

  6  6  0  0  0  0  0  0  0  0999 V2000
   -5.0840   12.5720  -31.8370 N   0  0  0  0  0  0  0  0  0  0  0  0
   -5.6560   11.7000  -30.9130 C   0  0  0  0  0  0  0  0  0  0  0  0
   -5.6500   11.6820  -29.5590 C   0  0  0  0  0  0  0  0  0  0  0  0
   -6.5580   10.3550  -31.4830 S   0  0  0  0  0  0  0  0  0  0  0  0
   -6.3400   10.6340  -29.0490 N   0  0  0  0  0  0  0  0  0  0  0  0
   -6.8740    9.8470  -29.9140 N   0  0  0  0  0  0  0  0  0  0  0  0
  1  2  1  0
  2  3  2  0
  2  4  1  0
  5  3  1  0
  6  4  1  0
  5  6  2  0
A    2
 C6 
A    3
 C7 
A    4
 S  
A    5
 N1 
A    6
 N2 
M  END
>  <XChem_code>  (25) 
D68EV3CPROA-x0789

>  <Occupancy>  (25) 
[0.7, 0.7, 0.7, 0.7, 0.7, 0.7, 0.7, 0.7, 0.7, 0.7, 0.7, 0.7, 0.7, 0.7]

>  <TempFactor>  (25) 
[56.59, 66.21, 67.77, 68.43, 44.39, 60.91, 69.25, 42.57, 69.8, 66.66, 61.67, 48.87, 42.82, 49.48]

>  <RealCrystalName>  (25) 
D68EV3CPROA-x0789

>  <smiles>  (25) 
CC1CCOC1C(=O)Nc2cnns2

>  <new_smiles>  (25) 
CC1CCOC1C(=O)Nc2cnns2

>  <alternate_name>  (25) 
Z1827602749

>  <site_name>  (25) 
1

>  <pdb_entry>  (25) 
nan

>  <mol>  (25) 
<rdkit.Chem.rdchem.Mol object at 0x13a1a36f0>

>  <single_smiles>  (25) 
CC1CCOC1C(=O)Nc1cnns1

>  <base_name>  (25) 
D68EV3CPROA-x0789_0A

>  <lig_resn>  (25) 
LIG

>  <lig_resi>  (25) 
201

>  <lig_chain>  (25) 
A

>  <lig_segi>  (25) 


>  <lig_alt>  (25) 


>  <polymer_chain>  (25) 
A

$$$$
x0789L0AP1S2
     RDKit          3D

  8  8  0  0  0  0  0  0  0  0999 V2000
   -4.5740   13.8060  -31.5620 C   0  0  0  0  0  0  0  0  0  0  0  0
   -4.5700   14.3130  -30.4410 O   0  0  0  0  0  0  0  0  0  0  0  0
   -4.0140   14.5500  -32.7700 C   0  0  1  0  0  0  0  0  0  0  0  0
   -3.2670   15.7120  -32.3610 O   0  0  0  0  0  0  0  0  0  0  0  0
   -3.0400   13.7050  -33.6190 C   0  0  2  0  0  0  0  0  0  0  0  0
   -2.0740   15.8090  -33.1560 C   0  0  0  0  0  0  0  0  0  0  0  0
   -2.2140   12.6440  -32.8890 C   0  0  0  0  0  0  0  0  0  0  0  0
   -2.1950   14.7940  -34.2650 C   0  0  0  0  0  0  0  0  0  0  0  0
  2  1  2  0
  3  1  1  1
  4  3  1  0
  5  3  1  0
  4  6  1  0
  5  7  1  1
  5  8  1  0
  8  6  1  0
A    2
 O1 
A    3
 C4 
A    4
 O  
A    5
 C1 
A    6
 C3 
A    7
 C  
A    8
 C2 
M  END
>  <XChem_code>  (26) 
D68EV3CPROA-x0789

>  <Occupancy>  (26) 
[0.7, 0.7, 0.7, 0.7, 0.7, 0.7, 0.7, 0.7, 0.7, 0.7, 0.7, 0.7, 0.7, 0.7]

>  <TempFactor>  (26) 
[56.59, 66.21, 67.77, 68.43, 44.39, 60.91, 69.25, 42.57, 69.8, 66.66, 61.67, 48.87, 42.82, 49.48]

>  <RealCrystalName>  (26) 
D68EV3CPROA-x0789

>  <smiles>  (26) 
CC1CCOC1C(=O)Nc2cnns2

>  <new_smiles>  (26) 
CC1CCOC1C(=O)Nc2cnns2

>  <alternate_name>  (26) 
Z1827602749

>  <site_name>  (26) 
1

>  <pdb_entry>  (26) 
nan

>  <mol>  (26) 
<rdkit.Chem.rdchem.Mol object at 0x13a1a36f0>

>  <single_smiles>  (26) 
CC1CCOC1C(=O)Nc1cnns1

>  <base_name>  (26) 
D68EV3CPROA-x0789_0A

>  <lig_resn>  (26) 
LIG

>  <lig_resi>  (26) 
201

>  <lig_chain>  (26) 
A

>  <lig_segi>  (26) 


>  <lig_alt>  (26) 


>  <polymer_chain>  (26) 
A

$$$$
x0789L0AP1S3
     RDKit          3D

  5  5  0  0  0  0  0  0  0  0999 V2000
   -5.6560   11.7000  -30.9130 C   0  0  0  0  0  0  0  0  0  0  0  0
   -5.6500   11.6820  -29.5590 C   0  0  0  0  0  0  0  0  0  0  0  0
   -6.5580   10.3550  -31.4830 S   0  0  0  0  0  0  0  0  0  0  0  0
   -6.3400   10.6340  -29.0490 N   0  0  0  0  0  0  0  0  0  0  0  0
   -6.8740    9.8470  -29.9140 N   0  0  0  0  0  0  0  0  0  0  0  0
  1  2  2  0
  1  3  1  0
  4  2  1  0
  5  3  1  0
  4  5  2  0
A    2
 C7 
A    3
 S  
A    4
 N1 
A    5
 N2 
M  END
>  <XChem_code>  (27) 
D68EV3CPROA-x0789

>  <Occupancy>  (27) 
[0.7, 0.7, 0.7, 0.7, 0.7, 0.7, 0.7, 0.7, 0.7, 0.7, 0.7, 0.7, 0.7, 0.7]

>  <TempFactor>  (27) 
[56.59, 66.21, 67.77, 68.43, 44.39, 60.91, 69.25, 42.57, 69.8, 66.66, 61.67, 48.87, 42.82, 49.48]

>  <RealCrystalName>  (27) 
D68EV3CPROA-x0789

>  <smiles>  (27) 
CC1CCOC1C(=O)Nc2cnns2

>  <new_smiles>  (27) 
CC1CCOC1C(=O)Nc2cnns2

>  <alternate_name>  (27) 
Z1827602749

>  <site_name>  (27) 
1

>  <pdb_entry>  (27) 
nan

>  <mol>  (27) 
<rdkit.Chem.rdchem.Mol object at 0x13a1a36f0>

>  <single_smiles>  (27) 
CC1CCOC1C(=O)Nc1cnns1

>  <base_name>  (27) 
D68EV3CPROA-x0789_0A

>  <lig_resn>  (27) 
LIG

>  <lig_resi>  (27) 
201

>  <lig_chain>  (27) 
A

>  <lig_segi>  (27) 


>  <lig_alt>  (27) 


>  <polymer_chain>  (27) 
A

$$$$
x0789L0AP1S4
     RDKit          3D

  9  9  0  0  0  0  0  0  0  0999 V2000
   -5.0840   12.5720  -31.8370 N   0  0  0  0  0  0  0  0  0  0  0  0
   -4.5740   13.8060  -31.5620 C   0  0  0  0  0  0  0  0  0  0  0  0
   -4.5700   14.3130  -30.4410 O   0  0  0  0  0  0  0  0  0  0  0  0
   -4.0140   14.5500  -32.7700 C   0  0  1  0  0  0  0  0  0  0  0  0
   -3.2670   15.7120  -32.3610 O   0  0  0  0  0  0  0  0  0  0  0  0
   -3.0400   13.7050  -33.6190 C   0  0  2  0  0  0  0  0  0  0  0  0
   -2.0740   15.8090  -33.1560 C   0  0  0  0  0  0  0  0  0  0  0  0
   -2.2140   12.6440  -32.8890 C   0  0  0  0  0  0  0  0  0  0  0  0
   -2.1950   14.7940  -34.2650 C   0  0  0  0  0  0  0  0  0  0  0  0
  1  2  1  0
  3  2  2  0
  4  2  1  1
  5  4  1  0
  6  4  1  0
  5  7  1  0
  6  8  1  1
  6  9  1  0
  9  7  1  0
A    2
 C5 
A    3
 O1 
A    4
 C4 
A    5
 O  
A    6
 C1 
A    7
 C3 
A    8
 C  
A    9
 C2 
M  END
>  <XChem_code>  (28) 
D68EV3CPROA-x0789

>  <Occupancy>  (28) 
[0.7, 0.7, 0.7, 0.7, 0.7, 0.7, 0.7, 0.7, 0.7, 0.7, 0.7, 0.7, 0.7, 0.7]

>  <TempFactor>  (28) 
[56.59, 66.21, 67.77, 68.43, 44.39, 60.91, 69.25, 42.57, 69.8, 66.66, 61.67, 48.87, 42.82, 49.48]

>  <RealCrystalName>  (28) 
D68EV3CPROA-x0789

>  <smiles>  (28) 
CC1CCOC1C(=O)Nc2cnns2

>  <new_smiles>  (28) 
CC1CCOC1C(=O)Nc2cnns2

>  <alternate_name>  (28) 
Z1827602749

>  <site_name>  (28) 
1

>  <pdb_entry>  (28) 
nan

>  <mol>  (28) 
<rdkit.Chem.rdchem.Mol object at 0x13a1a36f0>

>  <single_smiles>  (28) 
CC1CCOC1C(=O)Nc1cnns1

>  <base_name>  (28) 
D68EV3CPROA-x0789_0A

>  <lig_resn>  (28) 
LIG

>  <lig_resi>  (28) 
201

>  <lig_chain>  (28) 
A

>  <lig_segi>  (28) 


>  <lig_alt>  (28) 


>  <polymer_chain>  (28) 
A

$$$$
x0789L0AP1S5
     RDKit          3D

  6  6  0  0  0  0  0  0  0  0999 V2000
   -4.0140   14.5500  -32.7700 C   0  0  0  0  0  0  0  0  0  0  0  0
   -3.2670   15.7120  -32.3610 O   0  0  0  0  0  0  0  0  0  0  0  0
   -3.0400   13.7050  -33.6190 C   0  0  2  0  0  0  0  0  0  0  0  0
   -2.0740   15.8090  -33.1560 C   0  0  0  0  0  0  0  0  0  0  0  0
   -2.2140   12.6440  -32.8890 C   0  0  0  0  0  0  0  0  0  0  0  0
   -2.1950   14.7940  -34.2650 C   0  0  0  0  0  0  0  0  0  0  0  0
  1  2  1  6
  3  1  1  0
  2  4  1  0
  3  5  1  1
  3  6  1  0
  6  4  1  0
A    2
 O  
A    3
 C1 
A    4
 C3 
A    5
 C  
A    6
 C2 
M  END
>  <XChem_code>  (29) 
D68EV3CPROA-x0789

>  <Occupancy>  (29) 
[0.7, 0.7, 0.7, 0.7, 0.7, 0.7, 0.7, 0.7, 0.7, 0.7, 0.7, 0.7, 0.7, 0.7]

>  <TempFactor>  (29) 
[56.59, 66.21, 67.77, 68.43, 44.39, 60.91, 69.25, 42.57, 69.8, 66.66, 61.67, 48.87, 42.82, 49.48]

>  <RealCrystalName>  (29) 
D68EV3CPROA-x0789

>  <smiles>  (29) 
CC1CCOC1C(=O)Nc2cnns2

>  <new_smiles>  (29) 
CC1CCOC1C(=O)Nc2cnns2

>  <alternate_name>  (29) 
Z1827602749

>  <site_name>  (29) 
1

>  <pdb_entry>  (29) 
nan

>  <mol>  (29) 
<rdkit.Chem.rdchem.Mol object at 0x13a1a36f0>

>  <single_smiles>  (29) 
CC1CCOC1C(=O)Nc1cnns1

>  <base_name>  (29) 
D68EV3CPROA-x0789_0A

>  <lig_resn>  (29) 
LIG

>  <lig_resi>  (29) 
201

>  <lig_chain>  (29) 
A

>  <lig_segi>  (29) 


>  <lig_alt>  (29) 


>  <polymer_chain>  (29) 
A

$$$$
x0789L0AP1S6
     RDKit          3D

  8  8  0  0  0  0  0  0  0  0999 V2000
   -4.5740   13.8060  -31.5620 C   0  0  0  0  0  0  0  0  0  0  0  0
   -5.0840   12.5720  -31.8370 N   0  0  0  0  0  0  0  0  0  0  0  0
   -4.5700   14.3130  -30.4410 O   0  0  0  0  0  0  0  0  0  0  0  0
   -5.6560   11.7000  -30.9130 C   0  0  0  0  0  0  0  0  0  0  0  0
   -5.6500   11.6820  -29.5590 C   0  0  0  0  0  0  0  0  0  0  0  0
   -6.5580   10.3550  -31.4830 S   0  0  0  0  0  0  0  0  0  0  0  0
   -6.3400   10.6340  -29.0490 N   0  0  0  0  0  0  0  0  0  0  0  0
   -6.8740    9.8470  -29.9140 N   0  0  0  0  0  0  0  0  0  0  0  0
  2  1  1  0
  3  1  2  0
  2  4  1  0
  4  5  2  0
  4  6  1  0
  7  5  1  0
  8  6  1  0
  7  8  2  0
A    2
 N  
A    3
 O1 
A    4
 C6 
A    5
 C7 
A    6
 S  
A    7
 N1 
A    8
 N2 
M  END
>  <XChem_code>  (30) 
D68EV3CPROA-x0789

>  <Occupancy>  (30) 
[0.7, 0.7, 0.7, 0.7, 0.7, 0.7, 0.7, 0.7, 0.7, 0.7, 0.7, 0.7, 0.7, 0.7]

>  <TempFactor>  (30) 
[56.59, 66.21, 67.77, 68.43, 44.39, 60.91, 69.25, 42.57, 69.8, 66.66, 61.67, 48.87, 42.82, 49.48]

>  <RealCrystalName>  (30) 
D68EV3CPROA-x0789

>  <smiles>  (30) 
CC1CCOC1C(=O)Nc2cnns2

>  <new_smiles>  (30) 
CC1CCOC1C(=O)Nc2cnns2

>  <alternate_name>  (30) 
Z1827602749

>  <site_name>  (30) 
1

>  <pdb_entry>  (30) 
nan

>  <mol>  (30) 
<rdkit.Chem.rdchem.Mol object at 0x13a1a36f0>

>  <single_smiles>  (30) 
CC1CCOC1C(=O)Nc1cnns1

>  <base_name>  (30) 
D68EV3CPROA-x0789_0A

>  <lig_resn>  (30) 
LIG

>  <lig_resi>  (30) 
201

>  <lig_chain>  (30) 
A

>  <lig_segi>  (30) 


>  <lig_alt>  (30) 


>  <polymer_chain>  (30) 
A

$$$$
x1285L1BP1
     RDKit          3D

 13 14  0  0  0  0  0  0  0  0999 V2000
  -10.6520   19.6760  -30.1380 N   0  0  0  0  0  0  0  0  0  0  0  0
   -9.9820   17.1800  -31.2410 C   0  0  0  0  0  0  0  0  0  0  0  0
  -10.9250   16.5330  -30.3940 O   0  0  0  0  0  0  0  0  0  0  0  0
  -10.6930   18.1730  -32.1210 C   0  0  0  0  0  0  0  0  0  0  0  0
  -11.4430   19.1980  -31.2830 C   0  0  0  0  0  0  0  0  0  0  0  0
  -10.8780   21.1100  -29.9290 C   0  0  0  0  0  0  0  0  0  0  0  0
  -11.3020   21.5050  -28.5370 C   0  0  0  0  0  0  0  0  0  0  0  0
  -11.2000   22.8270  -27.9980 C   0  0  0  0  0  0  0  0  0  0  0  0
  -11.6850   22.9370  -26.7200 C   0  0  0  0  0  0  0  0  0  0  0  0
  -11.8630   20.6350  -27.6410 C   0  0  0  0  0  0  0  0  0  0  0  0
   -9.2200   19.3860  -30.3540 C   0  0  0  0  0  0  0  0  0  0  0  0
   -8.9480   17.8850  -30.4010 C   0  0  0  0  0  0  0  0  0  0  0  0
  -12.2700   21.3910  -26.1670 S   0  0  0  0  0  0  0  0  0  0  0  0
  1  5  1  0
  1  6  1  0
  1 11  1  0
  2  3  1  0
  2  4  1  0
  2 12  1  0
  4  5  1  0
  6  7  1  0
  7  8  1  0
  7 10  2  0
  8  9  2  0
  9 13  1  0
 10 13  1  0
 11 12  1  0
A    1
 N  
A    2
 C  
A    3
 O  
A    4
 C1 
A    5
 C2 
A    6
 C3 
A    7
 C4 
A    8
 C5 
A    9
 C6 
A   10
 C7 
A   11
 C8 
A   12
 C9 
A   13
 S  
M  END
>  <XChem_code>  (31) 
D68EV3CPROA-x1285

>  <Occupancy>  (31) 
[0.98, 0.98, 0.98, 0.98, 0.98, 0.98, 0.98, 0.98, 0.98, 0.98, 0.98, 0.98, 0.98]

>  <TempFactor>  (31) 
[62.92, 53.85, 55.84, 55.42, 59.07, 67.89, 75.42, 75.35, 79.39, 78.53, 58.69, 54.38, 86.51]

>  <RealCrystalName>  (31) 
D68EV3CPROA-x1285

>  <smiles>  (31) 
OC1CCN(Cc2ccsc2)CC1

>  <new_smiles>  (31) 
OC1CCN(Cc2ccsc2)CC1

>  <alternate_name>  (31) 
Z905434478

>  <site_name>  (31) 
2

>  <pdb_entry>  (31) 
nan

>  <mol>  (31) 
<rdkit.Chem.rdchem.Mol object at 0x13a26c9e0>

>  <single_smiles>  (31) 
OC1CCN(Cc2ccsc2)CC1

>  <base_name>  (31) 
D68EV3CPROA-x1285_1B

>  <lig_resn>  (31) 
LIG

>  <lig_resi>  (31) 
301

>  <lig_chain>  (31) 
B

>  <lig_segi>  (31) 


>  <lig_alt>  (31) 


>  <polymer_chain>  (31) 
B

$$$$
x1285L1BP1S1
     RDKit          3D

  6  6  0  0  0  0  0  0  0  0999 V2000
  -10.8780   21.1100  -29.9290 C   0  0  0  0  0  0  0  0  0  0  0  0
  -11.3020   21.5050  -28.5370 C   0  0  0  0  0  0  0  0  0  0  0  0
  -11.2000   22.8270  -27.9980 C   0  0  0  0  0  0  0  0  0  0  0  0
  -11.8630   20.6350  -27.6410 C   0  0  0  0  0  0  0  0  0  0  0  0
  -11.6850   22.9370  -26.7200 C   0  0  0  0  0  0  0  0  0  0  0  0
  -12.2700   21.3910  -26.1670 S   0  0  0  0  0  0  0  0  0  0  0  0
  1  2  1  0
  2  3  1  0
  2  4  2  0
  3  5  2  0
  4  6  1  0
  5  6  1  0
A    2
 C4 
A    3
 C5 
A    4
 C7 
A    5
 C6 
A    6
 S  
M  END
>  <XChem_code>  (32) 
D68EV3CPROA-x1285

>  <Occupancy>  (32) 
[0.98, 0.98, 0.98, 0.98, 0.98, 0.98, 0.98, 0.98, 0.98, 0.98, 0.98, 0.98, 0.98]

>  <TempFactor>  (32) 
[62.92, 53.85, 55.84, 55.42, 59.07, 67.89, 75.42, 75.35, 79.39, 78.53, 58.69, 54.38, 86.51]

>  <RealCrystalName>  (32) 
D68EV3CPROA-x1285

>  <smiles>  (32) 
OC1CCN(Cc2ccsc2)CC1

>  <new_smiles>  (32) 
OC1CCN(Cc2ccsc2)CC1

>  <alternate_name>  (32) 
Z905434478

>  <site_name>  (32) 
2

>  <pdb_entry>  (32) 
nan

>  <mol>  (32) 
<rdkit.Chem.rdchem.Mol object at 0x13a26c9e0>

>  <single_smiles>  (32) 
OC1CCN(Cc2ccsc2)CC1

>  <base_name>  (32) 
D68EV3CPROA-x1285_1B

>  <lig_resn>  (32) 
LIG

>  <lig_resi>  (32) 
301

>  <lig_chain>  (32) 
B

>  <lig_segi>  (32) 


>  <lig_alt>  (32) 


>  <polymer_chain>  (32) 
B

$$$$
x1285L1BP1S2
     RDKit          3D

  7  7  0  0  0  0  0  0  0  0999 V2000
  -10.6520   19.6760  -30.1380 N   0  0  0  0  0  0  0  0  0  0  0  0
  -11.4430   19.1980  -31.2830 C   0  0  0  0  0  0  0  0  0  0  0  0
   -9.2200   19.3860  -30.3540 C   0  0  0  0  0  0  0  0  0  0  0  0
  -10.6930   18.1730  -32.1210 C   0  0  0  0  0  0  0  0  0  0  0  0
   -8.9480   17.8850  -30.4010 C   0  0  0  0  0  0  0  0  0  0  0  0
   -9.9820   17.1800  -31.2410 C   0  0  0  0  0  0  0  0  0  0  0  0
  -10.9250   16.5330  -30.3940 O   0  0  0  0  0  0  0  0  0  0  0  0
  1  2  1  0
  1  3  1  0
  4  2  1  0
  3  5  1  0
  6  4  1  0
  6  5  1  0
  6  7  1  0
A    2
 C2 
A    3
 C8 
A    4
 C1 
A    5
 C9 
A    6
 C  
A    7
 O  
M  END
>  <XChem_code>  (33) 
D68EV3CPROA-x1285

>  <Occupancy>  (33) 
[0.98, 0.98, 0.98, 0.98, 0.98, 0.98, 0.98, 0.98, 0.98, 0.98, 0.98, 0.98, 0.98]

>  <TempFactor>  (33) 
[62.92, 53.85, 55.84, 55.42, 59.07, 67.89, 75.42, 75.35, 79.39, 78.53, 58.69, 54.38, 86.51]

>  <RealCrystalName>  (33) 
D68EV3CPROA-x1285

>  <smiles>  (33) 
OC1CCN(Cc2ccsc2)CC1

>  <new_smiles>  (33) 
OC1CCN(Cc2ccsc2)CC1

>  <alternate_name>  (33) 
Z905434478

>  <site_name>  (33) 
2

>  <pdb_entry>  (33) 
nan

>  <mol>  (33) 
<rdkit.Chem.rdchem.Mol object at 0x13a26c9e0>

>  <single_smiles>  (33) 
OC1CCN(Cc2ccsc2)CC1

>  <base_name>  (33) 
D68EV3CPROA-x1285_1B

>  <lig_resn>  (33) 
LIG

>  <lig_resi>  (33) 
301

>  <lig_chain>  (33) 
B

>  <lig_segi>  (33) 


>  <lig_alt>  (33) 


>  <polymer_chain>  (33) 
B

$$$$
x1285L1BP1S3
     RDKit          3D

  5  5  0  0  0  0  0  0  0  0999 V2000
  -11.3020   21.5050  -28.5370 C   0  0  0  0  0  0  0  0  0  0  0  0
  -11.2000   22.8270  -27.9980 C   0  0  0  0  0  0  0  0  0  0  0  0
  -11.8630   20.6350  -27.6410 C   0  0  0  0  0  0  0  0  0  0  0  0
  -11.6850   22.9370  -26.7200 C   0  0  0  0  0  0  0  0  0  0  0  0
  -12.2700   21.3910  -26.1670 S   0  0  0  0  0  0  0  0  0  0  0  0
  1  2  1  0
  1  3  2  0
  2  4  2  0
  3  5  1  0
  4  5  1  0
A    2
 C5 
A    3
 C7 
A    4
 C6 
A    5
 S  
M  END
>  <XChem_code>  (34) 
D68EV3CPROA-x1285

>  <Occupancy>  (34) 
[0.98, 0.98, 0.98, 0.98, 0.98, 0.98, 0.98, 0.98, 0.98, 0.98, 0.98, 0.98, 0.98]

>  <TempFactor>  (34) 
[62.92, 53.85, 55.84, 55.42, 59.07, 67.89, 75.42, 75.35, 79.39, 78.53, 58.69, 54.38, 86.51]

>  <RealCrystalName>  (34) 
D68EV3CPROA-x1285

>  <smiles>  (34) 
OC1CCN(Cc2ccsc2)CC1

>  <new_smiles>  (34) 
OC1CCN(Cc2ccsc2)CC1

>  <alternate_name>  (34) 
Z905434478

>  <site_name>  (34) 
2

>  <pdb_entry>  (34) 
nan

>  <mol>  (34) 
<rdkit.Chem.rdchem.Mol object at 0x13a26c9e0>

>  <single_smiles>  (34) 
OC1CCN(Cc2ccsc2)CC1

>  <base_name>  (34) 
D68EV3CPROA-x1285_1B

>  <lig_resn>  (34) 
LIG

>  <lig_resi>  (34) 
301

>  <lig_chain>  (34) 
B

>  <lig_segi>  (34) 


>  <lig_alt>  (34) 


>  <polymer_chain>  (34) 
B

$$$$
x1285L1BP1S4
     RDKit          3D

  8  8  0  0  0  0  0  0  0  0999 V2000
  -10.8780   21.1100  -29.9290 C   0  0  0  0  0  0  0  0  0  0  0  0
  -10.6520   19.6760  -30.1380 N   0  0  0  0  0  0  0  0  0  0  0  0
  -11.4430   19.1980  -31.2830 C   0  0  0  0  0  0  0  0  0  0  0  0
   -9.2200   19.3860  -30.3540 C   0  0  0  0  0  0  0  0  0  0  0  0
  -10.6930   18.1730  -32.1210 C   0  0  0  0  0  0  0  0  0  0  0  0
   -8.9480   17.8850  -30.4010 C   0  0  0  0  0  0  0  0  0  0  0  0
   -9.9820   17.1800  -31.2410 C   0  0  0  0  0  0  0  0  0  0  0  0
  -10.9250   16.5330  -30.3940 O   0  0  0  0  0  0  0  0  0  0  0  0
  2  1  1  0
  2  3  1  0
  2  4  1  0
  5  3  1  0
  4  6  1  0
  7  5  1  0
  7  6  1  0
  7  8  1  0
A    2
 N  
A    3
 C2 
A    4
 C8 
A    5
 C1 
A    6
 C9 
A    7
 C  
A    8
 O  
M  END
>  <XChem_code>  (35) 
D68EV3CPROA-x1285

>  <Occupancy>  (35) 
[0.98, 0.98, 0.98, 0.98, 0.98, 0.98, 0.98, 0.98, 0.98, 0.98, 0.98, 0.98, 0.98]

>  <TempFactor>  (35) 
[62.92, 53.85, 55.84, 55.42, 59.07, 67.89, 75.42, 75.35, 79.39, 78.53, 58.69, 54.38, 86.51]

>  <RealCrystalName>  (35) 
D68EV3CPROA-x1285

>  <smiles>  (35) 
OC1CCN(Cc2ccsc2)CC1

>  <new_smiles>  (35) 
OC1CCN(Cc2ccsc2)CC1

>  <alternate_name>  (35) 
Z905434478

>  <site_name>  (35) 
2

>  <pdb_entry>  (35) 
nan

>  <mol>  (35) 
<rdkit.Chem.rdchem.Mol object at 0x13a26c9e0>

>  <single_smiles>  (35) 
OC1CCN(Cc2ccsc2)CC1

>  <base_name>  (35) 
D68EV3CPROA-x1285_1B

>  <lig_resn>  (35) 
LIG

>  <lig_resi>  (35) 
301

>  <lig_chain>  (35) 
B

>  <lig_segi>  (35) 


>  <lig_alt>  (35) 


>  <polymer_chain>  (35) 
B

$$$$
x1305L0BP1
     RDKit          3D

 13 14  0  0  0  0  0  0  0  0999 V2000
  -13.2820   14.1010  -38.5020 N   0  0  0  0  0  0  0  0  0  0  0  0
  -14.6500   13.0400  -40.8950 C   0  0  0  0  0  0  0  0  0  0  0  0
  -13.3650   16.1330  -39.3370 O   0  0  0  0  0  0  0  0  0  0  0  0
  -14.7440   14.4950  -40.4990 C   0  0  0  0  0  0  0  0  0  0  0  0
  -12.4120   16.1650  -38.2940 N   0  0  0  0  0  0  0  0  0  0  0  0
  -16.1590   14.8330  -40.1060 C   0  0  0  0  0  0  0  0  0  0  0  0
  -10.4200   13.5300  -37.3880 N   0  0  0  0  0  0  0  0  0  0  0  0
  -13.8120   14.8680  -39.3940 C   0  0  0  0  0  0  0  0  0  0  0  0
  -12.4080   14.9380  -37.8620 C   0  0  0  0  0  0  0  0  0  0  0  0
  -11.4670   14.3920  -36.8230 C   0  0  2  0  0  0  0  0  0  0  0  0
  -10.6800   15.4890  -36.0930 C   0  0  0  0  0  0  0  0  0  0  0  0
   -9.4290   15.6740  -36.9460 C   0  0  0  0  0  0  0  0  0  0  0  0
   -9.1590   14.2890  -37.5220 C   0  0  0  0  0  0  0  0  0  0  0  0
  1  8  2  0
  1  9  1  0
  4  2  1  0
  3  5  1  0
  3  8  1  0
  4  6  1  0
  4  8  1  0
  5  9  2  0
  7 10  1  0
  7 13  1  0
 10  9  1  6
 10 11  1  0
 11 12  1  0
 12 13  1  0
A    1
 N  
A    2
 C  
A    3
 O  
A    4
 C1 
A    5
 N1 
A    6
 C2 
A    7
 N2 
A    8
 C3 
A    9
 C4 
A   10
 C5 
A   11
 C6 
A   12
 C7 
A   13
 C8 
M  END
>  <XChem_code>  (36) 
D68EV3CPROA-x1305

>  <Occupancy>  (36) 
[0.4, 0.4, 0.4, 0.4, 0.4, 0.4, 0.4, 0.4, 0.4, 0.4, 0.4, 0.4, 0.4]

>  <TempFactor>  (36) 
[35.95, 35.27, 35.89, 35.43, 37.1, 34.72, 40.22, 36.12, 37.53, 39.88, 41.17, 41.72, 42.18]

>  <RealCrystalName>  (36) 
D68EV3CPROA-x1305

>  <smiles>  (36) 
CC(C)c1nc(no1)C2CCCN2

>  <new_smiles>  (36) 
CC(C)c1nc(no1)C2CCCN2

>  <alternate_name>  (36) 
Z979742720

>  <site_name>  (36) 
1

>  <pdb_entry>  (36) 
nan

>  <mol>  (36) 
<rdkit.Chem.rdchem.Mol object at 0x13a26cac0>

>  <single_smiles>  (36) 
CC(C)c1nc(C2CCCN2)no1

>  <base_name>  (36) 
D68EV3CPROA-x1305_0B

>  <lig_resn>  (36) 
LIG

>  <lig_resi>  (36) 
201

>  <lig_chain>  (36) 
B

>  <lig_segi>  (36) 


>  <lig_alt>  (36) 


>  <polymer_chain>  (36) 
B

$$$$
x1305L0BP1S1
     RDKit          3D

  5  5  0  0  0  0  0  0  0  0999 V2000
  -11.4670   14.3920  -36.8230 C   0  0  0  0  0  0  0  0  0  0  0  0
  -10.4200   13.5300  -37.3880 N   0  0  0  0  0  0  0  0  0  0  0  0
  -10.6800   15.4890  -36.0930 C   0  0  0  0  0  0  0  0  0  0  0  0
   -9.1590   14.2890  -37.5220 C   0  0  0  0  0  0  0  0  0  0  0  0
   -9.4290   15.6740  -36.9460 C   0  0  0  0  0  0  0  0  0  0  0  0
  2  1  1  0
  1  3  1  1
  2  4  1  0
  3  5  1  0
  5  4  1  0
A    2
 N2 
A    3
 C6 
A    4
 C8 
A    5
 C7 
M  END
>  <XChem_code>  (37) 
D68EV3CPROA-x1305

>  <Occupancy>  (37) 
[0.4, 0.4, 0.4, 0.4, 0.4, 0.4, 0.4, 0.4, 0.4, 0.4, 0.4, 0.4, 0.4]

>  <TempFactor>  (37) 
[35.95, 35.27, 35.89, 35.43, 37.1, 34.72, 40.22, 36.12, 37.53, 39.88, 41.17, 41.72, 42.18]

>  <RealCrystalName>  (37) 
D68EV3CPROA-x1305

>  <smiles>  (37) 
CC(C)c1nc(no1)C2CCCN2

>  <new_smiles>  (37) 
CC(C)c1nc(no1)C2CCCN2

>  <alternate_name>  (37) 
Z979742720

>  <site_name>  (37) 
1

>  <pdb_entry>  (37) 
nan

>  <mol>  (37) 
<rdkit.Chem.rdchem.Mol object at 0x13a26cac0>

>  <single_smiles>  (37) 
CC(C)c1nc(C2CCCN2)no1

>  <base_name>  (37) 
D68EV3CPROA-x1305_0B

>  <lig_resn>  (37) 
LIG

>  <lig_resi>  (37) 
201

>  <lig_chain>  (37) 
B

>  <lig_segi>  (37) 


>  <lig_alt>  (37) 


>  <polymer_chain>  (37) 
B

$$$$
x1305L0BP1S2
     RDKit          3D

  8  8  0  0  0  0  0  0  0  0999 V2000
  -12.4080   14.9380  -37.8620 C   0  0  0  0  0  0  0  0  0  0  0  0
  -13.2820   14.1010  -38.5020 N   0  0  0  0  0  0  0  0  0  0  0  0
  -12.4120   16.1650  -38.2940 N   0  0  0  0  0  0  0  0  0  0  0  0
  -13.8120   14.8680  -39.3940 C   0  0  0  0  0  0  0  0  0  0  0  0
  -13.3650   16.1330  -39.3370 O   0  0  0  0  0  0  0  0  0  0  0  0
  -14.7440   14.4950  -40.4990 C   0  0  0  0  0  0  0  0  0  0  0  0
  -14.6500   13.0400  -40.8950 C   0  0  0  0  0  0  0  0  0  0  0  0
  -16.1590   14.8330  -40.1060 C   0  0  0  0  0  0  0  0  0  0  0  0
  2  1  1  0
  3  1  2  0
  2  4  2  0
  5  3  1  0
  5  4  1  0
  6  4  1  0
  6  7  1  0
  6  8  1  0
A    2
 N  
A    3
 N1 
A    4
 C3 
A    5
 O  
A    6
 C1 
A    7
 C  
A    8
 C2 
M  END
>  <XChem_code>  (38) 
D68EV3CPROA-x1305

>  <Occupancy>  (38) 
[0.4, 0.4, 0.4, 0.4, 0.4, 0.4, 0.4, 0.4, 0.4, 0.4, 0.4, 0.4, 0.4]

>  <TempFactor>  (38) 
[35.95, 35.27, 35.89, 35.43, 37.1, 34.72, 40.22, 36.12, 37.53, 39.88, 41.17, 41.72, 42.18]

>  <RealCrystalName>  (38) 
D68EV3CPROA-x1305

>  <smiles>  (38) 
CC(C)c1nc(no1)C2CCCN2

>  <new_smiles>  (38) 
CC(C)c1nc(no1)C2CCCN2

>  <alternate_name>  (38) 
Z979742720

>  <site_name>  (38) 
1

>  <pdb_entry>  (38) 
nan

>  <mol>  (38) 
<rdkit.Chem.rdchem.Mol object at 0x13a26cac0>

>  <single_smiles>  (38) 
CC(C)c1nc(C2CCCN2)no1

>  <base_name>  (38) 
D68EV3CPROA-x1305_0B

>  <lig_resn>  (38) 
LIG

>  <lig_resi>  (38) 
201

>  <lig_chain>  (38) 
B

>  <lig_segi>  (38) 


>  <lig_alt>  (38) 


>  <polymer_chain>  (38) 
B

$$$$
x0771L0AP1
     RDKit          3D

 12 13  0  0  0  0  0  0  0  0999 V2000
   -5.6790   11.9310  -29.3990 N   0  0  0  0  0  0  0  0  0  0  0  0
   -6.3840   10.8960  -29.8420 C   0  0  0  0  0  0  0  0  0  0  0  0
   -6.9430   10.0880  -29.0820 O   0  0  0  0  0  0  0  0  0  0  0  0
   -6.5020   10.7170  -31.3270 C   0  0  0  0  0  0  0  0  0  0  0  0
   -6.7520   10.0160  -35.4110 N   0  0  0  0  0  0  0  0  0  0  0  0
   -6.5570   11.8360  -32.1720 C   0  0  0  0  0  0  0  0  0  0  0  0
   -6.6430   11.6880  -33.5490 C   0  0  0  0  0  0  0  0  0  0  0  0
   -6.6470   10.3990  -34.0790 C   0  0  0  0  0  0  0  0  0  0  0  0
   -6.3200    8.6230  -35.5550 C   0  0  0  0  0  0  0  0  0  0  0  0
   -6.4470    8.0560  -34.1300 C   0  0  0  0  0  0  0  0  0  0  0  0
   -6.5640    9.2800  -33.2630 C   0  0  0  0  0  0  0  0  0  0  0  0
   -6.5210    9.4400  -31.8850 C   0  0  0  0  0  0  0  0  0  0  0  0
  1  2  1  0
  2  3  2  0
  2  4  1  0
  4  6  2  0
  4 12  1  0
  5  8  1  0
  5  9  1  0
  6  7  1  0
  7  8  2  0
  8 11  1  0
  9 10  1  0
 10 11  1  0
 11 12  2  0
A    1
 N  
A    2
 C  
A    3
 O  
A    4
 C1 
A    5
 N1 
A    6
 C2 
A    7
 C3 
A    8
 C4 
A    9
 C5 
A   10
 C6 
A   11
 C7 
A   12
 C8 
M  END
>  <XChem_code>  (39) 
D68EV3CPROA-x0771

>  <Occupancy>  (39) 
[0.64, 0.64, 0.64, 0.64, 0.64, 0.64, 0.64, 0.64, 0.64, 0.64, 0.64, 0.64]

>  <TempFactor>  (39) 
[49.02, 50.98, 46.17, 54.1, 60.3, 56.33, 58.38, 60.28, 61.4, 60.15, 59.84, 57.61]

>  <RealCrystalName>  (39) 
D68EV3CPROA-x0771

>  <smiles>  (39) 
Cl.NC(=O)c1ccc2NCCc2c1

>  <new_smiles>  (39) 
Cl.NC(=O)c1ccc2NCCc2c1

>  <alternate_name>  (39) 
Z1696091761

>  <site_name>  (39) 
1

>  <pdb_entry>  (39) 
nan

>  <mol>  (39) 
<rdkit.Chem.rdchem.Mol object at 0x13a1a3610>

>  <single_smiles>  (39) 
NC(=O)c1ccc2c(c1)CCN2

>  <base_name>  (39) 
D68EV3CPROA-x0771_0A

>  <lig_resn>  (39) 
LIG

>  <lig_resi>  (39) 
301

>  <lig_chain>  (39) 
A

>  <lig_segi>  (39) 


>  <lig_alt>  (39) 


>  <polymer_chain>  (39) 
A

$$$$
x1083L0AP1
     RDKit          3D

 11 11  0  0  0  0  0  0  0  0999 V2000
  -11.0190   15.1770  -37.5360 N   0  0  0  0  0  0  0  0  0  0  0  0
   -9.1670   13.2040  -37.2360 C   0  0  0  0  0  0  0  0  0  0  0  0
  -10.1710   14.5990  -35.2970 O   0  0  0  0  0  0  0  0  0  0  0  0
  -10.7570   15.7650  -38.8640 C   0  0  0  0  0  0  0  0  0  0  0  0
   -8.7000   15.7280  -36.9110 O   0  0  0  0  0  0  0  0  0  0  0  0
  -12.0220   16.4240  -39.4010 C   0  0  0  0  0  0  0  0  0  0  0  0
  -14.3580   16.0450  -39.9370 O   0  0  0  0  0  0  0  0  0  0  0  0
  -13.1620   15.4330  -39.4530 C   0  0  0  0  0  0  0  0  0  0  0  0
  -13.3930   14.8470  -38.0810 C   0  0  0  0  0  0  0  0  0  0  0  0
  -12.1210   14.1950  -37.5610 C   0  0  0  0  0  0  0  0  0  0  0  0
   -9.7170   14.7620  -36.6420 S   0  0  0  0  0  0  0  0  0  0  0  0
  1  4  1  0
  1 10  1  0
  1 11  1  0
 11  2  1  0
  3 11  2  0
  4  6  1  0
  5 11  2  0
  6  8  1  0
  8  7  1  0
  8  9  1  0
  9 10  1  0
A    1
 N  
A    2
 C  
A    3
 O  
A    4
 C1 
A    5
 O1 
A    6
 C2 
A    7
 O2 
A    8
 C3 
A    9
 C4 
A   10
 C5 
A   11
 S  
M  END
>  <XChem_code>  (40) 
D68EV3CPROA-x1083

>  <Occupancy>  (40) 
[0.88, 0.88, 0.88, 0.88, 0.88, 0.88, 0.88, 0.88, 0.88, 0.88, 0.88]

>  <TempFactor>  (40) 
[71.89, 65.62, 69.14, 69.53, 73.16, 68.13, 65.29, 67.13, 67.96, 69.22, 68.91]

>  <RealCrystalName>  (40) 
D68EV3CPROA-x1083

>  <smiles>  (40) 
CS(=O)(=O)N1CCC(O)CC1

>  <new_smiles>  (40) 
CS(=O)(=O)N1CCC(O)CC1

>  <alternate_name>  (40) 
Z425757818

>  <site_name>  (40) 
1

>  <pdb_entry>  (40) 
nan

>  <mol>  (40) 
<rdkit.Chem.rdchem.Mol object at 0x13a26c190>

>  <single_smiles>  (40) 
CS(=O)(=O)N1CCC(O)CC1

>  <base_name>  (40) 
D68EV3CPROA-x1083_0A

>  <lig_resn>  (40) 
LIG

>  <lig_resi>  (40) 
201

>  <lig_chain>  (40) 
A

>  <lig_segi>  (40) 


>  <lig_alt>  (40) 


>  <polymer_chain>  (40) 
A

$$$$
x1083L0AP1S1
     RDKit          3D

  4  3  0  0  0  0  0  0  0  0999 V2000
   -9.7170   14.7620  -36.6420 S   0  0  0  0  0  0  0  0  0  0  0  0
   -9.1670   13.2040  -37.2360 C   0  0  0  0  0  0  0  0  0  0  0  0
  -10.1710   14.5990  -35.2970 O   0  0  0  0  0  0  0  0  0  0  0  0
   -8.7000   15.7280  -36.9110 O   0  0  0  0  0  0  0  0  0  0  0  0
  1  2  1  0
  3  1  2  0
  4  1  2  0
A    2
 C  
A    3
 O  
A    4
 O1 
M  END
>  <XChem_code>  (41) 
D68EV3CPROA-x1083

>  <Occupancy>  (41) 
[0.88, 0.88, 0.88, 0.88, 0.88, 0.88, 0.88, 0.88, 0.88, 0.88, 0.88]

>  <TempFactor>  (41) 
[71.89, 65.62, 69.14, 69.53, 73.16, 68.13, 65.29, 67.13, 67.96, 69.22, 68.91]

>  <RealCrystalName>  (41) 
D68EV3CPROA-x1083

>  <smiles>  (41) 
CS(=O)(=O)N1CCC(O)CC1

>  <new_smiles>  (41) 
CS(=O)(=O)N1CCC(O)CC1

>  <alternate_name>  (41) 
Z425757818

>  <site_name>  (41) 
1

>  <pdb_entry>  (41) 
nan

>  <mol>  (41) 
<rdkit.Chem.rdchem.Mol object at 0x13a26c190>

>  <single_smiles>  (41) 
CS(=O)(=O)N1CCC(O)CC1

>  <base_name>  (41) 
D68EV3CPROA-x1083_0A

>  <lig_resn>  (41) 
LIG

>  <lig_resi>  (41) 
201

>  <lig_chain>  (41) 
A

>  <lig_segi>  (41) 


>  <lig_alt>  (41) 


>  <polymer_chain>  (41) 
A

$$$$
x1083L0AP1S2
     RDKit          3D

  7  7  0  0  0  0  0  0  0  0999 V2000
  -11.0190   15.1770  -37.5360 N   0  0  0  0  0  0  0  0  0  0  0  0
  -10.7570   15.7650  -38.8640 C   0  0  0  0  0  0  0  0  0  0  0  0
  -12.1210   14.1950  -37.5610 C   0  0  0  0  0  0  0  0  0  0  0  0
  -12.0220   16.4240  -39.4010 C   0  0  0  0  0  0  0  0  0  0  0  0
  -13.3930   14.8470  -38.0810 C   0  0  0  0  0  0  0  0  0  0  0  0
  -13.1620   15.4330  -39.4530 C   0  0  0  0  0  0  0  0  0  0  0  0
  -14.3580   16.0450  -39.9370 O   0  0  0  0  0  0  0  0  0  0  0  0
  1  2  1  0
  1  3  1  0
  2  4  1  0
  5  3  1  0
  4  6  1  0
  6  5  1  0
  6  7  1  0
A    2
 C1 
A    3
 C5 
A    4
 C2 
A    5
 C4 
A    6
 C3 
A    7
 O2 
M  END
>  <XChem_code>  (42) 
D68EV3CPROA-x1083

>  <Occupancy>  (42) 
[0.88, 0.88, 0.88, 0.88, 0.88, 0.88, 0.88, 0.88, 0.88, 0.88, 0.88]

>  <TempFactor>  (42) 
[71.89, 65.62, 69.14, 69.53, 73.16, 68.13, 65.29, 67.13, 67.96, 69.22, 68.91]

>  <RealCrystalName>  (42) 
D68EV3CPROA-x1083

>  <smiles>  (42) 
CS(=O)(=O)N1CCC(O)CC1

>  <new_smiles>  (42) 
CS(=O)(=O)N1CCC(O)CC1

>  <alternate_name>  (42) 
Z425757818

>  <site_name>  (42) 
1

>  <pdb_entry>  (42) 
nan

>  <mol>  (42) 
<rdkit.Chem.rdchem.Mol object at 0x13a26c190>

>  <single_smiles>  (42) 
CS(=O)(=O)N1CCC(O)CC1

>  <base_name>  (42) 
D68EV3CPROA-x1083_0A

>  <lig_resn>  (42) 
LIG

>  <lig_resi>  (42) 
201

>  <lig_chain>  (42) 
A

>  <lig_segi>  (42) 


>  <lig_alt>  (42) 


>  <polymer_chain>  (42) 
A

$$$$
x1247L0AP1
     RDKit          3D

 15 16  0  0  0  0  0  0  0  0999 V2000
  -10.5260   15.7430  -40.5350 N   0  0  0  0  0  0  0  0  0  0  0  0
   -6.9170   14.4620  -43.1680 C   0  0  0  0  0  0  0  0  0  0  0  0
  -12.5510   16.8430  -40.6540 O   0  0  0  0  0  0  0  0  0  0  0  0
   -8.2730   15.0850  -43.1210 C   0  0  0  0  0  0  0  0  0  0  0  0
  -11.8400   14.3240  -38.2560 N   0  0  0  0  0  0  0  0  0  0  0  0
   -8.9610   15.4340  -44.2800 C   0  0  0  0  0  0  0  0  0  0  0  0
   -8.7860   15.3070  -41.9030 N   0  0  0  0  0  0  0  0  0  0  0  0
  -10.1980   16.0390  -44.1710 C   0  0  0  0  0  0  0  0  0  0  0  0
  -10.7300   16.2860  -42.9200 C   0  0  0  0  0  0  0  0  0  0  0  0
   -9.9960   15.8680  -41.8180 C   0  0  0  0  0  0  0  0  0  0  0  0
  -11.7080   16.1850  -40.0490 C   0  0  0  0  0  0  0  0  0  0  0  0
  -11.9620   15.7230  -38.6590 C   0  0  1  0  0  0  0  0  0  0  0  0
  -13.0570   16.4330  -37.8990 C   0  0  0  0  0  0  0  0  0  0  0  0
  -13.9300   15.2810  -37.4610 C   0  0  0  0  0  0  0  0  0  0  0  0
  -12.9410   14.1170  -37.2950 C   0  0  0  0  0  0  0  0  0  0  0  0
  1 10  1  0
  1 11  1  0
  2  4  1  0
  3 11  2  0
  4  6  2  0
  4  7  1  0
  5 12  1  0
  5 15  1  0
  6  8  1  0
  7 10  2  0
  8  9  2  0
  9 10  1  0
 12 11  1  6
 12 13  1  0
 13 14  1  0
 14 15  1  0
A    1
 N  
A    2
 C  
A    3
 O  
A    4
 C1 
A    5
 N1 
A    6
 C2 
A    7
 N2 
A    8
 C3 
A    9
 C4 
A   10
 C5 
A   11
 C6 
A   12
 C7 
A   13
 C8 
A   14
 C9 
A   15
 C10
M  END
>  <XChem_code>  (43) 
D68EV3CPROA-x1247

>  <Occupancy>  (43) 
[0.86, 0.86, 0.86, 0.86, 0.86, 0.86, 0.86, 0.86, 0.86, 0.86, 0.86, 0.86, 0.86, 0.86, 0.86]

>  <TempFactor>  (43) 
[17.15, 19.7, 14.92, 19.7, 19.21, 19.17, 18.3, 19.2, 18.34, 17.39, 17.02, 17.11, 16.88, 17.4, 17.37]

>  <RealCrystalName>  (43) 
D68EV3CPROA-x1247

>  <smiles>  (43) 
Cc1cccc(NC(=O)[C@@H]2CCCN2)n1

>  <new_smiles>  (43) 
Cc1cccc(NC(=O)[C@@H]2CCCN2)n1

>  <alternate_name>  (43) 
Z760048004

>  <site_name>  (43) 
1

>  <pdb_entry>  (43) 
nan

>  <mol>  (43) 
<rdkit.Chem.rdchem.Mol object at 0x13a26c740>

>  <single_smiles>  (43) 
Cc1cccc(NC(=O)[C@@H]2CCCN2)n1

>  <base_name>  (43) 
D68EV3CPROA-x1247_0A

>  <lig_resn>  (43) 
LIG

>  <lig_resi>  (43) 
201

>  <lig_chain>  (43) 
A

>  <lig_segi>  (43) 


>  <lig_alt>  (43) 


>  <polymer_chain>  (43) 
A

$$$$
x1247L0AP1S1
     RDKit          3D

  7  7  0  0  0  0  0  0  0  0999 V2000
  -11.7080   16.1850  -40.0490 C   0  0  0  0  0  0  0  0  0  0  0  0
  -12.5510   16.8430  -40.6540 O   0  0  0  0  0  0  0  0  0  0  0  0
  -11.9620   15.7230  -38.6590 C   0  0  2  0  0  0  0  0  0  0  0  0
  -11.8400   14.3240  -38.2560 N   0  0  0  0  0  0  0  0  0  0  0  0
  -13.0570   16.4330  -37.8990 C   0  0  0  0  0  0  0  0  0  0  0  0
  -12.9410   14.1170  -37.2950 C   0  0  0  0  0  0  0  0  0  0  0  0
  -13.9300   15.2810  -37.4610 C   0  0  0  0  0  0  0  0  0  0  0  0
  2  1  2  0
  3  1  1  6
  4  3  1  0
  3  5  1  0
  4  6  1  0
  5  7  1  0
  7  6  1  0
A    2
 O  
A    3
 C7 
A    4
 N1 
A    5
 C8 
A    6
 C10
A    7
 C9 
M  END
>  <XChem_code>  (44) 
D68EV3CPROA-x1247

>  <Occupancy>  (44) 
[0.86, 0.86, 0.86, 0.86, 0.86, 0.86, 0.86, 0.86, 0.86, 0.86, 0.86, 0.86, 0.86, 0.86, 0.86]

>  <TempFactor>  (44) 
[17.15, 19.7, 14.92, 19.7, 19.21, 19.17, 18.3, 19.2, 18.34, 17.39, 17.02, 17.11, 16.88, 17.4, 17.37]

>  <RealCrystalName>  (44) 
D68EV3CPROA-x1247

>  <smiles>  (44) 
Cc1cccc(NC(=O)[C@@H]2CCCN2)n1

>  <new_smiles>  (44) 
Cc1cccc(NC(=O)[C@@H]2CCCN2)n1

>  <alternate_name>  (44) 
Z760048004

>  <site_name>  (44) 
1

>  <pdb_entry>  (44) 
nan

>  <mol>  (44) 
<rdkit.Chem.rdchem.Mol object at 0x13a26c740>

>  <single_smiles>  (44) 
Cc1cccc(NC(=O)[C@@H]2CCCN2)n1

>  <base_name>  (44) 
D68EV3CPROA-x1247_0A

>  <lig_resn>  (44) 
LIG

>  <lig_resi>  (44) 
201

>  <lig_chain>  (44) 
A

>  <lig_segi>  (44) 


>  <lig_alt>  (44) 


>  <polymer_chain>  (44) 
A

$$$$
x1247L0AP1S2
     RDKit          3D

  8  8  0  0  0  0  0  0  0  0999 V2000
  -10.5260   15.7430  -40.5350 N   0  0  0  0  0  0  0  0  0  0  0  0
   -9.9960   15.8680  -41.8180 C   0  0  0  0  0  0  0  0  0  0  0  0
   -8.7860   15.3070  -41.9030 N   0  0  0  0  0  0  0  0  0  0  0  0
  -10.7300   16.2860  -42.9200 C   0  0  0  0  0  0  0  0  0  0  0  0
   -8.2730   15.0850  -43.1210 C   0  0  0  0  0  0  0  0  0  0  0  0
  -10.1980   16.0390  -44.1710 C   0  0  0  0  0  0  0  0  0  0  0  0
   -6.9170   14.4620  -43.1680 C   0  0  0  0  0  0  0  0  0  0  0  0
   -8.9610   15.4340  -44.2800 C   0  0  0  0  0  0  0  0  0  0  0  0
  1  2  1  0
  3  2  2  0
  4  2  1  0
  5  3  1  0
  6  4  2  0
  7  5  1  0
  5  8  2  0
  8  6  1  0
A    2
 C5 
A    3
 N2 
A    4
 C4 
A    5
 C1 
A    6
 C3 
A    7
 C  
A    8
 C2 
M  END
>  <XChem_code>  (45) 
D68EV3CPROA-x1247

>  <Occupancy>  (45) 
[0.86, 0.86, 0.86, 0.86, 0.86, 0.86, 0.86, 0.86, 0.86, 0.86, 0.86, 0.86, 0.86, 0.86, 0.86]

>  <TempFactor>  (45) 
[17.15, 19.7, 14.92, 19.7, 19.21, 19.17, 18.3, 19.2, 18.34, 17.39, 17.02, 17.11, 16.88, 17.4, 17.37]

>  <RealCrystalName>  (45) 
D68EV3CPROA-x1247

>  <smiles>  (45) 
Cc1cccc(NC(=O)[C@@H]2CCCN2)n1

>  <new_smiles>  (45) 
Cc1cccc(NC(=O)[C@@H]2CCCN2)n1

>  <alternate_name>  (45) 
Z760048004

>  <site_name>  (45) 
1

>  <pdb_entry>  (45) 
nan

>  <mol>  (45) 
<rdkit.Chem.rdchem.Mol object at 0x13a26c740>

>  <single_smiles>  (45) 
Cc1cccc(NC(=O)[C@@H]2CCCN2)n1

>  <base_name>  (45) 
D68EV3CPROA-x1247_0A

>  <lig_resn>  (45) 
LIG

>  <lig_resi>  (45) 
201

>  <lig_chain>  (45) 
A

>  <lig_segi>  (45) 


>  <lig_alt>  (45) 


>  <polymer_chain>  (45) 
A

$$$$
x1247L0AP1S3
     RDKit          3D

  7  7  0  0  0  0  0  0  0  0999 V2000
   -9.9960   15.8680  -41.8180 C   0  0  0  0  0  0  0  0  0  0  0  0
   -8.7860   15.3070  -41.9030 N   0  0  0  0  0  0  0  0  0  0  0  0
  -10.7300   16.2860  -42.9200 C   0  0  0  0  0  0  0  0  0  0  0  0
   -8.2730   15.0850  -43.1210 C   0  0  0  0  0  0  0  0  0  0  0  0
  -10.1980   16.0390  -44.1710 C   0  0  0  0  0  0  0  0  0  0  0  0
   -6.9170   14.4620  -43.1680 C   0  0  0  0  0  0  0  0  0  0  0  0
   -8.9610   15.4340  -44.2800 C   0  0  0  0  0  0  0  0  0  0  0  0
  2  1  2  0
  3  1  1  0
  4  2  1  0
  5  3  2  0
  6  4  1  0
  4  7  2  0
  7  5  1  0
A    2
 N2 
A    3
 C4 
A    4
 C1 
A    5
 C3 
A    6
 C  
A    7
 C2 
M  END
>  <XChem_code>  (46) 
D68EV3CPROA-x1247

>  <Occupancy>  (46) 
[0.86, 0.86, 0.86, 0.86, 0.86, 0.86, 0.86, 0.86, 0.86, 0.86, 0.86, 0.86, 0.86, 0.86, 0.86]

>  <TempFactor>  (46) 
[17.15, 19.7, 14.92, 19.7, 19.21, 19.17, 18.3, 19.2, 18.34, 17.39, 17.02, 17.11, 16.88, 17.4, 17.37]

>  <RealCrystalName>  (46) 
D68EV3CPROA-x1247

>  <smiles>  (46) 
Cc1cccc(NC(=O)[C@@H]2CCCN2)n1

>  <new_smiles>  (46) 
Cc1cccc(NC(=O)[C@@H]2CCCN2)n1

>  <alternate_name>  (46) 
Z760048004

>  <site_name>  (46) 
1

>  <pdb_entry>  (46) 
nan

>  <mol>  (46) 
<rdkit.Chem.rdchem.Mol object at 0x13a26c740>

>  <single_smiles>  (46) 
Cc1cccc(NC(=O)[C@@H]2CCCN2)n1

>  <base_name>  (46) 
D68EV3CPROA-x1247_0A

>  <lig_resn>  (46) 
LIG

>  <lig_resi>  (46) 
201

>  <lig_chain>  (46) 
A

>  <lig_segi>  (46) 


>  <lig_alt>  (46) 


>  <polymer_chain>  (46) 
A

$$$$
x1247L0AP1S4
     RDKit          3D

  8  8  0  0  0  0  0  0  0  0999 V2000
  -10.5260   15.7430  -40.5350 N   0  0  0  0  0  0  0  0  0  0  0  0
  -11.7080   16.1850  -40.0490 C   0  0  0  0  0  0  0  0  0  0  0  0
  -12.5510   16.8430  -40.6540 O   0  0  0  0  0  0  0  0  0  0  0  0
  -11.9620   15.7230  -38.6590 C   0  0  2  0  0  0  0  0  0  0  0  0
  -11.8400   14.3240  -38.2560 N   0  0  0  0  0  0  0  0  0  0  0  0
  -13.0570   16.4330  -37.8990 C   0  0  0  0  0  0  0  0  0  0  0  0
  -12.9410   14.1170  -37.2950 C   0  0  0  0  0  0  0  0  0  0  0  0
  -13.9300   15.2810  -37.4610 C   0  0  0  0  0  0  0  0  0  0  0  0
  1  2  1  0
  3  2  2  0
  4  2  1  6
  5  4  1  0
  4  6  1  0
  5  7  1  0
  6  8  1  0
  8  7  1  0
A    2
 C6 
A    3
 O  
A    4
 C7 
A    5
 N1 
A    6
 C8 
A    7
 C10
A    8
 C9 
M  END
>  <XChem_code>  (47) 
D68EV3CPROA-x1247

>  <Occupancy>  (47) 
[0.86, 0.86, 0.86, 0.86, 0.86, 0.86, 0.86, 0.86, 0.86, 0.86, 0.86, 0.86, 0.86, 0.86, 0.86]

>  <TempFactor>  (47) 
[17.15, 19.7, 14.92, 19.7, 19.21, 19.17, 18.3, 19.2, 18.34, 17.39, 17.02, 17.11, 16.88, 17.4, 17.37]

>  <RealCrystalName>  (47) 
D68EV3CPROA-x1247

>  <smiles>  (47) 
Cc1cccc(NC(=O)[C@@H]2CCCN2)n1

>  <new_smiles>  (47) 
Cc1cccc(NC(=O)[C@@H]2CCCN2)n1

>  <alternate_name>  (47) 
Z760048004

>  <site_name>  (47) 
1

>  <pdb_entry>  (47) 
nan

>  <mol>  (47) 
<rdkit.Chem.rdchem.Mol object at 0x13a26c740>

>  <single_smiles>  (47) 
Cc1cccc(NC(=O)[C@@H]2CCCN2)n1

>  <base_name>  (47) 
D68EV3CPROA-x1247_0A

>  <lig_resn>  (47) 
LIG

>  <lig_resi>  (47) 
201

>  <lig_chain>  (47) 
A

>  <lig_segi>  (47) 


>  <lig_alt>  (47) 


>  <polymer_chain>  (47) 
A

$$$$
x1247L0AP1S5
     RDKit          3D

  5  5  0  0  0  0  0  0  0  0999 V2000
  -11.9620   15.7230  -38.6590 C   0  0  0  0  0  0  0  0  0  0  0  0
  -11.8400   14.3240  -38.2560 N   0  0  0  0  0  0  0  0  0  0  0  0
  -13.0570   16.4330  -37.8990 C   0  0  0  0  0  0  0  0  0  0  0  0
  -12.9410   14.1170  -37.2950 C   0  0  0  0  0  0  0  0  0  0  0  0
  -13.9300   15.2810  -37.4610 C   0  0  0  0  0  0  0  0  0  0  0  0
  2  1  1  0
  1  3  1  6
  2  4  1  0
  3  5  1  0
  5  4  1  0
A    2
 N1 
A    3
 C8 
A    4
 C10
A    5
 C9 
M  END
>  <XChem_code>  (48) 
D68EV3CPROA-x1247

>  <Occupancy>  (48) 
[0.86, 0.86, 0.86, 0.86, 0.86, 0.86, 0.86, 0.86, 0.86, 0.86, 0.86, 0.86, 0.86, 0.86, 0.86]

>  <TempFactor>  (48) 
[17.15, 19.7, 14.92, 19.7, 19.21, 19.17, 18.3, 19.2, 18.34, 17.39, 17.02, 17.11, 16.88, 17.4, 17.37]

>  <RealCrystalName>  (48) 
D68EV3CPROA-x1247

>  <smiles>  (48) 
Cc1cccc(NC(=O)[C@@H]2CCCN2)n1

>  <new_smiles>  (48) 
Cc1cccc(NC(=O)[C@@H]2CCCN2)n1

>  <alternate_name>  (48) 
Z760048004

>  <site_name>  (48) 
1

>  <pdb_entry>  (48) 
nan

>  <mol>  (48) 
<rdkit.Chem.rdchem.Mol object at 0x13a26c740>

>  <single_smiles>  (48) 
Cc1cccc(NC(=O)[C@@H]2CCCN2)n1

>  <base_name>  (48) 
D68EV3CPROA-x1247_0A

>  <lig_resn>  (48) 
LIG

>  <lig_resi>  (48) 
201

>  <lig_chain>  (48) 
A

>  <lig_segi>  (48) 


>  <lig_alt>  (48) 


>  <polymer_chain>  (48) 
A

$$$$
x1247L0AP1S6
     RDKit          3D

 10 10  0  0  0  0  0  0  0  0999 V2000
  -11.7080   16.1850  -40.0490 C   0  0  0  0  0  0  0  0  0  0  0  0
  -10.5260   15.7430  -40.5350 N   0  0  0  0  0  0  0  0  0  0  0  0
  -12.5510   16.8430  -40.6540 O   0  0  0  0  0  0  0  0  0  0  0  0
   -9.9960   15.8680  -41.8180 C   0  0  0  0  0  0  0  0  0  0  0  0
   -8.7860   15.3070  -41.9030 N   0  0  0  0  0  0  0  0  0  0  0  0
  -10.7300   16.2860  -42.9200 C   0  0  0  0  0  0  0  0  0  0  0  0
   -8.2730   15.0850  -43.1210 C   0  0  0  0  0  0  0  0  0  0  0  0
  -10.1980   16.0390  -44.1710 C   0  0  0  0  0  0  0  0  0  0  0  0
   -6.9170   14.4620  -43.1680 C   0  0  0  0  0  0  0  0  0  0  0  0
   -8.9610   15.4340  -44.2800 C   0  0  0  0  0  0  0  0  0  0  0  0
  2  1  1  0
  3  1  2  0
  2  4  1  0
  5  4  2  0
  6  4  1  0
  7  5  1  0
  8  6  2  0
  9  7  1  0
  7 10  2  0
 10  8  1  0
A    2
 N  
A    3
 O  
A    4
 C5 
A    5
 N2 
A    6
 C4 
A    7
 C1 
A    8
 C3 
A    9
 C  
A   10
 C2 
M  END
>  <XChem_code>  (49) 
D68EV3CPROA-x1247

>  <Occupancy>  (49) 
[0.86, 0.86, 0.86, 0.86, 0.86, 0.86, 0.86, 0.86, 0.86, 0.86, 0.86, 0.86, 0.86, 0.86, 0.86]

>  <TempFactor>  (49) 
[17.15, 19.7, 14.92, 19.7, 19.21, 19.17, 18.3, 19.2, 18.34, 17.39, 17.02, 17.11, 16.88, 17.4, 17.37]

>  <RealCrystalName>  (49) 
D68EV3CPROA-x1247

>  <smiles>  (49) 
Cc1cccc(NC(=O)[C@@H]2CCCN2)n1

>  <new_smiles>  (49) 
Cc1cccc(NC(=O)[C@@H]2CCCN2)n1

>  <alternate_name>  (49) 
Z760048004

>  <site_name>  (49) 
1

>  <pdb_entry>  (49) 
nan

>  <mol>  (49) 
<rdkit.Chem.rdchem.Mol object at 0x13a26c740>

>  <single_smiles>  (49) 
Cc1cccc(NC(=O)[C@@H]2CCCN2)n1

>  <base_name>  (49) 
D68EV3CPROA-x1247_0A

>  <lig_resn>  (49) 
LIG

>  <lig_resi>  (49) 
201

>  <lig_chain>  (49) 
A

>  <lig_segi>  (49) 


>  <lig_alt>  (49) 


>  <polymer_chain>  (49) 
A

$$$$
AG7P1
     RDKit          3D

 44 46  0  0  0  0  0  0  0  0999 V2000
   -8.9670   15.1660  -33.5270 C   0  0  0  0  0  0  0  0  0  0  0  0
  -10.3610   18.2920  -30.2190 C   0  0  0  0  0  0  0  0  0  0  0  0
   -9.3780   14.8340  -34.9810 C   0  0  0  0  0  0  0  0  0  0  0  0
  -11.4490   19.0700  -29.8790 C   0  0  0  0  0  0  0  0  0  0  0  0
  -11.4560   19.2030  -28.5220 C   0  0  0  0  0  0  0  0  0  0  0  0
   -9.0670   14.3600  -32.6690 O   0  0  0  0  0  0  0  0  0  0  0  0
   -9.6070   13.3430  -35.1580 C   0  0  1  0  0  0  0  0  0  0  0  0
  -12.4800   19.9840  -27.6840 C   0  0  0  0  0  0  0  0  0  0  0  0
  -10.4040   18.5290  -28.0300 O   0  0  0  0  0  0  0  0  0  0  0  0
   -9.8220   13.0040  -36.6320 C   0  0  0  0  0  0  0  0  0  0  0  0
   -9.7220   17.9610  -29.0990 N   0  0  0  0  0  0  0  0  0  0  0  0
  -10.9810   13.8390  -37.2650 C   0  0  0  0  0  0  0  0  0  0  0  0
  -12.4340   13.3870  -37.0950 C   0  0  0  0  0  0  0  0  0  0  0  0
  -13.5670   14.2110  -37.7240 C   0  0  0  0  0  0  0  0  0  0  0  0
  -13.2350   15.4760  -38.5200 C   0  0  0  0  0  0  0  0  0  0  0  0
  -11.7870   15.9270  -38.6960 C   0  0  0  0  0  0  0  0  0  0  0  0
  -10.6550   15.1030  -38.0670 C   0  0  0  0  0  0  0  0  0  0  0  0
   -8.6560   11.1530  -34.1940 N   0  0  0  0  0  0  0  0  0  0  0  0
   -7.5720   10.2480  -33.8100 C   0  0  1  0  0  0  0  0  0  0  0  0
   -7.4790   10.1100  -32.3050 C   0  0  0  0  0  0  0  0  0  0  0  0
   -6.9650   11.3310  -31.6770 C   0  0  1  0  0  0  0  0  0  0  0  0
   -6.7630   11.0640  -30.1170 C   0  0  0  0  0  0  0  0  0  0  0  0
   -5.5900   11.6330  -29.7910 N   0  0  0  0  0  0  0  0  0  0  0  0
   -7.4890   10.4750  -29.3970 O   0  0  0  0  0  0  0  0  0  0  0  0
   -7.9420    8.8790  -34.3950 C   0  0  2  0  0  0  0  0  0  0  0  0
   -8.0380    8.7560  -35.9460 C   0  0  0  0  0  0  0  0  0  0  0  0
   -6.7120    9.1220  -36.6620 C   0  0  0  0  0  0  0  0  0  0  0  0
   -6.6630    9.2000  -38.0780 O   0  0  0  0  0  0  0  0  0  0  0  0
   -5.7350    9.3330  -36.0330 O   0  0  0  0  0  0  0  0  0  0  0  0
   -8.3860   12.4890  -34.7650 C   0  0  0  0  0  0  0  0  0  0  0  0
   -7.2780   12.8740  -34.9380 O   0  0  0  0  0  0  0  0  0  0  0  0
   -7.2150   10.3580  -38.6790 C   0  0  0  0  0  0  0  0  0  0  0  0
   -6.0980   11.1210  -39.4160 C   0  0  0  0  0  0  0  0  0  0  0  0
   -8.4270   16.5590  -33.1920 C   0  0  1  0  0  0  0  0  0  0  0  0
   -8.8290   16.9260  -31.8420 N   0  0  0  0  0  0  0  0  0  0  0  0
   -9.9310   17.8800  -31.6460 C   0  0  0  0  0  0  0  0  0  0  0  0
  -10.4920   18.3500  -32.5750 O   0  0  0  0  0  0  0  0  0  0  0  0
   -6.9070   16.5400  -33.3360 C   0  0  0  0  0  0  0  0  0  0  0  0
   -6.3050   15.3610  -32.5860 C   0  0  0  0  0  0  0  0  0  0  0  0
   -6.3080   17.8490  -32.7930 C   0  0  0  0  0  0  0  0  0  0  0  0
   -4.9760   12.2950  -31.0880 C   0  0  0  0  0  0  0  0  0  0  0  0
   -5.5720   11.6820  -32.1610 C   0  0  0  0  0  0  0  0  0  0  0  0
   -9.4950    8.1700  -33.9330 R   0  0  0  0  0  0  0  0  0  0  0  0
  -14.2410   16.2030  -39.0780 F   0  0  0  0  0  0  0  0  0  0  0  0
  1  3  1  0
  1  6  2  0
  1 34  1  0
  2  4  1  0
  2 11  2  0
  2 36  1  0
  7  3  1  6
  4  5  2  0
  5  8  1  0
  5  9  1  0
  7 10  1  0
  7 30  1  0
  9 11  1  0
 10 12  1  0
 12 13  2  0
 12 17  1  0
 13 14  1  0
 14 15  2  0
 15 16  1  0
 15 44  1  0
 16 17  2  0
 18 19  1  0
 18 30  1  0
 19 20  1  1
 19 25  1  0
 21 20  1  6
 21 22  1  0
 21 42  1  0
 22 23  1  0
 22 24  2  0
 23 41  1  0
 25 26  1  0
 25 43  1  1
 26 27  1  0
 27 28  1  0
 27 29  2  0
 28 32  1  0
 30 31  2  0
 32 33  1  0
 34 35  1  1
 34 38  1  0
 35 36  1  0
 36 37  2  0
 38 39  1  0
 38 40  1  0
 41 42  1  0
V   43 *
A    1
 C01
A    2
 C1 
A    3
 C02
A    4
 C2 
A    5
 C3 
A    6
 O03
A    7
 C04
A    8
 C4 
A    9
 O4 
A   10
 C05
A   11
 N5 
A   12
 C06
A   13
 C07
A   14
 C08
A   15
 C09
A   16
 C10
A   17
 C11
A   18
 N12
A   19
 C13
A   20
 C14
A   21
 C15
A   22
 C16
A   23
 N17
A   24
 O18
A   25
 C19
A   26
 C20
A   27
 C21
A   28
 O22
A   29
 O23
A   30
 C47
A   31
 O48
A   32
 C50
A   33
 C53
A   34
 C57
A   35
 N58
A   36
 C59
A   37
 O60
A   38
 C78
A   39
 C81
A   40
 C82
A   41
 C83
A   42
 C84
A   43
 X  
A   44
 F1 
M  END
>  <XChem_code>  (50) 
AG7§1

>  <Occupancy>  (50) 
[1.0, 1.0, 1.0, 1.0, 1.0, 1.0, 1.0, 1.0, 1.0, 1.0, 1.0, 1.0, 1.0, 1.0, 1.0, 1.0, 1.0, 1.0, 1.0, 1.0, 1.0, 1.0, 1.0, 1.0, 1.0, 1.0, 1.0, 1.0, 1.0, 1.0, 1.0, 1.0, 1.0, 1.0, 1.0, 1.0, 1.0, 1.0, 1.0, 1.0, 1.0, 1.0, 1.0, 1.0]

>  <TempFactor>  (50) 
[27.43, 24.24, 28.92, 30.71, 25.26, 31.62, 25.98, 30.07, 31.48, 26.52, 28.51, 32.53, 36.38, 29.74, 29.67, 29.92, 32.9, 28.44, 30.67, 27.23, 22.26, 24.15, 27.42, 27.01, 29.05, 33.89, 30.31, 32.23, 39.3, 25.88, 27.54, 34.34, 31.54, 28.56, 32.59, 25.05, 28.93, 29.93, 36.51, 31.26, 26.19, 27.65, 26.83, 43.14]

>  <accession>  (50) 
7L8H_A

>  <description>  (50) 
Chain A, 3C Protease [enterovirus D68]

>  <evalue>  (50) 
8.3305400000000003e-132

>  <pdb_code>  (50) 
7L8H

>  <chain>  (50) 
A

>  <ligands>  (50) 
[{'chain_id': 'A', 'author_residue_number': 201, 'author_insertion_code': '', 'chem_comp_id': 'AG7', 'alternate_conformers': 0, 'entity_id': 2, 'struct_asym_id': 'C', 'residue_number': 1, 'chem_comp_name': '4-{2-(4-FLUORO-BENZYL)-6-METHYL-5-[(5-METHYL-ISOXAZOLE-3-CARBONYL)-AMINO]-4-OXO-HEPTANOYLAMINO}-5-(2-OXO-PYRROLIDIN-3-YL)-PENTANOIC ACID ETHYL ESTER', 'weight': 600.678, 'carbohydrate_polymer': False, 'branch_name': ''}, {'chain_id': 'B', 'author_residue_number': 201, 'author_insertion_code': '', 'chem_comp_id': 'AG7', 'alternate_conformers': 0, 'entity_id': 2, 'struct_asym_id': 'D', 'residue_number': 1, 'chem_comp_name': '4-{2-(4-FLUORO-BENZYL)-6-METHYL-5-[(5-METHYL-ISOXAZOLE-3-CARBONYL)-AMINO]-4-OXO-HEPTANOYLAMINO}-5-(2-OXO-PYRROLIDIN-3-YL)-PENTANOIC ACID ETHYL ESTER', 'weight': 600.678, 'carbohydrate_polymer': False, 'branch_name': ''}]

>  <ligand_codes>  (50) 
['AG7', 'AG7']

>  <cofactor_codes>  (50) 
[]

>  <has_cofactor>  (50) 
False

>  <covalent>  (50) 
True

>  <base_name>  (50) 
7L8H

>  <lig_resn>  (50) 
AG7

>  <lig_resi>  (50) 
201

>  <lig_chain>  (50) 
A

>  <lig_segi>  (50) 
C

>  <lig_alt>  (50) 


>  <polymer_chain>  (50) 
A

>  <single_smiles>  (50) 
CCOC(=O)CC[C@H](C[C@@H]1CCNC1=O)NC(=O)[C@@H](CC(=O)[C@@H](NC(=O)c2cc(C)on2)C(C)C)Cc3ccc(F)cc3

$$$$
AG7P1S1
     RDKit          3D

 17 17  0  0  0  0  0  0  0  0999 V2000
   -8.6560   11.1530  -34.1940 N   0  0  0  0  0  0  0  0  0  0  0  0
   -7.5720   10.2480  -33.8100 C   0  0  1  0  0  0  0  0  0  0  0  0
   -7.4790   10.1100  -32.3050 C   0  0  0  0  0  0  0  0  0  0  0  0
   -7.9420    8.8790  -34.3950 C   0  0  2  0  0  0  0  0  0  0  0  0
   -6.9650   11.3310  -31.6770 C   0  0  1  0  0  0  0  0  0  0  0  0
   -8.0380    8.7560  -35.9460 C   0  0  0  0  0  0  0  0  0  0  0  0
   -9.4950    8.1700  -33.9330 R   0  0  0  0  0  0  0  0  0  0  0  0
   -6.7630   11.0640  -30.1170 C   0  0  0  0  0  0  0  0  0  0  0  0
   -5.5720   11.6820  -32.1610 C   0  0  0  0  0  0  0  0  0  0  0  0
   -6.7120    9.1220  -36.6620 C   0  0  0  0  0  0  0  0  0  0  0  0
   -5.5900   11.6330  -29.7910 N   0  0  0  0  0  0  0  0  0  0  0  0
   -7.4890   10.4750  -29.3970 O   0  0  0  0  0  0  0  0  0  0  0  0
   -4.9760   12.2950  -31.0880 C   0  0  0  0  0  0  0  0  0  0  0  0
   -6.6630    9.2000  -38.0780 O   0  0  0  0  0  0  0  0  0  0  0  0
   -5.7350    9.3330  -36.0330 O   0  0  0  0  0  0  0  0  0  0  0  0
   -7.2150   10.3580  -38.6790 C   0  0  0  0  0  0  0  0  0  0  0  0
   -6.0980   11.1210  -39.4160 C   0  0  0  0  0  0  0  0  0  0  0  0
  2  1  1  1
  2  3  1  0
  2  4  1  0
  5  3  1  6
  4  6  1  0
  4  7  1  1
  5  8  1  0
  5  9  1  0
  6 10  1  0
  8 11  1  0
  8 12  2  0
 13  9  1  0
 10 14  1  0
 10 15  2  0
 11 13  1  0
 14 16  1  0
 16 17  1  0
V    7 *
A    2
 C13
A    3
 C14
A    4
 C19
A    5
 C15
A    6
 C20
A    7
 X  
A    8
 C16
A    9
 C84
A   10
 C21
A   11
 N17
A   12
 O18
A   13
 C83
A   14
 O22
A   15
 O23
A   16
 C50
A   17
 C53
M  END
>  <XChem_code>  (51) 
AG7§1

>  <Occupancy>  (51) 
[1.0, 1.0, 1.0, 1.0, 1.0, 1.0, 1.0, 1.0, 1.0, 1.0, 1.0, 1.0, 1.0, 1.0, 1.0, 1.0, 1.0, 1.0, 1.0, 1.0, 1.0, 1.0, 1.0, 1.0, 1.0, 1.0, 1.0, 1.0, 1.0, 1.0, 1.0, 1.0, 1.0, 1.0, 1.0, 1.0, 1.0, 1.0, 1.0, 1.0, 1.0, 1.0, 1.0, 1.0]

>  <TempFactor>  (51) 
[27.43, 24.24, 28.92, 30.71, 25.26, 31.62, 25.98, 30.07, 31.48, 26.52, 28.51, 32.53, 36.38, 29.74, 29.67, 29.92, 32.9, 28.44, 30.67, 27.23, 22.26, 24.15, 27.42, 27.01, 29.05, 33.89, 30.31, 32.23, 39.3, 25.88, 27.54, 34.34, 31.54, 28.56, 32.59, 25.05, 28.93, 29.93, 36.51, 31.26, 26.19, 27.65, 26.83, 43.14]

>  <accession>  (51) 
7L8H_A

>  <description>  (51) 
Chain A, 3C Protease [enterovirus D68]

>  <evalue>  (51) 
8.3305400000000003e-132

>  <pdb_code>  (51) 
7L8H

>  <chain>  (51) 
A

>  <ligands>  (51) 
[{'chain_id': 'A', 'author_residue_number': 201, 'author_insertion_code': '', 'chem_comp_id': 'AG7', 'alternate_conformers': 0, 'entity_id': 2, 'struct_asym_id': 'C', 'residue_number': 1, 'chem_comp_name': '4-{2-(4-FLUORO-BENZYL)-6-METHYL-5-[(5-METHYL-ISOXAZOLE-3-CARBONYL)-AMINO]-4-OXO-HEPTANOYLAMINO}-5-(2-OXO-PYRROLIDIN-3-YL)-PENTANOIC ACID ETHYL ESTER', 'weight': 600.678, 'carbohydrate_polymer': False, 'branch_name': ''}, {'chain_id': 'B', 'author_residue_number': 201, 'author_insertion_code': '', 'chem_comp_id': 'AG7', 'alternate_conformers': 0, 'entity_id': 2, 'struct_asym_id': 'D', 'residue_number': 1, 'chem_comp_name': '4-{2-(4-FLUORO-BENZYL)-6-METHYL-5-[(5-METHYL-ISOXAZOLE-3-CARBONYL)-AMINO]-4-OXO-HEPTANOYLAMINO}-5-(2-OXO-PYRROLIDIN-3-YL)-PENTANOIC ACID ETHYL ESTER', 'weight': 600.678, 'carbohydrate_polymer': False, 'branch_name': ''}]

>  <ligand_codes>  (51) 
['AG7', 'AG7']

>  <cofactor_codes>  (51) 
[]

>  <has_cofactor>  (51) 
False

>  <covalent>  (51) 
True

>  <base_name>  (51) 
7L8H

>  <lig_resn>  (51) 
AG7

>  <lig_resi>  (51) 
201

>  <lig_chain>  (51) 
A

>  <lig_segi>  (51) 
C

>  <lig_alt>  (51) 


>  <polymer_chain>  (51) 
A

>  <single_smiles>  (51) 
CCOC(=O)CC[C@H](C[C@@H]1CCNC1=O)NC(=O)[C@@H](CC(=O)[C@@H](NC(=O)c2cc(C)on2)C(C)C)Cc3ccc(F)cc3

$$$$
AG7P1S2
     RDKit          3D

 27 28  0  0  0  0  0  0  0  0999 V2000
   -8.3860   12.4890  -34.7650 C   0  0  0  0  0  0  0  0  0  0  0  0
   -9.6070   13.3430  -35.1580 C   0  0  1  0  0  0  0  0  0  0  0  0
   -7.2780   12.8740  -34.9380 O   0  0  0  0  0  0  0  0  0  0  0  0
   -9.3780   14.8340  -34.9810 C   0  0  0  0  0  0  0  0  0  0  0  0
   -9.8220   13.0040  -36.6320 C   0  0  0  0  0  0  0  0  0  0  0  0
   -8.9670   15.1660  -33.5270 C   0  0  0  0  0  0  0  0  0  0  0  0
  -10.9810   13.8390  -37.2650 C   0  0  0  0  0  0  0  0  0  0  0  0
   -9.0670   14.3600  -32.6690 O   0  0  0  0  0  0  0  0  0  0  0  0
   -8.4270   16.5590  -33.1920 C   0  0  1  0  0  0  0  0  0  0  0  0
  -12.4340   13.3870  -37.0950 C   0  0  0  0  0  0  0  0  0  0  0  0
  -10.6550   15.1030  -38.0670 C   0  0  0  0  0  0  0  0  0  0  0  0
   -8.8290   16.9260  -31.8420 N   0  0  0  0  0  0  0  0  0  0  0  0
   -6.9070   16.5400  -33.3360 C   0  0  0  0  0  0  0  0  0  0  0  0
  -13.5670   14.2110  -37.7240 C   0  0  0  0  0  0  0  0  0  0  0  0
  -11.7870   15.9270  -38.6960 C   0  0  0  0  0  0  0  0  0  0  0  0
   -9.9310   17.8800  -31.6460 C   0  0  0  0  0  0  0  0  0  0  0  0
   -6.3050   15.3610  -32.5860 C   0  0  0  0  0  0  0  0  0  0  0  0
   -6.3080   17.8490  -32.7930 C   0  0  0  0  0  0  0  0  0  0  0  0
  -13.2350   15.4760  -38.5200 C   0  0  0  0  0  0  0  0  0  0  0  0
  -10.3610   18.2920  -30.2190 C   0  0  0  0  0  0  0  0  0  0  0  0
  -10.4920   18.3500  -32.5750 O   0  0  0  0  0  0  0  0  0  0  0  0
  -14.2410   16.2030  -39.0780 F   0  0  0  0  0  0  0  0  0  0  0  0
  -11.4490   19.0700  -29.8790 C   0  0  0  0  0  0  0  0  0  0  0  0
   -9.7220   17.9610  -29.0990 N   0  0  0  0  0  0  0  0  0  0  0  0
  -11.4560   19.2030  -28.5220 C   0  0  0  0  0  0  0  0  0  0  0  0
  -10.4040   18.5290  -28.0300 O   0  0  0  0  0  0  0  0  0  0  0  0
  -12.4800   19.9840  -27.6840 C   0  0  0  0  0  0  0  0  0  0  0  0
  2  1  1  0
  1  3  2  0
  2  4  1  6
  2  5  1  0
  6  4  1  0
  5  7  1  0
  6  8  2  0
  6  9  1  0
  7 10  2  0
  7 11  1  0
  9 12  1  1
  9 13  1  0
 10 14  1  0
 15 11  2  0
 12 16  1  0
 13 17  1  0
 13 18  1  0
 14 19  2  0
 19 15  1  0
 20 16  1  0
 16 21  2  0
 19 22  1  0
 20 23  1  0
 20 24  2  0
 23 25  2  0
 26 24  1  0
 25 27  1  0
 25 26  1  0
A    2
 C04
A    3
 O48
A    4
 C02
A    5
 C05
A    6
 C01
A    7
 C06
A    8
 O03
A    9
 C57
A   10
 C07
A   11
 C11
A   12
 N58
A   13
 C78
A   14
 C08
A   15
 C10
A   16
 C59
A   17
 C81
A   18
 C82
A   19
 C09
A   20
 C1 
A   21
 O60
A   22
 F1 
A   23
 C2 
A   24
 N5 
A   25
 C3 
A   26
 O4 
A   27
 C4 
M  END
>  <XChem_code>  (52) 
AG7§1

>  <Occupancy>  (52) 
[1.0, 1.0, 1.0, 1.0, 1.0, 1.0, 1.0, 1.0, 1.0, 1.0, 1.0, 1.0, 1.0, 1.0, 1.0, 1.0, 1.0, 1.0, 1.0, 1.0, 1.0, 1.0, 1.0, 1.0, 1.0, 1.0, 1.0, 1.0, 1.0, 1.0, 1.0, 1.0, 1.0, 1.0, 1.0, 1.0, 1.0, 1.0, 1.0, 1.0, 1.0, 1.0, 1.0, 1.0]

>  <TempFactor>  (52) 
[27.43, 24.24, 28.92, 30.71, 25.26, 31.62, 25.98, 30.07, 31.48, 26.52, 28.51, 32.53, 36.38, 29.74, 29.67, 29.92, 32.9, 28.44, 30.67, 27.23, 22.26, 24.15, 27.42, 27.01, 29.05, 33.89, 30.31, 32.23, 39.3, 25.88, 27.54, 34.34, 31.54, 28.56, 32.59, 25.05, 28.93, 29.93, 36.51, 31.26, 26.19, 27.65, 26.83, 43.14]

>  <accession>  (52) 
7L8H_A

>  <description>  (52) 
Chain A, 3C Protease [enterovirus D68]

>  <evalue>  (52) 
8.3305400000000003e-132

>  <pdb_code>  (52) 
7L8H

>  <chain>  (52) 
A

>  <ligands>  (52) 
[{'chain_id': 'A', 'author_residue_number': 201, 'author_insertion_code': '', 'chem_comp_id': 'AG7', 'alternate_conformers': 0, 'entity_id': 2, 'struct_asym_id': 'C', 'residue_number': 1, 'chem_comp_name': '4-{2-(4-FLUORO-BENZYL)-6-METHYL-5-[(5-METHYL-ISOXAZOLE-3-CARBONYL)-AMINO]-4-OXO-HEPTANOYLAMINO}-5-(2-OXO-PYRROLIDIN-3-YL)-PENTANOIC ACID ETHYL ESTER', 'weight': 600.678, 'carbohydrate_polymer': False, 'branch_name': ''}, {'chain_id': 'B', 'author_residue_number': 201, 'author_insertion_code': '', 'chem_comp_id': 'AG7', 'alternate_conformers': 0, 'entity_id': 2, 'struct_asym_id': 'D', 'residue_number': 1, 'chem_comp_name': '4-{2-(4-FLUORO-BENZYL)-6-METHYL-5-[(5-METHYL-ISOXAZOLE-3-CARBONYL)-AMINO]-4-OXO-HEPTANOYLAMINO}-5-(2-OXO-PYRROLIDIN-3-YL)-PENTANOIC ACID ETHYL ESTER', 'weight': 600.678, 'carbohydrate_polymer': False, 'branch_name': ''}]

>  <ligand_codes>  (52) 
['AG7', 'AG7']

>  <cofactor_codes>  (52) 
[]

>  <has_cofactor>  (52) 
False

>  <covalent>  (52) 
True

>  <base_name>  (52) 
7L8H

>  <lig_resn>  (52) 
AG7

>  <lig_resi>  (52) 
201

>  <lig_chain>  (52) 
A

>  <lig_segi>  (52) 
C

>  <lig_alt>  (52) 


>  <polymer_chain>  (52) 
A

>  <single_smiles>  (52) 
CCOC(=O)CC[C@H](C[C@@H]1CCNC1=O)NC(=O)[C@@H](CC(=O)[C@@H](NC(=O)c2cc(C)on2)C(C)C)Cc3ccc(F)cc3

$$$$
AG7P1S3
     RDKit          3D

  8  8  0  0  0  0  0  0  0  0999 V2000
   -9.9310   17.8800  -31.6460 C   0  0  0  0  0  0  0  0  0  0  0  0
  -10.3610   18.2920  -30.2190 C   0  0  0  0  0  0  0  0  0  0  0  0
  -10.4920   18.3500  -32.5750 O   0  0  0  0  0  0  0  0  0  0  0  0
  -11.4490   19.0700  -29.8790 C   0  0  0  0  0  0  0  0  0  0  0  0
   -9.7220   17.9610  -29.0990 N   0  0  0  0  0  0  0  0  0  0  0  0
  -11.4560   19.2030  -28.5220 C   0  0  0  0  0  0  0  0  0  0  0  0
  -10.4040   18.5290  -28.0300 O   0  0  0  0  0  0  0  0  0  0  0  0
  -12.4800   19.9840  -27.6840 C   0  0  0  0  0  0  0  0  0  0  0  0
  2  1  1  0
  1  3  2  0
  2  4  1  0
  2  5  2  0
  4  6  2  0
  7  5  1  0
  6  8  1  0
  6  7  1  0
A    2
 C1 
A    3
 O60
A    4
 C2 
A    5
 N5 
A    6
 C3 
A    7
 O4 
A    8
 C4 
M  END
>  <XChem_code>  (53) 
AG7§1

>  <Occupancy>  (53) 
[1.0, 1.0, 1.0, 1.0, 1.0, 1.0, 1.0, 1.0, 1.0, 1.0, 1.0, 1.0, 1.0, 1.0, 1.0, 1.0, 1.0, 1.0, 1.0, 1.0, 1.0, 1.0, 1.0, 1.0, 1.0, 1.0, 1.0, 1.0, 1.0, 1.0, 1.0, 1.0, 1.0, 1.0, 1.0, 1.0, 1.0, 1.0, 1.0, 1.0, 1.0, 1.0, 1.0, 1.0]

>  <TempFactor>  (53) 
[27.43, 24.24, 28.92, 30.71, 25.26, 31.62, 25.98, 30.07, 31.48, 26.52, 28.51, 32.53, 36.38, 29.74, 29.67, 29.92, 32.9, 28.44, 30.67, 27.23, 22.26, 24.15, 27.42, 27.01, 29.05, 33.89, 30.31, 32.23, 39.3, 25.88, 27.54, 34.34, 31.54, 28.56, 32.59, 25.05, 28.93, 29.93, 36.51, 31.26, 26.19, 27.65, 26.83, 43.14]

>  <accession>  (53) 
7L8H_A

>  <description>  (53) 
Chain A, 3C Protease [enterovirus D68]

>  <evalue>  (53) 
8.3305400000000003e-132

>  <pdb_code>  (53) 
7L8H

>  <chain>  (53) 
A

>  <ligands>  (53) 
[{'chain_id': 'A', 'author_residue_number': 201, 'author_insertion_code': '', 'chem_comp_id': 'AG7', 'alternate_conformers': 0, 'entity_id': 2, 'struct_asym_id': 'C', 'residue_number': 1, 'chem_comp_name': '4-{2-(4-FLUORO-BENZYL)-6-METHYL-5-[(5-METHYL-ISOXAZOLE-3-CARBONYL)-AMINO]-4-OXO-HEPTANOYLAMINO}-5-(2-OXO-PYRROLIDIN-3-YL)-PENTANOIC ACID ETHYL ESTER', 'weight': 600.678, 'carbohydrate_polymer': False, 'branch_name': ''}, {'chain_id': 'B', 'author_residue_number': 201, 'author_insertion_code': '', 'chem_comp_id': 'AG7', 'alternate_conformers': 0, 'entity_id': 2, 'struct_asym_id': 'D', 'residue_number': 1, 'chem_comp_name': '4-{2-(4-FLUORO-BENZYL)-6-METHYL-5-[(5-METHYL-ISOXAZOLE-3-CARBONYL)-AMINO]-4-OXO-HEPTANOYLAMINO}-5-(2-OXO-PYRROLIDIN-3-YL)-PENTANOIC ACID ETHYL ESTER', 'weight': 600.678, 'carbohydrate_polymer': False, 'branch_name': ''}]

>  <ligand_codes>  (53) 
['AG7', 'AG7']

>  <cofactor_codes>  (53) 
[]

>  <has_cofactor>  (53) 
False

>  <covalent>  (53) 
True

>  <base_name>  (53) 
7L8H

>  <lig_resn>  (53) 
AG7

>  <lig_resi>  (53) 
201

>  <lig_chain>  (53) 
A

>  <lig_segi>  (53) 
C

>  <lig_alt>  (53) 


>  <polymer_chain>  (53) 
A

>  <single_smiles>  (53) 
CCOC(=O)CC[C@H](C[C@@H]1CCNC1=O)NC(=O)[C@@H](CC(=O)[C@@H](NC(=O)c2cc(C)on2)C(C)C)Cc3ccc(F)cc3

$$$$
AG7P1S4
     RDKit          3D

 36 37  0  0  0  0  0  0  0  0999 V2000
   -8.8290   16.9260  -31.8420 N   0  0  0  0  0  0  0  0  0  0  0  0
   -8.4270   16.5590  -33.1920 C   0  0  2  0  0  0  0  0  0  0  0  0
   -8.9670   15.1660  -33.5270 C   0  0  0  0  0  0  0  0  0  0  0  0
   -6.9070   16.5400  -33.3360 C   0  0  0  0  0  0  0  0  0  0  0  0
   -9.3780   14.8340  -34.9810 C   0  0  0  0  0  0  0  0  0  0  0  0
   -9.0670   14.3600  -32.6690 O   0  0  0  0  0  0  0  0  0  0  0  0
   -6.3050   15.3610  -32.5860 C   0  0  0  0  0  0  0  0  0  0  0  0
   -6.3080   17.8490  -32.7930 C   0  0  0  0  0  0  0  0  0  0  0  0
   -9.6070   13.3430  -35.1580 C   0  0  1  0  0  0  0  0  0  0  0  0
   -9.8220   13.0040  -36.6320 C   0  0  0  0  0  0  0  0  0  0  0  0
   -8.3860   12.4890  -34.7650 C   0  0  0  0  0  0  0  0  0  0  0  0
  -10.9810   13.8390  -37.2650 C   0  0  0  0  0  0  0  0  0  0  0  0
   -8.6560   11.1530  -34.1940 N   0  0  0  0  0  0  0  0  0  0  0  0
   -7.2780   12.8740  -34.9380 O   0  0  0  0  0  0  0  0  0  0  0  0
  -12.4340   13.3870  -37.0950 C   0  0  0  0  0  0  0  0  0  0  0  0
  -10.6550   15.1030  -38.0670 C   0  0  0  0  0  0  0  0  0  0  0  0
   -7.5720   10.2480  -33.8100 C   0  0  1  0  0  0  0  0  0  0  0  0
  -13.5670   14.2110  -37.7240 C   0  0  0  0  0  0  0  0  0  0  0  0
  -11.7870   15.9270  -38.6960 C   0  0  0  0  0  0  0  0  0  0  0  0
   -7.4790   10.1100  -32.3050 C   0  0  0  0  0  0  0  0  0  0  0  0
   -7.9420    8.8790  -34.3950 C   0  0  2  0  0  0  0  0  0  0  0  0
  -13.2350   15.4760  -38.5200 C   0  0  0  0  0  0  0  0  0  0  0  0
   -6.9650   11.3310  -31.6770 C   0  0  1  0  0  0  0  0  0  0  0  0
   -8.0380    8.7560  -35.9460 C   0  0  0  0  0  0  0  0  0  0  0  0
   -9.4950    8.1700  -33.9330 R   0  0  0  0  0  0  0  0  0  0  0  0
  -14.2410   16.2030  -39.0780 F   0  0  0  0  0  0  0  0  0  0  0  0
   -6.7630   11.0640  -30.1170 C   0  0  0  0  0  0  0  0  0  0  0  0
   -5.5720   11.6820  -32.1610 C   0  0  0  0  0  0  0  0  0  0  0  0
   -6.7120    9.1220  -36.6620 C   0  0  0  0  0  0  0  0  0  0  0  0
   -5.5900   11.6330  -29.7910 N   0  0  0  0  0  0  0  0  0  0  0  0
   -7.4890   10.4750  -29.3970 O   0  0  0  0  0  0  0  0  0  0  0  0
   -4.9760   12.2950  -31.0880 C   0  0  0  0  0  0  0  0  0  0  0  0
   -6.6630    9.2000  -38.0780 O   0  0  0  0  0  0  0  0  0  0  0  0
   -5.7350    9.3330  -36.0330 O   0  0  0  0  0  0  0  0  0  0  0  0
   -7.2150   10.3580  -38.6790 C   0  0  0  0  0  0  0  0  0  0  0  0
   -6.0980   11.1210  -39.4160 C   0  0  0  0  0  0  0  0  0  0  0  0
  2  1  1  1
  3  2  1  0
  2  4  1  0
  3  5  1  0
  3  6  2  0
  4  7  1  0
  4  8  1  0
  9  5  1  6
  9 10  1  0
  9 11  1  0
 10 12  1  0
 13 11  1  0
 11 14  2  0
 12 15  2  0
 12 16  1  0
 13 17  1  0
 15 18  1  0
 19 16  2  0
 17 20  1  1
 17 21  1  0
 18 22  2  0
 22 19  1  0
 23 20  1  6
 21 24  1  0
 21 25  1  1
 22 26  1  0
 23 27  1  0
 23 28  1  0
 24 29  1  0
 27 30  1  0
 27 31  2  0
 32 28  1  0
 29 33  1  0
 29 34  2  0
 30 32  1  0
 33 35  1  0
 35 36  1  0
V   25 *
A    2
 C57
A    3
 C01
A    4
 C78
A    5
 C02
A    6
 O03
A    7
 C81
A    8
 C82
A    9
 C04
A   10
 C05
A   11
 C47
A   12
 C06
A   13
 N12
A   14
 O48
A   15
 C07
A   16
 C11
A   17
 C13
A   18
 C08
A   19
 C10
A   20
 C14
A   21
 C19
A   22
 C09
A   23
 C15
A   24
 C20
A   25
 X  
A   26
 F1 
A   27
 C16
A   28
 C84
A   29
 C21
A   30
 N17
A   31
 O18
A   32
 C83
A   33
 O22
A   34
 O23
A   35
 C50
A   36
 C53
M  END
>  <XChem_code>  (54) 
AG7§1

>  <Occupancy>  (54) 
[1.0, 1.0, 1.0, 1.0, 1.0, 1.0, 1.0, 1.0, 1.0, 1.0, 1.0, 1.0, 1.0, 1.0, 1.0, 1.0, 1.0, 1.0, 1.0, 1.0, 1.0, 1.0, 1.0, 1.0, 1.0, 1.0, 1.0, 1.0, 1.0, 1.0, 1.0, 1.0, 1.0, 1.0, 1.0, 1.0, 1.0, 1.0, 1.0, 1.0, 1.0, 1.0, 1.0, 1.0]

>  <TempFactor>  (54) 
[27.43, 24.24, 28.92, 30.71, 25.26, 31.62, 25.98, 30.07, 31.48, 26.52, 28.51, 32.53, 36.38, 29.74, 29.67, 29.92, 32.9, 28.44, 30.67, 27.23, 22.26, 24.15, 27.42, 27.01, 29.05, 33.89, 30.31, 32.23, 39.3, 25.88, 27.54, 34.34, 31.54, 28.56, 32.59, 25.05, 28.93, 29.93, 36.51, 31.26, 26.19, 27.65, 26.83, 43.14]

>  <accession>  (54) 
7L8H_A

>  <description>  (54) 
Chain A, 3C Protease [enterovirus D68]

>  <evalue>  (54) 
8.3305400000000003e-132

>  <pdb_code>  (54) 
7L8H

>  <chain>  (54) 
A

>  <ligands>  (54) 
[{'chain_id': 'A', 'author_residue_number': 201, 'author_insertion_code': '', 'chem_comp_id': 'AG7', 'alternate_conformers': 0, 'entity_id': 2, 'struct_asym_id': 'C', 'residue_number': 1, 'chem_comp_name': '4-{2-(4-FLUORO-BENZYL)-6-METHYL-5-[(5-METHYL-ISOXAZOLE-3-CARBONYL)-AMINO]-4-OXO-HEPTANOYLAMINO}-5-(2-OXO-PYRROLIDIN-3-YL)-PENTANOIC ACID ETHYL ESTER', 'weight': 600.678, 'carbohydrate_polymer': False, 'branch_name': ''}, {'chain_id': 'B', 'author_residue_number': 201, 'author_insertion_code': '', 'chem_comp_id': 'AG7', 'alternate_conformers': 0, 'entity_id': 2, 'struct_asym_id': 'D', 'residue_number': 1, 'chem_comp_name': '4-{2-(4-FLUORO-BENZYL)-6-METHYL-5-[(5-METHYL-ISOXAZOLE-3-CARBONYL)-AMINO]-4-OXO-HEPTANOYLAMINO}-5-(2-OXO-PYRROLIDIN-3-YL)-PENTANOIC ACID ETHYL ESTER', 'weight': 600.678, 'carbohydrate_polymer': False, 'branch_name': ''}]

>  <ligand_codes>  (54) 
['AG7', 'AG7']

>  <cofactor_codes>  (54) 
[]

>  <has_cofactor>  (54) 
False

>  <covalent>  (54) 
True

>  <base_name>  (54) 
7L8H

>  <lig_resn>  (54) 
AG7

>  <lig_resi>  (54) 
201

>  <lig_chain>  (54) 
A

>  <lig_segi>  (54) 
C

>  <lig_alt>  (54) 


>  <polymer_chain>  (54) 
A

>  <single_smiles>  (54) 
CCOC(=O)CC[C@H](C[C@@H]1CCNC1=O)NC(=O)[C@@H](CC(=O)[C@@H](NC(=O)c2cc(C)on2)C(C)C)Cc3ccc(F)cc3

$$$$
AG7P1S5
     RDKit          3D

 19 19  0  0  0  0  0  0  0  0999 V2000
   -8.8290   16.9260  -31.8420 N   0  0  0  0  0  0  0  0  0  0  0  0
   -8.4270   16.5590  -33.1920 C   0  0  2  0  0  0  0  0  0  0  0  0
   -8.9670   15.1660  -33.5270 C   0  0  0  0  0  0  0  0  0  0  0  0
   -6.9070   16.5400  -33.3360 C   0  0  0  0  0  0  0  0  0  0  0  0
   -9.3780   14.8340  -34.9810 C   0  0  0  0  0  0  0  0  0  0  0  0
   -9.0670   14.3600  -32.6690 O   0  0  0  0  0  0  0  0  0  0  0  0
   -6.3050   15.3610  -32.5860 C   0  0  0  0  0  0  0  0  0  0  0  0
   -6.3080   17.8490  -32.7930 C   0  0  0  0  0  0  0  0  0  0  0  0
   -9.6070   13.3430  -35.1580 C   0  0  2  0  0  0  0  0  0  0  0  0
   -8.3860   12.4890  -34.7650 C   0  0  0  0  0  0  0  0  0  0  0  0
   -9.8220   13.0040  -36.6320 C   0  0  0  0  0  0  0  0  0  0  0  0
   -7.2780   12.8740  -34.9380 O   0  0  0  0  0  0  0  0  0  0  0  0
  -10.9810   13.8390  -37.2650 C   0  0  0  0  0  0  0  0  0  0  0  0
  -12.4340   13.3870  -37.0950 C   0  0  0  0  0  0  0  0  0  0  0  0
  -10.6550   15.1030  -38.0670 C   0  0  0  0  0  0  0  0  0  0  0  0
  -13.5670   14.2110  -37.7240 C   0  0  0  0  0  0  0  0  0  0  0  0
  -11.7870   15.9270  -38.6960 C   0  0  0  0  0  0  0  0  0  0  0  0
  -13.2350   15.4760  -38.5200 C   0  0  0  0  0  0  0  0  0  0  0  0
  -14.2410   16.2030  -39.0780 F   0  0  0  0  0  0  0  0  0  0  0  0
  2  1  1  1
  3  2  1  0
  2  4  1  0
  3  5  1  0
  3  6  2  0
  4  7  1  0
  4  8  1  0
  9  5  1  6
  9 10  1  0
  9 11  1  0
 10 12  2  0
 11 13  1  0
 13 14  2  0
 13 15  1  0
 14 16  1  0
 17 15  2  0
 16 18  2  0
 18 17  1  0
 18 19  1  0
A    2
 C57
A    3
 C01
A    4
 C78
A    5
 C02
A    6
 O03
A    7
 C81
A    8
 C82
A    9
 C04
A   11
 C05
A   12
 O48
A   13
 C06
A   14
 C07
A   15
 C11
A   16
 C08
A   17
 C10
A   18
 C09
A   19
 F1 
M  END
>  <XChem_code>  (55) 
AG7§1

>  <Occupancy>  (55) 
[1.0, 1.0, 1.0, 1.0, 1.0, 1.0, 1.0, 1.0, 1.0, 1.0, 1.0, 1.0, 1.0, 1.0, 1.0, 1.0, 1.0, 1.0, 1.0, 1.0, 1.0, 1.0, 1.0, 1.0, 1.0, 1.0, 1.0, 1.0, 1.0, 1.0, 1.0, 1.0, 1.0, 1.0, 1.0, 1.0, 1.0, 1.0, 1.0, 1.0, 1.0, 1.0, 1.0, 1.0]

>  <TempFactor>  (55) 
[27.43, 24.24, 28.92, 30.71, 25.26, 31.62, 25.98, 30.07, 31.48, 26.52, 28.51, 32.53, 36.38, 29.74, 29.67, 29.92, 32.9, 28.44, 30.67, 27.23, 22.26, 24.15, 27.42, 27.01, 29.05, 33.89, 30.31, 32.23, 39.3, 25.88, 27.54, 34.34, 31.54, 28.56, 32.59, 25.05, 28.93, 29.93, 36.51, 31.26, 26.19, 27.65, 26.83, 43.14]

>  <accession>  (55) 
7L8H_A

>  <description>  (55) 
Chain A, 3C Protease [enterovirus D68]

>  <evalue>  (55) 
8.3305400000000003e-132

>  <pdb_code>  (55) 
7L8H

>  <chain>  (55) 
A

>  <ligands>  (55) 
[{'chain_id': 'A', 'author_residue_number': 201, 'author_insertion_code': '', 'chem_comp_id': 'AG7', 'alternate_conformers': 0, 'entity_id': 2, 'struct_asym_id': 'C', 'residue_number': 1, 'chem_comp_name': '4-{2-(4-FLUORO-BENZYL)-6-METHYL-5-[(5-METHYL-ISOXAZOLE-3-CARBONYL)-AMINO]-4-OXO-HEPTANOYLAMINO}-5-(2-OXO-PYRROLIDIN-3-YL)-PENTANOIC ACID ETHYL ESTER', 'weight': 600.678, 'carbohydrate_polymer': False, 'branch_name': ''}, {'chain_id': 'B', 'author_residue_number': 201, 'author_insertion_code': '', 'chem_comp_id': 'AG7', 'alternate_conformers': 0, 'entity_id': 2, 'struct_asym_id': 'D', 'residue_number': 1, 'chem_comp_name': '4-{2-(4-FLUORO-BENZYL)-6-METHYL-5-[(5-METHYL-ISOXAZOLE-3-CARBONYL)-AMINO]-4-OXO-HEPTANOYLAMINO}-5-(2-OXO-PYRROLIDIN-3-YL)-PENTANOIC ACID ETHYL ESTER', 'weight': 600.678, 'carbohydrate_polymer': False, 'branch_name': ''}]

>  <ligand_codes>  (55) 
['AG7', 'AG7']

>  <cofactor_codes>  (55) 
[]

>  <has_cofactor>  (55) 
False

>  <covalent>  (55) 
True

>  <base_name>  (55) 
7L8H

>  <lig_resn>  (55) 
AG7

>  <lig_resi>  (55) 
201

>  <lig_chain>  (55) 
A

>  <lig_segi>  (55) 
C

>  <lig_alt>  (55) 


>  <polymer_chain>  (55) 
A

>  <single_smiles>  (55) 
CCOC(=O)CC[C@H](C[C@@H]1CCNC1=O)NC(=O)[C@@H](CC(=O)[C@@H](NC(=O)c2cc(C)on2)C(C)C)Cc3ccc(F)cc3

$$$$
AG7P1S6
     RDKit          3D

 16 16  0  0  0  0  0  0  0  0999 V2000
   -7.5720   10.2480  -33.8100 C   0  0  0  0  0  0  0  0  0  0  0  0
   -7.4790   10.1100  -32.3050 C   0  0  0  0  0  0  0  0  0  0  0  0
   -7.9420    8.8790  -34.3950 C   0  0  2  0  0  0  0  0  0  0  0  0
   -6.9650   11.3310  -31.6770 C   0  0  1  0  0  0  0  0  0  0  0  0
   -8.0380    8.7560  -35.9460 C   0  0  0  0  0  0  0  0  0  0  0  0
   -9.4950    8.1700  -33.9330 R   0  0  0  0  0  0  0  0  0  0  0  0
   -6.7630   11.0640  -30.1170 C   0  0  0  0  0  0  0  0  0  0  0  0
   -5.5720   11.6820  -32.1610 C   0  0  0  0  0  0  0  0  0  0  0  0
   -6.7120    9.1220  -36.6620 C   0  0  0  0  0  0  0  0  0  0  0  0
   -5.5900   11.6330  -29.7910 N   0  0  0  0  0  0  0  0  0  0  0  0
   -7.4890   10.4750  -29.3970 O   0  0  0  0  0  0  0  0  0  0  0  0
   -4.9760   12.2950  -31.0880 C   0  0  0  0  0  0  0  0  0  0  0  0
   -6.6630    9.2000  -38.0780 O   0  0  0  0  0  0  0  0  0  0  0  0
   -5.7350    9.3330  -36.0330 O   0  0  0  0  0  0  0  0  0  0  0  0
   -7.2150   10.3580  -38.6790 C   0  0  0  0  0  0  0  0  0  0  0  0
   -6.0980   11.1210  -39.4160 C   0  0  0  0  0  0  0  0  0  0  0  0
  1  2  1  6
  1  3  1  0
  4  2  1  6
  3  5  1  0
  3  6  1  1
  4  7  1  0
  4  8  1  0
  5  9  1  0
  7 10  1  0
  7 11  2  0
 12  8  1  0
  9 13  1  0
  9 14  2  0
 10 12  1  0
 13 15  1  0
 15 16  1  0
V    6 *
A    2
 C14
A    3
 C19
A    4
 C15
A    5
 C20
A    6
 X  
A    7
 C16
A    8
 C84
A    9
 C21
A   10
 N17
A   11
 O18
A   12
 C83
A   13
 O22
A   14
 O23
A   15
 C50
A   16
 C53
M  END
>  <XChem_code>  (56) 
AG7§1

>  <Occupancy>  (56) 
[1.0, 1.0, 1.0, 1.0, 1.0, 1.0, 1.0, 1.0, 1.0, 1.0, 1.0, 1.0, 1.0, 1.0, 1.0, 1.0, 1.0, 1.0, 1.0, 1.0, 1.0, 1.0, 1.0, 1.0, 1.0, 1.0, 1.0, 1.0, 1.0, 1.0, 1.0, 1.0, 1.0, 1.0, 1.0, 1.0, 1.0, 1.0, 1.0, 1.0, 1.0, 1.0, 1.0, 1.0]

>  <TempFactor>  (56) 
[27.43, 24.24, 28.92, 30.71, 25.26, 31.62, 25.98, 30.07, 31.48, 26.52, 28.51, 32.53, 36.38, 29.74, 29.67, 29.92, 32.9, 28.44, 30.67, 27.23, 22.26, 24.15, 27.42, 27.01, 29.05, 33.89, 30.31, 32.23, 39.3, 25.88, 27.54, 34.34, 31.54, 28.56, 32.59, 25.05, 28.93, 29.93, 36.51, 31.26, 26.19, 27.65, 26.83, 43.14]

>  <accession>  (56) 
7L8H_A

>  <description>  (56) 
Chain A, 3C Protease [enterovirus D68]

>  <evalue>  (56) 
8.3305400000000003e-132

>  <pdb_code>  (56) 
7L8H

>  <chain>  (56) 
A

>  <ligands>  (56) 
[{'chain_id': 'A', 'author_residue_number': 201, 'author_insertion_code': '', 'chem_comp_id': 'AG7', 'alternate_conformers': 0, 'entity_id': 2, 'struct_asym_id': 'C', 'residue_number': 1, 'chem_comp_name': '4-{2-(4-FLUORO-BENZYL)-6-METHYL-5-[(5-METHYL-ISOXAZOLE-3-CARBONYL)-AMINO]-4-OXO-HEPTANOYLAMINO}-5-(2-OXO-PYRROLIDIN-3-YL)-PENTANOIC ACID ETHYL ESTER', 'weight': 600.678, 'carbohydrate_polymer': False, 'branch_name': ''}, {'chain_id': 'B', 'author_residue_number': 201, 'author_insertion_code': '', 'chem_comp_id': 'AG7', 'alternate_conformers': 0, 'entity_id': 2, 'struct_asym_id': 'D', 'residue_number': 1, 'chem_comp_name': '4-{2-(4-FLUORO-BENZYL)-6-METHYL-5-[(5-METHYL-ISOXAZOLE-3-CARBONYL)-AMINO]-4-OXO-HEPTANOYLAMINO}-5-(2-OXO-PYRROLIDIN-3-YL)-PENTANOIC ACID ETHYL ESTER', 'weight': 600.678, 'carbohydrate_polymer': False, 'branch_name': ''}]

>  <ligand_codes>  (56) 
['AG7', 'AG7']

>  <cofactor_codes>  (56) 
[]

>  <has_cofactor>  (56) 
False

>  <covalent>  (56) 
True

>  <base_name>  (56) 
7L8H

>  <lig_resn>  (56) 
AG7

>  <lig_resi>  (56) 
201

>  <lig_chain>  (56) 
A

>  <lig_segi>  (56) 
C

>  <lig_alt>  (56) 


>  <polymer_chain>  (56) 
A

>  <single_smiles>  (56) 
CCOC(=O)CC[C@H](C[C@@H]1CCNC1=O)NC(=O)[C@@H](CC(=O)[C@@H](NC(=O)c2cc(C)on2)C(C)C)Cc3ccc(F)cc3

$$$$
AG7P1S7
     RDKit          3D

 28 29  0  0  0  0  0  0  0  0999 V2000
   -8.6560   11.1530  -34.1940 N   0  0  0  0  0  0  0  0  0  0  0  0
   -8.3860   12.4890  -34.7650 C   0  0  0  0  0  0  0  0  0  0  0  0
   -9.6070   13.3430  -35.1580 C   0  0  1  0  0  0  0  0  0  0  0  0
   -7.2780   12.8740  -34.9380 O   0  0  0  0  0  0  0  0  0  0  0  0
   -9.3780   14.8340  -34.9810 C   0  0  0  0  0  0  0  0  0  0  0  0
   -9.8220   13.0040  -36.6320 C   0  0  0  0  0  0  0  0  0  0  0  0
   -8.9670   15.1660  -33.5270 C   0  0  0  0  0  0  0  0  0  0  0  0
  -10.9810   13.8390  -37.2650 C   0  0  0  0  0  0  0  0  0  0  0  0
   -9.0670   14.3600  -32.6690 O   0  0  0  0  0  0  0  0  0  0  0  0
   -8.4270   16.5590  -33.1920 C   0  0  1  0  0  0  0  0  0  0  0  0
  -12.4340   13.3870  -37.0950 C   0  0  0  0  0  0  0  0  0  0  0  0
  -10.6550   15.1030  -38.0670 C   0  0  0  0  0  0  0  0  0  0  0  0
   -8.8290   16.9260  -31.8420 N   0  0  0  0  0  0  0  0  0  0  0  0
   -6.9070   16.5400  -33.3360 C   0  0  0  0  0  0  0  0  0  0  0  0
  -13.5670   14.2110  -37.7240 C   0  0  0  0  0  0  0  0  0  0  0  0
  -11.7870   15.9270  -38.6960 C   0  0  0  0  0  0  0  0  0  0  0  0
   -9.9310   17.8800  -31.6460 C   0  0  0  0  0  0  0  0  0  0  0  0
   -6.3050   15.3610  -32.5860 C   0  0  0  0  0  0  0  0  0  0  0  0
   -6.3080   17.8490  -32.7930 C   0  0  0  0  0  0  0  0  0  0  0  0
  -13.2350   15.4760  -38.5200 C   0  0  0  0  0  0  0  0  0  0  0  0
  -10.3610   18.2920  -30.2190 C   0  0  0  0  0  0  0  0  0  0  0  0
  -10.4920   18.3500  -32.5750 O   0  0  0  0  0  0  0  0  0  0  0  0
  -14.2410   16.2030  -39.0780 F   0  0  0  0  0  0  0  0  0  0  0  0
  -11.4490   19.0700  -29.8790 C   0  0  0  0  0  0  0  0  0  0  0  0
   -9.7220   17.9610  -29.0990 N   0  0  0  0  0  0  0  0  0  0  0  0
  -11.4560   19.2030  -28.5220 C   0  0  0  0  0  0  0  0  0  0  0  0
  -10.4040   18.5290  -28.0300 O   0  0  0  0  0  0  0  0  0  0  0  0
  -12.4800   19.9840  -27.6840 C   0  0  0  0  0  0  0  0  0  0  0  0
  1  2  1  0
  3  2  1  0
  2  4  2  0
  3  5  1  6
  3  6  1  0
  7  5  1  0
  6  8  1  0
  7  9  2  0
  7 10  1  0
  8 11  2  0
  8 12  1  0
 10 13  1  1
 10 14  1  0
 11 15  1  0
 16 12  2  0
 13 17  1  0
 14 18  1  0
 14 19  1  0
 15 20  2  0
 20 16  1  0
 21 17  1  0
 17 22  2  0
 20 23  1  0
 21 24  1  0
 21 25  2  0
 24 26  2  0
 27 25  1  0
 26 28  1  0
 26 27  1  0
A    2
 C47
A    3
 C04
A    4
 O48
A    5
 C02
A    6
 C05
A    7
 C01
A    8
 C06
A    9
 O03
A   10
 C57
A   11
 C07
A   12
 C11
A   13
 N58
A   14
 C78
A   15
 C08
A   16
 C10
A   17
 C59
A   18
 C81
A   19
 C82
A   20
 C09
A   21
 C1 
A   22
 O60
A   23
 F1 
A   24
 C2 
A   25
 N5 
A   26
 C3 
A   27
 O4 
A   28
 C4 
M  END
>  <XChem_code>  (57) 
AG7§1

>  <Occupancy>  (57) 
[1.0, 1.0, 1.0, 1.0, 1.0, 1.0, 1.0, 1.0, 1.0, 1.0, 1.0, 1.0, 1.0, 1.0, 1.0, 1.0, 1.0, 1.0, 1.0, 1.0, 1.0, 1.0, 1.0, 1.0, 1.0, 1.0, 1.0, 1.0, 1.0, 1.0, 1.0, 1.0, 1.0, 1.0, 1.0, 1.0, 1.0, 1.0, 1.0, 1.0, 1.0, 1.0, 1.0, 1.0]

>  <TempFactor>  (57) 
[27.43, 24.24, 28.92, 30.71, 25.26, 31.62, 25.98, 30.07, 31.48, 26.52, 28.51, 32.53, 36.38, 29.74, 29.67, 29.92, 32.9, 28.44, 30.67, 27.23, 22.26, 24.15, 27.42, 27.01, 29.05, 33.89, 30.31, 32.23, 39.3, 25.88, 27.54, 34.34, 31.54, 28.56, 32.59, 25.05, 28.93, 29.93, 36.51, 31.26, 26.19, 27.65, 26.83, 43.14]

>  <accession>  (57) 
7L8H_A

>  <description>  (57) 
Chain A, 3C Protease [enterovirus D68]

>  <evalue>  (57) 
8.3305400000000003e-132

>  <pdb_code>  (57) 
7L8H

>  <chain>  (57) 
A

>  <ligands>  (57) 
[{'chain_id': 'A', 'author_residue_number': 201, 'author_insertion_code': '', 'chem_comp_id': 'AG7', 'alternate_conformers': 0, 'entity_id': 2, 'struct_asym_id': 'C', 'residue_number': 1, 'chem_comp_name': '4-{2-(4-FLUORO-BENZYL)-6-METHYL-5-[(5-METHYL-ISOXAZOLE-3-CARBONYL)-AMINO]-4-OXO-HEPTANOYLAMINO}-5-(2-OXO-PYRROLIDIN-3-YL)-PENTANOIC ACID ETHYL ESTER', 'weight': 600.678, 'carbohydrate_polymer': False, 'branch_name': ''}, {'chain_id': 'B', 'author_residue_number': 201, 'author_insertion_code': '', 'chem_comp_id': 'AG7', 'alternate_conformers': 0, 'entity_id': 2, 'struct_asym_id': 'D', 'residue_number': 1, 'chem_comp_name': '4-{2-(4-FLUORO-BENZYL)-6-METHYL-5-[(5-METHYL-ISOXAZOLE-3-CARBONYL)-AMINO]-4-OXO-HEPTANOYLAMINO}-5-(2-OXO-PYRROLIDIN-3-YL)-PENTANOIC ACID ETHYL ESTER', 'weight': 600.678, 'carbohydrate_polymer': False, 'branch_name': ''}]

>  <ligand_codes>  (57) 
['AG7', 'AG7']

>  <cofactor_codes>  (57) 
[]

>  <has_cofactor>  (57) 
False

>  <covalent>  (57) 
True

>  <base_name>  (57) 
7L8H

>  <lig_resn>  (57) 
AG7

>  <lig_resi>  (57) 
201

>  <lig_chain>  (57) 
A

>  <lig_segi>  (57) 
C

>  <lig_alt>  (57) 


>  <polymer_chain>  (57) 
A

>  <single_smiles>  (57) 
CCOC(=O)CC[C@H](C[C@@H]1CCNC1=O)NC(=O)[C@@H](CC(=O)[C@@H](NC(=O)c2cc(C)on2)C(C)C)Cc3ccc(F)cc3

$$$$
AG7P1S8
     RDKit          3D

  9  9  0  0  0  0  0  0  0  0999 V2000
   -8.8290   16.9260  -31.8420 N   0  0  0  0  0  0  0  0  0  0  0  0
   -9.9310   17.8800  -31.6460 C   0  0  0  0  0  0  0  0  0  0  0  0
  -10.3610   18.2920  -30.2190 C   0  0  0  0  0  0  0  0  0  0  0  0
  -10.4920   18.3500  -32.5750 O   0  0  0  0  0  0  0  0  0  0  0  0
  -11.4490   19.0700  -29.8790 C   0  0  0  0  0  0  0  0  0  0  0  0
   -9.7220   17.9610  -29.0990 N   0  0  0  0  0  0  0  0  0  0  0  0
  -11.4560   19.2030  -28.5220 C   0  0  0  0  0  0  0  0  0  0  0  0
  -10.4040   18.5290  -28.0300 O   0  0  0  0  0  0  0  0  0  0  0  0
  -12.4800   19.9840  -27.6840 C   0  0  0  0  0  0  0  0  0  0  0  0
  1  2  1  0
  3  2  1  0
  2  4  2  0
  3  5  1  0
  3  6  2  0
  5  7  2  0
  8  6  1  0
  7  9  1  0
  7  8  1  0
A    2
 C59
A    3
 C1 
A    4
 O60
A    5
 C2 
A    6
 N5 
A    7
 C3 
A    8
 O4 
A    9
 C4 
M  END
>  <XChem_code>  (58) 
AG7§1

>  <Occupancy>  (58) 
[1.0, 1.0, 1.0, 1.0, 1.0, 1.0, 1.0, 1.0, 1.0, 1.0, 1.0, 1.0, 1.0, 1.0, 1.0, 1.0, 1.0, 1.0, 1.0, 1.0, 1.0, 1.0, 1.0, 1.0, 1.0, 1.0, 1.0, 1.0, 1.0, 1.0, 1.0, 1.0, 1.0, 1.0, 1.0, 1.0, 1.0, 1.0, 1.0, 1.0, 1.0, 1.0, 1.0, 1.0]

>  <TempFactor>  (58) 
[27.43, 24.24, 28.92, 30.71, 25.26, 31.62, 25.98, 30.07, 31.48, 26.52, 28.51, 32.53, 36.38, 29.74, 29.67, 29.92, 32.9, 28.44, 30.67, 27.23, 22.26, 24.15, 27.42, 27.01, 29.05, 33.89, 30.31, 32.23, 39.3, 25.88, 27.54, 34.34, 31.54, 28.56, 32.59, 25.05, 28.93, 29.93, 36.51, 31.26, 26.19, 27.65, 26.83, 43.14]

>  <accession>  (58) 
7L8H_A

>  <description>  (58) 
Chain A, 3C Protease [enterovirus D68]

>  <evalue>  (58) 
8.3305400000000003e-132

>  <pdb_code>  (58) 
7L8H

>  <chain>  (58) 
A

>  <ligands>  (58) 
[{'chain_id': 'A', 'author_residue_number': 201, 'author_insertion_code': '', 'chem_comp_id': 'AG7', 'alternate_conformers': 0, 'entity_id': 2, 'struct_asym_id': 'C', 'residue_number': 1, 'chem_comp_name': '4-{2-(4-FLUORO-BENZYL)-6-METHYL-5-[(5-METHYL-ISOXAZOLE-3-CARBONYL)-AMINO]-4-OXO-HEPTANOYLAMINO}-5-(2-OXO-PYRROLIDIN-3-YL)-PENTANOIC ACID ETHYL ESTER', 'weight': 600.678, 'carbohydrate_polymer': False, 'branch_name': ''}, {'chain_id': 'B', 'author_residue_number': 201, 'author_insertion_code': '', 'chem_comp_id': 'AG7', 'alternate_conformers': 0, 'entity_id': 2, 'struct_asym_id': 'D', 'residue_number': 1, 'chem_comp_name': '4-{2-(4-FLUORO-BENZYL)-6-METHYL-5-[(5-METHYL-ISOXAZOLE-3-CARBONYL)-AMINO]-4-OXO-HEPTANOYLAMINO}-5-(2-OXO-PYRROLIDIN-3-YL)-PENTANOIC ACID ETHYL ESTER', 'weight': 600.678, 'carbohydrate_polymer': False, 'branch_name': ''}]

>  <ligand_codes>  (58) 
['AG7', 'AG7']

>  <cofactor_codes>  (58) 
[]

>  <has_cofactor>  (58) 
False

>  <covalent>  (58) 
True

>  <base_name>  (58) 
7L8H

>  <lig_resn>  (58) 
AG7

>  <lig_resi>  (58) 
201

>  <lig_chain>  (58) 
A

>  <lig_segi>  (58) 
C

>  <lig_alt>  (58) 


>  <polymer_chain>  (58) 
A

>  <single_smiles>  (58) 
CCOC(=O)CC[C@H](C[C@@H]1CCNC1=O)NC(=O)[C@@H](CC(=O)[C@@H](NC(=O)c2cc(C)on2)C(C)C)Cc3ccc(F)cc3

$$$$
AG7P1S9
     RDKit          3D

 35 36  0  0  0  0  0  0  0  0999 V2000
   -8.4270   16.5590  -33.1920 C   0  0  0  0  0  0  0  0  0  0  0  0
   -8.9670   15.1660  -33.5270 C   0  0  0  0  0  0  0  0  0  0  0  0
   -6.9070   16.5400  -33.3360 C   0  0  0  0  0  0  0  0  0  0  0  0
   -9.3780   14.8340  -34.9810 C   0  0  0  0  0  0  0  0  0  0  0  0
   -9.0670   14.3600  -32.6690 O   0  0  0  0  0  0  0  0  0  0  0  0
   -6.3050   15.3610  -32.5860 C   0  0  0  0  0  0  0  0  0  0  0  0
   -6.3080   17.8490  -32.7930 C   0  0  0  0  0  0  0  0  0  0  0  0
   -9.6070   13.3430  -35.1580 C   0  0  1  0  0  0  0  0  0  0  0  0
   -9.8220   13.0040  -36.6320 C   0  0  0  0  0  0  0  0  0  0  0  0
   -8.3860   12.4890  -34.7650 C   0  0  0  0  0  0  0  0  0  0  0  0
  -10.9810   13.8390  -37.2650 C   0  0  0  0  0  0  0  0  0  0  0  0
   -8.6560   11.1530  -34.1940 N   0  0  0  0  0  0  0  0  0  0  0  0
   -7.2780   12.8740  -34.9380 O   0  0  0  0  0  0  0  0  0  0  0  0
  -12.4340   13.3870  -37.0950 C   0  0  0  0  0  0  0  0  0  0  0  0
  -10.6550   15.1030  -38.0670 C   0  0  0  0  0  0  0  0  0  0  0  0
   -7.5720   10.2480  -33.8100 C   0  0  1  0  0  0  0  0  0  0  0  0
  -13.5670   14.2110  -37.7240 C   0  0  0  0  0  0  0  0  0  0  0  0
  -11.7870   15.9270  -38.6960 C   0  0  0  0  0  0  0  0  0  0  0  0
   -7.4790   10.1100  -32.3050 C   0  0  0  0  0  0  0  0  0  0  0  0
   -7.9420    8.8790  -34.3950 C   0  0  2  0  0  0  0  0  0  0  0  0
  -13.2350   15.4760  -38.5200 C   0  0  0  0  0  0  0  0  0  0  0  0
   -6.9650   11.3310  -31.6770 C   0  0  1  0  0  0  0  0  0  0  0  0
   -8.0380    8.7560  -35.9460 C   0  0  0  0  0  0  0  0  0  0  0  0
   -9.4950    8.1700  -33.9330 R   0  0  0  0  0  0  0  0  0  0  0  0
  -14.2410   16.2030  -39.0780 F   0  0  0  0  0  0  0  0  0  0  0  0
   -6.7630   11.0640  -30.1170 C   0  0  0  0  0  0  0  0  0  0  0  0
   -5.5720   11.6820  -32.1610 C   0  0  0  0  0  0  0  0  0  0  0  0
   -6.7120    9.1220  -36.6620 C   0  0  0  0  0  0  0  0  0  0  0  0
   -5.5900   11.6330  -29.7910 N   0  0  0  0  0  0  0  0  0  0  0  0
   -7.4890   10.4750  -29.3970 O   0  0  0  0  0  0  0  0  0  0  0  0
   -4.9760   12.2950  -31.0880 C   0  0  0  0  0  0  0  0  0  0  0  0
   -6.6630    9.2000  -38.0780 O   0  0  0  0  0  0  0  0  0  0  0  0
   -5.7350    9.3330  -36.0330 O   0  0  0  0  0  0  0  0  0  0  0  0
   -7.2150   10.3580  -38.6790 C   0  0  0  0  0  0  0  0  0  0  0  0
   -6.0980   11.1210  -39.4160 C   0  0  0  0  0  0  0  0  0  0  0  0
  2  1  1  0
  1  3  1  6
  2  4  1  0
  2  5  2  0
  3  6  1  0
  3  7  1  0
  8  4  1  6
  8  9  1  0
  8 10  1  0
  9 11  1  0
 12 10  1  0
 10 13  2  0
 11 14  2  0
 11 15  1  0
 12 16  1  0
 14 17  1  0
 18 15  2  0
 16 19  1  1
 16 20  1  0
 17 21  2  0
 21 18  1  0
 22 19  1  6
 20 23  1  0
 20 24  1  1
 21 25  1  0
 22 26  1  0
 22 27  1  0
 23 28  1  0
 26 29  1  0
 26 30  2  0
 31 27  1  0
 28 32  1  0
 28 33  2  0
 29 31  1  0
 32 34  1  0
 34 35  1  0
V   24 *
A    2
 C01
A    3
 C78
A    4
 C02
A    5
 O03
A    6
 C81
A    7
 C82
A    8
 C04
A    9
 C05
A   10
 C47
A   11
 C06
A   12
 N12
A   13
 O48
A   14
 C07
A   15
 C11
A   16
 C13
A   17
 C08
A   18
 C10
A   19
 C14
A   20
 C19
A   21
 C09
A   22
 C15
A   23
 C20
A   24
 X  
A   25
 F1 
A   26
 C16
A   27
 C84
A   28
 C21
A   29
 N17
A   30
 O18
A   31
 C83
A   32
 O22
A   33
 O23
A   34
 C50
A   35
 C53
M  END
>  <XChem_code>  (59) 
AG7§1

>  <Occupancy>  (59) 
[1.0, 1.0, 1.0, 1.0, 1.0, 1.0, 1.0, 1.0, 1.0, 1.0, 1.0, 1.0, 1.0, 1.0, 1.0, 1.0, 1.0, 1.0, 1.0, 1.0, 1.0, 1.0, 1.0, 1.0, 1.0, 1.0, 1.0, 1.0, 1.0, 1.0, 1.0, 1.0, 1.0, 1.0, 1.0, 1.0, 1.0, 1.0, 1.0, 1.0, 1.0, 1.0, 1.0, 1.0]

>  <TempFactor>  (59) 
[27.43, 24.24, 28.92, 30.71, 25.26, 31.62, 25.98, 30.07, 31.48, 26.52, 28.51, 32.53, 36.38, 29.74, 29.67, 29.92, 32.9, 28.44, 30.67, 27.23, 22.26, 24.15, 27.42, 27.01, 29.05, 33.89, 30.31, 32.23, 39.3, 25.88, 27.54, 34.34, 31.54, 28.56, 32.59, 25.05, 28.93, 29.93, 36.51, 31.26, 26.19, 27.65, 26.83, 43.14]

>  <accession>  (59) 
7L8H_A

>  <description>  (59) 
Chain A, 3C Protease [enterovirus D68]

>  <evalue>  (59) 
8.3305400000000003e-132

>  <pdb_code>  (59) 
7L8H

>  <chain>  (59) 
A

>  <ligands>  (59) 
[{'chain_id': 'A', 'author_residue_number': 201, 'author_insertion_code': '', 'chem_comp_id': 'AG7', 'alternate_conformers': 0, 'entity_id': 2, 'struct_asym_id': 'C', 'residue_number': 1, 'chem_comp_name': '4-{2-(4-FLUORO-BENZYL)-6-METHYL-5-[(5-METHYL-ISOXAZOLE-3-CARBONYL)-AMINO]-4-OXO-HEPTANOYLAMINO}-5-(2-OXO-PYRROLIDIN-3-YL)-PENTANOIC ACID ETHYL ESTER', 'weight': 600.678, 'carbohydrate_polymer': False, 'branch_name': ''}, {'chain_id': 'B', 'author_residue_number': 201, 'author_insertion_code': '', 'chem_comp_id': 'AG7', 'alternate_conformers': 0, 'entity_id': 2, 'struct_asym_id': 'D', 'residue_number': 1, 'chem_comp_name': '4-{2-(4-FLUORO-BENZYL)-6-METHYL-5-[(5-METHYL-ISOXAZOLE-3-CARBONYL)-AMINO]-4-OXO-HEPTANOYLAMINO}-5-(2-OXO-PYRROLIDIN-3-YL)-PENTANOIC ACID ETHYL ESTER', 'weight': 600.678, 'carbohydrate_polymer': False, 'branch_name': ''}]

>  <ligand_codes>  (59) 
['AG7', 'AG7']

>  <cofactor_codes>  (59) 
[]

>  <has_cofactor>  (59) 
False

>  <covalent>  (59) 
True

>  <base_name>  (59) 
7L8H

>  <lig_resn>  (59) 
AG7

>  <lig_resi>  (59) 
201

>  <lig_chain>  (59) 
A

>  <lig_segi>  (59) 
C

>  <lig_alt>  (59) 


>  <polymer_chain>  (59) 
A

>  <single_smiles>  (59) 
CCOC(=O)CC[C@H](C[C@@H]1CCNC1=O)NC(=O)[C@@H](CC(=O)[C@@H](NC(=O)c2cc(C)on2)C(C)C)Cc3ccc(F)cc3

$$$$
AG7P1S10
     RDKit          3D

 18 18  0  0  0  0  0  0  0  0999 V2000
   -8.4270   16.5590  -33.1920 C   0  0  0  0  0  0  0  0  0  0  0  0
   -8.9670   15.1660  -33.5270 C   0  0  0  0  0  0  0  0  0  0  0  0
   -6.9070   16.5400  -33.3360 C   0  0  0  0  0  0  0  0  0  0  0  0
   -9.3780   14.8340  -34.9810 C   0  0  0  0  0  0  0  0  0  0  0  0
   -9.0670   14.3600  -32.6690 O   0  0  0  0  0  0  0  0  0  0  0  0
   -6.3050   15.3610  -32.5860 C   0  0  0  0  0  0  0  0  0  0  0  0
   -6.3080   17.8490  -32.7930 C   0  0  0  0  0  0  0  0  0  0  0  0
   -9.6070   13.3430  -35.1580 C   0  0  2  0  0  0  0  0  0  0  0  0
   -8.3860   12.4890  -34.7650 C   0  0  0  0  0  0  0  0  0  0  0  0
   -9.8220   13.0040  -36.6320 C   0  0  0  0  0  0  0  0  0  0  0  0
   -7.2780   12.8740  -34.9380 O   0  0  0  0  0  0  0  0  0  0  0  0
  -10.9810   13.8390  -37.2650 C   0  0  0  0  0  0  0  0  0  0  0  0
  -12.4340   13.3870  -37.0950 C   0  0  0  0  0  0  0  0  0  0  0  0
  -10.6550   15.1030  -38.0670 C   0  0  0  0  0  0  0  0  0  0  0  0
  -13.5670   14.2110  -37.7240 C   0  0  0  0  0  0  0  0  0  0  0  0
  -11.7870   15.9270  -38.6960 C   0  0  0  0  0  0  0  0  0  0  0  0
  -13.2350   15.4760  -38.5200 C   0  0  0  0  0  0  0  0  0  0  0  0
  -14.2410   16.2030  -39.0780 F   0  0  0  0  0  0  0  0  0  0  0  0
  2  1  1  0
  1  3  1  6
  2  4  1  0
  2  5  2  0
  3  6  1  0
  3  7  1  0
  8  4  1  6
  8  9  1  0
  8 10  1  0
  9 11  2  0
 10 12  1  0
 12 13  2  0
 12 14  1  0
 13 15  1  0
 16 14  2  0
 15 17  2  0
 17 16  1  0
 17 18  1  0
A    2
 C01
A    3
 C78
A    4
 C02
A    5
 O03
A    6
 C81
A    7
 C82
A    8
 C04
A   10
 C05
A   11
 O48
A   12
 C06
A   13
 C07
A   14
 C11
A   15
 C08
A   16
 C10
A   17
 C09
A   18
 F1 
M  END
>  <XChem_code>  (60) 
AG7§1

>  <Occupancy>  (60) 
[1.0, 1.0, 1.0, 1.0, 1.0, 1.0, 1.0, 1.0, 1.0, 1.0, 1.0, 1.0, 1.0, 1.0, 1.0, 1.0, 1.0, 1.0, 1.0, 1.0, 1.0, 1.0, 1.0, 1.0, 1.0, 1.0, 1.0, 1.0, 1.0, 1.0, 1.0, 1.0, 1.0, 1.0, 1.0, 1.0, 1.0, 1.0, 1.0, 1.0, 1.0, 1.0, 1.0, 1.0]

>  <TempFactor>  (60) 
[27.43, 24.24, 28.92, 30.71, 25.26, 31.62, 25.98, 30.07, 31.48, 26.52, 28.51, 32.53, 36.38, 29.74, 29.67, 29.92, 32.9, 28.44, 30.67, 27.23, 22.26, 24.15, 27.42, 27.01, 29.05, 33.89, 30.31, 32.23, 39.3, 25.88, 27.54, 34.34, 31.54, 28.56, 32.59, 25.05, 28.93, 29.93, 36.51, 31.26, 26.19, 27.65, 26.83, 43.14]

>  <accession>  (60) 
7L8H_A

>  <description>  (60) 
Chain A, 3C Protease [enterovirus D68]

>  <evalue>  (60) 
8.3305400000000003e-132

>  <pdb_code>  (60) 
7L8H

>  <chain>  (60) 
A

>  <ligands>  (60) 
[{'chain_id': 'A', 'author_residue_number': 201, 'author_insertion_code': '', 'chem_comp_id': 'AG7', 'alternate_conformers': 0, 'entity_id': 2, 'struct_asym_id': 'C', 'residue_number': 1, 'chem_comp_name': '4-{2-(4-FLUORO-BENZYL)-6-METHYL-5-[(5-METHYL-ISOXAZOLE-3-CARBONYL)-AMINO]-4-OXO-HEPTANOYLAMINO}-5-(2-OXO-PYRROLIDIN-3-YL)-PENTANOIC ACID ETHYL ESTER', 'weight': 600.678, 'carbohydrate_polymer': False, 'branch_name': ''}, {'chain_id': 'B', 'author_residue_number': 201, 'author_insertion_code': '', 'chem_comp_id': 'AG7', 'alternate_conformers': 0, 'entity_id': 2, 'struct_asym_id': 'D', 'residue_number': 1, 'chem_comp_name': '4-{2-(4-FLUORO-BENZYL)-6-METHYL-5-[(5-METHYL-ISOXAZOLE-3-CARBONYL)-AMINO]-4-OXO-HEPTANOYLAMINO}-5-(2-OXO-PYRROLIDIN-3-YL)-PENTANOIC ACID ETHYL ESTER', 'weight': 600.678, 'carbohydrate_polymer': False, 'branch_name': ''}]

>  <ligand_codes>  (60) 
['AG7', 'AG7']

>  <cofactor_codes>  (60) 
[]

>  <has_cofactor>  (60) 
False

>  <covalent>  (60) 
True

>  <base_name>  (60) 
7L8H

>  <lig_resn>  (60) 
AG7

>  <lig_resi>  (60) 
201

>  <lig_chain>  (60) 
A

>  <lig_segi>  (60) 
C

>  <lig_alt>  (60) 


>  <polymer_chain>  (60) 
A

>  <single_smiles>  (60) 
CCOC(=O)CC[C@H](C[C@@H]1CCNC1=O)NC(=O)[C@@H](CC(=O)[C@@H](NC(=O)c2cc(C)on2)C(C)C)Cc3ccc(F)cc3

$$$$
AG7P1S11
     RDKit          3D

 20 20  0  0  0  0  0  0  0  0999 V2000
   -8.6560   11.1530  -34.1940 N   0  0  0  0  0  0  0  0  0  0  0  0
   -8.3860   12.4890  -34.7650 C   0  0  0  0  0  0  0  0  0  0  0  0
   -9.6070   13.3430  -35.1580 C   0  0  1  0  0  0  0  0  0  0  0  0
   -7.2780   12.8740  -34.9380 O   0  0  0  0  0  0  0  0  0  0  0  0
   -9.3780   14.8340  -34.9810 C   0  0  0  0  0  0  0  0  0  0  0  0
   -9.8220   13.0040  -36.6320 C   0  0  0  0  0  0  0  0  0  0  0  0
   -8.9670   15.1660  -33.5270 C   0  0  0  0  0  0  0  0  0  0  0  0
  -10.9810   13.8390  -37.2650 C   0  0  0  0  0  0  0  0  0  0  0  0
   -8.4270   16.5590  -33.1920 C   0  0  1  0  0  0  0  0  0  0  0  0
   -9.0670   14.3600  -32.6690 O   0  0  0  0  0  0  0  0  0  0  0  0
  -12.4340   13.3870  -37.0950 C   0  0  0  0  0  0  0  0  0  0  0  0
  -10.6550   15.1030  -38.0670 C   0  0  0  0  0  0  0  0  0  0  0  0
   -8.8290   16.9260  -31.8420 N   0  0  0  0  0  0  0  0  0  0  0  0
   -6.9070   16.5400  -33.3360 C   0  0  0  0  0  0  0  0  0  0  0  0
  -13.5670   14.2110  -37.7240 C   0  0  0  0  0  0  0  0  0  0  0  0
  -11.7870   15.9270  -38.6960 C   0  0  0  0  0  0  0  0  0  0  0  0
   -6.3050   15.3610  -32.5860 C   0  0  0  0  0  0  0  0  0  0  0  0
   -6.3080   17.8490  -32.7930 C   0  0  0  0  0  0  0  0  0  0  0  0
  -13.2350   15.4760  -38.5200 C   0  0  0  0  0  0  0  0  0  0  0  0
  -14.2410   16.2030  -39.0780 F   0  0  0  0  0  0  0  0  0  0  0  0
  1  2  1  0
  3  2  1  0
  2  4  2  0
  3  5  1  6
  3  6  1  0
  7  5  1  0
  6  8  1  0
  7  9  1  0
  7 10  2  0
  8 11  2  0
  8 12  1  0
  9 13  1  1
  9 14  1  0
 11 15  1  0
 16 12  2  0
 14 17  1  0
 14 18  1  0
 15 19  2  0
 19 16  1  0
 19 20  1  0
A    2
 C47
A    3
 C04
A    4
 O48
A    5
 C02
A    6
 C05
A    7
 C01
A    8
 C06
A    9
 C57
A   10
 O03
A   11
 C07
A   12
 C11
A   14
 C78
A   15
 C08
A   16
 C10
A   17
 C81
A   18
 C82
A   19
 C09
A   20
 F1 
M  END
>  <XChem_code>  (61) 
AG7§1

>  <Occupancy>  (61) 
[1.0, 1.0, 1.0, 1.0, 1.0, 1.0, 1.0, 1.0, 1.0, 1.0, 1.0, 1.0, 1.0, 1.0, 1.0, 1.0, 1.0, 1.0, 1.0, 1.0, 1.0, 1.0, 1.0, 1.0, 1.0, 1.0, 1.0, 1.0, 1.0, 1.0, 1.0, 1.0, 1.0, 1.0, 1.0, 1.0, 1.0, 1.0, 1.0, 1.0, 1.0, 1.0, 1.0, 1.0]

>  <TempFactor>  (61) 
[27.43, 24.24, 28.92, 30.71, 25.26, 31.62, 25.98, 30.07, 31.48, 26.52, 28.51, 32.53, 36.38, 29.74, 29.67, 29.92, 32.9, 28.44, 30.67, 27.23, 22.26, 24.15, 27.42, 27.01, 29.05, 33.89, 30.31, 32.23, 39.3, 25.88, 27.54, 34.34, 31.54, 28.56, 32.59, 25.05, 28.93, 29.93, 36.51, 31.26, 26.19, 27.65, 26.83, 43.14]

>  <accession>  (61) 
7L8H_A

>  <description>  (61) 
Chain A, 3C Protease [enterovirus D68]

>  <evalue>  (61) 
8.3305400000000003e-132

>  <pdb_code>  (61) 
7L8H

>  <chain>  (61) 
A

>  <ligands>  (61) 
[{'chain_id': 'A', 'author_residue_number': 201, 'author_insertion_code': '', 'chem_comp_id': 'AG7', 'alternate_conformers': 0, 'entity_id': 2, 'struct_asym_id': 'C', 'residue_number': 1, 'chem_comp_name': '4-{2-(4-FLUORO-BENZYL)-6-METHYL-5-[(5-METHYL-ISOXAZOLE-3-CARBONYL)-AMINO]-4-OXO-HEPTANOYLAMINO}-5-(2-OXO-PYRROLIDIN-3-YL)-PENTANOIC ACID ETHYL ESTER', 'weight': 600.678, 'carbohydrate_polymer': False, 'branch_name': ''}, {'chain_id': 'B', 'author_residue_number': 201, 'author_insertion_code': '', 'chem_comp_id': 'AG7', 'alternate_conformers': 0, 'entity_id': 2, 'struct_asym_id': 'D', 'residue_number': 1, 'chem_comp_name': '4-{2-(4-FLUORO-BENZYL)-6-METHYL-5-[(5-METHYL-ISOXAZOLE-3-CARBONYL)-AMINO]-4-OXO-HEPTANOYLAMINO}-5-(2-OXO-PYRROLIDIN-3-YL)-PENTANOIC ACID ETHYL ESTER', 'weight': 600.678, 'carbohydrate_polymer': False, 'branch_name': ''}]

>  <ligand_codes>  (61) 
['AG7', 'AG7']

>  <cofactor_codes>  (61) 
[]

>  <has_cofactor>  (61) 
False

>  <covalent>  (61) 
True

>  <base_name>  (61) 
7L8H

>  <lig_resn>  (61) 
AG7

>  <lig_resi>  (61) 
201

>  <lig_chain>  (61) 
A

>  <lig_segi>  (61) 
C

>  <lig_alt>  (61) 


>  <polymer_chain>  (61) 
A

>  <single_smiles>  (61) 
CCOC(=O)CC[C@H](C[C@@H]1CCNC1=O)NC(=O)[C@@H](CC(=O)[C@@H](NC(=O)c2cc(C)on2)C(C)C)Cc3ccc(F)cc3

$$$$
AG7P1S12
     RDKit          3D

 19 19  0  0  0  0  0  0  0  0999 V2000
   -8.4270   16.5590  -33.1920 C   0  0  0  0  0  0  0  0  0  0  0  0
   -8.9670   15.1660  -33.5270 C   0  0  0  0  0  0  0  0  0  0  0  0
   -6.9070   16.5400  -33.3360 C   0  0  0  0  0  0  0  0  0  0  0  0
   -9.3780   14.8340  -34.9810 C   0  0  0  0  0  0  0  0  0  0  0  0
   -9.0670   14.3600  -32.6690 O   0  0  0  0  0  0  0  0  0  0  0  0
   -6.3050   15.3610  -32.5860 C   0  0  0  0  0  0  0  0  0  0  0  0
   -6.3080   17.8490  -32.7930 C   0  0  0  0  0  0  0  0  0  0  0  0
   -9.6070   13.3430  -35.1580 C   0  0  2  0  0  0  0  0  0  0  0  0
   -8.3860   12.4890  -34.7650 C   0  0  0  0  0  0  0  0  0  0  0  0
   -9.8220   13.0040  -36.6320 C   0  0  0  0  0  0  0  0  0  0  0  0
   -8.6560   11.1530  -34.1940 N   0  0  0  0  0  0  0  0  0  0  0  0
   -7.2780   12.8740  -34.9380 O   0  0  0  0  0  0  0  0  0  0  0  0
  -10.9810   13.8390  -37.2650 C   0  0  0  0  0  0  0  0  0  0  0  0
  -12.4340   13.3870  -37.0950 C   0  0  0  0  0  0  0  0  0  0  0  0
  -10.6550   15.1030  -38.0670 C   0  0  0  0  0  0  0  0  0  0  0  0
  -13.5670   14.2110  -37.7240 C   0  0  0  0  0  0  0  0  0  0  0  0
  -11.7870   15.9270  -38.6960 C   0  0  0  0  0  0  0  0  0  0  0  0
  -13.2350   15.4760  -38.5200 C   0  0  0  0  0  0  0  0  0  0  0  0
  -14.2410   16.2030  -39.0780 F   0  0  0  0  0  0  0  0  0  0  0  0
  2  1  1  0
  1  3  1  6
  2  4  1  0
  2  5  2  0
  3  6  1  0
  3  7  1  0
  8  4  1  6
  8  9  1  0
  8 10  1  0
 11  9  1  0
  9 12  2  0
 10 13  1  0
 13 14  2  0
 13 15  1  0
 14 16  1  0
 17 15  2  0
 16 18  2  0
 18 17  1  0
 18 19  1  0
A    2
 C01
A    3
 C78
A    4
 C02
A    5
 O03
A    6
 C81
A    7
 C82
A    8
 C04
A    9
 C47
A   10
 C05
A   12
 O48
A   13
 C06
A   14
 C07
A   15
 C11
A   16
 C08
A   17
 C10
A   18
 C09
A   19
 F1 
M  END
>  <XChem_code>  (62) 
AG7§1

>  <Occupancy>  (62) 
[1.0, 1.0, 1.0, 1.0, 1.0, 1.0, 1.0, 1.0, 1.0, 1.0, 1.0, 1.0, 1.0, 1.0, 1.0, 1.0, 1.0, 1.0, 1.0, 1.0, 1.0, 1.0, 1.0, 1.0, 1.0, 1.0, 1.0, 1.0, 1.0, 1.0, 1.0, 1.0, 1.0, 1.0, 1.0, 1.0, 1.0, 1.0, 1.0, 1.0, 1.0, 1.0, 1.0, 1.0]

>  <TempFactor>  (62) 
[27.43, 24.24, 28.92, 30.71, 25.26, 31.62, 25.98, 30.07, 31.48, 26.52, 28.51, 32.53, 36.38, 29.74, 29.67, 29.92, 32.9, 28.44, 30.67, 27.23, 22.26, 24.15, 27.42, 27.01, 29.05, 33.89, 30.31, 32.23, 39.3, 25.88, 27.54, 34.34, 31.54, 28.56, 32.59, 25.05, 28.93, 29.93, 36.51, 31.26, 26.19, 27.65, 26.83, 43.14]

>  <accession>  (62) 
7L8H_A

>  <description>  (62) 
Chain A, 3C Protease [enterovirus D68]

>  <evalue>  (62) 
8.3305400000000003e-132

>  <pdb_code>  (62) 
7L8H

>  <chain>  (62) 
A

>  <ligands>  (62) 
[{'chain_id': 'A', 'author_residue_number': 201, 'author_insertion_code': '', 'chem_comp_id': 'AG7', 'alternate_conformers': 0, 'entity_id': 2, 'struct_asym_id': 'C', 'residue_number': 1, 'chem_comp_name': '4-{2-(4-FLUORO-BENZYL)-6-METHYL-5-[(5-METHYL-ISOXAZOLE-3-CARBONYL)-AMINO]-4-OXO-HEPTANOYLAMINO}-5-(2-OXO-PYRROLIDIN-3-YL)-PENTANOIC ACID ETHYL ESTER', 'weight': 600.678, 'carbohydrate_polymer': False, 'branch_name': ''}, {'chain_id': 'B', 'author_residue_number': 201, 'author_insertion_code': '', 'chem_comp_id': 'AG7', 'alternate_conformers': 0, 'entity_id': 2, 'struct_asym_id': 'D', 'residue_number': 1, 'chem_comp_name': '4-{2-(4-FLUORO-BENZYL)-6-METHYL-5-[(5-METHYL-ISOXAZOLE-3-CARBONYL)-AMINO]-4-OXO-HEPTANOYLAMINO}-5-(2-OXO-PYRROLIDIN-3-YL)-PENTANOIC ACID ETHYL ESTER', 'weight': 600.678, 'carbohydrate_polymer': False, 'branch_name': ''}]

>  <ligand_codes>  (62) 
['AG7', 'AG7']

>  <cofactor_codes>  (62) 
[]

>  <has_cofactor>  (62) 
False

>  <covalent>  (62) 
True

>  <base_name>  (62) 
7L8H

>  <lig_resn>  (62) 
AG7

>  <lig_resi>  (62) 
201

>  <lig_chain>  (62) 
A

>  <lig_segi>  (62) 
C

>  <lig_alt>  (62) 


>  <polymer_chain>  (62) 
A

>  <single_smiles>  (62) 
CCOC(=O)CC[C@H](C[C@@H]1CCNC1=O)NC(=O)[C@@H](CC(=O)[C@@H](NC(=O)c2cc(C)on2)C(C)C)Cc3ccc(F)cc3

$$$$
AG7P1S13
     RDKit          3D

  6  6  0  0  0  0  0  0  0  0999 V2000
  -10.3610   18.2920  -30.2190 C   0  0  0  0  0  0  0  0  0  0  0  0
  -11.4490   19.0700  -29.8790 C   0  0  0  0  0  0  0  0  0  0  0  0
   -9.7220   17.9610  -29.0990 N   0  0  0  0  0  0  0  0  0  0  0  0
  -11.4560   19.2030  -28.5220 C   0  0  0  0  0  0  0  0  0  0  0  0
  -10.4040   18.5290  -28.0300 O   0  0  0  0  0  0  0  0  0  0  0  0
  -12.4800   19.9840  -27.6840 C   0  0  0  0  0  0  0  0  0  0  0  0
  1  2  1  0
  1  3  2  0
  2  4  2  0
  5  3  1  0
  4  6  1  0
  4  5  1  0
A    2
 C2 
A    3
 N5 
A    4
 C3 
A    5
 O4 
A    6
 C4 
M  END
>  <XChem_code>  (63) 
AG7§1

>  <Occupancy>  (63) 
[1.0, 1.0, 1.0, 1.0, 1.0, 1.0, 1.0, 1.0, 1.0, 1.0, 1.0, 1.0, 1.0, 1.0, 1.0, 1.0, 1.0, 1.0, 1.0, 1.0, 1.0, 1.0, 1.0, 1.0, 1.0, 1.0, 1.0, 1.0, 1.0, 1.0, 1.0, 1.0, 1.0, 1.0, 1.0, 1.0, 1.0, 1.0, 1.0, 1.0, 1.0, 1.0, 1.0, 1.0]

>  <TempFactor>  (63) 
[27.43, 24.24, 28.92, 30.71, 25.26, 31.62, 25.98, 30.07, 31.48, 26.52, 28.51, 32.53, 36.38, 29.74, 29.67, 29.92, 32.9, 28.44, 30.67, 27.23, 22.26, 24.15, 27.42, 27.01, 29.05, 33.89, 30.31, 32.23, 39.3, 25.88, 27.54, 34.34, 31.54, 28.56, 32.59, 25.05, 28.93, 29.93, 36.51, 31.26, 26.19, 27.65, 26.83, 43.14]

>  <accession>  (63) 
7L8H_A

>  <description>  (63) 
Chain A, 3C Protease [enterovirus D68]

>  <evalue>  (63) 
8.3305400000000003e-132

>  <pdb_code>  (63) 
7L8H

>  <chain>  (63) 
A

>  <ligands>  (63) 
[{'chain_id': 'A', 'author_residue_number': 201, 'author_insertion_code': '', 'chem_comp_id': 'AG7', 'alternate_conformers': 0, 'entity_id': 2, 'struct_asym_id': 'C', 'residue_number': 1, 'chem_comp_name': '4-{2-(4-FLUORO-BENZYL)-6-METHYL-5-[(5-METHYL-ISOXAZOLE-3-CARBONYL)-AMINO]-4-OXO-HEPTANOYLAMINO}-5-(2-OXO-PYRROLIDIN-3-YL)-PENTANOIC ACID ETHYL ESTER', 'weight': 600.678, 'carbohydrate_polymer': False, 'branch_name': ''}, {'chain_id': 'B', 'author_residue_number': 201, 'author_insertion_code': '', 'chem_comp_id': 'AG7', 'alternate_conformers': 0, 'entity_id': 2, 'struct_asym_id': 'D', 'residue_number': 1, 'chem_comp_name': '4-{2-(4-FLUORO-BENZYL)-6-METHYL-5-[(5-METHYL-ISOXAZOLE-3-CARBONYL)-AMINO]-4-OXO-HEPTANOYLAMINO}-5-(2-OXO-PYRROLIDIN-3-YL)-PENTANOIC ACID ETHYL ESTER', 'weight': 600.678, 'carbohydrate_polymer': False, 'branch_name': ''}]

>  <ligand_codes>  (63) 
['AG7', 'AG7']

>  <cofactor_codes>  (63) 
[]

>  <has_cofactor>  (63) 
False

>  <covalent>  (63) 
True

>  <base_name>  (63) 
7L8H

>  <lig_resn>  (63) 
AG7

>  <lig_resi>  (63) 
201

>  <lig_chain>  (63) 
A

>  <lig_segi>  (63) 
C

>  <lig_alt>  (63) 


>  <polymer_chain>  (63) 
A

>  <single_smiles>  (63) 
CCOC(=O)CC[C@H](C[C@@H]1CCNC1=O)NC(=O)[C@@H](CC(=O)[C@@H](NC(=O)c2cc(C)on2)C(C)C)Cc3ccc(F)cc3

$$$$
AG7P1S14
     RDKit          3D

 38 39  0  0  0  0  0  0  0  0999 V2000
   -9.9310   17.8800  -31.6460 C   0  0  0  0  0  0  0  0  0  0  0  0
   -8.8290   16.9260  -31.8420 N   0  0  0  0  0  0  0  0  0  0  0  0
  -10.4920   18.3500  -32.5750 O   0  0  0  0  0  0  0  0  0  0  0  0
   -8.4270   16.5590  -33.1920 C   0  0  2  0  0  0  0  0  0  0  0  0
   -8.9670   15.1660  -33.5270 C   0  0  0  0  0  0  0  0  0  0  0  0
   -6.9070   16.5400  -33.3360 C   0  0  0  0  0  0  0  0  0  0  0  0
   -9.3780   14.8340  -34.9810 C   0  0  0  0  0  0  0  0  0  0  0  0
   -9.0670   14.3600  -32.6690 O   0  0  0  0  0  0  0  0  0  0  0  0
   -6.3050   15.3610  -32.5860 C   0  0  0  0  0  0  0  0  0  0  0  0
   -6.3080   17.8490  -32.7930 C   0  0  0  0  0  0  0  0  0  0  0  0
   -9.6070   13.3430  -35.1580 C   0  0  1  0  0  0  0  0  0  0  0  0
   -9.8220   13.0040  -36.6320 C   0  0  0  0  0  0  0  0  0  0  0  0
   -8.3860   12.4890  -34.7650 C   0  0  0  0  0  0  0  0  0  0  0  0
  -10.9810   13.8390  -37.2650 C   0  0  0  0  0  0  0  0  0  0  0  0
   -8.6560   11.1530  -34.1940 N   0  0  0  0  0  0  0  0  0  0  0  0
   -7.2780   12.8740  -34.9380 O   0  0  0  0  0  0  0  0  0  0  0  0
  -12.4340   13.3870  -37.0950 C   0  0  0  0  0  0  0  0  0  0  0  0
  -10.6550   15.1030  -38.0670 C   0  0  0  0  0  0  0  0  0  0  0  0
   -7.5720   10.2480  -33.8100 C   0  0  1  0  0  0  0  0  0  0  0  0
  -13.5670   14.2110  -37.7240 C   0  0  0  0  0  0  0  0  0  0  0  0
  -11.7870   15.9270  -38.6960 C   0  0  0  0  0  0  0  0  0  0  0  0
   -7.4790   10.1100  -32.3050 C   0  0  0  0  0  0  0  0  0  0  0  0
   -7.9420    8.8790  -34.3950 C   0  0  2  0  0  0  0  0  0  0  0  0
  -13.2350   15.4760  -38.5200 C   0  0  0  0  0  0  0  0  0  0  0  0
   -6.9650   11.3310  -31.6770 C   0  0  1  0  0  0  0  0  0  0  0  0
   -8.0380    8.7560  -35.9460 C   0  0  0  0  0  0  0  0  0  0  0  0
   -9.4950    8.1700  -33.9330 R   0  0  0  0  0  0  0  0  0  0  0  0
  -14.2410   16.2030  -39.0780 F   0  0  0  0  0  0  0  0  0  0  0  0
   -6.7630   11.0640  -30.1170 C   0  0  0  0  0  0  0  0  0  0  0  0
   -5.5720   11.6820  -32.1610 C   0  0  0  0  0  0  0  0  0  0  0  0
   -6.7120    9.1220  -36.6620 C   0  0  0  0  0  0  0  0  0  0  0  0
   -5.5900   11.6330  -29.7910 N   0  0  0  0  0  0  0  0  0  0  0  0
   -7.4890   10.4750  -29.3970 O   0  0  0  0  0  0  0  0  0  0  0  0
   -4.9760   12.2950  -31.0880 C   0  0  0  0  0  0  0  0  0  0  0  0
   -6.6630    9.2000  -38.0780 O   0  0  0  0  0  0  0  0  0  0  0  0
   -5.7350    9.3330  -36.0330 O   0  0  0  0  0  0  0  0  0  0  0  0
   -7.2150   10.3580  -38.6790 C   0  0  0  0  0  0  0  0  0  0  0  0
   -6.0980   11.1210  -39.4160 C   0  0  0  0  0  0  0  0  0  0  0  0
  2  1  1  0
  1  3  2  0
  4  2  1  1
  5  4  1  0
  4  6  1  0
  5  7  1  0
  5  8  2  0
  6  9  1  0
  6 10  1  0
 11  7  1  6
 11 12  1  0
 11 13  1  0
 12 14  1  0
 15 13  1  0
 13 16  2  0
 14 17  2  0
 14 18  1  0
 15 19  1  0
 17 20  1  0
 21 18  2  0
 19 22  1  1
 19 23  1  0
 20 24  2  0
 24 21  1  0
 25 22  1  6
 23 26  1  0
 23 27  1  1
 24 28  1  0
 25 29  1  0
 25 30  1  0
 26 31  1  0
 29 32  1  0
 29 33  2  0
 34 30  1  0
 31 35  1  0
 31 36  2  0
 32 34  1  0
 35 37  1  0
 37 38  1  0
V   27 *
A    2
 N58
A    3
 O60
A    4
 C57
A    5
 C01
A    6
 C78
A    7
 C02
A    8
 O03
A    9
 C81
A   10
 C82
A   11
 C04
A   12
 C05
A   13
 C47
A   14
 C06
A   15
 N12
A   16
 O48
A   17
 C07
A   18
 C11
A   19
 C13
A   20
 C08
A   21
 C10
A   22
 C14
A   23
 C19
A   24
 C09
A   25
 C15
A   26
 C20
A   27
 X  
A   28
 F1 
A   29
 C16
A   30
 C84
A   31
 C21
A   32
 N17
A   33
 O18
A   34
 C83
A   35
 O22
A   36
 O23
A   37
 C50
A   38
 C53
M  END
>  <XChem_code>  (64) 
AG7§1

>  <Occupancy>  (64) 
[1.0, 1.0, 1.0, 1.0, 1.0, 1.0, 1.0, 1.0, 1.0, 1.0, 1.0, 1.0, 1.0, 1.0, 1.0, 1.0, 1.0, 1.0, 1.0, 1.0, 1.0, 1.0, 1.0, 1.0, 1.0, 1.0, 1.0, 1.0, 1.0, 1.0, 1.0, 1.0, 1.0, 1.0, 1.0, 1.0, 1.0, 1.0, 1.0, 1.0, 1.0, 1.0, 1.0, 1.0]

>  <TempFactor>  (64) 
[27.43, 24.24, 28.92, 30.71, 25.26, 31.62, 25.98, 30.07, 31.48, 26.52, 28.51, 32.53, 36.38, 29.74, 29.67, 29.92, 32.9, 28.44, 30.67, 27.23, 22.26, 24.15, 27.42, 27.01, 29.05, 33.89, 30.31, 32.23, 39.3, 25.88, 27.54, 34.34, 31.54, 28.56, 32.59, 25.05, 28.93, 29.93, 36.51, 31.26, 26.19, 27.65, 26.83, 43.14]

>  <accession>  (64) 
7L8H_A

>  <description>  (64) 
Chain A, 3C Protease [enterovirus D68]

>  <evalue>  (64) 
8.3305400000000003e-132

>  <pdb_code>  (64) 
7L8H

>  <chain>  (64) 
A

>  <ligands>  (64) 
[{'chain_id': 'A', 'author_residue_number': 201, 'author_insertion_code': '', 'chem_comp_id': 'AG7', 'alternate_conformers': 0, 'entity_id': 2, 'struct_asym_id': 'C', 'residue_number': 1, 'chem_comp_name': '4-{2-(4-FLUORO-BENZYL)-6-METHYL-5-[(5-METHYL-ISOXAZOLE-3-CARBONYL)-AMINO]-4-OXO-HEPTANOYLAMINO}-5-(2-OXO-PYRROLIDIN-3-YL)-PENTANOIC ACID ETHYL ESTER', 'weight': 600.678, 'carbohydrate_polymer': False, 'branch_name': ''}, {'chain_id': 'B', 'author_residue_number': 201, 'author_insertion_code': '', 'chem_comp_id': 'AG7', 'alternate_conformers': 0, 'entity_id': 2, 'struct_asym_id': 'D', 'residue_number': 1, 'chem_comp_name': '4-{2-(4-FLUORO-BENZYL)-6-METHYL-5-[(5-METHYL-ISOXAZOLE-3-CARBONYL)-AMINO]-4-OXO-HEPTANOYLAMINO}-5-(2-OXO-PYRROLIDIN-3-YL)-PENTANOIC ACID ETHYL ESTER', 'weight': 600.678, 'carbohydrate_polymer': False, 'branch_name': ''}]

>  <ligand_codes>  (64) 
['AG7', 'AG7']

>  <cofactor_codes>  (64) 
[]

>  <has_cofactor>  (64) 
False

>  <covalent>  (64) 
True

>  <base_name>  (64) 
7L8H

>  <lig_resn>  (64) 
AG7

>  <lig_resi>  (64) 
201

>  <lig_chain>  (64) 
A

>  <lig_segi>  (64) 
C

>  <lig_alt>  (64) 


>  <polymer_chain>  (64) 
A

>  <single_smiles>  (64) 
CCOC(=O)CC[C@H](C[C@@H]1CCNC1=O)NC(=O)[C@@H](CC(=O)[C@@H](NC(=O)c2cc(C)on2)C(C)C)Cc3ccc(F)cc3

$$$$
AG7P1S15
     RDKit          3D

 21 21  0  0  0  0  0  0  0  0999 V2000
   -9.9310   17.8800  -31.6460 C   0  0  0  0  0  0  0  0  0  0  0  0
   -8.8290   16.9260  -31.8420 N   0  0  0  0  0  0  0  0  0  0  0  0
  -10.4920   18.3500  -32.5750 O   0  0  0  0  0  0  0  0  0  0  0  0
   -8.4270   16.5590  -33.1920 C   0  0  2  0  0  0  0  0  0  0  0  0
   -8.9670   15.1660  -33.5270 C   0  0  0  0  0  0  0  0  0  0  0  0
   -6.9070   16.5400  -33.3360 C   0  0  0  0  0  0  0  0  0  0  0  0
   -9.3780   14.8340  -34.9810 C   0  0  0  0  0  0  0  0  0  0  0  0
   -9.0670   14.3600  -32.6690 O   0  0  0  0  0  0  0  0  0  0  0  0
   -6.3050   15.3610  -32.5860 C   0  0  0  0  0  0  0  0  0  0  0  0
   -6.3080   17.8490  -32.7930 C   0  0  0  0  0  0  0  0  0  0  0  0
   -9.6070   13.3430  -35.1580 C   0  0  2  0  0  0  0  0  0  0  0  0
   -8.3860   12.4890  -34.7650 C   0  0  0  0  0  0  0  0  0  0  0  0
   -9.8220   13.0040  -36.6320 C   0  0  0  0  0  0  0  0  0  0  0  0
   -7.2780   12.8740  -34.9380 O   0  0  0  0  0  0  0  0  0  0  0  0
  -10.9810   13.8390  -37.2650 C   0  0  0  0  0  0  0  0  0  0  0  0
  -12.4340   13.3870  -37.0950 C   0  0  0  0  0  0  0  0  0  0  0  0
  -10.6550   15.1030  -38.0670 C   0  0  0  0  0  0  0  0  0  0  0  0
  -13.5670   14.2110  -37.7240 C   0  0  0  0  0  0  0  0  0  0  0  0
  -11.7870   15.9270  -38.6960 C   0  0  0  0  0  0  0  0  0  0  0  0
  -13.2350   15.4760  -38.5200 C   0  0  0  0  0  0  0  0  0  0  0  0
  -14.2410   16.2030  -39.0780 F   0  0  0  0  0  0  0  0  0  0  0  0
  2  1  1  0
  1  3  2  0
  4  2  1  1
  5  4  1  0
  4  6  1  0
  5  7  1  0
  5  8  2  0
  6  9  1  0
  6 10  1  0
 11  7  1  6
 11 12  1  0
 11 13  1  0
 12 14  2  0
 13 15  1  0
 15 16  2  0
 15 17  1  0
 16 18  1  0
 19 17  2  0
 18 20  2  0
 20 19  1  0
 20 21  1  0
A    2
 N58
A    3
 O60
A    4
 C57
A    5
 C01
A    6
 C78
A    7
 C02
A    8
 O03
A    9
 C81
A   10
 C82
A   11
 C04
A   13
 C05
A   14
 O48
A   15
 C06
A   16
 C07
A   17
 C11
A   18
 C08
A   19
 C10
A   20
 C09
A   21
 F1 
M  END
>  <XChem_code>  (65) 
AG7§1

>  <Occupancy>  (65) 
[1.0, 1.0, 1.0, 1.0, 1.0, 1.0, 1.0, 1.0, 1.0, 1.0, 1.0, 1.0, 1.0, 1.0, 1.0, 1.0, 1.0, 1.0, 1.0, 1.0, 1.0, 1.0, 1.0, 1.0, 1.0, 1.0, 1.0, 1.0, 1.0, 1.0, 1.0, 1.0, 1.0, 1.0, 1.0, 1.0, 1.0, 1.0, 1.0, 1.0, 1.0, 1.0, 1.0, 1.0]

>  <TempFactor>  (65) 
[27.43, 24.24, 28.92, 30.71, 25.26, 31.62, 25.98, 30.07, 31.48, 26.52, 28.51, 32.53, 36.38, 29.74, 29.67, 29.92, 32.9, 28.44, 30.67, 27.23, 22.26, 24.15, 27.42, 27.01, 29.05, 33.89, 30.31, 32.23, 39.3, 25.88, 27.54, 34.34, 31.54, 28.56, 32.59, 25.05, 28.93, 29.93, 36.51, 31.26, 26.19, 27.65, 26.83, 43.14]

>  <accession>  (65) 
7L8H_A

>  <description>  (65) 
Chain A, 3C Protease [enterovirus D68]

>  <evalue>  (65) 
8.3305400000000003e-132

>  <pdb_code>  (65) 
7L8H

>  <chain>  (65) 
A

>  <ligands>  (65) 
[{'chain_id': 'A', 'author_residue_number': 201, 'author_insertion_code': '', 'chem_comp_id': 'AG7', 'alternate_conformers': 0, 'entity_id': 2, 'struct_asym_id': 'C', 'residue_number': 1, 'chem_comp_name': '4-{2-(4-FLUORO-BENZYL)-6-METHYL-5-[(5-METHYL-ISOXAZOLE-3-CARBONYL)-AMINO]-4-OXO-HEPTANOYLAMINO}-5-(2-OXO-PYRROLIDIN-3-YL)-PENTANOIC ACID ETHYL ESTER', 'weight': 600.678, 'carbohydrate_polymer': False, 'branch_name': ''}, {'chain_id': 'B', 'author_residue_number': 201, 'author_insertion_code': '', 'chem_comp_id': 'AG7', 'alternate_conformers': 0, 'entity_id': 2, 'struct_asym_id': 'D', 'residue_number': 1, 'chem_comp_name': '4-{2-(4-FLUORO-BENZYL)-6-METHYL-5-[(5-METHYL-ISOXAZOLE-3-CARBONYL)-AMINO]-4-OXO-HEPTANOYLAMINO}-5-(2-OXO-PYRROLIDIN-3-YL)-PENTANOIC ACID ETHYL ESTER', 'weight': 600.678, 'carbohydrate_polymer': False, 'branch_name': ''}]

>  <ligand_codes>  (65) 
['AG7', 'AG7']

>  <cofactor_codes>  (65) 
[]

>  <has_cofactor>  (65) 
False

>  <covalent>  (65) 
True

>  <base_name>  (65) 
7L8H

>  <lig_resn>  (65) 
AG7

>  <lig_resi>  (65) 
201

>  <lig_chain>  (65) 
A

>  <lig_segi>  (65) 
C

>  <lig_alt>  (65) 


>  <polymer_chain>  (65) 
A

>  <single_smiles>  (65) 
CCOC(=O)CC[C@H](C[C@@H]1CCNC1=O)NC(=O)[C@@H](CC(=O)[C@@H](NC(=O)c2cc(C)on2)C(C)C)Cc3ccc(F)cc3

$$$$
AG7P1S16
     RDKit          3D

 22 22  0  0  0  0  0  0  0  0999 V2000
   -9.9310   17.8800  -31.6460 C   0  0  0  0  0  0  0  0  0  0  0  0
   -8.8290   16.9260  -31.8420 N   0  0  0  0  0  0  0  0  0  0  0  0
  -10.4920   18.3500  -32.5750 O   0  0  0  0  0  0  0  0  0  0  0  0
   -8.4270   16.5590  -33.1920 C   0  0  2  0  0  0  0  0  0  0  0  0
   -8.9670   15.1660  -33.5270 C   0  0  0  0  0  0  0  0  0  0  0  0
   -6.9070   16.5400  -33.3360 C   0  0  0  0  0  0  0  0  0  0  0  0
   -9.3780   14.8340  -34.9810 C   0  0  0  0  0  0  0  0  0  0  0  0
   -9.0670   14.3600  -32.6690 O   0  0  0  0  0  0  0  0  0  0  0  0
   -6.3050   15.3610  -32.5860 C   0  0  0  0  0  0  0  0  0  0  0  0
   -6.3080   17.8490  -32.7930 C   0  0  0  0  0  0  0  0  0  0  0  0
   -9.6070   13.3430  -35.1580 C   0  0  2  0  0  0  0  0  0  0  0  0
   -8.3860   12.4890  -34.7650 C   0  0  0  0  0  0  0  0  0  0  0  0
   -9.8220   13.0040  -36.6320 C   0  0  0  0  0  0  0  0  0  0  0  0
   -8.6560   11.1530  -34.1940 N   0  0  0  0  0  0  0  0  0  0  0  0
   -7.2780   12.8740  -34.9380 O   0  0  0  0  0  0  0  0  0  0  0  0
  -10.9810   13.8390  -37.2650 C   0  0  0  0  0  0  0  0  0  0  0  0
  -12.4340   13.3870  -37.0950 C   0  0  0  0  0  0  0  0  0  0  0  0
  -10.6550   15.1030  -38.0670 C   0  0  0  0  0  0  0  0  0  0  0  0
  -13.5670   14.2110  -37.7240 C   0  0  0  0  0  0  0  0  0  0  0  0
  -11.7870   15.9270  -38.6960 C   0  0  0  0  0  0  0  0  0  0  0  0
  -13.2350   15.4760  -38.5200 C   0  0  0  0  0  0  0  0  0  0  0  0
  -14.2410   16.2030  -39.0780 F   0  0  0  0  0  0  0  0  0  0  0  0
  2  1  1  0
  1  3  2  0
  4  2  1  1
  5  4  1  0
  4  6  1  0
  5  7  1  0
  5  8  2  0
  6  9  1  0
  6 10  1  0
 11  7  1  6
 11 12  1  0
 11 13  1  0
 14 12  1  0
 12 15  2  0
 13 16  1  0
 16 17  2  0
 16 18  1  0
 17 19  1  0
 20 18  2  0
 19 21  2  0
 21 20  1  0
 21 22  1  0
A    2
 N58
A    3
 O60
A    4
 C57
A    5
 C01
A    6
 C78
A    7
 C02
A    8
 O03
A    9
 C81
A   10
 C82
A   11
 C04
A   12
 C47
A   13
 C05
A   15
 O48
A   16
 C06
A   17
 C07
A   18
 C11
A   19
 C08
A   20
 C10
A   21
 C09
A   22
 F1 
M  END
>  <XChem_code>  (66) 
AG7§1

>  <Occupancy>  (66) 
[1.0, 1.0, 1.0, 1.0, 1.0, 1.0, 1.0, 1.0, 1.0, 1.0, 1.0, 1.0, 1.0, 1.0, 1.0, 1.0, 1.0, 1.0, 1.0, 1.0, 1.0, 1.0, 1.0, 1.0, 1.0, 1.0, 1.0, 1.0, 1.0, 1.0, 1.0, 1.0, 1.0, 1.0, 1.0, 1.0, 1.0, 1.0, 1.0, 1.0, 1.0, 1.0, 1.0, 1.0]

>  <TempFactor>  (66) 
[27.43, 24.24, 28.92, 30.71, 25.26, 31.62, 25.98, 30.07, 31.48, 26.52, 28.51, 32.53, 36.38, 29.74, 29.67, 29.92, 32.9, 28.44, 30.67, 27.23, 22.26, 24.15, 27.42, 27.01, 29.05, 33.89, 30.31, 32.23, 39.3, 25.88, 27.54, 34.34, 31.54, 28.56, 32.59, 25.05, 28.93, 29.93, 36.51, 31.26, 26.19, 27.65, 26.83, 43.14]

>  <accession>  (66) 
7L8H_A

>  <description>  (66) 
Chain A, 3C Protease [enterovirus D68]

>  <evalue>  (66) 
8.3305400000000003e-132

>  <pdb_code>  (66) 
7L8H

>  <chain>  (66) 
A

>  <ligands>  (66) 
[{'chain_id': 'A', 'author_residue_number': 201, 'author_insertion_code': '', 'chem_comp_id': 'AG7', 'alternate_conformers': 0, 'entity_id': 2, 'struct_asym_id': 'C', 'residue_number': 1, 'chem_comp_name': '4-{2-(4-FLUORO-BENZYL)-6-METHYL-5-[(5-METHYL-ISOXAZOLE-3-CARBONYL)-AMINO]-4-OXO-HEPTANOYLAMINO}-5-(2-OXO-PYRROLIDIN-3-YL)-PENTANOIC ACID ETHYL ESTER', 'weight': 600.678, 'carbohydrate_polymer': False, 'branch_name': ''}, {'chain_id': 'B', 'author_residue_number': 201, 'author_insertion_code': '', 'chem_comp_id': 'AG7', 'alternate_conformers': 0, 'entity_id': 2, 'struct_asym_id': 'D', 'residue_number': 1, 'chem_comp_name': '4-{2-(4-FLUORO-BENZYL)-6-METHYL-5-[(5-METHYL-ISOXAZOLE-3-CARBONYL)-AMINO]-4-OXO-HEPTANOYLAMINO}-5-(2-OXO-PYRROLIDIN-3-YL)-PENTANOIC ACID ETHYL ESTER', 'weight': 600.678, 'carbohydrate_polymer': False, 'branch_name': ''}]

>  <ligand_codes>  (66) 
['AG7', 'AG7']

>  <cofactor_codes>  (66) 
[]

>  <has_cofactor>  (66) 
False

>  <covalent>  (66) 
True

>  <base_name>  (66) 
7L8H

>  <lig_resn>  (66) 
AG7

>  <lig_resi>  (66) 
201

>  <lig_chain>  (66) 
A

>  <lig_segi>  (66) 
C

>  <lig_alt>  (66) 


>  <polymer_chain>  (66) 
A

>  <single_smiles>  (66) 
CCOC(=O)CC[C@H](C[C@@H]1CCNC1=O)NC(=O)[C@@H](CC(=O)[C@@H](NC(=O)c2cc(C)on2)C(C)C)Cc3ccc(F)cc3

$$$$
AG7P1S17
     RDKit          3D

  6  6  0  0  0  0  0  0  0  0999 V2000
   -6.9650   11.3310  -31.6770 C   0  0  0  0  0  0  0  0  0  0  0  0
   -6.7630   11.0640  -30.1170 C   0  0  0  0  0  0  0  0  0  0  0  0
   -5.5720   11.6820  -32.1610 C   0  0  0  0  0  0  0  0  0  0  0  0
   -5.5900   11.6330  -29.7910 N   0  0  0  0  0  0  0  0  0  0  0  0
   -7.4890   10.4750  -29.3970 O   0  0  0  0  0  0  0  0  0  0  0  0
   -4.9760   12.2950  -31.0880 C   0  0  0  0  0  0  0  0  0  0  0  0
  1  2  1  0
  1  3  1  1
  2  4  1  0
  2  5  2  0
  6  3  1  0
  4  6  1  0
A    2
 C16
A    3
 C84
A    4
 N17
A    5
 O18
A    6
 C83
M  END
>  <XChem_code>  (67) 
AG7§1

>  <Occupancy>  (67) 
[1.0, 1.0, 1.0, 1.0, 1.0, 1.0, 1.0, 1.0, 1.0, 1.0, 1.0, 1.0, 1.0, 1.0, 1.0, 1.0, 1.0, 1.0, 1.0, 1.0, 1.0, 1.0, 1.0, 1.0, 1.0, 1.0, 1.0, 1.0, 1.0, 1.0, 1.0, 1.0, 1.0, 1.0, 1.0, 1.0, 1.0, 1.0, 1.0, 1.0, 1.0, 1.0, 1.0, 1.0]

>  <TempFactor>  (67) 
[27.43, 24.24, 28.92, 30.71, 25.26, 31.62, 25.98, 30.07, 31.48, 26.52, 28.51, 32.53, 36.38, 29.74, 29.67, 29.92, 32.9, 28.44, 30.67, 27.23, 22.26, 24.15, 27.42, 27.01, 29.05, 33.89, 30.31, 32.23, 39.3, 25.88, 27.54, 34.34, 31.54, 28.56, 32.59, 25.05, 28.93, 29.93, 36.51, 31.26, 26.19, 27.65, 26.83, 43.14]

>  <accession>  (67) 
7L8H_A

>  <description>  (67) 
Chain A, 3C Protease [enterovirus D68]

>  <evalue>  (67) 
8.3305400000000003e-132

>  <pdb_code>  (67) 
7L8H

>  <chain>  (67) 
A

>  <ligands>  (67) 
[{'chain_id': 'A', 'author_residue_number': 201, 'author_insertion_code': '', 'chem_comp_id': 'AG7', 'alternate_conformers': 0, 'entity_id': 2, 'struct_asym_id': 'C', 'residue_number': 1, 'chem_comp_name': '4-{2-(4-FLUORO-BENZYL)-6-METHYL-5-[(5-METHYL-ISOXAZOLE-3-CARBONYL)-AMINO]-4-OXO-HEPTANOYLAMINO}-5-(2-OXO-PYRROLIDIN-3-YL)-PENTANOIC ACID ETHYL ESTER', 'weight': 600.678, 'carbohydrate_polymer': False, 'branch_name': ''}, {'chain_id': 'B', 'author_residue_number': 201, 'author_insertion_code': '', 'chem_comp_id': 'AG7', 'alternate_conformers': 0, 'entity_id': 2, 'struct_asym_id': 'D', 'residue_number': 1, 'chem_comp_name': '4-{2-(4-FLUORO-BENZYL)-6-METHYL-5-[(5-METHYL-ISOXAZOLE-3-CARBONYL)-AMINO]-4-OXO-HEPTANOYLAMINO}-5-(2-OXO-PYRROLIDIN-3-YL)-PENTANOIC ACID ETHYL ESTER', 'weight': 600.678, 'carbohydrate_polymer': False, 'branch_name': ''}]

>  <ligand_codes>  (67) 
['AG7', 'AG7']

>  <cofactor_codes>  (67) 
[]

>  <has_cofactor>  (67) 
False

>  <covalent>  (67) 
True

>  <base_name>  (67) 
7L8H

>  <lig_resn>  (67) 
AG7

>  <lig_resi>  (67) 
201

>  <lig_chain>  (67) 
A

>  <lig_segi>  (67) 
C

>  <lig_alt>  (67) 


>  <polymer_chain>  (67) 
A

>  <single_smiles>  (67) 
CCOC(=O)CC[C@H](C[C@@H]1CCNC1=O)NC(=O)[C@@H](CC(=O)[C@@H](NC(=O)c2cc(C)on2)C(C)C)Cc3ccc(F)cc3

$$$$
AG7P1S18
     RDKit          3D

 38 39  0  0  0  0  0  0  0  0999 V2000
   -7.4790   10.1100  -32.3050 C   0  0  0  0  0  0  0  0  0  0  0  0
   -7.5720   10.2480  -33.8100 C   0  0  2  0  0  0  0  0  0  0  0  0
   -8.6560   11.1530  -34.1940 N   0  0  0  0  0  0  0  0  0  0  0  0
   -7.9420    8.8790  -34.3950 C   0  0  2  0  0  0  0  0  0  0  0  0
   -8.3860   12.4890  -34.7650 C   0  0  0  0  0  0  0  0  0  0  0  0
   -8.0380    8.7560  -35.9460 C   0  0  0  0  0  0  0  0  0  0  0  0
   -9.4950    8.1700  -33.9330 R   0  0  0  0  0  0  0  0  0  0  0  0
   -9.6070   13.3430  -35.1580 C   0  0  1  0  0  0  0  0  0  0  0  0
   -7.2780   12.8740  -34.9380 O   0  0  0  0  0  0  0  0  0  0  0  0
   -6.7120    9.1220  -36.6620 C   0  0  0  0  0  0  0  0  0  0  0  0
   -9.3780   14.8340  -34.9810 C   0  0  0  0  0  0  0  0  0  0  0  0
   -9.8220   13.0040  -36.6320 C   0  0  0  0  0  0  0  0  0  0  0  0
   -6.6630    9.2000  -38.0780 O   0  0  0  0  0  0  0  0  0  0  0  0
   -5.7350    9.3330  -36.0330 O   0  0  0  0  0  0  0  0  0  0  0  0
   -8.9670   15.1660  -33.5270 C   0  0  0  0  0  0  0  0  0  0  0  0
  -10.9810   13.8390  -37.2650 C   0  0  0  0  0  0  0  0  0  0  0  0
   -7.2150   10.3580  -38.6790 C   0  0  0  0  0  0  0  0  0  0  0  0
   -9.0670   14.3600  -32.6690 O   0  0  0  0  0  0  0  0  0  0  0  0
   -8.4270   16.5590  -33.1920 C   0  0  1  0  0  0  0  0  0  0  0  0
  -12.4340   13.3870  -37.0950 C   0  0  0  0  0  0  0  0  0  0  0  0
  -10.6550   15.1030  -38.0670 C   0  0  0  0  0  0  0  0  0  0  0  0
   -6.0980   11.1210  -39.4160 C   0  0  0  0  0  0  0  0  0  0  0  0
   -8.8290   16.9260  -31.8420 N   0  0  0  0  0  0  0  0  0  0  0  0
   -6.9070   16.5400  -33.3360 C   0  0  0  0  0  0  0  0  0  0  0  0
  -13.5670   14.2110  -37.7240 C   0  0  0  0  0  0  0  0  0  0  0  0
  -11.7870   15.9270  -38.6960 C   0  0  0  0  0  0  0  0  0  0  0  0
   -9.9310   17.8800  -31.6460 C   0  0  0  0  0  0  0  0  0  0  0  0
   -6.3050   15.3610  -32.5860 C   0  0  0  0  0  0  0  0  0  0  0  0
   -6.3080   17.8490  -32.7930 C   0  0  0  0  0  0  0  0  0  0  0  0
  -13.2350   15.4760  -38.5200 C   0  0  0  0  0  0  0  0  0  0  0  0
  -10.3610   18.2920  -30.2190 C   0  0  0  0  0  0  0  0  0  0  0  0
  -10.4920   18.3500  -32.5750 O   0  0  0  0  0  0  0  0  0  0  0  0
  -14.2410   16.2030  -39.0780 F   0  0  0  0  0  0  0  0  0  0  0  0
  -11.4490   19.0700  -29.8790 C   0  0  0  0  0  0  0  0  0  0  0  0
   -9.7220   17.9610  -29.0990 N   0  0  0  0  0  0  0  0  0  0  0  0
  -11.4560   19.2030  -28.5220 C   0  0  0  0  0  0  0  0  0  0  0  0
  -10.4040   18.5290  -28.0300 O   0  0  0  0  0  0  0  0  0  0  0  0
  -12.4800   19.9840  -27.6840 C   0  0  0  0  0  0  0  0  0  0  0  0
  2  1  1  1
  3  2  1  0
  2  4  1  0
  3  5  1  0
  4  6  1  0
  4  7  1  1
  8  5  1  0
  5  9  2  0
  6 10  1  0
  8 11  1  6
  8 12  1  0
 10 13  1  0
 10 14  2  0
 15 11  1  0
 12 16  1  0
 13 17  1  0
 15 18  2  0
 15 19  1  0
 16 20  2  0
 16 21  1  0
 17 22  1  0
 19 23  1  1
 19 24  1  0
 20 25  1  0
 26 21  2  0
 23 27  1  0
 24 28  1  0
 24 29  1  0
 25 30  2  0
 30 26  1  0
 31 27  1  0
 27 32  2  0
 30 33  1  0
 31 34  1  0
 31 35  2  0
 34 36  2  0
 37 35  1  0
 36 38  1  0
 36 37  1  0
V    7 *
A    2
 C13
A    3
 N12
A    4
 C19
A    5
 C47
A    6
 C20
A    7
 X  
A    8
 C04
A    9
 O48
A   10
 C21
A   11
 C02
A   12
 C05
A   13
 O22
A   14
 O23
A   15
 C01
A   16
 C06
A   17
 C50
A   18
 O03
A   19
 C57
A   20
 C07
A   21
 C11
A   22
 C53
A   23
 N58
A   24
 C78
A   25
 C08
A   26
 C10
A   27
 C59
A   28
 C81
A   29
 C82
A   30
 C09
A   31
 C1 
A   32
 O60
A   33
 F1 
A   34
 C2 
A   35
 N5 
A   36
 C3 
A   37
 O4 
A   38
 C4 
M  END
>  <XChem_code>  (68) 
AG7§1

>  <Occupancy>  (68) 
[1.0, 1.0, 1.0, 1.0, 1.0, 1.0, 1.0, 1.0, 1.0, 1.0, 1.0, 1.0, 1.0, 1.0, 1.0, 1.0, 1.0, 1.0, 1.0, 1.0, 1.0, 1.0, 1.0, 1.0, 1.0, 1.0, 1.0, 1.0, 1.0, 1.0, 1.0, 1.0, 1.0, 1.0, 1.0, 1.0, 1.0, 1.0, 1.0, 1.0, 1.0, 1.0, 1.0, 1.0]

>  <TempFactor>  (68) 
[27.43, 24.24, 28.92, 30.71, 25.26, 31.62, 25.98, 30.07, 31.48, 26.52, 28.51, 32.53, 36.38, 29.74, 29.67, 29.92, 32.9, 28.44, 30.67, 27.23, 22.26, 24.15, 27.42, 27.01, 29.05, 33.89, 30.31, 32.23, 39.3, 25.88, 27.54, 34.34, 31.54, 28.56, 32.59, 25.05, 28.93, 29.93, 36.51, 31.26, 26.19, 27.65, 26.83, 43.14]

>  <accession>  (68) 
7L8H_A

>  <description>  (68) 
Chain A, 3C Protease [enterovirus D68]

>  <evalue>  (68) 
8.3305400000000003e-132

>  <pdb_code>  (68) 
7L8H

>  <chain>  (68) 
A

>  <ligands>  (68) 
[{'chain_id': 'A', 'author_residue_number': 201, 'author_insertion_code': '', 'chem_comp_id': 'AG7', 'alternate_conformers': 0, 'entity_id': 2, 'struct_asym_id': 'C', 'residue_number': 1, 'chem_comp_name': '4-{2-(4-FLUORO-BENZYL)-6-METHYL-5-[(5-METHYL-ISOXAZOLE-3-CARBONYL)-AMINO]-4-OXO-HEPTANOYLAMINO}-5-(2-OXO-PYRROLIDIN-3-YL)-PENTANOIC ACID ETHYL ESTER', 'weight': 600.678, 'carbohydrate_polymer': False, 'branch_name': ''}, {'chain_id': 'B', 'author_residue_number': 201, 'author_insertion_code': '', 'chem_comp_id': 'AG7', 'alternate_conformers': 0, 'entity_id': 2, 'struct_asym_id': 'D', 'residue_number': 1, 'chem_comp_name': '4-{2-(4-FLUORO-BENZYL)-6-METHYL-5-[(5-METHYL-ISOXAZOLE-3-CARBONYL)-AMINO]-4-OXO-HEPTANOYLAMINO}-5-(2-OXO-PYRROLIDIN-3-YL)-PENTANOIC ACID ETHYL ESTER', 'weight': 600.678, 'carbohydrate_polymer': False, 'branch_name': ''}]

>  <ligand_codes>  (68) 
['AG7', 'AG7']

>  <cofactor_codes>  (68) 
[]

>  <has_cofactor>  (68) 
False

>  <covalent>  (68) 
True

>  <base_name>  (68) 
7L8H

>  <lig_resn>  (68) 
AG7

>  <lig_resi>  (68) 
201

>  <lig_chain>  (68) 
A

>  <lig_segi>  (68) 
C

>  <lig_alt>  (68) 


>  <polymer_chain>  (68) 
A

>  <single_smiles>  (68) 
CCOC(=O)CC[C@H](C[C@@H]1CCNC1=O)NC(=O)[C@@H](CC(=O)[C@@H](NC(=O)c2cc(C)on2)C(C)C)Cc3ccc(F)cc3

$$$$
AG7P1S19
     RDKit          3D

  7  7  0  0  0  0  0  0  0  0999 V2000
  -10.9810   13.8390  -37.2650 C   0  0  0  0  0  0  0  0  0  0  0  0
  -12.4340   13.3870  -37.0950 C   0  0  0  0  0  0  0  0  0  0  0  0
  -10.6550   15.1030  -38.0670 C   0  0  0  0  0  0  0  0  0  0  0  0
  -13.5670   14.2110  -37.7240 C   0  0  0  0  0  0  0  0  0  0  0  0
  -11.7870   15.9270  -38.6960 C   0  0  0  0  0  0  0  0  0  0  0  0
  -13.2350   15.4760  -38.5200 C   0  0  0  0  0  0  0  0  0  0  0  0
  -14.2410   16.2030  -39.0780 F   0  0  0  0  0  0  0  0  0  0  0  0
  1  2  2  0
  1  3  1  0
  2  4  1  0
  5  3  2  0
  4  6  2  0
  6  5  1  0
  6  7  1  0
A    2
 C07
A    3
 C11
A    4
 C08
A    5
 C10
A    6
 C09
A    7
 F1 
M  END
>  <XChem_code>  (69) 
AG7§1

>  <Occupancy>  (69) 
[1.0, 1.0, 1.0, 1.0, 1.0, 1.0, 1.0, 1.0, 1.0, 1.0, 1.0, 1.0, 1.0, 1.0, 1.0, 1.0, 1.0, 1.0, 1.0, 1.0, 1.0, 1.0, 1.0, 1.0, 1.0, 1.0, 1.0, 1.0, 1.0, 1.0, 1.0, 1.0, 1.0, 1.0, 1.0, 1.0, 1.0, 1.0, 1.0, 1.0, 1.0, 1.0, 1.0, 1.0]

>  <TempFactor>  (69) 
[27.43, 24.24, 28.92, 30.71, 25.26, 31.62, 25.98, 30.07, 31.48, 26.52, 28.51, 32.53, 36.38, 29.74, 29.67, 29.92, 32.9, 28.44, 30.67, 27.23, 22.26, 24.15, 27.42, 27.01, 29.05, 33.89, 30.31, 32.23, 39.3, 25.88, 27.54, 34.34, 31.54, 28.56, 32.59, 25.05, 28.93, 29.93, 36.51, 31.26, 26.19, 27.65, 26.83, 43.14]

>  <accession>  (69) 
7L8H_A

>  <description>  (69) 
Chain A, 3C Protease [enterovirus D68]

>  <evalue>  (69) 
8.3305400000000003e-132

>  <pdb_code>  (69) 
7L8H

>  <chain>  (69) 
A

>  <ligands>  (69) 
[{'chain_id': 'A', 'author_residue_number': 201, 'author_insertion_code': '', 'chem_comp_id': 'AG7', 'alternate_conformers': 0, 'entity_id': 2, 'struct_asym_id': 'C', 'residue_number': 1, 'chem_comp_name': '4-{2-(4-FLUORO-BENZYL)-6-METHYL-5-[(5-METHYL-ISOXAZOLE-3-CARBONYL)-AMINO]-4-OXO-HEPTANOYLAMINO}-5-(2-OXO-PYRROLIDIN-3-YL)-PENTANOIC ACID ETHYL ESTER', 'weight': 600.678, 'carbohydrate_polymer': False, 'branch_name': ''}, {'chain_id': 'B', 'author_residue_number': 201, 'author_insertion_code': '', 'chem_comp_id': 'AG7', 'alternate_conformers': 0, 'entity_id': 2, 'struct_asym_id': 'D', 'residue_number': 1, 'chem_comp_name': '4-{2-(4-FLUORO-BENZYL)-6-METHYL-5-[(5-METHYL-ISOXAZOLE-3-CARBONYL)-AMINO]-4-OXO-HEPTANOYLAMINO}-5-(2-OXO-PYRROLIDIN-3-YL)-PENTANOIC ACID ETHYL ESTER', 'weight': 600.678, 'carbohydrate_polymer': False, 'branch_name': ''}]

>  <ligand_codes>  (69) 
['AG7', 'AG7']

>  <cofactor_codes>  (69) 
[]

>  <has_cofactor>  (69) 
False

>  <covalent>  (69) 
True

>  <base_name>  (69) 
7L8H

>  <lig_resn>  (69) 
AG7

>  <lig_resi>  (69) 
201

>  <lig_chain>  (69) 
A

>  <lig_segi>  (69) 
C

>  <lig_alt>  (69) 


>  <polymer_chain>  (69) 
A

>  <single_smiles>  (69) 
CCOC(=O)CC[C@H](C[C@@H]1CCNC1=O)NC(=O)[C@@H](CC(=O)[C@@H](NC(=O)c2cc(C)on2)C(C)C)Cc3ccc(F)cc3

$$$$
AG7P1S20
     RDKit          3D

 37 38  0  0  0  0  0  0  0  0999 V2000
   -9.8220   13.0040  -36.6320 C   0  0  0  0  0  0  0  0  0  0  0  0
   -9.6070   13.3430  -35.1580 C   0  0  2  0  0  0  0  0  0  0  0  0
   -9.3780   14.8340  -34.9810 C   0  0  0  0  0  0  0  0  0  0  0  0
   -8.3860   12.4890  -34.7650 C   0  0  0  0  0  0  0  0  0  0  0  0
   -8.9670   15.1660  -33.5270 C   0  0  0  0  0  0  0  0  0  0  0  0
   -8.6560   11.1530  -34.1940 N   0  0  0  0  0  0  0  0  0  0  0  0
   -7.2780   12.8740  -34.9380 O   0  0  0  0  0  0  0  0  0  0  0  0
   -9.0670   14.3600  -32.6690 O   0  0  0  0  0  0  0  0  0  0  0  0
   -8.4270   16.5590  -33.1920 C   0  0  1  0  0  0  0  0  0  0  0  0
   -7.5720   10.2480  -33.8100 C   0  0  1  0  0  0  0  0  0  0  0  0
   -8.8290   16.9260  -31.8420 N   0  0  0  0  0  0  0  0  0  0  0  0
   -6.9070   16.5400  -33.3360 C   0  0  0  0  0  0  0  0  0  0  0  0
   -7.4790   10.1100  -32.3050 C   0  0  0  0  0  0  0  0  0  0  0  0
   -7.9420    8.8790  -34.3950 C   0  0  2  0  0  0  0  0  0  0  0  0
   -9.9310   17.8800  -31.6460 C   0  0  0  0  0  0  0  0  0  0  0  0
   -6.3050   15.3610  -32.5860 C   0  0  0  0  0  0  0  0  0  0  0  0
   -6.3080   17.8490  -32.7930 C   0  0  0  0  0  0  0  0  0  0  0  0
   -6.9650   11.3310  -31.6770 C   0  0  1  0  0  0  0  0  0  0  0  0
   -8.0380    8.7560  -35.9460 C   0  0  0  0  0  0  0  0  0  0  0  0
   -9.4950    8.1700  -33.9330 R   0  0  0  0  0  0  0  0  0  0  0  0
  -10.3610   18.2920  -30.2190 C   0  0  0  0  0  0  0  0  0  0  0  0
  -10.4920   18.3500  -32.5750 O   0  0  0  0  0  0  0  0  0  0  0  0
   -6.7630   11.0640  -30.1170 C   0  0  0  0  0  0  0  0  0  0  0  0
   -5.5720   11.6820  -32.1610 C   0  0  0  0  0  0  0  0  0  0  0  0
   -6.7120    9.1220  -36.6620 C   0  0  0  0  0  0  0  0  0  0  0  0
  -11.4490   19.0700  -29.8790 C   0  0  0  0  0  0  0  0  0  0  0  0
   -9.7220   17.9610  -29.0990 N   0  0  0  0  0  0  0  0  0  0  0  0
   -5.5900   11.6330  -29.7910 N   0  0  0  0  0  0  0  0  0  0  0  0
   -7.4890   10.4750  -29.3970 O   0  0  0  0  0  0  0  0  0  0  0  0
   -4.9760   12.2950  -31.0880 C   0  0  0  0  0  0  0  0  0  0  0  0
   -6.6630    9.2000  -38.0780 O   0  0  0  0  0  0  0  0  0  0  0  0
   -5.7350    9.3330  -36.0330 O   0  0  0  0  0  0  0  0  0  0  0  0
  -11.4560   19.2030  -28.5220 C   0  0  0  0  0  0  0  0  0  0  0  0
  -10.4040   18.5290  -28.0300 O   0  0  0  0  0  0  0  0  0  0  0  0
   -7.2150   10.3580  -38.6790 C   0  0  0  0  0  0  0  0  0  0  0  0
  -12.4800   19.9840  -27.6840 C   0  0  0  0  0  0  0  0  0  0  0  0
   -6.0980   11.1210  -39.4160 C   0  0  0  0  0  0  0  0  0  0  0  0
  2  1  1  6
  2  3  1  0
  2  4  1  0
  5  3  1  0
  6  4  1  0
  4  7  2  0
  5  8  2  0
  5  9  1  0
  6 10  1  0
  9 11  1  1
  9 12  1  0
 10 13  1  1
 10 14  1  0
 11 15  1  0
 12 16  1  0
 12 17  1  0
 18 13  1  6
 14 19  1  0
 14 20  1  1
 21 15  1  0
 15 22  2  0
 18 23  1  0
 18 24  1  0
 19 25  1  0
 21 26  1  0
 21 27  2  0
 23 28  1  0
 23 29  2  0
 30 24  1  0
 25 31  1  0
 25 32  2  0
 26 33  2  0
 34 27  1  0
 28 30  1  0
 31 35  1  0
 33 36  1  0
 33 34  1  0
 35 37  1  0
V   20 *
A    2
 C04
A    3
 C02
A    4
 C47
A    5
 C01
A    6
 N12
A    7
 O48
A    8
 O03
A    9
 C57
A   10
 C13
A   11
 N58
A   12
 C78
A   13
 C14
A   14
 C19
A   15
 C59
A   16
 C81
A   17
 C82
A   18
 C15
A   19
 C20
A   20
 X  
A   21
 C1 
A   22
 O60
A   23
 C16
A   24
 C84
A   25
 C21
A   26
 C2 
A   27
 N5 
A   28
 N17
A   29
 O18
A   30
 C83
A   31
 O22
A   32
 O23
A   33
 C3 
A   34
 O4 
A   35
 C50
A   36
 C4 
A   37
 C53
M  END
>  <XChem_code>  (70) 
AG7§1

>  <Occupancy>  (70) 
[1.0, 1.0, 1.0, 1.0, 1.0, 1.0, 1.0, 1.0, 1.0, 1.0, 1.0, 1.0, 1.0, 1.0, 1.0, 1.0, 1.0, 1.0, 1.0, 1.0, 1.0, 1.0, 1.0, 1.0, 1.0, 1.0, 1.0, 1.0, 1.0, 1.0, 1.0, 1.0, 1.0, 1.0, 1.0, 1.0, 1.0, 1.0, 1.0, 1.0, 1.0, 1.0, 1.0, 1.0]

>  <TempFactor>  (70) 
[27.43, 24.24, 28.92, 30.71, 25.26, 31.62, 25.98, 30.07, 31.48, 26.52, 28.51, 32.53, 36.38, 29.74, 29.67, 29.92, 32.9, 28.44, 30.67, 27.23, 22.26, 24.15, 27.42, 27.01, 29.05, 33.89, 30.31, 32.23, 39.3, 25.88, 27.54, 34.34, 31.54, 28.56, 32.59, 25.05, 28.93, 29.93, 36.51, 31.26, 26.19, 27.65, 26.83, 43.14]

>  <accession>  (70) 
7L8H_A

>  <description>  (70) 
Chain A, 3C Protease [enterovirus D68]

>  <evalue>  (70) 
8.3305400000000003e-132

>  <pdb_code>  (70) 
7L8H

>  <chain>  (70) 
A

>  <ligands>  (70) 
[{'chain_id': 'A', 'author_residue_number': 201, 'author_insertion_code': '', 'chem_comp_id': 'AG7', 'alternate_conformers': 0, 'entity_id': 2, 'struct_asym_id': 'C', 'residue_number': 1, 'chem_comp_name': '4-{2-(4-FLUORO-BENZYL)-6-METHYL-5-[(5-METHYL-ISOXAZOLE-3-CARBONYL)-AMINO]-4-OXO-HEPTANOYLAMINO}-5-(2-OXO-PYRROLIDIN-3-YL)-PENTANOIC ACID ETHYL ESTER', 'weight': 600.678, 'carbohydrate_polymer': False, 'branch_name': ''}, {'chain_id': 'B', 'author_residue_number': 201, 'author_insertion_code': '', 'chem_comp_id': 'AG7', 'alternate_conformers': 0, 'entity_id': 2, 'struct_asym_id': 'D', 'residue_number': 1, 'chem_comp_name': '4-{2-(4-FLUORO-BENZYL)-6-METHYL-5-[(5-METHYL-ISOXAZOLE-3-CARBONYL)-AMINO]-4-OXO-HEPTANOYLAMINO}-5-(2-OXO-PYRROLIDIN-3-YL)-PENTANOIC ACID ETHYL ESTER', 'weight': 600.678, 'carbohydrate_polymer': False, 'branch_name': ''}]

>  <ligand_codes>  (70) 
['AG7', 'AG7']

>  <cofactor_codes>  (70) 
[]

>  <has_cofactor>  (70) 
False

>  <covalent>  (70) 
True

>  <base_name>  (70) 
7L8H

>  <lig_resn>  (70) 
AG7

>  <lig_resi>  (70) 
201

>  <lig_chain>  (70) 
A

>  <lig_segi>  (70) 
C

>  <lig_alt>  (70) 


>  <polymer_chain>  (70) 
A

>  <single_smiles>  (70) 
CCOC(=O)CC[C@H](C[C@@H]1CCNC1=O)NC(=O)[C@@H](CC(=O)[C@@H](NC(=O)c2cc(C)on2)C(C)C)Cc3ccc(F)cc3

$$$$
AG7P1S21
     RDKit          3D

 11 10  0  0  0  0  0  0  0  0999 V2000
   -7.4790   10.1100  -32.3050 C   0  0  0  0  0  0  0  0  0  0  0  0
   -7.5720   10.2480  -33.8100 C   0  0  2  0  0  0  0  0  0  0  0  0
   -8.6560   11.1530  -34.1940 N   0  0  0  0  0  0  0  0  0  0  0  0
   -7.9420    8.8790  -34.3950 C   0  0  2  0  0  0  0  0  0  0  0  0
   -8.0380    8.7560  -35.9460 C   0  0  0  0  0  0  0  0  0  0  0  0
   -9.4950    8.1700  -33.9330 R   0  0  0  0  0  0  0  0  0  0  0  0
   -6.7120    9.1220  -36.6620 C   0  0  0  0  0  0  0  0  0  0  0  0
   -6.6630    9.2000  -38.0780 O   0  0  0  0  0  0  0  0  0  0  0  0
   -5.7350    9.3330  -36.0330 O   0  0  0  0  0  0  0  0  0  0  0  0
   -7.2150   10.3580  -38.6790 C   0  0  0  0  0  0  0  0  0  0  0  0
   -6.0980   11.1210  -39.4160 C   0  0  0  0  0  0  0  0  0  0  0  0
  2  1  1  1
  3  2  1  0
  2  4  1  0
  4  5  1  0
  4  6  1  1
  5  7  1  0
  7  8  1  0
  7  9  2  0
  8 10  1  0
 10 11  1  0
V    6 *
A    2
 C13
A    4
 C19
A    5
 C20
A    6
 X  
A    7
 C21
A    8
 O22
A    9
 O23
A   10
 C50
A   11
 C53
M  END
>  <XChem_code>  (71) 
AG7§1

>  <Occupancy>  (71) 
[1.0, 1.0, 1.0, 1.0, 1.0, 1.0, 1.0, 1.0, 1.0, 1.0, 1.0, 1.0, 1.0, 1.0, 1.0, 1.0, 1.0, 1.0, 1.0, 1.0, 1.0, 1.0, 1.0, 1.0, 1.0, 1.0, 1.0, 1.0, 1.0, 1.0, 1.0, 1.0, 1.0, 1.0, 1.0, 1.0, 1.0, 1.0, 1.0, 1.0, 1.0, 1.0, 1.0, 1.0]

>  <TempFactor>  (71) 
[27.43, 24.24, 28.92, 30.71, 25.26, 31.62, 25.98, 30.07, 31.48, 26.52, 28.51, 32.53, 36.38, 29.74, 29.67, 29.92, 32.9, 28.44, 30.67, 27.23, 22.26, 24.15, 27.42, 27.01, 29.05, 33.89, 30.31, 32.23, 39.3, 25.88, 27.54, 34.34, 31.54, 28.56, 32.59, 25.05, 28.93, 29.93, 36.51, 31.26, 26.19, 27.65, 26.83, 43.14]

>  <accession>  (71) 
7L8H_A

>  <description>  (71) 
Chain A, 3C Protease [enterovirus D68]

>  <evalue>  (71) 
8.3305400000000003e-132

>  <pdb_code>  (71) 
7L8H

>  <chain>  (71) 
A

>  <ligands>  (71) 
[{'chain_id': 'A', 'author_residue_number': 201, 'author_insertion_code': '', 'chem_comp_id': 'AG7', 'alternate_conformers': 0, 'entity_id': 2, 'struct_asym_id': 'C', 'residue_number': 1, 'chem_comp_name': '4-{2-(4-FLUORO-BENZYL)-6-METHYL-5-[(5-METHYL-ISOXAZOLE-3-CARBONYL)-AMINO]-4-OXO-HEPTANOYLAMINO}-5-(2-OXO-PYRROLIDIN-3-YL)-PENTANOIC ACID ETHYL ESTER', 'weight': 600.678, 'carbohydrate_polymer': False, 'branch_name': ''}, {'chain_id': 'B', 'author_residue_number': 201, 'author_insertion_code': '', 'chem_comp_id': 'AG7', 'alternate_conformers': 0, 'entity_id': 2, 'struct_asym_id': 'D', 'residue_number': 1, 'chem_comp_name': '4-{2-(4-FLUORO-BENZYL)-6-METHYL-5-[(5-METHYL-ISOXAZOLE-3-CARBONYL)-AMINO]-4-OXO-HEPTANOYLAMINO}-5-(2-OXO-PYRROLIDIN-3-YL)-PENTANOIC ACID ETHYL ESTER', 'weight': 600.678, 'carbohydrate_polymer': False, 'branch_name': ''}]

>  <ligand_codes>  (71) 
['AG7', 'AG7']

>  <cofactor_codes>  (71) 
[]

>  <has_cofactor>  (71) 
False

>  <covalent>  (71) 
True

>  <base_name>  (71) 
7L8H

>  <lig_resn>  (71) 
AG7

>  <lig_resi>  (71) 
201

>  <lig_chain>  (71) 
A

>  <lig_segi>  (71) 
C

>  <lig_alt>  (71) 


>  <polymer_chain>  (71) 
A

>  <single_smiles>  (71) 
CCOC(=O)CC[C@H](C[C@@H]1CCNC1=O)NC(=O)[C@@H](CC(=O)[C@@H](NC(=O)c2cc(C)on2)C(C)C)Cc3ccc(F)cc3

$$$$
AG7P1S22
     RDKit          3D

 20 20  0  0  0  0  0  0  0  0999 V2000
   -9.8220   13.0040  -36.6320 C   0  0  0  0  0  0  0  0  0  0  0  0
   -9.6070   13.3430  -35.1580 C   0  0  1  0  0  0  0  0  0  0  0  0
   -8.3860   12.4890  -34.7650 C   0  0  0  0  0  0  0  0  0  0  0  0
   -9.3780   14.8340  -34.9810 C   0  0  0  0  0  0  0  0  0  0  0  0
   -7.2780   12.8740  -34.9380 O   0  0  0  0  0  0  0  0  0  0  0  0
   -8.9670   15.1660  -33.5270 C   0  0  0  0  0  0  0  0  0  0  0  0
   -9.0670   14.3600  -32.6690 O   0  0  0  0  0  0  0  0  0  0  0  0
   -8.4270   16.5590  -33.1920 C   0  0  1  0  0  0  0  0  0  0  0  0
   -8.8290   16.9260  -31.8420 N   0  0  0  0  0  0  0  0  0  0  0  0
   -6.9070   16.5400  -33.3360 C   0  0  0  0  0  0  0  0  0  0  0  0
   -9.9310   17.8800  -31.6460 C   0  0  0  0  0  0  0  0  0  0  0  0
   -6.3050   15.3610  -32.5860 C   0  0  0  0  0  0  0  0  0  0  0  0
   -6.3080   17.8490  -32.7930 C   0  0  0  0  0  0  0  0  0  0  0  0
  -10.3610   18.2920  -30.2190 C   0  0  0  0  0  0  0  0  0  0  0  0
  -10.4920   18.3500  -32.5750 O   0  0  0  0  0  0  0  0  0  0  0  0
  -11.4490   19.0700  -29.8790 C   0  0  0  0  0  0  0  0  0  0  0  0
   -9.7220   17.9610  -29.0990 N   0  0  0  0  0  0  0  0  0  0  0  0
  -11.4560   19.2030  -28.5220 C   0  0  0  0  0  0  0  0  0  0  0  0
  -10.4040   18.5290  -28.0300 O   0  0  0  0  0  0  0  0  0  0  0  0
  -12.4800   19.9840  -27.6840 C   0  0  0  0  0  0  0  0  0  0  0  0
  2  1  1  6
  2  3  1  0
  2  4  1  0
  3  5  2  0
  6  4  1  0
  6  7  2  0
  6  8  1  0
  8  9  1  1
  8 10  1  0
  9 11  1  0
 10 12  1  0
 10 13  1  0
 14 11  1  0
 11 15  2  0
 14 16  1  0
 14 17  2  0
 16 18  2  0
 19 17  1  0
 18 20  1  0
 18 19  1  0
A    2
 C04
A    4
 C02
A    5
 O48
A    6
 C01
A    7
 O03
A    8
 C57
A    9
 N58
A   10
 C78
A   11
 C59
A   12
 C81
A   13
 C82
A   14
 C1 
A   15
 O60
A   16
 C2 
A   17
 N5 
A   18
 C3 
A   19
 O4 
A   20
 C4 
M  END
>  <XChem_code>  (72) 
AG7§1

>  <Occupancy>  (72) 
[1.0, 1.0, 1.0, 1.0, 1.0, 1.0, 1.0, 1.0, 1.0, 1.0, 1.0, 1.0, 1.0, 1.0, 1.0, 1.0, 1.0, 1.0, 1.0, 1.0, 1.0, 1.0, 1.0, 1.0, 1.0, 1.0, 1.0, 1.0, 1.0, 1.0, 1.0, 1.0, 1.0, 1.0, 1.0, 1.0, 1.0, 1.0, 1.0, 1.0, 1.0, 1.0, 1.0, 1.0]

>  <TempFactor>  (72) 
[27.43, 24.24, 28.92, 30.71, 25.26, 31.62, 25.98, 30.07, 31.48, 26.52, 28.51, 32.53, 36.38, 29.74, 29.67, 29.92, 32.9, 28.44, 30.67, 27.23, 22.26, 24.15, 27.42, 27.01, 29.05, 33.89, 30.31, 32.23, 39.3, 25.88, 27.54, 34.34, 31.54, 28.56, 32.59, 25.05, 28.93, 29.93, 36.51, 31.26, 26.19, 27.65, 26.83, 43.14]

>  <accession>  (72) 
7L8H_A

>  <description>  (72) 
Chain A, 3C Protease [enterovirus D68]

>  <evalue>  (72) 
8.3305400000000003e-132

>  <pdb_code>  (72) 
7L8H

>  <chain>  (72) 
A

>  <ligands>  (72) 
[{'chain_id': 'A', 'author_residue_number': 201, 'author_insertion_code': '', 'chem_comp_id': 'AG7', 'alternate_conformers': 0, 'entity_id': 2, 'struct_asym_id': 'C', 'residue_number': 1, 'chem_comp_name': '4-{2-(4-FLUORO-BENZYL)-6-METHYL-5-[(5-METHYL-ISOXAZOLE-3-CARBONYL)-AMINO]-4-OXO-HEPTANOYLAMINO}-5-(2-OXO-PYRROLIDIN-3-YL)-PENTANOIC ACID ETHYL ESTER', 'weight': 600.678, 'carbohydrate_polymer': False, 'branch_name': ''}, {'chain_id': 'B', 'author_residue_number': 201, 'author_insertion_code': '', 'chem_comp_id': 'AG7', 'alternate_conformers': 0, 'entity_id': 2, 'struct_asym_id': 'D', 'residue_number': 1, 'chem_comp_name': '4-{2-(4-FLUORO-BENZYL)-6-METHYL-5-[(5-METHYL-ISOXAZOLE-3-CARBONYL)-AMINO]-4-OXO-HEPTANOYLAMINO}-5-(2-OXO-PYRROLIDIN-3-YL)-PENTANOIC ACID ETHYL ESTER', 'weight': 600.678, 'carbohydrate_polymer': False, 'branch_name': ''}]

>  <ligand_codes>  (72) 
['AG7', 'AG7']

>  <cofactor_codes>  (72) 
[]

>  <has_cofactor>  (72) 
False

>  <covalent>  (72) 
True

>  <base_name>  (72) 
7L8H

>  <lig_resn>  (72) 
AG7

>  <lig_resi>  (72) 
201

>  <lig_chain>  (72) 
A

>  <lig_segi>  (72) 
C

>  <lig_alt>  (72) 


>  <polymer_chain>  (72) 
A

>  <single_smiles>  (72) 
CCOC(=O)CC[C@H](C[C@@H]1CCNC1=O)NC(=O)[C@@H](CC(=O)[C@@H](NC(=O)c2cc(C)on2)C(C)C)Cc3ccc(F)cc3

$$$$
AG7P1S23
     RDKit          3D

 30 30  0  0  0  0  0  0  0  0999 V2000
   -7.4790   10.1100  -32.3050 C   0  0  0  0  0  0  0  0  0  0  0  0
   -7.5720   10.2480  -33.8100 C   0  0  2  0  0  0  0  0  0  0  0  0
   -8.6560   11.1530  -34.1940 N   0  0  0  0  0  0  0  0  0  0  0  0
   -7.9420    8.8790  -34.3950 C   0  0  2  0  0  0  0  0  0  0  0  0
   -8.3860   12.4890  -34.7650 C   0  0  0  0  0  0  0  0  0  0  0  0
   -8.0380    8.7560  -35.9460 C   0  0  0  0  0  0  0  0  0  0  0  0
   -9.4950    8.1700  -33.9330 R   0  0  0  0  0  0  0  0  0  0  0  0
   -9.6070   13.3430  -35.1580 C   0  0  1  0  0  0  0  0  0  0  0  0
   -7.2780   12.8740  -34.9380 O   0  0  0  0  0  0  0  0  0  0  0  0
   -6.7120    9.1220  -36.6620 C   0  0  0  0  0  0  0  0  0  0  0  0
   -9.3780   14.8340  -34.9810 C   0  0  0  0  0  0  0  0  0  0  0  0
   -9.8220   13.0040  -36.6320 C   0  0  0  0  0  0  0  0  0  0  0  0
   -6.6630    9.2000  -38.0780 O   0  0  0  0  0  0  0  0  0  0  0  0
   -5.7350    9.3330  -36.0330 O   0  0  0  0  0  0  0  0  0  0  0  0
   -8.9670   15.1660  -33.5270 C   0  0  0  0  0  0  0  0  0  0  0  0
  -10.9810   13.8390  -37.2650 C   0  0  0  0  0  0  0  0  0  0  0  0
   -7.2150   10.3580  -38.6790 C   0  0  0  0  0  0  0  0  0  0  0  0
   -8.4270   16.5590  -33.1920 C   0  0  1  0  0  0  0  0  0  0  0  0
   -9.0670   14.3600  -32.6690 O   0  0  0  0  0  0  0  0  0  0  0  0
  -12.4340   13.3870  -37.0950 C   0  0  0  0  0  0  0  0  0  0  0  0
  -10.6550   15.1030  -38.0670 C   0  0  0  0  0  0  0  0  0  0  0  0
   -6.0980   11.1210  -39.4160 C   0  0  0  0  0  0  0  0  0  0  0  0
   -8.8290   16.9260  -31.8420 N   0  0  0  0  0  0  0  0  0  0  0  0
   -6.9070   16.5400  -33.3360 C   0  0  0  0  0  0  0  0  0  0  0  0
  -13.5670   14.2110  -37.7240 C   0  0  0  0  0  0  0  0  0  0  0  0
  -11.7870   15.9270  -38.6960 C   0  0  0  0  0  0  0  0  0  0  0  0
   -6.3050   15.3610  -32.5860 C   0  0  0  0  0  0  0  0  0  0  0  0
   -6.3080   17.8490  -32.7930 C   0  0  0  0  0  0  0  0  0  0  0  0
  -13.2350   15.4760  -38.5200 C   0  0  0  0  0  0  0  0  0  0  0  0
  -14.2410   16.2030  -39.0780 F   0  0  0  0  0  0  0  0  0  0  0  0
  2  1  1  1
  3  2  1  0
  2  4  1  0
  3  5  1  0
  4  6  1  0
  4  7  1  1
  8  5  1  0
  5  9  2  0
  6 10  1  0
  8 11  1  6
  8 12  1  0
 10 13  1  0
 10 14  2  0
 15 11  1  0
 12 16  1  0
 13 17  1  0
 15 18  1  0
 15 19  2  0
 16 20  2  0
 16 21  1  0
 17 22  1  0
 18 23  1  1
 18 24  1  0
 20 25  1  0
 26 21  2  0
 24 27  1  0
 24 28  1  0
 25 29  2  0
 29 26  1  0
 29 30  1  0
V    7 *
A    2
 C13
A    3
 N12
A    4
 C19
A    5
 C47
A    6
 C20
A    7
 X  
A    8
 C04
A    9
 O48
A   10
 C21
A   11
 C02
A   12
 C05
A   13
 O22
A   14
 O23
A   15
 C01
A   16
 C06
A   17
 C50
A   18
 C57
A   19
 O03
A   20
 C07
A   21
 C11
A   22
 C53
A   24
 C78
A   25
 C08
A   26
 C10
A   27
 C81
A   28
 C82
A   29
 C09
A   30
 F1 
M  END
>  <XChem_code>  (73) 
AG7§1

>  <Occupancy>  (73) 
[1.0, 1.0, 1.0, 1.0, 1.0, 1.0, 1.0, 1.0, 1.0, 1.0, 1.0, 1.0, 1.0, 1.0, 1.0, 1.0, 1.0, 1.0, 1.0, 1.0, 1.0, 1.0, 1.0, 1.0, 1.0, 1.0, 1.0, 1.0, 1.0, 1.0, 1.0, 1.0, 1.0, 1.0, 1.0, 1.0, 1.0, 1.0, 1.0, 1.0, 1.0, 1.0, 1.0, 1.0]

>  <TempFactor>  (73) 
[27.43, 24.24, 28.92, 30.71, 25.26, 31.62, 25.98, 30.07, 31.48, 26.52, 28.51, 32.53, 36.38, 29.74, 29.67, 29.92, 32.9, 28.44, 30.67, 27.23, 22.26, 24.15, 27.42, 27.01, 29.05, 33.89, 30.31, 32.23, 39.3, 25.88, 27.54, 34.34, 31.54, 28.56, 32.59, 25.05, 28.93, 29.93, 36.51, 31.26, 26.19, 27.65, 26.83, 43.14]

>  <accession>  (73) 
7L8H_A

>  <description>  (73) 
Chain A, 3C Protease [enterovirus D68]

>  <evalue>  (73) 
8.3305400000000003e-132

>  <pdb_code>  (73) 
7L8H

>  <chain>  (73) 
A

>  <ligands>  (73) 
[{'chain_id': 'A', 'author_residue_number': 201, 'author_insertion_code': '', 'chem_comp_id': 'AG7', 'alternate_conformers': 0, 'entity_id': 2, 'struct_asym_id': 'C', 'residue_number': 1, 'chem_comp_name': '4-{2-(4-FLUORO-BENZYL)-6-METHYL-5-[(5-METHYL-ISOXAZOLE-3-CARBONYL)-AMINO]-4-OXO-HEPTANOYLAMINO}-5-(2-OXO-PYRROLIDIN-3-YL)-PENTANOIC ACID ETHYL ESTER', 'weight': 600.678, 'carbohydrate_polymer': False, 'branch_name': ''}, {'chain_id': 'B', 'author_residue_number': 201, 'author_insertion_code': '', 'chem_comp_id': 'AG7', 'alternate_conformers': 0, 'entity_id': 2, 'struct_asym_id': 'D', 'residue_number': 1, 'chem_comp_name': '4-{2-(4-FLUORO-BENZYL)-6-METHYL-5-[(5-METHYL-ISOXAZOLE-3-CARBONYL)-AMINO]-4-OXO-HEPTANOYLAMINO}-5-(2-OXO-PYRROLIDIN-3-YL)-PENTANOIC ACID ETHYL ESTER', 'weight': 600.678, 'carbohydrate_polymer': False, 'branch_name': ''}]

>  <ligand_codes>  (73) 
['AG7', 'AG7']

>  <cofactor_codes>  (73) 
[]

>  <has_cofactor>  (73) 
False

>  <covalent>  (73) 
True

>  <base_name>  (73) 
7L8H

>  <lig_resn>  (73) 
AG7

>  <lig_resi>  (73) 
201

>  <lig_chain>  (73) 
A

>  <lig_segi>  (73) 
C

>  <lig_alt>  (73) 


>  <polymer_chain>  (73) 
A

>  <single_smiles>  (73) 
CCOC(=O)CC[C@H](C[C@@H]1CCNC1=O)NC(=O)[C@@H](CC(=O)[C@@H](NC(=O)c2cc(C)on2)C(C)C)Cc3ccc(F)cc3

$$$$
AG7P1S24
     RDKit          3D

 29 29  0  0  0  0  0  0  0  0999 V2000
   -9.8220   13.0040  -36.6320 C   0  0  0  0  0  0  0  0  0  0  0  0
   -9.6070   13.3430  -35.1580 C   0  0  2  0  0  0  0  0  0  0  0  0
   -9.3780   14.8340  -34.9810 C   0  0  0  0  0  0  0  0  0  0  0  0
   -8.3860   12.4890  -34.7650 C   0  0  0  0  0  0  0  0  0  0  0  0
   -8.9670   15.1660  -33.5270 C   0  0  0  0  0  0  0  0  0  0  0  0
   -8.6560   11.1530  -34.1940 N   0  0  0  0  0  0  0  0  0  0  0  0
   -7.2780   12.8740  -34.9380 O   0  0  0  0  0  0  0  0  0  0  0  0
   -8.4270   16.5590  -33.1920 C   0  0  1  0  0  0  0  0  0  0  0  0
   -9.0670   14.3600  -32.6690 O   0  0  0  0  0  0  0  0  0  0  0  0
   -7.5720   10.2480  -33.8100 C   0  0  1  0  0  0  0  0  0  0  0  0
   -8.8290   16.9260  -31.8420 N   0  0  0  0  0  0  0  0  0  0  0  0
   -6.9070   16.5400  -33.3360 C   0  0  0  0  0  0  0  0  0  0  0  0
   -7.4790   10.1100  -32.3050 C   0  0  0  0  0  0  0  0  0  0  0  0
   -7.9420    8.8790  -34.3950 C   0  0  2  0  0  0  0  0  0  0  0  0
   -6.3050   15.3610  -32.5860 C   0  0  0  0  0  0  0  0  0  0  0  0
   -6.3080   17.8490  -32.7930 C   0  0  0  0  0  0  0  0  0  0  0  0
   -6.9650   11.3310  -31.6770 C   0  0  1  0  0  0  0  0  0  0  0  0
   -8.0380    8.7560  -35.9460 C   0  0  0  0  0  0  0  0  0  0  0  0
   -9.4950    8.1700  -33.9330 R   0  0  0  0  0  0  0  0  0  0  0  0
   -6.7630   11.0640  -30.1170 C   0  0  0  0  0  0  0  0  0  0  0  0
   -5.5720   11.6820  -32.1610 C   0  0  0  0  0  0  0  0  0  0  0  0
   -6.7120    9.1220  -36.6620 C   0  0  0  0  0  0  0  0  0  0  0  0
   -5.5900   11.6330  -29.7910 N   0  0  0  0  0  0  0  0  0  0  0  0
   -7.4890   10.4750  -29.3970 O   0  0  0  0  0  0  0  0  0  0  0  0
   -4.9760   12.2950  -31.0880 C   0  0  0  0  0  0  0  0  0  0  0  0
   -6.6630    9.2000  -38.0780 O   0  0  0  0  0  0  0  0  0  0  0  0
   -5.7350    9.3330  -36.0330 O   0  0  0  0  0  0  0  0  0  0  0  0
   -7.2150   10.3580  -38.6790 C   0  0  0  0  0  0  0  0  0  0  0  0
   -6.0980   11.1210  -39.4160 C   0  0  0  0  0  0  0  0  0  0  0  0
  2  1  1  6
  2  3  1  0
  2  4  1  0
  5  3  1  0
  6  4  1  0
  4  7  2  0
  5  8  1  0
  5  9  2  0
  6 10  1  0
  8 11  1  1
  8 12  1  0
 10 13  1  1
 10 14  1  0
 12 15  1  0
 12 16  1  0
 17 13  1  6
 14 18  1  0
 14 19  1  1
 17 20  1  0
 17 21  1  0
 18 22  1  0
 20 23  1  0
 20 24  2  0
 25 21  1  0
 22 26  1  0
 22 27  2  0
 23 25  1  0
 26 28  1  0
 28 29  1  0
V   19 *
A    2
 C04
A    3
 C02
A    4
 C47
A    5
 C01
A    6
 N12
A    7
 O48
A    8
 C57
A    9
 O03
A   10
 C13
A   12
 C78
A   13
 C14
A   14
 C19
A   15
 C81
A   16
 C82
A   17
 C15
A   18
 C20
A   19
 X  
A   20
 C16
A   21
 C84
A   22
 C21
A   23
 N17
A   24
 O18
A   25
 C83
A   26
 O22
A   27
 O23
A   28
 C50
A   29
 C53
M  END
>  <XChem_code>  (74) 
AG7§1

>  <Occupancy>  (74) 
[1.0, 1.0, 1.0, 1.0, 1.0, 1.0, 1.0, 1.0, 1.0, 1.0, 1.0, 1.0, 1.0, 1.0, 1.0, 1.0, 1.0, 1.0, 1.0, 1.0, 1.0, 1.0, 1.0, 1.0, 1.0, 1.0, 1.0, 1.0, 1.0, 1.0, 1.0, 1.0, 1.0, 1.0, 1.0, 1.0, 1.0, 1.0, 1.0, 1.0, 1.0, 1.0, 1.0, 1.0]

>  <TempFactor>  (74) 
[27.43, 24.24, 28.92, 30.71, 25.26, 31.62, 25.98, 30.07, 31.48, 26.52, 28.51, 32.53, 36.38, 29.74, 29.67, 29.92, 32.9, 28.44, 30.67, 27.23, 22.26, 24.15, 27.42, 27.01, 29.05, 33.89, 30.31, 32.23, 39.3, 25.88, 27.54, 34.34, 31.54, 28.56, 32.59, 25.05, 28.93, 29.93, 36.51, 31.26, 26.19, 27.65, 26.83, 43.14]

>  <accession>  (74) 
7L8H_A

>  <description>  (74) 
Chain A, 3C Protease [enterovirus D68]

>  <evalue>  (74) 
8.3305400000000003e-132

>  <pdb_code>  (74) 
7L8H

>  <chain>  (74) 
A

>  <ligands>  (74) 
[{'chain_id': 'A', 'author_residue_number': 201, 'author_insertion_code': '', 'chem_comp_id': 'AG7', 'alternate_conformers': 0, 'entity_id': 2, 'struct_asym_id': 'C', 'residue_number': 1, 'chem_comp_name': '4-{2-(4-FLUORO-BENZYL)-6-METHYL-5-[(5-METHYL-ISOXAZOLE-3-CARBONYL)-AMINO]-4-OXO-HEPTANOYLAMINO}-5-(2-OXO-PYRROLIDIN-3-YL)-PENTANOIC ACID ETHYL ESTER', 'weight': 600.678, 'carbohydrate_polymer': False, 'branch_name': ''}, {'chain_id': 'B', 'author_residue_number': 201, 'author_insertion_code': '', 'chem_comp_id': 'AG7', 'alternate_conformers': 0, 'entity_id': 2, 'struct_asym_id': 'D', 'residue_number': 1, 'chem_comp_name': '4-{2-(4-FLUORO-BENZYL)-6-METHYL-5-[(5-METHYL-ISOXAZOLE-3-CARBONYL)-AMINO]-4-OXO-HEPTANOYLAMINO}-5-(2-OXO-PYRROLIDIN-3-YL)-PENTANOIC ACID ETHYL ESTER', 'weight': 600.678, 'carbohydrate_polymer': False, 'branch_name': ''}]

>  <ligand_codes>  (74) 
['AG7', 'AG7']

>  <cofactor_codes>  (74) 
[]

>  <has_cofactor>  (74) 
False

>  <covalent>  (74) 
True

>  <base_name>  (74) 
7L8H

>  <lig_resn>  (74) 
AG7

>  <lig_resi>  (74) 
201

>  <lig_chain>  (74) 
A

>  <lig_segi>  (74) 
C

>  <lig_alt>  (74) 


>  <polymer_chain>  (74) 
A

>  <single_smiles>  (74) 
CCOC(=O)CC[C@H](C[C@@H]1CCNC1=O)NC(=O)[C@@H](CC(=O)[C@@H](NC(=O)c2cc(C)on2)C(C)C)Cc3ccc(F)cc3

$$$$
AG7P1S25
     RDKit          3D

 12 11  0  0  0  0  0  0  0  0999 V2000
   -9.8220   13.0040  -36.6320 C   0  0  0  0  0  0  0  0  0  0  0  0
   -9.6070   13.3430  -35.1580 C   0  0  2  0  0  0  0  0  0  0  0  0
   -9.3780   14.8340  -34.9810 C   0  0  0  0  0  0  0  0  0  0  0  0
   -8.3860   12.4890  -34.7650 C   0  0  0  0  0  0  0  0  0  0  0  0
   -8.9670   15.1660  -33.5270 C   0  0  0  0  0  0  0  0  0  0  0  0
   -7.2780   12.8740  -34.9380 O   0  0  0  0  0  0  0  0  0  0  0  0
   -8.4270   16.5590  -33.1920 C   0  0  1  0  0  0  0  0  0  0  0  0
   -9.0670   14.3600  -32.6690 O   0  0  0  0  0  0  0  0  0  0  0  0
   -8.8290   16.9260  -31.8420 N   0  0  0  0  0  0  0  0  0  0  0  0
   -6.9070   16.5400  -33.3360 C   0  0  0  0  0  0  0  0  0  0  0  0
   -6.3050   15.3610  -32.5860 C   0  0  0  0  0  0  0  0  0  0  0  0
   -6.3080   17.8490  -32.7930 C   0  0  0  0  0  0  0  0  0  0  0  0
  2  1  1  6
  2  3  1  0
  2  4  1  0
  5  3  1  0
  4  6  2  0
  5  7  1  0
  5  8  2  0
  7  9  1  1
  7 10  1  0
 10 11  1  0
 10 12  1  0
A    2
 C04
A    3
 C02
A    5
 C01
A    6
 O48
A    7
 C57
A    8
 O03
A   10
 C78
A   11
 C81
A   12
 C82
M  END
>  <XChem_code>  (75) 
AG7§1

>  <Occupancy>  (75) 
[1.0, 1.0, 1.0, 1.0, 1.0, 1.0, 1.0, 1.0, 1.0, 1.0, 1.0, 1.0, 1.0, 1.0, 1.0, 1.0, 1.0, 1.0, 1.0, 1.0, 1.0, 1.0, 1.0, 1.0, 1.0, 1.0, 1.0, 1.0, 1.0, 1.0, 1.0, 1.0, 1.0, 1.0, 1.0, 1.0, 1.0, 1.0, 1.0, 1.0, 1.0, 1.0, 1.0, 1.0]

>  <TempFactor>  (75) 
[27.43, 24.24, 28.92, 30.71, 25.26, 31.62, 25.98, 30.07, 31.48, 26.52, 28.51, 32.53, 36.38, 29.74, 29.67, 29.92, 32.9, 28.44, 30.67, 27.23, 22.26, 24.15, 27.42, 27.01, 29.05, 33.89, 30.31, 32.23, 39.3, 25.88, 27.54, 34.34, 31.54, 28.56, 32.59, 25.05, 28.93, 29.93, 36.51, 31.26, 26.19, 27.65, 26.83, 43.14]

>  <accession>  (75) 
7L8H_A

>  <description>  (75) 
Chain A, 3C Protease [enterovirus D68]

>  <evalue>  (75) 
8.3305400000000003e-132

>  <pdb_code>  (75) 
7L8H

>  <chain>  (75) 
A

>  <ligands>  (75) 
[{'chain_id': 'A', 'author_residue_number': 201, 'author_insertion_code': '', 'chem_comp_id': 'AG7', 'alternate_conformers': 0, 'entity_id': 2, 'struct_asym_id': 'C', 'residue_number': 1, 'chem_comp_name': '4-{2-(4-FLUORO-BENZYL)-6-METHYL-5-[(5-METHYL-ISOXAZOLE-3-CARBONYL)-AMINO]-4-OXO-HEPTANOYLAMINO}-5-(2-OXO-PYRROLIDIN-3-YL)-PENTANOIC ACID ETHYL ESTER', 'weight': 600.678, 'carbohydrate_polymer': False, 'branch_name': ''}, {'chain_id': 'B', 'author_residue_number': 201, 'author_insertion_code': '', 'chem_comp_id': 'AG7', 'alternate_conformers': 0, 'entity_id': 2, 'struct_asym_id': 'D', 'residue_number': 1, 'chem_comp_name': '4-{2-(4-FLUORO-BENZYL)-6-METHYL-5-[(5-METHYL-ISOXAZOLE-3-CARBONYL)-AMINO]-4-OXO-HEPTANOYLAMINO}-5-(2-OXO-PYRROLIDIN-3-YL)-PENTANOIC ACID ETHYL ESTER', 'weight': 600.678, 'carbohydrate_polymer': False, 'branch_name': ''}]

>  <ligand_codes>  (75) 
['AG7', 'AG7']

>  <cofactor_codes>  (75) 
[]

>  <has_cofactor>  (75) 
False

>  <covalent>  (75) 
True

>  <base_name>  (75) 
7L8H

>  <lig_resn>  (75) 
AG7

>  <lig_resi>  (75) 
201

>  <lig_chain>  (75) 
A

>  <lig_segi>  (75) 
C

>  <lig_alt>  (75) 


>  <polymer_chain>  (75) 
A

>  <single_smiles>  (75) 
CCOC(=O)CC[C@H](C[C@@H]1CCNC1=O)NC(=O)[C@@H](CC(=O)[C@@H](NC(=O)c2cc(C)on2)C(C)C)Cc3ccc(F)cc3

$$$$
AG7P1S26
     RDKit          3D

 10  9  0  0  0  0  0  0  0  0999 V2000
   -7.4790   10.1100  -32.3050 C   0  0  0  0  0  0  0  0  0  0  0  0
   -7.5720   10.2480  -33.8100 C   0  0  0  0  0  0  0  0  0  0  0  0
   -7.9420    8.8790  -34.3950 C   0  0  2  0  0  0  0  0  0  0  0  0
   -8.0380    8.7560  -35.9460 C   0  0  0  0  0  0  0  0  0  0  0  0
   -9.4950    8.1700  -33.9330 R   0  0  0  0  0  0  0  0  0  0  0  0
   -6.7120    9.1220  -36.6620 C   0  0  0  0  0  0  0  0  0  0  0  0
   -6.6630    9.2000  -38.0780 O   0  0  0  0  0  0  0  0  0  0  0  0
   -5.7350    9.3330  -36.0330 O   0  0  0  0  0  0  0  0  0  0  0  0
   -7.2150   10.3580  -38.6790 C   0  0  0  0  0  0  0  0  0  0  0  0
   -6.0980   11.1210  -39.4160 C   0  0  0  0  0  0  0  0  0  0  0  0
  2  1  1  6
  2  3  1  0
  3  4  1  0
  3  5  1  1
  4  6  1  0
  6  7  1  0
  6  8  2  0
  7  9  1  0
  9 10  1  0
V    5 *
A    3
 C19
A    4
 C20
A    5
 X  
A    6
 C21
A    7
 O22
A    8
 O23
A    9
 C50
A   10
 C53
M  END
>  <XChem_code>  (76) 
AG7§1

>  <Occupancy>  (76) 
[1.0, 1.0, 1.0, 1.0, 1.0, 1.0, 1.0, 1.0, 1.0, 1.0, 1.0, 1.0, 1.0, 1.0, 1.0, 1.0, 1.0, 1.0, 1.0, 1.0, 1.0, 1.0, 1.0, 1.0, 1.0, 1.0, 1.0, 1.0, 1.0, 1.0, 1.0, 1.0, 1.0, 1.0, 1.0, 1.0, 1.0, 1.0, 1.0, 1.0, 1.0, 1.0, 1.0, 1.0]

>  <TempFactor>  (76) 
[27.43, 24.24, 28.92, 30.71, 25.26, 31.62, 25.98, 30.07, 31.48, 26.52, 28.51, 32.53, 36.38, 29.74, 29.67, 29.92, 32.9, 28.44, 30.67, 27.23, 22.26, 24.15, 27.42, 27.01, 29.05, 33.89, 30.31, 32.23, 39.3, 25.88, 27.54, 34.34, 31.54, 28.56, 32.59, 25.05, 28.93, 29.93, 36.51, 31.26, 26.19, 27.65, 26.83, 43.14]

>  <accession>  (76) 
7L8H_A

>  <description>  (76) 
Chain A, 3C Protease [enterovirus D68]

>  <evalue>  (76) 
8.3305400000000003e-132

>  <pdb_code>  (76) 
7L8H

>  <chain>  (76) 
A

>  <ligands>  (76) 
[{'chain_id': 'A', 'author_residue_number': 201, 'author_insertion_code': '', 'chem_comp_id': 'AG7', 'alternate_conformers': 0, 'entity_id': 2, 'struct_asym_id': 'C', 'residue_number': 1, 'chem_comp_name': '4-{2-(4-FLUORO-BENZYL)-6-METHYL-5-[(5-METHYL-ISOXAZOLE-3-CARBONYL)-AMINO]-4-OXO-HEPTANOYLAMINO}-5-(2-OXO-PYRROLIDIN-3-YL)-PENTANOIC ACID ETHYL ESTER', 'weight': 600.678, 'carbohydrate_polymer': False, 'branch_name': ''}, {'chain_id': 'B', 'author_residue_number': 201, 'author_insertion_code': '', 'chem_comp_id': 'AG7', 'alternate_conformers': 0, 'entity_id': 2, 'struct_asym_id': 'D', 'residue_number': 1, 'chem_comp_name': '4-{2-(4-FLUORO-BENZYL)-6-METHYL-5-[(5-METHYL-ISOXAZOLE-3-CARBONYL)-AMINO]-4-OXO-HEPTANOYLAMINO}-5-(2-OXO-PYRROLIDIN-3-YL)-PENTANOIC ACID ETHYL ESTER', 'weight': 600.678, 'carbohydrate_polymer': False, 'branch_name': ''}]

>  <ligand_codes>  (76) 
['AG7', 'AG7']

>  <cofactor_codes>  (76) 
[]

>  <has_cofactor>  (76) 
False

>  <covalent>  (76) 
True

>  <base_name>  (76) 
7L8H

>  <lig_resn>  (76) 
AG7

>  <lig_resi>  (76) 
201

>  <lig_chain>  (76) 
A

>  <lig_segi>  (76) 
C

>  <lig_alt>  (76) 


>  <polymer_chain>  (76) 
A

>  <single_smiles>  (76) 
CCOC(=O)CC[C@H](C[C@@H]1CCNC1=O)NC(=O)[C@@H](CC(=O)[C@@H](NC(=O)c2cc(C)on2)C(C)C)Cc3ccc(F)cc3

$$$$
AG7P1S27
     RDKit          3D

 21 21  0  0  0  0  0  0  0  0999 V2000
   -9.8220   13.0040  -36.6320 C   0  0  0  0  0  0  0  0  0  0  0  0
   -9.6070   13.3430  -35.1580 C   0  0  1  0  0  0  0  0  0  0  0  0
   -8.3860   12.4890  -34.7650 C   0  0  0  0  0  0  0  0  0  0  0  0
   -9.3780   14.8340  -34.9810 C   0  0  0  0  0  0  0  0  0  0  0  0
   -8.6560   11.1530  -34.1940 N   0  0  0  0  0  0  0  0  0  0  0  0
   -7.2780   12.8740  -34.9380 O   0  0  0  0  0  0  0  0  0  0  0  0
   -8.9670   15.1660  -33.5270 C   0  0  0  0  0  0  0  0  0  0  0  0
   -9.0670   14.3600  -32.6690 O   0  0  0  0  0  0  0  0  0  0  0  0
   -8.4270   16.5590  -33.1920 C   0  0  1  0  0  0  0  0  0  0  0  0
   -8.8290   16.9260  -31.8420 N   0  0  0  0  0  0  0  0  0  0  0  0
   -6.9070   16.5400  -33.3360 C   0  0  0  0  0  0  0  0  0  0  0  0
   -9.9310   17.8800  -31.6460 C   0  0  0  0  0  0  0  0  0  0  0  0
   -6.3050   15.3610  -32.5860 C   0  0  0  0  0  0  0  0  0  0  0  0
   -6.3080   17.8490  -32.7930 C   0  0  0  0  0  0  0  0  0  0  0  0
  -10.3610   18.2920  -30.2190 C   0  0  0  0  0  0  0  0  0  0  0  0
  -10.4920   18.3500  -32.5750 O   0  0  0  0  0  0  0  0  0  0  0  0
  -11.4490   19.0700  -29.8790 C   0  0  0  0  0  0  0  0  0  0  0  0
   -9.7220   17.9610  -29.0990 N   0  0  0  0  0  0  0  0  0  0  0  0
  -11.4560   19.2030  -28.5220 C   0  0  0  0  0  0  0  0  0  0  0  0
  -10.4040   18.5290  -28.0300 O   0  0  0  0  0  0  0  0  0  0  0  0
  -12.4800   19.9840  -27.6840 C   0  0  0  0  0  0  0  0  0  0  0  0
  2  1  1  6
  2  3  1  0
  2  4  1  0
  5  3  1  0
  3  6  2  0
  7  4  1  0
  7  8  2  0
  7  9  1  0
  9 10  1  1
  9 11  1  0
 10 12  1  0
 11 13  1  0
 11 14  1  0
 15 12  1  0
 12 16  2  0
 15 17  1  0
 15 18  2  0
 17 19  2  0
 20 18  1  0
 19 21  1  0
 19 20  1  0
A    2
 C04
A    3
 C47
A    4
 C02
A    6
 O48
A    7
 C01
A    8
 O03
A    9
 C57
A   10
 N58
A   11
 C78
A   12
 C59
A   13
 C81
A   14
 C82
A   15
 C1 
A   16
 O60
A   17
 C2 
A   18
 N5 
A   19
 C3 
A   20
 O4 
A   21
 C4 
M  END
>  <XChem_code>  (77) 
AG7§1

>  <Occupancy>  (77) 
[1.0, 1.0, 1.0, 1.0, 1.0, 1.0, 1.0, 1.0, 1.0, 1.0, 1.0, 1.0, 1.0, 1.0, 1.0, 1.0, 1.0, 1.0, 1.0, 1.0, 1.0, 1.0, 1.0, 1.0, 1.0, 1.0, 1.0, 1.0, 1.0, 1.0, 1.0, 1.0, 1.0, 1.0, 1.0, 1.0, 1.0, 1.0, 1.0, 1.0, 1.0, 1.0, 1.0, 1.0]

>  <TempFactor>  (77) 
[27.43, 24.24, 28.92, 30.71, 25.26, 31.62, 25.98, 30.07, 31.48, 26.52, 28.51, 32.53, 36.38, 29.74, 29.67, 29.92, 32.9, 28.44, 30.67, 27.23, 22.26, 24.15, 27.42, 27.01, 29.05, 33.89, 30.31, 32.23, 39.3, 25.88, 27.54, 34.34, 31.54, 28.56, 32.59, 25.05, 28.93, 29.93, 36.51, 31.26, 26.19, 27.65, 26.83, 43.14]

>  <accession>  (77) 
7L8H_A

>  <description>  (77) 
Chain A, 3C Protease [enterovirus D68]

>  <evalue>  (77) 
8.3305400000000003e-132

>  <pdb_code>  (77) 
7L8H

>  <chain>  (77) 
A

>  <ligands>  (77) 
[{'chain_id': 'A', 'author_residue_number': 201, 'author_insertion_code': '', 'chem_comp_id': 'AG7', 'alternate_conformers': 0, 'entity_id': 2, 'struct_asym_id': 'C', 'residue_number': 1, 'chem_comp_name': '4-{2-(4-FLUORO-BENZYL)-6-METHYL-5-[(5-METHYL-ISOXAZOLE-3-CARBONYL)-AMINO]-4-OXO-HEPTANOYLAMINO}-5-(2-OXO-PYRROLIDIN-3-YL)-PENTANOIC ACID ETHYL ESTER', 'weight': 600.678, 'carbohydrate_polymer': False, 'branch_name': ''}, {'chain_id': 'B', 'author_residue_number': 201, 'author_insertion_code': '', 'chem_comp_id': 'AG7', 'alternate_conformers': 0, 'entity_id': 2, 'struct_asym_id': 'D', 'residue_number': 1, 'chem_comp_name': '4-{2-(4-FLUORO-BENZYL)-6-METHYL-5-[(5-METHYL-ISOXAZOLE-3-CARBONYL)-AMINO]-4-OXO-HEPTANOYLAMINO}-5-(2-OXO-PYRROLIDIN-3-YL)-PENTANOIC ACID ETHYL ESTER', 'weight': 600.678, 'carbohydrate_polymer': False, 'branch_name': ''}]

>  <ligand_codes>  (77) 
['AG7', 'AG7']

>  <cofactor_codes>  (77) 
[]

>  <has_cofactor>  (77) 
False

>  <covalent>  (77) 
True

>  <base_name>  (77) 
7L8H

>  <lig_resn>  (77) 
AG7

>  <lig_resi>  (77) 
201

>  <lig_chain>  (77) 
A

>  <lig_segi>  (77) 
C

>  <lig_alt>  (77) 


>  <polymer_chain>  (77) 
A

>  <single_smiles>  (77) 
CCOC(=O)CC[C@H](C[C@@H]1CCNC1=O)NC(=O)[C@@H](CC(=O)[C@@H](NC(=O)c2cc(C)on2)C(C)C)Cc3ccc(F)cc3

$$$$
AG7P1S28
     RDKit          3D

 29 29  0  0  0  0  0  0  0  0999 V2000
   -7.4790   10.1100  -32.3050 C   0  0  0  0  0  0  0  0  0  0  0  0
   -7.5720   10.2480  -33.8100 C   0  0  2  0  0  0  0  0  0  0  0  0
   -8.6560   11.1530  -34.1940 N   0  0  0  0  0  0  0  0  0  0  0  0
   -7.9420    8.8790  -34.3950 C   0  0  2  0  0  0  0  0  0  0  0  0
   -8.3860   12.4890  -34.7650 C   0  0  0  0  0  0  0  0  0  0  0  0
   -8.0380    8.7560  -35.9460 C   0  0  0  0  0  0  0  0  0  0  0  0
   -9.4950    8.1700  -33.9330 R   0  0  0  0  0  0  0  0  0  0  0  0
   -9.6070   13.3430  -35.1580 C   0  0  1  0  0  0  0  0  0  0  0  0
   -7.2780   12.8740  -34.9380 O   0  0  0  0  0  0  0  0  0  0  0  0
   -6.7120    9.1220  -36.6620 C   0  0  0  0  0  0  0  0  0  0  0  0
   -9.3780   14.8340  -34.9810 C   0  0  0  0  0  0  0  0  0  0  0  0
   -9.8220   13.0040  -36.6320 C   0  0  0  0  0  0  0  0  0  0  0  0
   -6.6630    9.2000  -38.0780 O   0  0  0  0  0  0  0  0  0  0  0  0
   -5.7350    9.3330  -36.0330 O   0  0  0  0  0  0  0  0  0  0  0  0
   -8.9670   15.1660  -33.5270 C   0  0  0  0  0  0  0  0  0  0  0  0
  -10.9810   13.8390  -37.2650 C   0  0  0  0  0  0  0  0  0  0  0  0
   -7.2150   10.3580  -38.6790 C   0  0  0  0  0  0  0  0  0  0  0  0
   -8.4270   16.5590  -33.1920 C   0  0  0  0  0  0  0  0  0  0  0  0
   -9.0670   14.3600  -32.6690 O   0  0  0  0  0  0  0  0  0  0  0  0
  -12.4340   13.3870  -37.0950 C   0  0  0  0  0  0  0  0  0  0  0  0
  -10.6550   15.1030  -38.0670 C   0  0  0  0  0  0  0  0  0  0  0  0
   -6.0980   11.1210  -39.4160 C   0  0  0  0  0  0  0  0  0  0  0  0
   -6.9070   16.5400  -33.3360 C   0  0  0  0  0  0  0  0  0  0  0  0
  -13.5670   14.2110  -37.7240 C   0  0  0  0  0  0  0  0  0  0  0  0
  -11.7870   15.9270  -38.6960 C   0  0  0  0  0  0  0  0  0  0  0  0
   -6.3050   15.3610  -32.5860 C   0  0  0  0  0  0  0  0  0  0  0  0
   -6.3080   17.8490  -32.7930 C   0  0  0  0  0  0  0  0  0  0  0  0
  -13.2350   15.4760  -38.5200 C   0  0  0  0  0  0  0  0  0  0  0  0
  -14.2410   16.2030  -39.0780 F   0  0  0  0  0  0  0  0  0  0  0  0
  2  1  1  1
  3  2  1  0
  2  4  1  0
  3  5  1  0
  4  6  1  0
  4  7  1  1
  8  5  1  0
  5  9  2  0
  6 10  1  0
  8 11  1  6
  8 12  1  0
 10 13  1  0
 10 14  2  0
 15 11  1  0
 12 16  1  0
 13 17  1  0
 15 18  1  0
 15 19  2  0
 16 20  2  0
 16 21  1  0
 17 22  1  0
 18 23  1  6
 20 24  1  0
 25 21  2  0
 23 26  1  0
 23 27  1  0
 24 28  2  0
 28 25  1  0
 28 29  1  0
V    7 *
A    2
 C13
A    3
 N12
A    4
 C19
A    5
 C47
A    6
 C20
A    7
 X  
A    8
 C04
A    9
 O48
A   10
 C21
A   11
 C02
A   12
 C05
A   13
 O22
A   14
 O23
A   15
 C01
A   16
 C06
A   17
 C50
A   19
 O03
A   20
 C07
A   21
 C11
A   22
 C53
A   23
 C78
A   24
 C08
A   25
 C10
A   26
 C81
A   27
 C82
A   28
 C09
A   29
 F1 
M  END
>  <XChem_code>  (78) 
AG7§1

>  <Occupancy>  (78) 
[1.0, 1.0, 1.0, 1.0, 1.0, 1.0, 1.0, 1.0, 1.0, 1.0, 1.0, 1.0, 1.0, 1.0, 1.0, 1.0, 1.0, 1.0, 1.0, 1.0, 1.0, 1.0, 1.0, 1.0, 1.0, 1.0, 1.0, 1.0, 1.0, 1.0, 1.0, 1.0, 1.0, 1.0, 1.0, 1.0, 1.0, 1.0, 1.0, 1.0, 1.0, 1.0, 1.0, 1.0]

>  <TempFactor>  (78) 
[27.43, 24.24, 28.92, 30.71, 25.26, 31.62, 25.98, 30.07, 31.48, 26.52, 28.51, 32.53, 36.38, 29.74, 29.67, 29.92, 32.9, 28.44, 30.67, 27.23, 22.26, 24.15, 27.42, 27.01, 29.05, 33.89, 30.31, 32.23, 39.3, 25.88, 27.54, 34.34, 31.54, 28.56, 32.59, 25.05, 28.93, 29.93, 36.51, 31.26, 26.19, 27.65, 26.83, 43.14]

>  <accession>  (78) 
7L8H_A

>  <description>  (78) 
Chain A, 3C Protease [enterovirus D68]

>  <evalue>  (78) 
8.3305400000000003e-132

>  <pdb_code>  (78) 
7L8H

>  <chain>  (78) 
A

>  <ligands>  (78) 
[{'chain_id': 'A', 'author_residue_number': 201, 'author_insertion_code': '', 'chem_comp_id': 'AG7', 'alternate_conformers': 0, 'entity_id': 2, 'struct_asym_id': 'C', 'residue_number': 1, 'chem_comp_name': '4-{2-(4-FLUORO-BENZYL)-6-METHYL-5-[(5-METHYL-ISOXAZOLE-3-CARBONYL)-AMINO]-4-OXO-HEPTANOYLAMINO}-5-(2-OXO-PYRROLIDIN-3-YL)-PENTANOIC ACID ETHYL ESTER', 'weight': 600.678, 'carbohydrate_polymer': False, 'branch_name': ''}, {'chain_id': 'B', 'author_residue_number': 201, 'author_insertion_code': '', 'chem_comp_id': 'AG7', 'alternate_conformers': 0, 'entity_id': 2, 'struct_asym_id': 'D', 'residue_number': 1, 'chem_comp_name': '4-{2-(4-FLUORO-BENZYL)-6-METHYL-5-[(5-METHYL-ISOXAZOLE-3-CARBONYL)-AMINO]-4-OXO-HEPTANOYLAMINO}-5-(2-OXO-PYRROLIDIN-3-YL)-PENTANOIC ACID ETHYL ESTER', 'weight': 600.678, 'carbohydrate_polymer': False, 'branch_name': ''}]

>  <ligand_codes>  (78) 
['AG7', 'AG7']

>  <cofactor_codes>  (78) 
[]

>  <has_cofactor>  (78) 
False

>  <covalent>  (78) 
True

>  <base_name>  (78) 
7L8H

>  <lig_resn>  (78) 
AG7

>  <lig_resi>  (78) 
201

>  <lig_chain>  (78) 
A

>  <lig_segi>  (78) 
C

>  <lig_alt>  (78) 


>  <polymer_chain>  (78) 
A

>  <single_smiles>  (78) 
CCOC(=O)CC[C@H](C[C@@H]1CCNC1=O)NC(=O)[C@@H](CC(=O)[C@@H](NC(=O)c2cc(C)on2)C(C)C)Cc3ccc(F)cc3

$$$$
AG7P1S29
     RDKit          3D

 28 28  0  0  0  0  0  0  0  0999 V2000
   -9.8220   13.0040  -36.6320 C   0  0  0  0  0  0  0  0  0  0  0  0
   -9.6070   13.3430  -35.1580 C   0  0  2  0  0  0  0  0  0  0  0  0
   -9.3780   14.8340  -34.9810 C   0  0  0  0  0  0  0  0  0  0  0  0
   -8.3860   12.4890  -34.7650 C   0  0  0  0  0  0  0  0  0  0  0  0
   -8.9670   15.1660  -33.5270 C   0  0  0  0  0  0  0  0  0  0  0  0
   -8.6560   11.1530  -34.1940 N   0  0  0  0  0  0  0  0  0  0  0  0
   -7.2780   12.8740  -34.9380 O   0  0  0  0  0  0  0  0  0  0  0  0
   -8.4270   16.5590  -33.1920 C   0  0  0  0  0  0  0  0  0  0  0  0
   -9.0670   14.3600  -32.6690 O   0  0  0  0  0  0  0  0  0  0  0  0
   -7.5720   10.2480  -33.8100 C   0  0  1  0  0  0  0  0  0  0  0  0
   -6.9070   16.5400  -33.3360 C   0  0  0  0  0  0  0  0  0  0  0  0
   -7.4790   10.1100  -32.3050 C   0  0  0  0  0  0  0  0  0  0  0  0
   -7.9420    8.8790  -34.3950 C   0  0  2  0  0  0  0  0  0  0  0  0
   -6.3050   15.3610  -32.5860 C   0  0  0  0  0  0  0  0  0  0  0  0
   -6.3080   17.8490  -32.7930 C   0  0  0  0  0  0  0  0  0  0  0  0
   -6.9650   11.3310  -31.6770 C   0  0  1  0  0  0  0  0  0  0  0  0
   -8.0380    8.7560  -35.9460 C   0  0  0  0  0  0  0  0  0  0  0  0
   -9.4950    8.1700  -33.9330 R   0  0  0  0  0  0  0  0  0  0  0  0
   -6.7630   11.0640  -30.1170 C   0  0  0  0  0  0  0  0  0  0  0  0
   -5.5720   11.6820  -32.1610 C   0  0  0  0  0  0  0  0  0  0  0  0
   -6.7120    9.1220  -36.6620 C   0  0  0  0  0  0  0  0  0  0  0  0
   -5.5900   11.6330  -29.7910 N   0  0  0  0  0  0  0  0  0  0  0  0
   -7.4890   10.4750  -29.3970 O   0  0  0  0  0  0  0  0  0  0  0  0
   -4.9760   12.2950  -31.0880 C   0  0  0  0  0  0  0  0  0  0  0  0
   -6.6630    9.2000  -38.0780 O   0  0  0  0  0  0  0  0  0  0  0  0
   -5.7350    9.3330  -36.0330 O   0  0  0  0  0  0  0  0  0  0  0  0
   -7.2150   10.3580  -38.6790 C   0  0  0  0  0  0  0  0  0  0  0  0
   -6.0980   11.1210  -39.4160 C   0  0  0  0  0  0  0  0  0  0  0  0
  2  1  1  6
  2  3  1  0
  2  4  1  0
  5  3  1  0
  6  4  1  0
  4  7  2  0
  5  8  1  0
  5  9  2  0
  6 10  1  0
  8 11  1  6
 10 12  1  1
 10 13  1  0
 11 14  1  0
 11 15  1  0
 16 12  1  6
 13 17  1  0
 13 18  1  1
 16 19  1  0
 16 20  1  0
 17 21  1  0
 19 22  1  0
 19 23  2  0
 24 20  1  0
 21 25  1  0
 21 26  2  0
 22 24  1  0
 25 27  1  0
 27 28  1  0
V   18 *
A    2
 C04
A    3
 C02
A    4
 C47
A    5
 C01
A    6
 N12
A    7
 O48
A    9
 O03
A   10
 C13
A   11
 C78
A   12
 C14
A   13
 C19
A   14
 C81
A   15
 C82
A   16
 C15
A   17
 C20
A   18
 X  
A   19
 C16
A   20
 C84
A   21
 C21
A   22
 N17
A   23
 O18
A   24
 C83
A   25
 O22
A   26
 O23
A   27
 C50
A   28
 C53
M  END
>  <XChem_code>  (79) 
AG7§1

>  <Occupancy>  (79) 
[1.0, 1.0, 1.0, 1.0, 1.0, 1.0, 1.0, 1.0, 1.0, 1.0, 1.0, 1.0, 1.0, 1.0, 1.0, 1.0, 1.0, 1.0, 1.0, 1.0, 1.0, 1.0, 1.0, 1.0, 1.0, 1.0, 1.0, 1.0, 1.0, 1.0, 1.0, 1.0, 1.0, 1.0, 1.0, 1.0, 1.0, 1.0, 1.0, 1.0, 1.0, 1.0, 1.0, 1.0]

>  <TempFactor>  (79) 
[27.43, 24.24, 28.92, 30.71, 25.26, 31.62, 25.98, 30.07, 31.48, 26.52, 28.51, 32.53, 36.38, 29.74, 29.67, 29.92, 32.9, 28.44, 30.67, 27.23, 22.26, 24.15, 27.42, 27.01, 29.05, 33.89, 30.31, 32.23, 39.3, 25.88, 27.54, 34.34, 31.54, 28.56, 32.59, 25.05, 28.93, 29.93, 36.51, 31.26, 26.19, 27.65, 26.83, 43.14]

>  <accession>  (79) 
7L8H_A

>  <description>  (79) 
Chain A, 3C Protease [enterovirus D68]

>  <evalue>  (79) 
8.3305400000000003e-132

>  <pdb_code>  (79) 
7L8H

>  <chain>  (79) 
A

>  <ligands>  (79) 
[{'chain_id': 'A', 'author_residue_number': 201, 'author_insertion_code': '', 'chem_comp_id': 'AG7', 'alternate_conformers': 0, 'entity_id': 2, 'struct_asym_id': 'C', 'residue_number': 1, 'chem_comp_name': '4-{2-(4-FLUORO-BENZYL)-6-METHYL-5-[(5-METHYL-ISOXAZOLE-3-CARBONYL)-AMINO]-4-OXO-HEPTANOYLAMINO}-5-(2-OXO-PYRROLIDIN-3-YL)-PENTANOIC ACID ETHYL ESTER', 'weight': 600.678, 'carbohydrate_polymer': False, 'branch_name': ''}, {'chain_id': 'B', 'author_residue_number': 201, 'author_insertion_code': '', 'chem_comp_id': 'AG7', 'alternate_conformers': 0, 'entity_id': 2, 'struct_asym_id': 'D', 'residue_number': 1, 'chem_comp_name': '4-{2-(4-FLUORO-BENZYL)-6-METHYL-5-[(5-METHYL-ISOXAZOLE-3-CARBONYL)-AMINO]-4-OXO-HEPTANOYLAMINO}-5-(2-OXO-PYRROLIDIN-3-YL)-PENTANOIC ACID ETHYL ESTER', 'weight': 600.678, 'carbohydrate_polymer': False, 'branch_name': ''}]

>  <ligand_codes>  (79) 
['AG7', 'AG7']

>  <cofactor_codes>  (79) 
[]

>  <has_cofactor>  (79) 
False

>  <covalent>  (79) 
True

>  <base_name>  (79) 
7L8H

>  <lig_resn>  (79) 
AG7

>  <lig_resi>  (79) 
201

>  <lig_chain>  (79) 
A

>  <lig_segi>  (79) 
C

>  <lig_alt>  (79) 


>  <polymer_chain>  (79) 
A

>  <single_smiles>  (79) 
CCOC(=O)CC[C@H](C[C@@H]1CCNC1=O)NC(=O)[C@@H](CC(=O)[C@@H](NC(=O)c2cc(C)on2)C(C)C)Cc3ccc(F)cc3

$$$$
AG7P1S30
     RDKit          3D

 11 10  0  0  0  0  0  0  0  0999 V2000
   -9.8220   13.0040  -36.6320 C   0  0  0  0  0  0  0  0  0  0  0  0
   -9.6070   13.3430  -35.1580 C   0  0  2  0  0  0  0  0  0  0  0  0
   -9.3780   14.8340  -34.9810 C   0  0  0  0  0  0  0  0  0  0  0  0
   -8.3860   12.4890  -34.7650 C   0  0  0  0  0  0  0  0  0  0  0  0
   -8.9670   15.1660  -33.5270 C   0  0  0  0  0  0  0  0  0  0  0  0
   -7.2780   12.8740  -34.9380 O   0  0  0  0  0  0  0  0  0  0  0  0
   -8.4270   16.5590  -33.1920 C   0  0  0  0  0  0  0  0  0  0  0  0
   -9.0670   14.3600  -32.6690 O   0  0  0  0  0  0  0  0  0  0  0  0
   -6.9070   16.5400  -33.3360 C   0  0  0  0  0  0  0  0  0  0  0  0
   -6.3050   15.3610  -32.5860 C   0  0  0  0  0  0  0  0  0  0  0  0
   -6.3080   17.8490  -32.7930 C   0  0  0  0  0  0  0  0  0  0  0  0
  2  1  1  6
  2  3  1  0
  2  4  1  0
  5  3  1  0
  4  6  2  0
  5  7  1  0
  5  8  2  0
  7  9  1  6
  9 10  1  0
  9 11  1  0
A    2
 C04
A    3
 C02
A    5
 C01
A    6
 O48
A    8
 O03
A    9
 C78
A   10
 C81
A   11
 C82
M  END
>  <XChem_code>  (80) 
AG7§1

>  <Occupancy>  (80) 
[1.0, 1.0, 1.0, 1.0, 1.0, 1.0, 1.0, 1.0, 1.0, 1.0, 1.0, 1.0, 1.0, 1.0, 1.0, 1.0, 1.0, 1.0, 1.0, 1.0, 1.0, 1.0, 1.0, 1.0, 1.0, 1.0, 1.0, 1.0, 1.0, 1.0, 1.0, 1.0, 1.0, 1.0, 1.0, 1.0, 1.0, 1.0, 1.0, 1.0, 1.0, 1.0, 1.0, 1.0]

>  <TempFactor>  (80) 
[27.43, 24.24, 28.92, 30.71, 25.26, 31.62, 25.98, 30.07, 31.48, 26.52, 28.51, 32.53, 36.38, 29.74, 29.67, 29.92, 32.9, 28.44, 30.67, 27.23, 22.26, 24.15, 27.42, 27.01, 29.05, 33.89, 30.31, 32.23, 39.3, 25.88, 27.54, 34.34, 31.54, 28.56, 32.59, 25.05, 28.93, 29.93, 36.51, 31.26, 26.19, 27.65, 26.83, 43.14]

>  <accession>  (80) 
7L8H_A

>  <description>  (80) 
Chain A, 3C Protease [enterovirus D68]

>  <evalue>  (80) 
8.3305400000000003e-132

>  <pdb_code>  (80) 
7L8H

>  <chain>  (80) 
A

>  <ligands>  (80) 
[{'chain_id': 'A', 'author_residue_number': 201, 'author_insertion_code': '', 'chem_comp_id': 'AG7', 'alternate_conformers': 0, 'entity_id': 2, 'struct_asym_id': 'C', 'residue_number': 1, 'chem_comp_name': '4-{2-(4-FLUORO-BENZYL)-6-METHYL-5-[(5-METHYL-ISOXAZOLE-3-CARBONYL)-AMINO]-4-OXO-HEPTANOYLAMINO}-5-(2-OXO-PYRROLIDIN-3-YL)-PENTANOIC ACID ETHYL ESTER', 'weight': 600.678, 'carbohydrate_polymer': False, 'branch_name': ''}, {'chain_id': 'B', 'author_residue_number': 201, 'author_insertion_code': '', 'chem_comp_id': 'AG7', 'alternate_conformers': 0, 'entity_id': 2, 'struct_asym_id': 'D', 'residue_number': 1, 'chem_comp_name': '4-{2-(4-FLUORO-BENZYL)-6-METHYL-5-[(5-METHYL-ISOXAZOLE-3-CARBONYL)-AMINO]-4-OXO-HEPTANOYLAMINO}-5-(2-OXO-PYRROLIDIN-3-YL)-PENTANOIC ACID ETHYL ESTER', 'weight': 600.678, 'carbohydrate_polymer': False, 'branch_name': ''}]

>  <ligand_codes>  (80) 
['AG7', 'AG7']

>  <cofactor_codes>  (80) 
[]

>  <has_cofactor>  (80) 
False

>  <covalent>  (80) 
True

>  <base_name>  (80) 
7L8H

>  <lig_resn>  (80) 
AG7

>  <lig_resi>  (80) 
201

>  <lig_chain>  (80) 
A

>  <lig_segi>  (80) 
C

>  <lig_alt>  (80) 


>  <polymer_chain>  (80) 
A

>  <single_smiles>  (80) 
CCOC(=O)CC[C@H](C[C@@H]1CCNC1=O)NC(=O)[C@@H](CC(=O)[C@@H](NC(=O)c2cc(C)on2)C(C)C)Cc3ccc(F)cc3

$$$$
AG7P1S31
     RDKit          3D

 13 12  0  0  0  0  0  0  0  0999 V2000
   -9.8220   13.0040  -36.6320 C   0  0  0  0  0  0  0  0  0  0  0  0
   -9.6070   13.3430  -35.1580 C   0  0  1  0  0  0  0  0  0  0  0  0
   -8.3860   12.4890  -34.7650 C   0  0  0  0  0  0  0  0  0  0  0  0
   -9.3780   14.8340  -34.9810 C   0  0  0  0  0  0  0  0  0  0  0  0
   -8.6560   11.1530  -34.1940 N   0  0  0  0  0  0  0  0  0  0  0  0
   -7.2780   12.8740  -34.9380 O   0  0  0  0  0  0  0  0  0  0  0  0
   -8.9670   15.1660  -33.5270 C   0  0  0  0  0  0  0  0  0  0  0  0
   -8.4270   16.5590  -33.1920 C   0  0  1  0  0  0  0  0  0  0  0  0
   -9.0670   14.3600  -32.6690 O   0  0  0  0  0  0  0  0  0  0  0  0
   -8.8290   16.9260  -31.8420 N   0  0  0  0  0  0  0  0  0  0  0  0
   -6.9070   16.5400  -33.3360 C   0  0  0  0  0  0  0  0  0  0  0  0
   -6.3050   15.3610  -32.5860 C   0  0  0  0  0  0  0  0  0  0  0  0
   -6.3080   17.8490  -32.7930 C   0  0  0  0  0  0  0  0  0  0  0  0
  2  1  1  6
  2  3  1  0
  2  4  1  0
  5  3  1  0
  3  6  2  0
  7  4  1  0
  7  8  1  0
  7  9  2  0
  8 10  1  1
  8 11  1  0
 11 12  1  0
 11 13  1  0
A    2
 C04
A    3
 C47
A    4
 C02
A    6
 O48
A    7
 C01
A    8
 C57
A    9
 O03
A   11
 C78
A   12
 C81
A   13
 C82
M  END
>  <XChem_code>  (81) 
AG7§1

>  <Occupancy>  (81) 
[1.0, 1.0, 1.0, 1.0, 1.0, 1.0, 1.0, 1.0, 1.0, 1.0, 1.0, 1.0, 1.0, 1.0, 1.0, 1.0, 1.0, 1.0, 1.0, 1.0, 1.0, 1.0, 1.0, 1.0, 1.0, 1.0, 1.0, 1.0, 1.0, 1.0, 1.0, 1.0, 1.0, 1.0, 1.0, 1.0, 1.0, 1.0, 1.0, 1.0, 1.0, 1.0, 1.0, 1.0]

>  <TempFactor>  (81) 
[27.43, 24.24, 28.92, 30.71, 25.26, 31.62, 25.98, 30.07, 31.48, 26.52, 28.51, 32.53, 36.38, 29.74, 29.67, 29.92, 32.9, 28.44, 30.67, 27.23, 22.26, 24.15, 27.42, 27.01, 29.05, 33.89, 30.31, 32.23, 39.3, 25.88, 27.54, 34.34, 31.54, 28.56, 32.59, 25.05, 28.93, 29.93, 36.51, 31.26, 26.19, 27.65, 26.83, 43.14]

>  <accession>  (81) 
7L8H_A

>  <description>  (81) 
Chain A, 3C Protease [enterovirus D68]

>  <evalue>  (81) 
8.3305400000000003e-132

>  <pdb_code>  (81) 
7L8H

>  <chain>  (81) 
A

>  <ligands>  (81) 
[{'chain_id': 'A', 'author_residue_number': 201, 'author_insertion_code': '', 'chem_comp_id': 'AG7', 'alternate_conformers': 0, 'entity_id': 2, 'struct_asym_id': 'C', 'residue_number': 1, 'chem_comp_name': '4-{2-(4-FLUORO-BENZYL)-6-METHYL-5-[(5-METHYL-ISOXAZOLE-3-CARBONYL)-AMINO]-4-OXO-HEPTANOYLAMINO}-5-(2-OXO-PYRROLIDIN-3-YL)-PENTANOIC ACID ETHYL ESTER', 'weight': 600.678, 'carbohydrate_polymer': False, 'branch_name': ''}, {'chain_id': 'B', 'author_residue_number': 201, 'author_insertion_code': '', 'chem_comp_id': 'AG7', 'alternate_conformers': 0, 'entity_id': 2, 'struct_asym_id': 'D', 'residue_number': 1, 'chem_comp_name': '4-{2-(4-FLUORO-BENZYL)-6-METHYL-5-[(5-METHYL-ISOXAZOLE-3-CARBONYL)-AMINO]-4-OXO-HEPTANOYLAMINO}-5-(2-OXO-PYRROLIDIN-3-YL)-PENTANOIC ACID ETHYL ESTER', 'weight': 600.678, 'carbohydrate_polymer': False, 'branch_name': ''}]

>  <ligand_codes>  (81) 
['AG7', 'AG7']

>  <cofactor_codes>  (81) 
[]

>  <has_cofactor>  (81) 
False

>  <covalent>  (81) 
True

>  <base_name>  (81) 
7L8H

>  <lig_resn>  (81) 
AG7

>  <lig_resi>  (81) 
201

>  <lig_chain>  (81) 
A

>  <lig_segi>  (81) 
C

>  <lig_alt>  (81) 


>  <polymer_chain>  (81) 
A

>  <single_smiles>  (81) 
CCOC(=O)CC[C@H](C[C@@H]1CCNC1=O)NC(=O)[C@@H](CC(=O)[C@@H](NC(=O)c2cc(C)on2)C(C)C)Cc3ccc(F)cc3

$$$$
AG7P1S32
     RDKit          3D

 12 11  0  0  0  0  0  0  0  0999 V2000
   -9.8220   13.0040  -36.6320 C   0  0  0  0  0  0  0  0  0  0  0  0
   -9.6070   13.3430  -35.1580 C   0  0  2  0  0  0  0  0  0  0  0  0
   -9.3780   14.8340  -34.9810 C   0  0  0  0  0  0  0  0  0  0  0  0
   -8.3860   12.4890  -34.7650 C   0  0  0  0  0  0  0  0  0  0  0  0
   -8.9670   15.1660  -33.5270 C   0  0  0  0  0  0  0  0  0  0  0  0
   -8.6560   11.1530  -34.1940 N   0  0  0  0  0  0  0  0  0  0  0  0
   -7.2780   12.8740  -34.9380 O   0  0  0  0  0  0  0  0  0  0  0  0
   -8.4270   16.5590  -33.1920 C   0  0  0  0  0  0  0  0  0  0  0  0
   -9.0670   14.3600  -32.6690 O   0  0  0  0  0  0  0  0  0  0  0  0
   -6.9070   16.5400  -33.3360 C   0  0  0  0  0  0  0  0  0  0  0  0
   -6.3050   15.3610  -32.5860 C   0  0  0  0  0  0  0  0  0  0  0  0
   -6.3080   17.8490  -32.7930 C   0  0  0  0  0  0  0  0  0  0  0  0
  2  1  1  6
  2  3  1  0
  2  4  1  0
  5  3  1  0
  6  4  1  0
  4  7  2  0
  5  8  1  0
  5  9  2  0
  8 10  1  6
 10 11  1  0
 10 12  1  0
A    2
 C04
A    3
 C02
A    4
 C47
A    5
 C01
A    7
 O48
A    9
 O03
A   10
 C78
A   11
 C81
A   12
 C82
M  END
>  <XChem_code>  (82) 
AG7§1

>  <Occupancy>  (82) 
[1.0, 1.0, 1.0, 1.0, 1.0, 1.0, 1.0, 1.0, 1.0, 1.0, 1.0, 1.0, 1.0, 1.0, 1.0, 1.0, 1.0, 1.0, 1.0, 1.0, 1.0, 1.0, 1.0, 1.0, 1.0, 1.0, 1.0, 1.0, 1.0, 1.0, 1.0, 1.0, 1.0, 1.0, 1.0, 1.0, 1.0, 1.0, 1.0, 1.0, 1.0, 1.0, 1.0, 1.0]

>  <TempFactor>  (82) 
[27.43, 24.24, 28.92, 30.71, 25.26, 31.62, 25.98, 30.07, 31.48, 26.52, 28.51, 32.53, 36.38, 29.74, 29.67, 29.92, 32.9, 28.44, 30.67, 27.23, 22.26, 24.15, 27.42, 27.01, 29.05, 33.89, 30.31, 32.23, 39.3, 25.88, 27.54, 34.34, 31.54, 28.56, 32.59, 25.05, 28.93, 29.93, 36.51, 31.26, 26.19, 27.65, 26.83, 43.14]

>  <accession>  (82) 
7L8H_A

>  <description>  (82) 
Chain A, 3C Protease [enterovirus D68]

>  <evalue>  (82) 
8.3305400000000003e-132

>  <pdb_code>  (82) 
7L8H

>  <chain>  (82) 
A

>  <ligands>  (82) 
[{'chain_id': 'A', 'author_residue_number': 201, 'author_insertion_code': '', 'chem_comp_id': 'AG7', 'alternate_conformers': 0, 'entity_id': 2, 'struct_asym_id': 'C', 'residue_number': 1, 'chem_comp_name': '4-{2-(4-FLUORO-BENZYL)-6-METHYL-5-[(5-METHYL-ISOXAZOLE-3-CARBONYL)-AMINO]-4-OXO-HEPTANOYLAMINO}-5-(2-OXO-PYRROLIDIN-3-YL)-PENTANOIC ACID ETHYL ESTER', 'weight': 600.678, 'carbohydrate_polymer': False, 'branch_name': ''}, {'chain_id': 'B', 'author_residue_number': 201, 'author_insertion_code': '', 'chem_comp_id': 'AG7', 'alternate_conformers': 0, 'entity_id': 2, 'struct_asym_id': 'D', 'residue_number': 1, 'chem_comp_name': '4-{2-(4-FLUORO-BENZYL)-6-METHYL-5-[(5-METHYL-ISOXAZOLE-3-CARBONYL)-AMINO]-4-OXO-HEPTANOYLAMINO}-5-(2-OXO-PYRROLIDIN-3-YL)-PENTANOIC ACID ETHYL ESTER', 'weight': 600.678, 'carbohydrate_polymer': False, 'branch_name': ''}]

>  <ligand_codes>  (82) 
['AG7', 'AG7']

>  <cofactor_codes>  (82) 
[]

>  <has_cofactor>  (82) 
False

>  <covalent>  (82) 
True

>  <base_name>  (82) 
7L8H

>  <lig_resn>  (82) 
AG7

>  <lig_resi>  (82) 
201

>  <lig_chain>  (82) 
A

>  <lig_segi>  (82) 
C

>  <lig_alt>  (82) 


>  <polymer_chain>  (82) 
A

>  <single_smiles>  (82) 
CCOC(=O)CC[C@H](C[C@@H]1CCNC1=O)NC(=O)[C@@H](CC(=O)[C@@H](NC(=O)c2cc(C)on2)C(C)C)Cc3ccc(F)cc3

$$$$
AG7P1S33
     RDKit          3D

 32 32  0  0  0  0  0  0  0  0999 V2000
   -7.4790   10.1100  -32.3050 C   0  0  0  0  0  0  0  0  0  0  0  0
   -7.5720   10.2480  -33.8100 C   0  0  2  0  0  0  0  0  0  0  0  0
   -8.6560   11.1530  -34.1940 N   0  0  0  0  0  0  0  0  0  0  0  0
   -7.9420    8.8790  -34.3950 C   0  0  2  0  0  0  0  0  0  0  0  0
   -8.3860   12.4890  -34.7650 C   0  0  0  0  0  0  0  0  0  0  0  0
   -8.0380    8.7560  -35.9460 C   0  0  0  0  0  0  0  0  0  0  0  0
   -9.4950    8.1700  -33.9330 R   0  0  0  0  0  0  0  0  0  0  0  0
   -9.6070   13.3430  -35.1580 C   0  0  1  0  0  0  0  0  0  0  0  0
   -7.2780   12.8740  -34.9380 O   0  0  0  0  0  0  0  0  0  0  0  0
   -6.7120    9.1220  -36.6620 C   0  0  0  0  0  0  0  0  0  0  0  0
   -9.3780   14.8340  -34.9810 C   0  0  0  0  0  0  0  0  0  0  0  0
   -9.8220   13.0040  -36.6320 C   0  0  0  0  0  0  0  0  0  0  0  0
   -6.6630    9.2000  -38.0780 O   0  0  0  0  0  0  0  0  0  0  0  0
   -5.7350    9.3330  -36.0330 O   0  0  0  0  0  0  0  0  0  0  0  0
   -8.9670   15.1660  -33.5270 C   0  0  0  0  0  0  0  0  0  0  0  0
  -10.9810   13.8390  -37.2650 C   0  0  0  0  0  0  0  0  0  0  0  0
   -7.2150   10.3580  -38.6790 C   0  0  0  0  0  0  0  0  0  0  0  0
   -8.4270   16.5590  -33.1920 C   0  0  1  0  0  0  0  0  0  0  0  0
   -9.0670   14.3600  -32.6690 O   0  0  0  0  0  0  0  0  0  0  0  0
  -12.4340   13.3870  -37.0950 C   0  0  0  0  0  0  0  0  0  0  0  0
  -10.6550   15.1030  -38.0670 C   0  0  0  0  0  0  0  0  0  0  0  0
   -6.0980   11.1210  -39.4160 C   0  0  0  0  0  0  0  0  0  0  0  0
   -8.8290   16.9260  -31.8420 N   0  0  0  0  0  0  0  0  0  0  0  0
   -6.9070   16.5400  -33.3360 C   0  0  0  0  0  0  0  0  0  0  0  0
  -13.5670   14.2110  -37.7240 C   0  0  0  0  0  0  0  0  0  0  0  0
  -11.7870   15.9270  -38.6960 C   0  0  0  0  0  0  0  0  0  0  0  0
   -9.9310   17.8800  -31.6460 C   0  0  0  0  0  0  0  0  0  0  0  0
   -6.3050   15.3610  -32.5860 C   0  0  0  0  0  0  0  0  0  0  0  0
   -6.3080   17.8490  -32.7930 C   0  0  0  0  0  0  0  0  0  0  0  0
  -13.2350   15.4760  -38.5200 C   0  0  0  0  0  0  0  0  0  0  0  0
  -10.4920   18.3500  -32.5750 O   0  0  0  0  0  0  0  0  0  0  0  0
  -14.2410   16.2030  -39.0780 F   0  0  0  0  0  0  0  0  0  0  0  0
  2  1  1  1
  3  2  1  0
  2  4  1  0
  3  5  1  0
  4  6  1  0
  4  7  1  1
  8  5  1  0
  5  9  2  0
  6 10  1  0
  8 11  1  6
  8 12  1  0
 10 13  1  0
 10 14  2  0
 15 11  1  0
 12 16  1  0
 13 17  1  0
 15 18  1  0
 15 19  2  0
 16 20  2  0
 16 21  1  0
 17 22  1  0
 18 23  1  1
 18 24  1  0
 20 25  1  0
 26 21  2  0
 23 27  1  0
 24 28  1  0
 24 29  1  0
 25 30  2  0
 30 26  1  0
 27 31  2  0
 30 32  1  0
V    7 *
A    2
 C13
A    3
 N12
A    4
 C19
A    5
 C47
A    6
 C20
A    7
 X  
A    8
 C04
A    9
 O48
A   10
 C21
A   11
 C02
A   12
 C05
A   13
 O22
A   14
 O23
A   15
 C01
A   16
 C06
A   17
 C50
A   18
 C57
A   19
 O03
A   20
 C07
A   21
 C11
A   22
 C53
A   23
 N58
A   24
 C78
A   25
 C08
A   26
 C10
A   28
 C81
A   29
 C82
A   30
 C09
A   31
 O60
A   32
 F1 
M  END
>  <XChem_code>  (83) 
AG7§1

>  <Occupancy>  (83) 
[1.0, 1.0, 1.0, 1.0, 1.0, 1.0, 1.0, 1.0, 1.0, 1.0, 1.0, 1.0, 1.0, 1.0, 1.0, 1.0, 1.0, 1.0, 1.0, 1.0, 1.0, 1.0, 1.0, 1.0, 1.0, 1.0, 1.0, 1.0, 1.0, 1.0, 1.0, 1.0, 1.0, 1.0, 1.0, 1.0, 1.0, 1.0, 1.0, 1.0, 1.0, 1.0, 1.0, 1.0]

>  <TempFactor>  (83) 
[27.43, 24.24, 28.92, 30.71, 25.26, 31.62, 25.98, 30.07, 31.48, 26.52, 28.51, 32.53, 36.38, 29.74, 29.67, 29.92, 32.9, 28.44, 30.67, 27.23, 22.26, 24.15, 27.42, 27.01, 29.05, 33.89, 30.31, 32.23, 39.3, 25.88, 27.54, 34.34, 31.54, 28.56, 32.59, 25.05, 28.93, 29.93, 36.51, 31.26, 26.19, 27.65, 26.83, 43.14]

>  <accession>  (83) 
7L8H_A

>  <description>  (83) 
Chain A, 3C Protease [enterovirus D68]

>  <evalue>  (83) 
8.3305400000000003e-132

>  <pdb_code>  (83) 
7L8H

>  <chain>  (83) 
A

>  <ligands>  (83) 
[{'chain_id': 'A', 'author_residue_number': 201, 'author_insertion_code': '', 'chem_comp_id': 'AG7', 'alternate_conformers': 0, 'entity_id': 2, 'struct_asym_id': 'C', 'residue_number': 1, 'chem_comp_name': '4-{2-(4-FLUORO-BENZYL)-6-METHYL-5-[(5-METHYL-ISOXAZOLE-3-CARBONYL)-AMINO]-4-OXO-HEPTANOYLAMINO}-5-(2-OXO-PYRROLIDIN-3-YL)-PENTANOIC ACID ETHYL ESTER', 'weight': 600.678, 'carbohydrate_polymer': False, 'branch_name': ''}, {'chain_id': 'B', 'author_residue_number': 201, 'author_insertion_code': '', 'chem_comp_id': 'AG7', 'alternate_conformers': 0, 'entity_id': 2, 'struct_asym_id': 'D', 'residue_number': 1, 'chem_comp_name': '4-{2-(4-FLUORO-BENZYL)-6-METHYL-5-[(5-METHYL-ISOXAZOLE-3-CARBONYL)-AMINO]-4-OXO-HEPTANOYLAMINO}-5-(2-OXO-PYRROLIDIN-3-YL)-PENTANOIC ACID ETHYL ESTER', 'weight': 600.678, 'carbohydrate_polymer': False, 'branch_name': ''}]

>  <ligand_codes>  (83) 
['AG7', 'AG7']

>  <cofactor_codes>  (83) 
[]

>  <has_cofactor>  (83) 
False

>  <covalent>  (83) 
True

>  <base_name>  (83) 
7L8H

>  <lig_resn>  (83) 
AG7

>  <lig_resi>  (83) 
201

>  <lig_chain>  (83) 
A

>  <lig_segi>  (83) 
C

>  <lig_alt>  (83) 


>  <polymer_chain>  (83) 
A

>  <single_smiles>  (83) 
CCOC(=O)CC[C@H](C[C@@H]1CCNC1=O)NC(=O)[C@@H](CC(=O)[C@@H](NC(=O)c2cc(C)on2)C(C)C)Cc3ccc(F)cc3

$$$$
AG7P1S34
     RDKit          3D

 31 31  0  0  0  0  0  0  0  0999 V2000
   -9.8220   13.0040  -36.6320 C   0  0  0  0  0  0  0  0  0  0  0  0
   -9.6070   13.3430  -35.1580 C   0  0  2  0  0  0  0  0  0  0  0  0
   -9.3780   14.8340  -34.9810 C   0  0  0  0  0  0  0  0  0  0  0  0
   -8.3860   12.4890  -34.7650 C   0  0  0  0  0  0  0  0  0  0  0  0
   -8.9670   15.1660  -33.5270 C   0  0  0  0  0  0  0  0  0  0  0  0
   -8.6560   11.1530  -34.1940 N   0  0  0  0  0  0  0  0  0  0  0  0
   -7.2780   12.8740  -34.9380 O   0  0  0  0  0  0  0  0  0  0  0  0
   -8.4270   16.5590  -33.1920 C   0  0  1  0  0  0  0  0  0  0  0  0
   -9.0670   14.3600  -32.6690 O   0  0  0  0  0  0  0  0  0  0  0  0
   -7.5720   10.2480  -33.8100 C   0  0  1  0  0  0  0  0  0  0  0  0
   -8.8290   16.9260  -31.8420 N   0  0  0  0  0  0  0  0  0  0  0  0
   -6.9070   16.5400  -33.3360 C   0  0  0  0  0  0  0  0  0  0  0  0
   -7.4790   10.1100  -32.3050 C   0  0  0  0  0  0  0  0  0  0  0  0
   -7.9420    8.8790  -34.3950 C   0  0  2  0  0  0  0  0  0  0  0  0
   -9.9310   17.8800  -31.6460 C   0  0  0  0  0  0  0  0  0  0  0  0
   -6.3050   15.3610  -32.5860 C   0  0  0  0  0  0  0  0  0  0  0  0
   -6.3080   17.8490  -32.7930 C   0  0  0  0  0  0  0  0  0  0  0  0
   -6.9650   11.3310  -31.6770 C   0  0  1  0  0  0  0  0  0  0  0  0
   -8.0380    8.7560  -35.9460 C   0  0  0  0  0  0  0  0  0  0  0  0
   -9.4950    8.1700  -33.9330 R   0  0  0  0  0  0  0  0  0  0  0  0
  -10.4920   18.3500  -32.5750 O   0  0  0  0  0  0  0  0  0  0  0  0
   -6.7630   11.0640  -30.1170 C   0  0  0  0  0  0  0  0  0  0  0  0
   -5.5720   11.6820  -32.1610 C   0  0  0  0  0  0  0  0  0  0  0  0
   -6.7120    9.1220  -36.6620 C   0  0  0  0  0  0  0  0  0  0  0  0
   -5.5900   11.6330  -29.7910 N   0  0  0  0  0  0  0  0  0  0  0  0
   -7.4890   10.4750  -29.3970 O   0  0  0  0  0  0  0  0  0  0  0  0
   -4.9760   12.2950  -31.0880 C   0  0  0  0  0  0  0  0  0  0  0  0
   -6.6630    9.2000  -38.0780 O   0  0  0  0  0  0  0  0  0  0  0  0
   -5.7350    9.3330  -36.0330 O   0  0  0  0  0  0  0  0  0  0  0  0
   -7.2150   10.3580  -38.6790 C   0  0  0  0  0  0  0  0  0  0  0  0
   -6.0980   11.1210  -39.4160 C   0  0  0  0  0  0  0  0  0  0  0  0
  2  1  1  6
  2  3  1  0
  2  4  1  0
  5  3  1  0
  6  4  1  0
  4  7  2  0
  5  8  1  0
  5  9  2  0
  6 10  1  0
  8 11  1  1
  8 12  1  0
 10 13  1  1
 10 14  1  0
 11 15  1  0
 12 16  1  0
 12 17  1  0
 18 13  1  6
 14 19  1  0
 14 20  1  1
 15 21  2  0
 18 22  1  0
 18 23  1  0
 19 24  1  0
 22 25  1  0
 22 26  2  0
 27 23  1  0
 24 28  1  0
 24 29  2  0
 25 27  1  0
 28 30  1  0
 30 31  1  0
V   20 *
A    2
 C04
A    3
 C02
A    4
 C47
A    5
 C01
A    6
 N12
A    7
 O48
A    8
 C57
A    9
 O03
A   10
 C13
A   11
 N58
A   12
 C78
A   13
 C14
A   14
 C19
A   16
 C81
A   17
 C82
A   18
 C15
A   19
 C20
A   20
 X  
A   21
 O60
A   22
 C16
A   23
 C84
A   24
 C21
A   25
 N17
A   26
 O18
A   27
 C83
A   28
 O22
A   29
 O23
A   30
 C50
A   31
 C53
M  END
>  <XChem_code>  (84) 
AG7§1

>  <Occupancy>  (84) 
[1.0, 1.0, 1.0, 1.0, 1.0, 1.0, 1.0, 1.0, 1.0, 1.0, 1.0, 1.0, 1.0, 1.0, 1.0, 1.0, 1.0, 1.0, 1.0, 1.0, 1.0, 1.0, 1.0, 1.0, 1.0, 1.0, 1.0, 1.0, 1.0, 1.0, 1.0, 1.0, 1.0, 1.0, 1.0, 1.0, 1.0, 1.0, 1.0, 1.0, 1.0, 1.0, 1.0, 1.0]

>  <TempFactor>  (84) 
[27.43, 24.24, 28.92, 30.71, 25.26, 31.62, 25.98, 30.07, 31.48, 26.52, 28.51, 32.53, 36.38, 29.74, 29.67, 29.92, 32.9, 28.44, 30.67, 27.23, 22.26, 24.15, 27.42, 27.01, 29.05, 33.89, 30.31, 32.23, 39.3, 25.88, 27.54, 34.34, 31.54, 28.56, 32.59, 25.05, 28.93, 29.93, 36.51, 31.26, 26.19, 27.65, 26.83, 43.14]

>  <accession>  (84) 
7L8H_A

>  <description>  (84) 
Chain A, 3C Protease [enterovirus D68]

>  <evalue>  (84) 
8.3305400000000003e-132

>  <pdb_code>  (84) 
7L8H

>  <chain>  (84) 
A

>  <ligands>  (84) 
[{'chain_id': 'A', 'author_residue_number': 201, 'author_insertion_code': '', 'chem_comp_id': 'AG7', 'alternate_conformers': 0, 'entity_id': 2, 'struct_asym_id': 'C', 'residue_number': 1, 'chem_comp_name': '4-{2-(4-FLUORO-BENZYL)-6-METHYL-5-[(5-METHYL-ISOXAZOLE-3-CARBONYL)-AMINO]-4-OXO-HEPTANOYLAMINO}-5-(2-OXO-PYRROLIDIN-3-YL)-PENTANOIC ACID ETHYL ESTER', 'weight': 600.678, 'carbohydrate_polymer': False, 'branch_name': ''}, {'chain_id': 'B', 'author_residue_number': 201, 'author_insertion_code': '', 'chem_comp_id': 'AG7', 'alternate_conformers': 0, 'entity_id': 2, 'struct_asym_id': 'D', 'residue_number': 1, 'chem_comp_name': '4-{2-(4-FLUORO-BENZYL)-6-METHYL-5-[(5-METHYL-ISOXAZOLE-3-CARBONYL)-AMINO]-4-OXO-HEPTANOYLAMINO}-5-(2-OXO-PYRROLIDIN-3-YL)-PENTANOIC ACID ETHYL ESTER', 'weight': 600.678, 'carbohydrate_polymer': False, 'branch_name': ''}]

>  <ligand_codes>  (84) 
['AG7', 'AG7']

>  <cofactor_codes>  (84) 
[]

>  <has_cofactor>  (84) 
False

>  <covalent>  (84) 
True

>  <base_name>  (84) 
7L8H

>  <lig_resn>  (84) 
AG7

>  <lig_resi>  (84) 
201

>  <lig_chain>  (84) 
A

>  <lig_segi>  (84) 
C

>  <lig_alt>  (84) 


>  <polymer_chain>  (84) 
A

>  <single_smiles>  (84) 
CCOC(=O)CC[C@H](C[C@@H]1CCNC1=O)NC(=O)[C@@H](CC(=O)[C@@H](NC(=O)c2cc(C)on2)C(C)C)Cc3ccc(F)cc3

$$$$
AG7P1S35
     RDKit          3D

 14 13  0  0  0  0  0  0  0  0999 V2000
   -9.8220   13.0040  -36.6320 C   0  0  0  0  0  0  0  0  0  0  0  0
   -9.6070   13.3430  -35.1580 C   0  0  2  0  0  0  0  0  0  0  0  0
   -9.3780   14.8340  -34.9810 C   0  0  0  0  0  0  0  0  0  0  0  0
   -8.3860   12.4890  -34.7650 C   0  0  0  0  0  0  0  0  0  0  0  0
   -8.9670   15.1660  -33.5270 C   0  0  0  0  0  0  0  0  0  0  0  0
   -7.2780   12.8740  -34.9380 O   0  0  0  0  0  0  0  0  0  0  0  0
   -8.4270   16.5590  -33.1920 C   0  0  1  0  0  0  0  0  0  0  0  0
   -9.0670   14.3600  -32.6690 O   0  0  0  0  0  0  0  0  0  0  0  0
   -8.8290   16.9260  -31.8420 N   0  0  0  0  0  0  0  0  0  0  0  0
   -6.9070   16.5400  -33.3360 C   0  0  0  0  0  0  0  0  0  0  0  0
   -9.9310   17.8800  -31.6460 C   0  0  0  0  0  0  0  0  0  0  0  0
   -6.3050   15.3610  -32.5860 C   0  0  0  0  0  0  0  0  0  0  0  0
   -6.3080   17.8490  -32.7930 C   0  0  0  0  0  0  0  0  0  0  0  0
  -10.4920   18.3500  -32.5750 O   0  0  0  0  0  0  0  0  0  0  0  0
  2  1  1  6
  2  3  1  0
  2  4  1  0
  5  3  1  0
  4  6  2  0
  5  7  1  0
  5  8  2  0
  7  9  1  1
  7 10  1  0
  9 11  1  0
 10 12  1  0
 10 13  1  0
 11 14  2  0
A    2
 C04
A    3
 C02
A    5
 C01
A    6
 O48
A    7
 C57
A    8
 O03
A    9
 N58
A   10
 C78
A   12
 C81
A   13
 C82
A   14
 O60
M  END
>  <XChem_code>  (85) 
AG7§1

>  <Occupancy>  (85) 
[1.0, 1.0, 1.0, 1.0, 1.0, 1.0, 1.0, 1.0, 1.0, 1.0, 1.0, 1.0, 1.0, 1.0, 1.0, 1.0, 1.0, 1.0, 1.0, 1.0, 1.0, 1.0, 1.0, 1.0, 1.0, 1.0, 1.0, 1.0, 1.0, 1.0, 1.0, 1.0, 1.0, 1.0, 1.0, 1.0, 1.0, 1.0, 1.0, 1.0, 1.0, 1.0, 1.0, 1.0]

>  <TempFactor>  (85) 
[27.43, 24.24, 28.92, 30.71, 25.26, 31.62, 25.98, 30.07, 31.48, 26.52, 28.51, 32.53, 36.38, 29.74, 29.67, 29.92, 32.9, 28.44, 30.67, 27.23, 22.26, 24.15, 27.42, 27.01, 29.05, 33.89, 30.31, 32.23, 39.3, 25.88, 27.54, 34.34, 31.54, 28.56, 32.59, 25.05, 28.93, 29.93, 36.51, 31.26, 26.19, 27.65, 26.83, 43.14]

>  <accession>  (85) 
7L8H_A

>  <description>  (85) 
Chain A, 3C Protease [enterovirus D68]

>  <evalue>  (85) 
8.3305400000000003e-132

>  <pdb_code>  (85) 
7L8H

>  <chain>  (85) 
A

>  <ligands>  (85) 
[{'chain_id': 'A', 'author_residue_number': 201, 'author_insertion_code': '', 'chem_comp_id': 'AG7', 'alternate_conformers': 0, 'entity_id': 2, 'struct_asym_id': 'C', 'residue_number': 1, 'chem_comp_name': '4-{2-(4-FLUORO-BENZYL)-6-METHYL-5-[(5-METHYL-ISOXAZOLE-3-CARBONYL)-AMINO]-4-OXO-HEPTANOYLAMINO}-5-(2-OXO-PYRROLIDIN-3-YL)-PENTANOIC ACID ETHYL ESTER', 'weight': 600.678, 'carbohydrate_polymer': False, 'branch_name': ''}, {'chain_id': 'B', 'author_residue_number': 201, 'author_insertion_code': '', 'chem_comp_id': 'AG7', 'alternate_conformers': 0, 'entity_id': 2, 'struct_asym_id': 'D', 'residue_number': 1, 'chem_comp_name': '4-{2-(4-FLUORO-BENZYL)-6-METHYL-5-[(5-METHYL-ISOXAZOLE-3-CARBONYL)-AMINO]-4-OXO-HEPTANOYLAMINO}-5-(2-OXO-PYRROLIDIN-3-YL)-PENTANOIC ACID ETHYL ESTER', 'weight': 600.678, 'carbohydrate_polymer': False, 'branch_name': ''}]

>  <ligand_codes>  (85) 
['AG7', 'AG7']

>  <cofactor_codes>  (85) 
[]

>  <has_cofactor>  (85) 
False

>  <covalent>  (85) 
True

>  <base_name>  (85) 
7L8H

>  <lig_resn>  (85) 
AG7

>  <lig_resi>  (85) 
201

>  <lig_chain>  (85) 
A

>  <lig_segi>  (85) 
C

>  <lig_alt>  (85) 


>  <polymer_chain>  (85) 
A

>  <single_smiles>  (85) 
CCOC(=O)CC[C@H](C[C@@H]1CCNC1=O)NC(=O)[C@@H](CC(=O)[C@@H](NC(=O)c2cc(C)on2)C(C)C)Cc3ccc(F)cc3

$$$$
AG7P1S36
     RDKit          3D

 15 14  0  0  0  0  0  0  0  0999 V2000
   -9.8220   13.0040  -36.6320 C   0  0  0  0  0  0  0  0  0  0  0  0
   -9.6070   13.3430  -35.1580 C   0  0  2  0  0  0  0  0  0  0  0  0
   -9.3780   14.8340  -34.9810 C   0  0  0  0  0  0  0  0  0  0  0  0
   -8.3860   12.4890  -34.7650 C   0  0  0  0  0  0  0  0  0  0  0  0
   -8.9670   15.1660  -33.5270 C   0  0  0  0  0  0  0  0  0  0  0  0
   -8.6560   11.1530  -34.1940 N   0  0  0  0  0  0  0  0  0  0  0  0
   -7.2780   12.8740  -34.9380 O   0  0  0  0  0  0  0  0  0  0  0  0
   -8.4270   16.5590  -33.1920 C   0  0  1  0  0  0  0  0  0  0  0  0
   -9.0670   14.3600  -32.6690 O   0  0  0  0  0  0  0  0  0  0  0  0
   -8.8290   16.9260  -31.8420 N   0  0  0  0  0  0  0  0  0  0  0  0
   -6.9070   16.5400  -33.3360 C   0  0  0  0  0  0  0  0  0  0  0  0
   -9.9310   17.8800  -31.6460 C   0  0  0  0  0  0  0  0  0  0  0  0
   -6.3050   15.3610  -32.5860 C   0  0  0  0  0  0  0  0  0  0  0  0
   -6.3080   17.8490  -32.7930 C   0  0  0  0  0  0  0  0  0  0  0  0
  -10.4920   18.3500  -32.5750 O   0  0  0  0  0  0  0  0  0  0  0  0
  2  1  1  6
  2  3  1  0
  2  4  1  0
  5  3  1  0
  6  4  1  0
  4  7  2  0
  5  8  1  0
  5  9  2  0
  8 10  1  1
  8 11  1  0
 10 12  1  0
 11 13  1  0
 11 14  1  0
 12 15  2  0
A    2
 C04
A    3
 C02
A    4
 C47
A    5
 C01
A    7
 O48
A    8
 C57
A    9
 O03
A   10
 N58
A   11
 C78
A   13
 C81
A   14
 C82
A   15
 O60
M  END
>  <XChem_code>  (86) 
AG7§1

>  <Occupancy>  (86) 
[1.0, 1.0, 1.0, 1.0, 1.0, 1.0, 1.0, 1.0, 1.0, 1.0, 1.0, 1.0, 1.0, 1.0, 1.0, 1.0, 1.0, 1.0, 1.0, 1.0, 1.0, 1.0, 1.0, 1.0, 1.0, 1.0, 1.0, 1.0, 1.0, 1.0, 1.0, 1.0, 1.0, 1.0, 1.0, 1.0, 1.0, 1.0, 1.0, 1.0, 1.0, 1.0, 1.0, 1.0]

>  <TempFactor>  (86) 
[27.43, 24.24, 28.92, 30.71, 25.26, 31.62, 25.98, 30.07, 31.48, 26.52, 28.51, 32.53, 36.38, 29.74, 29.67, 29.92, 32.9, 28.44, 30.67, 27.23, 22.26, 24.15, 27.42, 27.01, 29.05, 33.89, 30.31, 32.23, 39.3, 25.88, 27.54, 34.34, 31.54, 28.56, 32.59, 25.05, 28.93, 29.93, 36.51, 31.26, 26.19, 27.65, 26.83, 43.14]

>  <accession>  (86) 
7L8H_A

>  <description>  (86) 
Chain A, 3C Protease [enterovirus D68]

>  <evalue>  (86) 
8.3305400000000003e-132

>  <pdb_code>  (86) 
7L8H

>  <chain>  (86) 
A

>  <ligands>  (86) 
[{'chain_id': 'A', 'author_residue_number': 201, 'author_insertion_code': '', 'chem_comp_id': 'AG7', 'alternate_conformers': 0, 'entity_id': 2, 'struct_asym_id': 'C', 'residue_number': 1, 'chem_comp_name': '4-{2-(4-FLUORO-BENZYL)-6-METHYL-5-[(5-METHYL-ISOXAZOLE-3-CARBONYL)-AMINO]-4-OXO-HEPTANOYLAMINO}-5-(2-OXO-PYRROLIDIN-3-YL)-PENTANOIC ACID ETHYL ESTER', 'weight': 600.678, 'carbohydrate_polymer': False, 'branch_name': ''}, {'chain_id': 'B', 'author_residue_number': 201, 'author_insertion_code': '', 'chem_comp_id': 'AG7', 'alternate_conformers': 0, 'entity_id': 2, 'struct_asym_id': 'D', 'residue_number': 1, 'chem_comp_name': '4-{2-(4-FLUORO-BENZYL)-6-METHYL-5-[(5-METHYL-ISOXAZOLE-3-CARBONYL)-AMINO]-4-OXO-HEPTANOYLAMINO}-5-(2-OXO-PYRROLIDIN-3-YL)-PENTANOIC ACID ETHYL ESTER', 'weight': 600.678, 'carbohydrate_polymer': False, 'branch_name': ''}]

>  <ligand_codes>  (86) 
['AG7', 'AG7']

>  <cofactor_codes>  (86) 
[]

>  <has_cofactor>  (86) 
False

>  <covalent>  (86) 
True

>  <base_name>  (86) 
7L8H

>  <lig_resn>  (86) 
AG7

>  <lig_resi>  (86) 
201

>  <lig_chain>  (86) 
A

>  <lig_segi>  (86) 
C

>  <lig_alt>  (86) 


>  <polymer_chain>  (86) 
A

>  <single_smiles>  (86) 
CCOC(=O)CC[C@H](C[C@@H]1CCNC1=O)NC(=O)[C@@H](CC(=O)[C@@H](NC(=O)c2cc(C)on2)C(C)C)Cc3ccc(F)cc3

$$$$
AG7P1S37
     RDKit          3D

 31 31  0  0  0  0  0  0  0  0999 V2000
   -9.8220   13.0040  -36.6320 C   0  0  0  0  0  0  0  0  0  0  0  0
   -9.6070   13.3430  -35.1580 C   0  0  1  0  0  0  0  0  0  0  0  0
   -8.3860   12.4890  -34.7650 C   0  0  0  0  0  0  0  0  0  0  0  0
   -9.3780   14.8340  -34.9810 C   0  0  0  0  0  0  0  0  0  0  0  0
   -8.6560   11.1530  -34.1940 N   0  0  0  0  0  0  0  0  0  0  0  0
   -7.2780   12.8740  -34.9380 O   0  0  0  0  0  0  0  0  0  0  0  0
   -8.9670   15.1660  -33.5270 C   0  0  0  0  0  0  0  0  0  0  0  0
   -7.5720   10.2480  -33.8100 C   0  0  1  0  0  0  0  0  0  0  0  0
   -9.0670   14.3600  -32.6690 O   0  0  0  0  0  0  0  0  0  0  0  0
   -8.4270   16.5590  -33.1920 C   0  0  1  0  0  0  0  0  0  0  0  0
   -7.4790   10.1100  -32.3050 C   0  0  0  0  0  0  0  0  0  0  0  0
   -7.9420    8.8790  -34.3950 C   0  0  2  0  0  0  0  0  0  0  0  0
   -8.8290   16.9260  -31.8420 N   0  0  0  0  0  0  0  0  0  0  0  0
   -6.9070   16.5400  -33.3360 C   0  0  0  0  0  0  0  0  0  0  0  0
   -8.0380    8.7560  -35.9460 C   0  0  0  0  0  0  0  0  0  0  0  0
   -9.4950    8.1700  -33.9330 R   0  0  0  0  0  0  0  0  0  0  0  0
   -9.9310   17.8800  -31.6460 C   0  0  0  0  0  0  0  0  0  0  0  0
   -6.3050   15.3610  -32.5860 C   0  0  0  0  0  0  0  0  0  0  0  0
   -6.3080   17.8490  -32.7930 C   0  0  0  0  0  0  0  0  0  0  0  0
   -6.7120    9.1220  -36.6620 C   0  0  0  0  0  0  0  0  0  0  0  0
  -10.3610   18.2920  -30.2190 C   0  0  0  0  0  0  0  0  0  0  0  0
  -10.4920   18.3500  -32.5750 O   0  0  0  0  0  0  0  0  0  0  0  0
   -6.6630    9.2000  -38.0780 O   0  0  0  0  0  0  0  0  0  0  0  0
   -5.7350    9.3330  -36.0330 O   0  0  0  0  0  0  0  0  0  0  0  0
  -11.4490   19.0700  -29.8790 C   0  0  0  0  0  0  0  0  0  0  0  0
   -9.7220   17.9610  -29.0990 N   0  0  0  0  0  0  0  0  0  0  0  0
   -7.2150   10.3580  -38.6790 C   0  0  0  0  0  0  0  0  0  0  0  0
  -11.4560   19.2030  -28.5220 C   0  0  0  0  0  0  0  0  0  0  0  0
  -10.4040   18.5290  -28.0300 O   0  0  0  0  0  0  0  0  0  0  0  0
   -6.0980   11.1210  -39.4160 C   0  0  0  0  0  0  0  0  0  0  0  0
  -12.4800   19.9840  -27.6840 C   0  0  0  0  0  0  0  0  0  0  0  0
  2  1  1  6
  2  3  1  0
  2  4  1  0
  5  3  1  0
  3  6  2  0
  7  4  1  0
  5  8  1  0
  7  9  2  0
  7 10  1  0
  8 11  1  1
  8 12  1  0
 10 13  1  1
 10 14  1  0
 12 15  1  0
 12 16  1  1
 13 17  1  0
 14 18  1  0
 14 19  1  0
 15 20  1  0
 21 17  1  0
 17 22  2  0
 20 23  1  0
 20 24  2  0
 21 25  1  0
 21 26  2  0
 23 27  1  0
 25 28  2  0
 29 26  1  0
 27 30  1  0
 28 31  1  0
 28 29  1  0
V   16 *
A    2
 C04
A    3
 C47
A    4
 C02
A    5
 N12
A    6
 O48
A    7
 C01
A    8
 C13
A    9
 O03
A   10
 C57
A   12
 C19
A   13
 N58
A   14
 C78
A   15
 C20
A   16
 X  
A   17
 C59
A   18
 C81
A   19
 C82
A   20
 C21
A   21
 C1 
A   22
 O60
A   23
 O22
A   24
 O23
A   25
 C2 
A   26
 N5 
A   27
 C50
A   28
 C3 
A   29
 O4 
A   30
 C53
A   31
 C4 
M  END
>  <XChem_code>  (87) 
AG7§1

>  <Occupancy>  (87) 
[1.0, 1.0, 1.0, 1.0, 1.0, 1.0, 1.0, 1.0, 1.0, 1.0, 1.0, 1.0, 1.0, 1.0, 1.0, 1.0, 1.0, 1.0, 1.0, 1.0, 1.0, 1.0, 1.0, 1.0, 1.0, 1.0, 1.0, 1.0, 1.0, 1.0, 1.0, 1.0, 1.0, 1.0, 1.0, 1.0, 1.0, 1.0, 1.0, 1.0, 1.0, 1.0, 1.0, 1.0]

>  <TempFactor>  (87) 
[27.43, 24.24, 28.92, 30.71, 25.26, 31.62, 25.98, 30.07, 31.48, 26.52, 28.51, 32.53, 36.38, 29.74, 29.67, 29.92, 32.9, 28.44, 30.67, 27.23, 22.26, 24.15, 27.42, 27.01, 29.05, 33.89, 30.31, 32.23, 39.3, 25.88, 27.54, 34.34, 31.54, 28.56, 32.59, 25.05, 28.93, 29.93, 36.51, 31.26, 26.19, 27.65, 26.83, 43.14]

>  <accession>  (87) 
7L8H_A

>  <description>  (87) 
Chain A, 3C Protease [enterovirus D68]

>  <evalue>  (87) 
8.3305400000000003e-132

>  <pdb_code>  (87) 
7L8H

>  <chain>  (87) 
A

>  <ligands>  (87) 
[{'chain_id': 'A', 'author_residue_number': 201, 'author_insertion_code': '', 'chem_comp_id': 'AG7', 'alternate_conformers': 0, 'entity_id': 2, 'struct_asym_id': 'C', 'residue_number': 1, 'chem_comp_name': '4-{2-(4-FLUORO-BENZYL)-6-METHYL-5-[(5-METHYL-ISOXAZOLE-3-CARBONYL)-AMINO]-4-OXO-HEPTANOYLAMINO}-5-(2-OXO-PYRROLIDIN-3-YL)-PENTANOIC ACID ETHYL ESTER', 'weight': 600.678, 'carbohydrate_polymer': False, 'branch_name': ''}, {'chain_id': 'B', 'author_residue_number': 201, 'author_insertion_code': '', 'chem_comp_id': 'AG7', 'alternate_conformers': 0, 'entity_id': 2, 'struct_asym_id': 'D', 'residue_number': 1, 'chem_comp_name': '4-{2-(4-FLUORO-BENZYL)-6-METHYL-5-[(5-METHYL-ISOXAZOLE-3-CARBONYL)-AMINO]-4-OXO-HEPTANOYLAMINO}-5-(2-OXO-PYRROLIDIN-3-YL)-PENTANOIC ACID ETHYL ESTER', 'weight': 600.678, 'carbohydrate_polymer': False, 'branch_name': ''}]

>  <ligand_codes>  (87) 
['AG7', 'AG7']

>  <cofactor_codes>  (87) 
[]

>  <has_cofactor>  (87) 
False

>  <covalent>  (87) 
True

>  <base_name>  (87) 
7L8H

>  <lig_resn>  (87) 
AG7

>  <lig_resi>  (87) 
201

>  <lig_chain>  (87) 
A

>  <lig_segi>  (87) 
C

>  <lig_alt>  (87) 


>  <polymer_chain>  (87) 
A

>  <single_smiles>  (87) 
CCOC(=O)CC[C@H](C[C@@H]1CCNC1=O)NC(=O)[C@@H](CC(=O)[C@@H](NC(=O)c2cc(C)on2)C(C)C)Cc3ccc(F)cc3

$$$$
AG7P1S38
     RDKit          3D

 23 22  0  0  0  0  0  0  0  0999 V2000
   -9.8220   13.0040  -36.6320 C   0  0  0  0  0  0  0  0  0  0  0  0
   -9.6070   13.3430  -35.1580 C   0  0  1  0  0  0  0  0  0  0  0  0
   -8.3860   12.4890  -34.7650 C   0  0  0  0  0  0  0  0  0  0  0  0
   -9.3780   14.8340  -34.9810 C   0  0  0  0  0  0  0  0  0  0  0  0
   -8.6560   11.1530  -34.1940 N   0  0  0  0  0  0  0  0  0  0  0  0
   -7.2780   12.8740  -34.9380 O   0  0  0  0  0  0  0  0  0  0  0  0
   -8.9670   15.1660  -33.5270 C   0  0  0  0  0  0  0  0  0  0  0  0
   -7.5720   10.2480  -33.8100 C   0  0  1  0  0  0  0  0  0  0  0  0
   -8.4270   16.5590  -33.1920 C   0  0  1  0  0  0  0  0  0  0  0  0
   -9.0670   14.3600  -32.6690 O   0  0  0  0  0  0  0  0  0  0  0  0
   -7.4790   10.1100  -32.3050 C   0  0  0  0  0  0  0  0  0  0  0  0
   -7.9420    8.8790  -34.3950 C   0  0  2  0  0  0  0  0  0  0  0  0
   -8.8290   16.9260  -31.8420 N   0  0  0  0  0  0  0  0  0  0  0  0
   -6.9070   16.5400  -33.3360 C   0  0  0  0  0  0  0  0  0  0  0  0
   -8.0380    8.7560  -35.9460 C   0  0  0  0  0  0  0  0  0  0  0  0
   -9.4950    8.1700  -33.9330 R   0  0  0  0  0  0  0  0  0  0  0  0
   -6.3050   15.3610  -32.5860 C   0  0  0  0  0  0  0  0  0  0  0  0
   -6.3080   17.8490  -32.7930 C   0  0  0  0  0  0  0  0  0  0  0  0
   -6.7120    9.1220  -36.6620 C   0  0  0  0  0  0  0  0  0  0  0  0
   -6.6630    9.2000  -38.0780 O   0  0  0  0  0  0  0  0  0  0  0  0
   -5.7350    9.3330  -36.0330 O   0  0  0  0  0  0  0  0  0  0  0  0
   -7.2150   10.3580  -38.6790 C   0  0  0  0  0  0  0  0  0  0  0  0
   -6.0980   11.1210  -39.4160 C   0  0  0  0  0  0  0  0  0  0  0  0
  2  1  1  6
  2  3  1  0
  2  4  1  0
  5  3  1  0
  3  6  2  0
  7  4  1  0
  5  8  1  0
  7  9  1  0
  7 10  2  0
  8 11  1  1
  8 12  1  0
  9 13  1  1
  9 14  1  0
 12 15  1  0
 12 16  1  1
 14 17  1  0
 14 18  1  0
 15 19  1  0
 19 20  1  0
 19 21  2  0
 20 22  1  0
 22 23  1  0
V   16 *
A    2
 C04
A    3
 C47
A    4
 C02
A    5
 N12
A    6
 O48
A    7
 C01
A    8
 C13
A    9
 C57
A   10
 O03
A   12
 C19
A   14
 C78
A   15
 C20
A   16
 X  
A   17
 C81
A   18
 C82
A   19
 C21
A   20
 O22
A   21
 O23
A   22
 C50
A   23
 C53
M  END
>  <XChem_code>  (88) 
AG7§1

>  <Occupancy>  (88) 
[1.0, 1.0, 1.0, 1.0, 1.0, 1.0, 1.0, 1.0, 1.0, 1.0, 1.0, 1.0, 1.0, 1.0, 1.0, 1.0, 1.0, 1.0, 1.0, 1.0, 1.0, 1.0, 1.0, 1.0, 1.0, 1.0, 1.0, 1.0, 1.0, 1.0, 1.0, 1.0, 1.0, 1.0, 1.0, 1.0, 1.0, 1.0, 1.0, 1.0, 1.0, 1.0, 1.0, 1.0]

>  <TempFactor>  (88) 
[27.43, 24.24, 28.92, 30.71, 25.26, 31.62, 25.98, 30.07, 31.48, 26.52, 28.51, 32.53, 36.38, 29.74, 29.67, 29.92, 32.9, 28.44, 30.67, 27.23, 22.26, 24.15, 27.42, 27.01, 29.05, 33.89, 30.31, 32.23, 39.3, 25.88, 27.54, 34.34, 31.54, 28.56, 32.59, 25.05, 28.93, 29.93, 36.51, 31.26, 26.19, 27.65, 26.83, 43.14]

>  <accession>  (88) 
7L8H_A

>  <description>  (88) 
Chain A, 3C Protease [enterovirus D68]

>  <evalue>  (88) 
8.3305400000000003e-132

>  <pdb_code>  (88) 
7L8H

>  <chain>  (88) 
A

>  <ligands>  (88) 
[{'chain_id': 'A', 'author_residue_number': 201, 'author_insertion_code': '', 'chem_comp_id': 'AG7', 'alternate_conformers': 0, 'entity_id': 2, 'struct_asym_id': 'C', 'residue_number': 1, 'chem_comp_name': '4-{2-(4-FLUORO-BENZYL)-6-METHYL-5-[(5-METHYL-ISOXAZOLE-3-CARBONYL)-AMINO]-4-OXO-HEPTANOYLAMINO}-5-(2-OXO-PYRROLIDIN-3-YL)-PENTANOIC ACID ETHYL ESTER', 'weight': 600.678, 'carbohydrate_polymer': False, 'branch_name': ''}, {'chain_id': 'B', 'author_residue_number': 201, 'author_insertion_code': '', 'chem_comp_id': 'AG7', 'alternate_conformers': 0, 'entity_id': 2, 'struct_asym_id': 'D', 'residue_number': 1, 'chem_comp_name': '4-{2-(4-FLUORO-BENZYL)-6-METHYL-5-[(5-METHYL-ISOXAZOLE-3-CARBONYL)-AMINO]-4-OXO-HEPTANOYLAMINO}-5-(2-OXO-PYRROLIDIN-3-YL)-PENTANOIC ACID ETHYL ESTER', 'weight': 600.678, 'carbohydrate_polymer': False, 'branch_name': ''}]

>  <ligand_codes>  (88) 
['AG7', 'AG7']

>  <cofactor_codes>  (88) 
[]

>  <has_cofactor>  (88) 
False

>  <covalent>  (88) 
True

>  <base_name>  (88) 
7L8H

>  <lig_resn>  (88) 
AG7

>  <lig_resi>  (88) 
201

>  <lig_chain>  (88) 
A

>  <lig_segi>  (88) 
C

>  <lig_alt>  (88) 


>  <polymer_chain>  (88) 
A

>  <single_smiles>  (88) 
CCOC(=O)CC[C@H](C[C@@H]1CCNC1=O)NC(=O)[C@@H](CC(=O)[C@@H](NC(=O)c2cc(C)on2)C(C)C)Cc3ccc(F)cc3

$$$$
AG7P1S39
     RDKit          3D

 22 21  0  0  0  0  0  0  0  0999 V2000
   -9.8220   13.0040  -36.6320 C   0  0  0  0  0  0  0  0  0  0  0  0
   -9.6070   13.3430  -35.1580 C   0  0  1  0  0  0  0  0  0  0  0  0
   -8.3860   12.4890  -34.7650 C   0  0  0  0  0  0  0  0  0  0  0  0
   -9.3780   14.8340  -34.9810 C   0  0  0  0  0  0  0  0  0  0  0  0
   -8.6560   11.1530  -34.1940 N   0  0  0  0  0  0  0  0  0  0  0  0
   -7.2780   12.8740  -34.9380 O   0  0  0  0  0  0  0  0  0  0  0  0
   -8.9670   15.1660  -33.5270 C   0  0  0  0  0  0  0  0  0  0  0  0
   -7.5720   10.2480  -33.8100 C   0  0  1  0  0  0  0  0  0  0  0  0
   -8.4270   16.5590  -33.1920 C   0  0  0  0  0  0  0  0  0  0  0  0
   -9.0670   14.3600  -32.6690 O   0  0  0  0  0  0  0  0  0  0  0  0
   -7.4790   10.1100  -32.3050 C   0  0  0  0  0  0  0  0  0  0  0  0
   -7.9420    8.8790  -34.3950 C   0  0  2  0  0  0  0  0  0  0  0  0
   -6.9070   16.5400  -33.3360 C   0  0  0  0  0  0  0  0  0  0  0  0
   -8.0380    8.7560  -35.9460 C   0  0  0  0  0  0  0  0  0  0  0  0
   -9.4950    8.1700  -33.9330 R   0  0  0  0  0  0  0  0  0  0  0  0
   -6.3050   15.3610  -32.5860 C   0  0  0  0  0  0  0  0  0  0  0  0
   -6.3080   17.8490  -32.7930 C   0  0  0  0  0  0  0  0  0  0  0  0
   -6.7120    9.1220  -36.6620 C   0  0  0  0  0  0  0  0  0  0  0  0
   -6.6630    9.2000  -38.0780 O   0  0  0  0  0  0  0  0  0  0  0  0
   -5.7350    9.3330  -36.0330 O   0  0  0  0  0  0  0  0  0  0  0  0
   -7.2150   10.3580  -38.6790 C   0  0  0  0  0  0  0  0  0  0  0  0
   -6.0980   11.1210  -39.4160 C   0  0  0  0  0  0  0  0  0  0  0  0
  2  1  1  6
  2  3  1  0
  2  4  1  0
  5  3  1  0
  3  6  2  0
  7  4  1  0
  5  8  1  0
  7  9  1  0
  7 10  2  0
  8 11  1  1
  8 12  1  0
  9 13  1  6
 12 14  1  0
 12 15  1  1
 13 16  1  0
 13 17  1  0
 14 18  1  0
 18 19  1  0
 18 20  2  0
 19 21  1  0
 21 22  1  0
V   15 *
A    2
 C04
A    3
 C47
A    4
 C02
A    5
 N12
A    6
 O48
A    7
 C01
A    8
 C13
A   10
 O03
A   12
 C19
A   13
 C78
A   14
 C20
A   15
 X  
A   16
 C81
A   17
 C82
A   18
 C21
A   19
 O22
A   20
 O23
A   21
 C50
A   22
 C53
M  END
>  <XChem_code>  (89) 
AG7§1

>  <Occupancy>  (89) 
[1.0, 1.0, 1.0, 1.0, 1.0, 1.0, 1.0, 1.0, 1.0, 1.0, 1.0, 1.0, 1.0, 1.0, 1.0, 1.0, 1.0, 1.0, 1.0, 1.0, 1.0, 1.0, 1.0, 1.0, 1.0, 1.0, 1.0, 1.0, 1.0, 1.0, 1.0, 1.0, 1.0, 1.0, 1.0, 1.0, 1.0, 1.0, 1.0, 1.0, 1.0, 1.0, 1.0, 1.0]

>  <TempFactor>  (89) 
[27.43, 24.24, 28.92, 30.71, 25.26, 31.62, 25.98, 30.07, 31.48, 26.52, 28.51, 32.53, 36.38, 29.74, 29.67, 29.92, 32.9, 28.44, 30.67, 27.23, 22.26, 24.15, 27.42, 27.01, 29.05, 33.89, 30.31, 32.23, 39.3, 25.88, 27.54, 34.34, 31.54, 28.56, 32.59, 25.05, 28.93, 29.93, 36.51, 31.26, 26.19, 27.65, 26.83, 43.14]

>  <accession>  (89) 
7L8H_A

>  <description>  (89) 
Chain A, 3C Protease [enterovirus D68]

>  <evalue>  (89) 
8.3305400000000003e-132

>  <pdb_code>  (89) 
7L8H

>  <chain>  (89) 
A

>  <ligands>  (89) 
[{'chain_id': 'A', 'author_residue_number': 201, 'author_insertion_code': '', 'chem_comp_id': 'AG7', 'alternate_conformers': 0, 'entity_id': 2, 'struct_asym_id': 'C', 'residue_number': 1, 'chem_comp_name': '4-{2-(4-FLUORO-BENZYL)-6-METHYL-5-[(5-METHYL-ISOXAZOLE-3-CARBONYL)-AMINO]-4-OXO-HEPTANOYLAMINO}-5-(2-OXO-PYRROLIDIN-3-YL)-PENTANOIC ACID ETHYL ESTER', 'weight': 600.678, 'carbohydrate_polymer': False, 'branch_name': ''}, {'chain_id': 'B', 'author_residue_number': 201, 'author_insertion_code': '', 'chem_comp_id': 'AG7', 'alternate_conformers': 0, 'entity_id': 2, 'struct_asym_id': 'D', 'residue_number': 1, 'chem_comp_name': '4-{2-(4-FLUORO-BENZYL)-6-METHYL-5-[(5-METHYL-ISOXAZOLE-3-CARBONYL)-AMINO]-4-OXO-HEPTANOYLAMINO}-5-(2-OXO-PYRROLIDIN-3-YL)-PENTANOIC ACID ETHYL ESTER', 'weight': 600.678, 'carbohydrate_polymer': False, 'branch_name': ''}]

>  <ligand_codes>  (89) 
['AG7', 'AG7']

>  <cofactor_codes>  (89) 
[]

>  <has_cofactor>  (89) 
False

>  <covalent>  (89) 
True

>  <base_name>  (89) 
7L8H

>  <lig_resn>  (89) 
AG7

>  <lig_resi>  (89) 
201

>  <lig_chain>  (89) 
A

>  <lig_segi>  (89) 
C

>  <lig_alt>  (89) 


>  <polymer_chain>  (89) 
A

>  <single_smiles>  (89) 
CCOC(=O)CC[C@H](C[C@@H]1CCNC1=O)NC(=O)[C@@H](CC(=O)[C@@H](NC(=O)c2cc(C)on2)C(C)C)Cc3ccc(F)cc3

$$$$
AG7P1S40
     RDKit          3D

 25 24  0  0  0  0  0  0  0  0999 V2000
   -9.8220   13.0040  -36.6320 C   0  0  0  0  0  0  0  0  0  0  0  0
   -9.6070   13.3430  -35.1580 C   0  0  1  0  0  0  0  0  0  0  0  0
   -8.3860   12.4890  -34.7650 C   0  0  0  0  0  0  0  0  0  0  0  0
   -9.3780   14.8340  -34.9810 C   0  0  0  0  0  0  0  0  0  0  0  0
   -8.6560   11.1530  -34.1940 N   0  0  0  0  0  0  0  0  0  0  0  0
   -7.2780   12.8740  -34.9380 O   0  0  0  0  0  0  0  0  0  0  0  0
   -8.9670   15.1660  -33.5270 C   0  0  0  0  0  0  0  0  0  0  0  0
   -7.5720   10.2480  -33.8100 C   0  0  1  0  0  0  0  0  0  0  0  0
   -8.4270   16.5590  -33.1920 C   0  0  1  0  0  0  0  0  0  0  0  0
   -9.0670   14.3600  -32.6690 O   0  0  0  0  0  0  0  0  0  0  0  0
   -7.4790   10.1100  -32.3050 C   0  0  0  0  0  0  0  0  0  0  0  0
   -7.9420    8.8790  -34.3950 C   0  0  2  0  0  0  0  0  0  0  0  0
   -8.8290   16.9260  -31.8420 N   0  0  0  0  0  0  0  0  0  0  0  0
   -6.9070   16.5400  -33.3360 C   0  0  0  0  0  0  0  0  0  0  0  0
   -8.0380    8.7560  -35.9460 C   0  0  0  0  0  0  0  0  0  0  0  0
   -9.4950    8.1700  -33.9330 R   0  0  0  0  0  0  0  0  0  0  0  0
   -9.9310   17.8800  -31.6460 C   0  0  0  0  0  0  0  0  0  0  0  0
   -6.3050   15.3610  -32.5860 C   0  0  0  0  0  0  0  0  0  0  0  0
   -6.3080   17.8490  -32.7930 C   0  0  0  0  0  0  0  0  0  0  0  0
   -6.7120    9.1220  -36.6620 C   0  0  0  0  0  0  0  0  0  0  0  0
  -10.4920   18.3500  -32.5750 O   0  0  0  0  0  0  0  0  0  0  0  0
   -6.6630    9.2000  -38.0780 O   0  0  0  0  0  0  0  0  0  0  0  0
   -5.7350    9.3330  -36.0330 O   0  0  0  0  0  0  0  0  0  0  0  0
   -7.2150   10.3580  -38.6790 C   0  0  0  0  0  0  0  0  0  0  0  0
   -6.0980   11.1210  -39.4160 C   0  0  0  0  0  0  0  0  0  0  0  0
  2  1  1  6
  2  3  1  0
  2  4  1  0
  5  3  1  0
  3  6  2  0
  7  4  1  0
  5  8  1  0
  7  9  1  0
  7 10  2  0
  8 11  1  1
  8 12  1  0
  9 13  1  1
  9 14  1  0
 12 15  1  0
 12 16  1  1
 13 17  1  0
 14 18  1  0
 14 19  1  0
 15 20  1  0
 17 21  2  0
 20 22  1  0
 20 23  2  0
 22 24  1  0
 24 25  1  0
V   16 *
A    2
 C04
A    3
 C47
A    4
 C02
A    5
 N12
A    6
 O48
A    7
 C01
A    8
 C13
A    9
 C57
A   10
 O03
A   12
 C19
A   13
 N58
A   14
 C78
A   15
 C20
A   16
 X  
A   18
 C81
A   19
 C82
A   20
 C21
A   21
 O60
A   22
 O22
A   23
 O23
A   24
 C50
A   25
 C53
M  END
>  <XChem_code>  (90) 
AG7§1

>  <Occupancy>  (90) 
[1.0, 1.0, 1.0, 1.0, 1.0, 1.0, 1.0, 1.0, 1.0, 1.0, 1.0, 1.0, 1.0, 1.0, 1.0, 1.0, 1.0, 1.0, 1.0, 1.0, 1.0, 1.0, 1.0, 1.0, 1.0, 1.0, 1.0, 1.0, 1.0, 1.0, 1.0, 1.0, 1.0, 1.0, 1.0, 1.0, 1.0, 1.0, 1.0, 1.0, 1.0, 1.0, 1.0, 1.0]

>  <TempFactor>  (90) 
[27.43, 24.24, 28.92, 30.71, 25.26, 31.62, 25.98, 30.07, 31.48, 26.52, 28.51, 32.53, 36.38, 29.74, 29.67, 29.92, 32.9, 28.44, 30.67, 27.23, 22.26, 24.15, 27.42, 27.01, 29.05, 33.89, 30.31, 32.23, 39.3, 25.88, 27.54, 34.34, 31.54, 28.56, 32.59, 25.05, 28.93, 29.93, 36.51, 31.26, 26.19, 27.65, 26.83, 43.14]

>  <accession>  (90) 
7L8H_A

>  <description>  (90) 
Chain A, 3C Protease [enterovirus D68]

>  <evalue>  (90) 
8.3305400000000003e-132

>  <pdb_code>  (90) 
7L8H

>  <chain>  (90) 
A

>  <ligands>  (90) 
[{'chain_id': 'A', 'author_residue_number': 201, 'author_insertion_code': '', 'chem_comp_id': 'AG7', 'alternate_conformers': 0, 'entity_id': 2, 'struct_asym_id': 'C', 'residue_number': 1, 'chem_comp_name': '4-{2-(4-FLUORO-BENZYL)-6-METHYL-5-[(5-METHYL-ISOXAZOLE-3-CARBONYL)-AMINO]-4-OXO-HEPTANOYLAMINO}-5-(2-OXO-PYRROLIDIN-3-YL)-PENTANOIC ACID ETHYL ESTER', 'weight': 600.678, 'carbohydrate_polymer': False, 'branch_name': ''}, {'chain_id': 'B', 'author_residue_number': 201, 'author_insertion_code': '', 'chem_comp_id': 'AG7', 'alternate_conformers': 0, 'entity_id': 2, 'struct_asym_id': 'D', 'residue_number': 1, 'chem_comp_name': '4-{2-(4-FLUORO-BENZYL)-6-METHYL-5-[(5-METHYL-ISOXAZOLE-3-CARBONYL)-AMINO]-4-OXO-HEPTANOYLAMINO}-5-(2-OXO-PYRROLIDIN-3-YL)-PENTANOIC ACID ETHYL ESTER', 'weight': 600.678, 'carbohydrate_polymer': False, 'branch_name': ''}]

>  <ligand_codes>  (90) 
['AG7', 'AG7']

>  <cofactor_codes>  (90) 
[]

>  <has_cofactor>  (90) 
False

>  <covalent>  (90) 
True

>  <base_name>  (90) 
7L8H

>  <lig_resn>  (90) 
AG7

>  <lig_resi>  (90) 
201

>  <lig_chain>  (90) 
A

>  <lig_segi>  (90) 
C

>  <lig_alt>  (90) 


>  <polymer_chain>  (90) 
A

>  <single_smiles>  (90) 
CCOC(=O)CC[C@H](C[C@@H]1CCNC1=O)NC(=O)[C@@H](CC(=O)[C@@H](NC(=O)c2cc(C)on2)C(C)C)Cc3ccc(F)cc3

$$$$
I70P1
     RDKit          3D

 40 42  0  0  0  0  0  0  0  0999 V2000
   -6.7100    7.5940  -35.0980 C   0  0  0  0  0  0  0  0  0  0  0  0
   -5.7690    7.4620  -36.2130 N   0  0  0  0  0  0  0  0  0  0  0  0
   -6.5030    6.9520  -34.0860 O   0  0  0  0  0  0  0  0  0  0  0  0
  -10.2720   19.4140  -30.9250 C   0  0  0  0  0  0  0  0  0  0  0  0
   -7.9070    8.5330  -35.2310 C   0  0  2  0  0  0  0  0  0  0  0  0
   -9.3150   18.6410  -31.7230 N   0  0  0  0  0  0  0  0  0  0  0  0
   -9.5750   17.8270  -32.7770 C   0  0  0  0  0  0  0  0  0  0  0  0
   -8.2130    8.7260  -36.6160 O   0  0  0  0  0  0  0  0  0  0  0  0
   -8.9660   16.6250  -32.7020 N   0  0  0  0  0  0  0  0  0  0  0  0
   -8.3630   16.0030  -33.8690 C   0  0  2  0  0  0  0  0  0  0  0  0
   -9.0070   14.6310  -34.0940 C   0  0  0  0  0  0  0  0  0  0  0  0
   -9.2580   15.2350  -36.5040 C   0  0  0  0  0  0  0  0  0  0  0  0
   -9.2900   14.2880  -35.3720 N   0  0  0  0  0  0  0  0  0  0  0  0
   -9.6500   12.9180  -35.7630 C   0  0  2  0  0  0  0  0  0  0  0  0
   -8.4570   11.9880  -35.5730 C   0  0  0  0  0  0  0  0  0  0  0  0
   -9.7390   14.4350  -37.6990 C   0  0  2  0  0  0  0  0  0  0  0  0
   -8.6950   10.8790  -34.8670 N   0  0  0  0  0  0  0  0  0  0  0  0
   -7.6460    9.8980  -34.5540 C   0  0  1  0  0  0  0  0  0  0  0  0
  -11.1540   13.9060  -37.6990 C   0  0  0  0  0  0  0  0  0  0  0  0
   -7.5160    9.8180  -33.0360 C   0  0  0  0  0  0  0  0  0  0  0  0
   -6.8770   11.0810  -32.4750 C   0  0  2  0  0  0  0  0  0  0  0  0
   -5.4440   11.3950  -32.9000 C   0  0  0  0  0  0  0  0  0  0  0  0
   -4.7930   12.0080  -31.6580 C   0  0  0  0  0  0  0  0  0  0  0  0
  -12.1980   14.3060  -36.6810 C   0  0  0  0  0  0  0  0  0  0  0  0
   -5.7180   11.6730  -30.5800 N   0  0  0  0  0  0  0  0  0  0  0  0
   -6.7630   10.9530  -30.9740 C   0  0  0  0  0  0  0  0  0  0  0  0
  -11.7390   13.8010  -39.0890 C   0  0  0  0  0  0  0  0  0  0  0  0
   -6.1840   15.2770  -34.9440 C   0  0  0  0  0  0  0  0  0  0  0  0
   -7.5140   10.2610  -30.2510 O   0  0  0  0  0  0  0  0  0  0  0  0
  -10.6940   20.3840  -32.0240 C   0  0  0  0  0  0  0  0  0  0  0  0
  -11.5630   18.7460  -30.5020 C   0  0  0  0  0  0  0  0  0  0  0  0
   -9.7000   20.3340  -29.8730 C   0  0  0  0  0  0  0  0  0  0  0  0
  -10.2600   18.1440  -33.7750 O   0  0  0  0  0  0  0  0  0  0  0  0
   -6.8280   15.9940  -33.7560 C   0  0  0  0  0  0  0  0  0  0  0  0
   -6.3140   17.4370  -33.7470 C   0  0  0  0  0  0  0  0  0  0  0  0
   -6.3720   15.3070  -32.4630 C   0  0  0  0  0  0  0  0  0  0  0  0
   -9.2830   13.8960  -33.1310 O   0  0  0  0  0  0  0  0  0  0  0  0
  -10.0130   13.0150  -37.2410 C   0  0  2  0  0  0  0  0  0  0  0  0
   -7.3460   12.2960  -36.0060 O   0  0  0  0  0  0  0  0  0  0  0  0
   -9.3180    7.9910  -34.2220 R   0  0  0  0  0  0  0  0  0  0  0  0
  1  2  1  0
  1  3  1  0
  1  5  1  0
  4  6  1  0
  4 30  1  0
  4 31  1  0
  4 32  1  0
  5  8  1  0
  5 18  1  0
  5 40  1  1
  6  7  1  0
  7  9  1  0
  7 33  1  0
 10  9  1  1
 10 11  1  0
 10 34  1  0
 11 13  1  0
 11 37  1  0
 12 13  1  0
 16 12  1  1
 13 14  1  0
 14 15  1  6
 38 14  1  0
 15 17  1  0
 15 39  1  0
 16 19  1  0
 16 38  1  0
 17 18  1  0
 18 20  1  1
 19 24  1  0
 19 27  1  0
 38 19  1  1
 21 20  1  6
 21 22  1  0
 21 26  1  0
 22 23  1  0
 23 25  1  0
 25 26  1  0
 26 29  1  0
 34 28  1  0
 34 35  1  0
 34 36  1  0
V   40 *
A    1
 C1 
A    2
 N2 
A    3
 O5 
A    4
 C7 
A    5
 C8 
A    6
 N8 
A    7
 C9 
A    8
 O9 
A    9
 N10
A   10
 C11
A   11
 C12
A   12
 C13
A   13
 N13
A   14
 C14
A   15
 C15
A   16
 C16
A   17
 N16
A   18
 C17
A   19
 C18
A   20
 C19
A   21
 C20
A   22
 C21
A   23
 C22
A   24
 C23
A   25
 N23
A   26
 C24
A   27
 C25
A   28
 C26
A   29
 O26
A   30
 C27
A   31
 C28
A   32
 C29
A   33
 O29
A   34
 C30
A   35
 C31
A   36
 C32
A   37
 O33
A   38
 C34
A   39
 O38
A   40
 X  
M  END
>  <XChem_code>  (91) 
I70§1

>  <Occupancy>  (91) 
[1.0, 1.0, 1.0, 1.0, 1.0, 1.0, 1.0, 1.0, 1.0, 1.0, 1.0, 1.0, 1.0, 1.0, 1.0, 1.0, 1.0, 1.0, 1.0, 1.0, 1.0, 1.0, 1.0, 1.0, 1.0, 1.0, 1.0, 1.0, 1.0, 1.0, 1.0, 1.0, 1.0, 1.0, 1.0, 1.0, 1.0, 1.0, 1.0, 1.0]

>  <TempFactor>  (91) 
[63.58, 69.08, 56.96, 91.85, 58.99, 85.97, 82.0, 52.36, 73.05, 70.66, 67.47, 64.86, 62.73, 58.1, 56.76, 63.59, 54.89, 58.5, 61.5, 60.05, 60.39, 63.68, 62.48, 49.52, 61.26, 62.28, 64.93, 65.54, 55.79, 95.6, 91.48, 91.79, 68.22, 64.56, 72.88, 62.05, 61.78, 61.48, 53.44, 57.91]

>  <accession>  (91) 
7QUW_AAA

>  <description>  (91) 
Chain AAA, Protease 3C [Coxsackievirus B3]

>  <evalue>  (91) 
7.4010300000000003e-88

>  <pdb_code>  (91) 
7QUW

>  <chain>  (91) 
AAA

>  <ligands>  (91) 
[{'chain_id': 'AAA', 'author_residue_number': 201, 'author_insertion_code': '', 'chem_comp_id': 'I70', 'alternate_conformers': 0, 'entity_id': 2, 'struct_asym_id': 'B', 'residue_number': 1, 'chem_comp_name': '(1R,2S,5S)-N-{(2S,3R)-4-amino-3-hydroxy-4-oxo-1-[(3S)-2-oxopyrrolidin-3-yl]butan-2-yl}-3-[N-(tert-butylcarbamoyl)-3-methyl-L-valyl]-6,6-dimethyl-3-azabicyclo[3.1.0]hexane-2-carboxamide', 'weight': 550.691, 'carbohydrate_polymer': False, 'branch_name': ''}]

>  <ligand_codes>  (91) 
['I70']

>  <cofactor_codes>  (91) 
[]

>  <has_cofactor>  (91) 
False

>  <covalent>  (91) 
True

>  <base_name>  (91) 
7QUW

>  <lig_resn>  (91) 
I70

>  <lig_resi>  (91) 
201

>  <lig_chain>  (91) 
AAA

>  <lig_segi>  (91) 
B

>  <lig_alt>  (91) 


>  <polymer_chain>  (91) 
A

>  <single_smiles>  (91) 
CC(C)(C)NC(=O)N[C@H](C(=O)N1C[C@H]2[C@@H]([C@H]1C(=O)N[C@@H](C[C@@H]3CCNC3=O)[C@@H](O)C(N)=O)C2(C)C)C(C)(C)C

$$$$
I70P1S1
     RDKit          3D

  4  3  0  0  0  0  0  0  0  0999 V2000
  -10.2720   19.4140  -30.9250 C   0  0  0  0  0  0  0  0  0  0  0  0
  -10.6940   20.3840  -32.0240 C   0  0  0  0  0  0  0  0  0  0  0  0
  -11.5630   18.7460  -30.5020 C   0  0  0  0  0  0  0  0  0  0  0  0
   -9.7000   20.3340  -29.8730 C   0  0  0  0  0  0  0  0  0  0  0  0
  1  2  1  0
  1  3  1  0
  1  4  1  0
A    2
 C27
A    3
 C28
A    4
 C29
M  END
>  <XChem_code>  (92) 
I70§1

>  <Occupancy>  (92) 
[1.0, 1.0, 1.0, 1.0, 1.0, 1.0, 1.0, 1.0, 1.0, 1.0, 1.0, 1.0, 1.0, 1.0, 1.0, 1.0, 1.0, 1.0, 1.0, 1.0, 1.0, 1.0, 1.0, 1.0, 1.0, 1.0, 1.0, 1.0, 1.0, 1.0, 1.0, 1.0, 1.0, 1.0, 1.0, 1.0, 1.0, 1.0, 1.0, 1.0]

>  <TempFactor>  (92) 
[63.58, 69.08, 56.96, 91.85, 58.99, 85.97, 82.0, 52.36, 73.05, 70.66, 67.47, 64.86, 62.73, 58.1, 56.76, 63.59, 54.89, 58.5, 61.5, 60.05, 60.39, 63.68, 62.48, 49.52, 61.26, 62.28, 64.93, 65.54, 55.79, 95.6, 91.48, 91.79, 68.22, 64.56, 72.88, 62.05, 61.78, 61.48, 53.44, 57.91]

>  <accession>  (92) 
7QUW_AAA

>  <description>  (92) 
Chain AAA, Protease 3C [Coxsackievirus B3]

>  <evalue>  (92) 
7.4010300000000003e-88

>  <pdb_code>  (92) 
7QUW

>  <chain>  (92) 
AAA

>  <ligands>  (92) 
[{'chain_id': 'AAA', 'author_residue_number': 201, 'author_insertion_code': '', 'chem_comp_id': 'I70', 'alternate_conformers': 0, 'entity_id': 2, 'struct_asym_id': 'B', 'residue_number': 1, 'chem_comp_name': '(1R,2S,5S)-N-{(2S,3R)-4-amino-3-hydroxy-4-oxo-1-[(3S)-2-oxopyrrolidin-3-yl]butan-2-yl}-3-[N-(tert-butylcarbamoyl)-3-methyl-L-valyl]-6,6-dimethyl-3-azabicyclo[3.1.0]hexane-2-carboxamide', 'weight': 550.691, 'carbohydrate_polymer': False, 'branch_name': ''}]

>  <ligand_codes>  (92) 
['I70']

>  <cofactor_codes>  (92) 
[]

>  <has_cofactor>  (92) 
False

>  <covalent>  (92) 
True

>  <base_name>  (92) 
7QUW

>  <lig_resn>  (92) 
I70

>  <lig_resi>  (92) 
201

>  <lig_chain>  (92) 
AAA

>  <lig_segi>  (92) 
B

>  <lig_alt>  (92) 


>  <polymer_chain>  (92) 
A

>  <single_smiles>  (92) 
CC(C)(C)NC(=O)N[C@H](C(=O)N1C[C@H]2[C@@H]([C@H]1C(=O)N[C@@H](C[C@@H]3CCNC3=O)[C@@H](O)C(N)=O)C2(C)C)C(C)(C)C

$$$$
I70P1S2
     RDKit          3D

 36 38  0  0  0  0  0  0  0  0999 V2000
   -9.3150   18.6410  -31.7230 N   0  0  0  0  0  0  0  0  0  0  0  0
   -9.5750   17.8270  -32.7770 C   0  0  0  0  0  0  0  0  0  0  0  0
   -8.9660   16.6250  -32.7020 N   0  0  0  0  0  0  0  0  0  0  0  0
  -10.2600   18.1440  -33.7750 O   0  0  0  0  0  0  0  0  0  0  0  0
   -8.3630   16.0030  -33.8690 C   0  0  2  0  0  0  0  0  0  0  0  0
   -9.0070   14.6310  -34.0940 C   0  0  0  0  0  0  0  0  0  0  0  0
   -6.8280   15.9940  -33.7560 C   0  0  0  0  0  0  0  0  0  0  0  0
   -9.2900   14.2880  -35.3720 N   0  0  0  0  0  0  0  0  0  0  0  0
   -9.2830   13.8960  -33.1310 O   0  0  0  0  0  0  0  0  0  0  0  0
   -6.1840   15.2770  -34.9440 C   0  0  0  0  0  0  0  0  0  0  0  0
   -6.3140   17.4370  -33.7470 C   0  0  0  0  0  0  0  0  0  0  0  0
   -6.3720   15.3070  -32.4630 C   0  0  0  0  0  0  0  0  0  0  0  0
   -9.2580   15.2350  -36.5040 C   0  0  0  0  0  0  0  0  0  0  0  0
   -9.6500   12.9180  -35.7630 C   0  0  2  0  0  0  0  0  0  0  0  0
   -9.7390   14.4350  -37.6990 C   0  0  1  0  0  0  0  0  0  0  0  0
   -8.4570   11.9880  -35.5730 C   0  0  0  0  0  0  0  0  0  0  0  0
  -10.0130   13.0150  -37.2410 C   0  0  2  0  0  0  0  0  0  0  0  0
  -11.1540   13.9060  -37.6990 C   0  0  0  0  0  0  0  0  0  0  0  0
   -8.6950   10.8790  -34.8670 N   0  0  0  0  0  0  0  0  0  0  0  0
   -7.3460   12.2960  -36.0060 O   0  0  0  0  0  0  0  0  0  0  0  0
  -12.1980   14.3060  -36.6810 C   0  0  0  0  0  0  0  0  0  0  0  0
  -11.7390   13.8010  -39.0890 C   0  0  0  0  0  0  0  0  0  0  0  0
   -7.6460    9.8980  -34.5540 C   0  0  2  0  0  0  0  0  0  0  0  0
   -7.9070    8.5330  -35.2310 C   0  0  2  0  0  0  0  0  0  0  0  0
   -7.5160    9.8180  -33.0360 C   0  0  0  0  0  0  0  0  0  0  0  0
   -6.7100    7.5940  -35.0980 C   0  0  0  0  0  0  0  0  0  0  0  0
   -8.2130    8.7260  -36.6160 O   0  0  0  0  0  0  0  0  0  0  0  0
   -9.3180    7.9910  -34.2220 R   0  0  0  0  0  0  0  0  0  0  0  0
   -6.8770   11.0810  -32.4750 C   0  0  2  0  0  0  0  0  0  0  0  0
   -5.7690    7.4620  -36.2130 N   0  0  0  0  0  0  0  0  0  0  0  0
   -6.5030    6.9520  -34.0860 O   0  0  0  0  0  0  0  0  0  0  0  0
   -5.4440   11.3950  -32.9000 C   0  0  0  0  0  0  0  0  0  0  0  0
   -6.7630   10.9530  -30.9740 C   0  0  0  0  0  0  0  0  0  0  0  0
   -4.7930   12.0080  -31.6580 C   0  0  0  0  0  0  0  0  0  0  0  0
   -5.7180   11.6730  -30.5800 N   0  0  0  0  0  0  0  0  0  0  0  0
   -7.5140   10.2610  -30.2510 O   0  0  0  0  0  0  0  0  0  0  0  0
  1  2  1  0
  2  3  1  0
  2  4  1  0
  5  3  1  1
  5  6  1  0
  5  7  1  0
  6  8  1  0
  6  9  1  0
  7 10  1  0
  7 11  1  0
  7 12  1  0
 13  8  1  0
  8 14  1  0
 15 13  1  1
 14 16  1  6
 17 14  1  0
 15 18  1  0
 15 17  1  0
 16 19  1  0
 16 20  1  0
 17 18  1  1
 18 21  1  0
 18 22  1  0
 19 23  1  0
 24 23  1  0
 23 25  1  1
 26 24  1  0
 24 27  1  0
 24 28  1  1
 29 25  1  6
 26 30  1  0
 26 31  1  0
 29 32  1  0
 29 33  1  0
 32 34  1  0
 35 33  1  0
 33 36  1  0
 34 35  1  0
V   28 *
A    2
 C9 
A    3
 N10
A    4
 O29
A    5
 C11
A    6
 C12
A    7
 C30
A    8
 N13
A    9
 O33
A   10
 C26
A   11
 C31
A   12
 C32
A   13
 C13
A   14
 C14
A   15
 C16
A   16
 C15
A   17
 C34
A   18
 C18
A   19
 N16
A   20
 O38
A   21
 C23
A   22
 C25
A   23
 C17
A   24
 C8 
A   25
 C19
A   26
 C1 
A   27
 O9 
A   28
 X  
A   29
 C20
A   30
 N2 
A   31
 O5 
A   32
 C21
A   33
 C24
A   34
 C22
A   35
 N23
A   36
 O26
M  END
>  <XChem_code>  (93) 
I70§1

>  <Occupancy>  (93) 
[1.0, 1.0, 1.0, 1.0, 1.0, 1.0, 1.0, 1.0, 1.0, 1.0, 1.0, 1.0, 1.0, 1.0, 1.0, 1.0, 1.0, 1.0, 1.0, 1.0, 1.0, 1.0, 1.0, 1.0, 1.0, 1.0, 1.0, 1.0, 1.0, 1.0, 1.0, 1.0, 1.0, 1.0, 1.0, 1.0, 1.0, 1.0, 1.0, 1.0]

>  <TempFactor>  (93) 
[63.58, 69.08, 56.96, 91.85, 58.99, 85.97, 82.0, 52.36, 73.05, 70.66, 67.47, 64.86, 62.73, 58.1, 56.76, 63.59, 54.89, 58.5, 61.5, 60.05, 60.39, 63.68, 62.48, 49.52, 61.26, 62.28, 64.93, 65.54, 55.79, 95.6, 91.48, 91.79, 68.22, 64.56, 72.88, 62.05, 61.78, 61.48, 53.44, 57.91]

>  <accession>  (93) 
7QUW_AAA

>  <description>  (93) 
Chain AAA, Protease 3C [Coxsackievirus B3]

>  <evalue>  (93) 
7.4010300000000003e-88

>  <pdb_code>  (93) 
7QUW

>  <chain>  (93) 
AAA

>  <ligands>  (93) 
[{'chain_id': 'AAA', 'author_residue_number': 201, 'author_insertion_code': '', 'chem_comp_id': 'I70', 'alternate_conformers': 0, 'entity_id': 2, 'struct_asym_id': 'B', 'residue_number': 1, 'chem_comp_name': '(1R,2S,5S)-N-{(2S,3R)-4-amino-3-hydroxy-4-oxo-1-[(3S)-2-oxopyrrolidin-3-yl]butan-2-yl}-3-[N-(tert-butylcarbamoyl)-3-methyl-L-valyl]-6,6-dimethyl-3-azabicyclo[3.1.0]hexane-2-carboxamide', 'weight': 550.691, 'carbohydrate_polymer': False, 'branch_name': ''}]

>  <ligand_codes>  (93) 
['I70']

>  <cofactor_codes>  (93) 
[]

>  <has_cofactor>  (93) 
False

>  <covalent>  (93) 
True

>  <base_name>  (93) 
7QUW

>  <lig_resn>  (93) 
I70

>  <lig_resi>  (93) 
201

>  <lig_chain>  (93) 
AAA

>  <lig_segi>  (93) 
B

>  <lig_alt>  (93) 


>  <polymer_chain>  (93) 
A

>  <single_smiles>  (93) 
CC(C)(C)NC(=O)N[C@H](C(=O)N1C[C@H]2[C@@H]([C@H]1C(=O)N[C@@H](C[C@@H]3CCNC3=O)[C@@H](O)C(N)=O)C2(C)C)C(C)(C)C

$$$$
I70P1S3
     RDKit          3D

  8  7  0  0  0  0  0  0  0  0999 V2000
   -8.9660   16.6250  -32.7020 N   0  0  0  0  0  0  0  0  0  0  0  0
   -9.5750   17.8270  -32.7770 C   0  0  0  0  0  0  0  0  0  0  0  0
   -9.3150   18.6410  -31.7230 N   0  0  0  0  0  0  0  0  0  0  0  0
  -10.2600   18.1440  -33.7750 O   0  0  0  0  0  0  0  0  0  0  0  0
  -10.2720   19.4140  -30.9250 C   0  0  0  0  0  0  0  0  0  0  0  0
  -10.6940   20.3840  -32.0240 C   0  0  0  0  0  0  0  0  0  0  0  0
  -11.5630   18.7460  -30.5020 C   0  0  0  0  0  0  0  0  0  0  0  0
   -9.7000   20.3340  -29.8730 C   0  0  0  0  0  0  0  0  0  0  0  0
  2  1  1  0
  3  2  1  0
  2  4  1  0
  5  3  1  0
  5  6  1  0
  5  7  1  0
  5  8  1  0
A    2
 C9 
A    3
 N8 
A    4
 O29
A    5
 C7 
A    6
 C27
A    7
 C28
A    8
 C29
M  END
>  <XChem_code>  (94) 
I70§1

>  <Occupancy>  (94) 
[1.0, 1.0, 1.0, 1.0, 1.0, 1.0, 1.0, 1.0, 1.0, 1.0, 1.0, 1.0, 1.0, 1.0, 1.0, 1.0, 1.0, 1.0, 1.0, 1.0, 1.0, 1.0, 1.0, 1.0, 1.0, 1.0, 1.0, 1.0, 1.0, 1.0, 1.0, 1.0, 1.0, 1.0, 1.0, 1.0, 1.0, 1.0, 1.0, 1.0]

>  <TempFactor>  (94) 
[63.58, 69.08, 56.96, 91.85, 58.99, 85.97, 82.0, 52.36, 73.05, 70.66, 67.47, 64.86, 62.73, 58.1, 56.76, 63.59, 54.89, 58.5, 61.5, 60.05, 60.39, 63.68, 62.48, 49.52, 61.26, 62.28, 64.93, 65.54, 55.79, 95.6, 91.48, 91.79, 68.22, 64.56, 72.88, 62.05, 61.78, 61.48, 53.44, 57.91]

>  <accession>  (94) 
7QUW_AAA

>  <description>  (94) 
Chain AAA, Protease 3C [Coxsackievirus B3]

>  <evalue>  (94) 
7.4010300000000003e-88

>  <pdb_code>  (94) 
7QUW

>  <chain>  (94) 
AAA

>  <ligands>  (94) 
[{'chain_id': 'AAA', 'author_residue_number': 201, 'author_insertion_code': '', 'chem_comp_id': 'I70', 'alternate_conformers': 0, 'entity_id': 2, 'struct_asym_id': 'B', 'residue_number': 1, 'chem_comp_name': '(1R,2S,5S)-N-{(2S,3R)-4-amino-3-hydroxy-4-oxo-1-[(3S)-2-oxopyrrolidin-3-yl]butan-2-yl}-3-[N-(tert-butylcarbamoyl)-3-methyl-L-valyl]-6,6-dimethyl-3-azabicyclo[3.1.0]hexane-2-carboxamide', 'weight': 550.691, 'carbohydrate_polymer': False, 'branch_name': ''}]

>  <ligand_codes>  (94) 
['I70']

>  <cofactor_codes>  (94) 
[]

>  <has_cofactor>  (94) 
False

>  <covalent>  (94) 
True

>  <base_name>  (94) 
7QUW

>  <lig_resn>  (94) 
I70

>  <lig_resi>  (94) 
201

>  <lig_chain>  (94) 
AAA

>  <lig_segi>  (94) 
B

>  <lig_alt>  (94) 


>  <polymer_chain>  (94) 
A

>  <single_smiles>  (94) 
CC(C)(C)NC(=O)N[C@H](C(=O)N1C[C@H]2[C@@H]([C@H]1C(=O)N[C@@H](C[C@@H]3CCNC3=O)[C@@H](O)C(N)=O)C2(C)C)C(C)(C)C

$$$$
I70P1S4
     RDKit          3D

 32 34  0  0  0  0  0  0  0  0999 V2000
   -8.3630   16.0030  -33.8690 C   0  0  0  0  0  0  0  0  0  0  0  0
   -9.0070   14.6310  -34.0940 C   0  0  0  0  0  0  0  0  0  0  0  0
   -6.8280   15.9940  -33.7560 C   0  0  0  0  0  0  0  0  0  0  0  0
   -9.2900   14.2880  -35.3720 N   0  0  0  0  0  0  0  0  0  0  0  0
   -9.2830   13.8960  -33.1310 O   0  0  0  0  0  0  0  0  0  0  0  0
   -6.1840   15.2770  -34.9440 C   0  0  0  0  0  0  0  0  0  0  0  0
   -6.3140   17.4370  -33.7470 C   0  0  0  0  0  0  0  0  0  0  0  0
   -6.3720   15.3070  -32.4630 C   0  0  0  0  0  0  0  0  0  0  0  0
   -9.2580   15.2350  -36.5040 C   0  0  0  0  0  0  0  0  0  0  0  0
   -9.6500   12.9180  -35.7630 C   0  0  2  0  0  0  0  0  0  0  0  0
   -9.7390   14.4350  -37.6990 C   0  0  1  0  0  0  0  0  0  0  0  0
   -8.4570   11.9880  -35.5730 C   0  0  0  0  0  0  0  0  0  0  0  0
  -10.0130   13.0150  -37.2410 C   0  0  2  0  0  0  0  0  0  0  0  0
  -11.1540   13.9060  -37.6990 C   0  0  0  0  0  0  0  0  0  0  0  0
   -8.6950   10.8790  -34.8670 N   0  0  0  0  0  0  0  0  0  0  0  0
   -7.3460   12.2960  -36.0060 O   0  0  0  0  0  0  0  0  0  0  0  0
  -12.1980   14.3060  -36.6810 C   0  0  0  0  0  0  0  0  0  0  0  0
  -11.7390   13.8010  -39.0890 C   0  0  0  0  0  0  0  0  0  0  0  0
   -7.6460    9.8980  -34.5540 C   0  0  2  0  0  0  0  0  0  0  0  0
   -7.9070    8.5330  -35.2310 C   0  0  2  0  0  0  0  0  0  0  0  0
   -7.5160    9.8180  -33.0360 C   0  0  0  0  0  0  0  0  0  0  0  0
   -6.7100    7.5940  -35.0980 C   0  0  0  0  0  0  0  0  0  0  0  0
   -8.2130    8.7260  -36.6160 O   0  0  0  0  0  0  0  0  0  0  0  0
   -9.3180    7.9910  -34.2220 R   0  0  0  0  0  0  0  0  0  0  0  0
   -6.8770   11.0810  -32.4750 C   0  0  2  0  0  0  0  0  0  0  0  0
   -5.7690    7.4620  -36.2130 N   0  0  0  0  0  0  0  0  0  0  0  0
   -6.5030    6.9520  -34.0860 O   0  0  0  0  0  0  0  0  0  0  0  0
   -5.4440   11.3950  -32.9000 C   0  0  0  0  0  0  0  0  0  0  0  0
   -6.7630   10.9530  -30.9740 C   0  0  0  0  0  0  0  0  0  0  0  0
   -4.7930   12.0080  -31.6580 C   0  0  0  0  0  0  0  0  0  0  0  0
   -5.7180   11.6730  -30.5800 N   0  0  0  0  0  0  0  0  0  0  0  0
   -7.5140   10.2610  -30.2510 O   0  0  0  0  0  0  0  0  0  0  0  0
  1  2  1  1
  1  3  1  0
  2  4  1  0
  2  5  1  0
  3  6  1  0
  3  7  1  0
  3  8  1  0
  9  4  1  0
  4 10  1  0
 11  9  1  1
 10 12  1  6
 13 10  1  0
 11 14  1  0
 11 13  1  0
 12 15  1  0
 12 16  1  0
 13 14  1  1
 14 17  1  0
 14 18  1  0
 15 19  1  0
 20 19  1  0
 19 21  1  1
 22 20  1  0
 20 23  1  0
 20 24  1  1
 25 21  1  6
 22 26  1  0
 22 27  1  0
 25 28  1  0
 25 29  1  0
 28 30  1  0
 31 29  1  0
 29 32  1  0
 30 31  1  0
V   24 *
A    2
 C12
A    3
 C30
A    4
 N13
A    5
 O33
A    6
 C26
A    7
 C31
A    8
 C32
A    9
 C13
A   10
 C14
A   11
 C16
A   12
 C15
A   13
 C34
A   14
 C18
A   15
 N16
A   16
 O38
A   17
 C23
A   18
 C25
A   19
 C17
A   20
 C8 
A   21
 C19
A   22
 C1 
A   23
 O9 
A   24
 X  
A   25
 C20
A   26
 N2 
A   27
 O5 
A   28
 C21
A   29
 C24
A   30
 C22
A   31
 N23
A   32
 O26
M  END
>  <XChem_code>  (95) 
I70§1

>  <Occupancy>  (95) 
[1.0, 1.0, 1.0, 1.0, 1.0, 1.0, 1.0, 1.0, 1.0, 1.0, 1.0, 1.0, 1.0, 1.0, 1.0, 1.0, 1.0, 1.0, 1.0, 1.0, 1.0, 1.0, 1.0, 1.0, 1.0, 1.0, 1.0, 1.0, 1.0, 1.0, 1.0, 1.0, 1.0, 1.0, 1.0, 1.0, 1.0, 1.0, 1.0, 1.0]

>  <TempFactor>  (95) 
[63.58, 69.08, 56.96, 91.85, 58.99, 85.97, 82.0, 52.36, 73.05, 70.66, 67.47, 64.86, 62.73, 58.1, 56.76, 63.59, 54.89, 58.5, 61.5, 60.05, 60.39, 63.68, 62.48, 49.52, 61.26, 62.28, 64.93, 65.54, 55.79, 95.6, 91.48, 91.79, 68.22, 64.56, 72.88, 62.05, 61.78, 61.48, 53.44, 57.91]

>  <accession>  (95) 
7QUW_AAA

>  <description>  (95) 
Chain AAA, Protease 3C [Coxsackievirus B3]

>  <evalue>  (95) 
7.4010300000000003e-88

>  <pdb_code>  (95) 
7QUW

>  <chain>  (95) 
AAA

>  <ligands>  (95) 
[{'chain_id': 'AAA', 'author_residue_number': 201, 'author_insertion_code': '', 'chem_comp_id': 'I70', 'alternate_conformers': 0, 'entity_id': 2, 'struct_asym_id': 'B', 'residue_number': 1, 'chem_comp_name': '(1R,2S,5S)-N-{(2S,3R)-4-amino-3-hydroxy-4-oxo-1-[(3S)-2-oxopyrrolidin-3-yl]butan-2-yl}-3-[N-(tert-butylcarbamoyl)-3-methyl-L-valyl]-6,6-dimethyl-3-azabicyclo[3.1.0]hexane-2-carboxamide', 'weight': 550.691, 'carbohydrate_polymer': False, 'branch_name': ''}]

>  <ligand_codes>  (95) 
['I70']

>  <cofactor_codes>  (95) 
[]

>  <has_cofactor>  (95) 
False

>  <covalent>  (95) 
True

>  <base_name>  (95) 
7QUW

>  <lig_resn>  (95) 
I70

>  <lig_resi>  (95) 
201

>  <lig_chain>  (95) 
AAA

>  <lig_segi>  (95) 
B

>  <lig_alt>  (95) 


>  <polymer_chain>  (95) 
A

>  <single_smiles>  (95) 
CC(C)(C)NC(=O)N[C@H](C(=O)N1C[C@H]2[C@@H]([C@H]1C(=O)N[C@@H](C[C@@H]3CCNC3=O)[C@@H](O)C(N)=O)C2(C)C)C(C)(C)C

$$$$
I70P1S5
     RDKit          3D

 15 14  0  0  0  0  0  0  0  0999 V2000
   -9.0070   14.6310  -34.0940 C   0  0  0  0  0  0  0  0  0  0  0  0
   -8.3630   16.0030  -33.8690 C   0  0  1  0  0  0  0  0  0  0  0  0
   -9.2830   13.8960  -33.1310 O   0  0  0  0  0  0  0  0  0  0  0  0
   -8.9660   16.6250  -32.7020 N   0  0  0  0  0  0  0  0  0  0  0  0
   -6.8280   15.9940  -33.7560 C   0  0  0  0  0  0  0  0  0  0  0  0
   -9.5750   17.8270  -32.7770 C   0  0  0  0  0  0  0  0  0  0  0  0
   -6.1840   15.2770  -34.9440 C   0  0  0  0  0  0  0  0  0  0  0  0
   -6.3140   17.4370  -33.7470 C   0  0  0  0  0  0  0  0  0  0  0  0
   -6.3720   15.3070  -32.4630 C   0  0  0  0  0  0  0  0  0  0  0  0
   -9.3150   18.6410  -31.7230 N   0  0  0  0  0  0  0  0  0  0  0  0
  -10.2600   18.1440  -33.7750 O   0  0  0  0  0  0  0  0  0  0  0  0
  -10.2720   19.4140  -30.9250 C   0  0  0  0  0  0  0  0  0  0  0  0
  -10.6940   20.3840  -32.0240 C   0  0  0  0  0  0  0  0  0  0  0  0
  -11.5630   18.7460  -30.5020 C   0  0  0  0  0  0  0  0  0  0  0  0
   -9.7000   20.3340  -29.8730 C   0  0  0  0  0  0  0  0  0  0  0  0
  2  1  1  1
  1  3  1  0
  2  4  1  0
  2  5  1  0
  6  4  1  0
  5  7  1  0
  5  8  1  0
  5  9  1  0
 10  6  1  0
  6 11  1  0
 12 10  1  0
 12 13  1  0
 12 14  1  0
 12 15  1  0
A    2
 C11
A    3
 O33
A    4
 N10
A    5
 C30
A    6
 C9 
A    7
 C26
A    8
 C31
A    9
 C32
A   10
 N8 
A   11
 O29
A   12
 C7 
A   13
 C27
A   14
 C28
A   15
 C29
M  END
>  <XChem_code>  (96) 
I70§1

>  <Occupancy>  (96) 
[1.0, 1.0, 1.0, 1.0, 1.0, 1.0, 1.0, 1.0, 1.0, 1.0, 1.0, 1.0, 1.0, 1.0, 1.0, 1.0, 1.0, 1.0, 1.0, 1.0, 1.0, 1.0, 1.0, 1.0, 1.0, 1.0, 1.0, 1.0, 1.0, 1.0, 1.0, 1.0, 1.0, 1.0, 1.0, 1.0, 1.0, 1.0, 1.0, 1.0]

>  <TempFactor>  (96) 
[63.58, 69.08, 56.96, 91.85, 58.99, 85.97, 82.0, 52.36, 73.05, 70.66, 67.47, 64.86, 62.73, 58.1, 56.76, 63.59, 54.89, 58.5, 61.5, 60.05, 60.39, 63.68, 62.48, 49.52, 61.26, 62.28, 64.93, 65.54, 55.79, 95.6, 91.48, 91.79, 68.22, 64.56, 72.88, 62.05, 61.78, 61.48, 53.44, 57.91]

>  <accession>  (96) 
7QUW_AAA

>  <description>  (96) 
Chain AAA, Protease 3C [Coxsackievirus B3]

>  <evalue>  (96) 
7.4010300000000003e-88

>  <pdb_code>  (96) 
7QUW

>  <chain>  (96) 
AAA

>  <ligands>  (96) 
[{'chain_id': 'AAA', 'author_residue_number': 201, 'author_insertion_code': '', 'chem_comp_id': 'I70', 'alternate_conformers': 0, 'entity_id': 2, 'struct_asym_id': 'B', 'residue_number': 1, 'chem_comp_name': '(1R,2S,5S)-N-{(2S,3R)-4-amino-3-hydroxy-4-oxo-1-[(3S)-2-oxopyrrolidin-3-yl]butan-2-yl}-3-[N-(tert-butylcarbamoyl)-3-methyl-L-valyl]-6,6-dimethyl-3-azabicyclo[3.1.0]hexane-2-carboxamide', 'weight': 550.691, 'carbohydrate_polymer': False, 'branch_name': ''}]

>  <ligand_codes>  (96) 
['I70']

>  <cofactor_codes>  (96) 
[]

>  <has_cofactor>  (96) 
False

>  <covalent>  (96) 
True

>  <base_name>  (96) 
7QUW

>  <lig_resn>  (96) 
I70

>  <lig_resi>  (96) 
201

>  <lig_chain>  (96) 
AAA

>  <lig_segi>  (96) 
B

>  <lig_alt>  (96) 


>  <polymer_chain>  (96) 
A

>  <single_smiles>  (96) 
CC(C)(C)NC(=O)N[C@H](C(=O)N1C[C@H]2[C@@H]([C@H]1C(=O)N[C@@H](C[C@@H]3CCNC3=O)[C@@H](O)C(N)=O)C2(C)C)C(C)(C)C

$$$$
I70P1S6
     RDKit          3D

 25 27  0  0  0  0  0  0  0  0999 V2000
   -9.2900   14.2880  -35.3720 N   0  0  0  0  0  0  0  0  0  0  0  0
   -9.2580   15.2350  -36.5040 C   0  0  0  0  0  0  0  0  0  0  0  0
   -9.6500   12.9180  -35.7630 C   0  0  2  0  0  0  0  0  0  0  0  0
   -9.7390   14.4350  -37.6990 C   0  0  1  0  0  0  0  0  0  0  0  0
   -8.4570   11.9880  -35.5730 C   0  0  0  0  0  0  0  0  0  0  0  0
  -10.0130   13.0150  -37.2410 C   0  0  2  0  0  0  0  0  0  0  0  0
  -11.1540   13.9060  -37.6990 C   0  0  0  0  0  0  0  0  0  0  0  0
   -8.6950   10.8790  -34.8670 N   0  0  0  0  0  0  0  0  0  0  0  0
   -7.3460   12.2960  -36.0060 O   0  0  0  0  0  0  0  0  0  0  0  0
  -12.1980   14.3060  -36.6810 C   0  0  0  0  0  0  0  0  0  0  0  0
  -11.7390   13.8010  -39.0890 C   0  0  0  0  0  0  0  0  0  0  0  0
   -7.6460    9.8980  -34.5540 C   0  0  2  0  0  0  0  0  0  0  0  0
   -7.9070    8.5330  -35.2310 C   0  0  2  0  0  0  0  0  0  0  0  0
   -7.5160    9.8180  -33.0360 C   0  0  0  0  0  0  0  0  0  0  0  0
   -6.7100    7.5940  -35.0980 C   0  0  0  0  0  0  0  0  0  0  0  0
   -8.2130    8.7260  -36.6160 O   0  0  0  0  0  0  0  0  0  0  0  0
   -9.3180    7.9910  -34.2220 R   0  0  0  0  0  0  0  0  0  0  0  0
   -6.8770   11.0810  -32.4750 C   0  0  2  0  0  0  0  0  0  0  0  0
   -5.7690    7.4620  -36.2130 N   0  0  0  0  0  0  0  0  0  0  0  0
   -6.5030    6.9520  -34.0860 O   0  0  0  0  0  0  0  0  0  0  0  0
   -5.4440   11.3950  -32.9000 C   0  0  0  0  0  0  0  0  0  0  0  0
   -6.7630   10.9530  -30.9740 C   0  0  0  0  0  0  0  0  0  0  0  0
   -4.7930   12.0080  -31.6580 C   0  0  0  0  0  0  0  0  0  0  0  0
   -5.7180   11.6730  -30.5800 N   0  0  0  0  0  0  0  0  0  0  0  0
   -7.5140   10.2610  -30.2510 O   0  0  0  0  0  0  0  0  0  0  0  0
  2  1  1  0
  1  3  1  0
  4  2  1  1
  3  5  1  6
  6  3  1  0
  4  7  1  0
  4  6  1  0
  5  8  1  0
  5  9  1  0
  6  7  1  1
  7 10  1  0
  7 11  1  0
  8 12  1  0
 13 12  1  0
 12 14  1  1
 15 13  1  0
 13 16  1  0
 13 17  1  1
 18 14  1  6
 15 19  1  0
 15 20  1  0
 18 21  1  0
 18 22  1  0
 21 23  1  0
 24 22  1  0
 22 25  1  0
 23 24  1  0
V   17 *
A    2
 C13
A    3
 C14
A    4
 C16
A    5
 C15
A    6
 C34
A    7
 C18
A    8
 N16
A    9
 O38
A   10
 C23
A   11
 C25
A   12
 C17
A   13
 C8 
A   14
 C19
A   15
 C1 
A   16
 O9 
A   17
 X  
A   18
 C20
A   19
 N2 
A   20
 O5 
A   21
 C21
A   22
 C24
A   23
 C22
A   24
 N23
A   25
 O26
M  END
>  <XChem_code>  (97) 
I70§1

>  <Occupancy>  (97) 
[1.0, 1.0, 1.0, 1.0, 1.0, 1.0, 1.0, 1.0, 1.0, 1.0, 1.0, 1.0, 1.0, 1.0, 1.0, 1.0, 1.0, 1.0, 1.0, 1.0, 1.0, 1.0, 1.0, 1.0, 1.0, 1.0, 1.0, 1.0, 1.0, 1.0, 1.0, 1.0, 1.0, 1.0, 1.0, 1.0, 1.0, 1.0, 1.0, 1.0]

>  <TempFactor>  (97) 
[63.58, 69.08, 56.96, 91.85, 58.99, 85.97, 82.0, 52.36, 73.05, 70.66, 67.47, 64.86, 62.73, 58.1, 56.76, 63.59, 54.89, 58.5, 61.5, 60.05, 60.39, 63.68, 62.48, 49.52, 61.26, 62.28, 64.93, 65.54, 55.79, 95.6, 91.48, 91.79, 68.22, 64.56, 72.88, 62.05, 61.78, 61.48, 53.44, 57.91]

>  <accession>  (97) 
7QUW_AAA

>  <description>  (97) 
Chain AAA, Protease 3C [Coxsackievirus B3]

>  <evalue>  (97) 
7.4010300000000003e-88

>  <pdb_code>  (97) 
7QUW

>  <chain>  (97) 
AAA

>  <ligands>  (97) 
[{'chain_id': 'AAA', 'author_residue_number': 201, 'author_insertion_code': '', 'chem_comp_id': 'I70', 'alternate_conformers': 0, 'entity_id': 2, 'struct_asym_id': 'B', 'residue_number': 1, 'chem_comp_name': '(1R,2S,5S)-N-{(2S,3R)-4-amino-3-hydroxy-4-oxo-1-[(3S)-2-oxopyrrolidin-3-yl]butan-2-yl}-3-[N-(tert-butylcarbamoyl)-3-methyl-L-valyl]-6,6-dimethyl-3-azabicyclo[3.1.0]hexane-2-carboxamide', 'weight': 550.691, 'carbohydrate_polymer': False, 'branch_name': ''}]

>  <ligand_codes>  (97) 
['I70']

>  <cofactor_codes>  (97) 
[]

>  <has_cofactor>  (97) 
False

>  <covalent>  (97) 
True

>  <base_name>  (97) 
7QUW

>  <lig_resn>  (97) 
I70

>  <lig_resi>  (97) 
201

>  <lig_chain>  (97) 
AAA

>  <lig_segi>  (97) 
B

>  <lig_alt>  (97) 


>  <polymer_chain>  (97) 
A

>  <single_smiles>  (97) 
CC(C)(C)NC(=O)N[C@H](C(=O)N1C[C@H]2[C@@H]([C@H]1C(=O)N[C@@H](C[C@@H]3CCNC3=O)[C@@H](O)C(N)=O)C2(C)C)C(C)(C)C

$$$$
I70P1S7
     RDKit          3D

 15 15  0  0  0  0  0  0  0  0999 V2000
   -8.6950   10.8790  -34.8670 N   0  0  0  0  0  0  0  0  0  0  0  0
   -7.6460    9.8980  -34.5540 C   0  0  2  0  0  0  0  0  0  0  0  0
   -7.9070    8.5330  -35.2310 C   0  0  2  0  0  0  0  0  0  0  0  0
   -7.5160    9.8180  -33.0360 C   0  0  0  0  0  0  0  0  0  0  0  0
   -6.7100    7.5940  -35.0980 C   0  0  0  0  0  0  0  0  0  0  0  0
   -8.2130    8.7260  -36.6160 O   0  0  0  0  0  0  0  0  0  0  0  0
   -9.3180    7.9910  -34.2220 R   0  0  0  0  0  0  0  0  0  0  0  0
   -6.8770   11.0810  -32.4750 C   0  0  2  0  0  0  0  0  0  0  0  0
   -5.7690    7.4620  -36.2130 N   0  0  0  0  0  0  0  0  0  0  0  0
   -6.5030    6.9520  -34.0860 O   0  0  0  0  0  0  0  0  0  0  0  0
   -5.4440   11.3950  -32.9000 C   0  0  0  0  0  0  0  0  0  0  0  0
   -6.7630   10.9530  -30.9740 C   0  0  0  0  0  0  0  0  0  0  0  0
   -4.7930   12.0080  -31.6580 C   0  0  0  0  0  0  0  0  0  0  0  0
   -5.7180   11.6730  -30.5800 N   0  0  0  0  0  0  0  0  0  0  0  0
   -7.5140   10.2610  -30.2510 O   0  0  0  0  0  0  0  0  0  0  0  0
  2  1  1  1
  3  2  1  0
  2  4  1  0
  5  3  1  0
  3  6  1  0
  3  7  1  1
  8  4  1  6
  5  9  1  0
  5 10  1  0
  8 11  1  0
  8 12  1  0
 11 13  1  0
 14 12  1  0
 12 15  1  0
 13 14  1  0
V    7 *
A    2
 C17
A    3
 C8 
A    4
 C19
A    5
 C1 
A    6
 O9 
A    7
 X  
A    8
 C20
A    9
 N2 
A   10
 O5 
A   11
 C21
A   12
 C24
A   13
 C22
A   14
 N23
A   15
 O26
M  END
>  <XChem_code>  (98) 
I70§1

>  <Occupancy>  (98) 
[1.0, 1.0, 1.0, 1.0, 1.0, 1.0, 1.0, 1.0, 1.0, 1.0, 1.0, 1.0, 1.0, 1.0, 1.0, 1.0, 1.0, 1.0, 1.0, 1.0, 1.0, 1.0, 1.0, 1.0, 1.0, 1.0, 1.0, 1.0, 1.0, 1.0, 1.0, 1.0, 1.0, 1.0, 1.0, 1.0, 1.0, 1.0, 1.0, 1.0]

>  <TempFactor>  (98) 
[63.58, 69.08, 56.96, 91.85, 58.99, 85.97, 82.0, 52.36, 73.05, 70.66, 67.47, 64.86, 62.73, 58.1, 56.76, 63.59, 54.89, 58.5, 61.5, 60.05, 60.39, 63.68, 62.48, 49.52, 61.26, 62.28, 64.93, 65.54, 55.79, 95.6, 91.48, 91.79, 68.22, 64.56, 72.88, 62.05, 61.78, 61.48, 53.44, 57.91]

>  <accession>  (98) 
7QUW_AAA

>  <description>  (98) 
Chain AAA, Protease 3C [Coxsackievirus B3]

>  <evalue>  (98) 
7.4010300000000003e-88

>  <pdb_code>  (98) 
7QUW

>  <chain>  (98) 
AAA

>  <ligands>  (98) 
[{'chain_id': 'AAA', 'author_residue_number': 201, 'author_insertion_code': '', 'chem_comp_id': 'I70', 'alternate_conformers': 0, 'entity_id': 2, 'struct_asym_id': 'B', 'residue_number': 1, 'chem_comp_name': '(1R,2S,5S)-N-{(2S,3R)-4-amino-3-hydroxy-4-oxo-1-[(3S)-2-oxopyrrolidin-3-yl]butan-2-yl}-3-[N-(tert-butylcarbamoyl)-3-methyl-L-valyl]-6,6-dimethyl-3-azabicyclo[3.1.0]hexane-2-carboxamide', 'weight': 550.691, 'carbohydrate_polymer': False, 'branch_name': ''}]

>  <ligand_codes>  (98) 
['I70']

>  <cofactor_codes>  (98) 
[]

>  <has_cofactor>  (98) 
False

>  <covalent>  (98) 
True

>  <base_name>  (98) 
7QUW

>  <lig_resn>  (98) 
I70

>  <lig_resi>  (98) 
201

>  <lig_chain>  (98) 
AAA

>  <lig_segi>  (98) 
B

>  <lig_alt>  (98) 


>  <polymer_chain>  (98) 
A

>  <single_smiles>  (98) 
CC(C)(C)NC(=O)N[C@H](C(=O)N1C[C@H]2[C@@H]([C@H]1C(=O)N[C@@H](C[C@@H]3CCNC3=O)[C@@H](O)C(N)=O)C2(C)C)C(C)(C)C

$$$$
I70P1S8
     RDKit          3D

 25 26  0  0  0  0  0  0  0  0999 V2000
   -8.4570   11.9880  -35.5730 C   0  0  0  0  0  0  0  0  0  0  0  0
   -9.6500   12.9180  -35.7630 C   0  0  1  0  0  0  0  0  0  0  0  0
   -7.3460   12.2960  -36.0060 O   0  0  0  0  0  0  0  0  0  0  0  0
   -9.2900   14.2880  -35.3720 N   0  0  0  0  0  0  0  0  0  0  0  0
  -10.0130   13.0150  -37.2410 C   0  0  2  0  0  0  0  0  0  0  0  0
   -9.0070   14.6310  -34.0940 C   0  0  0  0  0  0  0  0  0  0  0  0
   -9.2580   15.2350  -36.5040 C   0  0  0  0  0  0  0  0  0  0  0  0
   -9.7390   14.4350  -37.6990 C   0  0  2  0  0  0  0  0  0  0  0  0
  -11.1540   13.9060  -37.6990 C   0  0  0  0  0  0  0  0  0  0  0  0
   -8.3630   16.0030  -33.8690 C   0  0  1  0  0  0  0  0  0  0  0  0
   -9.2830   13.8960  -33.1310 O   0  0  0  0  0  0  0  0  0  0  0  0
  -12.1980   14.3060  -36.6810 C   0  0  0  0  0  0  0  0  0  0  0  0
  -11.7390   13.8010  -39.0890 C   0  0  0  0  0  0  0  0  0  0  0  0
   -8.9660   16.6250  -32.7020 N   0  0  0  0  0  0  0  0  0  0  0  0
   -6.8280   15.9940  -33.7560 C   0  0  0  0  0  0  0  0  0  0  0  0
   -9.5750   17.8270  -32.7770 C   0  0  0  0  0  0  0  0  0  0  0  0
   -6.1840   15.2770  -34.9440 C   0  0  0  0  0  0  0  0  0  0  0  0
   -6.3140   17.4370  -33.7470 C   0  0  0  0  0  0  0  0  0  0  0  0
   -6.3720   15.3070  -32.4630 C   0  0  0  0  0  0  0  0  0  0  0  0
   -9.3150   18.6410  -31.7230 N   0  0  0  0  0  0  0  0  0  0  0  0
  -10.2600   18.1440  -33.7750 O   0  0  0  0  0  0  0  0  0  0  0  0
  -10.2720   19.4140  -30.9250 C   0  0  0  0  0  0  0  0  0  0  0  0
  -10.6940   20.3840  -32.0240 C   0  0  0  0  0  0  0  0  0  0  0  0
  -11.5630   18.7460  -30.5020 C   0  0  0  0  0  0  0  0  0  0  0  0
   -9.7000   20.3340  -29.8730 C   0  0  0  0  0  0  0  0  0  0  0  0
  2  1  1  6
  1  3  1  0
  4  2  1  0
  5  2  1  0
  6  4  1  0
  7  4  1  0
  8  5  1  0
  5  9  1  1
 10  6  1  0
  6 11  1  0
  8  7  1  1
  8  9  1  0
  9 12  1  0
  9 13  1  0
 10 14  1  1
 10 15  1  0
 16 14  1  0
 15 17  1  0
 15 18  1  0
 15 19  1  0
 20 16  1  0
 16 21  1  0
 22 20  1  0
 22 23  1  0
 22 24  1  0
 22 25  1  0
A    2
 C14
A    3
 O38
A    4
 N13
A    5
 C34
A    6
 C12
A    7
 C13
A    8
 C16
A    9
 C18
A   10
 C11
A   11
 O33
A   12
 C23
A   13
 C25
A   14
 N10
A   15
 C30
A   16
 C9 
A   17
 C26
A   18
 C31
A   19
 C32
A   20
 N8 
A   21
 O29
A   22
 C7 
A   23
 C27
A   24
 C28
A   25
 C29
M  END
>  <XChem_code>  (99) 
I70§1

>  <Occupancy>  (99) 
[1.0, 1.0, 1.0, 1.0, 1.0, 1.0, 1.0, 1.0, 1.0, 1.0, 1.0, 1.0, 1.0, 1.0, 1.0, 1.0, 1.0, 1.0, 1.0, 1.0, 1.0, 1.0, 1.0, 1.0, 1.0, 1.0, 1.0, 1.0, 1.0, 1.0, 1.0, 1.0, 1.0, 1.0, 1.0, 1.0, 1.0, 1.0, 1.0, 1.0]

>  <TempFactor>  (99) 
[63.58, 69.08, 56.96, 91.85, 58.99, 85.97, 82.0, 52.36, 73.05, 70.66, 67.47, 64.86, 62.73, 58.1, 56.76, 63.59, 54.89, 58.5, 61.5, 60.05, 60.39, 63.68, 62.48, 49.52, 61.26, 62.28, 64.93, 65.54, 55.79, 95.6, 91.48, 91.79, 68.22, 64.56, 72.88, 62.05, 61.78, 61.48, 53.44, 57.91]

>  <accession>  (99) 
7QUW_AAA

>  <description>  (99) 
Chain AAA, Protease 3C [Coxsackievirus B3]

>  <evalue>  (99) 
7.4010300000000003e-88

>  <pdb_code>  (99) 
7QUW

>  <chain>  (99) 
AAA

>  <ligands>  (99) 
[{'chain_id': 'AAA', 'author_residue_number': 201, 'author_insertion_code': '', 'chem_comp_id': 'I70', 'alternate_conformers': 0, 'entity_id': 2, 'struct_asym_id': 'B', 'residue_number': 1, 'chem_comp_name': '(1R,2S,5S)-N-{(2S,3R)-4-amino-3-hydroxy-4-oxo-1-[(3S)-2-oxopyrrolidin-3-yl]butan-2-yl}-3-[N-(tert-butylcarbamoyl)-3-methyl-L-valyl]-6,6-dimethyl-3-azabicyclo[3.1.0]hexane-2-carboxamide', 'weight': 550.691, 'carbohydrate_polymer': False, 'branch_name': ''}]

>  <ligand_codes>  (99) 
['I70']

>  <cofactor_codes>  (99) 
[]

>  <has_cofactor>  (99) 
False

>  <covalent>  (99) 
True

>  <base_name>  (99) 
7QUW

>  <lig_resn>  (99) 
I70

>  <lig_resi>  (99) 
201

>  <lig_chain>  (99) 
AAA

>  <lig_segi>  (99) 
B

>  <lig_alt>  (99) 


>  <polymer_chain>  (99) 
A

>  <single_smiles>  (99) 
CC(C)(C)NC(=O)N[C@H](C(=O)N1C[C@H]2[C@@H]([C@H]1C(=O)N[C@@H](C[C@@H]3CCNC3=O)[C@@H](O)C(N)=O)C2(C)C)C(C)(C)C

$$$$
I70P1S9
     RDKit          3D

 14 14  0  0  0  0  0  0  0  0999 V2000
   -7.6460    9.8980  -34.5540 C   0  0  0  0  0  0  0  0  0  0  0  0
   -7.9070    8.5330  -35.2310 C   0  0  2  0  0  0  0  0  0  0  0  0
   -7.5160    9.8180  -33.0360 C   0  0  0  0  0  0  0  0  0  0  0  0
   -6.7100    7.5940  -35.0980 C   0  0  0  0  0  0  0  0  0  0  0  0
   -8.2130    8.7260  -36.6160 O   0  0  0  0  0  0  0  0  0  0  0  0
   -9.3180    7.9910  -34.2220 R   0  0  0  0  0  0  0  0  0  0  0  0
   -6.8770   11.0810  -32.4750 C   0  0  2  0  0  0  0  0  0  0  0  0
   -5.7690    7.4620  -36.2130 N   0  0  0  0  0  0  0  0  0  0  0  0
   -6.5030    6.9520  -34.0860 O   0  0  0  0  0  0  0  0  0  0  0  0
   -5.4440   11.3950  -32.9000 C   0  0  0  0  0  0  0  0  0  0  0  0
   -6.7630   10.9530  -30.9740 C   0  0  0  0  0  0  0  0  0  0  0  0
   -4.7930   12.0080  -31.6580 C   0  0  0  0  0  0  0  0  0  0  0  0
   -5.7180   11.6730  -30.5800 N   0  0  0  0  0  0  0  0  0  0  0  0
   -7.5140   10.2610  -30.2510 O   0  0  0  0  0  0  0  0  0  0  0  0
  2  1  1  0
  1  3  1  6
  4  2  1  0
  2  5  1  0
  2  6  1  1
  7  3  1  6
  4  8  1  0
  4  9  1  0
  7 10  1  0
  7 11  1  0
 10 12  1  0
 13 11  1  0
 11 14  1  0
 12 13  1  0
V    6 *
A    2
 C8 
A    3
 C19
A    4
 C1 
A    5
 O9 
A    6
 X  
A    7
 C20
A    8
 N2 
A    9
 O5 
A   10
 C21
A   11
 C24
A   12
 C22
A   13
 N23
A   14
 O26
M  END
>  <XChem_code>  (100) 
I70§1

>  <Occupancy>  (100) 
[1.0, 1.0, 1.0, 1.0, 1.0, 1.0, 1.0, 1.0, 1.0, 1.0, 1.0, 1.0, 1.0, 1.0, 1.0, 1.0, 1.0, 1.0, 1.0, 1.0, 1.0, 1.0, 1.0, 1.0, 1.0, 1.0, 1.0, 1.0, 1.0, 1.0, 1.0, 1.0, 1.0, 1.0, 1.0, 1.0, 1.0, 1.0, 1.0, 1.0]

>  <TempFactor>  (100) 
[63.58, 69.08, 56.96, 91.85, 58.99, 85.97, 82.0, 52.36, 73.05, 70.66, 67.47, 64.86, 62.73, 58.1, 56.76, 63.59, 54.89, 58.5, 61.5, 60.05, 60.39, 63.68, 62.48, 49.52, 61.26, 62.28, 64.93, 65.54, 55.79, 95.6, 91.48, 91.79, 68.22, 64.56, 72.88, 62.05, 61.78, 61.48, 53.44, 57.91]

>  <accession>  (100) 
7QUW_AAA

>  <description>  (100) 
Chain AAA, Protease 3C [Coxsackievirus B3]

>  <evalue>  (100) 
7.4010300000000003e-88

>  <pdb_code>  (100) 
7QUW

>  <chain>  (100) 
AAA

>  <ligands>  (100) 
[{'chain_id': 'AAA', 'author_residue_number': 201, 'author_insertion_code': '', 'chem_comp_id': 'I70', 'alternate_conformers': 0, 'entity_id': 2, 'struct_asym_id': 'B', 'residue_number': 1, 'chem_comp_name': '(1R,2S,5S)-N-{(2S,3R)-4-amino-3-hydroxy-4-oxo-1-[(3S)-2-oxopyrrolidin-3-yl]butan-2-yl}-3-[N-(tert-butylcarbamoyl)-3-methyl-L-valyl]-6,6-dimethyl-3-azabicyclo[3.1.0]hexane-2-carboxamide', 'weight': 550.691, 'carbohydrate_polymer': False, 'branch_name': ''}]

>  <ligand_codes>  (100) 
['I70']

>  <cofactor_codes>  (100) 
[]

>  <has_cofactor>  (100) 
False

>  <covalent>  (100) 
True

>  <base_name>  (100) 
7QUW

>  <lig_resn>  (100) 
I70

>  <lig_resi>  (100) 
201

>  <lig_chain>  (100) 
AAA

>  <lig_segi>  (100) 
B

>  <lig_alt>  (100) 


>  <polymer_chain>  (100) 
A

>  <single_smiles>  (100) 
CC(C)(C)NC(=O)N[C@H](C(=O)N1C[C@H]2[C@@H]([C@H]1C(=O)N[C@@H](C[C@@H]3CCNC3=O)[C@@H](O)C(N)=O)C2(C)C)C(C)(C)C

$$$$
I70P1S10
     RDKit          3D

 26 27  0  0  0  0  0  0  0  0999 V2000
   -8.6950   10.8790  -34.8670 N   0  0  0  0  0  0  0  0  0  0  0  0
   -8.4570   11.9880  -35.5730 C   0  0  0  0  0  0  0  0  0  0  0  0
   -9.6500   12.9180  -35.7630 C   0  0  1  0  0  0  0  0  0  0  0  0
   -7.3460   12.2960  -36.0060 O   0  0  0  0  0  0  0  0  0  0  0  0
   -9.2900   14.2880  -35.3720 N   0  0  0  0  0  0  0  0  0  0  0  0
  -10.0130   13.0150  -37.2410 C   0  0  2  0  0  0  0  0  0  0  0  0
   -9.0070   14.6310  -34.0940 C   0  0  0  0  0  0  0  0  0  0  0  0
   -9.2580   15.2350  -36.5040 C   0  0  0  0  0  0  0  0  0  0  0  0
   -9.7390   14.4350  -37.6990 C   0  0  2  0  0  0  0  0  0  0  0  0
  -11.1540   13.9060  -37.6990 C   0  0  0  0  0  0  0  0  0  0  0  0
   -8.3630   16.0030  -33.8690 C   0  0  1  0  0  0  0  0  0  0  0  0
   -9.2830   13.8960  -33.1310 O   0  0  0  0  0  0  0  0  0  0  0  0
  -12.1980   14.3060  -36.6810 C   0  0  0  0  0  0  0  0  0  0  0  0
  -11.7390   13.8010  -39.0890 C   0  0  0  0  0  0  0  0  0  0  0  0
   -8.9660   16.6250  -32.7020 N   0  0  0  0  0  0  0  0  0  0  0  0
   -6.8280   15.9940  -33.7560 C   0  0  0  0  0  0  0  0  0  0  0  0
   -9.5750   17.8270  -32.7770 C   0  0  0  0  0  0  0  0  0  0  0  0
   -6.1840   15.2770  -34.9440 C   0  0  0  0  0  0  0  0  0  0  0  0
   -6.3140   17.4370  -33.7470 C   0  0  0  0  0  0  0  0  0  0  0  0
   -6.3720   15.3070  -32.4630 C   0  0  0  0  0  0  0  0  0  0  0  0
   -9.3150   18.6410  -31.7230 N   0  0  0  0  0  0  0  0  0  0  0  0
  -10.2600   18.1440  -33.7750 O   0  0  0  0  0  0  0  0  0  0  0  0
  -10.2720   19.4140  -30.9250 C   0  0  0  0  0  0  0  0  0  0  0  0
  -10.6940   20.3840  -32.0240 C   0  0  0  0  0  0  0  0  0  0  0  0
  -11.5630   18.7460  -30.5020 C   0  0  0  0  0  0  0  0  0  0  0  0
   -9.7000   20.3340  -29.8730 C   0  0  0  0  0  0  0  0  0  0  0  0
  2  1  1  0
  3  2  1  6
  2  4  1  0
  5  3  1  0
  6  3  1  0
  7  5  1  0
  8  5  1  0
  9  6  1  0
  6 10  1  1
 11  7  1  0
  7 12  1  0
  9  8  1  1
  9 10  1  0
 10 13  1  0
 10 14  1  0
 11 15  1  1
 11 16  1  0
 17 15  1  0
 16 18  1  0
 16 19  1  0
 16 20  1  0
 21 17  1  0
 17 22  1  0
 23 21  1  0
 23 24  1  0
 23 25  1  0
 23 26  1  0
A    2
 C15
A    3
 C14
A    4
 O38
A    5
 N13
A    6
 C34
A    7
 C12
A    8
 C13
A    9
 C16
A   10
 C18
A   11
 C11
A   12
 O33
A   13
 C23
A   14
 C25
A   15
 N10
A   16
 C30
A   17
 C9 
A   18
 C26
A   19
 C31
A   20
 C32
A   21
 N8 
A   22
 O29
A   23
 C7 
A   24
 C27
A   25
 C28
A   26
 C29
M  END
>  <XChem_code>  (101) 
I70§1

>  <Occupancy>  (101) 
[1.0, 1.0, 1.0, 1.0, 1.0, 1.0, 1.0, 1.0, 1.0, 1.0, 1.0, 1.0, 1.0, 1.0, 1.0, 1.0, 1.0, 1.0, 1.0, 1.0, 1.0, 1.0, 1.0, 1.0, 1.0, 1.0, 1.0, 1.0, 1.0, 1.0, 1.0, 1.0, 1.0, 1.0, 1.0, 1.0, 1.0, 1.0, 1.0, 1.0]

>  <TempFactor>  (101) 
[63.58, 69.08, 56.96, 91.85, 58.99, 85.97, 82.0, 52.36, 73.05, 70.66, 67.47, 64.86, 62.73, 58.1, 56.76, 63.59, 54.89, 58.5, 61.5, 60.05, 60.39, 63.68, 62.48, 49.52, 61.26, 62.28, 64.93, 65.54, 55.79, 95.6, 91.48, 91.79, 68.22, 64.56, 72.88, 62.05, 61.78, 61.48, 53.44, 57.91]

>  <accession>  (101) 
7QUW_AAA

>  <description>  (101) 
Chain AAA, Protease 3C [Coxsackievirus B3]

>  <evalue>  (101) 
7.4010300000000003e-88

>  <pdb_code>  (101) 
7QUW

>  <chain>  (101) 
AAA

>  <ligands>  (101) 
[{'chain_id': 'AAA', 'author_residue_number': 201, 'author_insertion_code': '', 'chem_comp_id': 'I70', 'alternate_conformers': 0, 'entity_id': 2, 'struct_asym_id': 'B', 'residue_number': 1, 'chem_comp_name': '(1R,2S,5S)-N-{(2S,3R)-4-amino-3-hydroxy-4-oxo-1-[(3S)-2-oxopyrrolidin-3-yl]butan-2-yl}-3-[N-(tert-butylcarbamoyl)-3-methyl-L-valyl]-6,6-dimethyl-3-azabicyclo[3.1.0]hexane-2-carboxamide', 'weight': 550.691, 'carbohydrate_polymer': False, 'branch_name': ''}]

>  <ligand_codes>  (101) 
['I70']

>  <cofactor_codes>  (101) 
[]

>  <has_cofactor>  (101) 
False

>  <covalent>  (101) 
True

>  <base_name>  (101) 
7QUW

>  <lig_resn>  (101) 
I70

>  <lig_resi>  (101) 
201

>  <lig_chain>  (101) 
AAA

>  <lig_segi>  (101) 
B

>  <lig_alt>  (101) 


>  <polymer_chain>  (101) 
A

>  <single_smiles>  (101) 
CC(C)(C)NC(=O)N[C@H](C(=O)N1C[C@H]2[C@@H]([C@H]1C(=O)N[C@@H](C[C@@H]3CCNC3=O)[C@@H](O)C(N)=O)C2(C)C)C(C)(C)C

$$$$
I70P1S11
     RDKit          3D

  4  3  0  0  0  0  0  0  0  0999 V2000
   -8.9660   16.6250  -32.7020 N   0  0  0  0  0  0  0  0  0  0  0  0
   -9.5750   17.8270  -32.7770 C   0  0  0  0  0  0  0  0  0  0  0  0
   -9.3150   18.6410  -31.7230 N   0  0  0  0  0  0  0  0  0  0  0  0
  -10.2600   18.1440  -33.7750 O   0  0  0  0  0  0  0  0  0  0  0  0
  2  1  1  0
  3  2  1  0
  2  4  1  0
A    2
 C9 
A    4
 O29
M  END
>  <XChem_code>  (102) 
I70§1

>  <Occupancy>  (102) 
[1.0, 1.0, 1.0, 1.0, 1.0, 1.0, 1.0, 1.0, 1.0, 1.0, 1.0, 1.0, 1.0, 1.0, 1.0, 1.0, 1.0, 1.0, 1.0, 1.0, 1.0, 1.0, 1.0, 1.0, 1.0, 1.0, 1.0, 1.0, 1.0, 1.0, 1.0, 1.0, 1.0, 1.0, 1.0, 1.0, 1.0, 1.0, 1.0, 1.0]

>  <TempFactor>  (102) 
[63.58, 69.08, 56.96, 91.85, 58.99, 85.97, 82.0, 52.36, 73.05, 70.66, 67.47, 64.86, 62.73, 58.1, 56.76, 63.59, 54.89, 58.5, 61.5, 60.05, 60.39, 63.68, 62.48, 49.52, 61.26, 62.28, 64.93, 65.54, 55.79, 95.6, 91.48, 91.79, 68.22, 64.56, 72.88, 62.05, 61.78, 61.48, 53.44, 57.91]

>  <accession>  (102) 
7QUW_AAA

>  <description>  (102) 
Chain AAA, Protease 3C [Coxsackievirus B3]

>  <evalue>  (102) 
7.4010300000000003e-88

>  <pdb_code>  (102) 
7QUW

>  <chain>  (102) 
AAA

>  <ligands>  (102) 
[{'chain_id': 'AAA', 'author_residue_number': 201, 'author_insertion_code': '', 'chem_comp_id': 'I70', 'alternate_conformers': 0, 'entity_id': 2, 'struct_asym_id': 'B', 'residue_number': 1, 'chem_comp_name': '(1R,2S,5S)-N-{(2S,3R)-4-amino-3-hydroxy-4-oxo-1-[(3S)-2-oxopyrrolidin-3-yl]butan-2-yl}-3-[N-(tert-butylcarbamoyl)-3-methyl-L-valyl]-6,6-dimethyl-3-azabicyclo[3.1.0]hexane-2-carboxamide', 'weight': 550.691, 'carbohydrate_polymer': False, 'branch_name': ''}]

>  <ligand_codes>  (102) 
['I70']

>  <cofactor_codes>  (102) 
[]

>  <has_cofactor>  (102) 
False

>  <covalent>  (102) 
True

>  <base_name>  (102) 
7QUW

>  <lig_resn>  (102) 
I70

>  <lig_resi>  (102) 
201

>  <lig_chain>  (102) 
AAA

>  <lig_segi>  (102) 
B

>  <lig_alt>  (102) 


>  <polymer_chain>  (102) 
A

>  <single_smiles>  (102) 
CC(C)(C)NC(=O)N[C@H](C(=O)N1C[C@H]2[C@@H]([C@H]1C(=O)N[C@@H](C[C@@H]3CCNC3=O)[C@@H](O)C(N)=O)C2(C)C)C(C)(C)C

$$$$
I70P1S12
     RDKit          3D

 11 10  0  0  0  0  0  0  0  0999 V2000
   -9.0070   14.6310  -34.0940 C   0  0  0  0  0  0  0  0  0  0  0  0
   -8.3630   16.0030  -33.8690 C   0  0  1  0  0  0  0  0  0  0  0  0
   -9.2830   13.8960  -33.1310 O   0  0  0  0  0  0  0  0  0  0  0  0
   -8.9660   16.6250  -32.7020 N   0  0  0  0  0  0  0  0  0  0  0  0
   -6.8280   15.9940  -33.7560 C   0  0  0  0  0  0  0  0  0  0  0  0
   -9.5750   17.8270  -32.7770 C   0  0  0  0  0  0  0  0  0  0  0  0
   -6.1840   15.2770  -34.9440 C   0  0  0  0  0  0  0  0  0  0  0  0
   -6.3140   17.4370  -33.7470 C   0  0  0  0  0  0  0  0  0  0  0  0
   -6.3720   15.3070  -32.4630 C   0  0  0  0  0  0  0  0  0  0  0  0
   -9.3150   18.6410  -31.7230 N   0  0  0  0  0  0  0  0  0  0  0  0
  -10.2600   18.1440  -33.7750 O   0  0  0  0  0  0  0  0  0  0  0  0
  2  1  1  1
  1  3  1  0
  2  4  1  0
  2  5  1  0
  6  4  1  0
  5  7  1  0
  5  8  1  0
  5  9  1  0
 10  6  1  0
  6 11  1  0
A    2
 C11
A    3
 O33
A    4
 N10
A    5
 C30
A    6
 C9 
A    7
 C26
A    8
 C31
A    9
 C32
A   11
 O29
M  END
>  <XChem_code>  (103) 
I70§1

>  <Occupancy>  (103) 
[1.0, 1.0, 1.0, 1.0, 1.0, 1.0, 1.0, 1.0, 1.0, 1.0, 1.0, 1.0, 1.0, 1.0, 1.0, 1.0, 1.0, 1.0, 1.0, 1.0, 1.0, 1.0, 1.0, 1.0, 1.0, 1.0, 1.0, 1.0, 1.0, 1.0, 1.0, 1.0, 1.0, 1.0, 1.0, 1.0, 1.0, 1.0, 1.0, 1.0]

>  <TempFactor>  (103) 
[63.58, 69.08, 56.96, 91.85, 58.99, 85.97, 82.0, 52.36, 73.05, 70.66, 67.47, 64.86, 62.73, 58.1, 56.76, 63.59, 54.89, 58.5, 61.5, 60.05, 60.39, 63.68, 62.48, 49.52, 61.26, 62.28, 64.93, 65.54, 55.79, 95.6, 91.48, 91.79, 68.22, 64.56, 72.88, 62.05, 61.78, 61.48, 53.44, 57.91]

>  <accession>  (103) 
7QUW_AAA

>  <description>  (103) 
Chain AAA, Protease 3C [Coxsackievirus B3]

>  <evalue>  (103) 
7.4010300000000003e-88

>  <pdb_code>  (103) 
7QUW

>  <chain>  (103) 
AAA

>  <ligands>  (103) 
[{'chain_id': 'AAA', 'author_residue_number': 201, 'author_insertion_code': '', 'chem_comp_id': 'I70', 'alternate_conformers': 0, 'entity_id': 2, 'struct_asym_id': 'B', 'residue_number': 1, 'chem_comp_name': '(1R,2S,5S)-N-{(2S,3R)-4-amino-3-hydroxy-4-oxo-1-[(3S)-2-oxopyrrolidin-3-yl]butan-2-yl}-3-[N-(tert-butylcarbamoyl)-3-methyl-L-valyl]-6,6-dimethyl-3-azabicyclo[3.1.0]hexane-2-carboxamide', 'weight': 550.691, 'carbohydrate_polymer': False, 'branch_name': ''}]

>  <ligand_codes>  (103) 
['I70']

>  <cofactor_codes>  (103) 
[]

>  <has_cofactor>  (103) 
False

>  <covalent>  (103) 
True

>  <base_name>  (103) 
7QUW

>  <lig_resn>  (103) 
I70

>  <lig_resi>  (103) 
201

>  <lig_chain>  (103) 
AAA

>  <lig_segi>  (103) 
B

>  <lig_alt>  (103) 


>  <polymer_chain>  (103) 
A

>  <single_smiles>  (103) 
CC(C)(C)NC(=O)N[C@H](C(=O)N1C[C@H]2[C@@H]([C@H]1C(=O)N[C@@H](C[C@@H]3CCNC3=O)[C@@H](O)C(N)=O)C2(C)C)C(C)(C)C

$$$$
I70P1S13
     RDKit          3D

 21 22  0  0  0  0  0  0  0  0999 V2000
   -8.4570   11.9880  -35.5730 C   0  0  0  0  0  0  0  0  0  0  0  0
   -9.6500   12.9180  -35.7630 C   0  0  1  0  0  0  0  0  0  0  0  0
   -7.3460   12.2960  -36.0060 O   0  0  0  0  0  0  0  0  0  0  0  0
   -9.2900   14.2880  -35.3720 N   0  0  0  0  0  0  0  0  0  0  0  0
  -10.0130   13.0150  -37.2410 C   0  0  2  0  0  0  0  0  0  0  0  0
   -9.0070   14.6310  -34.0940 C   0  0  0  0  0  0  0  0  0  0  0  0
   -9.2580   15.2350  -36.5040 C   0  0  0  0  0  0  0  0  0  0  0  0
   -9.7390   14.4350  -37.6990 C   0  0  2  0  0  0  0  0  0  0  0  0
  -11.1540   13.9060  -37.6990 C   0  0  0  0  0  0  0  0  0  0  0  0
   -8.3630   16.0030  -33.8690 C   0  0  1  0  0  0  0  0  0  0  0  0
   -9.2830   13.8960  -33.1310 O   0  0  0  0  0  0  0  0  0  0  0  0
  -12.1980   14.3060  -36.6810 C   0  0  0  0  0  0  0  0  0  0  0  0
  -11.7390   13.8010  -39.0890 C   0  0  0  0  0  0  0  0  0  0  0  0
   -8.9660   16.6250  -32.7020 N   0  0  0  0  0  0  0  0  0  0  0  0
   -6.8280   15.9940  -33.7560 C   0  0  0  0  0  0  0  0  0  0  0  0
   -9.5750   17.8270  -32.7770 C   0  0  0  0  0  0  0  0  0  0  0  0
   -6.1840   15.2770  -34.9440 C   0  0  0  0  0  0  0  0  0  0  0  0
   -6.3140   17.4370  -33.7470 C   0  0  0  0  0  0  0  0  0  0  0  0
   -6.3720   15.3070  -32.4630 C   0  0  0  0  0  0  0  0  0  0  0  0
   -9.3150   18.6410  -31.7230 N   0  0  0  0  0  0  0  0  0  0  0  0
  -10.2600   18.1440  -33.7750 O   0  0  0  0  0  0  0  0  0  0  0  0
  2  1  1  6
  1  3  1  0
  4  2  1  0
  5  2  1  0
  6  4  1  0
  7  4  1  0
  8  5  1  0
  5  9  1  1
 10  6  1  0
  6 11  1  0
  8  7  1  1
  8  9  1  0
  9 12  1  0
  9 13  1  0
 10 14  1  1
 10 15  1  0
 16 14  1  0
 15 17  1  0
 15 18  1  0
 15 19  1  0
 20 16  1  0
 16 21  1  0
A    2
 C14
A    3
 O38
A    4
 N13
A    5
 C34
A    6
 C12
A    7
 C13
A    8
 C16
A    9
 C18
A   10
 C11
A   11
 O33
A   12
 C23
A   13
 C25
A   14
 N10
A   15
 C30
A   16
 C9 
A   17
 C26
A   18
 C31
A   19
 C32
A   21
 O29
M  END
>  <XChem_code>  (104) 
I70§1

>  <Occupancy>  (104) 
[1.0, 1.0, 1.0, 1.0, 1.0, 1.0, 1.0, 1.0, 1.0, 1.0, 1.0, 1.0, 1.0, 1.0, 1.0, 1.0, 1.0, 1.0, 1.0, 1.0, 1.0, 1.0, 1.0, 1.0, 1.0, 1.0, 1.0, 1.0, 1.0, 1.0, 1.0, 1.0, 1.0, 1.0, 1.0, 1.0, 1.0, 1.0, 1.0, 1.0]

>  <TempFactor>  (104) 
[63.58, 69.08, 56.96, 91.85, 58.99, 85.97, 82.0, 52.36, 73.05, 70.66, 67.47, 64.86, 62.73, 58.1, 56.76, 63.59, 54.89, 58.5, 61.5, 60.05, 60.39, 63.68, 62.48, 49.52, 61.26, 62.28, 64.93, 65.54, 55.79, 95.6, 91.48, 91.79, 68.22, 64.56, 72.88, 62.05, 61.78, 61.48, 53.44, 57.91]

>  <accession>  (104) 
7QUW_AAA

>  <description>  (104) 
Chain AAA, Protease 3C [Coxsackievirus B3]

>  <evalue>  (104) 
7.4010300000000003e-88

>  <pdb_code>  (104) 
7QUW

>  <chain>  (104) 
AAA

>  <ligands>  (104) 
[{'chain_id': 'AAA', 'author_residue_number': 201, 'author_insertion_code': '', 'chem_comp_id': 'I70', 'alternate_conformers': 0, 'entity_id': 2, 'struct_asym_id': 'B', 'residue_number': 1, 'chem_comp_name': '(1R,2S,5S)-N-{(2S,3R)-4-amino-3-hydroxy-4-oxo-1-[(3S)-2-oxopyrrolidin-3-yl]butan-2-yl}-3-[N-(tert-butylcarbamoyl)-3-methyl-L-valyl]-6,6-dimethyl-3-azabicyclo[3.1.0]hexane-2-carboxamide', 'weight': 550.691, 'carbohydrate_polymer': False, 'branch_name': ''}]

>  <ligand_codes>  (104) 
['I70']

>  <cofactor_codes>  (104) 
[]

>  <has_cofactor>  (104) 
False

>  <covalent>  (104) 
True

>  <base_name>  (104) 
7QUW

>  <lig_resn>  (104) 
I70

>  <lig_resi>  (104) 
201

>  <lig_chain>  (104) 
AAA

>  <lig_segi>  (104) 
B

>  <lig_alt>  (104) 


>  <polymer_chain>  (104) 
A

>  <single_smiles>  (104) 
CC(C)(C)NC(=O)N[C@H](C(=O)N1C[C@H]2[C@@H]([C@H]1C(=O)N[C@@H](C[C@@H]3CCNC3=O)[C@@H](O)C(N)=O)C2(C)C)C(C)(C)C

$$$$
I70P1S14
     RDKit          3D

 22 23  0  0  0  0  0  0  0  0999 V2000
   -8.6950   10.8790  -34.8670 N   0  0  0  0  0  0  0  0  0  0  0  0
   -8.4570   11.9880  -35.5730 C   0  0  0  0  0  0  0  0  0  0  0  0
   -9.6500   12.9180  -35.7630 C   0  0  1  0  0  0  0  0  0  0  0  0
   -7.3460   12.2960  -36.0060 O   0  0  0  0  0  0  0  0  0  0  0  0
   -9.2900   14.2880  -35.3720 N   0  0  0  0  0  0  0  0  0  0  0  0
  -10.0130   13.0150  -37.2410 C   0  0  2  0  0  0  0  0  0  0  0  0
   -9.0070   14.6310  -34.0940 C   0  0  0  0  0  0  0  0  0  0  0  0
   -9.2580   15.2350  -36.5040 C   0  0  0  0  0  0  0  0  0  0  0  0
   -9.7390   14.4350  -37.6990 C   0  0  2  0  0  0  0  0  0  0  0  0
  -11.1540   13.9060  -37.6990 C   0  0  0  0  0  0  0  0  0  0  0  0
   -8.3630   16.0030  -33.8690 C   0  0  1  0  0  0  0  0  0  0  0  0
   -9.2830   13.8960  -33.1310 O   0  0  0  0  0  0  0  0  0  0  0  0
  -12.1980   14.3060  -36.6810 C   0  0  0  0  0  0  0  0  0  0  0  0
  -11.7390   13.8010  -39.0890 C   0  0  0  0  0  0  0  0  0  0  0  0
   -8.9660   16.6250  -32.7020 N   0  0  0  0  0  0  0  0  0  0  0  0
   -6.8280   15.9940  -33.7560 C   0  0  0  0  0  0  0  0  0  0  0  0
   -9.5750   17.8270  -32.7770 C   0  0  0  0  0  0  0  0  0  0  0  0
   -6.1840   15.2770  -34.9440 C   0  0  0  0  0  0  0  0  0  0  0  0
   -6.3140   17.4370  -33.7470 C   0  0  0  0  0  0  0  0  0  0  0  0
   -6.3720   15.3070  -32.4630 C   0  0  0  0  0  0  0  0  0  0  0  0
   -9.3150   18.6410  -31.7230 N   0  0  0  0  0  0  0  0  0  0  0  0
  -10.2600   18.1440  -33.7750 O   0  0  0  0  0  0  0  0  0  0  0  0
  2  1  1  0
  3  2  1  6
  2  4  1  0
  5  3  1  0
  6  3  1  0
  7  5  1  0
  8  5  1  0
  9  6  1  0
  6 10  1  1
 11  7  1  0
  7 12  1  0
  9  8  1  1
  9 10  1  0
 10 13  1  0
 10 14  1  0
 11 15  1  1
 11 16  1  0
 17 15  1  0
 16 18  1  0
 16 19  1  0
 16 20  1  0
 21 17  1  0
 17 22  1  0
A    2
 C15
A    3
 C14
A    4
 O38
A    5
 N13
A    6
 C34
A    7
 C12
A    8
 C13
A    9
 C16
A   10
 C18
A   11
 C11
A   12
 O33
A   13
 C23
A   14
 C25
A   15
 N10
A   16
 C30
A   17
 C9 
A   18
 C26
A   19
 C31
A   20
 C32
A   22
 O29
M  END
>  <XChem_code>  (105) 
I70§1

>  <Occupancy>  (105) 
[1.0, 1.0, 1.0, 1.0, 1.0, 1.0, 1.0, 1.0, 1.0, 1.0, 1.0, 1.0, 1.0, 1.0, 1.0, 1.0, 1.0, 1.0, 1.0, 1.0, 1.0, 1.0, 1.0, 1.0, 1.0, 1.0, 1.0, 1.0, 1.0, 1.0, 1.0, 1.0, 1.0, 1.0, 1.0, 1.0, 1.0, 1.0, 1.0, 1.0]

>  <TempFactor>  (105) 
[63.58, 69.08, 56.96, 91.85, 58.99, 85.97, 82.0, 52.36, 73.05, 70.66, 67.47, 64.86, 62.73, 58.1, 56.76, 63.59, 54.89, 58.5, 61.5, 60.05, 60.39, 63.68, 62.48, 49.52, 61.26, 62.28, 64.93, 65.54, 55.79, 95.6, 91.48, 91.79, 68.22, 64.56, 72.88, 62.05, 61.78, 61.48, 53.44, 57.91]

>  <accession>  (105) 
7QUW_AAA

>  <description>  (105) 
Chain AAA, Protease 3C [Coxsackievirus B3]

>  <evalue>  (105) 
7.4010300000000003e-88

>  <pdb_code>  (105) 
7QUW

>  <chain>  (105) 
AAA

>  <ligands>  (105) 
[{'chain_id': 'AAA', 'author_residue_number': 201, 'author_insertion_code': '', 'chem_comp_id': 'I70', 'alternate_conformers': 0, 'entity_id': 2, 'struct_asym_id': 'B', 'residue_number': 1, 'chem_comp_name': '(1R,2S,5S)-N-{(2S,3R)-4-amino-3-hydroxy-4-oxo-1-[(3S)-2-oxopyrrolidin-3-yl]butan-2-yl}-3-[N-(tert-butylcarbamoyl)-3-methyl-L-valyl]-6,6-dimethyl-3-azabicyclo[3.1.0]hexane-2-carboxamide', 'weight': 550.691, 'carbohydrate_polymer': False, 'branch_name': ''}]

>  <ligand_codes>  (105) 
['I70']

>  <cofactor_codes>  (105) 
[]

>  <has_cofactor>  (105) 
False

>  <covalent>  (105) 
True

>  <base_name>  (105) 
7QUW

>  <lig_resn>  (105) 
I70

>  <lig_resi>  (105) 
201

>  <lig_chain>  (105) 
AAA

>  <lig_segi>  (105) 
B

>  <lig_alt>  (105) 


>  <polymer_chain>  (105) 
A

>  <single_smiles>  (105) 
CC(C)(C)NC(=O)N[C@H](C(=O)N1C[C@H]2[C@@H]([C@H]1C(=O)N[C@@H](C[C@@H]3CCNC3=O)[C@@H](O)C(N)=O)C2(C)C)C(C)(C)C

$$$$
I70P1S15
     RDKit          3D

  7  6  0  0  0  0  0  0  0  0999 V2000
   -9.0070   14.6310  -34.0940 C   0  0  0  0  0  0  0  0  0  0  0  0
   -8.3630   16.0030  -33.8690 C   0  0  0  0  0  0  0  0  0  0  0  0
   -9.2830   13.8960  -33.1310 O   0  0  0  0  0  0  0  0  0  0  0  0
   -6.8280   15.9940  -33.7560 C   0  0  0  0  0  0  0  0  0  0  0  0
   -6.1840   15.2770  -34.9440 C   0  0  0  0  0  0  0  0  0  0  0  0
   -6.3140   17.4370  -33.7470 C   0  0  0  0  0  0  0  0  0  0  0  0
   -6.3720   15.3070  -32.4630 C   0  0  0  0  0  0  0  0  0  0  0  0
  2  1  1  1
  1  3  1  0
  2  4  1  0
  4  5  1  0
  4  6  1  0
  4  7  1  0
A    3
 O33
A    4
 C30
A    5
 C26
A    6
 C31
A    7
 C32
M  END
>  <XChem_code>  (106) 
I70§1

>  <Occupancy>  (106) 
[1.0, 1.0, 1.0, 1.0, 1.0, 1.0, 1.0, 1.0, 1.0, 1.0, 1.0, 1.0, 1.0, 1.0, 1.0, 1.0, 1.0, 1.0, 1.0, 1.0, 1.0, 1.0, 1.0, 1.0, 1.0, 1.0, 1.0, 1.0, 1.0, 1.0, 1.0, 1.0, 1.0, 1.0, 1.0, 1.0, 1.0, 1.0, 1.0, 1.0]

>  <TempFactor>  (106) 
[63.58, 69.08, 56.96, 91.85, 58.99, 85.97, 82.0, 52.36, 73.05, 70.66, 67.47, 64.86, 62.73, 58.1, 56.76, 63.59, 54.89, 58.5, 61.5, 60.05, 60.39, 63.68, 62.48, 49.52, 61.26, 62.28, 64.93, 65.54, 55.79, 95.6, 91.48, 91.79, 68.22, 64.56, 72.88, 62.05, 61.78, 61.48, 53.44, 57.91]

>  <accession>  (106) 
7QUW_AAA

>  <description>  (106) 
Chain AAA, Protease 3C [Coxsackievirus B3]

>  <evalue>  (106) 
7.4010300000000003e-88

>  <pdb_code>  (106) 
7QUW

>  <chain>  (106) 
AAA

>  <ligands>  (106) 
[{'chain_id': 'AAA', 'author_residue_number': 201, 'author_insertion_code': '', 'chem_comp_id': 'I70', 'alternate_conformers': 0, 'entity_id': 2, 'struct_asym_id': 'B', 'residue_number': 1, 'chem_comp_name': '(1R,2S,5S)-N-{(2S,3R)-4-amino-3-hydroxy-4-oxo-1-[(3S)-2-oxopyrrolidin-3-yl]butan-2-yl}-3-[N-(tert-butylcarbamoyl)-3-methyl-L-valyl]-6,6-dimethyl-3-azabicyclo[3.1.0]hexane-2-carboxamide', 'weight': 550.691, 'carbohydrate_polymer': False, 'branch_name': ''}]

>  <ligand_codes>  (106) 
['I70']

>  <cofactor_codes>  (106) 
[]

>  <has_cofactor>  (106) 
False

>  <covalent>  (106) 
True

>  <base_name>  (106) 
7QUW

>  <lig_resn>  (106) 
I70

>  <lig_resi>  (106) 
201

>  <lig_chain>  (106) 
AAA

>  <lig_segi>  (106) 
B

>  <lig_alt>  (106) 


>  <polymer_chain>  (106) 
A

>  <single_smiles>  (106) 
CC(C)(C)NC(=O)N[C@H](C(=O)N1C[C@H]2[C@@H]([C@H]1C(=O)N[C@@H](C[C@@H]3CCNC3=O)[C@@H](O)C(N)=O)C2(C)C)C(C)(C)C

$$$$
I70P1S16
     RDKit          3D

 17 18  0  0  0  0  0  0  0  0999 V2000
   -8.4570   11.9880  -35.5730 C   0  0  0  0  0  0  0  0  0  0  0  0
   -9.6500   12.9180  -35.7630 C   0  0  1  0  0  0  0  0  0  0  0  0
   -7.3460   12.2960  -36.0060 O   0  0  0  0  0  0  0  0  0  0  0  0
   -9.2900   14.2880  -35.3720 N   0  0  0  0  0  0  0  0  0  0  0  0
  -10.0130   13.0150  -37.2410 C   0  0  2  0  0  0  0  0  0  0  0  0
   -9.0070   14.6310  -34.0940 C   0  0  0  0  0  0  0  0  0  0  0  0
   -9.2580   15.2350  -36.5040 C   0  0  0  0  0  0  0  0  0  0  0  0
   -9.7390   14.4350  -37.6990 C   0  0  2  0  0  0  0  0  0  0  0  0
  -11.1540   13.9060  -37.6990 C   0  0  0  0  0  0  0  0  0  0  0  0
   -8.3630   16.0030  -33.8690 C   0  0  0  0  0  0  0  0  0  0  0  0
   -9.2830   13.8960  -33.1310 O   0  0  0  0  0  0  0  0  0  0  0  0
  -12.1980   14.3060  -36.6810 C   0  0  0  0  0  0  0  0  0  0  0  0
  -11.7390   13.8010  -39.0890 C   0  0  0  0  0  0  0  0  0  0  0  0
   -6.8280   15.9940  -33.7560 C   0  0  0  0  0  0  0  0  0  0  0  0
   -6.1840   15.2770  -34.9440 C   0  0  0  0  0  0  0  0  0  0  0  0
   -6.3140   17.4370  -33.7470 C   0  0  0  0  0  0  0  0  0  0  0  0
   -6.3720   15.3070  -32.4630 C   0  0  0  0  0  0  0  0  0  0  0  0
  2  1  1  6
  1  3  1  0
  4  2  1  0
  5  2  1  0
  6  4  1  0
  7  4  1  0
  8  5  1  0
  5  9  1  1
 10  6  1  1
  6 11  1  0
  8  7  1  1
  8  9  1  0
  9 12  1  0
  9 13  1  0
 10 14  1  0
 14 15  1  0
 14 16  1  0
 14 17  1  0
A    2
 C14
A    3
 O38
A    4
 N13
A    5
 C34
A    6
 C12
A    7
 C13
A    8
 C16
A    9
 C18
A   11
 O33
A   12
 C23
A   13
 C25
A   14
 C30
A   15
 C26
A   16
 C31
A   17
 C32
M  END
>  <XChem_code>  (107) 
I70§1

>  <Occupancy>  (107) 
[1.0, 1.0, 1.0, 1.0, 1.0, 1.0, 1.0, 1.0, 1.0, 1.0, 1.0, 1.0, 1.0, 1.0, 1.0, 1.0, 1.0, 1.0, 1.0, 1.0, 1.0, 1.0, 1.0, 1.0, 1.0, 1.0, 1.0, 1.0, 1.0, 1.0, 1.0, 1.0, 1.0, 1.0, 1.0, 1.0, 1.0, 1.0, 1.0, 1.0]

>  <TempFactor>  (107) 
[63.58, 69.08, 56.96, 91.85, 58.99, 85.97, 82.0, 52.36, 73.05, 70.66, 67.47, 64.86, 62.73, 58.1, 56.76, 63.59, 54.89, 58.5, 61.5, 60.05, 60.39, 63.68, 62.48, 49.52, 61.26, 62.28, 64.93, 65.54, 55.79, 95.6, 91.48, 91.79, 68.22, 64.56, 72.88, 62.05, 61.78, 61.48, 53.44, 57.91]

>  <accession>  (107) 
7QUW_AAA

>  <description>  (107) 
Chain AAA, Protease 3C [Coxsackievirus B3]

>  <evalue>  (107) 
7.4010300000000003e-88

>  <pdb_code>  (107) 
7QUW

>  <chain>  (107) 
AAA

>  <ligands>  (107) 
[{'chain_id': 'AAA', 'author_residue_number': 201, 'author_insertion_code': '', 'chem_comp_id': 'I70', 'alternate_conformers': 0, 'entity_id': 2, 'struct_asym_id': 'B', 'residue_number': 1, 'chem_comp_name': '(1R,2S,5S)-N-{(2S,3R)-4-amino-3-hydroxy-4-oxo-1-[(3S)-2-oxopyrrolidin-3-yl]butan-2-yl}-3-[N-(tert-butylcarbamoyl)-3-methyl-L-valyl]-6,6-dimethyl-3-azabicyclo[3.1.0]hexane-2-carboxamide', 'weight': 550.691, 'carbohydrate_polymer': False, 'branch_name': ''}]

>  <ligand_codes>  (107) 
['I70']

>  <cofactor_codes>  (107) 
[]

>  <has_cofactor>  (107) 
False

>  <covalent>  (107) 
True

>  <base_name>  (107) 
7QUW

>  <lig_resn>  (107) 
I70

>  <lig_resi>  (107) 
201

>  <lig_chain>  (107) 
AAA

>  <lig_segi>  (107) 
B

>  <lig_alt>  (107) 


>  <polymer_chain>  (107) 
A

>  <single_smiles>  (107) 
CC(C)(C)NC(=O)N[C@H](C(=O)N1C[C@H]2[C@@H]([C@H]1C(=O)N[C@@H](C[C@@H]3CCNC3=O)[C@@H](O)C(N)=O)C2(C)C)C(C)(C)C

$$$$
I70P1S17
     RDKit          3D

 18 19  0  0  0  0  0  0  0  0999 V2000
   -8.6950   10.8790  -34.8670 N   0  0  0  0  0  0  0  0  0  0  0  0
   -8.4570   11.9880  -35.5730 C   0  0  0  0  0  0  0  0  0  0  0  0
   -9.6500   12.9180  -35.7630 C   0  0  1  0  0  0  0  0  0  0  0  0
   -7.3460   12.2960  -36.0060 O   0  0  0  0  0  0  0  0  0  0  0  0
   -9.2900   14.2880  -35.3720 N   0  0  0  0  0  0  0  0  0  0  0  0
  -10.0130   13.0150  -37.2410 C   0  0  2  0  0  0  0  0  0  0  0  0
   -9.0070   14.6310  -34.0940 C   0  0  0  0  0  0  0  0  0  0  0  0
   -9.2580   15.2350  -36.5040 C   0  0  0  0  0  0  0  0  0  0  0  0
   -9.7390   14.4350  -37.6990 C   0  0  2  0  0  0  0  0  0  0  0  0
  -11.1540   13.9060  -37.6990 C   0  0  0  0  0  0  0  0  0  0  0  0
   -8.3630   16.0030  -33.8690 C   0  0  0  0  0  0  0  0  0  0  0  0
   -9.2830   13.8960  -33.1310 O   0  0  0  0  0  0  0  0  0  0  0  0
  -12.1980   14.3060  -36.6810 C   0  0  0  0  0  0  0  0  0  0  0  0
  -11.7390   13.8010  -39.0890 C   0  0  0  0  0  0  0  0  0  0  0  0
   -6.8280   15.9940  -33.7560 C   0  0  0  0  0  0  0  0  0  0  0  0
   -6.1840   15.2770  -34.9440 C   0  0  0  0  0  0  0  0  0  0  0  0
   -6.3140   17.4370  -33.7470 C   0  0  0  0  0  0  0  0  0  0  0  0
   -6.3720   15.3070  -32.4630 C   0  0  0  0  0  0  0  0  0  0  0  0
  2  1  1  0
  3  2  1  6
  2  4  1  0
  5  3  1  0
  6  3  1  0
  7  5  1  0
  8  5  1  0
  9  6  1  0
  6 10  1  1
 11  7  1  1
  7 12  1  0
  9  8  1  1
  9 10  1  0
 10 13  1  0
 10 14  1  0
 11 15  1  0
 15 16  1  0
 15 17  1  0
 15 18  1  0
A    2
 C15
A    3
 C14
A    4
 O38
A    5
 N13
A    6
 C34
A    7
 C12
A    8
 C13
A    9
 C16
A   10
 C18
A   12
 O33
A   13
 C23
A   14
 C25
A   15
 C30
A   16
 C26
A   17
 C31
A   18
 C32
M  END
>  <XChem_code>  (108) 
I70§1

>  <Occupancy>  (108) 
[1.0, 1.0, 1.0, 1.0, 1.0, 1.0, 1.0, 1.0, 1.0, 1.0, 1.0, 1.0, 1.0, 1.0, 1.0, 1.0, 1.0, 1.0, 1.0, 1.0, 1.0, 1.0, 1.0, 1.0, 1.0, 1.0, 1.0, 1.0, 1.0, 1.0, 1.0, 1.0, 1.0, 1.0, 1.0, 1.0, 1.0, 1.0, 1.0, 1.0]

>  <TempFactor>  (108) 
[63.58, 69.08, 56.96, 91.85, 58.99, 85.97, 82.0, 52.36, 73.05, 70.66, 67.47, 64.86, 62.73, 58.1, 56.76, 63.59, 54.89, 58.5, 61.5, 60.05, 60.39, 63.68, 62.48, 49.52, 61.26, 62.28, 64.93, 65.54, 55.79, 95.6, 91.48, 91.79, 68.22, 64.56, 72.88, 62.05, 61.78, 61.48, 53.44, 57.91]

>  <accession>  (108) 
7QUW_AAA

>  <description>  (108) 
Chain AAA, Protease 3C [Coxsackievirus B3]

>  <evalue>  (108) 
7.4010300000000003e-88

>  <pdb_code>  (108) 
7QUW

>  <chain>  (108) 
AAA

>  <ligands>  (108) 
[{'chain_id': 'AAA', 'author_residue_number': 201, 'author_insertion_code': '', 'chem_comp_id': 'I70', 'alternate_conformers': 0, 'entity_id': 2, 'struct_asym_id': 'B', 'residue_number': 1, 'chem_comp_name': '(1R,2S,5S)-N-{(2S,3R)-4-amino-3-hydroxy-4-oxo-1-[(3S)-2-oxopyrrolidin-3-yl]butan-2-yl}-3-[N-(tert-butylcarbamoyl)-3-methyl-L-valyl]-6,6-dimethyl-3-azabicyclo[3.1.0]hexane-2-carboxamide', 'weight': 550.691, 'carbohydrate_polymer': False, 'branch_name': ''}]

>  <ligand_codes>  (108) 
['I70']

>  <cofactor_codes>  (108) 
[]

>  <has_cofactor>  (108) 
False

>  <covalent>  (108) 
True

>  <base_name>  (108) 
7QUW

>  <lig_resn>  (108) 
I70

>  <lig_resi>  (108) 
201

>  <lig_chain>  (108) 
AAA

>  <lig_segi>  (108) 
B

>  <lig_alt>  (108) 


>  <polymer_chain>  (108) 
A

>  <single_smiles>  (108) 
CC(C)(C)NC(=O)N[C@H](C(=O)N1C[C@H]2[C@@H]([C@H]1C(=O)N[C@@H](C[C@@H]3CCNC3=O)[C@@H](O)C(N)=O)C2(C)C)C(C)(C)C

$$$$
I70P1S18
     RDKit          3D

 10 11  0  0  0  0  0  0  0  0999 V2000
   -8.4570   11.9880  -35.5730 C   0  0  0  0  0  0  0  0  0  0  0  0
   -9.6500   12.9180  -35.7630 C   0  0  1  0  0  0  0  0  0  0  0  0
   -7.3460   12.2960  -36.0060 O   0  0  0  0  0  0  0  0  0  0  0  0
   -9.2900   14.2880  -35.3720 N   0  0  0  0  0  0  0  0  0  0  0  0
  -10.0130   13.0150  -37.2410 C   0  0  2  0  0  0  0  0  0  0  0  0
   -9.2580   15.2350  -36.5040 C   0  0  0  0  0  0  0  0  0  0  0  0
   -9.7390   14.4350  -37.6990 C   0  0  2  0  0  0  0  0  0  0  0  0
  -11.1540   13.9060  -37.6990 C   0  0  0  0  0  0  0  0  0  0  0  0
  -12.1980   14.3060  -36.6810 C   0  0  0  0  0  0  0  0  0  0  0  0
  -11.7390   13.8010  -39.0890 C   0  0  0  0  0  0  0  0  0  0  0  0
  2  1  1  6
  1  3  1  0
  4  2  1  0
  5  2  1  0
  6  4  1  0
  7  5  1  0
  5  8  1  1
  7  6  1  1
  7  8  1  0
  8  9  1  0
  8 10  1  0
A    2
 C14
A    3
 O38
A    5
 C34
A    6
 C13
A    7
 C16
A    8
 C18
A    9
 C23
A   10
 C25
M  END
>  <XChem_code>  (109) 
I70§1

>  <Occupancy>  (109) 
[1.0, 1.0, 1.0, 1.0, 1.0, 1.0, 1.0, 1.0, 1.0, 1.0, 1.0, 1.0, 1.0, 1.0, 1.0, 1.0, 1.0, 1.0, 1.0, 1.0, 1.0, 1.0, 1.0, 1.0, 1.0, 1.0, 1.0, 1.0, 1.0, 1.0, 1.0, 1.0, 1.0, 1.0, 1.0, 1.0, 1.0, 1.0, 1.0, 1.0]

>  <TempFactor>  (109) 
[63.58, 69.08, 56.96, 91.85, 58.99, 85.97, 82.0, 52.36, 73.05, 70.66, 67.47, 64.86, 62.73, 58.1, 56.76, 63.59, 54.89, 58.5, 61.5, 60.05, 60.39, 63.68, 62.48, 49.52, 61.26, 62.28, 64.93, 65.54, 55.79, 95.6, 91.48, 91.79, 68.22, 64.56, 72.88, 62.05, 61.78, 61.48, 53.44, 57.91]

>  <accession>  (109) 
7QUW_AAA

>  <description>  (109) 
Chain AAA, Protease 3C [Coxsackievirus B3]

>  <evalue>  (109) 
7.4010300000000003e-88

>  <pdb_code>  (109) 
7QUW

>  <chain>  (109) 
AAA

>  <ligands>  (109) 
[{'chain_id': 'AAA', 'author_residue_number': 201, 'author_insertion_code': '', 'chem_comp_id': 'I70', 'alternate_conformers': 0, 'entity_id': 2, 'struct_asym_id': 'B', 'residue_number': 1, 'chem_comp_name': '(1R,2S,5S)-N-{(2S,3R)-4-amino-3-hydroxy-4-oxo-1-[(3S)-2-oxopyrrolidin-3-yl]butan-2-yl}-3-[N-(tert-butylcarbamoyl)-3-methyl-L-valyl]-6,6-dimethyl-3-azabicyclo[3.1.0]hexane-2-carboxamide', 'weight': 550.691, 'carbohydrate_polymer': False, 'branch_name': ''}]

>  <ligand_codes>  (109) 
['I70']

>  <cofactor_codes>  (109) 
[]

>  <has_cofactor>  (109) 
False

>  <covalent>  (109) 
True

>  <base_name>  (109) 
7QUW

>  <lig_resn>  (109) 
I70

>  <lig_resi>  (109) 
201

>  <lig_chain>  (109) 
AAA

>  <lig_segi>  (109) 
B

>  <lig_alt>  (109) 


>  <polymer_chain>  (109) 
A

>  <single_smiles>  (109) 
CC(C)(C)NC(=O)N[C@H](C(=O)N1C[C@H]2[C@@H]([C@H]1C(=O)N[C@@H](C[C@@H]3CCNC3=O)[C@@H](O)C(N)=O)C2(C)C)C(C)(C)C

$$$$
I70P1S19
     RDKit          3D

 11 12  0  0  0  0  0  0  0  0999 V2000
   -8.6950   10.8790  -34.8670 N   0  0  0  0  0  0  0  0  0  0  0  0
   -8.4570   11.9880  -35.5730 C   0  0  0  0  0  0  0  0  0  0  0  0
   -9.6500   12.9180  -35.7630 C   0  0  1  0  0  0  0  0  0  0  0  0
   -7.3460   12.2960  -36.0060 O   0  0  0  0  0  0  0  0  0  0  0  0
   -9.2900   14.2880  -35.3720 N   0  0  0  0  0  0  0  0  0  0  0  0
  -10.0130   13.0150  -37.2410 C   0  0  2  0  0  0  0  0  0  0  0  0
   -9.2580   15.2350  -36.5040 C   0  0  0  0  0  0  0  0  0  0  0  0
   -9.7390   14.4350  -37.6990 C   0  0  2  0  0  0  0  0  0  0  0  0
  -11.1540   13.9060  -37.6990 C   0  0  0  0  0  0  0  0  0  0  0  0
  -12.1980   14.3060  -36.6810 C   0  0  0  0  0  0  0  0  0  0  0  0
  -11.7390   13.8010  -39.0890 C   0  0  0  0  0  0  0  0  0  0  0  0
  2  1  1  0
  3  2  1  6
  2  4  1  0
  5  3  1  0
  6  3  1  0
  7  5  1  0
  8  6  1  0
  6  9  1  1
  8  7  1  1
  8  9  1  0
  9 10  1  0
  9 11  1  0
A    2
 C15
A    3
 C14
A    4
 O38
A    6
 C34
A    7
 C13
A    8
 C16
A    9
 C18
A   10
 C23
A   11
 C25
M  END
>  <XChem_code>  (110) 
I70§1

>  <Occupancy>  (110) 
[1.0, 1.0, 1.0, 1.0, 1.0, 1.0, 1.0, 1.0, 1.0, 1.0, 1.0, 1.0, 1.0, 1.0, 1.0, 1.0, 1.0, 1.0, 1.0, 1.0, 1.0, 1.0, 1.0, 1.0, 1.0, 1.0, 1.0, 1.0, 1.0, 1.0, 1.0, 1.0, 1.0, 1.0, 1.0, 1.0, 1.0, 1.0, 1.0, 1.0]

>  <TempFactor>  (110) 
[63.58, 69.08, 56.96, 91.85, 58.99, 85.97, 82.0, 52.36, 73.05, 70.66, 67.47, 64.86, 62.73, 58.1, 56.76, 63.59, 54.89, 58.5, 61.5, 60.05, 60.39, 63.68, 62.48, 49.52, 61.26, 62.28, 64.93, 65.54, 55.79, 95.6, 91.48, 91.79, 68.22, 64.56, 72.88, 62.05, 61.78, 61.48, 53.44, 57.91]

>  <accession>  (110) 
7QUW_AAA

>  <description>  (110) 
Chain AAA, Protease 3C [Coxsackievirus B3]

>  <evalue>  (110) 
7.4010300000000003e-88

>  <pdb_code>  (110) 
7QUW

>  <chain>  (110) 
AAA

>  <ligands>  (110) 
[{'chain_id': 'AAA', 'author_residue_number': 201, 'author_insertion_code': '', 'chem_comp_id': 'I70', 'alternate_conformers': 0, 'entity_id': 2, 'struct_asym_id': 'B', 'residue_number': 1, 'chem_comp_name': '(1R,2S,5S)-N-{(2S,3R)-4-amino-3-hydroxy-4-oxo-1-[(3S)-2-oxopyrrolidin-3-yl]butan-2-yl}-3-[N-(tert-butylcarbamoyl)-3-methyl-L-valyl]-6,6-dimethyl-3-azabicyclo[3.1.0]hexane-2-carboxamide', 'weight': 550.691, 'carbohydrate_polymer': False, 'branch_name': ''}]

>  <ligand_codes>  (110) 
['I70']

>  <cofactor_codes>  (110) 
[]

>  <has_cofactor>  (110) 
False

>  <covalent>  (110) 
True

>  <base_name>  (110) 
7QUW

>  <lig_resn>  (110) 
I70

>  <lig_resi>  (110) 
201

>  <lig_chain>  (110) 
AAA

>  <lig_segi>  (110) 
B

>  <lig_alt>  (110) 


>  <polymer_chain>  (110) 
A

>  <single_smiles>  (110) 
CC(C)(C)NC(=O)N[C@H](C(=O)N1C[C@H]2[C@@H]([C@H]1C(=O)N[C@@H](C[C@@H]3CCNC3=O)[C@@H](O)C(N)=O)C2(C)C)C(C)(C)C

$$$$
I70P1S20
     RDKit          3D

 17 17  0  0  0  0  0  0  0  0999 V2000
   -8.4570   11.9880  -35.5730 C   0  0  0  0  0  0  0  0  0  0  0  0
   -8.6950   10.8790  -34.8670 N   0  0  0  0  0  0  0  0  0  0  0  0
   -7.3460   12.2960  -36.0060 O   0  0  0  0  0  0  0  0  0  0  0  0
   -7.6460    9.8980  -34.5540 C   0  0  2  0  0  0  0  0  0  0  0  0
   -7.9070    8.5330  -35.2310 C   0  0  2  0  0  0  0  0  0  0  0  0
   -7.5160    9.8180  -33.0360 C   0  0  0  0  0  0  0  0  0  0  0  0
   -6.7100    7.5940  -35.0980 C   0  0  0  0  0  0  0  0  0  0  0  0
   -8.2130    8.7260  -36.6160 O   0  0  0  0  0  0  0  0  0  0  0  0
   -9.3180    7.9910  -34.2220 R   0  0  0  0  0  0  0  0  0  0  0  0
   -6.8770   11.0810  -32.4750 C   0  0  2  0  0  0  0  0  0  0  0  0
   -5.7690    7.4620  -36.2130 N   0  0  0  0  0  0  0  0  0  0  0  0
   -6.5030    6.9520  -34.0860 O   0  0  0  0  0  0  0  0  0  0  0  0
   -5.4440   11.3950  -32.9000 C   0  0  0  0  0  0  0  0  0  0  0  0
   -6.7630   10.9530  -30.9740 C   0  0  0  0  0  0  0  0  0  0  0  0
   -4.7930   12.0080  -31.6580 C   0  0  0  0  0  0  0  0  0  0  0  0
   -5.7180   11.6730  -30.5800 N   0  0  0  0  0  0  0  0  0  0  0  0
   -7.5140   10.2610  -30.2510 O   0  0  0  0  0  0  0  0  0  0  0  0
  1  2  1  0
  1  3  1  0
  2  4  1  0
  5  4  1  0
  4  6  1  1
  7  5  1  0
  5  8  1  0
  5  9  1  1
 10  6  1  6
  7 11  1  0
  7 12  1  0
 10 13  1  0
 10 14  1  0
 13 15  1  0
 16 14  1  0
 14 17  1  0
 15 16  1  0
V    9 *
A    2
 N16
A    3
 O38
A    4
 C17
A    5
 C8 
A    6
 C19
A    7
 C1 
A    8
 O9 
A    9
 X  
A   10
 C20
A   11
 N2 
A   12
 O5 
A   13
 C21
A   14
 C24
A   15
 C22
A   16
 N23
A   17
 O26
M  END
>  <XChem_code>  (111) 
I70§1

>  <Occupancy>  (111) 
[1.0, 1.0, 1.0, 1.0, 1.0, 1.0, 1.0, 1.0, 1.0, 1.0, 1.0, 1.0, 1.0, 1.0, 1.0, 1.0, 1.0, 1.0, 1.0, 1.0, 1.0, 1.0, 1.0, 1.0, 1.0, 1.0, 1.0, 1.0, 1.0, 1.0, 1.0, 1.0, 1.0, 1.0, 1.0, 1.0, 1.0, 1.0, 1.0, 1.0]

>  <TempFactor>  (111) 
[63.58, 69.08, 56.96, 91.85, 58.99, 85.97, 82.0, 52.36, 73.05, 70.66, 67.47, 64.86, 62.73, 58.1, 56.76, 63.59, 54.89, 58.5, 61.5, 60.05, 60.39, 63.68, 62.48, 49.52, 61.26, 62.28, 64.93, 65.54, 55.79, 95.6, 91.48, 91.79, 68.22, 64.56, 72.88, 62.05, 61.78, 61.48, 53.44, 57.91]

>  <accession>  (111) 
7QUW_AAA

>  <description>  (111) 
Chain AAA, Protease 3C [Coxsackievirus B3]

>  <evalue>  (111) 
7.4010300000000003e-88

>  <pdb_code>  (111) 
7QUW

>  <chain>  (111) 
AAA

>  <ligands>  (111) 
[{'chain_id': 'AAA', 'author_residue_number': 201, 'author_insertion_code': '', 'chem_comp_id': 'I70', 'alternate_conformers': 0, 'entity_id': 2, 'struct_asym_id': 'B', 'residue_number': 1, 'chem_comp_name': '(1R,2S,5S)-N-{(2S,3R)-4-amino-3-hydroxy-4-oxo-1-[(3S)-2-oxopyrrolidin-3-yl]butan-2-yl}-3-[N-(tert-butylcarbamoyl)-3-methyl-L-valyl]-6,6-dimethyl-3-azabicyclo[3.1.0]hexane-2-carboxamide', 'weight': 550.691, 'carbohydrate_polymer': False, 'branch_name': ''}]

>  <ligand_codes>  (111) 
['I70']

>  <cofactor_codes>  (111) 
[]

>  <has_cofactor>  (111) 
False

>  <covalent>  (111) 
True

>  <base_name>  (111) 
7QUW

>  <lig_resn>  (111) 
I70

>  <lig_resi>  (111) 
201

>  <lig_chain>  (111) 
AAA

>  <lig_segi>  (111) 
B

>  <lig_alt>  (111) 


>  <polymer_chain>  (111) 
A

>  <single_smiles>  (111) 
CC(C)(C)NC(=O)N[C@H](C(=O)N1C[C@H]2[C@@H]([C@H]1C(=O)N[C@@H](C[C@@H]3CCNC3=O)[C@@H](O)C(N)=O)C2(C)C)C(C)(C)C

$$$$
I70P1S21
     RDKit          3D

 23 24  0  0  0  0  0  0  0  0999 V2000
   -9.6500   12.9180  -35.7630 C   0  0  0  0  0  0  0  0  0  0  0  0
   -9.2900   14.2880  -35.3720 N   0  0  0  0  0  0  0  0  0  0  0  0
  -10.0130   13.0150  -37.2410 C   0  0  2  0  0  0  0  0  0  0  0  0
   -9.0070   14.6310  -34.0940 C   0  0  0  0  0  0  0  0  0  0  0  0
   -9.2580   15.2350  -36.5040 C   0  0  0  0  0  0  0  0  0  0  0  0
   -9.7390   14.4350  -37.6990 C   0  0  2  0  0  0  0  0  0  0  0  0
  -11.1540   13.9060  -37.6990 C   0  0  0  0  0  0  0  0  0  0  0  0
   -8.3630   16.0030  -33.8690 C   0  0  1  0  0  0  0  0  0  0  0  0
   -9.2830   13.8960  -33.1310 O   0  0  0  0  0  0  0  0  0  0  0  0
  -12.1980   14.3060  -36.6810 C   0  0  0  0  0  0  0  0  0  0  0  0
  -11.7390   13.8010  -39.0890 C   0  0  0  0  0  0  0  0  0  0  0  0
   -8.9660   16.6250  -32.7020 N   0  0  0  0  0  0  0  0  0  0  0  0
   -6.8280   15.9940  -33.7560 C   0  0  0  0  0  0  0  0  0  0  0  0
   -9.5750   17.8270  -32.7770 C   0  0  0  0  0  0  0  0  0  0  0  0
   -6.1840   15.2770  -34.9440 C   0  0  0  0  0  0  0  0  0  0  0  0
   -6.3140   17.4370  -33.7470 C   0  0  0  0  0  0  0  0  0  0  0  0
   -6.3720   15.3070  -32.4630 C   0  0  0  0  0  0  0  0  0  0  0  0
   -9.3150   18.6410  -31.7230 N   0  0  0  0  0  0  0  0  0  0  0  0
  -10.2600   18.1440  -33.7750 O   0  0  0  0  0  0  0  0  0  0  0  0
  -10.2720   19.4140  -30.9250 C   0  0  0  0  0  0  0  0  0  0  0  0
  -10.6940   20.3840  -32.0240 C   0  0  0  0  0  0  0  0  0  0  0  0
  -11.5630   18.7460  -30.5020 C   0  0  0  0  0  0  0  0  0  0  0  0
   -9.7000   20.3340  -29.8730 C   0  0  0  0  0  0  0  0  0  0  0  0
  1  2  1  6
  3  1  1  0
  4  2  1  0
  5  2  1  0
  6  3  1  0
  3  7  1  1
  8  4  1  0
  4  9  1  0
  6  5  1  1
  6  7  1  0
  7 10  1  0
  7 11  1  0
  8 12  1  1
  8 13  1  0
 14 12  1  0
 13 15  1  0
 13 16  1  0
 13 17  1  0
 18 14  1  0
 14 19  1  0
 20 18  1  0
 20 21  1  0
 20 22  1  0
 20 23  1  0
A    2
 N13
A    3
 C34
A    4
 C12
A    5
 C13
A    6
 C16
A    7
 C18
A    8
 C11
A    9
 O33
A   10
 C23
A   11
 C25
A   12
 N10
A   13
 C30
A   14
 C9 
A   15
 C26
A   16
 C31
A   17
 C32
A   18
 N8 
A   19
 O29
A   20
 C7 
A   21
 C27
A   22
 C28
A   23
 C29
M  END
>  <XChem_code>  (112) 
I70§1

>  <Occupancy>  (112) 
[1.0, 1.0, 1.0, 1.0, 1.0, 1.0, 1.0, 1.0, 1.0, 1.0, 1.0, 1.0, 1.0, 1.0, 1.0, 1.0, 1.0, 1.0, 1.0, 1.0, 1.0, 1.0, 1.0, 1.0, 1.0, 1.0, 1.0, 1.0, 1.0, 1.0, 1.0, 1.0, 1.0, 1.0, 1.0, 1.0, 1.0, 1.0, 1.0, 1.0]

>  <TempFactor>  (112) 
[63.58, 69.08, 56.96, 91.85, 58.99, 85.97, 82.0, 52.36, 73.05, 70.66, 67.47, 64.86, 62.73, 58.1, 56.76, 63.59, 54.89, 58.5, 61.5, 60.05, 60.39, 63.68, 62.48, 49.52, 61.26, 62.28, 64.93, 65.54, 55.79, 95.6, 91.48, 91.79, 68.22, 64.56, 72.88, 62.05, 61.78, 61.48, 53.44, 57.91]

>  <accession>  (112) 
7QUW_AAA

>  <description>  (112) 
Chain AAA, Protease 3C [Coxsackievirus B3]

>  <evalue>  (112) 
7.4010300000000003e-88

>  <pdb_code>  (112) 
7QUW

>  <chain>  (112) 
AAA

>  <ligands>  (112) 
[{'chain_id': 'AAA', 'author_residue_number': 201, 'author_insertion_code': '', 'chem_comp_id': 'I70', 'alternate_conformers': 0, 'entity_id': 2, 'struct_asym_id': 'B', 'residue_number': 1, 'chem_comp_name': '(1R,2S,5S)-N-{(2S,3R)-4-amino-3-hydroxy-4-oxo-1-[(3S)-2-oxopyrrolidin-3-yl]butan-2-yl}-3-[N-(tert-butylcarbamoyl)-3-methyl-L-valyl]-6,6-dimethyl-3-azabicyclo[3.1.0]hexane-2-carboxamide', 'weight': 550.691, 'carbohydrate_polymer': False, 'branch_name': ''}]

>  <ligand_codes>  (112) 
['I70']

>  <cofactor_codes>  (112) 
[]

>  <has_cofactor>  (112) 
False

>  <covalent>  (112) 
True

>  <base_name>  (112) 
7QUW

>  <lig_resn>  (112) 
I70

>  <lig_resi>  (112) 
201

>  <lig_chain>  (112) 
AAA

>  <lig_segi>  (112) 
B

>  <lig_alt>  (112) 


>  <polymer_chain>  (112) 
A

>  <single_smiles>  (112) 
CC(C)(C)NC(=O)N[C@H](C(=O)N1C[C@H]2[C@@H]([C@H]1C(=O)N[C@@H](C[C@@H]3CCNC3=O)[C@@H](O)C(N)=O)C2(C)C)C(C)(C)C

$$$$
I70P1S22
     RDKit          3D

  6  6  0  0  0  0  0  0  0  0999 V2000
   -6.8770   11.0810  -32.4750 C   0  0  0  0  0  0  0  0  0  0  0  0
   -5.4440   11.3950  -32.9000 C   0  0  0  0  0  0  0  0  0  0  0  0
   -6.7630   10.9530  -30.9740 C   0  0  0  0  0  0  0  0  0  0  0  0
   -4.7930   12.0080  -31.6580 C   0  0  0  0  0  0  0  0  0  0  0  0
   -5.7180   11.6730  -30.5800 N   0  0  0  0  0  0  0  0  0  0  0  0
   -7.5140   10.2610  -30.2510 O   0  0  0  0  0  0  0  0  0  0  0  0
  1  2  1  1
  1  3  1  0
  2  4  1  0
  5  3  1  0
  3  6  1  0
  4  5  1  0
A    2
 C21
A    3
 C24
A    4
 C22
A    5
 N23
A    6
 O26
M  END
>  <XChem_code>  (113) 
I70§1

>  <Occupancy>  (113) 
[1.0, 1.0, 1.0, 1.0, 1.0, 1.0, 1.0, 1.0, 1.0, 1.0, 1.0, 1.0, 1.0, 1.0, 1.0, 1.0, 1.0, 1.0, 1.0, 1.0, 1.0, 1.0, 1.0, 1.0, 1.0, 1.0, 1.0, 1.0, 1.0, 1.0, 1.0, 1.0, 1.0, 1.0, 1.0, 1.0, 1.0, 1.0, 1.0, 1.0]

>  <TempFactor>  (113) 
[63.58, 69.08, 56.96, 91.85, 58.99, 85.97, 82.0, 52.36, 73.05, 70.66, 67.47, 64.86, 62.73, 58.1, 56.76, 63.59, 54.89, 58.5, 61.5, 60.05, 60.39, 63.68, 62.48, 49.52, 61.26, 62.28, 64.93, 65.54, 55.79, 95.6, 91.48, 91.79, 68.22, 64.56, 72.88, 62.05, 61.78, 61.48, 53.44, 57.91]

>  <accession>  (113) 
7QUW_AAA

>  <description>  (113) 
Chain AAA, Protease 3C [Coxsackievirus B3]

>  <evalue>  (113) 
7.4010300000000003e-88

>  <pdb_code>  (113) 
7QUW

>  <chain>  (113) 
AAA

>  <ligands>  (113) 
[{'chain_id': 'AAA', 'author_residue_number': 201, 'author_insertion_code': '', 'chem_comp_id': 'I70', 'alternate_conformers': 0, 'entity_id': 2, 'struct_asym_id': 'B', 'residue_number': 1, 'chem_comp_name': '(1R,2S,5S)-N-{(2S,3R)-4-amino-3-hydroxy-4-oxo-1-[(3S)-2-oxopyrrolidin-3-yl]butan-2-yl}-3-[N-(tert-butylcarbamoyl)-3-methyl-L-valyl]-6,6-dimethyl-3-azabicyclo[3.1.0]hexane-2-carboxamide', 'weight': 550.691, 'carbohydrate_polymer': False, 'branch_name': ''}]

>  <ligand_codes>  (113) 
['I70']

>  <cofactor_codes>  (113) 
[]

>  <has_cofactor>  (113) 
False

>  <covalent>  (113) 
True

>  <base_name>  (113) 
7QUW

>  <lig_resn>  (113) 
I70

>  <lig_resi>  (113) 
201

>  <lig_chain>  (113) 
AAA

>  <lig_segi>  (113) 
B

>  <lig_alt>  (113) 


>  <polymer_chain>  (113) 
A

>  <single_smiles>  (113) 
CC(C)(C)NC(=O)N[C@H](C(=O)N1C[C@H]2[C@@H]([C@H]1C(=O)N[C@@H](C[C@@H]3CCNC3=O)[C@@H](O)C(N)=O)C2(C)C)C(C)(C)C

$$$$
I70P1S23
     RDKit          3D

 34 35  0  0  0  0  0  0  0  0999 V2000
   -7.5160    9.8180  -33.0360 C   0  0  0  0  0  0  0  0  0  0  0  0
   -7.6460    9.8980  -34.5540 C   0  0  1  0  0  0  0  0  0  0  0  0
   -7.9070    8.5330  -35.2310 C   0  0  2  0  0  0  0  0  0  0  0  0
   -8.6950   10.8790  -34.8670 N   0  0  0  0  0  0  0  0  0  0  0  0
   -6.7100    7.5940  -35.0980 C   0  0  0  0  0  0  0  0  0  0  0  0
   -8.2130    8.7260  -36.6160 O   0  0  0  0  0  0  0  0  0  0  0  0
   -9.3180    7.9910  -34.2220 R   0  0  0  0  0  0  0  0  0  0  0  0
   -8.4570   11.9880  -35.5730 C   0  0  0  0  0  0  0  0  0  0  0  0
   -5.7690    7.4620  -36.2130 N   0  0  0  0  0  0  0  0  0  0  0  0
   -6.5030    6.9520  -34.0860 O   0  0  0  0  0  0  0  0  0  0  0  0
   -9.6500   12.9180  -35.7630 C   0  0  1  0  0  0  0  0  0  0  0  0
   -7.3460   12.2960  -36.0060 O   0  0  0  0  0  0  0  0  0  0  0  0
   -9.2900   14.2880  -35.3720 N   0  0  0  0  0  0  0  0  0  0  0  0
  -10.0130   13.0150  -37.2410 C   0  0  2  0  0  0  0  0  0  0  0  0
   -9.0070   14.6310  -34.0940 C   0  0  0  0  0  0  0  0  0  0  0  0
   -9.2580   15.2350  -36.5040 C   0  0  0  0  0  0  0  0  0  0  0  0
   -9.7390   14.4350  -37.6990 C   0  0  2  0  0  0  0  0  0  0  0  0
  -11.1540   13.9060  -37.6990 C   0  0  0  0  0  0  0  0  0  0  0  0
   -8.3630   16.0030  -33.8690 C   0  0  1  0  0  0  0  0  0  0  0  0
   -9.2830   13.8960  -33.1310 O   0  0  0  0  0  0  0  0  0  0  0  0
  -12.1980   14.3060  -36.6810 C   0  0  0  0  0  0  0  0  0  0  0  0
  -11.7390   13.8010  -39.0890 C   0  0  0  0  0  0  0  0  0  0  0  0
   -8.9660   16.6250  -32.7020 N   0  0  0  0  0  0  0  0  0  0  0  0
   -6.8280   15.9940  -33.7560 C   0  0  0  0  0  0  0  0  0  0  0  0
   -9.5750   17.8270  -32.7770 C   0  0  0  0  0  0  0  0  0  0  0  0
   -6.1840   15.2770  -34.9440 C   0  0  0  0  0  0  0  0  0  0  0  0
   -6.3140   17.4370  -33.7470 C   0  0  0  0  0  0  0  0  0  0  0  0
   -6.3720   15.3070  -32.4630 C   0  0  0  0  0  0  0  0  0  0  0  0
   -9.3150   18.6410  -31.7230 N   0  0  0  0  0  0  0  0  0  0  0  0
  -10.2600   18.1440  -33.7750 O   0  0  0  0  0  0  0  0  0  0  0  0
  -10.2720   19.4140  -30.9250 C   0  0  0  0  0  0  0  0  0  0  0  0
  -10.6940   20.3840  -32.0240 C   0  0  0  0  0  0  0  0  0  0  0  0
  -11.5630   18.7460  -30.5020 C   0  0  0  0  0  0  0  0  0  0  0  0
   -9.7000   20.3340  -29.8730 C   0  0  0  0  0  0  0  0  0  0  0  0
  2  1  1  1
  3  2  1  0
  4  2  1  0
  5  3  1  0
  3  6  1  0
  3  7  1  1
  8  4  1  0
  5  9  1  0
  5 10  1  0
 11  8  1  6
  8 12  1  0
 13 11  1  0
 14 11  1  0
 15 13  1  0
 16 13  1  0
 17 14  1  0
 14 18  1  1
 19 15  1  0
 15 20  1  0
 17 16  1  1
 17 18  1  0
 18 21  1  0
 18 22  1  0
 19 23  1  1
 19 24  1  0
 25 23  1  0
 24 26  1  0
 24 27  1  0
 24 28  1  0
 29 25  1  0
 25 30  1  0
 31 29  1  0
 31 32  1  0
 31 33  1  0
 31 34  1  0
V    7 *
A    2
 C17
A    3
 C8 
A    4
 N16
A    5
 C1 
A    6
 O9 
A    7
 X  
A    8
 C15
A    9
 N2 
A   10
 O5 
A   11
 C14
A   12
 O38
A   13
 N13
A   14
 C34
A   15
 C12
A   16
 C13
A   17
 C16
A   18
 C18
A   19
 C11
A   20
 O33
A   21
 C23
A   22
 C25
A   23
 N10
A   24
 C30
A   25
 C9 
A   26
 C26
A   27
 C31
A   28
 C32
A   29
 N8 
A   30
 O29
A   31
 C7 
A   32
 C27
A   33
 C28
A   34
 C29
M  END
>  <XChem_code>  (114) 
I70§1

>  <Occupancy>  (114) 
[1.0, 1.0, 1.0, 1.0, 1.0, 1.0, 1.0, 1.0, 1.0, 1.0, 1.0, 1.0, 1.0, 1.0, 1.0, 1.0, 1.0, 1.0, 1.0, 1.0, 1.0, 1.0, 1.0, 1.0, 1.0, 1.0, 1.0, 1.0, 1.0, 1.0, 1.0, 1.0, 1.0, 1.0, 1.0, 1.0, 1.0, 1.0, 1.0, 1.0]

>  <TempFactor>  (114) 
[63.58, 69.08, 56.96, 91.85, 58.99, 85.97, 82.0, 52.36, 73.05, 70.66, 67.47, 64.86, 62.73, 58.1, 56.76, 63.59, 54.89, 58.5, 61.5, 60.05, 60.39, 63.68, 62.48, 49.52, 61.26, 62.28, 64.93, 65.54, 55.79, 95.6, 91.48, 91.79, 68.22, 64.56, 72.88, 62.05, 61.78, 61.48, 53.44, 57.91]

>  <accession>  (114) 
7QUW_AAA

>  <description>  (114) 
Chain AAA, Protease 3C [Coxsackievirus B3]

>  <evalue>  (114) 
7.4010300000000003e-88

>  <pdb_code>  (114) 
7QUW

>  <chain>  (114) 
AAA

>  <ligands>  (114) 
[{'chain_id': 'AAA', 'author_residue_number': 201, 'author_insertion_code': '', 'chem_comp_id': 'I70', 'alternate_conformers': 0, 'entity_id': 2, 'struct_asym_id': 'B', 'residue_number': 1, 'chem_comp_name': '(1R,2S,5S)-N-{(2S,3R)-4-amino-3-hydroxy-4-oxo-1-[(3S)-2-oxopyrrolidin-3-yl]butan-2-yl}-3-[N-(tert-butylcarbamoyl)-3-methyl-L-valyl]-6,6-dimethyl-3-azabicyclo[3.1.0]hexane-2-carboxamide', 'weight': 550.691, 'carbohydrate_polymer': False, 'branch_name': ''}]

>  <ligand_codes>  (114) 
['I70']

>  <cofactor_codes>  (114) 
[]

>  <has_cofactor>  (114) 
False

>  <covalent>  (114) 
True

>  <base_name>  (114) 
7QUW

>  <lig_resn>  (114) 
I70

>  <lig_resi>  (114) 
201

>  <lig_chain>  (114) 
AAA

>  <lig_segi>  (114) 
B

>  <lig_alt>  (114) 


>  <polymer_chain>  (114) 
A

>  <single_smiles>  (114) 
CC(C)(C)NC(=O)N[C@H](C(=O)N1C[C@H]2[C@@H]([C@H]1C(=O)N[C@@H](C[C@@H]3CCNC3=O)[C@@H](O)C(N)=O)C2(C)C)C(C)(C)C

$$$$
I70P1S24
     RDKit          3D

 19 20  0  0  0  0  0  0  0  0999 V2000
   -9.6500   12.9180  -35.7630 C   0  0  0  0  0  0  0  0  0  0  0  0
   -9.2900   14.2880  -35.3720 N   0  0  0  0  0  0  0  0  0  0  0  0
  -10.0130   13.0150  -37.2410 C   0  0  2  0  0  0  0  0  0  0  0  0
   -9.0070   14.6310  -34.0940 C   0  0  0  0  0  0  0  0  0  0  0  0
   -9.2580   15.2350  -36.5040 C   0  0  0  0  0  0  0  0  0  0  0  0
   -9.7390   14.4350  -37.6990 C   0  0  2  0  0  0  0  0  0  0  0  0
  -11.1540   13.9060  -37.6990 C   0  0  0  0  0  0  0  0  0  0  0  0
   -8.3630   16.0030  -33.8690 C   0  0  1  0  0  0  0  0  0  0  0  0
   -9.2830   13.8960  -33.1310 O   0  0  0  0  0  0  0  0  0  0  0  0
  -12.1980   14.3060  -36.6810 C   0  0  0  0  0  0  0  0  0  0  0  0
  -11.7390   13.8010  -39.0890 C   0  0  0  0  0  0  0  0  0  0  0  0
   -8.9660   16.6250  -32.7020 N   0  0  0  0  0  0  0  0  0  0  0  0
   -6.8280   15.9940  -33.7560 C   0  0  0  0  0  0  0  0  0  0  0  0
   -9.5750   17.8270  -32.7770 C   0  0  0  0  0  0  0  0  0  0  0  0
   -6.1840   15.2770  -34.9440 C   0  0  0  0  0  0  0  0  0  0  0  0
   -6.3140   17.4370  -33.7470 C   0  0  0  0  0  0  0  0  0  0  0  0
   -6.3720   15.3070  -32.4630 C   0  0  0  0  0  0  0  0  0  0  0  0
   -9.3150   18.6410  -31.7230 N   0  0  0  0  0  0  0  0  0  0  0  0
  -10.2600   18.1440  -33.7750 O   0  0  0  0  0  0  0  0  0  0  0  0
  1  2  1  6
  3  1  1  0
  4  2  1  0
  5  2  1  0
  6  3  1  0
  3  7  1  1
  8  4  1  0
  4  9  1  0
  6  5  1  1
  6  7  1  0
  7 10  1  0
  7 11  1  0
  8 12  1  1
  8 13  1  0
 14 12  1  0
 13 15  1  0
 13 16  1  0
 13 17  1  0
 18 14  1  0
 14 19  1  0
A    2
 N13
A    3
 C34
A    4
 C12
A    5
 C13
A    6
 C16
A    7
 C18
A    8
 C11
A    9
 O33
A   10
 C23
A   11
 C25
A   12
 N10
A   13
 C30
A   14
 C9 
A   15
 C26
A   16
 C31
A   17
 C32
A   19
 O29
M  END
>  <XChem_code>  (115) 
I70§1

>  <Occupancy>  (115) 
[1.0, 1.0, 1.0, 1.0, 1.0, 1.0, 1.0, 1.0, 1.0, 1.0, 1.0, 1.0, 1.0, 1.0, 1.0, 1.0, 1.0, 1.0, 1.0, 1.0, 1.0, 1.0, 1.0, 1.0, 1.0, 1.0, 1.0, 1.0, 1.0, 1.0, 1.0, 1.0, 1.0, 1.0, 1.0, 1.0, 1.0, 1.0, 1.0, 1.0]

>  <TempFactor>  (115) 
[63.58, 69.08, 56.96, 91.85, 58.99, 85.97, 82.0, 52.36, 73.05, 70.66, 67.47, 64.86, 62.73, 58.1, 56.76, 63.59, 54.89, 58.5, 61.5, 60.05, 60.39, 63.68, 62.48, 49.52, 61.26, 62.28, 64.93, 65.54, 55.79, 95.6, 91.48, 91.79, 68.22, 64.56, 72.88, 62.05, 61.78, 61.48, 53.44, 57.91]

>  <accession>  (115) 
7QUW_AAA

>  <description>  (115) 
Chain AAA, Protease 3C [Coxsackievirus B3]

>  <evalue>  (115) 
7.4010300000000003e-88

>  <pdb_code>  (115) 
7QUW

>  <chain>  (115) 
AAA

>  <ligands>  (115) 
[{'chain_id': 'AAA', 'author_residue_number': 201, 'author_insertion_code': '', 'chem_comp_id': 'I70', 'alternate_conformers': 0, 'entity_id': 2, 'struct_asym_id': 'B', 'residue_number': 1, 'chem_comp_name': '(1R,2S,5S)-N-{(2S,3R)-4-amino-3-hydroxy-4-oxo-1-[(3S)-2-oxopyrrolidin-3-yl]butan-2-yl}-3-[N-(tert-butylcarbamoyl)-3-methyl-L-valyl]-6,6-dimethyl-3-azabicyclo[3.1.0]hexane-2-carboxamide', 'weight': 550.691, 'carbohydrate_polymer': False, 'branch_name': ''}]

>  <ligand_codes>  (115) 
['I70']

>  <cofactor_codes>  (115) 
[]

>  <has_cofactor>  (115) 
False

>  <covalent>  (115) 
True

>  <base_name>  (115) 
7QUW

>  <lig_resn>  (115) 
I70

>  <lig_resi>  (115) 
201

>  <lig_chain>  (115) 
AAA

>  <lig_segi>  (115) 
B

>  <lig_alt>  (115) 


>  <polymer_chain>  (115) 
A

>  <single_smiles>  (115) 
CC(C)(C)NC(=O)N[C@H](C(=O)N1C[C@H]2[C@@H]([C@H]1C(=O)N[C@@H](C[C@@H]3CCNC3=O)[C@@H](O)C(N)=O)C2(C)C)C(C)(C)C

$$$$
I70P1S25
     RDKit          3D

 30 31  0  0  0  0  0  0  0  0999 V2000
   -7.5160    9.8180  -33.0360 C   0  0  0  0  0  0  0  0  0  0  0  0
   -7.6460    9.8980  -34.5540 C   0  0  2  0  0  0  0  0  0  0  0  0
   -8.6950   10.8790  -34.8670 N   0  0  0  0  0  0  0  0  0  0  0  0
   -7.9070    8.5330  -35.2310 C   0  0  2  0  0  0  0  0  0  0  0  0
   -8.4570   11.9880  -35.5730 C   0  0  0  0  0  0  0  0  0  0  0  0
   -6.7100    7.5940  -35.0980 C   0  0  0  0  0  0  0  0  0  0  0  0
   -8.2130    8.7260  -36.6160 O   0  0  0  0  0  0  0  0  0  0  0  0
   -9.3180    7.9910  -34.2220 R   0  0  0  0  0  0  0  0  0  0  0  0
   -9.6500   12.9180  -35.7630 C   0  0  1  0  0  0  0  0  0  0  0  0
   -7.3460   12.2960  -36.0060 O   0  0  0  0  0  0  0  0  0  0  0  0
   -5.7690    7.4620  -36.2130 N   0  0  0  0  0  0  0  0  0  0  0  0
   -6.5030    6.9520  -34.0860 O   0  0  0  0  0  0  0  0  0  0  0  0
   -9.2900   14.2880  -35.3720 N   0  0  0  0  0  0  0  0  0  0  0  0
  -10.0130   13.0150  -37.2410 C   0  0  2  0  0  0  0  0  0  0  0  0
   -9.0070   14.6310  -34.0940 C   0  0  0  0  0  0  0  0  0  0  0  0
   -9.2580   15.2350  -36.5040 C   0  0  0  0  0  0  0  0  0  0  0  0
   -9.7390   14.4350  -37.6990 C   0  0  2  0  0  0  0  0  0  0  0  0
  -11.1540   13.9060  -37.6990 C   0  0  0  0  0  0  0  0  0  0  0  0
   -8.3630   16.0030  -33.8690 C   0  0  1  0  0  0  0  0  0  0  0  0
   -9.2830   13.8960  -33.1310 O   0  0  0  0  0  0  0  0  0  0  0  0
  -12.1980   14.3060  -36.6810 C   0  0  0  0  0  0  0  0  0  0  0  0
  -11.7390   13.8010  -39.0890 C   0  0  0  0  0  0  0  0  0  0  0  0
   -8.9660   16.6250  -32.7020 N   0  0  0  0  0  0  0  0  0  0  0  0
   -6.8280   15.9940  -33.7560 C   0  0  0  0  0  0  0  0  0  0  0  0
   -9.5750   17.8270  -32.7770 C   0  0  0  0  0  0  0  0  0  0  0  0
   -6.1840   15.2770  -34.9440 C   0  0  0  0  0  0  0  0  0  0  0  0
   -6.3140   17.4370  -33.7470 C   0  0  0  0  0  0  0  0  0  0  0  0
   -6.3720   15.3070  -32.4630 C   0  0  0  0  0  0  0  0  0  0  0  0
   -9.3150   18.6410  -31.7230 N   0  0  0  0  0  0  0  0  0  0  0  0
  -10.2600   18.1440  -33.7750 O   0  0  0  0  0  0  0  0  0  0  0  0
  2  1  1  1
  3  2  1  0
  4  2  1  0
  5  3  1  0
  6  4  1  0
  4  7  1  0
  4  8  1  1
  9  5  1  6
  5 10  1  0
  6 11  1  0
  6 12  1  0
 13  9  1  0
 14  9  1  0
 15 13  1  0
 16 13  1  0
 17 14  1  0
 14 18  1  1
 19 15  1  0
 15 20  1  0
 17 16  1  1
 17 18  1  0
 18 21  1  0
 18 22  1  0
 19 23  1  1
 19 24  1  0
 25 23  1  0
 24 26  1  0
 24 27  1  0
 24 28  1  0
 29 25  1  0
 25 30  1  0
V    8 *
A    2
 C17
A    3
 N16
A    4
 C8 
A    5
 C15
A    6
 C1 
A    7
 O9 
A    8
 X  
A    9
 C14
A   10
 O38
A   11
 N2 
A   12
 O5 
A   13
 N13
A   14
 C34
A   15
 C12
A   16
 C13
A   17
 C16
A   18
 C18
A   19
 C11
A   20
 O33
A   21
 C23
A   22
 C25
A   23
 N10
A   24
 C30
A   25
 C9 
A   26
 C26
A   27
 C31
A   28
 C32
A   30
 O29
M  END
>  <XChem_code>  (116) 
I70§1

>  <Occupancy>  (116) 
[1.0, 1.0, 1.0, 1.0, 1.0, 1.0, 1.0, 1.0, 1.0, 1.0, 1.0, 1.0, 1.0, 1.0, 1.0, 1.0, 1.0, 1.0, 1.0, 1.0, 1.0, 1.0, 1.0, 1.0, 1.0, 1.0, 1.0, 1.0, 1.0, 1.0, 1.0, 1.0, 1.0, 1.0, 1.0, 1.0, 1.0, 1.0, 1.0, 1.0]

>  <TempFactor>  (116) 
[63.58, 69.08, 56.96, 91.85, 58.99, 85.97, 82.0, 52.36, 73.05, 70.66, 67.47, 64.86, 62.73, 58.1, 56.76, 63.59, 54.89, 58.5, 61.5, 60.05, 60.39, 63.68, 62.48, 49.52, 61.26, 62.28, 64.93, 65.54, 55.79, 95.6, 91.48, 91.79, 68.22, 64.56, 72.88, 62.05, 61.78, 61.48, 53.44, 57.91]

>  <accession>  (116) 
7QUW_AAA

>  <description>  (116) 
Chain AAA, Protease 3C [Coxsackievirus B3]

>  <evalue>  (116) 
7.4010300000000003e-88

>  <pdb_code>  (116) 
7QUW

>  <chain>  (116) 
AAA

>  <ligands>  (116) 
[{'chain_id': 'AAA', 'author_residue_number': 201, 'author_insertion_code': '', 'chem_comp_id': 'I70', 'alternate_conformers': 0, 'entity_id': 2, 'struct_asym_id': 'B', 'residue_number': 1, 'chem_comp_name': '(1R,2S,5S)-N-{(2S,3R)-4-amino-3-hydroxy-4-oxo-1-[(3S)-2-oxopyrrolidin-3-yl]butan-2-yl}-3-[N-(tert-butylcarbamoyl)-3-methyl-L-valyl]-6,6-dimethyl-3-azabicyclo[3.1.0]hexane-2-carboxamide', 'weight': 550.691, 'carbohydrate_polymer': False, 'branch_name': ''}]

>  <ligand_codes>  (116) 
['I70']

>  <cofactor_codes>  (116) 
[]

>  <has_cofactor>  (116) 
False

>  <covalent>  (116) 
True

>  <base_name>  (116) 
7QUW

>  <lig_resn>  (116) 
I70

>  <lig_resi>  (116) 
201

>  <lig_chain>  (116) 
AAA

>  <lig_segi>  (116) 
B

>  <lig_alt>  (116) 


>  <polymer_chain>  (116) 
A

>  <single_smiles>  (116) 
CC(C)(C)NC(=O)N[C@H](C(=O)N1C[C@H]2[C@@H]([C@H]1C(=O)N[C@@H](C[C@@H]3CCNC3=O)[C@@H](O)C(N)=O)C2(C)C)C(C)(C)C

$$$$
I70P1S26
     RDKit          3D

 15 16  0  0  0  0  0  0  0  0999 V2000
   -9.6500   12.9180  -35.7630 C   0  0  0  0  0  0  0  0  0  0  0  0
   -9.2900   14.2880  -35.3720 N   0  0  0  0  0  0  0  0  0  0  0  0
  -10.0130   13.0150  -37.2410 C   0  0  2  0  0  0  0  0  0  0  0  0
   -9.0070   14.6310  -34.0940 C   0  0  0  0  0  0  0  0  0  0  0  0
   -9.2580   15.2350  -36.5040 C   0  0  0  0  0  0  0  0  0  0  0  0
   -9.7390   14.4350  -37.6990 C   0  0  2  0  0  0  0  0  0  0  0  0
  -11.1540   13.9060  -37.6990 C   0  0  0  0  0  0  0  0  0  0  0  0
   -8.3630   16.0030  -33.8690 C   0  0  0  0  0  0  0  0  0  0  0  0
   -9.2830   13.8960  -33.1310 O   0  0  0  0  0  0  0  0  0  0  0  0
  -12.1980   14.3060  -36.6810 C   0  0  0  0  0  0  0  0  0  0  0  0
  -11.7390   13.8010  -39.0890 C   0  0  0  0  0  0  0  0  0  0  0  0
   -6.8280   15.9940  -33.7560 C   0  0  0  0  0  0  0  0  0  0  0  0
   -6.1840   15.2770  -34.9440 C   0  0  0  0  0  0  0  0  0  0  0  0
   -6.3140   17.4370  -33.7470 C   0  0  0  0  0  0  0  0  0  0  0  0
   -6.3720   15.3070  -32.4630 C   0  0  0  0  0  0  0  0  0  0  0  0
  1  2  1  6
  3  1  1  0
  4  2  1  0
  5  2  1  0
  6  3  1  0
  3  7  1  1
  8  4  1  1
  4  9  1  0
  6  5  1  1
  6  7  1  0
  7 10  1  0
  7 11  1  0
  8 12  1  0
 12 13  1  0
 12 14  1  0
 12 15  1  0
A    2
 N13
A    3
 C34
A    4
 C12
A    5
 C13
A    6
 C16
A    7
 C18
A    9
 O33
A   10
 C23
A   11
 C25
A   12
 C30
A   13
 C26
A   14
 C31
A   15
 C32
M  END
>  <XChem_code>  (117) 
I70§1

>  <Occupancy>  (117) 
[1.0, 1.0, 1.0, 1.0, 1.0, 1.0, 1.0, 1.0, 1.0, 1.0, 1.0, 1.0, 1.0, 1.0, 1.0, 1.0, 1.0, 1.0, 1.0, 1.0, 1.0, 1.0, 1.0, 1.0, 1.0, 1.0, 1.0, 1.0, 1.0, 1.0, 1.0, 1.0, 1.0, 1.0, 1.0, 1.0, 1.0, 1.0, 1.0, 1.0]

>  <TempFactor>  (117) 
[63.58, 69.08, 56.96, 91.85, 58.99, 85.97, 82.0, 52.36, 73.05, 70.66, 67.47, 64.86, 62.73, 58.1, 56.76, 63.59, 54.89, 58.5, 61.5, 60.05, 60.39, 63.68, 62.48, 49.52, 61.26, 62.28, 64.93, 65.54, 55.79, 95.6, 91.48, 91.79, 68.22, 64.56, 72.88, 62.05, 61.78, 61.48, 53.44, 57.91]

>  <accession>  (117) 
7QUW_AAA

>  <description>  (117) 
Chain AAA, Protease 3C [Coxsackievirus B3]

>  <evalue>  (117) 
7.4010300000000003e-88

>  <pdb_code>  (117) 
7QUW

>  <chain>  (117) 
AAA

>  <ligands>  (117) 
[{'chain_id': 'AAA', 'author_residue_number': 201, 'author_insertion_code': '', 'chem_comp_id': 'I70', 'alternate_conformers': 0, 'entity_id': 2, 'struct_asym_id': 'B', 'residue_number': 1, 'chem_comp_name': '(1R,2S,5S)-N-{(2S,3R)-4-amino-3-hydroxy-4-oxo-1-[(3S)-2-oxopyrrolidin-3-yl]butan-2-yl}-3-[N-(tert-butylcarbamoyl)-3-methyl-L-valyl]-6,6-dimethyl-3-azabicyclo[3.1.0]hexane-2-carboxamide', 'weight': 550.691, 'carbohydrate_polymer': False, 'branch_name': ''}]

>  <ligand_codes>  (117) 
['I70']

>  <cofactor_codes>  (117) 
[]

>  <has_cofactor>  (117) 
False

>  <covalent>  (117) 
True

>  <base_name>  (117) 
7QUW

>  <lig_resn>  (117) 
I70

>  <lig_resi>  (117) 
201

>  <lig_chain>  (117) 
AAA

>  <lig_segi>  (117) 
B

>  <lig_alt>  (117) 


>  <polymer_chain>  (117) 
A

>  <single_smiles>  (117) 
CC(C)(C)NC(=O)N[C@H](C(=O)N1C[C@H]2[C@@H]([C@H]1C(=O)N[C@@H](C[C@@H]3CCNC3=O)[C@@H](O)C(N)=O)C2(C)C)C(C)(C)C

$$$$
I70P1S27
     RDKit          3D

 26 27  0  0  0  0  0  0  0  0999 V2000
   -7.5160    9.8180  -33.0360 C   0  0  0  0  0  0  0  0  0  0  0  0
   -7.6460    9.8980  -34.5540 C   0  0  2  0  0  0  0  0  0  0  0  0
   -8.6950   10.8790  -34.8670 N   0  0  0  0  0  0  0  0  0  0  0  0
   -7.9070    8.5330  -35.2310 C   0  0  2  0  0  0  0  0  0  0  0  0
   -8.4570   11.9880  -35.5730 C   0  0  0  0  0  0  0  0  0  0  0  0
   -6.7100    7.5940  -35.0980 C   0  0  0  0  0  0  0  0  0  0  0  0
   -8.2130    8.7260  -36.6160 O   0  0  0  0  0  0  0  0  0  0  0  0
   -9.3180    7.9910  -34.2220 R   0  0  0  0  0  0  0  0  0  0  0  0
   -9.6500   12.9180  -35.7630 C   0  0  1  0  0  0  0  0  0  0  0  0
   -7.3460   12.2960  -36.0060 O   0  0  0  0  0  0  0  0  0  0  0  0
   -5.7690    7.4620  -36.2130 N   0  0  0  0  0  0  0  0  0  0  0  0
   -6.5030    6.9520  -34.0860 O   0  0  0  0  0  0  0  0  0  0  0  0
   -9.2900   14.2880  -35.3720 N   0  0  0  0  0  0  0  0  0  0  0  0
  -10.0130   13.0150  -37.2410 C   0  0  2  0  0  0  0  0  0  0  0  0
   -9.0070   14.6310  -34.0940 C   0  0  0  0  0  0  0  0  0  0  0  0
   -9.2580   15.2350  -36.5040 C   0  0  0  0  0  0  0  0  0  0  0  0
   -9.7390   14.4350  -37.6990 C   0  0  2  0  0  0  0  0  0  0  0  0
  -11.1540   13.9060  -37.6990 C   0  0  0  0  0  0  0  0  0  0  0  0
   -8.3630   16.0030  -33.8690 C   0  0  0  0  0  0  0  0  0  0  0  0
   -9.2830   13.8960  -33.1310 O   0  0  0  0  0  0  0  0  0  0  0  0
  -12.1980   14.3060  -36.6810 C   0  0  0  0  0  0  0  0  0  0  0  0
  -11.7390   13.8010  -39.0890 C   0  0  0  0  0  0  0  0  0  0  0  0
   -6.8280   15.9940  -33.7560 C   0  0  0  0  0  0  0  0  0  0  0  0
   -6.1840   15.2770  -34.9440 C   0  0  0  0  0  0  0  0  0  0  0  0
   -6.3140   17.4370  -33.7470 C   0  0  0  0  0  0  0  0  0  0  0  0
   -6.3720   15.3070  -32.4630 C   0  0  0  0  0  0  0  0  0  0  0  0
  2  1  1  1
  3  2  1  0
  4  2  1  0
  5  3  1  0
  6  4  1  0
  4  7  1  0
  4  8  1  1
  9  5  1  6
  5 10  1  0
  6 11  1  0
  6 12  1  0
 13  9  1  0
 14  9  1  0
 15 13  1  0
 16 13  1  0
 17 14  1  0
 14 18  1  1
 19 15  1  1
 15 20  1  0
 17 16  1  1
 17 18  1  0
 18 21  1  0
 18 22  1  0
 19 23  1  0
 23 24  1  0
 23 25  1  0
 23 26  1  0
V    8 *
A    2
 C17
A    3
 N16
A    4
 C8 
A    5
 C15
A    6
 C1 
A    7
 O9 
A    8
 X  
A    9
 C14
A   10
 O38
A   11
 N2 
A   12
 O5 
A   13
 N13
A   14
 C34
A   15
 C12
A   16
 C13
A   17
 C16
A   18
 C18
A   20
 O33
A   21
 C23
A   22
 C25
A   23
 C30
A   24
 C26
A   25
 C31
A   26
 C32
M  END
>  <XChem_code>  (118) 
I70§1

>  <Occupancy>  (118) 
[1.0, 1.0, 1.0, 1.0, 1.0, 1.0, 1.0, 1.0, 1.0, 1.0, 1.0, 1.0, 1.0, 1.0, 1.0, 1.0, 1.0, 1.0, 1.0, 1.0, 1.0, 1.0, 1.0, 1.0, 1.0, 1.0, 1.0, 1.0, 1.0, 1.0, 1.0, 1.0, 1.0, 1.0, 1.0, 1.0, 1.0, 1.0, 1.0, 1.0]

>  <TempFactor>  (118) 
[63.58, 69.08, 56.96, 91.85, 58.99, 85.97, 82.0, 52.36, 73.05, 70.66, 67.47, 64.86, 62.73, 58.1, 56.76, 63.59, 54.89, 58.5, 61.5, 60.05, 60.39, 63.68, 62.48, 49.52, 61.26, 62.28, 64.93, 65.54, 55.79, 95.6, 91.48, 91.79, 68.22, 64.56, 72.88, 62.05, 61.78, 61.48, 53.44, 57.91]

>  <accession>  (118) 
7QUW_AAA

>  <description>  (118) 
Chain AAA, Protease 3C [Coxsackievirus B3]

>  <evalue>  (118) 
7.4010300000000003e-88

>  <pdb_code>  (118) 
7QUW

>  <chain>  (118) 
AAA

>  <ligands>  (118) 
[{'chain_id': 'AAA', 'author_residue_number': 201, 'author_insertion_code': '', 'chem_comp_id': 'I70', 'alternate_conformers': 0, 'entity_id': 2, 'struct_asym_id': 'B', 'residue_number': 1, 'chem_comp_name': '(1R,2S,5S)-N-{(2S,3R)-4-amino-3-hydroxy-4-oxo-1-[(3S)-2-oxopyrrolidin-3-yl]butan-2-yl}-3-[N-(tert-butylcarbamoyl)-3-methyl-L-valyl]-6,6-dimethyl-3-azabicyclo[3.1.0]hexane-2-carboxamide', 'weight': 550.691, 'carbohydrate_polymer': False, 'branch_name': ''}]

>  <ligand_codes>  (118) 
['I70']

>  <cofactor_codes>  (118) 
[]

>  <has_cofactor>  (118) 
False

>  <covalent>  (118) 
True

>  <base_name>  (118) 
7QUW

>  <lig_resn>  (118) 
I70

>  <lig_resi>  (118) 
201

>  <lig_chain>  (118) 
AAA

>  <lig_segi>  (118) 
B

>  <lig_alt>  (118) 


>  <polymer_chain>  (118) 
A

>  <single_smiles>  (118) 
CC(C)(C)NC(=O)N[C@H](C(=O)N1C[C@H]2[C@@H]([C@H]1C(=O)N[C@@H](C[C@@H]3CCNC3=O)[C@@H](O)C(N)=O)C2(C)C)C(C)(C)C

$$$$
I70P1S28
     RDKit          3D

  8  9  0  0  0  0  0  0  0  0999 V2000
   -9.6500   12.9180  -35.7630 C   0  0  0  0  0  0  0  0  0  0  0  0
   -9.2900   14.2880  -35.3720 N   0  0  0  0  0  0  0  0  0  0  0  0
  -10.0130   13.0150  -37.2410 C   0  0  2  0  0  0  0  0  0  0  0  0
   -9.2580   15.2350  -36.5040 C   0  0  0  0  0  0  0  0  0  0  0  0
   -9.7390   14.4350  -37.6990 C   0  0  2  0  0  0  0  0  0  0  0  0
  -11.1540   13.9060  -37.6990 C   0  0  0  0  0  0  0  0  0  0  0  0
  -12.1980   14.3060  -36.6810 C   0  0  0  0  0  0  0  0  0  0  0  0
  -11.7390   13.8010  -39.0890 C   0  0  0  0  0  0  0  0  0  0  0  0
  1  2  1  6
  3  1  1  0
  4  2  1  0
  5  3  1  0
  3  6  1  1
  5  4  1  1
  5  6  1  0
  6  7  1  0
  6  8  1  0
A    3
 C34
A    4
 C13
A    5
 C16
A    6
 C18
A    7
 C23
A    8
 C25
M  END
>  <XChem_code>  (119) 
I70§1

>  <Occupancy>  (119) 
[1.0, 1.0, 1.0, 1.0, 1.0, 1.0, 1.0, 1.0, 1.0, 1.0, 1.0, 1.0, 1.0, 1.0, 1.0, 1.0, 1.0, 1.0, 1.0, 1.0, 1.0, 1.0, 1.0, 1.0, 1.0, 1.0, 1.0, 1.0, 1.0, 1.0, 1.0, 1.0, 1.0, 1.0, 1.0, 1.0, 1.0, 1.0, 1.0, 1.0]

>  <TempFactor>  (119) 
[63.58, 69.08, 56.96, 91.85, 58.99, 85.97, 82.0, 52.36, 73.05, 70.66, 67.47, 64.86, 62.73, 58.1, 56.76, 63.59, 54.89, 58.5, 61.5, 60.05, 60.39, 63.68, 62.48, 49.52, 61.26, 62.28, 64.93, 65.54, 55.79, 95.6, 91.48, 91.79, 68.22, 64.56, 72.88, 62.05, 61.78, 61.48, 53.44, 57.91]

>  <accession>  (119) 
7QUW_AAA

>  <description>  (119) 
Chain AAA, Protease 3C [Coxsackievirus B3]

>  <evalue>  (119) 
7.4010300000000003e-88

>  <pdb_code>  (119) 
7QUW

>  <chain>  (119) 
AAA

>  <ligands>  (119) 
[{'chain_id': 'AAA', 'author_residue_number': 201, 'author_insertion_code': '', 'chem_comp_id': 'I70', 'alternate_conformers': 0, 'entity_id': 2, 'struct_asym_id': 'B', 'residue_number': 1, 'chem_comp_name': '(1R,2S,5S)-N-{(2S,3R)-4-amino-3-hydroxy-4-oxo-1-[(3S)-2-oxopyrrolidin-3-yl]butan-2-yl}-3-[N-(tert-butylcarbamoyl)-3-methyl-L-valyl]-6,6-dimethyl-3-azabicyclo[3.1.0]hexane-2-carboxamide', 'weight': 550.691, 'carbohydrate_polymer': False, 'branch_name': ''}]

>  <ligand_codes>  (119) 
['I70']

>  <cofactor_codes>  (119) 
[]

>  <has_cofactor>  (119) 
False

>  <covalent>  (119) 
True

>  <base_name>  (119) 
7QUW

>  <lig_resn>  (119) 
I70

>  <lig_resi>  (119) 
201

>  <lig_chain>  (119) 
AAA

>  <lig_segi>  (119) 
B

>  <lig_alt>  (119) 


>  <polymer_chain>  (119) 
A

>  <single_smiles>  (119) 
CC(C)(C)NC(=O)N[C@H](C(=O)N1C[C@H]2[C@@H]([C@H]1C(=O)N[C@@H](C[C@@H]3CCNC3=O)[C@@H](O)C(N)=O)C2(C)C)C(C)(C)C

$$$$
I70P1S29
     RDKit          3D

 19 20  0  0  0  0  0  0  0  0999 V2000
   -7.5160    9.8180  -33.0360 C   0  0  0  0  0  0  0  0  0  0  0  0
   -7.6460    9.8980  -34.5540 C   0  0  2  0  0  0  0  0  0  0  0  0
   -8.6950   10.8790  -34.8670 N   0  0  0  0  0  0  0  0  0  0  0  0
   -7.9070    8.5330  -35.2310 C   0  0  2  0  0  0  0  0  0  0  0  0
   -8.4570   11.9880  -35.5730 C   0  0  0  0  0  0  0  0  0  0  0  0
   -6.7100    7.5940  -35.0980 C   0  0  0  0  0  0  0  0  0  0  0  0
   -8.2130    8.7260  -36.6160 O   0  0  0  0  0  0  0  0  0  0  0  0
   -9.3180    7.9910  -34.2220 R   0  0  0  0  0  0  0  0  0  0  0  0
   -9.6500   12.9180  -35.7630 C   0  0  1  0  0  0  0  0  0  0  0  0
   -7.3460   12.2960  -36.0060 O   0  0  0  0  0  0  0  0  0  0  0  0
   -5.7690    7.4620  -36.2130 N   0  0  0  0  0  0  0  0  0  0  0  0
   -6.5030    6.9520  -34.0860 O   0  0  0  0  0  0  0  0  0  0  0  0
   -9.2900   14.2880  -35.3720 N   0  0  0  0  0  0  0  0  0  0  0  0
  -10.0130   13.0150  -37.2410 C   0  0  2  0  0  0  0  0  0  0  0  0
   -9.2580   15.2350  -36.5040 C   0  0  0  0  0  0  0  0  0  0  0  0
   -9.7390   14.4350  -37.6990 C   0  0  2  0  0  0  0  0  0  0  0  0
  -11.1540   13.9060  -37.6990 C   0  0  0  0  0  0  0  0  0  0  0  0
  -12.1980   14.3060  -36.6810 C   0  0  0  0  0  0  0  0  0  0  0  0
  -11.7390   13.8010  -39.0890 C   0  0  0  0  0  0  0  0  0  0  0  0
  2  1  1  1
  3  2  1  0
  4  2  1  0
  5  3  1  0
  6  4  1  0
  4  7  1  0
  4  8  1  1
  9  5  1  6
  5 10  1  0
  6 11  1  0
  6 12  1  0
 13  9  1  0
 14  9  1  0
 15 13  1  0
 16 14  1  0
 14 17  1  1
 16 15  1  1
 16 17  1  0
 17 18  1  0
 17 19  1  0
V    8 *
A    2
 C17
A    3
 N16
A    4
 C8 
A    5
 C15
A    6
 C1 
A    7
 O9 
A    8
 X  
A    9
 C14
A   10
 O38
A   11
 N2 
A   12
 O5 
A   14
 C34
A   15
 C13
A   16
 C16
A   17
 C18
A   18
 C23
A   19
 C25
M  END
>  <XChem_code>  (120) 
I70§1

>  <Occupancy>  (120) 
[1.0, 1.0, 1.0, 1.0, 1.0, 1.0, 1.0, 1.0, 1.0, 1.0, 1.0, 1.0, 1.0, 1.0, 1.0, 1.0, 1.0, 1.0, 1.0, 1.0, 1.0, 1.0, 1.0, 1.0, 1.0, 1.0, 1.0, 1.0, 1.0, 1.0, 1.0, 1.0, 1.0, 1.0, 1.0, 1.0, 1.0, 1.0, 1.0, 1.0]

>  <TempFactor>  (120) 
[63.58, 69.08, 56.96, 91.85, 58.99, 85.97, 82.0, 52.36, 73.05, 70.66, 67.47, 64.86, 62.73, 58.1, 56.76, 63.59, 54.89, 58.5, 61.5, 60.05, 60.39, 63.68, 62.48, 49.52, 61.26, 62.28, 64.93, 65.54, 55.79, 95.6, 91.48, 91.79, 68.22, 64.56, 72.88, 62.05, 61.78, 61.48, 53.44, 57.91]

>  <accession>  (120) 
7QUW_AAA

>  <description>  (120) 
Chain AAA, Protease 3C [Coxsackievirus B3]

>  <evalue>  (120) 
7.4010300000000003e-88

>  <pdb_code>  (120) 
7QUW

>  <chain>  (120) 
AAA

>  <ligands>  (120) 
[{'chain_id': 'AAA', 'author_residue_number': 201, 'author_insertion_code': '', 'chem_comp_id': 'I70', 'alternate_conformers': 0, 'entity_id': 2, 'struct_asym_id': 'B', 'residue_number': 1, 'chem_comp_name': '(1R,2S,5S)-N-{(2S,3R)-4-amino-3-hydroxy-4-oxo-1-[(3S)-2-oxopyrrolidin-3-yl]butan-2-yl}-3-[N-(tert-butylcarbamoyl)-3-methyl-L-valyl]-6,6-dimethyl-3-azabicyclo[3.1.0]hexane-2-carboxamide', 'weight': 550.691, 'carbohydrate_polymer': False, 'branch_name': ''}]

>  <ligand_codes>  (120) 
['I70']

>  <cofactor_codes>  (120) 
[]

>  <has_cofactor>  (120) 
False

>  <covalent>  (120) 
True

>  <base_name>  (120) 
7QUW

>  <lig_resn>  (120) 
I70

>  <lig_resi>  (120) 
201

>  <lig_chain>  (120) 
AAA

>  <lig_segi>  (120) 
B

>  <lig_alt>  (120) 


>  <polymer_chain>  (120) 
A

>  <single_smiles>  (120) 
CC(C)(C)NC(=O)N[C@H](C(=O)N1C[C@H]2[C@@H]([C@H]1C(=O)N[C@@H](C[C@@H]3CCNC3=O)[C@@H](O)C(N)=O)C2(C)C)C(C)(C)C

$$$$
I70P1S30
     RDKit          3D

  9  8  0  0  0  0  0  0  0  0999 V2000
   -7.5160    9.8180  -33.0360 C   0  0  0  0  0  0  0  0  0  0  0  0
   -7.6460    9.8980  -34.5540 C   0  0  2  0  0  0  0  0  0  0  0  0
   -8.6950   10.8790  -34.8670 N   0  0  0  0  0  0  0  0  0  0  0  0
   -7.9070    8.5330  -35.2310 C   0  0  2  0  0  0  0  0  0  0  0  0
   -6.7100    7.5940  -35.0980 C   0  0  0  0  0  0  0  0  0  0  0  0
   -8.2130    8.7260  -36.6160 O   0  0  0  0  0  0  0  0  0  0  0  0
   -9.3180    7.9910  -34.2220 R   0  0  0  0  0  0  0  0  0  0  0  0
   -5.7690    7.4620  -36.2130 N   0  0  0  0  0  0  0  0  0  0  0  0
   -6.5030    6.9520  -34.0860 O   0  0  0  0  0  0  0  0  0  0  0  0
  2  1  1  1
  3  2  1  0
  4  2  1  0
  5  4  1  0
  4  6  1  0
  4  7  1  1
  5  8  1  0
  5  9  1  0
V    7 *
A    2
 C17
A    4
 C8 
A    5
 C1 
A    6
 O9 
A    7
 X  
A    8
 N2 
A    9
 O5 
M  END
>  <XChem_code>  (121) 
I70§1

>  <Occupancy>  (121) 
[1.0, 1.0, 1.0, 1.0, 1.0, 1.0, 1.0, 1.0, 1.0, 1.0, 1.0, 1.0, 1.0, 1.0, 1.0, 1.0, 1.0, 1.0, 1.0, 1.0, 1.0, 1.0, 1.0, 1.0, 1.0, 1.0, 1.0, 1.0, 1.0, 1.0, 1.0, 1.0, 1.0, 1.0, 1.0, 1.0, 1.0, 1.0, 1.0, 1.0]

>  <TempFactor>  (121) 
[63.58, 69.08, 56.96, 91.85, 58.99, 85.97, 82.0, 52.36, 73.05, 70.66, 67.47, 64.86, 62.73, 58.1, 56.76, 63.59, 54.89, 58.5, 61.5, 60.05, 60.39, 63.68, 62.48, 49.52, 61.26, 62.28, 64.93, 65.54, 55.79, 95.6, 91.48, 91.79, 68.22, 64.56, 72.88, 62.05, 61.78, 61.48, 53.44, 57.91]

>  <accession>  (121) 
7QUW_AAA

>  <description>  (121) 
Chain AAA, Protease 3C [Coxsackievirus B3]

>  <evalue>  (121) 
7.4010300000000003e-88

>  <pdb_code>  (121) 
7QUW

>  <chain>  (121) 
AAA

>  <ligands>  (121) 
[{'chain_id': 'AAA', 'author_residue_number': 201, 'author_insertion_code': '', 'chem_comp_id': 'I70', 'alternate_conformers': 0, 'entity_id': 2, 'struct_asym_id': 'B', 'residue_number': 1, 'chem_comp_name': '(1R,2S,5S)-N-{(2S,3R)-4-amino-3-hydroxy-4-oxo-1-[(3S)-2-oxopyrrolidin-3-yl]butan-2-yl}-3-[N-(tert-butylcarbamoyl)-3-methyl-L-valyl]-6,6-dimethyl-3-azabicyclo[3.1.0]hexane-2-carboxamide', 'weight': 550.691, 'carbohydrate_polymer': False, 'branch_name': ''}]

>  <ligand_codes>  (121) 
['I70']

>  <cofactor_codes>  (121) 
[]

>  <has_cofactor>  (121) 
False

>  <covalent>  (121) 
True

>  <base_name>  (121) 
7QUW

>  <lig_resn>  (121) 
I70

>  <lig_resi>  (121) 
201

>  <lig_chain>  (121) 
AAA

>  <lig_segi>  (121) 
B

>  <lig_alt>  (121) 


>  <polymer_chain>  (121) 
A

>  <single_smiles>  (121) 
CC(C)(C)NC(=O)N[C@H](C(=O)N1C[C@H]2[C@@H]([C@H]1C(=O)N[C@@H](C[C@@H]3CCNC3=O)[C@@H](O)C(N)=O)C2(C)C)C(C)(C)C

$$$$
I70P1S31
     RDKit          3D

  8  7  0  0  0  0  0  0  0  0999 V2000
   -7.5160    9.8180  -33.0360 C   0  0  0  0  0  0  0  0  0  0  0  0
   -7.6460    9.8980  -34.5540 C   0  0  0  0  0  0  0  0  0  0  0  0
   -7.9070    8.5330  -35.2310 C   0  0  2  0  0  0  0  0  0  0  0  0
   -6.7100    7.5940  -35.0980 C   0  0  0  0  0  0  0  0  0  0  0  0
   -8.2130    8.7260  -36.6160 O   0  0  0  0  0  0  0  0  0  0  0  0
   -9.3180    7.9910  -34.2220 R   0  0  0  0  0  0  0  0  0  0  0  0
   -5.7690    7.4620  -36.2130 N   0  0  0  0  0  0  0  0  0  0  0  0
   -6.5030    6.9520  -34.0860 O   0  0  0  0  0  0  0  0  0  0  0  0
  2  1  1  6
  3  2  1  0
  4  3  1  0
  3  5  1  0
  3  6  1  1
  4  7  1  0
  4  8  1  0
V    6 *
A    3
 C8 
A    4
 C1 
A    5
 O9 
A    6
 X  
A    7
 N2 
A    8
 O5 
M  END
>  <XChem_code>  (122) 
I70§1

>  <Occupancy>  (122) 
[1.0, 1.0, 1.0, 1.0, 1.0, 1.0, 1.0, 1.0, 1.0, 1.0, 1.0, 1.0, 1.0, 1.0, 1.0, 1.0, 1.0, 1.0, 1.0, 1.0, 1.0, 1.0, 1.0, 1.0, 1.0, 1.0, 1.0, 1.0, 1.0, 1.0, 1.0, 1.0, 1.0, 1.0, 1.0, 1.0, 1.0, 1.0, 1.0, 1.0]

>  <TempFactor>  (122) 
[63.58, 69.08, 56.96, 91.85, 58.99, 85.97, 82.0, 52.36, 73.05, 70.66, 67.47, 64.86, 62.73, 58.1, 56.76, 63.59, 54.89, 58.5, 61.5, 60.05, 60.39, 63.68, 62.48, 49.52, 61.26, 62.28, 64.93, 65.54, 55.79, 95.6, 91.48, 91.79, 68.22, 64.56, 72.88, 62.05, 61.78, 61.48, 53.44, 57.91]

>  <accession>  (122) 
7QUW_AAA

>  <description>  (122) 
Chain AAA, Protease 3C [Coxsackievirus B3]

>  <evalue>  (122) 
7.4010300000000003e-88

>  <pdb_code>  (122) 
7QUW

>  <chain>  (122) 
AAA

>  <ligands>  (122) 
[{'chain_id': 'AAA', 'author_residue_number': 201, 'author_insertion_code': '', 'chem_comp_id': 'I70', 'alternate_conformers': 0, 'entity_id': 2, 'struct_asym_id': 'B', 'residue_number': 1, 'chem_comp_name': '(1R,2S,5S)-N-{(2S,3R)-4-amino-3-hydroxy-4-oxo-1-[(3S)-2-oxopyrrolidin-3-yl]butan-2-yl}-3-[N-(tert-butylcarbamoyl)-3-methyl-L-valyl]-6,6-dimethyl-3-azabicyclo[3.1.0]hexane-2-carboxamide', 'weight': 550.691, 'carbohydrate_polymer': False, 'branch_name': ''}]

>  <ligand_codes>  (122) 
['I70']

>  <cofactor_codes>  (122) 
[]

>  <has_cofactor>  (122) 
False

>  <covalent>  (122) 
True

>  <base_name>  (122) 
7QUW

>  <lig_resn>  (122) 
I70

>  <lig_resi>  (122) 
201

>  <lig_chain>  (122) 
AAA

>  <lig_segi>  (122) 
B

>  <lig_alt>  (122) 


>  <polymer_chain>  (122) 
A

>  <single_smiles>  (122) 
CC(C)(C)NC(=O)N[C@H](C(=O)N1C[C@H]2[C@@H]([C@H]1C(=O)N[C@@H](C[C@@H]3CCNC3=O)[C@@H](O)C(N)=O)C2(C)C)C(C)(C)C

$$$$
I70P1S32
     RDKit          3D

 11 10  0  0  0  0  0  0  0  0999 V2000
   -7.5160    9.8180  -33.0360 C   0  0  0  0  0  0  0  0  0  0  0  0
   -7.6460    9.8980  -34.5540 C   0  0  2  0  0  0  0  0  0  0  0  0
   -8.6950   10.8790  -34.8670 N   0  0  0  0  0  0  0  0  0  0  0  0
   -7.9070    8.5330  -35.2310 C   0  0  2  0  0  0  0  0  0  0  0  0
   -8.4570   11.9880  -35.5730 C   0  0  0  0  0  0  0  0  0  0  0  0
   -6.7100    7.5940  -35.0980 C   0  0  0  0  0  0  0  0  0  0  0  0
   -8.2130    8.7260  -36.6160 O   0  0  0  0  0  0  0  0  0  0  0  0
   -9.3180    7.9910  -34.2220 R   0  0  0  0  0  0  0  0  0  0  0  0
   -7.3460   12.2960  -36.0060 O   0  0  0  0  0  0  0  0  0  0  0  0
   -5.7690    7.4620  -36.2130 N   0  0  0  0  0  0  0  0  0  0  0  0
   -6.5030    6.9520  -34.0860 O   0  0  0  0  0  0  0  0  0  0  0  0
  2  1  1  1
  3  2  1  0
  4  2  1  0
  5  3  1  0
  6  4  1  0
  4  7  1  0
  4  8  1  1
  5  9  1  0
  6 10  1  0
  6 11  1  0
V    8 *
A    2
 C17
A    3
 N16
A    4
 C8 
A    6
 C1 
A    7
 O9 
A    8
 X  
A    9
 O38
A   10
 N2 
A   11
 O5 
M  END
>  <XChem_code>  (123) 
I70§1

>  <Occupancy>  (123) 
[1.0, 1.0, 1.0, 1.0, 1.0, 1.0, 1.0, 1.0, 1.0, 1.0, 1.0, 1.0, 1.0, 1.0, 1.0, 1.0, 1.0, 1.0, 1.0, 1.0, 1.0, 1.0, 1.0, 1.0, 1.0, 1.0, 1.0, 1.0, 1.0, 1.0, 1.0, 1.0, 1.0, 1.0, 1.0, 1.0, 1.0, 1.0, 1.0, 1.0]

>  <TempFactor>  (123) 
[63.58, 69.08, 56.96, 91.85, 58.99, 85.97, 82.0, 52.36, 73.05, 70.66, 67.47, 64.86, 62.73, 58.1, 56.76, 63.59, 54.89, 58.5, 61.5, 60.05, 60.39, 63.68, 62.48, 49.52, 61.26, 62.28, 64.93, 65.54, 55.79, 95.6, 91.48, 91.79, 68.22, 64.56, 72.88, 62.05, 61.78, 61.48, 53.44, 57.91]

>  <accession>  (123) 
7QUW_AAA

>  <description>  (123) 
Chain AAA, Protease 3C [Coxsackievirus B3]

>  <evalue>  (123) 
7.4010300000000003e-88

>  <pdb_code>  (123) 
7QUW

>  <chain>  (123) 
AAA

>  <ligands>  (123) 
[{'chain_id': 'AAA', 'author_residue_number': 201, 'author_insertion_code': '', 'chem_comp_id': 'I70', 'alternate_conformers': 0, 'entity_id': 2, 'struct_asym_id': 'B', 'residue_number': 1, 'chem_comp_name': '(1R,2S,5S)-N-{(2S,3R)-4-amino-3-hydroxy-4-oxo-1-[(3S)-2-oxopyrrolidin-3-yl]butan-2-yl}-3-[N-(tert-butylcarbamoyl)-3-methyl-L-valyl]-6,6-dimethyl-3-azabicyclo[3.1.0]hexane-2-carboxamide', 'weight': 550.691, 'carbohydrate_polymer': False, 'branch_name': ''}]

>  <ligand_codes>  (123) 
['I70']

>  <cofactor_codes>  (123) 
[]

>  <has_cofactor>  (123) 
False

>  <covalent>  (123) 
True

>  <base_name>  (123) 
7QUW

>  <lig_resn>  (123) 
I70

>  <lig_resi>  (123) 
201

>  <lig_chain>  (123) 
AAA

>  <lig_segi>  (123) 
B

>  <lig_alt>  (123) 


>  <polymer_chain>  (123) 
A

>  <single_smiles>  (123) 
CC(C)(C)NC(=O)N[C@H](C(=O)N1C[C@H]2[C@@H]([C@H]1C(=O)N[C@@H](C[C@@H]3CCNC3=O)[C@@H](O)C(N)=O)C2(C)C)C(C)(C)C

$$$$
EDOP5
     RDKit          3D

  4  3  0  0  0  0  0  0  0  0999 V2000
   -9.2720   15.7960  -39.3710 C   0  0  0  0  0  0  0  0  0  0  0  0
  -10.6280   16.2660  -39.3400 O   0  0  0  0  0  0  0  0  0  0  0  0
   -9.1810   14.3120  -39.1120 C   0  0  0  0  0  0  0  0  0  0  0  0
   -7.8180   13.8590  -39.0590 O   0  0  0  0  0  0  0  0  0  0  0  0
  1  2  1  0
  1  3  1  0
  3  4  1  0
A    1
 C1 
A    2
 O1 
A    3
 C2 
A    4
 O2 
M  END
>  <XChem_code>  (124) 
EDO§5

>  <Occupancy>  (124) 
[0.65, 0.65, 0.65, 0.65]

>  <TempFactor>  (124) 
[32.81, 31.23, 32.84, 28.15]

>  <accession>  (124) 
3Q3Y_A

>  <description>  (124) 
Chain A, HEVB EV93 3C protease [Enterovirus B]

>  <evalue>  (124) 
1.1460600000000001e-87

>  <pdb_code>  (124) 
3Q3Y

>  <chain>  (124) 
A

>  <ligands>  (124) 
[{'chain_id': 'A', 'author_residue_number': 190, 'author_insertion_code': '', 'chem_comp_id': 'XNV', 'alternate_conformers': 2, 'entity_id': 2, 'struct_asym_id': 'C', 'residue_number': 1, 'chem_comp_name': 'ethyl (4R)-4-({(2S)-2-[3-{[(5-methyl-1,2-oxazol-3-yl)carbonyl]amino}-2-oxopyridin-1(2H)-yl]pent-4-ynoyl}amino)-5-[(3S)-2-oxopyrrolidin-3-yl]pentanoate', 'weight': 525.554, 'carbohydrate_polymer': False, 'branch_name': ''}, {'chain_id': 'B', 'author_residue_number': 190, 'author_insertion_code': '', 'chem_comp_id': 'XNV', 'alternate_conformers': 2, 'entity_id': 2, 'struct_asym_id': 'L', 'residue_number': 1, 'chem_comp_name': 'ethyl (4R)-4-({(2S)-2-[3-{[(5-methyl-1,2-oxazol-3-yl)carbonyl]amino}-2-oxopyridin-1(2H)-yl]pent-4-ynoyl}amino)-5-[(3S)-2-oxopyrrolidin-3-yl]pentanoate', 'weight': 525.554, 'carbohydrate_polymer': False, 'branch_name': ''}, {'chain_id': 'A', 'author_residue_number': 191, 'author_insertion_code': '', 'chem_comp_id': 'EDO', 'alternate_conformers': 2, 'entity_id': 3, 'struct_asym_id': 'D', 'residue_number': 1, 'chem_comp_name': '1,2-ETHANEDIOL', 'weight': 62.068, 'carbohydrate_polymer': False, 'branch_name': ''}, {'chain_id': 'A', 'author_residue_number': 192, 'author_insertion_code': '', 'chem_comp_id': 'EDO', 'alternate_conformers': 2, 'entity_id': 3, 'struct_asym_id': 'E', 'residue_number': 1, 'chem_comp_name': '1,2-ETHANEDIOL', 'weight': 62.068, 'carbohydrate_polymer': False, 'branch_name': ''}, {'chain_id': 'A', 'author_residue_number': 193, 'author_insertion_code': '', 'chem_comp_id': 'EDO', 'alternate_conformers': 0, 'entity_id': 3, 'struct_asym_id': 'F', 'residue_number': 1, 'chem_comp_name': '1,2-ETHANEDIOL', 'weight': 62.068, 'carbohydrate_polymer': False, 'branch_name': ''}, {'chain_id': 'A', 'author_residue_number': 194, 'author_insertion_code': '', 'chem_comp_id': 'EDO', 'alternate_conformers': 1, 'entity_id': 3, 'struct_asym_id': 'G', 'residue_number': 1, 'chem_comp_name': '1,2-ETHANEDIOL', 'weight': 62.068, 'carbohydrate_polymer': False, 'branch_name': ''}, {'chain_id': 'B', 'author_residue_number': 191, 'author_insertion_code': '', 'chem_comp_id': 'EDO', 'alternate_conformers': 2, 'entity_id': 3, 'struct_asym_id': 'M', 'residue_number': 1, 'chem_comp_name': '1,2-ETHANEDIOL', 'weight': 62.068, 'carbohydrate_polymer': False, 'branch_name': ''}, {'chain_id': 'B', 'author_residue_number': 192, 'author_insertion_code': '', 'chem_comp_id': 'EDO', 'alternate_conformers': 0, 'entity_id': 3, 'struct_asym_id': 'N', 'residue_number': 1, 'chem_comp_name': '1,2-ETHANEDIOL', 'weight': 62.068, 'carbohydrate_polymer': False, 'branch_name': ''}, {'chain_id': 'B', 'author_residue_number': 193, 'author_insertion_code': '', 'chem_comp_id': 'EDO', 'alternate_conformers': 2, 'entity_id': 3, 'struct_asym_id': 'O', 'residue_number': 1, 'chem_comp_name': '1,2-ETHANEDIOL', 'weight': 62.068, 'carbohydrate_polymer': False, 'branch_name': ''}, {'chain_id': 'B', 'author_residue_number': 194, 'author_insertion_code': '', 'chem_comp_id': 'EDO', 'alternate_conformers': 1, 'entity_id': 3, 'struct_asym_id': 'P', 'residue_number': 1, 'chem_comp_name': '1,2-ETHANEDIOL', 'weight': 62.068, 'carbohydrate_polymer': False, 'branch_name': ''}, {'chain_id': 'A', 'author_residue_number': 195, 'author_insertion_code': '', 'chem_comp_id': 'PI', 'alternate_conformers': 1, 'entity_id': 4, 'struct_asym_id': 'H', 'residue_number': 1, 'chem_comp_name': 'HYDROGENPHOSPHATE ION', 'weight': 95.979, 'carbohydrate_polymer': False, 'branch_name': ''}, {'chain_id': 'A', 'author_residue_number': 196, 'author_insertion_code': '', 'chem_comp_id': 'PI', 'alternate_conformers': 1, 'entity_id': 4, 'struct_asym_id': 'I', 'residue_number': 1, 'chem_comp_name': 'HYDROGENPHOSPHATE ION', 'weight': 95.979, 'carbohydrate_polymer': False, 'branch_name': ''}, {'chain_id': 'B', 'author_residue_number': 195, 'author_insertion_code': '', 'chem_comp_id': 'PI', 'alternate_conformers': 1, 'entity_id': 4, 'struct_asym_id': 'Q', 'residue_number': 1, 'chem_comp_name': 'HYDROGENPHOSPHATE ION', 'weight': 95.979, 'carbohydrate_polymer': False, 'branch_name': ''}, {'chain_id': 'A', 'author_residue_number': 197, 'author_insertion_code': '', 'chem_comp_id': 'NH4', 'alternate_conformers': 2, 'entity_id': 5, 'struct_asym_id': 'J', 'residue_number': 1, 'chem_comp_name': 'AMMONIUM ION', 'weight': 18.038, 'carbohydrate_polymer': False, 'branch_name': ''}, {'chain_id': 'A', 'author_residue_number': 198, 'author_insertion_code': '', 'chem_comp_id': 'NH4', 'alternate_conformers': 0, 'entity_id': 5, 'struct_asym_id': 'K', 'residue_number': 1, 'chem_comp_name': 'AMMONIUM ION', 'weight': 18.038, 'carbohydrate_polymer': False, 'branch_name': ''}]

>  <ligand_codes>  (124) 
['XNV', 'XNV', 'EDO', 'EDO', 'EDO', 'EDO', 'EDO', 'EDO', 'EDO', 'EDO', 'PI', 'PI', 'PI', 'NH4', 'NH4']

>  <cofactor_codes>  (124) 
[]

>  <has_cofactor>  (124) 
False

>  <covalent>  (124) 
False

>  <base_name>  (124) 
3Q3Y

>  <lig_resn>  (124) 
EDO

>  <lig_resi>  (124) 
193

>  <lig_chain>  (124) 
A

>  <lig_segi>  (124) 
F

>  <lig_alt>  (124) 


>  <polymer_chain>  (124) 
A

>  <single_smiles>  (124) 
OCCO

$$$$
XNVP1
     RDKit          3D

  6  5  0  0  0  0  0  0  0  0999 V2000
   -6.4370    5.4350  -38.6720 C   0  0  0  0  0  0  0  0  0  0  0  0
   -6.9670    6.7070  -37.9880 C   0  0  0  0  0  0  0  0  0  0  0  0
   -5.9500    7.3430  -37.2070 O   0  0  0  0  0  0  0  0  0  0  0  0
   -6.2390    8.3590  -36.3130 C   0  0  2  0  0  0  0  0  0  0  0  0
   -5.3090    8.7040  -35.6100 O   0  0  0  0  0  0  0  0  0  0  0  0
   -7.7310    8.3810  -35.9230 R   0  0  0  0  0  0  0  0  0  0  0  0
  1  2  1  0
  2  3  1  0
  3  4  1  0
  4  5  1  0
  4  6  1  1
V    6 *
A    1
 C01
A    2
 C02
A    3
 O03
A    4
 C04
A    5
 O38
A    6
 X  
M  END
>  <XChem_code>  (125) 
XNV§1

>  <Occupancy>  (125) 
[0.31, 0.31, 0.31, 0.31, 0.31, 1.0]

>  <TempFactor>  (125) 
[61.0, 49.21, 32.51, 21.28, 18.23, 12.55]

>  <accession>  (125) 
3Q3Y_A

>  <description>  (125) 
Chain A, HEVB EV93 3C protease [Enterovirus B]

>  <evalue>  (125) 
1.1460600000000001e-87

>  <pdb_code>  (125) 
3Q3Y

>  <chain>  (125) 
A

>  <ligands>  (125) 
[{'chain_id': 'A', 'author_residue_number': 190, 'author_insertion_code': '', 'chem_comp_id': 'XNV', 'alternate_conformers': 2, 'entity_id': 2, 'struct_asym_id': 'C', 'residue_number': 1, 'chem_comp_name': 'ethyl (4R)-4-({(2S)-2-[3-{[(5-methyl-1,2-oxazol-3-yl)carbonyl]amino}-2-oxopyridin-1(2H)-yl]pent-4-ynoyl}amino)-5-[(3S)-2-oxopyrrolidin-3-yl]pentanoate', 'weight': 525.554, 'carbohydrate_polymer': False, 'branch_name': ''}, {'chain_id': 'B', 'author_residue_number': 190, 'author_insertion_code': '', 'chem_comp_id': 'XNV', 'alternate_conformers': 2, 'entity_id': 2, 'struct_asym_id': 'L', 'residue_number': 1, 'chem_comp_name': 'ethyl (4R)-4-({(2S)-2-[3-{[(5-methyl-1,2-oxazol-3-yl)carbonyl]amino}-2-oxopyridin-1(2H)-yl]pent-4-ynoyl}amino)-5-[(3S)-2-oxopyrrolidin-3-yl]pentanoate', 'weight': 525.554, 'carbohydrate_polymer': False, 'branch_name': ''}, {'chain_id': 'A', 'author_residue_number': 191, 'author_insertion_code': '', 'chem_comp_id': 'EDO', 'alternate_conformers': 2, 'entity_id': 3, 'struct_asym_id': 'D', 'residue_number': 1, 'chem_comp_name': '1,2-ETHANEDIOL', 'weight': 62.068, 'carbohydrate_polymer': False, 'branch_name': ''}, {'chain_id': 'A', 'author_residue_number': 192, 'author_insertion_code': '', 'chem_comp_id': 'EDO', 'alternate_conformers': 2, 'entity_id': 3, 'struct_asym_id': 'E', 'residue_number': 1, 'chem_comp_name': '1,2-ETHANEDIOL', 'weight': 62.068, 'carbohydrate_polymer': False, 'branch_name': ''}, {'chain_id': 'A', 'author_residue_number': 193, 'author_insertion_code': '', 'chem_comp_id': 'EDO', 'alternate_conformers': 0, 'entity_id': 3, 'struct_asym_id': 'F', 'residue_number': 1, 'chem_comp_name': '1,2-ETHANEDIOL', 'weight': 62.068, 'carbohydrate_polymer': False, 'branch_name': ''}, {'chain_id': 'A', 'author_residue_number': 194, 'author_insertion_code': '', 'chem_comp_id': 'EDO', 'alternate_conformers': 1, 'entity_id': 3, 'struct_asym_id': 'G', 'residue_number': 1, 'chem_comp_name': '1,2-ETHANEDIOL', 'weight': 62.068, 'carbohydrate_polymer': False, 'branch_name': ''}, {'chain_id': 'B', 'author_residue_number': 191, 'author_insertion_code': '', 'chem_comp_id': 'EDO', 'alternate_conformers': 2, 'entity_id': 3, 'struct_asym_id': 'M', 'residue_number': 1, 'chem_comp_name': '1,2-ETHANEDIOL', 'weight': 62.068, 'carbohydrate_polymer': False, 'branch_name': ''}, {'chain_id': 'B', 'author_residue_number': 192, 'author_insertion_code': '', 'chem_comp_id': 'EDO', 'alternate_conformers': 0, 'entity_id': 3, 'struct_asym_id': 'N', 'residue_number': 1, 'chem_comp_name': '1,2-ETHANEDIOL', 'weight': 62.068, 'carbohydrate_polymer': False, 'branch_name': ''}, {'chain_id': 'B', 'author_residue_number': 193, 'author_insertion_code': '', 'chem_comp_id': 'EDO', 'alternate_conformers': 2, 'entity_id': 3, 'struct_asym_id': 'O', 'residue_number': 1, 'chem_comp_name': '1,2-ETHANEDIOL', 'weight': 62.068, 'carbohydrate_polymer': False, 'branch_name': ''}, {'chain_id': 'B', 'author_residue_number': 194, 'author_insertion_code': '', 'chem_comp_id': 'EDO', 'alternate_conformers': 1, 'entity_id': 3, 'struct_asym_id': 'P', 'residue_number': 1, 'chem_comp_name': '1,2-ETHANEDIOL', 'weight': 62.068, 'carbohydrate_polymer': False, 'branch_name': ''}, {'chain_id': 'A', 'author_residue_number': 195, 'author_insertion_code': '', 'chem_comp_id': 'PI', 'alternate_conformers': 1, 'entity_id': 4, 'struct_asym_id': 'H', 'residue_number': 1, 'chem_comp_name': 'HYDROGENPHOSPHATE ION', 'weight': 95.979, 'carbohydrate_polymer': False, 'branch_name': ''}, {'chain_id': 'A', 'author_residue_number': 196, 'author_insertion_code': '', 'chem_comp_id': 'PI', 'alternate_conformers': 1, 'entity_id': 4, 'struct_asym_id': 'I', 'residue_number': 1, 'chem_comp_name': 'HYDROGENPHOSPHATE ION', 'weight': 95.979, 'carbohydrate_polymer': False, 'branch_name': ''}, {'chain_id': 'B', 'author_residue_number': 195, 'author_insertion_code': '', 'chem_comp_id': 'PI', 'alternate_conformers': 1, 'entity_id': 4, 'struct_asym_id': 'Q', 'residue_number': 1, 'chem_comp_name': 'HYDROGENPHOSPHATE ION', 'weight': 95.979, 'carbohydrate_polymer': False, 'branch_name': ''}, {'chain_id': 'A', 'author_residue_number': 197, 'author_insertion_code': '', 'chem_comp_id': 'NH4', 'alternate_conformers': 2, 'entity_id': 5, 'struct_asym_id': 'J', 'residue_number': 1, 'chem_comp_name': 'AMMONIUM ION', 'weight': 18.038, 'carbohydrate_polymer': False, 'branch_name': ''}, {'chain_id': 'A', 'author_residue_number': 198, 'author_insertion_code': '', 'chem_comp_id': 'NH4', 'alternate_conformers': 0, 'entity_id': 5, 'struct_asym_id': 'K', 'residue_number': 1, 'chem_comp_name': 'AMMONIUM ION', 'weight': 18.038, 'carbohydrate_polymer': False, 'branch_name': ''}]

>  <ligand_codes>  (125) 
['XNV', 'XNV', 'EDO', 'EDO', 'EDO', 'EDO', 'EDO', 'EDO', 'EDO', 'EDO', 'PI', 'PI', 'PI', 'NH4', 'NH4']

>  <cofactor_codes>  (125) 
[]

>  <has_cofactor>  (125) 
False

>  <covalent>  (125) 
True

>  <base_name>  (125) 
3Q3Y

>  <lig_resn>  (125) 
XNV

>  <lig_resi>  (125) 
190

>  <lig_chain>  (125) 
A

>  <lig_segi>  (125) 
C

>  <lig_alt>  (125) 
B

>  <polymer_chain>  (125) 
A

>  <single_smiles>  (125) 
CCOC(=O)CC[C@H](C[C@@H]1CCNC1=O)NC(=O)[C@H](CC#C)N2C=CC=C(NC(=O)c3cc(C)on3)C2=O

$$$$
XNVP5
     RDKit          3D

 44 46  0  0  0  0  0  0  0  0999 V2000
   -4.2700   11.1150  -37.7120 C   0  0  0  0  0  0  0  0  0  0  0  0
   -6.4370    5.4350  -38.6720 C   0  0  0  0  0  0  0  0  0  0  0  0
   -4.5680    9.6340  -37.4070 C   0  0  0  0  0  0  0  0  0  0  0  0
   -6.9670    6.7070  -37.9880 C   0  0  0  0  0  0  0  0  0  0  0  0
   -5.9620    9.3890  -37.1520 O   0  0  0  0  0  0  0  0  0  0  0  0
   -5.9500    7.3430  -37.2070 O   0  0  0  0  0  0  0  0  0  0  0  0
   -6.2830    8.2890  -36.3860 C   0  0  1  0  0  0  0  0  0  0  0  0
   -6.2390    8.3590  -36.3130 C   0  0  2  0  0  0  0  0  0  0  0  0
   -8.0140    8.4320  -34.3930 C   0  0  1  0  0  0  0  0  0  0  0  0
   -7.6700    9.8230  -33.7780 C   0  0  1  0  0  0  0  0  0  0  0  0
   -8.6960   10.7850  -34.1610 N   0  0  0  0  0  0  0  0  0  0  0  0
   -8.3660   11.9860  -34.7380 C   0  0  0  0  0  0  0  0  0  0  0  0
   -9.5440   12.8720  -35.1700 C   0  0  1  0  0  0  0  0  0  0  0  0
   -9.2290   14.2940  -34.9840 N   0  0  0  0  0  0  0  0  0  0  0  0
   -9.2700   14.7400  -33.6260 C   0  0  0  0  0  0  0  0  0  0  0  0
   -9.0490   16.1590  -33.3600 C   0  0  0  0  0  0  0  0  0  0  0  0
   -9.2490   16.5750  -32.0350 N   0  0  0  0  0  0  0  0  0  0  0  0
  -10.0950   17.6650  -31.7210 C   0  0  0  0  0  0  0  0  0  0  0  0
  -10.3340   17.8140  -30.2530 C   0  0  0  0  0  0  0  0  0  0  0  0
   -9.8210   17.0290  -29.3110 N   0  0  0  0  0  0  0  0  0  0  0  0
  -10.2850   17.4780  -28.1290 O   0  0  0  0  0  0  0  0  0  0  0  0
  -11.0580   18.5830  -28.2730 C   0  0  0  0  0  0  0  0  0  0  0  0
  -11.6710   19.3000  -27.1340 C   0  0  0  0  0  0  0  0  0  0  0  0
  -11.1330   18.8400  -29.6240 C   0  0  0  0  0  0  0  0  0  0  0  0
  -10.5810   18.4340  -32.5450 O   0  0  0  0  0  0  0  0  0  0  0  0
   -8.7180   16.9980  -34.4080 C   0  0  0  0  0  0  0  0  0  0  0  0
   -8.6520   16.4840  -35.7260 C   0  0  0  0  0  0  0  0  0  0  0  0
   -8.8880   15.1740  -35.9880 C   0  0  0  0  0  0  0  0  0  0  0  0
   -9.5210   13.9120  -32.7390 O   0  0  0  0  0  0  0  0  0  0  0  0
   -9.9610   12.5320  -36.6040 C   0  0  0  0  0  0  0  0  0  0  0  0
  -11.1420   13.3100  -36.9200 C   0  0  0  0  0  0  0  0  0  0  0  0
  -12.1000   13.9360  -37.1800 C   0  0  0  0  0  0  0  0  0  0  0  0
   -7.2170   12.3540  -34.9210 O   0  0  0  0  0  0  0  0  0  0  0  0
   -7.5070    9.7730  -32.2370 C   0  0  0  0  0  0  0  0  0  0  0  0
   -7.1020   11.0700  -31.5740 C   0  0  2  0  0  0  0  0  0  0  0  0
   -5.6570   11.5300  -31.9370 C   0  0  0  0  0  0  0  0  0  0  0  0
   -5.2110   12.3590  -30.7450 C   0  0  0  0  0  0  0  0  0  0  0  0
   -5.9230   11.6850  -29.6600 N   0  0  0  0  0  0  0  0  0  0  0  0
   -7.0130   10.9790  -30.0830 C   0  0  0  0  0  0  0  0  0  0  0  0
   -7.8230   10.4100  -29.3700 O   0  0  0  0  0  0  0  0  0  0  0  0
   -5.3980    7.7430  -35.7710 O   0  0  0  0  0  0  0  0  0  0  0  0
   -5.3090    8.7040  -35.6100 O   0  0  0  0  0  0  0  0  0  0  0  0
   -9.6590    8.0130  -33.9280 R   0  0  0  0  0  0  0  0  0  0  0  0
   -7.7310    8.3810  -35.9230 R   0  0  0  0  0  0  0  0  0  0  0  0
  1  3  1  0
  2  4  1  0
  3  5  1  0
  4  6  1  0
  5  7  1  0
  6  8  1  0
  7 41  1  1
  7 44  1  0
  8 42  1  1
  8 44  1  0
  9 10  1  0
  9 43  1  6
  9 44  1  0
 10 11  1  0
 10 34  1  1
 11 12  1  0
 12 13  1  0
 12 33  1  0
 13 14  1  0
 13 30  1  6
 14 15  1  0
 14 28  1  0
 15 16  1  0
 15 29  1  0
 16 17  1  0
 16 26  1  0
 17 18  1  0
 18 19  1  0
 18 25  1  0
 19 20  1  0
 19 24  1  0
 20 21  1  0
 21 22  1  0
 22 23  1  0
 22 24  1  0
 26 27  1  0
 27 28  1  0
 30 31  1  0
 31 32  1  0
 35 34  1  6
 35 36  1  0
 35 39  1  0
 36 37  1  0
 37 38  1  0
 38 39  1  0
 39 40  1  0
V   43 *
V   44 *
A    1
 C01
A    2
 C01
A    3
 C02
A    4
 C02
A    5
 O03
A    6
 O03
A    7
 C04
A    8
 C04
A    9
 C06
A   10
 C07
A   11
 N08
A   12
 C09
A   13
 C10
A   14
 N11
A   15
 C12
A   16
 C13
A   17
 N14
A   18
 C15
A   19
 C16
A   20
 N17
A   21
 O18
A   22
 C19
A   23
 C20
A   24
 C21
A   25
 O22
A   26
 C23
A   27
 C24
A   28
 C25
A   29
 O26
A   30
 C27
A   31
 C28
A   32
 C29
A   33
 O30
A   34
 C31
A   35
 C32
A   36
 C33
A   37
 C34
A   38
 N35
A   39
 C36
A   40
 O37
A   41
 O38
A   42
 O38
A   43
 X  
A   44
 X  
M  END
>  <XChem_code>  (126) 
XNV§5

>  <Occupancy>  (126) 
[0.69, 0.31, 0.69, 0.31, 0.69, 0.31, 0.69, 0.31, 1.0, 1.0, 1.0, 1.0, 1.0, 1.0, 1.0, 1.0, 1.0, 1.0, 1.0, 1.0, 1.0, 1.0, 1.0, 1.0, 1.0, 1.0, 1.0, 1.0, 1.0, 1.0, 1.0, 1.0, 1.0, 1.0, 1.0, 1.0, 1.0, 1.0, 1.0, 1.0, 0.69, 0.31, 1.0, 1.0]

>  <TempFactor>  (126) 
[53.57, 61.0, 41.59, 49.21, 23.74, 32.51, 19.1, 21.28, 7.6, 8.11, 8.4, 9.74, 8.05, 8.56, 8.33, 8.16, 7.98, 7.67, 8.77, 11.26, 12.79, 12.84, 16.26, 10.81, 9.75, 8.32, 9.11, 8.82, 8.1, 8.86, 9.21, 10.73, 9.43, 7.8, 6.74, 9.87, 8.87, 8.14, 7.89, 8.51, 19.72, 18.23, 7.31, 12.55]

>  <accession>  (126) 
3Q3Y_A

>  <description>  (126) 
Chain A, HEVB EV93 3C protease [Enterovirus B]

>  <evalue>  (126) 
1.1460600000000001e-87

>  <pdb_code>  (126) 
3Q3Y

>  <chain>  (126) 
A

>  <ligands>  (126) 
[{'chain_id': 'A', 'author_residue_number': 190, 'author_insertion_code': '', 'chem_comp_id': 'XNV', 'alternate_conformers': 2, 'entity_id': 2, 'struct_asym_id': 'C', 'residue_number': 1, 'chem_comp_name': 'ethyl (4R)-4-({(2S)-2-[3-{[(5-methyl-1,2-oxazol-3-yl)carbonyl]amino}-2-oxopyridin-1(2H)-yl]pent-4-ynoyl}amino)-5-[(3S)-2-oxopyrrolidin-3-yl]pentanoate', 'weight': 525.554, 'carbohydrate_polymer': False, 'branch_name': ''}, {'chain_id': 'B', 'author_residue_number': 190, 'author_insertion_code': '', 'chem_comp_id': 'XNV', 'alternate_conformers': 2, 'entity_id': 2, 'struct_asym_id': 'L', 'residue_number': 1, 'chem_comp_name': 'ethyl (4R)-4-({(2S)-2-[3-{[(5-methyl-1,2-oxazol-3-yl)carbonyl]amino}-2-oxopyridin-1(2H)-yl]pent-4-ynoyl}amino)-5-[(3S)-2-oxopyrrolidin-3-yl]pentanoate', 'weight': 525.554, 'carbohydrate_polymer': False, 'branch_name': ''}, {'chain_id': 'A', 'author_residue_number': 191, 'author_insertion_code': '', 'chem_comp_id': 'EDO', 'alternate_conformers': 2, 'entity_id': 3, 'struct_asym_id': 'D', 'residue_number': 1, 'chem_comp_name': '1,2-ETHANEDIOL', 'weight': 62.068, 'carbohydrate_polymer': False, 'branch_name': ''}, {'chain_id': 'A', 'author_residue_number': 192, 'author_insertion_code': '', 'chem_comp_id': 'EDO', 'alternate_conformers': 2, 'entity_id': 3, 'struct_asym_id': 'E', 'residue_number': 1, 'chem_comp_name': '1,2-ETHANEDIOL', 'weight': 62.068, 'carbohydrate_polymer': False, 'branch_name': ''}, {'chain_id': 'A', 'author_residue_number': 193, 'author_insertion_code': '', 'chem_comp_id': 'EDO', 'alternate_conformers': 0, 'entity_id': 3, 'struct_asym_id': 'F', 'residue_number': 1, 'chem_comp_name': '1,2-ETHANEDIOL', 'weight': 62.068, 'carbohydrate_polymer': False, 'branch_name': ''}, {'chain_id': 'A', 'author_residue_number': 194, 'author_insertion_code': '', 'chem_comp_id': 'EDO', 'alternate_conformers': 1, 'entity_id': 3, 'struct_asym_id': 'G', 'residue_number': 1, 'chem_comp_name': '1,2-ETHANEDIOL', 'weight': 62.068, 'carbohydrate_polymer': False, 'branch_name': ''}, {'chain_id': 'B', 'author_residue_number': 191, 'author_insertion_code': '', 'chem_comp_id': 'EDO', 'alternate_conformers': 2, 'entity_id': 3, 'struct_asym_id': 'M', 'residue_number': 1, 'chem_comp_name': '1,2-ETHANEDIOL', 'weight': 62.068, 'carbohydrate_polymer': False, 'branch_name': ''}, {'chain_id': 'B', 'author_residue_number': 192, 'author_insertion_code': '', 'chem_comp_id': 'EDO', 'alternate_conformers': 0, 'entity_id': 3, 'struct_asym_id': 'N', 'residue_number': 1, 'chem_comp_name': '1,2-ETHANEDIOL', 'weight': 62.068, 'carbohydrate_polymer': False, 'branch_name': ''}, {'chain_id': 'B', 'author_residue_number': 193, 'author_insertion_code': '', 'chem_comp_id': 'EDO', 'alternate_conformers': 2, 'entity_id': 3, 'struct_asym_id': 'O', 'residue_number': 1, 'chem_comp_name': '1,2-ETHANEDIOL', 'weight': 62.068, 'carbohydrate_polymer': False, 'branch_name': ''}, {'chain_id': 'B', 'author_residue_number': 194, 'author_insertion_code': '', 'chem_comp_id': 'EDO', 'alternate_conformers': 1, 'entity_id': 3, 'struct_asym_id': 'P', 'residue_number': 1, 'chem_comp_name': '1,2-ETHANEDIOL', 'weight': 62.068, 'carbohydrate_polymer': False, 'branch_name': ''}, {'chain_id': 'A', 'author_residue_number': 195, 'author_insertion_code': '', 'chem_comp_id': 'PI', 'alternate_conformers': 1, 'entity_id': 4, 'struct_asym_id': 'H', 'residue_number': 1, 'chem_comp_name': 'HYDROGENPHOSPHATE ION', 'weight': 95.979, 'carbohydrate_polymer': False, 'branch_name': ''}, {'chain_id': 'A', 'author_residue_number': 196, 'author_insertion_code': '', 'chem_comp_id': 'PI', 'alternate_conformers': 1, 'entity_id': 4, 'struct_asym_id': 'I', 'residue_number': 1, 'chem_comp_name': 'HYDROGENPHOSPHATE ION', 'weight': 95.979, 'carbohydrate_polymer': False, 'branch_name': ''}, {'chain_id': 'B', 'author_residue_number': 195, 'author_insertion_code': '', 'chem_comp_id': 'PI', 'alternate_conformers': 1, 'entity_id': 4, 'struct_asym_id': 'Q', 'residue_number': 1, 'chem_comp_name': 'HYDROGENPHOSPHATE ION', 'weight': 95.979, 'carbohydrate_polymer': False, 'branch_name': ''}, {'chain_id': 'A', 'author_residue_number': 197, 'author_insertion_code': '', 'chem_comp_id': 'NH4', 'alternate_conformers': 2, 'entity_id': 5, 'struct_asym_id': 'J', 'residue_number': 1, 'chem_comp_name': 'AMMONIUM ION', 'weight': 18.038, 'carbohydrate_polymer': False, 'branch_name': ''}, {'chain_id': 'A', 'author_residue_number': 198, 'author_insertion_code': '', 'chem_comp_id': 'NH4', 'alternate_conformers': 0, 'entity_id': 5, 'struct_asym_id': 'K', 'residue_number': 1, 'chem_comp_name': 'AMMONIUM ION', 'weight': 18.038, 'carbohydrate_polymer': False, 'branch_name': ''}]

>  <ligand_codes>  (126) 
['XNV', 'XNV', 'EDO', 'EDO', 'EDO', 'EDO', 'EDO', 'EDO', 'EDO', 'EDO', 'PI', 'PI', 'PI', 'NH4', 'NH4']

>  <cofactor_codes>  (126) 
[]

>  <has_cofactor>  (126) 
False

>  <covalent>  (126) 
True

>  <base_name>  (126) 
3Q3Y

>  <lig_resn>  (126) 
XNV

>  <lig_resi>  (126) 
190

>  <lig_chain>  (126) 
A

>  <lig_segi>  (126) 
C

>  <lig_alt>  (126) 


>  <polymer_chain>  (126) 
A

>  <single_smiles>  (126) 
CCOC(=O)CC[C@H](C[C@@H]1CCNC1=O)NC(=O)[C@H](CC#C)N2C=CC=C(NC(=O)c3cc(C)on3)C2=O

$$$$
XNVP5S1
     RDKit          3D

 21 21  0  0  0  0  0  0  0  0999 V2000
   -7.6700    9.8230  -33.7780 C   0  0  0  0  0  0  0  0  0  0  0  0
   -8.0140    8.4320  -34.3930 C   0  0  1  0  0  0  0  0  0  0  0  0
   -7.5070    9.7730  -32.2370 C   0  0  0  0  0  0  0  0  0  0  0  0
   -9.6590    8.0130  -33.9280 R   0  0  0  0  0  0  0  0  0  0  0  0
   -7.7310    8.3810  -35.9230 R   0  0  0  0  0  0  0  0  0  0  0  0
   -7.1020   11.0700  -31.5740 C   0  0  2  0  0  0  0  0  0  0  0  0
   -6.2830    8.2890  -36.3860 C   0  0  1  0  0  0  0  0  0  0  0  0
   -6.2390    8.3590  -36.3130 C   0  0  2  0  0  0  0  0  0  0  0  0
   -5.6570   11.5300  -31.9370 C   0  0  0  0  0  0  0  0  0  0  0  0
   -7.0130   10.9790  -30.0830 C   0  0  0  0  0  0  0  0  0  0  0  0
   -5.9620    9.3890  -37.1520 O   0  0  0  0  0  0  0  0  0  0  0  0
   -5.3980    7.7430  -35.7710 O   0  0  0  0  0  0  0  0  0  0  0  0
   -5.9500    7.3430  -37.2070 O   0  0  0  0  0  0  0  0  0  0  0  0
   -5.3090    8.7040  -35.6100 O   0  0  0  0  0  0  0  0  0  0  0  0
   -5.2110   12.3590  -30.7450 C   0  0  0  0  0  0  0  0  0  0  0  0
   -5.9230   11.6850  -29.6600 N   0  0  0  0  0  0  0  0  0  0  0  0
   -7.8230   10.4100  -29.3700 O   0  0  0  0  0  0  0  0  0  0  0  0
   -4.5680    9.6340  -37.4070 C   0  0  0  0  0  0  0  0  0  0  0  0
   -6.9670    6.7070  -37.9880 C   0  0  0  0  0  0  0  0  0  0  0  0
   -4.2700   11.1150  -37.7120 C   0  0  0  0  0  0  0  0  0  0  0  0
   -6.4370    5.4350  -38.6720 C   0  0  0  0  0  0  0  0  0  0  0  0
  2  1  1  0
  1  3  1  6
  2  4  1  6
  2  5  1  0
  6  3  1  6
  7  5  1  0
  8  5  1  0
  6  9  1  0
  6 10  1  0
 11  7  1  0
  7 12  1  1
 13  8  1  0
  8 14  1  1
  9 15  1  0
 16 10  1  0
 10 17  1  0
 18 11  1  0
 19 13  1  0
 15 16  1  0
 20 18  1  0
 21 19  1  0
V    4 *
V    5 *
A    2
 C06
A    3
 C31
A    4
 X  
A    5
 X  
A    6
 C32
A    7
 C04
A    8
 C04
A    9
 C33
A   10
 C36
A   11
 O03
A   12
 O38
A   13
 O03
A   14
 O38
A   15
 C34
A   16
 N35
A   17
 O37
A   18
 C02
A   19
 C02
A   20
 C01
A   21
 C01
M  END
>  <XChem_code>  (127) 
XNV§5

>  <Occupancy>  (127) 
[0.69, 0.31, 0.69, 0.31, 0.69, 0.31, 0.69, 0.31, 1.0, 1.0, 1.0, 1.0, 1.0, 1.0, 1.0, 1.0, 1.0, 1.0, 1.0, 1.0, 1.0, 1.0, 1.0, 1.0, 1.0, 1.0, 1.0, 1.0, 1.0, 1.0, 1.0, 1.0, 1.0, 1.0, 1.0, 1.0, 1.0, 1.0, 1.0, 1.0, 0.69, 0.31, 1.0, 1.0]

>  <TempFactor>  (127) 
[53.57, 61.0, 41.59, 49.21, 23.74, 32.51, 19.1, 21.28, 7.6, 8.11, 8.4, 9.74, 8.05, 8.56, 8.33, 8.16, 7.98, 7.67, 8.77, 11.26, 12.79, 12.84, 16.26, 10.81, 9.75, 8.32, 9.11, 8.82, 8.1, 8.86, 9.21, 10.73, 9.43, 7.8, 6.74, 9.87, 8.87, 8.14, 7.89, 8.51, 19.72, 18.23, 7.31, 12.55]

>  <accession>  (127) 
3Q3Y_A

>  <description>  (127) 
Chain A, HEVB EV93 3C protease [Enterovirus B]

>  <evalue>  (127) 
1.1460600000000001e-87

>  <pdb_code>  (127) 
3Q3Y

>  <chain>  (127) 
A

>  <ligands>  (127) 
[{'chain_id': 'A', 'author_residue_number': 190, 'author_insertion_code': '', 'chem_comp_id': 'XNV', 'alternate_conformers': 2, 'entity_id': 2, 'struct_asym_id': 'C', 'residue_number': 1, 'chem_comp_name': 'ethyl (4R)-4-({(2S)-2-[3-{[(5-methyl-1,2-oxazol-3-yl)carbonyl]amino}-2-oxopyridin-1(2H)-yl]pent-4-ynoyl}amino)-5-[(3S)-2-oxopyrrolidin-3-yl]pentanoate', 'weight': 525.554, 'carbohydrate_polymer': False, 'branch_name': ''}, {'chain_id': 'B', 'author_residue_number': 190, 'author_insertion_code': '', 'chem_comp_id': 'XNV', 'alternate_conformers': 2, 'entity_id': 2, 'struct_asym_id': 'L', 'residue_number': 1, 'chem_comp_name': 'ethyl (4R)-4-({(2S)-2-[3-{[(5-methyl-1,2-oxazol-3-yl)carbonyl]amino}-2-oxopyridin-1(2H)-yl]pent-4-ynoyl}amino)-5-[(3S)-2-oxopyrrolidin-3-yl]pentanoate', 'weight': 525.554, 'carbohydrate_polymer': False, 'branch_name': ''}, {'chain_id': 'A', 'author_residue_number': 191, 'author_insertion_code': '', 'chem_comp_id': 'EDO', 'alternate_conformers': 2, 'entity_id': 3, 'struct_asym_id': 'D', 'residue_number': 1, 'chem_comp_name': '1,2-ETHANEDIOL', 'weight': 62.068, 'carbohydrate_polymer': False, 'branch_name': ''}, {'chain_id': 'A', 'author_residue_number': 192, 'author_insertion_code': '', 'chem_comp_id': 'EDO', 'alternate_conformers': 2, 'entity_id': 3, 'struct_asym_id': 'E', 'residue_number': 1, 'chem_comp_name': '1,2-ETHANEDIOL', 'weight': 62.068, 'carbohydrate_polymer': False, 'branch_name': ''}, {'chain_id': 'A', 'author_residue_number': 193, 'author_insertion_code': '', 'chem_comp_id': 'EDO', 'alternate_conformers': 0, 'entity_id': 3, 'struct_asym_id': 'F', 'residue_number': 1, 'chem_comp_name': '1,2-ETHANEDIOL', 'weight': 62.068, 'carbohydrate_polymer': False, 'branch_name': ''}, {'chain_id': 'A', 'author_residue_number': 194, 'author_insertion_code': '', 'chem_comp_id': 'EDO', 'alternate_conformers': 1, 'entity_id': 3, 'struct_asym_id': 'G', 'residue_number': 1, 'chem_comp_name': '1,2-ETHANEDIOL', 'weight': 62.068, 'carbohydrate_polymer': False, 'branch_name': ''}, {'chain_id': 'B', 'author_residue_number': 191, 'author_insertion_code': '', 'chem_comp_id': 'EDO', 'alternate_conformers': 2, 'entity_id': 3, 'struct_asym_id': 'M', 'residue_number': 1, 'chem_comp_name': '1,2-ETHANEDIOL', 'weight': 62.068, 'carbohydrate_polymer': False, 'branch_name': ''}, {'chain_id': 'B', 'author_residue_number': 192, 'author_insertion_code': '', 'chem_comp_id': 'EDO', 'alternate_conformers': 0, 'entity_id': 3, 'struct_asym_id': 'N', 'residue_number': 1, 'chem_comp_name': '1,2-ETHANEDIOL', 'weight': 62.068, 'carbohydrate_polymer': False, 'branch_name': ''}, {'chain_id': 'B', 'author_residue_number': 193, 'author_insertion_code': '', 'chem_comp_id': 'EDO', 'alternate_conformers': 2, 'entity_id': 3, 'struct_asym_id': 'O', 'residue_number': 1, 'chem_comp_name': '1,2-ETHANEDIOL', 'weight': 62.068, 'carbohydrate_polymer': False, 'branch_name': ''}, {'chain_id': 'B', 'author_residue_number': 194, 'author_insertion_code': '', 'chem_comp_id': 'EDO', 'alternate_conformers': 1, 'entity_id': 3, 'struct_asym_id': 'P', 'residue_number': 1, 'chem_comp_name': '1,2-ETHANEDIOL', 'weight': 62.068, 'carbohydrate_polymer': False, 'branch_name': ''}, {'chain_id': 'A', 'author_residue_number': 195, 'author_insertion_code': '', 'chem_comp_id': 'PI', 'alternate_conformers': 1, 'entity_id': 4, 'struct_asym_id': 'H', 'residue_number': 1, 'chem_comp_name': 'HYDROGENPHOSPHATE ION', 'weight': 95.979, 'carbohydrate_polymer': False, 'branch_name': ''}, {'chain_id': 'A', 'author_residue_number': 196, 'author_insertion_code': '', 'chem_comp_id': 'PI', 'alternate_conformers': 1, 'entity_id': 4, 'struct_asym_id': 'I', 'residue_number': 1, 'chem_comp_name': 'HYDROGENPHOSPHATE ION', 'weight': 95.979, 'carbohydrate_polymer': False, 'branch_name': ''}, {'chain_id': 'B', 'author_residue_number': 195, 'author_insertion_code': '', 'chem_comp_id': 'PI', 'alternate_conformers': 1, 'entity_id': 4, 'struct_asym_id': 'Q', 'residue_number': 1, 'chem_comp_name': 'HYDROGENPHOSPHATE ION', 'weight': 95.979, 'carbohydrate_polymer': False, 'branch_name': ''}, {'chain_id': 'A', 'author_residue_number': 197, 'author_insertion_code': '', 'chem_comp_id': 'NH4', 'alternate_conformers': 2, 'entity_id': 5, 'struct_asym_id': 'J', 'residue_number': 1, 'chem_comp_name': 'AMMONIUM ION', 'weight': 18.038, 'carbohydrate_polymer': False, 'branch_name': ''}, {'chain_id': 'A', 'author_residue_number': 198, 'author_insertion_code': '', 'chem_comp_id': 'NH4', 'alternate_conformers': 0, 'entity_id': 5, 'struct_asym_id': 'K', 'residue_number': 1, 'chem_comp_name': 'AMMONIUM ION', 'weight': 18.038, 'carbohydrate_polymer': False, 'branch_name': ''}]

>  <ligand_codes>  (127) 
['XNV', 'XNV', 'EDO', 'EDO', 'EDO', 'EDO', 'EDO', 'EDO', 'EDO', 'EDO', 'PI', 'PI', 'PI', 'NH4', 'NH4']

>  <cofactor_codes>  (127) 
[]

>  <has_cofactor>  (127) 
False

>  <covalent>  (127) 
True

>  <base_name>  (127) 
3Q3Y

>  <lig_resn>  (127) 
XNV

>  <lig_resi>  (127) 
190

>  <lig_chain>  (127) 
A

>  <lig_segi>  (127) 
C

>  <lig_alt>  (127) 


>  <polymer_chain>  (127) 
A

>  <single_smiles>  (127) 
CCOC(=O)CC[C@H](C[C@@H]1CCNC1=O)NC(=O)[C@H](CC#C)N2C=CC=C(NC(=O)c3cc(C)on3)C2=O

$$$$
XNVP5S2
     RDKit          3D

 23 24  0  0  0  0  0  0  0  0999 V2000
   -8.6960   10.7850  -34.1610 N   0  0  0  0  0  0  0  0  0  0  0  0
   -8.3660   11.9860  -34.7380 C   0  0  0  0  0  0  0  0  0  0  0  0
   -9.5440   12.8720  -35.1700 C   0  0  1  0  0  0  0  0  0  0  0  0
   -7.2170   12.3540  -34.9210 O   0  0  0  0  0  0  0  0  0  0  0  0
   -9.2290   14.2940  -34.9840 N   0  0  0  0  0  0  0  0  0  0  0  0
   -9.9610   12.5320  -36.6040 C   0  0  0  0  0  0  0  0  0  0  0  0
   -9.2700   14.7400  -33.6260 C   0  0  0  0  0  0  0  0  0  0  0  0
   -8.8880   15.1740  -35.9880 C   0  0  0  0  0  0  0  0  0  0  0  0
  -11.1420   13.3100  -36.9200 C   0  0  0  0  0  0  0  0  0  0  0  0
   -9.0490   16.1590  -33.3600 C   0  0  0  0  0  0  0  0  0  0  0  0
   -9.5210   13.9120  -32.7390 O   0  0  0  0  0  0  0  0  0  0  0  0
   -8.6520   16.4840  -35.7260 C   0  0  0  0  0  0  0  0  0  0  0  0
  -12.1000   13.9360  -37.1800 C   0  0  0  0  0  0  0  0  0  0  0  0
   -9.2490   16.5750  -32.0350 N   0  0  0  0  0  0  0  0  0  0  0  0
   -8.7180   16.9980  -34.4080 C   0  0  0  0  0  0  0  0  0  0  0  0
  -10.0950   17.6650  -31.7210 C   0  0  0  0  0  0  0  0  0  0  0  0
  -10.3340   17.8140  -30.2530 C   0  0  0  0  0  0  0  0  0  0  0  0
  -10.5810   18.4340  -32.5450 O   0  0  0  0  0  0  0  0  0  0  0  0
   -9.8210   17.0290  -29.3110 N   0  0  0  0  0  0  0  0  0  0  0  0
  -11.1330   18.8400  -29.6240 C   0  0  0  0  0  0  0  0  0  0  0  0
  -10.2850   17.4780  -28.1290 O   0  0  0  0  0  0  0  0  0  0  0  0
  -11.0580   18.5830  -28.2730 C   0  0  0  0  0  0  0  0  0  0  0  0
  -11.6710   19.3000  -27.1340 C   0  0  0  0  0  0  0  0  0  0  0  0
  1  2  1  0
  2  3  1  0
  2  4  1  0
  3  5  1  0
  3  6  1  6
  5  7  1  0
  5  8  1  0
  6  9  1  0
  7 10  1  0
  7 11  1  0
 12  8  1  0
  9 13  1  0
 10 14  1  0
 10 15  1  0
 15 12  1  0
 14 16  1  0
 16 17  1  0
 16 18  1  0
 17 19  1  0
 17 20  1  0
 19 21  1  0
 22 20  1  0
 21 22  1  0
 22 23  1  0
A    2
 C09
A    3
 C10
A    4
 O30
A    5
 N11
A    6
 C27
A    7
 C12
A    8
 C25
A    9
 C28
A   10
 C13
A   11
 O26
A   12
 C24
A   13
 C29
A   14
 N14
A   15
 C23
A   16
 C15
A   17
 C16
A   18
 O22
A   19
 N17
A   20
 C21
A   21
 O18
A   22
 C19
A   23
 C20
M  END
>  <XChem_code>  (128) 
XNV§5

>  <Occupancy>  (128) 
[0.69, 0.31, 0.69, 0.31, 0.69, 0.31, 0.69, 0.31, 1.0, 1.0, 1.0, 1.0, 1.0, 1.0, 1.0, 1.0, 1.0, 1.0, 1.0, 1.0, 1.0, 1.0, 1.0, 1.0, 1.0, 1.0, 1.0, 1.0, 1.0, 1.0, 1.0, 1.0, 1.0, 1.0, 1.0, 1.0, 1.0, 1.0, 1.0, 1.0, 0.69, 0.31, 1.0, 1.0]

>  <TempFactor>  (128) 
[53.57, 61.0, 41.59, 49.21, 23.74, 32.51, 19.1, 21.28, 7.6, 8.11, 8.4, 9.74, 8.05, 8.56, 8.33, 8.16, 7.98, 7.67, 8.77, 11.26, 12.79, 12.84, 16.26, 10.81, 9.75, 8.32, 9.11, 8.82, 8.1, 8.86, 9.21, 10.73, 9.43, 7.8, 6.74, 9.87, 8.87, 8.14, 7.89, 8.51, 19.72, 18.23, 7.31, 12.55]

>  <accession>  (128) 
3Q3Y_A

>  <description>  (128) 
Chain A, HEVB EV93 3C protease [Enterovirus B]

>  <evalue>  (128) 
1.1460600000000001e-87

>  <pdb_code>  (128) 
3Q3Y

>  <chain>  (128) 
A

>  <ligands>  (128) 
[{'chain_id': 'A', 'author_residue_number': 190, 'author_insertion_code': '', 'chem_comp_id': 'XNV', 'alternate_conformers': 2, 'entity_id': 2, 'struct_asym_id': 'C', 'residue_number': 1, 'chem_comp_name': 'ethyl (4R)-4-({(2S)-2-[3-{[(5-methyl-1,2-oxazol-3-yl)carbonyl]amino}-2-oxopyridin-1(2H)-yl]pent-4-ynoyl}amino)-5-[(3S)-2-oxopyrrolidin-3-yl]pentanoate', 'weight': 525.554, 'carbohydrate_polymer': False, 'branch_name': ''}, {'chain_id': 'B', 'author_residue_number': 190, 'author_insertion_code': '', 'chem_comp_id': 'XNV', 'alternate_conformers': 2, 'entity_id': 2, 'struct_asym_id': 'L', 'residue_number': 1, 'chem_comp_name': 'ethyl (4R)-4-({(2S)-2-[3-{[(5-methyl-1,2-oxazol-3-yl)carbonyl]amino}-2-oxopyridin-1(2H)-yl]pent-4-ynoyl}amino)-5-[(3S)-2-oxopyrrolidin-3-yl]pentanoate', 'weight': 525.554, 'carbohydrate_polymer': False, 'branch_name': ''}, {'chain_id': 'A', 'author_residue_number': 191, 'author_insertion_code': '', 'chem_comp_id': 'EDO', 'alternate_conformers': 2, 'entity_id': 3, 'struct_asym_id': 'D', 'residue_number': 1, 'chem_comp_name': '1,2-ETHANEDIOL', 'weight': 62.068, 'carbohydrate_polymer': False, 'branch_name': ''}, {'chain_id': 'A', 'author_residue_number': 192, 'author_insertion_code': '', 'chem_comp_id': 'EDO', 'alternate_conformers': 2, 'entity_id': 3, 'struct_asym_id': 'E', 'residue_number': 1, 'chem_comp_name': '1,2-ETHANEDIOL', 'weight': 62.068, 'carbohydrate_polymer': False, 'branch_name': ''}, {'chain_id': 'A', 'author_residue_number': 193, 'author_insertion_code': '', 'chem_comp_id': 'EDO', 'alternate_conformers': 0, 'entity_id': 3, 'struct_asym_id': 'F', 'residue_number': 1, 'chem_comp_name': '1,2-ETHANEDIOL', 'weight': 62.068, 'carbohydrate_polymer': False, 'branch_name': ''}, {'chain_id': 'A', 'author_residue_number': 194, 'author_insertion_code': '', 'chem_comp_id': 'EDO', 'alternate_conformers': 1, 'entity_id': 3, 'struct_asym_id': 'G', 'residue_number': 1, 'chem_comp_name': '1,2-ETHANEDIOL', 'weight': 62.068, 'carbohydrate_polymer': False, 'branch_name': ''}, {'chain_id': 'B', 'author_residue_number': 191, 'author_insertion_code': '', 'chem_comp_id': 'EDO', 'alternate_conformers': 2, 'entity_id': 3, 'struct_asym_id': 'M', 'residue_number': 1, 'chem_comp_name': '1,2-ETHANEDIOL', 'weight': 62.068, 'carbohydrate_polymer': False, 'branch_name': ''}, {'chain_id': 'B', 'author_residue_number': 192, 'author_insertion_code': '', 'chem_comp_id': 'EDO', 'alternate_conformers': 0, 'entity_id': 3, 'struct_asym_id': 'N', 'residue_number': 1, 'chem_comp_name': '1,2-ETHANEDIOL', 'weight': 62.068, 'carbohydrate_polymer': False, 'branch_name': ''}, {'chain_id': 'B', 'author_residue_number': 193, 'author_insertion_code': '', 'chem_comp_id': 'EDO', 'alternate_conformers': 2, 'entity_id': 3, 'struct_asym_id': 'O', 'residue_number': 1, 'chem_comp_name': '1,2-ETHANEDIOL', 'weight': 62.068, 'carbohydrate_polymer': False, 'branch_name': ''}, {'chain_id': 'B', 'author_residue_number': 194, 'author_insertion_code': '', 'chem_comp_id': 'EDO', 'alternate_conformers': 1, 'entity_id': 3, 'struct_asym_id': 'P', 'residue_number': 1, 'chem_comp_name': '1,2-ETHANEDIOL', 'weight': 62.068, 'carbohydrate_polymer': False, 'branch_name': ''}, {'chain_id': 'A', 'author_residue_number': 195, 'author_insertion_code': '', 'chem_comp_id': 'PI', 'alternate_conformers': 1, 'entity_id': 4, 'struct_asym_id': 'H', 'residue_number': 1, 'chem_comp_name': 'HYDROGENPHOSPHATE ION', 'weight': 95.979, 'carbohydrate_polymer': False, 'branch_name': ''}, {'chain_id': 'A', 'author_residue_number': 196, 'author_insertion_code': '', 'chem_comp_id': 'PI', 'alternate_conformers': 1, 'entity_id': 4, 'struct_asym_id': 'I', 'residue_number': 1, 'chem_comp_name': 'HYDROGENPHOSPHATE ION', 'weight': 95.979, 'carbohydrate_polymer': False, 'branch_name': ''}, {'chain_id': 'B', 'author_residue_number': 195, 'author_insertion_code': '', 'chem_comp_id': 'PI', 'alternate_conformers': 1, 'entity_id': 4, 'struct_asym_id': 'Q', 'residue_number': 1, 'chem_comp_name': 'HYDROGENPHOSPHATE ION', 'weight': 95.979, 'carbohydrate_polymer': False, 'branch_name': ''}, {'chain_id': 'A', 'author_residue_number': 197, 'author_insertion_code': '', 'chem_comp_id': 'NH4', 'alternate_conformers': 2, 'entity_id': 5, 'struct_asym_id': 'J', 'residue_number': 1, 'chem_comp_name': 'AMMONIUM ION', 'weight': 18.038, 'carbohydrate_polymer': False, 'branch_name': ''}, {'chain_id': 'A', 'author_residue_number': 198, 'author_insertion_code': '', 'chem_comp_id': 'NH4', 'alternate_conformers': 0, 'entity_id': 5, 'struct_asym_id': 'K', 'residue_number': 1, 'chem_comp_name': 'AMMONIUM ION', 'weight': 18.038, 'carbohydrate_polymer': False, 'branch_name': ''}]

>  <ligand_codes>  (128) 
['XNV', 'XNV', 'EDO', 'EDO', 'EDO', 'EDO', 'EDO', 'EDO', 'EDO', 'EDO', 'PI', 'PI', 'PI', 'NH4', 'NH4']

>  <cofactor_codes>  (128) 
[]

>  <has_cofactor>  (128) 
False

>  <covalent>  (128) 
True

>  <base_name>  (128) 
3Q3Y

>  <lig_resn>  (128) 
XNV

>  <lig_resi>  (128) 
190

>  <lig_chain>  (128) 
A

>  <lig_segi>  (128) 
C

>  <lig_alt>  (128) 


>  <polymer_chain>  (128) 
A

>  <single_smiles>  (128) 
CCOC(=O)CC[C@H](C[C@@H]1CCNC1=O)NC(=O)[C@H](CC#C)N2C=CC=C(NC(=O)c3cc(C)on3)C2=O

$$$$
XNVP5S3
     RDKit          3D

 22 23  0  0  0  0  0  0  0  0999 V2000
   -8.3660   11.9860  -34.7380 C   0  0  0  0  0  0  0  0  0  0  0  0
   -9.5440   12.8720  -35.1700 C   0  0  1  0  0  0  0  0  0  0  0  0
   -7.2170   12.3540  -34.9210 O   0  0  0  0  0  0  0  0  0  0  0  0
   -9.2290   14.2940  -34.9840 N   0  0  0  0  0  0  0  0  0  0  0  0
   -9.9610   12.5320  -36.6040 C   0  0  0  0  0  0  0  0  0  0  0  0
   -9.2700   14.7400  -33.6260 C   0  0  0  0  0  0  0  0  0  0  0  0
   -8.8880   15.1740  -35.9880 C   0  0  0  0  0  0  0  0  0  0  0  0
  -11.1420   13.3100  -36.9200 C   0  0  0  0  0  0  0  0  0  0  0  0
   -9.0490   16.1590  -33.3600 C   0  0  0  0  0  0  0  0  0  0  0  0
   -9.5210   13.9120  -32.7390 O   0  0  0  0  0  0  0  0  0  0  0  0
   -8.6520   16.4840  -35.7260 C   0  0  0  0  0  0  0  0  0  0  0  0
  -12.1000   13.9360  -37.1800 C   0  0  0  0  0  0  0  0  0  0  0  0
   -9.2490   16.5750  -32.0350 N   0  0  0  0  0  0  0  0  0  0  0  0
   -8.7180   16.9980  -34.4080 C   0  0  0  0  0  0  0  0  0  0  0  0
  -10.0950   17.6650  -31.7210 C   0  0  0  0  0  0  0  0  0  0  0  0
  -10.3340   17.8140  -30.2530 C   0  0  0  0  0  0  0  0  0  0  0  0
  -10.5810   18.4340  -32.5450 O   0  0  0  0  0  0  0  0  0  0  0  0
   -9.8210   17.0290  -29.3110 N   0  0  0  0  0  0  0  0  0  0  0  0
  -11.1330   18.8400  -29.6240 C   0  0  0  0  0  0  0  0  0  0  0  0
  -10.2850   17.4780  -28.1290 O   0  0  0  0  0  0  0  0  0  0  0  0
  -11.0580   18.5830  -28.2730 C   0  0  0  0  0  0  0  0  0  0  0  0
  -11.6710   19.3000  -27.1340 C   0  0  0  0  0  0  0  0  0  0  0  0
  2  1  1  6
  1  3  1  0
  2  4  1  0
  2  5  1  0
  4  6  1  0
  4  7  1  0
  5  8  1  0
  6  9  1  0
  6 10  1  0
 11  7  1  0
  8 12  1  0
  9 13  1  0
  9 14  1  0
 14 11  1  0
 13 15  1  0
 15 16  1  0
 15 17  1  0
 16 18  1  0
 16 19  1  0
 18 20  1  0
 21 19  1  0
 20 21  1  0
 21 22  1  0
A    2
 C10
A    3
 O30
A    4
 N11
A    5
 C27
A    6
 C12
A    7
 C25
A    8
 C28
A    9
 C13
A   10
 O26
A   11
 C24
A   12
 C29
A   13
 N14
A   14
 C23
A   15
 C15
A   16
 C16
A   17
 O22
A   18
 N17
A   19
 C21
A   20
 O18
A   21
 C19
A   22
 C20
M  END
>  <XChem_code>  (129) 
XNV§5

>  <Occupancy>  (129) 
[0.69, 0.31, 0.69, 0.31, 0.69, 0.31, 0.69, 0.31, 1.0, 1.0, 1.0, 1.0, 1.0, 1.0, 1.0, 1.0, 1.0, 1.0, 1.0, 1.0, 1.0, 1.0, 1.0, 1.0, 1.0, 1.0, 1.0, 1.0, 1.0, 1.0, 1.0, 1.0, 1.0, 1.0, 1.0, 1.0, 1.0, 1.0, 1.0, 1.0, 0.69, 0.31, 1.0, 1.0]

>  <TempFactor>  (129) 
[53.57, 61.0, 41.59, 49.21, 23.74, 32.51, 19.1, 21.28, 7.6, 8.11, 8.4, 9.74, 8.05, 8.56, 8.33, 8.16, 7.98, 7.67, 8.77, 11.26, 12.79, 12.84, 16.26, 10.81, 9.75, 8.32, 9.11, 8.82, 8.1, 8.86, 9.21, 10.73, 9.43, 7.8, 6.74, 9.87, 8.87, 8.14, 7.89, 8.51, 19.72, 18.23, 7.31, 12.55]

>  <accession>  (129) 
3Q3Y_A

>  <description>  (129) 
Chain A, HEVB EV93 3C protease [Enterovirus B]

>  <evalue>  (129) 
1.1460600000000001e-87

>  <pdb_code>  (129) 
3Q3Y

>  <chain>  (129) 
A

>  <ligands>  (129) 
[{'chain_id': 'A', 'author_residue_number': 190, 'author_insertion_code': '', 'chem_comp_id': 'XNV', 'alternate_conformers': 2, 'entity_id': 2, 'struct_asym_id': 'C', 'residue_number': 1, 'chem_comp_name': 'ethyl (4R)-4-({(2S)-2-[3-{[(5-methyl-1,2-oxazol-3-yl)carbonyl]amino}-2-oxopyridin-1(2H)-yl]pent-4-ynoyl}amino)-5-[(3S)-2-oxopyrrolidin-3-yl]pentanoate', 'weight': 525.554, 'carbohydrate_polymer': False, 'branch_name': ''}, {'chain_id': 'B', 'author_residue_number': 190, 'author_insertion_code': '', 'chem_comp_id': 'XNV', 'alternate_conformers': 2, 'entity_id': 2, 'struct_asym_id': 'L', 'residue_number': 1, 'chem_comp_name': 'ethyl (4R)-4-({(2S)-2-[3-{[(5-methyl-1,2-oxazol-3-yl)carbonyl]amino}-2-oxopyridin-1(2H)-yl]pent-4-ynoyl}amino)-5-[(3S)-2-oxopyrrolidin-3-yl]pentanoate', 'weight': 525.554, 'carbohydrate_polymer': False, 'branch_name': ''}, {'chain_id': 'A', 'author_residue_number': 191, 'author_insertion_code': '', 'chem_comp_id': 'EDO', 'alternate_conformers': 2, 'entity_id': 3, 'struct_asym_id': 'D', 'residue_number': 1, 'chem_comp_name': '1,2-ETHANEDIOL', 'weight': 62.068, 'carbohydrate_polymer': False, 'branch_name': ''}, {'chain_id': 'A', 'author_residue_number': 192, 'author_insertion_code': '', 'chem_comp_id': 'EDO', 'alternate_conformers': 2, 'entity_id': 3, 'struct_asym_id': 'E', 'residue_number': 1, 'chem_comp_name': '1,2-ETHANEDIOL', 'weight': 62.068, 'carbohydrate_polymer': False, 'branch_name': ''}, {'chain_id': 'A', 'author_residue_number': 193, 'author_insertion_code': '', 'chem_comp_id': 'EDO', 'alternate_conformers': 0, 'entity_id': 3, 'struct_asym_id': 'F', 'residue_number': 1, 'chem_comp_name': '1,2-ETHANEDIOL', 'weight': 62.068, 'carbohydrate_polymer': False, 'branch_name': ''}, {'chain_id': 'A', 'author_residue_number': 194, 'author_insertion_code': '', 'chem_comp_id': 'EDO', 'alternate_conformers': 1, 'entity_id': 3, 'struct_asym_id': 'G', 'residue_number': 1, 'chem_comp_name': '1,2-ETHANEDIOL', 'weight': 62.068, 'carbohydrate_polymer': False, 'branch_name': ''}, {'chain_id': 'B', 'author_residue_number': 191, 'author_insertion_code': '', 'chem_comp_id': 'EDO', 'alternate_conformers': 2, 'entity_id': 3, 'struct_asym_id': 'M', 'residue_number': 1, 'chem_comp_name': '1,2-ETHANEDIOL', 'weight': 62.068, 'carbohydrate_polymer': False, 'branch_name': ''}, {'chain_id': 'B', 'author_residue_number': 192, 'author_insertion_code': '', 'chem_comp_id': 'EDO', 'alternate_conformers': 0, 'entity_id': 3, 'struct_asym_id': 'N', 'residue_number': 1, 'chem_comp_name': '1,2-ETHANEDIOL', 'weight': 62.068, 'carbohydrate_polymer': False, 'branch_name': ''}, {'chain_id': 'B', 'author_residue_number': 193, 'author_insertion_code': '', 'chem_comp_id': 'EDO', 'alternate_conformers': 2, 'entity_id': 3, 'struct_asym_id': 'O', 'residue_number': 1, 'chem_comp_name': '1,2-ETHANEDIOL', 'weight': 62.068, 'carbohydrate_polymer': False, 'branch_name': ''}, {'chain_id': 'B', 'author_residue_number': 194, 'author_insertion_code': '', 'chem_comp_id': 'EDO', 'alternate_conformers': 1, 'entity_id': 3, 'struct_asym_id': 'P', 'residue_number': 1, 'chem_comp_name': '1,2-ETHANEDIOL', 'weight': 62.068, 'carbohydrate_polymer': False, 'branch_name': ''}, {'chain_id': 'A', 'author_residue_number': 195, 'author_insertion_code': '', 'chem_comp_id': 'PI', 'alternate_conformers': 1, 'entity_id': 4, 'struct_asym_id': 'H', 'residue_number': 1, 'chem_comp_name': 'HYDROGENPHOSPHATE ION', 'weight': 95.979, 'carbohydrate_polymer': False, 'branch_name': ''}, {'chain_id': 'A', 'author_residue_number': 196, 'author_insertion_code': '', 'chem_comp_id': 'PI', 'alternate_conformers': 1, 'entity_id': 4, 'struct_asym_id': 'I', 'residue_number': 1, 'chem_comp_name': 'HYDROGENPHOSPHATE ION', 'weight': 95.979, 'carbohydrate_polymer': False, 'branch_name': ''}, {'chain_id': 'B', 'author_residue_number': 195, 'author_insertion_code': '', 'chem_comp_id': 'PI', 'alternate_conformers': 1, 'entity_id': 4, 'struct_asym_id': 'Q', 'residue_number': 1, 'chem_comp_name': 'HYDROGENPHOSPHATE ION', 'weight': 95.979, 'carbohydrate_polymer': False, 'branch_name': ''}, {'chain_id': 'A', 'author_residue_number': 197, 'author_insertion_code': '', 'chem_comp_id': 'NH4', 'alternate_conformers': 2, 'entity_id': 5, 'struct_asym_id': 'J', 'residue_number': 1, 'chem_comp_name': 'AMMONIUM ION', 'weight': 18.038, 'carbohydrate_polymer': False, 'branch_name': ''}, {'chain_id': 'A', 'author_residue_number': 198, 'author_insertion_code': '', 'chem_comp_id': 'NH4', 'alternate_conformers': 0, 'entity_id': 5, 'struct_asym_id': 'K', 'residue_number': 1, 'chem_comp_name': 'AMMONIUM ION', 'weight': 18.038, 'carbohydrate_polymer': False, 'branch_name': ''}]

>  <ligand_codes>  (129) 
['XNV', 'XNV', 'EDO', 'EDO', 'EDO', 'EDO', 'EDO', 'EDO', 'EDO', 'EDO', 'PI', 'PI', 'PI', 'NH4', 'NH4']

>  <cofactor_codes>  (129) 
[]

>  <has_cofactor>  (129) 
False

>  <covalent>  (129) 
True

>  <base_name>  (129) 
3Q3Y

>  <lig_resn>  (129) 
XNV

>  <lig_resi>  (129) 
190

>  <lig_chain>  (129) 
A

>  <lig_segi>  (129) 
C

>  <lig_alt>  (129) 


>  <polymer_chain>  (129) 
A

>  <single_smiles>  (129) 
CCOC(=O)CC[C@H](C[C@@H]1CCNC1=O)NC(=O)[C@H](CC#C)N2C=CC=C(NC(=O)c3cc(C)on3)C2=O

$$$$
XNVP5S4
     RDKit          3D

 22 22  0  0  0  0  0  0  0  0999 V2000
   -8.6960   10.7850  -34.1610 N   0  0  0  0  0  0  0  0  0  0  0  0
   -7.6700    9.8230  -33.7780 C   0  0  2  0  0  0  0  0  0  0  0  0
   -8.0140    8.4320  -34.3930 C   0  0  1  0  0  0  0  0  0  0  0  0
   -7.5070    9.7730  -32.2370 C   0  0  0  0  0  0  0  0  0  0  0  0
   -9.6590    8.0130  -33.9280 R   0  0  0  0  0  0  0  0  0  0  0  0
   -7.7310    8.3810  -35.9230 R   0  0  0  0  0  0  0  0  0  0  0  0
   -7.1020   11.0700  -31.5740 C   0  0  2  0  0  0  0  0  0  0  0  0
   -6.2830    8.2890  -36.3860 C   0  0  1  0  0  0  0  0  0  0  0  0
   -6.2390    8.3590  -36.3130 C   0  0  2  0  0  0  0  0  0  0  0  0
   -5.6570   11.5300  -31.9370 C   0  0  0  0  0  0  0  0  0  0  0  0
   -7.0130   10.9790  -30.0830 C   0  0  0  0  0  0  0  0  0  0  0  0
   -5.9620    9.3890  -37.1520 O   0  0  0  0  0  0  0  0  0  0  0  0
   -5.3980    7.7430  -35.7710 O   0  0  0  0  0  0  0  0  0  0  0  0
   -5.9500    7.3430  -37.2070 O   0  0  0  0  0  0  0  0  0  0  0  0
   -5.3090    8.7040  -35.6100 O   0  0  0  0  0  0  0  0  0  0  0  0
   -5.2110   12.3590  -30.7450 C   0  0  0  0  0  0  0  0  0  0  0  0
   -5.9230   11.6850  -29.6600 N   0  0  0  0  0  0  0  0  0  0  0  0
   -7.8230   10.4100  -29.3700 O   0  0  0  0  0  0  0  0  0  0  0  0
   -4.5680    9.6340  -37.4070 C   0  0  0  0  0  0  0  0  0  0  0  0
   -6.9670    6.7070  -37.9880 C   0  0  0  0  0  0  0  0  0  0  0  0
   -4.2700   11.1150  -37.7120 C   0  0  0  0  0  0  0  0  0  0  0  0
   -6.4370    5.4350  -38.6720 C   0  0  0  0  0  0  0  0  0  0  0  0
  2  1  1  1
  3  2  1  0
  2  4  1  0
  3  5  1  6
  3  6  1  0
  7  4  1  6
  8  6  1  0
  9  6  1  0
  7 10  1  0
  7 11  1  0
 12  8  1  0
  8 13  1  1
 14  9  1  0
  9 15  1  1
 10 16  1  0
 17 11  1  0
 11 18  1  0
 19 12  1  0
 20 14  1  0
 16 17  1  0
 21 19  1  0
 22 20  1  0
V    5 *
V    6 *
A    2
 C07
A    3
 C06
A    4
 C31
A    5
 X  
A    6
 X  
A    7
 C32
A    8
 C04
A    9
 C04
A   10
 C33
A   11
 C36
A   12
 O03
A   13
 O38
A   14
 O03
A   15
 O38
A   16
 C34
A   17
 N35
A   18
 O37
A   19
 C02
A   20
 C02
A   21
 C01
A   22
 C01
M  END
>  <XChem_code>  (130) 
XNV§5

>  <Occupancy>  (130) 
[0.69, 0.31, 0.69, 0.31, 0.69, 0.31, 0.69, 0.31, 1.0, 1.0, 1.0, 1.0, 1.0, 1.0, 1.0, 1.0, 1.0, 1.0, 1.0, 1.0, 1.0, 1.0, 1.0, 1.0, 1.0, 1.0, 1.0, 1.0, 1.0, 1.0, 1.0, 1.0, 1.0, 1.0, 1.0, 1.0, 1.0, 1.0, 1.0, 1.0, 0.69, 0.31, 1.0, 1.0]

>  <TempFactor>  (130) 
[53.57, 61.0, 41.59, 49.21, 23.74, 32.51, 19.1, 21.28, 7.6, 8.11, 8.4, 9.74, 8.05, 8.56, 8.33, 8.16, 7.98, 7.67, 8.77, 11.26, 12.79, 12.84, 16.26, 10.81, 9.75, 8.32, 9.11, 8.82, 8.1, 8.86, 9.21, 10.73, 9.43, 7.8, 6.74, 9.87, 8.87, 8.14, 7.89, 8.51, 19.72, 18.23, 7.31, 12.55]

>  <accession>  (130) 
3Q3Y_A

>  <description>  (130) 
Chain A, HEVB EV93 3C protease [Enterovirus B]

>  <evalue>  (130) 
1.1460600000000001e-87

>  <pdb_code>  (130) 
3Q3Y

>  <chain>  (130) 
A

>  <ligands>  (130) 
[{'chain_id': 'A', 'author_residue_number': 190, 'author_insertion_code': '', 'chem_comp_id': 'XNV', 'alternate_conformers': 2, 'entity_id': 2, 'struct_asym_id': 'C', 'residue_number': 1, 'chem_comp_name': 'ethyl (4R)-4-({(2S)-2-[3-{[(5-methyl-1,2-oxazol-3-yl)carbonyl]amino}-2-oxopyridin-1(2H)-yl]pent-4-ynoyl}amino)-5-[(3S)-2-oxopyrrolidin-3-yl]pentanoate', 'weight': 525.554, 'carbohydrate_polymer': False, 'branch_name': ''}, {'chain_id': 'B', 'author_residue_number': 190, 'author_insertion_code': '', 'chem_comp_id': 'XNV', 'alternate_conformers': 2, 'entity_id': 2, 'struct_asym_id': 'L', 'residue_number': 1, 'chem_comp_name': 'ethyl (4R)-4-({(2S)-2-[3-{[(5-methyl-1,2-oxazol-3-yl)carbonyl]amino}-2-oxopyridin-1(2H)-yl]pent-4-ynoyl}amino)-5-[(3S)-2-oxopyrrolidin-3-yl]pentanoate', 'weight': 525.554, 'carbohydrate_polymer': False, 'branch_name': ''}, {'chain_id': 'A', 'author_residue_number': 191, 'author_insertion_code': '', 'chem_comp_id': 'EDO', 'alternate_conformers': 2, 'entity_id': 3, 'struct_asym_id': 'D', 'residue_number': 1, 'chem_comp_name': '1,2-ETHANEDIOL', 'weight': 62.068, 'carbohydrate_polymer': False, 'branch_name': ''}, {'chain_id': 'A', 'author_residue_number': 192, 'author_insertion_code': '', 'chem_comp_id': 'EDO', 'alternate_conformers': 2, 'entity_id': 3, 'struct_asym_id': 'E', 'residue_number': 1, 'chem_comp_name': '1,2-ETHANEDIOL', 'weight': 62.068, 'carbohydrate_polymer': False, 'branch_name': ''}, {'chain_id': 'A', 'author_residue_number': 193, 'author_insertion_code': '', 'chem_comp_id': 'EDO', 'alternate_conformers': 0, 'entity_id': 3, 'struct_asym_id': 'F', 'residue_number': 1, 'chem_comp_name': '1,2-ETHANEDIOL', 'weight': 62.068, 'carbohydrate_polymer': False, 'branch_name': ''}, {'chain_id': 'A', 'author_residue_number': 194, 'author_insertion_code': '', 'chem_comp_id': 'EDO', 'alternate_conformers': 1, 'entity_id': 3, 'struct_asym_id': 'G', 'residue_number': 1, 'chem_comp_name': '1,2-ETHANEDIOL', 'weight': 62.068, 'carbohydrate_polymer': False, 'branch_name': ''}, {'chain_id': 'B', 'author_residue_number': 191, 'author_insertion_code': '', 'chem_comp_id': 'EDO', 'alternate_conformers': 2, 'entity_id': 3, 'struct_asym_id': 'M', 'residue_number': 1, 'chem_comp_name': '1,2-ETHANEDIOL', 'weight': 62.068, 'carbohydrate_polymer': False, 'branch_name': ''}, {'chain_id': 'B', 'author_residue_number': 192, 'author_insertion_code': '', 'chem_comp_id': 'EDO', 'alternate_conformers': 0, 'entity_id': 3, 'struct_asym_id': 'N', 'residue_number': 1, 'chem_comp_name': '1,2-ETHANEDIOL', 'weight': 62.068, 'carbohydrate_polymer': False, 'branch_name': ''}, {'chain_id': 'B', 'author_residue_number': 193, 'author_insertion_code': '', 'chem_comp_id': 'EDO', 'alternate_conformers': 2, 'entity_id': 3, 'struct_asym_id': 'O', 'residue_number': 1, 'chem_comp_name': '1,2-ETHANEDIOL', 'weight': 62.068, 'carbohydrate_polymer': False, 'branch_name': ''}, {'chain_id': 'B', 'author_residue_number': 194, 'author_insertion_code': '', 'chem_comp_id': 'EDO', 'alternate_conformers': 1, 'entity_id': 3, 'struct_asym_id': 'P', 'residue_number': 1, 'chem_comp_name': '1,2-ETHANEDIOL', 'weight': 62.068, 'carbohydrate_polymer': False, 'branch_name': ''}, {'chain_id': 'A', 'author_residue_number': 195, 'author_insertion_code': '', 'chem_comp_id': 'PI', 'alternate_conformers': 1, 'entity_id': 4, 'struct_asym_id': 'H', 'residue_number': 1, 'chem_comp_name': 'HYDROGENPHOSPHATE ION', 'weight': 95.979, 'carbohydrate_polymer': False, 'branch_name': ''}, {'chain_id': 'A', 'author_residue_number': 196, 'author_insertion_code': '', 'chem_comp_id': 'PI', 'alternate_conformers': 1, 'entity_id': 4, 'struct_asym_id': 'I', 'residue_number': 1, 'chem_comp_name': 'HYDROGENPHOSPHATE ION', 'weight': 95.979, 'carbohydrate_polymer': False, 'branch_name': ''}, {'chain_id': 'B', 'author_residue_number': 195, 'author_insertion_code': '', 'chem_comp_id': 'PI', 'alternate_conformers': 1, 'entity_id': 4, 'struct_asym_id': 'Q', 'residue_number': 1, 'chem_comp_name': 'HYDROGENPHOSPHATE ION', 'weight': 95.979, 'carbohydrate_polymer': False, 'branch_name': ''}, {'chain_id': 'A', 'author_residue_number': 197, 'author_insertion_code': '', 'chem_comp_id': 'NH4', 'alternate_conformers': 2, 'entity_id': 5, 'struct_asym_id': 'J', 'residue_number': 1, 'chem_comp_name': 'AMMONIUM ION', 'weight': 18.038, 'carbohydrate_polymer': False, 'branch_name': ''}, {'chain_id': 'A', 'author_residue_number': 198, 'author_insertion_code': '', 'chem_comp_id': 'NH4', 'alternate_conformers': 0, 'entity_id': 5, 'struct_asym_id': 'K', 'residue_number': 1, 'chem_comp_name': 'AMMONIUM ION', 'weight': 18.038, 'carbohydrate_polymer': False, 'branch_name': ''}]

>  <ligand_codes>  (130) 
['XNV', 'XNV', 'EDO', 'EDO', 'EDO', 'EDO', 'EDO', 'EDO', 'EDO', 'EDO', 'PI', 'PI', 'PI', 'NH4', 'NH4']

>  <cofactor_codes>  (130) 
[]

>  <has_cofactor>  (130) 
False

>  <covalent>  (130) 
True

>  <base_name>  (130) 
3Q3Y

>  <lig_resn>  (130) 
XNV

>  <lig_resi>  (130) 
190

>  <lig_chain>  (130) 
A

>  <lig_segi>  (130) 
C

>  <lig_alt>  (130) 


>  <polymer_chain>  (130) 
A

>  <single_smiles>  (130) 
CCOC(=O)CC[C@H](C[C@@H]1CCNC1=O)NC(=O)[C@H](CC#C)N2C=CC=C(NC(=O)c3cc(C)on3)C2=O

$$$$
XNVP5S5
     RDKit          3D

 16 17  0  0  0  0  0  0  0  0999 V2000
   -9.2290   14.2940  -34.9840 N   0  0  0  0  0  0  0  0  0  0  0  0
   -9.2700   14.7400  -33.6260 C   0  0  0  0  0  0  0  0  0  0  0  0
   -8.8880   15.1740  -35.9880 C   0  0  0  0  0  0  0  0  0  0  0  0
   -9.0490   16.1590  -33.3600 C   0  0  0  0  0  0  0  0  0  0  0  0
   -9.5210   13.9120  -32.7390 O   0  0  0  0  0  0  0  0  0  0  0  0
   -8.6520   16.4840  -35.7260 C   0  0  0  0  0  0  0  0  0  0  0  0
   -9.2490   16.5750  -32.0350 N   0  0  0  0  0  0  0  0  0  0  0  0
   -8.7180   16.9980  -34.4080 C   0  0  0  0  0  0  0  0  0  0  0  0
  -10.0950   17.6650  -31.7210 C   0  0  0  0  0  0  0  0  0  0  0  0
  -10.3340   17.8140  -30.2530 C   0  0  0  0  0  0  0  0  0  0  0  0
  -10.5810   18.4340  -32.5450 O   0  0  0  0  0  0  0  0  0  0  0  0
   -9.8210   17.0290  -29.3110 N   0  0  0  0  0  0  0  0  0  0  0  0
  -11.1330   18.8400  -29.6240 C   0  0  0  0  0  0  0  0  0  0  0  0
  -10.2850   17.4780  -28.1290 O   0  0  0  0  0  0  0  0  0  0  0  0
  -11.0580   18.5830  -28.2730 C   0  0  0  0  0  0  0  0  0  0  0  0
  -11.6710   19.3000  -27.1340 C   0  0  0  0  0  0  0  0  0  0  0  0
  1  2  1  0
  1  3  1  0
  2  4  1  0
  2  5  1  0
  6  3  1  0
  4  7  1  0
  4  8  1  0
  8  6  1  0
  7  9  1  0
  9 10  1  0
  9 11  1  0
 10 12  1  0
 10 13  1  0
 12 14  1  0
 15 13  1  0
 14 15  1  0
 15 16  1  0
A    2
 C12
A    3
 C25
A    4
 C13
A    5
 O26
A    6
 C24
A    7
 N14
A    8
 C23
A    9
 C15
A   10
 C16
A   11
 O22
A   12
 N17
A   13
 C21
A   14
 O18
A   15
 C19
A   16
 C20
M  END
>  <XChem_code>  (131) 
XNV§5

>  <Occupancy>  (131) 
[0.69, 0.31, 0.69, 0.31, 0.69, 0.31, 0.69, 0.31, 1.0, 1.0, 1.0, 1.0, 1.0, 1.0, 1.0, 1.0, 1.0, 1.0, 1.0, 1.0, 1.0, 1.0, 1.0, 1.0, 1.0, 1.0, 1.0, 1.0, 1.0, 1.0, 1.0, 1.0, 1.0, 1.0, 1.0, 1.0, 1.0, 1.0, 1.0, 1.0, 0.69, 0.31, 1.0, 1.0]

>  <TempFactor>  (131) 
[53.57, 61.0, 41.59, 49.21, 23.74, 32.51, 19.1, 21.28, 7.6, 8.11, 8.4, 9.74, 8.05, 8.56, 8.33, 8.16, 7.98, 7.67, 8.77, 11.26, 12.79, 12.84, 16.26, 10.81, 9.75, 8.32, 9.11, 8.82, 8.1, 8.86, 9.21, 10.73, 9.43, 7.8, 6.74, 9.87, 8.87, 8.14, 7.89, 8.51, 19.72, 18.23, 7.31, 12.55]

>  <accession>  (131) 
3Q3Y_A

>  <description>  (131) 
Chain A, HEVB EV93 3C protease [Enterovirus B]

>  <evalue>  (131) 
1.1460600000000001e-87

>  <pdb_code>  (131) 
3Q3Y

>  <chain>  (131) 
A

>  <ligands>  (131) 
[{'chain_id': 'A', 'author_residue_number': 190, 'author_insertion_code': '', 'chem_comp_id': 'XNV', 'alternate_conformers': 2, 'entity_id': 2, 'struct_asym_id': 'C', 'residue_number': 1, 'chem_comp_name': 'ethyl (4R)-4-({(2S)-2-[3-{[(5-methyl-1,2-oxazol-3-yl)carbonyl]amino}-2-oxopyridin-1(2H)-yl]pent-4-ynoyl}amino)-5-[(3S)-2-oxopyrrolidin-3-yl]pentanoate', 'weight': 525.554, 'carbohydrate_polymer': False, 'branch_name': ''}, {'chain_id': 'B', 'author_residue_number': 190, 'author_insertion_code': '', 'chem_comp_id': 'XNV', 'alternate_conformers': 2, 'entity_id': 2, 'struct_asym_id': 'L', 'residue_number': 1, 'chem_comp_name': 'ethyl (4R)-4-({(2S)-2-[3-{[(5-methyl-1,2-oxazol-3-yl)carbonyl]amino}-2-oxopyridin-1(2H)-yl]pent-4-ynoyl}amino)-5-[(3S)-2-oxopyrrolidin-3-yl]pentanoate', 'weight': 525.554, 'carbohydrate_polymer': False, 'branch_name': ''}, {'chain_id': 'A', 'author_residue_number': 191, 'author_insertion_code': '', 'chem_comp_id': 'EDO', 'alternate_conformers': 2, 'entity_id': 3, 'struct_asym_id': 'D', 'residue_number': 1, 'chem_comp_name': '1,2-ETHANEDIOL', 'weight': 62.068, 'carbohydrate_polymer': False, 'branch_name': ''}, {'chain_id': 'A', 'author_residue_number': 192, 'author_insertion_code': '', 'chem_comp_id': 'EDO', 'alternate_conformers': 2, 'entity_id': 3, 'struct_asym_id': 'E', 'residue_number': 1, 'chem_comp_name': '1,2-ETHANEDIOL', 'weight': 62.068, 'carbohydrate_polymer': False, 'branch_name': ''}, {'chain_id': 'A', 'author_residue_number': 193, 'author_insertion_code': '', 'chem_comp_id': 'EDO', 'alternate_conformers': 0, 'entity_id': 3, 'struct_asym_id': 'F', 'residue_number': 1, 'chem_comp_name': '1,2-ETHANEDIOL', 'weight': 62.068, 'carbohydrate_polymer': False, 'branch_name': ''}, {'chain_id': 'A', 'author_residue_number': 194, 'author_insertion_code': '', 'chem_comp_id': 'EDO', 'alternate_conformers': 1, 'entity_id': 3, 'struct_asym_id': 'G', 'residue_number': 1, 'chem_comp_name': '1,2-ETHANEDIOL', 'weight': 62.068, 'carbohydrate_polymer': False, 'branch_name': ''}, {'chain_id': 'B', 'author_residue_number': 191, 'author_insertion_code': '', 'chem_comp_id': 'EDO', 'alternate_conformers': 2, 'entity_id': 3, 'struct_asym_id': 'M', 'residue_number': 1, 'chem_comp_name': '1,2-ETHANEDIOL', 'weight': 62.068, 'carbohydrate_polymer': False, 'branch_name': ''}, {'chain_id': 'B', 'author_residue_number': 192, 'author_insertion_code': '', 'chem_comp_id': 'EDO', 'alternate_conformers': 0, 'entity_id': 3, 'struct_asym_id': 'N', 'residue_number': 1, 'chem_comp_name': '1,2-ETHANEDIOL', 'weight': 62.068, 'carbohydrate_polymer': False, 'branch_name': ''}, {'chain_id': 'B', 'author_residue_number': 193, 'author_insertion_code': '', 'chem_comp_id': 'EDO', 'alternate_conformers': 2, 'entity_id': 3, 'struct_asym_id': 'O', 'residue_number': 1, 'chem_comp_name': '1,2-ETHANEDIOL', 'weight': 62.068, 'carbohydrate_polymer': False, 'branch_name': ''}, {'chain_id': 'B', 'author_residue_number': 194, 'author_insertion_code': '', 'chem_comp_id': 'EDO', 'alternate_conformers': 1, 'entity_id': 3, 'struct_asym_id': 'P', 'residue_number': 1, 'chem_comp_name': '1,2-ETHANEDIOL', 'weight': 62.068, 'carbohydrate_polymer': False, 'branch_name': ''}, {'chain_id': 'A', 'author_residue_number': 195, 'author_insertion_code': '', 'chem_comp_id': 'PI', 'alternate_conformers': 1, 'entity_id': 4, 'struct_asym_id': 'H', 'residue_number': 1, 'chem_comp_name': 'HYDROGENPHOSPHATE ION', 'weight': 95.979, 'carbohydrate_polymer': False, 'branch_name': ''}, {'chain_id': 'A', 'author_residue_number': 196, 'author_insertion_code': '', 'chem_comp_id': 'PI', 'alternate_conformers': 1, 'entity_id': 4, 'struct_asym_id': 'I', 'residue_number': 1, 'chem_comp_name': 'HYDROGENPHOSPHATE ION', 'weight': 95.979, 'carbohydrate_polymer': False, 'branch_name': ''}, {'chain_id': 'B', 'author_residue_number': 195, 'author_insertion_code': '', 'chem_comp_id': 'PI', 'alternate_conformers': 1, 'entity_id': 4, 'struct_asym_id': 'Q', 'residue_number': 1, 'chem_comp_name': 'HYDROGENPHOSPHATE ION', 'weight': 95.979, 'carbohydrate_polymer': False, 'branch_name': ''}, {'chain_id': 'A', 'author_residue_number': 197, 'author_insertion_code': '', 'chem_comp_id': 'NH4', 'alternate_conformers': 2, 'entity_id': 5, 'struct_asym_id': 'J', 'residue_number': 1, 'chem_comp_name': 'AMMONIUM ION', 'weight': 18.038, 'carbohydrate_polymer': False, 'branch_name': ''}, {'chain_id': 'A', 'author_residue_number': 198, 'author_insertion_code': '', 'chem_comp_id': 'NH4', 'alternate_conformers': 0, 'entity_id': 5, 'struct_asym_id': 'K', 'residue_number': 1, 'chem_comp_name': 'AMMONIUM ION', 'weight': 18.038, 'carbohydrate_polymer': False, 'branch_name': ''}]

>  <ligand_codes>  (131) 
['XNV', 'XNV', 'EDO', 'EDO', 'EDO', 'EDO', 'EDO', 'EDO', 'EDO', 'EDO', 'PI', 'PI', 'PI', 'NH4', 'NH4']

>  <cofactor_codes>  (131) 
[]

>  <has_cofactor>  (131) 
False

>  <covalent>  (131) 
True

>  <base_name>  (131) 
3Q3Y

>  <lig_resn>  (131) 
XNV

>  <lig_resi>  (131) 
190

>  <lig_chain>  (131) 
A

>  <lig_segi>  (131) 
C

>  <lig_alt>  (131) 


>  <polymer_chain>  (131) 
A

>  <single_smiles>  (131) 
CCOC(=O)CC[C@H](C[C@@H]1CCNC1=O)NC(=O)[C@H](CC#C)N2C=CC=C(NC(=O)c3cc(C)on3)C2=O

$$$$
XNVP5S6
     RDKit          3D

 28 28  0  0  0  0  0  0  0  0999 V2000
   -9.5440   12.8720  -35.1700 C   0  0  0  0  0  0  0  0  0  0  0  0
   -8.3660   11.9860  -34.7380 C   0  0  0  0  0  0  0  0  0  0  0  0
   -9.9610   12.5320  -36.6040 C   0  0  0  0  0  0  0  0  0  0  0  0
   -8.6960   10.7850  -34.1610 N   0  0  0  0  0  0  0  0  0  0  0  0
   -7.2170   12.3540  -34.9210 O   0  0  0  0  0  0  0  0  0  0  0  0
  -11.1420   13.3100  -36.9200 C   0  0  0  0  0  0  0  0  0  0  0  0
   -7.6700    9.8230  -33.7780 C   0  0  2  0  0  0  0  0  0  0  0  0
  -12.1000   13.9360  -37.1800 C   0  0  0  0  0  0  0  0  0  0  0  0
   -8.0140    8.4320  -34.3930 C   0  0  1  0  0  0  0  0  0  0  0  0
   -7.5070    9.7730  -32.2370 C   0  0  0  0  0  0  0  0  0  0  0  0
   -9.6590    8.0130  -33.9280 R   0  0  0  0  0  0  0  0  0  0  0  0
   -7.7310    8.3810  -35.9230 R   0  0  0  0  0  0  0  0  0  0  0  0
   -7.1020   11.0700  -31.5740 C   0  0  2  0  0  0  0  0  0  0  0  0
   -6.2830    8.2890  -36.3860 C   0  0  1  0  0  0  0  0  0  0  0  0
   -6.2390    8.3590  -36.3130 C   0  0  2  0  0  0  0  0  0  0  0  0
   -5.6570   11.5300  -31.9370 C   0  0  0  0  0  0  0  0  0  0  0  0
   -7.0130   10.9790  -30.0830 C   0  0  0  0  0  0  0  0  0  0  0  0
   -5.9620    9.3890  -37.1520 O   0  0  0  0  0  0  0  0  0  0  0  0
   -5.3980    7.7430  -35.7710 O   0  0  0  0  0  0  0  0  0  0  0  0
   -5.9500    7.3430  -37.2070 O   0  0  0  0  0  0  0  0  0  0  0  0
   -5.3090    8.7040  -35.6100 O   0  0  0  0  0  0  0  0  0  0  0  0
   -5.2110   12.3590  -30.7450 C   0  0  0  0  0  0  0  0  0  0  0  0
   -5.9230   11.6850  -29.6600 N   0  0  0  0  0  0  0  0  0  0  0  0
   -7.8230   10.4100  -29.3700 O   0  0  0  0  0  0  0  0  0  0  0  0
   -4.5680    9.6340  -37.4070 C   0  0  0  0  0  0  0  0  0  0  0  0
   -6.9670    6.7070  -37.9880 C   0  0  0  0  0  0  0  0  0  0  0  0
   -4.2700   11.1150  -37.7120 C   0  0  0  0  0  0  0  0  0  0  0  0
   -6.4370    5.4350  -38.6720 C   0  0  0  0  0  0  0  0  0  0  0  0
  2  1  1  0
  1  3  1  6
  4  2  1  0
  2  5  1  0
  3  6  1  0
  7  4  1  0
  6  8  1  0
  9  7  1  0
  7 10  1  1
  9 11  1  6
  9 12  1  0
 13 10  1  6
 14 12  1  0
 15 12  1  0
 13 16  1  0
 13 17  1  0
 18 14  1  0
 14 19  1  1
 20 15  1  0
 15 21  1  1
 16 22  1  0
 23 17  1  0
 17 24  1  0
 25 18  1  0
 26 20  1  0
 22 23  1  0
 27 25  1  0
 28 26  1  0
V   11 *
V   12 *
A    2
 C09
A    3
 C27
A    4
 N08
A    5
 O30
A    6
 C28
A    7
 C07
A    8
 C29
A    9
 C06
A   10
 C31
A   11
 X  
A   12
 X  
A   13
 C32
A   14
 C04
A   15
 C04
A   16
 C33
A   17
 C36
A   18
 O03
A   19
 O38
A   20
 O03
A   21
 O38
A   22
 C34
A   23
 N35
A   24
 O37
A   25
 C02
A   26
 C02
A   27
 C01
A   28
 C01
M  END
>  <XChem_code>  (132) 
XNV§5

>  <Occupancy>  (132) 
[0.69, 0.31, 0.69, 0.31, 0.69, 0.31, 0.69, 0.31, 1.0, 1.0, 1.0, 1.0, 1.0, 1.0, 1.0, 1.0, 1.0, 1.0, 1.0, 1.0, 1.0, 1.0, 1.0, 1.0, 1.0, 1.0, 1.0, 1.0, 1.0, 1.0, 1.0, 1.0, 1.0, 1.0, 1.0, 1.0, 1.0, 1.0, 1.0, 1.0, 0.69, 0.31, 1.0, 1.0]

>  <TempFactor>  (132) 
[53.57, 61.0, 41.59, 49.21, 23.74, 32.51, 19.1, 21.28, 7.6, 8.11, 8.4, 9.74, 8.05, 8.56, 8.33, 8.16, 7.98, 7.67, 8.77, 11.26, 12.79, 12.84, 16.26, 10.81, 9.75, 8.32, 9.11, 8.82, 8.1, 8.86, 9.21, 10.73, 9.43, 7.8, 6.74, 9.87, 8.87, 8.14, 7.89, 8.51, 19.72, 18.23, 7.31, 12.55]

>  <accession>  (132) 
3Q3Y_A

>  <description>  (132) 
Chain A, HEVB EV93 3C protease [Enterovirus B]

>  <evalue>  (132) 
1.1460600000000001e-87

>  <pdb_code>  (132) 
3Q3Y

>  <chain>  (132) 
A

>  <ligands>  (132) 
[{'chain_id': 'A', 'author_residue_number': 190, 'author_insertion_code': '', 'chem_comp_id': 'XNV', 'alternate_conformers': 2, 'entity_id': 2, 'struct_asym_id': 'C', 'residue_number': 1, 'chem_comp_name': 'ethyl (4R)-4-({(2S)-2-[3-{[(5-methyl-1,2-oxazol-3-yl)carbonyl]amino}-2-oxopyridin-1(2H)-yl]pent-4-ynoyl}amino)-5-[(3S)-2-oxopyrrolidin-3-yl]pentanoate', 'weight': 525.554, 'carbohydrate_polymer': False, 'branch_name': ''}, {'chain_id': 'B', 'author_residue_number': 190, 'author_insertion_code': '', 'chem_comp_id': 'XNV', 'alternate_conformers': 2, 'entity_id': 2, 'struct_asym_id': 'L', 'residue_number': 1, 'chem_comp_name': 'ethyl (4R)-4-({(2S)-2-[3-{[(5-methyl-1,2-oxazol-3-yl)carbonyl]amino}-2-oxopyridin-1(2H)-yl]pent-4-ynoyl}amino)-5-[(3S)-2-oxopyrrolidin-3-yl]pentanoate', 'weight': 525.554, 'carbohydrate_polymer': False, 'branch_name': ''}, {'chain_id': 'A', 'author_residue_number': 191, 'author_insertion_code': '', 'chem_comp_id': 'EDO', 'alternate_conformers': 2, 'entity_id': 3, 'struct_asym_id': 'D', 'residue_number': 1, 'chem_comp_name': '1,2-ETHANEDIOL', 'weight': 62.068, 'carbohydrate_polymer': False, 'branch_name': ''}, {'chain_id': 'A', 'author_residue_number': 192, 'author_insertion_code': '', 'chem_comp_id': 'EDO', 'alternate_conformers': 2, 'entity_id': 3, 'struct_asym_id': 'E', 'residue_number': 1, 'chem_comp_name': '1,2-ETHANEDIOL', 'weight': 62.068, 'carbohydrate_polymer': False, 'branch_name': ''}, {'chain_id': 'A', 'author_residue_number': 193, 'author_insertion_code': '', 'chem_comp_id': 'EDO', 'alternate_conformers': 0, 'entity_id': 3, 'struct_asym_id': 'F', 'residue_number': 1, 'chem_comp_name': '1,2-ETHANEDIOL', 'weight': 62.068, 'carbohydrate_polymer': False, 'branch_name': ''}, {'chain_id': 'A', 'author_residue_number': 194, 'author_insertion_code': '', 'chem_comp_id': 'EDO', 'alternate_conformers': 1, 'entity_id': 3, 'struct_asym_id': 'G', 'residue_number': 1, 'chem_comp_name': '1,2-ETHANEDIOL', 'weight': 62.068, 'carbohydrate_polymer': False, 'branch_name': ''}, {'chain_id': 'B', 'author_residue_number': 191, 'author_insertion_code': '', 'chem_comp_id': 'EDO', 'alternate_conformers': 2, 'entity_id': 3, 'struct_asym_id': 'M', 'residue_number': 1, 'chem_comp_name': '1,2-ETHANEDIOL', 'weight': 62.068, 'carbohydrate_polymer': False, 'branch_name': ''}, {'chain_id': 'B', 'author_residue_number': 192, 'author_insertion_code': '', 'chem_comp_id': 'EDO', 'alternate_conformers': 0, 'entity_id': 3, 'struct_asym_id': 'N', 'residue_number': 1, 'chem_comp_name': '1,2-ETHANEDIOL', 'weight': 62.068, 'carbohydrate_polymer': False, 'branch_name': ''}, {'chain_id': 'B', 'author_residue_number': 193, 'author_insertion_code': '', 'chem_comp_id': 'EDO', 'alternate_conformers': 2, 'entity_id': 3, 'struct_asym_id': 'O', 'residue_number': 1, 'chem_comp_name': '1,2-ETHANEDIOL', 'weight': 62.068, 'carbohydrate_polymer': False, 'branch_name': ''}, {'chain_id': 'B', 'author_residue_number': 194, 'author_insertion_code': '', 'chem_comp_id': 'EDO', 'alternate_conformers': 1, 'entity_id': 3, 'struct_asym_id': 'P', 'residue_number': 1, 'chem_comp_name': '1,2-ETHANEDIOL', 'weight': 62.068, 'carbohydrate_polymer': False, 'branch_name': ''}, {'chain_id': 'A', 'author_residue_number': 195, 'author_insertion_code': '', 'chem_comp_id': 'PI', 'alternate_conformers': 1, 'entity_id': 4, 'struct_asym_id': 'H', 'residue_number': 1, 'chem_comp_name': 'HYDROGENPHOSPHATE ION', 'weight': 95.979, 'carbohydrate_polymer': False, 'branch_name': ''}, {'chain_id': 'A', 'author_residue_number': 196, 'author_insertion_code': '', 'chem_comp_id': 'PI', 'alternate_conformers': 1, 'entity_id': 4, 'struct_asym_id': 'I', 'residue_number': 1, 'chem_comp_name': 'HYDROGENPHOSPHATE ION', 'weight': 95.979, 'carbohydrate_polymer': False, 'branch_name': ''}, {'chain_id': 'B', 'author_residue_number': 195, 'author_insertion_code': '', 'chem_comp_id': 'PI', 'alternate_conformers': 1, 'entity_id': 4, 'struct_asym_id': 'Q', 'residue_number': 1, 'chem_comp_name': 'HYDROGENPHOSPHATE ION', 'weight': 95.979, 'carbohydrate_polymer': False, 'branch_name': ''}, {'chain_id': 'A', 'author_residue_number': 197, 'author_insertion_code': '', 'chem_comp_id': 'NH4', 'alternate_conformers': 2, 'entity_id': 5, 'struct_asym_id': 'J', 'residue_number': 1, 'chem_comp_name': 'AMMONIUM ION', 'weight': 18.038, 'carbohydrate_polymer': False, 'branch_name': ''}, {'chain_id': 'A', 'author_residue_number': 198, 'author_insertion_code': '', 'chem_comp_id': 'NH4', 'alternate_conformers': 0, 'entity_id': 5, 'struct_asym_id': 'K', 'residue_number': 1, 'chem_comp_name': 'AMMONIUM ION', 'weight': 18.038, 'carbohydrate_polymer': False, 'branch_name': ''}]

>  <ligand_codes>  (132) 
['XNV', 'XNV', 'EDO', 'EDO', 'EDO', 'EDO', 'EDO', 'EDO', 'EDO', 'EDO', 'PI', 'PI', 'PI', 'NH4', 'NH4']

>  <cofactor_codes>  (132) 
[]

>  <has_cofactor>  (132) 
False

>  <covalent>  (132) 
True

>  <base_name>  (132) 
3Q3Y

>  <lig_resn>  (132) 
XNV

>  <lig_resi>  (132) 
190

>  <lig_chain>  (132) 
A

>  <lig_segi>  (132) 
C

>  <lig_alt>  (132) 


>  <polymer_chain>  (132) 
A

>  <single_smiles>  (132) 
CCOC(=O)CC[C@H](C[C@@H]1CCNC1=O)NC(=O)[C@H](CC#C)N2C=CC=C(NC(=O)c3cc(C)on3)C2=O

$$$$
XNVP5S7
     RDKit          3D

  8  8  0  0  0  0  0  0  0  0999 V2000
  -10.0950   17.6650  -31.7210 C   0  0  0  0  0  0  0  0  0  0  0  0
  -10.3340   17.8140  -30.2530 C   0  0  0  0  0  0  0  0  0  0  0  0
  -10.5810   18.4340  -32.5450 O   0  0  0  0  0  0  0  0  0  0  0  0
   -9.8210   17.0290  -29.3110 N   0  0  0  0  0  0  0  0  0  0  0  0
  -11.1330   18.8400  -29.6240 C   0  0  0  0  0  0  0  0  0  0  0  0
  -10.2850   17.4780  -28.1290 O   0  0  0  0  0  0  0  0  0  0  0  0
  -11.0580   18.5830  -28.2730 C   0  0  0  0  0  0  0  0  0  0  0  0
  -11.6710   19.3000  -27.1340 C   0  0  0  0  0  0  0  0  0  0  0  0
  1  2  1  0
  1  3  1  0
  2  4  1  0
  2  5  1  0
  4  6  1  0
  7  5  1  0
  6  7  1  0
  7  8  1  0
A    2
 C16
A    3
 O22
A    4
 N17
A    5
 C21
A    6
 O18
A    7
 C19
A    8
 C20
M  END
>  <XChem_code>  (133) 
XNV§5

>  <Occupancy>  (133) 
[0.69, 0.31, 0.69, 0.31, 0.69, 0.31, 0.69, 0.31, 1.0, 1.0, 1.0, 1.0, 1.0, 1.0, 1.0, 1.0, 1.0, 1.0, 1.0, 1.0, 1.0, 1.0, 1.0, 1.0, 1.0, 1.0, 1.0, 1.0, 1.0, 1.0, 1.0, 1.0, 1.0, 1.0, 1.0, 1.0, 1.0, 1.0, 1.0, 1.0, 0.69, 0.31, 1.0, 1.0]

>  <TempFactor>  (133) 
[53.57, 61.0, 41.59, 49.21, 23.74, 32.51, 19.1, 21.28, 7.6, 8.11, 8.4, 9.74, 8.05, 8.56, 8.33, 8.16, 7.98, 7.67, 8.77, 11.26, 12.79, 12.84, 16.26, 10.81, 9.75, 8.32, 9.11, 8.82, 8.1, 8.86, 9.21, 10.73, 9.43, 7.8, 6.74, 9.87, 8.87, 8.14, 7.89, 8.51, 19.72, 18.23, 7.31, 12.55]

>  <accession>  (133) 
3Q3Y_A

>  <description>  (133) 
Chain A, HEVB EV93 3C protease [Enterovirus B]

>  <evalue>  (133) 
1.1460600000000001e-87

>  <pdb_code>  (133) 
3Q3Y

>  <chain>  (133) 
A

>  <ligands>  (133) 
[{'chain_id': 'A', 'author_residue_number': 190, 'author_insertion_code': '', 'chem_comp_id': 'XNV', 'alternate_conformers': 2, 'entity_id': 2, 'struct_asym_id': 'C', 'residue_number': 1, 'chem_comp_name': 'ethyl (4R)-4-({(2S)-2-[3-{[(5-methyl-1,2-oxazol-3-yl)carbonyl]amino}-2-oxopyridin-1(2H)-yl]pent-4-ynoyl}amino)-5-[(3S)-2-oxopyrrolidin-3-yl]pentanoate', 'weight': 525.554, 'carbohydrate_polymer': False, 'branch_name': ''}, {'chain_id': 'B', 'author_residue_number': 190, 'author_insertion_code': '', 'chem_comp_id': 'XNV', 'alternate_conformers': 2, 'entity_id': 2, 'struct_asym_id': 'L', 'residue_number': 1, 'chem_comp_name': 'ethyl (4R)-4-({(2S)-2-[3-{[(5-methyl-1,2-oxazol-3-yl)carbonyl]amino}-2-oxopyridin-1(2H)-yl]pent-4-ynoyl}amino)-5-[(3S)-2-oxopyrrolidin-3-yl]pentanoate', 'weight': 525.554, 'carbohydrate_polymer': False, 'branch_name': ''}, {'chain_id': 'A', 'author_residue_number': 191, 'author_insertion_code': '', 'chem_comp_id': 'EDO', 'alternate_conformers': 2, 'entity_id': 3, 'struct_asym_id': 'D', 'residue_number': 1, 'chem_comp_name': '1,2-ETHANEDIOL', 'weight': 62.068, 'carbohydrate_polymer': False, 'branch_name': ''}, {'chain_id': 'A', 'author_residue_number': 192, 'author_insertion_code': '', 'chem_comp_id': 'EDO', 'alternate_conformers': 2, 'entity_id': 3, 'struct_asym_id': 'E', 'residue_number': 1, 'chem_comp_name': '1,2-ETHANEDIOL', 'weight': 62.068, 'carbohydrate_polymer': False, 'branch_name': ''}, {'chain_id': 'A', 'author_residue_number': 193, 'author_insertion_code': '', 'chem_comp_id': 'EDO', 'alternate_conformers': 0, 'entity_id': 3, 'struct_asym_id': 'F', 'residue_number': 1, 'chem_comp_name': '1,2-ETHANEDIOL', 'weight': 62.068, 'carbohydrate_polymer': False, 'branch_name': ''}, {'chain_id': 'A', 'author_residue_number': 194, 'author_insertion_code': '', 'chem_comp_id': 'EDO', 'alternate_conformers': 1, 'entity_id': 3, 'struct_asym_id': 'G', 'residue_number': 1, 'chem_comp_name': '1,2-ETHANEDIOL', 'weight': 62.068, 'carbohydrate_polymer': False, 'branch_name': ''}, {'chain_id': 'B', 'author_residue_number': 191, 'author_insertion_code': '', 'chem_comp_id': 'EDO', 'alternate_conformers': 2, 'entity_id': 3, 'struct_asym_id': 'M', 'residue_number': 1, 'chem_comp_name': '1,2-ETHANEDIOL', 'weight': 62.068, 'carbohydrate_polymer': False, 'branch_name': ''}, {'chain_id': 'B', 'author_residue_number': 192, 'author_insertion_code': '', 'chem_comp_id': 'EDO', 'alternate_conformers': 0, 'entity_id': 3, 'struct_asym_id': 'N', 'residue_number': 1, 'chem_comp_name': '1,2-ETHANEDIOL', 'weight': 62.068, 'carbohydrate_polymer': False, 'branch_name': ''}, {'chain_id': 'B', 'author_residue_number': 193, 'author_insertion_code': '', 'chem_comp_id': 'EDO', 'alternate_conformers': 2, 'entity_id': 3, 'struct_asym_id': 'O', 'residue_number': 1, 'chem_comp_name': '1,2-ETHANEDIOL', 'weight': 62.068, 'carbohydrate_polymer': False, 'branch_name': ''}, {'chain_id': 'B', 'author_residue_number': 194, 'author_insertion_code': '', 'chem_comp_id': 'EDO', 'alternate_conformers': 1, 'entity_id': 3, 'struct_asym_id': 'P', 'residue_number': 1, 'chem_comp_name': '1,2-ETHANEDIOL', 'weight': 62.068, 'carbohydrate_polymer': False, 'branch_name': ''}, {'chain_id': 'A', 'author_residue_number': 195, 'author_insertion_code': '', 'chem_comp_id': 'PI', 'alternate_conformers': 1, 'entity_id': 4, 'struct_asym_id': 'H', 'residue_number': 1, 'chem_comp_name': 'HYDROGENPHOSPHATE ION', 'weight': 95.979, 'carbohydrate_polymer': False, 'branch_name': ''}, {'chain_id': 'A', 'author_residue_number': 196, 'author_insertion_code': '', 'chem_comp_id': 'PI', 'alternate_conformers': 1, 'entity_id': 4, 'struct_asym_id': 'I', 'residue_number': 1, 'chem_comp_name': 'HYDROGENPHOSPHATE ION', 'weight': 95.979, 'carbohydrate_polymer': False, 'branch_name': ''}, {'chain_id': 'B', 'author_residue_number': 195, 'author_insertion_code': '', 'chem_comp_id': 'PI', 'alternate_conformers': 1, 'entity_id': 4, 'struct_asym_id': 'Q', 'residue_number': 1, 'chem_comp_name': 'HYDROGENPHOSPHATE ION', 'weight': 95.979, 'carbohydrate_polymer': False, 'branch_name': ''}, {'chain_id': 'A', 'author_residue_number': 197, 'author_insertion_code': '', 'chem_comp_id': 'NH4', 'alternate_conformers': 2, 'entity_id': 5, 'struct_asym_id': 'J', 'residue_number': 1, 'chem_comp_name': 'AMMONIUM ION', 'weight': 18.038, 'carbohydrate_polymer': False, 'branch_name': ''}, {'chain_id': 'A', 'author_residue_number': 198, 'author_insertion_code': '', 'chem_comp_id': 'NH4', 'alternate_conformers': 0, 'entity_id': 5, 'struct_asym_id': 'K', 'residue_number': 1, 'chem_comp_name': 'AMMONIUM ION', 'weight': 18.038, 'carbohydrate_polymer': False, 'branch_name': ''}]

>  <ligand_codes>  (133) 
['XNV', 'XNV', 'EDO', 'EDO', 'EDO', 'EDO', 'EDO', 'EDO', 'EDO', 'EDO', 'PI', 'PI', 'PI', 'NH4', 'NH4']

>  <cofactor_codes>  (133) 
[]

>  <has_cofactor>  (133) 
False

>  <covalent>  (133) 
True

>  <base_name>  (133) 
3Q3Y

>  <lig_resn>  (133) 
XNV

>  <lig_resi>  (133) 
190

>  <lig_chain>  (133) 
A

>  <lig_segi>  (133) 
C

>  <lig_alt>  (133) 


>  <polymer_chain>  (133) 
A

>  <single_smiles>  (133) 
CCOC(=O)CC[C@H](C[C@@H]1CCNC1=O)NC(=O)[C@H](CC#C)N2C=CC=C(NC(=O)c3cc(C)on3)C2=O

$$$$
XNVP5S8
     RDKit          3D

 36 37  0  0  0  0  0  0  0  0999 V2000
   -9.2490   16.5750  -32.0350 N   0  0  0  0  0  0  0  0  0  0  0  0
   -9.0490   16.1590  -33.3600 C   0  0  0  0  0  0  0  0  0  0  0  0
   -9.2700   14.7400  -33.6260 C   0  0  0  0  0  0  0  0  0  0  0  0
   -8.7180   16.9980  -34.4080 C   0  0  0  0  0  0  0  0  0  0  0  0
   -9.2290   14.2940  -34.9840 N   0  0  0  0  0  0  0  0  0  0  0  0
   -9.5210   13.9120  -32.7390 O   0  0  0  0  0  0  0  0  0  0  0  0
   -8.6520   16.4840  -35.7260 C   0  0  0  0  0  0  0  0  0  0  0  0
   -9.5440   12.8720  -35.1700 C   0  0  2  0  0  0  0  0  0  0  0  0
   -8.8880   15.1740  -35.9880 C   0  0  0  0  0  0  0  0  0  0  0  0
   -8.3660   11.9860  -34.7380 C   0  0  0  0  0  0  0  0  0  0  0  0
   -9.9610   12.5320  -36.6040 C   0  0  0  0  0  0  0  0  0  0  0  0
   -8.6960   10.7850  -34.1610 N   0  0  0  0  0  0  0  0  0  0  0  0
   -7.2170   12.3540  -34.9210 O   0  0  0  0  0  0  0  0  0  0  0  0
  -11.1420   13.3100  -36.9200 C   0  0  0  0  0  0  0  0  0  0  0  0
   -7.6700    9.8230  -33.7780 C   0  0  2  0  0  0  0  0  0  0  0  0
  -12.1000   13.9360  -37.1800 C   0  0  0  0  0  0  0  0  0  0  0  0
   -8.0140    8.4320  -34.3930 C   0  0  1  0  0  0  0  0  0  0  0  0
   -7.5070    9.7730  -32.2370 C   0  0  0  0  0  0  0  0  0  0  0  0
   -9.6590    8.0130  -33.9280 R   0  0  0  0  0  0  0  0  0  0  0  0
   -7.7310    8.3810  -35.9230 R   0  0  0  0  0  0  0  0  0  0  0  0
   -7.1020   11.0700  -31.5740 C   0  0  2  0  0  0  0  0  0  0  0  0
   -6.2830    8.2890  -36.3860 C   0  0  1  0  0  0  0  0  0  0  0  0
   -6.2390    8.3590  -36.3130 C   0  0  2  0  0  0  0  0  0  0  0  0
   -5.6570   11.5300  -31.9370 C   0  0  0  0  0  0  0  0  0  0  0  0
   -7.0130   10.9790  -30.0830 C   0  0  0  0  0  0  0  0  0  0  0  0
   -5.9620    9.3890  -37.1520 O   0  0  0  0  0  0  0  0  0  0  0  0
   -5.3980    7.7430  -35.7710 O   0  0  0  0  0  0  0  0  0  0  0  0
   -5.9500    7.3430  -37.2070 O   0  0  0  0  0  0  0  0  0  0  0  0
   -5.3090    8.7040  -35.6100 O   0  0  0  0  0  0  0  0  0  0  0  0
   -5.2110   12.3590  -30.7450 C   0  0  0  0  0  0  0  0  0  0  0  0
   -5.9230   11.6850  -29.6600 N   0  0  0  0  0  0  0  0  0  0  0  0
   -7.8230   10.4100  -29.3700 O   0  0  0  0  0  0  0  0  0  0  0  0
   -4.5680    9.6340  -37.4070 C   0  0  0  0  0  0  0  0  0  0  0  0
   -6.9670    6.7070  -37.9880 C   0  0  0  0  0  0  0  0  0  0  0  0
   -4.2700   11.1150  -37.7120 C   0  0  0  0  0  0  0  0  0  0  0  0
   -6.4370    5.4350  -38.6720 C   0  0  0  0  0  0  0  0  0  0  0  0
  2  1  1  0
  3  2  1  0
  2  4  1  0
  5  3  1  0
  3  6  1  0
  4  7  1  0
  8  5  1  0
  5  9  1  0
  7  9  1  0
 10  8  1  0
  8 11  1  6
 12 10  1  0
 10 13  1  0
 11 14  1  0
 15 12  1  0
 14 16  1  0
 17 15  1  0
 15 18  1  1
 17 19  1  6
 17 20  1  0
 21 18  1  6
 22 20  1  0
 23 20  1  0
 21 24  1  0
 21 25  1  0
 26 22  1  0
 22 27  1  1
 28 23  1  0
 23 29  1  1
 24 30  1  0
 31 25  1  0
 25 32  1  0
 33 26  1  0
 34 28  1  0
 30 31  1  0
 35 33  1  0
 36 34  1  0
V   19 *
V   20 *
A    2
 C13
A    3
 C12
A    4
 C23
A    5
 N11
A    6
 O26
A    7
 C24
A    8
 C10
A    9
 C25
A   10
 C09
A   11
 C27
A   12
 N08
A   13
 O30
A   14
 C28
A   15
 C07
A   16
 C29
A   17
 C06
A   18
 C31
A   19
 X  
A   20
 X  
A   21
 C32
A   22
 C04
A   23
 C04
A   24
 C33
A   25
 C36
A   26
 O03
A   27
 O38
A   28
 O03
A   29
 O38
A   30
 C34
A   31
 N35
A   32
 O37
A   33
 C02
A   34
 C02
A   35
 C01
A   36
 C01
M  END
>  <XChem_code>  (134) 
XNV§5

>  <Occupancy>  (134) 
[0.69, 0.31, 0.69, 0.31, 0.69, 0.31, 0.69, 0.31, 1.0, 1.0, 1.0, 1.0, 1.0, 1.0, 1.0, 1.0, 1.0, 1.0, 1.0, 1.0, 1.0, 1.0, 1.0, 1.0, 1.0, 1.0, 1.0, 1.0, 1.0, 1.0, 1.0, 1.0, 1.0, 1.0, 1.0, 1.0, 1.0, 1.0, 1.0, 1.0, 0.69, 0.31, 1.0, 1.0]

>  <TempFactor>  (134) 
[53.57, 61.0, 41.59, 49.21, 23.74, 32.51, 19.1, 21.28, 7.6, 8.11, 8.4, 9.74, 8.05, 8.56, 8.33, 8.16, 7.98, 7.67, 8.77, 11.26, 12.79, 12.84, 16.26, 10.81, 9.75, 8.32, 9.11, 8.82, 8.1, 8.86, 9.21, 10.73, 9.43, 7.8, 6.74, 9.87, 8.87, 8.14, 7.89, 8.51, 19.72, 18.23, 7.31, 12.55]

>  <accession>  (134) 
3Q3Y_A

>  <description>  (134) 
Chain A, HEVB EV93 3C protease [Enterovirus B]

>  <evalue>  (134) 
1.1460600000000001e-87

>  <pdb_code>  (134) 
3Q3Y

>  <chain>  (134) 
A

>  <ligands>  (134) 
[{'chain_id': 'A', 'author_residue_number': 190, 'author_insertion_code': '', 'chem_comp_id': 'XNV', 'alternate_conformers': 2, 'entity_id': 2, 'struct_asym_id': 'C', 'residue_number': 1, 'chem_comp_name': 'ethyl (4R)-4-({(2S)-2-[3-{[(5-methyl-1,2-oxazol-3-yl)carbonyl]amino}-2-oxopyridin-1(2H)-yl]pent-4-ynoyl}amino)-5-[(3S)-2-oxopyrrolidin-3-yl]pentanoate', 'weight': 525.554, 'carbohydrate_polymer': False, 'branch_name': ''}, {'chain_id': 'B', 'author_residue_number': 190, 'author_insertion_code': '', 'chem_comp_id': 'XNV', 'alternate_conformers': 2, 'entity_id': 2, 'struct_asym_id': 'L', 'residue_number': 1, 'chem_comp_name': 'ethyl (4R)-4-({(2S)-2-[3-{[(5-methyl-1,2-oxazol-3-yl)carbonyl]amino}-2-oxopyridin-1(2H)-yl]pent-4-ynoyl}amino)-5-[(3S)-2-oxopyrrolidin-3-yl]pentanoate', 'weight': 525.554, 'carbohydrate_polymer': False, 'branch_name': ''}, {'chain_id': 'A', 'author_residue_number': 191, 'author_insertion_code': '', 'chem_comp_id': 'EDO', 'alternate_conformers': 2, 'entity_id': 3, 'struct_asym_id': 'D', 'residue_number': 1, 'chem_comp_name': '1,2-ETHANEDIOL', 'weight': 62.068, 'carbohydrate_polymer': False, 'branch_name': ''}, {'chain_id': 'A', 'author_residue_number': 192, 'author_insertion_code': '', 'chem_comp_id': 'EDO', 'alternate_conformers': 2, 'entity_id': 3, 'struct_asym_id': 'E', 'residue_number': 1, 'chem_comp_name': '1,2-ETHANEDIOL', 'weight': 62.068, 'carbohydrate_polymer': False, 'branch_name': ''}, {'chain_id': 'A', 'author_residue_number': 193, 'author_insertion_code': '', 'chem_comp_id': 'EDO', 'alternate_conformers': 0, 'entity_id': 3, 'struct_asym_id': 'F', 'residue_number': 1, 'chem_comp_name': '1,2-ETHANEDIOL', 'weight': 62.068, 'carbohydrate_polymer': False, 'branch_name': ''}, {'chain_id': 'A', 'author_residue_number': 194, 'author_insertion_code': '', 'chem_comp_id': 'EDO', 'alternate_conformers': 1, 'entity_id': 3, 'struct_asym_id': 'G', 'residue_number': 1, 'chem_comp_name': '1,2-ETHANEDIOL', 'weight': 62.068, 'carbohydrate_polymer': False, 'branch_name': ''}, {'chain_id': 'B', 'author_residue_number': 191, 'author_insertion_code': '', 'chem_comp_id': 'EDO', 'alternate_conformers': 2, 'entity_id': 3, 'struct_asym_id': 'M', 'residue_number': 1, 'chem_comp_name': '1,2-ETHANEDIOL', 'weight': 62.068, 'carbohydrate_polymer': False, 'branch_name': ''}, {'chain_id': 'B', 'author_residue_number': 192, 'author_insertion_code': '', 'chem_comp_id': 'EDO', 'alternate_conformers': 0, 'entity_id': 3, 'struct_asym_id': 'N', 'residue_number': 1, 'chem_comp_name': '1,2-ETHANEDIOL', 'weight': 62.068, 'carbohydrate_polymer': False, 'branch_name': ''}, {'chain_id': 'B', 'author_residue_number': 193, 'author_insertion_code': '', 'chem_comp_id': 'EDO', 'alternate_conformers': 2, 'entity_id': 3, 'struct_asym_id': 'O', 'residue_number': 1, 'chem_comp_name': '1,2-ETHANEDIOL', 'weight': 62.068, 'carbohydrate_polymer': False, 'branch_name': ''}, {'chain_id': 'B', 'author_residue_number': 194, 'author_insertion_code': '', 'chem_comp_id': 'EDO', 'alternate_conformers': 1, 'entity_id': 3, 'struct_asym_id': 'P', 'residue_number': 1, 'chem_comp_name': '1,2-ETHANEDIOL', 'weight': 62.068, 'carbohydrate_polymer': False, 'branch_name': ''}, {'chain_id': 'A', 'author_residue_number': 195, 'author_insertion_code': '', 'chem_comp_id': 'PI', 'alternate_conformers': 1, 'entity_id': 4, 'struct_asym_id': 'H', 'residue_number': 1, 'chem_comp_name': 'HYDROGENPHOSPHATE ION', 'weight': 95.979, 'carbohydrate_polymer': False, 'branch_name': ''}, {'chain_id': 'A', 'author_residue_number': 196, 'author_insertion_code': '', 'chem_comp_id': 'PI', 'alternate_conformers': 1, 'entity_id': 4, 'struct_asym_id': 'I', 'residue_number': 1, 'chem_comp_name': 'HYDROGENPHOSPHATE ION', 'weight': 95.979, 'carbohydrate_polymer': False, 'branch_name': ''}, {'chain_id': 'B', 'author_residue_number': 195, 'author_insertion_code': '', 'chem_comp_id': 'PI', 'alternate_conformers': 1, 'entity_id': 4, 'struct_asym_id': 'Q', 'residue_number': 1, 'chem_comp_name': 'HYDROGENPHOSPHATE ION', 'weight': 95.979, 'carbohydrate_polymer': False, 'branch_name': ''}, {'chain_id': 'A', 'author_residue_number': 197, 'author_insertion_code': '', 'chem_comp_id': 'NH4', 'alternate_conformers': 2, 'entity_id': 5, 'struct_asym_id': 'J', 'residue_number': 1, 'chem_comp_name': 'AMMONIUM ION', 'weight': 18.038, 'carbohydrate_polymer': False, 'branch_name': ''}, {'chain_id': 'A', 'author_residue_number': 198, 'author_insertion_code': '', 'chem_comp_id': 'NH4', 'alternate_conformers': 0, 'entity_id': 5, 'struct_asym_id': 'K', 'residue_number': 1, 'chem_comp_name': 'AMMONIUM ION', 'weight': 18.038, 'carbohydrate_polymer': False, 'branch_name': ''}]

>  <ligand_codes>  (134) 
['XNV', 'XNV', 'EDO', 'EDO', 'EDO', 'EDO', 'EDO', 'EDO', 'EDO', 'EDO', 'PI', 'PI', 'PI', 'NH4', 'NH4']

>  <cofactor_codes>  (134) 
[]

>  <has_cofactor>  (134) 
False

>  <covalent>  (134) 
True

>  <base_name>  (134) 
3Q3Y

>  <lig_resn>  (134) 
XNV

>  <lig_resi>  (134) 
190

>  <lig_chain>  (134) 
A

>  <lig_segi>  (134) 
C

>  <lig_alt>  (134) 


>  <polymer_chain>  (134) 
A

>  <single_smiles>  (134) 
CCOC(=O)CC[C@H](C[C@@H]1CCNC1=O)NC(=O)[C@H](CC#C)N2C=CC=C(NC(=O)c3cc(C)on3)C2=O

$$$$
XNVP5S9
     RDKit          3D

  7  6  0  0  0  0  0  0  0  0999 V2000
   -9.5440   12.8720  -35.1700 C   0  0  0  0  0  0  0  0  0  0  0  0
   -8.3660   11.9860  -34.7380 C   0  0  0  0  0  0  0  0  0  0  0  0
   -9.9610   12.5320  -36.6040 C   0  0  0  0  0  0  0  0  0  0  0  0
   -8.6960   10.7850  -34.1610 N   0  0  0  0  0  0  0  0  0  0  0  0
   -7.2170   12.3540  -34.9210 O   0  0  0  0  0  0  0  0  0  0  0  0
  -11.1420   13.3100  -36.9200 C   0  0  0  0  0  0  0  0  0  0  0  0
  -12.1000   13.9360  -37.1800 C   0  0  0  0  0  0  0  0  0  0  0  0
  2  1  1  0
  1  3  1  6
  4  2  1  0
  2  5  1  0
  3  6  1  0
  6  7  1  0
A    2
 C09
A    3
 C27
A    5
 O30
A    6
 C28
A    7
 C29
M  END
>  <XChem_code>  (135) 
XNV§5

>  <Occupancy>  (135) 
[0.69, 0.31, 0.69, 0.31, 0.69, 0.31, 0.69, 0.31, 1.0, 1.0, 1.0, 1.0, 1.0, 1.0, 1.0, 1.0, 1.0, 1.0, 1.0, 1.0, 1.0, 1.0, 1.0, 1.0, 1.0, 1.0, 1.0, 1.0, 1.0, 1.0, 1.0, 1.0, 1.0, 1.0, 1.0, 1.0, 1.0, 1.0, 1.0, 1.0, 0.69, 0.31, 1.0, 1.0]

>  <TempFactor>  (135) 
[53.57, 61.0, 41.59, 49.21, 23.74, 32.51, 19.1, 21.28, 7.6, 8.11, 8.4, 9.74, 8.05, 8.56, 8.33, 8.16, 7.98, 7.67, 8.77, 11.26, 12.79, 12.84, 16.26, 10.81, 9.75, 8.32, 9.11, 8.82, 8.1, 8.86, 9.21, 10.73, 9.43, 7.8, 6.74, 9.87, 8.87, 8.14, 7.89, 8.51, 19.72, 18.23, 7.31, 12.55]

>  <accession>  (135) 
3Q3Y_A

>  <description>  (135) 
Chain A, HEVB EV93 3C protease [Enterovirus B]

>  <evalue>  (135) 
1.1460600000000001e-87

>  <pdb_code>  (135) 
3Q3Y

>  <chain>  (135) 
A

>  <ligands>  (135) 
[{'chain_id': 'A', 'author_residue_number': 190, 'author_insertion_code': '', 'chem_comp_id': 'XNV', 'alternate_conformers': 2, 'entity_id': 2, 'struct_asym_id': 'C', 'residue_number': 1, 'chem_comp_name': 'ethyl (4R)-4-({(2S)-2-[3-{[(5-methyl-1,2-oxazol-3-yl)carbonyl]amino}-2-oxopyridin-1(2H)-yl]pent-4-ynoyl}amino)-5-[(3S)-2-oxopyrrolidin-3-yl]pentanoate', 'weight': 525.554, 'carbohydrate_polymer': False, 'branch_name': ''}, {'chain_id': 'B', 'author_residue_number': 190, 'author_insertion_code': '', 'chem_comp_id': 'XNV', 'alternate_conformers': 2, 'entity_id': 2, 'struct_asym_id': 'L', 'residue_number': 1, 'chem_comp_name': 'ethyl (4R)-4-({(2S)-2-[3-{[(5-methyl-1,2-oxazol-3-yl)carbonyl]amino}-2-oxopyridin-1(2H)-yl]pent-4-ynoyl}amino)-5-[(3S)-2-oxopyrrolidin-3-yl]pentanoate', 'weight': 525.554, 'carbohydrate_polymer': False, 'branch_name': ''}, {'chain_id': 'A', 'author_residue_number': 191, 'author_insertion_code': '', 'chem_comp_id': 'EDO', 'alternate_conformers': 2, 'entity_id': 3, 'struct_asym_id': 'D', 'residue_number': 1, 'chem_comp_name': '1,2-ETHANEDIOL', 'weight': 62.068, 'carbohydrate_polymer': False, 'branch_name': ''}, {'chain_id': 'A', 'author_residue_number': 192, 'author_insertion_code': '', 'chem_comp_id': 'EDO', 'alternate_conformers': 2, 'entity_id': 3, 'struct_asym_id': 'E', 'residue_number': 1, 'chem_comp_name': '1,2-ETHANEDIOL', 'weight': 62.068, 'carbohydrate_polymer': False, 'branch_name': ''}, {'chain_id': 'A', 'author_residue_number': 193, 'author_insertion_code': '', 'chem_comp_id': 'EDO', 'alternate_conformers': 0, 'entity_id': 3, 'struct_asym_id': 'F', 'residue_number': 1, 'chem_comp_name': '1,2-ETHANEDIOL', 'weight': 62.068, 'carbohydrate_polymer': False, 'branch_name': ''}, {'chain_id': 'A', 'author_residue_number': 194, 'author_insertion_code': '', 'chem_comp_id': 'EDO', 'alternate_conformers': 1, 'entity_id': 3, 'struct_asym_id': 'G', 'residue_number': 1, 'chem_comp_name': '1,2-ETHANEDIOL', 'weight': 62.068, 'carbohydrate_polymer': False, 'branch_name': ''}, {'chain_id': 'B', 'author_residue_number': 191, 'author_insertion_code': '', 'chem_comp_id': 'EDO', 'alternate_conformers': 2, 'entity_id': 3, 'struct_asym_id': 'M', 'residue_number': 1, 'chem_comp_name': '1,2-ETHANEDIOL', 'weight': 62.068, 'carbohydrate_polymer': False, 'branch_name': ''}, {'chain_id': 'B', 'author_residue_number': 192, 'author_insertion_code': '', 'chem_comp_id': 'EDO', 'alternate_conformers': 0, 'entity_id': 3, 'struct_asym_id': 'N', 'residue_number': 1, 'chem_comp_name': '1,2-ETHANEDIOL', 'weight': 62.068, 'carbohydrate_polymer': False, 'branch_name': ''}, {'chain_id': 'B', 'author_residue_number': 193, 'author_insertion_code': '', 'chem_comp_id': 'EDO', 'alternate_conformers': 2, 'entity_id': 3, 'struct_asym_id': 'O', 'residue_number': 1, 'chem_comp_name': '1,2-ETHANEDIOL', 'weight': 62.068, 'carbohydrate_polymer': False, 'branch_name': ''}, {'chain_id': 'B', 'author_residue_number': 194, 'author_insertion_code': '', 'chem_comp_id': 'EDO', 'alternate_conformers': 1, 'entity_id': 3, 'struct_asym_id': 'P', 'residue_number': 1, 'chem_comp_name': '1,2-ETHANEDIOL', 'weight': 62.068, 'carbohydrate_polymer': False, 'branch_name': ''}, {'chain_id': 'A', 'author_residue_number': 195, 'author_insertion_code': '', 'chem_comp_id': 'PI', 'alternate_conformers': 1, 'entity_id': 4, 'struct_asym_id': 'H', 'residue_number': 1, 'chem_comp_name': 'HYDROGENPHOSPHATE ION', 'weight': 95.979, 'carbohydrate_polymer': False, 'branch_name': ''}, {'chain_id': 'A', 'author_residue_number': 196, 'author_insertion_code': '', 'chem_comp_id': 'PI', 'alternate_conformers': 1, 'entity_id': 4, 'struct_asym_id': 'I', 'residue_number': 1, 'chem_comp_name': 'HYDROGENPHOSPHATE ION', 'weight': 95.979, 'carbohydrate_polymer': False, 'branch_name': ''}, {'chain_id': 'B', 'author_residue_number': 195, 'author_insertion_code': '', 'chem_comp_id': 'PI', 'alternate_conformers': 1, 'entity_id': 4, 'struct_asym_id': 'Q', 'residue_number': 1, 'chem_comp_name': 'HYDROGENPHOSPHATE ION', 'weight': 95.979, 'carbohydrate_polymer': False, 'branch_name': ''}, {'chain_id': 'A', 'author_residue_number': 197, 'author_insertion_code': '', 'chem_comp_id': 'NH4', 'alternate_conformers': 2, 'entity_id': 5, 'struct_asym_id': 'J', 'residue_number': 1, 'chem_comp_name': 'AMMONIUM ION', 'weight': 18.038, 'carbohydrate_polymer': False, 'branch_name': ''}, {'chain_id': 'A', 'author_residue_number': 198, 'author_insertion_code': '', 'chem_comp_id': 'NH4', 'alternate_conformers': 0, 'entity_id': 5, 'struct_asym_id': 'K', 'residue_number': 1, 'chem_comp_name': 'AMMONIUM ION', 'weight': 18.038, 'carbohydrate_polymer': False, 'branch_name': ''}]

>  <ligand_codes>  (135) 
['XNV', 'XNV', 'EDO', 'EDO', 'EDO', 'EDO', 'EDO', 'EDO', 'EDO', 'EDO', 'PI', 'PI', 'PI', 'NH4', 'NH4']

>  <cofactor_codes>  (135) 
[]

>  <has_cofactor>  (135) 
False

>  <covalent>  (135) 
True

>  <base_name>  (135) 
3Q3Y

>  <lig_resn>  (135) 
XNV

>  <lig_resi>  (135) 
190

>  <lig_chain>  (135) 
A

>  <lig_segi>  (135) 
C

>  <lig_alt>  (135) 


>  <polymer_chain>  (135) 
A

>  <single_smiles>  (135) 
CCOC(=O)CC[C@H](C[C@@H]1CCNC1=O)NC(=O)[C@H](CC#C)N2C=CC=C(NC(=O)c3cc(C)on3)C2=O

$$$$
XNVP5S10
     RDKit          3D

 15 15  0  0  0  0  0  0  0  0999 V2000
   -9.2490   16.5750  -32.0350 N   0  0  0  0  0  0  0  0  0  0  0  0
   -9.0490   16.1590  -33.3600 C   0  0  0  0  0  0  0  0  0  0  0  0
   -9.2700   14.7400  -33.6260 C   0  0  0  0  0  0  0  0  0  0  0  0
   -8.7180   16.9980  -34.4080 C   0  0  0  0  0  0  0  0  0  0  0  0
   -9.2290   14.2940  -34.9840 N   0  0  0  0  0  0  0  0  0  0  0  0
   -9.5210   13.9120  -32.7390 O   0  0  0  0  0  0  0  0  0  0  0  0
   -8.6520   16.4840  -35.7260 C   0  0  0  0  0  0  0  0  0  0  0  0
   -9.5440   12.8720  -35.1700 C   0  0  2  0  0  0  0  0  0  0  0  0
   -8.8880   15.1740  -35.9880 C   0  0  0  0  0  0  0  0  0  0  0  0
   -8.3660   11.9860  -34.7380 C   0  0  0  0  0  0  0  0  0  0  0  0
   -9.9610   12.5320  -36.6040 C   0  0  0  0  0  0  0  0  0  0  0  0
   -8.6960   10.7850  -34.1610 N   0  0  0  0  0  0  0  0  0  0  0  0
   -7.2170   12.3540  -34.9210 O   0  0  0  0  0  0  0  0  0  0  0  0
  -11.1420   13.3100  -36.9200 C   0  0  0  0  0  0  0  0  0  0  0  0
  -12.1000   13.9360  -37.1800 C   0  0  0  0  0  0  0  0  0  0  0  0
  2  1  1  0
  3  2  1  0
  2  4  1  0
  5  3  1  0
  3  6  1  0
  4  7  1  0
  8  5  1  0
  5  9  1  0
  7  9  1  0
 10  8  1  0
  8 11  1  6
 12 10  1  0
 10 13  1  0
 11 14  1  0
 14 15  1  0
A    2
 C13
A    3
 C12
A    4
 C23
A    5
 N11
A    6
 O26
A    7
 C24
A    8
 C10
A    9
 C25
A   10
 C09
A   11
 C27
A   13
 O30
A   14
 C28
A   15
 C29
M  END
>  <XChem_code>  (136) 
XNV§5

>  <Occupancy>  (136) 
[0.69, 0.31, 0.69, 0.31, 0.69, 0.31, 0.69, 0.31, 1.0, 1.0, 1.0, 1.0, 1.0, 1.0, 1.0, 1.0, 1.0, 1.0, 1.0, 1.0, 1.0, 1.0, 1.0, 1.0, 1.0, 1.0, 1.0, 1.0, 1.0, 1.0, 1.0, 1.0, 1.0, 1.0, 1.0, 1.0, 1.0, 1.0, 1.0, 1.0, 0.69, 0.31, 1.0, 1.0]

>  <TempFactor>  (136) 
[53.57, 61.0, 41.59, 49.21, 23.74, 32.51, 19.1, 21.28, 7.6, 8.11, 8.4, 9.74, 8.05, 8.56, 8.33, 8.16, 7.98, 7.67, 8.77, 11.26, 12.79, 12.84, 16.26, 10.81, 9.75, 8.32, 9.11, 8.82, 8.1, 8.86, 9.21, 10.73, 9.43, 7.8, 6.74, 9.87, 8.87, 8.14, 7.89, 8.51, 19.72, 18.23, 7.31, 12.55]

>  <accession>  (136) 
3Q3Y_A

>  <description>  (136) 
Chain A, HEVB EV93 3C protease [Enterovirus B]

>  <evalue>  (136) 
1.1460600000000001e-87

>  <pdb_code>  (136) 
3Q3Y

>  <chain>  (136) 
A

>  <ligands>  (136) 
[{'chain_id': 'A', 'author_residue_number': 190, 'author_insertion_code': '', 'chem_comp_id': 'XNV', 'alternate_conformers': 2, 'entity_id': 2, 'struct_asym_id': 'C', 'residue_number': 1, 'chem_comp_name': 'ethyl (4R)-4-({(2S)-2-[3-{[(5-methyl-1,2-oxazol-3-yl)carbonyl]amino}-2-oxopyridin-1(2H)-yl]pent-4-ynoyl}amino)-5-[(3S)-2-oxopyrrolidin-3-yl]pentanoate', 'weight': 525.554, 'carbohydrate_polymer': False, 'branch_name': ''}, {'chain_id': 'B', 'author_residue_number': 190, 'author_insertion_code': '', 'chem_comp_id': 'XNV', 'alternate_conformers': 2, 'entity_id': 2, 'struct_asym_id': 'L', 'residue_number': 1, 'chem_comp_name': 'ethyl (4R)-4-({(2S)-2-[3-{[(5-methyl-1,2-oxazol-3-yl)carbonyl]amino}-2-oxopyridin-1(2H)-yl]pent-4-ynoyl}amino)-5-[(3S)-2-oxopyrrolidin-3-yl]pentanoate', 'weight': 525.554, 'carbohydrate_polymer': False, 'branch_name': ''}, {'chain_id': 'A', 'author_residue_number': 191, 'author_insertion_code': '', 'chem_comp_id': 'EDO', 'alternate_conformers': 2, 'entity_id': 3, 'struct_asym_id': 'D', 'residue_number': 1, 'chem_comp_name': '1,2-ETHANEDIOL', 'weight': 62.068, 'carbohydrate_polymer': False, 'branch_name': ''}, {'chain_id': 'A', 'author_residue_number': 192, 'author_insertion_code': '', 'chem_comp_id': 'EDO', 'alternate_conformers': 2, 'entity_id': 3, 'struct_asym_id': 'E', 'residue_number': 1, 'chem_comp_name': '1,2-ETHANEDIOL', 'weight': 62.068, 'carbohydrate_polymer': False, 'branch_name': ''}, {'chain_id': 'A', 'author_residue_number': 193, 'author_insertion_code': '', 'chem_comp_id': 'EDO', 'alternate_conformers': 0, 'entity_id': 3, 'struct_asym_id': 'F', 'residue_number': 1, 'chem_comp_name': '1,2-ETHANEDIOL', 'weight': 62.068, 'carbohydrate_polymer': False, 'branch_name': ''}, {'chain_id': 'A', 'author_residue_number': 194, 'author_insertion_code': '', 'chem_comp_id': 'EDO', 'alternate_conformers': 1, 'entity_id': 3, 'struct_asym_id': 'G', 'residue_number': 1, 'chem_comp_name': '1,2-ETHANEDIOL', 'weight': 62.068, 'carbohydrate_polymer': False, 'branch_name': ''}, {'chain_id': 'B', 'author_residue_number': 191, 'author_insertion_code': '', 'chem_comp_id': 'EDO', 'alternate_conformers': 2, 'entity_id': 3, 'struct_asym_id': 'M', 'residue_number': 1, 'chem_comp_name': '1,2-ETHANEDIOL', 'weight': 62.068, 'carbohydrate_polymer': False, 'branch_name': ''}, {'chain_id': 'B', 'author_residue_number': 192, 'author_insertion_code': '', 'chem_comp_id': 'EDO', 'alternate_conformers': 0, 'entity_id': 3, 'struct_asym_id': 'N', 'residue_number': 1, 'chem_comp_name': '1,2-ETHANEDIOL', 'weight': 62.068, 'carbohydrate_polymer': False, 'branch_name': ''}, {'chain_id': 'B', 'author_residue_number': 193, 'author_insertion_code': '', 'chem_comp_id': 'EDO', 'alternate_conformers': 2, 'entity_id': 3, 'struct_asym_id': 'O', 'residue_number': 1, 'chem_comp_name': '1,2-ETHANEDIOL', 'weight': 62.068, 'carbohydrate_polymer': False, 'branch_name': ''}, {'chain_id': 'B', 'author_residue_number': 194, 'author_insertion_code': '', 'chem_comp_id': 'EDO', 'alternate_conformers': 1, 'entity_id': 3, 'struct_asym_id': 'P', 'residue_number': 1, 'chem_comp_name': '1,2-ETHANEDIOL', 'weight': 62.068, 'carbohydrate_polymer': False, 'branch_name': ''}, {'chain_id': 'A', 'author_residue_number': 195, 'author_insertion_code': '', 'chem_comp_id': 'PI', 'alternate_conformers': 1, 'entity_id': 4, 'struct_asym_id': 'H', 'residue_number': 1, 'chem_comp_name': 'HYDROGENPHOSPHATE ION', 'weight': 95.979, 'carbohydrate_polymer': False, 'branch_name': ''}, {'chain_id': 'A', 'author_residue_number': 196, 'author_insertion_code': '', 'chem_comp_id': 'PI', 'alternate_conformers': 1, 'entity_id': 4, 'struct_asym_id': 'I', 'residue_number': 1, 'chem_comp_name': 'HYDROGENPHOSPHATE ION', 'weight': 95.979, 'carbohydrate_polymer': False, 'branch_name': ''}, {'chain_id': 'B', 'author_residue_number': 195, 'author_insertion_code': '', 'chem_comp_id': 'PI', 'alternate_conformers': 1, 'entity_id': 4, 'struct_asym_id': 'Q', 'residue_number': 1, 'chem_comp_name': 'HYDROGENPHOSPHATE ION', 'weight': 95.979, 'carbohydrate_polymer': False, 'branch_name': ''}, {'chain_id': 'A', 'author_residue_number': 197, 'author_insertion_code': '', 'chem_comp_id': 'NH4', 'alternate_conformers': 2, 'entity_id': 5, 'struct_asym_id': 'J', 'residue_number': 1, 'chem_comp_name': 'AMMONIUM ION', 'weight': 18.038, 'carbohydrate_polymer': False, 'branch_name': ''}, {'chain_id': 'A', 'author_residue_number': 198, 'author_insertion_code': '', 'chem_comp_id': 'NH4', 'alternate_conformers': 0, 'entity_id': 5, 'struct_asym_id': 'K', 'residue_number': 1, 'chem_comp_name': 'AMMONIUM ION', 'weight': 18.038, 'carbohydrate_polymer': False, 'branch_name': ''}]

>  <ligand_codes>  (136) 
['XNV', 'XNV', 'EDO', 'EDO', 'EDO', 'EDO', 'EDO', 'EDO', 'EDO', 'EDO', 'PI', 'PI', 'PI', 'NH4', 'NH4']

>  <cofactor_codes>  (136) 
[]

>  <has_cofactor>  (136) 
False

>  <covalent>  (136) 
True

>  <base_name>  (136) 
3Q3Y

>  <lig_resn>  (136) 
XNV

>  <lig_resi>  (136) 
190

>  <lig_chain>  (136) 
A

>  <lig_segi>  (136) 
C

>  <lig_alt>  (136) 


>  <polymer_chain>  (136) 
A

>  <single_smiles>  (136) 
CCOC(=O)CC[C@H](C[C@@H]1CCNC1=O)NC(=O)[C@H](CC#C)N2C=CC=C(NC(=O)c3cc(C)on3)C2=O

$$$$
XNVP5S11
     RDKit          3D

  6  5  0  0  0  0  0  0  0  0999 V2000
   -9.5440   12.8720  -35.1700 C   0  0  0  0  0  0  0  0  0  0  0  0
   -8.3660   11.9860  -34.7380 C   0  0  0  0  0  0  0  0  0  0  0  0
   -9.9610   12.5320  -36.6040 C   0  0  0  0  0  0  0  0  0  0  0  0
   -7.2170   12.3540  -34.9210 O   0  0  0  0  0  0  0  0  0  0  0  0
  -11.1420   13.3100  -36.9200 C   0  0  0  0  0  0  0  0  0  0  0  0
  -12.1000   13.9360  -37.1800 C   0  0  0  0  0  0  0  0  0  0  0  0
  1  2  1  1
  1  3  1  0
  2  4  1  0
  3  5  1  0
  5  6  1  0
A    3
 C27
A    4
 O30
A    5
 C28
A    6
 C29
M  END
>  <XChem_code>  (137) 
XNV§5

>  <Occupancy>  (137) 
[0.69, 0.31, 0.69, 0.31, 0.69, 0.31, 0.69, 0.31, 1.0, 1.0, 1.0, 1.0, 1.0, 1.0, 1.0, 1.0, 1.0, 1.0, 1.0, 1.0, 1.0, 1.0, 1.0, 1.0, 1.0, 1.0, 1.0, 1.0, 1.0, 1.0, 1.0, 1.0, 1.0, 1.0, 1.0, 1.0, 1.0, 1.0, 1.0, 1.0, 0.69, 0.31, 1.0, 1.0]

>  <TempFactor>  (137) 
[53.57, 61.0, 41.59, 49.21, 23.74, 32.51, 19.1, 21.28, 7.6, 8.11, 8.4, 9.74, 8.05, 8.56, 8.33, 8.16, 7.98, 7.67, 8.77, 11.26, 12.79, 12.84, 16.26, 10.81, 9.75, 8.32, 9.11, 8.82, 8.1, 8.86, 9.21, 10.73, 9.43, 7.8, 6.74, 9.87, 8.87, 8.14, 7.89, 8.51, 19.72, 18.23, 7.31, 12.55]

>  <accession>  (137) 
3Q3Y_A

>  <description>  (137) 
Chain A, HEVB EV93 3C protease [Enterovirus B]

>  <evalue>  (137) 
1.1460600000000001e-87

>  <pdb_code>  (137) 
3Q3Y

>  <chain>  (137) 
A

>  <ligands>  (137) 
[{'chain_id': 'A', 'author_residue_number': 190, 'author_insertion_code': '', 'chem_comp_id': 'XNV', 'alternate_conformers': 2, 'entity_id': 2, 'struct_asym_id': 'C', 'residue_number': 1, 'chem_comp_name': 'ethyl (4R)-4-({(2S)-2-[3-{[(5-methyl-1,2-oxazol-3-yl)carbonyl]amino}-2-oxopyridin-1(2H)-yl]pent-4-ynoyl}amino)-5-[(3S)-2-oxopyrrolidin-3-yl]pentanoate', 'weight': 525.554, 'carbohydrate_polymer': False, 'branch_name': ''}, {'chain_id': 'B', 'author_residue_number': 190, 'author_insertion_code': '', 'chem_comp_id': 'XNV', 'alternate_conformers': 2, 'entity_id': 2, 'struct_asym_id': 'L', 'residue_number': 1, 'chem_comp_name': 'ethyl (4R)-4-({(2S)-2-[3-{[(5-methyl-1,2-oxazol-3-yl)carbonyl]amino}-2-oxopyridin-1(2H)-yl]pent-4-ynoyl}amino)-5-[(3S)-2-oxopyrrolidin-3-yl]pentanoate', 'weight': 525.554, 'carbohydrate_polymer': False, 'branch_name': ''}, {'chain_id': 'A', 'author_residue_number': 191, 'author_insertion_code': '', 'chem_comp_id': 'EDO', 'alternate_conformers': 2, 'entity_id': 3, 'struct_asym_id': 'D', 'residue_number': 1, 'chem_comp_name': '1,2-ETHANEDIOL', 'weight': 62.068, 'carbohydrate_polymer': False, 'branch_name': ''}, {'chain_id': 'A', 'author_residue_number': 192, 'author_insertion_code': '', 'chem_comp_id': 'EDO', 'alternate_conformers': 2, 'entity_id': 3, 'struct_asym_id': 'E', 'residue_number': 1, 'chem_comp_name': '1,2-ETHANEDIOL', 'weight': 62.068, 'carbohydrate_polymer': False, 'branch_name': ''}, {'chain_id': 'A', 'author_residue_number': 193, 'author_insertion_code': '', 'chem_comp_id': 'EDO', 'alternate_conformers': 0, 'entity_id': 3, 'struct_asym_id': 'F', 'residue_number': 1, 'chem_comp_name': '1,2-ETHANEDIOL', 'weight': 62.068, 'carbohydrate_polymer': False, 'branch_name': ''}, {'chain_id': 'A', 'author_residue_number': 194, 'author_insertion_code': '', 'chem_comp_id': 'EDO', 'alternate_conformers': 1, 'entity_id': 3, 'struct_asym_id': 'G', 'residue_number': 1, 'chem_comp_name': '1,2-ETHANEDIOL', 'weight': 62.068, 'carbohydrate_polymer': False, 'branch_name': ''}, {'chain_id': 'B', 'author_residue_number': 191, 'author_insertion_code': '', 'chem_comp_id': 'EDO', 'alternate_conformers': 2, 'entity_id': 3, 'struct_asym_id': 'M', 'residue_number': 1, 'chem_comp_name': '1,2-ETHANEDIOL', 'weight': 62.068, 'carbohydrate_polymer': False, 'branch_name': ''}, {'chain_id': 'B', 'author_residue_number': 192, 'author_insertion_code': '', 'chem_comp_id': 'EDO', 'alternate_conformers': 0, 'entity_id': 3, 'struct_asym_id': 'N', 'residue_number': 1, 'chem_comp_name': '1,2-ETHANEDIOL', 'weight': 62.068, 'carbohydrate_polymer': False, 'branch_name': ''}, {'chain_id': 'B', 'author_residue_number': 193, 'author_insertion_code': '', 'chem_comp_id': 'EDO', 'alternate_conformers': 2, 'entity_id': 3, 'struct_asym_id': 'O', 'residue_number': 1, 'chem_comp_name': '1,2-ETHANEDIOL', 'weight': 62.068, 'carbohydrate_polymer': False, 'branch_name': ''}, {'chain_id': 'B', 'author_residue_number': 194, 'author_insertion_code': '', 'chem_comp_id': 'EDO', 'alternate_conformers': 1, 'entity_id': 3, 'struct_asym_id': 'P', 'residue_number': 1, 'chem_comp_name': '1,2-ETHANEDIOL', 'weight': 62.068, 'carbohydrate_polymer': False, 'branch_name': ''}, {'chain_id': 'A', 'author_residue_number': 195, 'author_insertion_code': '', 'chem_comp_id': 'PI', 'alternate_conformers': 1, 'entity_id': 4, 'struct_asym_id': 'H', 'residue_number': 1, 'chem_comp_name': 'HYDROGENPHOSPHATE ION', 'weight': 95.979, 'carbohydrate_polymer': False, 'branch_name': ''}, {'chain_id': 'A', 'author_residue_number': 196, 'author_insertion_code': '', 'chem_comp_id': 'PI', 'alternate_conformers': 1, 'entity_id': 4, 'struct_asym_id': 'I', 'residue_number': 1, 'chem_comp_name': 'HYDROGENPHOSPHATE ION', 'weight': 95.979, 'carbohydrate_polymer': False, 'branch_name': ''}, {'chain_id': 'B', 'author_residue_number': 195, 'author_insertion_code': '', 'chem_comp_id': 'PI', 'alternate_conformers': 1, 'entity_id': 4, 'struct_asym_id': 'Q', 'residue_number': 1, 'chem_comp_name': 'HYDROGENPHOSPHATE ION', 'weight': 95.979, 'carbohydrate_polymer': False, 'branch_name': ''}, {'chain_id': 'A', 'author_residue_number': 197, 'author_insertion_code': '', 'chem_comp_id': 'NH4', 'alternate_conformers': 2, 'entity_id': 5, 'struct_asym_id': 'J', 'residue_number': 1, 'chem_comp_name': 'AMMONIUM ION', 'weight': 18.038, 'carbohydrate_polymer': False, 'branch_name': ''}, {'chain_id': 'A', 'author_residue_number': 198, 'author_insertion_code': '', 'chem_comp_id': 'NH4', 'alternate_conformers': 0, 'entity_id': 5, 'struct_asym_id': 'K', 'residue_number': 1, 'chem_comp_name': 'AMMONIUM ION', 'weight': 18.038, 'carbohydrate_polymer': False, 'branch_name': ''}]

>  <ligand_codes>  (137) 
['XNV', 'XNV', 'EDO', 'EDO', 'EDO', 'EDO', 'EDO', 'EDO', 'EDO', 'EDO', 'PI', 'PI', 'PI', 'NH4', 'NH4']

>  <cofactor_codes>  (137) 
[]

>  <has_cofactor>  (137) 
False

>  <covalent>  (137) 
True

>  <base_name>  (137) 
3Q3Y

>  <lig_resn>  (137) 
XNV

>  <lig_resi>  (137) 
190

>  <lig_chain>  (137) 
A

>  <lig_segi>  (137) 
C

>  <lig_alt>  (137) 


>  <polymer_chain>  (137) 
A

>  <single_smiles>  (137) 
CCOC(=O)CC[C@H](C[C@@H]1CCNC1=O)NC(=O)[C@H](CC#C)N2C=CC=C(NC(=O)c3cc(C)on3)C2=O

$$$$
XNVP5S12
     RDKit          3D

 14 14  0  0  0  0  0  0  0  0999 V2000
   -9.2490   16.5750  -32.0350 N   0  0  0  0  0  0  0  0  0  0  0  0
   -9.0490   16.1590  -33.3600 C   0  0  0  0  0  0  0  0  0  0  0  0
   -9.2700   14.7400  -33.6260 C   0  0  0  0  0  0  0  0  0  0  0  0
   -8.7180   16.9980  -34.4080 C   0  0  0  0  0  0  0  0  0  0  0  0
   -9.2290   14.2940  -34.9840 N   0  0  0  0  0  0  0  0  0  0  0  0
   -9.5210   13.9120  -32.7390 O   0  0  0  0  0  0  0  0  0  0  0  0
   -8.6520   16.4840  -35.7260 C   0  0  0  0  0  0  0  0  0  0  0  0
   -9.5440   12.8720  -35.1700 C   0  0  2  0  0  0  0  0  0  0  0  0
   -8.8880   15.1740  -35.9880 C   0  0  0  0  0  0  0  0  0  0  0  0
   -8.3660   11.9860  -34.7380 C   0  0  0  0  0  0  0  0  0  0  0  0
   -9.9610   12.5320  -36.6040 C   0  0  0  0  0  0  0  0  0  0  0  0
   -7.2170   12.3540  -34.9210 O   0  0  0  0  0  0  0  0  0  0  0  0
  -11.1420   13.3100  -36.9200 C   0  0  0  0  0  0  0  0  0  0  0  0
  -12.1000   13.9360  -37.1800 C   0  0  0  0  0  0  0  0  0  0  0  0
  2  1  1  0
  3  2  1  0
  2  4  1  0
  5  3  1  0
  3  6  1  0
  4  7  1  0
  8  5  1  0
  5  9  1  0
  7  9  1  0
  8 10  1  6
  8 11  1  0
 10 12  1  0
 11 13  1  0
 13 14  1  0
A    2
 C13
A    3
 C12
A    4
 C23
A    5
 N11
A    6
 O26
A    7
 C24
A    8
 C10
A    9
 C25
A   11
 C27
A   12
 O30
A   13
 C28
A   14
 C29
M  END
>  <XChem_code>  (138) 
XNV§5

>  <Occupancy>  (138) 
[0.69, 0.31, 0.69, 0.31, 0.69, 0.31, 0.69, 0.31, 1.0, 1.0, 1.0, 1.0, 1.0, 1.0, 1.0, 1.0, 1.0, 1.0, 1.0, 1.0, 1.0, 1.0, 1.0, 1.0, 1.0, 1.0, 1.0, 1.0, 1.0, 1.0, 1.0, 1.0, 1.0, 1.0, 1.0, 1.0, 1.0, 1.0, 1.0, 1.0, 0.69, 0.31, 1.0, 1.0]

>  <TempFactor>  (138) 
[53.57, 61.0, 41.59, 49.21, 23.74, 32.51, 19.1, 21.28, 7.6, 8.11, 8.4, 9.74, 8.05, 8.56, 8.33, 8.16, 7.98, 7.67, 8.77, 11.26, 12.79, 12.84, 16.26, 10.81, 9.75, 8.32, 9.11, 8.82, 8.1, 8.86, 9.21, 10.73, 9.43, 7.8, 6.74, 9.87, 8.87, 8.14, 7.89, 8.51, 19.72, 18.23, 7.31, 12.55]

>  <accession>  (138) 
3Q3Y_A

>  <description>  (138) 
Chain A, HEVB EV93 3C protease [Enterovirus B]

>  <evalue>  (138) 
1.1460600000000001e-87

>  <pdb_code>  (138) 
3Q3Y

>  <chain>  (138) 
A

>  <ligands>  (138) 
[{'chain_id': 'A', 'author_residue_number': 190, 'author_insertion_code': '', 'chem_comp_id': 'XNV', 'alternate_conformers': 2, 'entity_id': 2, 'struct_asym_id': 'C', 'residue_number': 1, 'chem_comp_name': 'ethyl (4R)-4-({(2S)-2-[3-{[(5-methyl-1,2-oxazol-3-yl)carbonyl]amino}-2-oxopyridin-1(2H)-yl]pent-4-ynoyl}amino)-5-[(3S)-2-oxopyrrolidin-3-yl]pentanoate', 'weight': 525.554, 'carbohydrate_polymer': False, 'branch_name': ''}, {'chain_id': 'B', 'author_residue_number': 190, 'author_insertion_code': '', 'chem_comp_id': 'XNV', 'alternate_conformers': 2, 'entity_id': 2, 'struct_asym_id': 'L', 'residue_number': 1, 'chem_comp_name': 'ethyl (4R)-4-({(2S)-2-[3-{[(5-methyl-1,2-oxazol-3-yl)carbonyl]amino}-2-oxopyridin-1(2H)-yl]pent-4-ynoyl}amino)-5-[(3S)-2-oxopyrrolidin-3-yl]pentanoate', 'weight': 525.554, 'carbohydrate_polymer': False, 'branch_name': ''}, {'chain_id': 'A', 'author_residue_number': 191, 'author_insertion_code': '', 'chem_comp_id': 'EDO', 'alternate_conformers': 2, 'entity_id': 3, 'struct_asym_id': 'D', 'residue_number': 1, 'chem_comp_name': '1,2-ETHANEDIOL', 'weight': 62.068, 'carbohydrate_polymer': False, 'branch_name': ''}, {'chain_id': 'A', 'author_residue_number': 192, 'author_insertion_code': '', 'chem_comp_id': 'EDO', 'alternate_conformers': 2, 'entity_id': 3, 'struct_asym_id': 'E', 'residue_number': 1, 'chem_comp_name': '1,2-ETHANEDIOL', 'weight': 62.068, 'carbohydrate_polymer': False, 'branch_name': ''}, {'chain_id': 'A', 'author_residue_number': 193, 'author_insertion_code': '', 'chem_comp_id': 'EDO', 'alternate_conformers': 0, 'entity_id': 3, 'struct_asym_id': 'F', 'residue_number': 1, 'chem_comp_name': '1,2-ETHANEDIOL', 'weight': 62.068, 'carbohydrate_polymer': False, 'branch_name': ''}, {'chain_id': 'A', 'author_residue_number': 194, 'author_insertion_code': '', 'chem_comp_id': 'EDO', 'alternate_conformers': 1, 'entity_id': 3, 'struct_asym_id': 'G', 'residue_number': 1, 'chem_comp_name': '1,2-ETHANEDIOL', 'weight': 62.068, 'carbohydrate_polymer': False, 'branch_name': ''}, {'chain_id': 'B', 'author_residue_number': 191, 'author_insertion_code': '', 'chem_comp_id': 'EDO', 'alternate_conformers': 2, 'entity_id': 3, 'struct_asym_id': 'M', 'residue_number': 1, 'chem_comp_name': '1,2-ETHANEDIOL', 'weight': 62.068, 'carbohydrate_polymer': False, 'branch_name': ''}, {'chain_id': 'B', 'author_residue_number': 192, 'author_insertion_code': '', 'chem_comp_id': 'EDO', 'alternate_conformers': 0, 'entity_id': 3, 'struct_asym_id': 'N', 'residue_number': 1, 'chem_comp_name': '1,2-ETHANEDIOL', 'weight': 62.068, 'carbohydrate_polymer': False, 'branch_name': ''}, {'chain_id': 'B', 'author_residue_number': 193, 'author_insertion_code': '', 'chem_comp_id': 'EDO', 'alternate_conformers': 2, 'entity_id': 3, 'struct_asym_id': 'O', 'residue_number': 1, 'chem_comp_name': '1,2-ETHANEDIOL', 'weight': 62.068, 'carbohydrate_polymer': False, 'branch_name': ''}, {'chain_id': 'B', 'author_residue_number': 194, 'author_insertion_code': '', 'chem_comp_id': 'EDO', 'alternate_conformers': 1, 'entity_id': 3, 'struct_asym_id': 'P', 'residue_number': 1, 'chem_comp_name': '1,2-ETHANEDIOL', 'weight': 62.068, 'carbohydrate_polymer': False, 'branch_name': ''}, {'chain_id': 'A', 'author_residue_number': 195, 'author_insertion_code': '', 'chem_comp_id': 'PI', 'alternate_conformers': 1, 'entity_id': 4, 'struct_asym_id': 'H', 'residue_number': 1, 'chem_comp_name': 'HYDROGENPHOSPHATE ION', 'weight': 95.979, 'carbohydrate_polymer': False, 'branch_name': ''}, {'chain_id': 'A', 'author_residue_number': 196, 'author_insertion_code': '', 'chem_comp_id': 'PI', 'alternate_conformers': 1, 'entity_id': 4, 'struct_asym_id': 'I', 'residue_number': 1, 'chem_comp_name': 'HYDROGENPHOSPHATE ION', 'weight': 95.979, 'carbohydrate_polymer': False, 'branch_name': ''}, {'chain_id': 'B', 'author_residue_number': 195, 'author_insertion_code': '', 'chem_comp_id': 'PI', 'alternate_conformers': 1, 'entity_id': 4, 'struct_asym_id': 'Q', 'residue_number': 1, 'chem_comp_name': 'HYDROGENPHOSPHATE ION', 'weight': 95.979, 'carbohydrate_polymer': False, 'branch_name': ''}, {'chain_id': 'A', 'author_residue_number': 197, 'author_insertion_code': '', 'chem_comp_id': 'NH4', 'alternate_conformers': 2, 'entity_id': 5, 'struct_asym_id': 'J', 'residue_number': 1, 'chem_comp_name': 'AMMONIUM ION', 'weight': 18.038, 'carbohydrate_polymer': False, 'branch_name': ''}, {'chain_id': 'A', 'author_residue_number': 198, 'author_insertion_code': '', 'chem_comp_id': 'NH4', 'alternate_conformers': 0, 'entity_id': 5, 'struct_asym_id': 'K', 'residue_number': 1, 'chem_comp_name': 'AMMONIUM ION', 'weight': 18.038, 'carbohydrate_polymer': False, 'branch_name': ''}]

>  <ligand_codes>  (138) 
['XNV', 'XNV', 'EDO', 'EDO', 'EDO', 'EDO', 'EDO', 'EDO', 'EDO', 'EDO', 'PI', 'PI', 'PI', 'NH4', 'NH4']

>  <cofactor_codes>  (138) 
[]

>  <has_cofactor>  (138) 
False

>  <covalent>  (138) 
True

>  <base_name>  (138) 
3Q3Y

>  <lig_resn>  (138) 
XNV

>  <lig_resi>  (138) 
190

>  <lig_chain>  (138) 
A

>  <lig_segi>  (138) 
C

>  <lig_alt>  (138) 


>  <polymer_chain>  (138) 
A

>  <single_smiles>  (138) 
CCOC(=O)CC[C@H](C[C@@H]1CCNC1=O)NC(=O)[C@H](CC#C)N2C=CC=C(NC(=O)c3cc(C)on3)C2=O

$$$$
XNVP5S13
     RDKit          3D

  8  8  0  0  0  0  0  0  0  0999 V2000
   -9.2490   16.5750  -32.0350 N   0  0  0  0  0  0  0  0  0  0  0  0
   -9.0490   16.1590  -33.3600 C   0  0  0  0  0  0  0  0  0  0  0  0
   -9.2700   14.7400  -33.6260 C   0  0  0  0  0  0  0  0  0  0  0  0
   -8.7180   16.9980  -34.4080 C   0  0  0  0  0  0  0  0  0  0  0  0
   -9.2290   14.2940  -34.9840 N   0  0  0  0  0  0  0  0  0  0  0  0
   -9.5210   13.9120  -32.7390 O   0  0  0  0  0  0  0  0  0  0  0  0
   -8.6520   16.4840  -35.7260 C   0  0  0  0  0  0  0  0  0  0  0  0
   -8.8880   15.1740  -35.9880 C   0  0  0  0  0  0  0  0  0  0  0  0
  2  1  1  0
  3  2  1  0
  2  4  1  0
  5  3  1  0
  3  6  1  0
  4  7  1  0
  5  8  1  0
  7  8  1  0
A    2
 C13
A    3
 C12
A    4
 C23
A    6
 O26
A    7
 C24
A    8
 C25
M  END
>  <XChem_code>  (139) 
XNV§5

>  <Occupancy>  (139) 
[0.69, 0.31, 0.69, 0.31, 0.69, 0.31, 0.69, 0.31, 1.0, 1.0, 1.0, 1.0, 1.0, 1.0, 1.0, 1.0, 1.0, 1.0, 1.0, 1.0, 1.0, 1.0, 1.0, 1.0, 1.0, 1.0, 1.0, 1.0, 1.0, 1.0, 1.0, 1.0, 1.0, 1.0, 1.0, 1.0, 1.0, 1.0, 1.0, 1.0, 0.69, 0.31, 1.0, 1.0]

>  <TempFactor>  (139) 
[53.57, 61.0, 41.59, 49.21, 23.74, 32.51, 19.1, 21.28, 7.6, 8.11, 8.4, 9.74, 8.05, 8.56, 8.33, 8.16, 7.98, 7.67, 8.77, 11.26, 12.79, 12.84, 16.26, 10.81, 9.75, 8.32, 9.11, 8.82, 8.1, 8.86, 9.21, 10.73, 9.43, 7.8, 6.74, 9.87, 8.87, 8.14, 7.89, 8.51, 19.72, 18.23, 7.31, 12.55]

>  <accession>  (139) 
3Q3Y_A

>  <description>  (139) 
Chain A, HEVB EV93 3C protease [Enterovirus B]

>  <evalue>  (139) 
1.1460600000000001e-87

>  <pdb_code>  (139) 
3Q3Y

>  <chain>  (139) 
A

>  <ligands>  (139) 
[{'chain_id': 'A', 'author_residue_number': 190, 'author_insertion_code': '', 'chem_comp_id': 'XNV', 'alternate_conformers': 2, 'entity_id': 2, 'struct_asym_id': 'C', 'residue_number': 1, 'chem_comp_name': 'ethyl (4R)-4-({(2S)-2-[3-{[(5-methyl-1,2-oxazol-3-yl)carbonyl]amino}-2-oxopyridin-1(2H)-yl]pent-4-ynoyl}amino)-5-[(3S)-2-oxopyrrolidin-3-yl]pentanoate', 'weight': 525.554, 'carbohydrate_polymer': False, 'branch_name': ''}, {'chain_id': 'B', 'author_residue_number': 190, 'author_insertion_code': '', 'chem_comp_id': 'XNV', 'alternate_conformers': 2, 'entity_id': 2, 'struct_asym_id': 'L', 'residue_number': 1, 'chem_comp_name': 'ethyl (4R)-4-({(2S)-2-[3-{[(5-methyl-1,2-oxazol-3-yl)carbonyl]amino}-2-oxopyridin-1(2H)-yl]pent-4-ynoyl}amino)-5-[(3S)-2-oxopyrrolidin-3-yl]pentanoate', 'weight': 525.554, 'carbohydrate_polymer': False, 'branch_name': ''}, {'chain_id': 'A', 'author_residue_number': 191, 'author_insertion_code': '', 'chem_comp_id': 'EDO', 'alternate_conformers': 2, 'entity_id': 3, 'struct_asym_id': 'D', 'residue_number': 1, 'chem_comp_name': '1,2-ETHANEDIOL', 'weight': 62.068, 'carbohydrate_polymer': False, 'branch_name': ''}, {'chain_id': 'A', 'author_residue_number': 192, 'author_insertion_code': '', 'chem_comp_id': 'EDO', 'alternate_conformers': 2, 'entity_id': 3, 'struct_asym_id': 'E', 'residue_number': 1, 'chem_comp_name': '1,2-ETHANEDIOL', 'weight': 62.068, 'carbohydrate_polymer': False, 'branch_name': ''}, {'chain_id': 'A', 'author_residue_number': 193, 'author_insertion_code': '', 'chem_comp_id': 'EDO', 'alternate_conformers': 0, 'entity_id': 3, 'struct_asym_id': 'F', 'residue_number': 1, 'chem_comp_name': '1,2-ETHANEDIOL', 'weight': 62.068, 'carbohydrate_polymer': False, 'branch_name': ''}, {'chain_id': 'A', 'author_residue_number': 194, 'author_insertion_code': '', 'chem_comp_id': 'EDO', 'alternate_conformers': 1, 'entity_id': 3, 'struct_asym_id': 'G', 'residue_number': 1, 'chem_comp_name': '1,2-ETHANEDIOL', 'weight': 62.068, 'carbohydrate_polymer': False, 'branch_name': ''}, {'chain_id': 'B', 'author_residue_number': 191, 'author_insertion_code': '', 'chem_comp_id': 'EDO', 'alternate_conformers': 2, 'entity_id': 3, 'struct_asym_id': 'M', 'residue_number': 1, 'chem_comp_name': '1,2-ETHANEDIOL', 'weight': 62.068, 'carbohydrate_polymer': False, 'branch_name': ''}, {'chain_id': 'B', 'author_residue_number': 192, 'author_insertion_code': '', 'chem_comp_id': 'EDO', 'alternate_conformers': 0, 'entity_id': 3, 'struct_asym_id': 'N', 'residue_number': 1, 'chem_comp_name': '1,2-ETHANEDIOL', 'weight': 62.068, 'carbohydrate_polymer': False, 'branch_name': ''}, {'chain_id': 'B', 'author_residue_number': 193, 'author_insertion_code': '', 'chem_comp_id': 'EDO', 'alternate_conformers': 2, 'entity_id': 3, 'struct_asym_id': 'O', 'residue_number': 1, 'chem_comp_name': '1,2-ETHANEDIOL', 'weight': 62.068, 'carbohydrate_polymer': False, 'branch_name': ''}, {'chain_id': 'B', 'author_residue_number': 194, 'author_insertion_code': '', 'chem_comp_id': 'EDO', 'alternate_conformers': 1, 'entity_id': 3, 'struct_asym_id': 'P', 'residue_number': 1, 'chem_comp_name': '1,2-ETHANEDIOL', 'weight': 62.068, 'carbohydrate_polymer': False, 'branch_name': ''}, {'chain_id': 'A', 'author_residue_number': 195, 'author_insertion_code': '', 'chem_comp_id': 'PI', 'alternate_conformers': 1, 'entity_id': 4, 'struct_asym_id': 'H', 'residue_number': 1, 'chem_comp_name': 'HYDROGENPHOSPHATE ION', 'weight': 95.979, 'carbohydrate_polymer': False, 'branch_name': ''}, {'chain_id': 'A', 'author_residue_number': 196, 'author_insertion_code': '', 'chem_comp_id': 'PI', 'alternate_conformers': 1, 'entity_id': 4, 'struct_asym_id': 'I', 'residue_number': 1, 'chem_comp_name': 'HYDROGENPHOSPHATE ION', 'weight': 95.979, 'carbohydrate_polymer': False, 'branch_name': ''}, {'chain_id': 'B', 'author_residue_number': 195, 'author_insertion_code': '', 'chem_comp_id': 'PI', 'alternate_conformers': 1, 'entity_id': 4, 'struct_asym_id': 'Q', 'residue_number': 1, 'chem_comp_name': 'HYDROGENPHOSPHATE ION', 'weight': 95.979, 'carbohydrate_polymer': False, 'branch_name': ''}, {'chain_id': 'A', 'author_residue_number': 197, 'author_insertion_code': '', 'chem_comp_id': 'NH4', 'alternate_conformers': 2, 'entity_id': 5, 'struct_asym_id': 'J', 'residue_number': 1, 'chem_comp_name': 'AMMONIUM ION', 'weight': 18.038, 'carbohydrate_polymer': False, 'branch_name': ''}, {'chain_id': 'A', 'author_residue_number': 198, 'author_insertion_code': '', 'chem_comp_id': 'NH4', 'alternate_conformers': 0, 'entity_id': 5, 'struct_asym_id': 'K', 'residue_number': 1, 'chem_comp_name': 'AMMONIUM ION', 'weight': 18.038, 'carbohydrate_polymer': False, 'branch_name': ''}]

>  <ligand_codes>  (139) 
['XNV', 'XNV', 'EDO', 'EDO', 'EDO', 'EDO', 'EDO', 'EDO', 'EDO', 'EDO', 'PI', 'PI', 'PI', 'NH4', 'NH4']

>  <cofactor_codes>  (139) 
[]

>  <has_cofactor>  (139) 
False

>  <covalent>  (139) 
True

>  <base_name>  (139) 
3Q3Y

>  <lig_resn>  (139) 
XNV

>  <lig_resi>  (139) 
190

>  <lig_chain>  (139) 
A

>  <lig_segi>  (139) 
C

>  <lig_alt>  (139) 


>  <polymer_chain>  (139) 
A

>  <single_smiles>  (139) 
CCOC(=O)CC[C@H](C[C@@H]1CCNC1=O)NC(=O)[C@H](CC#C)N2C=CC=C(NC(=O)c3cc(C)on3)C2=O

$$$$
XNVP5S14
     RDKit          3D

  9  9  0  0  0  0  0  0  0  0999 V2000
   -9.2490   16.5750  -32.0350 N   0  0  0  0  0  0  0  0  0  0  0  0
  -10.0950   17.6650  -31.7210 C   0  0  0  0  0  0  0  0  0  0  0  0
  -10.3340   17.8140  -30.2530 C   0  0  0  0  0  0  0  0  0  0  0  0
  -10.5810   18.4340  -32.5450 O   0  0  0  0  0  0  0  0  0  0  0  0
   -9.8210   17.0290  -29.3110 N   0  0  0  0  0  0  0  0  0  0  0  0
  -11.1330   18.8400  -29.6240 C   0  0  0  0  0  0  0  0  0  0  0  0
  -10.2850   17.4780  -28.1290 O   0  0  0  0  0  0  0  0  0  0  0  0
  -11.0580   18.5830  -28.2730 C   0  0  0  0  0  0  0  0  0  0  0  0
  -11.6710   19.3000  -27.1340 C   0  0  0  0  0  0  0  0  0  0  0  0
  1  2  1  0
  2  3  1  0
  2  4  1  0
  3  5  1  0
  3  6  1  0
  5  7  1  0
  8  6  1  0
  7  8  1  0
  8  9  1  0
A    2
 C15
A    3
 C16
A    4
 O22
A    5
 N17
A    6
 C21
A    7
 O18
A    8
 C19
A    9
 C20
M  END
>  <XChem_code>  (140) 
XNV§5

>  <Occupancy>  (140) 
[0.69, 0.31, 0.69, 0.31, 0.69, 0.31, 0.69, 0.31, 1.0, 1.0, 1.0, 1.0, 1.0, 1.0, 1.0, 1.0, 1.0, 1.0, 1.0, 1.0, 1.0, 1.0, 1.0, 1.0, 1.0, 1.0, 1.0, 1.0, 1.0, 1.0, 1.0, 1.0, 1.0, 1.0, 1.0, 1.0, 1.0, 1.0, 1.0, 1.0, 0.69, 0.31, 1.0, 1.0]

>  <TempFactor>  (140) 
[53.57, 61.0, 41.59, 49.21, 23.74, 32.51, 19.1, 21.28, 7.6, 8.11, 8.4, 9.74, 8.05, 8.56, 8.33, 8.16, 7.98, 7.67, 8.77, 11.26, 12.79, 12.84, 16.26, 10.81, 9.75, 8.32, 9.11, 8.82, 8.1, 8.86, 9.21, 10.73, 9.43, 7.8, 6.74, 9.87, 8.87, 8.14, 7.89, 8.51, 19.72, 18.23, 7.31, 12.55]

>  <accession>  (140) 
3Q3Y_A

>  <description>  (140) 
Chain A, HEVB EV93 3C protease [Enterovirus B]

>  <evalue>  (140) 
1.1460600000000001e-87

>  <pdb_code>  (140) 
3Q3Y

>  <chain>  (140) 
A

>  <ligands>  (140) 
[{'chain_id': 'A', 'author_residue_number': 190, 'author_insertion_code': '', 'chem_comp_id': 'XNV', 'alternate_conformers': 2, 'entity_id': 2, 'struct_asym_id': 'C', 'residue_number': 1, 'chem_comp_name': 'ethyl (4R)-4-({(2S)-2-[3-{[(5-methyl-1,2-oxazol-3-yl)carbonyl]amino}-2-oxopyridin-1(2H)-yl]pent-4-ynoyl}amino)-5-[(3S)-2-oxopyrrolidin-3-yl]pentanoate', 'weight': 525.554, 'carbohydrate_polymer': False, 'branch_name': ''}, {'chain_id': 'B', 'author_residue_number': 190, 'author_insertion_code': '', 'chem_comp_id': 'XNV', 'alternate_conformers': 2, 'entity_id': 2, 'struct_asym_id': 'L', 'residue_number': 1, 'chem_comp_name': 'ethyl (4R)-4-({(2S)-2-[3-{[(5-methyl-1,2-oxazol-3-yl)carbonyl]amino}-2-oxopyridin-1(2H)-yl]pent-4-ynoyl}amino)-5-[(3S)-2-oxopyrrolidin-3-yl]pentanoate', 'weight': 525.554, 'carbohydrate_polymer': False, 'branch_name': ''}, {'chain_id': 'A', 'author_residue_number': 191, 'author_insertion_code': '', 'chem_comp_id': 'EDO', 'alternate_conformers': 2, 'entity_id': 3, 'struct_asym_id': 'D', 'residue_number': 1, 'chem_comp_name': '1,2-ETHANEDIOL', 'weight': 62.068, 'carbohydrate_polymer': False, 'branch_name': ''}, {'chain_id': 'A', 'author_residue_number': 192, 'author_insertion_code': '', 'chem_comp_id': 'EDO', 'alternate_conformers': 2, 'entity_id': 3, 'struct_asym_id': 'E', 'residue_number': 1, 'chem_comp_name': '1,2-ETHANEDIOL', 'weight': 62.068, 'carbohydrate_polymer': False, 'branch_name': ''}, {'chain_id': 'A', 'author_residue_number': 193, 'author_insertion_code': '', 'chem_comp_id': 'EDO', 'alternate_conformers': 0, 'entity_id': 3, 'struct_asym_id': 'F', 'residue_number': 1, 'chem_comp_name': '1,2-ETHANEDIOL', 'weight': 62.068, 'carbohydrate_polymer': False, 'branch_name': ''}, {'chain_id': 'A', 'author_residue_number': 194, 'author_insertion_code': '', 'chem_comp_id': 'EDO', 'alternate_conformers': 1, 'entity_id': 3, 'struct_asym_id': 'G', 'residue_number': 1, 'chem_comp_name': '1,2-ETHANEDIOL', 'weight': 62.068, 'carbohydrate_polymer': False, 'branch_name': ''}, {'chain_id': 'B', 'author_residue_number': 191, 'author_insertion_code': '', 'chem_comp_id': 'EDO', 'alternate_conformers': 2, 'entity_id': 3, 'struct_asym_id': 'M', 'residue_number': 1, 'chem_comp_name': '1,2-ETHANEDIOL', 'weight': 62.068, 'carbohydrate_polymer': False, 'branch_name': ''}, {'chain_id': 'B', 'author_residue_number': 192, 'author_insertion_code': '', 'chem_comp_id': 'EDO', 'alternate_conformers': 0, 'entity_id': 3, 'struct_asym_id': 'N', 'residue_number': 1, 'chem_comp_name': '1,2-ETHANEDIOL', 'weight': 62.068, 'carbohydrate_polymer': False, 'branch_name': ''}, {'chain_id': 'B', 'author_residue_number': 193, 'author_insertion_code': '', 'chem_comp_id': 'EDO', 'alternate_conformers': 2, 'entity_id': 3, 'struct_asym_id': 'O', 'residue_number': 1, 'chem_comp_name': '1,2-ETHANEDIOL', 'weight': 62.068, 'carbohydrate_polymer': False, 'branch_name': ''}, {'chain_id': 'B', 'author_residue_number': 194, 'author_insertion_code': '', 'chem_comp_id': 'EDO', 'alternate_conformers': 1, 'entity_id': 3, 'struct_asym_id': 'P', 'residue_number': 1, 'chem_comp_name': '1,2-ETHANEDIOL', 'weight': 62.068, 'carbohydrate_polymer': False, 'branch_name': ''}, {'chain_id': 'A', 'author_residue_number': 195, 'author_insertion_code': '', 'chem_comp_id': 'PI', 'alternate_conformers': 1, 'entity_id': 4, 'struct_asym_id': 'H', 'residue_number': 1, 'chem_comp_name': 'HYDROGENPHOSPHATE ION', 'weight': 95.979, 'carbohydrate_polymer': False, 'branch_name': ''}, {'chain_id': 'A', 'author_residue_number': 196, 'author_insertion_code': '', 'chem_comp_id': 'PI', 'alternate_conformers': 1, 'entity_id': 4, 'struct_asym_id': 'I', 'residue_number': 1, 'chem_comp_name': 'HYDROGENPHOSPHATE ION', 'weight': 95.979, 'carbohydrate_polymer': False, 'branch_name': ''}, {'chain_id': 'B', 'author_residue_number': 195, 'author_insertion_code': '', 'chem_comp_id': 'PI', 'alternate_conformers': 1, 'entity_id': 4, 'struct_asym_id': 'Q', 'residue_number': 1, 'chem_comp_name': 'HYDROGENPHOSPHATE ION', 'weight': 95.979, 'carbohydrate_polymer': False, 'branch_name': ''}, {'chain_id': 'A', 'author_residue_number': 197, 'author_insertion_code': '', 'chem_comp_id': 'NH4', 'alternate_conformers': 2, 'entity_id': 5, 'struct_asym_id': 'J', 'residue_number': 1, 'chem_comp_name': 'AMMONIUM ION', 'weight': 18.038, 'carbohydrate_polymer': False, 'branch_name': ''}, {'chain_id': 'A', 'author_residue_number': 198, 'author_insertion_code': '', 'chem_comp_id': 'NH4', 'alternate_conformers': 0, 'entity_id': 5, 'struct_asym_id': 'K', 'residue_number': 1, 'chem_comp_name': 'AMMONIUM ION', 'weight': 18.038, 'carbohydrate_polymer': False, 'branch_name': ''}]

>  <ligand_codes>  (140) 
['XNV', 'XNV', 'EDO', 'EDO', 'EDO', 'EDO', 'EDO', 'EDO', 'EDO', 'EDO', 'PI', 'PI', 'PI', 'NH4', 'NH4']

>  <cofactor_codes>  (140) 
[]

>  <has_cofactor>  (140) 
False

>  <covalent>  (140) 
True

>  <base_name>  (140) 
3Q3Y

>  <lig_resn>  (140) 
XNV

>  <lig_resi>  (140) 
190

>  <lig_chain>  (140) 
A

>  <lig_segi>  (140) 
C

>  <lig_alt>  (140) 


>  <polymer_chain>  (140) 
A

>  <single_smiles>  (140) 
CCOC(=O)CC[C@H](C[C@@H]1CCNC1=O)NC(=O)[C@H](CC#C)N2C=CC=C(NC(=O)c3cc(C)on3)C2=O

$$$$
XNVP5S15
     RDKit          3D

 35 36  0  0  0  0  0  0  0  0999 V2000
   -9.0490   16.1590  -33.3600 C   0  0  0  0  0  0  0  0  0  0  0  0
   -9.2700   14.7400  -33.6260 C   0  0  0  0  0  0  0  0  0  0  0  0
   -8.7180   16.9980  -34.4080 C   0  0  0  0  0  0  0  0  0  0  0  0
   -9.2290   14.2940  -34.9840 N   0  0  0  0  0  0  0  0  0  0  0  0
   -9.5210   13.9120  -32.7390 O   0  0  0  0  0  0  0  0  0  0  0  0
   -8.6520   16.4840  -35.7260 C   0  0  0  0  0  0  0  0  0  0  0  0
   -9.5440   12.8720  -35.1700 C   0  0  2  0  0  0  0  0  0  0  0  0
   -8.8880   15.1740  -35.9880 C   0  0  0  0  0  0  0  0  0  0  0  0
   -8.3660   11.9860  -34.7380 C   0  0  0  0  0  0  0  0  0  0  0  0
   -9.9610   12.5320  -36.6040 C   0  0  0  0  0  0  0  0  0  0  0  0
   -8.6960   10.7850  -34.1610 N   0  0  0  0  0  0  0  0  0  0  0  0
   -7.2170   12.3540  -34.9210 O   0  0  0  0  0  0  0  0  0  0  0  0
  -11.1420   13.3100  -36.9200 C   0  0  0  0  0  0  0  0  0  0  0  0
   -7.6700    9.8230  -33.7780 C   0  0  2  0  0  0  0  0  0  0  0  0
  -12.1000   13.9360  -37.1800 C   0  0  0  0  0  0  0  0  0  0  0  0
   -8.0140    8.4320  -34.3930 C   0  0  1  0  0  0  0  0  0  0  0  0
   -7.5070    9.7730  -32.2370 C   0  0  0  0  0  0  0  0  0  0  0  0
   -9.6590    8.0130  -33.9280 R   0  0  0  0  0  0  0  0  0  0  0  0
   -7.7310    8.3810  -35.9230 R   0  0  0  0  0  0  0  0  0  0  0  0
   -7.1020   11.0700  -31.5740 C   0  0  2  0  0  0  0  0  0  0  0  0
   -6.2830    8.2890  -36.3860 C   0  0  1  0  0  0  0  0  0  0  0  0
   -6.2390    8.3590  -36.3130 C   0  0  2  0  0  0  0  0  0  0  0  0
   -5.6570   11.5300  -31.9370 C   0  0  0  0  0  0  0  0  0  0  0  0
   -7.0130   10.9790  -30.0830 C   0  0  0  0  0  0  0  0  0  0  0  0
   -5.9620    9.3890  -37.1520 O   0  0  0  0  0  0  0  0  0  0  0  0
   -5.3980    7.7430  -35.7710 O   0  0  0  0  0  0  0  0  0  0  0  0
   -5.9500    7.3430  -37.2070 O   0  0  0  0  0  0  0  0  0  0  0  0
   -5.3090    8.7040  -35.6100 O   0  0  0  0  0  0  0  0  0  0  0  0
   -5.2110   12.3590  -30.7450 C   0  0  0  0  0  0  0  0  0  0  0  0
   -5.9230   11.6850  -29.6600 N   0  0  0  0  0  0  0  0  0  0  0  0
   -7.8230   10.4100  -29.3700 O   0  0  0  0  0  0  0  0  0  0  0  0
   -4.5680    9.6340  -37.4070 C   0  0  0  0  0  0  0  0  0  0  0  0
   -6.9670    6.7070  -37.9880 C   0  0  0  0  0  0  0  0  0  0  0  0
   -4.2700   11.1150  -37.7120 C   0  0  0  0  0  0  0  0  0  0  0  0
   -6.4370    5.4350  -38.6720 C   0  0  0  0  0  0  0  0  0  0  0  0
  2  1  1  0
  1  3  1  0
  4  2  1  0
  2  5  1  0
  3  6  1  0
  7  4  1  0
  4  8  1  0
  6  8  1  0
  9  7  1  0
  7 10  1  6
 11  9  1  0
  9 12  1  0
 10 13  1  0
 14 11  1  0
 13 15  1  0
 16 14  1  0
 14 17  1  1
 16 18  1  6
 16 19  1  0
 20 17  1  6
 21 19  1  0
 22 19  1  0
 20 23  1  0
 20 24  1  0
 25 21  1  0
 21 26  1  1
 27 22  1  0
 22 28  1  1
 23 29  1  0
 30 24  1  0
 24 31  1  0
 32 25  1  0
 33 27  1  0
 29 30  1  0
 34 32  1  0
 35 33  1  0
V   18 *
V   19 *
A    2
 C12
A    3
 C23
A    4
 N11
A    5
 O26
A    6
 C24
A    7
 C10
A    8
 C25
A    9
 C09
A   10
 C27
A   11
 N08
A   12
 O30
A   13
 C28
A   14
 C07
A   15
 C29
A   16
 C06
A   17
 C31
A   18
 X  
A   19
 X  
A   20
 C32
A   21
 C04
A   22
 C04
A   23
 C33
A   24
 C36
A   25
 O03
A   26
 O38
A   27
 O03
A   28
 O38
A   29
 C34
A   30
 N35
A   31
 O37
A   32
 C02
A   33
 C02
A   34
 C01
A   35
 C01
M  END
>  <XChem_code>  (141) 
XNV§5

>  <Occupancy>  (141) 
[0.69, 0.31, 0.69, 0.31, 0.69, 0.31, 0.69, 0.31, 1.0, 1.0, 1.0, 1.0, 1.0, 1.0, 1.0, 1.0, 1.0, 1.0, 1.0, 1.0, 1.0, 1.0, 1.0, 1.0, 1.0, 1.0, 1.0, 1.0, 1.0, 1.0, 1.0, 1.0, 1.0, 1.0, 1.0, 1.0, 1.0, 1.0, 1.0, 1.0, 0.69, 0.31, 1.0, 1.0]

>  <TempFactor>  (141) 
[53.57, 61.0, 41.59, 49.21, 23.74, 32.51, 19.1, 21.28, 7.6, 8.11, 8.4, 9.74, 8.05, 8.56, 8.33, 8.16, 7.98, 7.67, 8.77, 11.26, 12.79, 12.84, 16.26, 10.81, 9.75, 8.32, 9.11, 8.82, 8.1, 8.86, 9.21, 10.73, 9.43, 7.8, 6.74, 9.87, 8.87, 8.14, 7.89, 8.51, 19.72, 18.23, 7.31, 12.55]

>  <accession>  (141) 
3Q3Y_A

>  <description>  (141) 
Chain A, HEVB EV93 3C protease [Enterovirus B]

>  <evalue>  (141) 
1.1460600000000001e-87

>  <pdb_code>  (141) 
3Q3Y

>  <chain>  (141) 
A

>  <ligands>  (141) 
[{'chain_id': 'A', 'author_residue_number': 190, 'author_insertion_code': '', 'chem_comp_id': 'XNV', 'alternate_conformers': 2, 'entity_id': 2, 'struct_asym_id': 'C', 'residue_number': 1, 'chem_comp_name': 'ethyl (4R)-4-({(2S)-2-[3-{[(5-methyl-1,2-oxazol-3-yl)carbonyl]amino}-2-oxopyridin-1(2H)-yl]pent-4-ynoyl}amino)-5-[(3S)-2-oxopyrrolidin-3-yl]pentanoate', 'weight': 525.554, 'carbohydrate_polymer': False, 'branch_name': ''}, {'chain_id': 'B', 'author_residue_number': 190, 'author_insertion_code': '', 'chem_comp_id': 'XNV', 'alternate_conformers': 2, 'entity_id': 2, 'struct_asym_id': 'L', 'residue_number': 1, 'chem_comp_name': 'ethyl (4R)-4-({(2S)-2-[3-{[(5-methyl-1,2-oxazol-3-yl)carbonyl]amino}-2-oxopyridin-1(2H)-yl]pent-4-ynoyl}amino)-5-[(3S)-2-oxopyrrolidin-3-yl]pentanoate', 'weight': 525.554, 'carbohydrate_polymer': False, 'branch_name': ''}, {'chain_id': 'A', 'author_residue_number': 191, 'author_insertion_code': '', 'chem_comp_id': 'EDO', 'alternate_conformers': 2, 'entity_id': 3, 'struct_asym_id': 'D', 'residue_number': 1, 'chem_comp_name': '1,2-ETHANEDIOL', 'weight': 62.068, 'carbohydrate_polymer': False, 'branch_name': ''}, {'chain_id': 'A', 'author_residue_number': 192, 'author_insertion_code': '', 'chem_comp_id': 'EDO', 'alternate_conformers': 2, 'entity_id': 3, 'struct_asym_id': 'E', 'residue_number': 1, 'chem_comp_name': '1,2-ETHANEDIOL', 'weight': 62.068, 'carbohydrate_polymer': False, 'branch_name': ''}, {'chain_id': 'A', 'author_residue_number': 193, 'author_insertion_code': '', 'chem_comp_id': 'EDO', 'alternate_conformers': 0, 'entity_id': 3, 'struct_asym_id': 'F', 'residue_number': 1, 'chem_comp_name': '1,2-ETHANEDIOL', 'weight': 62.068, 'carbohydrate_polymer': False, 'branch_name': ''}, {'chain_id': 'A', 'author_residue_number': 194, 'author_insertion_code': '', 'chem_comp_id': 'EDO', 'alternate_conformers': 1, 'entity_id': 3, 'struct_asym_id': 'G', 'residue_number': 1, 'chem_comp_name': '1,2-ETHANEDIOL', 'weight': 62.068, 'carbohydrate_polymer': False, 'branch_name': ''}, {'chain_id': 'B', 'author_residue_number': 191, 'author_insertion_code': '', 'chem_comp_id': 'EDO', 'alternate_conformers': 2, 'entity_id': 3, 'struct_asym_id': 'M', 'residue_number': 1, 'chem_comp_name': '1,2-ETHANEDIOL', 'weight': 62.068, 'carbohydrate_polymer': False, 'branch_name': ''}, {'chain_id': 'B', 'author_residue_number': 192, 'author_insertion_code': '', 'chem_comp_id': 'EDO', 'alternate_conformers': 0, 'entity_id': 3, 'struct_asym_id': 'N', 'residue_number': 1, 'chem_comp_name': '1,2-ETHANEDIOL', 'weight': 62.068, 'carbohydrate_polymer': False, 'branch_name': ''}, {'chain_id': 'B', 'author_residue_number': 193, 'author_insertion_code': '', 'chem_comp_id': 'EDO', 'alternate_conformers': 2, 'entity_id': 3, 'struct_asym_id': 'O', 'residue_number': 1, 'chem_comp_name': '1,2-ETHANEDIOL', 'weight': 62.068, 'carbohydrate_polymer': False, 'branch_name': ''}, {'chain_id': 'B', 'author_residue_number': 194, 'author_insertion_code': '', 'chem_comp_id': 'EDO', 'alternate_conformers': 1, 'entity_id': 3, 'struct_asym_id': 'P', 'residue_number': 1, 'chem_comp_name': '1,2-ETHANEDIOL', 'weight': 62.068, 'carbohydrate_polymer': False, 'branch_name': ''}, {'chain_id': 'A', 'author_residue_number': 195, 'author_insertion_code': '', 'chem_comp_id': 'PI', 'alternate_conformers': 1, 'entity_id': 4, 'struct_asym_id': 'H', 'residue_number': 1, 'chem_comp_name': 'HYDROGENPHOSPHATE ION', 'weight': 95.979, 'carbohydrate_polymer': False, 'branch_name': ''}, {'chain_id': 'A', 'author_residue_number': 196, 'author_insertion_code': '', 'chem_comp_id': 'PI', 'alternate_conformers': 1, 'entity_id': 4, 'struct_asym_id': 'I', 'residue_number': 1, 'chem_comp_name': 'HYDROGENPHOSPHATE ION', 'weight': 95.979, 'carbohydrate_polymer': False, 'branch_name': ''}, {'chain_id': 'B', 'author_residue_number': 195, 'author_insertion_code': '', 'chem_comp_id': 'PI', 'alternate_conformers': 1, 'entity_id': 4, 'struct_asym_id': 'Q', 'residue_number': 1, 'chem_comp_name': 'HYDROGENPHOSPHATE ION', 'weight': 95.979, 'carbohydrate_polymer': False, 'branch_name': ''}, {'chain_id': 'A', 'author_residue_number': 197, 'author_insertion_code': '', 'chem_comp_id': 'NH4', 'alternate_conformers': 2, 'entity_id': 5, 'struct_asym_id': 'J', 'residue_number': 1, 'chem_comp_name': 'AMMONIUM ION', 'weight': 18.038, 'carbohydrate_polymer': False, 'branch_name': ''}, {'chain_id': 'A', 'author_residue_number': 198, 'author_insertion_code': '', 'chem_comp_id': 'NH4', 'alternate_conformers': 0, 'entity_id': 5, 'struct_asym_id': 'K', 'residue_number': 1, 'chem_comp_name': 'AMMONIUM ION', 'weight': 18.038, 'carbohydrate_polymer': False, 'branch_name': ''}]

>  <ligand_codes>  (141) 
['XNV', 'XNV', 'EDO', 'EDO', 'EDO', 'EDO', 'EDO', 'EDO', 'EDO', 'EDO', 'PI', 'PI', 'PI', 'NH4', 'NH4']

>  <cofactor_codes>  (141) 
[]

>  <has_cofactor>  (141) 
False

>  <covalent>  (141) 
True

>  <base_name>  (141) 
3Q3Y

>  <lig_resn>  (141) 
XNV

>  <lig_resi>  (141) 
190

>  <lig_chain>  (141) 
A

>  <lig_segi>  (141) 
C

>  <lig_alt>  (141) 


>  <polymer_chain>  (141) 
A

>  <single_smiles>  (141) 
CCOC(=O)CC[C@H](C[C@@H]1CCNC1=O)NC(=O)[C@H](CC#C)N2C=CC=C(NC(=O)c3cc(C)on3)C2=O

$$$$
XNVP5S16
     RDKit          3D

 14 14  0  0  0  0  0  0  0  0999 V2000
   -9.0490   16.1590  -33.3600 C   0  0  0  0  0  0  0  0  0  0  0  0
   -9.2700   14.7400  -33.6260 C   0  0  0  0  0  0  0  0  0  0  0  0
   -8.7180   16.9980  -34.4080 C   0  0  0  0  0  0  0  0  0  0  0  0
   -9.2290   14.2940  -34.9840 N   0  0  0  0  0  0  0  0  0  0  0  0
   -9.5210   13.9120  -32.7390 O   0  0  0  0  0  0  0  0  0  0  0  0
   -8.6520   16.4840  -35.7260 C   0  0  0  0  0  0  0  0  0  0  0  0
   -9.5440   12.8720  -35.1700 C   0  0  2  0  0  0  0  0  0  0  0  0
   -8.8880   15.1740  -35.9880 C   0  0  0  0  0  0  0  0  0  0  0  0
   -8.3660   11.9860  -34.7380 C   0  0  0  0  0  0  0  0  0  0  0  0
   -9.9610   12.5320  -36.6040 C   0  0  0  0  0  0  0  0  0  0  0  0
   -8.6960   10.7850  -34.1610 N   0  0  0  0  0  0  0  0  0  0  0  0
   -7.2170   12.3540  -34.9210 O   0  0  0  0  0  0  0  0  0  0  0  0
  -11.1420   13.3100  -36.9200 C   0  0  0  0  0  0  0  0  0  0  0  0
  -12.1000   13.9360  -37.1800 C   0  0  0  0  0  0  0  0  0  0  0  0
  2  1  1  0
  1  3  1  0
  4  2  1  0
  2  5  1  0
  3  6  1  0
  7  4  1  0
  4  8  1  0
  6  8  1  0
  9  7  1  0
  7 10  1  6
 11  9  1  0
  9 12  1  0
 10 13  1  0
 13 14  1  0
A    2
 C12
A    3
 C23
A    4
 N11
A    5
 O26
A    6
 C24
A    7
 C10
A    8
 C25
A    9
 C09
A   10
 C27
A   12
 O30
A   13
 C28
A   14
 C29
M  END
>  <XChem_code>  (142) 
XNV§5

>  <Occupancy>  (142) 
[0.69, 0.31, 0.69, 0.31, 0.69, 0.31, 0.69, 0.31, 1.0, 1.0, 1.0, 1.0, 1.0, 1.0, 1.0, 1.0, 1.0, 1.0, 1.0, 1.0, 1.0, 1.0, 1.0, 1.0, 1.0, 1.0, 1.0, 1.0, 1.0, 1.0, 1.0, 1.0, 1.0, 1.0, 1.0, 1.0, 1.0, 1.0, 1.0, 1.0, 0.69, 0.31, 1.0, 1.0]

>  <TempFactor>  (142) 
[53.57, 61.0, 41.59, 49.21, 23.74, 32.51, 19.1, 21.28, 7.6, 8.11, 8.4, 9.74, 8.05, 8.56, 8.33, 8.16, 7.98, 7.67, 8.77, 11.26, 12.79, 12.84, 16.26, 10.81, 9.75, 8.32, 9.11, 8.82, 8.1, 8.86, 9.21, 10.73, 9.43, 7.8, 6.74, 9.87, 8.87, 8.14, 7.89, 8.51, 19.72, 18.23, 7.31, 12.55]

>  <accession>  (142) 
3Q3Y_A

>  <description>  (142) 
Chain A, HEVB EV93 3C protease [Enterovirus B]

>  <evalue>  (142) 
1.1460600000000001e-87

>  <pdb_code>  (142) 
3Q3Y

>  <chain>  (142) 
A

>  <ligands>  (142) 
[{'chain_id': 'A', 'author_residue_number': 190, 'author_insertion_code': '', 'chem_comp_id': 'XNV', 'alternate_conformers': 2, 'entity_id': 2, 'struct_asym_id': 'C', 'residue_number': 1, 'chem_comp_name': 'ethyl (4R)-4-({(2S)-2-[3-{[(5-methyl-1,2-oxazol-3-yl)carbonyl]amino}-2-oxopyridin-1(2H)-yl]pent-4-ynoyl}amino)-5-[(3S)-2-oxopyrrolidin-3-yl]pentanoate', 'weight': 525.554, 'carbohydrate_polymer': False, 'branch_name': ''}, {'chain_id': 'B', 'author_residue_number': 190, 'author_insertion_code': '', 'chem_comp_id': 'XNV', 'alternate_conformers': 2, 'entity_id': 2, 'struct_asym_id': 'L', 'residue_number': 1, 'chem_comp_name': 'ethyl (4R)-4-({(2S)-2-[3-{[(5-methyl-1,2-oxazol-3-yl)carbonyl]amino}-2-oxopyridin-1(2H)-yl]pent-4-ynoyl}amino)-5-[(3S)-2-oxopyrrolidin-3-yl]pentanoate', 'weight': 525.554, 'carbohydrate_polymer': False, 'branch_name': ''}, {'chain_id': 'A', 'author_residue_number': 191, 'author_insertion_code': '', 'chem_comp_id': 'EDO', 'alternate_conformers': 2, 'entity_id': 3, 'struct_asym_id': 'D', 'residue_number': 1, 'chem_comp_name': '1,2-ETHANEDIOL', 'weight': 62.068, 'carbohydrate_polymer': False, 'branch_name': ''}, {'chain_id': 'A', 'author_residue_number': 192, 'author_insertion_code': '', 'chem_comp_id': 'EDO', 'alternate_conformers': 2, 'entity_id': 3, 'struct_asym_id': 'E', 'residue_number': 1, 'chem_comp_name': '1,2-ETHANEDIOL', 'weight': 62.068, 'carbohydrate_polymer': False, 'branch_name': ''}, {'chain_id': 'A', 'author_residue_number': 193, 'author_insertion_code': '', 'chem_comp_id': 'EDO', 'alternate_conformers': 0, 'entity_id': 3, 'struct_asym_id': 'F', 'residue_number': 1, 'chem_comp_name': '1,2-ETHANEDIOL', 'weight': 62.068, 'carbohydrate_polymer': False, 'branch_name': ''}, {'chain_id': 'A', 'author_residue_number': 194, 'author_insertion_code': '', 'chem_comp_id': 'EDO', 'alternate_conformers': 1, 'entity_id': 3, 'struct_asym_id': 'G', 'residue_number': 1, 'chem_comp_name': '1,2-ETHANEDIOL', 'weight': 62.068, 'carbohydrate_polymer': False, 'branch_name': ''}, {'chain_id': 'B', 'author_residue_number': 191, 'author_insertion_code': '', 'chem_comp_id': 'EDO', 'alternate_conformers': 2, 'entity_id': 3, 'struct_asym_id': 'M', 'residue_number': 1, 'chem_comp_name': '1,2-ETHANEDIOL', 'weight': 62.068, 'carbohydrate_polymer': False, 'branch_name': ''}, {'chain_id': 'B', 'author_residue_number': 192, 'author_insertion_code': '', 'chem_comp_id': 'EDO', 'alternate_conformers': 0, 'entity_id': 3, 'struct_asym_id': 'N', 'residue_number': 1, 'chem_comp_name': '1,2-ETHANEDIOL', 'weight': 62.068, 'carbohydrate_polymer': False, 'branch_name': ''}, {'chain_id': 'B', 'author_residue_number': 193, 'author_insertion_code': '', 'chem_comp_id': 'EDO', 'alternate_conformers': 2, 'entity_id': 3, 'struct_asym_id': 'O', 'residue_number': 1, 'chem_comp_name': '1,2-ETHANEDIOL', 'weight': 62.068, 'carbohydrate_polymer': False, 'branch_name': ''}, {'chain_id': 'B', 'author_residue_number': 194, 'author_insertion_code': '', 'chem_comp_id': 'EDO', 'alternate_conformers': 1, 'entity_id': 3, 'struct_asym_id': 'P', 'residue_number': 1, 'chem_comp_name': '1,2-ETHANEDIOL', 'weight': 62.068, 'carbohydrate_polymer': False, 'branch_name': ''}, {'chain_id': 'A', 'author_residue_number': 195, 'author_insertion_code': '', 'chem_comp_id': 'PI', 'alternate_conformers': 1, 'entity_id': 4, 'struct_asym_id': 'H', 'residue_number': 1, 'chem_comp_name': 'HYDROGENPHOSPHATE ION', 'weight': 95.979, 'carbohydrate_polymer': False, 'branch_name': ''}, {'chain_id': 'A', 'author_residue_number': 196, 'author_insertion_code': '', 'chem_comp_id': 'PI', 'alternate_conformers': 1, 'entity_id': 4, 'struct_asym_id': 'I', 'residue_number': 1, 'chem_comp_name': 'HYDROGENPHOSPHATE ION', 'weight': 95.979, 'carbohydrate_polymer': False, 'branch_name': ''}, {'chain_id': 'B', 'author_residue_number': 195, 'author_insertion_code': '', 'chem_comp_id': 'PI', 'alternate_conformers': 1, 'entity_id': 4, 'struct_asym_id': 'Q', 'residue_number': 1, 'chem_comp_name': 'HYDROGENPHOSPHATE ION', 'weight': 95.979, 'carbohydrate_polymer': False, 'branch_name': ''}, {'chain_id': 'A', 'author_residue_number': 197, 'author_insertion_code': '', 'chem_comp_id': 'NH4', 'alternate_conformers': 2, 'entity_id': 5, 'struct_asym_id': 'J', 'residue_number': 1, 'chem_comp_name': 'AMMONIUM ION', 'weight': 18.038, 'carbohydrate_polymer': False, 'branch_name': ''}, {'chain_id': 'A', 'author_residue_number': 198, 'author_insertion_code': '', 'chem_comp_id': 'NH4', 'alternate_conformers': 0, 'entity_id': 5, 'struct_asym_id': 'K', 'residue_number': 1, 'chem_comp_name': 'AMMONIUM ION', 'weight': 18.038, 'carbohydrate_polymer': False, 'branch_name': ''}]

>  <ligand_codes>  (142) 
['XNV', 'XNV', 'EDO', 'EDO', 'EDO', 'EDO', 'EDO', 'EDO', 'EDO', 'EDO', 'PI', 'PI', 'PI', 'NH4', 'NH4']

>  <cofactor_codes>  (142) 
[]

>  <has_cofactor>  (142) 
False

>  <covalent>  (142) 
True

>  <base_name>  (142) 
3Q3Y

>  <lig_resn>  (142) 
XNV

>  <lig_resi>  (142) 
190

>  <lig_chain>  (142) 
A

>  <lig_segi>  (142) 
C

>  <lig_alt>  (142) 


>  <polymer_chain>  (142) 
A

>  <single_smiles>  (142) 
CCOC(=O)CC[C@H](C[C@@H]1CCNC1=O)NC(=O)[C@H](CC#C)N2C=CC=C(NC(=O)c3cc(C)on3)C2=O

$$$$
XNVP5S17
     RDKit          3D

 13 13  0  0  0  0  0  0  0  0999 V2000
   -9.0490   16.1590  -33.3600 C   0  0  0  0  0  0  0  0  0  0  0  0
   -9.2700   14.7400  -33.6260 C   0  0  0  0  0  0  0  0  0  0  0  0
   -8.7180   16.9980  -34.4080 C   0  0  0  0  0  0  0  0  0  0  0  0
   -9.2290   14.2940  -34.9840 N   0  0  0  0  0  0  0  0  0  0  0  0
   -9.5210   13.9120  -32.7390 O   0  0  0  0  0  0  0  0  0  0  0  0
   -8.6520   16.4840  -35.7260 C   0  0  0  0  0  0  0  0  0  0  0  0
   -9.5440   12.8720  -35.1700 C   0  0  2  0  0  0  0  0  0  0  0  0
   -8.8880   15.1740  -35.9880 C   0  0  0  0  0  0  0  0  0  0  0  0
   -8.3660   11.9860  -34.7380 C   0  0  0  0  0  0  0  0  0  0  0  0
   -9.9610   12.5320  -36.6040 C   0  0  0  0  0  0  0  0  0  0  0  0
   -7.2170   12.3540  -34.9210 O   0  0  0  0  0  0  0  0  0  0  0  0
  -11.1420   13.3100  -36.9200 C   0  0  0  0  0  0  0  0  0  0  0  0
  -12.1000   13.9360  -37.1800 C   0  0  0  0  0  0  0  0  0  0  0  0
  2  1  1  0
  1  3  1  0
  4  2  1  0
  2  5  1  0
  3  6  1  0
  7  4  1  0
  4  8  1  0
  6  8  1  0
  7  9  1  6
  7 10  1  0
  9 11  1  0
 10 12  1  0
 12 13  1  0
A    2
 C12
A    3
 C23
A    4
 N11
A    5
 O26
A    6
 C24
A    7
 C10
A    8
 C25
A   10
 C27
A   11
 O30
A   12
 C28
A   13
 C29
M  END
>  <XChem_code>  (143) 
XNV§5

>  <Occupancy>  (143) 
[0.69, 0.31, 0.69, 0.31, 0.69, 0.31, 0.69, 0.31, 1.0, 1.0, 1.0, 1.0, 1.0, 1.0, 1.0, 1.0, 1.0, 1.0, 1.0, 1.0, 1.0, 1.0, 1.0, 1.0, 1.0, 1.0, 1.0, 1.0, 1.0, 1.0, 1.0, 1.0, 1.0, 1.0, 1.0, 1.0, 1.0, 1.0, 1.0, 1.0, 0.69, 0.31, 1.0, 1.0]

>  <TempFactor>  (143) 
[53.57, 61.0, 41.59, 49.21, 23.74, 32.51, 19.1, 21.28, 7.6, 8.11, 8.4, 9.74, 8.05, 8.56, 8.33, 8.16, 7.98, 7.67, 8.77, 11.26, 12.79, 12.84, 16.26, 10.81, 9.75, 8.32, 9.11, 8.82, 8.1, 8.86, 9.21, 10.73, 9.43, 7.8, 6.74, 9.87, 8.87, 8.14, 7.89, 8.51, 19.72, 18.23, 7.31, 12.55]

>  <accession>  (143) 
3Q3Y_A

>  <description>  (143) 
Chain A, HEVB EV93 3C protease [Enterovirus B]

>  <evalue>  (143) 
1.1460600000000001e-87

>  <pdb_code>  (143) 
3Q3Y

>  <chain>  (143) 
A

>  <ligands>  (143) 
[{'chain_id': 'A', 'author_residue_number': 190, 'author_insertion_code': '', 'chem_comp_id': 'XNV', 'alternate_conformers': 2, 'entity_id': 2, 'struct_asym_id': 'C', 'residue_number': 1, 'chem_comp_name': 'ethyl (4R)-4-({(2S)-2-[3-{[(5-methyl-1,2-oxazol-3-yl)carbonyl]amino}-2-oxopyridin-1(2H)-yl]pent-4-ynoyl}amino)-5-[(3S)-2-oxopyrrolidin-3-yl]pentanoate', 'weight': 525.554, 'carbohydrate_polymer': False, 'branch_name': ''}, {'chain_id': 'B', 'author_residue_number': 190, 'author_insertion_code': '', 'chem_comp_id': 'XNV', 'alternate_conformers': 2, 'entity_id': 2, 'struct_asym_id': 'L', 'residue_number': 1, 'chem_comp_name': 'ethyl (4R)-4-({(2S)-2-[3-{[(5-methyl-1,2-oxazol-3-yl)carbonyl]amino}-2-oxopyridin-1(2H)-yl]pent-4-ynoyl}amino)-5-[(3S)-2-oxopyrrolidin-3-yl]pentanoate', 'weight': 525.554, 'carbohydrate_polymer': False, 'branch_name': ''}, {'chain_id': 'A', 'author_residue_number': 191, 'author_insertion_code': '', 'chem_comp_id': 'EDO', 'alternate_conformers': 2, 'entity_id': 3, 'struct_asym_id': 'D', 'residue_number': 1, 'chem_comp_name': '1,2-ETHANEDIOL', 'weight': 62.068, 'carbohydrate_polymer': False, 'branch_name': ''}, {'chain_id': 'A', 'author_residue_number': 192, 'author_insertion_code': '', 'chem_comp_id': 'EDO', 'alternate_conformers': 2, 'entity_id': 3, 'struct_asym_id': 'E', 'residue_number': 1, 'chem_comp_name': '1,2-ETHANEDIOL', 'weight': 62.068, 'carbohydrate_polymer': False, 'branch_name': ''}, {'chain_id': 'A', 'author_residue_number': 193, 'author_insertion_code': '', 'chem_comp_id': 'EDO', 'alternate_conformers': 0, 'entity_id': 3, 'struct_asym_id': 'F', 'residue_number': 1, 'chem_comp_name': '1,2-ETHANEDIOL', 'weight': 62.068, 'carbohydrate_polymer': False, 'branch_name': ''}, {'chain_id': 'A', 'author_residue_number': 194, 'author_insertion_code': '', 'chem_comp_id': 'EDO', 'alternate_conformers': 1, 'entity_id': 3, 'struct_asym_id': 'G', 'residue_number': 1, 'chem_comp_name': '1,2-ETHANEDIOL', 'weight': 62.068, 'carbohydrate_polymer': False, 'branch_name': ''}, {'chain_id': 'B', 'author_residue_number': 191, 'author_insertion_code': '', 'chem_comp_id': 'EDO', 'alternate_conformers': 2, 'entity_id': 3, 'struct_asym_id': 'M', 'residue_number': 1, 'chem_comp_name': '1,2-ETHANEDIOL', 'weight': 62.068, 'carbohydrate_polymer': False, 'branch_name': ''}, {'chain_id': 'B', 'author_residue_number': 192, 'author_insertion_code': '', 'chem_comp_id': 'EDO', 'alternate_conformers': 0, 'entity_id': 3, 'struct_asym_id': 'N', 'residue_number': 1, 'chem_comp_name': '1,2-ETHANEDIOL', 'weight': 62.068, 'carbohydrate_polymer': False, 'branch_name': ''}, {'chain_id': 'B', 'author_residue_number': 193, 'author_insertion_code': '', 'chem_comp_id': 'EDO', 'alternate_conformers': 2, 'entity_id': 3, 'struct_asym_id': 'O', 'residue_number': 1, 'chem_comp_name': '1,2-ETHANEDIOL', 'weight': 62.068, 'carbohydrate_polymer': False, 'branch_name': ''}, {'chain_id': 'B', 'author_residue_number': 194, 'author_insertion_code': '', 'chem_comp_id': 'EDO', 'alternate_conformers': 1, 'entity_id': 3, 'struct_asym_id': 'P', 'residue_number': 1, 'chem_comp_name': '1,2-ETHANEDIOL', 'weight': 62.068, 'carbohydrate_polymer': False, 'branch_name': ''}, {'chain_id': 'A', 'author_residue_number': 195, 'author_insertion_code': '', 'chem_comp_id': 'PI', 'alternate_conformers': 1, 'entity_id': 4, 'struct_asym_id': 'H', 'residue_number': 1, 'chem_comp_name': 'HYDROGENPHOSPHATE ION', 'weight': 95.979, 'carbohydrate_polymer': False, 'branch_name': ''}, {'chain_id': 'A', 'author_residue_number': 196, 'author_insertion_code': '', 'chem_comp_id': 'PI', 'alternate_conformers': 1, 'entity_id': 4, 'struct_asym_id': 'I', 'residue_number': 1, 'chem_comp_name': 'HYDROGENPHOSPHATE ION', 'weight': 95.979, 'carbohydrate_polymer': False, 'branch_name': ''}, {'chain_id': 'B', 'author_residue_number': 195, 'author_insertion_code': '', 'chem_comp_id': 'PI', 'alternate_conformers': 1, 'entity_id': 4, 'struct_asym_id': 'Q', 'residue_number': 1, 'chem_comp_name': 'HYDROGENPHOSPHATE ION', 'weight': 95.979, 'carbohydrate_polymer': False, 'branch_name': ''}, {'chain_id': 'A', 'author_residue_number': 197, 'author_insertion_code': '', 'chem_comp_id': 'NH4', 'alternate_conformers': 2, 'entity_id': 5, 'struct_asym_id': 'J', 'residue_number': 1, 'chem_comp_name': 'AMMONIUM ION', 'weight': 18.038, 'carbohydrate_polymer': False, 'branch_name': ''}, {'chain_id': 'A', 'author_residue_number': 198, 'author_insertion_code': '', 'chem_comp_id': 'NH4', 'alternate_conformers': 0, 'entity_id': 5, 'struct_asym_id': 'K', 'residue_number': 1, 'chem_comp_name': 'AMMONIUM ION', 'weight': 18.038, 'carbohydrate_polymer': False, 'branch_name': ''}]

>  <ligand_codes>  (143) 
['XNV', 'XNV', 'EDO', 'EDO', 'EDO', 'EDO', 'EDO', 'EDO', 'EDO', 'EDO', 'PI', 'PI', 'PI', 'NH4', 'NH4']

>  <cofactor_codes>  (143) 
[]

>  <has_cofactor>  (143) 
False

>  <covalent>  (143) 
True

>  <base_name>  (143) 
3Q3Y

>  <lig_resn>  (143) 
XNV

>  <lig_resi>  (143) 
190

>  <lig_chain>  (143) 
A

>  <lig_segi>  (143) 
C

>  <lig_alt>  (143) 


>  <polymer_chain>  (143) 
A

>  <single_smiles>  (143) 
CCOC(=O)CC[C@H](C[C@@H]1CCNC1=O)NC(=O)[C@H](CC#C)N2C=CC=C(NC(=O)c3cc(C)on3)C2=O

$$$$
XNVP5S18
     RDKit          3D

  7  7  0  0  0  0  0  0  0  0999 V2000
   -9.0490   16.1590  -33.3600 C   0  0  0  0  0  0  0  0  0  0  0  0
   -9.2700   14.7400  -33.6260 C   0  0  0  0  0  0  0  0  0  0  0  0
   -8.7180   16.9980  -34.4080 C   0  0  0  0  0  0  0  0  0  0  0  0
   -9.2290   14.2940  -34.9840 N   0  0  0  0  0  0  0  0  0  0  0  0
   -9.5210   13.9120  -32.7390 O   0  0  0  0  0  0  0  0  0  0  0  0
   -8.6520   16.4840  -35.7260 C   0  0  0  0  0  0  0  0  0  0  0  0
   -8.8880   15.1740  -35.9880 C   0  0  0  0  0  0  0  0  0  0  0  0
  2  1  1  0
  1  3  1  0
  4  2  1  0
  2  5  1  0
  3  6  1  0
  4  7  1  0
  6  7  1  0
A    2
 C12
A    3
 C23
A    5
 O26
A    6
 C24
A    7
 C25
M  END
>  <XChem_code>  (144) 
XNV§5

>  <Occupancy>  (144) 
[0.69, 0.31, 0.69, 0.31, 0.69, 0.31, 0.69, 0.31, 1.0, 1.0, 1.0, 1.0, 1.0, 1.0, 1.0, 1.0, 1.0, 1.0, 1.0, 1.0, 1.0, 1.0, 1.0, 1.0, 1.0, 1.0, 1.0, 1.0, 1.0, 1.0, 1.0, 1.0, 1.0, 1.0, 1.0, 1.0, 1.0, 1.0, 1.0, 1.0, 0.69, 0.31, 1.0, 1.0]

>  <TempFactor>  (144) 
[53.57, 61.0, 41.59, 49.21, 23.74, 32.51, 19.1, 21.28, 7.6, 8.11, 8.4, 9.74, 8.05, 8.56, 8.33, 8.16, 7.98, 7.67, 8.77, 11.26, 12.79, 12.84, 16.26, 10.81, 9.75, 8.32, 9.11, 8.82, 8.1, 8.86, 9.21, 10.73, 9.43, 7.8, 6.74, 9.87, 8.87, 8.14, 7.89, 8.51, 19.72, 18.23, 7.31, 12.55]

>  <accession>  (144) 
3Q3Y_A

>  <description>  (144) 
Chain A, HEVB EV93 3C protease [Enterovirus B]

>  <evalue>  (144) 
1.1460600000000001e-87

>  <pdb_code>  (144) 
3Q3Y

>  <chain>  (144) 
A

>  <ligands>  (144) 
[{'chain_id': 'A', 'author_residue_number': 190, 'author_insertion_code': '', 'chem_comp_id': 'XNV', 'alternate_conformers': 2, 'entity_id': 2, 'struct_asym_id': 'C', 'residue_number': 1, 'chem_comp_name': 'ethyl (4R)-4-({(2S)-2-[3-{[(5-methyl-1,2-oxazol-3-yl)carbonyl]amino}-2-oxopyridin-1(2H)-yl]pent-4-ynoyl}amino)-5-[(3S)-2-oxopyrrolidin-3-yl]pentanoate', 'weight': 525.554, 'carbohydrate_polymer': False, 'branch_name': ''}, {'chain_id': 'B', 'author_residue_number': 190, 'author_insertion_code': '', 'chem_comp_id': 'XNV', 'alternate_conformers': 2, 'entity_id': 2, 'struct_asym_id': 'L', 'residue_number': 1, 'chem_comp_name': 'ethyl (4R)-4-({(2S)-2-[3-{[(5-methyl-1,2-oxazol-3-yl)carbonyl]amino}-2-oxopyridin-1(2H)-yl]pent-4-ynoyl}amino)-5-[(3S)-2-oxopyrrolidin-3-yl]pentanoate', 'weight': 525.554, 'carbohydrate_polymer': False, 'branch_name': ''}, {'chain_id': 'A', 'author_residue_number': 191, 'author_insertion_code': '', 'chem_comp_id': 'EDO', 'alternate_conformers': 2, 'entity_id': 3, 'struct_asym_id': 'D', 'residue_number': 1, 'chem_comp_name': '1,2-ETHANEDIOL', 'weight': 62.068, 'carbohydrate_polymer': False, 'branch_name': ''}, {'chain_id': 'A', 'author_residue_number': 192, 'author_insertion_code': '', 'chem_comp_id': 'EDO', 'alternate_conformers': 2, 'entity_id': 3, 'struct_asym_id': 'E', 'residue_number': 1, 'chem_comp_name': '1,2-ETHANEDIOL', 'weight': 62.068, 'carbohydrate_polymer': False, 'branch_name': ''}, {'chain_id': 'A', 'author_residue_number': 193, 'author_insertion_code': '', 'chem_comp_id': 'EDO', 'alternate_conformers': 0, 'entity_id': 3, 'struct_asym_id': 'F', 'residue_number': 1, 'chem_comp_name': '1,2-ETHANEDIOL', 'weight': 62.068, 'carbohydrate_polymer': False, 'branch_name': ''}, {'chain_id': 'A', 'author_residue_number': 194, 'author_insertion_code': '', 'chem_comp_id': 'EDO', 'alternate_conformers': 1, 'entity_id': 3, 'struct_asym_id': 'G', 'residue_number': 1, 'chem_comp_name': '1,2-ETHANEDIOL', 'weight': 62.068, 'carbohydrate_polymer': False, 'branch_name': ''}, {'chain_id': 'B', 'author_residue_number': 191, 'author_insertion_code': '', 'chem_comp_id': 'EDO', 'alternate_conformers': 2, 'entity_id': 3, 'struct_asym_id': 'M', 'residue_number': 1, 'chem_comp_name': '1,2-ETHANEDIOL', 'weight': 62.068, 'carbohydrate_polymer': False, 'branch_name': ''}, {'chain_id': 'B', 'author_residue_number': 192, 'author_insertion_code': '', 'chem_comp_id': 'EDO', 'alternate_conformers': 0, 'entity_id': 3, 'struct_asym_id': 'N', 'residue_number': 1, 'chem_comp_name': '1,2-ETHANEDIOL', 'weight': 62.068, 'carbohydrate_polymer': False, 'branch_name': ''}, {'chain_id': 'B', 'author_residue_number': 193, 'author_insertion_code': '', 'chem_comp_id': 'EDO', 'alternate_conformers': 2, 'entity_id': 3, 'struct_asym_id': 'O', 'residue_number': 1, 'chem_comp_name': '1,2-ETHANEDIOL', 'weight': 62.068, 'carbohydrate_polymer': False, 'branch_name': ''}, {'chain_id': 'B', 'author_residue_number': 194, 'author_insertion_code': '', 'chem_comp_id': 'EDO', 'alternate_conformers': 1, 'entity_id': 3, 'struct_asym_id': 'P', 'residue_number': 1, 'chem_comp_name': '1,2-ETHANEDIOL', 'weight': 62.068, 'carbohydrate_polymer': False, 'branch_name': ''}, {'chain_id': 'A', 'author_residue_number': 195, 'author_insertion_code': '', 'chem_comp_id': 'PI', 'alternate_conformers': 1, 'entity_id': 4, 'struct_asym_id': 'H', 'residue_number': 1, 'chem_comp_name': 'HYDROGENPHOSPHATE ION', 'weight': 95.979, 'carbohydrate_polymer': False, 'branch_name': ''}, {'chain_id': 'A', 'author_residue_number': 196, 'author_insertion_code': '', 'chem_comp_id': 'PI', 'alternate_conformers': 1, 'entity_id': 4, 'struct_asym_id': 'I', 'residue_number': 1, 'chem_comp_name': 'HYDROGENPHOSPHATE ION', 'weight': 95.979, 'carbohydrate_polymer': False, 'branch_name': ''}, {'chain_id': 'B', 'author_residue_number': 195, 'author_insertion_code': '', 'chem_comp_id': 'PI', 'alternate_conformers': 1, 'entity_id': 4, 'struct_asym_id': 'Q', 'residue_number': 1, 'chem_comp_name': 'HYDROGENPHOSPHATE ION', 'weight': 95.979, 'carbohydrate_polymer': False, 'branch_name': ''}, {'chain_id': 'A', 'author_residue_number': 197, 'author_insertion_code': '', 'chem_comp_id': 'NH4', 'alternate_conformers': 2, 'entity_id': 5, 'struct_asym_id': 'J', 'residue_number': 1, 'chem_comp_name': 'AMMONIUM ION', 'weight': 18.038, 'carbohydrate_polymer': False, 'branch_name': ''}, {'chain_id': 'A', 'author_residue_number': 198, 'author_insertion_code': '', 'chem_comp_id': 'NH4', 'alternate_conformers': 0, 'entity_id': 5, 'struct_asym_id': 'K', 'residue_number': 1, 'chem_comp_name': 'AMMONIUM ION', 'weight': 18.038, 'carbohydrate_polymer': False, 'branch_name': ''}]

>  <ligand_codes>  (144) 
['XNV', 'XNV', 'EDO', 'EDO', 'EDO', 'EDO', 'EDO', 'EDO', 'EDO', 'EDO', 'PI', 'PI', 'PI', 'NH4', 'NH4']

>  <cofactor_codes>  (144) 
[]

>  <has_cofactor>  (144) 
False

>  <covalent>  (144) 
True

>  <base_name>  (144) 
3Q3Y

>  <lig_resn>  (144) 
XNV

>  <lig_resi>  (144) 
190

>  <lig_chain>  (144) 
A

>  <lig_segi>  (144) 
C

>  <lig_alt>  (144) 


>  <polymer_chain>  (144) 
A

>  <single_smiles>  (144) 
CCOC(=O)CC[C@H](C[C@@H]1CCNC1=O)NC(=O)[C@H](CC#C)N2C=CC=C(NC(=O)c3cc(C)on3)C2=O

$$$$
XNVP5S19
     RDKit          3D

  6  6  0  0  0  0  0  0  0  0999 V2000
  -10.3340   17.8140  -30.2530 C   0  0  0  0  0  0  0  0  0  0  0  0
   -9.8210   17.0290  -29.3110 N   0  0  0  0  0  0  0  0  0  0  0  0
  -11.1330   18.8400  -29.6240 C   0  0  0  0  0  0  0  0  0  0  0  0
  -10.2850   17.4780  -28.1290 O   0  0  0  0  0  0  0  0  0  0  0  0
  -11.0580   18.5830  -28.2730 C   0  0  0  0  0  0  0  0  0  0  0  0
  -11.6710   19.3000  -27.1340 C   0  0  0  0  0  0  0  0  0  0  0  0
  1  2  1  0
  1  3  1  0
  2  4  1  0
  5  3  1  0
  4  5  1  0
  5  6  1  0
A    2
 N17
A    3
 C21
A    4
 O18
A    5
 C19
A    6
 C20
M  END
>  <XChem_code>  (145) 
XNV§5

>  <Occupancy>  (145) 
[0.69, 0.31, 0.69, 0.31, 0.69, 0.31, 0.69, 0.31, 1.0, 1.0, 1.0, 1.0, 1.0, 1.0, 1.0, 1.0, 1.0, 1.0, 1.0, 1.0, 1.0, 1.0, 1.0, 1.0, 1.0, 1.0, 1.0, 1.0, 1.0, 1.0, 1.0, 1.0, 1.0, 1.0, 1.0, 1.0, 1.0, 1.0, 1.0, 1.0, 0.69, 0.31, 1.0, 1.0]

>  <TempFactor>  (145) 
[53.57, 61.0, 41.59, 49.21, 23.74, 32.51, 19.1, 21.28, 7.6, 8.11, 8.4, 9.74, 8.05, 8.56, 8.33, 8.16, 7.98, 7.67, 8.77, 11.26, 12.79, 12.84, 16.26, 10.81, 9.75, 8.32, 9.11, 8.82, 8.1, 8.86, 9.21, 10.73, 9.43, 7.8, 6.74, 9.87, 8.87, 8.14, 7.89, 8.51, 19.72, 18.23, 7.31, 12.55]

>  <accession>  (145) 
3Q3Y_A

>  <description>  (145) 
Chain A, HEVB EV93 3C protease [Enterovirus B]

>  <evalue>  (145) 
1.1460600000000001e-87

>  <pdb_code>  (145) 
3Q3Y

>  <chain>  (145) 
A

>  <ligands>  (145) 
[{'chain_id': 'A', 'author_residue_number': 190, 'author_insertion_code': '', 'chem_comp_id': 'XNV', 'alternate_conformers': 2, 'entity_id': 2, 'struct_asym_id': 'C', 'residue_number': 1, 'chem_comp_name': 'ethyl (4R)-4-({(2S)-2-[3-{[(5-methyl-1,2-oxazol-3-yl)carbonyl]amino}-2-oxopyridin-1(2H)-yl]pent-4-ynoyl}amino)-5-[(3S)-2-oxopyrrolidin-3-yl]pentanoate', 'weight': 525.554, 'carbohydrate_polymer': False, 'branch_name': ''}, {'chain_id': 'B', 'author_residue_number': 190, 'author_insertion_code': '', 'chem_comp_id': 'XNV', 'alternate_conformers': 2, 'entity_id': 2, 'struct_asym_id': 'L', 'residue_number': 1, 'chem_comp_name': 'ethyl (4R)-4-({(2S)-2-[3-{[(5-methyl-1,2-oxazol-3-yl)carbonyl]amino}-2-oxopyridin-1(2H)-yl]pent-4-ynoyl}amino)-5-[(3S)-2-oxopyrrolidin-3-yl]pentanoate', 'weight': 525.554, 'carbohydrate_polymer': False, 'branch_name': ''}, {'chain_id': 'A', 'author_residue_number': 191, 'author_insertion_code': '', 'chem_comp_id': 'EDO', 'alternate_conformers': 2, 'entity_id': 3, 'struct_asym_id': 'D', 'residue_number': 1, 'chem_comp_name': '1,2-ETHANEDIOL', 'weight': 62.068, 'carbohydrate_polymer': False, 'branch_name': ''}, {'chain_id': 'A', 'author_residue_number': 192, 'author_insertion_code': '', 'chem_comp_id': 'EDO', 'alternate_conformers': 2, 'entity_id': 3, 'struct_asym_id': 'E', 'residue_number': 1, 'chem_comp_name': '1,2-ETHANEDIOL', 'weight': 62.068, 'carbohydrate_polymer': False, 'branch_name': ''}, {'chain_id': 'A', 'author_residue_number': 193, 'author_insertion_code': '', 'chem_comp_id': 'EDO', 'alternate_conformers': 0, 'entity_id': 3, 'struct_asym_id': 'F', 'residue_number': 1, 'chem_comp_name': '1,2-ETHANEDIOL', 'weight': 62.068, 'carbohydrate_polymer': False, 'branch_name': ''}, {'chain_id': 'A', 'author_residue_number': 194, 'author_insertion_code': '', 'chem_comp_id': 'EDO', 'alternate_conformers': 1, 'entity_id': 3, 'struct_asym_id': 'G', 'residue_number': 1, 'chem_comp_name': '1,2-ETHANEDIOL', 'weight': 62.068, 'carbohydrate_polymer': False, 'branch_name': ''}, {'chain_id': 'B', 'author_residue_number': 191, 'author_insertion_code': '', 'chem_comp_id': 'EDO', 'alternate_conformers': 2, 'entity_id': 3, 'struct_asym_id': 'M', 'residue_number': 1, 'chem_comp_name': '1,2-ETHANEDIOL', 'weight': 62.068, 'carbohydrate_polymer': False, 'branch_name': ''}, {'chain_id': 'B', 'author_residue_number': 192, 'author_insertion_code': '', 'chem_comp_id': 'EDO', 'alternate_conformers': 0, 'entity_id': 3, 'struct_asym_id': 'N', 'residue_number': 1, 'chem_comp_name': '1,2-ETHANEDIOL', 'weight': 62.068, 'carbohydrate_polymer': False, 'branch_name': ''}, {'chain_id': 'B', 'author_residue_number': 193, 'author_insertion_code': '', 'chem_comp_id': 'EDO', 'alternate_conformers': 2, 'entity_id': 3, 'struct_asym_id': 'O', 'residue_number': 1, 'chem_comp_name': '1,2-ETHANEDIOL', 'weight': 62.068, 'carbohydrate_polymer': False, 'branch_name': ''}, {'chain_id': 'B', 'author_residue_number': 194, 'author_insertion_code': '', 'chem_comp_id': 'EDO', 'alternate_conformers': 1, 'entity_id': 3, 'struct_asym_id': 'P', 'residue_number': 1, 'chem_comp_name': '1,2-ETHANEDIOL', 'weight': 62.068, 'carbohydrate_polymer': False, 'branch_name': ''}, {'chain_id': 'A', 'author_residue_number': 195, 'author_insertion_code': '', 'chem_comp_id': 'PI', 'alternate_conformers': 1, 'entity_id': 4, 'struct_asym_id': 'H', 'residue_number': 1, 'chem_comp_name': 'HYDROGENPHOSPHATE ION', 'weight': 95.979, 'carbohydrate_polymer': False, 'branch_name': ''}, {'chain_id': 'A', 'author_residue_number': 196, 'author_insertion_code': '', 'chem_comp_id': 'PI', 'alternate_conformers': 1, 'entity_id': 4, 'struct_asym_id': 'I', 'residue_number': 1, 'chem_comp_name': 'HYDROGENPHOSPHATE ION', 'weight': 95.979, 'carbohydrate_polymer': False, 'branch_name': ''}, {'chain_id': 'B', 'author_residue_number': 195, 'author_insertion_code': '', 'chem_comp_id': 'PI', 'alternate_conformers': 1, 'entity_id': 4, 'struct_asym_id': 'Q', 'residue_number': 1, 'chem_comp_name': 'HYDROGENPHOSPHATE ION', 'weight': 95.979, 'carbohydrate_polymer': False, 'branch_name': ''}, {'chain_id': 'A', 'author_residue_number': 197, 'author_insertion_code': '', 'chem_comp_id': 'NH4', 'alternate_conformers': 2, 'entity_id': 5, 'struct_asym_id': 'J', 'residue_number': 1, 'chem_comp_name': 'AMMONIUM ION', 'weight': 18.038, 'carbohydrate_polymer': False, 'branch_name': ''}, {'chain_id': 'A', 'author_residue_number': 198, 'author_insertion_code': '', 'chem_comp_id': 'NH4', 'alternate_conformers': 0, 'entity_id': 5, 'struct_asym_id': 'K', 'residue_number': 1, 'chem_comp_name': 'AMMONIUM ION', 'weight': 18.038, 'carbohydrate_polymer': False, 'branch_name': ''}]

>  <ligand_codes>  (145) 
['XNV', 'XNV', 'EDO', 'EDO', 'EDO', 'EDO', 'EDO', 'EDO', 'EDO', 'EDO', 'PI', 'PI', 'PI', 'NH4', 'NH4']

>  <cofactor_codes>  (145) 
[]

>  <has_cofactor>  (145) 
False

>  <covalent>  (145) 
True

>  <base_name>  (145) 
3Q3Y

>  <lig_resn>  (145) 
XNV

>  <lig_resi>  (145) 
190

>  <lig_chain>  (145) 
A

>  <lig_segi>  (145) 
C

>  <lig_alt>  (145) 


>  <polymer_chain>  (145) 
A

>  <single_smiles>  (145) 
CCOC(=O)CC[C@H](C[C@@H]1CCNC1=O)NC(=O)[C@H](CC#C)N2C=CC=C(NC(=O)c3cc(C)on3)C2=O

$$$$
XNVP5S20
     RDKit          3D

 38 39  0  0  0  0  0  0  0  0999 V2000
  -10.0950   17.6650  -31.7210 C   0  0  0  0  0  0  0  0  0  0  0  0
   -9.2490   16.5750  -32.0350 N   0  0  0  0  0  0  0  0  0  0  0  0
  -10.5810   18.4340  -32.5450 O   0  0  0  0  0  0  0  0  0  0  0  0
   -9.0490   16.1590  -33.3600 C   0  0  0  0  0  0  0  0  0  0  0  0
   -9.2700   14.7400  -33.6260 C   0  0  0  0  0  0  0  0  0  0  0  0
   -8.7180   16.9980  -34.4080 C   0  0  0  0  0  0  0  0  0  0  0  0
   -9.2290   14.2940  -34.9840 N   0  0  0  0  0  0  0  0  0  0  0  0
   -9.5210   13.9120  -32.7390 O   0  0  0  0  0  0  0  0  0  0  0  0
   -8.6520   16.4840  -35.7260 C   0  0  0  0  0  0  0  0  0  0  0  0
   -9.5440   12.8720  -35.1700 C   0  0  2  0  0  0  0  0  0  0  0  0
   -8.8880   15.1740  -35.9880 C   0  0  0  0  0  0  0  0  0  0  0  0
   -8.3660   11.9860  -34.7380 C   0  0  0  0  0  0  0  0  0  0  0  0
   -9.9610   12.5320  -36.6040 C   0  0  0  0  0  0  0  0  0  0  0  0
   -8.6960   10.7850  -34.1610 N   0  0  0  0  0  0  0  0  0  0  0  0
   -7.2170   12.3540  -34.9210 O   0  0  0  0  0  0  0  0  0  0  0  0
  -11.1420   13.3100  -36.9200 C   0  0  0  0  0  0  0  0  0  0  0  0
   -7.6700    9.8230  -33.7780 C   0  0  2  0  0  0  0  0  0  0  0  0
  -12.1000   13.9360  -37.1800 C   0  0  0  0  0  0  0  0  0  0  0  0
   -8.0140    8.4320  -34.3930 C   0  0  1  0  0  0  0  0  0  0  0  0
   -7.5070    9.7730  -32.2370 C   0  0  0  0  0  0  0  0  0  0  0  0
   -9.6590    8.0130  -33.9280 R   0  0  0  0  0  0  0  0  0  0  0  0
   -7.7310    8.3810  -35.9230 R   0  0  0  0  0  0  0  0  0  0  0  0
   -7.1020   11.0700  -31.5740 C   0  0  2  0  0  0  0  0  0  0  0  0
   -6.2830    8.2890  -36.3860 C   0  0  1  0  0  0  0  0  0  0  0  0
   -6.2390    8.3590  -36.3130 C   0  0  2  0  0  0  0  0  0  0  0  0
   -5.6570   11.5300  -31.9370 C   0  0  0  0  0  0  0  0  0  0  0  0
   -7.0130   10.9790  -30.0830 C   0  0  0  0  0  0  0  0  0  0  0  0
   -5.9620    9.3890  -37.1520 O   0  0  0  0  0  0  0  0  0  0  0  0
   -5.3980    7.7430  -35.7710 O   0  0  0  0  0  0  0  0  0  0  0  0
   -5.9500    7.3430  -37.2070 O   0  0  0  0  0  0  0  0  0  0  0  0
   -5.3090    8.7040  -35.6100 O   0  0  0  0  0  0  0  0  0  0  0  0
   -5.2110   12.3590  -30.7450 C   0  0  0  0  0  0  0  0  0  0  0  0
   -5.9230   11.6850  -29.6600 N   0  0  0  0  0  0  0  0  0  0  0  0
   -7.8230   10.4100  -29.3700 O   0  0  0  0  0  0  0  0  0  0  0  0
   -4.5680    9.6340  -37.4070 C   0  0  0  0  0  0  0  0  0  0  0  0
   -6.9670    6.7070  -37.9880 C   0  0  0  0  0  0  0  0  0  0  0  0
   -4.2700   11.1150  -37.7120 C   0  0  0  0  0  0  0  0  0  0  0  0
   -6.4370    5.4350  -38.6720 C   0  0  0  0  0  0  0  0  0  0  0  0
  2  1  1  0
  1  3  1  0
  4  2  1  0
  5  4  1  0
  4  6  1  0
  7  5  1  0
  5  8  1  0
  6  9  1  0
 10  7  1  0
  7 11  1  0
  9 11  1  0
 12 10  1  0
 10 13  1  6
 14 12  1  0
 12 15  1  0
 13 16  1  0
 17 14  1  0
 16 18  1  0
 19 17  1  0
 17 20  1  1
 19 21  1  6
 19 22  1  0
 23 20  1  6
 24 22  1  0
 25 22  1  0
 23 26  1  0
 23 27  1  0
 28 24  1  0
 24 29  1  1
 30 25  1  0
 25 31  1  1
 26 32  1  0
 33 27  1  0
 27 34  1  0
 35 28  1  0
 36 30  1  0
 32 33  1  0
 37 35  1  0
 38 36  1  0
V   21 *
V   22 *
A    2
 N14
A    3
 O22
A    4
 C13
A    5
 C12
A    6
 C23
A    7
 N11
A    8
 O26
A    9
 C24
A   10
 C10
A   11
 C25
A   12
 C09
A   13
 C27
A   14
 N08
A   15
 O30
A   16
 C28
A   17
 C07
A   18
 C29
A   19
 C06
A   20
 C31
A   21
 X  
A   22
 X  
A   23
 C32
A   24
 C04
A   25
 C04
A   26
 C33
A   27
 C36
A   28
 O03
A   29
 O38
A   30
 O03
A   31
 O38
A   32
 C34
A   33
 N35
A   34
 O37
A   35
 C02
A   36
 C02
A   37
 C01
A   38
 C01
M  END
>  <XChem_code>  (146) 
XNV§5

>  <Occupancy>  (146) 
[0.69, 0.31, 0.69, 0.31, 0.69, 0.31, 0.69, 0.31, 1.0, 1.0, 1.0, 1.0, 1.0, 1.0, 1.0, 1.0, 1.0, 1.0, 1.0, 1.0, 1.0, 1.0, 1.0, 1.0, 1.0, 1.0, 1.0, 1.0, 1.0, 1.0, 1.0, 1.0, 1.0, 1.0, 1.0, 1.0, 1.0, 1.0, 1.0, 1.0, 0.69, 0.31, 1.0, 1.0]

>  <TempFactor>  (146) 
[53.57, 61.0, 41.59, 49.21, 23.74, 32.51, 19.1, 21.28, 7.6, 8.11, 8.4, 9.74, 8.05, 8.56, 8.33, 8.16, 7.98, 7.67, 8.77, 11.26, 12.79, 12.84, 16.26, 10.81, 9.75, 8.32, 9.11, 8.82, 8.1, 8.86, 9.21, 10.73, 9.43, 7.8, 6.74, 9.87, 8.87, 8.14, 7.89, 8.51, 19.72, 18.23, 7.31, 12.55]

>  <accession>  (146) 
3Q3Y_A

>  <description>  (146) 
Chain A, HEVB EV93 3C protease [Enterovirus B]

>  <evalue>  (146) 
1.1460600000000001e-87

>  <pdb_code>  (146) 
3Q3Y

>  <chain>  (146) 
A

>  <ligands>  (146) 
[{'chain_id': 'A', 'author_residue_number': 190, 'author_insertion_code': '', 'chem_comp_id': 'XNV', 'alternate_conformers': 2, 'entity_id': 2, 'struct_asym_id': 'C', 'residue_number': 1, 'chem_comp_name': 'ethyl (4R)-4-({(2S)-2-[3-{[(5-methyl-1,2-oxazol-3-yl)carbonyl]amino}-2-oxopyridin-1(2H)-yl]pent-4-ynoyl}amino)-5-[(3S)-2-oxopyrrolidin-3-yl]pentanoate', 'weight': 525.554, 'carbohydrate_polymer': False, 'branch_name': ''}, {'chain_id': 'B', 'author_residue_number': 190, 'author_insertion_code': '', 'chem_comp_id': 'XNV', 'alternate_conformers': 2, 'entity_id': 2, 'struct_asym_id': 'L', 'residue_number': 1, 'chem_comp_name': 'ethyl (4R)-4-({(2S)-2-[3-{[(5-methyl-1,2-oxazol-3-yl)carbonyl]amino}-2-oxopyridin-1(2H)-yl]pent-4-ynoyl}amino)-5-[(3S)-2-oxopyrrolidin-3-yl]pentanoate', 'weight': 525.554, 'carbohydrate_polymer': False, 'branch_name': ''}, {'chain_id': 'A', 'author_residue_number': 191, 'author_insertion_code': '', 'chem_comp_id': 'EDO', 'alternate_conformers': 2, 'entity_id': 3, 'struct_asym_id': 'D', 'residue_number': 1, 'chem_comp_name': '1,2-ETHANEDIOL', 'weight': 62.068, 'carbohydrate_polymer': False, 'branch_name': ''}, {'chain_id': 'A', 'author_residue_number': 192, 'author_insertion_code': '', 'chem_comp_id': 'EDO', 'alternate_conformers': 2, 'entity_id': 3, 'struct_asym_id': 'E', 'residue_number': 1, 'chem_comp_name': '1,2-ETHANEDIOL', 'weight': 62.068, 'carbohydrate_polymer': False, 'branch_name': ''}, {'chain_id': 'A', 'author_residue_number': 193, 'author_insertion_code': '', 'chem_comp_id': 'EDO', 'alternate_conformers': 0, 'entity_id': 3, 'struct_asym_id': 'F', 'residue_number': 1, 'chem_comp_name': '1,2-ETHANEDIOL', 'weight': 62.068, 'carbohydrate_polymer': False, 'branch_name': ''}, {'chain_id': 'A', 'author_residue_number': 194, 'author_insertion_code': '', 'chem_comp_id': 'EDO', 'alternate_conformers': 1, 'entity_id': 3, 'struct_asym_id': 'G', 'residue_number': 1, 'chem_comp_name': '1,2-ETHANEDIOL', 'weight': 62.068, 'carbohydrate_polymer': False, 'branch_name': ''}, {'chain_id': 'B', 'author_residue_number': 191, 'author_insertion_code': '', 'chem_comp_id': 'EDO', 'alternate_conformers': 2, 'entity_id': 3, 'struct_asym_id': 'M', 'residue_number': 1, 'chem_comp_name': '1,2-ETHANEDIOL', 'weight': 62.068, 'carbohydrate_polymer': False, 'branch_name': ''}, {'chain_id': 'B', 'author_residue_number': 192, 'author_insertion_code': '', 'chem_comp_id': 'EDO', 'alternate_conformers': 0, 'entity_id': 3, 'struct_asym_id': 'N', 'residue_number': 1, 'chem_comp_name': '1,2-ETHANEDIOL', 'weight': 62.068, 'carbohydrate_polymer': False, 'branch_name': ''}, {'chain_id': 'B', 'author_residue_number': 193, 'author_insertion_code': '', 'chem_comp_id': 'EDO', 'alternate_conformers': 2, 'entity_id': 3, 'struct_asym_id': 'O', 'residue_number': 1, 'chem_comp_name': '1,2-ETHANEDIOL', 'weight': 62.068, 'carbohydrate_polymer': False, 'branch_name': ''}, {'chain_id': 'B', 'author_residue_number': 194, 'author_insertion_code': '', 'chem_comp_id': 'EDO', 'alternate_conformers': 1, 'entity_id': 3, 'struct_asym_id': 'P', 'residue_number': 1, 'chem_comp_name': '1,2-ETHANEDIOL', 'weight': 62.068, 'carbohydrate_polymer': False, 'branch_name': ''}, {'chain_id': 'A', 'author_residue_number': 195, 'author_insertion_code': '', 'chem_comp_id': 'PI', 'alternate_conformers': 1, 'entity_id': 4, 'struct_asym_id': 'H', 'residue_number': 1, 'chem_comp_name': 'HYDROGENPHOSPHATE ION', 'weight': 95.979, 'carbohydrate_polymer': False, 'branch_name': ''}, {'chain_id': 'A', 'author_residue_number': 196, 'author_insertion_code': '', 'chem_comp_id': 'PI', 'alternate_conformers': 1, 'entity_id': 4, 'struct_asym_id': 'I', 'residue_number': 1, 'chem_comp_name': 'HYDROGENPHOSPHATE ION', 'weight': 95.979, 'carbohydrate_polymer': False, 'branch_name': ''}, {'chain_id': 'B', 'author_residue_number': 195, 'author_insertion_code': '', 'chem_comp_id': 'PI', 'alternate_conformers': 1, 'entity_id': 4, 'struct_asym_id': 'Q', 'residue_number': 1, 'chem_comp_name': 'HYDROGENPHOSPHATE ION', 'weight': 95.979, 'carbohydrate_polymer': False, 'branch_name': ''}, {'chain_id': 'A', 'author_residue_number': 197, 'author_insertion_code': '', 'chem_comp_id': 'NH4', 'alternate_conformers': 2, 'entity_id': 5, 'struct_asym_id': 'J', 'residue_number': 1, 'chem_comp_name': 'AMMONIUM ION', 'weight': 18.038, 'carbohydrate_polymer': False, 'branch_name': ''}, {'chain_id': 'A', 'author_residue_number': 198, 'author_insertion_code': '', 'chem_comp_id': 'NH4', 'alternate_conformers': 0, 'entity_id': 5, 'struct_asym_id': 'K', 'residue_number': 1, 'chem_comp_name': 'AMMONIUM ION', 'weight': 18.038, 'carbohydrate_polymer': False, 'branch_name': ''}]

>  <ligand_codes>  (146) 
['XNV', 'XNV', 'EDO', 'EDO', 'EDO', 'EDO', 'EDO', 'EDO', 'EDO', 'EDO', 'PI', 'PI', 'PI', 'NH4', 'NH4']

>  <cofactor_codes>  (146) 
[]

>  <has_cofactor>  (146) 
False

>  <covalent>  (146) 
True

>  <base_name>  (146) 
3Q3Y

>  <lig_resn>  (146) 
XNV

>  <lig_resi>  (146) 
190

>  <lig_chain>  (146) 
A

>  <lig_segi>  (146) 
C

>  <lig_alt>  (146) 


>  <polymer_chain>  (146) 
A

>  <single_smiles>  (146) 
CCOC(=O)CC[C@H](C[C@@H]1CCNC1=O)NC(=O)[C@H](CC#C)N2C=CC=C(NC(=O)c3cc(C)on3)C2=O

$$$$
XNVP5S21
     RDKit          3D

  6  6  0  0  0  0  0  0  0  0999 V2000
   -7.1020   11.0700  -31.5740 C   0  0  0  0  0  0  0  0  0  0  0  0
   -5.6570   11.5300  -31.9370 C   0  0  0  0  0  0  0  0  0  0  0  0
   -7.0130   10.9790  -30.0830 C   0  0  0  0  0  0  0  0  0  0  0  0
   -5.2110   12.3590  -30.7450 C   0  0  0  0  0  0  0  0  0  0  0  0
   -5.9230   11.6850  -29.6600 N   0  0  0  0  0  0  0  0  0  0  0  0
   -7.8230   10.4100  -29.3700 O   0  0  0  0  0  0  0  0  0  0  0  0
  1  2  1  1
  1  3  1  0
  2  4  1  0
  5  3  1  0
  3  6  1  0
  4  5  1  0
A    2
 C33
A    3
 C36
A    4
 C34
A    5
 N35
A    6
 O37
M  END
>  <XChem_code>  (147) 
XNV§5

>  <Occupancy>  (147) 
[0.69, 0.31, 0.69, 0.31, 0.69, 0.31, 0.69, 0.31, 1.0, 1.0, 1.0, 1.0, 1.0, 1.0, 1.0, 1.0, 1.0, 1.0, 1.0, 1.0, 1.0, 1.0, 1.0, 1.0, 1.0, 1.0, 1.0, 1.0, 1.0, 1.0, 1.0, 1.0, 1.0, 1.0, 1.0, 1.0, 1.0, 1.0, 1.0, 1.0, 0.69, 0.31, 1.0, 1.0]

>  <TempFactor>  (147) 
[53.57, 61.0, 41.59, 49.21, 23.74, 32.51, 19.1, 21.28, 7.6, 8.11, 8.4, 9.74, 8.05, 8.56, 8.33, 8.16, 7.98, 7.67, 8.77, 11.26, 12.79, 12.84, 16.26, 10.81, 9.75, 8.32, 9.11, 8.82, 8.1, 8.86, 9.21, 10.73, 9.43, 7.8, 6.74, 9.87, 8.87, 8.14, 7.89, 8.51, 19.72, 18.23, 7.31, 12.55]

>  <accession>  (147) 
3Q3Y_A

>  <description>  (147) 
Chain A, HEVB EV93 3C protease [Enterovirus B]

>  <evalue>  (147) 
1.1460600000000001e-87

>  <pdb_code>  (147) 
3Q3Y

>  <chain>  (147) 
A

>  <ligands>  (147) 
[{'chain_id': 'A', 'author_residue_number': 190, 'author_insertion_code': '', 'chem_comp_id': 'XNV', 'alternate_conformers': 2, 'entity_id': 2, 'struct_asym_id': 'C', 'residue_number': 1, 'chem_comp_name': 'ethyl (4R)-4-({(2S)-2-[3-{[(5-methyl-1,2-oxazol-3-yl)carbonyl]amino}-2-oxopyridin-1(2H)-yl]pent-4-ynoyl}amino)-5-[(3S)-2-oxopyrrolidin-3-yl]pentanoate', 'weight': 525.554, 'carbohydrate_polymer': False, 'branch_name': ''}, {'chain_id': 'B', 'author_residue_number': 190, 'author_insertion_code': '', 'chem_comp_id': 'XNV', 'alternate_conformers': 2, 'entity_id': 2, 'struct_asym_id': 'L', 'residue_number': 1, 'chem_comp_name': 'ethyl (4R)-4-({(2S)-2-[3-{[(5-methyl-1,2-oxazol-3-yl)carbonyl]amino}-2-oxopyridin-1(2H)-yl]pent-4-ynoyl}amino)-5-[(3S)-2-oxopyrrolidin-3-yl]pentanoate', 'weight': 525.554, 'carbohydrate_polymer': False, 'branch_name': ''}, {'chain_id': 'A', 'author_residue_number': 191, 'author_insertion_code': '', 'chem_comp_id': 'EDO', 'alternate_conformers': 2, 'entity_id': 3, 'struct_asym_id': 'D', 'residue_number': 1, 'chem_comp_name': '1,2-ETHANEDIOL', 'weight': 62.068, 'carbohydrate_polymer': False, 'branch_name': ''}, {'chain_id': 'A', 'author_residue_number': 192, 'author_insertion_code': '', 'chem_comp_id': 'EDO', 'alternate_conformers': 2, 'entity_id': 3, 'struct_asym_id': 'E', 'residue_number': 1, 'chem_comp_name': '1,2-ETHANEDIOL', 'weight': 62.068, 'carbohydrate_polymer': False, 'branch_name': ''}, {'chain_id': 'A', 'author_residue_number': 193, 'author_insertion_code': '', 'chem_comp_id': 'EDO', 'alternate_conformers': 0, 'entity_id': 3, 'struct_asym_id': 'F', 'residue_number': 1, 'chem_comp_name': '1,2-ETHANEDIOL', 'weight': 62.068, 'carbohydrate_polymer': False, 'branch_name': ''}, {'chain_id': 'A', 'author_residue_number': 194, 'author_insertion_code': '', 'chem_comp_id': 'EDO', 'alternate_conformers': 1, 'entity_id': 3, 'struct_asym_id': 'G', 'residue_number': 1, 'chem_comp_name': '1,2-ETHANEDIOL', 'weight': 62.068, 'carbohydrate_polymer': False, 'branch_name': ''}, {'chain_id': 'B', 'author_residue_number': 191, 'author_insertion_code': '', 'chem_comp_id': 'EDO', 'alternate_conformers': 2, 'entity_id': 3, 'struct_asym_id': 'M', 'residue_number': 1, 'chem_comp_name': '1,2-ETHANEDIOL', 'weight': 62.068, 'carbohydrate_polymer': False, 'branch_name': ''}, {'chain_id': 'B', 'author_residue_number': 192, 'author_insertion_code': '', 'chem_comp_id': 'EDO', 'alternate_conformers': 0, 'entity_id': 3, 'struct_asym_id': 'N', 'residue_number': 1, 'chem_comp_name': '1,2-ETHANEDIOL', 'weight': 62.068, 'carbohydrate_polymer': False, 'branch_name': ''}, {'chain_id': 'B', 'author_residue_number': 193, 'author_insertion_code': '', 'chem_comp_id': 'EDO', 'alternate_conformers': 2, 'entity_id': 3, 'struct_asym_id': 'O', 'residue_number': 1, 'chem_comp_name': '1,2-ETHANEDIOL', 'weight': 62.068, 'carbohydrate_polymer': False, 'branch_name': ''}, {'chain_id': 'B', 'author_residue_number': 194, 'author_insertion_code': '', 'chem_comp_id': 'EDO', 'alternate_conformers': 1, 'entity_id': 3, 'struct_asym_id': 'P', 'residue_number': 1, 'chem_comp_name': '1,2-ETHANEDIOL', 'weight': 62.068, 'carbohydrate_polymer': False, 'branch_name': ''}, {'chain_id': 'A', 'author_residue_number': 195, 'author_insertion_code': '', 'chem_comp_id': 'PI', 'alternate_conformers': 1, 'entity_id': 4, 'struct_asym_id': 'H', 'residue_number': 1, 'chem_comp_name': 'HYDROGENPHOSPHATE ION', 'weight': 95.979, 'carbohydrate_polymer': False, 'branch_name': ''}, {'chain_id': 'A', 'author_residue_number': 196, 'author_insertion_code': '', 'chem_comp_id': 'PI', 'alternate_conformers': 1, 'entity_id': 4, 'struct_asym_id': 'I', 'residue_number': 1, 'chem_comp_name': 'HYDROGENPHOSPHATE ION', 'weight': 95.979, 'carbohydrate_polymer': False, 'branch_name': ''}, {'chain_id': 'B', 'author_residue_number': 195, 'author_insertion_code': '', 'chem_comp_id': 'PI', 'alternate_conformers': 1, 'entity_id': 4, 'struct_asym_id': 'Q', 'residue_number': 1, 'chem_comp_name': 'HYDROGENPHOSPHATE ION', 'weight': 95.979, 'carbohydrate_polymer': False, 'branch_name': ''}, {'chain_id': 'A', 'author_residue_number': 197, 'author_insertion_code': '', 'chem_comp_id': 'NH4', 'alternate_conformers': 2, 'entity_id': 5, 'struct_asym_id': 'J', 'residue_number': 1, 'chem_comp_name': 'AMMONIUM ION', 'weight': 18.038, 'carbohydrate_polymer': False, 'branch_name': ''}, {'chain_id': 'A', 'author_residue_number': 198, 'author_insertion_code': '', 'chem_comp_id': 'NH4', 'alternate_conformers': 0, 'entity_id': 5, 'struct_asym_id': 'K', 'residue_number': 1, 'chem_comp_name': 'AMMONIUM ION', 'weight': 18.038, 'carbohydrate_polymer': False, 'branch_name': ''}]

>  <ligand_codes>  (147) 
['XNV', 'XNV', 'EDO', 'EDO', 'EDO', 'EDO', 'EDO', 'EDO', 'EDO', 'EDO', 'PI', 'PI', 'PI', 'NH4', 'NH4']

>  <cofactor_codes>  (147) 
[]

>  <has_cofactor>  (147) 
False

>  <covalent>  (147) 
True

>  <base_name>  (147) 
3Q3Y

>  <lig_resn>  (147) 
XNV

>  <lig_resi>  (147) 
190

>  <lig_chain>  (147) 
A

>  <lig_segi>  (147) 
C

>  <lig_alt>  (147) 


>  <polymer_chain>  (147) 
A

>  <single_smiles>  (147) 
CCOC(=O)CC[C@H](C[C@@H]1CCNC1=O)NC(=O)[C@H](CC#C)N2C=CC=C(NC(=O)c3cc(C)on3)C2=O

$$$$
XNVP5S22
     RDKit          3D

 38 39  0  0  0  0  0  0  0  0999 V2000
   -7.5070    9.7730  -32.2370 C   0  0  0  0  0  0  0  0  0  0  0  0
   -7.6700    9.8230  -33.7780 C   0  0  1  0  0  0  0  0  0  0  0  0
   -8.0140    8.4320  -34.3930 C   0  0  1  0  0  0  0  0  0  0  0  0
   -8.6960   10.7850  -34.1610 N   0  0  0  0  0  0  0  0  0  0  0  0
   -9.6590    8.0130  -33.9280 R   0  0  0  0  0  0  0  0  0  0  0  0
   -7.7310    8.3810  -35.9230 R   0  0  0  0  0  0  0  0  0  0  0  0
   -8.3660   11.9860  -34.7380 C   0  0  0  0  0  0  0  0  0  0  0  0
   -6.2830    8.2890  -36.3860 C   0  0  1  0  0  0  0  0  0  0  0  0
   -6.2390    8.3590  -36.3130 C   0  0  2  0  0  0  0  0  0  0  0  0
   -9.5440   12.8720  -35.1700 C   0  0  1  0  0  0  0  0  0  0  0  0
   -7.2170   12.3540  -34.9210 O   0  0  0  0  0  0  0  0  0  0  0  0
   -5.9620    9.3890  -37.1520 O   0  0  0  0  0  0  0  0  0  0  0  0
   -5.3980    7.7430  -35.7710 O   0  0  0  0  0  0  0  0  0  0  0  0
   -5.9500    7.3430  -37.2070 O   0  0  0  0  0  0  0  0  0  0  0  0
   -5.3090    8.7040  -35.6100 O   0  0  0  0  0  0  0  0  0  0  0  0
   -9.2290   14.2940  -34.9840 N   0  0  0  0  0  0  0  0  0  0  0  0
   -9.9610   12.5320  -36.6040 C   0  0  0  0  0  0  0  0  0  0  0  0
   -4.5680    9.6340  -37.4070 C   0  0  0  0  0  0  0  0  0  0  0  0
   -6.9670    6.7070  -37.9880 C   0  0  0  0  0  0  0  0  0  0  0  0
   -9.2700   14.7400  -33.6260 C   0  0  0  0  0  0  0  0  0  0  0  0
   -8.8880   15.1740  -35.9880 C   0  0  0  0  0  0  0  0  0  0  0  0
  -11.1420   13.3100  -36.9200 C   0  0  0  0  0  0  0  0  0  0  0  0
   -4.2700   11.1150  -37.7120 C   0  0  0  0  0  0  0  0  0  0  0  0
   -6.4370    5.4350  -38.6720 C   0  0  0  0  0  0  0  0  0  0  0  0
   -9.0490   16.1590  -33.3600 C   0  0  0  0  0  0  0  0  0  0  0  0
   -9.5210   13.9120  -32.7390 O   0  0  0  0  0  0  0  0  0  0  0  0
   -8.6520   16.4840  -35.7260 C   0  0  0  0  0  0  0  0  0  0  0  0
  -12.1000   13.9360  -37.1800 C   0  0  0  0  0  0  0  0  0  0  0  0
   -9.2490   16.5750  -32.0350 N   0  0  0  0  0  0  0  0  0  0  0  0
   -8.7180   16.9980  -34.4080 C   0  0  0  0  0  0  0  0  0  0  0  0
  -10.0950   17.6650  -31.7210 C   0  0  0  0  0  0  0  0  0  0  0  0
  -10.3340   17.8140  -30.2530 C   0  0  0  0  0  0  0  0  0  0  0  0
  -10.5810   18.4340  -32.5450 O   0  0  0  0  0  0  0  0  0  0  0  0
   -9.8210   17.0290  -29.3110 N   0  0  0  0  0  0  0  0  0  0  0  0
  -11.1330   18.8400  -29.6240 C   0  0  0  0  0  0  0  0  0  0  0  0
  -10.2850   17.4780  -28.1290 O   0  0  0  0  0  0  0  0  0  0  0  0
  -11.0580   18.5830  -28.2730 C   0  0  0  0  0  0  0  0  0  0  0  0
  -11.6710   19.3000  -27.1340 C   0  0  0  0  0  0  0  0  0  0  0  0
  2  1  1  1
  3  2  1  0
  2  4  1  0
  3  5  1  6
  3  6  1  0
  4  7  1  0
  8  6  1  0
  9  6  1  0
  7 10  1  0
  7 11  1  0
 12  8  1  0
  8 13  1  1
 14  9  1  0
  9 15  1  1
 10 16  1  0
 10 17  1  6
 18 12  1  0
 19 14  1  0
 16 20  1  0
 16 21  1  0
 17 22  1  0
 23 18  1  0
 24 19  1  0
 20 25  1  0
 20 26  1  0
 27 21  1  0
 22 28  1  0
 25 29  1  0
 25 30  1  0
 30 27  1  0
 29 31  1  0
 31 32  1  0
 31 33  1  0
 32 34  1  0
 32 35  1  0
 34 36  1  0
 37 35  1  0
 36 37  1  0
 37 38  1  0
V    5 *
V    6 *
A    2
 C07
A    3
 C06
A    4
 N08
A    5
 X  
A    6
 X  
A    7
 C09
A    8
 C04
A    9
 C04
A   10
 C10
A   11
 O30
A   12
 O03
A   13
 O38
A   14
 O03
A   15
 O38
A   16
 N11
A   17
 C27
A   18
 C02
A   19
 C02
A   20
 C12
A   21
 C25
A   22
 C28
A   23
 C01
A   24
 C01
A   25
 C13
A   26
 O26
A   27
 C24
A   28
 C29
A   29
 N14
A   30
 C23
A   31
 C15
A   32
 C16
A   33
 O22
A   34
 N17
A   35
 C21
A   36
 O18
A   37
 C19
A   38
 C20
M  END
>  <XChem_code>  (148) 
XNV§5

>  <Occupancy>  (148) 
[0.69, 0.31, 0.69, 0.31, 0.69, 0.31, 0.69, 0.31, 1.0, 1.0, 1.0, 1.0, 1.0, 1.0, 1.0, 1.0, 1.0, 1.0, 1.0, 1.0, 1.0, 1.0, 1.0, 1.0, 1.0, 1.0, 1.0, 1.0, 1.0, 1.0, 1.0, 1.0, 1.0, 1.0, 1.0, 1.0, 1.0, 1.0, 1.0, 1.0, 0.69, 0.31, 1.0, 1.0]

>  <TempFactor>  (148) 
[53.57, 61.0, 41.59, 49.21, 23.74, 32.51, 19.1, 21.28, 7.6, 8.11, 8.4, 9.74, 8.05, 8.56, 8.33, 8.16, 7.98, 7.67, 8.77, 11.26, 12.79, 12.84, 16.26, 10.81, 9.75, 8.32, 9.11, 8.82, 8.1, 8.86, 9.21, 10.73, 9.43, 7.8, 6.74, 9.87, 8.87, 8.14, 7.89, 8.51, 19.72, 18.23, 7.31, 12.55]

>  <accession>  (148) 
3Q3Y_A

>  <description>  (148) 
Chain A, HEVB EV93 3C protease [Enterovirus B]

>  <evalue>  (148) 
1.1460600000000001e-87

>  <pdb_code>  (148) 
3Q3Y

>  <chain>  (148) 
A

>  <ligands>  (148) 
[{'chain_id': 'A', 'author_residue_number': 190, 'author_insertion_code': '', 'chem_comp_id': 'XNV', 'alternate_conformers': 2, 'entity_id': 2, 'struct_asym_id': 'C', 'residue_number': 1, 'chem_comp_name': 'ethyl (4R)-4-({(2S)-2-[3-{[(5-methyl-1,2-oxazol-3-yl)carbonyl]amino}-2-oxopyridin-1(2H)-yl]pent-4-ynoyl}amino)-5-[(3S)-2-oxopyrrolidin-3-yl]pentanoate', 'weight': 525.554, 'carbohydrate_polymer': False, 'branch_name': ''}, {'chain_id': 'B', 'author_residue_number': 190, 'author_insertion_code': '', 'chem_comp_id': 'XNV', 'alternate_conformers': 2, 'entity_id': 2, 'struct_asym_id': 'L', 'residue_number': 1, 'chem_comp_name': 'ethyl (4R)-4-({(2S)-2-[3-{[(5-methyl-1,2-oxazol-3-yl)carbonyl]amino}-2-oxopyridin-1(2H)-yl]pent-4-ynoyl}amino)-5-[(3S)-2-oxopyrrolidin-3-yl]pentanoate', 'weight': 525.554, 'carbohydrate_polymer': False, 'branch_name': ''}, {'chain_id': 'A', 'author_residue_number': 191, 'author_insertion_code': '', 'chem_comp_id': 'EDO', 'alternate_conformers': 2, 'entity_id': 3, 'struct_asym_id': 'D', 'residue_number': 1, 'chem_comp_name': '1,2-ETHANEDIOL', 'weight': 62.068, 'carbohydrate_polymer': False, 'branch_name': ''}, {'chain_id': 'A', 'author_residue_number': 192, 'author_insertion_code': '', 'chem_comp_id': 'EDO', 'alternate_conformers': 2, 'entity_id': 3, 'struct_asym_id': 'E', 'residue_number': 1, 'chem_comp_name': '1,2-ETHANEDIOL', 'weight': 62.068, 'carbohydrate_polymer': False, 'branch_name': ''}, {'chain_id': 'A', 'author_residue_number': 193, 'author_insertion_code': '', 'chem_comp_id': 'EDO', 'alternate_conformers': 0, 'entity_id': 3, 'struct_asym_id': 'F', 'residue_number': 1, 'chem_comp_name': '1,2-ETHANEDIOL', 'weight': 62.068, 'carbohydrate_polymer': False, 'branch_name': ''}, {'chain_id': 'A', 'author_residue_number': 194, 'author_insertion_code': '', 'chem_comp_id': 'EDO', 'alternate_conformers': 1, 'entity_id': 3, 'struct_asym_id': 'G', 'residue_number': 1, 'chem_comp_name': '1,2-ETHANEDIOL', 'weight': 62.068, 'carbohydrate_polymer': False, 'branch_name': ''}, {'chain_id': 'B', 'author_residue_number': 191, 'author_insertion_code': '', 'chem_comp_id': 'EDO', 'alternate_conformers': 2, 'entity_id': 3, 'struct_asym_id': 'M', 'residue_number': 1, 'chem_comp_name': '1,2-ETHANEDIOL', 'weight': 62.068, 'carbohydrate_polymer': False, 'branch_name': ''}, {'chain_id': 'B', 'author_residue_number': 192, 'author_insertion_code': '', 'chem_comp_id': 'EDO', 'alternate_conformers': 0, 'entity_id': 3, 'struct_asym_id': 'N', 'residue_number': 1, 'chem_comp_name': '1,2-ETHANEDIOL', 'weight': 62.068, 'carbohydrate_polymer': False, 'branch_name': ''}, {'chain_id': 'B', 'author_residue_number': 193, 'author_insertion_code': '', 'chem_comp_id': 'EDO', 'alternate_conformers': 2, 'entity_id': 3, 'struct_asym_id': 'O', 'residue_number': 1, 'chem_comp_name': '1,2-ETHANEDIOL', 'weight': 62.068, 'carbohydrate_polymer': False, 'branch_name': ''}, {'chain_id': 'B', 'author_residue_number': 194, 'author_insertion_code': '', 'chem_comp_id': 'EDO', 'alternate_conformers': 1, 'entity_id': 3, 'struct_asym_id': 'P', 'residue_number': 1, 'chem_comp_name': '1,2-ETHANEDIOL', 'weight': 62.068, 'carbohydrate_polymer': False, 'branch_name': ''}, {'chain_id': 'A', 'author_residue_number': 195, 'author_insertion_code': '', 'chem_comp_id': 'PI', 'alternate_conformers': 1, 'entity_id': 4, 'struct_asym_id': 'H', 'residue_number': 1, 'chem_comp_name': 'HYDROGENPHOSPHATE ION', 'weight': 95.979, 'carbohydrate_polymer': False, 'branch_name': ''}, {'chain_id': 'A', 'author_residue_number': 196, 'author_insertion_code': '', 'chem_comp_id': 'PI', 'alternate_conformers': 1, 'entity_id': 4, 'struct_asym_id': 'I', 'residue_number': 1, 'chem_comp_name': 'HYDROGENPHOSPHATE ION', 'weight': 95.979, 'carbohydrate_polymer': False, 'branch_name': ''}, {'chain_id': 'B', 'author_residue_number': 195, 'author_insertion_code': '', 'chem_comp_id': 'PI', 'alternate_conformers': 1, 'entity_id': 4, 'struct_asym_id': 'Q', 'residue_number': 1, 'chem_comp_name': 'HYDROGENPHOSPHATE ION', 'weight': 95.979, 'carbohydrate_polymer': False, 'branch_name': ''}, {'chain_id': 'A', 'author_residue_number': 197, 'author_insertion_code': '', 'chem_comp_id': 'NH4', 'alternate_conformers': 2, 'entity_id': 5, 'struct_asym_id': 'J', 'residue_number': 1, 'chem_comp_name': 'AMMONIUM ION', 'weight': 18.038, 'carbohydrate_polymer': False, 'branch_name': ''}, {'chain_id': 'A', 'author_residue_number': 198, 'author_insertion_code': '', 'chem_comp_id': 'NH4', 'alternate_conformers': 0, 'entity_id': 5, 'struct_asym_id': 'K', 'residue_number': 1, 'chem_comp_name': 'AMMONIUM ION', 'weight': 18.038, 'carbohydrate_polymer': False, 'branch_name': ''}]

>  <ligand_codes>  (148) 
['XNV', 'XNV', 'EDO', 'EDO', 'EDO', 'EDO', 'EDO', 'EDO', 'EDO', 'EDO', 'PI', 'PI', 'PI', 'NH4', 'NH4']

>  <cofactor_codes>  (148) 
[]

>  <has_cofactor>  (148) 
False

>  <covalent>  (148) 
True

>  <base_name>  (148) 
3Q3Y

>  <lig_resn>  (148) 
XNV

>  <lig_resi>  (148) 
190

>  <lig_chain>  (148) 
A

>  <lig_segi>  (148) 
C

>  <lig_alt>  (148) 


>  <polymer_chain>  (148) 
A

>  <single_smiles>  (148) 
CCOC(=O)CC[C@H](C[C@@H]1CCNC1=O)NC(=O)[C@H](CC#C)N2C=CC=C(NC(=O)c3cc(C)on3)C2=O

$$$$
XNVP5S23
     RDKit          3D

 15 14  0  0  0  0  0  0  0  0999 V2000
   -7.5070    9.7730  -32.2370 C   0  0  0  0  0  0  0  0  0  0  0  0
   -7.6700    9.8230  -33.7780 C   0  0  0  0  0  0  0  0  0  0  0  0
   -8.0140    8.4320  -34.3930 C   0  0  1  0  0  0  0  0  0  0  0  0
   -9.6590    8.0130  -33.9280 R   0  0  0  0  0  0  0  0  0  0  0  0
   -7.7310    8.3810  -35.9230 R   0  0  0  0  0  0  0  0  0  0  0  0
   -6.2830    8.2890  -36.3860 C   0  0  1  0  0  0  0  0  0  0  0  0
   -6.2390    8.3590  -36.3130 C   0  0  2  0  0  0  0  0  0  0  0  0
   -5.9620    9.3890  -37.1520 O   0  0  0  0  0  0  0  0  0  0  0  0
   -5.3980    7.7430  -35.7710 O   0  0  0  0  0  0  0  0  0  0  0  0
   -5.9500    7.3430  -37.2070 O   0  0  0  0  0  0  0  0  0  0  0  0
   -5.3090    8.7040  -35.6100 O   0  0  0  0  0  0  0  0  0  0  0  0
   -4.5680    9.6340  -37.4070 C   0  0  0  0  0  0  0  0  0  0  0  0
   -6.9670    6.7070  -37.9880 C   0  0  0  0  0  0  0  0  0  0  0  0
   -4.2700   11.1150  -37.7120 C   0  0  0  0  0  0  0  0  0  0  0  0
   -6.4370    5.4350  -38.6720 C   0  0  0  0  0  0  0  0  0  0  0  0
  2  1  1  6
  3  2  1  0
  3  4  1  6
  3  5  1  0
  6  5  1  0
  7  5  1  0
  8  6  1  0
  6  9  1  1
 10  7  1  0
  7 11  1  1
 12  8  1  0
 13 10  1  0
 14 12  1  0
 15 13  1  0
V    4 *
V    5 *
A    3
 C06
A    4
 X  
A    5
 X  
A    6
 C04
A    7
 C04
A    8
 O03
A    9
 O38
A   10
 O03
A   11
 O38
A   12
 C02
A   13
 C02
A   14
 C01
A   15
 C01
M  END
>  <XChem_code>  (149) 
XNV§5

>  <Occupancy>  (149) 
[0.69, 0.31, 0.69, 0.31, 0.69, 0.31, 0.69, 0.31, 1.0, 1.0, 1.0, 1.0, 1.0, 1.0, 1.0, 1.0, 1.0, 1.0, 1.0, 1.0, 1.0, 1.0, 1.0, 1.0, 1.0, 1.0, 1.0, 1.0, 1.0, 1.0, 1.0, 1.0, 1.0, 1.0, 1.0, 1.0, 1.0, 1.0, 1.0, 1.0, 0.69, 0.31, 1.0, 1.0]

>  <TempFactor>  (149) 
[53.57, 61.0, 41.59, 49.21, 23.74, 32.51, 19.1, 21.28, 7.6, 8.11, 8.4, 9.74, 8.05, 8.56, 8.33, 8.16, 7.98, 7.67, 8.77, 11.26, 12.79, 12.84, 16.26, 10.81, 9.75, 8.32, 9.11, 8.82, 8.1, 8.86, 9.21, 10.73, 9.43, 7.8, 6.74, 9.87, 8.87, 8.14, 7.89, 8.51, 19.72, 18.23, 7.31, 12.55]

>  <accession>  (149) 
3Q3Y_A

>  <description>  (149) 
Chain A, HEVB EV93 3C protease [Enterovirus B]

>  <evalue>  (149) 
1.1460600000000001e-87

>  <pdb_code>  (149) 
3Q3Y

>  <chain>  (149) 
A

>  <ligands>  (149) 
[{'chain_id': 'A', 'author_residue_number': 190, 'author_insertion_code': '', 'chem_comp_id': 'XNV', 'alternate_conformers': 2, 'entity_id': 2, 'struct_asym_id': 'C', 'residue_number': 1, 'chem_comp_name': 'ethyl (4R)-4-({(2S)-2-[3-{[(5-methyl-1,2-oxazol-3-yl)carbonyl]amino}-2-oxopyridin-1(2H)-yl]pent-4-ynoyl}amino)-5-[(3S)-2-oxopyrrolidin-3-yl]pentanoate', 'weight': 525.554, 'carbohydrate_polymer': False, 'branch_name': ''}, {'chain_id': 'B', 'author_residue_number': 190, 'author_insertion_code': '', 'chem_comp_id': 'XNV', 'alternate_conformers': 2, 'entity_id': 2, 'struct_asym_id': 'L', 'residue_number': 1, 'chem_comp_name': 'ethyl (4R)-4-({(2S)-2-[3-{[(5-methyl-1,2-oxazol-3-yl)carbonyl]amino}-2-oxopyridin-1(2H)-yl]pent-4-ynoyl}amino)-5-[(3S)-2-oxopyrrolidin-3-yl]pentanoate', 'weight': 525.554, 'carbohydrate_polymer': False, 'branch_name': ''}, {'chain_id': 'A', 'author_residue_number': 191, 'author_insertion_code': '', 'chem_comp_id': 'EDO', 'alternate_conformers': 2, 'entity_id': 3, 'struct_asym_id': 'D', 'residue_number': 1, 'chem_comp_name': '1,2-ETHANEDIOL', 'weight': 62.068, 'carbohydrate_polymer': False, 'branch_name': ''}, {'chain_id': 'A', 'author_residue_number': 192, 'author_insertion_code': '', 'chem_comp_id': 'EDO', 'alternate_conformers': 2, 'entity_id': 3, 'struct_asym_id': 'E', 'residue_number': 1, 'chem_comp_name': '1,2-ETHANEDIOL', 'weight': 62.068, 'carbohydrate_polymer': False, 'branch_name': ''}, {'chain_id': 'A', 'author_residue_number': 193, 'author_insertion_code': '', 'chem_comp_id': 'EDO', 'alternate_conformers': 0, 'entity_id': 3, 'struct_asym_id': 'F', 'residue_number': 1, 'chem_comp_name': '1,2-ETHANEDIOL', 'weight': 62.068, 'carbohydrate_polymer': False, 'branch_name': ''}, {'chain_id': 'A', 'author_residue_number': 194, 'author_insertion_code': '', 'chem_comp_id': 'EDO', 'alternate_conformers': 1, 'entity_id': 3, 'struct_asym_id': 'G', 'residue_number': 1, 'chem_comp_name': '1,2-ETHANEDIOL', 'weight': 62.068, 'carbohydrate_polymer': False, 'branch_name': ''}, {'chain_id': 'B', 'author_residue_number': 191, 'author_insertion_code': '', 'chem_comp_id': 'EDO', 'alternate_conformers': 2, 'entity_id': 3, 'struct_asym_id': 'M', 'residue_number': 1, 'chem_comp_name': '1,2-ETHANEDIOL', 'weight': 62.068, 'carbohydrate_polymer': False, 'branch_name': ''}, {'chain_id': 'B', 'author_residue_number': 192, 'author_insertion_code': '', 'chem_comp_id': 'EDO', 'alternate_conformers': 0, 'entity_id': 3, 'struct_asym_id': 'N', 'residue_number': 1, 'chem_comp_name': '1,2-ETHANEDIOL', 'weight': 62.068, 'carbohydrate_polymer': False, 'branch_name': ''}, {'chain_id': 'B', 'author_residue_number': 193, 'author_insertion_code': '', 'chem_comp_id': 'EDO', 'alternate_conformers': 2, 'entity_id': 3, 'struct_asym_id': 'O', 'residue_number': 1, 'chem_comp_name': '1,2-ETHANEDIOL', 'weight': 62.068, 'carbohydrate_polymer': False, 'branch_name': ''}, {'chain_id': 'B', 'author_residue_number': 194, 'author_insertion_code': '', 'chem_comp_id': 'EDO', 'alternate_conformers': 1, 'entity_id': 3, 'struct_asym_id': 'P', 'residue_number': 1, 'chem_comp_name': '1,2-ETHANEDIOL', 'weight': 62.068, 'carbohydrate_polymer': False, 'branch_name': ''}, {'chain_id': 'A', 'author_residue_number': 195, 'author_insertion_code': '', 'chem_comp_id': 'PI', 'alternate_conformers': 1, 'entity_id': 4, 'struct_asym_id': 'H', 'residue_number': 1, 'chem_comp_name': 'HYDROGENPHOSPHATE ION', 'weight': 95.979, 'carbohydrate_polymer': False, 'branch_name': ''}, {'chain_id': 'A', 'author_residue_number': 196, 'author_insertion_code': '', 'chem_comp_id': 'PI', 'alternate_conformers': 1, 'entity_id': 4, 'struct_asym_id': 'I', 'residue_number': 1, 'chem_comp_name': 'HYDROGENPHOSPHATE ION', 'weight': 95.979, 'carbohydrate_polymer': False, 'branch_name': ''}, {'chain_id': 'B', 'author_residue_number': 195, 'author_insertion_code': '', 'chem_comp_id': 'PI', 'alternate_conformers': 1, 'entity_id': 4, 'struct_asym_id': 'Q', 'residue_number': 1, 'chem_comp_name': 'HYDROGENPHOSPHATE ION', 'weight': 95.979, 'carbohydrate_polymer': False, 'branch_name': ''}, {'chain_id': 'A', 'author_residue_number': 197, 'author_insertion_code': '', 'chem_comp_id': 'NH4', 'alternate_conformers': 2, 'entity_id': 5, 'struct_asym_id': 'J', 'residue_number': 1, 'chem_comp_name': 'AMMONIUM ION', 'weight': 18.038, 'carbohydrate_polymer': False, 'branch_name': ''}, {'chain_id': 'A', 'author_residue_number': 198, 'author_insertion_code': '', 'chem_comp_id': 'NH4', 'alternate_conformers': 0, 'entity_id': 5, 'struct_asym_id': 'K', 'residue_number': 1, 'chem_comp_name': 'AMMONIUM ION', 'weight': 18.038, 'carbohydrate_polymer': False, 'branch_name': ''}]

>  <ligand_codes>  (149) 
['XNV', 'XNV', 'EDO', 'EDO', 'EDO', 'EDO', 'EDO', 'EDO', 'EDO', 'EDO', 'PI', 'PI', 'PI', 'NH4', 'NH4']

>  <cofactor_codes>  (149) 
[]

>  <has_cofactor>  (149) 
False

>  <covalent>  (149) 
True

>  <base_name>  (149) 
3Q3Y

>  <lig_resn>  (149) 
XNV

>  <lig_resi>  (149) 
190

>  <lig_chain>  (149) 
A

>  <lig_segi>  (149) 
C

>  <lig_alt>  (149) 


>  <polymer_chain>  (149) 
A

>  <single_smiles>  (149) 
CCOC(=O)CC[C@H](C[C@@H]1CCNC1=O)NC(=O)[C@H](CC#C)N2C=CC=C(NC(=O)c3cc(C)on3)C2=O

$$$$
XNVP5S24
     RDKit          3D

 17 17  0  0  0  0  0  0  0  0999 V2000
  -10.0950   17.6650  -31.7210 C   0  0  0  0  0  0  0  0  0  0  0  0
   -9.2490   16.5750  -32.0350 N   0  0  0  0  0  0  0  0  0  0  0  0
  -10.5810   18.4340  -32.5450 O   0  0  0  0  0  0  0  0  0  0  0  0
   -9.0490   16.1590  -33.3600 C   0  0  0  0  0  0  0  0  0  0  0  0
   -9.2700   14.7400  -33.6260 C   0  0  0  0  0  0  0  0  0  0  0  0
   -8.7180   16.9980  -34.4080 C   0  0  0  0  0  0  0  0  0  0  0  0
   -9.2290   14.2940  -34.9840 N   0  0  0  0  0  0  0  0  0  0  0  0
   -9.5210   13.9120  -32.7390 O   0  0  0  0  0  0  0  0  0  0  0  0
   -8.6520   16.4840  -35.7260 C   0  0  0  0  0  0  0  0  0  0  0  0
   -9.5440   12.8720  -35.1700 C   0  0  2  0  0  0  0  0  0  0  0  0
   -8.8880   15.1740  -35.9880 C   0  0  0  0  0  0  0  0  0  0  0  0
   -8.3660   11.9860  -34.7380 C   0  0  0  0  0  0  0  0  0  0  0  0
   -9.9610   12.5320  -36.6040 C   0  0  0  0  0  0  0  0  0  0  0  0
   -8.6960   10.7850  -34.1610 N   0  0  0  0  0  0  0  0  0  0  0  0
   -7.2170   12.3540  -34.9210 O   0  0  0  0  0  0  0  0  0  0  0  0
  -11.1420   13.3100  -36.9200 C   0  0  0  0  0  0  0  0  0  0  0  0
  -12.1000   13.9360  -37.1800 C   0  0  0  0  0  0  0  0  0  0  0  0
  2  1  1  0
  1  3  1  0
  4  2  1  0
  5  4  1  0
  4  6  1  0
  7  5  1  0
  5  8  1  0
  6  9  1  0
 10  7  1  0
  7 11  1  0
  9 11  1  0
 12 10  1  0
 10 13  1  6
 14 12  1  0
 12 15  1  0
 13 16  1  0
 16 17  1  0
A    2
 N14
A    3
 O22
A    4
 C13
A    5
 C12
A    6
 C23
A    7
 N11
A    8
 O26
A    9
 C24
A   10
 C10
A   11
 C25
A   12
 C09
A   13
 C27
A   15
 O30
A   16
 C28
A   17
 C29
M  END
>  <XChem_code>  (150) 
XNV§5

>  <Occupancy>  (150) 
[0.69, 0.31, 0.69, 0.31, 0.69, 0.31, 0.69, 0.31, 1.0, 1.0, 1.0, 1.0, 1.0, 1.0, 1.0, 1.0, 1.0, 1.0, 1.0, 1.0, 1.0, 1.0, 1.0, 1.0, 1.0, 1.0, 1.0, 1.0, 1.0, 1.0, 1.0, 1.0, 1.0, 1.0, 1.0, 1.0, 1.0, 1.0, 1.0, 1.0, 0.69, 0.31, 1.0, 1.0]

>  <TempFactor>  (150) 
[53.57, 61.0, 41.59, 49.21, 23.74, 32.51, 19.1, 21.28, 7.6, 8.11, 8.4, 9.74, 8.05, 8.56, 8.33, 8.16, 7.98, 7.67, 8.77, 11.26, 12.79, 12.84, 16.26, 10.81, 9.75, 8.32, 9.11, 8.82, 8.1, 8.86, 9.21, 10.73, 9.43, 7.8, 6.74, 9.87, 8.87, 8.14, 7.89, 8.51, 19.72, 18.23, 7.31, 12.55]

>  <accession>  (150) 
3Q3Y_A

>  <description>  (150) 
Chain A, HEVB EV93 3C protease [Enterovirus B]

>  <evalue>  (150) 
1.1460600000000001e-87

>  <pdb_code>  (150) 
3Q3Y

>  <chain>  (150) 
A

>  <ligands>  (150) 
[{'chain_id': 'A', 'author_residue_number': 190, 'author_insertion_code': '', 'chem_comp_id': 'XNV', 'alternate_conformers': 2, 'entity_id': 2, 'struct_asym_id': 'C', 'residue_number': 1, 'chem_comp_name': 'ethyl (4R)-4-({(2S)-2-[3-{[(5-methyl-1,2-oxazol-3-yl)carbonyl]amino}-2-oxopyridin-1(2H)-yl]pent-4-ynoyl}amino)-5-[(3S)-2-oxopyrrolidin-3-yl]pentanoate', 'weight': 525.554, 'carbohydrate_polymer': False, 'branch_name': ''}, {'chain_id': 'B', 'author_residue_number': 190, 'author_insertion_code': '', 'chem_comp_id': 'XNV', 'alternate_conformers': 2, 'entity_id': 2, 'struct_asym_id': 'L', 'residue_number': 1, 'chem_comp_name': 'ethyl (4R)-4-({(2S)-2-[3-{[(5-methyl-1,2-oxazol-3-yl)carbonyl]amino}-2-oxopyridin-1(2H)-yl]pent-4-ynoyl}amino)-5-[(3S)-2-oxopyrrolidin-3-yl]pentanoate', 'weight': 525.554, 'carbohydrate_polymer': False, 'branch_name': ''}, {'chain_id': 'A', 'author_residue_number': 191, 'author_insertion_code': '', 'chem_comp_id': 'EDO', 'alternate_conformers': 2, 'entity_id': 3, 'struct_asym_id': 'D', 'residue_number': 1, 'chem_comp_name': '1,2-ETHANEDIOL', 'weight': 62.068, 'carbohydrate_polymer': False, 'branch_name': ''}, {'chain_id': 'A', 'author_residue_number': 192, 'author_insertion_code': '', 'chem_comp_id': 'EDO', 'alternate_conformers': 2, 'entity_id': 3, 'struct_asym_id': 'E', 'residue_number': 1, 'chem_comp_name': '1,2-ETHANEDIOL', 'weight': 62.068, 'carbohydrate_polymer': False, 'branch_name': ''}, {'chain_id': 'A', 'author_residue_number': 193, 'author_insertion_code': '', 'chem_comp_id': 'EDO', 'alternate_conformers': 0, 'entity_id': 3, 'struct_asym_id': 'F', 'residue_number': 1, 'chem_comp_name': '1,2-ETHANEDIOL', 'weight': 62.068, 'carbohydrate_polymer': False, 'branch_name': ''}, {'chain_id': 'A', 'author_residue_number': 194, 'author_insertion_code': '', 'chem_comp_id': 'EDO', 'alternate_conformers': 1, 'entity_id': 3, 'struct_asym_id': 'G', 'residue_number': 1, 'chem_comp_name': '1,2-ETHANEDIOL', 'weight': 62.068, 'carbohydrate_polymer': False, 'branch_name': ''}, {'chain_id': 'B', 'author_residue_number': 191, 'author_insertion_code': '', 'chem_comp_id': 'EDO', 'alternate_conformers': 2, 'entity_id': 3, 'struct_asym_id': 'M', 'residue_number': 1, 'chem_comp_name': '1,2-ETHANEDIOL', 'weight': 62.068, 'carbohydrate_polymer': False, 'branch_name': ''}, {'chain_id': 'B', 'author_residue_number': 192, 'author_insertion_code': '', 'chem_comp_id': 'EDO', 'alternate_conformers': 0, 'entity_id': 3, 'struct_asym_id': 'N', 'residue_number': 1, 'chem_comp_name': '1,2-ETHANEDIOL', 'weight': 62.068, 'carbohydrate_polymer': False, 'branch_name': ''}, {'chain_id': 'B', 'author_residue_number': 193, 'author_insertion_code': '', 'chem_comp_id': 'EDO', 'alternate_conformers': 2, 'entity_id': 3, 'struct_asym_id': 'O', 'residue_number': 1, 'chem_comp_name': '1,2-ETHANEDIOL', 'weight': 62.068, 'carbohydrate_polymer': False, 'branch_name': ''}, {'chain_id': 'B', 'author_residue_number': 194, 'author_insertion_code': '', 'chem_comp_id': 'EDO', 'alternate_conformers': 1, 'entity_id': 3, 'struct_asym_id': 'P', 'residue_number': 1, 'chem_comp_name': '1,2-ETHANEDIOL', 'weight': 62.068, 'carbohydrate_polymer': False, 'branch_name': ''}, {'chain_id': 'A', 'author_residue_number': 195, 'author_insertion_code': '', 'chem_comp_id': 'PI', 'alternate_conformers': 1, 'entity_id': 4, 'struct_asym_id': 'H', 'residue_number': 1, 'chem_comp_name': 'HYDROGENPHOSPHATE ION', 'weight': 95.979, 'carbohydrate_polymer': False, 'branch_name': ''}, {'chain_id': 'A', 'author_residue_number': 196, 'author_insertion_code': '', 'chem_comp_id': 'PI', 'alternate_conformers': 1, 'entity_id': 4, 'struct_asym_id': 'I', 'residue_number': 1, 'chem_comp_name': 'HYDROGENPHOSPHATE ION', 'weight': 95.979, 'carbohydrate_polymer': False, 'branch_name': ''}, {'chain_id': 'B', 'author_residue_number': 195, 'author_insertion_code': '', 'chem_comp_id': 'PI', 'alternate_conformers': 1, 'entity_id': 4, 'struct_asym_id': 'Q', 'residue_number': 1, 'chem_comp_name': 'HYDROGENPHOSPHATE ION', 'weight': 95.979, 'carbohydrate_polymer': False, 'branch_name': ''}, {'chain_id': 'A', 'author_residue_number': 197, 'author_insertion_code': '', 'chem_comp_id': 'NH4', 'alternate_conformers': 2, 'entity_id': 5, 'struct_asym_id': 'J', 'residue_number': 1, 'chem_comp_name': 'AMMONIUM ION', 'weight': 18.038, 'carbohydrate_polymer': False, 'branch_name': ''}, {'chain_id': 'A', 'author_residue_number': 198, 'author_insertion_code': '', 'chem_comp_id': 'NH4', 'alternate_conformers': 0, 'entity_id': 5, 'struct_asym_id': 'K', 'residue_number': 1, 'chem_comp_name': 'AMMONIUM ION', 'weight': 18.038, 'carbohydrate_polymer': False, 'branch_name': ''}]

>  <ligand_codes>  (150) 
['XNV', 'XNV', 'EDO', 'EDO', 'EDO', 'EDO', 'EDO', 'EDO', 'EDO', 'EDO', 'PI', 'PI', 'PI', 'NH4', 'NH4']

>  <cofactor_codes>  (150) 
[]

>  <has_cofactor>  (150) 
False

>  <covalent>  (150) 
True

>  <base_name>  (150) 
3Q3Y

>  <lig_resn>  (150) 
XNV

>  <lig_resi>  (150) 
190

>  <lig_chain>  (150) 
A

>  <lig_segi>  (150) 
C

>  <lig_alt>  (150) 


>  <polymer_chain>  (150) 
A

>  <single_smiles>  (150) 
CCOC(=O)CC[C@H](C[C@@H]1CCNC1=O)NC(=O)[C@H](CC#C)N2C=CC=C(NC(=O)c3cc(C)on3)C2=O

$$$$
XNVP5S25
     RDKit          3D

 16 16  0  0  0  0  0  0  0  0999 V2000
  -10.0950   17.6650  -31.7210 C   0  0  0  0  0  0  0  0  0  0  0  0
   -9.2490   16.5750  -32.0350 N   0  0  0  0  0  0  0  0  0  0  0  0
  -10.5810   18.4340  -32.5450 O   0  0  0  0  0  0  0  0  0  0  0  0
   -9.0490   16.1590  -33.3600 C   0  0  0  0  0  0  0  0  0  0  0  0
   -9.2700   14.7400  -33.6260 C   0  0  0  0  0  0  0  0  0  0  0  0
   -8.7180   16.9980  -34.4080 C   0  0  0  0  0  0  0  0  0  0  0  0
   -9.2290   14.2940  -34.9840 N   0  0  0  0  0  0  0  0  0  0  0  0
   -9.5210   13.9120  -32.7390 O   0  0  0  0  0  0  0  0  0  0  0  0
   -8.6520   16.4840  -35.7260 C   0  0  0  0  0  0  0  0  0  0  0  0
   -9.5440   12.8720  -35.1700 C   0  0  2  0  0  0  0  0  0  0  0  0
   -8.8880   15.1740  -35.9880 C   0  0  0  0  0  0  0  0  0  0  0  0
   -8.3660   11.9860  -34.7380 C   0  0  0  0  0  0  0  0  0  0  0  0
   -9.9610   12.5320  -36.6040 C   0  0  0  0  0  0  0  0  0  0  0  0
   -7.2170   12.3540  -34.9210 O   0  0  0  0  0  0  0  0  0  0  0  0
  -11.1420   13.3100  -36.9200 C   0  0  0  0  0  0  0  0  0  0  0  0
  -12.1000   13.9360  -37.1800 C   0  0  0  0  0  0  0  0  0  0  0  0
  2  1  1  0
  1  3  1  0
  4  2  1  0
  5  4  1  0
  4  6  1  0
  7  5  1  0
  5  8  1  0
  6  9  1  0
 10  7  1  0
  7 11  1  0
  9 11  1  0
 10 12  1  6
 10 13  1  0
 12 14  1  0
 13 15  1  0
 15 16  1  0
A    2
 N14
A    3
 O22
A    4
 C13
A    5
 C12
A    6
 C23
A    7
 N11
A    8
 O26
A    9
 C24
A   10
 C10
A   11
 C25
A   13
 C27
A   14
 O30
A   15
 C28
A   16
 C29
M  END
>  <XChem_code>  (151) 
XNV§5

>  <Occupancy>  (151) 
[0.69, 0.31, 0.69, 0.31, 0.69, 0.31, 0.69, 0.31, 1.0, 1.0, 1.0, 1.0, 1.0, 1.0, 1.0, 1.0, 1.0, 1.0, 1.0, 1.0, 1.0, 1.0, 1.0, 1.0, 1.0, 1.0, 1.0, 1.0, 1.0, 1.0, 1.0, 1.0, 1.0, 1.0, 1.0, 1.0, 1.0, 1.0, 1.0, 1.0, 0.69, 0.31, 1.0, 1.0]

>  <TempFactor>  (151) 
[53.57, 61.0, 41.59, 49.21, 23.74, 32.51, 19.1, 21.28, 7.6, 8.11, 8.4, 9.74, 8.05, 8.56, 8.33, 8.16, 7.98, 7.67, 8.77, 11.26, 12.79, 12.84, 16.26, 10.81, 9.75, 8.32, 9.11, 8.82, 8.1, 8.86, 9.21, 10.73, 9.43, 7.8, 6.74, 9.87, 8.87, 8.14, 7.89, 8.51, 19.72, 18.23, 7.31, 12.55]

>  <accession>  (151) 
3Q3Y_A

>  <description>  (151) 
Chain A, HEVB EV93 3C protease [Enterovirus B]

>  <evalue>  (151) 
1.1460600000000001e-87

>  <pdb_code>  (151) 
3Q3Y

>  <chain>  (151) 
A

>  <ligands>  (151) 
[{'chain_id': 'A', 'author_residue_number': 190, 'author_insertion_code': '', 'chem_comp_id': 'XNV', 'alternate_conformers': 2, 'entity_id': 2, 'struct_asym_id': 'C', 'residue_number': 1, 'chem_comp_name': 'ethyl (4R)-4-({(2S)-2-[3-{[(5-methyl-1,2-oxazol-3-yl)carbonyl]amino}-2-oxopyridin-1(2H)-yl]pent-4-ynoyl}amino)-5-[(3S)-2-oxopyrrolidin-3-yl]pentanoate', 'weight': 525.554, 'carbohydrate_polymer': False, 'branch_name': ''}, {'chain_id': 'B', 'author_residue_number': 190, 'author_insertion_code': '', 'chem_comp_id': 'XNV', 'alternate_conformers': 2, 'entity_id': 2, 'struct_asym_id': 'L', 'residue_number': 1, 'chem_comp_name': 'ethyl (4R)-4-({(2S)-2-[3-{[(5-methyl-1,2-oxazol-3-yl)carbonyl]amino}-2-oxopyridin-1(2H)-yl]pent-4-ynoyl}amino)-5-[(3S)-2-oxopyrrolidin-3-yl]pentanoate', 'weight': 525.554, 'carbohydrate_polymer': False, 'branch_name': ''}, {'chain_id': 'A', 'author_residue_number': 191, 'author_insertion_code': '', 'chem_comp_id': 'EDO', 'alternate_conformers': 2, 'entity_id': 3, 'struct_asym_id': 'D', 'residue_number': 1, 'chem_comp_name': '1,2-ETHANEDIOL', 'weight': 62.068, 'carbohydrate_polymer': False, 'branch_name': ''}, {'chain_id': 'A', 'author_residue_number': 192, 'author_insertion_code': '', 'chem_comp_id': 'EDO', 'alternate_conformers': 2, 'entity_id': 3, 'struct_asym_id': 'E', 'residue_number': 1, 'chem_comp_name': '1,2-ETHANEDIOL', 'weight': 62.068, 'carbohydrate_polymer': False, 'branch_name': ''}, {'chain_id': 'A', 'author_residue_number': 193, 'author_insertion_code': '', 'chem_comp_id': 'EDO', 'alternate_conformers': 0, 'entity_id': 3, 'struct_asym_id': 'F', 'residue_number': 1, 'chem_comp_name': '1,2-ETHANEDIOL', 'weight': 62.068, 'carbohydrate_polymer': False, 'branch_name': ''}, {'chain_id': 'A', 'author_residue_number': 194, 'author_insertion_code': '', 'chem_comp_id': 'EDO', 'alternate_conformers': 1, 'entity_id': 3, 'struct_asym_id': 'G', 'residue_number': 1, 'chem_comp_name': '1,2-ETHANEDIOL', 'weight': 62.068, 'carbohydrate_polymer': False, 'branch_name': ''}, {'chain_id': 'B', 'author_residue_number': 191, 'author_insertion_code': '', 'chem_comp_id': 'EDO', 'alternate_conformers': 2, 'entity_id': 3, 'struct_asym_id': 'M', 'residue_number': 1, 'chem_comp_name': '1,2-ETHANEDIOL', 'weight': 62.068, 'carbohydrate_polymer': False, 'branch_name': ''}, {'chain_id': 'B', 'author_residue_number': 192, 'author_insertion_code': '', 'chem_comp_id': 'EDO', 'alternate_conformers': 0, 'entity_id': 3, 'struct_asym_id': 'N', 'residue_number': 1, 'chem_comp_name': '1,2-ETHANEDIOL', 'weight': 62.068, 'carbohydrate_polymer': False, 'branch_name': ''}, {'chain_id': 'B', 'author_residue_number': 193, 'author_insertion_code': '', 'chem_comp_id': 'EDO', 'alternate_conformers': 2, 'entity_id': 3, 'struct_asym_id': 'O', 'residue_number': 1, 'chem_comp_name': '1,2-ETHANEDIOL', 'weight': 62.068, 'carbohydrate_polymer': False, 'branch_name': ''}, {'chain_id': 'B', 'author_residue_number': 194, 'author_insertion_code': '', 'chem_comp_id': 'EDO', 'alternate_conformers': 1, 'entity_id': 3, 'struct_asym_id': 'P', 'residue_number': 1, 'chem_comp_name': '1,2-ETHANEDIOL', 'weight': 62.068, 'carbohydrate_polymer': False, 'branch_name': ''}, {'chain_id': 'A', 'author_residue_number': 195, 'author_insertion_code': '', 'chem_comp_id': 'PI', 'alternate_conformers': 1, 'entity_id': 4, 'struct_asym_id': 'H', 'residue_number': 1, 'chem_comp_name': 'HYDROGENPHOSPHATE ION', 'weight': 95.979, 'carbohydrate_polymer': False, 'branch_name': ''}, {'chain_id': 'A', 'author_residue_number': 196, 'author_insertion_code': '', 'chem_comp_id': 'PI', 'alternate_conformers': 1, 'entity_id': 4, 'struct_asym_id': 'I', 'residue_number': 1, 'chem_comp_name': 'HYDROGENPHOSPHATE ION', 'weight': 95.979, 'carbohydrate_polymer': False, 'branch_name': ''}, {'chain_id': 'B', 'author_residue_number': 195, 'author_insertion_code': '', 'chem_comp_id': 'PI', 'alternate_conformers': 1, 'entity_id': 4, 'struct_asym_id': 'Q', 'residue_number': 1, 'chem_comp_name': 'HYDROGENPHOSPHATE ION', 'weight': 95.979, 'carbohydrate_polymer': False, 'branch_name': ''}, {'chain_id': 'A', 'author_residue_number': 197, 'author_insertion_code': '', 'chem_comp_id': 'NH4', 'alternate_conformers': 2, 'entity_id': 5, 'struct_asym_id': 'J', 'residue_number': 1, 'chem_comp_name': 'AMMONIUM ION', 'weight': 18.038, 'carbohydrate_polymer': False, 'branch_name': ''}, {'chain_id': 'A', 'author_residue_number': 198, 'author_insertion_code': '', 'chem_comp_id': 'NH4', 'alternate_conformers': 0, 'entity_id': 5, 'struct_asym_id': 'K', 'residue_number': 1, 'chem_comp_name': 'AMMONIUM ION', 'weight': 18.038, 'carbohydrate_polymer': False, 'branch_name': ''}]

>  <ligand_codes>  (151) 
['XNV', 'XNV', 'EDO', 'EDO', 'EDO', 'EDO', 'EDO', 'EDO', 'EDO', 'EDO', 'PI', 'PI', 'PI', 'NH4', 'NH4']

>  <cofactor_codes>  (151) 
[]

>  <has_cofactor>  (151) 
False

>  <covalent>  (151) 
True

>  <base_name>  (151) 
3Q3Y

>  <lig_resn>  (151) 
XNV

>  <lig_resi>  (151) 
190

>  <lig_chain>  (151) 
A

>  <lig_segi>  (151) 
C

>  <lig_alt>  (151) 


>  <polymer_chain>  (151) 
A

>  <single_smiles>  (151) 
CCOC(=O)CC[C@H](C[C@@H]1CCNC1=O)NC(=O)[C@H](CC#C)N2C=CC=C(NC(=O)c3cc(C)on3)C2=O

$$$$
XNVP5S26
     RDKit          3D

 16 15  0  0  0  0  0  0  0  0999 V2000
   -7.5070    9.7730  -32.2370 C   0  0  0  0  0  0  0  0  0  0  0  0
   -7.6700    9.8230  -33.7780 C   0  0  2  0  0  0  0  0  0  0  0  0
   -8.6960   10.7850  -34.1610 N   0  0  0  0  0  0  0  0  0  0  0  0
   -8.0140    8.4320  -34.3930 C   0  0  1  0  0  0  0  0  0  0  0  0
   -9.6590    8.0130  -33.9280 R   0  0  0  0  0  0  0  0  0  0  0  0
   -7.7310    8.3810  -35.9230 R   0  0  0  0  0  0  0  0  0  0  0  0
   -6.2830    8.2890  -36.3860 C   0  0  1  0  0  0  0  0  0  0  0  0
   -6.2390    8.3590  -36.3130 C   0  0  2  0  0  0  0  0  0  0  0  0
   -5.9620    9.3890  -37.1520 O   0  0  0  0  0  0  0  0  0  0  0  0
   -5.3980    7.7430  -35.7710 O   0  0  0  0  0  0  0  0  0  0  0  0
   -5.9500    7.3430  -37.2070 O   0  0  0  0  0  0  0  0  0  0  0  0
   -5.3090    8.7040  -35.6100 O   0  0  0  0  0  0  0  0  0  0  0  0
   -4.5680    9.6340  -37.4070 C   0  0  0  0  0  0  0  0  0  0  0  0
   -6.9670    6.7070  -37.9880 C   0  0  0  0  0  0  0  0  0  0  0  0
   -4.2700   11.1150  -37.7120 C   0  0  0  0  0  0  0  0  0  0  0  0
   -6.4370    5.4350  -38.6720 C   0  0  0  0  0  0  0  0  0  0  0  0
  2  1  1  1
  2  3  1  0
  4  2  1  0
  4  5  1  6
  4  6  1  0
  7  6  1  0
  8  6  1  0
  9  7  1  0
  7 10  1  1
 11  8  1  0
  8 12  1  1
 13  9  1  0
 14 11  1  0
 15 13  1  0
 16 14  1  0
V    5 *
V    6 *
A    2
 C07
A    4
 C06
A    5
 X  
A    6
 X  
A    7
 C04
A    8
 C04
A    9
 O03
A   10
 O38
A   11
 O03
A   12
 O38
A   13
 C02
A   14
 C02
A   15
 C01
A   16
 C01
M  END
>  <XChem_code>  (152) 
XNV§5

>  <Occupancy>  (152) 
[0.69, 0.31, 0.69, 0.31, 0.69, 0.31, 0.69, 0.31, 1.0, 1.0, 1.0, 1.0, 1.0, 1.0, 1.0, 1.0, 1.0, 1.0, 1.0, 1.0, 1.0, 1.0, 1.0, 1.0, 1.0, 1.0, 1.0, 1.0, 1.0, 1.0, 1.0, 1.0, 1.0, 1.0, 1.0, 1.0, 1.0, 1.0, 1.0, 1.0, 0.69, 0.31, 1.0, 1.0]

>  <TempFactor>  (152) 
[53.57, 61.0, 41.59, 49.21, 23.74, 32.51, 19.1, 21.28, 7.6, 8.11, 8.4, 9.74, 8.05, 8.56, 8.33, 8.16, 7.98, 7.67, 8.77, 11.26, 12.79, 12.84, 16.26, 10.81, 9.75, 8.32, 9.11, 8.82, 8.1, 8.86, 9.21, 10.73, 9.43, 7.8, 6.74, 9.87, 8.87, 8.14, 7.89, 8.51, 19.72, 18.23, 7.31, 12.55]

>  <accession>  (152) 
3Q3Y_A

>  <description>  (152) 
Chain A, HEVB EV93 3C protease [Enterovirus B]

>  <evalue>  (152) 
1.1460600000000001e-87

>  <pdb_code>  (152) 
3Q3Y

>  <chain>  (152) 
A

>  <ligands>  (152) 
[{'chain_id': 'A', 'author_residue_number': 190, 'author_insertion_code': '', 'chem_comp_id': 'XNV', 'alternate_conformers': 2, 'entity_id': 2, 'struct_asym_id': 'C', 'residue_number': 1, 'chem_comp_name': 'ethyl (4R)-4-({(2S)-2-[3-{[(5-methyl-1,2-oxazol-3-yl)carbonyl]amino}-2-oxopyridin-1(2H)-yl]pent-4-ynoyl}amino)-5-[(3S)-2-oxopyrrolidin-3-yl]pentanoate', 'weight': 525.554, 'carbohydrate_polymer': False, 'branch_name': ''}, {'chain_id': 'B', 'author_residue_number': 190, 'author_insertion_code': '', 'chem_comp_id': 'XNV', 'alternate_conformers': 2, 'entity_id': 2, 'struct_asym_id': 'L', 'residue_number': 1, 'chem_comp_name': 'ethyl (4R)-4-({(2S)-2-[3-{[(5-methyl-1,2-oxazol-3-yl)carbonyl]amino}-2-oxopyridin-1(2H)-yl]pent-4-ynoyl}amino)-5-[(3S)-2-oxopyrrolidin-3-yl]pentanoate', 'weight': 525.554, 'carbohydrate_polymer': False, 'branch_name': ''}, {'chain_id': 'A', 'author_residue_number': 191, 'author_insertion_code': '', 'chem_comp_id': 'EDO', 'alternate_conformers': 2, 'entity_id': 3, 'struct_asym_id': 'D', 'residue_number': 1, 'chem_comp_name': '1,2-ETHANEDIOL', 'weight': 62.068, 'carbohydrate_polymer': False, 'branch_name': ''}, {'chain_id': 'A', 'author_residue_number': 192, 'author_insertion_code': '', 'chem_comp_id': 'EDO', 'alternate_conformers': 2, 'entity_id': 3, 'struct_asym_id': 'E', 'residue_number': 1, 'chem_comp_name': '1,2-ETHANEDIOL', 'weight': 62.068, 'carbohydrate_polymer': False, 'branch_name': ''}, {'chain_id': 'A', 'author_residue_number': 193, 'author_insertion_code': '', 'chem_comp_id': 'EDO', 'alternate_conformers': 0, 'entity_id': 3, 'struct_asym_id': 'F', 'residue_number': 1, 'chem_comp_name': '1,2-ETHANEDIOL', 'weight': 62.068, 'carbohydrate_polymer': False, 'branch_name': ''}, {'chain_id': 'A', 'author_residue_number': 194, 'author_insertion_code': '', 'chem_comp_id': 'EDO', 'alternate_conformers': 1, 'entity_id': 3, 'struct_asym_id': 'G', 'residue_number': 1, 'chem_comp_name': '1,2-ETHANEDIOL', 'weight': 62.068, 'carbohydrate_polymer': False, 'branch_name': ''}, {'chain_id': 'B', 'author_residue_number': 191, 'author_insertion_code': '', 'chem_comp_id': 'EDO', 'alternate_conformers': 2, 'entity_id': 3, 'struct_asym_id': 'M', 'residue_number': 1, 'chem_comp_name': '1,2-ETHANEDIOL', 'weight': 62.068, 'carbohydrate_polymer': False, 'branch_name': ''}, {'chain_id': 'B', 'author_residue_number': 192, 'author_insertion_code': '', 'chem_comp_id': 'EDO', 'alternate_conformers': 0, 'entity_id': 3, 'struct_asym_id': 'N', 'residue_number': 1, 'chem_comp_name': '1,2-ETHANEDIOL', 'weight': 62.068, 'carbohydrate_polymer': False, 'branch_name': ''}, {'chain_id': 'B', 'author_residue_number': 193, 'author_insertion_code': '', 'chem_comp_id': 'EDO', 'alternate_conformers': 2, 'entity_id': 3, 'struct_asym_id': 'O', 'residue_number': 1, 'chem_comp_name': '1,2-ETHANEDIOL', 'weight': 62.068, 'carbohydrate_polymer': False, 'branch_name': ''}, {'chain_id': 'B', 'author_residue_number': 194, 'author_insertion_code': '', 'chem_comp_id': 'EDO', 'alternate_conformers': 1, 'entity_id': 3, 'struct_asym_id': 'P', 'residue_number': 1, 'chem_comp_name': '1,2-ETHANEDIOL', 'weight': 62.068, 'carbohydrate_polymer': False, 'branch_name': ''}, {'chain_id': 'A', 'author_residue_number': 195, 'author_insertion_code': '', 'chem_comp_id': 'PI', 'alternate_conformers': 1, 'entity_id': 4, 'struct_asym_id': 'H', 'residue_number': 1, 'chem_comp_name': 'HYDROGENPHOSPHATE ION', 'weight': 95.979, 'carbohydrate_polymer': False, 'branch_name': ''}, {'chain_id': 'A', 'author_residue_number': 196, 'author_insertion_code': '', 'chem_comp_id': 'PI', 'alternate_conformers': 1, 'entity_id': 4, 'struct_asym_id': 'I', 'residue_number': 1, 'chem_comp_name': 'HYDROGENPHOSPHATE ION', 'weight': 95.979, 'carbohydrate_polymer': False, 'branch_name': ''}, {'chain_id': 'B', 'author_residue_number': 195, 'author_insertion_code': '', 'chem_comp_id': 'PI', 'alternate_conformers': 1, 'entity_id': 4, 'struct_asym_id': 'Q', 'residue_number': 1, 'chem_comp_name': 'HYDROGENPHOSPHATE ION', 'weight': 95.979, 'carbohydrate_polymer': False, 'branch_name': ''}, {'chain_id': 'A', 'author_residue_number': 197, 'author_insertion_code': '', 'chem_comp_id': 'NH4', 'alternate_conformers': 2, 'entity_id': 5, 'struct_asym_id': 'J', 'residue_number': 1, 'chem_comp_name': 'AMMONIUM ION', 'weight': 18.038, 'carbohydrate_polymer': False, 'branch_name': ''}, {'chain_id': 'A', 'author_residue_number': 198, 'author_insertion_code': '', 'chem_comp_id': 'NH4', 'alternate_conformers': 0, 'entity_id': 5, 'struct_asym_id': 'K', 'residue_number': 1, 'chem_comp_name': 'AMMONIUM ION', 'weight': 18.038, 'carbohydrate_polymer': False, 'branch_name': ''}]

>  <ligand_codes>  (152) 
['XNV', 'XNV', 'EDO', 'EDO', 'EDO', 'EDO', 'EDO', 'EDO', 'EDO', 'EDO', 'PI', 'PI', 'PI', 'NH4', 'NH4']

>  <cofactor_codes>  (152) 
[]

>  <has_cofactor>  (152) 
False

>  <covalent>  (152) 
True

>  <base_name>  (152) 
3Q3Y

>  <lig_resn>  (152) 
XNV

>  <lig_resi>  (152) 
190

>  <lig_chain>  (152) 
A

>  <lig_segi>  (152) 
C

>  <lig_alt>  (152) 


>  <polymer_chain>  (152) 
A

>  <single_smiles>  (152) 
CCOC(=O)CC[C@H](C[C@@H]1CCNC1=O)NC(=O)[C@H](CC#C)N2C=CC=C(NC(=O)c3cc(C)on3)C2=O

$$$$
XNVP5S27
     RDKit          3D

 10 10  0  0  0  0  0  0  0  0999 V2000
  -10.0950   17.6650  -31.7210 C   0  0  0  0  0  0  0  0  0  0  0  0
   -9.2490   16.5750  -32.0350 N   0  0  0  0  0  0  0  0  0  0  0  0
  -10.5810   18.4340  -32.5450 O   0  0  0  0  0  0  0  0  0  0  0  0
   -9.0490   16.1590  -33.3600 C   0  0  0  0  0  0  0  0  0  0  0  0
   -9.2700   14.7400  -33.6260 C   0  0  0  0  0  0  0  0  0  0  0  0
   -8.7180   16.9980  -34.4080 C   0  0  0  0  0  0  0  0  0  0  0  0
   -9.2290   14.2940  -34.9840 N   0  0  0  0  0  0  0  0  0  0  0  0
   -9.5210   13.9120  -32.7390 O   0  0  0  0  0  0  0  0  0  0  0  0
   -8.6520   16.4840  -35.7260 C   0  0  0  0  0  0  0  0  0  0  0  0
   -8.8880   15.1740  -35.9880 C   0  0  0  0  0  0  0  0  0  0  0  0
  2  1  1  0
  1  3  1  0
  4  2  1  0
  5  4  1  0
  4  6  1  0
  7  5  1  0
  5  8  1  0
  6  9  1  0
  7 10  1  0
  9 10  1  0
A    2
 N14
A    3
 O22
A    4
 C13
A    5
 C12
A    6
 C23
A    8
 O26
A    9
 C24
A   10
 C25
M  END
>  <XChem_code>  (153) 
XNV§5

>  <Occupancy>  (153) 
[0.69, 0.31, 0.69, 0.31, 0.69, 0.31, 0.69, 0.31, 1.0, 1.0, 1.0, 1.0, 1.0, 1.0, 1.0, 1.0, 1.0, 1.0, 1.0, 1.0, 1.0, 1.0, 1.0, 1.0, 1.0, 1.0, 1.0, 1.0, 1.0, 1.0, 1.0, 1.0, 1.0, 1.0, 1.0, 1.0, 1.0, 1.0, 1.0, 1.0, 0.69, 0.31, 1.0, 1.0]

>  <TempFactor>  (153) 
[53.57, 61.0, 41.59, 49.21, 23.74, 32.51, 19.1, 21.28, 7.6, 8.11, 8.4, 9.74, 8.05, 8.56, 8.33, 8.16, 7.98, 7.67, 8.77, 11.26, 12.79, 12.84, 16.26, 10.81, 9.75, 8.32, 9.11, 8.82, 8.1, 8.86, 9.21, 10.73, 9.43, 7.8, 6.74, 9.87, 8.87, 8.14, 7.89, 8.51, 19.72, 18.23, 7.31, 12.55]

>  <accession>  (153) 
3Q3Y_A

>  <description>  (153) 
Chain A, HEVB EV93 3C protease [Enterovirus B]

>  <evalue>  (153) 
1.1460600000000001e-87

>  <pdb_code>  (153) 
3Q3Y

>  <chain>  (153) 
A

>  <ligands>  (153) 
[{'chain_id': 'A', 'author_residue_number': 190, 'author_insertion_code': '', 'chem_comp_id': 'XNV', 'alternate_conformers': 2, 'entity_id': 2, 'struct_asym_id': 'C', 'residue_number': 1, 'chem_comp_name': 'ethyl (4R)-4-({(2S)-2-[3-{[(5-methyl-1,2-oxazol-3-yl)carbonyl]amino}-2-oxopyridin-1(2H)-yl]pent-4-ynoyl}amino)-5-[(3S)-2-oxopyrrolidin-3-yl]pentanoate', 'weight': 525.554, 'carbohydrate_polymer': False, 'branch_name': ''}, {'chain_id': 'B', 'author_residue_number': 190, 'author_insertion_code': '', 'chem_comp_id': 'XNV', 'alternate_conformers': 2, 'entity_id': 2, 'struct_asym_id': 'L', 'residue_number': 1, 'chem_comp_name': 'ethyl (4R)-4-({(2S)-2-[3-{[(5-methyl-1,2-oxazol-3-yl)carbonyl]amino}-2-oxopyridin-1(2H)-yl]pent-4-ynoyl}amino)-5-[(3S)-2-oxopyrrolidin-3-yl]pentanoate', 'weight': 525.554, 'carbohydrate_polymer': False, 'branch_name': ''}, {'chain_id': 'A', 'author_residue_number': 191, 'author_insertion_code': '', 'chem_comp_id': 'EDO', 'alternate_conformers': 2, 'entity_id': 3, 'struct_asym_id': 'D', 'residue_number': 1, 'chem_comp_name': '1,2-ETHANEDIOL', 'weight': 62.068, 'carbohydrate_polymer': False, 'branch_name': ''}, {'chain_id': 'A', 'author_residue_number': 192, 'author_insertion_code': '', 'chem_comp_id': 'EDO', 'alternate_conformers': 2, 'entity_id': 3, 'struct_asym_id': 'E', 'residue_number': 1, 'chem_comp_name': '1,2-ETHANEDIOL', 'weight': 62.068, 'carbohydrate_polymer': False, 'branch_name': ''}, {'chain_id': 'A', 'author_residue_number': 193, 'author_insertion_code': '', 'chem_comp_id': 'EDO', 'alternate_conformers': 0, 'entity_id': 3, 'struct_asym_id': 'F', 'residue_number': 1, 'chem_comp_name': '1,2-ETHANEDIOL', 'weight': 62.068, 'carbohydrate_polymer': False, 'branch_name': ''}, {'chain_id': 'A', 'author_residue_number': 194, 'author_insertion_code': '', 'chem_comp_id': 'EDO', 'alternate_conformers': 1, 'entity_id': 3, 'struct_asym_id': 'G', 'residue_number': 1, 'chem_comp_name': '1,2-ETHANEDIOL', 'weight': 62.068, 'carbohydrate_polymer': False, 'branch_name': ''}, {'chain_id': 'B', 'author_residue_number': 191, 'author_insertion_code': '', 'chem_comp_id': 'EDO', 'alternate_conformers': 2, 'entity_id': 3, 'struct_asym_id': 'M', 'residue_number': 1, 'chem_comp_name': '1,2-ETHANEDIOL', 'weight': 62.068, 'carbohydrate_polymer': False, 'branch_name': ''}, {'chain_id': 'B', 'author_residue_number': 192, 'author_insertion_code': '', 'chem_comp_id': 'EDO', 'alternate_conformers': 0, 'entity_id': 3, 'struct_asym_id': 'N', 'residue_number': 1, 'chem_comp_name': '1,2-ETHANEDIOL', 'weight': 62.068, 'carbohydrate_polymer': False, 'branch_name': ''}, {'chain_id': 'B', 'author_residue_number': 193, 'author_insertion_code': '', 'chem_comp_id': 'EDO', 'alternate_conformers': 2, 'entity_id': 3, 'struct_asym_id': 'O', 'residue_number': 1, 'chem_comp_name': '1,2-ETHANEDIOL', 'weight': 62.068, 'carbohydrate_polymer': False, 'branch_name': ''}, {'chain_id': 'B', 'author_residue_number': 194, 'author_insertion_code': '', 'chem_comp_id': 'EDO', 'alternate_conformers': 1, 'entity_id': 3, 'struct_asym_id': 'P', 'residue_number': 1, 'chem_comp_name': '1,2-ETHANEDIOL', 'weight': 62.068, 'carbohydrate_polymer': False, 'branch_name': ''}, {'chain_id': 'A', 'author_residue_number': 195, 'author_insertion_code': '', 'chem_comp_id': 'PI', 'alternate_conformers': 1, 'entity_id': 4, 'struct_asym_id': 'H', 'residue_number': 1, 'chem_comp_name': 'HYDROGENPHOSPHATE ION', 'weight': 95.979, 'carbohydrate_polymer': False, 'branch_name': ''}, {'chain_id': 'A', 'author_residue_number': 196, 'author_insertion_code': '', 'chem_comp_id': 'PI', 'alternate_conformers': 1, 'entity_id': 4, 'struct_asym_id': 'I', 'residue_number': 1, 'chem_comp_name': 'HYDROGENPHOSPHATE ION', 'weight': 95.979, 'carbohydrate_polymer': False, 'branch_name': ''}, {'chain_id': 'B', 'author_residue_number': 195, 'author_insertion_code': '', 'chem_comp_id': 'PI', 'alternate_conformers': 1, 'entity_id': 4, 'struct_asym_id': 'Q', 'residue_number': 1, 'chem_comp_name': 'HYDROGENPHOSPHATE ION', 'weight': 95.979, 'carbohydrate_polymer': False, 'branch_name': ''}, {'chain_id': 'A', 'author_residue_number': 197, 'author_insertion_code': '', 'chem_comp_id': 'NH4', 'alternate_conformers': 2, 'entity_id': 5, 'struct_asym_id': 'J', 'residue_number': 1, 'chem_comp_name': 'AMMONIUM ION', 'weight': 18.038, 'carbohydrate_polymer': False, 'branch_name': ''}, {'chain_id': 'A', 'author_residue_number': 198, 'author_insertion_code': '', 'chem_comp_id': 'NH4', 'alternate_conformers': 0, 'entity_id': 5, 'struct_asym_id': 'K', 'residue_number': 1, 'chem_comp_name': 'AMMONIUM ION', 'weight': 18.038, 'carbohydrate_polymer': False, 'branch_name': ''}]

>  <ligand_codes>  (153) 
['XNV', 'XNV', 'EDO', 'EDO', 'EDO', 'EDO', 'EDO', 'EDO', 'EDO', 'EDO', 'PI', 'PI', 'PI', 'NH4', 'NH4']

>  <cofactor_codes>  (153) 
[]

>  <has_cofactor>  (153) 
False

>  <covalent>  (153) 
True

>  <base_name>  (153) 
3Q3Y

>  <lig_resn>  (153) 
XNV

>  <lig_resi>  (153) 
190

>  <lig_chain>  (153) 
A

>  <lig_segi>  (153) 
C

>  <lig_alt>  (153) 


>  <polymer_chain>  (153) 
A

>  <single_smiles>  (153) 
CCOC(=O)CC[C@H](C[C@@H]1CCNC1=O)NC(=O)[C@H](CC#C)N2C=CC=C(NC(=O)c3cc(C)on3)C2=O

$$$$
XNVP5S28
     RDKit          3D

 22 21  0  0  0  0  0  0  0  0999 V2000
   -7.5070    9.7730  -32.2370 C   0  0  0  0  0  0  0  0  0  0  0  0
   -7.6700    9.8230  -33.7780 C   0  0  2  0  0  0  0  0  0  0  0  0
   -8.6960   10.7850  -34.1610 N   0  0  0  0  0  0  0  0  0  0  0  0
   -8.0140    8.4320  -34.3930 C   0  0  1  0  0  0  0  0  0  0  0  0
   -8.3660   11.9860  -34.7380 C   0  0  0  0  0  0  0  0  0  0  0  0
   -9.6590    8.0130  -33.9280 R   0  0  0  0  0  0  0  0  0  0  0  0
   -7.7310    8.3810  -35.9230 R   0  0  0  0  0  0  0  0  0  0  0  0
   -9.5440   12.8720  -35.1700 C   0  0  0  0  0  0  0  0  0  0  0  0
   -7.2170   12.3540  -34.9210 O   0  0  0  0  0  0  0  0  0  0  0  0
   -6.2830    8.2890  -36.3860 C   0  0  1  0  0  0  0  0  0  0  0  0
   -6.2390    8.3590  -36.3130 C   0  0  2  0  0  0  0  0  0  0  0  0
   -9.9610   12.5320  -36.6040 C   0  0  0  0  0  0  0  0  0  0  0  0
   -5.9620    9.3890  -37.1520 O   0  0  0  0  0  0  0  0  0  0  0  0
   -5.3980    7.7430  -35.7710 O   0  0  0  0  0  0  0  0  0  0  0  0
   -5.9500    7.3430  -37.2070 O   0  0  0  0  0  0  0  0  0  0  0  0
   -5.3090    8.7040  -35.6100 O   0  0  0  0  0  0  0  0  0  0  0  0
  -11.1420   13.3100  -36.9200 C   0  0  0  0  0  0  0  0  0  0  0  0
   -4.5680    9.6340  -37.4070 C   0  0  0  0  0  0  0  0  0  0  0  0
   -6.9670    6.7070  -37.9880 C   0  0  0  0  0  0  0  0  0  0  0  0
  -12.1000   13.9360  -37.1800 C   0  0  0  0  0  0  0  0  0  0  0  0
   -4.2700   11.1150  -37.7120 C   0  0  0  0  0  0  0  0  0  0  0  0
   -6.4370    5.4350  -38.6720 C   0  0  0  0  0  0  0  0  0  0  0  0
  2  1  1  1
  2  3  1  0
  4  2  1  0
  3  5  1  0
  4  6  1  6
  4  7  1  0
  5  8  1  0
  5  9  1  0
 10  7  1  0
 11  7  1  0
  8 12  1  6
 13 10  1  0
 10 14  1  1
 15 11  1  0
 11 16  1  1
 12 17  1  0
 18 13  1  0
 19 15  1  0
 17 20  1  0
 21 18  1  0
 22 19  1  0
V    6 *
V    7 *
A    2
 C07
A    3
 N08
A    4
 C06
A    5
 C09
A    6
 X  
A    7
 X  
A    9
 O30
A   10
 C04
A   11
 C04
A   12
 C27
A   13
 O03
A   14
 O38
A   15
 O03
A   16
 O38
A   17
 C28
A   18
 C02
A   19
 C02
A   20
 C29
A   21
 C01
A   22
 C01
M  END
>  <XChem_code>  (154) 
XNV§5

>  <Occupancy>  (154) 
[0.69, 0.31, 0.69, 0.31, 0.69, 0.31, 0.69, 0.31, 1.0, 1.0, 1.0, 1.0, 1.0, 1.0, 1.0, 1.0, 1.0, 1.0, 1.0, 1.0, 1.0, 1.0, 1.0, 1.0, 1.0, 1.0, 1.0, 1.0, 1.0, 1.0, 1.0, 1.0, 1.0, 1.0, 1.0, 1.0, 1.0, 1.0, 1.0, 1.0, 0.69, 0.31, 1.0, 1.0]

>  <TempFactor>  (154) 
[53.57, 61.0, 41.59, 49.21, 23.74, 32.51, 19.1, 21.28, 7.6, 8.11, 8.4, 9.74, 8.05, 8.56, 8.33, 8.16, 7.98, 7.67, 8.77, 11.26, 12.79, 12.84, 16.26, 10.81, 9.75, 8.32, 9.11, 8.82, 8.1, 8.86, 9.21, 10.73, 9.43, 7.8, 6.74, 9.87, 8.87, 8.14, 7.89, 8.51, 19.72, 18.23, 7.31, 12.55]

>  <accession>  (154) 
3Q3Y_A

>  <description>  (154) 
Chain A, HEVB EV93 3C protease [Enterovirus B]

>  <evalue>  (154) 
1.1460600000000001e-87

>  <pdb_code>  (154) 
3Q3Y

>  <chain>  (154) 
A

>  <ligands>  (154) 
[{'chain_id': 'A', 'author_residue_number': 190, 'author_insertion_code': '', 'chem_comp_id': 'XNV', 'alternate_conformers': 2, 'entity_id': 2, 'struct_asym_id': 'C', 'residue_number': 1, 'chem_comp_name': 'ethyl (4R)-4-({(2S)-2-[3-{[(5-methyl-1,2-oxazol-3-yl)carbonyl]amino}-2-oxopyridin-1(2H)-yl]pent-4-ynoyl}amino)-5-[(3S)-2-oxopyrrolidin-3-yl]pentanoate', 'weight': 525.554, 'carbohydrate_polymer': False, 'branch_name': ''}, {'chain_id': 'B', 'author_residue_number': 190, 'author_insertion_code': '', 'chem_comp_id': 'XNV', 'alternate_conformers': 2, 'entity_id': 2, 'struct_asym_id': 'L', 'residue_number': 1, 'chem_comp_name': 'ethyl (4R)-4-({(2S)-2-[3-{[(5-methyl-1,2-oxazol-3-yl)carbonyl]amino}-2-oxopyridin-1(2H)-yl]pent-4-ynoyl}amino)-5-[(3S)-2-oxopyrrolidin-3-yl]pentanoate', 'weight': 525.554, 'carbohydrate_polymer': False, 'branch_name': ''}, {'chain_id': 'A', 'author_residue_number': 191, 'author_insertion_code': '', 'chem_comp_id': 'EDO', 'alternate_conformers': 2, 'entity_id': 3, 'struct_asym_id': 'D', 'residue_number': 1, 'chem_comp_name': '1,2-ETHANEDIOL', 'weight': 62.068, 'carbohydrate_polymer': False, 'branch_name': ''}, {'chain_id': 'A', 'author_residue_number': 192, 'author_insertion_code': '', 'chem_comp_id': 'EDO', 'alternate_conformers': 2, 'entity_id': 3, 'struct_asym_id': 'E', 'residue_number': 1, 'chem_comp_name': '1,2-ETHANEDIOL', 'weight': 62.068, 'carbohydrate_polymer': False, 'branch_name': ''}, {'chain_id': 'A', 'author_residue_number': 193, 'author_insertion_code': '', 'chem_comp_id': 'EDO', 'alternate_conformers': 0, 'entity_id': 3, 'struct_asym_id': 'F', 'residue_number': 1, 'chem_comp_name': '1,2-ETHANEDIOL', 'weight': 62.068, 'carbohydrate_polymer': False, 'branch_name': ''}, {'chain_id': 'A', 'author_residue_number': 194, 'author_insertion_code': '', 'chem_comp_id': 'EDO', 'alternate_conformers': 1, 'entity_id': 3, 'struct_asym_id': 'G', 'residue_number': 1, 'chem_comp_name': '1,2-ETHANEDIOL', 'weight': 62.068, 'carbohydrate_polymer': False, 'branch_name': ''}, {'chain_id': 'B', 'author_residue_number': 191, 'author_insertion_code': '', 'chem_comp_id': 'EDO', 'alternate_conformers': 2, 'entity_id': 3, 'struct_asym_id': 'M', 'residue_number': 1, 'chem_comp_name': '1,2-ETHANEDIOL', 'weight': 62.068, 'carbohydrate_polymer': False, 'branch_name': ''}, {'chain_id': 'B', 'author_residue_number': 192, 'author_insertion_code': '', 'chem_comp_id': 'EDO', 'alternate_conformers': 0, 'entity_id': 3, 'struct_asym_id': 'N', 'residue_number': 1, 'chem_comp_name': '1,2-ETHANEDIOL', 'weight': 62.068, 'carbohydrate_polymer': False, 'branch_name': ''}, {'chain_id': 'B', 'author_residue_number': 193, 'author_insertion_code': '', 'chem_comp_id': 'EDO', 'alternate_conformers': 2, 'entity_id': 3, 'struct_asym_id': 'O', 'residue_number': 1, 'chem_comp_name': '1,2-ETHANEDIOL', 'weight': 62.068, 'carbohydrate_polymer': False, 'branch_name': ''}, {'chain_id': 'B', 'author_residue_number': 194, 'author_insertion_code': '', 'chem_comp_id': 'EDO', 'alternate_conformers': 1, 'entity_id': 3, 'struct_asym_id': 'P', 'residue_number': 1, 'chem_comp_name': '1,2-ETHANEDIOL', 'weight': 62.068, 'carbohydrate_polymer': False, 'branch_name': ''}, {'chain_id': 'A', 'author_residue_number': 195, 'author_insertion_code': '', 'chem_comp_id': 'PI', 'alternate_conformers': 1, 'entity_id': 4, 'struct_asym_id': 'H', 'residue_number': 1, 'chem_comp_name': 'HYDROGENPHOSPHATE ION', 'weight': 95.979, 'carbohydrate_polymer': False, 'branch_name': ''}, {'chain_id': 'A', 'author_residue_number': 196, 'author_insertion_code': '', 'chem_comp_id': 'PI', 'alternate_conformers': 1, 'entity_id': 4, 'struct_asym_id': 'I', 'residue_number': 1, 'chem_comp_name': 'HYDROGENPHOSPHATE ION', 'weight': 95.979, 'carbohydrate_polymer': False, 'branch_name': ''}, {'chain_id': 'B', 'author_residue_number': 195, 'author_insertion_code': '', 'chem_comp_id': 'PI', 'alternate_conformers': 1, 'entity_id': 4, 'struct_asym_id': 'Q', 'residue_number': 1, 'chem_comp_name': 'HYDROGENPHOSPHATE ION', 'weight': 95.979, 'carbohydrate_polymer': False, 'branch_name': ''}, {'chain_id': 'A', 'author_residue_number': 197, 'author_insertion_code': '', 'chem_comp_id': 'NH4', 'alternate_conformers': 2, 'entity_id': 5, 'struct_asym_id': 'J', 'residue_number': 1, 'chem_comp_name': 'AMMONIUM ION', 'weight': 18.038, 'carbohydrate_polymer': False, 'branch_name': ''}, {'chain_id': 'A', 'author_residue_number': 198, 'author_insertion_code': '', 'chem_comp_id': 'NH4', 'alternate_conformers': 0, 'entity_id': 5, 'struct_asym_id': 'K', 'residue_number': 1, 'chem_comp_name': 'AMMONIUM ION', 'weight': 18.038, 'carbohydrate_polymer': False, 'branch_name': ''}]

>  <ligand_codes>  (154) 
['XNV', 'XNV', 'EDO', 'EDO', 'EDO', 'EDO', 'EDO', 'EDO', 'EDO', 'EDO', 'PI', 'PI', 'PI', 'NH4', 'NH4']

>  <cofactor_codes>  (154) 
[]

>  <has_cofactor>  (154) 
False

>  <covalent>  (154) 
True

>  <base_name>  (154) 
3Q3Y

>  <lig_resn>  (154) 
XNV

>  <lig_resi>  (154) 
190

>  <lig_chain>  (154) 
A

>  <lig_segi>  (154) 
C

>  <lig_alt>  (154) 


>  <polymer_chain>  (154) 
A

>  <single_smiles>  (154) 
CCOC(=O)CC[C@H](C[C@@H]1CCNC1=O)NC(=O)[C@H](CC#C)N2C=CC=C(NC(=O)c3cc(C)on3)C2=O

$$$$
XNVP5S29
     RDKit          3D

 30 30  0  0  0  0  0  0  0  0999 V2000
   -7.5070    9.7730  -32.2370 C   0  0  0  0  0  0  0  0  0  0  0  0
   -7.6700    9.8230  -33.7780 C   0  0  2  0  0  0  0  0  0  0  0  0
   -8.6960   10.7850  -34.1610 N   0  0  0  0  0  0  0  0  0  0  0  0
   -8.0140    8.4320  -34.3930 C   0  0  1  0  0  0  0  0  0  0  0  0
   -8.3660   11.9860  -34.7380 C   0  0  0  0  0  0  0  0  0  0  0  0
   -9.6590    8.0130  -33.9280 R   0  0  0  0  0  0  0  0  0  0  0  0
   -7.7310    8.3810  -35.9230 R   0  0  0  0  0  0  0  0  0  0  0  0
   -9.5440   12.8720  -35.1700 C   0  0  1  0  0  0  0  0  0  0  0  0
   -7.2170   12.3540  -34.9210 O   0  0  0  0  0  0  0  0  0  0  0  0
   -6.2830    8.2890  -36.3860 C   0  0  1  0  0  0  0  0  0  0  0  0
   -6.2390    8.3590  -36.3130 C   0  0  2  0  0  0  0  0  0  0  0  0
   -9.2290   14.2940  -34.9840 N   0  0  0  0  0  0  0  0  0  0  0  0
   -9.9610   12.5320  -36.6040 C   0  0  0  0  0  0  0  0  0  0  0  0
   -5.9620    9.3890  -37.1520 O   0  0  0  0  0  0  0  0  0  0  0  0
   -5.3980    7.7430  -35.7710 O   0  0  0  0  0  0  0  0  0  0  0  0
   -5.9500    7.3430  -37.2070 O   0  0  0  0  0  0  0  0  0  0  0  0
   -5.3090    8.7040  -35.6100 O   0  0  0  0  0  0  0  0  0  0  0  0
   -9.2700   14.7400  -33.6260 C   0  0  0  0  0  0  0  0  0  0  0  0
   -8.8880   15.1740  -35.9880 C   0  0  0  0  0  0  0  0  0  0  0  0
  -11.1420   13.3100  -36.9200 C   0  0  0  0  0  0  0  0  0  0  0  0
   -4.5680    9.6340  -37.4070 C   0  0  0  0  0  0  0  0  0  0  0  0
   -6.9670    6.7070  -37.9880 C   0  0  0  0  0  0  0  0  0  0  0  0
   -9.0490   16.1590  -33.3600 C   0  0  0  0  0  0  0  0  0  0  0  0
   -9.5210   13.9120  -32.7390 O   0  0  0  0  0  0  0  0  0  0  0  0
   -8.6520   16.4840  -35.7260 C   0  0  0  0  0  0  0  0  0  0  0  0
  -12.1000   13.9360  -37.1800 C   0  0  0  0  0  0  0  0  0  0  0  0
   -4.2700   11.1150  -37.7120 C   0  0  0  0  0  0  0  0  0  0  0  0
   -6.4370    5.4350  -38.6720 C   0  0  0  0  0  0  0  0  0  0  0  0
   -9.2490   16.5750  -32.0350 N   0  0  0  0  0  0  0  0  0  0  0  0
   -8.7180   16.9980  -34.4080 C   0  0  0  0  0  0  0  0  0  0  0  0
  2  1  1  1
  2  3  1  0
  4  2  1  0
  3  5  1  0
  4  6  1  6
  4  7  1  0
  5  8  1  0
  5  9  1  0
 10  7  1  0
 11  7  1  0
  8 12  1  0
  8 13  1  6
 14 10  1  0
 10 15  1  1
 16 11  1  0
 11 17  1  1
 12 18  1  0
 12 19  1  0
 13 20  1  0
 21 14  1  0
 22 16  1  0
 18 23  1  0
 18 24  1  0
 25 19  1  0
 20 26  1  0
 27 21  1  0
 28 22  1  0
 23 29  1  0
 23 30  1  0
 30 25  1  0
V    6 *
V    7 *
A    2
 C07
A    3
 N08
A    4
 C06
A    5
 C09
A    6
 X  
A    7
 X  
A    8
 C10
A    9
 O30
A   10
 C04
A   11
 C04
A   12
 N11
A   13
 C27
A   14
 O03
A   15
 O38
A   16
 O03
A   17
 O38
A   18
 C12
A   19
 C25
A   20
 C28
A   21
 C02
A   22
 C02
A   23
 C13
A   24
 O26
A   25
 C24
A   26
 C29
A   27
 C01
A   28
 C01
A   30
 C23
M  END
>  <XChem_code>  (155) 
XNV§5

>  <Occupancy>  (155) 
[0.69, 0.31, 0.69, 0.31, 0.69, 0.31, 0.69, 0.31, 1.0, 1.0, 1.0, 1.0, 1.0, 1.0, 1.0, 1.0, 1.0, 1.0, 1.0, 1.0, 1.0, 1.0, 1.0, 1.0, 1.0, 1.0, 1.0, 1.0, 1.0, 1.0, 1.0, 1.0, 1.0, 1.0, 1.0, 1.0, 1.0, 1.0, 1.0, 1.0, 0.69, 0.31, 1.0, 1.0]

>  <TempFactor>  (155) 
[53.57, 61.0, 41.59, 49.21, 23.74, 32.51, 19.1, 21.28, 7.6, 8.11, 8.4, 9.74, 8.05, 8.56, 8.33, 8.16, 7.98, 7.67, 8.77, 11.26, 12.79, 12.84, 16.26, 10.81, 9.75, 8.32, 9.11, 8.82, 8.1, 8.86, 9.21, 10.73, 9.43, 7.8, 6.74, 9.87, 8.87, 8.14, 7.89, 8.51, 19.72, 18.23, 7.31, 12.55]

>  <accession>  (155) 
3Q3Y_A

>  <description>  (155) 
Chain A, HEVB EV93 3C protease [Enterovirus B]

>  <evalue>  (155) 
1.1460600000000001e-87

>  <pdb_code>  (155) 
3Q3Y

>  <chain>  (155) 
A

>  <ligands>  (155) 
[{'chain_id': 'A', 'author_residue_number': 190, 'author_insertion_code': '', 'chem_comp_id': 'XNV', 'alternate_conformers': 2, 'entity_id': 2, 'struct_asym_id': 'C', 'residue_number': 1, 'chem_comp_name': 'ethyl (4R)-4-({(2S)-2-[3-{[(5-methyl-1,2-oxazol-3-yl)carbonyl]amino}-2-oxopyridin-1(2H)-yl]pent-4-ynoyl}amino)-5-[(3S)-2-oxopyrrolidin-3-yl]pentanoate', 'weight': 525.554, 'carbohydrate_polymer': False, 'branch_name': ''}, {'chain_id': 'B', 'author_residue_number': 190, 'author_insertion_code': '', 'chem_comp_id': 'XNV', 'alternate_conformers': 2, 'entity_id': 2, 'struct_asym_id': 'L', 'residue_number': 1, 'chem_comp_name': 'ethyl (4R)-4-({(2S)-2-[3-{[(5-methyl-1,2-oxazol-3-yl)carbonyl]amino}-2-oxopyridin-1(2H)-yl]pent-4-ynoyl}amino)-5-[(3S)-2-oxopyrrolidin-3-yl]pentanoate', 'weight': 525.554, 'carbohydrate_polymer': False, 'branch_name': ''}, {'chain_id': 'A', 'author_residue_number': 191, 'author_insertion_code': '', 'chem_comp_id': 'EDO', 'alternate_conformers': 2, 'entity_id': 3, 'struct_asym_id': 'D', 'residue_number': 1, 'chem_comp_name': '1,2-ETHANEDIOL', 'weight': 62.068, 'carbohydrate_polymer': False, 'branch_name': ''}, {'chain_id': 'A', 'author_residue_number': 192, 'author_insertion_code': '', 'chem_comp_id': 'EDO', 'alternate_conformers': 2, 'entity_id': 3, 'struct_asym_id': 'E', 'residue_number': 1, 'chem_comp_name': '1,2-ETHANEDIOL', 'weight': 62.068, 'carbohydrate_polymer': False, 'branch_name': ''}, {'chain_id': 'A', 'author_residue_number': 193, 'author_insertion_code': '', 'chem_comp_id': 'EDO', 'alternate_conformers': 0, 'entity_id': 3, 'struct_asym_id': 'F', 'residue_number': 1, 'chem_comp_name': '1,2-ETHANEDIOL', 'weight': 62.068, 'carbohydrate_polymer': False, 'branch_name': ''}, {'chain_id': 'A', 'author_residue_number': 194, 'author_insertion_code': '', 'chem_comp_id': 'EDO', 'alternate_conformers': 1, 'entity_id': 3, 'struct_asym_id': 'G', 'residue_number': 1, 'chem_comp_name': '1,2-ETHANEDIOL', 'weight': 62.068, 'carbohydrate_polymer': False, 'branch_name': ''}, {'chain_id': 'B', 'author_residue_number': 191, 'author_insertion_code': '', 'chem_comp_id': 'EDO', 'alternate_conformers': 2, 'entity_id': 3, 'struct_asym_id': 'M', 'residue_number': 1, 'chem_comp_name': '1,2-ETHANEDIOL', 'weight': 62.068, 'carbohydrate_polymer': False, 'branch_name': ''}, {'chain_id': 'B', 'author_residue_number': 192, 'author_insertion_code': '', 'chem_comp_id': 'EDO', 'alternate_conformers': 0, 'entity_id': 3, 'struct_asym_id': 'N', 'residue_number': 1, 'chem_comp_name': '1,2-ETHANEDIOL', 'weight': 62.068, 'carbohydrate_polymer': False, 'branch_name': ''}, {'chain_id': 'B', 'author_residue_number': 193, 'author_insertion_code': '', 'chem_comp_id': 'EDO', 'alternate_conformers': 2, 'entity_id': 3, 'struct_asym_id': 'O', 'residue_number': 1, 'chem_comp_name': '1,2-ETHANEDIOL', 'weight': 62.068, 'carbohydrate_polymer': False, 'branch_name': ''}, {'chain_id': 'B', 'author_residue_number': 194, 'author_insertion_code': '', 'chem_comp_id': 'EDO', 'alternate_conformers': 1, 'entity_id': 3, 'struct_asym_id': 'P', 'residue_number': 1, 'chem_comp_name': '1,2-ETHANEDIOL', 'weight': 62.068, 'carbohydrate_polymer': False, 'branch_name': ''}, {'chain_id': 'A', 'author_residue_number': 195, 'author_insertion_code': '', 'chem_comp_id': 'PI', 'alternate_conformers': 1, 'entity_id': 4, 'struct_asym_id': 'H', 'residue_number': 1, 'chem_comp_name': 'HYDROGENPHOSPHATE ION', 'weight': 95.979, 'carbohydrate_polymer': False, 'branch_name': ''}, {'chain_id': 'A', 'author_residue_number': 196, 'author_insertion_code': '', 'chem_comp_id': 'PI', 'alternate_conformers': 1, 'entity_id': 4, 'struct_asym_id': 'I', 'residue_number': 1, 'chem_comp_name': 'HYDROGENPHOSPHATE ION', 'weight': 95.979, 'carbohydrate_polymer': False, 'branch_name': ''}, {'chain_id': 'B', 'author_residue_number': 195, 'author_insertion_code': '', 'chem_comp_id': 'PI', 'alternate_conformers': 1, 'entity_id': 4, 'struct_asym_id': 'Q', 'residue_number': 1, 'chem_comp_name': 'HYDROGENPHOSPHATE ION', 'weight': 95.979, 'carbohydrate_polymer': False, 'branch_name': ''}, {'chain_id': 'A', 'author_residue_number': 197, 'author_insertion_code': '', 'chem_comp_id': 'NH4', 'alternate_conformers': 2, 'entity_id': 5, 'struct_asym_id': 'J', 'residue_number': 1, 'chem_comp_name': 'AMMONIUM ION', 'weight': 18.038, 'carbohydrate_polymer': False, 'branch_name': ''}, {'chain_id': 'A', 'author_residue_number': 198, 'author_insertion_code': '', 'chem_comp_id': 'NH4', 'alternate_conformers': 0, 'entity_id': 5, 'struct_asym_id': 'K', 'residue_number': 1, 'chem_comp_name': 'AMMONIUM ION', 'weight': 18.038, 'carbohydrate_polymer': False, 'branch_name': ''}]

>  <ligand_codes>  (155) 
['XNV', 'XNV', 'EDO', 'EDO', 'EDO', 'EDO', 'EDO', 'EDO', 'EDO', 'EDO', 'PI', 'PI', 'PI', 'NH4', 'NH4']

>  <cofactor_codes>  (155) 
[]

>  <has_cofactor>  (155) 
False

>  <covalent>  (155) 
True

>  <base_name>  (155) 
3Q3Y

>  <lig_resn>  (155) 
XNV

>  <lig_resi>  (155) 
190

>  <lig_chain>  (155) 
A

>  <lig_segi>  (155) 
C

>  <lig_alt>  (155) 


>  <polymer_chain>  (155) 
A

>  <single_smiles>  (155) 
CCOC(=O)CC[C@H](C[C@@H]1CCNC1=O)NC(=O)[C@H](CC#C)N2C=CC=C(NC(=O)c3cc(C)on3)C2=O

$$$$
XNVP5S30
     RDKit          3D

 29 29  0  0  0  0  0  0  0  0999 V2000
   -7.5070    9.7730  -32.2370 C   0  0  0  0  0  0  0  0  0  0  0  0
   -7.6700    9.8230  -33.7780 C   0  0  2  0  0  0  0  0  0  0  0  0
   -8.6960   10.7850  -34.1610 N   0  0  0  0  0  0  0  0  0  0  0  0
   -8.0140    8.4320  -34.3930 C   0  0  1  0  0  0  0  0  0  0  0  0
   -8.3660   11.9860  -34.7380 C   0  0  0  0  0  0  0  0  0  0  0  0
   -9.6590    8.0130  -33.9280 R   0  0  0  0  0  0  0  0  0  0  0  0
   -7.7310    8.3810  -35.9230 R   0  0  0  0  0  0  0  0  0  0  0  0
   -9.5440   12.8720  -35.1700 C   0  0  1  0  0  0  0  0  0  0  0  0
   -7.2170   12.3540  -34.9210 O   0  0  0  0  0  0  0  0  0  0  0  0
   -6.2830    8.2890  -36.3860 C   0  0  1  0  0  0  0  0  0  0  0  0
   -6.2390    8.3590  -36.3130 C   0  0  2  0  0  0  0  0  0  0  0  0
   -9.2290   14.2940  -34.9840 N   0  0  0  0  0  0  0  0  0  0  0  0
   -9.9610   12.5320  -36.6040 C   0  0  0  0  0  0  0  0  0  0  0  0
   -5.9620    9.3890  -37.1520 O   0  0  0  0  0  0  0  0  0  0  0  0
   -5.3980    7.7430  -35.7710 O   0  0  0  0  0  0  0  0  0  0  0  0
   -5.9500    7.3430  -37.2070 O   0  0  0  0  0  0  0  0  0  0  0  0
   -5.3090    8.7040  -35.6100 O   0  0  0  0  0  0  0  0  0  0  0  0
   -9.2700   14.7400  -33.6260 C   0  0  0  0  0  0  0  0  0  0  0  0
   -8.8880   15.1740  -35.9880 C   0  0  0  0  0  0  0  0  0  0  0  0
  -11.1420   13.3100  -36.9200 C   0  0  0  0  0  0  0  0  0  0  0  0
   -4.5680    9.6340  -37.4070 C   0  0  0  0  0  0  0  0  0  0  0  0
   -6.9670    6.7070  -37.9880 C   0  0  0  0  0  0  0  0  0  0  0  0
   -9.0490   16.1590  -33.3600 C   0  0  0  0  0  0  0  0  0  0  0  0
   -9.5210   13.9120  -32.7390 O   0  0  0  0  0  0  0  0  0  0  0  0
   -8.6520   16.4840  -35.7260 C   0  0  0  0  0  0  0  0  0  0  0  0
  -12.1000   13.9360  -37.1800 C   0  0  0  0  0  0  0  0  0  0  0  0
   -4.2700   11.1150  -37.7120 C   0  0  0  0  0  0  0  0  0  0  0  0
   -6.4370    5.4350  -38.6720 C   0  0  0  0  0  0  0  0  0  0  0  0
   -8.7180   16.9980  -34.4080 C   0  0  0  0  0  0  0  0  0  0  0  0
  2  1  1  1
  2  3  1  0
  4  2  1  0
  3  5  1  0
  4  6  1  6
  4  7  1  0
  5  8  1  0
  5  9  1  0
 10  7  1  0
 11  7  1  0
  8 12  1  0
  8 13  1  6
 14 10  1  0
 10 15  1  1
 16 11  1  0
 11 17  1  1
 12 18  1  0
 12 19  1  0
 13 20  1  0
 21 14  1  0
 22 16  1  0
 18 23  1  0
 18 24  1  0
 25 19  1  0
 20 26  1  0
 27 21  1  0
 28 22  1  0
 23 29  1  0
 29 25  1  0
V    6 *
V    7 *
A    2
 C07
A    3
 N08
A    4
 C06
A    5
 C09
A    6
 X  
A    7
 X  
A    8
 C10
A    9
 O30
A   10
 C04
A   11
 C04
A   12
 N11
A   13
 C27
A   14
 O03
A   15
 O38
A   16
 O03
A   17
 O38
A   18
 C12
A   19
 C25
A   20
 C28
A   21
 C02
A   22
 C02
A   24
 O26
A   25
 C24
A   26
 C29
A   27
 C01
A   28
 C01
A   29
 C23
M  END
>  <XChem_code>  (156) 
XNV§5

>  <Occupancy>  (156) 
[0.69, 0.31, 0.69, 0.31, 0.69, 0.31, 0.69, 0.31, 1.0, 1.0, 1.0, 1.0, 1.0, 1.0, 1.0, 1.0, 1.0, 1.0, 1.0, 1.0, 1.0, 1.0, 1.0, 1.0, 1.0, 1.0, 1.0, 1.0, 1.0, 1.0, 1.0, 1.0, 1.0, 1.0, 1.0, 1.0, 1.0, 1.0, 1.0, 1.0, 0.69, 0.31, 1.0, 1.0]

>  <TempFactor>  (156) 
[53.57, 61.0, 41.59, 49.21, 23.74, 32.51, 19.1, 21.28, 7.6, 8.11, 8.4, 9.74, 8.05, 8.56, 8.33, 8.16, 7.98, 7.67, 8.77, 11.26, 12.79, 12.84, 16.26, 10.81, 9.75, 8.32, 9.11, 8.82, 8.1, 8.86, 9.21, 10.73, 9.43, 7.8, 6.74, 9.87, 8.87, 8.14, 7.89, 8.51, 19.72, 18.23, 7.31, 12.55]

>  <accession>  (156) 
3Q3Y_A

>  <description>  (156) 
Chain A, HEVB EV93 3C protease [Enterovirus B]

>  <evalue>  (156) 
1.1460600000000001e-87

>  <pdb_code>  (156) 
3Q3Y

>  <chain>  (156) 
A

>  <ligands>  (156) 
[{'chain_id': 'A', 'author_residue_number': 190, 'author_insertion_code': '', 'chem_comp_id': 'XNV', 'alternate_conformers': 2, 'entity_id': 2, 'struct_asym_id': 'C', 'residue_number': 1, 'chem_comp_name': 'ethyl (4R)-4-({(2S)-2-[3-{[(5-methyl-1,2-oxazol-3-yl)carbonyl]amino}-2-oxopyridin-1(2H)-yl]pent-4-ynoyl}amino)-5-[(3S)-2-oxopyrrolidin-3-yl]pentanoate', 'weight': 525.554, 'carbohydrate_polymer': False, 'branch_name': ''}, {'chain_id': 'B', 'author_residue_number': 190, 'author_insertion_code': '', 'chem_comp_id': 'XNV', 'alternate_conformers': 2, 'entity_id': 2, 'struct_asym_id': 'L', 'residue_number': 1, 'chem_comp_name': 'ethyl (4R)-4-({(2S)-2-[3-{[(5-methyl-1,2-oxazol-3-yl)carbonyl]amino}-2-oxopyridin-1(2H)-yl]pent-4-ynoyl}amino)-5-[(3S)-2-oxopyrrolidin-3-yl]pentanoate', 'weight': 525.554, 'carbohydrate_polymer': False, 'branch_name': ''}, {'chain_id': 'A', 'author_residue_number': 191, 'author_insertion_code': '', 'chem_comp_id': 'EDO', 'alternate_conformers': 2, 'entity_id': 3, 'struct_asym_id': 'D', 'residue_number': 1, 'chem_comp_name': '1,2-ETHANEDIOL', 'weight': 62.068, 'carbohydrate_polymer': False, 'branch_name': ''}, {'chain_id': 'A', 'author_residue_number': 192, 'author_insertion_code': '', 'chem_comp_id': 'EDO', 'alternate_conformers': 2, 'entity_id': 3, 'struct_asym_id': 'E', 'residue_number': 1, 'chem_comp_name': '1,2-ETHANEDIOL', 'weight': 62.068, 'carbohydrate_polymer': False, 'branch_name': ''}, {'chain_id': 'A', 'author_residue_number': 193, 'author_insertion_code': '', 'chem_comp_id': 'EDO', 'alternate_conformers': 0, 'entity_id': 3, 'struct_asym_id': 'F', 'residue_number': 1, 'chem_comp_name': '1,2-ETHANEDIOL', 'weight': 62.068, 'carbohydrate_polymer': False, 'branch_name': ''}, {'chain_id': 'A', 'author_residue_number': 194, 'author_insertion_code': '', 'chem_comp_id': 'EDO', 'alternate_conformers': 1, 'entity_id': 3, 'struct_asym_id': 'G', 'residue_number': 1, 'chem_comp_name': '1,2-ETHANEDIOL', 'weight': 62.068, 'carbohydrate_polymer': False, 'branch_name': ''}, {'chain_id': 'B', 'author_residue_number': 191, 'author_insertion_code': '', 'chem_comp_id': 'EDO', 'alternate_conformers': 2, 'entity_id': 3, 'struct_asym_id': 'M', 'residue_number': 1, 'chem_comp_name': '1,2-ETHANEDIOL', 'weight': 62.068, 'carbohydrate_polymer': False, 'branch_name': ''}, {'chain_id': 'B', 'author_residue_number': 192, 'author_insertion_code': '', 'chem_comp_id': 'EDO', 'alternate_conformers': 0, 'entity_id': 3, 'struct_asym_id': 'N', 'residue_number': 1, 'chem_comp_name': '1,2-ETHANEDIOL', 'weight': 62.068, 'carbohydrate_polymer': False, 'branch_name': ''}, {'chain_id': 'B', 'author_residue_number': 193, 'author_insertion_code': '', 'chem_comp_id': 'EDO', 'alternate_conformers': 2, 'entity_id': 3, 'struct_asym_id': 'O', 'residue_number': 1, 'chem_comp_name': '1,2-ETHANEDIOL', 'weight': 62.068, 'carbohydrate_polymer': False, 'branch_name': ''}, {'chain_id': 'B', 'author_residue_number': 194, 'author_insertion_code': '', 'chem_comp_id': 'EDO', 'alternate_conformers': 1, 'entity_id': 3, 'struct_asym_id': 'P', 'residue_number': 1, 'chem_comp_name': '1,2-ETHANEDIOL', 'weight': 62.068, 'carbohydrate_polymer': False, 'branch_name': ''}, {'chain_id': 'A', 'author_residue_number': 195, 'author_insertion_code': '', 'chem_comp_id': 'PI', 'alternate_conformers': 1, 'entity_id': 4, 'struct_asym_id': 'H', 'residue_number': 1, 'chem_comp_name': 'HYDROGENPHOSPHATE ION', 'weight': 95.979, 'carbohydrate_polymer': False, 'branch_name': ''}, {'chain_id': 'A', 'author_residue_number': 196, 'author_insertion_code': '', 'chem_comp_id': 'PI', 'alternate_conformers': 1, 'entity_id': 4, 'struct_asym_id': 'I', 'residue_number': 1, 'chem_comp_name': 'HYDROGENPHOSPHATE ION', 'weight': 95.979, 'carbohydrate_polymer': False, 'branch_name': ''}, {'chain_id': 'B', 'author_residue_number': 195, 'author_insertion_code': '', 'chem_comp_id': 'PI', 'alternate_conformers': 1, 'entity_id': 4, 'struct_asym_id': 'Q', 'residue_number': 1, 'chem_comp_name': 'HYDROGENPHOSPHATE ION', 'weight': 95.979, 'carbohydrate_polymer': False, 'branch_name': ''}, {'chain_id': 'A', 'author_residue_number': 197, 'author_insertion_code': '', 'chem_comp_id': 'NH4', 'alternate_conformers': 2, 'entity_id': 5, 'struct_asym_id': 'J', 'residue_number': 1, 'chem_comp_name': 'AMMONIUM ION', 'weight': 18.038, 'carbohydrate_polymer': False, 'branch_name': ''}, {'chain_id': 'A', 'author_residue_number': 198, 'author_insertion_code': '', 'chem_comp_id': 'NH4', 'alternate_conformers': 0, 'entity_id': 5, 'struct_asym_id': 'K', 'residue_number': 1, 'chem_comp_name': 'AMMONIUM ION', 'weight': 18.038, 'carbohydrate_polymer': False, 'branch_name': ''}]

>  <ligand_codes>  (156) 
['XNV', 'XNV', 'EDO', 'EDO', 'EDO', 'EDO', 'EDO', 'EDO', 'EDO', 'EDO', 'PI', 'PI', 'PI', 'NH4', 'NH4']

>  <cofactor_codes>  (156) 
[]

>  <has_cofactor>  (156) 
False

>  <covalent>  (156) 
True

>  <base_name>  (156) 
3Q3Y

>  <lig_resn>  (156) 
XNV

>  <lig_resi>  (156) 
190

>  <lig_chain>  (156) 
A

>  <lig_segi>  (156) 
C

>  <lig_alt>  (156) 


>  <polymer_chain>  (156) 
A

>  <single_smiles>  (156) 
CCOC(=O)CC[C@H](C[C@@H]1CCNC1=O)NC(=O)[C@H](CC#C)N2C=CC=C(NC(=O)c3cc(C)on3)C2=O

$$$$
XNVP5S31
     RDKit          3D

 32 32  0  0  0  0  0  0  0  0999 V2000
   -7.5070    9.7730  -32.2370 C   0  0  0  0  0  0  0  0  0  0  0  0
   -7.6700    9.8230  -33.7780 C   0  0  2  0  0  0  0  0  0  0  0  0
   -8.6960   10.7850  -34.1610 N   0  0  0  0  0  0  0  0  0  0  0  0
   -8.0140    8.4320  -34.3930 C   0  0  1  0  0  0  0  0  0  0  0  0
   -8.3660   11.9860  -34.7380 C   0  0  0  0  0  0  0  0  0  0  0  0
   -9.6590    8.0130  -33.9280 R   0  0  0  0  0  0  0  0  0  0  0  0
   -7.7310    8.3810  -35.9230 R   0  0  0  0  0  0  0  0  0  0  0  0
   -9.5440   12.8720  -35.1700 C   0  0  1  0  0  0  0  0  0  0  0  0
   -7.2170   12.3540  -34.9210 O   0  0  0  0  0  0  0  0  0  0  0  0
   -6.2830    8.2890  -36.3860 C   0  0  1  0  0  0  0  0  0  0  0  0
   -6.2390    8.3590  -36.3130 C   0  0  2  0  0  0  0  0  0  0  0  0
   -9.2290   14.2940  -34.9840 N   0  0  0  0  0  0  0  0  0  0  0  0
   -9.9610   12.5320  -36.6040 C   0  0  0  0  0  0  0  0  0  0  0  0
   -5.9620    9.3890  -37.1520 O   0  0  0  0  0  0  0  0  0  0  0  0
   -5.3980    7.7430  -35.7710 O   0  0  0  0  0  0  0  0  0  0  0  0
   -5.9500    7.3430  -37.2070 O   0  0  0  0  0  0  0  0  0  0  0  0
   -5.3090    8.7040  -35.6100 O   0  0  0  0  0  0  0  0  0  0  0  0
   -9.2700   14.7400  -33.6260 C   0  0  0  0  0  0  0  0  0  0  0  0
   -8.8880   15.1740  -35.9880 C   0  0  0  0  0  0  0  0  0  0  0  0
  -11.1420   13.3100  -36.9200 C   0  0  0  0  0  0  0  0  0  0  0  0
   -4.5680    9.6340  -37.4070 C   0  0  0  0  0  0  0  0  0  0  0  0
   -6.9670    6.7070  -37.9880 C   0  0  0  0  0  0  0  0  0  0  0  0
   -9.0490   16.1590  -33.3600 C   0  0  0  0  0  0  0  0  0  0  0  0
   -9.5210   13.9120  -32.7390 O   0  0  0  0  0  0  0  0  0  0  0  0
   -8.6520   16.4840  -35.7260 C   0  0  0  0  0  0  0  0  0  0  0  0
  -12.1000   13.9360  -37.1800 C   0  0  0  0  0  0  0  0  0  0  0  0
   -4.2700   11.1150  -37.7120 C   0  0  0  0  0  0  0  0  0  0  0  0
   -6.4370    5.4350  -38.6720 C   0  0  0  0  0  0  0  0  0  0  0  0
   -9.2490   16.5750  -32.0350 N   0  0  0  0  0  0  0  0  0  0  0  0
   -8.7180   16.9980  -34.4080 C   0  0  0  0  0  0  0  0  0  0  0  0
  -10.0950   17.6650  -31.7210 C   0  0  0  0  0  0  0  0  0  0  0  0
  -10.5810   18.4340  -32.5450 O   0  0  0  0  0  0  0  0  0  0  0  0
  2  1  1  1
  2  3  1  0
  4  2  1  0
  3  5  1  0
  4  6  1  6
  4  7  1  0
  5  8  1  0
  5  9  1  0
 10  7  1  0
 11  7  1  0
  8 12  1  0
  8 13  1  6
 14 10  1  0
 10 15  1  1
 16 11  1  0
 11 17  1  1
 12 18  1  0
 12 19  1  0
 13 20  1  0
 21 14  1  0
 22 16  1  0
 18 23  1  0
 18 24  1  0
 25 19  1  0
 20 26  1  0
 27 21  1  0
 28 22  1  0
 23 29  1  0
 23 30  1  0
 30 25  1  0
 29 31  1  0
 31 32  1  0
V    6 *
V    7 *
A    2
 C07
A    3
 N08
A    4
 C06
A    5
 C09
A    6
 X  
A    7
 X  
A    8
 C10
A    9
 O30
A   10
 C04
A   11
 C04
A   12
 N11
A   13
 C27
A   14
 O03
A   15
 O38
A   16
 O03
A   17
 O38
A   18
 C12
A   19
 C25
A   20
 C28
A   21
 C02
A   22
 C02
A   23
 C13
A   24
 O26
A   25
 C24
A   26
 C29
A   27
 C01
A   28
 C01
A   29
 N14
A   30
 C23
A   32
 O22
M  END
>  <XChem_code>  (157) 
XNV§5

>  <Occupancy>  (157) 
[0.69, 0.31, 0.69, 0.31, 0.69, 0.31, 0.69, 0.31, 1.0, 1.0, 1.0, 1.0, 1.0, 1.0, 1.0, 1.0, 1.0, 1.0, 1.0, 1.0, 1.0, 1.0, 1.0, 1.0, 1.0, 1.0, 1.0, 1.0, 1.0, 1.0, 1.0, 1.0, 1.0, 1.0, 1.0, 1.0, 1.0, 1.0, 1.0, 1.0, 0.69, 0.31, 1.0, 1.0]

>  <TempFactor>  (157) 
[53.57, 61.0, 41.59, 49.21, 23.74, 32.51, 19.1, 21.28, 7.6, 8.11, 8.4, 9.74, 8.05, 8.56, 8.33, 8.16, 7.98, 7.67, 8.77, 11.26, 12.79, 12.84, 16.26, 10.81, 9.75, 8.32, 9.11, 8.82, 8.1, 8.86, 9.21, 10.73, 9.43, 7.8, 6.74, 9.87, 8.87, 8.14, 7.89, 8.51, 19.72, 18.23, 7.31, 12.55]

>  <accession>  (157) 
3Q3Y_A

>  <description>  (157) 
Chain A, HEVB EV93 3C protease [Enterovirus B]

>  <evalue>  (157) 
1.1460600000000001e-87

>  <pdb_code>  (157) 
3Q3Y

>  <chain>  (157) 
A

>  <ligands>  (157) 
[{'chain_id': 'A', 'author_residue_number': 190, 'author_insertion_code': '', 'chem_comp_id': 'XNV', 'alternate_conformers': 2, 'entity_id': 2, 'struct_asym_id': 'C', 'residue_number': 1, 'chem_comp_name': 'ethyl (4R)-4-({(2S)-2-[3-{[(5-methyl-1,2-oxazol-3-yl)carbonyl]amino}-2-oxopyridin-1(2H)-yl]pent-4-ynoyl}amino)-5-[(3S)-2-oxopyrrolidin-3-yl]pentanoate', 'weight': 525.554, 'carbohydrate_polymer': False, 'branch_name': ''}, {'chain_id': 'B', 'author_residue_number': 190, 'author_insertion_code': '', 'chem_comp_id': 'XNV', 'alternate_conformers': 2, 'entity_id': 2, 'struct_asym_id': 'L', 'residue_number': 1, 'chem_comp_name': 'ethyl (4R)-4-({(2S)-2-[3-{[(5-methyl-1,2-oxazol-3-yl)carbonyl]amino}-2-oxopyridin-1(2H)-yl]pent-4-ynoyl}amino)-5-[(3S)-2-oxopyrrolidin-3-yl]pentanoate', 'weight': 525.554, 'carbohydrate_polymer': False, 'branch_name': ''}, {'chain_id': 'A', 'author_residue_number': 191, 'author_insertion_code': '', 'chem_comp_id': 'EDO', 'alternate_conformers': 2, 'entity_id': 3, 'struct_asym_id': 'D', 'residue_number': 1, 'chem_comp_name': '1,2-ETHANEDIOL', 'weight': 62.068, 'carbohydrate_polymer': False, 'branch_name': ''}, {'chain_id': 'A', 'author_residue_number': 192, 'author_insertion_code': '', 'chem_comp_id': 'EDO', 'alternate_conformers': 2, 'entity_id': 3, 'struct_asym_id': 'E', 'residue_number': 1, 'chem_comp_name': '1,2-ETHANEDIOL', 'weight': 62.068, 'carbohydrate_polymer': False, 'branch_name': ''}, {'chain_id': 'A', 'author_residue_number': 193, 'author_insertion_code': '', 'chem_comp_id': 'EDO', 'alternate_conformers': 0, 'entity_id': 3, 'struct_asym_id': 'F', 'residue_number': 1, 'chem_comp_name': '1,2-ETHANEDIOL', 'weight': 62.068, 'carbohydrate_polymer': False, 'branch_name': ''}, {'chain_id': 'A', 'author_residue_number': 194, 'author_insertion_code': '', 'chem_comp_id': 'EDO', 'alternate_conformers': 1, 'entity_id': 3, 'struct_asym_id': 'G', 'residue_number': 1, 'chem_comp_name': '1,2-ETHANEDIOL', 'weight': 62.068, 'carbohydrate_polymer': False, 'branch_name': ''}, {'chain_id': 'B', 'author_residue_number': 191, 'author_insertion_code': '', 'chem_comp_id': 'EDO', 'alternate_conformers': 2, 'entity_id': 3, 'struct_asym_id': 'M', 'residue_number': 1, 'chem_comp_name': '1,2-ETHANEDIOL', 'weight': 62.068, 'carbohydrate_polymer': False, 'branch_name': ''}, {'chain_id': 'B', 'author_residue_number': 192, 'author_insertion_code': '', 'chem_comp_id': 'EDO', 'alternate_conformers': 0, 'entity_id': 3, 'struct_asym_id': 'N', 'residue_number': 1, 'chem_comp_name': '1,2-ETHANEDIOL', 'weight': 62.068, 'carbohydrate_polymer': False, 'branch_name': ''}, {'chain_id': 'B', 'author_residue_number': 193, 'author_insertion_code': '', 'chem_comp_id': 'EDO', 'alternate_conformers': 2, 'entity_id': 3, 'struct_asym_id': 'O', 'residue_number': 1, 'chem_comp_name': '1,2-ETHANEDIOL', 'weight': 62.068, 'carbohydrate_polymer': False, 'branch_name': ''}, {'chain_id': 'B', 'author_residue_number': 194, 'author_insertion_code': '', 'chem_comp_id': 'EDO', 'alternate_conformers': 1, 'entity_id': 3, 'struct_asym_id': 'P', 'residue_number': 1, 'chem_comp_name': '1,2-ETHANEDIOL', 'weight': 62.068, 'carbohydrate_polymer': False, 'branch_name': ''}, {'chain_id': 'A', 'author_residue_number': 195, 'author_insertion_code': '', 'chem_comp_id': 'PI', 'alternate_conformers': 1, 'entity_id': 4, 'struct_asym_id': 'H', 'residue_number': 1, 'chem_comp_name': 'HYDROGENPHOSPHATE ION', 'weight': 95.979, 'carbohydrate_polymer': False, 'branch_name': ''}, {'chain_id': 'A', 'author_residue_number': 196, 'author_insertion_code': '', 'chem_comp_id': 'PI', 'alternate_conformers': 1, 'entity_id': 4, 'struct_asym_id': 'I', 'residue_number': 1, 'chem_comp_name': 'HYDROGENPHOSPHATE ION', 'weight': 95.979, 'carbohydrate_polymer': False, 'branch_name': ''}, {'chain_id': 'B', 'author_residue_number': 195, 'author_insertion_code': '', 'chem_comp_id': 'PI', 'alternate_conformers': 1, 'entity_id': 4, 'struct_asym_id': 'Q', 'residue_number': 1, 'chem_comp_name': 'HYDROGENPHOSPHATE ION', 'weight': 95.979, 'carbohydrate_polymer': False, 'branch_name': ''}, {'chain_id': 'A', 'author_residue_number': 197, 'author_insertion_code': '', 'chem_comp_id': 'NH4', 'alternate_conformers': 2, 'entity_id': 5, 'struct_asym_id': 'J', 'residue_number': 1, 'chem_comp_name': 'AMMONIUM ION', 'weight': 18.038, 'carbohydrate_polymer': False, 'branch_name': ''}, {'chain_id': 'A', 'author_residue_number': 198, 'author_insertion_code': '', 'chem_comp_id': 'NH4', 'alternate_conformers': 0, 'entity_id': 5, 'struct_asym_id': 'K', 'residue_number': 1, 'chem_comp_name': 'AMMONIUM ION', 'weight': 18.038, 'carbohydrate_polymer': False, 'branch_name': ''}]

>  <ligand_codes>  (157) 
['XNV', 'XNV', 'EDO', 'EDO', 'EDO', 'EDO', 'EDO', 'EDO', 'EDO', 'EDO', 'PI', 'PI', 'PI', 'NH4', 'NH4']

>  <cofactor_codes>  (157) 
[]

>  <has_cofactor>  (157) 
False

>  <covalent>  (157) 
True

>  <base_name>  (157) 
3Q3Y

>  <lig_resn>  (157) 
XNV

>  <lig_resi>  (157) 
190

>  <lig_chain>  (157) 
A

>  <lig_segi>  (157) 
C

>  <lig_alt>  (157) 


>  <polymer_chain>  (157) 
A

>  <single_smiles>  (157) 
CCOC(=O)CC[C@H](C[C@@H]1CCNC1=O)NC(=O)[C@H](CC#C)N2C=CC=C(NC(=O)c3cc(C)on3)C2=O

$$$$
XNVP6
     RDKit          3D

  6  5  0  0  0  0  0  0  0  0999 V2000
   -4.2700   11.1150  -37.7120 C   0  0  0  0  0  0  0  0  0  0  0  0
   -4.5680    9.6340  -37.4070 C   0  0  0  0  0  0  0  0  0  0  0  0
   -5.9620    9.3890  -37.1520 O   0  0  0  0  0  0  0  0  0  0  0  0
   -6.2830    8.2890  -36.3860 C   0  0  1  0  0  0  0  0  0  0  0  0
   -5.3980    7.7430  -35.7710 O   0  0  0  0  0  0  0  0  0  0  0  0
   -7.7310    8.3810  -35.9230 R   0  0  0  0  0  0  0  0  0  0  0  0
  1  2  1  0
  2  3  1  0
  3  4  1  0
  4  5  1  0
  4  6  1  1
V    6 *
A    1
 C01
A    2
 C02
A    3
 O03
A    4
 C04
A    5
 O38
A    6
 X  
M  END
>  <XChem_code>  (158) 
XNV§6

>  <Occupancy>  (158) 
[0.69, 0.69, 0.69, 0.69, 0.69, 1.0]

>  <TempFactor>  (158) 
[53.57, 41.59, 23.74, 19.1, 19.72, 12.55]

>  <accession>  (158) 
3Q3Y_A

>  <description>  (158) 
Chain A, HEVB EV93 3C protease [Enterovirus B]

>  <evalue>  (158) 
1.1460600000000001e-87

>  <pdb_code>  (158) 
3Q3Y

>  <chain>  (158) 
A

>  <ligands>  (158) 
[{'chain_id': 'A', 'author_residue_number': 190, 'author_insertion_code': '', 'chem_comp_id': 'XNV', 'alternate_conformers': 2, 'entity_id': 2, 'struct_asym_id': 'C', 'residue_number': 1, 'chem_comp_name': 'ethyl (4R)-4-({(2S)-2-[3-{[(5-methyl-1,2-oxazol-3-yl)carbonyl]amino}-2-oxopyridin-1(2H)-yl]pent-4-ynoyl}amino)-5-[(3S)-2-oxopyrrolidin-3-yl]pentanoate', 'weight': 525.554, 'carbohydrate_polymer': False, 'branch_name': ''}, {'chain_id': 'B', 'author_residue_number': 190, 'author_insertion_code': '', 'chem_comp_id': 'XNV', 'alternate_conformers': 2, 'entity_id': 2, 'struct_asym_id': 'L', 'residue_number': 1, 'chem_comp_name': 'ethyl (4R)-4-({(2S)-2-[3-{[(5-methyl-1,2-oxazol-3-yl)carbonyl]amino}-2-oxopyridin-1(2H)-yl]pent-4-ynoyl}amino)-5-[(3S)-2-oxopyrrolidin-3-yl]pentanoate', 'weight': 525.554, 'carbohydrate_polymer': False, 'branch_name': ''}, {'chain_id': 'A', 'author_residue_number': 191, 'author_insertion_code': '', 'chem_comp_id': 'EDO', 'alternate_conformers': 2, 'entity_id': 3, 'struct_asym_id': 'D', 'residue_number': 1, 'chem_comp_name': '1,2-ETHANEDIOL', 'weight': 62.068, 'carbohydrate_polymer': False, 'branch_name': ''}, {'chain_id': 'A', 'author_residue_number': 192, 'author_insertion_code': '', 'chem_comp_id': 'EDO', 'alternate_conformers': 2, 'entity_id': 3, 'struct_asym_id': 'E', 'residue_number': 1, 'chem_comp_name': '1,2-ETHANEDIOL', 'weight': 62.068, 'carbohydrate_polymer': False, 'branch_name': ''}, {'chain_id': 'A', 'author_residue_number': 193, 'author_insertion_code': '', 'chem_comp_id': 'EDO', 'alternate_conformers': 0, 'entity_id': 3, 'struct_asym_id': 'F', 'residue_number': 1, 'chem_comp_name': '1,2-ETHANEDIOL', 'weight': 62.068, 'carbohydrate_polymer': False, 'branch_name': ''}, {'chain_id': 'A', 'author_residue_number': 194, 'author_insertion_code': '', 'chem_comp_id': 'EDO', 'alternate_conformers': 1, 'entity_id': 3, 'struct_asym_id': 'G', 'residue_number': 1, 'chem_comp_name': '1,2-ETHANEDIOL', 'weight': 62.068, 'carbohydrate_polymer': False, 'branch_name': ''}, {'chain_id': 'B', 'author_residue_number': 191, 'author_insertion_code': '', 'chem_comp_id': 'EDO', 'alternate_conformers': 2, 'entity_id': 3, 'struct_asym_id': 'M', 'residue_number': 1, 'chem_comp_name': '1,2-ETHANEDIOL', 'weight': 62.068, 'carbohydrate_polymer': False, 'branch_name': ''}, {'chain_id': 'B', 'author_residue_number': 192, 'author_insertion_code': '', 'chem_comp_id': 'EDO', 'alternate_conformers': 0, 'entity_id': 3, 'struct_asym_id': 'N', 'residue_number': 1, 'chem_comp_name': '1,2-ETHANEDIOL', 'weight': 62.068, 'carbohydrate_polymer': False, 'branch_name': ''}, {'chain_id': 'B', 'author_residue_number': 193, 'author_insertion_code': '', 'chem_comp_id': 'EDO', 'alternate_conformers': 2, 'entity_id': 3, 'struct_asym_id': 'O', 'residue_number': 1, 'chem_comp_name': '1,2-ETHANEDIOL', 'weight': 62.068, 'carbohydrate_polymer': False, 'branch_name': ''}, {'chain_id': 'B', 'author_residue_number': 194, 'author_insertion_code': '', 'chem_comp_id': 'EDO', 'alternate_conformers': 1, 'entity_id': 3, 'struct_asym_id': 'P', 'residue_number': 1, 'chem_comp_name': '1,2-ETHANEDIOL', 'weight': 62.068, 'carbohydrate_polymer': False, 'branch_name': ''}, {'chain_id': 'A', 'author_residue_number': 195, 'author_insertion_code': '', 'chem_comp_id': 'PI', 'alternate_conformers': 1, 'entity_id': 4, 'struct_asym_id': 'H', 'residue_number': 1, 'chem_comp_name': 'HYDROGENPHOSPHATE ION', 'weight': 95.979, 'carbohydrate_polymer': False, 'branch_name': ''}, {'chain_id': 'A', 'author_residue_number': 196, 'author_insertion_code': '', 'chem_comp_id': 'PI', 'alternate_conformers': 1, 'entity_id': 4, 'struct_asym_id': 'I', 'residue_number': 1, 'chem_comp_name': 'HYDROGENPHOSPHATE ION', 'weight': 95.979, 'carbohydrate_polymer': False, 'branch_name': ''}, {'chain_id': 'B', 'author_residue_number': 195, 'author_insertion_code': '', 'chem_comp_id': 'PI', 'alternate_conformers': 1, 'entity_id': 4, 'struct_asym_id': 'Q', 'residue_number': 1, 'chem_comp_name': 'HYDROGENPHOSPHATE ION', 'weight': 95.979, 'carbohydrate_polymer': False, 'branch_name': ''}, {'chain_id': 'A', 'author_residue_number': 197, 'author_insertion_code': '', 'chem_comp_id': 'NH4', 'alternate_conformers': 2, 'entity_id': 5, 'struct_asym_id': 'J', 'residue_number': 1, 'chem_comp_name': 'AMMONIUM ION', 'weight': 18.038, 'carbohydrate_polymer': False, 'branch_name': ''}, {'chain_id': 'A', 'author_residue_number': 198, 'author_insertion_code': '', 'chem_comp_id': 'NH4', 'alternate_conformers': 0, 'entity_id': 5, 'struct_asym_id': 'K', 'residue_number': 1, 'chem_comp_name': 'AMMONIUM ION', 'weight': 18.038, 'carbohydrate_polymer': False, 'branch_name': ''}]

>  <ligand_codes>  (158) 
['XNV', 'XNV', 'EDO', 'EDO', 'EDO', 'EDO', 'EDO', 'EDO', 'EDO', 'EDO', 'PI', 'PI', 'PI', 'NH4', 'NH4']

>  <cofactor_codes>  (158) 
[]

>  <has_cofactor>  (158) 
False

>  <covalent>  (158) 
True

>  <base_name>  (158) 
3Q3Y

>  <lig_resn>  (158) 
XNV

>  <lig_resi>  (158) 
190

>  <lig_chain>  (158) 
A

>  <lig_segi>  (158) 
C

>  <lig_alt>  (158) 
A

>  <polymer_chain>  (158) 
A

>  <single_smiles>  (158) 
CCOC(=O)CC[C@H](C[C@@H]1CCNC1=O)NC(=O)[C@H](CC#C)N2C=CC=C(NC(=O)c3cc(C)on3)C2=O

$$$$
G83P1
     RDKit          3D

 50 52  0  0  0  0  0  0  0  0999 V2000
   -9.7810   20.9510  -26.7880 C   0  0  0  0  0  0  0  0  0  0  0  0
   -6.4670   17.7660  -34.5460 O   0  0  0  0  0  0  0  0  0  0  0  0
   -9.6890   20.8420  -28.1960 C   0  0  0  0  0  0  0  0  0  0  0  0
   -5.3760   17.6500  -32.4930 O   0  0  0  0  0  0  0  0  0  0  0  0
   -5.3610   10.2030  -38.0740 C   0  0  0  0  0  0  0  0  0  0  0  0
  -10.4040   19.8340  -28.8340 C   0  0  0  0  0  0  0  0  0  0  0  0
   -4.5750    9.1110  -38.7950 C   0  0  0  0  0  0  0  0  0  0  0  0
  -11.1970   18.9310  -28.1220 C   0  0  0  0  0  0  0  0  0  0  0  0
  -13.4670   14.3010  -36.6620 C   0  0  0  0  0  0  0  0  0  0  0  0
  -11.3130   19.0390  -26.7440 C   0  0  0  0  0  0  0  0  0  0  0  0
  -13.4100   15.2640  -37.6860 C   0  0  0  0  0  0  0  0  0  0  0  0
  -10.5960   20.0640  -26.0750 C   0  0  0  0  0  0  0  0  0  0  0  0
  -12.1840   15.4150  -38.3560 C   0  0  0  0  0  0  0  0  0  0  0  0
   -3.6770   16.1600  -33.5370 C   0  0  0  0  0  0  0  0  0  0  0  0
  -10.3020   19.6950  -30.3210 C   0  0  0  0  0  0  0  0  0  0  0  0
   -6.3360   17.1850  -33.4620 C   0  0  0  0  0  0  0  0  0  0  0  0
   -9.9650   18.3270  -30.5810 O   0  0  0  0  0  0  0  0  0  0  0  0
   -9.6140   17.8180  -31.9050 C   0  0  0  0  0  0  0  0  0  0  0  0
   -9.9760   18.4340  -32.9180 O   0  0  0  0  0  0  0  0  0  0  0  0
   -8.9270   16.6710  -31.9560 N   0  0  0  0  0  0  0  0  0  0  0  0
   -8.5890   16.1350  -33.2460 C   0  0  1  0  0  0  0  0  0  0  0  0
   -7.0940   15.9700  -33.0860 C   0  0  0  0  0  0  0  0  0  0  0  0
   -4.0330   17.1570  -32.4230 C   0  0  0  0  0  0  0  0  0  0  0  0
   -9.0700   14.7310  -33.4520 C   0  0  0  0  0  0  0  0  0  0  0  0
   -9.2610   14.3500  -34.7310 N   0  0  0  0  0  0  0  0  0  0  0  0
   -9.1660   13.9920  -32.4630 O   0  0  0  0  0  0  0  0  0  0  0  0
   -9.6510   12.9770  -35.0820 C   0  0  2  0  0  0  0  0  0  0  0  0
   -8.4620   12.0930  -34.7840 C   0  0  0  0  0  0  0  0  0  0  0  0
   -9.8940   12.8970  -36.5940 C   0  0  0  0  0  0  0  0  0  0  0  0
   -3.9520   16.4650  -31.0680 C   0  0  0  0  0  0  0  0  0  0  0  0
   -3.0820   18.3540  -32.5240 C   0  0  0  0  0  0  0  0  0  0  0  0
   -7.3180   12.4750  -35.0590 O   0  0  0  0  0  0  0  0  0  0  0  0
   -8.7450   10.9170  -34.2200 N   0  0  0  0  0  0  0  0  0  0  0  0
  -11.1210   13.7000  -36.9770 C   0  0  0  0  0  0  0  0  0  0  0  0
  -12.3400   13.5180  -36.3250 C   0  0  0  0  0  0  0  0  0  0  0  0
  -11.0320   14.6580  -38.0030 C   0  0  0  0  0  0  0  0  0  0  0  0
   -7.7310    9.9410  -33.8290 C   0  0  1  0  0  0  0  0  0  0  0  0
   -7.6750    9.9230  -32.2970 C   0  0  0  0  0  0  0  0  0  0  0  0
   -7.2530   11.2580  -31.6380 C   0  0  1  0  0  0  0  0  0  0  0  0
   -8.1830    8.5770  -34.4040 C   0  0  2  0  0  0  0  0  0  0  0  0
   -7.1040   11.1020  -30.1450 C   0  0  0  0  0  0  0  0  0  0  0  0
   -7.8010   10.3100  -29.5070 O   0  0  0  0  0  0  0  0  0  0  0  0
   -6.2280   11.9150  -29.7100 N   0  0  0  0  0  0  0  0  0  0  0  0
   -5.4330   12.6240  -30.7080 C   0  0  0  0  0  0  0  0  0  0  0  0
   -5.9010   11.8850  -31.9840 C   0  0  0  0  0  0  0  0  0  0  0  0
   -8.1980    8.6230  -35.9360 C   0  0  0  0  0  0  0  0  0  0  0  0
   -6.8090    8.9220  -36.4600 C   0  0  0  0  0  0  0  0  0  0  0  0
   -6.6580    9.7290  -37.6550 O   0  0  0  0  0  0  0  0  0  0  0  0
   -5.8080    8.4980  -35.8980 O   0  0  0  0  0  0  0  0  0  0  0  0
   -9.8310    8.1200  -33.8380 R   0  0  0  0  0  0  0  0  0  0  0  0
  1  3  2  0
  1 12  1  0
  2 16  2  0
  3  6  1  0
  4 23  1  0
  4 16  1  0
  5  7  1  0
  5 48  1  0
  6  8  2  0
  6 15  1  0
  8 10  1  0
  9 11  2  0
  9 35  1  0
 10 12  2  0
 11 13  1  0
 13 36  2  0
 23 14  1  0
 15 17  1  0
 16 22  1  0
 17 18  1  0
 18 20  1  0
 18 19  2  0
 20 21  1  0
 21 22  1  1
 21 24  1  0
 23 30  1  0
 23 31  1  0
 24 25  1  0
 24 26  2  0
 25 27  1  0
 27 28  1  0
 27 29  1  6
 28 32  2  0
 28 33  1  0
 29 34  1  0
 33 37  1  0
 34 35  2  0
 34 36  1  0
 37 38  1  1
 37 40  1  0
 39 38  1  6
 39 41  1  0
 39 45  1  0
 40 46  1  0
 40 50  1  1
 41 42  2  0
 41 43  1  0
 43 44  1  0
 44 45  1  0
 46 47  1  0
 47 48  1  0
 47 49  2  0
V   50 *
A    1
 C1 
A    2
 O1 
A    3
 C2 
A    4
 O2 
A    5
 C3 
A    6
 C4 
A    7
 C5 
A    8
 C6 
A    9
 C7 
A   10
 C8 
A   11
 C9 
A   12
 C10
A   13
 C11
A   14
 C12
A   15
 C13
A   16
 C14
A   17
 O15
A   18
 C17
A   19
 O19
A   20
 N21
A   21
 C23
A   22
 C25
A   23
 C29
A   24
 C31
A   25
 N33
A   26
 O35
A   27
 C37
A   28
 C39
A   29
 C41
A   30
 C43
A   31
 C45
A   32
 O47
A   33
 N49
A   34
 C51
A   35
 C53
A   36
 C55
A   37
 C57
A   38
 C59
A   39
 C61
A   40
 C63
A   41
 C65
A   42
 O66
A   43
 N69
A   44
 C71
A   45
 C73
A   46
 C82
A   47
 C84
A   48
 O86
A   49
 O88
A   50
 X  
M  END
>  <XChem_code>  (159) 
G83§1

>  <Occupancy>  (159) 
[1.0, 1.0, 1.0, 1.0, 1.0, 1.0, 1.0, 1.0, 1.0, 1.0, 1.0, 1.0, 1.0, 1.0, 1.0, 1.0, 1.0, 1.0, 1.0, 1.0, 1.0, 1.0, 1.0, 1.0, 1.0, 1.0, 1.0, 1.0, 1.0, 1.0, 1.0, 1.0, 1.0, 1.0, 1.0, 1.0, 1.0, 1.0, 1.0, 1.0, 1.0, 1.0, 1.0, 1.0, 1.0, 1.0, 1.0, 1.0, 1.0, 1.0]

>  <TempFactor>  (159) 
[21.5, 44.89, 24.36, 42.16, 38.25, 23.95, 40.64, 20.41, 29.29, 22.5, 27.31, 23.15, 28.56, 41.84, 29.6, 38.53, 33.37, 31.58, 30.86, 27.88, 28.97, 31.52, 43.05, 27.66, 27.42, 21.95, 25.67, 24.02, 25.01, 43.36, 43.87, 19.31, 17.05, 26.62, 26.73, 28.95, 20.4, 17.34, 20.74, 21.57, 21.69, 20.06, 20.47, 18.67, 21.64, 27.5, 29.51, 35.17, 31.37, 18.86]

>  <accession>  (159) 
3ZZC_A

>  <description>  (159) 
Chain A, 3C PROTEINASE [Coxsackievirus B3]

>  <evalue>  (159) 
7.4865399999999999e-87

>  <pdb_code>  (159) 
3ZZC

>  <chain>  (159) 
A

>  <ligands>  (159) 
[{'chain_id': 'A', 'author_residue_number': 1181, 'author_insertion_code': '', 'chem_comp_id': 'G83', 'alternate_conformers': 0, 'entity_id': 2, 'struct_asym_id': 'B', 'residue_number': 1, 'chem_comp_name': 'ETHYL (5S,8S,11R)-8-BENZYL-5-(2-TERT-BUTOXY-2-OXOETHYL)-3,6,9-TRIOXO-11-{[(3S)-2-OXOPYRROLIDIN-3-YL]METHYL}-1-PHENYL-2-OXA-4,7,10-TRIAZATETRADECAN-14-OATE', 'weight': 680.788, 'carbohydrate_polymer': False, 'branch_name': ''}]

>  <ligand_codes>  (159) 
['G83']

>  <cofactor_codes>  (159) 
[]

>  <has_cofactor>  (159) 
False

>  <covalent>  (159) 
True

>  <base_name>  (159) 
3ZZC

>  <lig_resn>  (159) 
G83

>  <lig_resi>  (159) 
1181

>  <lig_chain>  (159) 
A

>  <lig_segi>  (159) 
B

>  <lig_alt>  (159) 


>  <polymer_chain>  (159) 
A

>  <single_smiles>  (159) 
CCOC(=O)CC[C@H](C[C@@H]1CCNC1=O)NC(=O)[C@H](Cc2ccccc2)NC(=O)[C@H](CC(=O)OC(C)(C)C)NC(=O)OCc3ccccc3

$$$$
G83P1S1
     RDKit          3D

  5  4  0  0  0  0  0  0  0  0999 V2000
   -5.3760   17.6500  -32.4930 O   0  0  0  0  0  0  0  0  0  0  0  0
   -4.0330   17.1570  -32.4230 C   0  0  0  0  0  0  0  0  0  0  0  0
   -3.6770   16.1600  -33.5370 C   0  0  0  0  0  0  0  0  0  0  0  0
   -3.9520   16.4650  -31.0680 C   0  0  0  0  0  0  0  0  0  0  0  0
   -3.0820   18.3540  -32.5240 C   0  0  0  0  0  0  0  0  0  0  0  0
  1  2  1  0
  2  3  1  0
  2  4  1  0
  2  5  1  0
A    2
 C29
A    3
 C12
A    4
 C43
A    5
 C45
M  END
>  <XChem_code>  (160) 
G83§1

>  <Occupancy>  (160) 
[1.0, 1.0, 1.0, 1.0, 1.0, 1.0, 1.0, 1.0, 1.0, 1.0, 1.0, 1.0, 1.0, 1.0, 1.0, 1.0, 1.0, 1.0, 1.0, 1.0, 1.0, 1.0, 1.0, 1.0, 1.0, 1.0, 1.0, 1.0, 1.0, 1.0, 1.0, 1.0, 1.0, 1.0, 1.0, 1.0, 1.0, 1.0, 1.0, 1.0, 1.0, 1.0, 1.0, 1.0, 1.0, 1.0, 1.0, 1.0, 1.0, 1.0]

>  <TempFactor>  (160) 
[21.5, 44.89, 24.36, 42.16, 38.25, 23.95, 40.64, 20.41, 29.29, 22.5, 27.31, 23.15, 28.56, 41.84, 29.6, 38.53, 33.37, 31.58, 30.86, 27.88, 28.97, 31.52, 43.05, 27.66, 27.42, 21.95, 25.67, 24.02, 25.01, 43.36, 43.87, 19.31, 17.05, 26.62, 26.73, 28.95, 20.4, 17.34, 20.74, 21.57, 21.69, 20.06, 20.47, 18.67, 21.64, 27.5, 29.51, 35.17, 31.37, 18.86]

>  <accession>  (160) 
3ZZC_A

>  <description>  (160) 
Chain A, 3C PROTEINASE [Coxsackievirus B3]

>  <evalue>  (160) 
7.4865399999999999e-87

>  <pdb_code>  (160) 
3ZZC

>  <chain>  (160) 
A

>  <ligands>  (160) 
[{'chain_id': 'A', 'author_residue_number': 1181, 'author_insertion_code': '', 'chem_comp_id': 'G83', 'alternate_conformers': 0, 'entity_id': 2, 'struct_asym_id': 'B', 'residue_number': 1, 'chem_comp_name': 'ETHYL (5S,8S,11R)-8-BENZYL-5-(2-TERT-BUTOXY-2-OXOETHYL)-3,6,9-TRIOXO-11-{[(3S)-2-OXOPYRROLIDIN-3-YL]METHYL}-1-PHENYL-2-OXA-4,7,10-TRIAZATETRADECAN-14-OATE', 'weight': 680.788, 'carbohydrate_polymer': False, 'branch_name': ''}]

>  <ligand_codes>  (160) 
['G83']

>  <cofactor_codes>  (160) 
[]

>  <has_cofactor>  (160) 
False

>  <covalent>  (160) 
True

>  <base_name>  (160) 
3ZZC

>  <lig_resn>  (160) 
G83

>  <lig_resi>  (160) 
1181

>  <lig_chain>  (160) 
A

>  <lig_segi>  (160) 
B

>  <lig_alt>  (160) 


>  <polymer_chain>  (160) 
A

>  <single_smiles>  (160) 
CCOC(=O)CC[C@H](C[C@@H]1CCNC1=O)NC(=O)[C@H](Cc2ccccc2)NC(=O)[C@H](CC(=O)OC(C)(C)C)NC(=O)OCc3ccccc3

$$$$
G83P1S2
     RDKit          3D

 45 47  0  0  0  0  0  0  0  0999 V2000
   -6.3360   17.1850  -33.4620 C   0  0  0  0  0  0  0  0  0  0  0  0
   -6.4670   17.7660  -34.5460 O   0  0  0  0  0  0  0  0  0  0  0  0
   -7.0940   15.9700  -33.0860 C   0  0  0  0  0  0  0  0  0  0  0  0
   -8.5890   16.1350  -33.2460 C   0  0  2  0  0  0  0  0  0  0  0  0
   -8.9270   16.6710  -31.9560 N   0  0  0  0  0  0  0  0  0  0  0  0
   -9.0700   14.7310  -33.4520 C   0  0  0  0  0  0  0  0  0  0  0  0
   -9.6140   17.8180  -31.9050 C   0  0  0  0  0  0  0  0  0  0  0  0
   -9.2610   14.3500  -34.7310 N   0  0  0  0  0  0  0  0  0  0  0  0
   -9.1660   13.9920  -32.4630 O   0  0  0  0  0  0  0  0  0  0  0  0
   -9.9650   18.3270  -30.5810 O   0  0  0  0  0  0  0  0  0  0  0  0
   -9.9760   18.4340  -32.9180 O   0  0  0  0  0  0  0  0  0  0  0  0
   -9.6510   12.9770  -35.0820 C   0  0  2  0  0  0  0  0  0  0  0  0
  -10.3020   19.6950  -30.3210 C   0  0  0  0  0  0  0  0  0  0  0  0
   -8.4620   12.0930  -34.7840 C   0  0  0  0  0  0  0  0  0  0  0  0
   -9.8940   12.8970  -36.5940 C   0  0  0  0  0  0  0  0  0  0  0  0
  -10.4040   19.8340  -28.8340 C   0  0  0  0  0  0  0  0  0  0  0  0
   -7.3180   12.4750  -35.0590 O   0  0  0  0  0  0  0  0  0  0  0  0
   -8.7450   10.9170  -34.2200 N   0  0  0  0  0  0  0  0  0  0  0  0
  -11.1210   13.7000  -36.9770 C   0  0  0  0  0  0  0  0  0  0  0  0
   -9.6890   20.8420  -28.1960 C   0  0  0  0  0  0  0  0  0  0  0  0
  -11.1970   18.9310  -28.1220 C   0  0  0  0  0  0  0  0  0  0  0  0
   -7.7310    9.9410  -33.8290 C   0  0  1  0  0  0  0  0  0  0  0  0
  -12.3400   13.5180  -36.3250 C   0  0  0  0  0  0  0  0  0  0  0  0
  -11.0320   14.6580  -38.0030 C   0  0  0  0  0  0  0  0  0  0  0  0
   -9.7810   20.9510  -26.7880 C   0  0  0  0  0  0  0  0  0  0  0  0
  -11.3130   19.0390  -26.7440 C   0  0  0  0  0  0  0  0  0  0  0  0
   -7.6750    9.9230  -32.2970 C   0  0  0  0  0  0  0  0  0  0  0  0
   -8.1830    8.5770  -34.4040 C   0  0  2  0  0  0  0  0  0  0  0  0
  -13.4670   14.3010  -36.6620 C   0  0  0  0  0  0  0  0  0  0  0  0
  -12.1840   15.4150  -38.3560 C   0  0  0  0  0  0  0  0  0  0  0  0
  -10.5960   20.0640  -26.0750 C   0  0  0  0  0  0  0  0  0  0  0  0
   -7.2530   11.2580  -31.6380 C   0  0  1  0  0  0  0  0  0  0  0  0
   -8.1980    8.6230  -35.9360 C   0  0  0  0  0  0  0  0  0  0  0  0
   -9.8310    8.1200  -33.8380 R   0  0  0  0  0  0  0  0  0  0  0  0
  -13.4100   15.2640  -37.6860 C   0  0  0  0  0  0  0  0  0  0  0  0
   -7.1040   11.1020  -30.1450 C   0  0  0  0  0  0  0  0  0  0  0  0
   -5.9010   11.8850  -31.9840 C   0  0  0  0  0  0  0  0  0  0  0  0
   -6.8090    8.9220  -36.4600 C   0  0  0  0  0  0  0  0  0  0  0  0
   -7.8010   10.3100  -29.5070 O   0  0  0  0  0  0  0  0  0  0  0  0
   -6.2280   11.9150  -29.7100 N   0  0  0  0  0  0  0  0  0  0  0  0
   -5.4330   12.6240  -30.7080 C   0  0  0  0  0  0  0  0  0  0  0  0
   -6.6580    9.7290  -37.6550 O   0  0  0  0  0  0  0  0  0  0  0  0
   -5.8080    8.4980  -35.8980 O   0  0  0  0  0  0  0  0  0  0  0  0
   -5.3610   10.2030  -38.0740 C   0  0  0  0  0  0  0  0  0  0  0  0
   -4.5750    9.1110  -38.7950 C   0  0  0  0  0  0  0  0  0  0  0  0
  2  1  2  0
  1  3  1  0
  4  3  1  1
  5  4  1  0
  4  6  1  0
  7  5  1  0
  6  8  1  0
  6  9  2  0
 10  7  1  0
  7 11  2  0
  8 12  1  0
 13 10  1  0
 12 14  1  0
 12 15  1  6
 16 13  1  0
 14 17  2  0
 14 18  1  0
 15 19  1  0
 20 16  2  0
 16 21  1  0
 18 22  1  0
 19 23  2  0
 19 24  1  0
 25 20  1  0
 21 26  2  0
 22 27  1  1
 22 28  1  0
 29 23  1  0
 30 24  2  0
 25 31  2  0
 26 31  1  0
 32 27  1  6
 28 33  1  0
 28 34  1  1
 29 35  2  0
 35 30  1  0
 32 36  1  0
 32 37  1  0
 33 38  1  0
 36 39  2  0
 36 40  1  0
 41 37  1  0
 38 42  1  0
 38 43  2  0
 40 41  1  0
 44 42  1  0
 44 45  1  0
V   34 *
A    2
 O1 
A    3
 C25
A    4
 C23
A    5
 N21
A    6
 C31
A    7
 C17
A    8
 N33
A    9
 O35
A   10
 O15
A   11
 O19
A   12
 C37
A   13
 C13
A   14
 C39
A   15
 C41
A   16
 C4 
A   17
 O47
A   18
 N49
A   19
 C51
A   20
 C2 
A   21
 C6 
A   22
 C57
A   23
 C53
A   24
 C55
A   25
 C1 
A   26
 C8 
A   27
 C59
A   28
 C63
A   29
 C7 
A   30
 C11
A   31
 C10
A   32
 C61
A   33
 C82
A   34
 X  
A   35
 C9 
A   36
 C65
A   37
 C73
A   38
 C84
A   39
 O66
A   40
 N69
A   41
 C71
A   42
 O86
A   43
 O88
A   44
 C3 
A   45
 C5 
M  END
>  <XChem_code>  (161) 
G83§1

>  <Occupancy>  (161) 
[1.0, 1.0, 1.0, 1.0, 1.0, 1.0, 1.0, 1.0, 1.0, 1.0, 1.0, 1.0, 1.0, 1.0, 1.0, 1.0, 1.0, 1.0, 1.0, 1.0, 1.0, 1.0, 1.0, 1.0, 1.0, 1.0, 1.0, 1.0, 1.0, 1.0, 1.0, 1.0, 1.0, 1.0, 1.0, 1.0, 1.0, 1.0, 1.0, 1.0, 1.0, 1.0, 1.0, 1.0, 1.0, 1.0, 1.0, 1.0, 1.0, 1.0]

>  <TempFactor>  (161) 
[21.5, 44.89, 24.36, 42.16, 38.25, 23.95, 40.64, 20.41, 29.29, 22.5, 27.31, 23.15, 28.56, 41.84, 29.6, 38.53, 33.37, 31.58, 30.86, 27.88, 28.97, 31.52, 43.05, 27.66, 27.42, 21.95, 25.67, 24.02, 25.01, 43.36, 43.87, 19.31, 17.05, 26.62, 26.73, 28.95, 20.4, 17.34, 20.74, 21.57, 21.69, 20.06, 20.47, 18.67, 21.64, 27.5, 29.51, 35.17, 31.37, 18.86]

>  <accession>  (161) 
3ZZC_A

>  <description>  (161) 
Chain A, 3C PROTEINASE [Coxsackievirus B3]

>  <evalue>  (161) 
7.4865399999999999e-87

>  <pdb_code>  (161) 
3ZZC

>  <chain>  (161) 
A

>  <ligands>  (161) 
[{'chain_id': 'A', 'author_residue_number': 1181, 'author_insertion_code': '', 'chem_comp_id': 'G83', 'alternate_conformers': 0, 'entity_id': 2, 'struct_asym_id': 'B', 'residue_number': 1, 'chem_comp_name': 'ETHYL (5S,8S,11R)-8-BENZYL-5-(2-TERT-BUTOXY-2-OXOETHYL)-3,6,9-TRIOXO-11-{[(3S)-2-OXOPYRROLIDIN-3-YL]METHYL}-1-PHENYL-2-OXA-4,7,10-TRIAZATETRADECAN-14-OATE', 'weight': 680.788, 'carbohydrate_polymer': False, 'branch_name': ''}]

>  <ligand_codes>  (161) 
['G83']

>  <cofactor_codes>  (161) 
[]

>  <has_cofactor>  (161) 
False

>  <covalent>  (161) 
True

>  <base_name>  (161) 
3ZZC

>  <lig_resn>  (161) 
G83

>  <lig_resi>  (161) 
1181

>  <lig_chain>  (161) 
A

>  <lig_segi>  (161) 
B

>  <lig_alt>  (161) 


>  <polymer_chain>  (161) 
A

>  <single_smiles>  (161) 
CCOC(=O)CC[C@H](C[C@@H]1CCNC1=O)NC(=O)[C@H](Cc2ccccc2)NC(=O)[C@H](CC(=O)OC(C)(C)C)NC(=O)OCc3ccccc3

$$$$
G83P1S3
     RDKit          3D

  8  8  0  0  0  0  0  0  0  0999 V2000
   -9.9650   18.3270  -30.5810 O   0  0  0  0  0  0  0  0  0  0  0  0
  -10.3020   19.6950  -30.3210 C   0  0  0  0  0  0  0  0  0  0  0  0
  -10.4040   19.8340  -28.8340 C   0  0  0  0  0  0  0  0  0  0  0  0
   -9.6890   20.8420  -28.1960 C   0  0  0  0  0  0  0  0  0  0  0  0
  -11.1970   18.9310  -28.1220 C   0  0  0  0  0  0  0  0  0  0  0  0
   -9.7810   20.9510  -26.7880 C   0  0  0  0  0  0  0  0  0  0  0  0
  -11.3130   19.0390  -26.7440 C   0  0  0  0  0  0  0  0  0  0  0  0
  -10.5960   20.0640  -26.0750 C   0  0  0  0  0  0  0  0  0  0  0  0
  2  1  1  0
  3  2  1  0
  4  3  2  0
  3  5  1  0
  6  4  1  0
  5  7  2  0
  6  8  2  0
  7  8  1  0
A    2
 C13
A    3
 C4 
A    4
 C2 
A    5
 C6 
A    6
 C1 
A    7
 C8 
A    8
 C10
M  END
>  <XChem_code>  (162) 
G83§1

>  <Occupancy>  (162) 
[1.0, 1.0, 1.0, 1.0, 1.0, 1.0, 1.0, 1.0, 1.0, 1.0, 1.0, 1.0, 1.0, 1.0, 1.0, 1.0, 1.0, 1.0, 1.0, 1.0, 1.0, 1.0, 1.0, 1.0, 1.0, 1.0, 1.0, 1.0, 1.0, 1.0, 1.0, 1.0, 1.0, 1.0, 1.0, 1.0, 1.0, 1.0, 1.0, 1.0, 1.0, 1.0, 1.0, 1.0, 1.0, 1.0, 1.0, 1.0, 1.0, 1.0]

>  <TempFactor>  (162) 
[21.5, 44.89, 24.36, 42.16, 38.25, 23.95, 40.64, 20.41, 29.29, 22.5, 27.31, 23.15, 28.56, 41.84, 29.6, 38.53, 33.37, 31.58, 30.86, 27.88, 28.97, 31.52, 43.05, 27.66, 27.42, 21.95, 25.67, 24.02, 25.01, 43.36, 43.87, 19.31, 17.05, 26.62, 26.73, 28.95, 20.4, 17.34, 20.74, 21.57, 21.69, 20.06, 20.47, 18.67, 21.64, 27.5, 29.51, 35.17, 31.37, 18.86]

>  <accession>  (162) 
3ZZC_A

>  <description>  (162) 
Chain A, 3C PROTEINASE [Coxsackievirus B3]

>  <evalue>  (162) 
7.4865399999999999e-87

>  <pdb_code>  (162) 
3ZZC

>  <chain>  (162) 
A

>  <ligands>  (162) 
[{'chain_id': 'A', 'author_residue_number': 1181, 'author_insertion_code': '', 'chem_comp_id': 'G83', 'alternate_conformers': 0, 'entity_id': 2, 'struct_asym_id': 'B', 'residue_number': 1, 'chem_comp_name': 'ETHYL (5S,8S,11R)-8-BENZYL-5-(2-TERT-BUTOXY-2-OXOETHYL)-3,6,9-TRIOXO-11-{[(3S)-2-OXOPYRROLIDIN-3-YL]METHYL}-1-PHENYL-2-OXA-4,7,10-TRIAZATETRADECAN-14-OATE', 'weight': 680.788, 'carbohydrate_polymer': False, 'branch_name': ''}]

>  <ligand_codes>  (162) 
['G83']

>  <cofactor_codes>  (162) 
[]

>  <has_cofactor>  (162) 
False

>  <covalent>  (162) 
True

>  <base_name>  (162) 
3ZZC

>  <lig_resn>  (162) 
G83

>  <lig_resi>  (162) 
1181

>  <lig_chain>  (162) 
A

>  <lig_segi>  (162) 
B

>  <lig_alt>  (162) 


>  <polymer_chain>  (162) 
A

>  <single_smiles>  (162) 
CCOC(=O)CC[C@H](C[C@@H]1CCNC1=O)NC(=O)[C@H](Cc2ccccc2)NC(=O)[C@H](CC(=O)OC(C)(C)C)NC(=O)OCc3ccccc3

$$$$
G83P1S4
     RDKit          3D

 42 43  0  0  0  0  0  0  0  0999 V2000
   -9.6140   17.8180  -31.9050 C   0  0  0  0  0  0  0  0  0  0  0  0
   -8.9270   16.6710  -31.9560 N   0  0  0  0  0  0  0  0  0  0  0  0
   -9.9760   18.4340  -32.9180 O   0  0  0  0  0  0  0  0  0  0  0  0
   -8.5890   16.1350  -33.2460 C   0  0  1  0  0  0  0  0  0  0  0  0
   -7.0940   15.9700  -33.0860 C   0  0  0  0  0  0  0  0  0  0  0  0
   -9.0700   14.7310  -33.4520 C   0  0  0  0  0  0  0  0  0  0  0  0
   -6.3360   17.1850  -33.4620 C   0  0  0  0  0  0  0  0  0  0  0  0
   -9.2610   14.3500  -34.7310 N   0  0  0  0  0  0  0  0  0  0  0  0
   -9.1660   13.9920  -32.4630 O   0  0  0  0  0  0  0  0  0  0  0  0
   -6.4670   17.7660  -34.5460 O   0  0  0  0  0  0  0  0  0  0  0  0
   -5.3760   17.6500  -32.4930 O   0  0  0  0  0  0  0  0  0  0  0  0
   -9.6510   12.9770  -35.0820 C   0  0  2  0  0  0  0  0  0  0  0  0
   -4.0330   17.1570  -32.4230 C   0  0  0  0  0  0  0  0  0  0  0  0
   -8.4620   12.0930  -34.7840 C   0  0  0  0  0  0  0  0  0  0  0  0
   -9.8940   12.8970  -36.5940 C   0  0  0  0  0  0  0  0  0  0  0  0
   -3.6770   16.1600  -33.5370 C   0  0  0  0  0  0  0  0  0  0  0  0
   -3.9520   16.4650  -31.0680 C   0  0  0  0  0  0  0  0  0  0  0  0
   -3.0820   18.3540  -32.5240 C   0  0  0  0  0  0  0  0  0  0  0  0
   -7.3180   12.4750  -35.0590 O   0  0  0  0  0  0  0  0  0  0  0  0
   -8.7450   10.9170  -34.2200 N   0  0  0  0  0  0  0  0  0  0  0  0
  -11.1210   13.7000  -36.9770 C   0  0  0  0  0  0  0  0  0  0  0  0
   -7.7310    9.9410  -33.8290 C   0  0  1  0  0  0  0  0  0  0  0  0
  -12.3400   13.5180  -36.3250 C   0  0  0  0  0  0  0  0  0  0  0  0
  -11.0320   14.6580  -38.0030 C   0  0  0  0  0  0  0  0  0  0  0  0
   -7.6750    9.9230  -32.2970 C   0  0  0  0  0  0  0  0  0  0  0  0
   -8.1830    8.5770  -34.4040 C   0  0  2  0  0  0  0  0  0  0  0  0
  -13.4670   14.3010  -36.6620 C   0  0  0  0  0  0  0  0  0  0  0  0
  -12.1840   15.4150  -38.3560 C   0  0  0  0  0  0  0  0  0  0  0  0
   -7.2530   11.2580  -31.6380 C   0  0  1  0  0  0  0  0  0  0  0  0
   -8.1980    8.6230  -35.9360 C   0  0  0  0  0  0  0  0  0  0  0  0
   -9.8310    8.1200  -33.8380 R   0  0  0  0  0  0  0  0  0  0  0  0
  -13.4100   15.2640  -37.6860 C   0  0  0  0  0  0  0  0  0  0  0  0
   -7.1040   11.1020  -30.1450 C   0  0  0  0  0  0  0  0  0  0  0  0
   -5.9010   11.8850  -31.9840 C   0  0  0  0  0  0  0  0  0  0  0  0
   -6.8090    8.9220  -36.4600 C   0  0  0  0  0  0  0  0  0  0  0  0
   -7.8010   10.3100  -29.5070 O   0  0  0  0  0  0  0  0  0  0  0  0
   -6.2280   11.9150  -29.7100 N   0  0  0  0  0  0  0  0  0  0  0  0
   -5.4330   12.6240  -30.7080 C   0  0  0  0  0  0  0  0  0  0  0  0
   -6.6580    9.7290  -37.6550 O   0  0  0  0  0  0  0  0  0  0  0  0
   -5.8080    8.4980  -35.8980 O   0  0  0  0  0  0  0  0  0  0  0  0
   -5.3610   10.2030  -38.0740 C   0  0  0  0  0  0  0  0  0  0  0  0
   -4.5750    9.1110  -38.7950 C   0  0  0  0  0  0  0  0  0  0  0  0
  1  2  1  0
  1  3  2  0
  2  4  1  0
  4  5  1  1
  4  6  1  0
  7  5  1  0
  6  8  1  0
  6  9  2  0
 10  7  2  0
 11  7  1  0
  8 12  1  0
 11 13  1  0
 12 14  1  0
 12 15  1  6
 13 16  1  0
 13 17  1  0
 13 18  1  0
 14 19  2  0
 14 20  1  0
 15 21  1  0
 20 22  1  0
 21 23  2  0
 21 24  1  0
 22 25  1  1
 22 26  1  0
 27 23  1  0
 28 24  2  0
 29 25  1  6
 26 30  1  0
 26 31  1  1
 27 32  2  0
 32 28  1  0
 29 33  1  0
 29 34  1  0
 30 35  1  0
 33 36  2  0
 33 37  1  0
 38 34  1  0
 35 39  1  0
 35 40  2  0
 37 38  1  0
 41 39  1  0
 41 42  1  0
V   31 *
A    2
 N21
A    3
 O19
A    4
 C23
A    5
 C25
A    6
 C31
A    7
 C14
A    8
 N33
A    9
 O35
A   10
 O1 
A   11
 O2 
A   12
 C37
A   13
 C29
A   14
 C39
A   15
 C41
A   16
 C12
A   17
 C43
A   18
 C45
A   19
 O47
A   20
 N49
A   21
 C51
A   22
 C57
A   23
 C53
A   24
 C55
A   25
 C59
A   26
 C63
A   27
 C7 
A   28
 C11
A   29
 C61
A   30
 C82
A   31
 X  
A   32
 C9 
A   33
 C65
A   34
 C73
A   35
 C84
A   36
 O66
A   37
 N69
A   38
 C71
A   39
 O86
A   40
 O88
A   41
 C3 
A   42
 C5 
M  END
>  <XChem_code>  (163) 
G83§1

>  <Occupancy>  (163) 
[1.0, 1.0, 1.0, 1.0, 1.0, 1.0, 1.0, 1.0, 1.0, 1.0, 1.0, 1.0, 1.0, 1.0, 1.0, 1.0, 1.0, 1.0, 1.0, 1.0, 1.0, 1.0, 1.0, 1.0, 1.0, 1.0, 1.0, 1.0, 1.0, 1.0, 1.0, 1.0, 1.0, 1.0, 1.0, 1.0, 1.0, 1.0, 1.0, 1.0, 1.0, 1.0, 1.0, 1.0, 1.0, 1.0, 1.0, 1.0, 1.0, 1.0]

>  <TempFactor>  (163) 
[21.5, 44.89, 24.36, 42.16, 38.25, 23.95, 40.64, 20.41, 29.29, 22.5, 27.31, 23.15, 28.56, 41.84, 29.6, 38.53, 33.37, 31.58, 30.86, 27.88, 28.97, 31.52, 43.05, 27.66, 27.42, 21.95, 25.67, 24.02, 25.01, 43.36, 43.87, 19.31, 17.05, 26.62, 26.73, 28.95, 20.4, 17.34, 20.74, 21.57, 21.69, 20.06, 20.47, 18.67, 21.64, 27.5, 29.51, 35.17, 31.37, 18.86]

>  <accession>  (163) 
3ZZC_A

>  <description>  (163) 
Chain A, 3C PROTEINASE [Coxsackievirus B3]

>  <evalue>  (163) 
7.4865399999999999e-87

>  <pdb_code>  (163) 
3ZZC

>  <chain>  (163) 
A

>  <ligands>  (163) 
[{'chain_id': 'A', 'author_residue_number': 1181, 'author_insertion_code': '', 'chem_comp_id': 'G83', 'alternate_conformers': 0, 'entity_id': 2, 'struct_asym_id': 'B', 'residue_number': 1, 'chem_comp_name': 'ETHYL (5S,8S,11R)-8-BENZYL-5-(2-TERT-BUTOXY-2-OXOETHYL)-3,6,9-TRIOXO-11-{[(3S)-2-OXOPYRROLIDIN-3-YL]METHYL}-1-PHENYL-2-OXA-4,7,10-TRIAZATETRADECAN-14-OATE', 'weight': 680.788, 'carbohydrate_polymer': False, 'branch_name': ''}]

>  <ligand_codes>  (163) 
['G83']

>  <cofactor_codes>  (163) 
[]

>  <has_cofactor>  (163) 
False

>  <covalent>  (163) 
True

>  <base_name>  (163) 
3ZZC

>  <lig_resn>  (163) 
G83

>  <lig_resi>  (163) 
1181

>  <lig_chain>  (163) 
A

>  <lig_segi>  (163) 
B

>  <lig_alt>  (163) 


>  <polymer_chain>  (163) 
A

>  <single_smiles>  (163) 
CCOC(=O)CC[C@H](C[C@@H]1CCNC1=O)NC(=O)[C@H](Cc2ccccc2)NC(=O)[C@H](CC(=O)OC(C)(C)C)NC(=O)OCc3ccccc3

$$$$
G83P1S5
     RDKit          3D

 10 10  0  0  0  0  0  0  0  0999 V2000
   -9.6140   17.8180  -31.9050 C   0  0  0  0  0  0  0  0  0  0  0  0
   -9.9650   18.3270  -30.5810 O   0  0  0  0  0  0  0  0  0  0  0  0
   -9.9760   18.4340  -32.9180 O   0  0  0  0  0  0  0  0  0  0  0  0
  -10.3020   19.6950  -30.3210 C   0  0  0  0  0  0  0  0  0  0  0  0
  -10.4040   19.8340  -28.8340 C   0  0  0  0  0  0  0  0  0  0  0  0
   -9.6890   20.8420  -28.1960 C   0  0  0  0  0  0  0  0  0  0  0  0
  -11.1970   18.9310  -28.1220 C   0  0  0  0  0  0  0  0  0  0  0  0
   -9.7810   20.9510  -26.7880 C   0  0  0  0  0  0  0  0  0  0  0  0
  -11.3130   19.0390  -26.7440 C   0  0  0  0  0  0  0  0  0  0  0  0
  -10.5960   20.0640  -26.0750 C   0  0  0  0  0  0  0  0  0  0  0  0
  2  1  1  0
  1  3  2  0
  4  2  1  0
  5  4  1  0
  6  5  2  0
  5  7  1  0
  8  6  1  0
  7  9  2  0
  8 10  2  0
  9 10  1  0
A    2
 O15
A    3
 O19
A    4
 C13
A    5
 C4 
A    6
 C2 
A    7
 C6 
A    8
 C1 
A    9
 C8 
A   10
 C10
M  END
>  <XChem_code>  (164) 
G83§1

>  <Occupancy>  (164) 
[1.0, 1.0, 1.0, 1.0, 1.0, 1.0, 1.0, 1.0, 1.0, 1.0, 1.0, 1.0, 1.0, 1.0, 1.0, 1.0, 1.0, 1.0, 1.0, 1.0, 1.0, 1.0, 1.0, 1.0, 1.0, 1.0, 1.0, 1.0, 1.0, 1.0, 1.0, 1.0, 1.0, 1.0, 1.0, 1.0, 1.0, 1.0, 1.0, 1.0, 1.0, 1.0, 1.0, 1.0, 1.0, 1.0, 1.0, 1.0, 1.0, 1.0]

>  <TempFactor>  (164) 
[21.5, 44.89, 24.36, 42.16, 38.25, 23.95, 40.64, 20.41, 29.29, 22.5, 27.31, 23.15, 28.56, 41.84, 29.6, 38.53, 33.37, 31.58, 30.86, 27.88, 28.97, 31.52, 43.05, 27.66, 27.42, 21.95, 25.67, 24.02, 25.01, 43.36, 43.87, 19.31, 17.05, 26.62, 26.73, 28.95, 20.4, 17.34, 20.74, 21.57, 21.69, 20.06, 20.47, 18.67, 21.64, 27.5, 29.51, 35.17, 31.37, 18.86]

>  <accession>  (164) 
3ZZC_A

>  <description>  (164) 
Chain A, 3C PROTEINASE [Coxsackievirus B3]

>  <evalue>  (164) 
7.4865399999999999e-87

>  <pdb_code>  (164) 
3ZZC

>  <chain>  (164) 
A

>  <ligands>  (164) 
[{'chain_id': 'A', 'author_residue_number': 1181, 'author_insertion_code': '', 'chem_comp_id': 'G83', 'alternate_conformers': 0, 'entity_id': 2, 'struct_asym_id': 'B', 'residue_number': 1, 'chem_comp_name': 'ETHYL (5S,8S,11R)-8-BENZYL-5-(2-TERT-BUTOXY-2-OXOETHYL)-3,6,9-TRIOXO-11-{[(3S)-2-OXOPYRROLIDIN-3-YL]METHYL}-1-PHENYL-2-OXA-4,7,10-TRIAZATETRADECAN-14-OATE', 'weight': 680.788, 'carbohydrate_polymer': False, 'branch_name': ''}]

>  <ligand_codes>  (164) 
['G83']

>  <cofactor_codes>  (164) 
[]

>  <has_cofactor>  (164) 
False

>  <covalent>  (164) 
True

>  <base_name>  (164) 
3ZZC

>  <lig_resn>  (164) 
G83

>  <lig_resi>  (164) 
1181

>  <lig_chain>  (164) 
A

>  <lig_segi>  (164) 
B

>  <lig_alt>  (164) 


>  <polymer_chain>  (164) 
A

>  <single_smiles>  (164) 
CCOC(=O)CC[C@H](C[C@@H]1CCNC1=O)NC(=O)[C@H](Cc2ccccc2)NC(=O)[C@H](CC(=O)OC(C)(C)C)NC(=O)OCc3ccccc3

$$$$
G83P1S6
     RDKit          3D

 40 41  0  0  0  0  0  0  0  0999 V2000
   -8.9270   16.6710  -31.9560 N   0  0  0  0  0  0  0  0  0  0  0  0
   -8.5890   16.1350  -33.2460 C   0  0  1  0  0  0  0  0  0  0  0  0
   -7.0940   15.9700  -33.0860 C   0  0  0  0  0  0  0  0  0  0  0  0
   -9.0700   14.7310  -33.4520 C   0  0  0  0  0  0  0  0  0  0  0  0
   -6.3360   17.1850  -33.4620 C   0  0  0  0  0  0  0  0  0  0  0  0
   -9.2610   14.3500  -34.7310 N   0  0  0  0  0  0  0  0  0  0  0  0
   -9.1660   13.9920  -32.4630 O   0  0  0  0  0  0  0  0  0  0  0  0
   -6.4670   17.7660  -34.5460 O   0  0  0  0  0  0  0  0  0  0  0  0
   -5.3760   17.6500  -32.4930 O   0  0  0  0  0  0  0  0  0  0  0  0
   -9.6510   12.9770  -35.0820 C   0  0  2  0  0  0  0  0  0  0  0  0
   -4.0330   17.1570  -32.4230 C   0  0  0  0  0  0  0  0  0  0  0  0
   -8.4620   12.0930  -34.7840 C   0  0  0  0  0  0  0  0  0  0  0  0
   -9.8940   12.8970  -36.5940 C   0  0  0  0  0  0  0  0  0  0  0  0
   -3.6770   16.1600  -33.5370 C   0  0  0  0  0  0  0  0  0  0  0  0
   -3.9520   16.4650  -31.0680 C   0  0  0  0  0  0  0  0  0  0  0  0
   -3.0820   18.3540  -32.5240 C   0  0  0  0  0  0  0  0  0  0  0  0
   -7.3180   12.4750  -35.0590 O   0  0  0  0  0  0  0  0  0  0  0  0
   -8.7450   10.9170  -34.2200 N   0  0  0  0  0  0  0  0  0  0  0  0
  -11.1210   13.7000  -36.9770 C   0  0  0  0  0  0  0  0  0  0  0  0
   -7.7310    9.9410  -33.8290 C   0  0  1  0  0  0  0  0  0  0  0  0
  -12.3400   13.5180  -36.3250 C   0  0  0  0  0  0  0  0  0  0  0  0
  -11.0320   14.6580  -38.0030 C   0  0  0  0  0  0  0  0  0  0  0  0
   -7.6750    9.9230  -32.2970 C   0  0  0  0  0  0  0  0  0  0  0  0
   -8.1830    8.5770  -34.4040 C   0  0  2  0  0  0  0  0  0  0  0  0
  -13.4670   14.3010  -36.6620 C   0  0  0  0  0  0  0  0  0  0  0  0
  -12.1840   15.4150  -38.3560 C   0  0  0  0  0  0  0  0  0  0  0  0
   -7.2530   11.2580  -31.6380 C   0  0  1  0  0  0  0  0  0  0  0  0
   -8.1980    8.6230  -35.9360 C   0  0  0  0  0  0  0  0  0  0  0  0
   -9.8310    8.1200  -33.8380 R   0  0  0  0  0  0  0  0  0  0  0  0
  -13.4100   15.2640  -37.6860 C   0  0  0  0  0  0  0  0  0  0  0  0
   -7.1040   11.1020  -30.1450 C   0  0  0  0  0  0  0  0  0  0  0  0
   -5.9010   11.8850  -31.9840 C   0  0  0  0  0  0  0  0  0  0  0  0
   -6.8090    8.9220  -36.4600 C   0  0  0  0  0  0  0  0  0  0  0  0
   -7.8010   10.3100  -29.5070 O   0  0  0  0  0  0  0  0  0  0  0  0
   -6.2280   11.9150  -29.7100 N   0  0  0  0  0  0  0  0  0  0  0  0
   -5.4330   12.6240  -30.7080 C   0  0  0  0  0  0  0  0  0  0  0  0
   -6.6580    9.7290  -37.6550 O   0  0  0  0  0  0  0  0  0  0  0  0
   -5.8080    8.4980  -35.8980 O   0  0  0  0  0  0  0  0  0  0  0  0
   -5.3610   10.2030  -38.0740 C   0  0  0  0  0  0  0  0  0  0  0  0
   -4.5750    9.1110  -38.7950 C   0  0  0  0  0  0  0  0  0  0  0  0
  2  1  1  1
  2  3  1  0
  2  4  1  0
  5  3  1  0
  4  6  1  0
  4  7  2  0
  8  5  2  0
  9  5  1  0
  6 10  1  0
  9 11  1  0
 10 12  1  0
 10 13  1  6
 11 14  1  0
 11 15  1  0
 11 16  1  0
 12 17  2  0
 12 18  1  0
 13 19  1  0
 18 20  1  0
 19 21  2  0
 19 22  1  0
 20 23  1  1
 20 24  1  0
 25 21  1  0
 26 22  2  0
 27 23  1  6
 24 28  1  0
 24 29  1  1
 25 30  2  0
 30 26  1  0
 27 31  1  0
 27 32  1  0
 28 33  1  0
 31 34  2  0
 31 35  1  0
 36 32  1  0
 33 37  1  0
 33 38  2  0
 35 36  1  0
 39 37  1  0
 39 40  1  0
V   29 *
A    2
 C23
A    3
 C25
A    4
 C31
A    5
 C14
A    6
 N33
A    7
 O35
A    8
 O1 
A    9
 O2 
A   10
 C37
A   11
 C29
A   12
 C39
A   13
 C41
A   14
 C12
A   15
 C43
A   16
 C45
A   17
 O47
A   18
 N49
A   19
 C51
A   20
 C57
A   21
 C53
A   22
 C55
A   23
 C59
A   24
 C63
A   25
 C7 
A   26
 C11
A   27
 C61
A   28
 C82
A   29
 X  
A   30
 C9 
A   31
 C65
A   32
 C73
A   33
 C84
A   34
 O66
A   35
 N69
A   36
 C71
A   37
 O86
A   38
 O88
A   39
 C3 
A   40
 C5 
M  END
>  <XChem_code>  (165) 
G83§1

>  <Occupancy>  (165) 
[1.0, 1.0, 1.0, 1.0, 1.0, 1.0, 1.0, 1.0, 1.0, 1.0, 1.0, 1.0, 1.0, 1.0, 1.0, 1.0, 1.0, 1.0, 1.0, 1.0, 1.0, 1.0, 1.0, 1.0, 1.0, 1.0, 1.0, 1.0, 1.0, 1.0, 1.0, 1.0, 1.0, 1.0, 1.0, 1.0, 1.0, 1.0, 1.0, 1.0, 1.0, 1.0, 1.0, 1.0, 1.0, 1.0, 1.0, 1.0, 1.0, 1.0]

>  <TempFactor>  (165) 
[21.5, 44.89, 24.36, 42.16, 38.25, 23.95, 40.64, 20.41, 29.29, 22.5, 27.31, 23.15, 28.56, 41.84, 29.6, 38.53, 33.37, 31.58, 30.86, 27.88, 28.97, 31.52, 43.05, 27.66, 27.42, 21.95, 25.67, 24.02, 25.01, 43.36, 43.87, 19.31, 17.05, 26.62, 26.73, 28.95, 20.4, 17.34, 20.74, 21.57, 21.69, 20.06, 20.47, 18.67, 21.64, 27.5, 29.51, 35.17, 31.37, 18.86]

>  <accession>  (165) 
3ZZC_A

>  <description>  (165) 
Chain A, 3C PROTEINASE [Coxsackievirus B3]

>  <evalue>  (165) 
7.4865399999999999e-87

>  <pdb_code>  (165) 
3ZZC

>  <chain>  (165) 
A

>  <ligands>  (165) 
[{'chain_id': 'A', 'author_residue_number': 1181, 'author_insertion_code': '', 'chem_comp_id': 'G83', 'alternate_conformers': 0, 'entity_id': 2, 'struct_asym_id': 'B', 'residue_number': 1, 'chem_comp_name': 'ETHYL (5S,8S,11R)-8-BENZYL-5-(2-TERT-BUTOXY-2-OXOETHYL)-3,6,9-TRIOXO-11-{[(3S)-2-OXOPYRROLIDIN-3-YL]METHYL}-1-PHENYL-2-OXA-4,7,10-TRIAZATETRADECAN-14-OATE', 'weight': 680.788, 'carbohydrate_polymer': False, 'branch_name': ''}]

>  <ligand_codes>  (165) 
['G83']

>  <cofactor_codes>  (165) 
[]

>  <has_cofactor>  (165) 
False

>  <covalent>  (165) 
True

>  <base_name>  (165) 
3ZZC

>  <lig_resn>  (165) 
G83

>  <lig_resi>  (165) 
1181

>  <lig_chain>  (165) 
A

>  <lig_segi>  (165) 
B

>  <lig_alt>  (165) 


>  <polymer_chain>  (165) 
A

>  <single_smiles>  (165) 
CCOC(=O)CC[C@H](C[C@@H]1CCNC1=O)NC(=O)[C@H](Cc2ccccc2)NC(=O)[C@H](CC(=O)OC(C)(C)C)NC(=O)OCc3ccccc3

$$$$
G83P1S7
     RDKit          3D

 22 22  0  0  0  0  0  0  0  0999 V2000
   -9.0700   14.7310  -33.4520 C   0  0  0  0  0  0  0  0  0  0  0  0
   -8.5890   16.1350  -33.2460 C   0  0  1  0  0  0  0  0  0  0  0  0
   -9.1660   13.9920  -32.4630 O   0  0  0  0  0  0  0  0  0  0  0  0
   -8.9270   16.6710  -31.9560 N   0  0  0  0  0  0  0  0  0  0  0  0
   -7.0940   15.9700  -33.0860 C   0  0  0  0  0  0  0  0  0  0  0  0
   -9.6140   17.8180  -31.9050 C   0  0  0  0  0  0  0  0  0  0  0  0
   -6.3360   17.1850  -33.4620 C   0  0  0  0  0  0  0  0  0  0  0  0
   -9.9650   18.3270  -30.5810 O   0  0  0  0  0  0  0  0  0  0  0  0
   -9.9760   18.4340  -32.9180 O   0  0  0  0  0  0  0  0  0  0  0  0
   -6.4670   17.7660  -34.5460 O   0  0  0  0  0  0  0  0  0  0  0  0
   -5.3760   17.6500  -32.4930 O   0  0  0  0  0  0  0  0  0  0  0  0
  -10.3020   19.6950  -30.3210 C   0  0  0  0  0  0  0  0  0  0  0  0
   -4.0330   17.1570  -32.4230 C   0  0  0  0  0  0  0  0  0  0  0  0
  -10.4040   19.8340  -28.8340 C   0  0  0  0  0  0  0  0  0  0  0  0
   -3.6770   16.1600  -33.5370 C   0  0  0  0  0  0  0  0  0  0  0  0
   -3.9520   16.4650  -31.0680 C   0  0  0  0  0  0  0  0  0  0  0  0
   -3.0820   18.3540  -32.5240 C   0  0  0  0  0  0  0  0  0  0  0  0
   -9.6890   20.8420  -28.1960 C   0  0  0  0  0  0  0  0  0  0  0  0
  -11.1970   18.9310  -28.1220 C   0  0  0  0  0  0  0  0  0  0  0  0
   -9.7810   20.9510  -26.7880 C   0  0  0  0  0  0  0  0  0  0  0  0
  -11.3130   19.0390  -26.7440 C   0  0  0  0  0  0  0  0  0  0  0  0
  -10.5960   20.0640  -26.0750 C   0  0  0  0  0  0  0  0  0  0  0  0
  2  1  1  0
  1  3  2  0
  4  2  1  0
  2  5  1  1
  6  4  1  0
  7  5  1  0
  8  6  1  0
  6  9  2  0
 10  7  2  0
 11  7  1  0
 12  8  1  0
 11 13  1  0
 14 12  1  0
 13 15  1  0
 13 16  1  0
 13 17  1  0
 18 14  2  0
 14 19  1  0
 20 18  1  0
 19 21  2  0
 20 22  2  0
 21 22  1  0
A    2
 C23
A    3
 O35
A    4
 N21
A    5
 C25
A    6
 C17
A    7
 C14
A    8
 O15
A    9
 O19
A   10
 O1 
A   11
 O2 
A   12
 C13
A   13
 C29
A   14
 C4 
A   15
 C12
A   16
 C43
A   17
 C45
A   18
 C2 
A   19
 C6 
A   20
 C1 
A   21
 C8 
A   22
 C10
M  END
>  <XChem_code>  (166) 
G83§1

>  <Occupancy>  (166) 
[1.0, 1.0, 1.0, 1.0, 1.0, 1.0, 1.0, 1.0, 1.0, 1.0, 1.0, 1.0, 1.0, 1.0, 1.0, 1.0, 1.0, 1.0, 1.0, 1.0, 1.0, 1.0, 1.0, 1.0, 1.0, 1.0, 1.0, 1.0, 1.0, 1.0, 1.0, 1.0, 1.0, 1.0, 1.0, 1.0, 1.0, 1.0, 1.0, 1.0, 1.0, 1.0, 1.0, 1.0, 1.0, 1.0, 1.0, 1.0, 1.0, 1.0]

>  <TempFactor>  (166) 
[21.5, 44.89, 24.36, 42.16, 38.25, 23.95, 40.64, 20.41, 29.29, 22.5, 27.31, 23.15, 28.56, 41.84, 29.6, 38.53, 33.37, 31.58, 30.86, 27.88, 28.97, 31.52, 43.05, 27.66, 27.42, 21.95, 25.67, 24.02, 25.01, 43.36, 43.87, 19.31, 17.05, 26.62, 26.73, 28.95, 20.4, 17.34, 20.74, 21.57, 21.69, 20.06, 20.47, 18.67, 21.64, 27.5, 29.51, 35.17, 31.37, 18.86]

>  <accession>  (166) 
3ZZC_A

>  <description>  (166) 
Chain A, 3C PROTEINASE [Coxsackievirus B3]

>  <evalue>  (166) 
7.4865399999999999e-87

>  <pdb_code>  (166) 
3ZZC

>  <chain>  (166) 
A

>  <ligands>  (166) 
[{'chain_id': 'A', 'author_residue_number': 1181, 'author_insertion_code': '', 'chem_comp_id': 'G83', 'alternate_conformers': 0, 'entity_id': 2, 'struct_asym_id': 'B', 'residue_number': 1, 'chem_comp_name': 'ETHYL (5S,8S,11R)-8-BENZYL-5-(2-TERT-BUTOXY-2-OXOETHYL)-3,6,9-TRIOXO-11-{[(3S)-2-OXOPYRROLIDIN-3-YL]METHYL}-1-PHENYL-2-OXA-4,7,10-TRIAZATETRADECAN-14-OATE', 'weight': 680.788, 'carbohydrate_polymer': False, 'branch_name': ''}]

>  <ligand_codes>  (166) 
['G83']

>  <cofactor_codes>  (166) 
[]

>  <has_cofactor>  (166) 
False

>  <covalent>  (166) 
True

>  <base_name>  (166) 
3ZZC

>  <lig_resn>  (166) 
G83

>  <lig_resi>  (166) 
1181

>  <lig_chain>  (166) 
A

>  <lig_segi>  (166) 
B

>  <lig_alt>  (166) 


>  <polymer_chain>  (166) 
A

>  <single_smiles>  (166) 
CCOC(=O)CC[C@H](C[C@@H]1CCNC1=O)NC(=O)[C@H](Cc2ccccc2)NC(=O)[C@H](CC(=O)OC(C)(C)C)NC(=O)OCc3ccccc3

$$$$
G83P1S8
     RDKit          3D

 28 29  0  0  0  0  0  0  0  0999 V2000
   -9.2610   14.3500  -34.7310 N   0  0  0  0  0  0  0  0  0  0  0  0
   -9.6510   12.9770  -35.0820 C   0  0  2  0  0  0  0  0  0  0  0  0
   -8.4620   12.0930  -34.7840 C   0  0  0  0  0  0  0  0  0  0  0  0
   -9.8940   12.8970  -36.5940 C   0  0  0  0  0  0  0  0  0  0  0  0
   -7.3180   12.4750  -35.0590 O   0  0  0  0  0  0  0  0  0  0  0  0
   -8.7450   10.9170  -34.2200 N   0  0  0  0  0  0  0  0  0  0  0  0
  -11.1210   13.7000  -36.9770 C   0  0  0  0  0  0  0  0  0  0  0  0
   -7.7310    9.9410  -33.8290 C   0  0  1  0  0  0  0  0  0  0  0  0
  -12.3400   13.5180  -36.3250 C   0  0  0  0  0  0  0  0  0  0  0  0
  -11.0320   14.6580  -38.0030 C   0  0  0  0  0  0  0  0  0  0  0  0
   -7.6750    9.9230  -32.2970 C   0  0  0  0  0  0  0  0  0  0  0  0
   -8.1830    8.5770  -34.4040 C   0  0  2  0  0  0  0  0  0  0  0  0
  -13.4670   14.3010  -36.6620 C   0  0  0  0  0  0  0  0  0  0  0  0
  -12.1840   15.4150  -38.3560 C   0  0  0  0  0  0  0  0  0  0  0  0
   -7.2530   11.2580  -31.6380 C   0  0  1  0  0  0  0  0  0  0  0  0
   -8.1980    8.6230  -35.9360 C   0  0  0  0  0  0  0  0  0  0  0  0
   -9.8310    8.1200  -33.8380 R   0  0  0  0  0  0  0  0  0  0  0  0
  -13.4100   15.2640  -37.6860 C   0  0  0  0  0  0  0  0  0  0  0  0
   -7.1040   11.1020  -30.1450 C   0  0  0  0  0  0  0  0  0  0  0  0
   -5.9010   11.8850  -31.9840 C   0  0  0  0  0  0  0  0  0  0  0  0
   -6.8090    8.9220  -36.4600 C   0  0  0  0  0  0  0  0  0  0  0  0
   -7.8010   10.3100  -29.5070 O   0  0  0  0  0  0  0  0  0  0  0  0
   -6.2280   11.9150  -29.7100 N   0  0  0  0  0  0  0  0  0  0  0  0
   -5.4330   12.6240  -30.7080 C   0  0  0  0  0  0  0  0  0  0  0  0
   -6.6580    9.7290  -37.6550 O   0  0  0  0  0  0  0  0  0  0  0  0
   -5.8080    8.4980  -35.8980 O   0  0  0  0  0  0  0  0  0  0  0  0
   -5.3610   10.2030  -38.0740 C   0  0  0  0  0  0  0  0  0  0  0  0
   -4.5750    9.1110  -38.7950 C   0  0  0  0  0  0  0  0  0  0  0  0
  2  1  1  6
  2  3  1  0
  2  4  1  0
  3  5  2  0
  3  6  1  0
  4  7  1  0
  6  8  1  0
  7  9  2  0
  7 10  1  0
  8 11  1  1
  8 12  1  0
 13  9  1  0
 14 10  2  0
 15 11  1  6
 12 16  1  0
 12 17  1  1
 13 18  2  0
 18 14  1  0
 15 19  1  0
 15 20  1  0
 16 21  1  0
 19 22  2  0
 19 23  1  0
 24 20  1  0
 21 25  1  0
 21 26  2  0
 23 24  1  0
 27 25  1  0
 27 28  1  0
V   17 *
A    2
 C37
A    3
 C39
A    4
 C41
A    5
 O47
A    6
 N49
A    7
 C51
A    8
 C57
A    9
 C53
A   10
 C55
A   11
 C59
A   12
 C63
A   13
 C7 
A   14
 C11
A   15
 C61
A   16
 C82
A   17
 X  
A   18
 C9 
A   19
 C65
A   20
 C73
A   21
 C84
A   22
 O66
A   23
 N69
A   24
 C71
A   25
 O86
A   26
 O88
A   27
 C3 
A   28
 C5 
M  END
>  <XChem_code>  (167) 
G83§1

>  <Occupancy>  (167) 
[1.0, 1.0, 1.0, 1.0, 1.0, 1.0, 1.0, 1.0, 1.0, 1.0, 1.0, 1.0, 1.0, 1.0, 1.0, 1.0, 1.0, 1.0, 1.0, 1.0, 1.0, 1.0, 1.0, 1.0, 1.0, 1.0, 1.0, 1.0, 1.0, 1.0, 1.0, 1.0, 1.0, 1.0, 1.0, 1.0, 1.0, 1.0, 1.0, 1.0, 1.0, 1.0, 1.0, 1.0, 1.0, 1.0, 1.0, 1.0, 1.0, 1.0]

>  <TempFactor>  (167) 
[21.5, 44.89, 24.36, 42.16, 38.25, 23.95, 40.64, 20.41, 29.29, 22.5, 27.31, 23.15, 28.56, 41.84, 29.6, 38.53, 33.37, 31.58, 30.86, 27.88, 28.97, 31.52, 43.05, 27.66, 27.42, 21.95, 25.67, 24.02, 25.01, 43.36, 43.87, 19.31, 17.05, 26.62, 26.73, 28.95, 20.4, 17.34, 20.74, 21.57, 21.69, 20.06, 20.47, 18.67, 21.64, 27.5, 29.51, 35.17, 31.37, 18.86]

>  <accession>  (167) 
3ZZC_A

>  <description>  (167) 
Chain A, 3C PROTEINASE [Coxsackievirus B3]

>  <evalue>  (167) 
7.4865399999999999e-87

>  <pdb_code>  (167) 
3ZZC

>  <chain>  (167) 
A

>  <ligands>  (167) 
[{'chain_id': 'A', 'author_residue_number': 1181, 'author_insertion_code': '', 'chem_comp_id': 'G83', 'alternate_conformers': 0, 'entity_id': 2, 'struct_asym_id': 'B', 'residue_number': 1, 'chem_comp_name': 'ETHYL (5S,8S,11R)-8-BENZYL-5-(2-TERT-BUTOXY-2-OXOETHYL)-3,6,9-TRIOXO-11-{[(3S)-2-OXOPYRROLIDIN-3-YL]METHYL}-1-PHENYL-2-OXA-4,7,10-TRIAZATETRADECAN-14-OATE', 'weight': 680.788, 'carbohydrate_polymer': False, 'branch_name': ''}]

>  <ligand_codes>  (167) 
['G83']

>  <cofactor_codes>  (167) 
[]

>  <has_cofactor>  (167) 
False

>  <covalent>  (167) 
True

>  <base_name>  (167) 
3ZZC

>  <lig_resn>  (167) 
G83

>  <lig_resi>  (167) 
1181

>  <lig_chain>  (167) 
A

>  <lig_segi>  (167) 
B

>  <lig_alt>  (167) 


>  <polymer_chain>  (167) 
A

>  <single_smiles>  (167) 
CCOC(=O)CC[C@H](C[C@@H]1CCNC1=O)NC(=O)[C@H](Cc2ccccc2)NC(=O)[C@H](CC(=O)OC(C)(C)C)NC(=O)OCc3ccccc3

$$$$
G83P1S9
     RDKit          3D

 17 17  0  0  0  0  0  0  0  0999 V2000
   -8.7450   10.9170  -34.2200 N   0  0  0  0  0  0  0  0  0  0  0  0
   -7.7310    9.9410  -33.8290 C   0  0  1  0  0  0  0  0  0  0  0  0
   -7.6750    9.9230  -32.2970 C   0  0  0  0  0  0  0  0  0  0  0  0
   -8.1830    8.5770  -34.4040 C   0  0  2  0  0  0  0  0  0  0  0  0
   -7.2530   11.2580  -31.6380 C   0  0  1  0  0  0  0  0  0  0  0  0
   -8.1980    8.6230  -35.9360 C   0  0  0  0  0  0  0  0  0  0  0  0
   -9.8310    8.1200  -33.8380 R   0  0  0  0  0  0  0  0  0  0  0  0
   -7.1040   11.1020  -30.1450 C   0  0  0  0  0  0  0  0  0  0  0  0
   -5.9010   11.8850  -31.9840 C   0  0  0  0  0  0  0  0  0  0  0  0
   -6.8090    8.9220  -36.4600 C   0  0  0  0  0  0  0  0  0  0  0  0
   -7.8010   10.3100  -29.5070 O   0  0  0  0  0  0  0  0  0  0  0  0
   -6.2280   11.9150  -29.7100 N   0  0  0  0  0  0  0  0  0  0  0  0
   -5.4330   12.6240  -30.7080 C   0  0  0  0  0  0  0  0  0  0  0  0
   -6.6580    9.7290  -37.6550 O   0  0  0  0  0  0  0  0  0  0  0  0
   -5.8080    8.4980  -35.8980 O   0  0  0  0  0  0  0  0  0  0  0  0
   -5.3610   10.2030  -38.0740 C   0  0  0  0  0  0  0  0  0  0  0  0
   -4.5750    9.1110  -38.7950 C   0  0  0  0  0  0  0  0  0  0  0  0
  2  1  1  1
  2  3  1  0
  2  4  1  0
  5  3  1  6
  4  6  1  0
  4  7  1  1
  5  8  1  0
  5  9  1  0
  6 10  1  0
  8 11  2  0
  8 12  1  0
 13  9  1  0
 10 14  1  0
 10 15  2  0
 12 13  1  0
 16 14  1  0
 16 17  1  0
V    7 *
A    2
 C57
A    3
 C59
A    4
 C63
A    5
 C61
A    6
 C82
A    7
 X  
A    8
 C65
A    9
 C73
A   10
 C84
A   11
 O66
A   12
 N69
A   13
 C71
A   14
 O86
A   15
 O88
A   16
 C3 
A   17
 C5 
M  END
>  <XChem_code>  (168) 
G83§1

>  <Occupancy>  (168) 
[1.0, 1.0, 1.0, 1.0, 1.0, 1.0, 1.0, 1.0, 1.0, 1.0, 1.0, 1.0, 1.0, 1.0, 1.0, 1.0, 1.0, 1.0, 1.0, 1.0, 1.0, 1.0, 1.0, 1.0, 1.0, 1.0, 1.0, 1.0, 1.0, 1.0, 1.0, 1.0, 1.0, 1.0, 1.0, 1.0, 1.0, 1.0, 1.0, 1.0, 1.0, 1.0, 1.0, 1.0, 1.0, 1.0, 1.0, 1.0, 1.0, 1.0]

>  <TempFactor>  (168) 
[21.5, 44.89, 24.36, 42.16, 38.25, 23.95, 40.64, 20.41, 29.29, 22.5, 27.31, 23.15, 28.56, 41.84, 29.6, 38.53, 33.37, 31.58, 30.86, 27.88, 28.97, 31.52, 43.05, 27.66, 27.42, 21.95, 25.67, 24.02, 25.01, 43.36, 43.87, 19.31, 17.05, 26.62, 26.73, 28.95, 20.4, 17.34, 20.74, 21.57, 21.69, 20.06, 20.47, 18.67, 21.64, 27.5, 29.51, 35.17, 31.37, 18.86]

>  <accession>  (168) 
3ZZC_A

>  <description>  (168) 
Chain A, 3C PROTEINASE [Coxsackievirus B3]

>  <evalue>  (168) 
7.4865399999999999e-87

>  <pdb_code>  (168) 
3ZZC

>  <chain>  (168) 
A

>  <ligands>  (168) 
[{'chain_id': 'A', 'author_residue_number': 1181, 'author_insertion_code': '', 'chem_comp_id': 'G83', 'alternate_conformers': 0, 'entity_id': 2, 'struct_asym_id': 'B', 'residue_number': 1, 'chem_comp_name': 'ETHYL (5S,8S,11R)-8-BENZYL-5-(2-TERT-BUTOXY-2-OXOETHYL)-3,6,9-TRIOXO-11-{[(3S)-2-OXOPYRROLIDIN-3-YL]METHYL}-1-PHENYL-2-OXA-4,7,10-TRIAZATETRADECAN-14-OATE', 'weight': 680.788, 'carbohydrate_polymer': False, 'branch_name': ''}]

>  <ligand_codes>  (168) 
['G83']

>  <cofactor_codes>  (168) 
[]

>  <has_cofactor>  (168) 
False

>  <covalent>  (168) 
True

>  <base_name>  (168) 
3ZZC

>  <lig_resn>  (168) 
G83

>  <lig_resi>  (168) 
1181

>  <lig_chain>  (168) 
A

>  <lig_segi>  (168) 
B

>  <lig_alt>  (168) 


>  <polymer_chain>  (168) 
A

>  <single_smiles>  (168) 
CCOC(=O)CC[C@H](C[C@@H]1CCNC1=O)NC(=O)[C@H](Cc2ccccc2)NC(=O)[C@H](CC(=O)OC(C)(C)C)NC(=O)OCc3ccccc3

$$$$
G83P1S10
     RDKit          3D

 33 34  0  0  0  0  0  0  0  0999 V2000
   -8.4620   12.0930  -34.7840 C   0  0  0  0  0  0  0  0  0  0  0  0
   -9.6510   12.9770  -35.0820 C   0  0  1  0  0  0  0  0  0  0  0  0
   -7.3180   12.4750  -35.0590 O   0  0  0  0  0  0  0  0  0  0  0  0
   -9.2610   14.3500  -34.7310 N   0  0  0  0  0  0  0  0  0  0  0  0
   -9.8940   12.8970  -36.5940 C   0  0  0  0  0  0  0  0  0  0  0  0
   -9.0700   14.7310  -33.4520 C   0  0  0  0  0  0  0  0  0  0  0  0
  -11.1210   13.7000  -36.9770 C   0  0  0  0  0  0  0  0  0  0  0  0
   -8.5890   16.1350  -33.2460 C   0  0  1  0  0  0  0  0  0  0  0  0
   -9.1660   13.9920  -32.4630 O   0  0  0  0  0  0  0  0  0  0  0  0
  -12.3400   13.5180  -36.3250 C   0  0  0  0  0  0  0  0  0  0  0  0
  -11.0320   14.6580  -38.0030 C   0  0  0  0  0  0  0  0  0  0  0  0
   -8.9270   16.6710  -31.9560 N   0  0  0  0  0  0  0  0  0  0  0  0
   -7.0940   15.9700  -33.0860 C   0  0  0  0  0  0  0  0  0  0  0  0
  -13.4670   14.3010  -36.6620 C   0  0  0  0  0  0  0  0  0  0  0  0
  -12.1840   15.4150  -38.3560 C   0  0  0  0  0  0  0  0  0  0  0  0
   -9.6140   17.8180  -31.9050 C   0  0  0  0  0  0  0  0  0  0  0  0
   -6.3360   17.1850  -33.4620 C   0  0  0  0  0  0  0  0  0  0  0  0
  -13.4100   15.2640  -37.6860 C   0  0  0  0  0  0  0  0  0  0  0  0
   -9.9650   18.3270  -30.5810 O   0  0  0  0  0  0  0  0  0  0  0  0
   -9.9760   18.4340  -32.9180 O   0  0  0  0  0  0  0  0  0  0  0  0
   -6.4670   17.7660  -34.5460 O   0  0  0  0  0  0  0  0  0  0  0  0
   -5.3760   17.6500  -32.4930 O   0  0  0  0  0  0  0  0  0  0  0  0
  -10.3020   19.6950  -30.3210 C   0  0  0  0  0  0  0  0  0  0  0  0
   -4.0330   17.1570  -32.4230 C   0  0  0  0  0  0  0  0  0  0  0  0
  -10.4040   19.8340  -28.8340 C   0  0  0  0  0  0  0  0  0  0  0  0
   -3.6770   16.1600  -33.5370 C   0  0  0  0  0  0  0  0  0  0  0  0
   -3.9520   16.4650  -31.0680 C   0  0  0  0  0  0  0  0  0  0  0  0
   -3.0820   18.3540  -32.5240 C   0  0  0  0  0  0  0  0  0  0  0  0
   -9.6890   20.8420  -28.1960 C   0  0  0  0  0  0  0  0  0  0  0  0
  -11.1970   18.9310  -28.1220 C   0  0  0  0  0  0  0  0  0  0  0  0
   -9.7810   20.9510  -26.7880 C   0  0  0  0  0  0  0  0  0  0  0  0
  -11.3130   19.0390  -26.7440 C   0  0  0  0  0  0  0  0  0  0  0  0
  -10.5960   20.0640  -26.0750 C   0  0  0  0  0  0  0  0  0  0  0  0
  2  1  1  0
  1  3  2  0
  4  2  1  0
  2  5  1  6
  6  4  1  0
  5  7  1  0
  8  6  1  0
  6  9  2  0
  7 10  2  0
  7 11  1  0
 12  8  1  0
  8 13  1  1
 14 10  1  0
 15 11  2  0
 16 12  1  0
 17 13  1  0
 14 18  2  0
 18 15  1  0
 19 16  1  0
 16 20  2  0
 21 17  2  0
 22 17  1  0
 23 19  1  0
 22 24  1  0
 25 23  1  0
 24 26  1  0
 24 27  1  0
 24 28  1  0
 29 25  2  0
 25 30  1  0
 31 29  1  0
 30 32  2  0
 31 33  2  0
 32 33  1  0
A    2
 C37
A    3
 O47
A    4
 N33
A    5
 C41
A    6
 C31
A    7
 C51
A    8
 C23
A    9
 O35
A   10
 C53
A   11
 C55
A   12
 N21
A   13
 C25
A   14
 C7 
A   15
 C11
A   16
 C17
A   17
 C14
A   18
 C9 
A   19
 O15
A   20
 O19
A   21
 O1 
A   22
 O2 
A   23
 C13
A   24
 C29
A   25
 C4 
A   26
 C12
A   27
 C43
A   28
 C45
A   29
 C2 
A   30
 C6 
A   31
 C1 
A   32
 C8 
A   33
 C10
M  END
>  <XChem_code>  (169) 
G83§1

>  <Occupancy>  (169) 
[1.0, 1.0, 1.0, 1.0, 1.0, 1.0, 1.0, 1.0, 1.0, 1.0, 1.0, 1.0, 1.0, 1.0, 1.0, 1.0, 1.0, 1.0, 1.0, 1.0, 1.0, 1.0, 1.0, 1.0, 1.0, 1.0, 1.0, 1.0, 1.0, 1.0, 1.0, 1.0, 1.0, 1.0, 1.0, 1.0, 1.0, 1.0, 1.0, 1.0, 1.0, 1.0, 1.0, 1.0, 1.0, 1.0, 1.0, 1.0, 1.0, 1.0]

>  <TempFactor>  (169) 
[21.5, 44.89, 24.36, 42.16, 38.25, 23.95, 40.64, 20.41, 29.29, 22.5, 27.31, 23.15, 28.56, 41.84, 29.6, 38.53, 33.37, 31.58, 30.86, 27.88, 28.97, 31.52, 43.05, 27.66, 27.42, 21.95, 25.67, 24.02, 25.01, 43.36, 43.87, 19.31, 17.05, 26.62, 26.73, 28.95, 20.4, 17.34, 20.74, 21.57, 21.69, 20.06, 20.47, 18.67, 21.64, 27.5, 29.51, 35.17, 31.37, 18.86]

>  <accession>  (169) 
3ZZC_A

>  <description>  (169) 
Chain A, 3C PROTEINASE [Coxsackievirus B3]

>  <evalue>  (169) 
7.4865399999999999e-87

>  <pdb_code>  (169) 
3ZZC

>  <chain>  (169) 
A

>  <ligands>  (169) 
[{'chain_id': 'A', 'author_residue_number': 1181, 'author_insertion_code': '', 'chem_comp_id': 'G83', 'alternate_conformers': 0, 'entity_id': 2, 'struct_asym_id': 'B', 'residue_number': 1, 'chem_comp_name': 'ETHYL (5S,8S,11R)-8-BENZYL-5-(2-TERT-BUTOXY-2-OXOETHYL)-3,6,9-TRIOXO-11-{[(3S)-2-OXOPYRROLIDIN-3-YL]METHYL}-1-PHENYL-2-OXA-4,7,10-TRIAZATETRADECAN-14-OATE', 'weight': 680.788, 'carbohydrate_polymer': False, 'branch_name': ''}]

>  <ligand_codes>  (169) 
['G83']

>  <cofactor_codes>  (169) 
[]

>  <has_cofactor>  (169) 
False

>  <covalent>  (169) 
True

>  <base_name>  (169) 
3ZZC

>  <lig_resn>  (169) 
G83

>  <lig_resi>  (169) 
1181

>  <lig_chain>  (169) 
A

>  <lig_segi>  (169) 
B

>  <lig_alt>  (169) 


>  <polymer_chain>  (169) 
A

>  <single_smiles>  (169) 
CCOC(=O)CC[C@H](C[C@@H]1CCNC1=O)NC(=O)[C@H](Cc2ccccc2)NC(=O)[C@H](CC(=O)OC(C)(C)C)NC(=O)OCc3ccccc3

$$$$
G83P1S11
     RDKit          3D

 37 38  0  0  0  0  0  0  0  0999 V2000
   -9.6140   17.8180  -31.9050 C   0  0  0  0  0  0  0  0  0  0  0  0
   -8.9270   16.6710  -31.9560 N   0  0  0  0  0  0  0  0  0  0  0  0
   -9.9760   18.4340  -32.9180 O   0  0  0  0  0  0  0  0  0  0  0  0
   -8.5890   16.1350  -33.2460 C   0  0  1  0  0  0  0  0  0  0  0  0
   -7.0940   15.9700  -33.0860 C   0  0  0  0  0  0  0  0  0  0  0  0
   -9.0700   14.7310  -33.4520 C   0  0  0  0  0  0  0  0  0  0  0  0
   -6.3360   17.1850  -33.4620 C   0  0  0  0  0  0  0  0  0  0  0  0
   -9.2610   14.3500  -34.7310 N   0  0  0  0  0  0  0  0  0  0  0  0
   -9.1660   13.9920  -32.4630 O   0  0  0  0  0  0  0  0  0  0  0  0
   -6.4670   17.7660  -34.5460 O   0  0  0  0  0  0  0  0  0  0  0  0
   -9.6510   12.9770  -35.0820 C   0  0  2  0  0  0  0  0  0  0  0  0
   -8.4620   12.0930  -34.7840 C   0  0  0  0  0  0  0  0  0  0  0  0
   -9.8940   12.8970  -36.5940 C   0  0  0  0  0  0  0  0  0  0  0  0
   -7.3180   12.4750  -35.0590 O   0  0  0  0  0  0  0  0  0  0  0  0
   -8.7450   10.9170  -34.2200 N   0  0  0  0  0  0  0  0  0  0  0  0
  -11.1210   13.7000  -36.9770 C   0  0  0  0  0  0  0  0  0  0  0  0
   -7.7310    9.9410  -33.8290 C   0  0  1  0  0  0  0  0  0  0  0  0
  -12.3400   13.5180  -36.3250 C   0  0  0  0  0  0  0  0  0  0  0  0
  -11.0320   14.6580  -38.0030 C   0  0  0  0  0  0  0  0  0  0  0  0
   -7.6750    9.9230  -32.2970 C   0  0  0  0  0  0  0  0  0  0  0  0
   -8.1830    8.5770  -34.4040 C   0  0  2  0  0  0  0  0  0  0  0  0
  -13.4670   14.3010  -36.6620 C   0  0  0  0  0  0  0  0  0  0  0  0
  -12.1840   15.4150  -38.3560 C   0  0  0  0  0  0  0  0  0  0  0  0
   -7.2530   11.2580  -31.6380 C   0  0  1  0  0  0  0  0  0  0  0  0
   -8.1980    8.6230  -35.9360 C   0  0  0  0  0  0  0  0  0  0  0  0
   -9.8310    8.1200  -33.8380 R   0  0  0  0  0  0  0  0  0  0  0  0
  -13.4100   15.2640  -37.6860 C   0  0  0  0  0  0  0  0  0  0  0  0
   -7.1040   11.1020  -30.1450 C   0  0  0  0  0  0  0  0  0  0  0  0
   -5.9010   11.8850  -31.9840 C   0  0  0  0  0  0  0  0  0  0  0  0
   -6.8090    8.9220  -36.4600 C   0  0  0  0  0  0  0  0  0  0  0  0
   -7.8010   10.3100  -29.5070 O   0  0  0  0  0  0  0  0  0  0  0  0
   -6.2280   11.9150  -29.7100 N   0  0  0  0  0  0  0  0  0  0  0  0
   -5.4330   12.6240  -30.7080 C   0  0  0  0  0  0  0  0  0  0  0  0
   -6.6580    9.7290  -37.6550 O   0  0  0  0  0  0  0  0  0  0  0  0
   -5.8080    8.4980  -35.8980 O   0  0  0  0  0  0  0  0  0  0  0  0
   -5.3610   10.2030  -38.0740 C   0  0  0  0  0  0  0  0  0  0  0  0
   -4.5750    9.1110  -38.7950 C   0  0  0  0  0  0  0  0  0  0  0  0
  1  2  1  0
  1  3  2  0
  2  4  1  0
  4  5  1  1
  4  6  1  0
  7  5  1  0
  6  8  1  0
  6  9  2  0
 10  7  2  0
  8 11  1  0
 11 12  1  0
 11 13  1  6
 12 14  2  0
 12 15  1  0
 13 16  1  0
 15 17  1  0
 16 18  2  0
 16 19  1  0
 17 20  1  1
 17 21  1  0
 22 18  1  0
 23 19  2  0
 24 20  1  6
 21 25  1  0
 21 26  1  1
 22 27  2  0
 27 23  1  0
 24 28  1  0
 24 29  1  0
 25 30  1  0
 28 31  2  0
 28 32  1  0
 33 29  1  0
 30 34  1  0
 30 35  2  0
 32 33  1  0
 36 34  1  0
 36 37  1  0
V   26 *
A    2
 N21
A    3
 O19
A    4
 C23
A    5
 C25
A    6
 C31
A    8
 N33
A    9
 O35
A   10
 O1 
A   11
 C37
A   12
 C39
A   13
 C41
A   14
 O47
A   15
 N49
A   16
 C51
A   17
 C57
A   18
 C53
A   19
 C55
A   20
 C59
A   21
 C63
A   22
 C7 
A   23
 C11
A   24
 C61
A   25
 C82
A   26
 X  
A   27
 C9 
A   28
 C65
A   29
 C73
A   30
 C84
A   31
 O66
A   32
 N69
A   33
 C71
A   34
 O86
A   35
 O88
A   36
 C3 
A   37
 C5 
M  END
>  <XChem_code>  (170) 
G83§1

>  <Occupancy>  (170) 
[1.0, 1.0, 1.0, 1.0, 1.0, 1.0, 1.0, 1.0, 1.0, 1.0, 1.0, 1.0, 1.0, 1.0, 1.0, 1.0, 1.0, 1.0, 1.0, 1.0, 1.0, 1.0, 1.0, 1.0, 1.0, 1.0, 1.0, 1.0, 1.0, 1.0, 1.0, 1.0, 1.0, 1.0, 1.0, 1.0, 1.0, 1.0, 1.0, 1.0, 1.0, 1.0, 1.0, 1.0, 1.0, 1.0, 1.0, 1.0, 1.0, 1.0]

>  <TempFactor>  (170) 
[21.5, 44.89, 24.36, 42.16, 38.25, 23.95, 40.64, 20.41, 29.29, 22.5, 27.31, 23.15, 28.56, 41.84, 29.6, 38.53, 33.37, 31.58, 30.86, 27.88, 28.97, 31.52, 43.05, 27.66, 27.42, 21.95, 25.67, 24.02, 25.01, 43.36, 43.87, 19.31, 17.05, 26.62, 26.73, 28.95, 20.4, 17.34, 20.74, 21.57, 21.69, 20.06, 20.47, 18.67, 21.64, 27.5, 29.51, 35.17, 31.37, 18.86]

>  <accession>  (170) 
3ZZC_A

>  <description>  (170) 
Chain A, 3C PROTEINASE [Coxsackievirus B3]

>  <evalue>  (170) 
7.4865399999999999e-87

>  <pdb_code>  (170) 
3ZZC

>  <chain>  (170) 
A

>  <ligands>  (170) 
[{'chain_id': 'A', 'author_residue_number': 1181, 'author_insertion_code': '', 'chem_comp_id': 'G83', 'alternate_conformers': 0, 'entity_id': 2, 'struct_asym_id': 'B', 'residue_number': 1, 'chem_comp_name': 'ETHYL (5S,8S,11R)-8-BENZYL-5-(2-TERT-BUTOXY-2-OXOETHYL)-3,6,9-TRIOXO-11-{[(3S)-2-OXOPYRROLIDIN-3-YL]METHYL}-1-PHENYL-2-OXA-4,7,10-TRIAZATETRADECAN-14-OATE', 'weight': 680.788, 'carbohydrate_polymer': False, 'branch_name': ''}]

>  <ligand_codes>  (170) 
['G83']

>  <cofactor_codes>  (170) 
[]

>  <has_cofactor>  (170) 
False

>  <covalent>  (170) 
True

>  <base_name>  (170) 
3ZZC

>  <lig_resn>  (170) 
G83

>  <lig_resi>  (170) 
1181

>  <lig_chain>  (170) 
A

>  <lig_segi>  (170) 
B

>  <lig_alt>  (170) 


>  <polymer_chain>  (170) 
A

>  <single_smiles>  (170) 
CCOC(=O)CC[C@H](C[C@@H]1CCNC1=O)NC(=O)[C@H](Cc2ccccc2)NC(=O)[C@H](CC(=O)OC(C)(C)C)NC(=O)OCc3ccccc3

$$$$
G83P1S12
     RDKit          3D

 17 17  0  0  0  0  0  0  0  0999 V2000
   -9.0700   14.7310  -33.4520 C   0  0  0  0  0  0  0  0  0  0  0  0
   -8.5890   16.1350  -33.2460 C   0  0  2  0  0  0  0  0  0  0  0  0
   -9.1660   13.9920  -32.4630 O   0  0  0  0  0  0  0  0  0  0  0  0
   -7.0940   15.9700  -33.0860 C   0  0  0  0  0  0  0  0  0  0  0  0
   -8.9270   16.6710  -31.9560 N   0  0  0  0  0  0  0  0  0  0  0  0
   -6.3360   17.1850  -33.4620 C   0  0  0  0  0  0  0  0  0  0  0  0
   -9.6140   17.8180  -31.9050 C   0  0  0  0  0  0  0  0  0  0  0  0
   -6.4670   17.7660  -34.5460 O   0  0  0  0  0  0  0  0  0  0  0  0
   -9.9650   18.3270  -30.5810 O   0  0  0  0  0  0  0  0  0  0  0  0
   -9.9760   18.4340  -32.9180 O   0  0  0  0  0  0  0  0  0  0  0  0
  -10.3020   19.6950  -30.3210 C   0  0  0  0  0  0  0  0  0  0  0  0
  -10.4040   19.8340  -28.8340 C   0  0  0  0  0  0  0  0  0  0  0  0
   -9.6890   20.8420  -28.1960 C   0  0  0  0  0  0  0  0  0  0  0  0
  -11.1970   18.9310  -28.1220 C   0  0  0  0  0  0  0  0  0  0  0  0
   -9.7810   20.9510  -26.7880 C   0  0  0  0  0  0  0  0  0  0  0  0
  -11.3130   19.0390  -26.7440 C   0  0  0  0  0  0  0  0  0  0  0  0
  -10.5960   20.0640  -26.0750 C   0  0  0  0  0  0  0  0  0  0  0  0
  2  1  1  0
  1  3  2  0
  2  4  1  1
  5  2  1  0
  6  4  1  0
  7  5  1  0
  8  6  2  0
  9  7  1  0
  7 10  2  0
 11  9  1  0
 12 11  1  0
 13 12  2  0
 12 14  1  0
 15 13  1  0
 14 16  2  0
 15 17  2  0
 16 17  1  0
A    2
 C23
A    3
 O35
A    4
 C25
A    5
 N21
A    7
 C17
A    8
 O1 
A    9
 O15
A   10
 O19
A   11
 C13
A   12
 C4 
A   13
 C2 
A   14
 C6 
A   15
 C1 
A   16
 C8 
A   17
 C10
M  END
>  <XChem_code>  (171) 
G83§1

>  <Occupancy>  (171) 
[1.0, 1.0, 1.0, 1.0, 1.0, 1.0, 1.0, 1.0, 1.0, 1.0, 1.0, 1.0, 1.0, 1.0, 1.0, 1.0, 1.0, 1.0, 1.0, 1.0, 1.0, 1.0, 1.0, 1.0, 1.0, 1.0, 1.0, 1.0, 1.0, 1.0, 1.0, 1.0, 1.0, 1.0, 1.0, 1.0, 1.0, 1.0, 1.0, 1.0, 1.0, 1.0, 1.0, 1.0, 1.0, 1.0, 1.0, 1.0, 1.0, 1.0]

>  <TempFactor>  (171) 
[21.5, 44.89, 24.36, 42.16, 38.25, 23.95, 40.64, 20.41, 29.29, 22.5, 27.31, 23.15, 28.56, 41.84, 29.6, 38.53, 33.37, 31.58, 30.86, 27.88, 28.97, 31.52, 43.05, 27.66, 27.42, 21.95, 25.67, 24.02, 25.01, 43.36, 43.87, 19.31, 17.05, 26.62, 26.73, 28.95, 20.4, 17.34, 20.74, 21.57, 21.69, 20.06, 20.47, 18.67, 21.64, 27.5, 29.51, 35.17, 31.37, 18.86]

>  <accession>  (171) 
3ZZC_A

>  <description>  (171) 
Chain A, 3C PROTEINASE [Coxsackievirus B3]

>  <evalue>  (171) 
7.4865399999999999e-87

>  <pdb_code>  (171) 
3ZZC

>  <chain>  (171) 
A

>  <ligands>  (171) 
[{'chain_id': 'A', 'author_residue_number': 1181, 'author_insertion_code': '', 'chem_comp_id': 'G83', 'alternate_conformers': 0, 'entity_id': 2, 'struct_asym_id': 'B', 'residue_number': 1, 'chem_comp_name': 'ETHYL (5S,8S,11R)-8-BENZYL-5-(2-TERT-BUTOXY-2-OXOETHYL)-3,6,9-TRIOXO-11-{[(3S)-2-OXOPYRROLIDIN-3-YL]METHYL}-1-PHENYL-2-OXA-4,7,10-TRIAZATETRADECAN-14-OATE', 'weight': 680.788, 'carbohydrate_polymer': False, 'branch_name': ''}]

>  <ligand_codes>  (171) 
['G83']

>  <cofactor_codes>  (171) 
[]

>  <has_cofactor>  (171) 
False

>  <covalent>  (171) 
True

>  <base_name>  (171) 
3ZZC

>  <lig_resn>  (171) 
G83

>  <lig_resi>  (171) 
1181

>  <lig_chain>  (171) 
A

>  <lig_segi>  (171) 
B

>  <lig_alt>  (171) 


>  <polymer_chain>  (171) 
A

>  <single_smiles>  (171) 
CCOC(=O)CC[C@H](C[C@@H]1CCNC1=O)NC(=O)[C@H](Cc2ccccc2)NC(=O)[C@H](CC(=O)OC(C)(C)C)NC(=O)OCc3ccccc3

$$$$
G83P1S13
     RDKit          3D

 35 36  0  0  0  0  0  0  0  0999 V2000
   -8.9270   16.6710  -31.9560 N   0  0  0  0  0  0  0  0  0  0  0  0
   -8.5890   16.1350  -33.2460 C   0  0  1  0  0  0  0  0  0  0  0  0
   -7.0940   15.9700  -33.0860 C   0  0  0  0  0  0  0  0  0  0  0  0
   -9.0700   14.7310  -33.4520 C   0  0  0  0  0  0  0  0  0  0  0  0
   -6.3360   17.1850  -33.4620 C   0  0  0  0  0  0  0  0  0  0  0  0
   -9.2610   14.3500  -34.7310 N   0  0  0  0  0  0  0  0  0  0  0  0
   -9.1660   13.9920  -32.4630 O   0  0  0  0  0  0  0  0  0  0  0  0
   -6.4670   17.7660  -34.5460 O   0  0  0  0  0  0  0  0  0  0  0  0
   -9.6510   12.9770  -35.0820 C   0  0  2  0  0  0  0  0  0  0  0  0
   -8.4620   12.0930  -34.7840 C   0  0  0  0  0  0  0  0  0  0  0  0
   -9.8940   12.8970  -36.5940 C   0  0  0  0  0  0  0  0  0  0  0  0
   -7.3180   12.4750  -35.0590 O   0  0  0  0  0  0  0  0  0  0  0  0
   -8.7450   10.9170  -34.2200 N   0  0  0  0  0  0  0  0  0  0  0  0
  -11.1210   13.7000  -36.9770 C   0  0  0  0  0  0  0  0  0  0  0  0
   -7.7310    9.9410  -33.8290 C   0  0  1  0  0  0  0  0  0  0  0  0
  -12.3400   13.5180  -36.3250 C   0  0  0  0  0  0  0  0  0  0  0  0
  -11.0320   14.6580  -38.0030 C   0  0  0  0  0  0  0  0  0  0  0  0
   -7.6750    9.9230  -32.2970 C   0  0  0  0  0  0  0  0  0  0  0  0
   -8.1830    8.5770  -34.4040 C   0  0  2  0  0  0  0  0  0  0  0  0
  -13.4670   14.3010  -36.6620 C   0  0  0  0  0  0  0  0  0  0  0  0
  -12.1840   15.4150  -38.3560 C   0  0  0  0  0  0  0  0  0  0  0  0
   -7.2530   11.2580  -31.6380 C   0  0  1  0  0  0  0  0  0  0  0  0
   -8.1980    8.6230  -35.9360 C   0  0  0  0  0  0  0  0  0  0  0  0
   -9.8310    8.1200  -33.8380 R   0  0  0  0  0  0  0  0  0  0  0  0
  -13.4100   15.2640  -37.6860 C   0  0  0  0  0  0  0  0  0  0  0  0
   -7.1040   11.1020  -30.1450 C   0  0  0  0  0  0  0  0  0  0  0  0
   -5.9010   11.8850  -31.9840 C   0  0  0  0  0  0  0  0  0  0  0  0
   -6.8090    8.9220  -36.4600 C   0  0  0  0  0  0  0  0  0  0  0  0
   -7.8010   10.3100  -29.5070 O   0  0  0  0  0  0  0  0  0  0  0  0
   -6.2280   11.9150  -29.7100 N   0  0  0  0  0  0  0  0  0  0  0  0
   -5.4330   12.6240  -30.7080 C   0  0  0  0  0  0  0  0  0  0  0  0
   -6.6580    9.7290  -37.6550 O   0  0  0  0  0  0  0  0  0  0  0  0
   -5.8080    8.4980  -35.8980 O   0  0  0  0  0  0  0  0  0  0  0  0
   -5.3610   10.2030  -38.0740 C   0  0  0  0  0  0  0  0  0  0  0  0
   -4.5750    9.1110  -38.7950 C   0  0  0  0  0  0  0  0  0  0  0  0
  2  1  1  1
  2  3  1  0
  2  4  1  0
  5  3  1  0
  4  6  1  0
  4  7  2  0
  8  5  2  0
  6  9  1  0
  9 10  1  0
  9 11  1  6
 10 12  2  0
 10 13  1  0
 11 14  1  0
 13 15  1  0
 14 16  2  0
 14 17  1  0
 15 18  1  1
 15 19  1  0
 20 16  1  0
 21 17  2  0
 22 18  1  6
 19 23  1  0
 19 24  1  1
 20 25  2  0
 25 21  1  0
 22 26  1  0
 22 27  1  0
 23 28  1  0
 26 29  2  0
 26 30  1  0
 31 27  1  0
 28 32  1  0
 28 33  2  0
 30 31  1  0
 34 32  1  0
 34 35  1  0
V   24 *
A    2
 C23
A    3
 C25
A    4
 C31
A    6
 N33
A    7
 O35
A    8
 O1 
A    9
 C37
A   10
 C39
A   11
 C41
A   12
 O47
A   13
 N49
A   14
 C51
A   15
 C57
A   16
 C53
A   17
 C55
A   18
 C59
A   19
 C63
A   20
 C7 
A   21
 C11
A   22
 C61
A   23
 C82
A   24
 X  
A   25
 C9 
A   26
 C65
A   27
 C73
A   28
 C84
A   29
 O66
A   30
 N69
A   31
 C71
A   32
 O86
A   33
 O88
A   34
 C3 
A   35
 C5 
M  END
>  <XChem_code>  (172) 
G83§1

>  <Occupancy>  (172) 
[1.0, 1.0, 1.0, 1.0, 1.0, 1.0, 1.0, 1.0, 1.0, 1.0, 1.0, 1.0, 1.0, 1.0, 1.0, 1.0, 1.0, 1.0, 1.0, 1.0, 1.0, 1.0, 1.0, 1.0, 1.0, 1.0, 1.0, 1.0, 1.0, 1.0, 1.0, 1.0, 1.0, 1.0, 1.0, 1.0, 1.0, 1.0, 1.0, 1.0, 1.0, 1.0, 1.0, 1.0, 1.0, 1.0, 1.0, 1.0, 1.0, 1.0]

>  <TempFactor>  (172) 
[21.5, 44.89, 24.36, 42.16, 38.25, 23.95, 40.64, 20.41, 29.29, 22.5, 27.31, 23.15, 28.56, 41.84, 29.6, 38.53, 33.37, 31.58, 30.86, 27.88, 28.97, 31.52, 43.05, 27.66, 27.42, 21.95, 25.67, 24.02, 25.01, 43.36, 43.87, 19.31, 17.05, 26.62, 26.73, 28.95, 20.4, 17.34, 20.74, 21.57, 21.69, 20.06, 20.47, 18.67, 21.64, 27.5, 29.51, 35.17, 31.37, 18.86]

>  <accession>  (172) 
3ZZC_A

>  <description>  (172) 
Chain A, 3C PROTEINASE [Coxsackievirus B3]

>  <evalue>  (172) 
7.4865399999999999e-87

>  <pdb_code>  (172) 
3ZZC

>  <chain>  (172) 
A

>  <ligands>  (172) 
[{'chain_id': 'A', 'author_residue_number': 1181, 'author_insertion_code': '', 'chem_comp_id': 'G83', 'alternate_conformers': 0, 'entity_id': 2, 'struct_asym_id': 'B', 'residue_number': 1, 'chem_comp_name': 'ETHYL (5S,8S,11R)-8-BENZYL-5-(2-TERT-BUTOXY-2-OXOETHYL)-3,6,9-TRIOXO-11-{[(3S)-2-OXOPYRROLIDIN-3-YL]METHYL}-1-PHENYL-2-OXA-4,7,10-TRIAZATETRADECAN-14-OATE', 'weight': 680.788, 'carbohydrate_polymer': False, 'branch_name': ''}]

>  <ligand_codes>  (172) 
['G83']

>  <cofactor_codes>  (172) 
[]

>  <has_cofactor>  (172) 
False

>  <covalent>  (172) 
True

>  <base_name>  (172) 
3ZZC

>  <lig_resn>  (172) 
G83

>  <lig_resi>  (172) 
1181

>  <lig_chain>  (172) 
A

>  <lig_segi>  (172) 
B

>  <lig_alt>  (172) 


>  <polymer_chain>  (172) 
A

>  <single_smiles>  (172) 
CCOC(=O)CC[C@H](C[C@@H]1CCNC1=O)NC(=O)[C@H](Cc2ccccc2)NC(=O)[C@H](CC(=O)OC(C)(C)C)NC(=O)OCc3ccccc3

$$$$
G83P1S14
     RDKit          3D

 28 29  0  0  0  0  0  0  0  0999 V2000
   -8.4620   12.0930  -34.7840 C   0  0  0  0  0  0  0  0  0  0  0  0
   -9.6510   12.9770  -35.0820 C   0  0  1  0  0  0  0  0  0  0  0  0
   -7.3180   12.4750  -35.0590 O   0  0  0  0  0  0  0  0  0  0  0  0
   -9.2610   14.3500  -34.7310 N   0  0  0  0  0  0  0  0  0  0  0  0
   -9.8940   12.8970  -36.5940 C   0  0  0  0  0  0  0  0  0  0  0  0
   -9.0700   14.7310  -33.4520 C   0  0  0  0  0  0  0  0  0  0  0  0
  -11.1210   13.7000  -36.9770 C   0  0  0  0  0  0  0  0  0  0  0  0
   -8.5890   16.1350  -33.2460 C   0  0  2  0  0  0  0  0  0  0  0  0
   -9.1660   13.9920  -32.4630 O   0  0  0  0  0  0  0  0  0  0  0  0
  -12.3400   13.5180  -36.3250 C   0  0  0  0  0  0  0  0  0  0  0  0
  -11.0320   14.6580  -38.0030 C   0  0  0  0  0  0  0  0  0  0  0  0
   -7.0940   15.9700  -33.0860 C   0  0  0  0  0  0  0  0  0  0  0  0
   -8.9270   16.6710  -31.9560 N   0  0  0  0  0  0  0  0  0  0  0  0
  -13.4670   14.3010  -36.6620 C   0  0  0  0  0  0  0  0  0  0  0  0
  -12.1840   15.4150  -38.3560 C   0  0  0  0  0  0  0  0  0  0  0  0
   -6.3360   17.1850  -33.4620 C   0  0  0  0  0  0  0  0  0  0  0  0
   -9.6140   17.8180  -31.9050 C   0  0  0  0  0  0  0  0  0  0  0  0
  -13.4100   15.2640  -37.6860 C   0  0  0  0  0  0  0  0  0  0  0  0
   -6.4670   17.7660  -34.5460 O   0  0  0  0  0  0  0  0  0  0  0  0
   -9.9650   18.3270  -30.5810 O   0  0  0  0  0  0  0  0  0  0  0  0
   -9.9760   18.4340  -32.9180 O   0  0  0  0  0  0  0  0  0  0  0  0
  -10.3020   19.6950  -30.3210 C   0  0  0  0  0  0  0  0  0  0  0  0
  -10.4040   19.8340  -28.8340 C   0  0  0  0  0  0  0  0  0  0  0  0
   -9.6890   20.8420  -28.1960 C   0  0  0  0  0  0  0  0  0  0  0  0
  -11.1970   18.9310  -28.1220 C   0  0  0  0  0  0  0  0  0  0  0  0
   -9.7810   20.9510  -26.7880 C   0  0  0  0  0  0  0  0  0  0  0  0
  -11.3130   19.0390  -26.7440 C   0  0  0  0  0  0  0  0  0  0  0  0
  -10.5960   20.0640  -26.0750 C   0  0  0  0  0  0  0  0  0  0  0  0
  2  1  1  0
  1  3  2  0
  4  2  1  0
  2  5  1  6
  6  4  1  0
  5  7  1  0
  8  6  1  0
  6  9  2  0
  7 10  2  0
  7 11  1  0
  8 12  1  1
 13  8  1  0
 14 10  1  0
 15 11  2  0
 16 12  1  0
 17 13  1  0
 14 18  2  0
 18 15  1  0
 19 16  2  0
 20 17  1  0
 17 21  2  0
 22 20  1  0
 23 22  1  0
 24 23  2  0
 23 25  1  0
 26 24  1  0
 25 27  2  0
 26 28  2  0
 27 28  1  0
A    2
 C37
A    3
 O47
A    4
 N33
A    5
 C41
A    6
 C31
A    7
 C51
A    8
 C23
A    9
 O35
A   10
 C53
A   11
 C55
A   12
 C25
A   13
 N21
A   14
 C7 
A   15
 C11
A   17
 C17
A   18
 C9 
A   19
 O1 
A   20
 O15
A   21
 O19
A   22
 C13
A   23
 C4 
A   24
 C2 
A   25
 C6 
A   26
 C1 
A   27
 C8 
A   28
 C10
M  END
>  <XChem_code>  (173) 
G83§1

>  <Occupancy>  (173) 
[1.0, 1.0, 1.0, 1.0, 1.0, 1.0, 1.0, 1.0, 1.0, 1.0, 1.0, 1.0, 1.0, 1.0, 1.0, 1.0, 1.0, 1.0, 1.0, 1.0, 1.0, 1.0, 1.0, 1.0, 1.0, 1.0, 1.0, 1.0, 1.0, 1.0, 1.0, 1.0, 1.0, 1.0, 1.0, 1.0, 1.0, 1.0, 1.0, 1.0, 1.0, 1.0, 1.0, 1.0, 1.0, 1.0, 1.0, 1.0, 1.0, 1.0]

>  <TempFactor>  (173) 
[21.5, 44.89, 24.36, 42.16, 38.25, 23.95, 40.64, 20.41, 29.29, 22.5, 27.31, 23.15, 28.56, 41.84, 29.6, 38.53, 33.37, 31.58, 30.86, 27.88, 28.97, 31.52, 43.05, 27.66, 27.42, 21.95, 25.67, 24.02, 25.01, 43.36, 43.87, 19.31, 17.05, 26.62, 26.73, 28.95, 20.4, 17.34, 20.74, 21.57, 21.69, 20.06, 20.47, 18.67, 21.64, 27.5, 29.51, 35.17, 31.37, 18.86]

>  <accession>  (173) 
3ZZC_A

>  <description>  (173) 
Chain A, 3C PROTEINASE [Coxsackievirus B3]

>  <evalue>  (173) 
7.4865399999999999e-87

>  <pdb_code>  (173) 
3ZZC

>  <chain>  (173) 
A

>  <ligands>  (173) 
[{'chain_id': 'A', 'author_residue_number': 1181, 'author_insertion_code': '', 'chem_comp_id': 'G83', 'alternate_conformers': 0, 'entity_id': 2, 'struct_asym_id': 'B', 'residue_number': 1, 'chem_comp_name': 'ETHYL (5S,8S,11R)-8-BENZYL-5-(2-TERT-BUTOXY-2-OXOETHYL)-3,6,9-TRIOXO-11-{[(3S)-2-OXOPYRROLIDIN-3-YL]METHYL}-1-PHENYL-2-OXA-4,7,10-TRIAZATETRADECAN-14-OATE', 'weight': 680.788, 'carbohydrate_polymer': False, 'branch_name': ''}]

>  <ligand_codes>  (173) 
['G83']

>  <cofactor_codes>  (173) 
[]

>  <has_cofactor>  (173) 
False

>  <covalent>  (173) 
True

>  <base_name>  (173) 
3ZZC

>  <lig_resn>  (173) 
G83

>  <lig_resi>  (173) 
1181

>  <lig_chain>  (173) 
A

>  <lig_segi>  (173) 
B

>  <lig_alt>  (173) 


>  <polymer_chain>  (173) 
A

>  <single_smiles>  (173) 
CCOC(=O)CC[C@H](C[C@@H]1CCNC1=O)NC(=O)[C@H](Cc2ccccc2)NC(=O)[C@H](CC(=O)OC(C)(C)C)NC(=O)OCc3ccccc3

$$$$
G83P1S15
     RDKit          3D

 14 13  0  0  0  0  0  0  0  0999 V2000
   -9.0700   14.7310  -33.4520 C   0  0  0  0  0  0  0  0  0  0  0  0
   -8.5890   16.1350  -33.2460 C   0  0  1  0  0  0  0  0  0  0  0  0
   -9.1660   13.9920  -32.4630 O   0  0  0  0  0  0  0  0  0  0  0  0
   -8.9270   16.6710  -31.9560 N   0  0  0  0  0  0  0  0  0  0  0  0
   -7.0940   15.9700  -33.0860 C   0  0  0  0  0  0  0  0  0  0  0  0
   -9.6140   17.8180  -31.9050 C   0  0  0  0  0  0  0  0  0  0  0  0
   -6.3360   17.1850  -33.4620 C   0  0  0  0  0  0  0  0  0  0  0  0
   -9.9760   18.4340  -32.9180 O   0  0  0  0  0  0  0  0  0  0  0  0
   -6.4670   17.7660  -34.5460 O   0  0  0  0  0  0  0  0  0  0  0  0
   -5.3760   17.6500  -32.4930 O   0  0  0  0  0  0  0  0  0  0  0  0
   -4.0330   17.1570  -32.4230 C   0  0  0  0  0  0  0  0  0  0  0  0
   -3.6770   16.1600  -33.5370 C   0  0  0  0  0  0  0  0  0  0  0  0
   -3.9520   16.4650  -31.0680 C   0  0  0  0  0  0  0  0  0  0  0  0
   -3.0820   18.3540  -32.5240 C   0  0  0  0  0  0  0  0  0  0  0  0
  2  1  1  0
  1  3  2  0
  4  2  1  0
  2  5  1  1
  6  4  1  0
  7  5  1  0
  6  8  2  0
  9  7  2  0
 10  7  1  0
 10 11  1  0
 11 12  1  0
 11 13  1  0
 11 14  1  0
A    2
 C23
A    3
 O35
A    4
 N21
A    5
 C25
A    7
 C14
A    8
 O19
A    9
 O1 
A   10
 O2 
A   11
 C29
A   12
 C12
A   13
 C43
A   14
 C45
M  END
>  <XChem_code>  (174) 
G83§1

>  <Occupancy>  (174) 
[1.0, 1.0, 1.0, 1.0, 1.0, 1.0, 1.0, 1.0, 1.0, 1.0, 1.0, 1.0, 1.0, 1.0, 1.0, 1.0, 1.0, 1.0, 1.0, 1.0, 1.0, 1.0, 1.0, 1.0, 1.0, 1.0, 1.0, 1.0, 1.0, 1.0, 1.0, 1.0, 1.0, 1.0, 1.0, 1.0, 1.0, 1.0, 1.0, 1.0, 1.0, 1.0, 1.0, 1.0, 1.0, 1.0, 1.0, 1.0, 1.0, 1.0]

>  <TempFactor>  (174) 
[21.5, 44.89, 24.36, 42.16, 38.25, 23.95, 40.64, 20.41, 29.29, 22.5, 27.31, 23.15, 28.56, 41.84, 29.6, 38.53, 33.37, 31.58, 30.86, 27.88, 28.97, 31.52, 43.05, 27.66, 27.42, 21.95, 25.67, 24.02, 25.01, 43.36, 43.87, 19.31, 17.05, 26.62, 26.73, 28.95, 20.4, 17.34, 20.74, 21.57, 21.69, 20.06, 20.47, 18.67, 21.64, 27.5, 29.51, 35.17, 31.37, 18.86]

>  <accession>  (174) 
3ZZC_A

>  <description>  (174) 
Chain A, 3C PROTEINASE [Coxsackievirus B3]

>  <evalue>  (174) 
7.4865399999999999e-87

>  <pdb_code>  (174) 
3ZZC

>  <chain>  (174) 
A

>  <ligands>  (174) 
[{'chain_id': 'A', 'author_residue_number': 1181, 'author_insertion_code': '', 'chem_comp_id': 'G83', 'alternate_conformers': 0, 'entity_id': 2, 'struct_asym_id': 'B', 'residue_number': 1, 'chem_comp_name': 'ETHYL (5S,8S,11R)-8-BENZYL-5-(2-TERT-BUTOXY-2-OXOETHYL)-3,6,9-TRIOXO-11-{[(3S)-2-OXOPYRROLIDIN-3-YL]METHYL}-1-PHENYL-2-OXA-4,7,10-TRIAZATETRADECAN-14-OATE', 'weight': 680.788, 'carbohydrate_polymer': False, 'branch_name': ''}]

>  <ligand_codes>  (174) 
['G83']

>  <cofactor_codes>  (174) 
[]

>  <has_cofactor>  (174) 
False

>  <covalent>  (174) 
True

>  <base_name>  (174) 
3ZZC

>  <lig_resn>  (174) 
G83

>  <lig_resi>  (174) 
1181

>  <lig_chain>  (174) 
A

>  <lig_segi>  (174) 
B

>  <lig_alt>  (174) 


>  <polymer_chain>  (174) 
A

>  <single_smiles>  (174) 
CCOC(=O)CC[C@H](C[C@@H]1CCNC1=O)NC(=O)[C@H](Cc2ccccc2)NC(=O)[C@H](CC(=O)OC(C)(C)C)NC(=O)OCc3ccccc3

$$$$
G83P1S16
     RDKit          3D

 25 25  0  0  0  0  0  0  0  0999 V2000
   -8.4620   12.0930  -34.7840 C   0  0  0  0  0  0  0  0  0  0  0  0
   -9.6510   12.9770  -35.0820 C   0  0  1  0  0  0  0  0  0  0  0  0
   -7.3180   12.4750  -35.0590 O   0  0  0  0  0  0  0  0  0  0  0  0
   -9.2610   14.3500  -34.7310 N   0  0  0  0  0  0  0  0  0  0  0  0
   -9.8940   12.8970  -36.5940 C   0  0  0  0  0  0  0  0  0  0  0  0
   -9.0700   14.7310  -33.4520 C   0  0  0  0  0  0  0  0  0  0  0  0
  -11.1210   13.7000  -36.9770 C   0  0  0  0  0  0  0  0  0  0  0  0
   -8.5890   16.1350  -33.2460 C   0  0  1  0  0  0  0  0  0  0  0  0
   -9.1660   13.9920  -32.4630 O   0  0  0  0  0  0  0  0  0  0  0  0
  -12.3400   13.5180  -36.3250 C   0  0  0  0  0  0  0  0  0  0  0  0
  -11.0320   14.6580  -38.0030 C   0  0  0  0  0  0  0  0  0  0  0  0
   -8.9270   16.6710  -31.9560 N   0  0  0  0  0  0  0  0  0  0  0  0
   -7.0940   15.9700  -33.0860 C   0  0  0  0  0  0  0  0  0  0  0  0
  -13.4670   14.3010  -36.6620 C   0  0  0  0  0  0  0  0  0  0  0  0
  -12.1840   15.4150  -38.3560 C   0  0  0  0  0  0  0  0  0  0  0  0
   -9.6140   17.8180  -31.9050 C   0  0  0  0  0  0  0  0  0  0  0  0
   -6.3360   17.1850  -33.4620 C   0  0  0  0  0  0  0  0  0  0  0  0
  -13.4100   15.2640  -37.6860 C   0  0  0  0  0  0  0  0  0  0  0  0
   -9.9760   18.4340  -32.9180 O   0  0  0  0  0  0  0  0  0  0  0  0
   -6.4670   17.7660  -34.5460 O   0  0  0  0  0  0  0  0  0  0  0  0
   -5.3760   17.6500  -32.4930 O   0  0  0  0  0  0  0  0  0  0  0  0
   -4.0330   17.1570  -32.4230 C   0  0  0  0  0  0  0  0  0  0  0  0
   -3.6770   16.1600  -33.5370 C   0  0  0  0  0  0  0  0  0  0  0  0
   -3.9520   16.4650  -31.0680 C   0  0  0  0  0  0  0  0  0  0  0  0
   -3.0820   18.3540  -32.5240 C   0  0  0  0  0  0  0  0  0  0  0  0
  2  1  1  0
  1  3  2  0
  4  2  1  0
  2  5  1  6
  6  4  1  0
  5  7  1  0
  8  6  1  0
  6  9  2  0
  7 10  2  0
  7 11  1  0
 12  8  1  0
  8 13  1  1
 14 10  1  0
 15 11  2  0
 16 12  1  0
 17 13  1  0
 14 18  2  0
 18 15  1  0
 16 19  2  0
 20 17  2  0
 21 17  1  0
 21 22  1  0
 22 23  1  0
 22 24  1  0
 22 25  1  0
A    2
 C37
A    3
 O47
A    4
 N33
A    5
 C41
A    6
 C31
A    7
 C51
A    8
 C23
A    9
 O35
A   10
 C53
A   11
 C55
A   12
 N21
A   13
 C25
A   14
 C7 
A   15
 C11
A   17
 C14
A   18
 C9 
A   19
 O19
A   20
 O1 
A   21
 O2 
A   22
 C29
A   23
 C12
A   24
 C43
A   25
 C45
M  END
>  <XChem_code>  (175) 
G83§1

>  <Occupancy>  (175) 
[1.0, 1.0, 1.0, 1.0, 1.0, 1.0, 1.0, 1.0, 1.0, 1.0, 1.0, 1.0, 1.0, 1.0, 1.0, 1.0, 1.0, 1.0, 1.0, 1.0, 1.0, 1.0, 1.0, 1.0, 1.0, 1.0, 1.0, 1.0, 1.0, 1.0, 1.0, 1.0, 1.0, 1.0, 1.0, 1.0, 1.0, 1.0, 1.0, 1.0, 1.0, 1.0, 1.0, 1.0, 1.0, 1.0, 1.0, 1.0, 1.0, 1.0]

>  <TempFactor>  (175) 
[21.5, 44.89, 24.36, 42.16, 38.25, 23.95, 40.64, 20.41, 29.29, 22.5, 27.31, 23.15, 28.56, 41.84, 29.6, 38.53, 33.37, 31.58, 30.86, 27.88, 28.97, 31.52, 43.05, 27.66, 27.42, 21.95, 25.67, 24.02, 25.01, 43.36, 43.87, 19.31, 17.05, 26.62, 26.73, 28.95, 20.4, 17.34, 20.74, 21.57, 21.69, 20.06, 20.47, 18.67, 21.64, 27.5, 29.51, 35.17, 31.37, 18.86]

>  <accession>  (175) 
3ZZC_A

>  <description>  (175) 
Chain A, 3C PROTEINASE [Coxsackievirus B3]

>  <evalue>  (175) 
7.4865399999999999e-87

>  <pdb_code>  (175) 
3ZZC

>  <chain>  (175) 
A

>  <ligands>  (175) 
[{'chain_id': 'A', 'author_residue_number': 1181, 'author_insertion_code': '', 'chem_comp_id': 'G83', 'alternate_conformers': 0, 'entity_id': 2, 'struct_asym_id': 'B', 'residue_number': 1, 'chem_comp_name': 'ETHYL (5S,8S,11R)-8-BENZYL-5-(2-TERT-BUTOXY-2-OXOETHYL)-3,6,9-TRIOXO-11-{[(3S)-2-OXOPYRROLIDIN-3-YL]METHYL}-1-PHENYL-2-OXA-4,7,10-TRIAZATETRADECAN-14-OATE', 'weight': 680.788, 'carbohydrate_polymer': False, 'branch_name': ''}]

>  <ligand_codes>  (175) 
['G83']

>  <cofactor_codes>  (175) 
[]

>  <has_cofactor>  (175) 
False

>  <covalent>  (175) 
True

>  <base_name>  (175) 
3ZZC

>  <lig_resn>  (175) 
G83

>  <lig_resi>  (175) 
1181

>  <lig_chain>  (175) 
A

>  <lig_segi>  (175) 
B

>  <lig_alt>  (175) 


>  <polymer_chain>  (175) 
A

>  <single_smiles>  (175) 
CCOC(=O)CC[C@H](C[C@@H]1CCNC1=O)NC(=O)[C@H](Cc2ccccc2)NC(=O)[C@H](CC(=O)OC(C)(C)C)NC(=O)OCc3ccccc3

$$$$
G83P1S17
     RDKit          3D

 12 11  0  0  0  0  0  0  0  0999 V2000
   -9.0700   14.7310  -33.4520 C   0  0  0  0  0  0  0  0  0  0  0  0
   -8.5890   16.1350  -33.2460 C   0  0  1  0  0  0  0  0  0  0  0  0
   -9.1660   13.9920  -32.4630 O   0  0  0  0  0  0  0  0  0  0  0  0
   -8.9270   16.6710  -31.9560 N   0  0  0  0  0  0  0  0  0  0  0  0
   -7.0940   15.9700  -33.0860 C   0  0  0  0  0  0  0  0  0  0  0  0
   -6.3360   17.1850  -33.4620 C   0  0  0  0  0  0  0  0  0  0  0  0
   -6.4670   17.7660  -34.5460 O   0  0  0  0  0  0  0  0  0  0  0  0
   -5.3760   17.6500  -32.4930 O   0  0  0  0  0  0  0  0  0  0  0  0
   -4.0330   17.1570  -32.4230 C   0  0  0  0  0  0  0  0  0  0  0  0
   -3.6770   16.1600  -33.5370 C   0  0  0  0  0  0  0  0  0  0  0  0
   -3.9520   16.4650  -31.0680 C   0  0  0  0  0  0  0  0  0  0  0  0
   -3.0820   18.3540  -32.5240 C   0  0  0  0  0  0  0  0  0  0  0  0
  2  1  1  0
  1  3  2  0
  2  4  1  1
  2  5  1  0
  6  5  1  0
  7  6  2  0
  8  6  1  0
  8  9  1  0
  9 10  1  0
  9 11  1  0
  9 12  1  0
A    2
 C23
A    3
 O35
A    5
 C25
A    6
 C14
A    7
 O1 
A    8
 O2 
A    9
 C29
A   10
 C12
A   11
 C43
A   12
 C45
M  END
>  <XChem_code>  (176) 
G83§1

>  <Occupancy>  (176) 
[1.0, 1.0, 1.0, 1.0, 1.0, 1.0, 1.0, 1.0, 1.0, 1.0, 1.0, 1.0, 1.0, 1.0, 1.0, 1.0, 1.0, 1.0, 1.0, 1.0, 1.0, 1.0, 1.0, 1.0, 1.0, 1.0, 1.0, 1.0, 1.0, 1.0, 1.0, 1.0, 1.0, 1.0, 1.0, 1.0, 1.0, 1.0, 1.0, 1.0, 1.0, 1.0, 1.0, 1.0, 1.0, 1.0, 1.0, 1.0, 1.0, 1.0]

>  <TempFactor>  (176) 
[21.5, 44.89, 24.36, 42.16, 38.25, 23.95, 40.64, 20.41, 29.29, 22.5, 27.31, 23.15, 28.56, 41.84, 29.6, 38.53, 33.37, 31.58, 30.86, 27.88, 28.97, 31.52, 43.05, 27.66, 27.42, 21.95, 25.67, 24.02, 25.01, 43.36, 43.87, 19.31, 17.05, 26.62, 26.73, 28.95, 20.4, 17.34, 20.74, 21.57, 21.69, 20.06, 20.47, 18.67, 21.64, 27.5, 29.51, 35.17, 31.37, 18.86]

>  <accession>  (176) 
3ZZC_A

>  <description>  (176) 
Chain A, 3C PROTEINASE [Coxsackievirus B3]

>  <evalue>  (176) 
7.4865399999999999e-87

>  <pdb_code>  (176) 
3ZZC

>  <chain>  (176) 
A

>  <ligands>  (176) 
[{'chain_id': 'A', 'author_residue_number': 1181, 'author_insertion_code': '', 'chem_comp_id': 'G83', 'alternate_conformers': 0, 'entity_id': 2, 'struct_asym_id': 'B', 'residue_number': 1, 'chem_comp_name': 'ETHYL (5S,8S,11R)-8-BENZYL-5-(2-TERT-BUTOXY-2-OXOETHYL)-3,6,9-TRIOXO-11-{[(3S)-2-OXOPYRROLIDIN-3-YL]METHYL}-1-PHENYL-2-OXA-4,7,10-TRIAZATETRADECAN-14-OATE', 'weight': 680.788, 'carbohydrate_polymer': False, 'branch_name': ''}]

>  <ligand_codes>  (176) 
['G83']

>  <cofactor_codes>  (176) 
[]

>  <has_cofactor>  (176) 
False

>  <covalent>  (176) 
True

>  <base_name>  (176) 
3ZZC

>  <lig_resn>  (176) 
G83

>  <lig_resi>  (176) 
1181

>  <lig_chain>  (176) 
A

>  <lig_segi>  (176) 
B

>  <lig_alt>  (176) 


>  <polymer_chain>  (176) 
A

>  <single_smiles>  (176) 
CCOC(=O)CC[C@H](C[C@@H]1CCNC1=O)NC(=O)[C@H](Cc2ccccc2)NC(=O)[C@H](CC(=O)OC(C)(C)C)NC(=O)OCc3ccccc3

$$$$
G83P1S18
     RDKit          3D

 23 23  0  0  0  0  0  0  0  0999 V2000
   -8.4620   12.0930  -34.7840 C   0  0  0  0  0  0  0  0  0  0  0  0
   -9.6510   12.9770  -35.0820 C   0  0  1  0  0  0  0  0  0  0  0  0
   -7.3180   12.4750  -35.0590 O   0  0  0  0  0  0  0  0  0  0  0  0
   -9.2610   14.3500  -34.7310 N   0  0  0  0  0  0  0  0  0  0  0  0
   -9.8940   12.8970  -36.5940 C   0  0  0  0  0  0  0  0  0  0  0  0
   -9.0700   14.7310  -33.4520 C   0  0  0  0  0  0  0  0  0  0  0  0
  -11.1210   13.7000  -36.9770 C   0  0  0  0  0  0  0  0  0  0  0  0
   -8.5890   16.1350  -33.2460 C   0  0  1  0  0  0  0  0  0  0  0  0
   -9.1660   13.9920  -32.4630 O   0  0  0  0  0  0  0  0  0  0  0  0
  -12.3400   13.5180  -36.3250 C   0  0  0  0  0  0  0  0  0  0  0  0
  -11.0320   14.6580  -38.0030 C   0  0  0  0  0  0  0  0  0  0  0  0
   -8.9270   16.6710  -31.9560 N   0  0  0  0  0  0  0  0  0  0  0  0
   -7.0940   15.9700  -33.0860 C   0  0  0  0  0  0  0  0  0  0  0  0
  -13.4670   14.3010  -36.6620 C   0  0  0  0  0  0  0  0  0  0  0  0
  -12.1840   15.4150  -38.3560 C   0  0  0  0  0  0  0  0  0  0  0  0
   -6.3360   17.1850  -33.4620 C   0  0  0  0  0  0  0  0  0  0  0  0
  -13.4100   15.2640  -37.6860 C   0  0  0  0  0  0  0  0  0  0  0  0
   -6.4670   17.7660  -34.5460 O   0  0  0  0  0  0  0  0  0  0  0  0
   -5.3760   17.6500  -32.4930 O   0  0  0  0  0  0  0  0  0  0  0  0
   -4.0330   17.1570  -32.4230 C   0  0  0  0  0  0  0  0  0  0  0  0
   -3.6770   16.1600  -33.5370 C   0  0  0  0  0  0  0  0  0  0  0  0
   -3.9520   16.4650  -31.0680 C   0  0  0  0  0  0  0  0  0  0  0  0
   -3.0820   18.3540  -32.5240 C   0  0  0  0  0  0  0  0  0  0  0  0
  2  1  1  0
  1  3  2  0
  4  2  1  0
  2  5  1  6
  6  4  1  0
  5  7  1  0
  8  6  1  0
  6  9  2  0
  7 10  2  0
  7 11  1  0
  8 12  1  1
  8 13  1  0
 14 10  1  0
 15 11  2  0
 16 13  1  0
 14 17  2  0
 17 15  1  0
 18 16  2  0
 19 16  1  0
 19 20  1  0
 20 21  1  0
 20 22  1  0
 20 23  1  0
A    2
 C37
A    3
 O47
A    4
 N33
A    5
 C41
A    6
 C31
A    7
 C51
A    8
 C23
A    9
 O35
A   10
 C53
A   11
 C55
A   13
 C25
A   14
 C7 
A   15
 C11
A   16
 C14
A   17
 C9 
A   18
 O1 
A   19
 O2 
A   20
 C29
A   21
 C12
A   22
 C43
A   23
 C45
M  END
>  <XChem_code>  (177) 
G83§1

>  <Occupancy>  (177) 
[1.0, 1.0, 1.0, 1.0, 1.0, 1.0, 1.0, 1.0, 1.0, 1.0, 1.0, 1.0, 1.0, 1.0, 1.0, 1.0, 1.0, 1.0, 1.0, 1.0, 1.0, 1.0, 1.0, 1.0, 1.0, 1.0, 1.0, 1.0, 1.0, 1.0, 1.0, 1.0, 1.0, 1.0, 1.0, 1.0, 1.0, 1.0, 1.0, 1.0, 1.0, 1.0, 1.0, 1.0, 1.0, 1.0, 1.0, 1.0, 1.0, 1.0]

>  <TempFactor>  (177) 
[21.5, 44.89, 24.36, 42.16, 38.25, 23.95, 40.64, 20.41, 29.29, 22.5, 27.31, 23.15, 28.56, 41.84, 29.6, 38.53, 33.37, 31.58, 30.86, 27.88, 28.97, 31.52, 43.05, 27.66, 27.42, 21.95, 25.67, 24.02, 25.01, 43.36, 43.87, 19.31, 17.05, 26.62, 26.73, 28.95, 20.4, 17.34, 20.74, 21.57, 21.69, 20.06, 20.47, 18.67, 21.64, 27.5, 29.51, 35.17, 31.37, 18.86]

>  <accession>  (177) 
3ZZC_A

>  <description>  (177) 
Chain A, 3C PROTEINASE [Coxsackievirus B3]

>  <evalue>  (177) 
7.4865399999999999e-87

>  <pdb_code>  (177) 
3ZZC

>  <chain>  (177) 
A

>  <ligands>  (177) 
[{'chain_id': 'A', 'author_residue_number': 1181, 'author_insertion_code': '', 'chem_comp_id': 'G83', 'alternate_conformers': 0, 'entity_id': 2, 'struct_asym_id': 'B', 'residue_number': 1, 'chem_comp_name': 'ETHYL (5S,8S,11R)-8-BENZYL-5-(2-TERT-BUTOXY-2-OXOETHYL)-3,6,9-TRIOXO-11-{[(3S)-2-OXOPYRROLIDIN-3-YL]METHYL}-1-PHENYL-2-OXA-4,7,10-TRIAZATETRADECAN-14-OATE', 'weight': 680.788, 'carbohydrate_polymer': False, 'branch_name': ''}]

>  <ligand_codes>  (177) 
['G83']

>  <cofactor_codes>  (177) 
[]

>  <has_cofactor>  (177) 
False

>  <covalent>  (177) 
True

>  <base_name>  (177) 
3ZZC

>  <lig_resn>  (177) 
G83

>  <lig_resi>  (177) 
1181

>  <lig_chain>  (177) 
A

>  <lig_segi>  (177) 
B

>  <lig_alt>  (177) 


>  <polymer_chain>  (177) 
A

>  <single_smiles>  (177) 
CCOC(=O)CC[C@H](C[C@@H]1CCNC1=O)NC(=O)[C@H](Cc2ccccc2)NC(=O)[C@H](CC(=O)OC(C)(C)C)NC(=O)OCc3ccccc3

$$$$
G83P1S19
     RDKit          3D

 11 11  0  0  0  0  0  0  0  0999 V2000
   -8.4620   12.0930  -34.7840 C   0  0  0  0  0  0  0  0  0  0  0  0
   -9.6510   12.9770  -35.0820 C   0  0  1  0  0  0  0  0  0  0  0  0
   -7.3180   12.4750  -35.0590 O   0  0  0  0  0  0  0  0  0  0  0  0
   -9.2610   14.3500  -34.7310 N   0  0  0  0  0  0  0  0  0  0  0  0
   -9.8940   12.8970  -36.5940 C   0  0  0  0  0  0  0  0  0  0  0  0
  -11.1210   13.7000  -36.9770 C   0  0  0  0  0  0  0  0  0  0  0  0
  -12.3400   13.5180  -36.3250 C   0  0  0  0  0  0  0  0  0  0  0  0
  -11.0320   14.6580  -38.0030 C   0  0  0  0  0  0  0  0  0  0  0  0
  -13.4670   14.3010  -36.6620 C   0  0  0  0  0  0  0  0  0  0  0  0
  -12.1840   15.4150  -38.3560 C   0  0  0  0  0  0  0  0  0  0  0  0
  -13.4100   15.2640  -37.6860 C   0  0  0  0  0  0  0  0  0  0  0  0
  2  1  1  0
  1  3  2  0
  2  4  1  6
  2  5  1  0
  5  6  1  0
  6  7  2  0
  6  8  1  0
  9  7  1  0
 10  8  2  0
  9 11  2  0
 11 10  1  0
A    2
 C37
A    3
 O47
A    5
 C41
A    6
 C51
A    7
 C53
A    8
 C55
A    9
 C7 
A   10
 C11
A   11
 C9 
M  END
>  <XChem_code>  (178) 
G83§1

>  <Occupancy>  (178) 
[1.0, 1.0, 1.0, 1.0, 1.0, 1.0, 1.0, 1.0, 1.0, 1.0, 1.0, 1.0, 1.0, 1.0, 1.0, 1.0, 1.0, 1.0, 1.0, 1.0, 1.0, 1.0, 1.0, 1.0, 1.0, 1.0, 1.0, 1.0, 1.0, 1.0, 1.0, 1.0, 1.0, 1.0, 1.0, 1.0, 1.0, 1.0, 1.0, 1.0, 1.0, 1.0, 1.0, 1.0, 1.0, 1.0, 1.0, 1.0, 1.0, 1.0]

>  <TempFactor>  (178) 
[21.5, 44.89, 24.36, 42.16, 38.25, 23.95, 40.64, 20.41, 29.29, 22.5, 27.31, 23.15, 28.56, 41.84, 29.6, 38.53, 33.37, 31.58, 30.86, 27.88, 28.97, 31.52, 43.05, 27.66, 27.42, 21.95, 25.67, 24.02, 25.01, 43.36, 43.87, 19.31, 17.05, 26.62, 26.73, 28.95, 20.4, 17.34, 20.74, 21.57, 21.69, 20.06, 20.47, 18.67, 21.64, 27.5, 29.51, 35.17, 31.37, 18.86]

>  <accession>  (178) 
3ZZC_A

>  <description>  (178) 
Chain A, 3C PROTEINASE [Coxsackievirus B3]

>  <evalue>  (178) 
7.4865399999999999e-87

>  <pdb_code>  (178) 
3ZZC

>  <chain>  (178) 
A

>  <ligands>  (178) 
[{'chain_id': 'A', 'author_residue_number': 1181, 'author_insertion_code': '', 'chem_comp_id': 'G83', 'alternate_conformers': 0, 'entity_id': 2, 'struct_asym_id': 'B', 'residue_number': 1, 'chem_comp_name': 'ETHYL (5S,8S,11R)-8-BENZYL-5-(2-TERT-BUTOXY-2-OXOETHYL)-3,6,9-TRIOXO-11-{[(3S)-2-OXOPYRROLIDIN-3-YL]METHYL}-1-PHENYL-2-OXA-4,7,10-TRIAZATETRADECAN-14-OATE', 'weight': 680.788, 'carbohydrate_polymer': False, 'branch_name': ''}]

>  <ligand_codes>  (178) 
['G83']

>  <cofactor_codes>  (178) 
[]

>  <has_cofactor>  (178) 
False

>  <covalent>  (178) 
True

>  <base_name>  (178) 
3ZZC

>  <lig_resn>  (178) 
G83

>  <lig_resi>  (178) 
1181

>  <lig_chain>  (178) 
A

>  <lig_segi>  (178) 
B

>  <lig_alt>  (178) 


>  <polymer_chain>  (178) 
A

>  <single_smiles>  (178) 
CCOC(=O)CC[C@H](C[C@@H]1CCNC1=O)NC(=O)[C@H](Cc2ccccc2)NC(=O)[C@H](CC(=O)OC(C)(C)C)NC(=O)OCc3ccccc3

$$$$
G83P1S20
     RDKit          3D

  9  8  0  0  0  0  0  0  0  0999 V2000
   -9.0700   14.7310  -33.4520 C   0  0  0  0  0  0  0  0  0  0  0  0
   -8.5890   16.1350  -33.2460 C   0  0  1  0  0  0  0  0  0  0  0  0
   -9.1660   13.9920  -32.4630 O   0  0  0  0  0  0  0  0  0  0  0  0
   -8.9270   16.6710  -31.9560 N   0  0  0  0  0  0  0  0  0  0  0  0
   -7.0940   15.9700  -33.0860 C   0  0  0  0  0  0  0  0  0  0  0  0
   -9.6140   17.8180  -31.9050 C   0  0  0  0  0  0  0  0  0  0  0  0
   -6.3360   17.1850  -33.4620 C   0  0  0  0  0  0  0  0  0  0  0  0
   -9.9760   18.4340  -32.9180 O   0  0  0  0  0  0  0  0  0  0  0  0
   -6.4670   17.7660  -34.5460 O   0  0  0  0  0  0  0  0  0  0  0  0
  2  1  1  0
  1  3  2  0
  4  2  1  0
  2  5  1  1
  6  4  1  0
  7  5  1  0
  6  8  2  0
  9  7  2  0
A    2
 C23
A    3
 O35
A    4
 N21
A    5
 C25
A    8
 O19
A    9
 O1 
M  END
>  <XChem_code>  (179) 
G83§1

>  <Occupancy>  (179) 
[1.0, 1.0, 1.0, 1.0, 1.0, 1.0, 1.0, 1.0, 1.0, 1.0, 1.0, 1.0, 1.0, 1.0, 1.0, 1.0, 1.0, 1.0, 1.0, 1.0, 1.0, 1.0, 1.0, 1.0, 1.0, 1.0, 1.0, 1.0, 1.0, 1.0, 1.0, 1.0, 1.0, 1.0, 1.0, 1.0, 1.0, 1.0, 1.0, 1.0, 1.0, 1.0, 1.0, 1.0, 1.0, 1.0, 1.0, 1.0, 1.0, 1.0]

>  <TempFactor>  (179) 
[21.5, 44.89, 24.36, 42.16, 38.25, 23.95, 40.64, 20.41, 29.29, 22.5, 27.31, 23.15, 28.56, 41.84, 29.6, 38.53, 33.37, 31.58, 30.86, 27.88, 28.97, 31.52, 43.05, 27.66, 27.42, 21.95, 25.67, 24.02, 25.01, 43.36, 43.87, 19.31, 17.05, 26.62, 26.73, 28.95, 20.4, 17.34, 20.74, 21.57, 21.69, 20.06, 20.47, 18.67, 21.64, 27.5, 29.51, 35.17, 31.37, 18.86]

>  <accession>  (179) 
3ZZC_A

>  <description>  (179) 
Chain A, 3C PROTEINASE [Coxsackievirus B3]

>  <evalue>  (179) 
7.4865399999999999e-87

>  <pdb_code>  (179) 
3ZZC

>  <chain>  (179) 
A

>  <ligands>  (179) 
[{'chain_id': 'A', 'author_residue_number': 1181, 'author_insertion_code': '', 'chem_comp_id': 'G83', 'alternate_conformers': 0, 'entity_id': 2, 'struct_asym_id': 'B', 'residue_number': 1, 'chem_comp_name': 'ETHYL (5S,8S,11R)-8-BENZYL-5-(2-TERT-BUTOXY-2-OXOETHYL)-3,6,9-TRIOXO-11-{[(3S)-2-OXOPYRROLIDIN-3-YL]METHYL}-1-PHENYL-2-OXA-4,7,10-TRIAZATETRADECAN-14-OATE', 'weight': 680.788, 'carbohydrate_polymer': False, 'branch_name': ''}]

>  <ligand_codes>  (179) 
['G83']

>  <cofactor_codes>  (179) 
[]

>  <has_cofactor>  (179) 
False

>  <covalent>  (179) 
True

>  <base_name>  (179) 
3ZZC

>  <lig_resn>  (179) 
G83

>  <lig_resi>  (179) 
1181

>  <lig_chain>  (179) 
A

>  <lig_segi>  (179) 
B

>  <lig_alt>  (179) 


>  <polymer_chain>  (179) 
A

>  <single_smiles>  (179) 
CCOC(=O)CC[C@H](C[C@@H]1CCNC1=O)NC(=O)[C@H](Cc2ccccc2)NC(=O)[C@H](CC(=O)OC(C)(C)C)NC(=O)OCc3ccccc3

$$$$
G83P1S21
     RDKit          3D

 20 20  0  0  0  0  0  0  0  0999 V2000
   -8.4620   12.0930  -34.7840 C   0  0  0  0  0  0  0  0  0  0  0  0
   -9.6510   12.9770  -35.0820 C   0  0  1  0  0  0  0  0  0  0  0  0
   -7.3180   12.4750  -35.0590 O   0  0  0  0  0  0  0  0  0  0  0  0
   -9.2610   14.3500  -34.7310 N   0  0  0  0  0  0  0  0  0  0  0  0
   -9.8940   12.8970  -36.5940 C   0  0  0  0  0  0  0  0  0  0  0  0
   -9.0700   14.7310  -33.4520 C   0  0  0  0  0  0  0  0  0  0  0  0
  -11.1210   13.7000  -36.9770 C   0  0  0  0  0  0  0  0  0  0  0  0
   -8.5890   16.1350  -33.2460 C   0  0  1  0  0  0  0  0  0  0  0  0
   -9.1660   13.9920  -32.4630 O   0  0  0  0  0  0  0  0  0  0  0  0
  -12.3400   13.5180  -36.3250 C   0  0  0  0  0  0  0  0  0  0  0  0
  -11.0320   14.6580  -38.0030 C   0  0  0  0  0  0  0  0  0  0  0  0
   -8.9270   16.6710  -31.9560 N   0  0  0  0  0  0  0  0  0  0  0  0
   -7.0940   15.9700  -33.0860 C   0  0  0  0  0  0  0  0  0  0  0  0
  -13.4670   14.3010  -36.6620 C   0  0  0  0  0  0  0  0  0  0  0  0
  -12.1840   15.4150  -38.3560 C   0  0  0  0  0  0  0  0  0  0  0  0
   -9.6140   17.8180  -31.9050 C   0  0  0  0  0  0  0  0  0  0  0  0
   -6.3360   17.1850  -33.4620 C   0  0  0  0  0  0  0  0  0  0  0  0
  -13.4100   15.2640  -37.6860 C   0  0  0  0  0  0  0  0  0  0  0  0
   -9.9760   18.4340  -32.9180 O   0  0  0  0  0  0  0  0  0  0  0  0
   -6.4670   17.7660  -34.5460 O   0  0  0  0  0  0  0  0  0  0  0  0
  2  1  1  0
  1  3  2  0
  4  2  1  0
  2  5  1  6
  6  4  1  0
  5  7  1  0
  8  6  1  0
  6  9  2  0
  7 10  2  0
  7 11  1  0
 12  8  1  0
  8 13  1  1
 14 10  1  0
 15 11  2  0
 16 12  1  0
 17 13  1  0
 14 18  2  0
 18 15  1  0
 16 19  2  0
 20 17  2  0
A    2
 C37
A    3
 O47
A    4
 N33
A    5
 C41
A    6
 C31
A    7
 C51
A    8
 C23
A    9
 O35
A   10
 C53
A   11
 C55
A   12
 N21
A   13
 C25
A   14
 C7 
A   15
 C11
A   18
 C9 
A   19
 O19
A   20
 O1 
M  END
>  <XChem_code>  (180) 
G83§1

>  <Occupancy>  (180) 
[1.0, 1.0, 1.0, 1.0, 1.0, 1.0, 1.0, 1.0, 1.0, 1.0, 1.0, 1.0, 1.0, 1.0, 1.0, 1.0, 1.0, 1.0, 1.0, 1.0, 1.0, 1.0, 1.0, 1.0, 1.0, 1.0, 1.0, 1.0, 1.0, 1.0, 1.0, 1.0, 1.0, 1.0, 1.0, 1.0, 1.0, 1.0, 1.0, 1.0, 1.0, 1.0, 1.0, 1.0, 1.0, 1.0, 1.0, 1.0, 1.0, 1.0]

>  <TempFactor>  (180) 
[21.5, 44.89, 24.36, 42.16, 38.25, 23.95, 40.64, 20.41, 29.29, 22.5, 27.31, 23.15, 28.56, 41.84, 29.6, 38.53, 33.37, 31.58, 30.86, 27.88, 28.97, 31.52, 43.05, 27.66, 27.42, 21.95, 25.67, 24.02, 25.01, 43.36, 43.87, 19.31, 17.05, 26.62, 26.73, 28.95, 20.4, 17.34, 20.74, 21.57, 21.69, 20.06, 20.47, 18.67, 21.64, 27.5, 29.51, 35.17, 31.37, 18.86]

>  <accession>  (180) 
3ZZC_A

>  <description>  (180) 
Chain A, 3C PROTEINASE [Coxsackievirus B3]

>  <evalue>  (180) 
7.4865399999999999e-87

>  <pdb_code>  (180) 
3ZZC

>  <chain>  (180) 
A

>  <ligands>  (180) 
[{'chain_id': 'A', 'author_residue_number': 1181, 'author_insertion_code': '', 'chem_comp_id': 'G83', 'alternate_conformers': 0, 'entity_id': 2, 'struct_asym_id': 'B', 'residue_number': 1, 'chem_comp_name': 'ETHYL (5S,8S,11R)-8-BENZYL-5-(2-TERT-BUTOXY-2-OXOETHYL)-3,6,9-TRIOXO-11-{[(3S)-2-OXOPYRROLIDIN-3-YL]METHYL}-1-PHENYL-2-OXA-4,7,10-TRIAZATETRADECAN-14-OATE', 'weight': 680.788, 'carbohydrate_polymer': False, 'branch_name': ''}]

>  <ligand_codes>  (180) 
['G83']

>  <cofactor_codes>  (180) 
[]

>  <has_cofactor>  (180) 
False

>  <covalent>  (180) 
True

>  <base_name>  (180) 
3ZZC

>  <lig_resn>  (180) 
G83

>  <lig_resi>  (180) 
1181

>  <lig_chain>  (180) 
A

>  <lig_segi>  (180) 
B

>  <lig_alt>  (180) 


>  <polymer_chain>  (180) 
A

>  <single_smiles>  (180) 
CCOC(=O)CC[C@H](C[C@@H]1CCNC1=O)NC(=O)[C@H](Cc2ccccc2)NC(=O)[C@H](CC(=O)OC(C)(C)C)NC(=O)OCc3ccccc3

$$$$
G83P1S22
     RDKit          3D

  7  6  0  0  0  0  0  0  0  0999 V2000
   -8.9270   16.6710  -31.9560 N   0  0  0  0  0  0  0  0  0  0  0  0
   -8.5890   16.1350  -33.2460 C   0  0  2  0  0  0  0  0  0  0  0  0
   -9.0700   14.7310  -33.4520 C   0  0  0  0  0  0  0  0  0  0  0  0
   -7.0940   15.9700  -33.0860 C   0  0  0  0  0  0  0  0  0  0  0  0
   -9.1660   13.9920  -32.4630 O   0  0  0  0  0  0  0  0  0  0  0  0
   -6.3360   17.1850  -33.4620 C   0  0  0  0  0  0  0  0  0  0  0  0
   -6.4670   17.7660  -34.5460 O   0  0  0  0  0  0  0  0  0  0  0  0
  2  1  1  1
  2  3  1  0
  2  4  1  0
  3  5  2  0
  6  4  1  0
  7  6  2  0
A    2
 C23
A    4
 C25
A    5
 O35
A    7
 O1 
M  END
>  <XChem_code>  (181) 
G83§1

>  <Occupancy>  (181) 
[1.0, 1.0, 1.0, 1.0, 1.0, 1.0, 1.0, 1.0, 1.0, 1.0, 1.0, 1.0, 1.0, 1.0, 1.0, 1.0, 1.0, 1.0, 1.0, 1.0, 1.0, 1.0, 1.0, 1.0, 1.0, 1.0, 1.0, 1.0, 1.0, 1.0, 1.0, 1.0, 1.0, 1.0, 1.0, 1.0, 1.0, 1.0, 1.0, 1.0, 1.0, 1.0, 1.0, 1.0, 1.0, 1.0, 1.0, 1.0, 1.0, 1.0]

>  <TempFactor>  (181) 
[21.5, 44.89, 24.36, 42.16, 38.25, 23.95, 40.64, 20.41, 29.29, 22.5, 27.31, 23.15, 28.56, 41.84, 29.6, 38.53, 33.37, 31.58, 30.86, 27.88, 28.97, 31.52, 43.05, 27.66, 27.42, 21.95, 25.67, 24.02, 25.01, 43.36, 43.87, 19.31, 17.05, 26.62, 26.73, 28.95, 20.4, 17.34, 20.74, 21.57, 21.69, 20.06, 20.47, 18.67, 21.64, 27.5, 29.51, 35.17, 31.37, 18.86]

>  <accession>  (181) 
3ZZC_A

>  <description>  (181) 
Chain A, 3C PROTEINASE [Coxsackievirus B3]

>  <evalue>  (181) 
7.4865399999999999e-87

>  <pdb_code>  (181) 
3ZZC

>  <chain>  (181) 
A

>  <ligands>  (181) 
[{'chain_id': 'A', 'author_residue_number': 1181, 'author_insertion_code': '', 'chem_comp_id': 'G83', 'alternate_conformers': 0, 'entity_id': 2, 'struct_asym_id': 'B', 'residue_number': 1, 'chem_comp_name': 'ETHYL (5S,8S,11R)-8-BENZYL-5-(2-TERT-BUTOXY-2-OXOETHYL)-3,6,9-TRIOXO-11-{[(3S)-2-OXOPYRROLIDIN-3-YL]METHYL}-1-PHENYL-2-OXA-4,7,10-TRIAZATETRADECAN-14-OATE', 'weight': 680.788, 'carbohydrate_polymer': False, 'branch_name': ''}]

>  <ligand_codes>  (181) 
['G83']

>  <cofactor_codes>  (181) 
[]

>  <has_cofactor>  (181) 
False

>  <covalent>  (181) 
True

>  <base_name>  (181) 
3ZZC

>  <lig_resn>  (181) 
G83

>  <lig_resi>  (181) 
1181

>  <lig_chain>  (181) 
A

>  <lig_segi>  (181) 
B

>  <lig_alt>  (181) 


>  <polymer_chain>  (181) 
A

>  <single_smiles>  (181) 
CCOC(=O)CC[C@H](C[C@@H]1CCNC1=O)NC(=O)[C@H](Cc2ccccc2)NC(=O)[C@H](CC(=O)OC(C)(C)C)NC(=O)OCc3ccccc3

$$$$
G83P1S23
     RDKit          3D

 18 18  0  0  0  0  0  0  0  0999 V2000
   -8.4620   12.0930  -34.7840 C   0  0  0  0  0  0  0  0  0  0  0  0
   -9.6510   12.9770  -35.0820 C   0  0  1  0  0  0  0  0  0  0  0  0
   -7.3180   12.4750  -35.0590 O   0  0  0  0  0  0  0  0  0  0  0  0
   -9.2610   14.3500  -34.7310 N   0  0  0  0  0  0  0  0  0  0  0  0
   -9.8940   12.8970  -36.5940 C   0  0  0  0  0  0  0  0  0  0  0  0
   -9.0700   14.7310  -33.4520 C   0  0  0  0  0  0  0  0  0  0  0  0
  -11.1210   13.7000  -36.9770 C   0  0  0  0  0  0  0  0  0  0  0  0
   -8.5890   16.1350  -33.2460 C   0  0  1  0  0  0  0  0  0  0  0  0
   -9.1660   13.9920  -32.4630 O   0  0  0  0  0  0  0  0  0  0  0  0
  -12.3400   13.5180  -36.3250 C   0  0  0  0  0  0  0  0  0  0  0  0
  -11.0320   14.6580  -38.0030 C   0  0  0  0  0  0  0  0  0  0  0  0
   -8.9270   16.6710  -31.9560 N   0  0  0  0  0  0  0  0  0  0  0  0
   -7.0940   15.9700  -33.0860 C   0  0  0  0  0  0  0  0  0  0  0  0
  -13.4670   14.3010  -36.6620 C   0  0  0  0  0  0  0  0  0  0  0  0
  -12.1840   15.4150  -38.3560 C   0  0  0  0  0  0  0  0  0  0  0  0
   -6.3360   17.1850  -33.4620 C   0  0  0  0  0  0  0  0  0  0  0  0
  -13.4100   15.2640  -37.6860 C   0  0  0  0  0  0  0  0  0  0  0  0
   -6.4670   17.7660  -34.5460 O   0  0  0  0  0  0  0  0  0  0  0  0
  2  1  1  0
  1  3  2  0
  4  2  1  0
  2  5  1  6
  6  4  1  0
  5  7  1  0
  8  6  1  0
  6  9  2  0
  7 10  2  0
  7 11  1  0
  8 12  1  1
  8 13  1  0
 14 10  1  0
 15 11  2  0
 16 13  1  0
 14 17  2  0
 17 15  1  0
 18 16  2  0
A    2
 C37
A    3
 O47
A    4
 N33
A    5
 C41
A    6
 C31
A    7
 C51
A    8
 C23
A    9
 O35
A   10
 C53
A   11
 C55
A   13
 C25
A   14
 C7 
A   15
 C11
A   17
 C9 
A   18
 O1 
M  END
>  <XChem_code>  (182) 
G83§1

>  <Occupancy>  (182) 
[1.0, 1.0, 1.0, 1.0, 1.0, 1.0, 1.0, 1.0, 1.0, 1.0, 1.0, 1.0, 1.0, 1.0, 1.0, 1.0, 1.0, 1.0, 1.0, 1.0, 1.0, 1.0, 1.0, 1.0, 1.0, 1.0, 1.0, 1.0, 1.0, 1.0, 1.0, 1.0, 1.0, 1.0, 1.0, 1.0, 1.0, 1.0, 1.0, 1.0, 1.0, 1.0, 1.0, 1.0, 1.0, 1.0, 1.0, 1.0, 1.0, 1.0]

>  <TempFactor>  (182) 
[21.5, 44.89, 24.36, 42.16, 38.25, 23.95, 40.64, 20.41, 29.29, 22.5, 27.31, 23.15, 28.56, 41.84, 29.6, 38.53, 33.37, 31.58, 30.86, 27.88, 28.97, 31.52, 43.05, 27.66, 27.42, 21.95, 25.67, 24.02, 25.01, 43.36, 43.87, 19.31, 17.05, 26.62, 26.73, 28.95, 20.4, 17.34, 20.74, 21.57, 21.69, 20.06, 20.47, 18.67, 21.64, 27.5, 29.51, 35.17, 31.37, 18.86]

>  <accession>  (182) 
3ZZC_A

>  <description>  (182) 
Chain A, 3C PROTEINASE [Coxsackievirus B3]

>  <evalue>  (182) 
7.4865399999999999e-87

>  <pdb_code>  (182) 
3ZZC

>  <chain>  (182) 
A

>  <ligands>  (182) 
[{'chain_id': 'A', 'author_residue_number': 1181, 'author_insertion_code': '', 'chem_comp_id': 'G83', 'alternate_conformers': 0, 'entity_id': 2, 'struct_asym_id': 'B', 'residue_number': 1, 'chem_comp_name': 'ETHYL (5S,8S,11R)-8-BENZYL-5-(2-TERT-BUTOXY-2-OXOETHYL)-3,6,9-TRIOXO-11-{[(3S)-2-OXOPYRROLIDIN-3-YL]METHYL}-1-PHENYL-2-OXA-4,7,10-TRIAZATETRADECAN-14-OATE', 'weight': 680.788, 'carbohydrate_polymer': False, 'branch_name': ''}]

>  <ligand_codes>  (182) 
['G83']

>  <cofactor_codes>  (182) 
[]

>  <has_cofactor>  (182) 
False

>  <covalent>  (182) 
True

>  <base_name>  (182) 
3ZZC

>  <lig_resn>  (182) 
G83

>  <lig_resi>  (182) 
1181

>  <lig_chain>  (182) 
A

>  <lig_segi>  (182) 
B

>  <lig_alt>  (182) 


>  <polymer_chain>  (182) 
A

>  <single_smiles>  (182) 
CCOC(=O)CC[C@H](C[C@@H]1CCNC1=O)NC(=O)[C@H](Cc2ccccc2)NC(=O)[C@H](CC(=O)OC(C)(C)C)NC(=O)OCc3ccccc3

$$$$
G83P1S24
     RDKit          3D

  4  3  0  0  0  0  0  0  0  0999 V2000
   -4.0330   17.1570  -32.4230 C   0  0  0  0  0  0  0  0  0  0  0  0
   -3.6770   16.1600  -33.5370 C   0  0  0  0  0  0  0  0  0  0  0  0
   -3.9520   16.4650  -31.0680 C   0  0  0  0  0  0  0  0  0  0  0  0
   -3.0820   18.3540  -32.5240 C   0  0  0  0  0  0  0  0  0  0  0  0
  1  2  1  0
  1  3  1  0
  1  4  1  0
A    2
 C12
A    3
 C43
A    4
 C45
M  END
>  <XChem_code>  (183) 
G83§1

>  <Occupancy>  (183) 
[1.0, 1.0, 1.0, 1.0, 1.0, 1.0, 1.0, 1.0, 1.0, 1.0, 1.0, 1.0, 1.0, 1.0, 1.0, 1.0, 1.0, 1.0, 1.0, 1.0, 1.0, 1.0, 1.0, 1.0, 1.0, 1.0, 1.0, 1.0, 1.0, 1.0, 1.0, 1.0, 1.0, 1.0, 1.0, 1.0, 1.0, 1.0, 1.0, 1.0, 1.0, 1.0, 1.0, 1.0, 1.0, 1.0, 1.0, 1.0, 1.0, 1.0]

>  <TempFactor>  (183) 
[21.5, 44.89, 24.36, 42.16, 38.25, 23.95, 40.64, 20.41, 29.29, 22.5, 27.31, 23.15, 28.56, 41.84, 29.6, 38.53, 33.37, 31.58, 30.86, 27.88, 28.97, 31.52, 43.05, 27.66, 27.42, 21.95, 25.67, 24.02, 25.01, 43.36, 43.87, 19.31, 17.05, 26.62, 26.73, 28.95, 20.4, 17.34, 20.74, 21.57, 21.69, 20.06, 20.47, 18.67, 21.64, 27.5, 29.51, 35.17, 31.37, 18.86]

>  <accession>  (183) 
3ZZC_A

>  <description>  (183) 
Chain A, 3C PROTEINASE [Coxsackievirus B3]

>  <evalue>  (183) 
7.4865399999999999e-87

>  <pdb_code>  (183) 
3ZZC

>  <chain>  (183) 
A

>  <ligands>  (183) 
[{'chain_id': 'A', 'author_residue_number': 1181, 'author_insertion_code': '', 'chem_comp_id': 'G83', 'alternate_conformers': 0, 'entity_id': 2, 'struct_asym_id': 'B', 'residue_number': 1, 'chem_comp_name': 'ETHYL (5S,8S,11R)-8-BENZYL-5-(2-TERT-BUTOXY-2-OXOETHYL)-3,6,9-TRIOXO-11-{[(3S)-2-OXOPYRROLIDIN-3-YL]METHYL}-1-PHENYL-2-OXA-4,7,10-TRIAZATETRADECAN-14-OATE', 'weight': 680.788, 'carbohydrate_polymer': False, 'branch_name': ''}]

>  <ligand_codes>  (183) 
['G83']

>  <cofactor_codes>  (183) 
[]

>  <has_cofactor>  (183) 
False

>  <covalent>  (183) 
True

>  <base_name>  (183) 
3ZZC

>  <lig_resn>  (183) 
G83

>  <lig_resi>  (183) 
1181

>  <lig_chain>  (183) 
A

>  <lig_segi>  (183) 
B

>  <lig_alt>  (183) 


>  <polymer_chain>  (183) 
A

>  <single_smiles>  (183) 
CCOC(=O)CC[C@H](C[C@@H]1CCNC1=O)NC(=O)[C@H](Cc2ccccc2)NC(=O)[C@H](CC(=O)OC(C)(C)C)NC(=O)OCc3ccccc3

$$$$
G83P1S25
     RDKit          3D

 46 48  0  0  0  0  0  0  0  0999 V2000
   -5.3760   17.6500  -32.4930 O   0  0  0  0  0  0  0  0  0  0  0  0
   -6.3360   17.1850  -33.4620 C   0  0  0  0  0  0  0  0  0  0  0  0
   -6.4670   17.7660  -34.5460 O   0  0  0  0  0  0  0  0  0  0  0  0
   -7.0940   15.9700  -33.0860 C   0  0  0  0  0  0  0  0  0  0  0  0
   -8.5890   16.1350  -33.2460 C   0  0  2  0  0  0  0  0  0  0  0  0
   -8.9270   16.6710  -31.9560 N   0  0  0  0  0  0  0  0  0  0  0  0
   -9.0700   14.7310  -33.4520 C   0  0  0  0  0  0  0  0  0  0  0  0
   -9.6140   17.8180  -31.9050 C   0  0  0  0  0  0  0  0  0  0  0  0
   -9.2610   14.3500  -34.7310 N   0  0  0  0  0  0  0  0  0  0  0  0
   -9.1660   13.9920  -32.4630 O   0  0  0  0  0  0  0  0  0  0  0  0
   -9.9650   18.3270  -30.5810 O   0  0  0  0  0  0  0  0  0  0  0  0
   -9.9760   18.4340  -32.9180 O   0  0  0  0  0  0  0  0  0  0  0  0
   -9.6510   12.9770  -35.0820 C   0  0  2  0  0  0  0  0  0  0  0  0
  -10.3020   19.6950  -30.3210 C   0  0  0  0  0  0  0  0  0  0  0  0
   -8.4620   12.0930  -34.7840 C   0  0  0  0  0  0  0  0  0  0  0  0
   -9.8940   12.8970  -36.5940 C   0  0  0  0  0  0  0  0  0  0  0  0
  -10.4040   19.8340  -28.8340 C   0  0  0  0  0  0  0  0  0  0  0  0
   -7.3180   12.4750  -35.0590 O   0  0  0  0  0  0  0  0  0  0  0  0
   -8.7450   10.9170  -34.2200 N   0  0  0  0  0  0  0  0  0  0  0  0
  -11.1210   13.7000  -36.9770 C   0  0  0  0  0  0  0  0  0  0  0  0
   -9.6890   20.8420  -28.1960 C   0  0  0  0  0  0  0  0  0  0  0  0
  -11.1970   18.9310  -28.1220 C   0  0  0  0  0  0  0  0  0  0  0  0
   -7.7310    9.9410  -33.8290 C   0  0  1  0  0  0  0  0  0  0  0  0
  -12.3400   13.5180  -36.3250 C   0  0  0  0  0  0  0  0  0  0  0  0
  -11.0320   14.6580  -38.0030 C   0  0  0  0  0  0  0  0  0  0  0  0
   -9.7810   20.9510  -26.7880 C   0  0  0  0  0  0  0  0  0  0  0  0
  -11.3130   19.0390  -26.7440 C   0  0  0  0  0  0  0  0  0  0  0  0
   -7.6750    9.9230  -32.2970 C   0  0  0  0  0  0  0  0  0  0  0  0
   -8.1830    8.5770  -34.4040 C   0  0  2  0  0  0  0  0  0  0  0  0
  -13.4670   14.3010  -36.6620 C   0  0  0  0  0  0  0  0  0  0  0  0
  -12.1840   15.4150  -38.3560 C   0  0  0  0  0  0  0  0  0  0  0  0
  -10.5960   20.0640  -26.0750 C   0  0  0  0  0  0  0  0  0  0  0  0
   -7.2530   11.2580  -31.6380 C   0  0  1  0  0  0  0  0  0  0  0  0
   -8.1980    8.6230  -35.9360 C   0  0  0  0  0  0  0  0  0  0  0  0
   -9.8310    8.1200  -33.8380 R   0  0  0  0  0  0  0  0  0  0  0  0
  -13.4100   15.2640  -37.6860 C   0  0  0  0  0  0  0  0  0  0  0  0
   -7.1040   11.1020  -30.1450 C   0  0  0  0  0  0  0  0  0  0  0  0
   -5.9010   11.8850  -31.9840 C   0  0  0  0  0  0  0  0  0  0  0  0
   -6.8090    8.9220  -36.4600 C   0  0  0  0  0  0  0  0  0  0  0  0
   -7.8010   10.3100  -29.5070 O   0  0  0  0  0  0  0  0  0  0  0  0
   -6.2280   11.9150  -29.7100 N   0  0  0  0  0  0  0  0  0  0  0  0
   -5.4330   12.6240  -30.7080 C   0  0  0  0  0  0  0  0  0  0  0  0
   -6.6580    9.7290  -37.6550 O   0  0  0  0  0  0  0  0  0  0  0  0
   -5.8080    8.4980  -35.8980 O   0  0  0  0  0  0  0  0  0  0  0  0
   -5.3610   10.2030  -38.0740 C   0  0  0  0  0  0  0  0  0  0  0  0
   -4.5750    9.1110  -38.7950 C   0  0  0  0  0  0  0  0  0  0  0  0
  1  2  1  0
  3  2  2  0
  2  4  1  0
  5  4  1  1
  6  5  1  0
  5  7  1  0
  8  6  1  0
  7  9  1  0
  7 10  2  0
 11  8  1  0
  8 12  2  0
  9 13  1  0
 14 11  1  0
 13 15  1  0
 13 16  1  6
 17 14  1  0
 15 18  2  0
 15 19  1  0
 16 20  1  0
 21 17  2  0
 17 22  1  0
 19 23  1  0
 20 24  2  0
 20 25  1  0
 26 21  1  0
 22 27  2  0
 23 28  1  1
 23 29  1  0
 30 24  1  0
 31 25  2  0
 26 32  2  0
 27 32  1  0
 33 28  1  6
 29 34  1  0
 29 35  1  1
 30 36  2  0
 36 31  1  0
 33 37  1  0
 33 38  1  0
 34 39  1  0
 37 40  2  0
 37 41  1  0
 42 38  1  0
 39 43  1  0
 39 44  2  0
 41 42  1  0
 45 43  1  0
 45 46  1  0
V   35 *
A    2
 C14
A    3
 O1 
A    4
 C25
A    5
 C23
A    6
 N21
A    7
 C31
A    8
 C17
A    9
 N33
A   10
 O35
A   11
 O15
A   12
 O19
A   13
 C37
A   14
 C13
A   15
 C39
A   16
 C41
A   17
 C4 
A   18
 O47
A   19
 N49
A   20
 C51
A   21
 C2 
A   22
 C6 
A   23
 C57
A   24
 C53
A   25
 C55
A   26
 C1 
A   27
 C8 
A   28
 C59
A   29
 C63
A   30
 C7 
A   31
 C11
A   32
 C10
A   33
 C61
A   34
 C82
A   35
 X  
A   36
 C9 
A   37
 C65
A   38
 C73
A   39
 C84
A   40
 O66
A   41
 N69
A   42
 C71
A   43
 O86
A   44
 O88
A   45
 C3 
A   46
 C5 
M  END
>  <XChem_code>  (184) 
G83§1

>  <Occupancy>  (184) 
[1.0, 1.0, 1.0, 1.0, 1.0, 1.0, 1.0, 1.0, 1.0, 1.0, 1.0, 1.0, 1.0, 1.0, 1.0, 1.0, 1.0, 1.0, 1.0, 1.0, 1.0, 1.0, 1.0, 1.0, 1.0, 1.0, 1.0, 1.0, 1.0, 1.0, 1.0, 1.0, 1.0, 1.0, 1.0, 1.0, 1.0, 1.0, 1.0, 1.0, 1.0, 1.0, 1.0, 1.0, 1.0, 1.0, 1.0, 1.0, 1.0, 1.0]

>  <TempFactor>  (184) 
[21.5, 44.89, 24.36, 42.16, 38.25, 23.95, 40.64, 20.41, 29.29, 22.5, 27.31, 23.15, 28.56, 41.84, 29.6, 38.53, 33.37, 31.58, 30.86, 27.88, 28.97, 31.52, 43.05, 27.66, 27.42, 21.95, 25.67, 24.02, 25.01, 43.36, 43.87, 19.31, 17.05, 26.62, 26.73, 28.95, 20.4, 17.34, 20.74, 21.57, 21.69, 20.06, 20.47, 18.67, 21.64, 27.5, 29.51, 35.17, 31.37, 18.86]

>  <accession>  (184) 
3ZZC_A

>  <description>  (184) 
Chain A, 3C PROTEINASE [Coxsackievirus B3]

>  <evalue>  (184) 
7.4865399999999999e-87

>  <pdb_code>  (184) 
3ZZC

>  <chain>  (184) 
A

>  <ligands>  (184) 
[{'chain_id': 'A', 'author_residue_number': 1181, 'author_insertion_code': '', 'chem_comp_id': 'G83', 'alternate_conformers': 0, 'entity_id': 2, 'struct_asym_id': 'B', 'residue_number': 1, 'chem_comp_name': 'ETHYL (5S,8S,11R)-8-BENZYL-5-(2-TERT-BUTOXY-2-OXOETHYL)-3,6,9-TRIOXO-11-{[(3S)-2-OXOPYRROLIDIN-3-YL]METHYL}-1-PHENYL-2-OXA-4,7,10-TRIAZATETRADECAN-14-OATE', 'weight': 680.788, 'carbohydrate_polymer': False, 'branch_name': ''}]

>  <ligand_codes>  (184) 
['G83']

>  <cofactor_codes>  (184) 
[]

>  <has_cofactor>  (184) 
False

>  <covalent>  (184) 
True

>  <base_name>  (184) 
3ZZC

>  <lig_resn>  (184) 
G83

>  <lig_resi>  (184) 
1181

>  <lig_chain>  (184) 
A

>  <lig_segi>  (184) 
B

>  <lig_alt>  (184) 


>  <polymer_chain>  (184) 
A

>  <single_smiles>  (184) 
CCOC(=O)CC[C@H](C[C@@H]1CCNC1=O)NC(=O)[C@H](Cc2ccccc2)NC(=O)[C@H](CC(=O)OC(C)(C)C)NC(=O)OCc3ccccc3

$$$$
G83P1S26
     RDKit          3D

  7  7  0  0  0  0  0  0  0  0999 V2000
  -10.3020   19.6950  -30.3210 C   0  0  0  0  0  0  0  0  0  0  0  0
  -10.4040   19.8340  -28.8340 C   0  0  0  0  0  0  0  0  0  0  0  0
   -9.6890   20.8420  -28.1960 C   0  0  0  0  0  0  0  0  0  0  0  0
  -11.1970   18.9310  -28.1220 C   0  0  0  0  0  0  0  0  0  0  0  0
   -9.7810   20.9510  -26.7880 C   0  0  0  0  0  0  0  0  0  0  0  0
  -11.3130   19.0390  -26.7440 C   0  0  0  0  0  0  0  0  0  0  0  0
  -10.5960   20.0640  -26.0750 C   0  0  0  0  0  0  0  0  0  0  0  0
  2  1  1  0
  3  2  2  0
  2  4  1  0
  5  3  1  0
  4  6  2  0
  5  7  2  0
  6  7  1  0
A    2
 C4 
A    3
 C2 
A    4
 C6 
A    5
 C1 
A    6
 C8 
A    7
 C10
M  END
>  <XChem_code>  (185) 
G83§1

>  <Occupancy>  (185) 
[1.0, 1.0, 1.0, 1.0, 1.0, 1.0, 1.0, 1.0, 1.0, 1.0, 1.0, 1.0, 1.0, 1.0, 1.0, 1.0, 1.0, 1.0, 1.0, 1.0, 1.0, 1.0, 1.0, 1.0, 1.0, 1.0, 1.0, 1.0, 1.0, 1.0, 1.0, 1.0, 1.0, 1.0, 1.0, 1.0, 1.0, 1.0, 1.0, 1.0, 1.0, 1.0, 1.0, 1.0, 1.0, 1.0, 1.0, 1.0, 1.0, 1.0]

>  <TempFactor>  (185) 
[21.5, 44.89, 24.36, 42.16, 38.25, 23.95, 40.64, 20.41, 29.29, 22.5, 27.31, 23.15, 28.56, 41.84, 29.6, 38.53, 33.37, 31.58, 30.86, 27.88, 28.97, 31.52, 43.05, 27.66, 27.42, 21.95, 25.67, 24.02, 25.01, 43.36, 43.87, 19.31, 17.05, 26.62, 26.73, 28.95, 20.4, 17.34, 20.74, 21.57, 21.69, 20.06, 20.47, 18.67, 21.64, 27.5, 29.51, 35.17, 31.37, 18.86]

>  <accession>  (185) 
3ZZC_A

>  <description>  (185) 
Chain A, 3C PROTEINASE [Coxsackievirus B3]

>  <evalue>  (185) 
7.4865399999999999e-87

>  <pdb_code>  (185) 
3ZZC

>  <chain>  (185) 
A

>  <ligands>  (185) 
[{'chain_id': 'A', 'author_residue_number': 1181, 'author_insertion_code': '', 'chem_comp_id': 'G83', 'alternate_conformers': 0, 'entity_id': 2, 'struct_asym_id': 'B', 'residue_number': 1, 'chem_comp_name': 'ETHYL (5S,8S,11R)-8-BENZYL-5-(2-TERT-BUTOXY-2-OXOETHYL)-3,6,9-TRIOXO-11-{[(3S)-2-OXOPYRROLIDIN-3-YL]METHYL}-1-PHENYL-2-OXA-4,7,10-TRIAZATETRADECAN-14-OATE', 'weight': 680.788, 'carbohydrate_polymer': False, 'branch_name': ''}]

>  <ligand_codes>  (185) 
['G83']

>  <cofactor_codes>  (185) 
[]

>  <has_cofactor>  (185) 
False

>  <covalent>  (185) 
True

>  <base_name>  (185) 
3ZZC

>  <lig_resn>  (185) 
G83

>  <lig_resi>  (185) 
1181

>  <lig_chain>  (185) 
A

>  <lig_segi>  (185) 
B

>  <lig_alt>  (185) 


>  <polymer_chain>  (185) 
A

>  <single_smiles>  (185) 
CCOC(=O)CC[C@H](C[C@@H]1CCNC1=O)NC(=O)[C@H](Cc2ccccc2)NC(=O)[C@H](CC(=O)OC(C)(C)C)NC(=O)OCc3ccccc3

$$$$
G83P1S27
     RDKit          3D

 43 44  0  0  0  0  0  0  0  0999 V2000
   -9.9650   18.3270  -30.5810 O   0  0  0  0  0  0  0  0  0  0  0  0
   -9.6140   17.8180  -31.9050 C   0  0  0  0  0  0  0  0  0  0  0  0
   -8.9270   16.6710  -31.9560 N   0  0  0  0  0  0  0  0  0  0  0  0
   -9.9760   18.4340  -32.9180 O   0  0  0  0  0  0  0  0  0  0  0  0
   -8.5890   16.1350  -33.2460 C   0  0  1  0  0  0  0  0  0  0  0  0
   -7.0940   15.9700  -33.0860 C   0  0  0  0  0  0  0  0  0  0  0  0
   -9.0700   14.7310  -33.4520 C   0  0  0  0  0  0  0  0  0  0  0  0
   -6.3360   17.1850  -33.4620 C   0  0  0  0  0  0  0  0  0  0  0  0
   -9.2610   14.3500  -34.7310 N   0  0  0  0  0  0  0  0  0  0  0  0
   -9.1660   13.9920  -32.4630 O   0  0  0  0  0  0  0  0  0  0  0  0
   -6.4670   17.7660  -34.5460 O   0  0  0  0  0  0  0  0  0  0  0  0
   -5.3760   17.6500  -32.4930 O   0  0  0  0  0  0  0  0  0  0  0  0
   -9.6510   12.9770  -35.0820 C   0  0  2  0  0  0  0  0  0  0  0  0
   -4.0330   17.1570  -32.4230 C   0  0  0  0  0  0  0  0  0  0  0  0
   -8.4620   12.0930  -34.7840 C   0  0  0  0  0  0  0  0  0  0  0  0
   -9.8940   12.8970  -36.5940 C   0  0  0  0  0  0  0  0  0  0  0  0
   -3.6770   16.1600  -33.5370 C   0  0  0  0  0  0  0  0  0  0  0  0
   -3.9520   16.4650  -31.0680 C   0  0  0  0  0  0  0  0  0  0  0  0
   -3.0820   18.3540  -32.5240 C   0  0  0  0  0  0  0  0  0  0  0  0
   -7.3180   12.4750  -35.0590 O   0  0  0  0  0  0  0  0  0  0  0  0
   -8.7450   10.9170  -34.2200 N   0  0  0  0  0  0  0  0  0  0  0  0
  -11.1210   13.7000  -36.9770 C   0  0  0  0  0  0  0  0  0  0  0  0
   -7.7310    9.9410  -33.8290 C   0  0  1  0  0  0  0  0  0  0  0  0
  -12.3400   13.5180  -36.3250 C   0  0  0  0  0  0  0  0  0  0  0  0
  -11.0320   14.6580  -38.0030 C   0  0  0  0  0  0  0  0  0  0  0  0
   -7.6750    9.9230  -32.2970 C   0  0  0  0  0  0  0  0  0  0  0  0
   -8.1830    8.5770  -34.4040 C   0  0  2  0  0  0  0  0  0  0  0  0
  -13.4670   14.3010  -36.6620 C   0  0  0  0  0  0  0  0  0  0  0  0
  -12.1840   15.4150  -38.3560 C   0  0  0  0  0  0  0  0  0  0  0  0
   -7.2530   11.2580  -31.6380 C   0  0  1  0  0  0  0  0  0  0  0  0
   -8.1980    8.6230  -35.9360 C   0  0  0  0  0  0  0  0  0  0  0  0
   -9.8310    8.1200  -33.8380 R   0  0  0  0  0  0  0  0  0  0  0  0
  -13.4100   15.2640  -37.6860 C   0  0  0  0  0  0  0  0  0  0  0  0
   -7.1040   11.1020  -30.1450 C   0  0  0  0  0  0  0  0  0  0  0  0
   -5.9010   11.8850  -31.9840 C   0  0  0  0  0  0  0  0  0  0  0  0
   -6.8090    8.9220  -36.4600 C   0  0  0  0  0  0  0  0  0  0  0  0
   -7.8010   10.3100  -29.5070 O   0  0  0  0  0  0  0  0  0  0  0  0
   -6.2280   11.9150  -29.7100 N   0  0  0  0  0  0  0  0  0  0  0  0
   -5.4330   12.6240  -30.7080 C   0  0  0  0  0  0  0  0  0  0  0  0
   -6.6580    9.7290  -37.6550 O   0  0  0  0  0  0  0  0  0  0  0  0
   -5.8080    8.4980  -35.8980 O   0  0  0  0  0  0  0  0  0  0  0  0
   -5.3610   10.2030  -38.0740 C   0  0  0  0  0  0  0  0  0  0  0  0
   -4.5750    9.1110  -38.7950 C   0  0  0  0  0  0  0  0  0  0  0  0
  1  2  1  0
  2  3  1  0
  2  4  2  0
  3  5  1  0
  5  6  1  1
  5  7  1  0
  8  6  1  0
  7  9  1  0
  7 10  2  0
 11  8  2  0
 12  8  1  0
  9 13  1  0
 12 14  1  0
 13 15  1  0
 13 16  1  6
 14 17  1  0
 14 18  1  0
 14 19  1  0
 15 20  2  0
 15 21  1  0
 16 22  1  0
 21 23  1  0
 22 24  2  0
 22 25  1  0
 23 26  1  1
 23 27  1  0
 28 24  1  0
 29 25  2  0
 30 26  1  6
 27 31  1  0
 27 32  1  1
 28 33  2  0
 33 29  1  0
 30 34  1  0
 30 35  1  0
 31 36  1  0
 34 37  2  0
 34 38  1  0
 39 35  1  0
 36 40  1  0
 36 41  2  0
 38 39  1  0
 42 40  1  0
 42 43  1  0
V   32 *
A    2
 C17
A    3
 N21
A    4
 O19
A    5
 C23
A    6
 C25
A    7
 C31
A    8
 C14
A    9
 N33
A   10
 O35
A   11
 O1 
A   12
 O2 
A   13
 C37
A   14
 C29
A   15
 C39
A   16
 C41
A   17
 C12
A   18
 C43
A   19
 C45
A   20
 O47
A   21
 N49
A   22
 C51
A   23
 C57
A   24
 C53
A   25
 C55
A   26
 C59
A   27
 C63
A   28
 C7 
A   29
 C11
A   30
 C61
A   31
 C82
A   32
 X  
A   33
 C9 
A   34
 C65
A   35
 C73
A   36
 C84
A   37
 O66
A   38
 N69
A   39
 C71
A   40
 O86
A   41
 O88
A   42
 C3 
A   43
 C5 
M  END
>  <XChem_code>  (186) 
G83§1

>  <Occupancy>  (186) 
[1.0, 1.0, 1.0, 1.0, 1.0, 1.0, 1.0, 1.0, 1.0, 1.0, 1.0, 1.0, 1.0, 1.0, 1.0, 1.0, 1.0, 1.0, 1.0, 1.0, 1.0, 1.0, 1.0, 1.0, 1.0, 1.0, 1.0, 1.0, 1.0, 1.0, 1.0, 1.0, 1.0, 1.0, 1.0, 1.0, 1.0, 1.0, 1.0, 1.0, 1.0, 1.0, 1.0, 1.0, 1.0, 1.0, 1.0, 1.0, 1.0, 1.0]

>  <TempFactor>  (186) 
[21.5, 44.89, 24.36, 42.16, 38.25, 23.95, 40.64, 20.41, 29.29, 22.5, 27.31, 23.15, 28.56, 41.84, 29.6, 38.53, 33.37, 31.58, 30.86, 27.88, 28.97, 31.52, 43.05, 27.66, 27.42, 21.95, 25.67, 24.02, 25.01, 43.36, 43.87, 19.31, 17.05, 26.62, 26.73, 28.95, 20.4, 17.34, 20.74, 21.57, 21.69, 20.06, 20.47, 18.67, 21.64, 27.5, 29.51, 35.17, 31.37, 18.86]

>  <accession>  (186) 
3ZZC_A

>  <description>  (186) 
Chain A, 3C PROTEINASE [Coxsackievirus B3]

>  <evalue>  (186) 
7.4865399999999999e-87

>  <pdb_code>  (186) 
3ZZC

>  <chain>  (186) 
A

>  <ligands>  (186) 
[{'chain_id': 'A', 'author_residue_number': 1181, 'author_insertion_code': '', 'chem_comp_id': 'G83', 'alternate_conformers': 0, 'entity_id': 2, 'struct_asym_id': 'B', 'residue_number': 1, 'chem_comp_name': 'ETHYL (5S,8S,11R)-8-BENZYL-5-(2-TERT-BUTOXY-2-OXOETHYL)-3,6,9-TRIOXO-11-{[(3S)-2-OXOPYRROLIDIN-3-YL]METHYL}-1-PHENYL-2-OXA-4,7,10-TRIAZATETRADECAN-14-OATE', 'weight': 680.788, 'carbohydrate_polymer': False, 'branch_name': ''}]

>  <ligand_codes>  (186) 
['G83']

>  <cofactor_codes>  (186) 
[]

>  <has_cofactor>  (186) 
False

>  <covalent>  (186) 
True

>  <base_name>  (186) 
3ZZC

>  <lig_resn>  (186) 
G83

>  <lig_resi>  (186) 
1181

>  <lig_chain>  (186) 
A

>  <lig_segi>  (186) 
B

>  <lig_alt>  (186) 


>  <polymer_chain>  (186) 
A

>  <single_smiles>  (186) 
CCOC(=O)CC[C@H](C[C@@H]1CCNC1=O)NC(=O)[C@H](Cc2ccccc2)NC(=O)[C@H](CC(=O)OC(C)(C)C)NC(=O)OCc3ccccc3

$$$$
G83P1S28
     RDKit          3D

 38 39  0  0  0  0  0  0  0  0999 V2000
   -9.9650   18.3270  -30.5810 O   0  0  0  0  0  0  0  0  0  0  0  0
   -9.6140   17.8180  -31.9050 C   0  0  0  0  0  0  0  0  0  0  0  0
   -8.9270   16.6710  -31.9560 N   0  0  0  0  0  0  0  0  0  0  0  0
   -9.9760   18.4340  -32.9180 O   0  0  0  0  0  0  0  0  0  0  0  0
   -8.5890   16.1350  -33.2460 C   0  0  1  0  0  0  0  0  0  0  0  0
   -7.0940   15.9700  -33.0860 C   0  0  0  0  0  0  0  0  0  0  0  0
   -9.0700   14.7310  -33.4520 C   0  0  0  0  0  0  0  0  0  0  0  0
   -6.3360   17.1850  -33.4620 C   0  0  0  0  0  0  0  0  0  0  0  0
   -9.2610   14.3500  -34.7310 N   0  0  0  0  0  0  0  0  0  0  0  0
   -9.1660   13.9920  -32.4630 O   0  0  0  0  0  0  0  0  0  0  0  0
   -6.4670   17.7660  -34.5460 O   0  0  0  0  0  0  0  0  0  0  0  0
   -9.6510   12.9770  -35.0820 C   0  0  2  0  0  0  0  0  0  0  0  0
   -8.4620   12.0930  -34.7840 C   0  0  0  0  0  0  0  0  0  0  0  0
   -9.8940   12.8970  -36.5940 C   0  0  0  0  0  0  0  0  0  0  0  0
   -7.3180   12.4750  -35.0590 O   0  0  0  0  0  0  0  0  0  0  0  0
   -8.7450   10.9170  -34.2200 N   0  0  0  0  0  0  0  0  0  0  0  0
  -11.1210   13.7000  -36.9770 C   0  0  0  0  0  0  0  0  0  0  0  0
   -7.7310    9.9410  -33.8290 C   0  0  1  0  0  0  0  0  0  0  0  0
  -12.3400   13.5180  -36.3250 C   0  0  0  0  0  0  0  0  0  0  0  0
  -11.0320   14.6580  -38.0030 C   0  0  0  0  0  0  0  0  0  0  0  0
   -7.6750    9.9230  -32.2970 C   0  0  0  0  0  0  0  0  0  0  0  0
   -8.1830    8.5770  -34.4040 C   0  0  2  0  0  0  0  0  0  0  0  0
  -13.4670   14.3010  -36.6620 C   0  0  0  0  0  0  0  0  0  0  0  0
  -12.1840   15.4150  -38.3560 C   0  0  0  0  0  0  0  0  0  0  0  0
   -7.2530   11.2580  -31.6380 C   0  0  1  0  0  0  0  0  0  0  0  0
   -8.1980    8.6230  -35.9360 C   0  0  0  0  0  0  0  0  0  0  0  0
   -9.8310    8.1200  -33.8380 R   0  0  0  0  0  0  0  0  0  0  0  0
  -13.4100   15.2640  -37.6860 C   0  0  0  0  0  0  0  0  0  0  0  0
   -7.1040   11.1020  -30.1450 C   0  0  0  0  0  0  0  0  0  0  0  0
   -5.9010   11.8850  -31.9840 C   0  0  0  0  0  0  0  0  0  0  0  0
   -6.8090    8.9220  -36.4600 C   0  0  0  0  0  0  0  0  0  0  0  0
   -7.8010   10.3100  -29.5070 O   0  0  0  0  0  0  0  0  0  0  0  0
   -6.2280   11.9150  -29.7100 N   0  0  0  0  0  0  0  0  0  0  0  0
   -5.4330   12.6240  -30.7080 C   0  0  0  0  0  0  0  0  0  0  0  0
   -6.6580    9.7290  -37.6550 O   0  0  0  0  0  0  0  0  0  0  0  0
   -5.8080    8.4980  -35.8980 O   0  0  0  0  0  0  0  0  0  0  0  0
   -5.3610   10.2030  -38.0740 C   0  0  0  0  0  0  0  0  0  0  0  0
   -4.5750    9.1110  -38.7950 C   0  0  0  0  0  0  0  0  0  0  0  0
  1  2  1  0
  2  3  1  0
  2  4  2  0
  3  5  1  0
  5  6  1  1
  5  7  1  0
  8  6  1  0
  7  9  1  0
  7 10  2  0
 11  8  2  0
  9 12  1  0
 12 13  1  0
 12 14  1  6
 13 15  2  0
 13 16  1  0
 14 17  1  0
 16 18  1  0
 17 19  2  0
 17 20  1  0
 18 21  1  1
 18 22  1  0
 23 19  1  0
 24 20  2  0
 25 21  1  6
 22 26  1  0
 22 27  1  1
 23 28  2  0
 28 24  1  0
 25 29  1  0
 25 30  1  0
 26 31  1  0
 29 32  2  0
 29 33  1  0
 34 30  1  0
 31 35  1  0
 31 36  2  0
 33 34  1  0
 37 35  1  0
 37 38  1  0
V   27 *
A    2
 C17
A    3
 N21
A    4
 O19
A    5
 C23
A    6
 C25
A    7
 C31
A    9
 N33
A   10
 O35
A   11
 O1 
A   12
 C37
A   13
 C39
A   14
 C41
A   15
 O47
A   16
 N49
A   17
 C51
A   18
 C57
A   19
 C53
A   20
 C55
A   21
 C59
A   22
 C63
A   23
 C7 
A   24
 C11
A   25
 C61
A   26
 C82
A   27
 X  
A   28
 C9 
A   29
 C65
A   30
 C73
A   31
 C84
A   32
 O66
A   33
 N69
A   34
 C71
A   35
 O86
A   36
 O88
A   37
 C3 
A   38
 C5 
M  END
>  <XChem_code>  (187) 
G83§1

>  <Occupancy>  (187) 
[1.0, 1.0, 1.0, 1.0, 1.0, 1.0, 1.0, 1.0, 1.0, 1.0, 1.0, 1.0, 1.0, 1.0, 1.0, 1.0, 1.0, 1.0, 1.0, 1.0, 1.0, 1.0, 1.0, 1.0, 1.0, 1.0, 1.0, 1.0, 1.0, 1.0, 1.0, 1.0, 1.0, 1.0, 1.0, 1.0, 1.0, 1.0, 1.0, 1.0, 1.0, 1.0, 1.0, 1.0, 1.0, 1.0, 1.0, 1.0, 1.0, 1.0]

>  <TempFactor>  (187) 
[21.5, 44.89, 24.36, 42.16, 38.25, 23.95, 40.64, 20.41, 29.29, 22.5, 27.31, 23.15, 28.56, 41.84, 29.6, 38.53, 33.37, 31.58, 30.86, 27.88, 28.97, 31.52, 43.05, 27.66, 27.42, 21.95, 25.67, 24.02, 25.01, 43.36, 43.87, 19.31, 17.05, 26.62, 26.73, 28.95, 20.4, 17.34, 20.74, 21.57, 21.69, 20.06, 20.47, 18.67, 21.64, 27.5, 29.51, 35.17, 31.37, 18.86]

>  <accession>  (187) 
3ZZC_A

>  <description>  (187) 
Chain A, 3C PROTEINASE [Coxsackievirus B3]

>  <evalue>  (187) 
7.4865399999999999e-87

>  <pdb_code>  (187) 
3ZZC

>  <chain>  (187) 
A

>  <ligands>  (187) 
[{'chain_id': 'A', 'author_residue_number': 1181, 'author_insertion_code': '', 'chem_comp_id': 'G83', 'alternate_conformers': 0, 'entity_id': 2, 'struct_asym_id': 'B', 'residue_number': 1, 'chem_comp_name': 'ETHYL (5S,8S,11R)-8-BENZYL-5-(2-TERT-BUTOXY-2-OXOETHYL)-3,6,9-TRIOXO-11-{[(3S)-2-OXOPYRROLIDIN-3-YL]METHYL}-1-PHENYL-2-OXA-4,7,10-TRIAZATETRADECAN-14-OATE', 'weight': 680.788, 'carbohydrate_polymer': False, 'branch_name': ''}]

>  <ligand_codes>  (187) 
['G83']

>  <cofactor_codes>  (187) 
[]

>  <has_cofactor>  (187) 
False

>  <covalent>  (187) 
True

>  <base_name>  (187) 
3ZZC

>  <lig_resn>  (187) 
G83

>  <lig_resi>  (187) 
1181

>  <lig_chain>  (187) 
A

>  <lig_segi>  (187) 
B

>  <lig_alt>  (187) 


>  <polymer_chain>  (187) 
A

>  <single_smiles>  (187) 
CCOC(=O)CC[C@H](C[C@@H]1CCNC1=O)NC(=O)[C@H](Cc2ccccc2)NC(=O)[C@H](CC(=O)OC(C)(C)C)NC(=O)OCc3ccccc3

$$$$
G83P1S29
     RDKit          3D

 38 39  0  0  0  0  0  0  0  0999 V2000
   -5.3760   17.6500  -32.4930 O   0  0  0  0  0  0  0  0  0  0  0  0
   -6.3360   17.1850  -33.4620 C   0  0  0  0  0  0  0  0  0  0  0  0
   -7.0940   15.9700  -33.0860 C   0  0  0  0  0  0  0  0  0  0  0  0
   -6.4670   17.7660  -34.5460 O   0  0  0  0  0  0  0  0  0  0  0  0
   -8.5890   16.1350  -33.2460 C   0  0  2  0  0  0  0  0  0  0  0  0
   -8.9270   16.6710  -31.9560 N   0  0  0  0  0  0  0  0  0  0  0  0
   -9.0700   14.7310  -33.4520 C   0  0  0  0  0  0  0  0  0  0  0  0
   -9.6140   17.8180  -31.9050 C   0  0  0  0  0  0  0  0  0  0  0  0
   -9.2610   14.3500  -34.7310 N   0  0  0  0  0  0  0  0  0  0  0  0
   -9.1660   13.9920  -32.4630 O   0  0  0  0  0  0  0  0  0  0  0  0
   -9.9760   18.4340  -32.9180 O   0  0  0  0  0  0  0  0  0  0  0  0
   -9.6510   12.9770  -35.0820 C   0  0  2  0  0  0  0  0  0  0  0  0
   -8.4620   12.0930  -34.7840 C   0  0  0  0  0  0  0  0  0  0  0  0
   -9.8940   12.8970  -36.5940 C   0  0  0  0  0  0  0  0  0  0  0  0
   -7.3180   12.4750  -35.0590 O   0  0  0  0  0  0  0  0  0  0  0  0
   -8.7450   10.9170  -34.2200 N   0  0  0  0  0  0  0  0  0  0  0  0
  -11.1210   13.7000  -36.9770 C   0  0  0  0  0  0  0  0  0  0  0  0
   -7.7310    9.9410  -33.8290 C   0  0  1  0  0  0  0  0  0  0  0  0
  -12.3400   13.5180  -36.3250 C   0  0  0  0  0  0  0  0  0  0  0  0
  -11.0320   14.6580  -38.0030 C   0  0  0  0  0  0  0  0  0  0  0  0
   -7.6750    9.9230  -32.2970 C   0  0  0  0  0  0  0  0  0  0  0  0
   -8.1830    8.5770  -34.4040 C   0  0  2  0  0  0  0  0  0  0  0  0
  -13.4670   14.3010  -36.6620 C   0  0  0  0  0  0  0  0  0  0  0  0
  -12.1840   15.4150  -38.3560 C   0  0  0  0  0  0  0  0  0  0  0  0
   -7.2530   11.2580  -31.6380 C   0  0  1  0  0  0  0  0  0  0  0  0
   -8.1980    8.6230  -35.9360 C   0  0  0  0  0  0  0  0  0  0  0  0
   -9.8310    8.1200  -33.8380 R   0  0  0  0  0  0  0  0  0  0  0  0
  -13.4100   15.2640  -37.6860 C   0  0  0  0  0  0  0  0  0  0  0  0
   -7.1040   11.1020  -30.1450 C   0  0  0  0  0  0  0  0  0  0  0  0
   -5.9010   11.8850  -31.9840 C   0  0  0  0  0  0  0  0  0  0  0  0
   -6.8090    8.9220  -36.4600 C   0  0  0  0  0  0  0  0  0  0  0  0
   -7.8010   10.3100  -29.5070 O   0  0  0  0  0  0  0  0  0  0  0  0
   -6.2280   11.9150  -29.7100 N   0  0  0  0  0  0  0  0  0  0  0  0
   -5.4330   12.6240  -30.7080 C   0  0  0  0  0  0  0  0  0  0  0  0
   -6.6580    9.7290  -37.6550 O   0  0  0  0  0  0  0  0  0  0  0  0
   -5.8080    8.4980  -35.8980 O   0  0  0  0  0  0  0  0  0  0  0  0
   -5.3610   10.2030  -38.0740 C   0  0  0  0  0  0  0  0  0  0  0  0
   -4.5750    9.1110  -38.7950 C   0  0  0  0  0  0  0  0  0  0  0  0
  1  2  1  0
  2  3  1  0
  4  2  2  0
  5  3  1  1
  6  5  1  0
  5  7  1  0
  8  6  1  0
  7  9  1  0
  7 10  2  0
  8 11  2  0
  9 12  1  0
 12 13  1  0
 12 14  1  6
 13 15  2  0
 13 16  1  0
 14 17  1  0
 16 18  1  0
 17 19  2  0
 17 20  1  0
 18 21  1  1
 18 22  1  0
 23 19  1  0
 24 20  2  0
 25 21  1  6
 22 26  1  0
 22 27  1  1
 23 28  2  0
 28 24  1  0
 25 29  1  0
 25 30  1  0
 26 31  1  0
 29 32  2  0
 29 33  1  0
 34 30  1  0
 31 35  1  0
 31 36  2  0
 33 34  1  0
 37 35  1  0
 37 38  1  0
V   27 *
A    2
 C14
A    3
 C25
A    4
 O1 
A    5
 C23
A    6
 N21
A    7
 C31
A    9
 N33
A   10
 O35
A   11
 O19
A   12
 C37
A   13
 C39
A   14
 C41
A   15
 O47
A   16
 N49
A   17
 C51
A   18
 C57
A   19
 C53
A   20
 C55
A   21
 C59
A   22
 C63
A   23
 C7 
A   24
 C11
A   25
 C61
A   26
 C82
A   27
 X  
A   28
 C9 
A   29
 C65
A   30
 C73
A   31
 C84
A   32
 O66
A   33
 N69
A   34
 C71
A   35
 O86
A   36
 O88
A   37
 C3 
A   38
 C5 
M  END
>  <XChem_code>  (188) 
G83§1

>  <Occupancy>  (188) 
[1.0, 1.0, 1.0, 1.0, 1.0, 1.0, 1.0, 1.0, 1.0, 1.0, 1.0, 1.0, 1.0, 1.0, 1.0, 1.0, 1.0, 1.0, 1.0, 1.0, 1.0, 1.0, 1.0, 1.0, 1.0, 1.0, 1.0, 1.0, 1.0, 1.0, 1.0, 1.0, 1.0, 1.0, 1.0, 1.0, 1.0, 1.0, 1.0, 1.0, 1.0, 1.0, 1.0, 1.0, 1.0, 1.0, 1.0, 1.0, 1.0, 1.0]

>  <TempFactor>  (188) 
[21.5, 44.89, 24.36, 42.16, 38.25, 23.95, 40.64, 20.41, 29.29, 22.5, 27.31, 23.15, 28.56, 41.84, 29.6, 38.53, 33.37, 31.58, 30.86, 27.88, 28.97, 31.52, 43.05, 27.66, 27.42, 21.95, 25.67, 24.02, 25.01, 43.36, 43.87, 19.31, 17.05, 26.62, 26.73, 28.95, 20.4, 17.34, 20.74, 21.57, 21.69, 20.06, 20.47, 18.67, 21.64, 27.5, 29.51, 35.17, 31.37, 18.86]

>  <accession>  (188) 
3ZZC_A

>  <description>  (188) 
Chain A, 3C PROTEINASE [Coxsackievirus B3]

>  <evalue>  (188) 
7.4865399999999999e-87

>  <pdb_code>  (188) 
3ZZC

>  <chain>  (188) 
A

>  <ligands>  (188) 
[{'chain_id': 'A', 'author_residue_number': 1181, 'author_insertion_code': '', 'chem_comp_id': 'G83', 'alternate_conformers': 0, 'entity_id': 2, 'struct_asym_id': 'B', 'residue_number': 1, 'chem_comp_name': 'ETHYL (5S,8S,11R)-8-BENZYL-5-(2-TERT-BUTOXY-2-OXOETHYL)-3,6,9-TRIOXO-11-{[(3S)-2-OXOPYRROLIDIN-3-YL]METHYL}-1-PHENYL-2-OXA-4,7,10-TRIAZATETRADECAN-14-OATE', 'weight': 680.788, 'carbohydrate_polymer': False, 'branch_name': ''}]

>  <ligand_codes>  (188) 
['G83']

>  <cofactor_codes>  (188) 
[]

>  <has_cofactor>  (188) 
False

>  <covalent>  (188) 
True

>  <base_name>  (188) 
3ZZC

>  <lig_resn>  (188) 
G83

>  <lig_resi>  (188) 
1181

>  <lig_chain>  (188) 
A

>  <lig_segi>  (188) 
B

>  <lig_alt>  (188) 


>  <polymer_chain>  (188) 
A

>  <single_smiles>  (188) 
CCOC(=O)CC[C@H](C[C@@H]1CCNC1=O)NC(=O)[C@H](Cc2ccccc2)NC(=O)[C@H](CC(=O)OC(C)(C)C)NC(=O)OCc3ccccc3

$$$$
G83P1S30
     RDKit          3D

 36 37  0  0  0  0  0  0  0  0999 V2000
   -5.3760   17.6500  -32.4930 O   0  0  0  0  0  0  0  0  0  0  0  0
   -6.3360   17.1850  -33.4620 C   0  0  0  0  0  0  0  0  0  0  0  0
   -7.0940   15.9700  -33.0860 C   0  0  0  0  0  0  0  0  0  0  0  0
   -6.4670   17.7660  -34.5460 O   0  0  0  0  0  0  0  0  0  0  0  0
   -8.5890   16.1350  -33.2460 C   0  0  2  0  0  0  0  0  0  0  0  0
   -8.9270   16.6710  -31.9560 N   0  0  0  0  0  0  0  0  0  0  0  0
   -9.0700   14.7310  -33.4520 C   0  0  0  0  0  0  0  0  0  0  0  0
   -9.2610   14.3500  -34.7310 N   0  0  0  0  0  0  0  0  0  0  0  0
   -9.1660   13.9920  -32.4630 O   0  0  0  0  0  0  0  0  0  0  0  0
   -9.6510   12.9770  -35.0820 C   0  0  2  0  0  0  0  0  0  0  0  0
   -8.4620   12.0930  -34.7840 C   0  0  0  0  0  0  0  0  0  0  0  0
   -9.8940   12.8970  -36.5940 C   0  0  0  0  0  0  0  0  0  0  0  0
   -7.3180   12.4750  -35.0590 O   0  0  0  0  0  0  0  0  0  0  0  0
   -8.7450   10.9170  -34.2200 N   0  0  0  0  0  0  0  0  0  0  0  0
  -11.1210   13.7000  -36.9770 C   0  0  0  0  0  0  0  0  0  0  0  0
   -7.7310    9.9410  -33.8290 C   0  0  1  0  0  0  0  0  0  0  0  0
  -12.3400   13.5180  -36.3250 C   0  0  0  0  0  0  0  0  0  0  0  0
  -11.0320   14.6580  -38.0030 C   0  0  0  0  0  0  0  0  0  0  0  0
   -7.6750    9.9230  -32.2970 C   0  0  0  0  0  0  0  0  0  0  0  0
   -8.1830    8.5770  -34.4040 C   0  0  2  0  0  0  0  0  0  0  0  0
  -13.4670   14.3010  -36.6620 C   0  0  0  0  0  0  0  0  0  0  0  0
  -12.1840   15.4150  -38.3560 C   0  0  0  0  0  0  0  0  0  0  0  0
   -7.2530   11.2580  -31.6380 C   0  0  1  0  0  0  0  0  0  0  0  0
   -8.1980    8.6230  -35.9360 C   0  0  0  0  0  0  0  0  0  0  0  0
   -9.8310    8.1200  -33.8380 R   0  0  0  0  0  0  0  0  0  0  0  0
  -13.4100   15.2640  -37.6860 C   0  0  0  0  0  0  0  0  0  0  0  0
   -7.1040   11.1020  -30.1450 C   0  0  0  0  0  0  0  0  0  0  0  0
   -5.9010   11.8850  -31.9840 C   0  0  0  0  0  0  0  0  0  0  0  0
   -6.8090    8.9220  -36.4600 C   0  0  0  0  0  0  0  0  0  0  0  0
   -7.8010   10.3100  -29.5070 O   0  0  0  0  0  0  0  0  0  0  0  0
   -6.2280   11.9150  -29.7100 N   0  0  0  0  0  0  0  0  0  0  0  0
   -5.4330   12.6240  -30.7080 C   0  0  0  0  0  0  0  0  0  0  0  0
   -6.6580    9.7290  -37.6550 O   0  0  0  0  0  0  0  0  0  0  0  0
   -5.8080    8.4980  -35.8980 O   0  0  0  0  0  0  0  0  0  0  0  0
   -5.3610   10.2030  -38.0740 C   0  0  0  0  0  0  0  0  0  0  0  0
   -4.5750    9.1110  -38.7950 C   0  0  0  0  0  0  0  0  0  0  0  0
  1  2  1  0
  2  3  1  0
  4  2  2  0
  5  3  1  0
  5  6  1  1
  5  7  1  0
  7  8  1  0
  7  9  2  0
  8 10  1  0
 10 11  1  0
 10 12  1  6
 11 13  2  0
 11 14  1  0
 12 15  1  0
 14 16  1  0
 15 17  2  0
 15 18  1  0
 16 19  1  1
 16 20  1  0
 21 17  1  0
 22 18  2  0
 23 19  1  6
 20 24  1  0
 20 25  1  1
 21 26  2  0
 26 22  1  0
 23 27  1  0
 23 28  1  0
 24 29  1  0
 27 30  2  0
 27 31  1  0
 32 28  1  0
 29 33  1  0
 29 34  2  0
 31 32  1  0
 35 33  1  0
 35 36  1  0
V   25 *
A    2
 C14
A    3
 C25
A    4
 O1 
A    5
 C23
A    7
 C31
A    8
 N33
A    9
 O35
A   10
 C37
A   11
 C39
A   12
 C41
A   13
 O47
A   14
 N49
A   15
 C51
A   16
 C57
A   17
 C53
A   18
 C55
A   19
 C59
A   20
 C63
A   21
 C7 
A   22
 C11
A   23
 C61
A   24
 C82
A   25
 X  
A   26
 C9 
A   27
 C65
A   28
 C73
A   29
 C84
A   30
 O66
A   31
 N69
A   32
 C71
A   33
 O86
A   34
 O88
A   35
 C3 
A   36
 C5 
M  END
>  <XChem_code>  (189) 
G83§1

>  <Occupancy>  (189) 
[1.0, 1.0, 1.0, 1.0, 1.0, 1.0, 1.0, 1.0, 1.0, 1.0, 1.0, 1.0, 1.0, 1.0, 1.0, 1.0, 1.0, 1.0, 1.0, 1.0, 1.0, 1.0, 1.0, 1.0, 1.0, 1.0, 1.0, 1.0, 1.0, 1.0, 1.0, 1.0, 1.0, 1.0, 1.0, 1.0, 1.0, 1.0, 1.0, 1.0, 1.0, 1.0, 1.0, 1.0, 1.0, 1.0, 1.0, 1.0, 1.0, 1.0]

>  <TempFactor>  (189) 
[21.5, 44.89, 24.36, 42.16, 38.25, 23.95, 40.64, 20.41, 29.29, 22.5, 27.31, 23.15, 28.56, 41.84, 29.6, 38.53, 33.37, 31.58, 30.86, 27.88, 28.97, 31.52, 43.05, 27.66, 27.42, 21.95, 25.67, 24.02, 25.01, 43.36, 43.87, 19.31, 17.05, 26.62, 26.73, 28.95, 20.4, 17.34, 20.74, 21.57, 21.69, 20.06, 20.47, 18.67, 21.64, 27.5, 29.51, 35.17, 31.37, 18.86]

>  <accession>  (189) 
3ZZC_A

>  <description>  (189) 
Chain A, 3C PROTEINASE [Coxsackievirus B3]

>  <evalue>  (189) 
7.4865399999999999e-87

>  <pdb_code>  (189) 
3ZZC

>  <chain>  (189) 
A

>  <ligands>  (189) 
[{'chain_id': 'A', 'author_residue_number': 1181, 'author_insertion_code': '', 'chem_comp_id': 'G83', 'alternate_conformers': 0, 'entity_id': 2, 'struct_asym_id': 'B', 'residue_number': 1, 'chem_comp_name': 'ETHYL (5S,8S,11R)-8-BENZYL-5-(2-TERT-BUTOXY-2-OXOETHYL)-3,6,9-TRIOXO-11-{[(3S)-2-OXOPYRROLIDIN-3-YL]METHYL}-1-PHENYL-2-OXA-4,7,10-TRIAZATETRADECAN-14-OATE', 'weight': 680.788, 'carbohydrate_polymer': False, 'branch_name': ''}]

>  <ligand_codes>  (189) 
['G83']

>  <cofactor_codes>  (189) 
[]

>  <has_cofactor>  (189) 
False

>  <covalent>  (189) 
True

>  <base_name>  (189) 
3ZZC

>  <lig_resn>  (189) 
G83

>  <lig_resi>  (189) 
1181

>  <lig_chain>  (189) 
A

>  <lig_segi>  (189) 
B

>  <lig_alt>  (189) 


>  <polymer_chain>  (189) 
A

>  <single_smiles>  (189) 
CCOC(=O)CC[C@H](C[C@@H]1CCNC1=O)NC(=O)[C@H](Cc2ccccc2)NC(=O)[C@H](CC(=O)OC(C)(C)C)NC(=O)OCc3ccccc3

$$$$
G83P1S31
     RDKit          3D

 15 14  0  0  0  0  0  0  0  0999 V2000
   -9.9650   18.3270  -30.5810 O   0  0  0  0  0  0  0  0  0  0  0  0
   -9.6140   17.8180  -31.9050 C   0  0  0  0  0  0  0  0  0  0  0  0
   -8.9270   16.6710  -31.9560 N   0  0  0  0  0  0  0  0  0  0  0  0
   -9.9760   18.4340  -32.9180 O   0  0  0  0  0  0  0  0  0  0  0  0
   -8.5890   16.1350  -33.2460 C   0  0  2  0  0  0  0  0  0  0  0  0
   -9.0700   14.7310  -33.4520 C   0  0  0  0  0  0  0  0  0  0  0  0
   -7.0940   15.9700  -33.0860 C   0  0  0  0  0  0  0  0  0  0  0  0
   -9.1660   13.9920  -32.4630 O   0  0  0  0  0  0  0  0  0  0  0  0
   -6.3360   17.1850  -33.4620 C   0  0  0  0  0  0  0  0  0  0  0  0
   -6.4670   17.7660  -34.5460 O   0  0  0  0  0  0  0  0  0  0  0  0
   -5.3760   17.6500  -32.4930 O   0  0  0  0  0  0  0  0  0  0  0  0
   -4.0330   17.1570  -32.4230 C   0  0  0  0  0  0  0  0  0  0  0  0
   -3.6770   16.1600  -33.5370 C   0  0  0  0  0  0  0  0  0  0  0  0
   -3.9520   16.4650  -31.0680 C   0  0  0  0  0  0  0  0  0  0  0  0
   -3.0820   18.3540  -32.5240 C   0  0  0  0  0  0  0  0  0  0  0  0
  1  2  1  0
  2  3  1  0
  2  4  2  0
  3  5  1  0
  5  6  1  0
  5  7  1  1
  6  8  2  0
  9  7  1  0
 10  9  2  0
 11  9  1  0
 11 12  1  0
 12 13  1  0
 12 14  1  0
 12 15  1  0
A    2
 C17
A    3
 N21
A    4
 O19
A    5
 C23
A    7
 C25
A    8
 O35
A    9
 C14
A   10
 O1 
A   11
 O2 
A   12
 C29
A   13
 C12
A   14
 C43
A   15
 C45
M  END
>  <XChem_code>  (190) 
G83§1

>  <Occupancy>  (190) 
[1.0, 1.0, 1.0, 1.0, 1.0, 1.0, 1.0, 1.0, 1.0, 1.0, 1.0, 1.0, 1.0, 1.0, 1.0, 1.0, 1.0, 1.0, 1.0, 1.0, 1.0, 1.0, 1.0, 1.0, 1.0, 1.0, 1.0, 1.0, 1.0, 1.0, 1.0, 1.0, 1.0, 1.0, 1.0, 1.0, 1.0, 1.0, 1.0, 1.0, 1.0, 1.0, 1.0, 1.0, 1.0, 1.0, 1.0, 1.0, 1.0, 1.0]

>  <TempFactor>  (190) 
[21.5, 44.89, 24.36, 42.16, 38.25, 23.95, 40.64, 20.41, 29.29, 22.5, 27.31, 23.15, 28.56, 41.84, 29.6, 38.53, 33.37, 31.58, 30.86, 27.88, 28.97, 31.52, 43.05, 27.66, 27.42, 21.95, 25.67, 24.02, 25.01, 43.36, 43.87, 19.31, 17.05, 26.62, 26.73, 28.95, 20.4, 17.34, 20.74, 21.57, 21.69, 20.06, 20.47, 18.67, 21.64, 27.5, 29.51, 35.17, 31.37, 18.86]

>  <accession>  (190) 
3ZZC_A

>  <description>  (190) 
Chain A, 3C PROTEINASE [Coxsackievirus B3]

>  <evalue>  (190) 
7.4865399999999999e-87

>  <pdb_code>  (190) 
3ZZC

>  <chain>  (190) 
A

>  <ligands>  (190) 
[{'chain_id': 'A', 'author_residue_number': 1181, 'author_insertion_code': '', 'chem_comp_id': 'G83', 'alternate_conformers': 0, 'entity_id': 2, 'struct_asym_id': 'B', 'residue_number': 1, 'chem_comp_name': 'ETHYL (5S,8S,11R)-8-BENZYL-5-(2-TERT-BUTOXY-2-OXOETHYL)-3,6,9-TRIOXO-11-{[(3S)-2-OXOPYRROLIDIN-3-YL]METHYL}-1-PHENYL-2-OXA-4,7,10-TRIAZATETRADECAN-14-OATE', 'weight': 680.788, 'carbohydrate_polymer': False, 'branch_name': ''}]

>  <ligand_codes>  (190) 
['G83']

>  <cofactor_codes>  (190) 
[]

>  <has_cofactor>  (190) 
False

>  <covalent>  (190) 
True

>  <base_name>  (190) 
3ZZC

>  <lig_resn>  (190) 
G83

>  <lig_resi>  (190) 
1181

>  <lig_chain>  (190) 
A

>  <lig_segi>  (190) 
B

>  <lig_alt>  (190) 


>  <polymer_chain>  (190) 
A

>  <single_smiles>  (190) 
CCOC(=O)CC[C@H](C[C@@H]1CCNC1=O)NC(=O)[C@H](Cc2ccccc2)NC(=O)[C@H](CC(=O)OC(C)(C)C)NC(=O)OCc3ccccc3

$$$$
G83P1S32
     RDKit          3D

 18 18  0  0  0  0  0  0  0  0999 V2000
   -5.3760   17.6500  -32.4930 O   0  0  0  0  0  0  0  0  0  0  0  0
   -6.3360   17.1850  -33.4620 C   0  0  0  0  0  0  0  0  0  0  0  0
   -7.0940   15.9700  -33.0860 C   0  0  0  0  0  0  0  0  0  0  0  0
   -6.4670   17.7660  -34.5460 O   0  0  0  0  0  0  0  0  0  0  0  0
   -8.5890   16.1350  -33.2460 C   0  0  1  0  0  0  0  0  0  0  0  0
   -9.0700   14.7310  -33.4520 C   0  0  0  0  0  0  0  0  0  0  0  0
   -8.9270   16.6710  -31.9560 N   0  0  0  0  0  0  0  0  0  0  0  0
   -9.1660   13.9920  -32.4630 O   0  0  0  0  0  0  0  0  0  0  0  0
   -9.6140   17.8180  -31.9050 C   0  0  0  0  0  0  0  0  0  0  0  0
   -9.9650   18.3270  -30.5810 O   0  0  0  0  0  0  0  0  0  0  0  0
   -9.9760   18.4340  -32.9180 O   0  0  0  0  0  0  0  0  0  0  0  0
  -10.3020   19.6950  -30.3210 C   0  0  0  0  0  0  0  0  0  0  0  0
  -10.4040   19.8340  -28.8340 C   0  0  0  0  0  0  0  0  0  0  0  0
   -9.6890   20.8420  -28.1960 C   0  0  0  0  0  0  0  0  0  0  0  0
  -11.1970   18.9310  -28.1220 C   0  0  0  0  0  0  0  0  0  0  0  0
   -9.7810   20.9510  -26.7880 C   0  0  0  0  0  0  0  0  0  0  0  0
  -11.3130   19.0390  -26.7440 C   0  0  0  0  0  0  0  0  0  0  0  0
  -10.5960   20.0640  -26.0750 C   0  0  0  0  0  0  0  0  0  0  0  0
  1  2  1  0
  2  3  1  0
  4  2  2  0
  5  3  1  1
  5  6  1  0
  7  5  1  0
  6  8  2  0
  9  7  1  0
 10  9  1  0
  9 11  2  0
 12 10  1  0
 13 12  1  0
 14 13  2  0
 13 15  1  0
 16 14  1  0
 15 17  2  0
 16 18  2  0
 17 18  1  0
A    2
 C14
A    3
 C25
A    4
 O1 
A    5
 C23
A    7
 N21
A    8
 O35
A    9
 C17
A   10
 O15
A   11
 O19
A   12
 C13
A   13
 C4 
A   14
 C2 
A   15
 C6 
A   16
 C1 
A   17
 C8 
A   18
 C10
M  END
>  <XChem_code>  (191) 
G83§1

>  <Occupancy>  (191) 
[1.0, 1.0, 1.0, 1.0, 1.0, 1.0, 1.0, 1.0, 1.0, 1.0, 1.0, 1.0, 1.0, 1.0, 1.0, 1.0, 1.0, 1.0, 1.0, 1.0, 1.0, 1.0, 1.0, 1.0, 1.0, 1.0, 1.0, 1.0, 1.0, 1.0, 1.0, 1.0, 1.0, 1.0, 1.0, 1.0, 1.0, 1.0, 1.0, 1.0, 1.0, 1.0, 1.0, 1.0, 1.0, 1.0, 1.0, 1.0, 1.0, 1.0]

>  <TempFactor>  (191) 
[21.5, 44.89, 24.36, 42.16, 38.25, 23.95, 40.64, 20.41, 29.29, 22.5, 27.31, 23.15, 28.56, 41.84, 29.6, 38.53, 33.37, 31.58, 30.86, 27.88, 28.97, 31.52, 43.05, 27.66, 27.42, 21.95, 25.67, 24.02, 25.01, 43.36, 43.87, 19.31, 17.05, 26.62, 26.73, 28.95, 20.4, 17.34, 20.74, 21.57, 21.69, 20.06, 20.47, 18.67, 21.64, 27.5, 29.51, 35.17, 31.37, 18.86]

>  <accession>  (191) 
3ZZC_A

>  <description>  (191) 
Chain A, 3C PROTEINASE [Coxsackievirus B3]

>  <evalue>  (191) 
7.4865399999999999e-87

>  <pdb_code>  (191) 
3ZZC

>  <chain>  (191) 
A

>  <ligands>  (191) 
[{'chain_id': 'A', 'author_residue_number': 1181, 'author_insertion_code': '', 'chem_comp_id': 'G83', 'alternate_conformers': 0, 'entity_id': 2, 'struct_asym_id': 'B', 'residue_number': 1, 'chem_comp_name': 'ETHYL (5S,8S,11R)-8-BENZYL-5-(2-TERT-BUTOXY-2-OXOETHYL)-3,6,9-TRIOXO-11-{[(3S)-2-OXOPYRROLIDIN-3-YL]METHYL}-1-PHENYL-2-OXA-4,7,10-TRIAZATETRADECAN-14-OATE', 'weight': 680.788, 'carbohydrate_polymer': False, 'branch_name': ''}]

>  <ligand_codes>  (191) 
['G83']

>  <cofactor_codes>  (191) 
[]

>  <has_cofactor>  (191) 
False

>  <covalent>  (191) 
True

>  <base_name>  (191) 
3ZZC

>  <lig_resn>  (191) 
G83

>  <lig_resi>  (191) 
1181

>  <lig_chain>  (191) 
A

>  <lig_segi>  (191) 
B

>  <lig_alt>  (191) 


>  <polymer_chain>  (191) 
A

>  <single_smiles>  (191) 
CCOC(=O)CC[C@H](C[C@@H]1CCNC1=O)NC(=O)[C@H](Cc2ccccc2)NC(=O)[C@H](CC(=O)OC(C)(C)C)NC(=O)OCc3ccccc3

$$$$
G83P1S33
     RDKit          3D

 26 26  0  0  0  0  0  0  0  0999 V2000
   -9.9650   18.3270  -30.5810 O   0  0  0  0  0  0  0  0  0  0  0  0
   -9.6140   17.8180  -31.9050 C   0  0  0  0  0  0  0  0  0  0  0  0
   -8.9270   16.6710  -31.9560 N   0  0  0  0  0  0  0  0  0  0  0  0
   -9.9760   18.4340  -32.9180 O   0  0  0  0  0  0  0  0  0  0  0  0
   -8.5890   16.1350  -33.2460 C   0  0  2  0  0  0  0  0  0  0  0  0
   -9.0700   14.7310  -33.4520 C   0  0  0  0  0  0  0  0  0  0  0  0
   -7.0940   15.9700  -33.0860 C   0  0  0  0  0  0  0  0  0  0  0  0
   -9.2610   14.3500  -34.7310 N   0  0  0  0  0  0  0  0  0  0  0  0
   -9.1660   13.9920  -32.4630 O   0  0  0  0  0  0  0  0  0  0  0  0
   -6.3360   17.1850  -33.4620 C   0  0  0  0  0  0  0  0  0  0  0  0
   -9.6510   12.9770  -35.0820 C   0  0  2  0  0  0  0  0  0  0  0  0
   -6.4670   17.7660  -34.5460 O   0  0  0  0  0  0  0  0  0  0  0  0
   -5.3760   17.6500  -32.4930 O   0  0  0  0  0  0  0  0  0  0  0  0
   -8.4620   12.0930  -34.7840 C   0  0  0  0  0  0  0  0  0  0  0  0
   -9.8940   12.8970  -36.5940 C   0  0  0  0  0  0  0  0  0  0  0  0
   -4.0330   17.1570  -32.4230 C   0  0  0  0  0  0  0  0  0  0  0  0
   -7.3180   12.4750  -35.0590 O   0  0  0  0  0  0  0  0  0  0  0  0
  -11.1210   13.7000  -36.9770 C   0  0  0  0  0  0  0  0  0  0  0  0
   -3.6770   16.1600  -33.5370 C   0  0  0  0  0  0  0  0  0  0  0  0
   -3.9520   16.4650  -31.0680 C   0  0  0  0  0  0  0  0  0  0  0  0
   -3.0820   18.3540  -32.5240 C   0  0  0  0  0  0  0  0  0  0  0  0
  -12.3400   13.5180  -36.3250 C   0  0  0  0  0  0  0  0  0  0  0  0
  -11.0320   14.6580  -38.0030 C   0  0  0  0  0  0  0  0  0  0  0  0
  -13.4670   14.3010  -36.6620 C   0  0  0  0  0  0  0  0  0  0  0  0
  -12.1840   15.4150  -38.3560 C   0  0  0  0  0  0  0  0  0  0  0  0
  -13.4100   15.2640  -37.6860 C   0  0  0  0  0  0  0  0  0  0  0  0
  1  2  1  0
  2  3  1  0
  2  4  2  0
  3  5  1  0
  5  6  1  0
  5  7  1  1
  6  8  1  0
  6  9  2  0
 10  7  1  0
  8 11  1  0
 12 10  2  0
 13 10  1  0
 11 14  1  0
 11 15  1  6
 13 16  1  0
 14 17  2  0
 15 18  1  0
 16 19  1  0
 16 20  1  0
 16 21  1  0
 18 22  2  0
 18 23  1  0
 24 22  1  0
 25 23  2  0
 24 26  2  0
 26 25  1  0
A    2
 C17
A    3
 N21
A    4
 O19
A    5
 C23
A    6
 C31
A    7
 C25
A    8
 N33
A    9
 O35
A   10
 C14
A   11
 C37
A   12
 O1 
A   13
 O2 
A   15
 C41
A   16
 C29
A   17
 O47
A   18
 C51
A   19
 C12
A   20
 C43
A   21
 C45
A   22
 C53
A   23
 C55
A   24
 C7 
A   25
 C11
A   26
 C9 
M  END
>  <XChem_code>  (192) 
G83§1

>  <Occupancy>  (192) 
[1.0, 1.0, 1.0, 1.0, 1.0, 1.0, 1.0, 1.0, 1.0, 1.0, 1.0, 1.0, 1.0, 1.0, 1.0, 1.0, 1.0, 1.0, 1.0, 1.0, 1.0, 1.0, 1.0, 1.0, 1.0, 1.0, 1.0, 1.0, 1.0, 1.0, 1.0, 1.0, 1.0, 1.0, 1.0, 1.0, 1.0, 1.0, 1.0, 1.0, 1.0, 1.0, 1.0, 1.0, 1.0, 1.0, 1.0, 1.0, 1.0, 1.0]

>  <TempFactor>  (192) 
[21.5, 44.89, 24.36, 42.16, 38.25, 23.95, 40.64, 20.41, 29.29, 22.5, 27.31, 23.15, 28.56, 41.84, 29.6, 38.53, 33.37, 31.58, 30.86, 27.88, 28.97, 31.52, 43.05, 27.66, 27.42, 21.95, 25.67, 24.02, 25.01, 43.36, 43.87, 19.31, 17.05, 26.62, 26.73, 28.95, 20.4, 17.34, 20.74, 21.57, 21.69, 20.06, 20.47, 18.67, 21.64, 27.5, 29.51, 35.17, 31.37, 18.86]

>  <accession>  (192) 
3ZZC_A

>  <description>  (192) 
Chain A, 3C PROTEINASE [Coxsackievirus B3]

>  <evalue>  (192) 
7.4865399999999999e-87

>  <pdb_code>  (192) 
3ZZC

>  <chain>  (192) 
A

>  <ligands>  (192) 
[{'chain_id': 'A', 'author_residue_number': 1181, 'author_insertion_code': '', 'chem_comp_id': 'G83', 'alternate_conformers': 0, 'entity_id': 2, 'struct_asym_id': 'B', 'residue_number': 1, 'chem_comp_name': 'ETHYL (5S,8S,11R)-8-BENZYL-5-(2-TERT-BUTOXY-2-OXOETHYL)-3,6,9-TRIOXO-11-{[(3S)-2-OXOPYRROLIDIN-3-YL]METHYL}-1-PHENYL-2-OXA-4,7,10-TRIAZATETRADECAN-14-OATE', 'weight': 680.788, 'carbohydrate_polymer': False, 'branch_name': ''}]

>  <ligand_codes>  (192) 
['G83']

>  <cofactor_codes>  (192) 
[]

>  <has_cofactor>  (192) 
False

>  <covalent>  (192) 
True

>  <base_name>  (192) 
3ZZC

>  <lig_resn>  (192) 
G83

>  <lig_resi>  (192) 
1181

>  <lig_chain>  (192) 
A

>  <lig_segi>  (192) 
B

>  <lig_alt>  (192) 


>  <polymer_chain>  (192) 
A

>  <single_smiles>  (192) 
CCOC(=O)CC[C@H](C[C@@H]1CCNC1=O)NC(=O)[C@H](Cc2ccccc2)NC(=O)[C@H](CC(=O)OC(C)(C)C)NC(=O)OCc3ccccc3

$$$$
G83P1S34
     RDKit          3D

 29 30  0  0  0  0  0  0  0  0999 V2000
   -5.3760   17.6500  -32.4930 O   0  0  0  0  0  0  0  0  0  0  0  0
   -6.3360   17.1850  -33.4620 C   0  0  0  0  0  0  0  0  0  0  0  0
   -7.0940   15.9700  -33.0860 C   0  0  0  0  0  0  0  0  0  0  0  0
   -6.4670   17.7660  -34.5460 O   0  0  0  0  0  0  0  0  0  0  0  0
   -8.5890   16.1350  -33.2460 C   0  0  1  0  0  0  0  0  0  0  0  0
   -9.0700   14.7310  -33.4520 C   0  0  0  0  0  0  0  0  0  0  0  0
   -8.9270   16.6710  -31.9560 N   0  0  0  0  0  0  0  0  0  0  0  0
   -9.2610   14.3500  -34.7310 N   0  0  0  0  0  0  0  0  0  0  0  0
   -9.1660   13.9920  -32.4630 O   0  0  0  0  0  0  0  0  0  0  0  0
   -9.6140   17.8180  -31.9050 C   0  0  0  0  0  0  0  0  0  0  0  0
   -9.6510   12.9770  -35.0820 C   0  0  2  0  0  0  0  0  0  0  0  0
   -9.9650   18.3270  -30.5810 O   0  0  0  0  0  0  0  0  0  0  0  0
   -9.9760   18.4340  -32.9180 O   0  0  0  0  0  0  0  0  0  0  0  0
   -8.4620   12.0930  -34.7840 C   0  0  0  0  0  0  0  0  0  0  0  0
   -9.8940   12.8970  -36.5940 C   0  0  0  0  0  0  0  0  0  0  0  0
  -10.3020   19.6950  -30.3210 C   0  0  0  0  0  0  0  0  0  0  0  0
   -7.3180   12.4750  -35.0590 O   0  0  0  0  0  0  0  0  0  0  0  0
  -11.1210   13.7000  -36.9770 C   0  0  0  0  0  0  0  0  0  0  0  0
  -10.4040   19.8340  -28.8340 C   0  0  0  0  0  0  0  0  0  0  0  0
  -12.3400   13.5180  -36.3250 C   0  0  0  0  0  0  0  0  0  0  0  0
  -11.0320   14.6580  -38.0030 C   0  0  0  0  0  0  0  0  0  0  0  0
   -9.6890   20.8420  -28.1960 C   0  0  0  0  0  0  0  0  0  0  0  0
  -11.1970   18.9310  -28.1220 C   0  0  0  0  0  0  0  0  0  0  0  0
  -13.4670   14.3010  -36.6620 C   0  0  0  0  0  0  0  0  0  0  0  0
  -12.1840   15.4150  -38.3560 C   0  0  0  0  0  0  0  0  0  0  0  0
   -9.7810   20.9510  -26.7880 C   0  0  0  0  0  0  0  0  0  0  0  0
  -11.3130   19.0390  -26.7440 C   0  0  0  0  0  0  0  0  0  0  0  0
  -13.4100   15.2640  -37.6860 C   0  0  0  0  0  0  0  0  0  0  0  0
  -10.5960   20.0640  -26.0750 C   0  0  0  0  0  0  0  0  0  0  0  0
  1  2  1  0
  2  3  1  0
  4  2  2  0
  5  3  1  1
  5  6  1  0
  7  5  1  0
  6  8  1  0
  6  9  2  0
 10  7  1  0
  8 11  1  0
 12 10  1  0
 10 13  2  0
 11 14  1  0
 11 15  1  6
 16 12  1  0
 14 17  2  0
 15 18  1  0
 19 16  1  0
 18 20  2  0
 18 21  1  0
 22 19  2  0
 19 23  1  0
 24 20  1  0
 25 21  2  0
 26 22  1  0
 23 27  2  0
 24 28  2  0
 28 25  1  0
 26 29  2  0
 27 29  1  0
A    2
 C14
A    3
 C25
A    4
 O1 
A    5
 C23
A    6
 C31
A    7
 N21
A    8
 N33
A    9
 O35
A   10
 C17
A   11
 C37
A   12
 O15
A   13
 O19
A   15
 C41
A   16
 C13
A   17
 O47
A   18
 C51
A   19
 C4 
A   20
 C53
A   21
 C55
A   22
 C2 
A   23
 C6 
A   24
 C7 
A   25
 C11
A   26
 C1 
A   27
 C8 
A   28
 C9 
A   29
 C10
M  END
>  <XChem_code>  (193) 
G83§1

>  <Occupancy>  (193) 
[1.0, 1.0, 1.0, 1.0, 1.0, 1.0, 1.0, 1.0, 1.0, 1.0, 1.0, 1.0, 1.0, 1.0, 1.0, 1.0, 1.0, 1.0, 1.0, 1.0, 1.0, 1.0, 1.0, 1.0, 1.0, 1.0, 1.0, 1.0, 1.0, 1.0, 1.0, 1.0, 1.0, 1.0, 1.0, 1.0, 1.0, 1.0, 1.0, 1.0, 1.0, 1.0, 1.0, 1.0, 1.0, 1.0, 1.0, 1.0, 1.0, 1.0]

>  <TempFactor>  (193) 
[21.5, 44.89, 24.36, 42.16, 38.25, 23.95, 40.64, 20.41, 29.29, 22.5, 27.31, 23.15, 28.56, 41.84, 29.6, 38.53, 33.37, 31.58, 30.86, 27.88, 28.97, 31.52, 43.05, 27.66, 27.42, 21.95, 25.67, 24.02, 25.01, 43.36, 43.87, 19.31, 17.05, 26.62, 26.73, 28.95, 20.4, 17.34, 20.74, 21.57, 21.69, 20.06, 20.47, 18.67, 21.64, 27.5, 29.51, 35.17, 31.37, 18.86]

>  <accession>  (193) 
3ZZC_A

>  <description>  (193) 
Chain A, 3C PROTEINASE [Coxsackievirus B3]

>  <evalue>  (193) 
7.4865399999999999e-87

>  <pdb_code>  (193) 
3ZZC

>  <chain>  (193) 
A

>  <ligands>  (193) 
[{'chain_id': 'A', 'author_residue_number': 1181, 'author_insertion_code': '', 'chem_comp_id': 'G83', 'alternate_conformers': 0, 'entity_id': 2, 'struct_asym_id': 'B', 'residue_number': 1, 'chem_comp_name': 'ETHYL (5S,8S,11R)-8-BENZYL-5-(2-TERT-BUTOXY-2-OXOETHYL)-3,6,9-TRIOXO-11-{[(3S)-2-OXOPYRROLIDIN-3-YL]METHYL}-1-PHENYL-2-OXA-4,7,10-TRIAZATETRADECAN-14-OATE', 'weight': 680.788, 'carbohydrate_polymer': False, 'branch_name': ''}]

>  <ligand_codes>  (193) 
['G83']

>  <cofactor_codes>  (193) 
[]

>  <has_cofactor>  (193) 
False

>  <covalent>  (193) 
True

>  <base_name>  (193) 
3ZZC

>  <lig_resn>  (193) 
G83

>  <lig_resi>  (193) 
1181

>  <lig_chain>  (193) 
A

>  <lig_segi>  (193) 
B

>  <lig_alt>  (193) 


>  <polymer_chain>  (193) 
A

>  <single_smiles>  (193) 
CCOC(=O)CC[C@H](C[C@@H]1CCNC1=O)NC(=O)[C@H](Cc2ccccc2)NC(=O)[C@H](CC(=O)OC(C)(C)C)NC(=O)OCc3ccccc3

$$$$
G83P1S35
     RDKit          3D

 10  9  0  0  0  0  0  0  0  0999 V2000
   -9.9650   18.3270  -30.5810 O   0  0  0  0  0  0  0  0  0  0  0  0
   -9.6140   17.8180  -31.9050 C   0  0  0  0  0  0  0  0  0  0  0  0
   -8.9270   16.6710  -31.9560 N   0  0  0  0  0  0  0  0  0  0  0  0
   -9.9760   18.4340  -32.9180 O   0  0  0  0  0  0  0  0  0  0  0  0
   -8.5890   16.1350  -33.2460 C   0  0  2  0  0  0  0  0  0  0  0  0
   -9.0700   14.7310  -33.4520 C   0  0  0  0  0  0  0  0  0  0  0  0
   -7.0940   15.9700  -33.0860 C   0  0  0  0  0  0  0  0  0  0  0  0
   -9.1660   13.9920  -32.4630 O   0  0  0  0  0  0  0  0  0  0  0  0
   -6.3360   17.1850  -33.4620 C   0  0  0  0  0  0  0  0  0  0  0  0
   -6.4670   17.7660  -34.5460 O   0  0  0  0  0  0  0  0  0  0  0  0
  1  2  1  0
  2  3  1  0
  2  4  2  0
  3  5  1  0
  5  6  1  0
  5  7  1  1
  6  8  2  0
  9  7  1  0
 10  9  2  0
A    2
 C17
A    3
 N21
A    4
 O19
A    5
 C23
A    7
 C25
A    8
 O35
A   10
 O1 
M  END
>  <XChem_code>  (194) 
G83§1

>  <Occupancy>  (194) 
[1.0, 1.0, 1.0, 1.0, 1.0, 1.0, 1.0, 1.0, 1.0, 1.0, 1.0, 1.0, 1.0, 1.0, 1.0, 1.0, 1.0, 1.0, 1.0, 1.0, 1.0, 1.0, 1.0, 1.0, 1.0, 1.0, 1.0, 1.0, 1.0, 1.0, 1.0, 1.0, 1.0, 1.0, 1.0, 1.0, 1.0, 1.0, 1.0, 1.0, 1.0, 1.0, 1.0, 1.0, 1.0, 1.0, 1.0, 1.0, 1.0, 1.0]

>  <TempFactor>  (194) 
[21.5, 44.89, 24.36, 42.16, 38.25, 23.95, 40.64, 20.41, 29.29, 22.5, 27.31, 23.15, 28.56, 41.84, 29.6, 38.53, 33.37, 31.58, 30.86, 27.88, 28.97, 31.52, 43.05, 27.66, 27.42, 21.95, 25.67, 24.02, 25.01, 43.36, 43.87, 19.31, 17.05, 26.62, 26.73, 28.95, 20.4, 17.34, 20.74, 21.57, 21.69, 20.06, 20.47, 18.67, 21.64, 27.5, 29.51, 35.17, 31.37, 18.86]

>  <accession>  (194) 
3ZZC_A

>  <description>  (194) 
Chain A, 3C PROTEINASE [Coxsackievirus B3]

>  <evalue>  (194) 
7.4865399999999999e-87

>  <pdb_code>  (194) 
3ZZC

>  <chain>  (194) 
A

>  <ligands>  (194) 
[{'chain_id': 'A', 'author_residue_number': 1181, 'author_insertion_code': '', 'chem_comp_id': 'G83', 'alternate_conformers': 0, 'entity_id': 2, 'struct_asym_id': 'B', 'residue_number': 1, 'chem_comp_name': 'ETHYL (5S,8S,11R)-8-BENZYL-5-(2-TERT-BUTOXY-2-OXOETHYL)-3,6,9-TRIOXO-11-{[(3S)-2-OXOPYRROLIDIN-3-YL]METHYL}-1-PHENYL-2-OXA-4,7,10-TRIAZATETRADECAN-14-OATE', 'weight': 680.788, 'carbohydrate_polymer': False, 'branch_name': ''}]

>  <ligand_codes>  (194) 
['G83']

>  <cofactor_codes>  (194) 
[]

>  <has_cofactor>  (194) 
False

>  <covalent>  (194) 
True

>  <base_name>  (194) 
3ZZC

>  <lig_resn>  (194) 
G83

>  <lig_resi>  (194) 
1181

>  <lig_chain>  (194) 
A

>  <lig_segi>  (194) 
B

>  <lig_alt>  (194) 


>  <polymer_chain>  (194) 
A

>  <single_smiles>  (194) 
CCOC(=O)CC[C@H](C[C@@H]1CCNC1=O)NC(=O)[C@H](Cc2ccccc2)NC(=O)[C@H](CC(=O)OC(C)(C)C)NC(=O)OCc3ccccc3

$$$$
G83P1S36
     RDKit          3D

 21 21  0  0  0  0  0  0  0  0999 V2000
   -9.9650   18.3270  -30.5810 O   0  0  0  0  0  0  0  0  0  0  0  0
   -9.6140   17.8180  -31.9050 C   0  0  0  0  0  0  0  0  0  0  0  0
   -8.9270   16.6710  -31.9560 N   0  0  0  0  0  0  0  0  0  0  0  0
   -9.9760   18.4340  -32.9180 O   0  0  0  0  0  0  0  0  0  0  0  0
   -8.5890   16.1350  -33.2460 C   0  0  2  0  0  0  0  0  0  0  0  0
   -9.0700   14.7310  -33.4520 C   0  0  0  0  0  0  0  0  0  0  0  0
   -7.0940   15.9700  -33.0860 C   0  0  0  0  0  0  0  0  0  0  0  0
   -9.2610   14.3500  -34.7310 N   0  0  0  0  0  0  0  0  0  0  0  0
   -9.1660   13.9920  -32.4630 O   0  0  0  0  0  0  0  0  0  0  0  0
   -6.3360   17.1850  -33.4620 C   0  0  0  0  0  0  0  0  0  0  0  0
   -9.6510   12.9770  -35.0820 C   0  0  2  0  0  0  0  0  0  0  0  0
   -6.4670   17.7660  -34.5460 O   0  0  0  0  0  0  0  0  0  0  0  0
   -8.4620   12.0930  -34.7840 C   0  0  0  0  0  0  0  0  0  0  0  0
   -9.8940   12.8970  -36.5940 C   0  0  0  0  0  0  0  0  0  0  0  0
   -7.3180   12.4750  -35.0590 O   0  0  0  0  0  0  0  0  0  0  0  0
  -11.1210   13.7000  -36.9770 C   0  0  0  0  0  0  0  0  0  0  0  0
  -12.3400   13.5180  -36.3250 C   0  0  0  0  0  0  0  0  0  0  0  0
  -11.0320   14.6580  -38.0030 C   0  0  0  0  0  0  0  0  0  0  0  0
  -13.4670   14.3010  -36.6620 C   0  0  0  0  0  0  0  0  0  0  0  0
  -12.1840   15.4150  -38.3560 C   0  0  0  0  0  0  0  0  0  0  0  0
  -13.4100   15.2640  -37.6860 C   0  0  0  0  0  0  0  0  0  0  0  0
  1  2  1  0
  2  3  1  0
  2  4  2  0
  3  5  1  0
  5  6  1  0
  5  7  1  1
  6  8  1  0
  6  9  2  0
 10  7  1  0
  8 11  1  0
 12 10  2  0
 11 13  1  0
 11 14  1  6
 13 15  2  0
 14 16  1  0
 16 17  2  0
 16 18  1  0
 19 17  1  0
 20 18  2  0
 19 21  2  0
 21 20  1  0
A    2
 C17
A    3
 N21
A    4
 O19
A    5
 C23
A    6
 C31
A    7
 C25
A    8
 N33
A    9
 O35
A   11
 C37
A   12
 O1 
A   14
 C41
A   15
 O47
A   16
 C51
A   17
 C53
A   18
 C55
A   19
 C7 
A   20
 C11
A   21
 C9 
M  END
>  <XChem_code>  (195) 
G83§1

>  <Occupancy>  (195) 
[1.0, 1.0, 1.0, 1.0, 1.0, 1.0, 1.0, 1.0, 1.0, 1.0, 1.0, 1.0, 1.0, 1.0, 1.0, 1.0, 1.0, 1.0, 1.0, 1.0, 1.0, 1.0, 1.0, 1.0, 1.0, 1.0, 1.0, 1.0, 1.0, 1.0, 1.0, 1.0, 1.0, 1.0, 1.0, 1.0, 1.0, 1.0, 1.0, 1.0, 1.0, 1.0, 1.0, 1.0, 1.0, 1.0, 1.0, 1.0, 1.0, 1.0]

>  <TempFactor>  (195) 
[21.5, 44.89, 24.36, 42.16, 38.25, 23.95, 40.64, 20.41, 29.29, 22.5, 27.31, 23.15, 28.56, 41.84, 29.6, 38.53, 33.37, 31.58, 30.86, 27.88, 28.97, 31.52, 43.05, 27.66, 27.42, 21.95, 25.67, 24.02, 25.01, 43.36, 43.87, 19.31, 17.05, 26.62, 26.73, 28.95, 20.4, 17.34, 20.74, 21.57, 21.69, 20.06, 20.47, 18.67, 21.64, 27.5, 29.51, 35.17, 31.37, 18.86]

>  <accession>  (195) 
3ZZC_A

>  <description>  (195) 
Chain A, 3C PROTEINASE [Coxsackievirus B3]

>  <evalue>  (195) 
7.4865399999999999e-87

>  <pdb_code>  (195) 
3ZZC

>  <chain>  (195) 
A

>  <ligands>  (195) 
[{'chain_id': 'A', 'author_residue_number': 1181, 'author_insertion_code': '', 'chem_comp_id': 'G83', 'alternate_conformers': 0, 'entity_id': 2, 'struct_asym_id': 'B', 'residue_number': 1, 'chem_comp_name': 'ETHYL (5S,8S,11R)-8-BENZYL-5-(2-TERT-BUTOXY-2-OXOETHYL)-3,6,9-TRIOXO-11-{[(3S)-2-OXOPYRROLIDIN-3-YL]METHYL}-1-PHENYL-2-OXA-4,7,10-TRIAZATETRADECAN-14-OATE', 'weight': 680.788, 'carbohydrate_polymer': False, 'branch_name': ''}]

>  <ligand_codes>  (195) 
['G83']

>  <cofactor_codes>  (195) 
[]

>  <has_cofactor>  (195) 
False

>  <covalent>  (195) 
True

>  <base_name>  (195) 
3ZZC

>  <lig_resn>  (195) 
G83

>  <lig_resi>  (195) 
1181

>  <lig_chain>  (195) 
A

>  <lig_segi>  (195) 
B

>  <lig_alt>  (195) 


>  <polymer_chain>  (195) 
A

>  <single_smiles>  (195) 
CCOC(=O)CC[C@H](C[C@@H]1CCNC1=O)NC(=O)[C@H](Cc2ccccc2)NC(=O)[C@H](CC(=O)OC(C)(C)C)NC(=O)OCc3ccccc3

$$$$
G83P1S37
     RDKit          3D

 10  9  0  0  0  0  0  0  0  0999 V2000
   -5.3760   17.6500  -32.4930 O   0  0  0  0  0  0  0  0  0  0  0  0
   -6.3360   17.1850  -33.4620 C   0  0  0  0  0  0  0  0  0  0  0  0
   -7.0940   15.9700  -33.0860 C   0  0  0  0  0  0  0  0  0  0  0  0
   -6.4670   17.7660  -34.5460 O   0  0  0  0  0  0  0  0  0  0  0  0
   -8.5890   16.1350  -33.2460 C   0  0  1  0  0  0  0  0  0  0  0  0
   -9.0700   14.7310  -33.4520 C   0  0  0  0  0  0  0  0  0  0  0  0
   -8.9270   16.6710  -31.9560 N   0  0  0  0  0  0  0  0  0  0  0  0
   -9.1660   13.9920  -32.4630 O   0  0  0  0  0  0  0  0  0  0  0  0
   -9.6140   17.8180  -31.9050 C   0  0  0  0  0  0  0  0  0  0  0  0
   -9.9760   18.4340  -32.9180 O   0  0  0  0  0  0  0  0  0  0  0  0
  1  2  1  0
  2  3  1  0
  4  2  2  0
  5  3  1  1
  5  6  1  0
  7  5  1  0
  6  8  2  0
  9  7  1  0
  9 10  2  0
A    2
 C14
A    3
 C25
A    4
 O1 
A    5
 C23
A    7
 N21
A    8
 O35
A   10
 O19
M  END
>  <XChem_code>  (196) 
G83§1

>  <Occupancy>  (196) 
[1.0, 1.0, 1.0, 1.0, 1.0, 1.0, 1.0, 1.0, 1.0, 1.0, 1.0, 1.0, 1.0, 1.0, 1.0, 1.0, 1.0, 1.0, 1.0, 1.0, 1.0, 1.0, 1.0, 1.0, 1.0, 1.0, 1.0, 1.0, 1.0, 1.0, 1.0, 1.0, 1.0, 1.0, 1.0, 1.0, 1.0, 1.0, 1.0, 1.0, 1.0, 1.0, 1.0, 1.0, 1.0, 1.0, 1.0, 1.0, 1.0, 1.0]

>  <TempFactor>  (196) 
[21.5, 44.89, 24.36, 42.16, 38.25, 23.95, 40.64, 20.41, 29.29, 22.5, 27.31, 23.15, 28.56, 41.84, 29.6, 38.53, 33.37, 31.58, 30.86, 27.88, 28.97, 31.52, 43.05, 27.66, 27.42, 21.95, 25.67, 24.02, 25.01, 43.36, 43.87, 19.31, 17.05, 26.62, 26.73, 28.95, 20.4, 17.34, 20.74, 21.57, 21.69, 20.06, 20.47, 18.67, 21.64, 27.5, 29.51, 35.17, 31.37, 18.86]

>  <accession>  (196) 
3ZZC_A

>  <description>  (196) 
Chain A, 3C PROTEINASE [Coxsackievirus B3]

>  <evalue>  (196) 
7.4865399999999999e-87

>  <pdb_code>  (196) 
3ZZC

>  <chain>  (196) 
A

>  <ligands>  (196) 
[{'chain_id': 'A', 'author_residue_number': 1181, 'author_insertion_code': '', 'chem_comp_id': 'G83', 'alternate_conformers': 0, 'entity_id': 2, 'struct_asym_id': 'B', 'residue_number': 1, 'chem_comp_name': 'ETHYL (5S,8S,11R)-8-BENZYL-5-(2-TERT-BUTOXY-2-OXOETHYL)-3,6,9-TRIOXO-11-{[(3S)-2-OXOPYRROLIDIN-3-YL]METHYL}-1-PHENYL-2-OXA-4,7,10-TRIAZATETRADECAN-14-OATE', 'weight': 680.788, 'carbohydrate_polymer': False, 'branch_name': ''}]

>  <ligand_codes>  (196) 
['G83']

>  <cofactor_codes>  (196) 
[]

>  <has_cofactor>  (196) 
False

>  <covalent>  (196) 
True

>  <base_name>  (196) 
3ZZC

>  <lig_resn>  (196) 
G83

>  <lig_resi>  (196) 
1181

>  <lig_chain>  (196) 
A

>  <lig_segi>  (196) 
B

>  <lig_alt>  (196) 


>  <polymer_chain>  (196) 
A

>  <single_smiles>  (196) 
CCOC(=O)CC[C@H](C[C@@H]1CCNC1=O)NC(=O)[C@H](Cc2ccccc2)NC(=O)[C@H](CC(=O)OC(C)(C)C)NC(=O)OCc3ccccc3

$$$$
G83P1S38
     RDKit          3D

 21 21  0  0  0  0  0  0  0  0999 V2000
   -5.3760   17.6500  -32.4930 O   0  0  0  0  0  0  0  0  0  0  0  0
   -6.3360   17.1850  -33.4620 C   0  0  0  0  0  0  0  0  0  0  0  0
   -7.0940   15.9700  -33.0860 C   0  0  0  0  0  0  0  0  0  0  0  0
   -6.4670   17.7660  -34.5460 O   0  0  0  0  0  0  0  0  0  0  0  0
   -8.5890   16.1350  -33.2460 C   0  0  1  0  0  0  0  0  0  0  0  0
   -9.0700   14.7310  -33.4520 C   0  0  0  0  0  0  0  0  0  0  0  0
   -8.9270   16.6710  -31.9560 N   0  0  0  0  0  0  0  0  0  0  0  0
   -9.2610   14.3500  -34.7310 N   0  0  0  0  0  0  0  0  0  0  0  0
   -9.1660   13.9920  -32.4630 O   0  0  0  0  0  0  0  0  0  0  0  0
   -9.6140   17.8180  -31.9050 C   0  0  0  0  0  0  0  0  0  0  0  0
   -9.6510   12.9770  -35.0820 C   0  0  2  0  0  0  0  0  0  0  0  0
   -9.9760   18.4340  -32.9180 O   0  0  0  0  0  0  0  0  0  0  0  0
   -8.4620   12.0930  -34.7840 C   0  0  0  0  0  0  0  0  0  0  0  0
   -9.8940   12.8970  -36.5940 C   0  0  0  0  0  0  0  0  0  0  0  0
   -7.3180   12.4750  -35.0590 O   0  0  0  0  0  0  0  0  0  0  0  0
  -11.1210   13.7000  -36.9770 C   0  0  0  0  0  0  0  0  0  0  0  0
  -12.3400   13.5180  -36.3250 C   0  0  0  0  0  0  0  0  0  0  0  0
  -11.0320   14.6580  -38.0030 C   0  0  0  0  0  0  0  0  0  0  0  0
  -13.4670   14.3010  -36.6620 C   0  0  0  0  0  0  0  0  0  0  0  0
  -12.1840   15.4150  -38.3560 C   0  0  0  0  0  0  0  0  0  0  0  0
  -13.4100   15.2640  -37.6860 C   0  0  0  0  0  0  0  0  0  0  0  0
  1  2  1  0
  2  3  1  0
  4  2  2  0
  5  3  1  1
  5  6  1  0
  7  5  1  0
  6  8  1  0
  6  9  2  0
 10  7  1  0
  8 11  1  0
 10 12  2  0
 11 13  1  0
 11 14  1  6
 13 15  2  0
 14 16  1  0
 16 17  2  0
 16 18  1  0
 19 17  1  0
 20 18  2  0
 19 21  2  0
 21 20  1  0
A    2
 C14
A    3
 C25
A    4
 O1 
A    5
 C23
A    6
 C31
A    7
 N21
A    8
 N33
A    9
 O35
A   11
 C37
A   12
 O19
A   14
 C41
A   15
 O47
A   16
 C51
A   17
 C53
A   18
 C55
A   19
 C7 
A   20
 C11
A   21
 C9 
M  END
>  <XChem_code>  (197) 
G83§1

>  <Occupancy>  (197) 
[1.0, 1.0, 1.0, 1.0, 1.0, 1.0, 1.0, 1.0, 1.0, 1.0, 1.0, 1.0, 1.0, 1.0, 1.0, 1.0, 1.0, 1.0, 1.0, 1.0, 1.0, 1.0, 1.0, 1.0, 1.0, 1.0, 1.0, 1.0, 1.0, 1.0, 1.0, 1.0, 1.0, 1.0, 1.0, 1.0, 1.0, 1.0, 1.0, 1.0, 1.0, 1.0, 1.0, 1.0, 1.0, 1.0, 1.0, 1.0, 1.0, 1.0]

>  <TempFactor>  (197) 
[21.5, 44.89, 24.36, 42.16, 38.25, 23.95, 40.64, 20.41, 29.29, 22.5, 27.31, 23.15, 28.56, 41.84, 29.6, 38.53, 33.37, 31.58, 30.86, 27.88, 28.97, 31.52, 43.05, 27.66, 27.42, 21.95, 25.67, 24.02, 25.01, 43.36, 43.87, 19.31, 17.05, 26.62, 26.73, 28.95, 20.4, 17.34, 20.74, 21.57, 21.69, 20.06, 20.47, 18.67, 21.64, 27.5, 29.51, 35.17, 31.37, 18.86]

>  <accession>  (197) 
3ZZC_A

>  <description>  (197) 
Chain A, 3C PROTEINASE [Coxsackievirus B3]

>  <evalue>  (197) 
7.4865399999999999e-87

>  <pdb_code>  (197) 
3ZZC

>  <chain>  (197) 
A

>  <ligands>  (197) 
[{'chain_id': 'A', 'author_residue_number': 1181, 'author_insertion_code': '', 'chem_comp_id': 'G83', 'alternate_conformers': 0, 'entity_id': 2, 'struct_asym_id': 'B', 'residue_number': 1, 'chem_comp_name': 'ETHYL (5S,8S,11R)-8-BENZYL-5-(2-TERT-BUTOXY-2-OXOETHYL)-3,6,9-TRIOXO-11-{[(3S)-2-OXOPYRROLIDIN-3-YL]METHYL}-1-PHENYL-2-OXA-4,7,10-TRIAZATETRADECAN-14-OATE', 'weight': 680.788, 'carbohydrate_polymer': False, 'branch_name': ''}]

>  <ligand_codes>  (197) 
['G83']

>  <cofactor_codes>  (197) 
[]

>  <has_cofactor>  (197) 
False

>  <covalent>  (197) 
True

>  <base_name>  (197) 
3ZZC

>  <lig_resn>  (197) 
G83

>  <lig_resi>  (197) 
1181

>  <lig_chain>  (197) 
A

>  <lig_segi>  (197) 
B

>  <lig_alt>  (197) 


>  <polymer_chain>  (197) 
A

>  <single_smiles>  (197) 
CCOC(=O)CC[C@H](C[C@@H]1CCNC1=O)NC(=O)[C@H](Cc2ccccc2)NC(=O)[C@H](CC(=O)OC(C)(C)C)NC(=O)OCc3ccccc3

$$$$
G83P1S39
     RDKit          3D

  8  7  0  0  0  0  0  0  0  0999 V2000
   -5.3760   17.6500  -32.4930 O   0  0  0  0  0  0  0  0  0  0  0  0
   -6.3360   17.1850  -33.4620 C   0  0  0  0  0  0  0  0  0  0  0  0
   -7.0940   15.9700  -33.0860 C   0  0  0  0  0  0  0  0  0  0  0  0
   -6.4670   17.7660  -34.5460 O   0  0  0  0  0  0  0  0  0  0  0  0
   -8.5890   16.1350  -33.2460 C   0  0  1  0  0  0  0  0  0  0  0  0
   -9.0700   14.7310  -33.4520 C   0  0  0  0  0  0  0  0  0  0  0  0
   -8.9270   16.6710  -31.9560 N   0  0  0  0  0  0  0  0  0  0  0  0
   -9.1660   13.9920  -32.4630 O   0  0  0  0  0  0  0  0  0  0  0  0
  1  2  1  0
  2  3  1  0
  4  2  2  0
  5  3  1  0
  5  6  1  0
  5  7  1  1
  6  8  2  0
A    2
 C14
A    3
 C25
A    4
 O1 
A    5
 C23
A    8
 O35
M  END
>  <XChem_code>  (198) 
G83§1

>  <Occupancy>  (198) 
[1.0, 1.0, 1.0, 1.0, 1.0, 1.0, 1.0, 1.0, 1.0, 1.0, 1.0, 1.0, 1.0, 1.0, 1.0, 1.0, 1.0, 1.0, 1.0, 1.0, 1.0, 1.0, 1.0, 1.0, 1.0, 1.0, 1.0, 1.0, 1.0, 1.0, 1.0, 1.0, 1.0, 1.0, 1.0, 1.0, 1.0, 1.0, 1.0, 1.0, 1.0, 1.0, 1.0, 1.0, 1.0, 1.0, 1.0, 1.0, 1.0, 1.0]

>  <TempFactor>  (198) 
[21.5, 44.89, 24.36, 42.16, 38.25, 23.95, 40.64, 20.41, 29.29, 22.5, 27.31, 23.15, 28.56, 41.84, 29.6, 38.53, 33.37, 31.58, 30.86, 27.88, 28.97, 31.52, 43.05, 27.66, 27.42, 21.95, 25.67, 24.02, 25.01, 43.36, 43.87, 19.31, 17.05, 26.62, 26.73, 28.95, 20.4, 17.34, 20.74, 21.57, 21.69, 20.06, 20.47, 18.67, 21.64, 27.5, 29.51, 35.17, 31.37, 18.86]

>  <accession>  (198) 
3ZZC_A

>  <description>  (198) 
Chain A, 3C PROTEINASE [Coxsackievirus B3]

>  <evalue>  (198) 
7.4865399999999999e-87

>  <pdb_code>  (198) 
3ZZC

>  <chain>  (198) 
A

>  <ligands>  (198) 
[{'chain_id': 'A', 'author_residue_number': 1181, 'author_insertion_code': '', 'chem_comp_id': 'G83', 'alternate_conformers': 0, 'entity_id': 2, 'struct_asym_id': 'B', 'residue_number': 1, 'chem_comp_name': 'ETHYL (5S,8S,11R)-8-BENZYL-5-(2-TERT-BUTOXY-2-OXOETHYL)-3,6,9-TRIOXO-11-{[(3S)-2-OXOPYRROLIDIN-3-YL]METHYL}-1-PHENYL-2-OXA-4,7,10-TRIAZATETRADECAN-14-OATE', 'weight': 680.788, 'carbohydrate_polymer': False, 'branch_name': ''}]

>  <ligand_codes>  (198) 
['G83']

>  <cofactor_codes>  (198) 
[]

>  <has_cofactor>  (198) 
False

>  <covalent>  (198) 
True

>  <base_name>  (198) 
3ZZC

>  <lig_resn>  (198) 
G83

>  <lig_resi>  (198) 
1181

>  <lig_chain>  (198) 
A

>  <lig_segi>  (198) 
B

>  <lig_alt>  (198) 


>  <polymer_chain>  (198) 
A

>  <single_smiles>  (198) 
CCOC(=O)CC[C@H](C[C@@H]1CCNC1=O)NC(=O)[C@H](Cc2ccccc2)NC(=O)[C@H](CC(=O)OC(C)(C)C)NC(=O)OCc3ccccc3

$$$$
G83P1S40
     RDKit          3D

 19 19  0  0  0  0  0  0  0  0999 V2000
   -5.3760   17.6500  -32.4930 O   0  0  0  0  0  0  0  0  0  0  0  0
   -6.3360   17.1850  -33.4620 C   0  0  0  0  0  0  0  0  0  0  0  0
   -7.0940   15.9700  -33.0860 C   0  0  0  0  0  0  0  0  0  0  0  0
   -6.4670   17.7660  -34.5460 O   0  0  0  0  0  0  0  0  0  0  0  0
   -8.5890   16.1350  -33.2460 C   0  0  1  0  0  0  0  0  0  0  0  0
   -9.0700   14.7310  -33.4520 C   0  0  0  0  0  0  0  0  0  0  0  0
   -8.9270   16.6710  -31.9560 N   0  0  0  0  0  0  0  0  0  0  0  0
   -9.2610   14.3500  -34.7310 N   0  0  0  0  0  0  0  0  0  0  0  0
   -9.1660   13.9920  -32.4630 O   0  0  0  0  0  0  0  0  0  0  0  0
   -9.6510   12.9770  -35.0820 C   0  0  2  0  0  0  0  0  0  0  0  0
   -8.4620   12.0930  -34.7840 C   0  0  0  0  0  0  0  0  0  0  0  0
   -9.8940   12.8970  -36.5940 C   0  0  0  0  0  0  0  0  0  0  0  0
   -7.3180   12.4750  -35.0590 O   0  0  0  0  0  0  0  0  0  0  0  0
  -11.1210   13.7000  -36.9770 C   0  0  0  0  0  0  0  0  0  0  0  0
  -12.3400   13.5180  -36.3250 C   0  0  0  0  0  0  0  0  0  0  0  0
  -11.0320   14.6580  -38.0030 C   0  0  0  0  0  0  0  0  0  0  0  0
  -13.4670   14.3010  -36.6620 C   0  0  0  0  0  0  0  0  0  0  0  0
  -12.1840   15.4150  -38.3560 C   0  0  0  0  0  0  0  0  0  0  0  0
  -13.4100   15.2640  -37.6860 C   0  0  0  0  0  0  0  0  0  0  0  0
  1  2  1  0
  2  3  1  0
  4  2  2  0
  5  3  1  0
  5  6  1  0
  5  7  1  1
  6  8  1  0
  6  9  2  0
  8 10  1  0
 10 11  1  0
 10 12  1  6
 11 13  2  0
 12 14  1  0
 14 15  2  0
 14 16  1  0
 17 15  1  0
 18 16  2  0
 17 19  2  0
 19 18  1  0
A    2
 C14
A    3
 C25
A    4
 O1 
A    5
 C23
A    6
 C31
A    8
 N33
A    9
 O35
A   10
 C37
A   12
 C41
A   13
 O47
A   14
 C51
A   15
 C53
A   16
 C55
A   17
 C7 
A   18
 C11
A   19
 C9 
M  END
>  <XChem_code>  (199) 
G83§1

>  <Occupancy>  (199) 
[1.0, 1.0, 1.0, 1.0, 1.0, 1.0, 1.0, 1.0, 1.0, 1.0, 1.0, 1.0, 1.0, 1.0, 1.0, 1.0, 1.0, 1.0, 1.0, 1.0, 1.0, 1.0, 1.0, 1.0, 1.0, 1.0, 1.0, 1.0, 1.0, 1.0, 1.0, 1.0, 1.0, 1.0, 1.0, 1.0, 1.0, 1.0, 1.0, 1.0, 1.0, 1.0, 1.0, 1.0, 1.0, 1.0, 1.0, 1.0, 1.0, 1.0]

>  <TempFactor>  (199) 
[21.5, 44.89, 24.36, 42.16, 38.25, 23.95, 40.64, 20.41, 29.29, 22.5, 27.31, 23.15, 28.56, 41.84, 29.6, 38.53, 33.37, 31.58, 30.86, 27.88, 28.97, 31.52, 43.05, 27.66, 27.42, 21.95, 25.67, 24.02, 25.01, 43.36, 43.87, 19.31, 17.05, 26.62, 26.73, 28.95, 20.4, 17.34, 20.74, 21.57, 21.69, 20.06, 20.47, 18.67, 21.64, 27.5, 29.51, 35.17, 31.37, 18.86]

>  <accession>  (199) 
3ZZC_A

>  <description>  (199) 
Chain A, 3C PROTEINASE [Coxsackievirus B3]

>  <evalue>  (199) 
7.4865399999999999e-87

>  <pdb_code>  (199) 
3ZZC

>  <chain>  (199) 
A

>  <ligands>  (199) 
[{'chain_id': 'A', 'author_residue_number': 1181, 'author_insertion_code': '', 'chem_comp_id': 'G83', 'alternate_conformers': 0, 'entity_id': 2, 'struct_asym_id': 'B', 'residue_number': 1, 'chem_comp_name': 'ETHYL (5S,8S,11R)-8-BENZYL-5-(2-TERT-BUTOXY-2-OXOETHYL)-3,6,9-TRIOXO-11-{[(3S)-2-OXOPYRROLIDIN-3-YL]METHYL}-1-PHENYL-2-OXA-4,7,10-TRIAZATETRADECAN-14-OATE', 'weight': 680.788, 'carbohydrate_polymer': False, 'branch_name': ''}]

>  <ligand_codes>  (199) 
['G83']

>  <cofactor_codes>  (199) 
[]

>  <has_cofactor>  (199) 
False

>  <covalent>  (199) 
True

>  <base_name>  (199) 
3ZZC

>  <lig_resn>  (199) 
G83

>  <lig_resi>  (199) 
1181

>  <lig_chain>  (199) 
A

>  <lig_segi>  (199) 
B

>  <lig_alt>  (199) 


>  <polymer_chain>  (199) 
A

>  <single_smiles>  (199) 
CCOC(=O)CC[C@H](C[C@@H]1CCNC1=O)NC(=O)[C@H](Cc2ccccc2)NC(=O)[C@H](CC(=O)OC(C)(C)C)NC(=O)OCc3ccccc3

$$$$
G83P1S41
     RDKit          3D

 39 40  0  0  0  0  0  0  0  0999 V2000
   -9.9650   18.3270  -30.5810 O   0  0  0  0  0  0  0  0  0  0  0  0
   -9.6140   17.8180  -31.9050 C   0  0  0  0  0  0  0  0  0  0  0  0
   -8.9270   16.6710  -31.9560 N   0  0  0  0  0  0  0  0  0  0  0  0
   -9.9760   18.4340  -32.9180 O   0  0  0  0  0  0  0  0  0  0  0  0
   -8.5890   16.1350  -33.2460 C   0  0  1  0  0  0  0  0  0  0  0  0
   -7.0940   15.9700  -33.0860 C   0  0  0  0  0  0  0  0  0  0  0  0
   -9.0700   14.7310  -33.4520 C   0  0  0  0  0  0  0  0  0  0  0  0
   -6.3360   17.1850  -33.4620 C   0  0  0  0  0  0  0  0  0  0  0  0
   -9.2610   14.3500  -34.7310 N   0  0  0  0  0  0  0  0  0  0  0  0
   -9.1660   13.9920  -32.4630 O   0  0  0  0  0  0  0  0  0  0  0  0
   -5.3760   17.6500  -32.4930 O   0  0  0  0  0  0  0  0  0  0  0  0
   -6.4670   17.7660  -34.5460 O   0  0  0  0  0  0  0  0  0  0  0  0
   -9.6510   12.9770  -35.0820 C   0  0  2  0  0  0  0  0  0  0  0  0
   -8.4620   12.0930  -34.7840 C   0  0  0  0  0  0  0  0  0  0  0  0
   -9.8940   12.8970  -36.5940 C   0  0  0  0  0  0  0  0  0  0  0  0
   -7.3180   12.4750  -35.0590 O   0  0  0  0  0  0  0  0  0  0  0  0
   -8.7450   10.9170  -34.2200 N   0  0  0  0  0  0  0  0  0  0  0  0
  -11.1210   13.7000  -36.9770 C   0  0  0  0  0  0  0  0  0  0  0  0
   -7.7310    9.9410  -33.8290 C   0  0  1  0  0  0  0  0  0  0  0  0
  -12.3400   13.5180  -36.3250 C   0  0  0  0  0  0  0  0  0  0  0  0
  -11.0320   14.6580  -38.0030 C   0  0  0  0  0  0  0  0  0  0  0  0
   -7.6750    9.9230  -32.2970 C   0  0  0  0  0  0  0  0  0  0  0  0
   -8.1830    8.5770  -34.4040 C   0  0  2  0  0  0  0  0  0  0  0  0
  -13.4670   14.3010  -36.6620 C   0  0  0  0  0  0  0  0  0  0  0  0
  -12.1840   15.4150  -38.3560 C   0  0  0  0  0  0  0  0  0  0  0  0
   -7.2530   11.2580  -31.6380 C   0  0  1  0  0  0  0  0  0  0  0  0
   -8.1980    8.6230  -35.9360 C   0  0  0  0  0  0  0  0  0  0  0  0
   -9.8310    8.1200  -33.8380 R   0  0  0  0  0  0  0  0  0  0  0  0
  -13.4100   15.2640  -37.6860 C   0  0  0  0  0  0  0  0  0  0  0  0
   -7.1040   11.1020  -30.1450 C   0  0  0  0  0  0  0  0  0  0  0  0
   -5.9010   11.8850  -31.9840 C   0  0  0  0  0  0  0  0  0  0  0  0
   -6.8090    8.9220  -36.4600 C   0  0  0  0  0  0  0  0  0  0  0  0
   -7.8010   10.3100  -29.5070 O   0  0  0  0  0  0  0  0  0  0  0  0
   -6.2280   11.9150  -29.7100 N   0  0  0  0  0  0  0  0  0  0  0  0
   -5.4330   12.6240  -30.7080 C   0  0  0  0  0  0  0  0  0  0  0  0
   -6.6580    9.7290  -37.6550 O   0  0  0  0  0  0  0  0  0  0  0  0
   -5.8080    8.4980  -35.8980 O   0  0  0  0  0  0  0  0  0  0  0  0
   -5.3610   10.2030  -38.0740 C   0  0  0  0  0  0  0  0  0  0  0  0
   -4.5750    9.1110  -38.7950 C   0  0  0  0  0  0  0  0  0  0  0  0
  1  2  1  0
  2  3  1  0
  2  4  2  0
  3  5  1  0
  5  6  1  1
  5  7  1  0
  8  6  1  0
  7  9  1  0
  7 10  2  0
 11  8  1  0
 12  8  2  0
  9 13  1  0
 13 14  1  0
 13 15  1  6
 14 16  2  0
 14 17  1  0
 15 18  1  0
 17 19  1  0
 18 20  2  0
 18 21  1  0
 19 22  1  1
 19 23  1  0
 24 20  1  0
 25 21  2  0
 26 22  1  6
 23 27  1  0
 23 28  1  1
 24 29  2  0
 29 25  1  0
 26 30  1  0
 26 31  1  0
 27 32  1  0
 30 33  2  0
 30 34  1  0
 35 31  1  0
 32 36  1  0
 32 37  2  0
 34 35  1  0
 38 36  1  0
 38 39  1  0
V   28 *
A    2
 C17
A    3
 N21
A    4
 O19
A    5
 C23
A    6
 C25
A    7
 C31
A    8
 C14
A    9
 N33
A   10
 O35
A   12
 O1 
A   13
 C37
A   14
 C39
A   15
 C41
A   16
 O47
A   17
 N49
A   18
 C51
A   19
 C57
A   20
 C53
A   21
 C55
A   22
 C59
A   23
 C63
A   24
 C7 
A   25
 C11
A   26
 C61
A   27
 C82
A   28
 X  
A   29
 C9 
A   30
 C65
A   31
 C73
A   32
 C84
A   33
 O66
A   34
 N69
A   35
 C71
A   36
 O86
A   37
 O88
A   38
 C3 
A   39
 C5 
M  END
>  <XChem_code>  (200) 
G83§1

>  <Occupancy>  (200) 
[1.0, 1.0, 1.0, 1.0, 1.0, 1.0, 1.0, 1.0, 1.0, 1.0, 1.0, 1.0, 1.0, 1.0, 1.0, 1.0, 1.0, 1.0, 1.0, 1.0, 1.0, 1.0, 1.0, 1.0, 1.0, 1.0, 1.0, 1.0, 1.0, 1.0, 1.0, 1.0, 1.0, 1.0, 1.0, 1.0, 1.0, 1.0, 1.0, 1.0, 1.0, 1.0, 1.0, 1.0, 1.0, 1.0, 1.0, 1.0, 1.0, 1.0]

>  <TempFactor>  (200) 
[21.5, 44.89, 24.36, 42.16, 38.25, 23.95, 40.64, 20.41, 29.29, 22.5, 27.31, 23.15, 28.56, 41.84, 29.6, 38.53, 33.37, 31.58, 30.86, 27.88, 28.97, 31.52, 43.05, 27.66, 27.42, 21.95, 25.67, 24.02, 25.01, 43.36, 43.87, 19.31, 17.05, 26.62, 26.73, 28.95, 20.4, 17.34, 20.74, 21.57, 21.69, 20.06, 20.47, 18.67, 21.64, 27.5, 29.51, 35.17, 31.37, 18.86]

>  <accession>  (200) 
3ZZC_A

>  <description>  (200) 
Chain A, 3C PROTEINASE [Coxsackievirus B3]

>  <evalue>  (200) 
7.4865399999999999e-87

>  <pdb_code>  (200) 
3ZZC

>  <chain>  (200) 
A

>  <ligands>  (200) 
[{'chain_id': 'A', 'author_residue_number': 1181, 'author_insertion_code': '', 'chem_comp_id': 'G83', 'alternate_conformers': 0, 'entity_id': 2, 'struct_asym_id': 'B', 'residue_number': 1, 'chem_comp_name': 'ETHYL (5S,8S,11R)-8-BENZYL-5-(2-TERT-BUTOXY-2-OXOETHYL)-3,6,9-TRIOXO-11-{[(3S)-2-OXOPYRROLIDIN-3-YL]METHYL}-1-PHENYL-2-OXA-4,7,10-TRIAZATETRADECAN-14-OATE', 'weight': 680.788, 'carbohydrate_polymer': False, 'branch_name': ''}]

>  <ligand_codes>  (200) 
['G83']

>  <cofactor_codes>  (200) 
[]

>  <has_cofactor>  (200) 
False

>  <covalent>  (200) 
True

>  <base_name>  (200) 
3ZZC

>  <lig_resn>  (200) 
G83

>  <lig_resi>  (200) 
1181

>  <lig_chain>  (200) 
A

>  <lig_segi>  (200) 
B

>  <lig_alt>  (200) 


>  <polymer_chain>  (200) 
A

>  <single_smiles>  (200) 
CCOC(=O)CC[C@H](C[C@@H]1CCNC1=O)NC(=O)[C@H](Cc2ccccc2)NC(=O)[C@H](CC(=O)OC(C)(C)C)NC(=O)OCc3ccccc3

$$$$
G83P1S42
     RDKit          3D

 11 10  0  0  0  0  0  0  0  0999 V2000
   -5.3760   17.6500  -32.4930 O   0  0  0  0  0  0  0  0  0  0  0  0
   -6.3360   17.1850  -33.4620 C   0  0  0  0  0  0  0  0  0  0  0  0
   -7.0940   15.9700  -33.0860 C   0  0  0  0  0  0  0  0  0  0  0  0
   -6.4670   17.7660  -34.5460 O   0  0  0  0  0  0  0  0  0  0  0  0
   -8.5890   16.1350  -33.2460 C   0  0  2  0  0  0  0  0  0  0  0  0
   -8.9270   16.6710  -31.9560 N   0  0  0  0  0  0  0  0  0  0  0  0
   -9.0700   14.7310  -33.4520 C   0  0  0  0  0  0  0  0  0  0  0  0
   -9.6140   17.8180  -31.9050 C   0  0  0  0  0  0  0  0  0  0  0  0
   -9.1660   13.9920  -32.4630 O   0  0  0  0  0  0  0  0  0  0  0  0
   -9.9650   18.3270  -30.5810 O   0  0  0  0  0  0  0  0  0  0  0  0
   -9.9760   18.4340  -32.9180 O   0  0  0  0  0  0  0  0  0  0  0  0
  1  2  1  0
  2  3  1  0
  4  2  2  0
  5  3  1  1
  6  5  1  0
  5  7  1  0
  8  6  1  0
  7  9  2  0
 10  8  1  0
  8 11  2  0
A    2
 C14
A    3
 C25
A    4
 O1 
A    5
 C23
A    6
 N21
A    8
 C17
A    9
 O35
A   11
 O19
M  END
>  <XChem_code>  (201) 
G83§1

>  <Occupancy>  (201) 
[1.0, 1.0, 1.0, 1.0, 1.0, 1.0, 1.0, 1.0, 1.0, 1.0, 1.0, 1.0, 1.0, 1.0, 1.0, 1.0, 1.0, 1.0, 1.0, 1.0, 1.0, 1.0, 1.0, 1.0, 1.0, 1.0, 1.0, 1.0, 1.0, 1.0, 1.0, 1.0, 1.0, 1.0, 1.0, 1.0, 1.0, 1.0, 1.0, 1.0, 1.0, 1.0, 1.0, 1.0, 1.0, 1.0, 1.0, 1.0, 1.0, 1.0]

>  <TempFactor>  (201) 
[21.5, 44.89, 24.36, 42.16, 38.25, 23.95, 40.64, 20.41, 29.29, 22.5, 27.31, 23.15, 28.56, 41.84, 29.6, 38.53, 33.37, 31.58, 30.86, 27.88, 28.97, 31.52, 43.05, 27.66, 27.42, 21.95, 25.67, 24.02, 25.01, 43.36, 43.87, 19.31, 17.05, 26.62, 26.73, 28.95, 20.4, 17.34, 20.74, 21.57, 21.69, 20.06, 20.47, 18.67, 21.64, 27.5, 29.51, 35.17, 31.37, 18.86]

>  <accession>  (201) 
3ZZC_A

>  <description>  (201) 
Chain A, 3C PROTEINASE [Coxsackievirus B3]

>  <evalue>  (201) 
7.4865399999999999e-87

>  <pdb_code>  (201) 
3ZZC

>  <chain>  (201) 
A

>  <ligands>  (201) 
[{'chain_id': 'A', 'author_residue_number': 1181, 'author_insertion_code': '', 'chem_comp_id': 'G83', 'alternate_conformers': 0, 'entity_id': 2, 'struct_asym_id': 'B', 'residue_number': 1, 'chem_comp_name': 'ETHYL (5S,8S,11R)-8-BENZYL-5-(2-TERT-BUTOXY-2-OXOETHYL)-3,6,9-TRIOXO-11-{[(3S)-2-OXOPYRROLIDIN-3-YL]METHYL}-1-PHENYL-2-OXA-4,7,10-TRIAZATETRADECAN-14-OATE', 'weight': 680.788, 'carbohydrate_polymer': False, 'branch_name': ''}]

>  <ligand_codes>  (201) 
['G83']

>  <cofactor_codes>  (201) 
[]

>  <has_cofactor>  (201) 
False

>  <covalent>  (201) 
True

>  <base_name>  (201) 
3ZZC

>  <lig_resn>  (201) 
G83

>  <lig_resi>  (201) 
1181

>  <lig_chain>  (201) 
A

>  <lig_segi>  (201) 
B

>  <lig_alt>  (201) 


>  <polymer_chain>  (201) 
A

>  <single_smiles>  (201) 
CCOC(=O)CC[C@H](C[C@@H]1CCNC1=O)NC(=O)[C@H](Cc2ccccc2)NC(=O)[C@H](CC(=O)OC(C)(C)C)NC(=O)OCc3ccccc3

$$$$
G83P1S43
     RDKit          3D

 22 22  0  0  0  0  0  0  0  0999 V2000
   -5.3760   17.6500  -32.4930 O   0  0  0  0  0  0  0  0  0  0  0  0
   -6.3360   17.1850  -33.4620 C   0  0  0  0  0  0  0  0  0  0  0  0
   -7.0940   15.9700  -33.0860 C   0  0  0  0  0  0  0  0  0  0  0  0
   -6.4670   17.7660  -34.5460 O   0  0  0  0  0  0  0  0  0  0  0  0
   -8.5890   16.1350  -33.2460 C   0  0  2  0  0  0  0  0  0  0  0  0
   -8.9270   16.6710  -31.9560 N   0  0  0  0  0  0  0  0  0  0  0  0
   -9.0700   14.7310  -33.4520 C   0  0  0  0  0  0  0  0  0  0  0  0
   -9.6140   17.8180  -31.9050 C   0  0  0  0  0  0  0  0  0  0  0  0
   -9.2610   14.3500  -34.7310 N   0  0  0  0  0  0  0  0  0  0  0  0
   -9.1660   13.9920  -32.4630 O   0  0  0  0  0  0  0  0  0  0  0  0
   -9.9650   18.3270  -30.5810 O   0  0  0  0  0  0  0  0  0  0  0  0
   -9.9760   18.4340  -32.9180 O   0  0  0  0  0  0  0  0  0  0  0  0
   -9.6510   12.9770  -35.0820 C   0  0  2  0  0  0  0  0  0  0  0  0
   -8.4620   12.0930  -34.7840 C   0  0  0  0  0  0  0  0  0  0  0  0
   -9.8940   12.8970  -36.5940 C   0  0  0  0  0  0  0  0  0  0  0  0
   -7.3180   12.4750  -35.0590 O   0  0  0  0  0  0  0  0  0  0  0  0
  -11.1210   13.7000  -36.9770 C   0  0  0  0  0  0  0  0  0  0  0  0
  -12.3400   13.5180  -36.3250 C   0  0  0  0  0  0  0  0  0  0  0  0
  -11.0320   14.6580  -38.0030 C   0  0  0  0  0  0  0  0  0  0  0  0
  -13.4670   14.3010  -36.6620 C   0  0  0  0  0  0  0  0  0  0  0  0
  -12.1840   15.4150  -38.3560 C   0  0  0  0  0  0  0  0  0  0  0  0
  -13.4100   15.2640  -37.6860 C   0  0  0  0  0  0  0  0  0  0  0  0
  1  2  1  0
  2  3  1  0
  4  2  2  0
  5  3  1  1
  6  5  1  0
  5  7  1  0
  8  6  1  0
  7  9  1  0
  7 10  2  0
 11  8  1  0
  8 12  2  0
  9 13  1  0
 13 14  1  0
 13 15  1  6
 14 16  2  0
 15 17  1  0
 17 18  2  0
 17 19  1  0
 20 18  1  0
 21 19  2  0
 20 22  2  0
 22 21  1  0
A    2
 C14
A    3
 C25
A    4
 O1 
A    5
 C23
A    6
 N21
A    7
 C31
A    8
 C17
A    9
 N33
A   10
 O35
A   12
 O19
A   13
 C37
A   15
 C41
A   16
 O47
A   17
 C51
A   18
 C53
A   19
 C55
A   20
 C7 
A   21
 C11
A   22
 C9 
M  END
>  <XChem_code>  (202) 
G83§1

>  <Occupancy>  (202) 
[1.0, 1.0, 1.0, 1.0, 1.0, 1.0, 1.0, 1.0, 1.0, 1.0, 1.0, 1.0, 1.0, 1.0, 1.0, 1.0, 1.0, 1.0, 1.0, 1.0, 1.0, 1.0, 1.0, 1.0, 1.0, 1.0, 1.0, 1.0, 1.0, 1.0, 1.0, 1.0, 1.0, 1.0, 1.0, 1.0, 1.0, 1.0, 1.0, 1.0, 1.0, 1.0, 1.0, 1.0, 1.0, 1.0, 1.0, 1.0, 1.0, 1.0]

>  <TempFactor>  (202) 
[21.5, 44.89, 24.36, 42.16, 38.25, 23.95, 40.64, 20.41, 29.29, 22.5, 27.31, 23.15, 28.56, 41.84, 29.6, 38.53, 33.37, 31.58, 30.86, 27.88, 28.97, 31.52, 43.05, 27.66, 27.42, 21.95, 25.67, 24.02, 25.01, 43.36, 43.87, 19.31, 17.05, 26.62, 26.73, 28.95, 20.4, 17.34, 20.74, 21.57, 21.69, 20.06, 20.47, 18.67, 21.64, 27.5, 29.51, 35.17, 31.37, 18.86]

>  <accession>  (202) 
3ZZC_A

>  <description>  (202) 
Chain A, 3C PROTEINASE [Coxsackievirus B3]

>  <evalue>  (202) 
7.4865399999999999e-87

>  <pdb_code>  (202) 
3ZZC

>  <chain>  (202) 
A

>  <ligands>  (202) 
[{'chain_id': 'A', 'author_residue_number': 1181, 'author_insertion_code': '', 'chem_comp_id': 'G83', 'alternate_conformers': 0, 'entity_id': 2, 'struct_asym_id': 'B', 'residue_number': 1, 'chem_comp_name': 'ETHYL (5S,8S,11R)-8-BENZYL-5-(2-TERT-BUTOXY-2-OXOETHYL)-3,6,9-TRIOXO-11-{[(3S)-2-OXOPYRROLIDIN-3-YL]METHYL}-1-PHENYL-2-OXA-4,7,10-TRIAZATETRADECAN-14-OATE', 'weight': 680.788, 'carbohydrate_polymer': False, 'branch_name': ''}]

>  <ligand_codes>  (202) 
['G83']

>  <cofactor_codes>  (202) 
[]

>  <has_cofactor>  (202) 
False

>  <covalent>  (202) 
True

>  <base_name>  (202) 
3ZZC

>  <lig_resn>  (202) 
G83

>  <lig_resi>  (202) 
1181

>  <lig_chain>  (202) 
A

>  <lig_segi>  (202) 
B

>  <lig_alt>  (202) 


>  <polymer_chain>  (202) 
A

>  <single_smiles>  (202) 
CCOC(=O)CC[C@H](C[C@@H]1CCNC1=O)NC(=O)[C@H](Cc2ccccc2)NC(=O)[C@H](CC(=O)OC(C)(C)C)NC(=O)OCc3ccccc3

$$$$
G83P1S44
     RDKit          3D

 11 11  0  0  0  0  0  0  0  0999 V2000
   -8.9270   16.6710  -31.9560 N   0  0  0  0  0  0  0  0  0  0  0  0
   -9.6140   17.8180  -31.9050 C   0  0  0  0  0  0  0  0  0  0  0  0
   -9.9650   18.3270  -30.5810 O   0  0  0  0  0  0  0  0  0  0  0  0
   -9.9760   18.4340  -32.9180 O   0  0  0  0  0  0  0  0  0  0  0  0
  -10.3020   19.6950  -30.3210 C   0  0  0  0  0  0  0  0  0  0  0  0
  -10.4040   19.8340  -28.8340 C   0  0  0  0  0  0  0  0  0  0  0  0
   -9.6890   20.8420  -28.1960 C   0  0  0  0  0  0  0  0  0  0  0  0
  -11.1970   18.9310  -28.1220 C   0  0  0  0  0  0  0  0  0  0  0  0
   -9.7810   20.9510  -26.7880 C   0  0  0  0  0  0  0  0  0  0  0  0
  -11.3130   19.0390  -26.7440 C   0  0  0  0  0  0  0  0  0  0  0  0
  -10.5960   20.0640  -26.0750 C   0  0  0  0  0  0  0  0  0  0  0  0
  2  1  1  0
  3  2  1  0
  2  4  2  0
  5  3  1  0
  6  5  1  0
  7  6  2  0
  6  8  1  0
  9  7  1  0
  8 10  2  0
  9 11  2  0
 10 11  1  0
A    2
 C17
A    3
 O15
A    4
 O19
A    5
 C13
A    6
 C4 
A    7
 C2 
A    8
 C6 
A    9
 C1 
A   10
 C8 
A   11
 C10
M  END
>  <XChem_code>  (203) 
G83§1

>  <Occupancy>  (203) 
[1.0, 1.0, 1.0, 1.0, 1.0, 1.0, 1.0, 1.0, 1.0, 1.0, 1.0, 1.0, 1.0, 1.0, 1.0, 1.0, 1.0, 1.0, 1.0, 1.0, 1.0, 1.0, 1.0, 1.0, 1.0, 1.0, 1.0, 1.0, 1.0, 1.0, 1.0, 1.0, 1.0, 1.0, 1.0, 1.0, 1.0, 1.0, 1.0, 1.0, 1.0, 1.0, 1.0, 1.0, 1.0, 1.0, 1.0, 1.0, 1.0, 1.0]

>  <TempFactor>  (203) 
[21.5, 44.89, 24.36, 42.16, 38.25, 23.95, 40.64, 20.41, 29.29, 22.5, 27.31, 23.15, 28.56, 41.84, 29.6, 38.53, 33.37, 31.58, 30.86, 27.88, 28.97, 31.52, 43.05, 27.66, 27.42, 21.95, 25.67, 24.02, 25.01, 43.36, 43.87, 19.31, 17.05, 26.62, 26.73, 28.95, 20.4, 17.34, 20.74, 21.57, 21.69, 20.06, 20.47, 18.67, 21.64, 27.5, 29.51, 35.17, 31.37, 18.86]

>  <accession>  (203) 
3ZZC_A

>  <description>  (203) 
Chain A, 3C PROTEINASE [Coxsackievirus B3]

>  <evalue>  (203) 
7.4865399999999999e-87

>  <pdb_code>  (203) 
3ZZC

>  <chain>  (203) 
A

>  <ligands>  (203) 
[{'chain_id': 'A', 'author_residue_number': 1181, 'author_insertion_code': '', 'chem_comp_id': 'G83', 'alternate_conformers': 0, 'entity_id': 2, 'struct_asym_id': 'B', 'residue_number': 1, 'chem_comp_name': 'ETHYL (5S,8S,11R)-8-BENZYL-5-(2-TERT-BUTOXY-2-OXOETHYL)-3,6,9-TRIOXO-11-{[(3S)-2-OXOPYRROLIDIN-3-YL]METHYL}-1-PHENYL-2-OXA-4,7,10-TRIAZATETRADECAN-14-OATE', 'weight': 680.788, 'carbohydrate_polymer': False, 'branch_name': ''}]

>  <ligand_codes>  (203) 
['G83']

>  <cofactor_codes>  (203) 
[]

>  <has_cofactor>  (203) 
False

>  <covalent>  (203) 
True

>  <base_name>  (203) 
3ZZC

>  <lig_resn>  (203) 
G83

>  <lig_resi>  (203) 
1181

>  <lig_chain>  (203) 
A

>  <lig_segi>  (203) 
B

>  <lig_alt>  (203) 


>  <polymer_chain>  (203) 
A

>  <single_smiles>  (203) 
CCOC(=O)CC[C@H](C[C@@H]1CCNC1=O)NC(=O)[C@H](Cc2ccccc2)NC(=O)[C@H](CC(=O)OC(C)(C)C)NC(=O)OCc3ccccc3

$$$$
G83P1S45
     RDKit          3D

 39 40  0  0  0  0  0  0  0  0999 V2000
   -8.5890   16.1350  -33.2460 C   0  0  0  0  0  0  0  0  0  0  0  0
   -7.0940   15.9700  -33.0860 C   0  0  0  0  0  0  0  0  0  0  0  0
   -9.0700   14.7310  -33.4520 C   0  0  0  0  0  0  0  0  0  0  0  0
   -6.3360   17.1850  -33.4620 C   0  0  0  0  0  0  0  0  0  0  0  0
   -9.2610   14.3500  -34.7310 N   0  0  0  0  0  0  0  0  0  0  0  0
   -9.1660   13.9920  -32.4630 O   0  0  0  0  0  0  0  0  0  0  0  0
   -6.4670   17.7660  -34.5460 O   0  0  0  0  0  0  0  0  0  0  0  0
   -5.3760   17.6500  -32.4930 O   0  0  0  0  0  0  0  0  0  0  0  0
   -9.6510   12.9770  -35.0820 C   0  0  2  0  0  0  0  0  0  0  0  0
   -4.0330   17.1570  -32.4230 C   0  0  0  0  0  0  0  0  0  0  0  0
   -8.4620   12.0930  -34.7840 C   0  0  0  0  0  0  0  0  0  0  0  0
   -9.8940   12.8970  -36.5940 C   0  0  0  0  0  0  0  0  0  0  0  0
   -3.6770   16.1600  -33.5370 C   0  0  0  0  0  0  0  0  0  0  0  0
   -3.9520   16.4650  -31.0680 C   0  0  0  0  0  0  0  0  0  0  0  0
   -3.0820   18.3540  -32.5240 C   0  0  0  0  0  0  0  0  0  0  0  0
   -7.3180   12.4750  -35.0590 O   0  0  0  0  0  0  0  0  0  0  0  0
   -8.7450   10.9170  -34.2200 N   0  0  0  0  0  0  0  0  0  0  0  0
  -11.1210   13.7000  -36.9770 C   0  0  0  0  0  0  0  0  0  0  0  0
   -7.7310    9.9410  -33.8290 C   0  0  1  0  0  0  0  0  0  0  0  0
  -12.3400   13.5180  -36.3250 C   0  0  0  0  0  0  0  0  0  0  0  0
  -11.0320   14.6580  -38.0030 C   0  0  0  0  0  0  0  0  0  0  0  0
   -7.6750    9.9230  -32.2970 C   0  0  0  0  0  0  0  0  0  0  0  0
   -8.1830    8.5770  -34.4040 C   0  0  2  0  0  0  0  0  0  0  0  0
  -13.4670   14.3010  -36.6620 C   0  0  0  0  0  0  0  0  0  0  0  0
  -12.1840   15.4150  -38.3560 C   0  0  0  0  0  0  0  0  0  0  0  0
   -7.2530   11.2580  -31.6380 C   0  0  1  0  0  0  0  0  0  0  0  0
   -8.1980    8.6230  -35.9360 C   0  0  0  0  0  0  0  0  0  0  0  0
   -9.8310    8.1200  -33.8380 R   0  0  0  0  0  0  0  0  0  0  0  0
  -13.4100   15.2640  -37.6860 C   0  0  0  0  0  0  0  0  0  0  0  0
   -7.1040   11.1020  -30.1450 C   0  0  0  0  0  0  0  0  0  0  0  0
   -5.9010   11.8850  -31.9840 C   0  0  0  0  0  0  0  0  0  0  0  0
   -6.8090    8.9220  -36.4600 C   0  0  0  0  0  0  0  0  0  0  0  0
   -7.8010   10.3100  -29.5070 O   0  0  0  0  0  0  0  0  0  0  0  0
   -6.2280   11.9150  -29.7100 N   0  0  0  0  0  0  0  0  0  0  0  0
   -5.4330   12.6240  -30.7080 C   0  0  0  0  0  0  0  0  0  0  0  0
   -6.6580    9.7290  -37.6550 O   0  0  0  0  0  0  0  0  0  0  0  0
   -5.8080    8.4980  -35.8980 O   0  0  0  0  0  0  0  0  0  0  0  0
   -5.3610   10.2030  -38.0740 C   0  0  0  0  0  0  0  0  0  0  0  0
   -4.5750    9.1110  -38.7950 C   0  0  0  0  0  0  0  0  0  0  0  0
  1  2  1  6
  1  3  1  0
  4  2  1  0
  3  5  1  0
  3  6  2  0
  7  4  2  0
  8  4  1  0
  5  9  1  0
  8 10  1  0
  9 11  1  0
  9 12  1  6
 10 13  1  0
 10 14  1  0
 10 15  1  0
 11 16  2  0
 11 17  1  0
 12 18  1  0
 17 19  1  0
 18 20  2  0
 18 21  1  0
 19 22  1  1
 19 23  1  0
 24 20  1  0
 25 21  2  0
 26 22  1  6
 23 27  1  0
 23 28  1  1
 24 29  2  0
 29 25  1  0
 26 30  1  0
 26 31  1  0
 27 32  1  0
 30 33  2  0
 30 34  1  0
 35 31  1  0
 32 36  1  0
 32 37  2  0
 34 35  1  0
 38 36  1  0
 38 39  1  0
V   28 *
A    2
 C25
A    3
 C31
A    4
 C14
A    5
 N33
A    6
 O35
A    7
 O1 
A    8
 O2 
A    9
 C37
A   10
 C29
A   11
 C39
A   12
 C41
A   13
 C12
A   14
 C43
A   15
 C45
A   16
 O47
A   17
 N49
A   18
 C51
A   19
 C57
A   20
 C53
A   21
 C55
A   22
 C59
A   23
 C63
A   24
 C7 
A   25
 C11
A   26
 C61
A   27
 C82
A   28
 X  
A   29
 C9 
A   30
 C65
A   31
 C73
A   32
 C84
A   33
 O66
A   34
 N69
A   35
 C71
A   36
 O86
A   37
 O88
A   38
 C3 
A   39
 C5 
M  END
>  <XChem_code>  (204) 
G83§1

>  <Occupancy>  (204) 
[1.0, 1.0, 1.0, 1.0, 1.0, 1.0, 1.0, 1.0, 1.0, 1.0, 1.0, 1.0, 1.0, 1.0, 1.0, 1.0, 1.0, 1.0, 1.0, 1.0, 1.0, 1.0, 1.0, 1.0, 1.0, 1.0, 1.0, 1.0, 1.0, 1.0, 1.0, 1.0, 1.0, 1.0, 1.0, 1.0, 1.0, 1.0, 1.0, 1.0, 1.0, 1.0, 1.0, 1.0, 1.0, 1.0, 1.0, 1.0, 1.0, 1.0]

>  <TempFactor>  (204) 
[21.5, 44.89, 24.36, 42.16, 38.25, 23.95, 40.64, 20.41, 29.29, 22.5, 27.31, 23.15, 28.56, 41.84, 29.6, 38.53, 33.37, 31.58, 30.86, 27.88, 28.97, 31.52, 43.05, 27.66, 27.42, 21.95, 25.67, 24.02, 25.01, 43.36, 43.87, 19.31, 17.05, 26.62, 26.73, 28.95, 20.4, 17.34, 20.74, 21.57, 21.69, 20.06, 20.47, 18.67, 21.64, 27.5, 29.51, 35.17, 31.37, 18.86]

>  <accession>  (204) 
3ZZC_A

>  <description>  (204) 
Chain A, 3C PROTEINASE [Coxsackievirus B3]

>  <evalue>  (204) 
7.4865399999999999e-87

>  <pdb_code>  (204) 
3ZZC

>  <chain>  (204) 
A

>  <ligands>  (204) 
[{'chain_id': 'A', 'author_residue_number': 1181, 'author_insertion_code': '', 'chem_comp_id': 'G83', 'alternate_conformers': 0, 'entity_id': 2, 'struct_asym_id': 'B', 'residue_number': 1, 'chem_comp_name': 'ETHYL (5S,8S,11R)-8-BENZYL-5-(2-TERT-BUTOXY-2-OXOETHYL)-3,6,9-TRIOXO-11-{[(3S)-2-OXOPYRROLIDIN-3-YL]METHYL}-1-PHENYL-2-OXA-4,7,10-TRIAZATETRADECAN-14-OATE', 'weight': 680.788, 'carbohydrate_polymer': False, 'branch_name': ''}]

>  <ligand_codes>  (204) 
['G83']

>  <cofactor_codes>  (204) 
[]

>  <has_cofactor>  (204) 
False

>  <covalent>  (204) 
True

>  <base_name>  (204) 
3ZZC

>  <lig_resn>  (204) 
G83

>  <lig_resi>  (204) 
1181

>  <lig_chain>  (204) 
A

>  <lig_segi>  (204) 
B

>  <lig_alt>  (204) 


>  <polymer_chain>  (204) 
A

>  <single_smiles>  (204) 
CCOC(=O)CC[C@H](C[C@@H]1CCNC1=O)NC(=O)[C@H](Cc2ccccc2)NC(=O)[C@H](CC(=O)OC(C)(C)C)NC(=O)OCc3ccccc3

$$$$
G83P1S46
     RDKit          3D

 23 23  0  0  0  0  0  0  0  0999 V2000
   -9.2610   14.3500  -34.7310 N   0  0  0  0  0  0  0  0  0  0  0  0
   -9.0700   14.7310  -33.4520 C   0  0  0  0  0  0  0  0  0  0  0  0
   -8.5890   16.1350  -33.2460 C   0  0  1  0  0  0  0  0  0  0  0  0
   -9.1660   13.9920  -32.4630 O   0  0  0  0  0  0  0  0  0  0  0  0
   -8.9270   16.6710  -31.9560 N   0  0  0  0  0  0  0  0  0  0  0  0
   -7.0940   15.9700  -33.0860 C   0  0  0  0  0  0  0  0  0  0  0  0
   -9.6140   17.8180  -31.9050 C   0  0  0  0  0  0  0  0  0  0  0  0
   -6.3360   17.1850  -33.4620 C   0  0  0  0  0  0  0  0  0  0  0  0
   -9.9650   18.3270  -30.5810 O   0  0  0  0  0  0  0  0  0  0  0  0
   -9.9760   18.4340  -32.9180 O   0  0  0  0  0  0  0  0  0  0  0  0
   -6.4670   17.7660  -34.5460 O   0  0  0  0  0  0  0  0  0  0  0  0
   -5.3760   17.6500  -32.4930 O   0  0  0  0  0  0  0  0  0  0  0  0
  -10.3020   19.6950  -30.3210 C   0  0  0  0  0  0  0  0  0  0  0  0
   -4.0330   17.1570  -32.4230 C   0  0  0  0  0  0  0  0  0  0  0  0
  -10.4040   19.8340  -28.8340 C   0  0  0  0  0  0  0  0  0  0  0  0
   -3.6770   16.1600  -33.5370 C   0  0  0  0  0  0  0  0  0  0  0  0
   -3.9520   16.4650  -31.0680 C   0  0  0  0  0  0  0  0  0  0  0  0
   -3.0820   18.3540  -32.5240 C   0  0  0  0  0  0  0  0  0  0  0  0
   -9.6890   20.8420  -28.1960 C   0  0  0  0  0  0  0  0  0  0  0  0
  -11.1970   18.9310  -28.1220 C   0  0  0  0  0  0  0  0  0  0  0  0
   -9.7810   20.9510  -26.7880 C   0  0  0  0  0  0  0  0  0  0  0  0
  -11.3130   19.0390  -26.7440 C   0  0  0  0  0  0  0  0  0  0  0  0
  -10.5960   20.0640  -26.0750 C   0  0  0  0  0  0  0  0  0  0  0  0
  2  1  1  0
  3  2  1  0
  2  4  2  0
  5  3  1  0
  3  6  1  1
  7  5  1  0
  8  6  1  0
  9  7  1  0
  7 10  2  0
 11  8  2  0
 12  8  1  0
 13  9  1  0
 12 14  1  0
 15 13  1  0
 14 16  1  0
 14 17  1  0
 14 18  1  0
 19 15  2  0
 15 20  1  0
 21 19  1  0
 20 22  2  0
 21 23  2  0
 22 23  1  0
A    2
 C31
A    3
 C23
A    4
 O35
A    5
 N21
A    6
 C25
A    7
 C17
A    8
 C14
A    9
 O15
A   10
 O19
A   11
 O1 
A   12
 O2 
A   13
 C13
A   14
 C29
A   15
 C4 
A   16
 C12
A   17
 C43
A   18
 C45
A   19
 C2 
A   20
 C6 
A   21
 C1 
A   22
 C8 
A   23
 C10
M  END
>  <XChem_code>  (205) 
G83§1

>  <Occupancy>  (205) 
[1.0, 1.0, 1.0, 1.0, 1.0, 1.0, 1.0, 1.0, 1.0, 1.0, 1.0, 1.0, 1.0, 1.0, 1.0, 1.0, 1.0, 1.0, 1.0, 1.0, 1.0, 1.0, 1.0, 1.0, 1.0, 1.0, 1.0, 1.0, 1.0, 1.0, 1.0, 1.0, 1.0, 1.0, 1.0, 1.0, 1.0, 1.0, 1.0, 1.0, 1.0, 1.0, 1.0, 1.0, 1.0, 1.0, 1.0, 1.0, 1.0, 1.0]

>  <TempFactor>  (205) 
[21.5, 44.89, 24.36, 42.16, 38.25, 23.95, 40.64, 20.41, 29.29, 22.5, 27.31, 23.15, 28.56, 41.84, 29.6, 38.53, 33.37, 31.58, 30.86, 27.88, 28.97, 31.52, 43.05, 27.66, 27.42, 21.95, 25.67, 24.02, 25.01, 43.36, 43.87, 19.31, 17.05, 26.62, 26.73, 28.95, 20.4, 17.34, 20.74, 21.57, 21.69, 20.06, 20.47, 18.67, 21.64, 27.5, 29.51, 35.17, 31.37, 18.86]

>  <accession>  (205) 
3ZZC_A

>  <description>  (205) 
Chain A, 3C PROTEINASE [Coxsackievirus B3]

>  <evalue>  (205) 
7.4865399999999999e-87

>  <pdb_code>  (205) 
3ZZC

>  <chain>  (205) 
A

>  <ligands>  (205) 
[{'chain_id': 'A', 'author_residue_number': 1181, 'author_insertion_code': '', 'chem_comp_id': 'G83', 'alternate_conformers': 0, 'entity_id': 2, 'struct_asym_id': 'B', 'residue_number': 1, 'chem_comp_name': 'ETHYL (5S,8S,11R)-8-BENZYL-5-(2-TERT-BUTOXY-2-OXOETHYL)-3,6,9-TRIOXO-11-{[(3S)-2-OXOPYRROLIDIN-3-YL]METHYL}-1-PHENYL-2-OXA-4,7,10-TRIAZATETRADECAN-14-OATE', 'weight': 680.788, 'carbohydrate_polymer': False, 'branch_name': ''}]

>  <ligand_codes>  (205) 
['G83']

>  <cofactor_codes>  (205) 
[]

>  <has_cofactor>  (205) 
False

>  <covalent>  (205) 
True

>  <base_name>  (205) 
3ZZC

>  <lig_resn>  (205) 
G83

>  <lig_resi>  (205) 
1181

>  <lig_chain>  (205) 
A

>  <lig_segi>  (205) 
B

>  <lig_alt>  (205) 


>  <polymer_chain>  (205) 
A

>  <single_smiles>  (205) 
CCOC(=O)CC[C@H](C[C@@H]1CCNC1=O)NC(=O)[C@H](Cc2ccccc2)NC(=O)[C@H](CC(=O)OC(C)(C)C)NC(=O)OCc3ccccc3

$$$$
G83P1S47
     RDKit          3D

 27 28  0  0  0  0  0  0  0  0999 V2000
   -9.6510   12.9770  -35.0820 C   0  0  0  0  0  0  0  0  0  0  0  0
   -8.4620   12.0930  -34.7840 C   0  0  0  0  0  0  0  0  0  0  0  0
   -9.8940   12.8970  -36.5940 C   0  0  0  0  0  0  0  0  0  0  0  0
   -7.3180   12.4750  -35.0590 O   0  0  0  0  0  0  0  0  0  0  0  0
   -8.7450   10.9170  -34.2200 N   0  0  0  0  0  0  0  0  0  0  0  0
  -11.1210   13.7000  -36.9770 C   0  0  0  0  0  0  0  0  0  0  0  0
   -7.7310    9.9410  -33.8290 C   0  0  1  0  0  0  0  0  0  0  0  0
  -12.3400   13.5180  -36.3250 C   0  0  0  0  0  0  0  0  0  0  0  0
  -11.0320   14.6580  -38.0030 C   0  0  0  0  0  0  0  0  0  0  0  0
   -7.6750    9.9230  -32.2970 C   0  0  0  0  0  0  0  0  0  0  0  0
   -8.1830    8.5770  -34.4040 C   0  0  2  0  0  0  0  0  0  0  0  0
  -13.4670   14.3010  -36.6620 C   0  0  0  0  0  0  0  0  0  0  0  0
  -12.1840   15.4150  -38.3560 C   0  0  0  0  0  0  0  0  0  0  0  0
   -7.2530   11.2580  -31.6380 C   0  0  1  0  0  0  0  0  0  0  0  0
   -8.1980    8.6230  -35.9360 C   0  0  0  0  0  0  0  0  0  0  0  0
   -9.8310    8.1200  -33.8380 R   0  0  0  0  0  0  0  0  0  0  0  0
  -13.4100   15.2640  -37.6860 C   0  0  0  0  0  0  0  0  0  0  0  0
   -7.1040   11.1020  -30.1450 C   0  0  0  0  0  0  0  0  0  0  0  0
   -5.9010   11.8850  -31.9840 C   0  0  0  0  0  0  0  0  0  0  0  0
   -6.8090    8.9220  -36.4600 C   0  0  0  0  0  0  0  0  0  0  0  0
   -7.8010   10.3100  -29.5070 O   0  0  0  0  0  0  0  0  0  0  0  0
   -6.2280   11.9150  -29.7100 N   0  0  0  0  0  0  0  0  0  0  0  0
   -5.4330   12.6240  -30.7080 C   0  0  0  0  0  0  0  0  0  0  0  0
   -6.6580    9.7290  -37.6550 O   0  0  0  0  0  0  0  0  0  0  0  0
   -5.8080    8.4980  -35.8980 O   0  0  0  0  0  0  0  0  0  0  0  0
   -5.3610   10.2030  -38.0740 C   0  0  0  0  0  0  0  0  0  0  0  0
   -4.5750    9.1110  -38.7950 C   0  0  0  0  0  0  0  0  0  0  0  0
  1  2  1  0
  1  3  1  6
  2  4  2  0
  2  5  1  0
  3  6  1  0
  5  7  1  0
  6  8  2  0
  6  9  1  0
  7 10  1  1
  7 11  1  0
 12  8  1  0
 13  9  2  0
 14 10  1  6
 11 15  1  0
 11 16  1  1
 12 17  2  0
 17 13  1  0
 14 18  1  0
 14 19  1  0
 15 20  1  0
 18 21  2  0
 18 22  1  0
 23 19  1  0
 20 24  1  0
 20 25  2  0
 22 23  1  0
 26 24  1  0
 26 27  1  0
V   16 *
A    2
 C39
A    3
 C41
A    4
 O47
A    5
 N49
A    6
 C51
A    7
 C57
A    8
 C53
A    9
 C55
A   10
 C59
A   11
 C63
A   12
 C7 
A   13
 C11
A   14
 C61
A   15
 C82
A   16
 X  
A   17
 C9 
A   18
 C65
A   19
 C73
A   20
 C84
A   21
 O66
A   22
 N69
A   23
 C71
A   24
 O86
A   25
 O88
A   26
 C3 
A   27
 C5 
M  END
>  <XChem_code>  (206) 
G83§1

>  <Occupancy>  (206) 
[1.0, 1.0, 1.0, 1.0, 1.0, 1.0, 1.0, 1.0, 1.0, 1.0, 1.0, 1.0, 1.0, 1.0, 1.0, 1.0, 1.0, 1.0, 1.0, 1.0, 1.0, 1.0, 1.0, 1.0, 1.0, 1.0, 1.0, 1.0, 1.0, 1.0, 1.0, 1.0, 1.0, 1.0, 1.0, 1.0, 1.0, 1.0, 1.0, 1.0, 1.0, 1.0, 1.0, 1.0, 1.0, 1.0, 1.0, 1.0, 1.0, 1.0]

>  <TempFactor>  (206) 
[21.5, 44.89, 24.36, 42.16, 38.25, 23.95, 40.64, 20.41, 29.29, 22.5, 27.31, 23.15, 28.56, 41.84, 29.6, 38.53, 33.37, 31.58, 30.86, 27.88, 28.97, 31.52, 43.05, 27.66, 27.42, 21.95, 25.67, 24.02, 25.01, 43.36, 43.87, 19.31, 17.05, 26.62, 26.73, 28.95, 20.4, 17.34, 20.74, 21.57, 21.69, 20.06, 20.47, 18.67, 21.64, 27.5, 29.51, 35.17, 31.37, 18.86]

>  <accession>  (206) 
3ZZC_A

>  <description>  (206) 
Chain A, 3C PROTEINASE [Coxsackievirus B3]

>  <evalue>  (206) 
7.4865399999999999e-87

>  <pdb_code>  (206) 
3ZZC

>  <chain>  (206) 
A

>  <ligands>  (206) 
[{'chain_id': 'A', 'author_residue_number': 1181, 'author_insertion_code': '', 'chem_comp_id': 'G83', 'alternate_conformers': 0, 'entity_id': 2, 'struct_asym_id': 'B', 'residue_number': 1, 'chem_comp_name': 'ETHYL (5S,8S,11R)-8-BENZYL-5-(2-TERT-BUTOXY-2-OXOETHYL)-3,6,9-TRIOXO-11-{[(3S)-2-OXOPYRROLIDIN-3-YL]METHYL}-1-PHENYL-2-OXA-4,7,10-TRIAZATETRADECAN-14-OATE', 'weight': 680.788, 'carbohydrate_polymer': False, 'branch_name': ''}]

>  <ligand_codes>  (206) 
['G83']

>  <cofactor_codes>  (206) 
[]

>  <has_cofactor>  (206) 
False

>  <covalent>  (206) 
True

>  <base_name>  (206) 
3ZZC

>  <lig_resn>  (206) 
G83

>  <lig_resi>  (206) 
1181

>  <lig_chain>  (206) 
A

>  <lig_segi>  (206) 
B

>  <lig_alt>  (206) 


>  <polymer_chain>  (206) 
A

>  <single_smiles>  (206) 
CCOC(=O)CC[C@H](C[C@@H]1CCNC1=O)NC(=O)[C@H](Cc2ccccc2)NC(=O)[C@H](CC(=O)OC(C)(C)C)NC(=O)OCc3ccccc3

$$$$
G83P1S48
     RDKit          3D

 16 16  0  0  0  0  0  0  0  0999 V2000
   -7.7310    9.9410  -33.8290 C   0  0  0  0  0  0  0  0  0  0  0  0
   -7.6750    9.9230  -32.2970 C   0  0  0  0  0  0  0  0  0  0  0  0
   -8.1830    8.5770  -34.4040 C   0  0  2  0  0  0  0  0  0  0  0  0
   -7.2530   11.2580  -31.6380 C   0  0  1  0  0  0  0  0  0  0  0  0
   -8.1980    8.6230  -35.9360 C   0  0  0  0  0  0  0  0  0  0  0  0
   -9.8310    8.1200  -33.8380 R   0  0  0  0  0  0  0  0  0  0  0  0
   -7.1040   11.1020  -30.1450 C   0  0  0  0  0  0  0  0  0  0  0  0
   -5.9010   11.8850  -31.9840 C   0  0  0  0  0  0  0  0  0  0  0  0
   -6.8090    8.9220  -36.4600 C   0  0  0  0  0  0  0  0  0  0  0  0
   -7.8010   10.3100  -29.5070 O   0  0  0  0  0  0  0  0  0  0  0  0
   -6.2280   11.9150  -29.7100 N   0  0  0  0  0  0  0  0  0  0  0  0
   -5.4330   12.6240  -30.7080 C   0  0  0  0  0  0  0  0  0  0  0  0
   -6.6580    9.7290  -37.6550 O   0  0  0  0  0  0  0  0  0  0  0  0
   -5.8080    8.4980  -35.8980 O   0  0  0  0  0  0  0  0  0  0  0  0
   -5.3610   10.2030  -38.0740 C   0  0  0  0  0  0  0  0  0  0  0  0
   -4.5750    9.1110  -38.7950 C   0  0  0  0  0  0  0  0  0  0  0  0
  1  2  1  6
  1  3  1  0
  4  2  1  6
  3  5  1  0
  3  6  1  1
  4  7  1  0
  4  8  1  0
  5  9  1  0
  7 10  2  0
  7 11  1  0
 12  8  1  0
  9 13  1  0
  9 14  2  0
 11 12  1  0
 15 13  1  0
 15 16  1  0
V    6 *
A    2
 C59
A    3
 C63
A    4
 C61
A    5
 C82
A    6
 X  
A    7
 C65
A    8
 C73
A    9
 C84
A   10
 O66
A   11
 N69
A   12
 C71
A   13
 O86
A   14
 O88
A   15
 C3 
A   16
 C5 
M  END
>  <XChem_code>  (207) 
G83§1

>  <Occupancy>  (207) 
[1.0, 1.0, 1.0, 1.0, 1.0, 1.0, 1.0, 1.0, 1.0, 1.0, 1.0, 1.0, 1.0, 1.0, 1.0, 1.0, 1.0, 1.0, 1.0, 1.0, 1.0, 1.0, 1.0, 1.0, 1.0, 1.0, 1.0, 1.0, 1.0, 1.0, 1.0, 1.0, 1.0, 1.0, 1.0, 1.0, 1.0, 1.0, 1.0, 1.0, 1.0, 1.0, 1.0, 1.0, 1.0, 1.0, 1.0, 1.0, 1.0, 1.0]

>  <TempFactor>  (207) 
[21.5, 44.89, 24.36, 42.16, 38.25, 23.95, 40.64, 20.41, 29.29, 22.5, 27.31, 23.15, 28.56, 41.84, 29.6, 38.53, 33.37, 31.58, 30.86, 27.88, 28.97, 31.52, 43.05, 27.66, 27.42, 21.95, 25.67, 24.02, 25.01, 43.36, 43.87, 19.31, 17.05, 26.62, 26.73, 28.95, 20.4, 17.34, 20.74, 21.57, 21.69, 20.06, 20.47, 18.67, 21.64, 27.5, 29.51, 35.17, 31.37, 18.86]

>  <accession>  (207) 
3ZZC_A

>  <description>  (207) 
Chain A, 3C PROTEINASE [Coxsackievirus B3]

>  <evalue>  (207) 
7.4865399999999999e-87

>  <pdb_code>  (207) 
3ZZC

>  <chain>  (207) 
A

>  <ligands>  (207) 
[{'chain_id': 'A', 'author_residue_number': 1181, 'author_insertion_code': '', 'chem_comp_id': 'G83', 'alternate_conformers': 0, 'entity_id': 2, 'struct_asym_id': 'B', 'residue_number': 1, 'chem_comp_name': 'ETHYL (5S,8S,11R)-8-BENZYL-5-(2-TERT-BUTOXY-2-OXOETHYL)-3,6,9-TRIOXO-11-{[(3S)-2-OXOPYRROLIDIN-3-YL]METHYL}-1-PHENYL-2-OXA-4,7,10-TRIAZATETRADECAN-14-OATE', 'weight': 680.788, 'carbohydrate_polymer': False, 'branch_name': ''}]

>  <ligand_codes>  (207) 
['G83']

>  <cofactor_codes>  (207) 
[]

>  <has_cofactor>  (207) 
False

>  <covalent>  (207) 
True

>  <base_name>  (207) 
3ZZC

>  <lig_resn>  (207) 
G83

>  <lig_resi>  (207) 
1181

>  <lig_chain>  (207) 
A

>  <lig_segi>  (207) 
B

>  <lig_alt>  (207) 


>  <polymer_chain>  (207) 
A

>  <single_smiles>  (207) 
CCOC(=O)CC[C@H](C[C@@H]1CCNC1=O)NC(=O)[C@H](Cc2ccccc2)NC(=O)[C@H](CC(=O)OC(C)(C)C)NC(=O)OCc3ccccc3

$$$$
G83P1S49
     RDKit          3D

 34 35  0  0  0  0  0  0  0  0999 V2000
   -8.7450   10.9170  -34.2200 N   0  0  0  0  0  0  0  0  0  0  0  0
   -8.4620   12.0930  -34.7840 C   0  0  0  0  0  0  0  0  0  0  0  0
   -9.6510   12.9770  -35.0820 C   0  0  1  0  0  0  0  0  0  0  0  0
   -7.3180   12.4750  -35.0590 O   0  0  0  0  0  0  0  0  0  0  0  0
   -9.2610   14.3500  -34.7310 N   0  0  0  0  0  0  0  0  0  0  0  0
   -9.8940   12.8970  -36.5940 C   0  0  0  0  0  0  0  0  0  0  0  0
   -9.0700   14.7310  -33.4520 C   0  0  0  0  0  0  0  0  0  0  0  0
  -11.1210   13.7000  -36.9770 C   0  0  0  0  0  0  0  0  0  0  0  0
   -8.5890   16.1350  -33.2460 C   0  0  1  0  0  0  0  0  0  0  0  0
   -9.1660   13.9920  -32.4630 O   0  0  0  0  0  0  0  0  0  0  0  0
  -12.3400   13.5180  -36.3250 C   0  0  0  0  0  0  0  0  0  0  0  0
  -11.0320   14.6580  -38.0030 C   0  0  0  0  0  0  0  0  0  0  0  0
   -8.9270   16.6710  -31.9560 N   0  0  0  0  0  0  0  0  0  0  0  0
   -7.0940   15.9700  -33.0860 C   0  0  0  0  0  0  0  0  0  0  0  0
  -13.4670   14.3010  -36.6620 C   0  0  0  0  0  0  0  0  0  0  0  0
  -12.1840   15.4150  -38.3560 C   0  0  0  0  0  0  0  0  0  0  0  0
   -9.6140   17.8180  -31.9050 C   0  0  0  0  0  0  0  0  0  0  0  0
   -6.3360   17.1850  -33.4620 C   0  0  0  0  0  0  0  0  0  0  0  0
  -13.4100   15.2640  -37.6860 C   0  0  0  0  0  0  0  0  0  0  0  0
   -9.9650   18.3270  -30.5810 O   0  0  0  0  0  0  0  0  0  0  0  0
   -9.9760   18.4340  -32.9180 O   0  0  0  0  0  0  0  0  0  0  0  0
   -6.4670   17.7660  -34.5460 O   0  0  0  0  0  0  0  0  0  0  0  0
   -5.3760   17.6500  -32.4930 O   0  0  0  0  0  0  0  0  0  0  0  0
  -10.3020   19.6950  -30.3210 C   0  0  0  0  0  0  0  0  0  0  0  0
   -4.0330   17.1570  -32.4230 C   0  0  0  0  0  0  0  0  0  0  0  0
  -10.4040   19.8340  -28.8340 C   0  0  0  0  0  0  0  0  0  0  0  0
   -3.6770   16.1600  -33.5370 C   0  0  0  0  0  0  0  0  0  0  0  0
   -3.9520   16.4650  -31.0680 C   0  0  0  0  0  0  0  0  0  0  0  0
   -3.0820   18.3540  -32.5240 C   0  0  0  0  0  0  0  0  0  0  0  0
   -9.6890   20.8420  -28.1960 C   0  0  0  0  0  0  0  0  0  0  0  0
  -11.1970   18.9310  -28.1220 C   0  0  0  0  0  0  0  0  0  0  0  0
   -9.7810   20.9510  -26.7880 C   0  0  0  0  0  0  0  0  0  0  0  0
  -11.3130   19.0390  -26.7440 C   0  0  0  0  0  0  0  0  0  0  0  0
  -10.5960   20.0640  -26.0750 C   0  0  0  0  0  0  0  0  0  0  0  0
  2  1  1  0
  3  2  1  0
  2  4  2  0
  5  3  1  0
  3  6  1  6
  7  5  1  0
  6  8  1  0
  9  7  1  0
  7 10  2  0
  8 11  2  0
  8 12  1  0
 13  9  1  0
  9 14  1  1
 15 11  1  0
 16 12  2  0
 17 13  1  0
 18 14  1  0
 15 19  2  0
 19 16  1  0
 20 17  1  0
 17 21  2  0
 22 18  2  0
 23 18  1  0
 24 20  1  0
 23 25  1  0
 26 24  1  0
 25 27  1  0
 25 28  1  0
 25 29  1  0
 30 26  2  0
 26 31  1  0
 32 30  1  0
 31 33  2  0
 32 34  2  0
 33 34  1  0
A    2
 C39
A    3
 C37
A    4
 O47
A    5
 N33
A    6
 C41
A    7
 C31
A    8
 C51
A    9
 C23
A   10
 O35
A   11
 C53
A   12
 C55
A   13
 N21
A   14
 C25
A   15
 C7 
A   16
 C11
A   17
 C17
A   18
 C14
A   19
 C9 
A   20
 O15
A   21
 O19
A   22
 O1 
A   23
 O2 
A   24
 C13
A   25
 C29
A   26
 C4 
A   27
 C12
A   28
 C43
A   29
 C45
A   30
 C2 
A   31
 C6 
A   32
 C1 
A   33
 C8 
A   34
 C10
M  END
>  <XChem_code>  (208) 
G83§1

>  <Occupancy>  (208) 
[1.0, 1.0, 1.0, 1.0, 1.0, 1.0, 1.0, 1.0, 1.0, 1.0, 1.0, 1.0, 1.0, 1.0, 1.0, 1.0, 1.0, 1.0, 1.0, 1.0, 1.0, 1.0, 1.0, 1.0, 1.0, 1.0, 1.0, 1.0, 1.0, 1.0, 1.0, 1.0, 1.0, 1.0, 1.0, 1.0, 1.0, 1.0, 1.0, 1.0, 1.0, 1.0, 1.0, 1.0, 1.0, 1.0, 1.0, 1.0, 1.0, 1.0]

>  <TempFactor>  (208) 
[21.5, 44.89, 24.36, 42.16, 38.25, 23.95, 40.64, 20.41, 29.29, 22.5, 27.31, 23.15, 28.56, 41.84, 29.6, 38.53, 33.37, 31.58, 30.86, 27.88, 28.97, 31.52, 43.05, 27.66, 27.42, 21.95, 25.67, 24.02, 25.01, 43.36, 43.87, 19.31, 17.05, 26.62, 26.73, 28.95, 20.4, 17.34, 20.74, 21.57, 21.69, 20.06, 20.47, 18.67, 21.64, 27.5, 29.51, 35.17, 31.37, 18.86]

>  <accession>  (208) 
3ZZC_A

>  <description>  (208) 
Chain A, 3C PROTEINASE [Coxsackievirus B3]

>  <evalue>  (208) 
7.4865399999999999e-87

>  <pdb_code>  (208) 
3ZZC

>  <chain>  (208) 
A

>  <ligands>  (208) 
[{'chain_id': 'A', 'author_residue_number': 1181, 'author_insertion_code': '', 'chem_comp_id': 'G83', 'alternate_conformers': 0, 'entity_id': 2, 'struct_asym_id': 'B', 'residue_number': 1, 'chem_comp_name': 'ETHYL (5S,8S,11R)-8-BENZYL-5-(2-TERT-BUTOXY-2-OXOETHYL)-3,6,9-TRIOXO-11-{[(3S)-2-OXOPYRROLIDIN-3-YL]METHYL}-1-PHENYL-2-OXA-4,7,10-TRIAZATETRADECAN-14-OATE', 'weight': 680.788, 'carbohydrate_polymer': False, 'branch_name': ''}]

>  <ligand_codes>  (208) 
['G83']

>  <cofactor_codes>  (208) 
[]

>  <has_cofactor>  (208) 
False

>  <covalent>  (208) 
True

>  <base_name>  (208) 
3ZZC

>  <lig_resn>  (208) 
G83

>  <lig_resi>  (208) 
1181

>  <lig_chain>  (208) 
A

>  <lig_segi>  (208) 
B

>  <lig_alt>  (208) 


>  <polymer_chain>  (208) 
A

>  <single_smiles>  (208) 
CCOC(=O)CC[C@H](C[C@@H]1CCNC1=O)NC(=O)[C@H](Cc2ccccc2)NC(=O)[C@H](CC(=O)OC(C)(C)C)NC(=O)OCc3ccccc3

$$$$
G83P1S50
     RDKit          3D

 34 35  0  0  0  0  0  0  0  0999 V2000
   -8.5890   16.1350  -33.2460 C   0  0  0  0  0  0  0  0  0  0  0  0
   -7.0940   15.9700  -33.0860 C   0  0  0  0  0  0  0  0  0  0  0  0
   -9.0700   14.7310  -33.4520 C   0  0  0  0  0  0  0  0  0  0  0  0
   -6.3360   17.1850  -33.4620 C   0  0  0  0  0  0  0  0  0  0  0  0
   -9.2610   14.3500  -34.7310 N   0  0  0  0  0  0  0  0  0  0  0  0
   -9.1660   13.9920  -32.4630 O   0  0  0  0  0  0  0  0  0  0  0  0
   -6.4670   17.7660  -34.5460 O   0  0  0  0  0  0  0  0  0  0  0  0
   -9.6510   12.9770  -35.0820 C   0  0  2  0  0  0  0  0  0  0  0  0
   -8.4620   12.0930  -34.7840 C   0  0  0  0  0  0  0  0  0  0  0  0
   -9.8940   12.8970  -36.5940 C   0  0  0  0  0  0  0  0  0  0  0  0
   -7.3180   12.4750  -35.0590 O   0  0  0  0  0  0  0  0  0  0  0  0
   -8.7450   10.9170  -34.2200 N   0  0  0  0  0  0  0  0  0  0  0  0
  -11.1210   13.7000  -36.9770 C   0  0  0  0  0  0  0  0  0  0  0  0
   -7.7310    9.9410  -33.8290 C   0  0  1  0  0  0  0  0  0  0  0  0
  -12.3400   13.5180  -36.3250 C   0  0  0  0  0  0  0  0  0  0  0  0
  -11.0320   14.6580  -38.0030 C   0  0  0  0  0  0  0  0  0  0  0  0
   -7.6750    9.9230  -32.2970 C   0  0  0  0  0  0  0  0  0  0  0  0
   -8.1830    8.5770  -34.4040 C   0  0  2  0  0  0  0  0  0  0  0  0
  -13.4670   14.3010  -36.6620 C   0  0  0  0  0  0  0  0  0  0  0  0
  -12.1840   15.4150  -38.3560 C   0  0  0  0  0  0  0  0  0  0  0  0
   -7.2530   11.2580  -31.6380 C   0  0  1  0  0  0  0  0  0  0  0  0
   -8.1980    8.6230  -35.9360 C   0  0  0  0  0  0  0  0  0  0  0  0
   -9.8310    8.1200  -33.8380 R   0  0  0  0  0  0  0  0  0  0  0  0
  -13.4100   15.2640  -37.6860 C   0  0  0  0  0  0  0  0  0  0  0  0
   -7.1040   11.1020  -30.1450 C   0  0  0  0  0  0  0  0  0  0  0  0
   -5.9010   11.8850  -31.9840 C   0  0  0  0  0  0  0  0  0  0  0  0
   -6.8090    8.9220  -36.4600 C   0  0  0  0  0  0  0  0  0  0  0  0
   -7.8010   10.3100  -29.5070 O   0  0  0  0  0  0  0  0  0  0  0  0
   -6.2280   11.9150  -29.7100 N   0  0  0  0  0  0  0  0  0  0  0  0
   -5.4330   12.6240  -30.7080 C   0  0  0  0  0  0  0  0  0  0  0  0
   -6.6580    9.7290  -37.6550 O   0  0  0  0  0  0  0  0  0  0  0  0
   -5.8080    8.4980  -35.8980 O   0  0  0  0  0  0  0  0  0  0  0  0
   -5.3610   10.2030  -38.0740 C   0  0  0  0  0  0  0  0  0  0  0  0
   -4.5750    9.1110  -38.7950 C   0  0  0  0  0  0  0  0  0  0  0  0
  1  2  1  6
  1  3  1  0
  4  2  1  0
  3  5  1  0
  3  6  2  0
  7  4  2  0
  5  8  1  0
  8  9  1  0
  8 10  1  6
  9 11  2  0
  9 12  1  0
 10 13  1  0
 12 14  1  0
 13 15  2  0
 13 16  1  0
 14 17  1  1
 14 18  1  0
 19 15  1  0
 20 16  2  0
 21 17  1  6
 18 22  1  0
 18 23  1  1
 19 24  2  0
 24 20  1  0
 21 25  1  0
 21 26  1  0
 22 27  1  0
 25 28  2  0
 25 29  1  0
 30 26  1  0
 27 31  1  0
 27 32  2  0
 29 30  1  0
 33 31  1  0
 33 34  1  0
V   23 *
A    2
 C25
A    3
 C31
A    5
 N33
A    6
 O35
A    7
 O1 
A    8
 C37
A    9
 C39
A   10
 C41
A   11
 O47
A   12
 N49
A   13
 C51
A   14
 C57
A   15
 C53
A   16
 C55
A   17
 C59
A   18
 C63
A   19
 C7 
A   20
 C11
A   21
 C61
A   22
 C82
A   23
 X  
A   24
 C9 
A   25
 C65
A   26
 C73
A   27
 C84
A   28
 O66
A   29
 N69
A   30
 C71
A   31
 O86
A   32
 O88
A   33
 C3 
A   34
 C5 
M  END
>  <XChem_code>  (209) 
G83§1

>  <Occupancy>  (209) 
[1.0, 1.0, 1.0, 1.0, 1.0, 1.0, 1.0, 1.0, 1.0, 1.0, 1.0, 1.0, 1.0, 1.0, 1.0, 1.0, 1.0, 1.0, 1.0, 1.0, 1.0, 1.0, 1.0, 1.0, 1.0, 1.0, 1.0, 1.0, 1.0, 1.0, 1.0, 1.0, 1.0, 1.0, 1.0, 1.0, 1.0, 1.0, 1.0, 1.0, 1.0, 1.0, 1.0, 1.0, 1.0, 1.0, 1.0, 1.0, 1.0, 1.0]

>  <TempFactor>  (209) 
[21.5, 44.89, 24.36, 42.16, 38.25, 23.95, 40.64, 20.41, 29.29, 22.5, 27.31, 23.15, 28.56, 41.84, 29.6, 38.53, 33.37, 31.58, 30.86, 27.88, 28.97, 31.52, 43.05, 27.66, 27.42, 21.95, 25.67, 24.02, 25.01, 43.36, 43.87, 19.31, 17.05, 26.62, 26.73, 28.95, 20.4, 17.34, 20.74, 21.57, 21.69, 20.06, 20.47, 18.67, 21.64, 27.5, 29.51, 35.17, 31.37, 18.86]

>  <accession>  (209) 
3ZZC_A

>  <description>  (209) 
Chain A, 3C PROTEINASE [Coxsackievirus B3]

>  <evalue>  (209) 
7.4865399999999999e-87

>  <pdb_code>  (209) 
3ZZC

>  <chain>  (209) 
A

>  <ligands>  (209) 
[{'chain_id': 'A', 'author_residue_number': 1181, 'author_insertion_code': '', 'chem_comp_id': 'G83', 'alternate_conformers': 0, 'entity_id': 2, 'struct_asym_id': 'B', 'residue_number': 1, 'chem_comp_name': 'ETHYL (5S,8S,11R)-8-BENZYL-5-(2-TERT-BUTOXY-2-OXOETHYL)-3,6,9-TRIOXO-11-{[(3S)-2-OXOPYRROLIDIN-3-YL]METHYL}-1-PHENYL-2-OXA-4,7,10-TRIAZATETRADECAN-14-OATE', 'weight': 680.788, 'carbohydrate_polymer': False, 'branch_name': ''}]

>  <ligand_codes>  (209) 
['G83']

>  <cofactor_codes>  (209) 
[]

>  <has_cofactor>  (209) 
False

>  <covalent>  (209) 
True

>  <base_name>  (209) 
3ZZC

>  <lig_resn>  (209) 
G83

>  <lig_resi>  (209) 
1181

>  <lig_chain>  (209) 
A

>  <lig_segi>  (209) 
B

>  <lig_alt>  (209) 


>  <polymer_chain>  (209) 
A

>  <single_smiles>  (209) 
CCOC(=O)CC[C@H](C[C@@H]1CCNC1=O)NC(=O)[C@H](Cc2ccccc2)NC(=O)[C@H](CC(=O)OC(C)(C)C)NC(=O)OCc3ccccc3

$$$$
G83P1S51
     RDKit          3D

 18 18  0  0  0  0  0  0  0  0999 V2000
   -9.2610   14.3500  -34.7310 N   0  0  0  0  0  0  0  0  0  0  0  0
   -9.0700   14.7310  -33.4520 C   0  0  0  0  0  0  0  0  0  0  0  0
   -8.5890   16.1350  -33.2460 C   0  0  2  0  0  0  0  0  0  0  0  0
   -9.1660   13.9920  -32.4630 O   0  0  0  0  0  0  0  0  0  0  0  0
   -7.0940   15.9700  -33.0860 C   0  0  0  0  0  0  0  0  0  0  0  0
   -8.9270   16.6710  -31.9560 N   0  0  0  0  0  0  0  0  0  0  0  0
   -6.3360   17.1850  -33.4620 C   0  0  0  0  0  0  0  0  0  0  0  0
   -9.6140   17.8180  -31.9050 C   0  0  0  0  0  0  0  0  0  0  0  0
   -6.4670   17.7660  -34.5460 O   0  0  0  0  0  0  0  0  0  0  0  0
   -9.9650   18.3270  -30.5810 O   0  0  0  0  0  0  0  0  0  0  0  0
   -9.9760   18.4340  -32.9180 O   0  0  0  0  0  0  0  0  0  0  0  0
  -10.3020   19.6950  -30.3210 C   0  0  0  0  0  0  0  0  0  0  0  0
  -10.4040   19.8340  -28.8340 C   0  0  0  0  0  0  0  0  0  0  0  0
   -9.6890   20.8420  -28.1960 C   0  0  0  0  0  0  0  0  0  0  0  0
  -11.1970   18.9310  -28.1220 C   0  0  0  0  0  0  0  0  0  0  0  0
   -9.7810   20.9510  -26.7880 C   0  0  0  0  0  0  0  0  0  0  0  0
  -11.3130   19.0390  -26.7440 C   0  0  0  0  0  0  0  0  0  0  0  0
  -10.5960   20.0640  -26.0750 C   0  0  0  0  0  0  0  0  0  0  0  0
  2  1  1  0
  3  2  1  0
  2  4  2  0
  3  5  1  1
  6  3  1  0
  7  5  1  0
  8  6  1  0
  9  7  2  0
 10  8  1  0
  8 11  2  0
 12 10  1  0
 13 12  1  0
 14 13  2  0
 13 15  1  0
 16 14  1  0
 15 17  2  0
 16 18  2  0
 17 18  1  0
A    2
 C31
A    3
 C23
A    4
 O35
A    5
 C25
A    6
 N21
A    8
 C17
A    9
 O1 
A   10
 O15
A   11
 O19
A   12
 C13
A   13
 C4 
A   14
 C2 
A   15
 C6 
A   16
 C1 
A   17
 C8 
A   18
 C10
M  END
>  <XChem_code>  (210) 
G83§1

>  <Occupancy>  (210) 
[1.0, 1.0, 1.0, 1.0, 1.0, 1.0, 1.0, 1.0, 1.0, 1.0, 1.0, 1.0, 1.0, 1.0, 1.0, 1.0, 1.0, 1.0, 1.0, 1.0, 1.0, 1.0, 1.0, 1.0, 1.0, 1.0, 1.0, 1.0, 1.0, 1.0, 1.0, 1.0, 1.0, 1.0, 1.0, 1.0, 1.0, 1.0, 1.0, 1.0, 1.0, 1.0, 1.0, 1.0, 1.0, 1.0, 1.0, 1.0, 1.0, 1.0]

>  <TempFactor>  (210) 
[21.5, 44.89, 24.36, 42.16, 38.25, 23.95, 40.64, 20.41, 29.29, 22.5, 27.31, 23.15, 28.56, 41.84, 29.6, 38.53, 33.37, 31.58, 30.86, 27.88, 28.97, 31.52, 43.05, 27.66, 27.42, 21.95, 25.67, 24.02, 25.01, 43.36, 43.87, 19.31, 17.05, 26.62, 26.73, 28.95, 20.4, 17.34, 20.74, 21.57, 21.69, 20.06, 20.47, 18.67, 21.64, 27.5, 29.51, 35.17, 31.37, 18.86]

>  <accession>  (210) 
3ZZC_A

>  <description>  (210) 
Chain A, 3C PROTEINASE [Coxsackievirus B3]

>  <evalue>  (210) 
7.4865399999999999e-87

>  <pdb_code>  (210) 
3ZZC

>  <chain>  (210) 
A

>  <ligands>  (210) 
[{'chain_id': 'A', 'author_residue_number': 1181, 'author_insertion_code': '', 'chem_comp_id': 'G83', 'alternate_conformers': 0, 'entity_id': 2, 'struct_asym_id': 'B', 'residue_number': 1, 'chem_comp_name': 'ETHYL (5S,8S,11R)-8-BENZYL-5-(2-TERT-BUTOXY-2-OXOETHYL)-3,6,9-TRIOXO-11-{[(3S)-2-OXOPYRROLIDIN-3-YL]METHYL}-1-PHENYL-2-OXA-4,7,10-TRIAZATETRADECAN-14-OATE', 'weight': 680.788, 'carbohydrate_polymer': False, 'branch_name': ''}]

>  <ligand_codes>  (210) 
['G83']

>  <cofactor_codes>  (210) 
[]

>  <has_cofactor>  (210) 
False

>  <covalent>  (210) 
True

>  <base_name>  (210) 
3ZZC

>  <lig_resn>  (210) 
G83

>  <lig_resi>  (210) 
1181

>  <lig_chain>  (210) 
A

>  <lig_segi>  (210) 
B

>  <lig_alt>  (210) 


>  <polymer_chain>  (210) 
A

>  <single_smiles>  (210) 
CCOC(=O)CC[C@H](C[C@@H]1CCNC1=O)NC(=O)[C@H](Cc2ccccc2)NC(=O)[C@H](CC(=O)OC(C)(C)C)NC(=O)OCc3ccccc3

$$$$
G83P1S52
     RDKit          3D

 29 30  0  0  0  0  0  0  0  0999 V2000
   -8.7450   10.9170  -34.2200 N   0  0  0  0  0  0  0  0  0  0  0  0
   -8.4620   12.0930  -34.7840 C   0  0  0  0  0  0  0  0  0  0  0  0
   -9.6510   12.9770  -35.0820 C   0  0  1  0  0  0  0  0  0  0  0  0
   -7.3180   12.4750  -35.0590 O   0  0  0  0  0  0  0  0  0  0  0  0
   -9.2610   14.3500  -34.7310 N   0  0  0  0  0  0  0  0  0  0  0  0
   -9.8940   12.8970  -36.5940 C   0  0  0  0  0  0  0  0  0  0  0  0
   -9.0700   14.7310  -33.4520 C   0  0  0  0  0  0  0  0  0  0  0  0
  -11.1210   13.7000  -36.9770 C   0  0  0  0  0  0  0  0  0  0  0  0
   -8.5890   16.1350  -33.2460 C   0  0  2  0  0  0  0  0  0  0  0  0
   -9.1660   13.9920  -32.4630 O   0  0  0  0  0  0  0  0  0  0  0  0
  -12.3400   13.5180  -36.3250 C   0  0  0  0  0  0  0  0  0  0  0  0
  -11.0320   14.6580  -38.0030 C   0  0  0  0  0  0  0  0  0  0  0  0
   -7.0940   15.9700  -33.0860 C   0  0  0  0  0  0  0  0  0  0  0  0
   -8.9270   16.6710  -31.9560 N   0  0  0  0  0  0  0  0  0  0  0  0
  -13.4670   14.3010  -36.6620 C   0  0  0  0  0  0  0  0  0  0  0  0
  -12.1840   15.4150  -38.3560 C   0  0  0  0  0  0  0  0  0  0  0  0
   -6.3360   17.1850  -33.4620 C   0  0  0  0  0  0  0  0  0  0  0  0
   -9.6140   17.8180  -31.9050 C   0  0  0  0  0  0  0  0  0  0  0  0
  -13.4100   15.2640  -37.6860 C   0  0  0  0  0  0  0  0  0  0  0  0
   -6.4670   17.7660  -34.5460 O   0  0  0  0  0  0  0  0  0  0  0  0
   -9.9650   18.3270  -30.5810 O   0  0  0  0  0  0  0  0  0  0  0  0
   -9.9760   18.4340  -32.9180 O   0  0  0  0  0  0  0  0  0  0  0  0
  -10.3020   19.6950  -30.3210 C   0  0  0  0  0  0  0  0  0  0  0  0
  -10.4040   19.8340  -28.8340 C   0  0  0  0  0  0  0  0  0  0  0  0
   -9.6890   20.8420  -28.1960 C   0  0  0  0  0  0  0  0  0  0  0  0
  -11.1970   18.9310  -28.1220 C   0  0  0  0  0  0  0  0  0  0  0  0
   -9.7810   20.9510  -26.7880 C   0  0  0  0  0  0  0  0  0  0  0  0
  -11.3130   19.0390  -26.7440 C   0  0  0  0  0  0  0  0  0  0  0  0
  -10.5960   20.0640  -26.0750 C   0  0  0  0  0  0  0  0  0  0  0  0
  2  1  1  0
  3  2  1  0
  2  4  2  0
  5  3  1  0
  3  6  1  6
  7  5  1  0
  6  8  1  0
  9  7  1  0
  7 10  2  0
  8 11  2  0
  8 12  1  0
  9 13  1  1
 14  9  1  0
 15 11  1  0
 16 12  2  0
 17 13  1  0
 18 14  1  0
 15 19  2  0
 19 16  1  0
 20 17  2  0
 21 18  1  0
 18 22  2  0
 23 21  1  0
 24 23  1  0
 25 24  2  0
 24 26  1  0
 27 25  1  0
 26 28  2  0
 27 29  2  0
 28 29  1  0
A    2
 C39
A    3
 C37
A    4
 O47
A    5
 N33
A    6
 C41
A    7
 C31
A    8
 C51
A    9
 C23
A   10
 O35
A   11
 C53
A   12
 C55
A   13
 C25
A   14
 N21
A   15
 C7 
A   16
 C11
A   18
 C17
A   19
 C9 
A   20
 O1 
A   21
 O15
A   22
 O19
A   23
 C13
A   24
 C4 
A   25
 C2 
A   26
 C6 
A   27
 C1 
A   28
 C8 
A   29
 C10
M  END
>  <XChem_code>  (211) 
G83§1

>  <Occupancy>  (211) 
[1.0, 1.0, 1.0, 1.0, 1.0, 1.0, 1.0, 1.0, 1.0, 1.0, 1.0, 1.0, 1.0, 1.0, 1.0, 1.0, 1.0, 1.0, 1.0, 1.0, 1.0, 1.0, 1.0, 1.0, 1.0, 1.0, 1.0, 1.0, 1.0, 1.0, 1.0, 1.0, 1.0, 1.0, 1.0, 1.0, 1.0, 1.0, 1.0, 1.0, 1.0, 1.0, 1.0, 1.0, 1.0, 1.0, 1.0, 1.0, 1.0, 1.0]

>  <TempFactor>  (211) 
[21.5, 44.89, 24.36, 42.16, 38.25, 23.95, 40.64, 20.41, 29.29, 22.5, 27.31, 23.15, 28.56, 41.84, 29.6, 38.53, 33.37, 31.58, 30.86, 27.88, 28.97, 31.52, 43.05, 27.66, 27.42, 21.95, 25.67, 24.02, 25.01, 43.36, 43.87, 19.31, 17.05, 26.62, 26.73, 28.95, 20.4, 17.34, 20.74, 21.57, 21.69, 20.06, 20.47, 18.67, 21.64, 27.5, 29.51, 35.17, 31.37, 18.86]

>  <accession>  (211) 
3ZZC_A

>  <description>  (211) 
Chain A, 3C PROTEINASE [Coxsackievirus B3]

>  <evalue>  (211) 
7.4865399999999999e-87

>  <pdb_code>  (211) 
3ZZC

>  <chain>  (211) 
A

>  <ligands>  (211) 
[{'chain_id': 'A', 'author_residue_number': 1181, 'author_insertion_code': '', 'chem_comp_id': 'G83', 'alternate_conformers': 0, 'entity_id': 2, 'struct_asym_id': 'B', 'residue_number': 1, 'chem_comp_name': 'ETHYL (5S,8S,11R)-8-BENZYL-5-(2-TERT-BUTOXY-2-OXOETHYL)-3,6,9-TRIOXO-11-{[(3S)-2-OXOPYRROLIDIN-3-YL]METHYL}-1-PHENYL-2-OXA-4,7,10-TRIAZATETRADECAN-14-OATE', 'weight': 680.788, 'carbohydrate_polymer': False, 'branch_name': ''}]

>  <ligand_codes>  (211) 
['G83']

>  <cofactor_codes>  (211) 
[]

>  <has_cofactor>  (211) 
False

>  <covalent>  (211) 
True

>  <base_name>  (211) 
3ZZC

>  <lig_resn>  (211) 
G83

>  <lig_resi>  (211) 
1181

>  <lig_chain>  (211) 
A

>  <lig_segi>  (211) 
B

>  <lig_alt>  (211) 


>  <polymer_chain>  (211) 
A

>  <single_smiles>  (211) 
CCOC(=O)CC[C@H](C[C@@H]1CCNC1=O)NC(=O)[C@H](Cc2ccccc2)NC(=O)[C@H](CC(=O)OC(C)(C)C)NC(=O)OCc3ccccc3

$$$$
G83P1S53
     RDKit          3D

 15 14  0  0  0  0  0  0  0  0999 V2000
   -9.2610   14.3500  -34.7310 N   0  0  0  0  0  0  0  0  0  0  0  0
   -9.0700   14.7310  -33.4520 C   0  0  0  0  0  0  0  0  0  0  0  0
   -8.5890   16.1350  -33.2460 C   0  0  1  0  0  0  0  0  0  0  0  0
   -9.1660   13.9920  -32.4630 O   0  0  0  0  0  0  0  0  0  0  0  0
   -8.9270   16.6710  -31.9560 N   0  0  0  0  0  0  0  0  0  0  0  0
   -7.0940   15.9700  -33.0860 C   0  0  0  0  0  0  0  0  0  0  0  0
   -9.6140   17.8180  -31.9050 C   0  0  0  0  0  0  0  0  0  0  0  0
   -6.3360   17.1850  -33.4620 C   0  0  0  0  0  0  0  0  0  0  0  0
   -9.9760   18.4340  -32.9180 O   0  0  0  0  0  0  0  0  0  0  0  0
   -6.4670   17.7660  -34.5460 O   0  0  0  0  0  0  0  0  0  0  0  0
   -5.3760   17.6500  -32.4930 O   0  0  0  0  0  0  0  0  0  0  0  0
   -4.0330   17.1570  -32.4230 C   0  0  0  0  0  0  0  0  0  0  0  0
   -3.6770   16.1600  -33.5370 C   0  0  0  0  0  0  0  0  0  0  0  0
   -3.9520   16.4650  -31.0680 C   0  0  0  0  0  0  0  0  0  0  0  0
   -3.0820   18.3540  -32.5240 C   0  0  0  0  0  0  0  0  0  0  0  0
  2  1  1  0
  3  2  1  0
  2  4  2  0
  5  3  1  0
  3  6  1  1
  7  5  1  0
  8  6  1  0
  7  9  2  0
 10  8  2  0
 11  8  1  0
 11 12  1  0
 12 13  1  0
 12 14  1  0
 12 15  1  0
A    2
 C31
A    3
 C23
A    4
 O35
A    5
 N21
A    6
 C25
A    8
 C14
A    9
 O19
A   10
 O1 
A   11
 O2 
A   12
 C29
A   13
 C12
A   14
 C43
A   15
 C45
M  END
>  <XChem_code>  (212) 
G83§1

>  <Occupancy>  (212) 
[1.0, 1.0, 1.0, 1.0, 1.0, 1.0, 1.0, 1.0, 1.0, 1.0, 1.0, 1.0, 1.0, 1.0, 1.0, 1.0, 1.0, 1.0, 1.0, 1.0, 1.0, 1.0, 1.0, 1.0, 1.0, 1.0, 1.0, 1.0, 1.0, 1.0, 1.0, 1.0, 1.0, 1.0, 1.0, 1.0, 1.0, 1.0, 1.0, 1.0, 1.0, 1.0, 1.0, 1.0, 1.0, 1.0, 1.0, 1.0, 1.0, 1.0]

>  <TempFactor>  (212) 
[21.5, 44.89, 24.36, 42.16, 38.25, 23.95, 40.64, 20.41, 29.29, 22.5, 27.31, 23.15, 28.56, 41.84, 29.6, 38.53, 33.37, 31.58, 30.86, 27.88, 28.97, 31.52, 43.05, 27.66, 27.42, 21.95, 25.67, 24.02, 25.01, 43.36, 43.87, 19.31, 17.05, 26.62, 26.73, 28.95, 20.4, 17.34, 20.74, 21.57, 21.69, 20.06, 20.47, 18.67, 21.64, 27.5, 29.51, 35.17, 31.37, 18.86]

>  <accession>  (212) 
3ZZC_A

>  <description>  (212) 
Chain A, 3C PROTEINASE [Coxsackievirus B3]

>  <evalue>  (212) 
7.4865399999999999e-87

>  <pdb_code>  (212) 
3ZZC

>  <chain>  (212) 
A

>  <ligands>  (212) 
[{'chain_id': 'A', 'author_residue_number': 1181, 'author_insertion_code': '', 'chem_comp_id': 'G83', 'alternate_conformers': 0, 'entity_id': 2, 'struct_asym_id': 'B', 'residue_number': 1, 'chem_comp_name': 'ETHYL (5S,8S,11R)-8-BENZYL-5-(2-TERT-BUTOXY-2-OXOETHYL)-3,6,9-TRIOXO-11-{[(3S)-2-OXOPYRROLIDIN-3-YL]METHYL}-1-PHENYL-2-OXA-4,7,10-TRIAZATETRADECAN-14-OATE', 'weight': 680.788, 'carbohydrate_polymer': False, 'branch_name': ''}]

>  <ligand_codes>  (212) 
['G83']

>  <cofactor_codes>  (212) 
[]

>  <has_cofactor>  (212) 
False

>  <covalent>  (212) 
True

>  <base_name>  (212) 
3ZZC

>  <lig_resn>  (212) 
G83

>  <lig_resi>  (212) 
1181

>  <lig_chain>  (212) 
A

>  <lig_segi>  (212) 
B

>  <lig_alt>  (212) 


>  <polymer_chain>  (212) 
A

>  <single_smiles>  (212) 
CCOC(=O)CC[C@H](C[C@@H]1CCNC1=O)NC(=O)[C@H](Cc2ccccc2)NC(=O)[C@H](CC(=O)OC(C)(C)C)NC(=O)OCc3ccccc3

$$$$
G83P1S54
     RDKit          3D

 26 26  0  0  0  0  0  0  0  0999 V2000
   -8.7450   10.9170  -34.2200 N   0  0  0  0  0  0  0  0  0  0  0  0
   -8.4620   12.0930  -34.7840 C   0  0  0  0  0  0  0  0  0  0  0  0
   -9.6510   12.9770  -35.0820 C   0  0  1  0  0  0  0  0  0  0  0  0
   -7.3180   12.4750  -35.0590 O   0  0  0  0  0  0  0  0  0  0  0  0
   -9.2610   14.3500  -34.7310 N   0  0  0  0  0  0  0  0  0  0  0  0
   -9.8940   12.8970  -36.5940 C   0  0  0  0  0  0  0  0  0  0  0  0
   -9.0700   14.7310  -33.4520 C   0  0  0  0  0  0  0  0  0  0  0  0
  -11.1210   13.7000  -36.9770 C   0  0  0  0  0  0  0  0  0  0  0  0
   -8.5890   16.1350  -33.2460 C   0  0  1  0  0  0  0  0  0  0  0  0
   -9.1660   13.9920  -32.4630 O   0  0  0  0  0  0  0  0  0  0  0  0
  -12.3400   13.5180  -36.3250 C   0  0  0  0  0  0  0  0  0  0  0  0
  -11.0320   14.6580  -38.0030 C   0  0  0  0  0  0  0  0  0  0  0  0
   -8.9270   16.6710  -31.9560 N   0  0  0  0  0  0  0  0  0  0  0  0
   -7.0940   15.9700  -33.0860 C   0  0  0  0  0  0  0  0  0  0  0  0
  -13.4670   14.3010  -36.6620 C   0  0  0  0  0  0  0  0  0  0  0  0
  -12.1840   15.4150  -38.3560 C   0  0  0  0  0  0  0  0  0  0  0  0
   -9.6140   17.8180  -31.9050 C   0  0  0  0  0  0  0  0  0  0  0  0
   -6.3360   17.1850  -33.4620 C   0  0  0  0  0  0  0  0  0  0  0  0
  -13.4100   15.2640  -37.6860 C   0  0  0  0  0  0  0  0  0  0  0  0
   -9.9760   18.4340  -32.9180 O   0  0  0  0  0  0  0  0  0  0  0  0
   -6.4670   17.7660  -34.5460 O   0  0  0  0  0  0  0  0  0  0  0  0
   -5.3760   17.6500  -32.4930 O   0  0  0  0  0  0  0  0  0  0  0  0
   -4.0330   17.1570  -32.4230 C   0  0  0  0  0  0  0  0  0  0  0  0
   -3.6770   16.1600  -33.5370 C   0  0  0  0  0  0  0  0  0  0  0  0
   -3.9520   16.4650  -31.0680 C   0  0  0  0  0  0  0  0  0  0  0  0
   -3.0820   18.3540  -32.5240 C   0  0  0  0  0  0  0  0  0  0  0  0
  2  1  1  0
  3  2  1  0
  2  4  2  0
  5  3  1  0
  3  6  1  6
  7  5  1  0
  6  8  1  0
  9  7  1  0
  7 10  2  0
  8 11  2  0
  8 12  1  0
 13  9  1  0
  9 14  1  1
 15 11  1  0
 16 12  2  0
 17 13  1  0
 18 14  1  0
 15 19  2  0
 19 16  1  0
 17 20  2  0
 21 18  2  0
 22 18  1  0
 22 23  1  0
 23 24  1  0
 23 25  1  0
 23 26  1  0
A    2
 C39
A    3
 C37
A    4
 O47
A    5
 N33
A    6
 C41
A    7
 C31
A    8
 C51
A    9
 C23
A   10
 O35
A   11
 C53
A   12
 C55
A   13
 N21
A   14
 C25
A   15
 C7 
A   16
 C11
A   18
 C14
A   19
 C9 
A   20
 O19
A   21
 O1 
A   22
 O2 
A   23
 C29
A   24
 C12
A   25
 C43
A   26
 C45
M  END
>  <XChem_code>  (213) 
G83§1

>  <Occupancy>  (213) 
[1.0, 1.0, 1.0, 1.0, 1.0, 1.0, 1.0, 1.0, 1.0, 1.0, 1.0, 1.0, 1.0, 1.0, 1.0, 1.0, 1.0, 1.0, 1.0, 1.0, 1.0, 1.0, 1.0, 1.0, 1.0, 1.0, 1.0, 1.0, 1.0, 1.0, 1.0, 1.0, 1.0, 1.0, 1.0, 1.0, 1.0, 1.0, 1.0, 1.0, 1.0, 1.0, 1.0, 1.0, 1.0, 1.0, 1.0, 1.0, 1.0, 1.0]

>  <TempFactor>  (213) 
[21.5, 44.89, 24.36, 42.16, 38.25, 23.95, 40.64, 20.41, 29.29, 22.5, 27.31, 23.15, 28.56, 41.84, 29.6, 38.53, 33.37, 31.58, 30.86, 27.88, 28.97, 31.52, 43.05, 27.66, 27.42, 21.95, 25.67, 24.02, 25.01, 43.36, 43.87, 19.31, 17.05, 26.62, 26.73, 28.95, 20.4, 17.34, 20.74, 21.57, 21.69, 20.06, 20.47, 18.67, 21.64, 27.5, 29.51, 35.17, 31.37, 18.86]

>  <accession>  (213) 
3ZZC_A

>  <description>  (213) 
Chain A, 3C PROTEINASE [Coxsackievirus B3]

>  <evalue>  (213) 
7.4865399999999999e-87

>  <pdb_code>  (213) 
3ZZC

>  <chain>  (213) 
A

>  <ligands>  (213) 
[{'chain_id': 'A', 'author_residue_number': 1181, 'author_insertion_code': '', 'chem_comp_id': 'G83', 'alternate_conformers': 0, 'entity_id': 2, 'struct_asym_id': 'B', 'residue_number': 1, 'chem_comp_name': 'ETHYL (5S,8S,11R)-8-BENZYL-5-(2-TERT-BUTOXY-2-OXOETHYL)-3,6,9-TRIOXO-11-{[(3S)-2-OXOPYRROLIDIN-3-YL]METHYL}-1-PHENYL-2-OXA-4,7,10-TRIAZATETRADECAN-14-OATE', 'weight': 680.788, 'carbohydrate_polymer': False, 'branch_name': ''}]

>  <ligand_codes>  (213) 
['G83']

>  <cofactor_codes>  (213) 
[]

>  <has_cofactor>  (213) 
False

>  <covalent>  (213) 
True

>  <base_name>  (213) 
3ZZC

>  <lig_resn>  (213) 
G83

>  <lig_resi>  (213) 
1181

>  <lig_chain>  (213) 
A

>  <lig_segi>  (213) 
B

>  <lig_alt>  (213) 


>  <polymer_chain>  (213) 
A

>  <single_smiles>  (213) 
CCOC(=O)CC[C@H](C[C@@H]1CCNC1=O)NC(=O)[C@H](Cc2ccccc2)NC(=O)[C@H](CC(=O)OC(C)(C)C)NC(=O)OCc3ccccc3

$$$$
G83P1S55
     RDKit          3D

 13 12  0  0  0  0  0  0  0  0999 V2000
   -9.2610   14.3500  -34.7310 N   0  0  0  0  0  0  0  0  0  0  0  0
   -9.0700   14.7310  -33.4520 C   0  0  0  0  0  0  0  0  0  0  0  0
   -8.5890   16.1350  -33.2460 C   0  0  1  0  0  0  0  0  0  0  0  0
   -9.1660   13.9920  -32.4630 O   0  0  0  0  0  0  0  0  0  0  0  0
   -8.9270   16.6710  -31.9560 N   0  0  0  0  0  0  0  0  0  0  0  0
   -7.0940   15.9700  -33.0860 C   0  0  0  0  0  0  0  0  0  0  0  0
   -6.3360   17.1850  -33.4620 C   0  0  0  0  0  0  0  0  0  0  0  0
   -6.4670   17.7660  -34.5460 O   0  0  0  0  0  0  0  0  0  0  0  0
   -5.3760   17.6500  -32.4930 O   0  0  0  0  0  0  0  0  0  0  0  0
   -4.0330   17.1570  -32.4230 C   0  0  0  0  0  0  0  0  0  0  0  0
   -3.6770   16.1600  -33.5370 C   0  0  0  0  0  0  0  0  0  0  0  0
   -3.9520   16.4650  -31.0680 C   0  0  0  0  0  0  0  0  0  0  0  0
   -3.0820   18.3540  -32.5240 C   0  0  0  0  0  0  0  0  0  0  0  0
  2  1  1  0
  3  2  1  0
  2  4  2  0
  3  5  1  1
  3  6  1  0
  7  6  1  0
  8  7  2  0
  9  7  1  0
  9 10  1  0
 10 11  1  0
 10 12  1  0
 10 13  1  0
A    2
 C31
A    3
 C23
A    4
 O35
A    6
 C25
A    7
 C14
A    8
 O1 
A    9
 O2 
A   10
 C29
A   11
 C12
A   12
 C43
A   13
 C45
M  END
>  <XChem_code>  (214) 
G83§1

>  <Occupancy>  (214) 
[1.0, 1.0, 1.0, 1.0, 1.0, 1.0, 1.0, 1.0, 1.0, 1.0, 1.0, 1.0, 1.0, 1.0, 1.0, 1.0, 1.0, 1.0, 1.0, 1.0, 1.0, 1.0, 1.0, 1.0, 1.0, 1.0, 1.0, 1.0, 1.0, 1.0, 1.0, 1.0, 1.0, 1.0, 1.0, 1.0, 1.0, 1.0, 1.0, 1.0, 1.0, 1.0, 1.0, 1.0, 1.0, 1.0, 1.0, 1.0, 1.0, 1.0]

>  <TempFactor>  (214) 
[21.5, 44.89, 24.36, 42.16, 38.25, 23.95, 40.64, 20.41, 29.29, 22.5, 27.31, 23.15, 28.56, 41.84, 29.6, 38.53, 33.37, 31.58, 30.86, 27.88, 28.97, 31.52, 43.05, 27.66, 27.42, 21.95, 25.67, 24.02, 25.01, 43.36, 43.87, 19.31, 17.05, 26.62, 26.73, 28.95, 20.4, 17.34, 20.74, 21.57, 21.69, 20.06, 20.47, 18.67, 21.64, 27.5, 29.51, 35.17, 31.37, 18.86]

>  <accession>  (214) 
3ZZC_A

>  <description>  (214) 
Chain A, 3C PROTEINASE [Coxsackievirus B3]

>  <evalue>  (214) 
7.4865399999999999e-87

>  <pdb_code>  (214) 
3ZZC

>  <chain>  (214) 
A

>  <ligands>  (214) 
[{'chain_id': 'A', 'author_residue_number': 1181, 'author_insertion_code': '', 'chem_comp_id': 'G83', 'alternate_conformers': 0, 'entity_id': 2, 'struct_asym_id': 'B', 'residue_number': 1, 'chem_comp_name': 'ETHYL (5S,8S,11R)-8-BENZYL-5-(2-TERT-BUTOXY-2-OXOETHYL)-3,6,9-TRIOXO-11-{[(3S)-2-OXOPYRROLIDIN-3-YL]METHYL}-1-PHENYL-2-OXA-4,7,10-TRIAZATETRADECAN-14-OATE', 'weight': 680.788, 'carbohydrate_polymer': False, 'branch_name': ''}]

>  <ligand_codes>  (214) 
['G83']

>  <cofactor_codes>  (214) 
[]

>  <has_cofactor>  (214) 
False

>  <covalent>  (214) 
True

>  <base_name>  (214) 
3ZZC

>  <lig_resn>  (214) 
G83

>  <lig_resi>  (214) 
1181

>  <lig_chain>  (214) 
A

>  <lig_segi>  (214) 
B

>  <lig_alt>  (214) 


>  <polymer_chain>  (214) 
A

>  <single_smiles>  (214) 
CCOC(=O)CC[C@H](C[C@@H]1CCNC1=O)NC(=O)[C@H](Cc2ccccc2)NC(=O)[C@H](CC(=O)OC(C)(C)C)NC(=O)OCc3ccccc3

$$$$
G83P1S56
     RDKit          3D

 24 24  0  0  0  0  0  0  0  0999 V2000
   -8.7450   10.9170  -34.2200 N   0  0  0  0  0  0  0  0  0  0  0  0
   -8.4620   12.0930  -34.7840 C   0  0  0  0  0  0  0  0  0  0  0  0
   -9.6510   12.9770  -35.0820 C   0  0  1  0  0  0  0  0  0  0  0  0
   -7.3180   12.4750  -35.0590 O   0  0  0  0  0  0  0  0  0  0  0  0
   -9.2610   14.3500  -34.7310 N   0  0  0  0  0  0  0  0  0  0  0  0
   -9.8940   12.8970  -36.5940 C   0  0  0  0  0  0  0  0  0  0  0  0
   -9.0700   14.7310  -33.4520 C   0  0  0  0  0  0  0  0  0  0  0  0
  -11.1210   13.7000  -36.9770 C   0  0  0  0  0  0  0  0  0  0  0  0
   -8.5890   16.1350  -33.2460 C   0  0  1  0  0  0  0  0  0  0  0  0
   -9.1660   13.9920  -32.4630 O   0  0  0  0  0  0  0  0  0  0  0  0
  -12.3400   13.5180  -36.3250 C   0  0  0  0  0  0  0  0  0  0  0  0
  -11.0320   14.6580  -38.0030 C   0  0  0  0  0  0  0  0  0  0  0  0
   -8.9270   16.6710  -31.9560 N   0  0  0  0  0  0  0  0  0  0  0  0
   -7.0940   15.9700  -33.0860 C   0  0  0  0  0  0  0  0  0  0  0  0
  -13.4670   14.3010  -36.6620 C   0  0  0  0  0  0  0  0  0  0  0  0
  -12.1840   15.4150  -38.3560 C   0  0  0  0  0  0  0  0  0  0  0  0
   -6.3360   17.1850  -33.4620 C   0  0  0  0  0  0  0  0  0  0  0  0
  -13.4100   15.2640  -37.6860 C   0  0  0  0  0  0  0  0  0  0  0  0
   -6.4670   17.7660  -34.5460 O   0  0  0  0  0  0  0  0  0  0  0  0
   -5.3760   17.6500  -32.4930 O   0  0  0  0  0  0  0  0  0  0  0  0
   -4.0330   17.1570  -32.4230 C   0  0  0  0  0  0  0  0  0  0  0  0
   -3.6770   16.1600  -33.5370 C   0  0  0  0  0  0  0  0  0  0  0  0
   -3.9520   16.4650  -31.0680 C   0  0  0  0  0  0  0  0  0  0  0  0
   -3.0820   18.3540  -32.5240 C   0  0  0  0  0  0  0  0  0  0  0  0
  2  1  1  0
  3  2  1  0
  2  4  2  0
  5  3  1  0
  3  6  1  6
  7  5  1  0
  6  8  1  0
  9  7  1  0
  7 10  2  0
  8 11  2  0
  8 12  1  0
  9 13  1  1
  9 14  1  0
 15 11  1  0
 16 12  2  0
 17 14  1  0
 15 18  2  0
 18 16  1  0
 19 17  2  0
 20 17  1  0
 20 21  1  0
 21 22  1  0
 21 23  1  0
 21 24  1  0
A    2
 C39
A    3
 C37
A    4
 O47
A    5
 N33
A    6
 C41
A    7
 C31
A    8
 C51
A    9
 C23
A   10
 O35
A   11
 C53
A   12
 C55
A   14
 C25
A   15
 C7 
A   16
 C11
A   17
 C14
A   18
 C9 
A   19
 O1 
A   20
 O2 
A   21
 C29
A   22
 C12
A   23
 C43
A   24
 C45
M  END
>  <XChem_code>  (215) 
G83§1

>  <Occupancy>  (215) 
[1.0, 1.0, 1.0, 1.0, 1.0, 1.0, 1.0, 1.0, 1.0, 1.0, 1.0, 1.0, 1.0, 1.0, 1.0, 1.0, 1.0, 1.0, 1.0, 1.0, 1.0, 1.0, 1.0, 1.0, 1.0, 1.0, 1.0, 1.0, 1.0, 1.0, 1.0, 1.0, 1.0, 1.0, 1.0, 1.0, 1.0, 1.0, 1.0, 1.0, 1.0, 1.0, 1.0, 1.0, 1.0, 1.0, 1.0, 1.0, 1.0, 1.0]

>  <TempFactor>  (215) 
[21.5, 44.89, 24.36, 42.16, 38.25, 23.95, 40.64, 20.41, 29.29, 22.5, 27.31, 23.15, 28.56, 41.84, 29.6, 38.53, 33.37, 31.58, 30.86, 27.88, 28.97, 31.52, 43.05, 27.66, 27.42, 21.95, 25.67, 24.02, 25.01, 43.36, 43.87, 19.31, 17.05, 26.62, 26.73, 28.95, 20.4, 17.34, 20.74, 21.57, 21.69, 20.06, 20.47, 18.67, 21.64, 27.5, 29.51, 35.17, 31.37, 18.86]

>  <accession>  (215) 
3ZZC_A

>  <description>  (215) 
Chain A, 3C PROTEINASE [Coxsackievirus B3]

>  <evalue>  (215) 
7.4865399999999999e-87

>  <pdb_code>  (215) 
3ZZC

>  <chain>  (215) 
A

>  <ligands>  (215) 
[{'chain_id': 'A', 'author_residue_number': 1181, 'author_insertion_code': '', 'chem_comp_id': 'G83', 'alternate_conformers': 0, 'entity_id': 2, 'struct_asym_id': 'B', 'residue_number': 1, 'chem_comp_name': 'ETHYL (5S,8S,11R)-8-BENZYL-5-(2-TERT-BUTOXY-2-OXOETHYL)-3,6,9-TRIOXO-11-{[(3S)-2-OXOPYRROLIDIN-3-YL]METHYL}-1-PHENYL-2-OXA-4,7,10-TRIAZATETRADECAN-14-OATE', 'weight': 680.788, 'carbohydrate_polymer': False, 'branch_name': ''}]

>  <ligand_codes>  (215) 
['G83']

>  <cofactor_codes>  (215) 
[]

>  <has_cofactor>  (215) 
False

>  <covalent>  (215) 
True

>  <base_name>  (215) 
3ZZC

>  <lig_resn>  (215) 
G83

>  <lig_resi>  (215) 
1181

>  <lig_chain>  (215) 
A

>  <lig_segi>  (215) 
B

>  <lig_alt>  (215) 


>  <polymer_chain>  (215) 
A

>  <single_smiles>  (215) 
CCOC(=O)CC[C@H](C[C@@H]1CCNC1=O)NC(=O)[C@H](Cc2ccccc2)NC(=O)[C@H](CC(=O)OC(C)(C)C)NC(=O)OCc3ccccc3

$$$$
G83P1S57
     RDKit          3D

 11 10  0  0  0  0  0  0  0  0999 V2000
   -8.5890   16.1350  -33.2460 C   0  0  0  0  0  0  0  0  0  0  0  0
   -9.0700   14.7310  -33.4520 C   0  0  0  0  0  0  0  0  0  0  0  0
   -7.0940   15.9700  -33.0860 C   0  0  0  0  0  0  0  0  0  0  0  0
   -9.1660   13.9920  -32.4630 O   0  0  0  0  0  0  0  0  0  0  0  0
   -6.3360   17.1850  -33.4620 C   0  0  0  0  0  0  0  0  0  0  0  0
   -6.4670   17.7660  -34.5460 O   0  0  0  0  0  0  0  0  0  0  0  0
   -5.3760   17.6500  -32.4930 O   0  0  0  0  0  0  0  0  0  0  0  0
   -4.0330   17.1570  -32.4230 C   0  0  0  0  0  0  0  0  0  0  0  0
   -3.6770   16.1600  -33.5370 C   0  0  0  0  0  0  0  0  0  0  0  0
   -3.9520   16.4650  -31.0680 C   0  0  0  0  0  0  0  0  0  0  0  0
   -3.0820   18.3540  -32.5240 C   0  0  0  0  0  0  0  0  0  0  0  0
  1  2  1  0
  1  3  1  6
  2  4  2  0
  5  3  1  0
  6  5  2  0
  7  5  1  0
  7  8  1  0
  8  9  1  0
  8 10  1  0
  8 11  1  0
A    3
 C25
A    4
 O35
A    5
 C14
A    6
 O1 
A    7
 O2 
A    8
 C29
A    9
 C12
A   10
 C43
A   11
 C45
M  END
>  <XChem_code>  (216) 
G83§1

>  <Occupancy>  (216) 
[1.0, 1.0, 1.0, 1.0, 1.0, 1.0, 1.0, 1.0, 1.0, 1.0, 1.0, 1.0, 1.0, 1.0, 1.0, 1.0, 1.0, 1.0, 1.0, 1.0, 1.0, 1.0, 1.0, 1.0, 1.0, 1.0, 1.0, 1.0, 1.0, 1.0, 1.0, 1.0, 1.0, 1.0, 1.0, 1.0, 1.0, 1.0, 1.0, 1.0, 1.0, 1.0, 1.0, 1.0, 1.0, 1.0, 1.0, 1.0, 1.0, 1.0]

>  <TempFactor>  (216) 
[21.5, 44.89, 24.36, 42.16, 38.25, 23.95, 40.64, 20.41, 29.29, 22.5, 27.31, 23.15, 28.56, 41.84, 29.6, 38.53, 33.37, 31.58, 30.86, 27.88, 28.97, 31.52, 43.05, 27.66, 27.42, 21.95, 25.67, 24.02, 25.01, 43.36, 43.87, 19.31, 17.05, 26.62, 26.73, 28.95, 20.4, 17.34, 20.74, 21.57, 21.69, 20.06, 20.47, 18.67, 21.64, 27.5, 29.51, 35.17, 31.37, 18.86]

>  <accession>  (216) 
3ZZC_A

>  <description>  (216) 
Chain A, 3C PROTEINASE [Coxsackievirus B3]

>  <evalue>  (216) 
7.4865399999999999e-87

>  <pdb_code>  (216) 
3ZZC

>  <chain>  (216) 
A

>  <ligands>  (216) 
[{'chain_id': 'A', 'author_residue_number': 1181, 'author_insertion_code': '', 'chem_comp_id': 'G83', 'alternate_conformers': 0, 'entity_id': 2, 'struct_asym_id': 'B', 'residue_number': 1, 'chem_comp_name': 'ETHYL (5S,8S,11R)-8-BENZYL-5-(2-TERT-BUTOXY-2-OXOETHYL)-3,6,9-TRIOXO-11-{[(3S)-2-OXOPYRROLIDIN-3-YL]METHYL}-1-PHENYL-2-OXA-4,7,10-TRIAZATETRADECAN-14-OATE', 'weight': 680.788, 'carbohydrate_polymer': False, 'branch_name': ''}]

>  <ligand_codes>  (216) 
['G83']

>  <cofactor_codes>  (216) 
[]

>  <has_cofactor>  (216) 
False

>  <covalent>  (216) 
True

>  <base_name>  (216) 
3ZZC

>  <lig_resn>  (216) 
G83

>  <lig_resi>  (216) 
1181

>  <lig_chain>  (216) 
A

>  <lig_segi>  (216) 
B

>  <lig_alt>  (216) 


>  <polymer_chain>  (216) 
A

>  <single_smiles>  (216) 
CCOC(=O)CC[C@H](C[C@@H]1CCNC1=O)NC(=O)[C@H](Cc2ccccc2)NC(=O)[C@H](CC(=O)OC(C)(C)C)NC(=O)OCc3ccccc3

$$$$
G83P1S58
     RDKit          3D

 12 12  0  0  0  0  0  0  0  0999 V2000
   -8.7450   10.9170  -34.2200 N   0  0  0  0  0  0  0  0  0  0  0  0
   -8.4620   12.0930  -34.7840 C   0  0  0  0  0  0  0  0  0  0  0  0
   -9.6510   12.9770  -35.0820 C   0  0  1  0  0  0  0  0  0  0  0  0
   -7.3180   12.4750  -35.0590 O   0  0  0  0  0  0  0  0  0  0  0  0
   -9.2610   14.3500  -34.7310 N   0  0  0  0  0  0  0  0  0  0  0  0
   -9.8940   12.8970  -36.5940 C   0  0  0  0  0  0  0  0  0  0  0  0
  -11.1210   13.7000  -36.9770 C   0  0  0  0  0  0  0  0  0  0  0  0
  -12.3400   13.5180  -36.3250 C   0  0  0  0  0  0  0  0  0  0  0  0
  -11.0320   14.6580  -38.0030 C   0  0  0  0  0  0  0  0  0  0  0  0
  -13.4670   14.3010  -36.6620 C   0  0  0  0  0  0  0  0  0  0  0  0
  -12.1840   15.4150  -38.3560 C   0  0  0  0  0  0  0  0  0  0  0  0
  -13.4100   15.2640  -37.6860 C   0  0  0  0  0  0  0  0  0  0  0  0
  2  1  1  0
  3  2  1  0
  2  4  2  0
  3  5  1  6
  3  6  1  0
  6  7  1  0
  7  8  2  0
  7  9  1  0
 10  8  1  0
 11  9  2  0
 10 12  2  0
 12 11  1  0
A    2
 C39
A    3
 C37
A    4
 O47
A    6
 C41
A    7
 C51
A    8
 C53
A    9
 C55
A   10
 C7 
A   11
 C11
A   12
 C9 
M  END
>  <XChem_code>  (217) 
G83§1

>  <Occupancy>  (217) 
[1.0, 1.0, 1.0, 1.0, 1.0, 1.0, 1.0, 1.0, 1.0, 1.0, 1.0, 1.0, 1.0, 1.0, 1.0, 1.0, 1.0, 1.0, 1.0, 1.0, 1.0, 1.0, 1.0, 1.0, 1.0, 1.0, 1.0, 1.0, 1.0, 1.0, 1.0, 1.0, 1.0, 1.0, 1.0, 1.0, 1.0, 1.0, 1.0, 1.0, 1.0, 1.0, 1.0, 1.0, 1.0, 1.0, 1.0, 1.0, 1.0, 1.0]

>  <TempFactor>  (217) 
[21.5, 44.89, 24.36, 42.16, 38.25, 23.95, 40.64, 20.41, 29.29, 22.5, 27.31, 23.15, 28.56, 41.84, 29.6, 38.53, 33.37, 31.58, 30.86, 27.88, 28.97, 31.52, 43.05, 27.66, 27.42, 21.95, 25.67, 24.02, 25.01, 43.36, 43.87, 19.31, 17.05, 26.62, 26.73, 28.95, 20.4, 17.34, 20.74, 21.57, 21.69, 20.06, 20.47, 18.67, 21.64, 27.5, 29.51, 35.17, 31.37, 18.86]

>  <accession>  (217) 
3ZZC_A

>  <description>  (217) 
Chain A, 3C PROTEINASE [Coxsackievirus B3]

>  <evalue>  (217) 
7.4865399999999999e-87

>  <pdb_code>  (217) 
3ZZC

>  <chain>  (217) 
A

>  <ligands>  (217) 
[{'chain_id': 'A', 'author_residue_number': 1181, 'author_insertion_code': '', 'chem_comp_id': 'G83', 'alternate_conformers': 0, 'entity_id': 2, 'struct_asym_id': 'B', 'residue_number': 1, 'chem_comp_name': 'ETHYL (5S,8S,11R)-8-BENZYL-5-(2-TERT-BUTOXY-2-OXOETHYL)-3,6,9-TRIOXO-11-{[(3S)-2-OXOPYRROLIDIN-3-YL]METHYL}-1-PHENYL-2-OXA-4,7,10-TRIAZATETRADECAN-14-OATE', 'weight': 680.788, 'carbohydrate_polymer': False, 'branch_name': ''}]

>  <ligand_codes>  (217) 
['G83']

>  <cofactor_codes>  (217) 
[]

>  <has_cofactor>  (217) 
False

>  <covalent>  (217) 
True

>  <base_name>  (217) 
3ZZC

>  <lig_resn>  (217) 
G83

>  <lig_resi>  (217) 
1181

>  <lig_chain>  (217) 
A

>  <lig_segi>  (217) 
B

>  <lig_alt>  (217) 


>  <polymer_chain>  (217) 
A

>  <single_smiles>  (217) 
CCOC(=O)CC[C@H](C[C@@H]1CCNC1=O)NC(=O)[C@H](Cc2ccccc2)NC(=O)[C@H](CC(=O)OC(C)(C)C)NC(=O)OCc3ccccc3

$$$$
G83P1S59
     RDKit          3D

 10 10  0  0  0  0  0  0  0  0999 V2000
   -9.6510   12.9770  -35.0820 C   0  0  0  0  0  0  0  0  0  0  0  0
   -8.4620   12.0930  -34.7840 C   0  0  0  0  0  0  0  0  0  0  0  0
   -9.8940   12.8970  -36.5940 C   0  0  0  0  0  0  0  0  0  0  0  0
   -7.3180   12.4750  -35.0590 O   0  0  0  0  0  0  0  0  0  0  0  0
  -11.1210   13.7000  -36.9770 C   0  0  0  0  0  0  0  0  0  0  0  0
  -12.3400   13.5180  -36.3250 C   0  0  0  0  0  0  0  0  0  0  0  0
  -11.0320   14.6580  -38.0030 C   0  0  0  0  0  0  0  0  0  0  0  0
  -13.4670   14.3010  -36.6620 C   0  0  0  0  0  0  0  0  0  0  0  0
  -12.1840   15.4150  -38.3560 C   0  0  0  0  0  0  0  0  0  0  0  0
  -13.4100   15.2640  -37.6860 C   0  0  0  0  0  0  0  0  0  0  0  0
  1  2  1  0
  1  3  1  6
  2  4  2  0
  3  5  1  0
  5  6  2  0
  5  7  1  0
  8  6  1  0
  9  7  2  0
  8 10  2  0
 10  9  1  0
A    3
 C41
A    4
 O47
A    5
 C51
A    6
 C53
A    7
 C55
A    8
 C7 
A    9
 C11
A   10
 C9 
M  END
>  <XChem_code>  (218) 
G83§1

>  <Occupancy>  (218) 
[1.0, 1.0, 1.0, 1.0, 1.0, 1.0, 1.0, 1.0, 1.0, 1.0, 1.0, 1.0, 1.0, 1.0, 1.0, 1.0, 1.0, 1.0, 1.0, 1.0, 1.0, 1.0, 1.0, 1.0, 1.0, 1.0, 1.0, 1.0, 1.0, 1.0, 1.0, 1.0, 1.0, 1.0, 1.0, 1.0, 1.0, 1.0, 1.0, 1.0, 1.0, 1.0, 1.0, 1.0, 1.0, 1.0, 1.0, 1.0, 1.0, 1.0]

>  <TempFactor>  (218) 
[21.5, 44.89, 24.36, 42.16, 38.25, 23.95, 40.64, 20.41, 29.29, 22.5, 27.31, 23.15, 28.56, 41.84, 29.6, 38.53, 33.37, 31.58, 30.86, 27.88, 28.97, 31.52, 43.05, 27.66, 27.42, 21.95, 25.67, 24.02, 25.01, 43.36, 43.87, 19.31, 17.05, 26.62, 26.73, 28.95, 20.4, 17.34, 20.74, 21.57, 21.69, 20.06, 20.47, 18.67, 21.64, 27.5, 29.51, 35.17, 31.37, 18.86]

>  <accession>  (218) 
3ZZC_A

>  <description>  (218) 
Chain A, 3C PROTEINASE [Coxsackievirus B3]

>  <evalue>  (218) 
7.4865399999999999e-87

>  <pdb_code>  (218) 
3ZZC

>  <chain>  (218) 
A

>  <ligands>  (218) 
[{'chain_id': 'A', 'author_residue_number': 1181, 'author_insertion_code': '', 'chem_comp_id': 'G83', 'alternate_conformers': 0, 'entity_id': 2, 'struct_asym_id': 'B', 'residue_number': 1, 'chem_comp_name': 'ETHYL (5S,8S,11R)-8-BENZYL-5-(2-TERT-BUTOXY-2-OXOETHYL)-3,6,9-TRIOXO-11-{[(3S)-2-OXOPYRROLIDIN-3-YL]METHYL}-1-PHENYL-2-OXA-4,7,10-TRIAZATETRADECAN-14-OATE', 'weight': 680.788, 'carbohydrate_polymer': False, 'branch_name': ''}]

>  <ligand_codes>  (218) 
['G83']

>  <cofactor_codes>  (218) 
[]

>  <has_cofactor>  (218) 
False

>  <covalent>  (218) 
True

>  <base_name>  (218) 
3ZZC

>  <lig_resn>  (218) 
G83

>  <lig_resi>  (218) 
1181

>  <lig_chain>  (218) 
A

>  <lig_segi>  (218) 
B

>  <lig_alt>  (218) 


>  <polymer_chain>  (218) 
A

>  <single_smiles>  (218) 
CCOC(=O)CC[C@H](C[C@@H]1CCNC1=O)NC(=O)[C@H](Cc2ccccc2)NC(=O)[C@H](CC(=O)OC(C)(C)C)NC(=O)OCc3ccccc3

$$$$
G83P1S60
     RDKit          3D

 22 22  0  0  0  0  0  0  0  0999 V2000
   -8.5890   16.1350  -33.2460 C   0  0  0  0  0  0  0  0  0  0  0  0
   -9.0700   14.7310  -33.4520 C   0  0  0  0  0  0  0  0  0  0  0  0
   -7.0940   15.9700  -33.0860 C   0  0  0  0  0  0  0  0  0  0  0  0
   -9.2610   14.3500  -34.7310 N   0  0  0  0  0  0  0  0  0  0  0  0
   -9.1660   13.9920  -32.4630 O   0  0  0  0  0  0  0  0  0  0  0  0
   -6.3360   17.1850  -33.4620 C   0  0  0  0  0  0  0  0  0  0  0  0
   -9.6510   12.9770  -35.0820 C   0  0  2  0  0  0  0  0  0  0  0  0
   -6.4670   17.7660  -34.5460 O   0  0  0  0  0  0  0  0  0  0  0  0
   -5.3760   17.6500  -32.4930 O   0  0  0  0  0  0  0  0  0  0  0  0
   -8.4620   12.0930  -34.7840 C   0  0  0  0  0  0  0  0  0  0  0  0
   -9.8940   12.8970  -36.5940 C   0  0  0  0  0  0  0  0  0  0  0  0
   -4.0330   17.1570  -32.4230 C   0  0  0  0  0  0  0  0  0  0  0  0
   -7.3180   12.4750  -35.0590 O   0  0  0  0  0  0  0  0  0  0  0  0
  -11.1210   13.7000  -36.9770 C   0  0  0  0  0  0  0  0  0  0  0  0
   -3.6770   16.1600  -33.5370 C   0  0  0  0  0  0  0  0  0  0  0  0
   -3.9520   16.4650  -31.0680 C   0  0  0  0  0  0  0  0  0  0  0  0
   -3.0820   18.3540  -32.5240 C   0  0  0  0  0  0  0  0  0  0  0  0
  -12.3400   13.5180  -36.3250 C   0  0  0  0  0  0  0  0  0  0  0  0
  -11.0320   14.6580  -38.0030 C   0  0  0  0  0  0  0  0  0  0  0  0
  -13.4670   14.3010  -36.6620 C   0  0  0  0  0  0  0  0  0  0  0  0
  -12.1840   15.4150  -38.3560 C   0  0  0  0  0  0  0  0  0  0  0  0
  -13.4100   15.2640  -37.6860 C   0  0  0  0  0  0  0  0  0  0  0  0
  1  2  1  0
  1  3  1  6
  2  4  1  0
  2  5  2  0
  6  3  1  0
  4  7  1  0
  8  6  2  0
  9  6  1  0
  7 10  1  0
  7 11  1  6
  9 12  1  0
 10 13  2  0
 11 14  1  0
 12 15  1  0
 12 16  1  0
 12 17  1  0
 14 18  2  0
 14 19  1  0
 20 18  1  0
 21 19  2  0
 20 22  2  0
 22 21  1  0
A    2
 C31
A    3
 C25
A    4
 N33
A    5
 O35
A    6
 C14
A    7
 C37
A    8
 O1 
A    9
 O2 
A   11
 C41
A   12
 C29
A   13
 O47
A   14
 C51
A   15
 C12
A   16
 C43
A   17
 C45
A   18
 C53
A   19
 C55
A   20
 C7 
A   21
 C11
A   22
 C9 
M  END
>  <XChem_code>  (219) 
G83§1

>  <Occupancy>  (219) 
[1.0, 1.0, 1.0, 1.0, 1.0, 1.0, 1.0, 1.0, 1.0, 1.0, 1.0, 1.0, 1.0, 1.0, 1.0, 1.0, 1.0, 1.0, 1.0, 1.0, 1.0, 1.0, 1.0, 1.0, 1.0, 1.0, 1.0, 1.0, 1.0, 1.0, 1.0, 1.0, 1.0, 1.0, 1.0, 1.0, 1.0, 1.0, 1.0, 1.0, 1.0, 1.0, 1.0, 1.0, 1.0, 1.0, 1.0, 1.0, 1.0, 1.0]

>  <TempFactor>  (219) 
[21.5, 44.89, 24.36, 42.16, 38.25, 23.95, 40.64, 20.41, 29.29, 22.5, 27.31, 23.15, 28.56, 41.84, 29.6, 38.53, 33.37, 31.58, 30.86, 27.88, 28.97, 31.52, 43.05, 27.66, 27.42, 21.95, 25.67, 24.02, 25.01, 43.36, 43.87, 19.31, 17.05, 26.62, 26.73, 28.95, 20.4, 17.34, 20.74, 21.57, 21.69, 20.06, 20.47, 18.67, 21.64, 27.5, 29.51, 35.17, 31.37, 18.86]

>  <accession>  (219) 
3ZZC_A

>  <description>  (219) 
Chain A, 3C PROTEINASE [Coxsackievirus B3]

>  <evalue>  (219) 
7.4865399999999999e-87

>  <pdb_code>  (219) 
3ZZC

>  <chain>  (219) 
A

>  <ligands>  (219) 
[{'chain_id': 'A', 'author_residue_number': 1181, 'author_insertion_code': '', 'chem_comp_id': 'G83', 'alternate_conformers': 0, 'entity_id': 2, 'struct_asym_id': 'B', 'residue_number': 1, 'chem_comp_name': 'ETHYL (5S,8S,11R)-8-BENZYL-5-(2-TERT-BUTOXY-2-OXOETHYL)-3,6,9-TRIOXO-11-{[(3S)-2-OXOPYRROLIDIN-3-YL]METHYL}-1-PHENYL-2-OXA-4,7,10-TRIAZATETRADECAN-14-OATE', 'weight': 680.788, 'carbohydrate_polymer': False, 'branch_name': ''}]

>  <ligand_codes>  (219) 
['G83']

>  <cofactor_codes>  (219) 
[]

>  <has_cofactor>  (219) 
False

>  <covalent>  (219) 
True

>  <base_name>  (219) 
3ZZC

>  <lig_resn>  (219) 
G83

>  <lig_resi>  (219) 
1181

>  <lig_chain>  (219) 
A

>  <lig_segi>  (219) 
B

>  <lig_alt>  (219) 


>  <polymer_chain>  (219) 
A

>  <single_smiles>  (219) 
CCOC(=O)CC[C@H](C[C@@H]1CCNC1=O)NC(=O)[C@H](Cc2ccccc2)NC(=O)[C@H](CC(=O)OC(C)(C)C)NC(=O)OCc3ccccc3

$$$$
G83P1S61
     RDKit          3D

 10  9  0  0  0  0  0  0  0  0999 V2000
   -9.2610   14.3500  -34.7310 N   0  0  0  0  0  0  0  0  0  0  0  0
   -9.0700   14.7310  -33.4520 C   0  0  0  0  0  0  0  0  0  0  0  0
   -8.5890   16.1350  -33.2460 C   0  0  1  0  0  0  0  0  0  0  0  0
   -9.1660   13.9920  -32.4630 O   0  0  0  0  0  0  0  0  0  0  0  0
   -8.9270   16.6710  -31.9560 N   0  0  0  0  0  0  0  0  0  0  0  0
   -7.0940   15.9700  -33.0860 C   0  0  0  0  0  0  0  0  0  0  0  0
   -9.6140   17.8180  -31.9050 C   0  0  0  0  0  0  0  0  0  0  0  0
   -6.3360   17.1850  -33.4620 C   0  0  0  0  0  0  0  0  0  0  0  0
   -9.9760   18.4340  -32.9180 O   0  0  0  0  0  0  0  0  0  0  0  0
   -6.4670   17.7660  -34.5460 O   0  0  0  0  0  0  0  0  0  0  0  0
  2  1  1  0
  3  2  1  0
  2  4  2  0
  5  3  1  0
  3  6  1  1
  7  5  1  0
  8  6  1  0
  7  9  2  0
 10  8  2  0
A    2
 C31
A    3
 C23
A    4
 O35
A    5
 N21
A    6
 C25
A    9
 O19
A   10
 O1 
M  END
>  <XChem_code>  (220) 
G83§1

>  <Occupancy>  (220) 
[1.0, 1.0, 1.0, 1.0, 1.0, 1.0, 1.0, 1.0, 1.0, 1.0, 1.0, 1.0, 1.0, 1.0, 1.0, 1.0, 1.0, 1.0, 1.0, 1.0, 1.0, 1.0, 1.0, 1.0, 1.0, 1.0, 1.0, 1.0, 1.0, 1.0, 1.0, 1.0, 1.0, 1.0, 1.0, 1.0, 1.0, 1.0, 1.0, 1.0, 1.0, 1.0, 1.0, 1.0, 1.0, 1.0, 1.0, 1.0, 1.0, 1.0]

>  <TempFactor>  (220) 
[21.5, 44.89, 24.36, 42.16, 38.25, 23.95, 40.64, 20.41, 29.29, 22.5, 27.31, 23.15, 28.56, 41.84, 29.6, 38.53, 33.37, 31.58, 30.86, 27.88, 28.97, 31.52, 43.05, 27.66, 27.42, 21.95, 25.67, 24.02, 25.01, 43.36, 43.87, 19.31, 17.05, 26.62, 26.73, 28.95, 20.4, 17.34, 20.74, 21.57, 21.69, 20.06, 20.47, 18.67, 21.64, 27.5, 29.51, 35.17, 31.37, 18.86]

>  <accession>  (220) 
3ZZC_A

>  <description>  (220) 
Chain A, 3C PROTEINASE [Coxsackievirus B3]

>  <evalue>  (220) 
7.4865399999999999e-87

>  <pdb_code>  (220) 
3ZZC

>  <chain>  (220) 
A

>  <ligands>  (220) 
[{'chain_id': 'A', 'author_residue_number': 1181, 'author_insertion_code': '', 'chem_comp_id': 'G83', 'alternate_conformers': 0, 'entity_id': 2, 'struct_asym_id': 'B', 'residue_number': 1, 'chem_comp_name': 'ETHYL (5S,8S,11R)-8-BENZYL-5-(2-TERT-BUTOXY-2-OXOETHYL)-3,6,9-TRIOXO-11-{[(3S)-2-OXOPYRROLIDIN-3-YL]METHYL}-1-PHENYL-2-OXA-4,7,10-TRIAZATETRADECAN-14-OATE', 'weight': 680.788, 'carbohydrate_polymer': False, 'branch_name': ''}]

>  <ligand_codes>  (220) 
['G83']

>  <cofactor_codes>  (220) 
[]

>  <has_cofactor>  (220) 
False

>  <covalent>  (220) 
True

>  <base_name>  (220) 
3ZZC

>  <lig_resn>  (220) 
G83

>  <lig_resi>  (220) 
1181

>  <lig_chain>  (220) 
A

>  <lig_segi>  (220) 
B

>  <lig_alt>  (220) 


>  <polymer_chain>  (220) 
A

>  <single_smiles>  (220) 
CCOC(=O)CC[C@H](C[C@@H]1CCNC1=O)NC(=O)[C@H](Cc2ccccc2)NC(=O)[C@H](CC(=O)OC(C)(C)C)NC(=O)OCc3ccccc3

$$$$
G83P1S62
     RDKit          3D

 21 21  0  0  0  0  0  0  0  0999 V2000
   -8.7450   10.9170  -34.2200 N   0  0  0  0  0  0  0  0  0  0  0  0
   -8.4620   12.0930  -34.7840 C   0  0  0  0  0  0  0  0  0  0  0  0
   -9.6510   12.9770  -35.0820 C   0  0  1  0  0  0  0  0  0  0  0  0
   -7.3180   12.4750  -35.0590 O   0  0  0  0  0  0  0  0  0  0  0  0
   -9.2610   14.3500  -34.7310 N   0  0  0  0  0  0  0  0  0  0  0  0
   -9.8940   12.8970  -36.5940 C   0  0  0  0  0  0  0  0  0  0  0  0
   -9.0700   14.7310  -33.4520 C   0  0  0  0  0  0  0  0  0  0  0  0
  -11.1210   13.7000  -36.9770 C   0  0  0  0  0  0  0  0  0  0  0  0
   -8.5890   16.1350  -33.2460 C   0  0  1  0  0  0  0  0  0  0  0  0
   -9.1660   13.9920  -32.4630 O   0  0  0  0  0  0  0  0  0  0  0  0
  -12.3400   13.5180  -36.3250 C   0  0  0  0  0  0  0  0  0  0  0  0
  -11.0320   14.6580  -38.0030 C   0  0  0  0  0  0  0  0  0  0  0  0
   -8.9270   16.6710  -31.9560 N   0  0  0  0  0  0  0  0  0  0  0  0
   -7.0940   15.9700  -33.0860 C   0  0  0  0  0  0  0  0  0  0  0  0
  -13.4670   14.3010  -36.6620 C   0  0  0  0  0  0  0  0  0  0  0  0
  -12.1840   15.4150  -38.3560 C   0  0  0  0  0  0  0  0  0  0  0  0
   -9.6140   17.8180  -31.9050 C   0  0  0  0  0  0  0  0  0  0  0  0
   -6.3360   17.1850  -33.4620 C   0  0  0  0  0  0  0  0  0  0  0  0
  -13.4100   15.2640  -37.6860 C   0  0  0  0  0  0  0  0  0  0  0  0
   -9.9760   18.4340  -32.9180 O   0  0  0  0  0  0  0  0  0  0  0  0
   -6.4670   17.7660  -34.5460 O   0  0  0  0  0  0  0  0  0  0  0  0
  2  1  1  0
  3  2  1  0
  2  4  2  0
  5  3  1  0
  3  6  1  6
  7  5  1  0
  6  8  1  0
  9  7  1  0
  7 10  2  0
  8 11  2  0
  8 12  1  0
 13  9  1  0
  9 14  1  1
 15 11  1  0
 16 12  2  0
 17 13  1  0
 18 14  1  0
 15 19  2  0
 19 16  1  0
 17 20  2  0
 21 18  2  0
A    2
 C39
A    3
 C37
A    4
 O47
A    5
 N33
A    6
 C41
A    7
 C31
A    8
 C51
A    9
 C23
A   10
 O35
A   11
 C53
A   12
 C55
A   13
 N21
A   14
 C25
A   15
 C7 
A   16
 C11
A   19
 C9 
A   20
 O19
A   21
 O1 
M  END
>  <XChem_code>  (221) 
G83§1

>  <Occupancy>  (221) 
[1.0, 1.0, 1.0, 1.0, 1.0, 1.0, 1.0, 1.0, 1.0, 1.0, 1.0, 1.0, 1.0, 1.0, 1.0, 1.0, 1.0, 1.0, 1.0, 1.0, 1.0, 1.0, 1.0, 1.0, 1.0, 1.0, 1.0, 1.0, 1.0, 1.0, 1.0, 1.0, 1.0, 1.0, 1.0, 1.0, 1.0, 1.0, 1.0, 1.0, 1.0, 1.0, 1.0, 1.0, 1.0, 1.0, 1.0, 1.0, 1.0, 1.0]

>  <TempFactor>  (221) 
[21.5, 44.89, 24.36, 42.16, 38.25, 23.95, 40.64, 20.41, 29.29, 22.5, 27.31, 23.15, 28.56, 41.84, 29.6, 38.53, 33.37, 31.58, 30.86, 27.88, 28.97, 31.52, 43.05, 27.66, 27.42, 21.95, 25.67, 24.02, 25.01, 43.36, 43.87, 19.31, 17.05, 26.62, 26.73, 28.95, 20.4, 17.34, 20.74, 21.57, 21.69, 20.06, 20.47, 18.67, 21.64, 27.5, 29.51, 35.17, 31.37, 18.86]

>  <accession>  (221) 
3ZZC_A

>  <description>  (221) 
Chain A, 3C PROTEINASE [Coxsackievirus B3]

>  <evalue>  (221) 
7.4865399999999999e-87

>  <pdb_code>  (221) 
3ZZC

>  <chain>  (221) 
A

>  <ligands>  (221) 
[{'chain_id': 'A', 'author_residue_number': 1181, 'author_insertion_code': '', 'chem_comp_id': 'G83', 'alternate_conformers': 0, 'entity_id': 2, 'struct_asym_id': 'B', 'residue_number': 1, 'chem_comp_name': 'ETHYL (5S,8S,11R)-8-BENZYL-5-(2-TERT-BUTOXY-2-OXOETHYL)-3,6,9-TRIOXO-11-{[(3S)-2-OXOPYRROLIDIN-3-YL]METHYL}-1-PHENYL-2-OXA-4,7,10-TRIAZATETRADECAN-14-OATE', 'weight': 680.788, 'carbohydrate_polymer': False, 'branch_name': ''}]

>  <ligand_codes>  (221) 
['G83']

>  <cofactor_codes>  (221) 
[]

>  <has_cofactor>  (221) 
False

>  <covalent>  (221) 
True

>  <base_name>  (221) 
3ZZC

>  <lig_resn>  (221) 
G83

>  <lig_resi>  (221) 
1181

>  <lig_chain>  (221) 
A

>  <lig_segi>  (221) 
B

>  <lig_alt>  (221) 


>  <polymer_chain>  (221) 
A

>  <single_smiles>  (221) 
CCOC(=O)CC[C@H](C[C@@H]1CCNC1=O)NC(=O)[C@H](Cc2ccccc2)NC(=O)[C@H](CC(=O)OC(C)(C)C)NC(=O)OCc3ccccc3

$$$$
G83P1S63
     RDKit          3D

  6  5  0  0  0  0  0  0  0  0999 V2000
   -8.5890   16.1350  -33.2460 C   0  0  0  0  0  0  0  0  0  0  0  0
   -9.0700   14.7310  -33.4520 C   0  0  0  0  0  0  0  0  0  0  0  0
   -7.0940   15.9700  -33.0860 C   0  0  0  0  0  0  0  0  0  0  0  0
   -9.1660   13.9920  -32.4630 O   0  0  0  0  0  0  0  0  0  0  0  0
   -6.3360   17.1850  -33.4620 C   0  0  0  0  0  0  0  0  0  0  0  0
   -6.4670   17.7660  -34.5460 O   0  0  0  0  0  0  0  0  0  0  0  0
  1  2  1  0
  1  3  1  6
  2  4  2  0
  5  3  1  0
  6  5  2  0
A    3
 C25
A    4
 O35
A    6
 O1 
M  END
>  <XChem_code>  (222) 
G83§1

>  <Occupancy>  (222) 
[1.0, 1.0, 1.0, 1.0, 1.0, 1.0, 1.0, 1.0, 1.0, 1.0, 1.0, 1.0, 1.0, 1.0, 1.0, 1.0, 1.0, 1.0, 1.0, 1.0, 1.0, 1.0, 1.0, 1.0, 1.0, 1.0, 1.0, 1.0, 1.0, 1.0, 1.0, 1.0, 1.0, 1.0, 1.0, 1.0, 1.0, 1.0, 1.0, 1.0, 1.0, 1.0, 1.0, 1.0, 1.0, 1.0, 1.0, 1.0, 1.0, 1.0]

>  <TempFactor>  (222) 
[21.5, 44.89, 24.36, 42.16, 38.25, 23.95, 40.64, 20.41, 29.29, 22.5, 27.31, 23.15, 28.56, 41.84, 29.6, 38.53, 33.37, 31.58, 30.86, 27.88, 28.97, 31.52, 43.05, 27.66, 27.42, 21.95, 25.67, 24.02, 25.01, 43.36, 43.87, 19.31, 17.05, 26.62, 26.73, 28.95, 20.4, 17.34, 20.74, 21.57, 21.69, 20.06, 20.47, 18.67, 21.64, 27.5, 29.51, 35.17, 31.37, 18.86]

>  <accession>  (222) 
3ZZC_A

>  <description>  (222) 
Chain A, 3C PROTEINASE [Coxsackievirus B3]

>  <evalue>  (222) 
7.4865399999999999e-87

>  <pdb_code>  (222) 
3ZZC

>  <chain>  (222) 
A

>  <ligands>  (222) 
[{'chain_id': 'A', 'author_residue_number': 1181, 'author_insertion_code': '', 'chem_comp_id': 'G83', 'alternate_conformers': 0, 'entity_id': 2, 'struct_asym_id': 'B', 'residue_number': 1, 'chem_comp_name': 'ETHYL (5S,8S,11R)-8-BENZYL-5-(2-TERT-BUTOXY-2-OXOETHYL)-3,6,9-TRIOXO-11-{[(3S)-2-OXOPYRROLIDIN-3-YL]METHYL}-1-PHENYL-2-OXA-4,7,10-TRIAZATETRADECAN-14-OATE', 'weight': 680.788, 'carbohydrate_polymer': False, 'branch_name': ''}]

>  <ligand_codes>  (222) 
['G83']

>  <cofactor_codes>  (222) 
[]

>  <has_cofactor>  (222) 
False

>  <covalent>  (222) 
True

>  <base_name>  (222) 
3ZZC

>  <lig_resn>  (222) 
G83

>  <lig_resi>  (222) 
1181

>  <lig_chain>  (222) 
A

>  <lig_segi>  (222) 
B

>  <lig_alt>  (222) 


>  <polymer_chain>  (222) 
A

>  <single_smiles>  (222) 
CCOC(=O)CC[C@H](C[C@@H]1CCNC1=O)NC(=O)[C@H](Cc2ccccc2)NC(=O)[C@H](CC(=O)OC(C)(C)C)NC(=O)OCc3ccccc3

$$$$
G83P1S64
     RDKit          3D

  8  7  0  0  0  0  0  0  0  0999 V2000
   -9.2610   14.3500  -34.7310 N   0  0  0  0  0  0  0  0  0  0  0  0
   -9.0700   14.7310  -33.4520 C   0  0  0  0  0  0  0  0  0  0  0  0
   -8.5890   16.1350  -33.2460 C   0  0  1  0  0  0  0  0  0  0  0  0
   -9.1660   13.9920  -32.4630 O   0  0  0  0  0  0  0  0  0  0  0  0
   -8.9270   16.6710  -31.9560 N   0  0  0  0  0  0  0  0  0  0  0  0
   -7.0940   15.9700  -33.0860 C   0  0  0  0  0  0  0  0  0  0  0  0
   -6.3360   17.1850  -33.4620 C   0  0  0  0  0  0  0  0  0  0  0  0
   -6.4670   17.7660  -34.5460 O   0  0  0  0  0  0  0  0  0  0  0  0
  2  1  1  0
  3  2  1  0
  2  4  2  0
  3  5  1  1
  3  6  1  0
  7  6  1  0
  8  7  2  0
A    2
 C31
A    3
 C23
A    4
 O35
A    6
 C25
A    8
 O1 
M  END
>  <XChem_code>  (223) 
G83§1

>  <Occupancy>  (223) 
[1.0, 1.0, 1.0, 1.0, 1.0, 1.0, 1.0, 1.0, 1.0, 1.0, 1.0, 1.0, 1.0, 1.0, 1.0, 1.0, 1.0, 1.0, 1.0, 1.0, 1.0, 1.0, 1.0, 1.0, 1.0, 1.0, 1.0, 1.0, 1.0, 1.0, 1.0, 1.0, 1.0, 1.0, 1.0, 1.0, 1.0, 1.0, 1.0, 1.0, 1.0, 1.0, 1.0, 1.0, 1.0, 1.0, 1.0, 1.0, 1.0, 1.0]

>  <TempFactor>  (223) 
[21.5, 44.89, 24.36, 42.16, 38.25, 23.95, 40.64, 20.41, 29.29, 22.5, 27.31, 23.15, 28.56, 41.84, 29.6, 38.53, 33.37, 31.58, 30.86, 27.88, 28.97, 31.52, 43.05, 27.66, 27.42, 21.95, 25.67, 24.02, 25.01, 43.36, 43.87, 19.31, 17.05, 26.62, 26.73, 28.95, 20.4, 17.34, 20.74, 21.57, 21.69, 20.06, 20.47, 18.67, 21.64, 27.5, 29.51, 35.17, 31.37, 18.86]

>  <accession>  (223) 
3ZZC_A

>  <description>  (223) 
Chain A, 3C PROTEINASE [Coxsackievirus B3]

>  <evalue>  (223) 
7.4865399999999999e-87

>  <pdb_code>  (223) 
3ZZC

>  <chain>  (223) 
A

>  <ligands>  (223) 
[{'chain_id': 'A', 'author_residue_number': 1181, 'author_insertion_code': '', 'chem_comp_id': 'G83', 'alternate_conformers': 0, 'entity_id': 2, 'struct_asym_id': 'B', 'residue_number': 1, 'chem_comp_name': 'ETHYL (5S,8S,11R)-8-BENZYL-5-(2-TERT-BUTOXY-2-OXOETHYL)-3,6,9-TRIOXO-11-{[(3S)-2-OXOPYRROLIDIN-3-YL]METHYL}-1-PHENYL-2-OXA-4,7,10-TRIAZATETRADECAN-14-OATE', 'weight': 680.788, 'carbohydrate_polymer': False, 'branch_name': ''}]

>  <ligand_codes>  (223) 
['G83']

>  <cofactor_codes>  (223) 
[]

>  <has_cofactor>  (223) 
False

>  <covalent>  (223) 
True

>  <base_name>  (223) 
3ZZC

>  <lig_resn>  (223) 
G83

>  <lig_resi>  (223) 
1181

>  <lig_chain>  (223) 
A

>  <lig_segi>  (223) 
B

>  <lig_alt>  (223) 


>  <polymer_chain>  (223) 
A

>  <single_smiles>  (223) 
CCOC(=O)CC[C@H](C[C@@H]1CCNC1=O)NC(=O)[C@H](Cc2ccccc2)NC(=O)[C@H](CC(=O)OC(C)(C)C)NC(=O)OCc3ccccc3

$$$$
G83P1S65
     RDKit          3D

 19 19  0  0  0  0  0  0  0  0999 V2000
   -8.7450   10.9170  -34.2200 N   0  0  0  0  0  0  0  0  0  0  0  0
   -8.4620   12.0930  -34.7840 C   0  0  0  0  0  0  0  0  0  0  0  0
   -9.6510   12.9770  -35.0820 C   0  0  1  0  0  0  0  0  0  0  0  0
   -7.3180   12.4750  -35.0590 O   0  0  0  0  0  0  0  0  0  0  0  0
   -9.2610   14.3500  -34.7310 N   0  0  0  0  0  0  0  0  0  0  0  0
   -9.8940   12.8970  -36.5940 C   0  0  0  0  0  0  0  0  0  0  0  0
   -9.0700   14.7310  -33.4520 C   0  0  0  0  0  0  0  0  0  0  0  0
  -11.1210   13.7000  -36.9770 C   0  0  0  0  0  0  0  0  0  0  0  0
   -8.5890   16.1350  -33.2460 C   0  0  1  0  0  0  0  0  0  0  0  0
   -9.1660   13.9920  -32.4630 O   0  0  0  0  0  0  0  0  0  0  0  0
  -12.3400   13.5180  -36.3250 C   0  0  0  0  0  0  0  0  0  0  0  0
  -11.0320   14.6580  -38.0030 C   0  0  0  0  0  0  0  0  0  0  0  0
   -8.9270   16.6710  -31.9560 N   0  0  0  0  0  0  0  0  0  0  0  0
   -7.0940   15.9700  -33.0860 C   0  0  0  0  0  0  0  0  0  0  0  0
  -13.4670   14.3010  -36.6620 C   0  0  0  0  0  0  0  0  0  0  0  0
  -12.1840   15.4150  -38.3560 C   0  0  0  0  0  0  0  0  0  0  0  0
   -6.3360   17.1850  -33.4620 C   0  0  0  0  0  0  0  0  0  0  0  0
  -13.4100   15.2640  -37.6860 C   0  0  0  0  0  0  0  0  0  0  0  0
   -6.4670   17.7660  -34.5460 O   0  0  0  0  0  0  0  0  0  0  0  0
  2  1  1  0
  3  2  1  0
  2  4  2  0
  5  3  1  0
  3  6  1  6
  7  5  1  0
  6  8  1  0
  9  7  1  0
  7 10  2  0
  8 11  2  0
  8 12  1  0
  9 13  1  1
  9 14  1  0
 15 11  1  0
 16 12  2  0
 17 14  1  0
 15 18  2  0
 18 16  1  0
 19 17  2  0
A    2
 C39
A    3
 C37
A    4
 O47
A    5
 N33
A    6
 C41
A    7
 C31
A    8
 C51
A    9
 C23
A   10
 O35
A   11
 C53
A   12
 C55
A   14
 C25
A   15
 C7 
A   16
 C11
A   18
 C9 
A   19
 O1 
M  END
>  <XChem_code>  (224) 
G83§1

>  <Occupancy>  (224) 
[1.0, 1.0, 1.0, 1.0, 1.0, 1.0, 1.0, 1.0, 1.0, 1.0, 1.0, 1.0, 1.0, 1.0, 1.0, 1.0, 1.0, 1.0, 1.0, 1.0, 1.0, 1.0, 1.0, 1.0, 1.0, 1.0, 1.0, 1.0, 1.0, 1.0, 1.0, 1.0, 1.0, 1.0, 1.0, 1.0, 1.0, 1.0, 1.0, 1.0, 1.0, 1.0, 1.0, 1.0, 1.0, 1.0, 1.0, 1.0, 1.0, 1.0]

>  <TempFactor>  (224) 
[21.5, 44.89, 24.36, 42.16, 38.25, 23.95, 40.64, 20.41, 29.29, 22.5, 27.31, 23.15, 28.56, 41.84, 29.6, 38.53, 33.37, 31.58, 30.86, 27.88, 28.97, 31.52, 43.05, 27.66, 27.42, 21.95, 25.67, 24.02, 25.01, 43.36, 43.87, 19.31, 17.05, 26.62, 26.73, 28.95, 20.4, 17.34, 20.74, 21.57, 21.69, 20.06, 20.47, 18.67, 21.64, 27.5, 29.51, 35.17, 31.37, 18.86]

>  <accession>  (224) 
3ZZC_A

>  <description>  (224) 
Chain A, 3C PROTEINASE [Coxsackievirus B3]

>  <evalue>  (224) 
7.4865399999999999e-87

>  <pdb_code>  (224) 
3ZZC

>  <chain>  (224) 
A

>  <ligands>  (224) 
[{'chain_id': 'A', 'author_residue_number': 1181, 'author_insertion_code': '', 'chem_comp_id': 'G83', 'alternate_conformers': 0, 'entity_id': 2, 'struct_asym_id': 'B', 'residue_number': 1, 'chem_comp_name': 'ETHYL (5S,8S,11R)-8-BENZYL-5-(2-TERT-BUTOXY-2-OXOETHYL)-3,6,9-TRIOXO-11-{[(3S)-2-OXOPYRROLIDIN-3-YL]METHYL}-1-PHENYL-2-OXA-4,7,10-TRIAZATETRADECAN-14-OATE', 'weight': 680.788, 'carbohydrate_polymer': False, 'branch_name': ''}]

>  <ligand_codes>  (224) 
['G83']

>  <cofactor_codes>  (224) 
[]

>  <has_cofactor>  (224) 
False

>  <covalent>  (224) 
True

>  <base_name>  (224) 
3ZZC

>  <lig_resn>  (224) 
G83

>  <lig_resi>  (224) 
1181

>  <lig_chain>  (224) 
A

>  <lig_segi>  (224) 
B

>  <lig_alt>  (224) 


>  <polymer_chain>  (224) 
A

>  <single_smiles>  (224) 
CCOC(=O)CC[C@H](C[C@@H]1CCNC1=O)NC(=O)[C@H](Cc2ccccc2)NC(=O)[C@H](CC(=O)OC(C)(C)C)NC(=O)OCc3ccccc3

$$$$
G83P1S66
     RDKit          3D

 17 17  0  0  0  0  0  0  0  0999 V2000
   -8.5890   16.1350  -33.2460 C   0  0  0  0  0  0  0  0  0  0  0  0
   -9.0700   14.7310  -33.4520 C   0  0  0  0  0  0  0  0  0  0  0  0
   -7.0940   15.9700  -33.0860 C   0  0  0  0  0  0  0  0  0  0  0  0
   -9.2610   14.3500  -34.7310 N   0  0  0  0  0  0  0  0  0  0  0  0
   -9.1660   13.9920  -32.4630 O   0  0  0  0  0  0  0  0  0  0  0  0
   -6.3360   17.1850  -33.4620 C   0  0  0  0  0  0  0  0  0  0  0  0
   -9.6510   12.9770  -35.0820 C   0  0  2  0  0  0  0  0  0  0  0  0
   -6.4670   17.7660  -34.5460 O   0  0  0  0  0  0  0  0  0  0  0  0
   -8.4620   12.0930  -34.7840 C   0  0  0  0  0  0  0  0  0  0  0  0
   -9.8940   12.8970  -36.5940 C   0  0  0  0  0  0  0  0  0  0  0  0
   -7.3180   12.4750  -35.0590 O   0  0  0  0  0  0  0  0  0  0  0  0
  -11.1210   13.7000  -36.9770 C   0  0  0  0  0  0  0  0  0  0  0  0
  -12.3400   13.5180  -36.3250 C   0  0  0  0  0  0  0  0  0  0  0  0
  -11.0320   14.6580  -38.0030 C   0  0  0  0  0  0  0  0  0  0  0  0
  -13.4670   14.3010  -36.6620 C   0  0  0  0  0  0  0  0  0  0  0  0
  -12.1840   15.4150  -38.3560 C   0  0  0  0  0  0  0  0  0  0  0  0
  -13.4100   15.2640  -37.6860 C   0  0  0  0  0  0  0  0  0  0  0  0
  1  2  1  0
  1  3  1  6
  2  4  1  0
  2  5  2  0
  6  3  1  0
  4  7  1  0
  8  6  2  0
  7  9  1  0
  7 10  1  6
  9 11  2  0
 10 12  1  0
 12 13  2  0
 12 14  1  0
 15 13  1  0
 16 14  2  0
 15 17  2  0
 17 16  1  0
A    2
 C31
A    3
 C25
A    4
 N33
A    5
 O35
A    7
 C37
A    8
 O1 
A   10
 C41
A   11
 O47
A   12
 C51
A   13
 C53
A   14
 C55
A   15
 C7 
A   16
 C11
A   17
 C9 
M  END
>  <XChem_code>  (225) 
G83§1

>  <Occupancy>  (225) 
[1.0, 1.0, 1.0, 1.0, 1.0, 1.0, 1.0, 1.0, 1.0, 1.0, 1.0, 1.0, 1.0, 1.0, 1.0, 1.0, 1.0, 1.0, 1.0, 1.0, 1.0, 1.0, 1.0, 1.0, 1.0, 1.0, 1.0, 1.0, 1.0, 1.0, 1.0, 1.0, 1.0, 1.0, 1.0, 1.0, 1.0, 1.0, 1.0, 1.0, 1.0, 1.0, 1.0, 1.0, 1.0, 1.0, 1.0, 1.0, 1.0, 1.0]

>  <TempFactor>  (225) 
[21.5, 44.89, 24.36, 42.16, 38.25, 23.95, 40.64, 20.41, 29.29, 22.5, 27.31, 23.15, 28.56, 41.84, 29.6, 38.53, 33.37, 31.58, 30.86, 27.88, 28.97, 31.52, 43.05, 27.66, 27.42, 21.95, 25.67, 24.02, 25.01, 43.36, 43.87, 19.31, 17.05, 26.62, 26.73, 28.95, 20.4, 17.34, 20.74, 21.57, 21.69, 20.06, 20.47, 18.67, 21.64, 27.5, 29.51, 35.17, 31.37, 18.86]

>  <accession>  (225) 
3ZZC_A

>  <description>  (225) 
Chain A, 3C PROTEINASE [Coxsackievirus B3]

>  <evalue>  (225) 
7.4865399999999999e-87

>  <pdb_code>  (225) 
3ZZC

>  <chain>  (225) 
A

>  <ligands>  (225) 
[{'chain_id': 'A', 'author_residue_number': 1181, 'author_insertion_code': '', 'chem_comp_id': 'G83', 'alternate_conformers': 0, 'entity_id': 2, 'struct_asym_id': 'B', 'residue_number': 1, 'chem_comp_name': 'ETHYL (5S,8S,11R)-8-BENZYL-5-(2-TERT-BUTOXY-2-OXOETHYL)-3,6,9-TRIOXO-11-{[(3S)-2-OXOPYRROLIDIN-3-YL]METHYL}-1-PHENYL-2-OXA-4,7,10-TRIAZATETRADECAN-14-OATE', 'weight': 680.788, 'carbohydrate_polymer': False, 'branch_name': ''}]

>  <ligand_codes>  (225) 
['G83']

>  <cofactor_codes>  (225) 
[]

>  <has_cofactor>  (225) 
False

>  <covalent>  (225) 
True

>  <base_name>  (225) 
3ZZC

>  <lig_resn>  (225) 
G83

>  <lig_resi>  (225) 
1181

>  <lig_chain>  (225) 
A

>  <lig_segi>  (225) 
B

>  <lig_alt>  (225) 


>  <polymer_chain>  (225) 
A

>  <single_smiles>  (225) 
CCOC(=O)CC[C@H](C[C@@H]1CCNC1=O)NC(=O)[C@H](Cc2ccccc2)NC(=O)[C@H](CC(=O)OC(C)(C)C)NC(=O)OCc3ccccc3

$$$$
G83P1S67
     RDKit          3D

 35 36  0  0  0  0  0  0  0  0999 V2000
   -8.5890   16.1350  -33.2460 C   0  0  0  0  0  0  0  0  0  0  0  0
   -7.0940   15.9700  -33.0860 C   0  0  0  0  0  0  0  0  0  0  0  0
   -9.0700   14.7310  -33.4520 C   0  0  0  0  0  0  0  0  0  0  0  0
   -6.3360   17.1850  -33.4620 C   0  0  0  0  0  0  0  0  0  0  0  0
   -9.2610   14.3500  -34.7310 N   0  0  0  0  0  0  0  0  0  0  0  0
   -9.1660   13.9920  -32.4630 O   0  0  0  0  0  0  0  0  0  0  0  0
   -5.3760   17.6500  -32.4930 O   0  0  0  0  0  0  0  0  0  0  0  0
   -6.4670   17.7660  -34.5460 O   0  0  0  0  0  0  0  0  0  0  0  0
   -9.6510   12.9770  -35.0820 C   0  0  2  0  0  0  0  0  0  0  0  0
   -8.4620   12.0930  -34.7840 C   0  0  0  0  0  0  0  0  0  0  0  0
   -9.8940   12.8970  -36.5940 C   0  0  0  0  0  0  0  0  0  0  0  0
   -7.3180   12.4750  -35.0590 O   0  0  0  0  0  0  0  0  0  0  0  0
   -8.7450   10.9170  -34.2200 N   0  0  0  0  0  0  0  0  0  0  0  0
  -11.1210   13.7000  -36.9770 C   0  0  0  0  0  0  0  0  0  0  0  0
   -7.7310    9.9410  -33.8290 C   0  0  1  0  0  0  0  0  0  0  0  0
  -12.3400   13.5180  -36.3250 C   0  0  0  0  0  0  0  0  0  0  0  0
  -11.0320   14.6580  -38.0030 C   0  0  0  0  0  0  0  0  0  0  0  0
   -7.6750    9.9230  -32.2970 C   0  0  0  0  0  0  0  0  0  0  0  0
   -8.1830    8.5770  -34.4040 C   0  0  2  0  0  0  0  0  0  0  0  0
  -13.4670   14.3010  -36.6620 C   0  0  0  0  0  0  0  0  0  0  0  0
  -12.1840   15.4150  -38.3560 C   0  0  0  0  0  0  0  0  0  0  0  0
   -7.2530   11.2580  -31.6380 C   0  0  1  0  0  0  0  0  0  0  0  0
   -8.1980    8.6230  -35.9360 C   0  0  0  0  0  0  0  0  0  0  0  0
   -9.8310    8.1200  -33.8380 R   0  0  0  0  0  0  0  0  0  0  0  0
  -13.4100   15.2640  -37.6860 C   0  0  0  0  0  0  0  0  0  0  0  0
   -7.1040   11.1020  -30.1450 C   0  0  0  0  0  0  0  0  0  0  0  0
   -5.9010   11.8850  -31.9840 C   0  0  0  0  0  0  0  0  0  0  0  0
   -6.8090    8.9220  -36.4600 C   0  0  0  0  0  0  0  0  0  0  0  0
   -7.8010   10.3100  -29.5070 O   0  0  0  0  0  0  0  0  0  0  0  0
   -6.2280   11.9150  -29.7100 N   0  0  0  0  0  0  0  0  0  0  0  0
   -5.4330   12.6240  -30.7080 C   0  0  0  0  0  0  0  0  0  0  0  0
   -6.6580    9.7290  -37.6550 O   0  0  0  0  0  0  0  0  0  0  0  0
   -5.8080    8.4980  -35.8980 O   0  0  0  0  0  0  0  0  0  0  0  0
   -5.3610   10.2030  -38.0740 C   0  0  0  0  0  0  0  0  0  0  0  0
   -4.5750    9.1110  -38.7950 C   0  0  0  0  0  0  0  0  0  0  0  0
  1  2  1  6
  1  3  1  0
  4  2  1  0
  3  5  1  0
  3  6  2  0
  7  4  1  0
  8  4  2  0
  5  9  1  0
  9 10  1  0
  9 11  1  6
 10 12  2  0
 10 13  1  0
 11 14  1  0
 13 15  1  0
 14 16  2  0
 14 17  1  0
 15 18  1  1
 15 19  1  0
 20 16  1  0
 21 17  2  0
 22 18  1  6
 19 23  1  0
 19 24  1  1
 20 25  2  0
 25 21  1  0
 22 26  1  0
 22 27  1  0
 23 28  1  0
 26 29  2  0
 26 30  1  0
 31 27  1  0
 28 32  1  0
 28 33  2  0
 30 31  1  0
 34 32  1  0
 34 35  1  0
V   24 *
A    2
 C25
A    3
 C31
A    4
 C14
A    5
 N33
A    6
 O35
A    8
 O1 
A    9
 C37
A   10
 C39
A   11
 C41
A   12
 O47
A   13
 N49
A   14
 C51
A   15
 C57
A   16
 C53
A   17
 C55
A   18
 C59
A   19
 C63
A   20
 C7 
A   21
 C11
A   22
 C61
A   23
 C82
A   24
 X  
A   25
 C9 
A   26
 C65
A   27
 C73
A   28
 C84
A   29
 O66
A   30
 N69
A   31
 C71
A   32
 O86
A   33
 O88
A   34
 C3 
A   35
 C5 
M  END
>  <XChem_code>  (226) 
G83§1

>  <Occupancy>  (226) 
[1.0, 1.0, 1.0, 1.0, 1.0, 1.0, 1.0, 1.0, 1.0, 1.0, 1.0, 1.0, 1.0, 1.0, 1.0, 1.0, 1.0, 1.0, 1.0, 1.0, 1.0, 1.0, 1.0, 1.0, 1.0, 1.0, 1.0, 1.0, 1.0, 1.0, 1.0, 1.0, 1.0, 1.0, 1.0, 1.0, 1.0, 1.0, 1.0, 1.0, 1.0, 1.0, 1.0, 1.0, 1.0, 1.0, 1.0, 1.0, 1.0, 1.0]

>  <TempFactor>  (226) 
[21.5, 44.89, 24.36, 42.16, 38.25, 23.95, 40.64, 20.41, 29.29, 22.5, 27.31, 23.15, 28.56, 41.84, 29.6, 38.53, 33.37, 31.58, 30.86, 27.88, 28.97, 31.52, 43.05, 27.66, 27.42, 21.95, 25.67, 24.02, 25.01, 43.36, 43.87, 19.31, 17.05, 26.62, 26.73, 28.95, 20.4, 17.34, 20.74, 21.57, 21.69, 20.06, 20.47, 18.67, 21.64, 27.5, 29.51, 35.17, 31.37, 18.86]

>  <accession>  (226) 
3ZZC_A

>  <description>  (226) 
Chain A, 3C PROTEINASE [Coxsackievirus B3]

>  <evalue>  (226) 
7.4865399999999999e-87

>  <pdb_code>  (226) 
3ZZC

>  <chain>  (226) 
A

>  <ligands>  (226) 
[{'chain_id': 'A', 'author_residue_number': 1181, 'author_insertion_code': '', 'chem_comp_id': 'G83', 'alternate_conformers': 0, 'entity_id': 2, 'struct_asym_id': 'B', 'residue_number': 1, 'chem_comp_name': 'ETHYL (5S,8S,11R)-8-BENZYL-5-(2-TERT-BUTOXY-2-OXOETHYL)-3,6,9-TRIOXO-11-{[(3S)-2-OXOPYRROLIDIN-3-YL]METHYL}-1-PHENYL-2-OXA-4,7,10-TRIAZATETRADECAN-14-OATE', 'weight': 680.788, 'carbohydrate_polymer': False, 'branch_name': ''}]

>  <ligand_codes>  (226) 
['G83']

>  <cofactor_codes>  (226) 
[]

>  <has_cofactor>  (226) 
False

>  <covalent>  (226) 
True

>  <base_name>  (226) 
3ZZC

>  <lig_resn>  (226) 
G83

>  <lig_resi>  (226) 
1181

>  <lig_chain>  (226) 
A

>  <lig_segi>  (226) 
B

>  <lig_alt>  (226) 


>  <polymer_chain>  (226) 
A

>  <single_smiles>  (226) 
CCOC(=O)CC[C@H](C[C@@H]1CCNC1=O)NC(=O)[C@H](Cc2ccccc2)NC(=O)[C@H](CC(=O)OC(C)(C)C)NC(=O)OCc3ccccc3

$$$$
G83P1S68
     RDKit          3D

 19 19  0  0  0  0  0  0  0  0999 V2000
   -9.2610   14.3500  -34.7310 N   0  0  0  0  0  0  0  0  0  0  0  0
   -9.0700   14.7310  -33.4520 C   0  0  0  0  0  0  0  0  0  0  0  0
   -8.5890   16.1350  -33.2460 C   0  0  2  0  0  0  0  0  0  0  0  0
   -9.1660   13.9920  -32.4630 O   0  0  0  0  0  0  0  0  0  0  0  0
   -7.0940   15.9700  -33.0860 C   0  0  0  0  0  0  0  0  0  0  0  0
   -8.9270   16.6710  -31.9560 N   0  0  0  0  0  0  0  0  0  0  0  0
   -6.3360   17.1850  -33.4620 C   0  0  0  0  0  0  0  0  0  0  0  0
   -9.6140   17.8180  -31.9050 C   0  0  0  0  0  0  0  0  0  0  0  0
   -5.3760   17.6500  -32.4930 O   0  0  0  0  0  0  0  0  0  0  0  0
   -6.4670   17.7660  -34.5460 O   0  0  0  0  0  0  0  0  0  0  0  0
   -9.9650   18.3270  -30.5810 O   0  0  0  0  0  0  0  0  0  0  0  0
   -9.9760   18.4340  -32.9180 O   0  0  0  0  0  0  0  0  0  0  0  0
  -10.3020   19.6950  -30.3210 C   0  0  0  0  0  0  0  0  0  0  0  0
  -10.4040   19.8340  -28.8340 C   0  0  0  0  0  0  0  0  0  0  0  0
   -9.6890   20.8420  -28.1960 C   0  0  0  0  0  0  0  0  0  0  0  0
  -11.1970   18.9310  -28.1220 C   0  0  0  0  0  0  0  0  0  0  0  0
   -9.7810   20.9510  -26.7880 C   0  0  0  0  0  0  0  0  0  0  0  0
  -11.3130   19.0390  -26.7440 C   0  0  0  0  0  0  0  0  0  0  0  0
  -10.5960   20.0640  -26.0750 C   0  0  0  0  0  0  0  0  0  0  0  0
  2  1  1  0
  3  2  1  0
  2  4  2  0
  3  5  1  1
  6  3  1  0
  7  5  1  0
  8  6  1  0
  9  7  1  0
 10  7  2  0
 11  8  1  0
  8 12  2  0
 13 11  1  0
 14 13  1  0
 15 14  2  0
 14 16  1  0
 17 15  1  0
 16 18  2  0
 17 19  2  0
 18 19  1  0
A    2
 C31
A    3
 C23
A    4
 O35
A    5
 C25
A    6
 N21
A    7
 C14
A    8
 C17
A   10
 O1 
A   11
 O15
A   12
 O19
A   13
 C13
A   14
 C4 
A   15
 C2 
A   16
 C6 
A   17
 C1 
A   18
 C8 
A   19
 C10
M  END
>  <XChem_code>  (227) 
G83§1

>  <Occupancy>  (227) 
[1.0, 1.0, 1.0, 1.0, 1.0, 1.0, 1.0, 1.0, 1.0, 1.0, 1.0, 1.0, 1.0, 1.0, 1.0, 1.0, 1.0, 1.0, 1.0, 1.0, 1.0, 1.0, 1.0, 1.0, 1.0, 1.0, 1.0, 1.0, 1.0, 1.0, 1.0, 1.0, 1.0, 1.0, 1.0, 1.0, 1.0, 1.0, 1.0, 1.0, 1.0, 1.0, 1.0, 1.0, 1.0, 1.0, 1.0, 1.0, 1.0, 1.0]

>  <TempFactor>  (227) 
[21.5, 44.89, 24.36, 42.16, 38.25, 23.95, 40.64, 20.41, 29.29, 22.5, 27.31, 23.15, 28.56, 41.84, 29.6, 38.53, 33.37, 31.58, 30.86, 27.88, 28.97, 31.52, 43.05, 27.66, 27.42, 21.95, 25.67, 24.02, 25.01, 43.36, 43.87, 19.31, 17.05, 26.62, 26.73, 28.95, 20.4, 17.34, 20.74, 21.57, 21.69, 20.06, 20.47, 18.67, 21.64, 27.5, 29.51, 35.17, 31.37, 18.86]

>  <accession>  (227) 
3ZZC_A

>  <description>  (227) 
Chain A, 3C PROTEINASE [Coxsackievirus B3]

>  <evalue>  (227) 
7.4865399999999999e-87

>  <pdb_code>  (227) 
3ZZC

>  <chain>  (227) 
A

>  <ligands>  (227) 
[{'chain_id': 'A', 'author_residue_number': 1181, 'author_insertion_code': '', 'chem_comp_id': 'G83', 'alternate_conformers': 0, 'entity_id': 2, 'struct_asym_id': 'B', 'residue_number': 1, 'chem_comp_name': 'ETHYL (5S,8S,11R)-8-BENZYL-5-(2-TERT-BUTOXY-2-OXOETHYL)-3,6,9-TRIOXO-11-{[(3S)-2-OXOPYRROLIDIN-3-YL]METHYL}-1-PHENYL-2-OXA-4,7,10-TRIAZATETRADECAN-14-OATE', 'weight': 680.788, 'carbohydrate_polymer': False, 'branch_name': ''}]

>  <ligand_codes>  (227) 
['G83']

>  <cofactor_codes>  (227) 
[]

>  <has_cofactor>  (227) 
False

>  <covalent>  (227) 
True

>  <base_name>  (227) 
3ZZC

>  <lig_resn>  (227) 
G83

>  <lig_resi>  (227) 
1181

>  <lig_chain>  (227) 
A

>  <lig_segi>  (227) 
B

>  <lig_alt>  (227) 


>  <polymer_chain>  (227) 
A

>  <single_smiles>  (227) 
CCOC(=O)CC[C@H](C[C@@H]1CCNC1=O)NC(=O)[C@H](Cc2ccccc2)NC(=O)[C@H](CC(=O)OC(C)(C)C)NC(=O)OCc3ccccc3

$$$$
G83P1S69
     RDKit          3D

 30 31  0  0  0  0  0  0  0  0999 V2000
   -8.7450   10.9170  -34.2200 N   0  0  0  0  0  0  0  0  0  0  0  0
   -8.4620   12.0930  -34.7840 C   0  0  0  0  0  0  0  0  0  0  0  0
   -9.6510   12.9770  -35.0820 C   0  0  1  0  0  0  0  0  0  0  0  0
   -7.3180   12.4750  -35.0590 O   0  0  0  0  0  0  0  0  0  0  0  0
   -9.2610   14.3500  -34.7310 N   0  0  0  0  0  0  0  0  0  0  0  0
   -9.8940   12.8970  -36.5940 C   0  0  0  0  0  0  0  0  0  0  0  0
   -9.0700   14.7310  -33.4520 C   0  0  0  0  0  0  0  0  0  0  0  0
  -11.1210   13.7000  -36.9770 C   0  0  0  0  0  0  0  0  0  0  0  0
   -8.5890   16.1350  -33.2460 C   0  0  2  0  0  0  0  0  0  0  0  0
   -9.1660   13.9920  -32.4630 O   0  0  0  0  0  0  0  0  0  0  0  0
  -12.3400   13.5180  -36.3250 C   0  0  0  0  0  0  0  0  0  0  0  0
  -11.0320   14.6580  -38.0030 C   0  0  0  0  0  0  0  0  0  0  0  0
   -7.0940   15.9700  -33.0860 C   0  0  0  0  0  0  0  0  0  0  0  0
   -8.9270   16.6710  -31.9560 N   0  0  0  0  0  0  0  0  0  0  0  0
  -13.4670   14.3010  -36.6620 C   0  0  0  0  0  0  0  0  0  0  0  0
  -12.1840   15.4150  -38.3560 C   0  0  0  0  0  0  0  0  0  0  0  0
   -6.3360   17.1850  -33.4620 C   0  0  0  0  0  0  0  0  0  0  0  0
   -9.6140   17.8180  -31.9050 C   0  0  0  0  0  0  0  0  0  0  0  0
  -13.4100   15.2640  -37.6860 C   0  0  0  0  0  0  0  0  0  0  0  0
   -5.3760   17.6500  -32.4930 O   0  0  0  0  0  0  0  0  0  0  0  0
   -6.4670   17.7660  -34.5460 O   0  0  0  0  0  0  0  0  0  0  0  0
   -9.9650   18.3270  -30.5810 O   0  0  0  0  0  0  0  0  0  0  0  0
   -9.9760   18.4340  -32.9180 O   0  0  0  0  0  0  0  0  0  0  0  0
  -10.3020   19.6950  -30.3210 C   0  0  0  0  0  0  0  0  0  0  0  0
  -10.4040   19.8340  -28.8340 C   0  0  0  0  0  0  0  0  0  0  0  0
   -9.6890   20.8420  -28.1960 C   0  0  0  0  0  0  0  0  0  0  0  0
  -11.1970   18.9310  -28.1220 C   0  0  0  0  0  0  0  0  0  0  0  0
   -9.7810   20.9510  -26.7880 C   0  0  0  0  0  0  0  0  0  0  0  0
  -11.3130   19.0390  -26.7440 C   0  0  0  0  0  0  0  0  0  0  0  0
  -10.5960   20.0640  -26.0750 C   0  0  0  0  0  0  0  0  0  0  0  0
  2  1  1  0
  3  2  1  0
  2  4  2  0
  5  3  1  0
  3  6  1  6
  7  5  1  0
  6  8  1  0
  9  7  1  0
  7 10  2  0
  8 11  2  0
  8 12  1  0
  9 13  1  1
 14  9  1  0
 15 11  1  0
 16 12  2  0
 17 13  1  0
 18 14  1  0
 15 19  2  0
 19 16  1  0
 20 17  1  0
 21 17  2  0
 22 18  1  0
 18 23  2  0
 24 22  1  0
 25 24  1  0
 26 25  2  0
 25 27  1  0
 28 26  1  0
 27 29  2  0
 28 30  2  0
 29 30  1  0
A    2
 C39
A    3
 C37
A    4
 O47
A    5
 N33
A    6
 C41
A    7
 C31
A    8
 C51
A    9
 C23
A   10
 O35
A   11
 C53
A   12
 C55
A   13
 C25
A   14
 N21
A   15
 C7 
A   16
 C11
A   17
 C14
A   18
 C17
A   19
 C9 
A   21
 O1 
A   22
 O15
A   23
 O19
A   24
 C13
A   25
 C4 
A   26
 C2 
A   27
 C6 
A   28
 C1 
A   29
 C8 
A   30
 C10
M  END
>  <XChem_code>  (228) 
G83§1

>  <Occupancy>  (228) 
[1.0, 1.0, 1.0, 1.0, 1.0, 1.0, 1.0, 1.0, 1.0, 1.0, 1.0, 1.0, 1.0, 1.0, 1.0, 1.0, 1.0, 1.0, 1.0, 1.0, 1.0, 1.0, 1.0, 1.0, 1.0, 1.0, 1.0, 1.0, 1.0, 1.0, 1.0, 1.0, 1.0, 1.0, 1.0, 1.0, 1.0, 1.0, 1.0, 1.0, 1.0, 1.0, 1.0, 1.0, 1.0, 1.0, 1.0, 1.0, 1.0, 1.0]

>  <TempFactor>  (228) 
[21.5, 44.89, 24.36, 42.16, 38.25, 23.95, 40.64, 20.41, 29.29, 22.5, 27.31, 23.15, 28.56, 41.84, 29.6, 38.53, 33.37, 31.58, 30.86, 27.88, 28.97, 31.52, 43.05, 27.66, 27.42, 21.95, 25.67, 24.02, 25.01, 43.36, 43.87, 19.31, 17.05, 26.62, 26.73, 28.95, 20.4, 17.34, 20.74, 21.57, 21.69, 20.06, 20.47, 18.67, 21.64, 27.5, 29.51, 35.17, 31.37, 18.86]

>  <accession>  (228) 
3ZZC_A

>  <description>  (228) 
Chain A, 3C PROTEINASE [Coxsackievirus B3]

>  <evalue>  (228) 
7.4865399999999999e-87

>  <pdb_code>  (228) 
3ZZC

>  <chain>  (228) 
A

>  <ligands>  (228) 
[{'chain_id': 'A', 'author_residue_number': 1181, 'author_insertion_code': '', 'chem_comp_id': 'G83', 'alternate_conformers': 0, 'entity_id': 2, 'struct_asym_id': 'B', 'residue_number': 1, 'chem_comp_name': 'ETHYL (5S,8S,11R)-8-BENZYL-5-(2-TERT-BUTOXY-2-OXOETHYL)-3,6,9-TRIOXO-11-{[(3S)-2-OXOPYRROLIDIN-3-YL]METHYL}-1-PHENYL-2-OXA-4,7,10-TRIAZATETRADECAN-14-OATE', 'weight': 680.788, 'carbohydrate_polymer': False, 'branch_name': ''}]

>  <ligand_codes>  (228) 
['G83']

>  <cofactor_codes>  (228) 
[]

>  <has_cofactor>  (228) 
False

>  <covalent>  (228) 
True

>  <base_name>  (228) 
3ZZC

>  <lig_resn>  (228) 
G83

>  <lig_resi>  (228) 
1181

>  <lig_chain>  (228) 
A

>  <lig_segi>  (228) 
B

>  <lig_alt>  (228) 


>  <polymer_chain>  (228) 
A

>  <single_smiles>  (228) 
CCOC(=O)CC[C@H](C[C@@H]1CCNC1=O)NC(=O)[C@H](Cc2ccccc2)NC(=O)[C@H](CC(=O)OC(C)(C)C)NC(=O)OCc3ccccc3

$$$$
G83P1S70
     RDKit          3D

  4  3  0  0  0  0  0  0  0  0999 V2000
   -8.9270   16.6710  -31.9560 N   0  0  0  0  0  0  0  0  0  0  0  0
   -9.6140   17.8180  -31.9050 C   0  0  0  0  0  0  0  0  0  0  0  0
   -9.9650   18.3270  -30.5810 O   0  0  0  0  0  0  0  0  0  0  0  0
   -9.9760   18.4340  -32.9180 O   0  0  0  0  0  0  0  0  0  0  0  0
  2  1  1  0
  3  2  1  0
  2  4  2  0
A    2
 C17
A    4
 O19
M  END
>  <XChem_code>  (229) 
G83§1

>  <Occupancy>  (229) 
[1.0, 1.0, 1.0, 1.0, 1.0, 1.0, 1.0, 1.0, 1.0, 1.0, 1.0, 1.0, 1.0, 1.0, 1.0, 1.0, 1.0, 1.0, 1.0, 1.0, 1.0, 1.0, 1.0, 1.0, 1.0, 1.0, 1.0, 1.0, 1.0, 1.0, 1.0, 1.0, 1.0, 1.0, 1.0, 1.0, 1.0, 1.0, 1.0, 1.0, 1.0, 1.0, 1.0, 1.0, 1.0, 1.0, 1.0, 1.0, 1.0, 1.0]

>  <TempFactor>  (229) 
[21.5, 44.89, 24.36, 42.16, 38.25, 23.95, 40.64, 20.41, 29.29, 22.5, 27.31, 23.15, 28.56, 41.84, 29.6, 38.53, 33.37, 31.58, 30.86, 27.88, 28.97, 31.52, 43.05, 27.66, 27.42, 21.95, 25.67, 24.02, 25.01, 43.36, 43.87, 19.31, 17.05, 26.62, 26.73, 28.95, 20.4, 17.34, 20.74, 21.57, 21.69, 20.06, 20.47, 18.67, 21.64, 27.5, 29.51, 35.17, 31.37, 18.86]

>  <accession>  (229) 
3ZZC_A

>  <description>  (229) 
Chain A, 3C PROTEINASE [Coxsackievirus B3]

>  <evalue>  (229) 
7.4865399999999999e-87

>  <pdb_code>  (229) 
3ZZC

>  <chain>  (229) 
A

>  <ligands>  (229) 
[{'chain_id': 'A', 'author_residue_number': 1181, 'author_insertion_code': '', 'chem_comp_id': 'G83', 'alternate_conformers': 0, 'entity_id': 2, 'struct_asym_id': 'B', 'residue_number': 1, 'chem_comp_name': 'ETHYL (5S,8S,11R)-8-BENZYL-5-(2-TERT-BUTOXY-2-OXOETHYL)-3,6,9-TRIOXO-11-{[(3S)-2-OXOPYRROLIDIN-3-YL]METHYL}-1-PHENYL-2-OXA-4,7,10-TRIAZATETRADECAN-14-OATE', 'weight': 680.788, 'carbohydrate_polymer': False, 'branch_name': ''}]

>  <ligand_codes>  (229) 
['G83']

>  <cofactor_codes>  (229) 
[]

>  <has_cofactor>  (229) 
False

>  <covalent>  (229) 
True

>  <base_name>  (229) 
3ZZC

>  <lig_resn>  (229) 
G83

>  <lig_resi>  (229) 
1181

>  <lig_chain>  (229) 
A

>  <lig_segi>  (229) 
B

>  <lig_alt>  (229) 


>  <polymer_chain>  (229) 
A

>  <single_smiles>  (229) 
CCOC(=O)CC[C@H](C[C@@H]1CCNC1=O)NC(=O)[C@H](Cc2ccccc2)NC(=O)[C@H](CC(=O)OC(C)(C)C)NC(=O)OCc3ccccc3

$$$$
G83P1S71
     RDKit          3D

 16 15  0  0  0  0  0  0  0  0999 V2000
   -9.2610   14.3500  -34.7310 N   0  0  0  0  0  0  0  0  0  0  0  0
   -9.0700   14.7310  -33.4520 C   0  0  0  0  0  0  0  0  0  0  0  0
   -8.5890   16.1350  -33.2460 C   0  0  1  0  0  0  0  0  0  0  0  0
   -9.1660   13.9920  -32.4630 O   0  0  0  0  0  0  0  0  0  0  0  0
   -8.9270   16.6710  -31.9560 N   0  0  0  0  0  0  0  0  0  0  0  0
   -7.0940   15.9700  -33.0860 C   0  0  0  0  0  0  0  0  0  0  0  0
   -9.6140   17.8180  -31.9050 C   0  0  0  0  0  0  0  0  0  0  0  0
   -6.3360   17.1850  -33.4620 C   0  0  0  0  0  0  0  0  0  0  0  0
   -9.9650   18.3270  -30.5810 O   0  0  0  0  0  0  0  0  0  0  0  0
   -9.9760   18.4340  -32.9180 O   0  0  0  0  0  0  0  0  0  0  0  0
   -6.4670   17.7660  -34.5460 O   0  0  0  0  0  0  0  0  0  0  0  0
   -5.3760   17.6500  -32.4930 O   0  0  0  0  0  0  0  0  0  0  0  0
   -4.0330   17.1570  -32.4230 C   0  0  0  0  0  0  0  0  0  0  0  0
   -3.6770   16.1600  -33.5370 C   0  0  0  0  0  0  0  0  0  0  0  0
   -3.9520   16.4650  -31.0680 C   0  0  0  0  0  0  0  0  0  0  0  0
   -3.0820   18.3540  -32.5240 C   0  0  0  0  0  0  0  0  0  0  0  0
  2  1  1  0
  3  2  1  0
  2  4  2  0
  5  3  1  0
  3  6  1  1
  7  5  1  0
  8  6  1  0
  9  7  1  0
  7 10  2  0
 11  8  2  0
 12  8  1  0
 12 13  1  0
 13 14  1  0
 13 15  1  0
 13 16  1  0
A    2
 C31
A    3
 C23
A    4
 O35
A    5
 N21
A    6
 C25
A    7
 C17
A    8
 C14
A   10
 O19
A   11
 O1 
A   12
 O2 
A   13
 C29
A   14
 C12
A   15
 C43
A   16
 C45
M  END
>  <XChem_code>  (230) 
G83§1

>  <Occupancy>  (230) 
[1.0, 1.0, 1.0, 1.0, 1.0, 1.0, 1.0, 1.0, 1.0, 1.0, 1.0, 1.0, 1.0, 1.0, 1.0, 1.0, 1.0, 1.0, 1.0, 1.0, 1.0, 1.0, 1.0, 1.0, 1.0, 1.0, 1.0, 1.0, 1.0, 1.0, 1.0, 1.0, 1.0, 1.0, 1.0, 1.0, 1.0, 1.0, 1.0, 1.0, 1.0, 1.0, 1.0, 1.0, 1.0, 1.0, 1.0, 1.0, 1.0, 1.0]

>  <TempFactor>  (230) 
[21.5, 44.89, 24.36, 42.16, 38.25, 23.95, 40.64, 20.41, 29.29, 22.5, 27.31, 23.15, 28.56, 41.84, 29.6, 38.53, 33.37, 31.58, 30.86, 27.88, 28.97, 31.52, 43.05, 27.66, 27.42, 21.95, 25.67, 24.02, 25.01, 43.36, 43.87, 19.31, 17.05, 26.62, 26.73, 28.95, 20.4, 17.34, 20.74, 21.57, 21.69, 20.06, 20.47, 18.67, 21.64, 27.5, 29.51, 35.17, 31.37, 18.86]

>  <accession>  (230) 
3ZZC_A

>  <description>  (230) 
Chain A, 3C PROTEINASE [Coxsackievirus B3]

>  <evalue>  (230) 
7.4865399999999999e-87

>  <pdb_code>  (230) 
3ZZC

>  <chain>  (230) 
A

>  <ligands>  (230) 
[{'chain_id': 'A', 'author_residue_number': 1181, 'author_insertion_code': '', 'chem_comp_id': 'G83', 'alternate_conformers': 0, 'entity_id': 2, 'struct_asym_id': 'B', 'residue_number': 1, 'chem_comp_name': 'ETHYL (5S,8S,11R)-8-BENZYL-5-(2-TERT-BUTOXY-2-OXOETHYL)-3,6,9-TRIOXO-11-{[(3S)-2-OXOPYRROLIDIN-3-YL]METHYL}-1-PHENYL-2-OXA-4,7,10-TRIAZATETRADECAN-14-OATE', 'weight': 680.788, 'carbohydrate_polymer': False, 'branch_name': ''}]

>  <ligand_codes>  (230) 
['G83']

>  <cofactor_codes>  (230) 
[]

>  <has_cofactor>  (230) 
False

>  <covalent>  (230) 
True

>  <base_name>  (230) 
3ZZC

>  <lig_resn>  (230) 
G83

>  <lig_resi>  (230) 
1181

>  <lig_chain>  (230) 
A

>  <lig_segi>  (230) 
B

>  <lig_alt>  (230) 


>  <polymer_chain>  (230) 
A

>  <single_smiles>  (230) 
CCOC(=O)CC[C@H](C[C@@H]1CCNC1=O)NC(=O)[C@H](Cc2ccccc2)NC(=O)[C@H](CC(=O)OC(C)(C)C)NC(=O)OCc3ccccc3

$$$$
G83P1S72
     RDKit          3D

 27 27  0  0  0  0  0  0  0  0999 V2000
   -8.7450   10.9170  -34.2200 N   0  0  0  0  0  0  0  0  0  0  0  0
   -8.4620   12.0930  -34.7840 C   0  0  0  0  0  0  0  0  0  0  0  0
   -9.6510   12.9770  -35.0820 C   0  0  1  0  0  0  0  0  0  0  0  0
   -7.3180   12.4750  -35.0590 O   0  0  0  0  0  0  0  0  0  0  0  0
   -9.2610   14.3500  -34.7310 N   0  0  0  0  0  0  0  0  0  0  0  0
   -9.8940   12.8970  -36.5940 C   0  0  0  0  0  0  0  0  0  0  0  0
   -9.0700   14.7310  -33.4520 C   0  0  0  0  0  0  0  0  0  0  0  0
  -11.1210   13.7000  -36.9770 C   0  0  0  0  0  0  0  0  0  0  0  0
   -8.5890   16.1350  -33.2460 C   0  0  1  0  0  0  0  0  0  0  0  0
   -9.1660   13.9920  -32.4630 O   0  0  0  0  0  0  0  0  0  0  0  0
  -12.3400   13.5180  -36.3250 C   0  0  0  0  0  0  0  0  0  0  0  0
  -11.0320   14.6580  -38.0030 C   0  0  0  0  0  0  0  0  0  0  0  0
   -8.9270   16.6710  -31.9560 N   0  0  0  0  0  0  0  0  0  0  0  0
   -7.0940   15.9700  -33.0860 C   0  0  0  0  0  0  0  0  0  0  0  0
  -13.4670   14.3010  -36.6620 C   0  0  0  0  0  0  0  0  0  0  0  0
  -12.1840   15.4150  -38.3560 C   0  0  0  0  0  0  0  0  0  0  0  0
   -9.6140   17.8180  -31.9050 C   0  0  0  0  0  0  0  0  0  0  0  0
   -6.3360   17.1850  -33.4620 C   0  0  0  0  0  0  0  0  0  0  0  0
  -13.4100   15.2640  -37.6860 C   0  0  0  0  0  0  0  0  0  0  0  0
   -9.9650   18.3270  -30.5810 O   0  0  0  0  0  0  0  0  0  0  0  0
   -9.9760   18.4340  -32.9180 O   0  0  0  0  0  0  0  0  0  0  0  0
   -6.4670   17.7660  -34.5460 O   0  0  0  0  0  0  0  0  0  0  0  0
   -5.3760   17.6500  -32.4930 O   0  0  0  0  0  0  0  0  0  0  0  0
   -4.0330   17.1570  -32.4230 C   0  0  0  0  0  0  0  0  0  0  0  0
   -3.6770   16.1600  -33.5370 C   0  0  0  0  0  0  0  0  0  0  0  0
   -3.9520   16.4650  -31.0680 C   0  0  0  0  0  0  0  0  0  0  0  0
   -3.0820   18.3540  -32.5240 C   0  0  0  0  0  0  0  0  0  0  0  0
  2  1  1  0
  3  2  1  0
  2  4  2  0
  5  3  1  0
  3  6  1  6
  7  5  1  0
  6  8  1  0
  9  7  1  0
  7 10  2  0
  8 11  2  0
  8 12  1  0
 13  9  1  0
  9 14  1  1
 15 11  1  0
 16 12  2  0
 17 13  1  0
 18 14  1  0
 15 19  2  0
 19 16  1  0
 20 17  1  0
 17 21  2  0
 22 18  2  0
 23 18  1  0
 23 24  1  0
 24 25  1  0
 24 26  1  0
 24 27  1  0
A    2
 C39
A    3
 C37
A    4
 O47
A    5
 N33
A    6
 C41
A    7
 C31
A    8
 C51
A    9
 C23
A   10
 O35
A   11
 C53
A   12
 C55
A   13
 N21
A   14
 C25
A   15
 C7 
A   16
 C11
A   17
 C17
A   18
 C14
A   19
 C9 
A   21
 O19
A   22
 O1 
A   23
 O2 
A   24
 C29
A   25
 C12
A   26
 C43
A   27
 C45
M  END
>  <XChem_code>  (231) 
G83§1

>  <Occupancy>  (231) 
[1.0, 1.0, 1.0, 1.0, 1.0, 1.0, 1.0, 1.0, 1.0, 1.0, 1.0, 1.0, 1.0, 1.0, 1.0, 1.0, 1.0, 1.0, 1.0, 1.0, 1.0, 1.0, 1.0, 1.0, 1.0, 1.0, 1.0, 1.0, 1.0, 1.0, 1.0, 1.0, 1.0, 1.0, 1.0, 1.0, 1.0, 1.0, 1.0, 1.0, 1.0, 1.0, 1.0, 1.0, 1.0, 1.0, 1.0, 1.0, 1.0, 1.0]

>  <TempFactor>  (231) 
[21.5, 44.89, 24.36, 42.16, 38.25, 23.95, 40.64, 20.41, 29.29, 22.5, 27.31, 23.15, 28.56, 41.84, 29.6, 38.53, 33.37, 31.58, 30.86, 27.88, 28.97, 31.52, 43.05, 27.66, 27.42, 21.95, 25.67, 24.02, 25.01, 43.36, 43.87, 19.31, 17.05, 26.62, 26.73, 28.95, 20.4, 17.34, 20.74, 21.57, 21.69, 20.06, 20.47, 18.67, 21.64, 27.5, 29.51, 35.17, 31.37, 18.86]

>  <accession>  (231) 
3ZZC_A

>  <description>  (231) 
Chain A, 3C PROTEINASE [Coxsackievirus B3]

>  <evalue>  (231) 
7.4865399999999999e-87

>  <pdb_code>  (231) 
3ZZC

>  <chain>  (231) 
A

>  <ligands>  (231) 
[{'chain_id': 'A', 'author_residue_number': 1181, 'author_insertion_code': '', 'chem_comp_id': 'G83', 'alternate_conformers': 0, 'entity_id': 2, 'struct_asym_id': 'B', 'residue_number': 1, 'chem_comp_name': 'ETHYL (5S,8S,11R)-8-BENZYL-5-(2-TERT-BUTOXY-2-OXOETHYL)-3,6,9-TRIOXO-11-{[(3S)-2-OXOPYRROLIDIN-3-YL]METHYL}-1-PHENYL-2-OXA-4,7,10-TRIAZATETRADECAN-14-OATE', 'weight': 680.788, 'carbohydrate_polymer': False, 'branch_name': ''}]

>  <ligand_codes>  (231) 
['G83']

>  <cofactor_codes>  (231) 
[]

>  <has_cofactor>  (231) 
False

>  <covalent>  (231) 
True

>  <base_name>  (231) 
3ZZC

>  <lig_resn>  (231) 
G83

>  <lig_resi>  (231) 
1181

>  <lig_chain>  (231) 
A

>  <lig_segi>  (231) 
B

>  <lig_alt>  (231) 


>  <polymer_chain>  (231) 
A

>  <single_smiles>  (231) 
CCOC(=O)CC[C@H](C[C@@H]1CCNC1=O)NC(=O)[C@H](Cc2ccccc2)NC(=O)[C@H](CC(=O)OC(C)(C)C)NC(=O)OCc3ccccc3

$$$$
G83P1S73
     RDKit          3D

 11 10  0  0  0  0  0  0  0  0999 V2000
   -9.2610   14.3500  -34.7310 N   0  0  0  0  0  0  0  0  0  0  0  0
   -9.0700   14.7310  -33.4520 C   0  0  0  0  0  0  0  0  0  0  0  0
   -8.5890   16.1350  -33.2460 C   0  0  1  0  0  0  0  0  0  0  0  0
   -9.1660   13.9920  -32.4630 O   0  0  0  0  0  0  0  0  0  0  0  0
   -8.9270   16.6710  -31.9560 N   0  0  0  0  0  0  0  0  0  0  0  0
   -7.0940   15.9700  -33.0860 C   0  0  0  0  0  0  0  0  0  0  0  0
   -9.6140   17.8180  -31.9050 C   0  0  0  0  0  0  0  0  0  0  0  0
   -6.3360   17.1850  -33.4620 C   0  0  0  0  0  0  0  0  0  0  0  0
   -9.9650   18.3270  -30.5810 O   0  0  0  0  0  0  0  0  0  0  0  0
   -9.9760   18.4340  -32.9180 O   0  0  0  0  0  0  0  0  0  0  0  0
   -6.4670   17.7660  -34.5460 O   0  0  0  0  0  0  0  0  0  0  0  0
  2  1  1  0
  3  2  1  0
  2  4  2  0
  5  3  1  0
  3  6  1  1
  7  5  1  0
  8  6  1  0
  9  7  1  0
  7 10  2  0
 11  8  2  0
A    2
 C31
A    3
 C23
A    4
 O35
A    5
 N21
A    6
 C25
A    7
 C17
A   10
 O19
A   11
 O1 
M  END
>  <XChem_code>  (232) 
G83§1

>  <Occupancy>  (232) 
[1.0, 1.0, 1.0, 1.0, 1.0, 1.0, 1.0, 1.0, 1.0, 1.0, 1.0, 1.0, 1.0, 1.0, 1.0, 1.0, 1.0, 1.0, 1.0, 1.0, 1.0, 1.0, 1.0, 1.0, 1.0, 1.0, 1.0, 1.0, 1.0, 1.0, 1.0, 1.0, 1.0, 1.0, 1.0, 1.0, 1.0, 1.0, 1.0, 1.0, 1.0, 1.0, 1.0, 1.0, 1.0, 1.0, 1.0, 1.0, 1.0, 1.0]

>  <TempFactor>  (232) 
[21.5, 44.89, 24.36, 42.16, 38.25, 23.95, 40.64, 20.41, 29.29, 22.5, 27.31, 23.15, 28.56, 41.84, 29.6, 38.53, 33.37, 31.58, 30.86, 27.88, 28.97, 31.52, 43.05, 27.66, 27.42, 21.95, 25.67, 24.02, 25.01, 43.36, 43.87, 19.31, 17.05, 26.62, 26.73, 28.95, 20.4, 17.34, 20.74, 21.57, 21.69, 20.06, 20.47, 18.67, 21.64, 27.5, 29.51, 35.17, 31.37, 18.86]

>  <accession>  (232) 
3ZZC_A

>  <description>  (232) 
Chain A, 3C PROTEINASE [Coxsackievirus B3]

>  <evalue>  (232) 
7.4865399999999999e-87

>  <pdb_code>  (232) 
3ZZC

>  <chain>  (232) 
A

>  <ligands>  (232) 
[{'chain_id': 'A', 'author_residue_number': 1181, 'author_insertion_code': '', 'chem_comp_id': 'G83', 'alternate_conformers': 0, 'entity_id': 2, 'struct_asym_id': 'B', 'residue_number': 1, 'chem_comp_name': 'ETHYL (5S,8S,11R)-8-BENZYL-5-(2-TERT-BUTOXY-2-OXOETHYL)-3,6,9-TRIOXO-11-{[(3S)-2-OXOPYRROLIDIN-3-YL]METHYL}-1-PHENYL-2-OXA-4,7,10-TRIAZATETRADECAN-14-OATE', 'weight': 680.788, 'carbohydrate_polymer': False, 'branch_name': ''}]

>  <ligand_codes>  (232) 
['G83']

>  <cofactor_codes>  (232) 
[]

>  <has_cofactor>  (232) 
False

>  <covalent>  (232) 
True

>  <base_name>  (232) 
3ZZC

>  <lig_resn>  (232) 
G83

>  <lig_resi>  (232) 
1181

>  <lig_chain>  (232) 
A

>  <lig_segi>  (232) 
B

>  <lig_alt>  (232) 


>  <polymer_chain>  (232) 
A

>  <single_smiles>  (232) 
CCOC(=O)CC[C@H](C[C@@H]1CCNC1=O)NC(=O)[C@H](Cc2ccccc2)NC(=O)[C@H](CC(=O)OC(C)(C)C)NC(=O)OCc3ccccc3

$$$$
G83P1S74
     RDKit          3D

 22 22  0  0  0  0  0  0  0  0999 V2000
   -8.7450   10.9170  -34.2200 N   0  0  0  0  0  0  0  0  0  0  0  0
   -8.4620   12.0930  -34.7840 C   0  0  0  0  0  0  0  0  0  0  0  0
   -9.6510   12.9770  -35.0820 C   0  0  1  0  0  0  0  0  0  0  0  0
   -7.3180   12.4750  -35.0590 O   0  0  0  0  0  0  0  0  0  0  0  0
   -9.2610   14.3500  -34.7310 N   0  0  0  0  0  0  0  0  0  0  0  0
   -9.8940   12.8970  -36.5940 C   0  0  0  0  0  0  0  0  0  0  0  0
   -9.0700   14.7310  -33.4520 C   0  0  0  0  0  0  0  0  0  0  0  0
  -11.1210   13.7000  -36.9770 C   0  0  0  0  0  0  0  0  0  0  0  0
   -8.5890   16.1350  -33.2460 C   0  0  1  0  0  0  0  0  0  0  0  0
   -9.1660   13.9920  -32.4630 O   0  0  0  0  0  0  0  0  0  0  0  0
  -12.3400   13.5180  -36.3250 C   0  0  0  0  0  0  0  0  0  0  0  0
  -11.0320   14.6580  -38.0030 C   0  0  0  0  0  0  0  0  0  0  0  0
   -8.9270   16.6710  -31.9560 N   0  0  0  0  0  0  0  0  0  0  0  0
   -7.0940   15.9700  -33.0860 C   0  0  0  0  0  0  0  0  0  0  0  0
  -13.4670   14.3010  -36.6620 C   0  0  0  0  0  0  0  0  0  0  0  0
  -12.1840   15.4150  -38.3560 C   0  0  0  0  0  0  0  0  0  0  0  0
   -9.6140   17.8180  -31.9050 C   0  0  0  0  0  0  0  0  0  0  0  0
   -6.3360   17.1850  -33.4620 C   0  0  0  0  0  0  0  0  0  0  0  0
  -13.4100   15.2640  -37.6860 C   0  0  0  0  0  0  0  0  0  0  0  0
   -9.9650   18.3270  -30.5810 O   0  0  0  0  0  0  0  0  0  0  0  0
   -9.9760   18.4340  -32.9180 O   0  0  0  0  0  0  0  0  0  0  0  0
   -6.4670   17.7660  -34.5460 O   0  0  0  0  0  0  0  0  0  0  0  0
  2  1  1  0
  3  2  1  0
  2  4  2  0
  5  3  1  0
  3  6  1  6
  7  5  1  0
  6  8  1  0
  9  7  1  0
  7 10  2  0
  8 11  2  0
  8 12  1  0
 13  9  1  0
  9 14  1  1
 15 11  1  0
 16 12  2  0
 17 13  1  0
 18 14  1  0
 15 19  2  0
 19 16  1  0
 20 17  1  0
 17 21  2  0
 22 18  2  0
A    2
 C39
A    3
 C37
A    4
 O47
A    5
 N33
A    6
 C41
A    7
 C31
A    8
 C51
A    9
 C23
A   10
 O35
A   11
 C53
A   12
 C55
A   13
 N21
A   14
 C25
A   15
 C7 
A   16
 C11
A   17
 C17
A   19
 C9 
A   21
 O19
A   22
 O1 
M  END
>  <XChem_code>  (233) 
G83§1

>  <Occupancy>  (233) 
[1.0, 1.0, 1.0, 1.0, 1.0, 1.0, 1.0, 1.0, 1.0, 1.0, 1.0, 1.0, 1.0, 1.0, 1.0, 1.0, 1.0, 1.0, 1.0, 1.0, 1.0, 1.0, 1.0, 1.0, 1.0, 1.0, 1.0, 1.0, 1.0, 1.0, 1.0, 1.0, 1.0, 1.0, 1.0, 1.0, 1.0, 1.0, 1.0, 1.0, 1.0, 1.0, 1.0, 1.0, 1.0, 1.0, 1.0, 1.0, 1.0, 1.0]

>  <TempFactor>  (233) 
[21.5, 44.89, 24.36, 42.16, 38.25, 23.95, 40.64, 20.41, 29.29, 22.5, 27.31, 23.15, 28.56, 41.84, 29.6, 38.53, 33.37, 31.58, 30.86, 27.88, 28.97, 31.52, 43.05, 27.66, 27.42, 21.95, 25.67, 24.02, 25.01, 43.36, 43.87, 19.31, 17.05, 26.62, 26.73, 28.95, 20.4, 17.34, 20.74, 21.57, 21.69, 20.06, 20.47, 18.67, 21.64, 27.5, 29.51, 35.17, 31.37, 18.86]

>  <accession>  (233) 
3ZZC_A

>  <description>  (233) 
Chain A, 3C PROTEINASE [Coxsackievirus B3]

>  <evalue>  (233) 
7.4865399999999999e-87

>  <pdb_code>  (233) 
3ZZC

>  <chain>  (233) 
A

>  <ligands>  (233) 
[{'chain_id': 'A', 'author_residue_number': 1181, 'author_insertion_code': '', 'chem_comp_id': 'G83', 'alternate_conformers': 0, 'entity_id': 2, 'struct_asym_id': 'B', 'residue_number': 1, 'chem_comp_name': 'ETHYL (5S,8S,11R)-8-BENZYL-5-(2-TERT-BUTOXY-2-OXOETHYL)-3,6,9-TRIOXO-11-{[(3S)-2-OXOPYRROLIDIN-3-YL]METHYL}-1-PHENYL-2-OXA-4,7,10-TRIAZATETRADECAN-14-OATE', 'weight': 680.788, 'carbohydrate_polymer': False, 'branch_name': ''}]

>  <ligand_codes>  (233) 
['G83']

>  <cofactor_codes>  (233) 
[]

>  <has_cofactor>  (233) 
False

>  <covalent>  (233) 
True

>  <base_name>  (233) 
3ZZC

>  <lig_resn>  (233) 
G83

>  <lig_resi>  (233) 
1181

>  <lig_chain>  (233) 
A

>  <lig_segi>  (233) 
B

>  <lig_alt>  (233) 


>  <polymer_chain>  (233) 
A

>  <single_smiles>  (233) 
CCOC(=O)CC[C@H](C[C@@H]1CCNC1=O)NC(=O)[C@H](Cc2ccccc2)NC(=O)[C@H](CC(=O)OC(C)(C)C)NC(=O)OCc3ccccc3

$$$$
G83P1S75
     RDKit          3D

 11 10  0  0  0  0  0  0  0  0999 V2000
   -9.2610   14.3500  -34.7310 N   0  0  0  0  0  0  0  0  0  0  0  0
   -9.0700   14.7310  -33.4520 C   0  0  0  0  0  0  0  0  0  0  0  0
   -8.5890   16.1350  -33.2460 C   0  0  2  0  0  0  0  0  0  0  0  0
   -9.1660   13.9920  -32.4630 O   0  0  0  0  0  0  0  0  0  0  0  0
   -7.0940   15.9700  -33.0860 C   0  0  0  0  0  0  0  0  0  0  0  0
   -8.9270   16.6710  -31.9560 N   0  0  0  0  0  0  0  0  0  0  0  0
   -6.3360   17.1850  -33.4620 C   0  0  0  0  0  0  0  0  0  0  0  0
   -9.6140   17.8180  -31.9050 C   0  0  0  0  0  0  0  0  0  0  0  0
   -5.3760   17.6500  -32.4930 O   0  0  0  0  0  0  0  0  0  0  0  0
   -6.4670   17.7660  -34.5460 O   0  0  0  0  0  0  0  0  0  0  0  0
   -9.9760   18.4340  -32.9180 O   0  0  0  0  0  0  0  0  0  0  0  0
  2  1  1  0
  3  2  1  0
  2  4  2  0
  3  5  1  1
  6  3  1  0
  7  5  1  0
  8  6  1  0
  9  7  1  0
 10  7  2  0
  8 11  2  0
A    2
 C31
A    3
 C23
A    4
 O35
A    5
 C25
A    6
 N21
A    7
 C14
A   10
 O1 
A   11
 O19
M  END
>  <XChem_code>  (234) 
G83§1

>  <Occupancy>  (234) 
[1.0, 1.0, 1.0, 1.0, 1.0, 1.0, 1.0, 1.0, 1.0, 1.0, 1.0, 1.0, 1.0, 1.0, 1.0, 1.0, 1.0, 1.0, 1.0, 1.0, 1.0, 1.0, 1.0, 1.0, 1.0, 1.0, 1.0, 1.0, 1.0, 1.0, 1.0, 1.0, 1.0, 1.0, 1.0, 1.0, 1.0, 1.0, 1.0, 1.0, 1.0, 1.0, 1.0, 1.0, 1.0, 1.0, 1.0, 1.0, 1.0, 1.0]

>  <TempFactor>  (234) 
[21.5, 44.89, 24.36, 42.16, 38.25, 23.95, 40.64, 20.41, 29.29, 22.5, 27.31, 23.15, 28.56, 41.84, 29.6, 38.53, 33.37, 31.58, 30.86, 27.88, 28.97, 31.52, 43.05, 27.66, 27.42, 21.95, 25.67, 24.02, 25.01, 43.36, 43.87, 19.31, 17.05, 26.62, 26.73, 28.95, 20.4, 17.34, 20.74, 21.57, 21.69, 20.06, 20.47, 18.67, 21.64, 27.5, 29.51, 35.17, 31.37, 18.86]

>  <accession>  (234) 
3ZZC_A

>  <description>  (234) 
Chain A, 3C PROTEINASE [Coxsackievirus B3]

>  <evalue>  (234) 
7.4865399999999999e-87

>  <pdb_code>  (234) 
3ZZC

>  <chain>  (234) 
A

>  <ligands>  (234) 
[{'chain_id': 'A', 'author_residue_number': 1181, 'author_insertion_code': '', 'chem_comp_id': 'G83', 'alternate_conformers': 0, 'entity_id': 2, 'struct_asym_id': 'B', 'residue_number': 1, 'chem_comp_name': 'ETHYL (5S,8S,11R)-8-BENZYL-5-(2-TERT-BUTOXY-2-OXOETHYL)-3,6,9-TRIOXO-11-{[(3S)-2-OXOPYRROLIDIN-3-YL]METHYL}-1-PHENYL-2-OXA-4,7,10-TRIAZATETRADECAN-14-OATE', 'weight': 680.788, 'carbohydrate_polymer': False, 'branch_name': ''}]

>  <ligand_codes>  (234) 
['G83']

>  <cofactor_codes>  (234) 
[]

>  <has_cofactor>  (234) 
False

>  <covalent>  (234) 
True

>  <base_name>  (234) 
3ZZC

>  <lig_resn>  (234) 
G83

>  <lig_resi>  (234) 
1181

>  <lig_chain>  (234) 
A

>  <lig_segi>  (234) 
B

>  <lig_alt>  (234) 


>  <polymer_chain>  (234) 
A

>  <single_smiles>  (234) 
CCOC(=O)CC[C@H](C[C@@H]1CCNC1=O)NC(=O)[C@H](Cc2ccccc2)NC(=O)[C@H](CC(=O)OC(C)(C)C)NC(=O)OCc3ccccc3

$$$$
G83P1S76
     RDKit          3D

 22 22  0  0  0  0  0  0  0  0999 V2000
   -8.7450   10.9170  -34.2200 N   0  0  0  0  0  0  0  0  0  0  0  0
   -8.4620   12.0930  -34.7840 C   0  0  0  0  0  0  0  0  0  0  0  0
   -9.6510   12.9770  -35.0820 C   0  0  1  0  0  0  0  0  0  0  0  0
   -7.3180   12.4750  -35.0590 O   0  0  0  0  0  0  0  0  0  0  0  0
   -9.2610   14.3500  -34.7310 N   0  0  0  0  0  0  0  0  0  0  0  0
   -9.8940   12.8970  -36.5940 C   0  0  0  0  0  0  0  0  0  0  0  0
   -9.0700   14.7310  -33.4520 C   0  0  0  0  0  0  0  0  0  0  0  0
  -11.1210   13.7000  -36.9770 C   0  0  0  0  0  0  0  0  0  0  0  0
   -8.5890   16.1350  -33.2460 C   0  0  2  0  0  0  0  0  0  0  0  0
   -9.1660   13.9920  -32.4630 O   0  0  0  0  0  0  0  0  0  0  0  0
  -12.3400   13.5180  -36.3250 C   0  0  0  0  0  0  0  0  0  0  0  0
  -11.0320   14.6580  -38.0030 C   0  0  0  0  0  0  0  0  0  0  0  0
   -7.0940   15.9700  -33.0860 C   0  0  0  0  0  0  0  0  0  0  0  0
   -8.9270   16.6710  -31.9560 N   0  0  0  0  0  0  0  0  0  0  0  0
  -13.4670   14.3010  -36.6620 C   0  0  0  0  0  0  0  0  0  0  0  0
  -12.1840   15.4150  -38.3560 C   0  0  0  0  0  0  0  0  0  0  0  0
   -6.3360   17.1850  -33.4620 C   0  0  0  0  0  0  0  0  0  0  0  0
   -9.6140   17.8180  -31.9050 C   0  0  0  0  0  0  0  0  0  0  0  0
  -13.4100   15.2640  -37.6860 C   0  0  0  0  0  0  0  0  0  0  0  0
   -5.3760   17.6500  -32.4930 O   0  0  0  0  0  0  0  0  0  0  0  0
   -6.4670   17.7660  -34.5460 O   0  0  0  0  0  0  0  0  0  0  0  0
   -9.9760   18.4340  -32.9180 O   0  0  0  0  0  0  0  0  0  0  0  0
  2  1  1  0
  3  2  1  0
  2  4  2  0
  5  3  1  0
  3  6  1  6
  7  5  1  0
  6  8  1  0
  9  7  1  0
  7 10  2  0
  8 11  2  0
  8 12  1  0
  9 13  1  1
 14  9  1  0
 15 11  1  0
 16 12  2  0
 17 13  1  0
 18 14  1  0
 15 19  2  0
 19 16  1  0
 20 17  1  0
 21 17  2  0
 18 22  2  0
A    2
 C39
A    3
 C37
A    4
 O47
A    5
 N33
A    6
 C41
A    7
 C31
A    8
 C51
A    9
 C23
A   10
 O35
A   11
 C53
A   12
 C55
A   13
 C25
A   14
 N21
A   15
 C7 
A   16
 C11
A   17
 C14
A   19
 C9 
A   21
 O1 
A   22
 O19
M  END
>  <XChem_code>  (235) 
G83§1

>  <Occupancy>  (235) 
[1.0, 1.0, 1.0, 1.0, 1.0, 1.0, 1.0, 1.0, 1.0, 1.0, 1.0, 1.0, 1.0, 1.0, 1.0, 1.0, 1.0, 1.0, 1.0, 1.0, 1.0, 1.0, 1.0, 1.0, 1.0, 1.0, 1.0, 1.0, 1.0, 1.0, 1.0, 1.0, 1.0, 1.0, 1.0, 1.0, 1.0, 1.0, 1.0, 1.0, 1.0, 1.0, 1.0, 1.0, 1.0, 1.0, 1.0, 1.0, 1.0, 1.0]

>  <TempFactor>  (235) 
[21.5, 44.89, 24.36, 42.16, 38.25, 23.95, 40.64, 20.41, 29.29, 22.5, 27.31, 23.15, 28.56, 41.84, 29.6, 38.53, 33.37, 31.58, 30.86, 27.88, 28.97, 31.52, 43.05, 27.66, 27.42, 21.95, 25.67, 24.02, 25.01, 43.36, 43.87, 19.31, 17.05, 26.62, 26.73, 28.95, 20.4, 17.34, 20.74, 21.57, 21.69, 20.06, 20.47, 18.67, 21.64, 27.5, 29.51, 35.17, 31.37, 18.86]

>  <accession>  (235) 
3ZZC_A

>  <description>  (235) 
Chain A, 3C PROTEINASE [Coxsackievirus B3]

>  <evalue>  (235) 
7.4865399999999999e-87

>  <pdb_code>  (235) 
3ZZC

>  <chain>  (235) 
A

>  <ligands>  (235) 
[{'chain_id': 'A', 'author_residue_number': 1181, 'author_insertion_code': '', 'chem_comp_id': 'G83', 'alternate_conformers': 0, 'entity_id': 2, 'struct_asym_id': 'B', 'residue_number': 1, 'chem_comp_name': 'ETHYL (5S,8S,11R)-8-BENZYL-5-(2-TERT-BUTOXY-2-OXOETHYL)-3,6,9-TRIOXO-11-{[(3S)-2-OXOPYRROLIDIN-3-YL]METHYL}-1-PHENYL-2-OXA-4,7,10-TRIAZATETRADECAN-14-OATE', 'weight': 680.788, 'carbohydrate_polymer': False, 'branch_name': ''}]

>  <ligand_codes>  (235) 
['G83']

>  <cofactor_codes>  (235) 
[]

>  <has_cofactor>  (235) 
False

>  <covalent>  (235) 
True

>  <base_name>  (235) 
3ZZC

>  <lig_resn>  (235) 
G83

>  <lig_resi>  (235) 
1181

>  <lig_chain>  (235) 
A

>  <lig_segi>  (235) 
B

>  <lig_alt>  (235) 


>  <polymer_chain>  (235) 
A

>  <single_smiles>  (235) 
CCOC(=O)CC[C@H](C[C@@H]1CCNC1=O)NC(=O)[C@H](Cc2ccccc2)NC(=O)[C@H](CC(=O)OC(C)(C)C)NC(=O)OCc3ccccc3

$$$$
G83P1S77
     RDKit          3D

  9  8  0  0  0  0  0  0  0  0999 V2000
   -9.2610   14.3500  -34.7310 N   0  0  0  0  0  0  0  0  0  0  0  0
   -9.0700   14.7310  -33.4520 C   0  0  0  0  0  0  0  0  0  0  0  0
   -8.5890   16.1350  -33.2460 C   0  0  2  0  0  0  0  0  0  0  0  0
   -9.1660   13.9920  -32.4630 O   0  0  0  0  0  0  0  0  0  0  0  0
   -7.0940   15.9700  -33.0860 C   0  0  0  0  0  0  0  0  0  0  0  0
   -8.9270   16.6710  -31.9560 N   0  0  0  0  0  0  0  0  0  0  0  0
   -6.3360   17.1850  -33.4620 C   0  0  0  0  0  0  0  0  0  0  0  0
   -5.3760   17.6500  -32.4930 O   0  0  0  0  0  0  0  0  0  0  0  0
   -6.4670   17.7660  -34.5460 O   0  0  0  0  0  0  0  0  0  0  0  0
  2  1  1  0
  3  2  1  0
  2  4  2  0
  3  5  1  0
  3  6  1  1
  7  5  1  0
  8  7  1  0
  9  7  2  0
A    2
 C31
A    3
 C23
A    4
 O35
A    5
 C25
A    7
 C14
A    9
 O1 
M  END
>  <XChem_code>  (236) 
G83§1

>  <Occupancy>  (236) 
[1.0, 1.0, 1.0, 1.0, 1.0, 1.0, 1.0, 1.0, 1.0, 1.0, 1.0, 1.0, 1.0, 1.0, 1.0, 1.0, 1.0, 1.0, 1.0, 1.0, 1.0, 1.0, 1.0, 1.0, 1.0, 1.0, 1.0, 1.0, 1.0, 1.0, 1.0, 1.0, 1.0, 1.0, 1.0, 1.0, 1.0, 1.0, 1.0, 1.0, 1.0, 1.0, 1.0, 1.0, 1.0, 1.0, 1.0, 1.0, 1.0, 1.0]

>  <TempFactor>  (236) 
[21.5, 44.89, 24.36, 42.16, 38.25, 23.95, 40.64, 20.41, 29.29, 22.5, 27.31, 23.15, 28.56, 41.84, 29.6, 38.53, 33.37, 31.58, 30.86, 27.88, 28.97, 31.52, 43.05, 27.66, 27.42, 21.95, 25.67, 24.02, 25.01, 43.36, 43.87, 19.31, 17.05, 26.62, 26.73, 28.95, 20.4, 17.34, 20.74, 21.57, 21.69, 20.06, 20.47, 18.67, 21.64, 27.5, 29.51, 35.17, 31.37, 18.86]

>  <accession>  (236) 
3ZZC_A

>  <description>  (236) 
Chain A, 3C PROTEINASE [Coxsackievirus B3]

>  <evalue>  (236) 
7.4865399999999999e-87

>  <pdb_code>  (236) 
3ZZC

>  <chain>  (236) 
A

>  <ligands>  (236) 
[{'chain_id': 'A', 'author_residue_number': 1181, 'author_insertion_code': '', 'chem_comp_id': 'G83', 'alternate_conformers': 0, 'entity_id': 2, 'struct_asym_id': 'B', 'residue_number': 1, 'chem_comp_name': 'ETHYL (5S,8S,11R)-8-BENZYL-5-(2-TERT-BUTOXY-2-OXOETHYL)-3,6,9-TRIOXO-11-{[(3S)-2-OXOPYRROLIDIN-3-YL]METHYL}-1-PHENYL-2-OXA-4,7,10-TRIAZATETRADECAN-14-OATE', 'weight': 680.788, 'carbohydrate_polymer': False, 'branch_name': ''}]

>  <ligand_codes>  (236) 
['G83']

>  <cofactor_codes>  (236) 
[]

>  <has_cofactor>  (236) 
False

>  <covalent>  (236) 
True

>  <base_name>  (236) 
3ZZC

>  <lig_resn>  (236) 
G83

>  <lig_resi>  (236) 
1181

>  <lig_chain>  (236) 
A

>  <lig_segi>  (236) 
B

>  <lig_alt>  (236) 


>  <polymer_chain>  (236) 
A

>  <single_smiles>  (236) 
CCOC(=O)CC[C@H](C[C@@H]1CCNC1=O)NC(=O)[C@H](Cc2ccccc2)NC(=O)[C@H](CC(=O)OC(C)(C)C)NC(=O)OCc3ccccc3

$$$$
G83P1S78
     RDKit          3D

 20 20  0  0  0  0  0  0  0  0999 V2000
   -8.7450   10.9170  -34.2200 N   0  0  0  0  0  0  0  0  0  0  0  0
   -8.4620   12.0930  -34.7840 C   0  0  0  0  0  0  0  0  0  0  0  0
   -9.6510   12.9770  -35.0820 C   0  0  1  0  0  0  0  0  0  0  0  0
   -7.3180   12.4750  -35.0590 O   0  0  0  0  0  0  0  0  0  0  0  0
   -9.2610   14.3500  -34.7310 N   0  0  0  0  0  0  0  0  0  0  0  0
   -9.8940   12.8970  -36.5940 C   0  0  0  0  0  0  0  0  0  0  0  0
   -9.0700   14.7310  -33.4520 C   0  0  0  0  0  0  0  0  0  0  0  0
  -11.1210   13.7000  -36.9770 C   0  0  0  0  0  0  0  0  0  0  0  0
   -8.5890   16.1350  -33.2460 C   0  0  2  0  0  0  0  0  0  0  0  0
   -9.1660   13.9920  -32.4630 O   0  0  0  0  0  0  0  0  0  0  0  0
  -12.3400   13.5180  -36.3250 C   0  0  0  0  0  0  0  0  0  0  0  0
  -11.0320   14.6580  -38.0030 C   0  0  0  0  0  0  0  0  0  0  0  0
   -7.0940   15.9700  -33.0860 C   0  0  0  0  0  0  0  0  0  0  0  0
   -8.9270   16.6710  -31.9560 N   0  0  0  0  0  0  0  0  0  0  0  0
  -13.4670   14.3010  -36.6620 C   0  0  0  0  0  0  0  0  0  0  0  0
  -12.1840   15.4150  -38.3560 C   0  0  0  0  0  0  0  0  0  0  0  0
   -6.3360   17.1850  -33.4620 C   0  0  0  0  0  0  0  0  0  0  0  0
  -13.4100   15.2640  -37.6860 C   0  0  0  0  0  0  0  0  0  0  0  0
   -5.3760   17.6500  -32.4930 O   0  0  0  0  0  0  0  0  0  0  0  0
   -6.4670   17.7660  -34.5460 O   0  0  0  0  0  0  0  0  0  0  0  0
  2  1  1  0
  3  2  1  0
  2  4  2  0
  5  3  1  0
  3  6  1  6
  7  5  1  0
  6  8  1  0
  9  7  1  0
  7 10  2  0
  8 11  2  0
  8 12  1  0
  9 13  1  0
  9 14  1  1
 15 11  1  0
 16 12  2  0
 17 13  1  0
 15 18  2  0
 18 16  1  0
 19 17  1  0
 20 17  2  0
A    2
 C39
A    3
 C37
A    4
 O47
A    5
 N33
A    6
 C41
A    7
 C31
A    8
 C51
A    9
 C23
A   10
 O35
A   11
 C53
A   12
 C55
A   13
 C25
A   15
 C7 
A   16
 C11
A   17
 C14
A   18
 C9 
A   20
 O1 
M  END
>  <XChem_code>  (237) 
G83§1

>  <Occupancy>  (237) 
[1.0, 1.0, 1.0, 1.0, 1.0, 1.0, 1.0, 1.0, 1.0, 1.0, 1.0, 1.0, 1.0, 1.0, 1.0, 1.0, 1.0, 1.0, 1.0, 1.0, 1.0, 1.0, 1.0, 1.0, 1.0, 1.0, 1.0, 1.0, 1.0, 1.0, 1.0, 1.0, 1.0, 1.0, 1.0, 1.0, 1.0, 1.0, 1.0, 1.0, 1.0, 1.0, 1.0, 1.0, 1.0, 1.0, 1.0, 1.0, 1.0, 1.0]

>  <TempFactor>  (237) 
[21.5, 44.89, 24.36, 42.16, 38.25, 23.95, 40.64, 20.41, 29.29, 22.5, 27.31, 23.15, 28.56, 41.84, 29.6, 38.53, 33.37, 31.58, 30.86, 27.88, 28.97, 31.52, 43.05, 27.66, 27.42, 21.95, 25.67, 24.02, 25.01, 43.36, 43.87, 19.31, 17.05, 26.62, 26.73, 28.95, 20.4, 17.34, 20.74, 21.57, 21.69, 20.06, 20.47, 18.67, 21.64, 27.5, 29.51, 35.17, 31.37, 18.86]

>  <accession>  (237) 
3ZZC_A

>  <description>  (237) 
Chain A, 3C PROTEINASE [Coxsackievirus B3]

>  <evalue>  (237) 
7.4865399999999999e-87

>  <pdb_code>  (237) 
3ZZC

>  <chain>  (237) 
A

>  <ligands>  (237) 
[{'chain_id': 'A', 'author_residue_number': 1181, 'author_insertion_code': '', 'chem_comp_id': 'G83', 'alternate_conformers': 0, 'entity_id': 2, 'struct_asym_id': 'B', 'residue_number': 1, 'chem_comp_name': 'ETHYL (5S,8S,11R)-8-BENZYL-5-(2-TERT-BUTOXY-2-OXOETHYL)-3,6,9-TRIOXO-11-{[(3S)-2-OXOPYRROLIDIN-3-YL]METHYL}-1-PHENYL-2-OXA-4,7,10-TRIAZATETRADECAN-14-OATE', 'weight': 680.788, 'carbohydrate_polymer': False, 'branch_name': ''}]

>  <ligand_codes>  (237) 
['G83']

>  <cofactor_codes>  (237) 
[]

>  <has_cofactor>  (237) 
False

>  <covalent>  (237) 
True

>  <base_name>  (237) 
3ZZC

>  <lig_resn>  (237) 
G83

>  <lig_resi>  (237) 
1181

>  <lig_chain>  (237) 
A

>  <lig_segi>  (237) 
B

>  <lig_alt>  (237) 


>  <polymer_chain>  (237) 
A

>  <single_smiles>  (237) 
CCOC(=O)CC[C@H](C[C@@H]1CCNC1=O)NC(=O)[C@H](Cc2ccccc2)NC(=O)[C@H](CC(=O)OC(C)(C)C)NC(=O)OCc3ccccc3

$$$$
G83P1S79
     RDKit          3D

  7  6  0  0  0  0  0  0  0  0999 V2000
   -8.5890   16.1350  -33.2460 C   0  0  0  0  0  0  0  0  0  0  0  0
   -7.0940   15.9700  -33.0860 C   0  0  0  0  0  0  0  0  0  0  0  0
   -9.0700   14.7310  -33.4520 C   0  0  0  0  0  0  0  0  0  0  0  0
   -6.3360   17.1850  -33.4620 C   0  0  0  0  0  0  0  0  0  0  0  0
   -9.1660   13.9920  -32.4630 O   0  0  0  0  0  0  0  0  0  0  0  0
   -5.3760   17.6500  -32.4930 O   0  0  0  0  0  0  0  0  0  0  0  0
   -6.4670   17.7660  -34.5460 O   0  0  0  0  0  0  0  0  0  0  0  0
  1  2  1  6
  1  3  1  0
  4  2  1  0
  3  5  2  0
  6  4  1  0
  7  4  2  0
A    2
 C25
A    4
 C14
A    5
 O35
A    7
 O1 
M  END
>  <XChem_code>  (238) 
G83§1

>  <Occupancy>  (238) 
[1.0, 1.0, 1.0, 1.0, 1.0, 1.0, 1.0, 1.0, 1.0, 1.0, 1.0, 1.0, 1.0, 1.0, 1.0, 1.0, 1.0, 1.0, 1.0, 1.0, 1.0, 1.0, 1.0, 1.0, 1.0, 1.0, 1.0, 1.0, 1.0, 1.0, 1.0, 1.0, 1.0, 1.0, 1.0, 1.0, 1.0, 1.0, 1.0, 1.0, 1.0, 1.0, 1.0, 1.0, 1.0, 1.0, 1.0, 1.0, 1.0, 1.0]

>  <TempFactor>  (238) 
[21.5, 44.89, 24.36, 42.16, 38.25, 23.95, 40.64, 20.41, 29.29, 22.5, 27.31, 23.15, 28.56, 41.84, 29.6, 38.53, 33.37, 31.58, 30.86, 27.88, 28.97, 31.52, 43.05, 27.66, 27.42, 21.95, 25.67, 24.02, 25.01, 43.36, 43.87, 19.31, 17.05, 26.62, 26.73, 28.95, 20.4, 17.34, 20.74, 21.57, 21.69, 20.06, 20.47, 18.67, 21.64, 27.5, 29.51, 35.17, 31.37, 18.86]

>  <accession>  (238) 
3ZZC_A

>  <description>  (238) 
Chain A, 3C PROTEINASE [Coxsackievirus B3]

>  <evalue>  (238) 
7.4865399999999999e-87

>  <pdb_code>  (238) 
3ZZC

>  <chain>  (238) 
A

>  <ligands>  (238) 
[{'chain_id': 'A', 'author_residue_number': 1181, 'author_insertion_code': '', 'chem_comp_id': 'G83', 'alternate_conformers': 0, 'entity_id': 2, 'struct_asym_id': 'B', 'residue_number': 1, 'chem_comp_name': 'ETHYL (5S,8S,11R)-8-BENZYL-5-(2-TERT-BUTOXY-2-OXOETHYL)-3,6,9-TRIOXO-11-{[(3S)-2-OXOPYRROLIDIN-3-YL]METHYL}-1-PHENYL-2-OXA-4,7,10-TRIAZATETRADECAN-14-OATE', 'weight': 680.788, 'carbohydrate_polymer': False, 'branch_name': ''}]

>  <ligand_codes>  (238) 
['G83']

>  <cofactor_codes>  (238) 
[]

>  <has_cofactor>  (238) 
False

>  <covalent>  (238) 
True

>  <base_name>  (238) 
3ZZC

>  <lig_resn>  (238) 
G83

>  <lig_resi>  (238) 
1181

>  <lig_chain>  (238) 
A

>  <lig_segi>  (238) 
B

>  <lig_alt>  (238) 


>  <polymer_chain>  (238) 
A

>  <single_smiles>  (238) 
CCOC(=O)CC[C@H](C[C@@H]1CCNC1=O)NC(=O)[C@H](Cc2ccccc2)NC(=O)[C@H](CC(=O)OC(C)(C)C)NC(=O)OCc3ccccc3

$$$$
G83P1S80
     RDKit          3D

 18 18  0  0  0  0  0  0  0  0999 V2000
   -8.5890   16.1350  -33.2460 C   0  0  0  0  0  0  0  0  0  0  0  0
   -7.0940   15.9700  -33.0860 C   0  0  0  0  0  0  0  0  0  0  0  0
   -9.0700   14.7310  -33.4520 C   0  0  0  0  0  0  0  0  0  0  0  0
   -6.3360   17.1850  -33.4620 C   0  0  0  0  0  0  0  0  0  0  0  0
   -9.2610   14.3500  -34.7310 N   0  0  0  0  0  0  0  0  0  0  0  0
   -9.1660   13.9920  -32.4630 O   0  0  0  0  0  0  0  0  0  0  0  0
   -5.3760   17.6500  -32.4930 O   0  0  0  0  0  0  0  0  0  0  0  0
   -6.4670   17.7660  -34.5460 O   0  0  0  0  0  0  0  0  0  0  0  0
   -9.6510   12.9770  -35.0820 C   0  0  2  0  0  0  0  0  0  0  0  0
   -8.4620   12.0930  -34.7840 C   0  0  0  0  0  0  0  0  0  0  0  0
   -9.8940   12.8970  -36.5940 C   0  0  0  0  0  0  0  0  0  0  0  0
   -7.3180   12.4750  -35.0590 O   0  0  0  0  0  0  0  0  0  0  0  0
  -11.1210   13.7000  -36.9770 C   0  0  0  0  0  0  0  0  0  0  0  0
  -12.3400   13.5180  -36.3250 C   0  0  0  0  0  0  0  0  0  0  0  0
  -11.0320   14.6580  -38.0030 C   0  0  0  0  0  0  0  0  0  0  0  0
  -13.4670   14.3010  -36.6620 C   0  0  0  0  0  0  0  0  0  0  0  0
  -12.1840   15.4150  -38.3560 C   0  0  0  0  0  0  0  0  0  0  0  0
  -13.4100   15.2640  -37.6860 C   0  0  0  0  0  0  0  0  0  0  0  0
  1  2  1  6
  1  3  1  0
  4  2  1  0
  3  5  1  0
  3  6  2  0
  7  4  1  0
  8  4  2  0
  5  9  1  0
  9 10  1  0
  9 11  1  6
 10 12  2  0
 11 13  1  0
 13 14  2  0
 13 15  1  0
 16 14  1  0
 17 15  2  0
 16 18  2  0
 18 17  1  0
A    2
 C25
A    3
 C31
A    4
 C14
A    5
 N33
A    6
 O35
A    8
 O1 
A    9
 C37
A   11
 C41
A   12
 O47
A   13
 C51
A   14
 C53
A   15
 C55
A   16
 C7 
A   17
 C11
A   18
 C9 
M  END
>  <XChem_code>  (239) 
G83§1

>  <Occupancy>  (239) 
[1.0, 1.0, 1.0, 1.0, 1.0, 1.0, 1.0, 1.0, 1.0, 1.0, 1.0, 1.0, 1.0, 1.0, 1.0, 1.0, 1.0, 1.0, 1.0, 1.0, 1.0, 1.0, 1.0, 1.0, 1.0, 1.0, 1.0, 1.0, 1.0, 1.0, 1.0, 1.0, 1.0, 1.0, 1.0, 1.0, 1.0, 1.0, 1.0, 1.0, 1.0, 1.0, 1.0, 1.0, 1.0, 1.0, 1.0, 1.0, 1.0, 1.0]

>  <TempFactor>  (239) 
[21.5, 44.89, 24.36, 42.16, 38.25, 23.95, 40.64, 20.41, 29.29, 22.5, 27.31, 23.15, 28.56, 41.84, 29.6, 38.53, 33.37, 31.58, 30.86, 27.88, 28.97, 31.52, 43.05, 27.66, 27.42, 21.95, 25.67, 24.02, 25.01, 43.36, 43.87, 19.31, 17.05, 26.62, 26.73, 28.95, 20.4, 17.34, 20.74, 21.57, 21.69, 20.06, 20.47, 18.67, 21.64, 27.5, 29.51, 35.17, 31.37, 18.86]

>  <accession>  (239) 
3ZZC_A

>  <description>  (239) 
Chain A, 3C PROTEINASE [Coxsackievirus B3]

>  <evalue>  (239) 
7.4865399999999999e-87

>  <pdb_code>  (239) 
3ZZC

>  <chain>  (239) 
A

>  <ligands>  (239) 
[{'chain_id': 'A', 'author_residue_number': 1181, 'author_insertion_code': '', 'chem_comp_id': 'G83', 'alternate_conformers': 0, 'entity_id': 2, 'struct_asym_id': 'B', 'residue_number': 1, 'chem_comp_name': 'ETHYL (5S,8S,11R)-8-BENZYL-5-(2-TERT-BUTOXY-2-OXOETHYL)-3,6,9-TRIOXO-11-{[(3S)-2-OXOPYRROLIDIN-3-YL]METHYL}-1-PHENYL-2-OXA-4,7,10-TRIAZATETRADECAN-14-OATE', 'weight': 680.788, 'carbohydrate_polymer': False, 'branch_name': ''}]

>  <ligand_codes>  (239) 
['G83']

>  <cofactor_codes>  (239) 
[]

>  <has_cofactor>  (239) 
False

>  <covalent>  (239) 
True

>  <base_name>  (239) 
3ZZC

>  <lig_resn>  (239) 
G83

>  <lig_resi>  (239) 
1181

>  <lig_chain>  (239) 
A

>  <lig_segi>  (239) 
B

>  <lig_alt>  (239) 


>  <polymer_chain>  (239) 
A

>  <single_smiles>  (239) 
CCOC(=O)CC[C@H](C[C@@H]1CCNC1=O)NC(=O)[C@H](Cc2ccccc2)NC(=O)[C@H](CC(=O)OC(C)(C)C)NC(=O)OCc3ccccc3

$$$$
G83P1S81
     RDKit          3D

 12 11  0  0  0  0  0  0  0  0999 V2000
   -9.2610   14.3500  -34.7310 N   0  0  0  0  0  0  0  0  0  0  0  0
   -9.0700   14.7310  -33.4520 C   0  0  0  0  0  0  0  0  0  0  0  0
   -8.5890   16.1350  -33.2460 C   0  0  1  0  0  0  0  0  0  0  0  0
   -9.1660   13.9920  -32.4630 O   0  0  0  0  0  0  0  0  0  0  0  0
   -8.9270   16.6710  -31.9560 N   0  0  0  0  0  0  0  0  0  0  0  0
   -7.0940   15.9700  -33.0860 C   0  0  0  0  0  0  0  0  0  0  0  0
   -9.6140   17.8180  -31.9050 C   0  0  0  0  0  0  0  0  0  0  0  0
   -6.3360   17.1850  -33.4620 C   0  0  0  0  0  0  0  0  0  0  0  0
   -9.9650   18.3270  -30.5810 O   0  0  0  0  0  0  0  0  0  0  0  0
   -9.9760   18.4340  -32.9180 O   0  0  0  0  0  0  0  0  0  0  0  0
   -5.3760   17.6500  -32.4930 O   0  0  0  0  0  0  0  0  0  0  0  0
   -6.4670   17.7660  -34.5460 O   0  0  0  0  0  0  0  0  0  0  0  0
  2  1  1  0
  3  2  1  0
  2  4  2  0
  5  3  1  0
  3  6  1  1
  7  5  1  0
  8  6  1  0
  9  7  1  0
  7 10  2  0
 11  8  1  0
 12  8  2  0
A    2
 C31
A    3
 C23
A    4
 O35
A    5
 N21
A    6
 C25
A    7
 C17
A    8
 C14
A   10
 O19
A   12
 O1 
M  END
>  <XChem_code>  (240) 
G83§1

>  <Occupancy>  (240) 
[1.0, 1.0, 1.0, 1.0, 1.0, 1.0, 1.0, 1.0, 1.0, 1.0, 1.0, 1.0, 1.0, 1.0, 1.0, 1.0, 1.0, 1.0, 1.0, 1.0, 1.0, 1.0, 1.0, 1.0, 1.0, 1.0, 1.0, 1.0, 1.0, 1.0, 1.0, 1.0, 1.0, 1.0, 1.0, 1.0, 1.0, 1.0, 1.0, 1.0, 1.0, 1.0, 1.0, 1.0, 1.0, 1.0, 1.0, 1.0, 1.0, 1.0]

>  <TempFactor>  (240) 
[21.5, 44.89, 24.36, 42.16, 38.25, 23.95, 40.64, 20.41, 29.29, 22.5, 27.31, 23.15, 28.56, 41.84, 29.6, 38.53, 33.37, 31.58, 30.86, 27.88, 28.97, 31.52, 43.05, 27.66, 27.42, 21.95, 25.67, 24.02, 25.01, 43.36, 43.87, 19.31, 17.05, 26.62, 26.73, 28.95, 20.4, 17.34, 20.74, 21.57, 21.69, 20.06, 20.47, 18.67, 21.64, 27.5, 29.51, 35.17, 31.37, 18.86]

>  <accession>  (240) 
3ZZC_A

>  <description>  (240) 
Chain A, 3C PROTEINASE [Coxsackievirus B3]

>  <evalue>  (240) 
7.4865399999999999e-87

>  <pdb_code>  (240) 
3ZZC

>  <chain>  (240) 
A

>  <ligands>  (240) 
[{'chain_id': 'A', 'author_residue_number': 1181, 'author_insertion_code': '', 'chem_comp_id': 'G83', 'alternate_conformers': 0, 'entity_id': 2, 'struct_asym_id': 'B', 'residue_number': 1, 'chem_comp_name': 'ETHYL (5S,8S,11R)-8-BENZYL-5-(2-TERT-BUTOXY-2-OXOETHYL)-3,6,9-TRIOXO-11-{[(3S)-2-OXOPYRROLIDIN-3-YL]METHYL}-1-PHENYL-2-OXA-4,7,10-TRIAZATETRADECAN-14-OATE', 'weight': 680.788, 'carbohydrate_polymer': False, 'branch_name': ''}]

>  <ligand_codes>  (240) 
['G83']

>  <cofactor_codes>  (240) 
[]

>  <has_cofactor>  (240) 
False

>  <covalent>  (240) 
True

>  <base_name>  (240) 
3ZZC

>  <lig_resn>  (240) 
G83

>  <lig_resi>  (240) 
1181

>  <lig_chain>  (240) 
A

>  <lig_segi>  (240) 
B

>  <lig_alt>  (240) 


>  <polymer_chain>  (240) 
A

>  <single_smiles>  (240) 
CCOC(=O)CC[C@H](C[C@@H]1CCNC1=O)NC(=O)[C@H](Cc2ccccc2)NC(=O)[C@H](CC(=O)OC(C)(C)C)NC(=O)OCc3ccccc3

$$$$
G83P1S82
     RDKit          3D

 23 23  0  0  0  0  0  0  0  0999 V2000
   -8.7450   10.9170  -34.2200 N   0  0  0  0  0  0  0  0  0  0  0  0
   -8.4620   12.0930  -34.7840 C   0  0  0  0  0  0  0  0  0  0  0  0
   -9.6510   12.9770  -35.0820 C   0  0  1  0  0  0  0  0  0  0  0  0
   -7.3180   12.4750  -35.0590 O   0  0  0  0  0  0  0  0  0  0  0  0
   -9.2610   14.3500  -34.7310 N   0  0  0  0  0  0  0  0  0  0  0  0
   -9.8940   12.8970  -36.5940 C   0  0  0  0  0  0  0  0  0  0  0  0
   -9.0700   14.7310  -33.4520 C   0  0  0  0  0  0  0  0  0  0  0  0
  -11.1210   13.7000  -36.9770 C   0  0  0  0  0  0  0  0  0  0  0  0
   -8.5890   16.1350  -33.2460 C   0  0  1  0  0  0  0  0  0  0  0  0
   -9.1660   13.9920  -32.4630 O   0  0  0  0  0  0  0  0  0  0  0  0
  -12.3400   13.5180  -36.3250 C   0  0  0  0  0  0  0  0  0  0  0  0
  -11.0320   14.6580  -38.0030 C   0  0  0  0  0  0  0  0  0  0  0  0
   -8.9270   16.6710  -31.9560 N   0  0  0  0  0  0  0  0  0  0  0  0
   -7.0940   15.9700  -33.0860 C   0  0  0  0  0  0  0  0  0  0  0  0
  -13.4670   14.3010  -36.6620 C   0  0  0  0  0  0  0  0  0  0  0  0
  -12.1840   15.4150  -38.3560 C   0  0  0  0  0  0  0  0  0  0  0  0
   -9.6140   17.8180  -31.9050 C   0  0  0  0  0  0  0  0  0  0  0  0
   -6.3360   17.1850  -33.4620 C   0  0  0  0  0  0  0  0  0  0  0  0
  -13.4100   15.2640  -37.6860 C   0  0  0  0  0  0  0  0  0  0  0  0
   -9.9650   18.3270  -30.5810 O   0  0  0  0  0  0  0  0  0  0  0  0
   -9.9760   18.4340  -32.9180 O   0  0  0  0  0  0  0  0  0  0  0  0
   -5.3760   17.6500  -32.4930 O   0  0  0  0  0  0  0  0  0  0  0  0
   -6.4670   17.7660  -34.5460 O   0  0  0  0  0  0  0  0  0  0  0  0
  2  1  1  0
  3  2  1  0
  2  4  2  0
  5  3  1  0
  3  6  1  6
  7  5  1  0
  6  8  1  0
  9  7  1  0
  7 10  2  0
  8 11  2  0
  8 12  1  0
 13  9  1  0
  9 14  1  1
 15 11  1  0
 16 12  2  0
 17 13  1  0
 18 14  1  0
 15 19  2  0
 19 16  1  0
 20 17  1  0
 17 21  2  0
 22 18  1  0
 23 18  2  0
A    2
 C39
A    3
 C37
A    4
 O47
A    5
 N33
A    6
 C41
A    7
 C31
A    8
 C51
A    9
 C23
A   10
 O35
A   11
 C53
A   12
 C55
A   13
 N21
A   14
 C25
A   15
 C7 
A   16
 C11
A   17
 C17
A   18
 C14
A   19
 C9 
A   21
 O19
A   23
 O1 
M  END
>  <XChem_code>  (241) 
G83§1

>  <Occupancy>  (241) 
[1.0, 1.0, 1.0, 1.0, 1.0, 1.0, 1.0, 1.0, 1.0, 1.0, 1.0, 1.0, 1.0, 1.0, 1.0, 1.0, 1.0, 1.0, 1.0, 1.0, 1.0, 1.0, 1.0, 1.0, 1.0, 1.0, 1.0, 1.0, 1.0, 1.0, 1.0, 1.0, 1.0, 1.0, 1.0, 1.0, 1.0, 1.0, 1.0, 1.0, 1.0, 1.0, 1.0, 1.0, 1.0, 1.0, 1.0, 1.0, 1.0, 1.0]

>  <TempFactor>  (241) 
[21.5, 44.89, 24.36, 42.16, 38.25, 23.95, 40.64, 20.41, 29.29, 22.5, 27.31, 23.15, 28.56, 41.84, 29.6, 38.53, 33.37, 31.58, 30.86, 27.88, 28.97, 31.52, 43.05, 27.66, 27.42, 21.95, 25.67, 24.02, 25.01, 43.36, 43.87, 19.31, 17.05, 26.62, 26.73, 28.95, 20.4, 17.34, 20.74, 21.57, 21.69, 20.06, 20.47, 18.67, 21.64, 27.5, 29.51, 35.17, 31.37, 18.86]

>  <accession>  (241) 
3ZZC_A

>  <description>  (241) 
Chain A, 3C PROTEINASE [Coxsackievirus B3]

>  <evalue>  (241) 
7.4865399999999999e-87

>  <pdb_code>  (241) 
3ZZC

>  <chain>  (241) 
A

>  <ligands>  (241) 
[{'chain_id': 'A', 'author_residue_number': 1181, 'author_insertion_code': '', 'chem_comp_id': 'G83', 'alternate_conformers': 0, 'entity_id': 2, 'struct_asym_id': 'B', 'residue_number': 1, 'chem_comp_name': 'ETHYL (5S,8S,11R)-8-BENZYL-5-(2-TERT-BUTOXY-2-OXOETHYL)-3,6,9-TRIOXO-11-{[(3S)-2-OXOPYRROLIDIN-3-YL]METHYL}-1-PHENYL-2-OXA-4,7,10-TRIAZATETRADECAN-14-OATE', 'weight': 680.788, 'carbohydrate_polymer': False, 'branch_name': ''}]

>  <ligand_codes>  (241) 
['G83']

>  <cofactor_codes>  (241) 
[]

>  <has_cofactor>  (241) 
False

>  <covalent>  (241) 
True

>  <base_name>  (241) 
3ZZC

>  <lig_resn>  (241) 
G83

>  <lig_resi>  (241) 
1181

>  <lig_chain>  (241) 
A

>  <lig_segi>  (241) 
B

>  <lig_alt>  (241) 


>  <polymer_chain>  (241) 
A

>  <single_smiles>  (241) 
CCOC(=O)CC[C@H](C[C@@H]1CCNC1=O)NC(=O)[C@H](Cc2ccccc2)NC(=O)[C@H](CC(=O)OC(C)(C)C)NC(=O)OCc3ccccc3

$$$$
G83P1S83
     RDKit          3D

 12 11  0  0  0  0  0  0  0  0999 V2000
   -9.2610   14.3500  -34.7310 N   0  0  0  0  0  0  0  0  0  0  0  0
   -9.0700   14.7310  -33.4520 C   0  0  0  0  0  0  0  0  0  0  0  0
   -8.5890   16.1350  -33.2460 C   0  0  0  0  0  0  0  0  0  0  0  0
   -9.1660   13.9920  -32.4630 O   0  0  0  0  0  0  0  0  0  0  0  0
   -7.0940   15.9700  -33.0860 C   0  0  0  0  0  0  0  0  0  0  0  0
   -6.3360   17.1850  -33.4620 C   0  0  0  0  0  0  0  0  0  0  0  0
   -6.4670   17.7660  -34.5460 O   0  0  0  0  0  0  0  0  0  0  0  0
   -5.3760   17.6500  -32.4930 O   0  0  0  0  0  0  0  0  0  0  0  0
   -4.0330   17.1570  -32.4230 C   0  0  0  0  0  0  0  0  0  0  0  0
   -3.6770   16.1600  -33.5370 C   0  0  0  0  0  0  0  0  0  0  0  0
   -3.9520   16.4650  -31.0680 C   0  0  0  0  0  0  0  0  0  0  0  0
   -3.0820   18.3540  -32.5240 C   0  0  0  0  0  0  0  0  0  0  0  0
  2  1  1  0
  3  2  1  0
  2  4  2  0
  3  5  1  6
  6  5  1  0
  7  6  2  0
  8  6  1  0
  8  9  1  0
  9 10  1  0
  9 11  1  0
  9 12  1  0
A    2
 C31
A    4
 O35
A    5
 C25
A    6
 C14
A    7
 O1 
A    8
 O2 
A    9
 C29
A   10
 C12
A   11
 C43
A   12
 C45
M  END
>  <XChem_code>  (242) 
G83§1

>  <Occupancy>  (242) 
[1.0, 1.0, 1.0, 1.0, 1.0, 1.0, 1.0, 1.0, 1.0, 1.0, 1.0, 1.0, 1.0, 1.0, 1.0, 1.0, 1.0, 1.0, 1.0, 1.0, 1.0, 1.0, 1.0, 1.0, 1.0, 1.0, 1.0, 1.0, 1.0, 1.0, 1.0, 1.0, 1.0, 1.0, 1.0, 1.0, 1.0, 1.0, 1.0, 1.0, 1.0, 1.0, 1.0, 1.0, 1.0, 1.0, 1.0, 1.0, 1.0, 1.0]

>  <TempFactor>  (242) 
[21.5, 44.89, 24.36, 42.16, 38.25, 23.95, 40.64, 20.41, 29.29, 22.5, 27.31, 23.15, 28.56, 41.84, 29.6, 38.53, 33.37, 31.58, 30.86, 27.88, 28.97, 31.52, 43.05, 27.66, 27.42, 21.95, 25.67, 24.02, 25.01, 43.36, 43.87, 19.31, 17.05, 26.62, 26.73, 28.95, 20.4, 17.34, 20.74, 21.57, 21.69, 20.06, 20.47, 18.67, 21.64, 27.5, 29.51, 35.17, 31.37, 18.86]

>  <accession>  (242) 
3ZZC_A

>  <description>  (242) 
Chain A, 3C PROTEINASE [Coxsackievirus B3]

>  <evalue>  (242) 
7.4865399999999999e-87

>  <pdb_code>  (242) 
3ZZC

>  <chain>  (242) 
A

>  <ligands>  (242) 
[{'chain_id': 'A', 'author_residue_number': 1181, 'author_insertion_code': '', 'chem_comp_id': 'G83', 'alternate_conformers': 0, 'entity_id': 2, 'struct_asym_id': 'B', 'residue_number': 1, 'chem_comp_name': 'ETHYL (5S,8S,11R)-8-BENZYL-5-(2-TERT-BUTOXY-2-OXOETHYL)-3,6,9-TRIOXO-11-{[(3S)-2-OXOPYRROLIDIN-3-YL]METHYL}-1-PHENYL-2-OXA-4,7,10-TRIAZATETRADECAN-14-OATE', 'weight': 680.788, 'carbohydrate_polymer': False, 'branch_name': ''}]

>  <ligand_codes>  (242) 
['G83']

>  <cofactor_codes>  (242) 
[]

>  <has_cofactor>  (242) 
False

>  <covalent>  (242) 
True

>  <base_name>  (242) 
3ZZC

>  <lig_resn>  (242) 
G83

>  <lig_resi>  (242) 
1181

>  <lig_chain>  (242) 
A

>  <lig_segi>  (242) 
B

>  <lig_alt>  (242) 


>  <polymer_chain>  (242) 
A

>  <single_smiles>  (242) 
CCOC(=O)CC[C@H](C[C@@H]1CCNC1=O)NC(=O)[C@H](Cc2ccccc2)NC(=O)[C@H](CC(=O)OC(C)(C)C)NC(=O)OCc3ccccc3

$$$$
G83P1S84
     RDKit          3D

 23 23  0  0  0  0  0  0  0  0999 V2000
   -8.7450   10.9170  -34.2200 N   0  0  0  0  0  0  0  0  0  0  0  0
   -8.4620   12.0930  -34.7840 C   0  0  0  0  0  0  0  0  0  0  0  0
   -9.6510   12.9770  -35.0820 C   0  0  1  0  0  0  0  0  0  0  0  0
   -7.3180   12.4750  -35.0590 O   0  0  0  0  0  0  0  0  0  0  0  0
   -9.2610   14.3500  -34.7310 N   0  0  0  0  0  0  0  0  0  0  0  0
   -9.8940   12.8970  -36.5940 C   0  0  0  0  0  0  0  0  0  0  0  0
   -9.0700   14.7310  -33.4520 C   0  0  0  0  0  0  0  0  0  0  0  0
  -11.1210   13.7000  -36.9770 C   0  0  0  0  0  0  0  0  0  0  0  0
   -8.5890   16.1350  -33.2460 C   0  0  0  0  0  0  0  0  0  0  0  0
   -9.1660   13.9920  -32.4630 O   0  0  0  0  0  0  0  0  0  0  0  0
  -12.3400   13.5180  -36.3250 C   0  0  0  0  0  0  0  0  0  0  0  0
  -11.0320   14.6580  -38.0030 C   0  0  0  0  0  0  0  0  0  0  0  0
   -7.0940   15.9700  -33.0860 C   0  0  0  0  0  0  0  0  0  0  0  0
  -13.4670   14.3010  -36.6620 C   0  0  0  0  0  0  0  0  0  0  0  0
  -12.1840   15.4150  -38.3560 C   0  0  0  0  0  0  0  0  0  0  0  0
   -6.3360   17.1850  -33.4620 C   0  0  0  0  0  0  0  0  0  0  0  0
  -13.4100   15.2640  -37.6860 C   0  0  0  0  0  0  0  0  0  0  0  0
   -6.4670   17.7660  -34.5460 O   0  0  0  0  0  0  0  0  0  0  0  0
   -5.3760   17.6500  -32.4930 O   0  0  0  0  0  0  0  0  0  0  0  0
   -4.0330   17.1570  -32.4230 C   0  0  0  0  0  0  0  0  0  0  0  0
   -3.6770   16.1600  -33.5370 C   0  0  0  0  0  0  0  0  0  0  0  0
   -3.9520   16.4650  -31.0680 C   0  0  0  0  0  0  0  0  0  0  0  0
   -3.0820   18.3540  -32.5240 C   0  0  0  0  0  0  0  0  0  0  0  0
  2  1  1  0
  3  2  1  0
  2  4  2  0
  5  3  1  0
  3  6  1  6
  7  5  1  0
  6  8  1  0
  9  7  1  0
  7 10  2  0
  8 11  2  0
  8 12  1  0
  9 13  1  6
 14 11  1  0
 15 12  2  0
 16 13  1  0
 14 17  2  0
 17 15  1  0
 18 16  2  0
 19 16  1  0
 19 20  1  0
 20 21  1  0
 20 22  1  0
 20 23  1  0
A    2
 C39
A    3
 C37
A    4
 O47
A    5
 N33
A    6
 C41
A    7
 C31
A    8
 C51
A   10
 O35
A   11
 C53
A   12
 C55
A   13
 C25
A   14
 C7 
A   15
 C11
A   16
 C14
A   17
 C9 
A   18
 O1 
A   19
 O2 
A   20
 C29
A   21
 C12
A   22
 C43
A   23
 C45
M  END
>  <XChem_code>  (243) 
G83§1

>  <Occupancy>  (243) 
[1.0, 1.0, 1.0, 1.0, 1.0, 1.0, 1.0, 1.0, 1.0, 1.0, 1.0, 1.0, 1.0, 1.0, 1.0, 1.0, 1.0, 1.0, 1.0, 1.0, 1.0, 1.0, 1.0, 1.0, 1.0, 1.0, 1.0, 1.0, 1.0, 1.0, 1.0, 1.0, 1.0, 1.0, 1.0, 1.0, 1.0, 1.0, 1.0, 1.0, 1.0, 1.0, 1.0, 1.0, 1.0, 1.0, 1.0, 1.0, 1.0, 1.0]

>  <TempFactor>  (243) 
[21.5, 44.89, 24.36, 42.16, 38.25, 23.95, 40.64, 20.41, 29.29, 22.5, 27.31, 23.15, 28.56, 41.84, 29.6, 38.53, 33.37, 31.58, 30.86, 27.88, 28.97, 31.52, 43.05, 27.66, 27.42, 21.95, 25.67, 24.02, 25.01, 43.36, 43.87, 19.31, 17.05, 26.62, 26.73, 28.95, 20.4, 17.34, 20.74, 21.57, 21.69, 20.06, 20.47, 18.67, 21.64, 27.5, 29.51, 35.17, 31.37, 18.86]

>  <accession>  (243) 
3ZZC_A

>  <description>  (243) 
Chain A, 3C PROTEINASE [Coxsackievirus B3]

>  <evalue>  (243) 
7.4865399999999999e-87

>  <pdb_code>  (243) 
3ZZC

>  <chain>  (243) 
A

>  <ligands>  (243) 
[{'chain_id': 'A', 'author_residue_number': 1181, 'author_insertion_code': '', 'chem_comp_id': 'G83', 'alternate_conformers': 0, 'entity_id': 2, 'struct_asym_id': 'B', 'residue_number': 1, 'chem_comp_name': 'ETHYL (5S,8S,11R)-8-BENZYL-5-(2-TERT-BUTOXY-2-OXOETHYL)-3,6,9-TRIOXO-11-{[(3S)-2-OXOPYRROLIDIN-3-YL]METHYL}-1-PHENYL-2-OXA-4,7,10-TRIAZATETRADECAN-14-OATE', 'weight': 680.788, 'carbohydrate_polymer': False, 'branch_name': ''}]

>  <ligand_codes>  (243) 
['G83']

>  <cofactor_codes>  (243) 
[]

>  <has_cofactor>  (243) 
False

>  <covalent>  (243) 
True

>  <base_name>  (243) 
3ZZC

>  <lig_resn>  (243) 
G83

>  <lig_resi>  (243) 
1181

>  <lig_chain>  (243) 
A

>  <lig_segi>  (243) 
B

>  <lig_alt>  (243) 


>  <polymer_chain>  (243) 
A

>  <single_smiles>  (243) 
CCOC(=O)CC[C@H](C[C@@H]1CCNC1=O)NC(=O)[C@H](Cc2ccccc2)NC(=O)[C@H](CC(=O)OC(C)(C)C)NC(=O)OCc3ccccc3

$$$$
G83P1S85
     RDKit          3D

 11 11  0  0  0  0  0  0  0  0999 V2000
   -8.7450   10.9170  -34.2200 N   0  0  0  0  0  0  0  0  0  0  0  0
   -8.4620   12.0930  -34.7840 C   0  0  0  0  0  0  0  0  0  0  0  0
   -9.6510   12.9770  -35.0820 C   0  0  0  0  0  0  0  0  0  0  0  0
   -7.3180   12.4750  -35.0590 O   0  0  0  0  0  0  0  0  0  0  0  0
   -9.8940   12.8970  -36.5940 C   0  0  0  0  0  0  0  0  0  0  0  0
  -11.1210   13.7000  -36.9770 C   0  0  0  0  0  0  0  0  0  0  0  0
  -12.3400   13.5180  -36.3250 C   0  0  0  0  0  0  0  0  0  0  0  0
  -11.0320   14.6580  -38.0030 C   0  0  0  0  0  0  0  0  0  0  0  0
  -13.4670   14.3010  -36.6620 C   0  0  0  0  0  0  0  0  0  0  0  0
  -12.1840   15.4150  -38.3560 C   0  0  0  0  0  0  0  0  0  0  0  0
  -13.4100   15.2640  -37.6860 C   0  0  0  0  0  0  0  0  0  0  0  0
  2  1  1  0
  3  2  1  0
  2  4  2  0
  3  5  1  6
  5  6  1  0
  6  7  2  0
  6  8  1  0
  9  7  1  0
 10  8  2  0
  9 11  2  0
 11 10  1  0
A    2
 C39
A    4
 O47
A    5
 C41
A    6
 C51
A    7
 C53
A    8
 C55
A    9
 C7 
A   10
 C11
A   11
 C9 
M  END
>  <XChem_code>  (244) 
G83§1

>  <Occupancy>  (244) 
[1.0, 1.0, 1.0, 1.0, 1.0, 1.0, 1.0, 1.0, 1.0, 1.0, 1.0, 1.0, 1.0, 1.0, 1.0, 1.0, 1.0, 1.0, 1.0, 1.0, 1.0, 1.0, 1.0, 1.0, 1.0, 1.0, 1.0, 1.0, 1.0, 1.0, 1.0, 1.0, 1.0, 1.0, 1.0, 1.0, 1.0, 1.0, 1.0, 1.0, 1.0, 1.0, 1.0, 1.0, 1.0, 1.0, 1.0, 1.0, 1.0, 1.0]

>  <TempFactor>  (244) 
[21.5, 44.89, 24.36, 42.16, 38.25, 23.95, 40.64, 20.41, 29.29, 22.5, 27.31, 23.15, 28.56, 41.84, 29.6, 38.53, 33.37, 31.58, 30.86, 27.88, 28.97, 31.52, 43.05, 27.66, 27.42, 21.95, 25.67, 24.02, 25.01, 43.36, 43.87, 19.31, 17.05, 26.62, 26.73, 28.95, 20.4, 17.34, 20.74, 21.57, 21.69, 20.06, 20.47, 18.67, 21.64, 27.5, 29.51, 35.17, 31.37, 18.86]

>  <accession>  (244) 
3ZZC_A

>  <description>  (244) 
Chain A, 3C PROTEINASE [Coxsackievirus B3]

>  <evalue>  (244) 
7.4865399999999999e-87

>  <pdb_code>  (244) 
3ZZC

>  <chain>  (244) 
A

>  <ligands>  (244) 
[{'chain_id': 'A', 'author_residue_number': 1181, 'author_insertion_code': '', 'chem_comp_id': 'G83', 'alternate_conformers': 0, 'entity_id': 2, 'struct_asym_id': 'B', 'residue_number': 1, 'chem_comp_name': 'ETHYL (5S,8S,11R)-8-BENZYL-5-(2-TERT-BUTOXY-2-OXOETHYL)-3,6,9-TRIOXO-11-{[(3S)-2-OXOPYRROLIDIN-3-YL]METHYL}-1-PHENYL-2-OXA-4,7,10-TRIAZATETRADECAN-14-OATE', 'weight': 680.788, 'carbohydrate_polymer': False, 'branch_name': ''}]

>  <ligand_codes>  (244) 
['G83']

>  <cofactor_codes>  (244) 
[]

>  <has_cofactor>  (244) 
False

>  <covalent>  (244) 
True

>  <base_name>  (244) 
3ZZC

>  <lig_resn>  (244) 
G83

>  <lig_resi>  (244) 
1181

>  <lig_chain>  (244) 
A

>  <lig_segi>  (244) 
B

>  <lig_alt>  (244) 


>  <polymer_chain>  (244) 
A

>  <single_smiles>  (244) 
CCOC(=O)CC[C@H](C[C@@H]1CCNC1=O)NC(=O)[C@H](Cc2ccccc2)NC(=O)[C@H](CC(=O)OC(C)(C)C)NC(=O)OCc3ccccc3

$$$$
G83P1S86
     RDKit          3D

  7  6  0  0  0  0  0  0  0  0999 V2000
   -9.2610   14.3500  -34.7310 N   0  0  0  0  0  0  0  0  0  0  0  0
   -9.0700   14.7310  -33.4520 C   0  0  0  0  0  0  0  0  0  0  0  0
   -8.5890   16.1350  -33.2460 C   0  0  0  0  0  0  0  0  0  0  0  0
   -9.1660   13.9920  -32.4630 O   0  0  0  0  0  0  0  0  0  0  0  0
   -7.0940   15.9700  -33.0860 C   0  0  0  0  0  0  0  0  0  0  0  0
   -6.3360   17.1850  -33.4620 C   0  0  0  0  0  0  0  0  0  0  0  0
   -6.4670   17.7660  -34.5460 O   0  0  0  0  0  0  0  0  0  0  0  0
  2  1  1  0
  3  2  1  0
  2  4  2  0
  3  5  1  6
  6  5  1  0
  7  6  2  0
A    2
 C31
A    4
 O35
A    5
 C25
A    7
 O1 
M  END
>  <XChem_code>  (245) 
G83§1

>  <Occupancy>  (245) 
[1.0, 1.0, 1.0, 1.0, 1.0, 1.0, 1.0, 1.0, 1.0, 1.0, 1.0, 1.0, 1.0, 1.0, 1.0, 1.0, 1.0, 1.0, 1.0, 1.0, 1.0, 1.0, 1.0, 1.0, 1.0, 1.0, 1.0, 1.0, 1.0, 1.0, 1.0, 1.0, 1.0, 1.0, 1.0, 1.0, 1.0, 1.0, 1.0, 1.0, 1.0, 1.0, 1.0, 1.0, 1.0, 1.0, 1.0, 1.0, 1.0, 1.0]

>  <TempFactor>  (245) 
[21.5, 44.89, 24.36, 42.16, 38.25, 23.95, 40.64, 20.41, 29.29, 22.5, 27.31, 23.15, 28.56, 41.84, 29.6, 38.53, 33.37, 31.58, 30.86, 27.88, 28.97, 31.52, 43.05, 27.66, 27.42, 21.95, 25.67, 24.02, 25.01, 43.36, 43.87, 19.31, 17.05, 26.62, 26.73, 28.95, 20.4, 17.34, 20.74, 21.57, 21.69, 20.06, 20.47, 18.67, 21.64, 27.5, 29.51, 35.17, 31.37, 18.86]

>  <accession>  (245) 
3ZZC_A

>  <description>  (245) 
Chain A, 3C PROTEINASE [Coxsackievirus B3]

>  <evalue>  (245) 
7.4865399999999999e-87

>  <pdb_code>  (245) 
3ZZC

>  <chain>  (245) 
A

>  <ligands>  (245) 
[{'chain_id': 'A', 'author_residue_number': 1181, 'author_insertion_code': '', 'chem_comp_id': 'G83', 'alternate_conformers': 0, 'entity_id': 2, 'struct_asym_id': 'B', 'residue_number': 1, 'chem_comp_name': 'ETHYL (5S,8S,11R)-8-BENZYL-5-(2-TERT-BUTOXY-2-OXOETHYL)-3,6,9-TRIOXO-11-{[(3S)-2-OXOPYRROLIDIN-3-YL]METHYL}-1-PHENYL-2-OXA-4,7,10-TRIAZATETRADECAN-14-OATE', 'weight': 680.788, 'carbohydrate_polymer': False, 'branch_name': ''}]

>  <ligand_codes>  (245) 
['G83']

>  <cofactor_codes>  (245) 
[]

>  <has_cofactor>  (245) 
False

>  <covalent>  (245) 
True

>  <base_name>  (245) 
3ZZC

>  <lig_resn>  (245) 
G83

>  <lig_resi>  (245) 
1181

>  <lig_chain>  (245) 
A

>  <lig_segi>  (245) 
B

>  <lig_alt>  (245) 


>  <polymer_chain>  (245) 
A

>  <single_smiles>  (245) 
CCOC(=O)CC[C@H](C[C@@H]1CCNC1=O)NC(=O)[C@H](Cc2ccccc2)NC(=O)[C@H](CC(=O)OC(C)(C)C)NC(=O)OCc3ccccc3

$$$$
G83P1S87
     RDKit          3D

 18 18  0  0  0  0  0  0  0  0999 V2000
   -8.7450   10.9170  -34.2200 N   0  0  0  0  0  0  0  0  0  0  0  0
   -8.4620   12.0930  -34.7840 C   0  0  0  0  0  0  0  0  0  0  0  0
   -9.6510   12.9770  -35.0820 C   0  0  1  0  0  0  0  0  0  0  0  0
   -7.3180   12.4750  -35.0590 O   0  0  0  0  0  0  0  0  0  0  0  0
   -9.2610   14.3500  -34.7310 N   0  0  0  0  0  0  0  0  0  0  0  0
   -9.8940   12.8970  -36.5940 C   0  0  0  0  0  0  0  0  0  0  0  0
   -9.0700   14.7310  -33.4520 C   0  0  0  0  0  0  0  0  0  0  0  0
  -11.1210   13.7000  -36.9770 C   0  0  0  0  0  0  0  0  0  0  0  0
   -8.5890   16.1350  -33.2460 C   0  0  0  0  0  0  0  0  0  0  0  0
   -9.1660   13.9920  -32.4630 O   0  0  0  0  0  0  0  0  0  0  0  0
  -12.3400   13.5180  -36.3250 C   0  0  0  0  0  0  0  0  0  0  0  0
  -11.0320   14.6580  -38.0030 C   0  0  0  0  0  0  0  0  0  0  0  0
   -7.0940   15.9700  -33.0860 C   0  0  0  0  0  0  0  0  0  0  0  0
  -13.4670   14.3010  -36.6620 C   0  0  0  0  0  0  0  0  0  0  0  0
  -12.1840   15.4150  -38.3560 C   0  0  0  0  0  0  0  0  0  0  0  0
   -6.3360   17.1850  -33.4620 C   0  0  0  0  0  0  0  0  0  0  0  0
  -13.4100   15.2640  -37.6860 C   0  0  0  0  0  0  0  0  0  0  0  0
   -6.4670   17.7660  -34.5460 O   0  0  0  0  0  0  0  0  0  0  0  0
  2  1  1  0
  3  2  1  0
  2  4  2  0
  5  3  1  0
  3  6  1  6
  7  5  1  0
  6  8  1  0
  9  7  1  0
  7 10  2  0
  8 11  2  0
  8 12  1  0
  9 13  1  6
 14 11  1  0
 15 12  2  0
 16 13  1  0
 14 17  2  0
 17 15  1  0
 18 16  2  0
A    2
 C39
A    3
 C37
A    4
 O47
A    5
 N33
A    6
 C41
A    7
 C31
A    8
 C51
A   10
 O35
A   11
 C53
A   12
 C55
A   13
 C25
A   14
 C7 
A   15
 C11
A   17
 C9 
A   18
 O1 
M  END
>  <XChem_code>  (246) 
G83§1

>  <Occupancy>  (246) 
[1.0, 1.0, 1.0, 1.0, 1.0, 1.0, 1.0, 1.0, 1.0, 1.0, 1.0, 1.0, 1.0, 1.0, 1.0, 1.0, 1.0, 1.0, 1.0, 1.0, 1.0, 1.0, 1.0, 1.0, 1.0, 1.0, 1.0, 1.0, 1.0, 1.0, 1.0, 1.0, 1.0, 1.0, 1.0, 1.0, 1.0, 1.0, 1.0, 1.0, 1.0, 1.0, 1.0, 1.0, 1.0, 1.0, 1.0, 1.0, 1.0, 1.0]

>  <TempFactor>  (246) 
[21.5, 44.89, 24.36, 42.16, 38.25, 23.95, 40.64, 20.41, 29.29, 22.5, 27.31, 23.15, 28.56, 41.84, 29.6, 38.53, 33.37, 31.58, 30.86, 27.88, 28.97, 31.52, 43.05, 27.66, 27.42, 21.95, 25.67, 24.02, 25.01, 43.36, 43.87, 19.31, 17.05, 26.62, 26.73, 28.95, 20.4, 17.34, 20.74, 21.57, 21.69, 20.06, 20.47, 18.67, 21.64, 27.5, 29.51, 35.17, 31.37, 18.86]

>  <accession>  (246) 
3ZZC_A

>  <description>  (246) 
Chain A, 3C PROTEINASE [Coxsackievirus B3]

>  <evalue>  (246) 
7.4865399999999999e-87

>  <pdb_code>  (246) 
3ZZC

>  <chain>  (246) 
A

>  <ligands>  (246) 
[{'chain_id': 'A', 'author_residue_number': 1181, 'author_insertion_code': '', 'chem_comp_id': 'G83', 'alternate_conformers': 0, 'entity_id': 2, 'struct_asym_id': 'B', 'residue_number': 1, 'chem_comp_name': 'ETHYL (5S,8S,11R)-8-BENZYL-5-(2-TERT-BUTOXY-2-OXOETHYL)-3,6,9-TRIOXO-11-{[(3S)-2-OXOPYRROLIDIN-3-YL]METHYL}-1-PHENYL-2-OXA-4,7,10-TRIAZATETRADECAN-14-OATE', 'weight': 680.788, 'carbohydrate_polymer': False, 'branch_name': ''}]

>  <ligand_codes>  (246) 
['G83']

>  <cofactor_codes>  (246) 
[]

>  <has_cofactor>  (246) 
False

>  <covalent>  (246) 
True

>  <base_name>  (246) 
3ZZC

>  <lig_resn>  (246) 
G83

>  <lig_resi>  (246) 
1181

>  <lig_chain>  (246) 
A

>  <lig_segi>  (246) 
B

>  <lig_alt>  (246) 


>  <polymer_chain>  (246) 
A

>  <single_smiles>  (246) 
CCOC(=O)CC[C@H](C[C@@H]1CCNC1=O)NC(=O)[C@H](Cc2ccccc2)NC(=O)[C@H](CC(=O)OC(C)(C)C)NC(=O)OCc3ccccc3

$$$$
G83P1S88
     RDKit          3D

  8  7  0  0  0  0  0  0  0  0999 V2000
   -9.2610   14.3500  -34.7310 N   0  0  0  0  0  0  0  0  0  0  0  0
   -9.0700   14.7310  -33.4520 C   0  0  0  0  0  0  0  0  0  0  0  0
   -8.5890   16.1350  -33.2460 C   0  0  0  0  0  0  0  0  0  0  0  0
   -9.1660   13.9920  -32.4630 O   0  0  0  0  0  0  0  0  0  0  0  0
   -7.0940   15.9700  -33.0860 C   0  0  0  0  0  0  0  0  0  0  0  0
   -6.3360   17.1850  -33.4620 C   0  0  0  0  0  0  0  0  0  0  0  0
   -5.3760   17.6500  -32.4930 O   0  0  0  0  0  0  0  0  0  0  0  0
   -6.4670   17.7660  -34.5460 O   0  0  0  0  0  0  0  0  0  0  0  0
  2  1  1  0
  3  2  1  0
  2  4  2  0
  3  5  1  6
  6  5  1  0
  7  6  1  0
  8  6  2  0
A    2
 C31
A    4
 O35
A    5
 C25
A    6
 C14
A    8
 O1 
M  END
>  <XChem_code>  (247) 
G83§1

>  <Occupancy>  (247) 
[1.0, 1.0, 1.0, 1.0, 1.0, 1.0, 1.0, 1.0, 1.0, 1.0, 1.0, 1.0, 1.0, 1.0, 1.0, 1.0, 1.0, 1.0, 1.0, 1.0, 1.0, 1.0, 1.0, 1.0, 1.0, 1.0, 1.0, 1.0, 1.0, 1.0, 1.0, 1.0, 1.0, 1.0, 1.0, 1.0, 1.0, 1.0, 1.0, 1.0, 1.0, 1.0, 1.0, 1.0, 1.0, 1.0, 1.0, 1.0, 1.0, 1.0]

>  <TempFactor>  (247) 
[21.5, 44.89, 24.36, 42.16, 38.25, 23.95, 40.64, 20.41, 29.29, 22.5, 27.31, 23.15, 28.56, 41.84, 29.6, 38.53, 33.37, 31.58, 30.86, 27.88, 28.97, 31.52, 43.05, 27.66, 27.42, 21.95, 25.67, 24.02, 25.01, 43.36, 43.87, 19.31, 17.05, 26.62, 26.73, 28.95, 20.4, 17.34, 20.74, 21.57, 21.69, 20.06, 20.47, 18.67, 21.64, 27.5, 29.51, 35.17, 31.37, 18.86]

>  <accession>  (247) 
3ZZC_A

>  <description>  (247) 
Chain A, 3C PROTEINASE [Coxsackievirus B3]

>  <evalue>  (247) 
7.4865399999999999e-87

>  <pdb_code>  (247) 
3ZZC

>  <chain>  (247) 
A

>  <ligands>  (247) 
[{'chain_id': 'A', 'author_residue_number': 1181, 'author_insertion_code': '', 'chem_comp_id': 'G83', 'alternate_conformers': 0, 'entity_id': 2, 'struct_asym_id': 'B', 'residue_number': 1, 'chem_comp_name': 'ETHYL (5S,8S,11R)-8-BENZYL-5-(2-TERT-BUTOXY-2-OXOETHYL)-3,6,9-TRIOXO-11-{[(3S)-2-OXOPYRROLIDIN-3-YL]METHYL}-1-PHENYL-2-OXA-4,7,10-TRIAZATETRADECAN-14-OATE', 'weight': 680.788, 'carbohydrate_polymer': False, 'branch_name': ''}]

>  <ligand_codes>  (247) 
['G83']

>  <cofactor_codes>  (247) 
[]

>  <has_cofactor>  (247) 
False

>  <covalent>  (247) 
True

>  <base_name>  (247) 
3ZZC

>  <lig_resn>  (247) 
G83

>  <lig_resi>  (247) 
1181

>  <lig_chain>  (247) 
A

>  <lig_segi>  (247) 
B

>  <lig_alt>  (247) 


>  <polymer_chain>  (247) 
A

>  <single_smiles>  (247) 
CCOC(=O)CC[C@H](C[C@@H]1CCNC1=O)NC(=O)[C@H](Cc2ccccc2)NC(=O)[C@H](CC(=O)OC(C)(C)C)NC(=O)OCc3ccccc3

$$$$
G83P1S89
     RDKit          3D

 19 19  0  0  0  0  0  0  0  0999 V2000
   -8.7450   10.9170  -34.2200 N   0  0  0  0  0  0  0  0  0  0  0  0
   -8.4620   12.0930  -34.7840 C   0  0  0  0  0  0  0  0  0  0  0  0
   -9.6510   12.9770  -35.0820 C   0  0  1  0  0  0  0  0  0  0  0  0
   -7.3180   12.4750  -35.0590 O   0  0  0  0  0  0  0  0  0  0  0  0
   -9.2610   14.3500  -34.7310 N   0  0  0  0  0  0  0  0  0  0  0  0
   -9.8940   12.8970  -36.5940 C   0  0  0  0  0  0  0  0  0  0  0  0
   -9.0700   14.7310  -33.4520 C   0  0  0  0  0  0  0  0  0  0  0  0
  -11.1210   13.7000  -36.9770 C   0  0  0  0  0  0  0  0  0  0  0  0
   -8.5890   16.1350  -33.2460 C   0  0  0  0  0  0  0  0  0  0  0  0
   -9.1660   13.9920  -32.4630 O   0  0  0  0  0  0  0  0  0  0  0  0
  -12.3400   13.5180  -36.3250 C   0  0  0  0  0  0  0  0  0  0  0  0
  -11.0320   14.6580  -38.0030 C   0  0  0  0  0  0  0  0  0  0  0  0
   -7.0940   15.9700  -33.0860 C   0  0  0  0  0  0  0  0  0  0  0  0
  -13.4670   14.3010  -36.6620 C   0  0  0  0  0  0  0  0  0  0  0  0
  -12.1840   15.4150  -38.3560 C   0  0  0  0  0  0  0  0  0  0  0  0
   -6.3360   17.1850  -33.4620 C   0  0  0  0  0  0  0  0  0  0  0  0
  -13.4100   15.2640  -37.6860 C   0  0  0  0  0  0  0  0  0  0  0  0
   -5.3760   17.6500  -32.4930 O   0  0  0  0  0  0  0  0  0  0  0  0
   -6.4670   17.7660  -34.5460 O   0  0  0  0  0  0  0  0  0  0  0  0
  2  1  1  0
  3  2  1  0
  2  4  2  0
  5  3  1  0
  3  6  1  6
  7  5  1  0
  6  8  1  0
  9  7  1  0
  7 10  2  0
  8 11  2  0
  8 12  1  0
  9 13  1  6
 14 11  1  0
 15 12  2  0
 16 13  1  0
 14 17  2  0
 17 15  1  0
 18 16  1  0
 19 16  2  0
A    2
 C39
A    3
 C37
A    4
 O47
A    5
 N33
A    6
 C41
A    7
 C31
A    8
 C51
A   10
 O35
A   11
 C53
A   12
 C55
A   13
 C25
A   14
 C7 
A   15
 C11
A   16
 C14
A   17
 C9 
A   19
 O1 
M  END
>  <XChem_code>  (248) 
G83§1

>  <Occupancy>  (248) 
[1.0, 1.0, 1.0, 1.0, 1.0, 1.0, 1.0, 1.0, 1.0, 1.0, 1.0, 1.0, 1.0, 1.0, 1.0, 1.0, 1.0, 1.0, 1.0, 1.0, 1.0, 1.0, 1.0, 1.0, 1.0, 1.0, 1.0, 1.0, 1.0, 1.0, 1.0, 1.0, 1.0, 1.0, 1.0, 1.0, 1.0, 1.0, 1.0, 1.0, 1.0, 1.0, 1.0, 1.0, 1.0, 1.0, 1.0, 1.0, 1.0, 1.0]

>  <TempFactor>  (248) 
[21.5, 44.89, 24.36, 42.16, 38.25, 23.95, 40.64, 20.41, 29.29, 22.5, 27.31, 23.15, 28.56, 41.84, 29.6, 38.53, 33.37, 31.58, 30.86, 27.88, 28.97, 31.52, 43.05, 27.66, 27.42, 21.95, 25.67, 24.02, 25.01, 43.36, 43.87, 19.31, 17.05, 26.62, 26.73, 28.95, 20.4, 17.34, 20.74, 21.57, 21.69, 20.06, 20.47, 18.67, 21.64, 27.5, 29.51, 35.17, 31.37, 18.86]

>  <accession>  (248) 
3ZZC_A

>  <description>  (248) 
Chain A, 3C PROTEINASE [Coxsackievirus B3]

>  <evalue>  (248) 
7.4865399999999999e-87

>  <pdb_code>  (248) 
3ZZC

>  <chain>  (248) 
A

>  <ligands>  (248) 
[{'chain_id': 'A', 'author_residue_number': 1181, 'author_insertion_code': '', 'chem_comp_id': 'G83', 'alternate_conformers': 0, 'entity_id': 2, 'struct_asym_id': 'B', 'residue_number': 1, 'chem_comp_name': 'ETHYL (5S,8S,11R)-8-BENZYL-5-(2-TERT-BUTOXY-2-OXOETHYL)-3,6,9-TRIOXO-11-{[(3S)-2-OXOPYRROLIDIN-3-YL]METHYL}-1-PHENYL-2-OXA-4,7,10-TRIAZATETRADECAN-14-OATE', 'weight': 680.788, 'carbohydrate_polymer': False, 'branch_name': ''}]

>  <ligand_codes>  (248) 
['G83']

>  <cofactor_codes>  (248) 
[]

>  <has_cofactor>  (248) 
False

>  <covalent>  (248) 
True

>  <base_name>  (248) 
3ZZC

>  <lig_resn>  (248) 
G83

>  <lig_resi>  (248) 
1181

>  <lig_chain>  (248) 
A

>  <lig_segi>  (248) 
B

>  <lig_alt>  (248) 


>  <polymer_chain>  (248) 
A

>  <single_smiles>  (248) 
CCOC(=O)CC[C@H](C[C@@H]1CCNC1=O)NC(=O)[C@H](Cc2ccccc2)NC(=O)[C@H](CC(=O)OC(C)(C)C)NC(=O)OCc3ccccc3

$$$$
G83P1S90
     RDKit          3D

  6  6  0  0  0  0  0  0  0  0999 V2000
   -7.2530   11.2580  -31.6380 C   0  0  0  0  0  0  0  0  0  0  0  0
   -7.1040   11.1020  -30.1450 C   0  0  0  0  0  0  0  0  0  0  0  0
   -5.9010   11.8850  -31.9840 C   0  0  0  0  0  0  0  0  0  0  0  0
   -7.8010   10.3100  -29.5070 O   0  0  0  0  0  0  0  0  0  0  0  0
   -6.2280   11.9150  -29.7100 N   0  0  0  0  0  0  0  0  0  0  0  0
   -5.4330   12.6240  -30.7080 C   0  0  0  0  0  0  0  0  0  0  0  0
  1  2  1  0
  1  3  1  1
  2  4  2  0
  2  5  1  0
  6  3  1  0
  5  6  1  0
A    2
 C65
A    3
 C73
A    4
 O66
A    5
 N69
A    6
 C71
M  END
>  <XChem_code>  (249) 
G83§1

>  <Occupancy>  (249) 
[1.0, 1.0, 1.0, 1.0, 1.0, 1.0, 1.0, 1.0, 1.0, 1.0, 1.0, 1.0, 1.0, 1.0, 1.0, 1.0, 1.0, 1.0, 1.0, 1.0, 1.0, 1.0, 1.0, 1.0, 1.0, 1.0, 1.0, 1.0, 1.0, 1.0, 1.0, 1.0, 1.0, 1.0, 1.0, 1.0, 1.0, 1.0, 1.0, 1.0, 1.0, 1.0, 1.0, 1.0, 1.0, 1.0, 1.0, 1.0, 1.0, 1.0]

>  <TempFactor>  (249) 
[21.5, 44.89, 24.36, 42.16, 38.25, 23.95, 40.64, 20.41, 29.29, 22.5, 27.31, 23.15, 28.56, 41.84, 29.6, 38.53, 33.37, 31.58, 30.86, 27.88, 28.97, 31.52, 43.05, 27.66, 27.42, 21.95, 25.67, 24.02, 25.01, 43.36, 43.87, 19.31, 17.05, 26.62, 26.73, 28.95, 20.4, 17.34, 20.74, 21.57, 21.69, 20.06, 20.47, 18.67, 21.64, 27.5, 29.51, 35.17, 31.37, 18.86]

>  <accession>  (249) 
3ZZC_A

>  <description>  (249) 
Chain A, 3C PROTEINASE [Coxsackievirus B3]

>  <evalue>  (249) 
7.4865399999999999e-87

>  <pdb_code>  (249) 
3ZZC

>  <chain>  (249) 
A

>  <ligands>  (249) 
[{'chain_id': 'A', 'author_residue_number': 1181, 'author_insertion_code': '', 'chem_comp_id': 'G83', 'alternate_conformers': 0, 'entity_id': 2, 'struct_asym_id': 'B', 'residue_number': 1, 'chem_comp_name': 'ETHYL (5S,8S,11R)-8-BENZYL-5-(2-TERT-BUTOXY-2-OXOETHYL)-3,6,9-TRIOXO-11-{[(3S)-2-OXOPYRROLIDIN-3-YL]METHYL}-1-PHENYL-2-OXA-4,7,10-TRIAZATETRADECAN-14-OATE', 'weight': 680.788, 'carbohydrate_polymer': False, 'branch_name': ''}]

>  <ligand_codes>  (249) 
['G83']

>  <cofactor_codes>  (249) 
[]

>  <has_cofactor>  (249) 
False

>  <covalent>  (249) 
True

>  <base_name>  (249) 
3ZZC

>  <lig_resn>  (249) 
G83

>  <lig_resi>  (249) 
1181

>  <lig_chain>  (249) 
A

>  <lig_segi>  (249) 
B

>  <lig_alt>  (249) 


>  <polymer_chain>  (249) 
A

>  <single_smiles>  (249) 
CCOC(=O)CC[C@H](C[C@@H]1CCNC1=O)NC(=O)[C@H](Cc2ccccc2)NC(=O)[C@H](CC(=O)OC(C)(C)C)NC(=O)OCc3ccccc3

$$$$
G83P1S91
     RDKit          3D

 44 45  0  0  0  0  0  0  0  0999 V2000
   -7.6750    9.9230  -32.2970 C   0  0  0  0  0  0  0  0  0  0  0  0
   -7.7310    9.9410  -33.8290 C   0  0  2  0  0  0  0  0  0  0  0  0
   -8.7450   10.9170  -34.2200 N   0  0  0  0  0  0  0  0  0  0  0  0
   -8.1830    8.5770  -34.4040 C   0  0  2  0  0  0  0  0  0  0  0  0
   -8.4620   12.0930  -34.7840 C   0  0  0  0  0  0  0  0  0  0  0  0
   -8.1980    8.6230  -35.9360 C   0  0  0  0  0  0  0  0  0  0  0  0
   -9.8310    8.1200  -33.8380 R   0  0  0  0  0  0  0  0  0  0  0  0
   -9.6510   12.9770  -35.0820 C   0  0  1  0  0  0  0  0  0  0  0  0
   -7.3180   12.4750  -35.0590 O   0  0  0  0  0  0  0  0  0  0  0  0
   -6.8090    8.9220  -36.4600 C   0  0  0  0  0  0  0  0  0  0  0  0
   -9.2610   14.3500  -34.7310 N   0  0  0  0  0  0  0  0  0  0  0  0
   -9.8940   12.8970  -36.5940 C   0  0  0  0  0  0  0  0  0  0  0  0
   -6.6580    9.7290  -37.6550 O   0  0  0  0  0  0  0  0  0  0  0  0
   -5.8080    8.4980  -35.8980 O   0  0  0  0  0  0  0  0  0  0  0  0
   -9.0700   14.7310  -33.4520 C   0  0  0  0  0  0  0  0  0  0  0  0
  -11.1210   13.7000  -36.9770 C   0  0  0  0  0  0  0  0  0  0  0  0
   -5.3610   10.2030  -38.0740 C   0  0  0  0  0  0  0  0  0  0  0  0
   -8.5890   16.1350  -33.2460 C   0  0  1  0  0  0  0  0  0  0  0  0
   -9.1660   13.9920  -32.4630 O   0  0  0  0  0  0  0  0  0  0  0  0
  -12.3400   13.5180  -36.3250 C   0  0  0  0  0  0  0  0  0  0  0  0
  -11.0320   14.6580  -38.0030 C   0  0  0  0  0  0  0  0  0  0  0  0
   -4.5750    9.1110  -38.7950 C   0  0  0  0  0  0  0  0  0  0  0  0
   -8.9270   16.6710  -31.9560 N   0  0  0  0  0  0  0  0  0  0  0  0
   -7.0940   15.9700  -33.0860 C   0  0  0  0  0  0  0  0  0  0  0  0
  -13.4670   14.3010  -36.6620 C   0  0  0  0  0  0  0  0  0  0  0  0
  -12.1840   15.4150  -38.3560 C   0  0  0  0  0  0  0  0  0  0  0  0
   -9.6140   17.8180  -31.9050 C   0  0  0  0  0  0  0  0  0  0  0  0
   -6.3360   17.1850  -33.4620 C   0  0  0  0  0  0  0  0  0  0  0  0
  -13.4100   15.2640  -37.6860 C   0  0  0  0  0  0  0  0  0  0  0  0
   -9.9650   18.3270  -30.5810 O   0  0  0  0  0  0  0  0  0  0  0  0
   -9.9760   18.4340  -32.9180 O   0  0  0  0  0  0  0  0  0  0  0  0
   -6.4670   17.7660  -34.5460 O   0  0  0  0  0  0  0  0  0  0  0  0
   -5.3760   17.6500  -32.4930 O   0  0  0  0  0  0  0  0  0  0  0  0
  -10.3020   19.6950  -30.3210 C   0  0  0  0  0  0  0  0  0  0  0  0
   -4.0330   17.1570  -32.4230 C   0  0  0  0  0  0  0  0  0  0  0  0
  -10.4040   19.8340  -28.8340 C   0  0  0  0  0  0  0  0  0  0  0  0
   -3.6770   16.1600  -33.5370 C   0  0  0  0  0  0  0  0  0  0  0  0
   -3.9520   16.4650  -31.0680 C   0  0  0  0  0  0  0  0  0  0  0  0
   -3.0820   18.3540  -32.5240 C   0  0  0  0  0  0  0  0  0  0  0  0
   -9.6890   20.8420  -28.1960 C   0  0  0  0  0  0  0  0  0  0  0  0
  -11.1970   18.9310  -28.1220 C   0  0  0  0  0  0  0  0  0  0  0  0
   -9.7810   20.9510  -26.7880 C   0  0  0  0  0  0  0  0  0  0  0  0
  -11.3130   19.0390  -26.7440 C   0  0  0  0  0  0  0  0  0  0  0  0
  -10.5960   20.0640  -26.0750 C   0  0  0  0  0  0  0  0  0  0  0  0
  2  1  1  1
  3  2  1  0
  2  4  1  0
  5  3  1  0
  4  6  1  0
  4  7  1  1
  8  5  1  0
  5  9  2  0
  6 10  1  0
 11  8  1  0
  8 12  1  6
 10 13  1  0
 10 14  2  0
 15 11  1  0
 12 16  1  0
 17 13  1  0
 18 15  1  0
 15 19  2  0
 16 20  2  0
 16 21  1  0
 17 22  1  0
 23 18  1  0
 18 24  1  1
 25 20  1  0
 26 21  2  0
 27 23  1  0
 28 24  1  0
 25 29  2  0
 29 26  1  0
 30 27  1  0
 27 31  2  0
 32 28  2  0
 33 28  1  0
 34 30  1  0
 33 35  1  0
 36 34  1  0
 35 37  1  0
 35 38  1  0
 35 39  1  0
 40 36  2  0
 36 41  1  0
 42 40  1  0
 41 43  2  0
 42 44  2  0
 43 44  1  0
V    7 *
A    2
 C57
A    3
 N49
A    4
 C63
A    5
 C39
A    6
 C82
A    7
 X  
A    8
 C37
A    9
 O47
A   10
 C84
A   11
 N33
A   12
 C41
A   13
 O86
A   14
 O88
A   15
 C31
A   16
 C51
A   17
 C3 
A   18
 C23
A   19
 O35
A   20
 C53
A   21
 C55
A   22
 C5 
A   23
 N21
A   24
 C25
A   25
 C7 
A   26
 C11
A   27
 C17
A   28
 C14
A   29
 C9 
A   30
 O15
A   31
 O19
A   32
 O1 
A   33
 O2 
A   34
 C13
A   35
 C29
A   36
 C4 
A   37
 C12
A   38
 C43
A   39
 C45
A   40
 C2 
A   41
 C6 
A   42
 C1 
A   43
 C8 
A   44
 C10
M  END
>  <XChem_code>  (250) 
G83§1

>  <Occupancy>  (250) 
[1.0, 1.0, 1.0, 1.0, 1.0, 1.0, 1.0, 1.0, 1.0, 1.0, 1.0, 1.0, 1.0, 1.0, 1.0, 1.0, 1.0, 1.0, 1.0, 1.0, 1.0, 1.0, 1.0, 1.0, 1.0, 1.0, 1.0, 1.0, 1.0, 1.0, 1.0, 1.0, 1.0, 1.0, 1.0, 1.0, 1.0, 1.0, 1.0, 1.0, 1.0, 1.0, 1.0, 1.0, 1.0, 1.0, 1.0, 1.0, 1.0, 1.0]

>  <TempFactor>  (250) 
[21.5, 44.89, 24.36, 42.16, 38.25, 23.95, 40.64, 20.41, 29.29, 22.5, 27.31, 23.15, 28.56, 41.84, 29.6, 38.53, 33.37, 31.58, 30.86, 27.88, 28.97, 31.52, 43.05, 27.66, 27.42, 21.95, 25.67, 24.02, 25.01, 43.36, 43.87, 19.31, 17.05, 26.62, 26.73, 28.95, 20.4, 17.34, 20.74, 21.57, 21.69, 20.06, 20.47, 18.67, 21.64, 27.5, 29.51, 35.17, 31.37, 18.86]

>  <accession>  (250) 
3ZZC_A

>  <description>  (250) 
Chain A, 3C PROTEINASE [Coxsackievirus B3]

>  <evalue>  (250) 
7.4865399999999999e-87

>  <pdb_code>  (250) 
3ZZC

>  <chain>  (250) 
A

>  <ligands>  (250) 
[{'chain_id': 'A', 'author_residue_number': 1181, 'author_insertion_code': '', 'chem_comp_id': 'G83', 'alternate_conformers': 0, 'entity_id': 2, 'struct_asym_id': 'B', 'residue_number': 1, 'chem_comp_name': 'ETHYL (5S,8S,11R)-8-BENZYL-5-(2-TERT-BUTOXY-2-OXOETHYL)-3,6,9-TRIOXO-11-{[(3S)-2-OXOPYRROLIDIN-3-YL]METHYL}-1-PHENYL-2-OXA-4,7,10-TRIAZATETRADECAN-14-OATE', 'weight': 680.788, 'carbohydrate_polymer': False, 'branch_name': ''}]

>  <ligand_codes>  (250) 
['G83']

>  <cofactor_codes>  (250) 
[]

>  <has_cofactor>  (250) 
False

>  <covalent>  (250) 
True

>  <base_name>  (250) 
3ZZC

>  <lig_resn>  (250) 
G83

>  <lig_resi>  (250) 
1181

>  <lig_chain>  (250) 
A

>  <lig_segi>  (250) 
B

>  <lig_alt>  (250) 


>  <polymer_chain>  (250) 
A

>  <single_smiles>  (250) 
CCOC(=O)CC[C@H](C[C@@H]1CCNC1=O)NC(=O)[C@H](Cc2ccccc2)NC(=O)[C@H](CC(=O)OC(C)(C)C)NC(=O)OCc3ccccc3

$$$$
G83P1S92
     RDKit          3D

  6  6  0  0  0  0  0  0  0  0999 V2000
  -10.4040   19.8340  -28.8340 C   0  0  0  0  0  0  0  0  0  0  0  0
   -9.6890   20.8420  -28.1960 C   0  0  0  0  0  0  0  0  0  0  0  0
  -11.1970   18.9310  -28.1220 C   0  0  0  0  0  0  0  0  0  0  0  0
   -9.7810   20.9510  -26.7880 C   0  0  0  0  0  0  0  0  0  0  0  0
  -11.3130   19.0390  -26.7440 C   0  0  0  0  0  0  0  0  0  0  0  0
  -10.5960   20.0640  -26.0750 C   0  0  0  0  0  0  0  0  0  0  0  0
  2  1  2  0
  1  3  1  0
  4  2  1  0
  3  5  2  0
  4  6  2  0
  5  6  1  0
A    2
 C2 
A    3
 C6 
A    4
 C1 
A    5
 C8 
A    6
 C10
M  END
>  <XChem_code>  (251) 
G83§1

>  <Occupancy>  (251) 
[1.0, 1.0, 1.0, 1.0, 1.0, 1.0, 1.0, 1.0, 1.0, 1.0, 1.0, 1.0, 1.0, 1.0, 1.0, 1.0, 1.0, 1.0, 1.0, 1.0, 1.0, 1.0, 1.0, 1.0, 1.0, 1.0, 1.0, 1.0, 1.0, 1.0, 1.0, 1.0, 1.0, 1.0, 1.0, 1.0, 1.0, 1.0, 1.0, 1.0, 1.0, 1.0, 1.0, 1.0, 1.0, 1.0, 1.0, 1.0, 1.0, 1.0]

>  <TempFactor>  (251) 
[21.5, 44.89, 24.36, 42.16, 38.25, 23.95, 40.64, 20.41, 29.29, 22.5, 27.31, 23.15, 28.56, 41.84, 29.6, 38.53, 33.37, 31.58, 30.86, 27.88, 28.97, 31.52, 43.05, 27.66, 27.42, 21.95, 25.67, 24.02, 25.01, 43.36, 43.87, 19.31, 17.05, 26.62, 26.73, 28.95, 20.4, 17.34, 20.74, 21.57, 21.69, 20.06, 20.47, 18.67, 21.64, 27.5, 29.51, 35.17, 31.37, 18.86]

>  <accession>  (251) 
3ZZC_A

>  <description>  (251) 
Chain A, 3C PROTEINASE [Coxsackievirus B3]

>  <evalue>  (251) 
7.4865399999999999e-87

>  <pdb_code>  (251) 
3ZZC

>  <chain>  (251) 
A

>  <ligands>  (251) 
[{'chain_id': 'A', 'author_residue_number': 1181, 'author_insertion_code': '', 'chem_comp_id': 'G83', 'alternate_conformers': 0, 'entity_id': 2, 'struct_asym_id': 'B', 'residue_number': 1, 'chem_comp_name': 'ETHYL (5S,8S,11R)-8-BENZYL-5-(2-TERT-BUTOXY-2-OXOETHYL)-3,6,9-TRIOXO-11-{[(3S)-2-OXOPYRROLIDIN-3-YL]METHYL}-1-PHENYL-2-OXA-4,7,10-TRIAZATETRADECAN-14-OATE', 'weight': 680.788, 'carbohydrate_polymer': False, 'branch_name': ''}]

>  <ligand_codes>  (251) 
['G83']

>  <cofactor_codes>  (251) 
[]

>  <has_cofactor>  (251) 
False

>  <covalent>  (251) 
True

>  <base_name>  (251) 
3ZZC

>  <lig_resn>  (251) 
G83

>  <lig_resi>  (251) 
1181

>  <lig_chain>  (251) 
A

>  <lig_segi>  (251) 
B

>  <lig_alt>  (251) 


>  <polymer_chain>  (251) 
A

>  <single_smiles>  (251) 
CCOC(=O)CC[C@H](C[C@@H]1CCNC1=O)NC(=O)[C@H](Cc2ccccc2)NC(=O)[C@H](CC(=O)OC(C)(C)C)NC(=O)OCc3ccccc3

$$$$
G83P1S93
     RDKit          3D

 44 45  0  0  0  0  0  0  0  0999 V2000
  -10.3020   19.6950  -30.3210 C   0  0  0  0  0  0  0  0  0  0  0  0
   -9.9650   18.3270  -30.5810 O   0  0  0  0  0  0  0  0  0  0  0  0
   -9.6140   17.8180  -31.9050 C   0  0  0  0  0  0  0  0  0  0  0  0
   -8.9270   16.6710  -31.9560 N   0  0  0  0  0  0  0  0  0  0  0  0
   -9.9760   18.4340  -32.9180 O   0  0  0  0  0  0  0  0  0  0  0  0
   -8.5890   16.1350  -33.2460 C   0  0  1  0  0  0  0  0  0  0  0  0
   -7.0940   15.9700  -33.0860 C   0  0  0  0  0  0  0  0  0  0  0  0
   -9.0700   14.7310  -33.4520 C   0  0  0  0  0  0  0  0  0  0  0  0
   -6.3360   17.1850  -33.4620 C   0  0  0  0  0  0  0  0  0  0  0  0
   -9.2610   14.3500  -34.7310 N   0  0  0  0  0  0  0  0  0  0  0  0
   -9.1660   13.9920  -32.4630 O   0  0  0  0  0  0  0  0  0  0  0  0
   -6.4670   17.7660  -34.5460 O   0  0  0  0  0  0  0  0  0  0  0  0
   -5.3760   17.6500  -32.4930 O   0  0  0  0  0  0  0  0  0  0  0  0
   -9.6510   12.9770  -35.0820 C   0  0  2  0  0  0  0  0  0  0  0  0
   -4.0330   17.1570  -32.4230 C   0  0  0  0  0  0  0  0  0  0  0  0
   -8.4620   12.0930  -34.7840 C   0  0  0  0  0  0  0  0  0  0  0  0
   -9.8940   12.8970  -36.5940 C   0  0  0  0  0  0  0  0  0  0  0  0
   -3.6770   16.1600  -33.5370 C   0  0  0  0  0  0  0  0  0  0  0  0
   -3.9520   16.4650  -31.0680 C   0  0  0  0  0  0  0  0  0  0  0  0
   -3.0820   18.3540  -32.5240 C   0  0  0  0  0  0  0  0  0  0  0  0
   -7.3180   12.4750  -35.0590 O   0  0  0  0  0  0  0  0  0  0  0  0
   -8.7450   10.9170  -34.2200 N   0  0  0  0  0  0  0  0  0  0  0  0
  -11.1210   13.7000  -36.9770 C   0  0  0  0  0  0  0  0  0  0  0  0
   -7.7310    9.9410  -33.8290 C   0  0  1  0  0  0  0  0  0  0  0  0
  -12.3400   13.5180  -36.3250 C   0  0  0  0  0  0  0  0  0  0  0  0
  -11.0320   14.6580  -38.0030 C   0  0  0  0  0  0  0  0  0  0  0  0
   -7.6750    9.9230  -32.2970 C   0  0  0  0  0  0  0  0  0  0  0  0
   -8.1830    8.5770  -34.4040 C   0  0  2  0  0  0  0  0  0  0  0  0
  -13.4670   14.3010  -36.6620 C   0  0  0  0  0  0  0  0  0  0  0  0
  -12.1840   15.4150  -38.3560 C   0  0  0  0  0  0  0  0  0  0  0  0
   -7.2530   11.2580  -31.6380 C   0  0  1  0  0  0  0  0  0  0  0  0
   -8.1980    8.6230  -35.9360 C   0  0  0  0  0  0  0  0  0  0  0  0
   -9.8310    8.1200  -33.8380 R   0  0  0  0  0  0  0  0  0  0  0  0
  -13.4100   15.2640  -37.6860 C   0  0  0  0  0  0  0  0  0  0  0  0
   -7.1040   11.1020  -30.1450 C   0  0  0  0  0  0  0  0  0  0  0  0
   -5.9010   11.8850  -31.9840 C   0  0  0  0  0  0  0  0  0  0  0  0
   -6.8090    8.9220  -36.4600 C   0  0  0  0  0  0  0  0  0  0  0  0
   -7.8010   10.3100  -29.5070 O   0  0  0  0  0  0  0  0  0  0  0  0
   -6.2280   11.9150  -29.7100 N   0  0  0  0  0  0  0  0  0  0  0  0
   -5.4330   12.6240  -30.7080 C   0  0  0  0  0  0  0  0  0  0  0  0
   -6.6580    9.7290  -37.6550 O   0  0  0  0  0  0  0  0  0  0  0  0
   -5.8080    8.4980  -35.8980 O   0  0  0  0  0  0  0  0  0  0  0  0
   -5.3610   10.2030  -38.0740 C   0  0  0  0  0  0  0  0  0  0  0  0
   -4.5750    9.1110  -38.7950 C   0  0  0  0  0  0  0  0  0  0  0  0
  1  2  1  0
  2  3  1  0
  3  4  1  0
  3  5  2  0
  4  6  1  0
  6  7  1  1
  6  8  1  0
  9  7  1  0
  8 10  1  0
  8 11  2  0
 12  9  2  0
 13  9  1  0
 10 14  1  0
 13 15  1  0
 14 16  1  0
 14 17  1  6
 15 18  1  0
 15 19  1  0
 15 20  1  0
 16 21  2  0
 16 22  1  0
 17 23  1  0
 22 24  1  0
 23 25  2  0
 23 26  1  0
 24 27  1  1
 24 28  1  0
 29 25  1  0
 30 26  2  0
 31 27  1  6
 28 32  1  0
 28 33  1  1
 29 34  2  0
 34 30  1  0
 31 35  1  0
 31 36  1  0
 32 37  1  0
 35 38  2  0
 35 39  1  0
 40 36  1  0
 37 41  1  0
 37 42  2  0
 39 40  1  0
 43 41  1  0
 43 44  1  0
V   33 *
A    2
 O15
A    3
 C17
A    4
 N21
A    5
 O19
A    6
 C23
A    7
 C25
A    8
 C31
A    9
 C14
A   10
 N33
A   11
 O35
A   12
 O1 
A   13
 O2 
A   14
 C37
A   15
 C29
A   16
 C39
A   17
 C41
A   18
 C12
A   19
 C43
A   20
 C45
A   21
 O47
A   22
 N49
A   23
 C51
A   24
 C57
A   25
 C53
A   26
 C55
A   27
 C59
A   28
 C63
A   29
 C7 
A   30
 C11
A   31
 C61
A   32
 C82
A   33
 X  
A   34
 C9 
A   35
 C65
A   36
 C73
A   37
 C84
A   38
 O66
A   39
 N69
A   40
 C71
A   41
 O86
A   42
 O88
A   43
 C3 
A   44
 C5 
M  END
>  <XChem_code>  (252) 
G83§1

>  <Occupancy>  (252) 
[1.0, 1.0, 1.0, 1.0, 1.0, 1.0, 1.0, 1.0, 1.0, 1.0, 1.0, 1.0, 1.0, 1.0, 1.0, 1.0, 1.0, 1.0, 1.0, 1.0, 1.0, 1.0, 1.0, 1.0, 1.0, 1.0, 1.0, 1.0, 1.0, 1.0, 1.0, 1.0, 1.0, 1.0, 1.0, 1.0, 1.0, 1.0, 1.0, 1.0, 1.0, 1.0, 1.0, 1.0, 1.0, 1.0, 1.0, 1.0, 1.0, 1.0]

>  <TempFactor>  (252) 
[21.5, 44.89, 24.36, 42.16, 38.25, 23.95, 40.64, 20.41, 29.29, 22.5, 27.31, 23.15, 28.56, 41.84, 29.6, 38.53, 33.37, 31.58, 30.86, 27.88, 28.97, 31.52, 43.05, 27.66, 27.42, 21.95, 25.67, 24.02, 25.01, 43.36, 43.87, 19.31, 17.05, 26.62, 26.73, 28.95, 20.4, 17.34, 20.74, 21.57, 21.69, 20.06, 20.47, 18.67, 21.64, 27.5, 29.51, 35.17, 31.37, 18.86]

>  <accession>  (252) 
3ZZC_A

>  <description>  (252) 
Chain A, 3C PROTEINASE [Coxsackievirus B3]

>  <evalue>  (252) 
7.4865399999999999e-87

>  <pdb_code>  (252) 
3ZZC

>  <chain>  (252) 
A

>  <ligands>  (252) 
[{'chain_id': 'A', 'author_residue_number': 1181, 'author_insertion_code': '', 'chem_comp_id': 'G83', 'alternate_conformers': 0, 'entity_id': 2, 'struct_asym_id': 'B', 'residue_number': 1, 'chem_comp_name': 'ETHYL (5S,8S,11R)-8-BENZYL-5-(2-TERT-BUTOXY-2-OXOETHYL)-3,6,9-TRIOXO-11-{[(3S)-2-OXOPYRROLIDIN-3-YL]METHYL}-1-PHENYL-2-OXA-4,7,10-TRIAZATETRADECAN-14-OATE', 'weight': 680.788, 'carbohydrate_polymer': False, 'branch_name': ''}]

>  <ligand_codes>  (252) 
['G83']

>  <cofactor_codes>  (252) 
[]

>  <has_cofactor>  (252) 
False

>  <covalent>  (252) 
True

>  <base_name>  (252) 
3ZZC

>  <lig_resn>  (252) 
G83

>  <lig_resi>  (252) 
1181

>  <lig_chain>  (252) 
A

>  <lig_segi>  (252) 
B

>  <lig_alt>  (252) 


>  <polymer_chain>  (252) 
A

>  <single_smiles>  (252) 
CCOC(=O)CC[C@H](C[C@@H]1CCNC1=O)NC(=O)[C@H](Cc2ccccc2)NC(=O)[C@H](CC(=O)OC(C)(C)C)NC(=O)OCc3ccccc3

$$$$
G83P1S94
     RDKit          3D

 44 45  0  0  0  0  0  0  0  0999 V2000
   -9.8940   12.8970  -36.5940 C   0  0  0  0  0  0  0  0  0  0  0  0
   -9.6510   12.9770  -35.0820 C   0  0  2  0  0  0  0  0  0  0  0  0
   -9.2610   14.3500  -34.7310 N   0  0  0  0  0  0  0  0  0  0  0  0
   -8.4620   12.0930  -34.7840 C   0  0  0  0  0  0  0  0  0  0  0  0
   -9.0700   14.7310  -33.4520 C   0  0  0  0  0  0  0  0  0  0  0  0
   -7.3180   12.4750  -35.0590 O   0  0  0  0  0  0  0  0  0  0  0  0
   -8.7450   10.9170  -34.2200 N   0  0  0  0  0  0  0  0  0  0  0  0
   -8.5890   16.1350  -33.2460 C   0  0  1  0  0  0  0  0  0  0  0  0
   -9.1660   13.9920  -32.4630 O   0  0  0  0  0  0  0  0  0  0  0  0
   -7.7310    9.9410  -33.8290 C   0  0  1  0  0  0  0  0  0  0  0  0
   -8.9270   16.6710  -31.9560 N   0  0  0  0  0  0  0  0  0  0  0  0
   -7.0940   15.9700  -33.0860 C   0  0  0  0  0  0  0  0  0  0  0  0
   -7.6750    9.9230  -32.2970 C   0  0  0  0  0  0  0  0  0  0  0  0
   -8.1830    8.5770  -34.4040 C   0  0  2  0  0  0  0  0  0  0  0  0
   -9.6140   17.8180  -31.9050 C   0  0  0  0  0  0  0  0  0  0  0  0
   -6.3360   17.1850  -33.4620 C   0  0  0  0  0  0  0  0  0  0  0  0
   -7.2530   11.2580  -31.6380 C   0  0  1  0  0  0  0  0  0  0  0  0
   -8.1980    8.6230  -35.9360 C   0  0  0  0  0  0  0  0  0  0  0  0
   -9.8310    8.1200  -33.8380 R   0  0  0  0  0  0  0  0  0  0  0  0
   -9.9650   18.3270  -30.5810 O   0  0  0  0  0  0  0  0  0  0  0  0
   -9.9760   18.4340  -32.9180 O   0  0  0  0  0  0  0  0  0  0  0  0
   -6.4670   17.7660  -34.5460 O   0  0  0  0  0  0  0  0  0  0  0  0
   -5.3760   17.6500  -32.4930 O   0  0  0  0  0  0  0  0  0  0  0  0
   -7.1040   11.1020  -30.1450 C   0  0  0  0  0  0  0  0  0  0  0  0
   -5.9010   11.8850  -31.9840 C   0  0  0  0  0  0  0  0  0  0  0  0
   -6.8090    8.9220  -36.4600 C   0  0  0  0  0  0  0  0  0  0  0  0
  -10.3020   19.6950  -30.3210 C   0  0  0  0  0  0  0  0  0  0  0  0
   -4.0330   17.1570  -32.4230 C   0  0  0  0  0  0  0  0  0  0  0  0
   -7.8010   10.3100  -29.5070 O   0  0  0  0  0  0  0  0  0  0  0  0
   -6.2280   11.9150  -29.7100 N   0  0  0  0  0  0  0  0  0  0  0  0
   -5.4330   12.6240  -30.7080 C   0  0  0  0  0  0  0  0  0  0  0  0
   -6.6580    9.7290  -37.6550 O   0  0  0  0  0  0  0  0  0  0  0  0
   -5.8080    8.4980  -35.8980 O   0  0  0  0  0  0  0  0  0  0  0  0
  -10.4040   19.8340  -28.8340 C   0  0  0  0  0  0  0  0  0  0  0  0
   -3.6770   16.1600  -33.5370 C   0  0  0  0  0  0  0  0  0  0  0  0
   -3.9520   16.4650  -31.0680 C   0  0  0  0  0  0  0  0  0  0  0  0
   -3.0820   18.3540  -32.5240 C   0  0  0  0  0  0  0  0  0  0  0  0
   -5.3610   10.2030  -38.0740 C   0  0  0  0  0  0  0  0  0  0  0  0
   -9.6890   20.8420  -28.1960 C   0  0  0  0  0  0  0  0  0  0  0  0
  -11.1970   18.9310  -28.1220 C   0  0  0  0  0  0  0  0  0  0  0  0
   -4.5750    9.1110  -38.7950 C   0  0  0  0  0  0  0  0  0  0  0  0
   -9.7810   20.9510  -26.7880 C   0  0  0  0  0  0  0  0  0  0  0  0
  -11.3130   19.0390  -26.7440 C   0  0  0  0  0  0  0  0  0  0  0  0
  -10.5960   20.0640  -26.0750 C   0  0  0  0  0  0  0  0  0  0  0  0
  2  1  1  6
  3  2  1  0
  2  4  1  0
  5  3  1  0
  4  6  2  0
  4  7  1  0
  8  5  1  0
  5  9  2  0
  7 10  1  0
 11  8  1  0
  8 12  1  1
 10 13  1  1
 10 14  1  0
 15 11  1  0
 16 12  1  0
 17 13  1  6
 14 18  1  0
 14 19  1  1
 20 15  1  0
 15 21  2  0
 22 16  2  0
 23 16  1  0
 17 24  1  0
 17 25  1  0
 18 26  1  0
 27 20  1  0
 23 28  1  0
 24 29  2  0
 24 30  1  0
 31 25  1  0
 26 32  1  0
 26 33  2  0
 34 27  1  0
 28 35  1  0
 28 36  1  0
 28 37  1  0
 30 31  1  0
 38 32  1  0
 39 34  2  0
 34 40  1  0
 38 41  1  0
 42 39  1  0
 40 43  2  0
 42 44  2  0
 43 44  1  0
V   19 *
A    2
 C37
A    3
 N33
A    4
 C39
A    5
 C31
A    6
 O47
A    7
 N49
A    8
 C23
A    9
 O35
A   10
 C57
A   11
 N21
A   12
 C25
A   13
 C59
A   14
 C63
A   15
 C17
A   16
 C14
A   17
 C61
A   18
 C82
A   19
 X  
A   20
 O15
A   21
 O19
A   22
 O1 
A   23
 O2 
A   24
 C65
A   25
 C73
A   26
 C84
A   27
 C13
A   28
 C29
A   29
 O66
A   30
 N69
A   31
 C71
A   32
 O86
A   33
 O88
A   34
 C4 
A   35
 C12
A   36
 C43
A   37
 C45
A   38
 C3 
A   39
 C2 
A   40
 C6 
A   41
 C5 
A   42
 C1 
A   43
 C8 
A   44
 C10
M  END
>  <XChem_code>  (253) 
G83§1

>  <Occupancy>  (253) 
[1.0, 1.0, 1.0, 1.0, 1.0, 1.0, 1.0, 1.0, 1.0, 1.0, 1.0, 1.0, 1.0, 1.0, 1.0, 1.0, 1.0, 1.0, 1.0, 1.0, 1.0, 1.0, 1.0, 1.0, 1.0, 1.0, 1.0, 1.0, 1.0, 1.0, 1.0, 1.0, 1.0, 1.0, 1.0, 1.0, 1.0, 1.0, 1.0, 1.0, 1.0, 1.0, 1.0, 1.0, 1.0, 1.0, 1.0, 1.0, 1.0, 1.0]

>  <TempFactor>  (253) 
[21.5, 44.89, 24.36, 42.16, 38.25, 23.95, 40.64, 20.41, 29.29, 22.5, 27.31, 23.15, 28.56, 41.84, 29.6, 38.53, 33.37, 31.58, 30.86, 27.88, 28.97, 31.52, 43.05, 27.66, 27.42, 21.95, 25.67, 24.02, 25.01, 43.36, 43.87, 19.31, 17.05, 26.62, 26.73, 28.95, 20.4, 17.34, 20.74, 21.57, 21.69, 20.06, 20.47, 18.67, 21.64, 27.5, 29.51, 35.17, 31.37, 18.86]

>  <accession>  (253) 
3ZZC_A

>  <description>  (253) 
Chain A, 3C PROTEINASE [Coxsackievirus B3]

>  <evalue>  (253) 
7.4865399999999999e-87

>  <pdb_code>  (253) 
3ZZC

>  <chain>  (253) 
A

>  <ligands>  (253) 
[{'chain_id': 'A', 'author_residue_number': 1181, 'author_insertion_code': '', 'chem_comp_id': 'G83', 'alternate_conformers': 0, 'entity_id': 2, 'struct_asym_id': 'B', 'residue_number': 1, 'chem_comp_name': 'ETHYL (5S,8S,11R)-8-BENZYL-5-(2-TERT-BUTOXY-2-OXOETHYL)-3,6,9-TRIOXO-11-{[(3S)-2-OXOPYRROLIDIN-3-YL]METHYL}-1-PHENYL-2-OXA-4,7,10-TRIAZATETRADECAN-14-OATE', 'weight': 680.788, 'carbohydrate_polymer': False, 'branch_name': ''}]

>  <ligand_codes>  (253) 
['G83']

>  <cofactor_codes>  (253) 
[]

>  <has_cofactor>  (253) 
False

>  <covalent>  (253) 
True

>  <base_name>  (253) 
3ZZC

>  <lig_resn>  (253) 
G83

>  <lig_resi>  (253) 
1181

>  <lig_chain>  (253) 
A

>  <lig_segi>  (253) 
B

>  <lig_alt>  (253) 


>  <polymer_chain>  (253) 
A

>  <single_smiles>  (253) 
CCOC(=O)CC[C@H](C[C@@H]1CCNC1=O)NC(=O)[C@H](Cc2ccccc2)NC(=O)[C@H](CC(=O)OC(C)(C)C)NC(=O)OCc3ccccc3

$$$$
G83P1S95
     RDKit          3D

 39 40  0  0  0  0  0  0  0  0999 V2000
   -7.6750    9.9230  -32.2970 C   0  0  0  0  0  0  0  0  0  0  0  0
   -7.7310    9.9410  -33.8290 C   0  0  2  0  0  0  0  0  0  0  0  0
   -8.7450   10.9170  -34.2200 N   0  0  0  0  0  0  0  0  0  0  0  0
   -8.1830    8.5770  -34.4040 C   0  0  2  0  0  0  0  0  0  0  0  0
   -8.4620   12.0930  -34.7840 C   0  0  0  0  0  0  0  0  0  0  0  0
   -8.1980    8.6230  -35.9360 C   0  0  0  0  0  0  0  0  0  0  0  0
   -9.8310    8.1200  -33.8380 R   0  0  0  0  0  0  0  0  0  0  0  0
   -9.6510   12.9770  -35.0820 C   0  0  1  0  0  0  0  0  0  0  0  0
   -7.3180   12.4750  -35.0590 O   0  0  0  0  0  0  0  0  0  0  0  0
   -6.8090    8.9220  -36.4600 C   0  0  0  0  0  0  0  0  0  0  0  0
   -9.2610   14.3500  -34.7310 N   0  0  0  0  0  0  0  0  0  0  0  0
   -9.8940   12.8970  -36.5940 C   0  0  0  0  0  0  0  0  0  0  0  0
   -6.6580    9.7290  -37.6550 O   0  0  0  0  0  0  0  0  0  0  0  0
   -5.8080    8.4980  -35.8980 O   0  0  0  0  0  0  0  0  0  0  0  0
   -9.0700   14.7310  -33.4520 C   0  0  0  0  0  0  0  0  0  0  0  0
  -11.1210   13.7000  -36.9770 C   0  0  0  0  0  0  0  0  0  0  0  0
   -5.3610   10.2030  -38.0740 C   0  0  0  0  0  0  0  0  0  0  0  0
   -8.5890   16.1350  -33.2460 C   0  0  2  0  0  0  0  0  0  0  0  0
   -9.1660   13.9920  -32.4630 O   0  0  0  0  0  0  0  0  0  0  0  0
  -12.3400   13.5180  -36.3250 C   0  0  0  0  0  0  0  0  0  0  0  0
  -11.0320   14.6580  -38.0030 C   0  0  0  0  0  0  0  0  0  0  0  0
   -4.5750    9.1110  -38.7950 C   0  0  0  0  0  0  0  0  0  0  0  0
   -7.0940   15.9700  -33.0860 C   0  0  0  0  0  0  0  0  0  0  0  0
   -8.9270   16.6710  -31.9560 N   0  0  0  0  0  0  0  0  0  0  0  0
  -13.4670   14.3010  -36.6620 C   0  0  0  0  0  0  0  0  0  0  0  0
  -12.1840   15.4150  -38.3560 C   0  0  0  0  0  0  0  0  0  0  0  0
   -6.3360   17.1850  -33.4620 C   0  0  0  0  0  0  0  0  0  0  0  0
   -9.6140   17.8180  -31.9050 C   0  0  0  0  0  0  0  0  0  0  0  0
  -13.4100   15.2640  -37.6860 C   0  0  0  0  0  0  0  0  0  0  0  0
   -6.4670   17.7660  -34.5460 O   0  0  0  0  0  0  0  0  0  0  0  0
   -9.9650   18.3270  -30.5810 O   0  0  0  0  0  0  0  0  0  0  0  0
   -9.9760   18.4340  -32.9180 O   0  0  0  0  0  0  0  0  0  0  0  0
  -10.3020   19.6950  -30.3210 C   0  0  0  0  0  0  0  0  0  0  0  0
  -10.4040   19.8340  -28.8340 C   0  0  0  0  0  0  0  0  0  0  0  0
   -9.6890   20.8420  -28.1960 C   0  0  0  0  0  0  0  0  0  0  0  0
  -11.1970   18.9310  -28.1220 C   0  0  0  0  0  0  0  0  0  0  0  0
   -9.7810   20.9510  -26.7880 C   0  0  0  0  0  0  0  0  0  0  0  0
  -11.3130   19.0390  -26.7440 C   0  0  0  0  0  0  0  0  0  0  0  0
  -10.5960   20.0640  -26.0750 C   0  0  0  0  0  0  0  0  0  0  0  0
  2  1  1  1
  3  2  1  0
  2  4  1  0
  5  3  1  0
  4  6  1  0
  4  7  1  1
  8  5  1  0
  5  9  2  0
  6 10  1  0
 11  8  1  0
  8 12  1  6
 10 13  1  0
 10 14  2  0
 15 11  1  0
 12 16  1  0
 17 13  1  0
 18 15  1  0
 15 19  2  0
 16 20  2  0
 16 21  1  0
 17 22  1  0
 18 23  1  1
 24 18  1  0
 25 20  1  0
 26 21  2  0
 27 23  1  0
 28 24  1  0
 25 29  2  0
 29 26  1  0
 30 27  2  0
 31 28  1  0
 28 32  2  0
 33 31  1  0
 34 33  1  0
 35 34  2  0
 34 36  1  0
 37 35  1  0
 36 38  2  0
 37 39  2  0
 38 39  1  0
V    7 *
A    2
 C57
A    3
 N49
A    4
 C63
A    5
 C39
A    6
 C82
A    7
 X  
A    8
 C37
A    9
 O47
A   10
 C84
A   11
 N33
A   12
 C41
A   13
 O86
A   14
 O88
A   15
 C31
A   16
 C51
A   17
 C3 
A   18
 C23
A   19
 O35
A   20
 C53
A   21
 C55
A   22
 C5 
A   23
 C25
A   24
 N21
A   25
 C7 
A   26
 C11
A   28
 C17
A   29
 C9 
A   30
 O1 
A   31
 O15
A   32
 O19
A   33
 C13
A   34
 C4 
A   35
 C2 
A   36
 C6 
A   37
 C1 
A   38
 C8 
A   39
 C10
M  END
>  <XChem_code>  (254) 
G83§1

>  <Occupancy>  (254) 
[1.0, 1.0, 1.0, 1.0, 1.0, 1.0, 1.0, 1.0, 1.0, 1.0, 1.0, 1.0, 1.0, 1.0, 1.0, 1.0, 1.0, 1.0, 1.0, 1.0, 1.0, 1.0, 1.0, 1.0, 1.0, 1.0, 1.0, 1.0, 1.0, 1.0, 1.0, 1.0, 1.0, 1.0, 1.0, 1.0, 1.0, 1.0, 1.0, 1.0, 1.0, 1.0, 1.0, 1.0, 1.0, 1.0, 1.0, 1.0, 1.0, 1.0]

>  <TempFactor>  (254) 
[21.5, 44.89, 24.36, 42.16, 38.25, 23.95, 40.64, 20.41, 29.29, 22.5, 27.31, 23.15, 28.56, 41.84, 29.6, 38.53, 33.37, 31.58, 30.86, 27.88, 28.97, 31.52, 43.05, 27.66, 27.42, 21.95, 25.67, 24.02, 25.01, 43.36, 43.87, 19.31, 17.05, 26.62, 26.73, 28.95, 20.4, 17.34, 20.74, 21.57, 21.69, 20.06, 20.47, 18.67, 21.64, 27.5, 29.51, 35.17, 31.37, 18.86]

>  <accession>  (254) 
3ZZC_A

>  <description>  (254) 
Chain A, 3C PROTEINASE [Coxsackievirus B3]

>  <evalue>  (254) 
7.4865399999999999e-87

>  <pdb_code>  (254) 
3ZZC

>  <chain>  (254) 
A

>  <ligands>  (254) 
[{'chain_id': 'A', 'author_residue_number': 1181, 'author_insertion_code': '', 'chem_comp_id': 'G83', 'alternate_conformers': 0, 'entity_id': 2, 'struct_asym_id': 'B', 'residue_number': 1, 'chem_comp_name': 'ETHYL (5S,8S,11R)-8-BENZYL-5-(2-TERT-BUTOXY-2-OXOETHYL)-3,6,9-TRIOXO-11-{[(3S)-2-OXOPYRROLIDIN-3-YL]METHYL}-1-PHENYL-2-OXA-4,7,10-TRIAZATETRADECAN-14-OATE', 'weight': 680.788, 'carbohydrate_polymer': False, 'branch_name': ''}]

>  <ligand_codes>  (254) 
['G83']

>  <cofactor_codes>  (254) 
[]

>  <has_cofactor>  (254) 
False

>  <covalent>  (254) 
True

>  <base_name>  (254) 
3ZZC

>  <lig_resn>  (254) 
G83

>  <lig_resi>  (254) 
1181

>  <lig_chain>  (254) 
A

>  <lig_segi>  (254) 
B

>  <lig_alt>  (254) 


>  <polymer_chain>  (254) 
A

>  <single_smiles>  (254) 
CCOC(=O)CC[C@H](C[C@@H]1CCNC1=O)NC(=O)[C@H](Cc2ccccc2)NC(=O)[C@H](CC(=O)OC(C)(C)C)NC(=O)OCc3ccccc3

$$$$
G83P1S96
     RDKit          3D

 39 40  0  0  0  0  0  0  0  0999 V2000
  -10.3020   19.6950  -30.3210 C   0  0  0  0  0  0  0  0  0  0  0  0
   -9.9650   18.3270  -30.5810 O   0  0  0  0  0  0  0  0  0  0  0  0
   -9.6140   17.8180  -31.9050 C   0  0  0  0  0  0  0  0  0  0  0  0
   -8.9270   16.6710  -31.9560 N   0  0  0  0  0  0  0  0  0  0  0  0
   -9.9760   18.4340  -32.9180 O   0  0  0  0  0  0  0  0  0  0  0  0
   -8.5890   16.1350  -33.2460 C   0  0  1  0  0  0  0  0  0  0  0  0
   -7.0940   15.9700  -33.0860 C   0  0  0  0  0  0  0  0  0  0  0  0
   -9.0700   14.7310  -33.4520 C   0  0  0  0  0  0  0  0  0  0  0  0
   -6.3360   17.1850  -33.4620 C   0  0  0  0  0  0  0  0  0  0  0  0
   -9.2610   14.3500  -34.7310 N   0  0  0  0  0  0  0  0  0  0  0  0
   -9.1660   13.9920  -32.4630 O   0  0  0  0  0  0  0  0  0  0  0  0
   -6.4670   17.7660  -34.5460 O   0  0  0  0  0  0  0  0  0  0  0  0
   -9.6510   12.9770  -35.0820 C   0  0  2  0  0  0  0  0  0  0  0  0
   -8.4620   12.0930  -34.7840 C   0  0  0  0  0  0  0  0  0  0  0  0
   -9.8940   12.8970  -36.5940 C   0  0  0  0  0  0  0  0  0  0  0  0
   -7.3180   12.4750  -35.0590 O   0  0  0  0  0  0  0  0  0  0  0  0
   -8.7450   10.9170  -34.2200 N   0  0  0  0  0  0  0  0  0  0  0  0
  -11.1210   13.7000  -36.9770 C   0  0  0  0  0  0  0  0  0  0  0  0
   -7.7310    9.9410  -33.8290 C   0  0  1  0  0  0  0  0  0  0  0  0
  -12.3400   13.5180  -36.3250 C   0  0  0  0  0  0  0  0  0  0  0  0
  -11.0320   14.6580  -38.0030 C   0  0  0  0  0  0  0  0  0  0  0  0
   -7.6750    9.9230  -32.2970 C   0  0  0  0  0  0  0  0  0  0  0  0
   -8.1830    8.5770  -34.4040 C   0  0  2  0  0  0  0  0  0  0  0  0
  -13.4670   14.3010  -36.6620 C   0  0  0  0  0  0  0  0  0  0  0  0
  -12.1840   15.4150  -38.3560 C   0  0  0  0  0  0  0  0  0  0  0  0
   -7.2530   11.2580  -31.6380 C   0  0  1  0  0  0  0  0  0  0  0  0
   -8.1980    8.6230  -35.9360 C   0  0  0  0  0  0  0  0  0  0  0  0
   -9.8310    8.1200  -33.8380 R   0  0  0  0  0  0  0  0  0  0  0  0
  -13.4100   15.2640  -37.6860 C   0  0  0  0  0  0  0  0  0  0  0  0
   -7.1040   11.1020  -30.1450 C   0  0  0  0  0  0  0  0  0  0  0  0
   -5.9010   11.8850  -31.9840 C   0  0  0  0  0  0  0  0  0  0  0  0
   -6.8090    8.9220  -36.4600 C   0  0  0  0  0  0  0  0  0  0  0  0
   -7.8010   10.3100  -29.5070 O   0  0  0  0  0  0  0  0  0  0  0  0
   -6.2280   11.9150  -29.7100 N   0  0  0  0  0  0  0  0  0  0  0  0
   -5.4330   12.6240  -30.7080 C   0  0  0  0  0  0  0  0  0  0  0  0
   -6.6580    9.7290  -37.6550 O   0  0  0  0  0  0  0  0  0  0  0  0
   -5.8080    8.4980  -35.8980 O   0  0  0  0  0  0  0  0  0  0  0  0
   -5.3610   10.2030  -38.0740 C   0  0  0  0  0  0  0  0  0  0  0  0
   -4.5750    9.1110  -38.7950 C   0  0  0  0  0  0  0  0  0  0  0  0
  1  2  1  0
  2  3  1  0
  3  4  1  0
  3  5  2  0
  4  6  1  0
  6  7  1  1
  6  8  1  0
  9  7  1  0
  8 10  1  0
  8 11  2  0
 12  9  2  0
 10 13  1  0
 13 14  1  0
 13 15  1  6
 14 16  2  0
 14 17  1  0
 15 18  1  0
 17 19  1  0
 18 20  2  0
 18 21  1  0
 19 22  1  1
 19 23  1  0
 24 20  1  0
 25 21  2  0
 26 22  1  6
 23 27  1  0
 23 28  1  1
 24 29  2  0
 29 25  1  0
 26 30  1  0
 26 31  1  0
 27 32  1  0
 30 33  2  0
 30 34  1  0
 35 31  1  0
 32 36  1  0
 32 37  2  0
 34 35  1  0
 38 36  1  0
 38 39  1  0
V   28 *
A    2
 O15
A    3
 C17
A    4
 N21
A    5
 O19
A    6
 C23
A    7
 C25
A    8
 C31
A   10
 N33
A   11
 O35
A   12
 O1 
A   13
 C37
A   14
 C39
A   15
 C41
A   16
 O47
A   17
 N49
A   18
 C51
A   19
 C57
A   20
 C53
A   21
 C55
A   22
 C59
A   23
 C63
A   24
 C7 
A   25
 C11
A   26
 C61
A   27
 C82
A   28
 X  
A   29
 C9 
A   30
 C65
A   31
 C73
A   32
 C84
A   33
 O66
A   34
 N69
A   35
 C71
A   36
 O86
A   37
 O88
A   38
 C3 
A   39
 C5 
M  END
>  <XChem_code>  (255) 
G83§1

>  <Occupancy>  (255) 
[1.0, 1.0, 1.0, 1.0, 1.0, 1.0, 1.0, 1.0, 1.0, 1.0, 1.0, 1.0, 1.0, 1.0, 1.0, 1.0, 1.0, 1.0, 1.0, 1.0, 1.0, 1.0, 1.0, 1.0, 1.0, 1.0, 1.0, 1.0, 1.0, 1.0, 1.0, 1.0, 1.0, 1.0, 1.0, 1.0, 1.0, 1.0, 1.0, 1.0, 1.0, 1.0, 1.0, 1.0, 1.0, 1.0, 1.0, 1.0, 1.0, 1.0]

>  <TempFactor>  (255) 
[21.5, 44.89, 24.36, 42.16, 38.25, 23.95, 40.64, 20.41, 29.29, 22.5, 27.31, 23.15, 28.56, 41.84, 29.6, 38.53, 33.37, 31.58, 30.86, 27.88, 28.97, 31.52, 43.05, 27.66, 27.42, 21.95, 25.67, 24.02, 25.01, 43.36, 43.87, 19.31, 17.05, 26.62, 26.73, 28.95, 20.4, 17.34, 20.74, 21.57, 21.69, 20.06, 20.47, 18.67, 21.64, 27.5, 29.51, 35.17, 31.37, 18.86]

>  <accession>  (255) 
3ZZC_A

>  <description>  (255) 
Chain A, 3C PROTEINASE [Coxsackievirus B3]

>  <evalue>  (255) 
7.4865399999999999e-87

>  <pdb_code>  (255) 
3ZZC

>  <chain>  (255) 
A

>  <ligands>  (255) 
[{'chain_id': 'A', 'author_residue_number': 1181, 'author_insertion_code': '', 'chem_comp_id': 'G83', 'alternate_conformers': 0, 'entity_id': 2, 'struct_asym_id': 'B', 'residue_number': 1, 'chem_comp_name': 'ETHYL (5S,8S,11R)-8-BENZYL-5-(2-TERT-BUTOXY-2-OXOETHYL)-3,6,9-TRIOXO-11-{[(3S)-2-OXOPYRROLIDIN-3-YL]METHYL}-1-PHENYL-2-OXA-4,7,10-TRIAZATETRADECAN-14-OATE', 'weight': 680.788, 'carbohydrate_polymer': False, 'branch_name': ''}]

>  <ligand_codes>  (255) 
['G83']

>  <cofactor_codes>  (255) 
[]

>  <has_cofactor>  (255) 
False

>  <covalent>  (255) 
True

>  <base_name>  (255) 
3ZZC

>  <lig_resn>  (255) 
G83

>  <lig_resi>  (255) 
1181

>  <lig_chain>  (255) 
A

>  <lig_segi>  (255) 
B

>  <lig_alt>  (255) 


>  <polymer_chain>  (255) 
A

>  <single_smiles>  (255) 
CCOC(=O)CC[C@H](C[C@@H]1CCNC1=O)NC(=O)[C@H](Cc2ccccc2)NC(=O)[C@H](CC(=O)OC(C)(C)C)NC(=O)OCc3ccccc3

$$$$
G83P1S97
     RDKit          3D

 39 40  0  0  0  0  0  0  0  0999 V2000
   -9.8940   12.8970  -36.5940 C   0  0  0  0  0  0  0  0  0  0  0  0
   -9.6510   12.9770  -35.0820 C   0  0  2  0  0  0  0  0  0  0  0  0
   -9.2610   14.3500  -34.7310 N   0  0  0  0  0  0  0  0  0  0  0  0
   -8.4620   12.0930  -34.7840 C   0  0  0  0  0  0  0  0  0  0  0  0
   -9.0700   14.7310  -33.4520 C   0  0  0  0  0  0  0  0  0  0  0  0
   -7.3180   12.4750  -35.0590 O   0  0  0  0  0  0  0  0  0  0  0  0
   -8.7450   10.9170  -34.2200 N   0  0  0  0  0  0  0  0  0  0  0  0
   -8.5890   16.1350  -33.2460 C   0  0  2  0  0  0  0  0  0  0  0  0
   -9.1660   13.9920  -32.4630 O   0  0  0  0  0  0  0  0  0  0  0  0
   -7.7310    9.9410  -33.8290 C   0  0  1  0  0  0  0  0  0  0  0  0
   -7.0940   15.9700  -33.0860 C   0  0  0  0  0  0  0  0  0  0  0  0
   -8.9270   16.6710  -31.9560 N   0  0  0  0  0  0  0  0  0  0  0  0
   -7.6750    9.9230  -32.2970 C   0  0  0  0  0  0  0  0  0  0  0  0
   -8.1830    8.5770  -34.4040 C   0  0  2  0  0  0  0  0  0  0  0  0
   -6.3360   17.1850  -33.4620 C   0  0  0  0  0  0  0  0  0  0  0  0
   -9.6140   17.8180  -31.9050 C   0  0  0  0  0  0  0  0  0  0  0  0
   -7.2530   11.2580  -31.6380 C   0  0  1  0  0  0  0  0  0  0  0  0
   -8.1980    8.6230  -35.9360 C   0  0  0  0  0  0  0  0  0  0  0  0
   -9.8310    8.1200  -33.8380 R   0  0  0  0  0  0  0  0  0  0  0  0
   -6.4670   17.7660  -34.5460 O   0  0  0  0  0  0  0  0  0  0  0  0
   -9.9650   18.3270  -30.5810 O   0  0  0  0  0  0  0  0  0  0  0  0
   -9.9760   18.4340  -32.9180 O   0  0  0  0  0  0  0  0  0  0  0  0
   -7.1040   11.1020  -30.1450 C   0  0  0  0  0  0  0  0  0  0  0  0
   -5.9010   11.8850  -31.9840 C   0  0  0  0  0  0  0  0  0  0  0  0
   -6.8090    8.9220  -36.4600 C   0  0  0  0  0  0  0  0  0  0  0  0
  -10.3020   19.6950  -30.3210 C   0  0  0  0  0  0  0  0  0  0  0  0
   -7.8010   10.3100  -29.5070 O   0  0  0  0  0  0  0  0  0  0  0  0
   -6.2280   11.9150  -29.7100 N   0  0  0  0  0  0  0  0  0  0  0  0
   -5.4330   12.6240  -30.7080 C   0  0  0  0  0  0  0  0  0  0  0  0
   -6.6580    9.7290  -37.6550 O   0  0  0  0  0  0  0  0  0  0  0  0
   -5.8080    8.4980  -35.8980 O   0  0  0  0  0  0  0  0  0  0  0  0
  -10.4040   19.8340  -28.8340 C   0  0  0  0  0  0  0  0  0  0  0  0
   -5.3610   10.2030  -38.0740 C   0  0  0  0  0  0  0  0  0  0  0  0
   -9.6890   20.8420  -28.1960 C   0  0  0  0  0  0  0  0  0  0  0  0
  -11.1970   18.9310  -28.1220 C   0  0  0  0  0  0  0  0  0  0  0  0
   -4.5750    9.1110  -38.7950 C   0  0  0  0  0  0  0  0  0  0  0  0
   -9.7810   20.9510  -26.7880 C   0  0  0  0  0  0  0  0  0  0  0  0
  -11.3130   19.0390  -26.7440 C   0  0  0  0  0  0  0  0  0  0  0  0
  -10.5960   20.0640  -26.0750 C   0  0  0  0  0  0  0  0  0  0  0  0
  2  1  1  6
  3  2  1  0
  2  4  1  0
  5  3  1  0
  4  6  2  0
  4  7  1  0
  8  5  1  0
  5  9  2  0
  7 10  1  0
  8 11  1  1
 12  8  1  0
 10 13  1  1
 10 14  1  0
 15 11  1  0
 16 12  1  0
 17 13  1  6
 14 18  1  0
 14 19  1  1
 20 15  2  0
 21 16  1  0
 16 22  2  0
 17 23  1  0
 17 24  1  0
 18 25  1  0
 26 21  1  0
 23 27  2  0
 23 28  1  0
 29 24  1  0
 25 30  1  0
 25 31  2  0
 32 26  1  0
 28 29  1  0
 33 30  1  0
 34 32  2  0
 32 35  1  0
 33 36  1  0
 37 34  1  0
 35 38  2  0
 37 39  2  0
 38 39  1  0
V   19 *
A    2
 C37
A    3
 N33
A    4
 C39
A    5
 C31
A    6
 O47
A    7
 N49
A    8
 C23
A    9
 O35
A   10
 C57
A   11
 C25
A   12
 N21
A   13
 C59
A   14
 C63
A   16
 C17
A   17
 C61
A   18
 C82
A   19
 X  
A   20
 O1 
A   21
 O15
A   22
 O19
A   23
 C65
A   24
 C73
A   25
 C84
A   26
 C13
A   27
 O66
A   28
 N69
A   29
 C71
A   30
 O86
A   31
 O88
A   32
 C4 
A   33
 C3 
A   34
 C2 
A   35
 C6 
A   36
 C5 
A   37
 C1 
A   38
 C8 
A   39
 C10
M  END
>  <XChem_code>  (256) 
G83§1

>  <Occupancy>  (256) 
[1.0, 1.0, 1.0, 1.0, 1.0, 1.0, 1.0, 1.0, 1.0, 1.0, 1.0, 1.0, 1.0, 1.0, 1.0, 1.0, 1.0, 1.0, 1.0, 1.0, 1.0, 1.0, 1.0, 1.0, 1.0, 1.0, 1.0, 1.0, 1.0, 1.0, 1.0, 1.0, 1.0, 1.0, 1.0, 1.0, 1.0, 1.0, 1.0, 1.0, 1.0, 1.0, 1.0, 1.0, 1.0, 1.0, 1.0, 1.0, 1.0, 1.0]

>  <TempFactor>  (256) 
[21.5, 44.89, 24.36, 42.16, 38.25, 23.95, 40.64, 20.41, 29.29, 22.5, 27.31, 23.15, 28.56, 41.84, 29.6, 38.53, 33.37, 31.58, 30.86, 27.88, 28.97, 31.52, 43.05, 27.66, 27.42, 21.95, 25.67, 24.02, 25.01, 43.36, 43.87, 19.31, 17.05, 26.62, 26.73, 28.95, 20.4, 17.34, 20.74, 21.57, 21.69, 20.06, 20.47, 18.67, 21.64, 27.5, 29.51, 35.17, 31.37, 18.86]

>  <accession>  (256) 
3ZZC_A

>  <description>  (256) 
Chain A, 3C PROTEINASE [Coxsackievirus B3]

>  <evalue>  (256) 
7.4865399999999999e-87

>  <pdb_code>  (256) 
3ZZC

>  <chain>  (256) 
A

>  <ligands>  (256) 
[{'chain_id': 'A', 'author_residue_number': 1181, 'author_insertion_code': '', 'chem_comp_id': 'G83', 'alternate_conformers': 0, 'entity_id': 2, 'struct_asym_id': 'B', 'residue_number': 1, 'chem_comp_name': 'ETHYL (5S,8S,11R)-8-BENZYL-5-(2-TERT-BUTOXY-2-OXOETHYL)-3,6,9-TRIOXO-11-{[(3S)-2-OXOPYRROLIDIN-3-YL]METHYL}-1-PHENYL-2-OXA-4,7,10-TRIAZATETRADECAN-14-OATE', 'weight': 680.788, 'carbohydrate_polymer': False, 'branch_name': ''}]

>  <ligand_codes>  (256) 
['G83']

>  <cofactor_codes>  (256) 
[]

>  <has_cofactor>  (256) 
False

>  <covalent>  (256) 
True

>  <base_name>  (256) 
3ZZC

>  <lig_resn>  (256) 
G83

>  <lig_resi>  (256) 
1181

>  <lig_chain>  (256) 
A

>  <lig_segi>  (256) 
B

>  <lig_alt>  (256) 


>  <polymer_chain>  (256) 
A

>  <single_smiles>  (256) 
CCOC(=O)CC[C@H](C[C@@H]1CCNC1=O)NC(=O)[C@H](Cc2ccccc2)NC(=O)[C@H](CC(=O)OC(C)(C)C)NC(=O)OCc3ccccc3

$$$$
G83P1S98
     RDKit          3D

 36 36  0  0  0  0  0  0  0  0999 V2000
   -7.6750    9.9230  -32.2970 C   0  0  0  0  0  0  0  0  0  0  0  0
   -7.7310    9.9410  -33.8290 C   0  0  2  0  0  0  0  0  0  0  0  0
   -8.7450   10.9170  -34.2200 N   0  0  0  0  0  0  0  0  0  0  0  0
   -8.1830    8.5770  -34.4040 C   0  0  2  0  0  0  0  0  0  0  0  0
   -8.4620   12.0930  -34.7840 C   0  0  0  0  0  0  0  0  0  0  0  0
   -8.1980    8.6230  -35.9360 C   0  0  0  0  0  0  0  0  0  0  0  0
   -9.8310    8.1200  -33.8380 R   0  0  0  0  0  0  0  0  0  0  0  0
   -9.6510   12.9770  -35.0820 C   0  0  1  0  0  0  0  0  0  0  0  0
   -7.3180   12.4750  -35.0590 O   0  0  0  0  0  0  0  0  0  0  0  0
   -6.8090    8.9220  -36.4600 C   0  0  0  0  0  0  0  0  0  0  0  0
   -9.2610   14.3500  -34.7310 N   0  0  0  0  0  0  0  0  0  0  0  0
   -9.8940   12.8970  -36.5940 C   0  0  0  0  0  0  0  0  0  0  0  0
   -6.6580    9.7290  -37.6550 O   0  0  0  0  0  0  0  0  0  0  0  0
   -5.8080    8.4980  -35.8980 O   0  0  0  0  0  0  0  0  0  0  0  0
   -9.0700   14.7310  -33.4520 C   0  0  0  0  0  0  0  0  0  0  0  0
  -11.1210   13.7000  -36.9770 C   0  0  0  0  0  0  0  0  0  0  0  0
   -5.3610   10.2030  -38.0740 C   0  0  0  0  0  0  0  0  0  0  0  0
   -8.5890   16.1350  -33.2460 C   0  0  1  0  0  0  0  0  0  0  0  0
   -9.1660   13.9920  -32.4630 O   0  0  0  0  0  0  0  0  0  0  0  0
  -12.3400   13.5180  -36.3250 C   0  0  0  0  0  0  0  0  0  0  0  0
  -11.0320   14.6580  -38.0030 C   0  0  0  0  0  0  0  0  0  0  0  0
   -4.5750    9.1110  -38.7950 C   0  0  0  0  0  0  0  0  0  0  0  0
   -8.9270   16.6710  -31.9560 N   0  0  0  0  0  0  0  0  0  0  0  0
   -7.0940   15.9700  -33.0860 C   0  0  0  0  0  0  0  0  0  0  0  0
  -13.4670   14.3010  -36.6620 C   0  0  0  0  0  0  0  0  0  0  0  0
  -12.1840   15.4150  -38.3560 C   0  0  0  0  0  0  0  0  0  0  0  0
   -9.6140   17.8180  -31.9050 C   0  0  0  0  0  0  0  0  0  0  0  0
   -6.3360   17.1850  -33.4620 C   0  0  0  0  0  0  0  0  0  0  0  0
  -13.4100   15.2640  -37.6860 C   0  0  0  0  0  0  0  0  0  0  0  0
   -9.9760   18.4340  -32.9180 O   0  0  0  0  0  0  0  0  0  0  0  0
   -6.4670   17.7660  -34.5460 O   0  0  0  0  0  0  0  0  0  0  0  0
   -5.3760   17.6500  -32.4930 O   0  0  0  0  0  0  0  0  0  0  0  0
   -4.0330   17.1570  -32.4230 C   0  0  0  0  0  0  0  0  0  0  0  0
   -3.6770   16.1600  -33.5370 C   0  0  0  0  0  0  0  0  0  0  0  0
   -3.9520   16.4650  -31.0680 C   0  0  0  0  0  0  0  0  0  0  0  0
   -3.0820   18.3540  -32.5240 C   0  0  0  0  0  0  0  0  0  0  0  0
  2  1  1  1
  3  2  1  0
  2  4  1  0
  5  3  1  0
  4  6  1  0
  4  7  1  1
  8  5  1  0
  5  9  2  0
  6 10  1  0
 11  8  1  0
  8 12  1  6
 10 13  1  0
 10 14  2  0
 15 11  1  0
 12 16  1  0
 17 13  1  0
 18 15  1  0
 15 19  2  0
 16 20  2  0
 16 21  1  0
 17 22  1  0
 23 18  1  0
 18 24  1  1
 25 20  1  0
 26 21  2  0
 27 23  1  0
 28 24  1  0
 25 29  2  0
 29 26  1  0
 27 30  2  0
 31 28  2  0
 32 28  1  0
 32 33  1  0
 33 34  1  0
 33 35  1  0
 33 36  1  0
V    7 *
A    2
 C57
A    3
 N49
A    4
 C63
A    5
 C39
A    6
 C82
A    7
 X  
A    8
 C37
A    9
 O47
A   10
 C84
A   11
 N33
A   12
 C41
A   13
 O86
A   14
 O88
A   15
 C31
A   16
 C51
A   17
 C3 
A   18
 C23
A   19
 O35
A   20
 C53
A   21
 C55
A   22
 C5 
A   23
 N21
A   24
 C25
A   25
 C7 
A   26
 C11
A   28
 C14
A   29
 C9 
A   30
 O19
A   31
 O1 
A   32
 O2 
A   33
 C29
A   34
 C12
A   35
 C43
A   36
 C45
M  END
>  <XChem_code>  (257) 
G83§1

>  <Occupancy>  (257) 
[1.0, 1.0, 1.0, 1.0, 1.0, 1.0, 1.0, 1.0, 1.0, 1.0, 1.0, 1.0, 1.0, 1.0, 1.0, 1.0, 1.0, 1.0, 1.0, 1.0, 1.0, 1.0, 1.0, 1.0, 1.0, 1.0, 1.0, 1.0, 1.0, 1.0, 1.0, 1.0, 1.0, 1.0, 1.0, 1.0, 1.0, 1.0, 1.0, 1.0, 1.0, 1.0, 1.0, 1.0, 1.0, 1.0, 1.0, 1.0, 1.0, 1.0]

>  <TempFactor>  (257) 
[21.5, 44.89, 24.36, 42.16, 38.25, 23.95, 40.64, 20.41, 29.29, 22.5, 27.31, 23.15, 28.56, 41.84, 29.6, 38.53, 33.37, 31.58, 30.86, 27.88, 28.97, 31.52, 43.05, 27.66, 27.42, 21.95, 25.67, 24.02, 25.01, 43.36, 43.87, 19.31, 17.05, 26.62, 26.73, 28.95, 20.4, 17.34, 20.74, 21.57, 21.69, 20.06, 20.47, 18.67, 21.64, 27.5, 29.51, 35.17, 31.37, 18.86]

>  <accession>  (257) 
3ZZC_A

>  <description>  (257) 
Chain A, 3C PROTEINASE [Coxsackievirus B3]

>  <evalue>  (257) 
7.4865399999999999e-87

>  <pdb_code>  (257) 
3ZZC

>  <chain>  (257) 
A

>  <ligands>  (257) 
[{'chain_id': 'A', 'author_residue_number': 1181, 'author_insertion_code': '', 'chem_comp_id': 'G83', 'alternate_conformers': 0, 'entity_id': 2, 'struct_asym_id': 'B', 'residue_number': 1, 'chem_comp_name': 'ETHYL (5S,8S,11R)-8-BENZYL-5-(2-TERT-BUTOXY-2-OXOETHYL)-3,6,9-TRIOXO-11-{[(3S)-2-OXOPYRROLIDIN-3-YL]METHYL}-1-PHENYL-2-OXA-4,7,10-TRIAZATETRADECAN-14-OATE', 'weight': 680.788, 'carbohydrate_polymer': False, 'branch_name': ''}]

>  <ligand_codes>  (257) 
['G83']

>  <cofactor_codes>  (257) 
[]

>  <has_cofactor>  (257) 
False

>  <covalent>  (257) 
True

>  <base_name>  (257) 
3ZZC

>  <lig_resn>  (257) 
G83

>  <lig_resi>  (257) 
1181

>  <lig_chain>  (257) 
A

>  <lig_segi>  (257) 
B

>  <lig_alt>  (257) 


>  <polymer_chain>  (257) 
A

>  <single_smiles>  (257) 
CCOC(=O)CC[C@H](C[C@@H]1CCNC1=O)NC(=O)[C@H](Cc2ccccc2)NC(=O)[C@H](CC(=O)OC(C)(C)C)NC(=O)OCc3ccccc3

$$$$
G83P1S99
     RDKit          3D

 36 36  0  0  0  0  0  0  0  0999 V2000
   -9.8940   12.8970  -36.5940 C   0  0  0  0  0  0  0  0  0  0  0  0
   -9.6510   12.9770  -35.0820 C   0  0  2  0  0  0  0  0  0  0  0  0
   -9.2610   14.3500  -34.7310 N   0  0  0  0  0  0  0  0  0  0  0  0
   -8.4620   12.0930  -34.7840 C   0  0  0  0  0  0  0  0  0  0  0  0
   -9.0700   14.7310  -33.4520 C   0  0  0  0  0  0  0  0  0  0  0  0
   -7.3180   12.4750  -35.0590 O   0  0  0  0  0  0  0  0  0  0  0  0
   -8.7450   10.9170  -34.2200 N   0  0  0  0  0  0  0  0  0  0  0  0
   -8.5890   16.1350  -33.2460 C   0  0  1  0  0  0  0  0  0  0  0  0
   -9.1660   13.9920  -32.4630 O   0  0  0  0  0  0  0  0  0  0  0  0
   -7.7310    9.9410  -33.8290 C   0  0  1  0  0  0  0  0  0  0  0  0
   -8.9270   16.6710  -31.9560 N   0  0  0  0  0  0  0  0  0  0  0  0
   -7.0940   15.9700  -33.0860 C   0  0  0  0  0  0  0  0  0  0  0  0
   -7.6750    9.9230  -32.2970 C   0  0  0  0  0  0  0  0  0  0  0  0
   -8.1830    8.5770  -34.4040 C   0  0  2  0  0  0  0  0  0  0  0  0
   -9.6140   17.8180  -31.9050 C   0  0  0  0  0  0  0  0  0  0  0  0
   -6.3360   17.1850  -33.4620 C   0  0  0  0  0  0  0  0  0  0  0  0
   -7.2530   11.2580  -31.6380 C   0  0  1  0  0  0  0  0  0  0  0  0
   -8.1980    8.6230  -35.9360 C   0  0  0  0  0  0  0  0  0  0  0  0
   -9.8310    8.1200  -33.8380 R   0  0  0  0  0  0  0  0  0  0  0  0
   -9.9760   18.4340  -32.9180 O   0  0  0  0  0  0  0  0  0  0  0  0
   -6.4670   17.7660  -34.5460 O   0  0  0  0  0  0  0  0  0  0  0  0
   -5.3760   17.6500  -32.4930 O   0  0  0  0  0  0  0  0  0  0  0  0
   -7.1040   11.1020  -30.1450 C   0  0  0  0  0  0  0  0  0  0  0  0
   -5.9010   11.8850  -31.9840 C   0  0  0  0  0  0  0  0  0  0  0  0
   -6.8090    8.9220  -36.4600 C   0  0  0  0  0  0  0  0  0  0  0  0
   -4.0330   17.1570  -32.4230 C   0  0  0  0  0  0  0  0  0  0  0  0
   -7.8010   10.3100  -29.5070 O   0  0  0  0  0  0  0  0  0  0  0  0
   -6.2280   11.9150  -29.7100 N   0  0  0  0  0  0  0  0  0  0  0  0
   -5.4330   12.6240  -30.7080 C   0  0  0  0  0  0  0  0  0  0  0  0
   -6.6580    9.7290  -37.6550 O   0  0  0  0  0  0  0  0  0  0  0  0
   -5.8080    8.4980  -35.8980 O   0  0  0  0  0  0  0  0  0  0  0  0
   -3.6770   16.1600  -33.5370 C   0  0  0  0  0  0  0  0  0  0  0  0
   -3.9520   16.4650  -31.0680 C   0  0  0  0  0  0  0  0  0  0  0  0
   -3.0820   18.3540  -32.5240 C   0  0  0  0  0  0  0  0  0  0  0  0
   -5.3610   10.2030  -38.0740 C   0  0  0  0  0  0  0  0  0  0  0  0
   -4.5750    9.1110  -38.7950 C   0  0  0  0  0  0  0  0  0  0  0  0
  2  1  1  6
  3  2  1  0
  2  4  1  0
  5  3  1  0
  4  6  2  0
  4  7  1  0
  8  5  1  0
  5  9  2  0
  7 10  1  0
 11  8  1  0
  8 12  1  1
 10 13  1  1
 10 14  1  0
 15 11  1  0
 16 12  1  0
 17 13  1  6
 14 18  1  0
 14 19  1  1
 15 20  2  0
 21 16  2  0
 22 16  1  0
 17 23  1  0
 17 24  1  0
 18 25  1  0
 22 26  1  0
 23 27  2  0
 23 28  1  0
 29 24  1  0
 25 30  1  0
 25 31  2  0
 26 32  1  0
 26 33  1  0
 26 34  1  0
 28 29  1  0
 35 30  1  0
 35 36  1  0
V   19 *
A    2
 C37
A    3
 N33
A    4
 C39
A    5
 C31
A    6
 O47
A    7
 N49
A    8
 C23
A    9
 O35
A   10
 C57
A   11
 N21
A   12
 C25
A   13
 C59
A   14
 C63
A   16
 C14
A   17
 C61
A   18
 C82
A   19
 X  
A   20
 O19
A   21
 O1 
A   22
 O2 
A   23
 C65
A   24
 C73
A   25
 C84
A   26
 C29
A   27
 O66
A   28
 N69
A   29
 C71
A   30
 O86
A   31
 O88
A   32
 C12
A   33
 C43
A   34
 C45
A   35
 C3 
A   36
 C5 
M  END
>  <XChem_code>  (258) 
G83§1

>  <Occupancy>  (258) 
[1.0, 1.0, 1.0, 1.0, 1.0, 1.0, 1.0, 1.0, 1.0, 1.0, 1.0, 1.0, 1.0, 1.0, 1.0, 1.0, 1.0, 1.0, 1.0, 1.0, 1.0, 1.0, 1.0, 1.0, 1.0, 1.0, 1.0, 1.0, 1.0, 1.0, 1.0, 1.0, 1.0, 1.0, 1.0, 1.0, 1.0, 1.0, 1.0, 1.0, 1.0, 1.0, 1.0, 1.0, 1.0, 1.0, 1.0, 1.0, 1.0, 1.0]

>  <TempFactor>  (258) 
[21.5, 44.89, 24.36, 42.16, 38.25, 23.95, 40.64, 20.41, 29.29, 22.5, 27.31, 23.15, 28.56, 41.84, 29.6, 38.53, 33.37, 31.58, 30.86, 27.88, 28.97, 31.52, 43.05, 27.66, 27.42, 21.95, 25.67, 24.02, 25.01, 43.36, 43.87, 19.31, 17.05, 26.62, 26.73, 28.95, 20.4, 17.34, 20.74, 21.57, 21.69, 20.06, 20.47, 18.67, 21.64, 27.5, 29.51, 35.17, 31.37, 18.86]

>  <accession>  (258) 
3ZZC_A

>  <description>  (258) 
Chain A, 3C PROTEINASE [Coxsackievirus B3]

>  <evalue>  (258) 
7.4865399999999999e-87

>  <pdb_code>  (258) 
3ZZC

>  <chain>  (258) 
A

>  <ligands>  (258) 
[{'chain_id': 'A', 'author_residue_number': 1181, 'author_insertion_code': '', 'chem_comp_id': 'G83', 'alternate_conformers': 0, 'entity_id': 2, 'struct_asym_id': 'B', 'residue_number': 1, 'chem_comp_name': 'ETHYL (5S,8S,11R)-8-BENZYL-5-(2-TERT-BUTOXY-2-OXOETHYL)-3,6,9-TRIOXO-11-{[(3S)-2-OXOPYRROLIDIN-3-YL]METHYL}-1-PHENYL-2-OXA-4,7,10-TRIAZATETRADECAN-14-OATE', 'weight': 680.788, 'carbohydrate_polymer': False, 'branch_name': ''}]

>  <ligand_codes>  (258) 
['G83']

>  <cofactor_codes>  (258) 
[]

>  <has_cofactor>  (258) 
False

>  <covalent>  (258) 
True

>  <base_name>  (258) 
3ZZC

>  <lig_resn>  (258) 
G83

>  <lig_resi>  (258) 
1181

>  <lig_chain>  (258) 
A

>  <lig_segi>  (258) 
B

>  <lig_alt>  (258) 


>  <polymer_chain>  (258) 
A

>  <single_smiles>  (258) 
CCOC(=O)CC[C@H](C[C@@H]1CCNC1=O)NC(=O)[C@H](Cc2ccccc2)NC(=O)[C@H](CC(=O)OC(C)(C)C)NC(=O)OCc3ccccc3

$$$$
G83P1S100
     RDKit          3D

  4  3  0  0  0  0  0  0  0  0999 V2000
  -10.3020   19.6950  -30.3210 C   0  0  0  0  0  0  0  0  0  0  0  0
   -9.9650   18.3270  -30.5810 O   0  0  0  0  0  0  0  0  0  0  0  0
   -9.6140   17.8180  -31.9050 C   0  0  0  0  0  0  0  0  0  0  0  0
   -9.9760   18.4340  -32.9180 O   0  0  0  0  0  0  0  0  0  0  0  0
  1  2  1  0
  2  3  1  0
  3  4  2  0
A    2
 O15
A    4
 O19
M  END
>  <XChem_code>  (259) 
G83§1

>  <Occupancy>  (259) 
[1.0, 1.0, 1.0, 1.0, 1.0, 1.0, 1.0, 1.0, 1.0, 1.0, 1.0, 1.0, 1.0, 1.0, 1.0, 1.0, 1.0, 1.0, 1.0, 1.0, 1.0, 1.0, 1.0, 1.0, 1.0, 1.0, 1.0, 1.0, 1.0, 1.0, 1.0, 1.0, 1.0, 1.0, 1.0, 1.0, 1.0, 1.0, 1.0, 1.0, 1.0, 1.0, 1.0, 1.0, 1.0, 1.0, 1.0, 1.0, 1.0, 1.0]

>  <TempFactor>  (259) 
[21.5, 44.89, 24.36, 42.16, 38.25, 23.95, 40.64, 20.41, 29.29, 22.5, 27.31, 23.15, 28.56, 41.84, 29.6, 38.53, 33.37, 31.58, 30.86, 27.88, 28.97, 31.52, 43.05, 27.66, 27.42, 21.95, 25.67, 24.02, 25.01, 43.36, 43.87, 19.31, 17.05, 26.62, 26.73, 28.95, 20.4, 17.34, 20.74, 21.57, 21.69, 20.06, 20.47, 18.67, 21.64, 27.5, 29.51, 35.17, 31.37, 18.86]

>  <accession>  (259) 
3ZZC_A

>  <description>  (259) 
Chain A, 3C PROTEINASE [Coxsackievirus B3]

>  <evalue>  (259) 
7.4865399999999999e-87

>  <pdb_code>  (259) 
3ZZC

>  <chain>  (259) 
A

>  <ligands>  (259) 
[{'chain_id': 'A', 'author_residue_number': 1181, 'author_insertion_code': '', 'chem_comp_id': 'G83', 'alternate_conformers': 0, 'entity_id': 2, 'struct_asym_id': 'B', 'residue_number': 1, 'chem_comp_name': 'ETHYL (5S,8S,11R)-8-BENZYL-5-(2-TERT-BUTOXY-2-OXOETHYL)-3,6,9-TRIOXO-11-{[(3S)-2-OXOPYRROLIDIN-3-YL]METHYL}-1-PHENYL-2-OXA-4,7,10-TRIAZATETRADECAN-14-OATE', 'weight': 680.788, 'carbohydrate_polymer': False, 'branch_name': ''}]

>  <ligand_codes>  (259) 
['G83']

>  <cofactor_codes>  (259) 
[]

>  <has_cofactor>  (259) 
False

>  <covalent>  (259) 
True

>  <base_name>  (259) 
3ZZC

>  <lig_resn>  (259) 
G83

>  <lig_resi>  (259) 
1181

>  <lig_chain>  (259) 
A

>  <lig_segi>  (259) 
B

>  <lig_alt>  (259) 


>  <polymer_chain>  (259) 
A

>  <single_smiles>  (259) 
CCOC(=O)CC[C@H](C[C@@H]1CCNC1=O)NC(=O)[C@H](Cc2ccccc2)NC(=O)[C@H](CC(=O)OC(C)(C)C)NC(=O)OCc3ccccc3

$$$$
G83P1S101
     RDKit          3D

 34 34  0  0  0  0  0  0  0  0999 V2000
   -7.6750    9.9230  -32.2970 C   0  0  0  0  0  0  0  0  0  0  0  0
   -7.7310    9.9410  -33.8290 C   0  0  2  0  0  0  0  0  0  0  0  0
   -8.7450   10.9170  -34.2200 N   0  0  0  0  0  0  0  0  0  0  0  0
   -8.1830    8.5770  -34.4040 C   0  0  2  0  0  0  0  0  0  0  0  0
   -8.4620   12.0930  -34.7840 C   0  0  0  0  0  0  0  0  0  0  0  0
   -8.1980    8.6230  -35.9360 C   0  0  0  0  0  0  0  0  0  0  0  0
   -9.8310    8.1200  -33.8380 R   0  0  0  0  0  0  0  0  0  0  0  0
   -9.6510   12.9770  -35.0820 C   0  0  1  0  0  0  0  0  0  0  0  0
   -7.3180   12.4750  -35.0590 O   0  0  0  0  0  0  0  0  0  0  0  0
   -6.8090    8.9220  -36.4600 C   0  0  0  0  0  0  0  0  0  0  0  0
   -9.2610   14.3500  -34.7310 N   0  0  0  0  0  0  0  0  0  0  0  0
   -9.8940   12.8970  -36.5940 C   0  0  0  0  0  0  0  0  0  0  0  0
   -6.6580    9.7290  -37.6550 O   0  0  0  0  0  0  0  0  0  0  0  0
   -5.8080    8.4980  -35.8980 O   0  0  0  0  0  0  0  0  0  0  0  0
   -9.0700   14.7310  -33.4520 C   0  0  0  0  0  0  0  0  0  0  0  0
  -11.1210   13.7000  -36.9770 C   0  0  0  0  0  0  0  0  0  0  0  0
   -5.3610   10.2030  -38.0740 C   0  0  0  0  0  0  0  0  0  0  0  0
   -8.5890   16.1350  -33.2460 C   0  0  1  0  0  0  0  0  0  0  0  0
   -9.1660   13.9920  -32.4630 O   0  0  0  0  0  0  0  0  0  0  0  0
  -12.3400   13.5180  -36.3250 C   0  0  0  0  0  0  0  0  0  0  0  0
  -11.0320   14.6580  -38.0030 C   0  0  0  0  0  0  0  0  0  0  0  0
   -4.5750    9.1110  -38.7950 C   0  0  0  0  0  0  0  0  0  0  0  0
   -8.9270   16.6710  -31.9560 N   0  0  0  0  0  0  0  0  0  0  0  0
   -7.0940   15.9700  -33.0860 C   0  0  0  0  0  0  0  0  0  0  0  0
  -13.4670   14.3010  -36.6620 C   0  0  0  0  0  0  0  0  0  0  0  0
  -12.1840   15.4150  -38.3560 C   0  0  0  0  0  0  0  0  0  0  0  0
   -6.3360   17.1850  -33.4620 C   0  0  0  0  0  0  0  0  0  0  0  0
  -13.4100   15.2640  -37.6860 C   0  0  0  0  0  0  0  0  0  0  0  0
   -6.4670   17.7660  -34.5460 O   0  0  0  0  0  0  0  0  0  0  0  0
   -5.3760   17.6500  -32.4930 O   0  0  0  0  0  0  0  0  0  0  0  0
   -4.0330   17.1570  -32.4230 C   0  0  0  0  0  0  0  0  0  0  0  0
   -3.6770   16.1600  -33.5370 C   0  0  0  0  0  0  0  0  0  0  0  0
   -3.9520   16.4650  -31.0680 C   0  0  0  0  0  0  0  0  0  0  0  0
   -3.0820   18.3540  -32.5240 C   0  0  0  0  0  0  0  0  0  0  0  0
  2  1  1  1
  3  2  1  0
  2  4  1  0
  5  3  1  0
  4  6  1  0
  4  7  1  1
  8  5  1  0
  5  9  2  0
  6 10  1  0
 11  8  1  0
  8 12  1  6
 10 13  1  0
 10 14  2  0
 15 11  1  0
 12 16  1  0
 17 13  1  0
 18 15  1  0
 15 19  2  0
 16 20  2  0
 16 21  1  0
 17 22  1  0
 18 23  1  1
 18 24  1  0
 25 20  1  0
 26 21  2  0
 27 24  1  0
 25 28  2  0
 28 26  1  0
 29 27  2  0
 30 27  1  0
 30 31  1  0
 31 32  1  0
 31 33  1  0
 31 34  1  0
V    7 *
A    2
 C57
A    3
 N49
A    4
 C63
A    5
 C39
A    6
 C82
A    7
 X  
A    8
 C37
A    9
 O47
A   10
 C84
A   11
 N33
A   12
 C41
A   13
 O86
A   14
 O88
A   15
 C31
A   16
 C51
A   17
 C3 
A   18
 C23
A   19
 O35
A   20
 C53
A   21
 C55
A   22
 C5 
A   24
 C25
A   25
 C7 
A   26
 C11
A   27
 C14
A   28
 C9 
A   29
 O1 
A   30
 O2 
A   31
 C29
A   32
 C12
A   33
 C43
A   34
 C45
M  END
>  <XChem_code>  (260) 
G83§1

>  <Occupancy>  (260) 
[1.0, 1.0, 1.0, 1.0, 1.0, 1.0, 1.0, 1.0, 1.0, 1.0, 1.0, 1.0, 1.0, 1.0, 1.0, 1.0, 1.0, 1.0, 1.0, 1.0, 1.0, 1.0, 1.0, 1.0, 1.0, 1.0, 1.0, 1.0, 1.0, 1.0, 1.0, 1.0, 1.0, 1.0, 1.0, 1.0, 1.0, 1.0, 1.0, 1.0, 1.0, 1.0, 1.0, 1.0, 1.0, 1.0, 1.0, 1.0, 1.0, 1.0]

>  <TempFactor>  (260) 
[21.5, 44.89, 24.36, 42.16, 38.25, 23.95, 40.64, 20.41, 29.29, 22.5, 27.31, 23.15, 28.56, 41.84, 29.6, 38.53, 33.37, 31.58, 30.86, 27.88, 28.97, 31.52, 43.05, 27.66, 27.42, 21.95, 25.67, 24.02, 25.01, 43.36, 43.87, 19.31, 17.05, 26.62, 26.73, 28.95, 20.4, 17.34, 20.74, 21.57, 21.69, 20.06, 20.47, 18.67, 21.64, 27.5, 29.51, 35.17, 31.37, 18.86]

>  <accession>  (260) 
3ZZC_A

>  <description>  (260) 
Chain A, 3C PROTEINASE [Coxsackievirus B3]

>  <evalue>  (260) 
7.4865399999999999e-87

>  <pdb_code>  (260) 
3ZZC

>  <chain>  (260) 
A

>  <ligands>  (260) 
[{'chain_id': 'A', 'author_residue_number': 1181, 'author_insertion_code': '', 'chem_comp_id': 'G83', 'alternate_conformers': 0, 'entity_id': 2, 'struct_asym_id': 'B', 'residue_number': 1, 'chem_comp_name': 'ETHYL (5S,8S,11R)-8-BENZYL-5-(2-TERT-BUTOXY-2-OXOETHYL)-3,6,9-TRIOXO-11-{[(3S)-2-OXOPYRROLIDIN-3-YL]METHYL}-1-PHENYL-2-OXA-4,7,10-TRIAZATETRADECAN-14-OATE', 'weight': 680.788, 'carbohydrate_polymer': False, 'branch_name': ''}]

>  <ligand_codes>  (260) 
['G83']

>  <cofactor_codes>  (260) 
[]

>  <has_cofactor>  (260) 
False

>  <covalent>  (260) 
True

>  <base_name>  (260) 
3ZZC

>  <lig_resn>  (260) 
G83

>  <lig_resi>  (260) 
1181

>  <lig_chain>  (260) 
A

>  <lig_segi>  (260) 
B

>  <lig_alt>  (260) 


>  <polymer_chain>  (260) 
A

>  <single_smiles>  (260) 
CCOC(=O)CC[C@H](C[C@@H]1CCNC1=O)NC(=O)[C@H](Cc2ccccc2)NC(=O)[C@H](CC(=O)OC(C)(C)C)NC(=O)OCc3ccccc3

$$$$
G83P1S102
     RDKit          3D

 34 34  0  0  0  0  0  0  0  0999 V2000
   -9.8940   12.8970  -36.5940 C   0  0  0  0  0  0  0  0  0  0  0  0
   -9.6510   12.9770  -35.0820 C   0  0  2  0  0  0  0  0  0  0  0  0
   -9.2610   14.3500  -34.7310 N   0  0  0  0  0  0  0  0  0  0  0  0
   -8.4620   12.0930  -34.7840 C   0  0  0  0  0  0  0  0  0  0  0  0
   -9.0700   14.7310  -33.4520 C   0  0  0  0  0  0  0  0  0  0  0  0
   -7.3180   12.4750  -35.0590 O   0  0  0  0  0  0  0  0  0  0  0  0
   -8.7450   10.9170  -34.2200 N   0  0  0  0  0  0  0  0  0  0  0  0
   -8.5890   16.1350  -33.2460 C   0  0  1  0  0  0  0  0  0  0  0  0
   -9.1660   13.9920  -32.4630 O   0  0  0  0  0  0  0  0  0  0  0  0
   -7.7310    9.9410  -33.8290 C   0  0  1  0  0  0  0  0  0  0  0  0
   -8.9270   16.6710  -31.9560 N   0  0  0  0  0  0  0  0  0  0  0  0
   -7.0940   15.9700  -33.0860 C   0  0  0  0  0  0  0  0  0  0  0  0
   -7.6750    9.9230  -32.2970 C   0  0  0  0  0  0  0  0  0  0  0  0
   -8.1830    8.5770  -34.4040 C   0  0  2  0  0  0  0  0  0  0  0  0
   -6.3360   17.1850  -33.4620 C   0  0  0  0  0  0  0  0  0  0  0  0
   -7.2530   11.2580  -31.6380 C   0  0  1  0  0  0  0  0  0  0  0  0
   -8.1980    8.6230  -35.9360 C   0  0  0  0  0  0  0  0  0  0  0  0
   -9.8310    8.1200  -33.8380 R   0  0  0  0  0  0  0  0  0  0  0  0
   -6.4670   17.7660  -34.5460 O   0  0  0  0  0  0  0  0  0  0  0  0
   -5.3760   17.6500  -32.4930 O   0  0  0  0  0  0  0  0  0  0  0  0
   -7.1040   11.1020  -30.1450 C   0  0  0  0  0  0  0  0  0  0  0  0
   -5.9010   11.8850  -31.9840 C   0  0  0  0  0  0  0  0  0  0  0  0
   -6.8090    8.9220  -36.4600 C   0  0  0  0  0  0  0  0  0  0  0  0
   -4.0330   17.1570  -32.4230 C   0  0  0  0  0  0  0  0  0  0  0  0
   -7.8010   10.3100  -29.5070 O   0  0  0  0  0  0  0  0  0  0  0  0
   -6.2280   11.9150  -29.7100 N   0  0  0  0  0  0  0  0  0  0  0  0
   -5.4330   12.6240  -30.7080 C   0  0  0  0  0  0  0  0  0  0  0  0
   -6.6580    9.7290  -37.6550 O   0  0  0  0  0  0  0  0  0  0  0  0
   -5.8080    8.4980  -35.8980 O   0  0  0  0  0  0  0  0  0  0  0  0
   -3.6770   16.1600  -33.5370 C   0  0  0  0  0  0  0  0  0  0  0  0
   -3.9520   16.4650  -31.0680 C   0  0  0  0  0  0  0  0  0  0  0  0
   -3.0820   18.3540  -32.5240 C   0  0  0  0  0  0  0  0  0  0  0  0
   -5.3610   10.2030  -38.0740 C   0  0  0  0  0  0  0  0  0  0  0  0
   -4.5750    9.1110  -38.7950 C   0  0  0  0  0  0  0  0  0  0  0  0
  2  1  1  6
  3  2  1  0
  2  4  1  0
  5  3  1  0
  4  6  2  0
  4  7  1  0
  8  5  1  0
  5  9  2  0
  7 10  1  0
  8 11  1  1
  8 12  1  0
 10 13  1  1
 10 14  1  0
 15 12  1  0
 16 13  1  6
 14 17  1  0
 14 18  1  1
 19 15  2  0
 20 15  1  0
 16 21  1  0
 16 22  1  0
 17 23  1  0
 20 24  1  0
 21 25  2  0
 21 26  1  0
 27 22  1  0
 23 28  1  0
 23 29  2  0
 24 30  1  0
 24 31  1  0
 24 32  1  0
 26 27  1  0
 33 28  1  0
 33 34  1  0
V   18 *
A    2
 C37
A    3
 N33
A    4
 C39
A    5
 C31
A    6
 O47
A    7
 N49
A    8
 C23
A    9
 O35
A   10
 C57
A   12
 C25
A   13
 C59
A   14
 C63
A   15
 C14
A   16
 C61
A   17
 C82
A   18
 X  
A   19
 O1 
A   20
 O2 
A   21
 C65
A   22
 C73
A   23
 C84
A   24
 C29
A   25
 O66
A   26
 N69
A   27
 C71
A   28
 O86
A   29
 O88
A   30
 C12
A   31
 C43
A   32
 C45
A   33
 C3 
A   34
 C5 
M  END
>  <XChem_code>  (261) 
G83§1

>  <Occupancy>  (261) 
[1.0, 1.0, 1.0, 1.0, 1.0, 1.0, 1.0, 1.0, 1.0, 1.0, 1.0, 1.0, 1.0, 1.0, 1.0, 1.0, 1.0, 1.0, 1.0, 1.0, 1.0, 1.0, 1.0, 1.0, 1.0, 1.0, 1.0, 1.0, 1.0, 1.0, 1.0, 1.0, 1.0, 1.0, 1.0, 1.0, 1.0, 1.0, 1.0, 1.0, 1.0, 1.0, 1.0, 1.0, 1.0, 1.0, 1.0, 1.0, 1.0, 1.0]

>  <TempFactor>  (261) 
[21.5, 44.89, 24.36, 42.16, 38.25, 23.95, 40.64, 20.41, 29.29, 22.5, 27.31, 23.15, 28.56, 41.84, 29.6, 38.53, 33.37, 31.58, 30.86, 27.88, 28.97, 31.52, 43.05, 27.66, 27.42, 21.95, 25.67, 24.02, 25.01, 43.36, 43.87, 19.31, 17.05, 26.62, 26.73, 28.95, 20.4, 17.34, 20.74, 21.57, 21.69, 20.06, 20.47, 18.67, 21.64, 27.5, 29.51, 35.17, 31.37, 18.86]

>  <accession>  (261) 
3ZZC_A

>  <description>  (261) 
Chain A, 3C PROTEINASE [Coxsackievirus B3]

>  <evalue>  (261) 
7.4865399999999999e-87

>  <pdb_code>  (261) 
3ZZC

>  <chain>  (261) 
A

>  <ligands>  (261) 
[{'chain_id': 'A', 'author_residue_number': 1181, 'author_insertion_code': '', 'chem_comp_id': 'G83', 'alternate_conformers': 0, 'entity_id': 2, 'struct_asym_id': 'B', 'residue_number': 1, 'chem_comp_name': 'ETHYL (5S,8S,11R)-8-BENZYL-5-(2-TERT-BUTOXY-2-OXOETHYL)-3,6,9-TRIOXO-11-{[(3S)-2-OXOPYRROLIDIN-3-YL]METHYL}-1-PHENYL-2-OXA-4,7,10-TRIAZATETRADECAN-14-OATE', 'weight': 680.788, 'carbohydrate_polymer': False, 'branch_name': ''}]

>  <ligand_codes>  (261) 
['G83']

>  <cofactor_codes>  (261) 
[]

>  <has_cofactor>  (261) 
False

>  <covalent>  (261) 
True

>  <base_name>  (261) 
3ZZC

>  <lig_resn>  (261) 
G83

>  <lig_resi>  (261) 
1181

>  <lig_chain>  (261) 
A

>  <lig_segi>  (261) 
B

>  <lig_alt>  (261) 


>  <polymer_chain>  (261) 
A

>  <single_smiles>  (261) 
CCOC(=O)CC[C@H](C[C@@H]1CCNC1=O)NC(=O)[C@H](Cc2ccccc2)NC(=O)[C@H](CC(=O)OC(C)(C)C)NC(=O)OCc3ccccc3

$$$$
G83P1S103
     RDKit          3D

 16 15  0  0  0  0  0  0  0  0999 V2000
  -10.3020   19.6950  -30.3210 C   0  0  0  0  0  0  0  0  0  0  0  0
   -9.9650   18.3270  -30.5810 O   0  0  0  0  0  0  0  0  0  0  0  0
   -9.6140   17.8180  -31.9050 C   0  0  0  0  0  0  0  0  0  0  0  0
   -8.9270   16.6710  -31.9560 N   0  0  0  0  0  0  0  0  0  0  0  0
   -9.9760   18.4340  -32.9180 O   0  0  0  0  0  0  0  0  0  0  0  0
   -8.5890   16.1350  -33.2460 C   0  0  2  0  0  0  0  0  0  0  0  0
   -9.0700   14.7310  -33.4520 C   0  0  0  0  0  0  0  0  0  0  0  0
   -7.0940   15.9700  -33.0860 C   0  0  0  0  0  0  0  0  0  0  0  0
   -9.1660   13.9920  -32.4630 O   0  0  0  0  0  0  0  0  0  0  0  0
   -6.3360   17.1850  -33.4620 C   0  0  0  0  0  0  0  0  0  0  0  0
   -6.4670   17.7660  -34.5460 O   0  0  0  0  0  0  0  0  0  0  0  0
   -5.3760   17.6500  -32.4930 O   0  0  0  0  0  0  0  0  0  0  0  0
   -4.0330   17.1570  -32.4230 C   0  0  0  0  0  0  0  0  0  0  0  0
   -3.6770   16.1600  -33.5370 C   0  0  0  0  0  0  0  0  0  0  0  0
   -3.9520   16.4650  -31.0680 C   0  0  0  0  0  0  0  0  0  0  0  0
   -3.0820   18.3540  -32.5240 C   0  0  0  0  0  0  0  0  0  0  0  0
  1  2  1  0
  2  3  1  0
  3  4  1  0
  3  5  2  0
  4  6  1  0
  6  7  1  0
  6  8  1  1
  7  9  2  0
 10  8  1  0
 11 10  2  0
 12 10  1  0
 12 13  1  0
 13 14  1  0
 13 15  1  0
 13 16  1  0
A    2
 O15
A    3
 C17
A    4
 N21
A    5
 O19
A    6
 C23
A    8
 C25
A    9
 O35
A   10
 C14
A   11
 O1 
A   12
 O2 
A   13
 C29
A   14
 C12
A   15
 C43
A   16
 C45
M  END
>  <XChem_code>  (262) 
G83§1

>  <Occupancy>  (262) 
[1.0, 1.0, 1.0, 1.0, 1.0, 1.0, 1.0, 1.0, 1.0, 1.0, 1.0, 1.0, 1.0, 1.0, 1.0, 1.0, 1.0, 1.0, 1.0, 1.0, 1.0, 1.0, 1.0, 1.0, 1.0, 1.0, 1.0, 1.0, 1.0, 1.0, 1.0, 1.0, 1.0, 1.0, 1.0, 1.0, 1.0, 1.0, 1.0, 1.0, 1.0, 1.0, 1.0, 1.0, 1.0, 1.0, 1.0, 1.0, 1.0, 1.0]

>  <TempFactor>  (262) 
[21.5, 44.89, 24.36, 42.16, 38.25, 23.95, 40.64, 20.41, 29.29, 22.5, 27.31, 23.15, 28.56, 41.84, 29.6, 38.53, 33.37, 31.58, 30.86, 27.88, 28.97, 31.52, 43.05, 27.66, 27.42, 21.95, 25.67, 24.02, 25.01, 43.36, 43.87, 19.31, 17.05, 26.62, 26.73, 28.95, 20.4, 17.34, 20.74, 21.57, 21.69, 20.06, 20.47, 18.67, 21.64, 27.5, 29.51, 35.17, 31.37, 18.86]

>  <accession>  (262) 
3ZZC_A

>  <description>  (262) 
Chain A, 3C PROTEINASE [Coxsackievirus B3]

>  <evalue>  (262) 
7.4865399999999999e-87

>  <pdb_code>  (262) 
3ZZC

>  <chain>  (262) 
A

>  <ligands>  (262) 
[{'chain_id': 'A', 'author_residue_number': 1181, 'author_insertion_code': '', 'chem_comp_id': 'G83', 'alternate_conformers': 0, 'entity_id': 2, 'struct_asym_id': 'B', 'residue_number': 1, 'chem_comp_name': 'ETHYL (5S,8S,11R)-8-BENZYL-5-(2-TERT-BUTOXY-2-OXOETHYL)-3,6,9-TRIOXO-11-{[(3S)-2-OXOPYRROLIDIN-3-YL]METHYL}-1-PHENYL-2-OXA-4,7,10-TRIAZATETRADECAN-14-OATE', 'weight': 680.788, 'carbohydrate_polymer': False, 'branch_name': ''}]

>  <ligand_codes>  (262) 
['G83']

>  <cofactor_codes>  (262) 
[]

>  <has_cofactor>  (262) 
False

>  <covalent>  (262) 
True

>  <base_name>  (262) 
3ZZC

>  <lig_resn>  (262) 
G83

>  <lig_resi>  (262) 
1181

>  <lig_chain>  (262) 
A

>  <lig_segi>  (262) 
B

>  <lig_alt>  (262) 


>  <polymer_chain>  (262) 
A

>  <single_smiles>  (262) 
CCOC(=O)CC[C@H](C[C@@H]1CCNC1=O)NC(=O)[C@H](Cc2ccccc2)NC(=O)[C@H](CC(=O)OC(C)(C)C)NC(=O)OCc3ccccc3

$$$$
G83P1S104
     RDKit          3D

 22 22  0  0  0  0  0  0  0  0999 V2000
   -7.6750    9.9230  -32.2970 C   0  0  0  0  0  0  0  0  0  0  0  0
   -7.7310    9.9410  -33.8290 C   0  0  2  0  0  0  0  0  0  0  0  0
   -8.7450   10.9170  -34.2200 N   0  0  0  0  0  0  0  0  0  0  0  0
   -8.1830    8.5770  -34.4040 C   0  0  2  0  0  0  0  0  0  0  0  0
   -8.4620   12.0930  -34.7840 C   0  0  0  0  0  0  0  0  0  0  0  0
   -8.1980    8.6230  -35.9360 C   0  0  0  0  0  0  0  0  0  0  0  0
   -9.8310    8.1200  -33.8380 R   0  0  0  0  0  0  0  0  0  0  0  0
   -9.6510   12.9770  -35.0820 C   0  0  1  0  0  0  0  0  0  0  0  0
   -7.3180   12.4750  -35.0590 O   0  0  0  0  0  0  0  0  0  0  0  0
   -6.8090    8.9220  -36.4600 C   0  0  0  0  0  0  0  0  0  0  0  0
   -9.2610   14.3500  -34.7310 N   0  0  0  0  0  0  0  0  0  0  0  0
   -9.8940   12.8970  -36.5940 C   0  0  0  0  0  0  0  0  0  0  0  0
   -6.6580    9.7290  -37.6550 O   0  0  0  0  0  0  0  0  0  0  0  0
   -5.8080    8.4980  -35.8980 O   0  0  0  0  0  0  0  0  0  0  0  0
  -11.1210   13.7000  -36.9770 C   0  0  0  0  0  0  0  0  0  0  0  0
   -5.3610   10.2030  -38.0740 C   0  0  0  0  0  0  0  0  0  0  0  0
  -12.3400   13.5180  -36.3250 C   0  0  0  0  0  0  0  0  0  0  0  0
  -11.0320   14.6580  -38.0030 C   0  0  0  0  0  0  0  0  0  0  0  0
   -4.5750    9.1110  -38.7950 C   0  0  0  0  0  0  0  0  0  0  0  0
  -13.4670   14.3010  -36.6620 C   0  0  0  0  0  0  0  0  0  0  0  0
  -12.1840   15.4150  -38.3560 C   0  0  0  0  0  0  0  0  0  0  0  0
  -13.4100   15.2640  -37.6860 C   0  0  0  0  0  0  0  0  0  0  0  0
  2  1  1  1
  3  2  1  0
  2  4  1  0
  5  3  1  0
  4  6  1  0
  4  7  1  1
  8  5  1  0
  5  9  2  0
  6 10  1  0
  8 11  1  6
  8 12  1  0
 10 13  1  0
 10 14  2  0
 12 15  1  0
 16 13  1  0
 15 17  2  0
 15 18  1  0
 16 19  1  0
 20 17  1  0
 21 18  2  0
 20 22  2  0
 22 21  1  0
V    7 *
A    2
 C57
A    3
 N49
A    4
 C63
A    5
 C39
A    6
 C82
A    7
 X  
A    8
 C37
A    9
 O47
A   10
 C84
A   12
 C41
A   13
 O86
A   14
 O88
A   15
 C51
A   16
 C3 
A   17
 C53
A   18
 C55
A   19
 C5 
A   20
 C7 
A   21
 C11
A   22
 C9 
M  END
>  <XChem_code>  (263) 
G83§1

>  <Occupancy>  (263) 
[1.0, 1.0, 1.0, 1.0, 1.0, 1.0, 1.0, 1.0, 1.0, 1.0, 1.0, 1.0, 1.0, 1.0, 1.0, 1.0, 1.0, 1.0, 1.0, 1.0, 1.0, 1.0, 1.0, 1.0, 1.0, 1.0, 1.0, 1.0, 1.0, 1.0, 1.0, 1.0, 1.0, 1.0, 1.0, 1.0, 1.0, 1.0, 1.0, 1.0, 1.0, 1.0, 1.0, 1.0, 1.0, 1.0, 1.0, 1.0, 1.0, 1.0]

>  <TempFactor>  (263) 
[21.5, 44.89, 24.36, 42.16, 38.25, 23.95, 40.64, 20.41, 29.29, 22.5, 27.31, 23.15, 28.56, 41.84, 29.6, 38.53, 33.37, 31.58, 30.86, 27.88, 28.97, 31.52, 43.05, 27.66, 27.42, 21.95, 25.67, 24.02, 25.01, 43.36, 43.87, 19.31, 17.05, 26.62, 26.73, 28.95, 20.4, 17.34, 20.74, 21.57, 21.69, 20.06, 20.47, 18.67, 21.64, 27.5, 29.51, 35.17, 31.37, 18.86]

>  <accession>  (263) 
3ZZC_A

>  <description>  (263) 
Chain A, 3C PROTEINASE [Coxsackievirus B3]

>  <evalue>  (263) 
7.4865399999999999e-87

>  <pdb_code>  (263) 
3ZZC

>  <chain>  (263) 
A

>  <ligands>  (263) 
[{'chain_id': 'A', 'author_residue_number': 1181, 'author_insertion_code': '', 'chem_comp_id': 'G83', 'alternate_conformers': 0, 'entity_id': 2, 'struct_asym_id': 'B', 'residue_number': 1, 'chem_comp_name': 'ETHYL (5S,8S,11R)-8-BENZYL-5-(2-TERT-BUTOXY-2-OXOETHYL)-3,6,9-TRIOXO-11-{[(3S)-2-OXOPYRROLIDIN-3-YL]METHYL}-1-PHENYL-2-OXA-4,7,10-TRIAZATETRADECAN-14-OATE', 'weight': 680.788, 'carbohydrate_polymer': False, 'branch_name': ''}]

>  <ligand_codes>  (263) 
['G83']

>  <cofactor_codes>  (263) 
[]

>  <has_cofactor>  (263) 
False

>  <covalent>  (263) 
True

>  <base_name>  (263) 
3ZZC

>  <lig_resn>  (263) 
G83

>  <lig_resi>  (263) 
1181

>  <lig_chain>  (263) 
A

>  <lig_segi>  (263) 
B

>  <lig_alt>  (263) 


>  <polymer_chain>  (263) 
A

>  <single_smiles>  (263) 
CCOC(=O)CC[C@H](C[C@@H]1CCNC1=O)NC(=O)[C@H](Cc2ccccc2)NC(=O)[C@H](CC(=O)OC(C)(C)C)NC(=O)OCc3ccccc3

$$$$
G83P1S105
     RDKit          3D

 22 22  0  0  0  0  0  0  0  0999 V2000
   -9.8940   12.8970  -36.5940 C   0  0  0  0  0  0  0  0  0  0  0  0
   -9.6510   12.9770  -35.0820 C   0  0  2  0  0  0  0  0  0  0  0  0
   -9.2610   14.3500  -34.7310 N   0  0  0  0  0  0  0  0  0  0  0  0
   -8.4620   12.0930  -34.7840 C   0  0  0  0  0  0  0  0  0  0  0  0
   -7.3180   12.4750  -35.0590 O   0  0  0  0  0  0  0  0  0  0  0  0
   -8.7450   10.9170  -34.2200 N   0  0  0  0  0  0  0  0  0  0  0  0
   -7.7310    9.9410  -33.8290 C   0  0  1  0  0  0  0  0  0  0  0  0
   -7.6750    9.9230  -32.2970 C   0  0  0  0  0  0  0  0  0  0  0  0
   -8.1830    8.5770  -34.4040 C   0  0  2  0  0  0  0  0  0  0  0  0
   -7.2530   11.2580  -31.6380 C   0  0  1  0  0  0  0  0  0  0  0  0
   -8.1980    8.6230  -35.9360 C   0  0  0  0  0  0  0  0  0  0  0  0
   -9.8310    8.1200  -33.8380 R   0  0  0  0  0  0  0  0  0  0  0  0
   -7.1040   11.1020  -30.1450 C   0  0  0  0  0  0  0  0  0  0  0  0
   -5.9010   11.8850  -31.9840 C   0  0  0  0  0  0  0  0  0  0  0  0
   -6.8090    8.9220  -36.4600 C   0  0  0  0  0  0  0  0  0  0  0  0
   -7.8010   10.3100  -29.5070 O   0  0  0  0  0  0  0  0  0  0  0  0
   -6.2280   11.9150  -29.7100 N   0  0  0  0  0  0  0  0  0  0  0  0
   -5.4330   12.6240  -30.7080 C   0  0  0  0  0  0  0  0  0  0  0  0
   -6.6580    9.7290  -37.6550 O   0  0  0  0  0  0  0  0  0  0  0  0
   -5.8080    8.4980  -35.8980 O   0  0  0  0  0  0  0  0  0  0  0  0
   -5.3610   10.2030  -38.0740 C   0  0  0  0  0  0  0  0  0  0  0  0
   -4.5750    9.1110  -38.7950 C   0  0  0  0  0  0  0  0  0  0  0  0
  2  1  1  6
  3  2  1  0
  2  4  1  0
  4  5  2  0
  4  6  1  0
  6  7  1  0
  7  8  1  1
  7  9  1  0
 10  8  1  6
  9 11  1  0
  9 12  1  1
 10 13  1  0
 10 14  1  0
 11 15  1  0
 13 16  2  0
 13 17  1  0
 18 14  1  0
 15 19  1  0
 15 20  2  0
 17 18  1  0
 21 19  1  0
 21 22  1  0
V   12 *
A    2
 C37
A    4
 C39
A    5
 O47
A    6
 N49
A    7
 C57
A    8
 C59
A    9
 C63
A   10
 C61
A   11
 C82
A   12
 X  
A   13
 C65
A   14
 C73
A   15
 C84
A   16
 O66
A   17
 N69
A   18
 C71
A   19
 O86
A   20
 O88
A   21
 C3 
A   22
 C5 
M  END
>  <XChem_code>  (264) 
G83§1

>  <Occupancy>  (264) 
[1.0, 1.0, 1.0, 1.0, 1.0, 1.0, 1.0, 1.0, 1.0, 1.0, 1.0, 1.0, 1.0, 1.0, 1.0, 1.0, 1.0, 1.0, 1.0, 1.0, 1.0, 1.0, 1.0, 1.0, 1.0, 1.0, 1.0, 1.0, 1.0, 1.0, 1.0, 1.0, 1.0, 1.0, 1.0, 1.0, 1.0, 1.0, 1.0, 1.0, 1.0, 1.0, 1.0, 1.0, 1.0, 1.0, 1.0, 1.0, 1.0, 1.0]

>  <TempFactor>  (264) 
[21.5, 44.89, 24.36, 42.16, 38.25, 23.95, 40.64, 20.41, 29.29, 22.5, 27.31, 23.15, 28.56, 41.84, 29.6, 38.53, 33.37, 31.58, 30.86, 27.88, 28.97, 31.52, 43.05, 27.66, 27.42, 21.95, 25.67, 24.02, 25.01, 43.36, 43.87, 19.31, 17.05, 26.62, 26.73, 28.95, 20.4, 17.34, 20.74, 21.57, 21.69, 20.06, 20.47, 18.67, 21.64, 27.5, 29.51, 35.17, 31.37, 18.86]

>  <accession>  (264) 
3ZZC_A

>  <description>  (264) 
Chain A, 3C PROTEINASE [Coxsackievirus B3]

>  <evalue>  (264) 
7.4865399999999999e-87

>  <pdb_code>  (264) 
3ZZC

>  <chain>  (264) 
A

>  <ligands>  (264) 
[{'chain_id': 'A', 'author_residue_number': 1181, 'author_insertion_code': '', 'chem_comp_id': 'G83', 'alternate_conformers': 0, 'entity_id': 2, 'struct_asym_id': 'B', 'residue_number': 1, 'chem_comp_name': 'ETHYL (5S,8S,11R)-8-BENZYL-5-(2-TERT-BUTOXY-2-OXOETHYL)-3,6,9-TRIOXO-11-{[(3S)-2-OXOPYRROLIDIN-3-YL]METHYL}-1-PHENYL-2-OXA-4,7,10-TRIAZATETRADECAN-14-OATE', 'weight': 680.788, 'carbohydrate_polymer': False, 'branch_name': ''}]

>  <ligand_codes>  (264) 
['G83']

>  <cofactor_codes>  (264) 
[]

>  <has_cofactor>  (264) 
False

>  <covalent>  (264) 
True

>  <base_name>  (264) 
3ZZC

>  <lig_resn>  (264) 
G83

>  <lig_resi>  (264) 
1181

>  <lig_chain>  (264) 
A

>  <lig_segi>  (264) 
B

>  <lig_alt>  (264) 


>  <polymer_chain>  (264) 
A

>  <single_smiles>  (264) 
CCOC(=O)CC[C@H](C[C@@H]1CCNC1=O)NC(=O)[C@H](Cc2ccccc2)NC(=O)[C@H](CC(=O)OC(C)(C)C)NC(=O)OCc3ccccc3

$$$$
G83P1S106
     RDKit          3D

 11 10  0  0  0  0  0  0  0  0999 V2000
   -7.6750    9.9230  -32.2970 C   0  0  0  0  0  0  0  0  0  0  0  0
   -7.7310    9.9410  -33.8290 C   0  0  2  0  0  0  0  0  0  0  0  0
   -8.7450   10.9170  -34.2200 N   0  0  0  0  0  0  0  0  0  0  0  0
   -8.1830    8.5770  -34.4040 C   0  0  2  0  0  0  0  0  0  0  0  0
   -8.1980    8.6230  -35.9360 C   0  0  0  0  0  0  0  0  0  0  0  0
   -9.8310    8.1200  -33.8380 R   0  0  0  0  0  0  0  0  0  0  0  0
   -6.8090    8.9220  -36.4600 C   0  0  0  0  0  0  0  0  0  0  0  0
   -6.6580    9.7290  -37.6550 O   0  0  0  0  0  0  0  0  0  0  0  0
   -5.8080    8.4980  -35.8980 O   0  0  0  0  0  0  0  0  0  0  0  0
   -5.3610   10.2030  -38.0740 C   0  0  0  0  0  0  0  0  0  0  0  0
   -4.5750    9.1110  -38.7950 C   0  0  0  0  0  0  0  0  0  0  0  0
  2  1  1  1
  3  2  1  0
  2  4  1  0
  4  5  1  0
  4  6  1  1
  5  7  1  0
  7  8  1  0
  7  9  2  0
 10  8  1  0
 10 11  1  0
V    6 *
A    2
 C57
A    4
 C63
A    5
 C82
A    6
 X  
A    7
 C84
A    8
 O86
A    9
 O88
A   10
 C3 
A   11
 C5 
M  END
>  <XChem_code>  (265) 
G83§1

>  <Occupancy>  (265) 
[1.0, 1.0, 1.0, 1.0, 1.0, 1.0, 1.0, 1.0, 1.0, 1.0, 1.0, 1.0, 1.0, 1.0, 1.0, 1.0, 1.0, 1.0, 1.0, 1.0, 1.0, 1.0, 1.0, 1.0, 1.0, 1.0, 1.0, 1.0, 1.0, 1.0, 1.0, 1.0, 1.0, 1.0, 1.0, 1.0, 1.0, 1.0, 1.0, 1.0, 1.0, 1.0, 1.0, 1.0, 1.0, 1.0, 1.0, 1.0, 1.0, 1.0]

>  <TempFactor>  (265) 
[21.5, 44.89, 24.36, 42.16, 38.25, 23.95, 40.64, 20.41, 29.29, 22.5, 27.31, 23.15, 28.56, 41.84, 29.6, 38.53, 33.37, 31.58, 30.86, 27.88, 28.97, 31.52, 43.05, 27.66, 27.42, 21.95, 25.67, 24.02, 25.01, 43.36, 43.87, 19.31, 17.05, 26.62, 26.73, 28.95, 20.4, 17.34, 20.74, 21.57, 21.69, 20.06, 20.47, 18.67, 21.64, 27.5, 29.51, 35.17, 31.37, 18.86]

>  <accession>  (265) 
3ZZC_A

>  <description>  (265) 
Chain A, 3C PROTEINASE [Coxsackievirus B3]

>  <evalue>  (265) 
7.4865399999999999e-87

>  <pdb_code>  (265) 
3ZZC

>  <chain>  (265) 
A

>  <ligands>  (265) 
[{'chain_id': 'A', 'author_residue_number': 1181, 'author_insertion_code': '', 'chem_comp_id': 'G83', 'alternate_conformers': 0, 'entity_id': 2, 'struct_asym_id': 'B', 'residue_number': 1, 'chem_comp_name': 'ETHYL (5S,8S,11R)-8-BENZYL-5-(2-TERT-BUTOXY-2-OXOETHYL)-3,6,9-TRIOXO-11-{[(3S)-2-OXOPYRROLIDIN-3-YL]METHYL}-1-PHENYL-2-OXA-4,7,10-TRIAZATETRADECAN-14-OATE', 'weight': 680.788, 'carbohydrate_polymer': False, 'branch_name': ''}]

>  <ligand_codes>  (265) 
['G83']

>  <cofactor_codes>  (265) 
[]

>  <has_cofactor>  (265) 
False

>  <covalent>  (265) 
True

>  <base_name>  (265) 
3ZZC

>  <lig_resn>  (265) 
G83

>  <lig_resi>  (265) 
1181

>  <lig_chain>  (265) 
A

>  <lig_segi>  (265) 
B

>  <lig_alt>  (265) 


>  <polymer_chain>  (265) 
A

>  <single_smiles>  (265) 
CCOC(=O)CC[C@H](C[C@@H]1CCNC1=O)NC(=O)[C@H](Cc2ccccc2)NC(=O)[C@H](CC(=O)OC(C)(C)C)NC(=O)OCc3ccccc3

$$$$
G83P1S107
     RDKit          3D

 27 27  0  0  0  0  0  0  0  0999 V2000
   -9.8940   12.8970  -36.5940 C   0  0  0  0  0  0  0  0  0  0  0  0
   -9.6510   12.9770  -35.0820 C   0  0  1  0  0  0  0  0  0  0  0  0
   -8.4620   12.0930  -34.7840 C   0  0  0  0  0  0  0  0  0  0  0  0
   -9.2610   14.3500  -34.7310 N   0  0  0  0  0  0  0  0  0  0  0  0
   -7.3180   12.4750  -35.0590 O   0  0  0  0  0  0  0  0  0  0  0  0
   -9.0700   14.7310  -33.4520 C   0  0  0  0  0  0  0  0  0  0  0  0
   -8.5890   16.1350  -33.2460 C   0  0  1  0  0  0  0  0  0  0  0  0
   -9.1660   13.9920  -32.4630 O   0  0  0  0  0  0  0  0  0  0  0  0
   -8.9270   16.6710  -31.9560 N   0  0  0  0  0  0  0  0  0  0  0  0
   -7.0940   15.9700  -33.0860 C   0  0  0  0  0  0  0  0  0  0  0  0
   -9.6140   17.8180  -31.9050 C   0  0  0  0  0  0  0  0  0  0  0  0
   -6.3360   17.1850  -33.4620 C   0  0  0  0  0  0  0  0  0  0  0  0
   -9.9650   18.3270  -30.5810 O   0  0  0  0  0  0  0  0  0  0  0  0
   -9.9760   18.4340  -32.9180 O   0  0  0  0  0  0  0  0  0  0  0  0
   -6.4670   17.7660  -34.5460 O   0  0  0  0  0  0  0  0  0  0  0  0
   -5.3760   17.6500  -32.4930 O   0  0  0  0  0  0  0  0  0  0  0  0
  -10.3020   19.6950  -30.3210 C   0  0  0  0  0  0  0  0  0  0  0  0
   -4.0330   17.1570  -32.4230 C   0  0  0  0  0  0  0  0  0  0  0  0
  -10.4040   19.8340  -28.8340 C   0  0  0  0  0  0  0  0  0  0  0  0
   -3.6770   16.1600  -33.5370 C   0  0  0  0  0  0  0  0  0  0  0  0
   -3.9520   16.4650  -31.0680 C   0  0  0  0  0  0  0  0  0  0  0  0
   -3.0820   18.3540  -32.5240 C   0  0  0  0  0  0  0  0  0  0  0  0
   -9.6890   20.8420  -28.1960 C   0  0  0  0  0  0  0  0  0  0  0  0
  -11.1970   18.9310  -28.1220 C   0  0  0  0  0  0  0  0  0  0  0  0
   -9.7810   20.9510  -26.7880 C   0  0  0  0  0  0  0  0  0  0  0  0
  -11.3130   19.0390  -26.7440 C   0  0  0  0  0  0  0  0  0  0  0  0
  -10.5960   20.0640  -26.0750 C   0  0  0  0  0  0  0  0  0  0  0  0
  2  1  1  6
  2  3  1  0
  4  2  1  0
  3  5  2  0
  6  4  1  0
  7  6  1  0
  6  8  2  0
  9  7  1  0
  7 10  1  1
 11  9  1  0
 12 10  1  0
 13 11  1  0
 11 14  2  0
 15 12  2  0
 16 12  1  0
 17 13  1  0
 16 18  1  0
 19 17  1  0
 18 20  1  0
 18 21  1  0
 18 22  1  0
 23 19  2  0
 19 24  1  0
 25 23  1  0
 24 26  2  0
 25 27  2  0
 26 27  1  0
A    2
 C37
A    4
 N33
A    5
 O47
A    6
 C31
A    7
 C23
A    8
 O35
A    9
 N21
A   10
 C25
A   11
 C17
A   12
 C14
A   13
 O15
A   14
 O19
A   15
 O1 
A   16
 O2 
A   17
 C13
A   18
 C29
A   19
 C4 
A   20
 C12
A   21
 C43
A   22
 C45
A   23
 C2 
A   24
 C6 
A   25
 C1 
A   26
 C8 
A   27
 C10
M  END
>  <XChem_code>  (266) 
G83§1

>  <Occupancy>  (266) 
[1.0, 1.0, 1.0, 1.0, 1.0, 1.0, 1.0, 1.0, 1.0, 1.0, 1.0, 1.0, 1.0, 1.0, 1.0, 1.0, 1.0, 1.0, 1.0, 1.0, 1.0, 1.0, 1.0, 1.0, 1.0, 1.0, 1.0, 1.0, 1.0, 1.0, 1.0, 1.0, 1.0, 1.0, 1.0, 1.0, 1.0, 1.0, 1.0, 1.0, 1.0, 1.0, 1.0, 1.0, 1.0, 1.0, 1.0, 1.0, 1.0, 1.0]

>  <TempFactor>  (266) 
[21.5, 44.89, 24.36, 42.16, 38.25, 23.95, 40.64, 20.41, 29.29, 22.5, 27.31, 23.15, 28.56, 41.84, 29.6, 38.53, 33.37, 31.58, 30.86, 27.88, 28.97, 31.52, 43.05, 27.66, 27.42, 21.95, 25.67, 24.02, 25.01, 43.36, 43.87, 19.31, 17.05, 26.62, 26.73, 28.95, 20.4, 17.34, 20.74, 21.57, 21.69, 20.06, 20.47, 18.67, 21.64, 27.5, 29.51, 35.17, 31.37, 18.86]

>  <accession>  (266) 
3ZZC_A

>  <description>  (266) 
Chain A, 3C PROTEINASE [Coxsackievirus B3]

>  <evalue>  (266) 
7.4865399999999999e-87

>  <pdb_code>  (266) 
3ZZC

>  <chain>  (266) 
A

>  <ligands>  (266) 
[{'chain_id': 'A', 'author_residue_number': 1181, 'author_insertion_code': '', 'chem_comp_id': 'G83', 'alternate_conformers': 0, 'entity_id': 2, 'struct_asym_id': 'B', 'residue_number': 1, 'chem_comp_name': 'ETHYL (5S,8S,11R)-8-BENZYL-5-(2-TERT-BUTOXY-2-OXOETHYL)-3,6,9-TRIOXO-11-{[(3S)-2-OXOPYRROLIDIN-3-YL]METHYL}-1-PHENYL-2-OXA-4,7,10-TRIAZATETRADECAN-14-OATE', 'weight': 680.788, 'carbohydrate_polymer': False, 'branch_name': ''}]

>  <ligand_codes>  (266) 
['G83']

>  <cofactor_codes>  (266) 
[]

>  <has_cofactor>  (266) 
False

>  <covalent>  (266) 
True

>  <base_name>  (266) 
3ZZC

>  <lig_resn>  (266) 
G83

>  <lig_resi>  (266) 
1181

>  <lig_chain>  (266) 
A

>  <lig_segi>  (266) 
B

>  <lig_alt>  (266) 


>  <polymer_chain>  (266) 
A

>  <single_smiles>  (266) 
CCOC(=O)CC[C@H](C[C@@H]1CCNC1=O)NC(=O)[C@H](Cc2ccccc2)NC(=O)[C@H](CC(=O)OC(C)(C)C)NC(=O)OCc3ccccc3

$$$$
G83P1S108
     RDKit          3D

 27 27  0  0  0  0  0  0  0  0999 V2000
  -10.3020   19.6950  -30.3210 C   0  0  0  0  0  0  0  0  0  0  0  0
   -9.9650   18.3270  -30.5810 O   0  0  0  0  0  0  0  0  0  0  0  0
   -9.6140   17.8180  -31.9050 C   0  0  0  0  0  0  0  0  0  0  0  0
   -8.9270   16.6710  -31.9560 N   0  0  0  0  0  0  0  0  0  0  0  0
   -9.9760   18.4340  -32.9180 O   0  0  0  0  0  0  0  0  0  0  0  0
   -8.5890   16.1350  -33.2460 C   0  0  2  0  0  0  0  0  0  0  0  0
   -9.0700   14.7310  -33.4520 C   0  0  0  0  0  0  0  0  0  0  0  0
   -7.0940   15.9700  -33.0860 C   0  0  0  0  0  0  0  0  0  0  0  0
   -9.2610   14.3500  -34.7310 N   0  0  0  0  0  0  0  0  0  0  0  0
   -9.1660   13.9920  -32.4630 O   0  0  0  0  0  0  0  0  0  0  0  0
   -6.3360   17.1850  -33.4620 C   0  0  0  0  0  0  0  0  0  0  0  0
   -9.6510   12.9770  -35.0820 C   0  0  2  0  0  0  0  0  0  0  0  0
   -6.4670   17.7660  -34.5460 O   0  0  0  0  0  0  0  0  0  0  0  0
   -5.3760   17.6500  -32.4930 O   0  0  0  0  0  0  0  0  0  0  0  0
   -8.4620   12.0930  -34.7840 C   0  0  0  0  0  0  0  0  0  0  0  0
   -9.8940   12.8970  -36.5940 C   0  0  0  0  0  0  0  0  0  0  0  0
   -4.0330   17.1570  -32.4230 C   0  0  0  0  0  0  0  0  0  0  0  0
   -7.3180   12.4750  -35.0590 O   0  0  0  0  0  0  0  0  0  0  0  0
  -11.1210   13.7000  -36.9770 C   0  0  0  0  0  0  0  0  0  0  0  0
   -3.6770   16.1600  -33.5370 C   0  0  0  0  0  0  0  0  0  0  0  0
   -3.9520   16.4650  -31.0680 C   0  0  0  0  0  0  0  0  0  0  0  0
   -3.0820   18.3540  -32.5240 C   0  0  0  0  0  0  0  0  0  0  0  0
  -12.3400   13.5180  -36.3250 C   0  0  0  0  0  0  0  0  0  0  0  0
  -11.0320   14.6580  -38.0030 C   0  0  0  0  0  0  0  0  0  0  0  0
  -13.4670   14.3010  -36.6620 C   0  0  0  0  0  0  0  0  0  0  0  0
  -12.1840   15.4150  -38.3560 C   0  0  0  0  0  0  0  0  0  0  0  0
  -13.4100   15.2640  -37.6860 C   0  0  0  0  0  0  0  0  0  0  0  0
  1  2  1  0
  2  3  1  0
  3  4  1  0
  3  5  2  0
  4  6  1  0
  6  7  1  0
  6  8  1  1
  7  9  1  0
  7 10  2  0
 11  8  1  0
  9 12  1  0
 13 11  2  0
 14 11  1  0
 12 15  1  0
 12 16  1  6
 14 17  1  0
 15 18  2  0
 16 19  1  0
 17 20  1  0
 17 21  1  0
 17 22  1  0
 19 23  2  0
 19 24  1  0
 25 23  1  0
 26 24  2  0
 25 27  2  0
 27 26  1  0
A    2
 O15
A    3
 C17
A    4
 N21
A    5
 O19
A    6
 C23
A    7
 C31
A    8
 C25
A    9
 N33
A   10
 O35
A   11
 C14
A   12
 C37
A   13
 O1 
A   14
 O2 
A   16
 C41
A   17
 C29
A   18
 O47
A   19
 C51
A   20
 C12
A   21
 C43
A   22
 C45
A   23
 C53
A   24
 C55
A   25
 C7 
A   26
 C11
A   27
 C9 
M  END
>  <XChem_code>  (267) 
G83§1

>  <Occupancy>  (267) 
[1.0, 1.0, 1.0, 1.0, 1.0, 1.0, 1.0, 1.0, 1.0, 1.0, 1.0, 1.0, 1.0, 1.0, 1.0, 1.0, 1.0, 1.0, 1.0, 1.0, 1.0, 1.0, 1.0, 1.0, 1.0, 1.0, 1.0, 1.0, 1.0, 1.0, 1.0, 1.0, 1.0, 1.0, 1.0, 1.0, 1.0, 1.0, 1.0, 1.0, 1.0, 1.0, 1.0, 1.0, 1.0, 1.0, 1.0, 1.0, 1.0, 1.0]

>  <TempFactor>  (267) 
[21.5, 44.89, 24.36, 42.16, 38.25, 23.95, 40.64, 20.41, 29.29, 22.5, 27.31, 23.15, 28.56, 41.84, 29.6, 38.53, 33.37, 31.58, 30.86, 27.88, 28.97, 31.52, 43.05, 27.66, 27.42, 21.95, 25.67, 24.02, 25.01, 43.36, 43.87, 19.31, 17.05, 26.62, 26.73, 28.95, 20.4, 17.34, 20.74, 21.57, 21.69, 20.06, 20.47, 18.67, 21.64, 27.5, 29.51, 35.17, 31.37, 18.86]

>  <accession>  (267) 
3ZZC_A

>  <description>  (267) 
Chain A, 3C PROTEINASE [Coxsackievirus B3]

>  <evalue>  (267) 
7.4865399999999999e-87

>  <pdb_code>  (267) 
3ZZC

>  <chain>  (267) 
A

>  <ligands>  (267) 
[{'chain_id': 'A', 'author_residue_number': 1181, 'author_insertion_code': '', 'chem_comp_id': 'G83', 'alternate_conformers': 0, 'entity_id': 2, 'struct_asym_id': 'B', 'residue_number': 1, 'chem_comp_name': 'ETHYL (5S,8S,11R)-8-BENZYL-5-(2-TERT-BUTOXY-2-OXOETHYL)-3,6,9-TRIOXO-11-{[(3S)-2-OXOPYRROLIDIN-3-YL]METHYL}-1-PHENYL-2-OXA-4,7,10-TRIAZATETRADECAN-14-OATE', 'weight': 680.788, 'carbohydrate_polymer': False, 'branch_name': ''}]

>  <ligand_codes>  (267) 
['G83']

>  <cofactor_codes>  (267) 
[]

>  <has_cofactor>  (267) 
False

>  <covalent>  (267) 
True

>  <base_name>  (267) 
3ZZC

>  <lig_resn>  (267) 
G83

>  <lig_resi>  (267) 
1181

>  <lig_chain>  (267) 
A

>  <lig_segi>  (267) 
B

>  <lig_alt>  (267) 


>  <polymer_chain>  (267) 
A

>  <single_smiles>  (267) 
CCOC(=O)CC[C@H](C[C@@H]1CCNC1=O)NC(=O)[C@H](Cc2ccccc2)NC(=O)[C@H](CC(=O)OC(C)(C)C)NC(=O)OCc3ccccc3

$$$$
G83P1S109
     RDKit          3D

 31 31  0  0  0  0  0  0  0  0999 V2000
   -7.6750    9.9230  -32.2970 C   0  0  0  0  0  0  0  0  0  0  0  0
   -7.7310    9.9410  -33.8290 C   0  0  2  0  0  0  0  0  0  0  0  0
   -8.7450   10.9170  -34.2200 N   0  0  0  0  0  0  0  0  0  0  0  0
   -8.1830    8.5770  -34.4040 C   0  0  2  0  0  0  0  0  0  0  0  0
   -8.4620   12.0930  -34.7840 C   0  0  0  0  0  0  0  0  0  0  0  0
   -8.1980    8.6230  -35.9360 C   0  0  0  0  0  0  0  0  0  0  0  0
   -9.8310    8.1200  -33.8380 R   0  0  0  0  0  0  0  0  0  0  0  0
   -9.6510   12.9770  -35.0820 C   0  0  1  0  0  0  0  0  0  0  0  0
   -7.3180   12.4750  -35.0590 O   0  0  0  0  0  0  0  0  0  0  0  0
   -6.8090    8.9220  -36.4600 C   0  0  0  0  0  0  0  0  0  0  0  0
   -9.2610   14.3500  -34.7310 N   0  0  0  0  0  0  0  0  0  0  0  0
   -9.8940   12.8970  -36.5940 C   0  0  0  0  0  0  0  0  0  0  0  0
   -6.6580    9.7290  -37.6550 O   0  0  0  0  0  0  0  0  0  0  0  0
   -5.8080    8.4980  -35.8980 O   0  0  0  0  0  0  0  0  0  0  0  0
   -9.0700   14.7310  -33.4520 C   0  0  0  0  0  0  0  0  0  0  0  0
  -11.1210   13.7000  -36.9770 C   0  0  0  0  0  0  0  0  0  0  0  0
   -5.3610   10.2030  -38.0740 C   0  0  0  0  0  0  0  0  0  0  0  0
   -8.5890   16.1350  -33.2460 C   0  0  1  0  0  0  0  0  0  0  0  0
   -9.1660   13.9920  -32.4630 O   0  0  0  0  0  0  0  0  0  0  0  0
  -12.3400   13.5180  -36.3250 C   0  0  0  0  0  0  0  0  0  0  0  0
  -11.0320   14.6580  -38.0030 C   0  0  0  0  0  0  0  0  0  0  0  0
   -4.5750    9.1110  -38.7950 C   0  0  0  0  0  0  0  0  0  0  0  0
   -8.9270   16.6710  -31.9560 N   0  0  0  0  0  0  0  0  0  0  0  0
   -7.0940   15.9700  -33.0860 C   0  0  0  0  0  0  0  0  0  0  0  0
  -13.4670   14.3010  -36.6620 C   0  0  0  0  0  0  0  0  0  0  0  0
  -12.1840   15.4150  -38.3560 C   0  0  0  0  0  0  0  0  0  0  0  0
   -9.6140   17.8180  -31.9050 C   0  0  0  0  0  0  0  0  0  0  0  0
   -6.3360   17.1850  -33.4620 C   0  0  0  0  0  0  0  0  0  0  0  0
  -13.4100   15.2640  -37.6860 C   0  0  0  0  0  0  0  0  0  0  0  0
   -9.9760   18.4340  -32.9180 O   0  0  0  0  0  0  0  0  0  0  0  0
   -6.4670   17.7660  -34.5460 O   0  0  0  0  0  0  0  0  0  0  0  0
  2  1  1  1
  3  2  1  0
  2  4  1  0
  5  3  1  0
  4  6  1  0
  4  7  1  1
  8  5  1  0
  5  9  2  0
  6 10  1  0
 11  8  1  0
  8 12  1  6
 10 13  1  0
 10 14  2  0
 15 11  1  0
 12 16  1  0
 17 13  1  0
 18 15  1  0
 15 19  2  0
 16 20  2  0
 16 21  1  0
 17 22  1  0
 23 18  1  0
 18 24  1  1
 25 20  1  0
 26 21  2  0
 27 23  1  0
 28 24  1  0
 25 29  2  0
 29 26  1  0
 27 30  2  0
 31 28  2  0
V    7 *
A    2
 C57
A    3
 N49
A    4
 C63
A    5
 C39
A    6
 C82
A    7
 X  
A    8
 C37
A    9
 O47
A   10
 C84
A   11
 N33
A   12
 C41
A   13
 O86
A   14
 O88
A   15
 C31
A   16
 C51
A   17
 C3 
A   18
 C23
A   19
 O35
A   20
 C53
A   21
 C55
A   22
 C5 
A   23
 N21
A   24
 C25
A   25
 C7 
A   26
 C11
A   29
 C9 
A   30
 O19
A   31
 O1 
M  END
>  <XChem_code>  (268) 
G83§1

>  <Occupancy>  (268) 
[1.0, 1.0, 1.0, 1.0, 1.0, 1.0, 1.0, 1.0, 1.0, 1.0, 1.0, 1.0, 1.0, 1.0, 1.0, 1.0, 1.0, 1.0, 1.0, 1.0, 1.0, 1.0, 1.0, 1.0, 1.0, 1.0, 1.0, 1.0, 1.0, 1.0, 1.0, 1.0, 1.0, 1.0, 1.0, 1.0, 1.0, 1.0, 1.0, 1.0, 1.0, 1.0, 1.0, 1.0, 1.0, 1.0, 1.0, 1.0, 1.0, 1.0]

>  <TempFactor>  (268) 
[21.5, 44.89, 24.36, 42.16, 38.25, 23.95, 40.64, 20.41, 29.29, 22.5, 27.31, 23.15, 28.56, 41.84, 29.6, 38.53, 33.37, 31.58, 30.86, 27.88, 28.97, 31.52, 43.05, 27.66, 27.42, 21.95, 25.67, 24.02, 25.01, 43.36, 43.87, 19.31, 17.05, 26.62, 26.73, 28.95, 20.4, 17.34, 20.74, 21.57, 21.69, 20.06, 20.47, 18.67, 21.64, 27.5, 29.51, 35.17, 31.37, 18.86]

>  <accession>  (268) 
3ZZC_A

>  <description>  (268) 
Chain A, 3C PROTEINASE [Coxsackievirus B3]

>  <evalue>  (268) 
7.4865399999999999e-87

>  <pdb_code>  (268) 
3ZZC

>  <chain>  (268) 
A

>  <ligands>  (268) 
[{'chain_id': 'A', 'author_residue_number': 1181, 'author_insertion_code': '', 'chem_comp_id': 'G83', 'alternate_conformers': 0, 'entity_id': 2, 'struct_asym_id': 'B', 'residue_number': 1, 'chem_comp_name': 'ETHYL (5S,8S,11R)-8-BENZYL-5-(2-TERT-BUTOXY-2-OXOETHYL)-3,6,9-TRIOXO-11-{[(3S)-2-OXOPYRROLIDIN-3-YL]METHYL}-1-PHENYL-2-OXA-4,7,10-TRIAZATETRADECAN-14-OATE', 'weight': 680.788, 'carbohydrate_polymer': False, 'branch_name': ''}]

>  <ligand_codes>  (268) 
['G83']

>  <cofactor_codes>  (268) 
[]

>  <has_cofactor>  (268) 
False

>  <covalent>  (268) 
True

>  <base_name>  (268) 
3ZZC

>  <lig_resn>  (268) 
G83

>  <lig_resi>  (268) 
1181

>  <lig_chain>  (268) 
A

>  <lig_segi>  (268) 
B

>  <lig_alt>  (268) 


>  <polymer_chain>  (268) 
A

>  <single_smiles>  (268) 
CCOC(=O)CC[C@H](C[C@@H]1CCNC1=O)NC(=O)[C@H](Cc2ccccc2)NC(=O)[C@H](CC(=O)OC(C)(C)C)NC(=O)OCc3ccccc3

$$$$
G83P1S110
     RDKit          3D

 31 31  0  0  0  0  0  0  0  0999 V2000
   -9.8940   12.8970  -36.5940 C   0  0  0  0  0  0  0  0  0  0  0  0
   -9.6510   12.9770  -35.0820 C   0  0  2  0  0  0  0  0  0  0  0  0
   -9.2610   14.3500  -34.7310 N   0  0  0  0  0  0  0  0  0  0  0  0
   -8.4620   12.0930  -34.7840 C   0  0  0  0  0  0  0  0  0  0  0  0
   -9.0700   14.7310  -33.4520 C   0  0  0  0  0  0  0  0  0  0  0  0
   -7.3180   12.4750  -35.0590 O   0  0  0  0  0  0  0  0  0  0  0  0
   -8.7450   10.9170  -34.2200 N   0  0  0  0  0  0  0  0  0  0  0  0
   -8.5890   16.1350  -33.2460 C   0  0  1  0  0  0  0  0  0  0  0  0
   -9.1660   13.9920  -32.4630 O   0  0  0  0  0  0  0  0  0  0  0  0
   -7.7310    9.9410  -33.8290 C   0  0  1  0  0  0  0  0  0  0  0  0
   -8.9270   16.6710  -31.9560 N   0  0  0  0  0  0  0  0  0  0  0  0
   -7.0940   15.9700  -33.0860 C   0  0  0  0  0  0  0  0  0  0  0  0
   -7.6750    9.9230  -32.2970 C   0  0  0  0  0  0  0  0  0  0  0  0
   -8.1830    8.5770  -34.4040 C   0  0  2  0  0  0  0  0  0  0  0  0
   -9.6140   17.8180  -31.9050 C   0  0  0  0  0  0  0  0  0  0  0  0
   -6.3360   17.1850  -33.4620 C   0  0  0  0  0  0  0  0  0  0  0  0
   -7.2530   11.2580  -31.6380 C   0  0  1  0  0  0  0  0  0  0  0  0
   -8.1980    8.6230  -35.9360 C   0  0  0  0  0  0  0  0  0  0  0  0
   -9.8310    8.1200  -33.8380 R   0  0  0  0  0  0  0  0  0  0  0  0
   -9.9760   18.4340  -32.9180 O   0  0  0  0  0  0  0  0  0  0  0  0
   -6.4670   17.7660  -34.5460 O   0  0  0  0  0  0  0  0  0  0  0  0
   -7.1040   11.1020  -30.1450 C   0  0  0  0  0  0  0  0  0  0  0  0
   -5.9010   11.8850  -31.9840 C   0  0  0  0  0  0  0  0  0  0  0  0
   -6.8090    8.9220  -36.4600 C   0  0  0  0  0  0  0  0  0  0  0  0
   -7.8010   10.3100  -29.5070 O   0  0  0  0  0  0  0  0  0  0  0  0
   -6.2280   11.9150  -29.7100 N   0  0  0  0  0  0  0  0  0  0  0  0
   -5.4330   12.6240  -30.7080 C   0  0  0  0  0  0  0  0  0  0  0  0
   -6.6580    9.7290  -37.6550 O   0  0  0  0  0  0  0  0  0  0  0  0
   -5.8080    8.4980  -35.8980 O   0  0  0  0  0  0  0  0  0  0  0  0
   -5.3610   10.2030  -38.0740 C   0  0  0  0  0  0  0  0  0  0  0  0
   -4.5750    9.1110  -38.7950 C   0  0  0  0  0  0  0  0  0  0  0  0
  2  1  1  6
  3  2  1  0
  2  4  1  0
  5  3  1  0
  4  6  2  0
  4  7  1  0
  8  5  1  0
  5  9  2  0
  7 10  1  0
 11  8  1  0
  8 12  1  1
 10 13  1  1
 10 14  1  0
 15 11  1  0
 16 12  1  0
 17 13  1  6
 14 18  1  0
 14 19  1  1
 15 20  2  0
 21 16  2  0
 17 22  1  0
 17 23  1  0
 18 24  1  0
 22 25  2  0
 22 26  1  0
 27 23  1  0
 24 28  1  0
 24 29  2  0
 26 27  1  0
 30 28  1  0
 30 31  1  0
V   19 *
A    2
 C37
A    3
 N33
A    4
 C39
A    5
 C31
A    6
 O47
A    7
 N49
A    8
 C23
A    9
 O35
A   10
 C57
A   11
 N21
A   12
 C25
A   13
 C59
A   14
 C63
A   17
 C61
A   18
 C82
A   19
 X  
A   20
 O19
A   21
 O1 
A   22
 C65
A   23
 C73
A   24
 C84
A   25
 O66
A   26
 N69
A   27
 C71
A   28
 O86
A   29
 O88
A   30
 C3 
A   31
 C5 
M  END
>  <XChem_code>  (269) 
G83§1

>  <Occupancy>  (269) 
[1.0, 1.0, 1.0, 1.0, 1.0, 1.0, 1.0, 1.0, 1.0, 1.0, 1.0, 1.0, 1.0, 1.0, 1.0, 1.0, 1.0, 1.0, 1.0, 1.0, 1.0, 1.0, 1.0, 1.0, 1.0, 1.0, 1.0, 1.0, 1.0, 1.0, 1.0, 1.0, 1.0, 1.0, 1.0, 1.0, 1.0, 1.0, 1.0, 1.0, 1.0, 1.0, 1.0, 1.0, 1.0, 1.0, 1.0, 1.0, 1.0, 1.0]

>  <TempFactor>  (269) 
[21.5, 44.89, 24.36, 42.16, 38.25, 23.95, 40.64, 20.41, 29.29, 22.5, 27.31, 23.15, 28.56, 41.84, 29.6, 38.53, 33.37, 31.58, 30.86, 27.88, 28.97, 31.52, 43.05, 27.66, 27.42, 21.95, 25.67, 24.02, 25.01, 43.36, 43.87, 19.31, 17.05, 26.62, 26.73, 28.95, 20.4, 17.34, 20.74, 21.57, 21.69, 20.06, 20.47, 18.67, 21.64, 27.5, 29.51, 35.17, 31.37, 18.86]

>  <accession>  (269) 
3ZZC_A

>  <description>  (269) 
Chain A, 3C PROTEINASE [Coxsackievirus B3]

>  <evalue>  (269) 
7.4865399999999999e-87

>  <pdb_code>  (269) 
3ZZC

>  <chain>  (269) 
A

>  <ligands>  (269) 
[{'chain_id': 'A', 'author_residue_number': 1181, 'author_insertion_code': '', 'chem_comp_id': 'G83', 'alternate_conformers': 0, 'entity_id': 2, 'struct_asym_id': 'B', 'residue_number': 1, 'chem_comp_name': 'ETHYL (5S,8S,11R)-8-BENZYL-5-(2-TERT-BUTOXY-2-OXOETHYL)-3,6,9-TRIOXO-11-{[(3S)-2-OXOPYRROLIDIN-3-YL]METHYL}-1-PHENYL-2-OXA-4,7,10-TRIAZATETRADECAN-14-OATE', 'weight': 680.788, 'carbohydrate_polymer': False, 'branch_name': ''}]

>  <ligand_codes>  (269) 
['G83']

>  <cofactor_codes>  (269) 
[]

>  <has_cofactor>  (269) 
False

>  <covalent>  (269) 
True

>  <base_name>  (269) 
3ZZC

>  <lig_resn>  (269) 
G83

>  <lig_resi>  (269) 
1181

>  <lig_chain>  (269) 
A

>  <lig_segi>  (269) 
B

>  <lig_alt>  (269) 


>  <polymer_chain>  (269) 
A

>  <single_smiles>  (269) 
CCOC(=O)CC[C@H](C[C@@H]1CCNC1=O)NC(=O)[C@H](Cc2ccccc2)NC(=O)[C@H](CC(=O)OC(C)(C)C)NC(=O)OCc3ccccc3

$$$$
G83P1S111
     RDKit          3D

 11 10  0  0  0  0  0  0  0  0999 V2000
  -10.3020   19.6950  -30.3210 C   0  0  0  0  0  0  0  0  0  0  0  0
   -9.9650   18.3270  -30.5810 O   0  0  0  0  0  0  0  0  0  0  0  0
   -9.6140   17.8180  -31.9050 C   0  0  0  0  0  0  0  0  0  0  0  0
   -8.9270   16.6710  -31.9560 N   0  0  0  0  0  0  0  0  0  0  0  0
   -9.9760   18.4340  -32.9180 O   0  0  0  0  0  0  0  0  0  0  0  0
   -8.5890   16.1350  -33.2460 C   0  0  2  0  0  0  0  0  0  0  0  0
   -9.0700   14.7310  -33.4520 C   0  0  0  0  0  0  0  0  0  0  0  0
   -7.0940   15.9700  -33.0860 C   0  0  0  0  0  0  0  0  0  0  0  0
   -9.1660   13.9920  -32.4630 O   0  0  0  0  0  0  0  0  0  0  0  0
   -6.3360   17.1850  -33.4620 C   0  0  0  0  0  0  0  0  0  0  0  0
   -6.4670   17.7660  -34.5460 O   0  0  0  0  0  0  0  0  0  0  0  0
  1  2  1  0
  2  3  1  0
  3  4  1  0
  3  5  2  0
  4  6  1  0
  6  7  1  0
  6  8  1  1
  7  9  2  0
 10  8  1  0
 11 10  2  0
A    2
 O15
A    3
 C17
A    4
 N21
A    5
 O19
A    6
 C23
A    8
 C25
A    9
 O35
A   11
 O1 
M  END
>  <XChem_code>  (270) 
G83§1

>  <Occupancy>  (270) 
[1.0, 1.0, 1.0, 1.0, 1.0, 1.0, 1.0, 1.0, 1.0, 1.0, 1.0, 1.0, 1.0, 1.0, 1.0, 1.0, 1.0, 1.0, 1.0, 1.0, 1.0, 1.0, 1.0, 1.0, 1.0, 1.0, 1.0, 1.0, 1.0, 1.0, 1.0, 1.0, 1.0, 1.0, 1.0, 1.0, 1.0, 1.0, 1.0, 1.0, 1.0, 1.0, 1.0, 1.0, 1.0, 1.0, 1.0, 1.0, 1.0, 1.0]

>  <TempFactor>  (270) 
[21.5, 44.89, 24.36, 42.16, 38.25, 23.95, 40.64, 20.41, 29.29, 22.5, 27.31, 23.15, 28.56, 41.84, 29.6, 38.53, 33.37, 31.58, 30.86, 27.88, 28.97, 31.52, 43.05, 27.66, 27.42, 21.95, 25.67, 24.02, 25.01, 43.36, 43.87, 19.31, 17.05, 26.62, 26.73, 28.95, 20.4, 17.34, 20.74, 21.57, 21.69, 20.06, 20.47, 18.67, 21.64, 27.5, 29.51, 35.17, 31.37, 18.86]

>  <accession>  (270) 
3ZZC_A

>  <description>  (270) 
Chain A, 3C PROTEINASE [Coxsackievirus B3]

>  <evalue>  (270) 
7.4865399999999999e-87

>  <pdb_code>  (270) 
3ZZC

>  <chain>  (270) 
A

>  <ligands>  (270) 
[{'chain_id': 'A', 'author_residue_number': 1181, 'author_insertion_code': '', 'chem_comp_id': 'G83', 'alternate_conformers': 0, 'entity_id': 2, 'struct_asym_id': 'B', 'residue_number': 1, 'chem_comp_name': 'ETHYL (5S,8S,11R)-8-BENZYL-5-(2-TERT-BUTOXY-2-OXOETHYL)-3,6,9-TRIOXO-11-{[(3S)-2-OXOPYRROLIDIN-3-YL]METHYL}-1-PHENYL-2-OXA-4,7,10-TRIAZATETRADECAN-14-OATE', 'weight': 680.788, 'carbohydrate_polymer': False, 'branch_name': ''}]

>  <ligand_codes>  (270) 
['G83']

>  <cofactor_codes>  (270) 
[]

>  <has_cofactor>  (270) 
False

>  <covalent>  (270) 
True

>  <base_name>  (270) 
3ZZC

>  <lig_resn>  (270) 
G83

>  <lig_resi>  (270) 
1181

>  <lig_chain>  (270) 
A

>  <lig_segi>  (270) 
B

>  <lig_alt>  (270) 


>  <polymer_chain>  (270) 
A

>  <single_smiles>  (270) 
CCOC(=O)CC[C@H](C[C@@H]1CCNC1=O)NC(=O)[C@H](Cc2ccccc2)NC(=O)[C@H](CC(=O)OC(C)(C)C)NC(=O)OCc3ccccc3

$$$$
G83P1S112
     RDKit          3D

 29 29  0  0  0  0  0  0  0  0999 V2000
   -7.6750    9.9230  -32.2970 C   0  0  0  0  0  0  0  0  0  0  0  0
   -7.7310    9.9410  -33.8290 C   0  0  2  0  0  0  0  0  0  0  0  0
   -8.7450   10.9170  -34.2200 N   0  0  0  0  0  0  0  0  0  0  0  0
   -8.1830    8.5770  -34.4040 C   0  0  2  0  0  0  0  0  0  0  0  0
   -8.4620   12.0930  -34.7840 C   0  0  0  0  0  0  0  0  0  0  0  0
   -8.1980    8.6230  -35.9360 C   0  0  0  0  0  0  0  0  0  0  0  0
   -9.8310    8.1200  -33.8380 R   0  0  0  0  0  0  0  0  0  0  0  0
   -9.6510   12.9770  -35.0820 C   0  0  1  0  0  0  0  0  0  0  0  0
   -7.3180   12.4750  -35.0590 O   0  0  0  0  0  0  0  0  0  0  0  0
   -6.8090    8.9220  -36.4600 C   0  0  0  0  0  0  0  0  0  0  0  0
   -9.2610   14.3500  -34.7310 N   0  0  0  0  0  0  0  0  0  0  0  0
   -9.8940   12.8970  -36.5940 C   0  0  0  0  0  0  0  0  0  0  0  0
   -6.6580    9.7290  -37.6550 O   0  0  0  0  0  0  0  0  0  0  0  0
   -5.8080    8.4980  -35.8980 O   0  0  0  0  0  0  0  0  0  0  0  0
   -9.0700   14.7310  -33.4520 C   0  0  0  0  0  0  0  0  0  0  0  0
  -11.1210   13.7000  -36.9770 C   0  0  0  0  0  0  0  0  0  0  0  0
   -5.3610   10.2030  -38.0740 C   0  0  0  0  0  0  0  0  0  0  0  0
   -8.5890   16.1350  -33.2460 C   0  0  1  0  0  0  0  0  0  0  0  0
   -9.1660   13.9920  -32.4630 O   0  0  0  0  0  0  0  0  0  0  0  0
  -12.3400   13.5180  -36.3250 C   0  0  0  0  0  0  0  0  0  0  0  0
  -11.0320   14.6580  -38.0030 C   0  0  0  0  0  0  0  0  0  0  0  0
   -4.5750    9.1110  -38.7950 C   0  0  0  0  0  0  0  0  0  0  0  0
   -8.9270   16.6710  -31.9560 N   0  0  0  0  0  0  0  0  0  0  0  0
   -7.0940   15.9700  -33.0860 C   0  0  0  0  0  0  0  0  0  0  0  0
  -13.4670   14.3010  -36.6620 C   0  0  0  0  0  0  0  0  0  0  0  0
  -12.1840   15.4150  -38.3560 C   0  0  0  0  0  0  0  0  0  0  0  0
   -6.3360   17.1850  -33.4620 C   0  0  0  0  0  0  0  0  0  0  0  0
  -13.4100   15.2640  -37.6860 C   0  0  0  0  0  0  0  0  0  0  0  0
   -6.4670   17.7660  -34.5460 O   0  0  0  0  0  0  0  0  0  0  0  0
  2  1  1  1
  3  2  1  0
  2  4  1  0
  5  3  1  0
  4  6  1  0
  4  7  1  1
  8  5  1  0
  5  9  2  0
  6 10  1  0
 11  8  1  0
  8 12  1  6
 10 13  1  0
 10 14  2  0
 15 11  1  0
 12 16  1  0
 17 13  1  0
 18 15  1  0
 15 19  2  0
 16 20  2  0
 16 21  1  0
 17 22  1  0
 18 23  1  1
 18 24  1  0
 25 20  1  0
 26 21  2  0
 27 24  1  0
 25 28  2  0
 28 26  1  0
 29 27  2  0
V    7 *
A    2
 C57
A    3
 N49
A    4
 C63
A    5
 C39
A    6
 C82
A    7
 X  
A    8
 C37
A    9
 O47
A   10
 C84
A   11
 N33
A   12
 C41
A   13
 O86
A   14
 O88
A   15
 C31
A   16
 C51
A   17
 C3 
A   18
 C23
A   19
 O35
A   20
 C53
A   21
 C55
A   22
 C5 
A   24
 C25
A   25
 C7 
A   26
 C11
A   28
 C9 
A   29
 O1 
M  END
>  <XChem_code>  (271) 
G83§1

>  <Occupancy>  (271) 
[1.0, 1.0, 1.0, 1.0, 1.0, 1.0, 1.0, 1.0, 1.0, 1.0, 1.0, 1.0, 1.0, 1.0, 1.0, 1.0, 1.0, 1.0, 1.0, 1.0, 1.0, 1.0, 1.0, 1.0, 1.0, 1.0, 1.0, 1.0, 1.0, 1.0, 1.0, 1.0, 1.0, 1.0, 1.0, 1.0, 1.0, 1.0, 1.0, 1.0, 1.0, 1.0, 1.0, 1.0, 1.0, 1.0, 1.0, 1.0, 1.0, 1.0]

>  <TempFactor>  (271) 
[21.5, 44.89, 24.36, 42.16, 38.25, 23.95, 40.64, 20.41, 29.29, 22.5, 27.31, 23.15, 28.56, 41.84, 29.6, 38.53, 33.37, 31.58, 30.86, 27.88, 28.97, 31.52, 43.05, 27.66, 27.42, 21.95, 25.67, 24.02, 25.01, 43.36, 43.87, 19.31, 17.05, 26.62, 26.73, 28.95, 20.4, 17.34, 20.74, 21.57, 21.69, 20.06, 20.47, 18.67, 21.64, 27.5, 29.51, 35.17, 31.37, 18.86]

>  <accession>  (271) 
3ZZC_A

>  <description>  (271) 
Chain A, 3C PROTEINASE [Coxsackievirus B3]

>  <evalue>  (271) 
7.4865399999999999e-87

>  <pdb_code>  (271) 
3ZZC

>  <chain>  (271) 
A

>  <ligands>  (271) 
[{'chain_id': 'A', 'author_residue_number': 1181, 'author_insertion_code': '', 'chem_comp_id': 'G83', 'alternate_conformers': 0, 'entity_id': 2, 'struct_asym_id': 'B', 'residue_number': 1, 'chem_comp_name': 'ETHYL (5S,8S,11R)-8-BENZYL-5-(2-TERT-BUTOXY-2-OXOETHYL)-3,6,9-TRIOXO-11-{[(3S)-2-OXOPYRROLIDIN-3-YL]METHYL}-1-PHENYL-2-OXA-4,7,10-TRIAZATETRADECAN-14-OATE', 'weight': 680.788, 'carbohydrate_polymer': False, 'branch_name': ''}]

>  <ligand_codes>  (271) 
['G83']

>  <cofactor_codes>  (271) 
[]

>  <has_cofactor>  (271) 
False

>  <covalent>  (271) 
True

>  <base_name>  (271) 
3ZZC

>  <lig_resn>  (271) 
G83

>  <lig_resi>  (271) 
1181

>  <lig_chain>  (271) 
A

>  <lig_segi>  (271) 
B

>  <lig_alt>  (271) 


>  <polymer_chain>  (271) 
A

>  <single_smiles>  (271) 
CCOC(=O)CC[C@H](C[C@@H]1CCNC1=O)NC(=O)[C@H](Cc2ccccc2)NC(=O)[C@H](CC(=O)OC(C)(C)C)NC(=O)OCc3ccccc3

$$$$
G83P1S113
     RDKit          3D

 29 29  0  0  0  0  0  0  0  0999 V2000
   -9.8940   12.8970  -36.5940 C   0  0  0  0  0  0  0  0  0  0  0  0
   -9.6510   12.9770  -35.0820 C   0  0  2  0  0  0  0  0  0  0  0  0
   -9.2610   14.3500  -34.7310 N   0  0  0  0  0  0  0  0  0  0  0  0
   -8.4620   12.0930  -34.7840 C   0  0  0  0  0  0  0  0  0  0  0  0
   -9.0700   14.7310  -33.4520 C   0  0  0  0  0  0  0  0  0  0  0  0
   -7.3180   12.4750  -35.0590 O   0  0  0  0  0  0  0  0  0  0  0  0
   -8.7450   10.9170  -34.2200 N   0  0  0  0  0  0  0  0  0  0  0  0
   -8.5890   16.1350  -33.2460 C   0  0  1  0  0  0  0  0  0  0  0  0
   -9.1660   13.9920  -32.4630 O   0  0  0  0  0  0  0  0  0  0  0  0
   -7.7310    9.9410  -33.8290 C   0  0  1  0  0  0  0  0  0  0  0  0
   -8.9270   16.6710  -31.9560 N   0  0  0  0  0  0  0  0  0  0  0  0
   -7.0940   15.9700  -33.0860 C   0  0  0  0  0  0  0  0  0  0  0  0
   -7.6750    9.9230  -32.2970 C   0  0  0  0  0  0  0  0  0  0  0  0
   -8.1830    8.5770  -34.4040 C   0  0  2  0  0  0  0  0  0  0  0  0
   -6.3360   17.1850  -33.4620 C   0  0  0  0  0  0  0  0  0  0  0  0
   -7.2530   11.2580  -31.6380 C   0  0  1  0  0  0  0  0  0  0  0  0
   -8.1980    8.6230  -35.9360 C   0  0  0  0  0  0  0  0  0  0  0  0
   -9.8310    8.1200  -33.8380 R   0  0  0  0  0  0  0  0  0  0  0  0
   -6.4670   17.7660  -34.5460 O   0  0  0  0  0  0  0  0  0  0  0  0
   -7.1040   11.1020  -30.1450 C   0  0  0  0  0  0  0  0  0  0  0  0
   -5.9010   11.8850  -31.9840 C   0  0  0  0  0  0  0  0  0  0  0  0
   -6.8090    8.9220  -36.4600 C   0  0  0  0  0  0  0  0  0  0  0  0
   -7.8010   10.3100  -29.5070 O   0  0  0  0  0  0  0  0  0  0  0  0
   -6.2280   11.9150  -29.7100 N   0  0  0  0  0  0  0  0  0  0  0  0
   -5.4330   12.6240  -30.7080 C   0  0  0  0  0  0  0  0  0  0  0  0
   -6.6580    9.7290  -37.6550 O   0  0  0  0  0  0  0  0  0  0  0  0
   -5.8080    8.4980  -35.8980 O   0  0  0  0  0  0  0  0  0  0  0  0
   -5.3610   10.2030  -38.0740 C   0  0  0  0  0  0  0  0  0  0  0  0
   -4.5750    9.1110  -38.7950 C   0  0  0  0  0  0  0  0  0  0  0  0
  2  1  1  6
  3  2  1  0
  2  4  1  0
  5  3  1  0
  4  6  2  0
  4  7  1  0
  8  5  1  0
  5  9  2  0
  7 10  1  0
  8 11  1  1
  8 12  1  0
 10 13  1  1
 10 14  1  0
 15 12  1  0
 16 13  1  6
 14 17  1  0
 14 18  1  1
 19 15  2  0
 16 20  1  0
 16 21  1  0
 17 22  1  0
 20 23  2  0
 20 24  1  0
 25 21  1  0
 22 26  1  0
 22 27  2  0
 24 25  1  0
 28 26  1  0
 28 29  1  0
V   18 *
A    2
 C37
A    3
 N33
A    4
 C39
A    5
 C31
A    6
 O47
A    7
 N49
A    8
 C23
A    9
 O35
A   10
 C57
A   12
 C25
A   13
 C59
A   14
 C63
A   16
 C61
A   17
 C82
A   18
 X  
A   19
 O1 
A   20
 C65
A   21
 C73
A   22
 C84
A   23
 O66
A   24
 N69
A   25
 C71
A   26
 O86
A   27
 O88
A   28
 C3 
A   29
 C5 
M  END
>  <XChem_code>  (272) 
G83§1

>  <Occupancy>  (272) 
[1.0, 1.0, 1.0, 1.0, 1.0, 1.0, 1.0, 1.0, 1.0, 1.0, 1.0, 1.0, 1.0, 1.0, 1.0, 1.0, 1.0, 1.0, 1.0, 1.0, 1.0, 1.0, 1.0, 1.0, 1.0, 1.0, 1.0, 1.0, 1.0, 1.0, 1.0, 1.0, 1.0, 1.0, 1.0, 1.0, 1.0, 1.0, 1.0, 1.0, 1.0, 1.0, 1.0, 1.0, 1.0, 1.0, 1.0, 1.0, 1.0, 1.0]

>  <TempFactor>  (272) 
[21.5, 44.89, 24.36, 42.16, 38.25, 23.95, 40.64, 20.41, 29.29, 22.5, 27.31, 23.15, 28.56, 41.84, 29.6, 38.53, 33.37, 31.58, 30.86, 27.88, 28.97, 31.52, 43.05, 27.66, 27.42, 21.95, 25.67, 24.02, 25.01, 43.36, 43.87, 19.31, 17.05, 26.62, 26.73, 28.95, 20.4, 17.34, 20.74, 21.57, 21.69, 20.06, 20.47, 18.67, 21.64, 27.5, 29.51, 35.17, 31.37, 18.86]

>  <accession>  (272) 
3ZZC_A

>  <description>  (272) 
Chain A, 3C PROTEINASE [Coxsackievirus B3]

>  <evalue>  (272) 
7.4865399999999999e-87

>  <pdb_code>  (272) 
3ZZC

>  <chain>  (272) 
A

>  <ligands>  (272) 
[{'chain_id': 'A', 'author_residue_number': 1181, 'author_insertion_code': '', 'chem_comp_id': 'G83', 'alternate_conformers': 0, 'entity_id': 2, 'struct_asym_id': 'B', 'residue_number': 1, 'chem_comp_name': 'ETHYL (5S,8S,11R)-8-BENZYL-5-(2-TERT-BUTOXY-2-OXOETHYL)-3,6,9-TRIOXO-11-{[(3S)-2-OXOPYRROLIDIN-3-YL]METHYL}-1-PHENYL-2-OXA-4,7,10-TRIAZATETRADECAN-14-OATE', 'weight': 680.788, 'carbohydrate_polymer': False, 'branch_name': ''}]

>  <ligand_codes>  (272) 
['G83']

>  <cofactor_codes>  (272) 
[]

>  <has_cofactor>  (272) 
False

>  <covalent>  (272) 
True

>  <base_name>  (272) 
3ZZC

>  <lig_resn>  (272) 
G83

>  <lig_resi>  (272) 
1181

>  <lig_chain>  (272) 
A

>  <lig_segi>  (272) 
B

>  <lig_alt>  (272) 


>  <polymer_chain>  (272) 
A

>  <single_smiles>  (272) 
CCOC(=O)CC[C@H](C[C@@H]1CCNC1=O)NC(=O)[C@H](Cc2ccccc2)NC(=O)[C@H](CC(=O)OC(C)(C)C)NC(=O)OCc3ccccc3

$$$$
G83P1S114
     RDKit          3D

 22 22  0  0  0  0  0  0  0  0999 V2000
   -9.8940   12.8970  -36.5940 C   0  0  0  0  0  0  0  0  0  0  0  0
   -9.6510   12.9770  -35.0820 C   0  0  1  0  0  0  0  0  0  0  0  0
   -8.4620   12.0930  -34.7840 C   0  0  0  0  0  0  0  0  0  0  0  0
   -9.2610   14.3500  -34.7310 N   0  0  0  0  0  0  0  0  0  0  0  0
   -7.3180   12.4750  -35.0590 O   0  0  0  0  0  0  0  0  0  0  0  0
   -9.0700   14.7310  -33.4520 C   0  0  0  0  0  0  0  0  0  0  0  0
   -8.5890   16.1350  -33.2460 C   0  0  2  0  0  0  0  0  0  0  0  0
   -9.1660   13.9920  -32.4630 O   0  0  0  0  0  0  0  0  0  0  0  0
   -7.0940   15.9700  -33.0860 C   0  0  0  0  0  0  0  0  0  0  0  0
   -8.9270   16.6710  -31.9560 N   0  0  0  0  0  0  0  0  0  0  0  0
   -6.3360   17.1850  -33.4620 C   0  0  0  0  0  0  0  0  0  0  0  0
   -9.6140   17.8180  -31.9050 C   0  0  0  0  0  0  0  0  0  0  0  0
   -6.4670   17.7660  -34.5460 O   0  0  0  0  0  0  0  0  0  0  0  0
   -9.9650   18.3270  -30.5810 O   0  0  0  0  0  0  0  0  0  0  0  0
   -9.9760   18.4340  -32.9180 O   0  0  0  0  0  0  0  0  0  0  0  0
  -10.3020   19.6950  -30.3210 C   0  0  0  0  0  0  0  0  0  0  0  0
  -10.4040   19.8340  -28.8340 C   0  0  0  0  0  0  0  0  0  0  0  0
   -9.6890   20.8420  -28.1960 C   0  0  0  0  0  0  0  0  0  0  0  0
  -11.1970   18.9310  -28.1220 C   0  0  0  0  0  0  0  0  0  0  0  0
   -9.7810   20.9510  -26.7880 C   0  0  0  0  0  0  0  0  0  0  0  0
  -11.3130   19.0390  -26.7440 C   0  0  0  0  0  0  0  0  0  0  0  0
  -10.5960   20.0640  -26.0750 C   0  0  0  0  0  0  0  0  0  0  0  0
  2  1  1  6
  2  3  1  0
  4  2  1  0
  3  5  2  0
  6  4  1  0
  7  6  1  0
  6  8  2  0
  7  9  1  1
 10  7  1  0
 11  9  1  0
 12 10  1  0
 13 11  2  0
 14 12  1  0
 12 15  2  0
 16 14  1  0
 17 16  1  0
 18 17  2  0
 17 19  1  0
 20 18  1  0
 19 21  2  0
 20 22  2  0
 21 22  1  0
A    2
 C37
A    4
 N33
A    5
 O47
A    6
 C31
A    7
 C23
A    8
 O35
A    9
 C25
A   10
 N21
A   12
 C17
A   13
 O1 
A   14
 O15
A   15
 O19
A   16
 C13
A   17
 C4 
A   18
 C2 
A   19
 C6 
A   20
 C1 
A   21
 C8 
A   22
 C10
M  END
>  <XChem_code>  (273) 
G83§1

>  <Occupancy>  (273) 
[1.0, 1.0, 1.0, 1.0, 1.0, 1.0, 1.0, 1.0, 1.0, 1.0, 1.0, 1.0, 1.0, 1.0, 1.0, 1.0, 1.0, 1.0, 1.0, 1.0, 1.0, 1.0, 1.0, 1.0, 1.0, 1.0, 1.0, 1.0, 1.0, 1.0, 1.0, 1.0, 1.0, 1.0, 1.0, 1.0, 1.0, 1.0, 1.0, 1.0, 1.0, 1.0, 1.0, 1.0, 1.0, 1.0, 1.0, 1.0, 1.0, 1.0]

>  <TempFactor>  (273) 
[21.5, 44.89, 24.36, 42.16, 38.25, 23.95, 40.64, 20.41, 29.29, 22.5, 27.31, 23.15, 28.56, 41.84, 29.6, 38.53, 33.37, 31.58, 30.86, 27.88, 28.97, 31.52, 43.05, 27.66, 27.42, 21.95, 25.67, 24.02, 25.01, 43.36, 43.87, 19.31, 17.05, 26.62, 26.73, 28.95, 20.4, 17.34, 20.74, 21.57, 21.69, 20.06, 20.47, 18.67, 21.64, 27.5, 29.51, 35.17, 31.37, 18.86]

>  <accession>  (273) 
3ZZC_A

>  <description>  (273) 
Chain A, 3C PROTEINASE [Coxsackievirus B3]

>  <evalue>  (273) 
7.4865399999999999e-87

>  <pdb_code>  (273) 
3ZZC

>  <chain>  (273) 
A

>  <ligands>  (273) 
[{'chain_id': 'A', 'author_residue_number': 1181, 'author_insertion_code': '', 'chem_comp_id': 'G83', 'alternate_conformers': 0, 'entity_id': 2, 'struct_asym_id': 'B', 'residue_number': 1, 'chem_comp_name': 'ETHYL (5S,8S,11R)-8-BENZYL-5-(2-TERT-BUTOXY-2-OXOETHYL)-3,6,9-TRIOXO-11-{[(3S)-2-OXOPYRROLIDIN-3-YL]METHYL}-1-PHENYL-2-OXA-4,7,10-TRIAZATETRADECAN-14-OATE', 'weight': 680.788, 'carbohydrate_polymer': False, 'branch_name': ''}]

>  <ligand_codes>  (273) 
['G83']

>  <cofactor_codes>  (273) 
[]

>  <has_cofactor>  (273) 
False

>  <covalent>  (273) 
True

>  <base_name>  (273) 
3ZZC

>  <lig_resn>  (273) 
G83

>  <lig_resi>  (273) 
1181

>  <lig_chain>  (273) 
A

>  <lig_segi>  (273) 
B

>  <lig_alt>  (273) 


>  <polymer_chain>  (273) 
A

>  <single_smiles>  (273) 
CCOC(=O)CC[C@H](C[C@@H]1CCNC1=O)NC(=O)[C@H](Cc2ccccc2)NC(=O)[C@H](CC(=O)OC(C)(C)C)NC(=O)OCc3ccccc3

$$$$
G83P1S115
     RDKit          3D

 22 22  0  0  0  0  0  0  0  0999 V2000
  -10.3020   19.6950  -30.3210 C   0  0  0  0  0  0  0  0  0  0  0  0
   -9.9650   18.3270  -30.5810 O   0  0  0  0  0  0  0  0  0  0  0  0
   -9.6140   17.8180  -31.9050 C   0  0  0  0  0  0  0  0  0  0  0  0
   -8.9270   16.6710  -31.9560 N   0  0  0  0  0  0  0  0  0  0  0  0
   -9.9760   18.4340  -32.9180 O   0  0  0  0  0  0  0  0  0  0  0  0
   -8.5890   16.1350  -33.2460 C   0  0  2  0  0  0  0  0  0  0  0  0
   -9.0700   14.7310  -33.4520 C   0  0  0  0  0  0  0  0  0  0  0  0
   -7.0940   15.9700  -33.0860 C   0  0  0  0  0  0  0  0  0  0  0  0
   -9.2610   14.3500  -34.7310 N   0  0  0  0  0  0  0  0  0  0  0  0
   -9.1660   13.9920  -32.4630 O   0  0  0  0  0  0  0  0  0  0  0  0
   -6.3360   17.1850  -33.4620 C   0  0  0  0  0  0  0  0  0  0  0  0
   -9.6510   12.9770  -35.0820 C   0  0  2  0  0  0  0  0  0  0  0  0
   -6.4670   17.7660  -34.5460 O   0  0  0  0  0  0  0  0  0  0  0  0
   -8.4620   12.0930  -34.7840 C   0  0  0  0  0  0  0  0  0  0  0  0
   -9.8940   12.8970  -36.5940 C   0  0  0  0  0  0  0  0  0  0  0  0
   -7.3180   12.4750  -35.0590 O   0  0  0  0  0  0  0  0  0  0  0  0
  -11.1210   13.7000  -36.9770 C   0  0  0  0  0  0  0  0  0  0  0  0
  -12.3400   13.5180  -36.3250 C   0  0  0  0  0  0  0  0  0  0  0  0
  -11.0320   14.6580  -38.0030 C   0  0  0  0  0  0  0  0  0  0  0  0
  -13.4670   14.3010  -36.6620 C   0  0  0  0  0  0  0  0  0  0  0  0
  -12.1840   15.4150  -38.3560 C   0  0  0  0  0  0  0  0  0  0  0  0
  -13.4100   15.2640  -37.6860 C   0  0  0  0  0  0  0  0  0  0  0  0
  1  2  1  0
  2  3  1  0
  3  4  1  0
  3  5  2  0
  4  6  1  0
  6  7  1  0
  6  8  1  1
  7  9  1  0
  7 10  2  0
 11  8  1  0
  9 12  1  0
 13 11  2  0
 12 14  1  0
 12 15  1  6
 14 16  2  0
 15 17  1  0
 17 18  2  0
 17 19  1  0
 20 18  1  0
 21 19  2  0
 20 22  2  0
 22 21  1  0
A    2
 O15
A    3
 C17
A    4
 N21
A    5
 O19
A    6
 C23
A    7
 C31
A    8
 C25
A    9
 N33
A   10
 O35
A   12
 C37
A   13
 O1 
A   15
 C41
A   16
 O47
A   17
 C51
A   18
 C53
A   19
 C55
A   20
 C7 
A   21
 C11
A   22
 C9 
M  END
>  <XChem_code>  (274) 
G83§1

>  <Occupancy>  (274) 
[1.0, 1.0, 1.0, 1.0, 1.0, 1.0, 1.0, 1.0, 1.0, 1.0, 1.0, 1.0, 1.0, 1.0, 1.0, 1.0, 1.0, 1.0, 1.0, 1.0, 1.0, 1.0, 1.0, 1.0, 1.0, 1.0, 1.0, 1.0, 1.0, 1.0, 1.0, 1.0, 1.0, 1.0, 1.0, 1.0, 1.0, 1.0, 1.0, 1.0, 1.0, 1.0, 1.0, 1.0, 1.0, 1.0, 1.0, 1.0, 1.0, 1.0]

>  <TempFactor>  (274) 
[21.5, 44.89, 24.36, 42.16, 38.25, 23.95, 40.64, 20.41, 29.29, 22.5, 27.31, 23.15, 28.56, 41.84, 29.6, 38.53, 33.37, 31.58, 30.86, 27.88, 28.97, 31.52, 43.05, 27.66, 27.42, 21.95, 25.67, 24.02, 25.01, 43.36, 43.87, 19.31, 17.05, 26.62, 26.73, 28.95, 20.4, 17.34, 20.74, 21.57, 21.69, 20.06, 20.47, 18.67, 21.64, 27.5, 29.51, 35.17, 31.37, 18.86]

>  <accession>  (274) 
3ZZC_A

>  <description>  (274) 
Chain A, 3C PROTEINASE [Coxsackievirus B3]

>  <evalue>  (274) 
7.4865399999999999e-87

>  <pdb_code>  (274) 
3ZZC

>  <chain>  (274) 
A

>  <ligands>  (274) 
[{'chain_id': 'A', 'author_residue_number': 1181, 'author_insertion_code': '', 'chem_comp_id': 'G83', 'alternate_conformers': 0, 'entity_id': 2, 'struct_asym_id': 'B', 'residue_number': 1, 'chem_comp_name': 'ETHYL (5S,8S,11R)-8-BENZYL-5-(2-TERT-BUTOXY-2-OXOETHYL)-3,6,9-TRIOXO-11-{[(3S)-2-OXOPYRROLIDIN-3-YL]METHYL}-1-PHENYL-2-OXA-4,7,10-TRIAZATETRADECAN-14-OATE', 'weight': 680.788, 'carbohydrate_polymer': False, 'branch_name': ''}]

>  <ligand_codes>  (274) 
['G83']

>  <cofactor_codes>  (274) 
[]

>  <has_cofactor>  (274) 
False

>  <covalent>  (274) 
True

>  <base_name>  (274) 
3ZZC

>  <lig_resn>  (274) 
G83

>  <lig_resi>  (274) 
1181

>  <lig_chain>  (274) 
A

>  <lig_segi>  (274) 
B

>  <lig_alt>  (274) 


>  <polymer_chain>  (274) 
A

>  <single_smiles>  (274) 
CCOC(=O)CC[C@H](C[C@@H]1CCNC1=O)NC(=O)[C@H](Cc2ccccc2)NC(=O)[C@H](CC(=O)OC(C)(C)C)NC(=O)OCc3ccccc3

$$$$
G83P1S116
     RDKit          3D

 19 18  0  0  0  0  0  0  0  0999 V2000
   -9.8940   12.8970  -36.5940 C   0  0  0  0  0  0  0  0  0  0  0  0
   -9.6510   12.9770  -35.0820 C   0  0  1  0  0  0  0  0  0  0  0  0
   -8.4620   12.0930  -34.7840 C   0  0  0  0  0  0  0  0  0  0  0  0
   -9.2610   14.3500  -34.7310 N   0  0  0  0  0  0  0  0  0  0  0  0
   -7.3180   12.4750  -35.0590 O   0  0  0  0  0  0  0  0  0  0  0  0
   -9.0700   14.7310  -33.4520 C   0  0  0  0  0  0  0  0  0  0  0  0
   -8.5890   16.1350  -33.2460 C   0  0  1  0  0  0  0  0  0  0  0  0
   -9.1660   13.9920  -32.4630 O   0  0  0  0  0  0  0  0  0  0  0  0
   -8.9270   16.6710  -31.9560 N   0  0  0  0  0  0  0  0  0  0  0  0
   -7.0940   15.9700  -33.0860 C   0  0  0  0  0  0  0  0  0  0  0  0
   -9.6140   17.8180  -31.9050 C   0  0  0  0  0  0  0  0  0  0  0  0
   -6.3360   17.1850  -33.4620 C   0  0  0  0  0  0  0  0  0  0  0  0
   -9.9760   18.4340  -32.9180 O   0  0  0  0  0  0  0  0  0  0  0  0
   -6.4670   17.7660  -34.5460 O   0  0  0  0  0  0  0  0  0  0  0  0
   -5.3760   17.6500  -32.4930 O   0  0  0  0  0  0  0  0  0  0  0  0
   -4.0330   17.1570  -32.4230 C   0  0  0  0  0  0  0  0  0  0  0  0
   -3.6770   16.1600  -33.5370 C   0  0  0  0  0  0  0  0  0  0  0  0
   -3.9520   16.4650  -31.0680 C   0  0  0  0  0  0  0  0  0  0  0  0
   -3.0820   18.3540  -32.5240 C   0  0  0  0  0  0  0  0  0  0  0  0
  2  1  1  6
  2  3  1  0
  4  2  1  0
  3  5  2  0
  6  4  1  0
  7  6  1  0
  6  8  2  0
  9  7  1  0
  7 10  1  1
 11  9  1  0
 12 10  1  0
 11 13  2  0
 14 12  2  0
 15 12  1  0
 15 16  1  0
 16 17  1  0
 16 18  1  0
 16 19  1  0
A    2
 C37
A    4
 N33
A    5
 O47
A    6
 C31
A    7
 C23
A    8
 O35
A    9
 N21
A   10
 C25
A   12
 C14
A   13
 O19
A   14
 O1 
A   15
 O2 
A   16
 C29
A   17
 C12
A   18
 C43
A   19
 C45
M  END
>  <XChem_code>  (275) 
G83§1

>  <Occupancy>  (275) 
[1.0, 1.0, 1.0, 1.0, 1.0, 1.0, 1.0, 1.0, 1.0, 1.0, 1.0, 1.0, 1.0, 1.0, 1.0, 1.0, 1.0, 1.0, 1.0, 1.0, 1.0, 1.0, 1.0, 1.0, 1.0, 1.0, 1.0, 1.0, 1.0, 1.0, 1.0, 1.0, 1.0, 1.0, 1.0, 1.0, 1.0, 1.0, 1.0, 1.0, 1.0, 1.0, 1.0, 1.0, 1.0, 1.0, 1.0, 1.0, 1.0, 1.0]

>  <TempFactor>  (275) 
[21.5, 44.89, 24.36, 42.16, 38.25, 23.95, 40.64, 20.41, 29.29, 22.5, 27.31, 23.15, 28.56, 41.84, 29.6, 38.53, 33.37, 31.58, 30.86, 27.88, 28.97, 31.52, 43.05, 27.66, 27.42, 21.95, 25.67, 24.02, 25.01, 43.36, 43.87, 19.31, 17.05, 26.62, 26.73, 28.95, 20.4, 17.34, 20.74, 21.57, 21.69, 20.06, 20.47, 18.67, 21.64, 27.5, 29.51, 35.17, 31.37, 18.86]

>  <accession>  (275) 
3ZZC_A

>  <description>  (275) 
Chain A, 3C PROTEINASE [Coxsackievirus B3]

>  <evalue>  (275) 
7.4865399999999999e-87

>  <pdb_code>  (275) 
3ZZC

>  <chain>  (275) 
A

>  <ligands>  (275) 
[{'chain_id': 'A', 'author_residue_number': 1181, 'author_insertion_code': '', 'chem_comp_id': 'G83', 'alternate_conformers': 0, 'entity_id': 2, 'struct_asym_id': 'B', 'residue_number': 1, 'chem_comp_name': 'ETHYL (5S,8S,11R)-8-BENZYL-5-(2-TERT-BUTOXY-2-OXOETHYL)-3,6,9-TRIOXO-11-{[(3S)-2-OXOPYRROLIDIN-3-YL]METHYL}-1-PHENYL-2-OXA-4,7,10-TRIAZATETRADECAN-14-OATE', 'weight': 680.788, 'carbohydrate_polymer': False, 'branch_name': ''}]

>  <ligand_codes>  (275) 
['G83']

>  <cofactor_codes>  (275) 
[]

>  <has_cofactor>  (275) 
False

>  <covalent>  (275) 
True

>  <base_name>  (275) 
3ZZC

>  <lig_resn>  (275) 
G83

>  <lig_resi>  (275) 
1181

>  <lig_chain>  (275) 
A

>  <lig_segi>  (275) 
B

>  <lig_alt>  (275) 


>  <polymer_chain>  (275) 
A

>  <single_smiles>  (275) 
CCOC(=O)CC[C@H](C[C@@H]1CCNC1=O)NC(=O)[C@H](Cc2ccccc2)NC(=O)[C@H](CC(=O)OC(C)(C)C)NC(=O)OCc3ccccc3

$$$$
G83P1S117
     RDKit          3D

 17 16  0  0  0  0  0  0  0  0999 V2000
   -9.8940   12.8970  -36.5940 C   0  0  0  0  0  0  0  0  0  0  0  0
   -9.6510   12.9770  -35.0820 C   0  0  1  0  0  0  0  0  0  0  0  0
   -8.4620   12.0930  -34.7840 C   0  0  0  0  0  0  0  0  0  0  0  0
   -9.2610   14.3500  -34.7310 N   0  0  0  0  0  0  0  0  0  0  0  0
   -7.3180   12.4750  -35.0590 O   0  0  0  0  0  0  0  0  0  0  0  0
   -9.0700   14.7310  -33.4520 C   0  0  0  0  0  0  0  0  0  0  0  0
   -8.5890   16.1350  -33.2460 C   0  0  1  0  0  0  0  0  0  0  0  0
   -9.1660   13.9920  -32.4630 O   0  0  0  0  0  0  0  0  0  0  0  0
   -8.9270   16.6710  -31.9560 N   0  0  0  0  0  0  0  0  0  0  0  0
   -7.0940   15.9700  -33.0860 C   0  0  0  0  0  0  0  0  0  0  0  0
   -6.3360   17.1850  -33.4620 C   0  0  0  0  0  0  0  0  0  0  0  0
   -6.4670   17.7660  -34.5460 O   0  0  0  0  0  0  0  0  0  0  0  0
   -5.3760   17.6500  -32.4930 O   0  0  0  0  0  0  0  0  0  0  0  0
   -4.0330   17.1570  -32.4230 C   0  0  0  0  0  0  0  0  0  0  0  0
   -3.6770   16.1600  -33.5370 C   0  0  0  0  0  0  0  0  0  0  0  0
   -3.9520   16.4650  -31.0680 C   0  0  0  0  0  0  0  0  0  0  0  0
   -3.0820   18.3540  -32.5240 C   0  0  0  0  0  0  0  0  0  0  0  0
  2  1  1  6
  2  3  1  0
  4  2  1  0
  3  5  2  0
  6  4  1  0
  7  6  1  0
  6  8  2  0
  7  9  1  1
  7 10  1  0
 11 10  1  0
 12 11  2  0
 13 11  1  0
 13 14  1  0
 14 15  1  0
 14 16  1  0
 14 17  1  0
A    2
 C37
A    4
 N33
A    5
 O47
A    6
 C31
A    7
 C23
A    8
 O35
A   10
 C25
A   11
 C14
A   12
 O1 
A   13
 O2 
A   14
 C29
A   15
 C12
A   16
 C43
A   17
 C45
M  END
>  <XChem_code>  (276) 
G83§1

>  <Occupancy>  (276) 
[1.0, 1.0, 1.0, 1.0, 1.0, 1.0, 1.0, 1.0, 1.0, 1.0, 1.0, 1.0, 1.0, 1.0, 1.0, 1.0, 1.0, 1.0, 1.0, 1.0, 1.0, 1.0, 1.0, 1.0, 1.0, 1.0, 1.0, 1.0, 1.0, 1.0, 1.0, 1.0, 1.0, 1.0, 1.0, 1.0, 1.0, 1.0, 1.0, 1.0, 1.0, 1.0, 1.0, 1.0, 1.0, 1.0, 1.0, 1.0, 1.0, 1.0]

>  <TempFactor>  (276) 
[21.5, 44.89, 24.36, 42.16, 38.25, 23.95, 40.64, 20.41, 29.29, 22.5, 27.31, 23.15, 28.56, 41.84, 29.6, 38.53, 33.37, 31.58, 30.86, 27.88, 28.97, 31.52, 43.05, 27.66, 27.42, 21.95, 25.67, 24.02, 25.01, 43.36, 43.87, 19.31, 17.05, 26.62, 26.73, 28.95, 20.4, 17.34, 20.74, 21.57, 21.69, 20.06, 20.47, 18.67, 21.64, 27.5, 29.51, 35.17, 31.37, 18.86]

>  <accession>  (276) 
3ZZC_A

>  <description>  (276) 
Chain A, 3C PROTEINASE [Coxsackievirus B3]

>  <evalue>  (276) 
7.4865399999999999e-87

>  <pdb_code>  (276) 
3ZZC

>  <chain>  (276) 
A

>  <ligands>  (276) 
[{'chain_id': 'A', 'author_residue_number': 1181, 'author_insertion_code': '', 'chem_comp_id': 'G83', 'alternate_conformers': 0, 'entity_id': 2, 'struct_asym_id': 'B', 'residue_number': 1, 'chem_comp_name': 'ETHYL (5S,8S,11R)-8-BENZYL-5-(2-TERT-BUTOXY-2-OXOETHYL)-3,6,9-TRIOXO-11-{[(3S)-2-OXOPYRROLIDIN-3-YL]METHYL}-1-PHENYL-2-OXA-4,7,10-TRIAZATETRADECAN-14-OATE', 'weight': 680.788, 'carbohydrate_polymer': False, 'branch_name': ''}]

>  <ligand_codes>  (276) 
['G83']

>  <cofactor_codes>  (276) 
[]

>  <has_cofactor>  (276) 
False

>  <covalent>  (276) 
True

>  <base_name>  (276) 
3ZZC

>  <lig_resn>  (276) 
G83

>  <lig_resi>  (276) 
1181

>  <lig_chain>  (276) 
A

>  <lig_segi>  (276) 
B

>  <lig_alt>  (276) 


>  <polymer_chain>  (276) 
A

>  <single_smiles>  (276) 
CCOC(=O)CC[C@H](C[C@@H]1CCNC1=O)NC(=O)[C@H](Cc2ccccc2)NC(=O)[C@H](CC(=O)OC(C)(C)C)NC(=O)OCc3ccccc3

$$$$
G83P1S118
     RDKit          3D

  5  4  0  0  0  0  0  0  0  0999 V2000
   -9.8940   12.8970  -36.5940 C   0  0  0  0  0  0  0  0  0  0  0  0
   -9.6510   12.9770  -35.0820 C   0  0  1  0  0  0  0  0  0  0  0  0
   -8.4620   12.0930  -34.7840 C   0  0  0  0  0  0  0  0  0  0  0  0
   -9.2610   14.3500  -34.7310 N   0  0  0  0  0  0  0  0  0  0  0  0
   -7.3180   12.4750  -35.0590 O   0  0  0  0  0  0  0  0  0  0  0  0
  2  1  1  6
  2  3  1  0
  4  2  1  0
  3  5  2  0
A    2
 C37
A    5
 O47
M  END
>  <XChem_code>  (277) 
G83§1

>  <Occupancy>  (277) 
[1.0, 1.0, 1.0, 1.0, 1.0, 1.0, 1.0, 1.0, 1.0, 1.0, 1.0, 1.0, 1.0, 1.0, 1.0, 1.0, 1.0, 1.0, 1.0, 1.0, 1.0, 1.0, 1.0, 1.0, 1.0, 1.0, 1.0, 1.0, 1.0, 1.0, 1.0, 1.0, 1.0, 1.0, 1.0, 1.0, 1.0, 1.0, 1.0, 1.0, 1.0, 1.0, 1.0, 1.0, 1.0, 1.0, 1.0, 1.0, 1.0, 1.0]

>  <TempFactor>  (277) 
[21.5, 44.89, 24.36, 42.16, 38.25, 23.95, 40.64, 20.41, 29.29, 22.5, 27.31, 23.15, 28.56, 41.84, 29.6, 38.53, 33.37, 31.58, 30.86, 27.88, 28.97, 31.52, 43.05, 27.66, 27.42, 21.95, 25.67, 24.02, 25.01, 43.36, 43.87, 19.31, 17.05, 26.62, 26.73, 28.95, 20.4, 17.34, 20.74, 21.57, 21.69, 20.06, 20.47, 18.67, 21.64, 27.5, 29.51, 35.17, 31.37, 18.86]

>  <accession>  (277) 
3ZZC_A

>  <description>  (277) 
Chain A, 3C PROTEINASE [Coxsackievirus B3]

>  <evalue>  (277) 
7.4865399999999999e-87

>  <pdb_code>  (277) 
3ZZC

>  <chain>  (277) 
A

>  <ligands>  (277) 
[{'chain_id': 'A', 'author_residue_number': 1181, 'author_insertion_code': '', 'chem_comp_id': 'G83', 'alternate_conformers': 0, 'entity_id': 2, 'struct_asym_id': 'B', 'residue_number': 1, 'chem_comp_name': 'ETHYL (5S,8S,11R)-8-BENZYL-5-(2-TERT-BUTOXY-2-OXOETHYL)-3,6,9-TRIOXO-11-{[(3S)-2-OXOPYRROLIDIN-3-YL]METHYL}-1-PHENYL-2-OXA-4,7,10-TRIAZATETRADECAN-14-OATE', 'weight': 680.788, 'carbohydrate_polymer': False, 'branch_name': ''}]

>  <ligand_codes>  (277) 
['G83']

>  <cofactor_codes>  (277) 
[]

>  <has_cofactor>  (277) 
False

>  <covalent>  (277) 
True

>  <base_name>  (277) 
3ZZC

>  <lig_resn>  (277) 
G83

>  <lig_resi>  (277) 
1181

>  <lig_chain>  (277) 
A

>  <lig_segi>  (277) 
B

>  <lig_alt>  (277) 


>  <polymer_chain>  (277) 
A

>  <single_smiles>  (277) 
CCOC(=O)CC[C@H](C[C@@H]1CCNC1=O)NC(=O)[C@H](Cc2ccccc2)NC(=O)[C@H](CC(=O)OC(C)(C)C)NC(=O)OCc3ccccc3

$$$$
G83P1S119
     RDKit          3D

 14 13  0  0  0  0  0  0  0  0999 V2000
   -9.8940   12.8970  -36.5940 C   0  0  0  0  0  0  0  0  0  0  0  0
   -9.6510   12.9770  -35.0820 C   0  0  1  0  0  0  0  0  0  0  0  0
   -8.4620   12.0930  -34.7840 C   0  0  0  0  0  0  0  0  0  0  0  0
   -9.2610   14.3500  -34.7310 N   0  0  0  0  0  0  0  0  0  0  0  0
   -7.3180   12.4750  -35.0590 O   0  0  0  0  0  0  0  0  0  0  0  0
   -9.0700   14.7310  -33.4520 C   0  0  0  0  0  0  0  0  0  0  0  0
   -8.5890   16.1350  -33.2460 C   0  0  1  0  0  0  0  0  0  0  0  0
   -9.1660   13.9920  -32.4630 O   0  0  0  0  0  0  0  0  0  0  0  0
   -8.9270   16.6710  -31.9560 N   0  0  0  0  0  0  0  0  0  0  0  0
   -7.0940   15.9700  -33.0860 C   0  0  0  0  0  0  0  0  0  0  0  0
   -9.6140   17.8180  -31.9050 C   0  0  0  0  0  0  0  0  0  0  0  0
   -6.3360   17.1850  -33.4620 C   0  0  0  0  0  0  0  0  0  0  0  0
   -9.9760   18.4340  -32.9180 O   0  0  0  0  0  0  0  0  0  0  0  0
   -6.4670   17.7660  -34.5460 O   0  0  0  0  0  0  0  0  0  0  0  0
  2  1  1  6
  2  3  1  0
  4  2  1  0
  3  5  2  0
  6  4  1  0
  7  6  1  0
  6  8  2  0
  9  7  1  0
  7 10  1  1
 11  9  1  0
 12 10  1  0
 11 13  2  0
 14 12  2  0
A    2
 C37
A    4
 N33
A    5
 O47
A    6
 C31
A    7
 C23
A    8
 O35
A    9
 N21
A   10
 C25
A   13
 O19
A   14
 O1 
M  END
>  <XChem_code>  (278) 
G83§1

>  <Occupancy>  (278) 
[1.0, 1.0, 1.0, 1.0, 1.0, 1.0, 1.0, 1.0, 1.0, 1.0, 1.0, 1.0, 1.0, 1.0, 1.0, 1.0, 1.0, 1.0, 1.0, 1.0, 1.0, 1.0, 1.0, 1.0, 1.0, 1.0, 1.0, 1.0, 1.0, 1.0, 1.0, 1.0, 1.0, 1.0, 1.0, 1.0, 1.0, 1.0, 1.0, 1.0, 1.0, 1.0, 1.0, 1.0, 1.0, 1.0, 1.0, 1.0, 1.0, 1.0]

>  <TempFactor>  (278) 
[21.5, 44.89, 24.36, 42.16, 38.25, 23.95, 40.64, 20.41, 29.29, 22.5, 27.31, 23.15, 28.56, 41.84, 29.6, 38.53, 33.37, 31.58, 30.86, 27.88, 28.97, 31.52, 43.05, 27.66, 27.42, 21.95, 25.67, 24.02, 25.01, 43.36, 43.87, 19.31, 17.05, 26.62, 26.73, 28.95, 20.4, 17.34, 20.74, 21.57, 21.69, 20.06, 20.47, 18.67, 21.64, 27.5, 29.51, 35.17, 31.37, 18.86]

>  <accession>  (278) 
3ZZC_A

>  <description>  (278) 
Chain A, 3C PROTEINASE [Coxsackievirus B3]

>  <evalue>  (278) 
7.4865399999999999e-87

>  <pdb_code>  (278) 
3ZZC

>  <chain>  (278) 
A

>  <ligands>  (278) 
[{'chain_id': 'A', 'author_residue_number': 1181, 'author_insertion_code': '', 'chem_comp_id': 'G83', 'alternate_conformers': 0, 'entity_id': 2, 'struct_asym_id': 'B', 'residue_number': 1, 'chem_comp_name': 'ETHYL (5S,8S,11R)-8-BENZYL-5-(2-TERT-BUTOXY-2-OXOETHYL)-3,6,9-TRIOXO-11-{[(3S)-2-OXOPYRROLIDIN-3-YL]METHYL}-1-PHENYL-2-OXA-4,7,10-TRIAZATETRADECAN-14-OATE', 'weight': 680.788, 'carbohydrate_polymer': False, 'branch_name': ''}]

>  <ligand_codes>  (278) 
['G83']

>  <cofactor_codes>  (278) 
[]

>  <has_cofactor>  (278) 
False

>  <covalent>  (278) 
True

>  <base_name>  (278) 
3ZZC

>  <lig_resn>  (278) 
G83

>  <lig_resi>  (278) 
1181

>  <lig_chain>  (278) 
A

>  <lig_segi>  (278) 
B

>  <lig_alt>  (278) 


>  <polymer_chain>  (278) 
A

>  <single_smiles>  (278) 
CCOC(=O)CC[C@H](C[C@@H]1CCNC1=O)NC(=O)[C@H](Cc2ccccc2)NC(=O)[C@H](CC(=O)OC(C)(C)C)NC(=O)OCc3ccccc3

$$$$
G83P1S120
     RDKit          3D

 12 11  0  0  0  0  0  0  0  0999 V2000
   -9.8940   12.8970  -36.5940 C   0  0  0  0  0  0  0  0  0  0  0  0
   -9.6510   12.9770  -35.0820 C   0  0  1  0  0  0  0  0  0  0  0  0
   -8.4620   12.0930  -34.7840 C   0  0  0  0  0  0  0  0  0  0  0  0
   -9.2610   14.3500  -34.7310 N   0  0  0  0  0  0  0  0  0  0  0  0
   -7.3180   12.4750  -35.0590 O   0  0  0  0  0  0  0  0  0  0  0  0
   -9.0700   14.7310  -33.4520 C   0  0  0  0  0  0  0  0  0  0  0  0
   -8.5890   16.1350  -33.2460 C   0  0  1  0  0  0  0  0  0  0  0  0
   -9.1660   13.9920  -32.4630 O   0  0  0  0  0  0  0  0  0  0  0  0
   -8.9270   16.6710  -31.9560 N   0  0  0  0  0  0  0  0  0  0  0  0
   -7.0940   15.9700  -33.0860 C   0  0  0  0  0  0  0  0  0  0  0  0
   -6.3360   17.1850  -33.4620 C   0  0  0  0  0  0  0  0  0  0  0  0
   -6.4670   17.7660  -34.5460 O   0  0  0  0  0  0  0  0  0  0  0  0
  2  1  1  6
  2  3  1  0
  4  2  1  0
  3  5  2  0
  6  4  1  0
  7  6  1  0
  6  8  2  0
  7  9  1  1
  7 10  1  0
 11 10  1  0
 12 11  2  0
A    2
 C37
A    4
 N33
A    5
 O47
A    6
 C31
A    7
 C23
A    8
 O35
A   10
 C25
A   12
 O1 
M  END
>  <XChem_code>  (279) 
G83§1

>  <Occupancy>  (279) 
[1.0, 1.0, 1.0, 1.0, 1.0, 1.0, 1.0, 1.0, 1.0, 1.0, 1.0, 1.0, 1.0, 1.0, 1.0, 1.0, 1.0, 1.0, 1.0, 1.0, 1.0, 1.0, 1.0, 1.0, 1.0, 1.0, 1.0, 1.0, 1.0, 1.0, 1.0, 1.0, 1.0, 1.0, 1.0, 1.0, 1.0, 1.0, 1.0, 1.0, 1.0, 1.0, 1.0, 1.0, 1.0, 1.0, 1.0, 1.0, 1.0, 1.0]

>  <TempFactor>  (279) 
[21.5, 44.89, 24.36, 42.16, 38.25, 23.95, 40.64, 20.41, 29.29, 22.5, 27.31, 23.15, 28.56, 41.84, 29.6, 38.53, 33.37, 31.58, 30.86, 27.88, 28.97, 31.52, 43.05, 27.66, 27.42, 21.95, 25.67, 24.02, 25.01, 43.36, 43.87, 19.31, 17.05, 26.62, 26.73, 28.95, 20.4, 17.34, 20.74, 21.57, 21.69, 20.06, 20.47, 18.67, 21.64, 27.5, 29.51, 35.17, 31.37, 18.86]

>  <accession>  (279) 
3ZZC_A

>  <description>  (279) 
Chain A, 3C PROTEINASE [Coxsackievirus B3]

>  <evalue>  (279) 
7.4865399999999999e-87

>  <pdb_code>  (279) 
3ZZC

>  <chain>  (279) 
A

>  <ligands>  (279) 
[{'chain_id': 'A', 'author_residue_number': 1181, 'author_insertion_code': '', 'chem_comp_id': 'G83', 'alternate_conformers': 0, 'entity_id': 2, 'struct_asym_id': 'B', 'residue_number': 1, 'chem_comp_name': 'ETHYL (5S,8S,11R)-8-BENZYL-5-(2-TERT-BUTOXY-2-OXOETHYL)-3,6,9-TRIOXO-11-{[(3S)-2-OXOPYRROLIDIN-3-YL]METHYL}-1-PHENYL-2-OXA-4,7,10-TRIAZATETRADECAN-14-OATE', 'weight': 680.788, 'carbohydrate_polymer': False, 'branch_name': ''}]

>  <ligand_codes>  (279) 
['G83']

>  <cofactor_codes>  (279) 
[]

>  <has_cofactor>  (279) 
False

>  <covalent>  (279) 
True

>  <base_name>  (279) 
3ZZC

>  <lig_resn>  (279) 
G83

>  <lig_resi>  (279) 
1181

>  <lig_chain>  (279) 
A

>  <lig_segi>  (279) 
B

>  <lig_alt>  (279) 


>  <polymer_chain>  (279) 
A

>  <single_smiles>  (279) 
CCOC(=O)CC[C@H](C[C@@H]1CCNC1=O)NC(=O)[C@H](Cc2ccccc2)NC(=O)[C@H](CC(=O)OC(C)(C)C)NC(=O)OCc3ccccc3

$$$$
G83P1S121
     RDKit          3D

 40 41  0  0  0  0  0  0  0  0999 V2000
   -7.6750    9.9230  -32.2970 C   0  0  0  0  0  0  0  0  0  0  0  0
   -7.7310    9.9410  -33.8290 C   0  0  2  0  0  0  0  0  0  0  0  0
   -8.7450   10.9170  -34.2200 N   0  0  0  0  0  0  0  0  0  0  0  0
   -8.1830    8.5770  -34.4040 C   0  0  2  0  0  0  0  0  0  0  0  0
   -8.4620   12.0930  -34.7840 C   0  0  0  0  0  0  0  0  0  0  0  0
   -8.1980    8.6230  -35.9360 C   0  0  0  0  0  0  0  0  0  0  0  0
   -9.8310    8.1200  -33.8380 R   0  0  0  0  0  0  0  0  0  0  0  0
   -9.6510   12.9770  -35.0820 C   0  0  1  0  0  0  0  0  0  0  0  0
   -7.3180   12.4750  -35.0590 O   0  0  0  0  0  0  0  0  0  0  0  0
   -6.8090    8.9220  -36.4600 C   0  0  0  0  0  0  0  0  0  0  0  0
   -9.2610   14.3500  -34.7310 N   0  0  0  0  0  0  0  0  0  0  0  0
   -9.8940   12.8970  -36.5940 C   0  0  0  0  0  0  0  0  0  0  0  0
   -6.6580    9.7290  -37.6550 O   0  0  0  0  0  0  0  0  0  0  0  0
   -5.8080    8.4980  -35.8980 O   0  0  0  0  0  0  0  0  0  0  0  0
   -9.0700   14.7310  -33.4520 C   0  0  0  0  0  0  0  0  0  0  0  0
  -11.1210   13.7000  -36.9770 C   0  0  0  0  0  0  0  0  0  0  0  0
   -5.3610   10.2030  -38.0740 C   0  0  0  0  0  0  0  0  0  0  0  0
   -8.5890   16.1350  -33.2460 C   0  0  2  0  0  0  0  0  0  0  0  0
   -9.1660   13.9920  -32.4630 O   0  0  0  0  0  0  0  0  0  0  0  0
  -12.3400   13.5180  -36.3250 C   0  0  0  0  0  0  0  0  0  0  0  0
  -11.0320   14.6580  -38.0030 C   0  0  0  0  0  0  0  0  0  0  0  0
   -4.5750    9.1110  -38.7950 C   0  0  0  0  0  0  0  0  0  0  0  0
   -7.0940   15.9700  -33.0860 C   0  0  0  0  0  0  0  0  0  0  0  0
   -8.9270   16.6710  -31.9560 N   0  0  0  0  0  0  0  0  0  0  0  0
  -13.4670   14.3010  -36.6620 C   0  0  0  0  0  0  0  0  0  0  0  0
  -12.1840   15.4150  -38.3560 C   0  0  0  0  0  0  0  0  0  0  0  0
   -6.3360   17.1850  -33.4620 C   0  0  0  0  0  0  0  0  0  0  0  0
   -9.6140   17.8180  -31.9050 C   0  0  0  0  0  0  0  0  0  0  0  0
  -13.4100   15.2640  -37.6860 C   0  0  0  0  0  0  0  0  0  0  0  0
   -5.3760   17.6500  -32.4930 O   0  0  0  0  0  0  0  0  0  0  0  0
   -6.4670   17.7660  -34.5460 O   0  0  0  0  0  0  0  0  0  0  0  0
   -9.9650   18.3270  -30.5810 O   0  0  0  0  0  0  0  0  0  0  0  0
   -9.9760   18.4340  -32.9180 O   0  0  0  0  0  0  0  0  0  0  0  0
  -10.3020   19.6950  -30.3210 C   0  0  0  0  0  0  0  0  0  0  0  0
  -10.4040   19.8340  -28.8340 C   0  0  0  0  0  0  0  0  0  0  0  0
   -9.6890   20.8420  -28.1960 C   0  0  0  0  0  0  0  0  0  0  0  0
  -11.1970   18.9310  -28.1220 C   0  0  0  0  0  0  0  0  0  0  0  0
   -9.7810   20.9510  -26.7880 C   0  0  0  0  0  0  0  0  0  0  0  0
  -11.3130   19.0390  -26.7440 C   0  0  0  0  0  0  0  0  0  0  0  0
  -10.5960   20.0640  -26.0750 C   0  0  0  0  0  0  0  0  0  0  0  0
  2  1  1  1
  3  2  1  0
  2  4  1  0
  5  3  1  0
  4  6  1  0
  4  7  1  1
  8  5  1  0
  5  9  2  0
  6 10  1  0
 11  8  1  0
  8 12  1  6
 10 13  1  0
 10 14  2  0
 15 11  1  0
 12 16  1  0
 17 13  1  0
 18 15  1  0
 15 19  2  0
 16 20  2  0
 16 21  1  0
 17 22  1  0
 18 23  1  1
 24 18  1  0
 25 20  1  0
 26 21  2  0
 27 23  1  0
 28 24  1  0
 25 29  2  0
 29 26  1  0
 30 27  1  0
 31 27  2  0
 32 28  1  0
 28 33  2  0
 34 32  1  0
 35 34  1  0
 36 35  2  0
 35 37  1  0
 38 36  1  0
 37 39  2  0
 38 40  2  0
 39 40  1  0
V    7 *
A    2
 C57
A    3
 N49
A    4
 C63
A    5
 C39
A    6
 C82
A    7
 X  
A    8
 C37
A    9
 O47
A   10
 C84
A   11
 N33
A   12
 C41
A   13
 O86
A   14
 O88
A   15
 C31
A   16
 C51
A   17
 C3 
A   18
 C23
A   19
 O35
A   20
 C53
A   21
 C55
A   22
 C5 
A   23
 C25
A   24
 N21
A   25
 C7 
A   26
 C11
A   27
 C14
A   28
 C17
A   29
 C9 
A   31
 O1 
A   32
 O15
A   33
 O19
A   34
 C13
A   35
 C4 
A   36
 C2 
A   37
 C6 
A   38
 C1 
A   39
 C8 
A   40
 C10
M  END
>  <XChem_code>  (280) 
G83§1

>  <Occupancy>  (280) 
[1.0, 1.0, 1.0, 1.0, 1.0, 1.0, 1.0, 1.0, 1.0, 1.0, 1.0, 1.0, 1.0, 1.0, 1.0, 1.0, 1.0, 1.0, 1.0, 1.0, 1.0, 1.0, 1.0, 1.0, 1.0, 1.0, 1.0, 1.0, 1.0, 1.0, 1.0, 1.0, 1.0, 1.0, 1.0, 1.0, 1.0, 1.0, 1.0, 1.0, 1.0, 1.0, 1.0, 1.0, 1.0, 1.0, 1.0, 1.0, 1.0, 1.0]

>  <TempFactor>  (280) 
[21.5, 44.89, 24.36, 42.16, 38.25, 23.95, 40.64, 20.41, 29.29, 22.5, 27.31, 23.15, 28.56, 41.84, 29.6, 38.53, 33.37, 31.58, 30.86, 27.88, 28.97, 31.52, 43.05, 27.66, 27.42, 21.95, 25.67, 24.02, 25.01, 43.36, 43.87, 19.31, 17.05, 26.62, 26.73, 28.95, 20.4, 17.34, 20.74, 21.57, 21.69, 20.06, 20.47, 18.67, 21.64, 27.5, 29.51, 35.17, 31.37, 18.86]

>  <accession>  (280) 
3ZZC_A

>  <description>  (280) 
Chain A, 3C PROTEINASE [Coxsackievirus B3]

>  <evalue>  (280) 
7.4865399999999999e-87

>  <pdb_code>  (280) 
3ZZC

>  <chain>  (280) 
A

>  <ligands>  (280) 
[{'chain_id': 'A', 'author_residue_number': 1181, 'author_insertion_code': '', 'chem_comp_id': 'G83', 'alternate_conformers': 0, 'entity_id': 2, 'struct_asym_id': 'B', 'residue_number': 1, 'chem_comp_name': 'ETHYL (5S,8S,11R)-8-BENZYL-5-(2-TERT-BUTOXY-2-OXOETHYL)-3,6,9-TRIOXO-11-{[(3S)-2-OXOPYRROLIDIN-3-YL]METHYL}-1-PHENYL-2-OXA-4,7,10-TRIAZATETRADECAN-14-OATE', 'weight': 680.788, 'carbohydrate_polymer': False, 'branch_name': ''}]

>  <ligand_codes>  (280) 
['G83']

>  <cofactor_codes>  (280) 
[]

>  <has_cofactor>  (280) 
False

>  <covalent>  (280) 
True

>  <base_name>  (280) 
3ZZC

>  <lig_resn>  (280) 
G83

>  <lig_resi>  (280) 
1181

>  <lig_chain>  (280) 
A

>  <lig_segi>  (280) 
B

>  <lig_alt>  (280) 


>  <polymer_chain>  (280) 
A

>  <single_smiles>  (280) 
CCOC(=O)CC[C@H](C[C@@H]1CCNC1=O)NC(=O)[C@H](Cc2ccccc2)NC(=O)[C@H](CC(=O)OC(C)(C)C)NC(=O)OCc3ccccc3

$$$$
G83P1S122
     RDKit          3D

 40 41  0  0  0  0  0  0  0  0999 V2000
  -10.3020   19.6950  -30.3210 C   0  0  0  0  0  0  0  0  0  0  0  0
   -9.9650   18.3270  -30.5810 O   0  0  0  0  0  0  0  0  0  0  0  0
   -9.6140   17.8180  -31.9050 C   0  0  0  0  0  0  0  0  0  0  0  0
   -8.9270   16.6710  -31.9560 N   0  0  0  0  0  0  0  0  0  0  0  0
   -9.9760   18.4340  -32.9180 O   0  0  0  0  0  0  0  0  0  0  0  0
   -8.5890   16.1350  -33.2460 C   0  0  1  0  0  0  0  0  0  0  0  0
   -7.0940   15.9700  -33.0860 C   0  0  0  0  0  0  0  0  0  0  0  0
   -9.0700   14.7310  -33.4520 C   0  0  0  0  0  0  0  0  0  0  0  0
   -6.3360   17.1850  -33.4620 C   0  0  0  0  0  0  0  0  0  0  0  0
   -9.2610   14.3500  -34.7310 N   0  0  0  0  0  0  0  0  0  0  0  0
   -9.1660   13.9920  -32.4630 O   0  0  0  0  0  0  0  0  0  0  0  0
   -5.3760   17.6500  -32.4930 O   0  0  0  0  0  0  0  0  0  0  0  0
   -6.4670   17.7660  -34.5460 O   0  0  0  0  0  0  0  0  0  0  0  0
   -9.6510   12.9770  -35.0820 C   0  0  2  0  0  0  0  0  0  0  0  0
   -8.4620   12.0930  -34.7840 C   0  0  0  0  0  0  0  0  0  0  0  0
   -9.8940   12.8970  -36.5940 C   0  0  0  0  0  0  0  0  0  0  0  0
   -7.3180   12.4750  -35.0590 O   0  0  0  0  0  0  0  0  0  0  0  0
   -8.7450   10.9170  -34.2200 N   0  0  0  0  0  0  0  0  0  0  0  0
  -11.1210   13.7000  -36.9770 C   0  0  0  0  0  0  0  0  0  0  0  0
   -7.7310    9.9410  -33.8290 C   0  0  1  0  0  0  0  0  0  0  0  0
  -12.3400   13.5180  -36.3250 C   0  0  0  0  0  0  0  0  0  0  0  0
  -11.0320   14.6580  -38.0030 C   0  0  0  0  0  0  0  0  0  0  0  0
   -7.6750    9.9230  -32.2970 C   0  0  0  0  0  0  0  0  0  0  0  0
   -8.1830    8.5770  -34.4040 C   0  0  2  0  0  0  0  0  0  0  0  0
  -13.4670   14.3010  -36.6620 C   0  0  0  0  0  0  0  0  0  0  0  0
  -12.1840   15.4150  -38.3560 C   0  0  0  0  0  0  0  0  0  0  0  0
   -7.2530   11.2580  -31.6380 C   0  0  1  0  0  0  0  0  0  0  0  0
   -8.1980    8.6230  -35.9360 C   0  0  0  0  0  0  0  0  0  0  0  0
   -9.8310    8.1200  -33.8380 R   0  0  0  0  0  0  0  0  0  0  0  0
  -13.4100   15.2640  -37.6860 C   0  0  0  0  0  0  0  0  0  0  0  0
   -7.1040   11.1020  -30.1450 C   0  0  0  0  0  0  0  0  0  0  0  0
   -5.9010   11.8850  -31.9840 C   0  0  0  0  0  0  0  0  0  0  0  0
   -6.8090    8.9220  -36.4600 C   0  0  0  0  0  0  0  0  0  0  0  0
   -7.8010   10.3100  -29.5070 O   0  0  0  0  0  0  0  0  0  0  0  0
   -6.2280   11.9150  -29.7100 N   0  0  0  0  0  0  0  0  0  0  0  0
   -5.4330   12.6240  -30.7080 C   0  0  0  0  0  0  0  0  0  0  0  0
   -6.6580    9.7290  -37.6550 O   0  0  0  0  0  0  0  0  0  0  0  0
   -5.8080    8.4980  -35.8980 O   0  0  0  0  0  0  0  0  0  0  0  0
   -5.3610   10.2030  -38.0740 C   0  0  0  0  0  0  0  0  0  0  0  0
   -4.5750    9.1110  -38.7950 C   0  0  0  0  0  0  0  0  0  0  0  0
  1  2  1  0
  2  3  1  0
  3  4  1  0
  3  5  2  0
  4  6  1  0
  6  7  1  1
  6  8  1  0
  9  7  1  0
  8 10  1  0
  8 11  2  0
 12  9  1  0
 13  9  2  0
 10 14  1  0
 14 15  1  0
 14 16  1  6
 15 17  2  0
 15 18  1  0
 16 19  1  0
 18 20  1  0
 19 21  2  0
 19 22  1  0
 20 23  1  1
 20 24  1  0
 25 21  1  0
 26 22  2  0
 27 23  1  6
 24 28  1  0
 24 29  1  1
 25 30  2  0
 30 26  1  0
 27 31  1  0
 27 32  1  0
 28 33  1  0
 31 34  2  0
 31 35  1  0
 36 32  1  0
 33 37  1  0
 33 38  2  0
 35 36  1  0
 39 37  1  0
 39 40  1  0
V   29 *
A    2
 O15
A    3
 C17
A    4
 N21
A    5
 O19
A    6
 C23
A    7
 C25
A    8
 C31
A    9
 C14
A   10
 N33
A   11
 O35
A   13
 O1 
A   14
 C37
A   15
 C39
A   16
 C41
A   17
 O47
A   18
 N49
A   19
 C51
A   20
 C57
A   21
 C53
A   22
 C55
A   23
 C59
A   24
 C63
A   25
 C7 
A   26
 C11
A   27
 C61
A   28
 C82
A   29
 X  
A   30
 C9 
A   31
 C65
A   32
 C73
A   33
 C84
A   34
 O66
A   35
 N69
A   36
 C71
A   37
 O86
A   38
 O88
A   39
 C3 
A   40
 C5 
M  END
>  <XChem_code>  (281) 
G83§1

>  <Occupancy>  (281) 
[1.0, 1.0, 1.0, 1.0, 1.0, 1.0, 1.0, 1.0, 1.0, 1.0, 1.0, 1.0, 1.0, 1.0, 1.0, 1.0, 1.0, 1.0, 1.0, 1.0, 1.0, 1.0, 1.0, 1.0, 1.0, 1.0, 1.0, 1.0, 1.0, 1.0, 1.0, 1.0, 1.0, 1.0, 1.0, 1.0, 1.0, 1.0, 1.0, 1.0, 1.0, 1.0, 1.0, 1.0, 1.0, 1.0, 1.0, 1.0, 1.0, 1.0]

>  <TempFactor>  (281) 
[21.5, 44.89, 24.36, 42.16, 38.25, 23.95, 40.64, 20.41, 29.29, 22.5, 27.31, 23.15, 28.56, 41.84, 29.6, 38.53, 33.37, 31.58, 30.86, 27.88, 28.97, 31.52, 43.05, 27.66, 27.42, 21.95, 25.67, 24.02, 25.01, 43.36, 43.87, 19.31, 17.05, 26.62, 26.73, 28.95, 20.4, 17.34, 20.74, 21.57, 21.69, 20.06, 20.47, 18.67, 21.64, 27.5, 29.51, 35.17, 31.37, 18.86]

>  <accession>  (281) 
3ZZC_A

>  <description>  (281) 
Chain A, 3C PROTEINASE [Coxsackievirus B3]

>  <evalue>  (281) 
7.4865399999999999e-87

>  <pdb_code>  (281) 
3ZZC

>  <chain>  (281) 
A

>  <ligands>  (281) 
[{'chain_id': 'A', 'author_residue_number': 1181, 'author_insertion_code': '', 'chem_comp_id': 'G83', 'alternate_conformers': 0, 'entity_id': 2, 'struct_asym_id': 'B', 'residue_number': 1, 'chem_comp_name': 'ETHYL (5S,8S,11R)-8-BENZYL-5-(2-TERT-BUTOXY-2-OXOETHYL)-3,6,9-TRIOXO-11-{[(3S)-2-OXOPYRROLIDIN-3-YL]METHYL}-1-PHENYL-2-OXA-4,7,10-TRIAZATETRADECAN-14-OATE', 'weight': 680.788, 'carbohydrate_polymer': False, 'branch_name': ''}]

>  <ligand_codes>  (281) 
['G83']

>  <cofactor_codes>  (281) 
[]

>  <has_cofactor>  (281) 
False

>  <covalent>  (281) 
True

>  <base_name>  (281) 
3ZZC

>  <lig_resn>  (281) 
G83

>  <lig_resi>  (281) 
1181

>  <lig_chain>  (281) 
A

>  <lig_segi>  (281) 
B

>  <lig_alt>  (281) 


>  <polymer_chain>  (281) 
A

>  <single_smiles>  (281) 
CCOC(=O)CC[C@H](C[C@@H]1CCNC1=O)NC(=O)[C@H](Cc2ccccc2)NC(=O)[C@H](CC(=O)OC(C)(C)C)NC(=O)OCc3ccccc3

$$$$
G83P1S123
     RDKit          3D

 40 41  0  0  0  0  0  0  0  0999 V2000
   -9.8940   12.8970  -36.5940 C   0  0  0  0  0  0  0  0  0  0  0  0
   -9.6510   12.9770  -35.0820 C   0  0  2  0  0  0  0  0  0  0  0  0
   -9.2610   14.3500  -34.7310 N   0  0  0  0  0  0  0  0  0  0  0  0
   -8.4620   12.0930  -34.7840 C   0  0  0  0  0  0  0  0  0  0  0  0
   -9.0700   14.7310  -33.4520 C   0  0  0  0  0  0  0  0  0  0  0  0
   -7.3180   12.4750  -35.0590 O   0  0  0  0  0  0  0  0  0  0  0  0
   -8.7450   10.9170  -34.2200 N   0  0  0  0  0  0  0  0  0  0  0  0
   -8.5890   16.1350  -33.2460 C   0  0  2  0  0  0  0  0  0  0  0  0
   -9.1660   13.9920  -32.4630 O   0  0  0  0  0  0  0  0  0  0  0  0
   -7.7310    9.9410  -33.8290 C   0  0  1  0  0  0  0  0  0  0  0  0
   -7.0940   15.9700  -33.0860 C   0  0  0  0  0  0  0  0  0  0  0  0
   -8.9270   16.6710  -31.9560 N   0  0  0  0  0  0  0  0  0  0  0  0
   -7.6750    9.9230  -32.2970 C   0  0  0  0  0  0  0  0  0  0  0  0
   -8.1830    8.5770  -34.4040 C   0  0  2  0  0  0  0  0  0  0  0  0
   -6.3360   17.1850  -33.4620 C   0  0  0  0  0  0  0  0  0  0  0  0
   -9.6140   17.8180  -31.9050 C   0  0  0  0  0  0  0  0  0  0  0  0
   -7.2530   11.2580  -31.6380 C   0  0  1  0  0  0  0  0  0  0  0  0
   -8.1980    8.6230  -35.9360 C   0  0  0  0  0  0  0  0  0  0  0  0
   -9.8310    8.1200  -33.8380 R   0  0  0  0  0  0  0  0  0  0  0  0
   -5.3760   17.6500  -32.4930 O   0  0  0  0  0  0  0  0  0  0  0  0
   -6.4670   17.7660  -34.5460 O   0  0  0  0  0  0  0  0  0  0  0  0
   -9.9650   18.3270  -30.5810 O   0  0  0  0  0  0  0  0  0  0  0  0
   -9.9760   18.4340  -32.9180 O   0  0  0  0  0  0  0  0  0  0  0  0
   -7.1040   11.1020  -30.1450 C   0  0  0  0  0  0  0  0  0  0  0  0
   -5.9010   11.8850  -31.9840 C   0  0  0  0  0  0  0  0  0  0  0  0
   -6.8090    8.9220  -36.4600 C   0  0  0  0  0  0  0  0  0  0  0  0
  -10.3020   19.6950  -30.3210 C   0  0  0  0  0  0  0  0  0  0  0  0
   -7.8010   10.3100  -29.5070 O   0  0  0  0  0  0  0  0  0  0  0  0
   -6.2280   11.9150  -29.7100 N   0  0  0  0  0  0  0  0  0  0  0  0
   -5.4330   12.6240  -30.7080 C   0  0  0  0  0  0  0  0  0  0  0  0
   -6.6580    9.7290  -37.6550 O   0  0  0  0  0  0  0  0  0  0  0  0
   -5.8080    8.4980  -35.8980 O   0  0  0  0  0  0  0  0  0  0  0  0
  -10.4040   19.8340  -28.8340 C   0  0  0  0  0  0  0  0  0  0  0  0
   -5.3610   10.2030  -38.0740 C   0  0  0  0  0  0  0  0  0  0  0  0
   -9.6890   20.8420  -28.1960 C   0  0  0  0  0  0  0  0  0  0  0  0
  -11.1970   18.9310  -28.1220 C   0  0  0  0  0  0  0  0  0  0  0  0
   -4.5750    9.1110  -38.7950 C   0  0  0  0  0  0  0  0  0  0  0  0
   -9.7810   20.9510  -26.7880 C   0  0  0  0  0  0  0  0  0  0  0  0
  -11.3130   19.0390  -26.7440 C   0  0  0  0  0  0  0  0  0  0  0  0
  -10.5960   20.0640  -26.0750 C   0  0  0  0  0  0  0  0  0  0  0  0
  2  1  1  6
  3  2  1  0
  2  4  1  0
  5  3  1  0
  4  6  2  0
  4  7  1  0
  8  5  1  0
  5  9  2  0
  7 10  1  0
  8 11  1  1
 12  8  1  0
 10 13  1  1
 10 14  1  0
 15 11  1  0
 16 12  1  0
 17 13  1  6
 14 18  1  0
 14 19  1  1
 20 15  1  0
 21 15  2  0
 22 16  1  0
 16 23  2  0
 17 24  1  0
 17 25  1  0
 18 26  1  0
 27 22  1  0
 24 28  2  0
 24 29  1  0
 30 25  1  0
 26 31  1  0
 26 32  2  0
 33 27  1  0
 29 30  1  0
 34 31  1  0
 35 33  2  0
 33 36  1  0
 34 37  1  0
 38 35  1  0
 36 39  2  0
 38 40  2  0
 39 40  1  0
V   19 *
A    2
 C37
A    3
 N33
A    4
 C39
A    5
 C31
A    6
 O47
A    7
 N49
A    8
 C23
A    9
 O35
A   10
 C57
A   11
 C25
A   12
 N21
A   13
 C59
A   14
 C63
A   15
 C14
A   16
 C17
A   17
 C61
A   18
 C82
A   19
 X  
A   21
 O1 
A   22
 O15
A   23
 O19
A   24
 C65
A   25
 C73
A   26
 C84
A   27
 C13
A   28
 O66
A   29
 N69
A   30
 C71
A   31
 O86
A   32
 O88
A   33
 C4 
A   34
 C3 
A   35
 C2 
A   36
 C6 
A   37
 C5 
A   38
 C1 
A   39
 C8 
A   40
 C10
M  END
>  <XChem_code>  (282) 
G83§1

>  <Occupancy>  (282) 
[1.0, 1.0, 1.0, 1.0, 1.0, 1.0, 1.0, 1.0, 1.0, 1.0, 1.0, 1.0, 1.0, 1.0, 1.0, 1.0, 1.0, 1.0, 1.0, 1.0, 1.0, 1.0, 1.0, 1.0, 1.0, 1.0, 1.0, 1.0, 1.0, 1.0, 1.0, 1.0, 1.0, 1.0, 1.0, 1.0, 1.0, 1.0, 1.0, 1.0, 1.0, 1.0, 1.0, 1.0, 1.0, 1.0, 1.0, 1.0, 1.0, 1.0]

>  <TempFactor>  (282) 
[21.5, 44.89, 24.36, 42.16, 38.25, 23.95, 40.64, 20.41, 29.29, 22.5, 27.31, 23.15, 28.56, 41.84, 29.6, 38.53, 33.37, 31.58, 30.86, 27.88, 28.97, 31.52, 43.05, 27.66, 27.42, 21.95, 25.67, 24.02, 25.01, 43.36, 43.87, 19.31, 17.05, 26.62, 26.73, 28.95, 20.4, 17.34, 20.74, 21.57, 21.69, 20.06, 20.47, 18.67, 21.64, 27.5, 29.51, 35.17, 31.37, 18.86]

>  <accession>  (282) 
3ZZC_A

>  <description>  (282) 
Chain A, 3C PROTEINASE [Coxsackievirus B3]

>  <evalue>  (282) 
7.4865399999999999e-87

>  <pdb_code>  (282) 
3ZZC

>  <chain>  (282) 
A

>  <ligands>  (282) 
[{'chain_id': 'A', 'author_residue_number': 1181, 'author_insertion_code': '', 'chem_comp_id': 'G83', 'alternate_conformers': 0, 'entity_id': 2, 'struct_asym_id': 'B', 'residue_number': 1, 'chem_comp_name': 'ETHYL (5S,8S,11R)-8-BENZYL-5-(2-TERT-BUTOXY-2-OXOETHYL)-3,6,9-TRIOXO-11-{[(3S)-2-OXOPYRROLIDIN-3-YL]METHYL}-1-PHENYL-2-OXA-4,7,10-TRIAZATETRADECAN-14-OATE', 'weight': 680.788, 'carbohydrate_polymer': False, 'branch_name': ''}]

>  <ligand_codes>  (282) 
['G83']

>  <cofactor_codes>  (282) 
[]

>  <has_cofactor>  (282) 
False

>  <covalent>  (282) 
True

>  <base_name>  (282) 
3ZZC

>  <lig_resn>  (282) 
G83

>  <lig_resi>  (282) 
1181

>  <lig_chain>  (282) 
A

>  <lig_segi>  (282) 
B

>  <lig_alt>  (282) 


>  <polymer_chain>  (282) 
A

>  <single_smiles>  (282) 
CCOC(=O)CC[C@H](C[C@@H]1CCNC1=O)NC(=O)[C@H](Cc2ccccc2)NC(=O)[C@H](CC(=O)OC(C)(C)C)NC(=O)OCc3ccccc3

$$$$
G83P1S124
     RDKit          3D

 37 37  0  0  0  0  0  0  0  0999 V2000
   -7.6750    9.9230  -32.2970 C   0  0  0  0  0  0  0  0  0  0  0  0
   -7.7310    9.9410  -33.8290 C   0  0  2  0  0  0  0  0  0  0  0  0
   -8.7450   10.9170  -34.2200 N   0  0  0  0  0  0  0  0  0  0  0  0
   -8.1830    8.5770  -34.4040 C   0  0  2  0  0  0  0  0  0  0  0  0
   -8.4620   12.0930  -34.7840 C   0  0  0  0  0  0  0  0  0  0  0  0
   -8.1980    8.6230  -35.9360 C   0  0  0  0  0  0  0  0  0  0  0  0
   -9.8310    8.1200  -33.8380 R   0  0  0  0  0  0  0  0  0  0  0  0
   -9.6510   12.9770  -35.0820 C   0  0  1  0  0  0  0  0  0  0  0  0
   -7.3180   12.4750  -35.0590 O   0  0  0  0  0  0  0  0  0  0  0  0
   -6.8090    8.9220  -36.4600 C   0  0  0  0  0  0  0  0  0  0  0  0
   -9.2610   14.3500  -34.7310 N   0  0  0  0  0  0  0  0  0  0  0  0
   -9.8940   12.8970  -36.5940 C   0  0  0  0  0  0  0  0  0  0  0  0
   -6.6580    9.7290  -37.6550 O   0  0  0  0  0  0  0  0  0  0  0  0
   -5.8080    8.4980  -35.8980 O   0  0  0  0  0  0  0  0  0  0  0  0
   -9.0700   14.7310  -33.4520 C   0  0  0  0  0  0  0  0  0  0  0  0
  -11.1210   13.7000  -36.9770 C   0  0  0  0  0  0  0  0  0  0  0  0
   -5.3610   10.2030  -38.0740 C   0  0  0  0  0  0  0  0  0  0  0  0
   -8.5890   16.1350  -33.2460 C   0  0  1  0  0  0  0  0  0  0  0  0
   -9.1660   13.9920  -32.4630 O   0  0  0  0  0  0  0  0  0  0  0  0
  -12.3400   13.5180  -36.3250 C   0  0  0  0  0  0  0  0  0  0  0  0
  -11.0320   14.6580  -38.0030 C   0  0  0  0  0  0  0  0  0  0  0  0
   -4.5750    9.1110  -38.7950 C   0  0  0  0  0  0  0  0  0  0  0  0
   -8.9270   16.6710  -31.9560 N   0  0  0  0  0  0  0  0  0  0  0  0
   -7.0940   15.9700  -33.0860 C   0  0  0  0  0  0  0  0  0  0  0  0
  -13.4670   14.3010  -36.6620 C   0  0  0  0  0  0  0  0  0  0  0  0
  -12.1840   15.4150  -38.3560 C   0  0  0  0  0  0  0  0  0  0  0  0
   -9.6140   17.8180  -31.9050 C   0  0  0  0  0  0  0  0  0  0  0  0
   -6.3360   17.1850  -33.4620 C   0  0  0  0  0  0  0  0  0  0  0  0
  -13.4100   15.2640  -37.6860 C   0  0  0  0  0  0  0  0  0  0  0  0
   -9.9650   18.3270  -30.5810 O   0  0  0  0  0  0  0  0  0  0  0  0
   -9.9760   18.4340  -32.9180 O   0  0  0  0  0  0  0  0  0  0  0  0
   -6.4670   17.7660  -34.5460 O   0  0  0  0  0  0  0  0  0  0  0  0
   -5.3760   17.6500  -32.4930 O   0  0  0  0  0  0  0  0  0  0  0  0
   -4.0330   17.1570  -32.4230 C   0  0  0  0  0  0  0  0  0  0  0  0
   -3.6770   16.1600  -33.5370 C   0  0  0  0  0  0  0  0  0  0  0  0
   -3.9520   16.4650  -31.0680 C   0  0  0  0  0  0  0  0  0  0  0  0
   -3.0820   18.3540  -32.5240 C   0  0  0  0  0  0  0  0  0  0  0  0
  2  1  1  1
  3  2  1  0
  2  4  1  0
  5  3  1  0
  4  6  1  0
  4  7  1  1
  8  5  1  0
  5  9  2  0
  6 10  1  0
 11  8  1  0
  8 12  1  6
 10 13  1  0
 10 14  2  0
 15 11  1  0
 12 16  1  0
 17 13  1  0
 18 15  1  0
 15 19  2  0
 16 20  2  0
 16 21  1  0
 17 22  1  0
 23 18  1  0
 18 24  1  1
 25 20  1  0
 26 21  2  0
 27 23  1  0
 28 24  1  0
 25 29  2  0
 29 26  1  0
 30 27  1  0
 27 31  2  0
 32 28  2  0
 33 28  1  0
 33 34  1  0
 34 35  1  0
 34 36  1  0
 34 37  1  0
V    7 *
A    2
 C57
A    3
 N49
A    4
 C63
A    5
 C39
A    6
 C82
A    7
 X  
A    8
 C37
A    9
 O47
A   10
 C84
A   11
 N33
A   12
 C41
A   13
 O86
A   14
 O88
A   15
 C31
A   16
 C51
A   17
 C3 
A   18
 C23
A   19
 O35
A   20
 C53
A   21
 C55
A   22
 C5 
A   23
 N21
A   24
 C25
A   25
 C7 
A   26
 C11
A   27
 C17
A   28
 C14
A   29
 C9 
A   31
 O19
A   32
 O1 
A   33
 O2 
A   34
 C29
A   35
 C12
A   36
 C43
A   37
 C45
M  END
>  <XChem_code>  (283) 
G83§1

>  <Occupancy>  (283) 
[1.0, 1.0, 1.0, 1.0, 1.0, 1.0, 1.0, 1.0, 1.0, 1.0, 1.0, 1.0, 1.0, 1.0, 1.0, 1.0, 1.0, 1.0, 1.0, 1.0, 1.0, 1.0, 1.0, 1.0, 1.0, 1.0, 1.0, 1.0, 1.0, 1.0, 1.0, 1.0, 1.0, 1.0, 1.0, 1.0, 1.0, 1.0, 1.0, 1.0, 1.0, 1.0, 1.0, 1.0, 1.0, 1.0, 1.0, 1.0, 1.0, 1.0]

>  <TempFactor>  (283) 
[21.5, 44.89, 24.36, 42.16, 38.25, 23.95, 40.64, 20.41, 29.29, 22.5, 27.31, 23.15, 28.56, 41.84, 29.6, 38.53, 33.37, 31.58, 30.86, 27.88, 28.97, 31.52, 43.05, 27.66, 27.42, 21.95, 25.67, 24.02, 25.01, 43.36, 43.87, 19.31, 17.05, 26.62, 26.73, 28.95, 20.4, 17.34, 20.74, 21.57, 21.69, 20.06, 20.47, 18.67, 21.64, 27.5, 29.51, 35.17, 31.37, 18.86]

>  <accession>  (283) 
3ZZC_A

>  <description>  (283) 
Chain A, 3C PROTEINASE [Coxsackievirus B3]

>  <evalue>  (283) 
7.4865399999999999e-87

>  <pdb_code>  (283) 
3ZZC

>  <chain>  (283) 
A

>  <ligands>  (283) 
[{'chain_id': 'A', 'author_residue_number': 1181, 'author_insertion_code': '', 'chem_comp_id': 'G83', 'alternate_conformers': 0, 'entity_id': 2, 'struct_asym_id': 'B', 'residue_number': 1, 'chem_comp_name': 'ETHYL (5S,8S,11R)-8-BENZYL-5-(2-TERT-BUTOXY-2-OXOETHYL)-3,6,9-TRIOXO-11-{[(3S)-2-OXOPYRROLIDIN-3-YL]METHYL}-1-PHENYL-2-OXA-4,7,10-TRIAZATETRADECAN-14-OATE', 'weight': 680.788, 'carbohydrate_polymer': False, 'branch_name': ''}]

>  <ligand_codes>  (283) 
['G83']

>  <cofactor_codes>  (283) 
[]

>  <has_cofactor>  (283) 
False

>  <covalent>  (283) 
True

>  <base_name>  (283) 
3ZZC

>  <lig_resn>  (283) 
G83

>  <lig_resi>  (283) 
1181

>  <lig_chain>  (283) 
A

>  <lig_segi>  (283) 
B

>  <lig_alt>  (283) 


>  <polymer_chain>  (283) 
A

>  <single_smiles>  (283) 
CCOC(=O)CC[C@H](C[C@@H]1CCNC1=O)NC(=O)[C@H](Cc2ccccc2)NC(=O)[C@H](CC(=O)OC(C)(C)C)NC(=O)OCc3ccccc3

$$$$
G83P1S125
     RDKit          3D

 37 37  0  0  0  0  0  0  0  0999 V2000
   -9.8940   12.8970  -36.5940 C   0  0  0  0  0  0  0  0  0  0  0  0
   -9.6510   12.9770  -35.0820 C   0  0  2  0  0  0  0  0  0  0  0  0
   -9.2610   14.3500  -34.7310 N   0  0  0  0  0  0  0  0  0  0  0  0
   -8.4620   12.0930  -34.7840 C   0  0  0  0  0  0  0  0  0  0  0  0
   -9.0700   14.7310  -33.4520 C   0  0  0  0  0  0  0  0  0  0  0  0
   -7.3180   12.4750  -35.0590 O   0  0  0  0  0  0  0  0  0  0  0  0
   -8.7450   10.9170  -34.2200 N   0  0  0  0  0  0  0  0  0  0  0  0
   -8.5890   16.1350  -33.2460 C   0  0  1  0  0  0  0  0  0  0  0  0
   -9.1660   13.9920  -32.4630 O   0  0  0  0  0  0  0  0  0  0  0  0
   -7.7310    9.9410  -33.8290 C   0  0  1  0  0  0  0  0  0  0  0  0
   -8.9270   16.6710  -31.9560 N   0  0  0  0  0  0  0  0  0  0  0  0
   -7.0940   15.9700  -33.0860 C   0  0  0  0  0  0  0  0  0  0  0  0
   -7.6750    9.9230  -32.2970 C   0  0  0  0  0  0  0  0  0  0  0  0
   -8.1830    8.5770  -34.4040 C   0  0  2  0  0  0  0  0  0  0  0  0
   -9.6140   17.8180  -31.9050 C   0  0  0  0  0  0  0  0  0  0  0  0
   -6.3360   17.1850  -33.4620 C   0  0  0  0  0  0  0  0  0  0  0  0
   -7.2530   11.2580  -31.6380 C   0  0  1  0  0  0  0  0  0  0  0  0
   -8.1980    8.6230  -35.9360 C   0  0  0  0  0  0  0  0  0  0  0  0
   -9.8310    8.1200  -33.8380 R   0  0  0  0  0  0  0  0  0  0  0  0
   -9.9650   18.3270  -30.5810 O   0  0  0  0  0  0  0  0  0  0  0  0
   -9.9760   18.4340  -32.9180 O   0  0  0  0  0  0  0  0  0  0  0  0
   -6.4670   17.7660  -34.5460 O   0  0  0  0  0  0  0  0  0  0  0  0
   -5.3760   17.6500  -32.4930 O   0  0  0  0  0  0  0  0  0  0  0  0
   -7.1040   11.1020  -30.1450 C   0  0  0  0  0  0  0  0  0  0  0  0
   -5.9010   11.8850  -31.9840 C   0  0  0  0  0  0  0  0  0  0  0  0
   -6.8090    8.9220  -36.4600 C   0  0  0  0  0  0  0  0  0  0  0  0
   -4.0330   17.1570  -32.4230 C   0  0  0  0  0  0  0  0  0  0  0  0
   -7.8010   10.3100  -29.5070 O   0  0  0  0  0  0  0  0  0  0  0  0
   -6.2280   11.9150  -29.7100 N   0  0  0  0  0  0  0  0  0  0  0  0
   -5.4330   12.6240  -30.7080 C   0  0  0  0  0  0  0  0  0  0  0  0
   -6.6580    9.7290  -37.6550 O   0  0  0  0  0  0  0  0  0  0  0  0
   -5.8080    8.4980  -35.8980 O   0  0  0  0  0  0  0  0  0  0  0  0
   -3.6770   16.1600  -33.5370 C   0  0  0  0  0  0  0  0  0  0  0  0
   -3.9520   16.4650  -31.0680 C   0  0  0  0  0  0  0  0  0  0  0  0
   -3.0820   18.3540  -32.5240 C   0  0  0  0  0  0  0  0  0  0  0  0
   -5.3610   10.2030  -38.0740 C   0  0  0  0  0  0  0  0  0  0  0  0
   -4.5750    9.1110  -38.7950 C   0  0  0  0  0  0  0  0  0  0  0  0
  2  1  1  6
  3  2  1  0
  2  4  1  0
  5  3  1  0
  4  6  2  0
  4  7  1  0
  8  5  1  0
  5  9  2  0
  7 10  1  0
 11  8  1  0
  8 12  1  1
 10 13  1  1
 10 14  1  0
 15 11  1  0
 16 12  1  0
 17 13  1  6
 14 18  1  0
 14 19  1  1
 20 15  1  0
 15 21  2  0
 22 16  2  0
 23 16  1  0
 17 24  1  0
 17 25  1  0
 18 26  1  0
 23 27  1  0
 24 28  2  0
 24 29  1  0
 30 25  1  0
 26 31  1  0
 26 32  2  0
 27 33  1  0
 27 34  1  0
 27 35  1  0
 29 30  1  0
 36 31  1  0
 36 37  1  0
V   19 *
A    2
 C37
A    3
 N33
A    4
 C39
A    5
 C31
A    6
 O47
A    7
 N49
A    8
 C23
A    9
 O35
A   10
 C57
A   11
 N21
A   12
 C25
A   13
 C59
A   14
 C63
A   15
 C17
A   16
 C14
A   17
 C61
A   18
 C82
A   19
 X  
A   21
 O19
A   22
 O1 
A   23
 O2 
A   24
 C65
A   25
 C73
A   26
 C84
A   27
 C29
A   28
 O66
A   29
 N69
A   30
 C71
A   31
 O86
A   32
 O88
A   33
 C12
A   34
 C43
A   35
 C45
A   36
 C3 
A   37
 C5 
M  END
>  <XChem_code>  (284) 
G83§1

>  <Occupancy>  (284) 
[1.0, 1.0, 1.0, 1.0, 1.0, 1.0, 1.0, 1.0, 1.0, 1.0, 1.0, 1.0, 1.0, 1.0, 1.0, 1.0, 1.0, 1.0, 1.0, 1.0, 1.0, 1.0, 1.0, 1.0, 1.0, 1.0, 1.0, 1.0, 1.0, 1.0, 1.0, 1.0, 1.0, 1.0, 1.0, 1.0, 1.0, 1.0, 1.0, 1.0, 1.0, 1.0, 1.0, 1.0, 1.0, 1.0, 1.0, 1.0, 1.0, 1.0]

>  <TempFactor>  (284) 
[21.5, 44.89, 24.36, 42.16, 38.25, 23.95, 40.64, 20.41, 29.29, 22.5, 27.31, 23.15, 28.56, 41.84, 29.6, 38.53, 33.37, 31.58, 30.86, 27.88, 28.97, 31.52, 43.05, 27.66, 27.42, 21.95, 25.67, 24.02, 25.01, 43.36, 43.87, 19.31, 17.05, 26.62, 26.73, 28.95, 20.4, 17.34, 20.74, 21.57, 21.69, 20.06, 20.47, 18.67, 21.64, 27.5, 29.51, 35.17, 31.37, 18.86]

>  <accession>  (284) 
3ZZC_A

>  <description>  (284) 
Chain A, 3C PROTEINASE [Coxsackievirus B3]

>  <evalue>  (284) 
7.4865399999999999e-87

>  <pdb_code>  (284) 
3ZZC

>  <chain>  (284) 
A

>  <ligands>  (284) 
[{'chain_id': 'A', 'author_residue_number': 1181, 'author_insertion_code': '', 'chem_comp_id': 'G83', 'alternate_conformers': 0, 'entity_id': 2, 'struct_asym_id': 'B', 'residue_number': 1, 'chem_comp_name': 'ETHYL (5S,8S,11R)-8-BENZYL-5-(2-TERT-BUTOXY-2-OXOETHYL)-3,6,9-TRIOXO-11-{[(3S)-2-OXOPYRROLIDIN-3-YL]METHYL}-1-PHENYL-2-OXA-4,7,10-TRIAZATETRADECAN-14-OATE', 'weight': 680.788, 'carbohydrate_polymer': False, 'branch_name': ''}]

>  <ligand_codes>  (284) 
['G83']

>  <cofactor_codes>  (284) 
[]

>  <has_cofactor>  (284) 
False

>  <covalent>  (284) 
True

>  <base_name>  (284) 
3ZZC

>  <lig_resn>  (284) 
G83

>  <lig_resi>  (284) 
1181

>  <lig_chain>  (284) 
A

>  <lig_segi>  (284) 
B

>  <lig_alt>  (284) 


>  <polymer_chain>  (284) 
A

>  <single_smiles>  (284) 
CCOC(=O)CC[C@H](C[C@@H]1CCNC1=O)NC(=O)[C@H](Cc2ccccc2)NC(=O)[C@H](CC(=O)OC(C)(C)C)NC(=O)OCc3ccccc3

$$$$
G83P1S126
     RDKit          3D

 32 32  0  0  0  0  0  0  0  0999 V2000
   -7.6750    9.9230  -32.2970 C   0  0  0  0  0  0  0  0  0  0  0  0
   -7.7310    9.9410  -33.8290 C   0  0  2  0  0  0  0  0  0  0  0  0
   -8.7450   10.9170  -34.2200 N   0  0  0  0  0  0  0  0  0  0  0  0
   -8.1830    8.5770  -34.4040 C   0  0  2  0  0  0  0  0  0  0  0  0
   -8.4620   12.0930  -34.7840 C   0  0  0  0  0  0  0  0  0  0  0  0
   -8.1980    8.6230  -35.9360 C   0  0  0  0  0  0  0  0  0  0  0  0
   -9.8310    8.1200  -33.8380 R   0  0  0  0  0  0  0  0  0  0  0  0
   -9.6510   12.9770  -35.0820 C   0  0  1  0  0  0  0  0  0  0  0  0
   -7.3180   12.4750  -35.0590 O   0  0  0  0  0  0  0  0  0  0  0  0
   -6.8090    8.9220  -36.4600 C   0  0  0  0  0  0  0  0  0  0  0  0
   -9.2610   14.3500  -34.7310 N   0  0  0  0  0  0  0  0  0  0  0  0
   -9.8940   12.8970  -36.5940 C   0  0  0  0  0  0  0  0  0  0  0  0
   -6.6580    9.7290  -37.6550 O   0  0  0  0  0  0  0  0  0  0  0  0
   -5.8080    8.4980  -35.8980 O   0  0  0  0  0  0  0  0  0  0  0  0
   -9.0700   14.7310  -33.4520 C   0  0  0  0  0  0  0  0  0  0  0  0
  -11.1210   13.7000  -36.9770 C   0  0  0  0  0  0  0  0  0  0  0  0
   -5.3610   10.2030  -38.0740 C   0  0  0  0  0  0  0  0  0  0  0  0
   -8.5890   16.1350  -33.2460 C   0  0  1  0  0  0  0  0  0  0  0  0
   -9.1660   13.9920  -32.4630 O   0  0  0  0  0  0  0  0  0  0  0  0
  -12.3400   13.5180  -36.3250 C   0  0  0  0  0  0  0  0  0  0  0  0
  -11.0320   14.6580  -38.0030 C   0  0  0  0  0  0  0  0  0  0  0  0
   -4.5750    9.1110  -38.7950 C   0  0  0  0  0  0  0  0  0  0  0  0
   -8.9270   16.6710  -31.9560 N   0  0  0  0  0  0  0  0  0  0  0  0
   -7.0940   15.9700  -33.0860 C   0  0  0  0  0  0  0  0  0  0  0  0
  -13.4670   14.3010  -36.6620 C   0  0  0  0  0  0  0  0  0  0  0  0
  -12.1840   15.4150  -38.3560 C   0  0  0  0  0  0  0  0  0  0  0  0
   -9.6140   17.8180  -31.9050 C   0  0  0  0  0  0  0  0  0  0  0  0
   -6.3360   17.1850  -33.4620 C   0  0  0  0  0  0  0  0  0  0  0  0
  -13.4100   15.2640  -37.6860 C   0  0  0  0  0  0  0  0  0  0  0  0
   -9.9650   18.3270  -30.5810 O   0  0  0  0  0  0  0  0  0  0  0  0
   -9.9760   18.4340  -32.9180 O   0  0  0  0  0  0  0  0  0  0  0  0
   -6.4670   17.7660  -34.5460 O   0  0  0  0  0  0  0  0  0  0  0  0
  2  1  1  1
  3  2  1  0
  2  4  1  0
  5  3  1  0
  4  6  1  0
  4  7  1  1
  8  5  1  0
  5  9  2  0
  6 10  1  0
 11  8  1  0
  8 12  1  6
 10 13  1  0
 10 14  2  0
 15 11  1  0
 12 16  1  0
 17 13  1  0
 18 15  1  0
 15 19  2  0
 16 20  2  0
 16 21  1  0
 17 22  1  0
 23 18  1  0
 18 24  1  1
 25 20  1  0
 26 21  2  0
 27 23  1  0
 28 24  1  0
 25 29  2  0
 29 26  1  0
 30 27  1  0
 27 31  2  0
 32 28  2  0
V    7 *
A    2
 C57
A    3
 N49
A    4
 C63
A    5
 C39
A    6
 C82
A    7
 X  
A    8
 C37
A    9
 O47
A   10
 C84
A   11
 N33
A   12
 C41
A   13
 O86
A   14
 O88
A   15
 C31
A   16
 C51
A   17
 C3 
A   18
 C23
A   19
 O35
A   20
 C53
A   21
 C55
A   22
 C5 
A   23
 N21
A   24
 C25
A   25
 C7 
A   26
 C11
A   27
 C17
A   29
 C9 
A   31
 O19
A   32
 O1 
M  END
>  <XChem_code>  (285) 
G83§1

>  <Occupancy>  (285) 
[1.0, 1.0, 1.0, 1.0, 1.0, 1.0, 1.0, 1.0, 1.0, 1.0, 1.0, 1.0, 1.0, 1.0, 1.0, 1.0, 1.0, 1.0, 1.0, 1.0, 1.0, 1.0, 1.0, 1.0, 1.0, 1.0, 1.0, 1.0, 1.0, 1.0, 1.0, 1.0, 1.0, 1.0, 1.0, 1.0, 1.0, 1.0, 1.0, 1.0, 1.0, 1.0, 1.0, 1.0, 1.0, 1.0, 1.0, 1.0, 1.0, 1.0]

>  <TempFactor>  (285) 
[21.5, 44.89, 24.36, 42.16, 38.25, 23.95, 40.64, 20.41, 29.29, 22.5, 27.31, 23.15, 28.56, 41.84, 29.6, 38.53, 33.37, 31.58, 30.86, 27.88, 28.97, 31.52, 43.05, 27.66, 27.42, 21.95, 25.67, 24.02, 25.01, 43.36, 43.87, 19.31, 17.05, 26.62, 26.73, 28.95, 20.4, 17.34, 20.74, 21.57, 21.69, 20.06, 20.47, 18.67, 21.64, 27.5, 29.51, 35.17, 31.37, 18.86]

>  <accession>  (285) 
3ZZC_A

>  <description>  (285) 
Chain A, 3C PROTEINASE [Coxsackievirus B3]

>  <evalue>  (285) 
7.4865399999999999e-87

>  <pdb_code>  (285) 
3ZZC

>  <chain>  (285) 
A

>  <ligands>  (285) 
[{'chain_id': 'A', 'author_residue_number': 1181, 'author_insertion_code': '', 'chem_comp_id': 'G83', 'alternate_conformers': 0, 'entity_id': 2, 'struct_asym_id': 'B', 'residue_number': 1, 'chem_comp_name': 'ETHYL (5S,8S,11R)-8-BENZYL-5-(2-TERT-BUTOXY-2-OXOETHYL)-3,6,9-TRIOXO-11-{[(3S)-2-OXOPYRROLIDIN-3-YL]METHYL}-1-PHENYL-2-OXA-4,7,10-TRIAZATETRADECAN-14-OATE', 'weight': 680.788, 'carbohydrate_polymer': False, 'branch_name': ''}]

>  <ligand_codes>  (285) 
['G83']

>  <cofactor_codes>  (285) 
[]

>  <has_cofactor>  (285) 
False

>  <covalent>  (285) 
True

>  <base_name>  (285) 
3ZZC

>  <lig_resn>  (285) 
G83

>  <lig_resi>  (285) 
1181

>  <lig_chain>  (285) 
A

>  <lig_segi>  (285) 
B

>  <lig_alt>  (285) 


>  <polymer_chain>  (285) 
A

>  <single_smiles>  (285) 
CCOC(=O)CC[C@H](C[C@@H]1CCNC1=O)NC(=O)[C@H](Cc2ccccc2)NC(=O)[C@H](CC(=O)OC(C)(C)C)NC(=O)OCc3ccccc3

$$$$
G83P1S127
     RDKit          3D

 32 32  0  0  0  0  0  0  0  0999 V2000
   -9.8940   12.8970  -36.5940 C   0  0  0  0  0  0  0  0  0  0  0  0
   -9.6510   12.9770  -35.0820 C   0  0  2  0  0  0  0  0  0  0  0  0
   -9.2610   14.3500  -34.7310 N   0  0  0  0  0  0  0  0  0  0  0  0
   -8.4620   12.0930  -34.7840 C   0  0  0  0  0  0  0  0  0  0  0  0
   -9.0700   14.7310  -33.4520 C   0  0  0  0  0  0  0  0  0  0  0  0
   -7.3180   12.4750  -35.0590 O   0  0  0  0  0  0  0  0  0  0  0  0
   -8.7450   10.9170  -34.2200 N   0  0  0  0  0  0  0  0  0  0  0  0
   -8.5890   16.1350  -33.2460 C   0  0  1  0  0  0  0  0  0  0  0  0
   -9.1660   13.9920  -32.4630 O   0  0  0  0  0  0  0  0  0  0  0  0
   -7.7310    9.9410  -33.8290 C   0  0  1  0  0  0  0  0  0  0  0  0
   -8.9270   16.6710  -31.9560 N   0  0  0  0  0  0  0  0  0  0  0  0
   -7.0940   15.9700  -33.0860 C   0  0  0  0  0  0  0  0  0  0  0  0
   -7.6750    9.9230  -32.2970 C   0  0  0  0  0  0  0  0  0  0  0  0
   -8.1830    8.5770  -34.4040 C   0  0  2  0  0  0  0  0  0  0  0  0
   -9.6140   17.8180  -31.9050 C   0  0  0  0  0  0  0  0  0  0  0  0
   -6.3360   17.1850  -33.4620 C   0  0  0  0  0  0  0  0  0  0  0  0
   -7.2530   11.2580  -31.6380 C   0  0  1  0  0  0  0  0  0  0  0  0
   -8.1980    8.6230  -35.9360 C   0  0  0  0  0  0  0  0  0  0  0  0
   -9.8310    8.1200  -33.8380 R   0  0  0  0  0  0  0  0  0  0  0  0
   -9.9650   18.3270  -30.5810 O   0  0  0  0  0  0  0  0  0  0  0  0
   -9.9760   18.4340  -32.9180 O   0  0  0  0  0  0  0  0  0  0  0  0
   -6.4670   17.7660  -34.5460 O   0  0  0  0  0  0  0  0  0  0  0  0
   -7.1040   11.1020  -30.1450 C   0  0  0  0  0  0  0  0  0  0  0  0
   -5.9010   11.8850  -31.9840 C   0  0  0  0  0  0  0  0  0  0  0  0
   -6.8090    8.9220  -36.4600 C   0  0  0  0  0  0  0  0  0  0  0  0
   -7.8010   10.3100  -29.5070 O   0  0  0  0  0  0  0  0  0  0  0  0
   -6.2280   11.9150  -29.7100 N   0  0  0  0  0  0  0  0  0  0  0  0
   -5.4330   12.6240  -30.7080 C   0  0  0  0  0  0  0  0  0  0  0  0
   -6.6580    9.7290  -37.6550 O   0  0  0  0  0  0  0  0  0  0  0  0
   -5.8080    8.4980  -35.8980 O   0  0  0  0  0  0  0  0  0  0  0  0
   -5.3610   10.2030  -38.0740 C   0  0  0  0  0  0  0  0  0  0  0  0
   -4.5750    9.1110  -38.7950 C   0  0  0  0  0  0  0  0  0  0  0  0
  2  1  1  6
  3  2  1  0
  2  4  1  0
  5  3  1  0
  4  6  2  0
  4  7  1  0
  8  5  1  0
  5  9  2  0
  7 10  1  0
 11  8  1  0
  8 12  1  1
 10 13  1  1
 10 14  1  0
 15 11  1  0
 16 12  1  0
 17 13  1  6
 14 18  1  0
 14 19  1  1
 20 15  1  0
 15 21  2  0
 22 16  2  0
 17 23  1  0
 17 24  1  0
 18 25  1  0
 23 26  2  0
 23 27  1  0
 28 24  1  0
 25 29  1  0
 25 30  2  0
 27 28  1  0
 31 29  1  0
 31 32  1  0
V   19 *
A    2
 C37
A    3
 N33
A    4
 C39
A    5
 C31
A    6
 O47
A    7
 N49
A    8
 C23
A    9
 O35
A   10
 C57
A   11
 N21
A   12
 C25
A   13
 C59
A   14
 C63
A   15
 C17
A   17
 C61
A   18
 C82
A   19
 X  
A   21
 O19
A   22
 O1 
A   23
 C65
A   24
 C73
A   25
 C84
A   26
 O66
A   27
 N69
A   28
 C71
A   29
 O86
A   30
 O88
A   31
 C3 
A   32
 C5 
M  END
>  <XChem_code>  (286) 
G83§1

>  <Occupancy>  (286) 
[1.0, 1.0, 1.0, 1.0, 1.0, 1.0, 1.0, 1.0, 1.0, 1.0, 1.0, 1.0, 1.0, 1.0, 1.0, 1.0, 1.0, 1.0, 1.0, 1.0, 1.0, 1.0, 1.0, 1.0, 1.0, 1.0, 1.0, 1.0, 1.0, 1.0, 1.0, 1.0, 1.0, 1.0, 1.0, 1.0, 1.0, 1.0, 1.0, 1.0, 1.0, 1.0, 1.0, 1.0, 1.0, 1.0, 1.0, 1.0, 1.0, 1.0]

>  <TempFactor>  (286) 
[21.5, 44.89, 24.36, 42.16, 38.25, 23.95, 40.64, 20.41, 29.29, 22.5, 27.31, 23.15, 28.56, 41.84, 29.6, 38.53, 33.37, 31.58, 30.86, 27.88, 28.97, 31.52, 43.05, 27.66, 27.42, 21.95, 25.67, 24.02, 25.01, 43.36, 43.87, 19.31, 17.05, 26.62, 26.73, 28.95, 20.4, 17.34, 20.74, 21.57, 21.69, 20.06, 20.47, 18.67, 21.64, 27.5, 29.51, 35.17, 31.37, 18.86]

>  <accession>  (286) 
3ZZC_A

>  <description>  (286) 
Chain A, 3C PROTEINASE [Coxsackievirus B3]

>  <evalue>  (286) 
7.4865399999999999e-87

>  <pdb_code>  (286) 
3ZZC

>  <chain>  (286) 
A

>  <ligands>  (286) 
[{'chain_id': 'A', 'author_residue_number': 1181, 'author_insertion_code': '', 'chem_comp_id': 'G83', 'alternate_conformers': 0, 'entity_id': 2, 'struct_asym_id': 'B', 'residue_number': 1, 'chem_comp_name': 'ETHYL (5S,8S,11R)-8-BENZYL-5-(2-TERT-BUTOXY-2-OXOETHYL)-3,6,9-TRIOXO-11-{[(3S)-2-OXOPYRROLIDIN-3-YL]METHYL}-1-PHENYL-2-OXA-4,7,10-TRIAZATETRADECAN-14-OATE', 'weight': 680.788, 'carbohydrate_polymer': False, 'branch_name': ''}]

>  <ligand_codes>  (286) 
['G83']

>  <cofactor_codes>  (286) 
[]

>  <has_cofactor>  (286) 
False

>  <covalent>  (286) 
True

>  <base_name>  (286) 
3ZZC

>  <lig_resn>  (286) 
G83

>  <lig_resi>  (286) 
1181

>  <lig_chain>  (286) 
A

>  <lig_segi>  (286) 
B

>  <lig_alt>  (286) 


>  <polymer_chain>  (286) 
A

>  <single_smiles>  (286) 
CCOC(=O)CC[C@H](C[C@@H]1CCNC1=O)NC(=O)[C@H](Cc2ccccc2)NC(=O)[C@H](CC(=O)OC(C)(C)C)NC(=O)OCc3ccccc3

$$$$
G83P1S128
     RDKit          3D

 32 32  0  0  0  0  0  0  0  0999 V2000
   -7.6750    9.9230  -32.2970 C   0  0  0  0  0  0  0  0  0  0  0  0
   -7.7310    9.9410  -33.8290 C   0  0  2  0  0  0  0  0  0  0  0  0
   -8.7450   10.9170  -34.2200 N   0  0  0  0  0  0  0  0  0  0  0  0
   -8.1830    8.5770  -34.4040 C   0  0  2  0  0  0  0  0  0  0  0  0
   -8.4620   12.0930  -34.7840 C   0  0  0  0  0  0  0  0  0  0  0  0
   -8.1980    8.6230  -35.9360 C   0  0  0  0  0  0  0  0  0  0  0  0
   -9.8310    8.1200  -33.8380 R   0  0  0  0  0  0  0  0  0  0  0  0
   -9.6510   12.9770  -35.0820 C   0  0  1  0  0  0  0  0  0  0  0  0
   -7.3180   12.4750  -35.0590 O   0  0  0  0  0  0  0  0  0  0  0  0
   -6.8090    8.9220  -36.4600 C   0  0  0  0  0  0  0  0  0  0  0  0
   -9.2610   14.3500  -34.7310 N   0  0  0  0  0  0  0  0  0  0  0  0
   -9.8940   12.8970  -36.5940 C   0  0  0  0  0  0  0  0  0  0  0  0
   -6.6580    9.7290  -37.6550 O   0  0  0  0  0  0  0  0  0  0  0  0
   -5.8080    8.4980  -35.8980 O   0  0  0  0  0  0  0  0  0  0  0  0
   -9.0700   14.7310  -33.4520 C   0  0  0  0  0  0  0  0  0  0  0  0
  -11.1210   13.7000  -36.9770 C   0  0  0  0  0  0  0  0  0  0  0  0
   -5.3610   10.2030  -38.0740 C   0  0  0  0  0  0  0  0  0  0  0  0
   -8.5890   16.1350  -33.2460 C   0  0  2  0  0  0  0  0  0  0  0  0
   -9.1660   13.9920  -32.4630 O   0  0  0  0  0  0  0  0  0  0  0  0
  -12.3400   13.5180  -36.3250 C   0  0  0  0  0  0  0  0  0  0  0  0
  -11.0320   14.6580  -38.0030 C   0  0  0  0  0  0  0  0  0  0  0  0
   -4.5750    9.1110  -38.7950 C   0  0  0  0  0  0  0  0  0  0  0  0
   -7.0940   15.9700  -33.0860 C   0  0  0  0  0  0  0  0  0  0  0  0
   -8.9270   16.6710  -31.9560 N   0  0  0  0  0  0  0  0  0  0  0  0
  -13.4670   14.3010  -36.6620 C   0  0  0  0  0  0  0  0  0  0  0  0
  -12.1840   15.4150  -38.3560 C   0  0  0  0  0  0  0  0  0  0  0  0
   -6.3360   17.1850  -33.4620 C   0  0  0  0  0  0  0  0  0  0  0  0
   -9.6140   17.8180  -31.9050 C   0  0  0  0  0  0  0  0  0  0  0  0
  -13.4100   15.2640  -37.6860 C   0  0  0  0  0  0  0  0  0  0  0  0
   -5.3760   17.6500  -32.4930 O   0  0  0  0  0  0  0  0  0  0  0  0
   -6.4670   17.7660  -34.5460 O   0  0  0  0  0  0  0  0  0  0  0  0
   -9.9760   18.4340  -32.9180 O   0  0  0  0  0  0  0  0  0  0  0  0
  2  1  1  1
  3  2  1  0
  2  4  1  0
  5  3  1  0
  4  6  1  0
  4  7  1  1
  8  5  1  0
  5  9  2  0
  6 10  1  0
 11  8  1  0
  8 12  1  6
 10 13  1  0
 10 14  2  0
 15 11  1  0
 12 16  1  0
 17 13  1  0
 18 15  1  0
 15 19  2  0
 16 20  2  0
 16 21  1  0
 17 22  1  0
 18 23  1  1
 24 18  1  0
 25 20  1  0
 26 21  2  0
 27 23  1  0
 28 24  1  0
 25 29  2  0
 29 26  1  0
 30 27  1  0
 31 27  2  0
 28 32  2  0
V    7 *
A    2
 C57
A    3
 N49
A    4
 C63
A    5
 C39
A    6
 C82
A    7
 X  
A    8
 C37
A    9
 O47
A   10
 C84
A   11
 N33
A   12
 C41
A   13
 O86
A   14
 O88
A   15
 C31
A   16
 C51
A   17
 C3 
A   18
 C23
A   19
 O35
A   20
 C53
A   21
 C55
A   22
 C5 
A   23
 C25
A   24
 N21
A   25
 C7 
A   26
 C11
A   27
 C14
A   29
 C9 
A   31
 O1 
A   32
 O19
M  END
>  <XChem_code>  (287) 
G83§1

>  <Occupancy>  (287) 
[1.0, 1.0, 1.0, 1.0, 1.0, 1.0, 1.0, 1.0, 1.0, 1.0, 1.0, 1.0, 1.0, 1.0, 1.0, 1.0, 1.0, 1.0, 1.0, 1.0, 1.0, 1.0, 1.0, 1.0, 1.0, 1.0, 1.0, 1.0, 1.0, 1.0, 1.0, 1.0, 1.0, 1.0, 1.0, 1.0, 1.0, 1.0, 1.0, 1.0, 1.0, 1.0, 1.0, 1.0, 1.0, 1.0, 1.0, 1.0, 1.0, 1.0]

>  <TempFactor>  (287) 
[21.5, 44.89, 24.36, 42.16, 38.25, 23.95, 40.64, 20.41, 29.29, 22.5, 27.31, 23.15, 28.56, 41.84, 29.6, 38.53, 33.37, 31.58, 30.86, 27.88, 28.97, 31.52, 43.05, 27.66, 27.42, 21.95, 25.67, 24.02, 25.01, 43.36, 43.87, 19.31, 17.05, 26.62, 26.73, 28.95, 20.4, 17.34, 20.74, 21.57, 21.69, 20.06, 20.47, 18.67, 21.64, 27.5, 29.51, 35.17, 31.37, 18.86]

>  <accession>  (287) 
3ZZC_A

>  <description>  (287) 
Chain A, 3C PROTEINASE [Coxsackievirus B3]

>  <evalue>  (287) 
7.4865399999999999e-87

>  <pdb_code>  (287) 
3ZZC

>  <chain>  (287) 
A

>  <ligands>  (287) 
[{'chain_id': 'A', 'author_residue_number': 1181, 'author_insertion_code': '', 'chem_comp_id': 'G83', 'alternate_conformers': 0, 'entity_id': 2, 'struct_asym_id': 'B', 'residue_number': 1, 'chem_comp_name': 'ETHYL (5S,8S,11R)-8-BENZYL-5-(2-TERT-BUTOXY-2-OXOETHYL)-3,6,9-TRIOXO-11-{[(3S)-2-OXOPYRROLIDIN-3-YL]METHYL}-1-PHENYL-2-OXA-4,7,10-TRIAZATETRADECAN-14-OATE', 'weight': 680.788, 'carbohydrate_polymer': False, 'branch_name': ''}]

>  <ligand_codes>  (287) 
['G83']

>  <cofactor_codes>  (287) 
[]

>  <has_cofactor>  (287) 
False

>  <covalent>  (287) 
True

>  <base_name>  (287) 
3ZZC

>  <lig_resn>  (287) 
G83

>  <lig_resi>  (287) 
1181

>  <lig_chain>  (287) 
A

>  <lig_segi>  (287) 
B

>  <lig_alt>  (287) 


>  <polymer_chain>  (287) 
A

>  <single_smiles>  (287) 
CCOC(=O)CC[C@H](C[C@@H]1CCNC1=O)NC(=O)[C@H](Cc2ccccc2)NC(=O)[C@H](CC(=O)OC(C)(C)C)NC(=O)OCc3ccccc3

$$$$
G83P1S129
     RDKit          3D

 32 32  0  0  0  0  0  0  0  0999 V2000
   -9.8940   12.8970  -36.5940 C   0  0  0  0  0  0  0  0  0  0  0  0
   -9.6510   12.9770  -35.0820 C   0  0  2  0  0  0  0  0  0  0  0  0
   -9.2610   14.3500  -34.7310 N   0  0  0  0  0  0  0  0  0  0  0  0
   -8.4620   12.0930  -34.7840 C   0  0  0  0  0  0  0  0  0  0  0  0
   -9.0700   14.7310  -33.4520 C   0  0  0  0  0  0  0  0  0  0  0  0
   -7.3180   12.4750  -35.0590 O   0  0  0  0  0  0  0  0  0  0  0  0
   -8.7450   10.9170  -34.2200 N   0  0  0  0  0  0  0  0  0  0  0  0
   -8.5890   16.1350  -33.2460 C   0  0  2  0  0  0  0  0  0  0  0  0
   -9.1660   13.9920  -32.4630 O   0  0  0  0  0  0  0  0  0  0  0  0
   -7.7310    9.9410  -33.8290 C   0  0  1  0  0  0  0  0  0  0  0  0
   -7.0940   15.9700  -33.0860 C   0  0  0  0  0  0  0  0  0  0  0  0
   -8.9270   16.6710  -31.9560 N   0  0  0  0  0  0  0  0  0  0  0  0
   -7.6750    9.9230  -32.2970 C   0  0  0  0  0  0  0  0  0  0  0  0
   -8.1830    8.5770  -34.4040 C   0  0  2  0  0  0  0  0  0  0  0  0
   -6.3360   17.1850  -33.4620 C   0  0  0  0  0  0  0  0  0  0  0  0
   -9.6140   17.8180  -31.9050 C   0  0  0  0  0  0  0  0  0  0  0  0
   -7.2530   11.2580  -31.6380 C   0  0  1  0  0  0  0  0  0  0  0  0
   -8.1980    8.6230  -35.9360 C   0  0  0  0  0  0  0  0  0  0  0  0
   -9.8310    8.1200  -33.8380 R   0  0  0  0  0  0  0  0  0  0  0  0
   -5.3760   17.6500  -32.4930 O   0  0  0  0  0  0  0  0  0  0  0  0
   -6.4670   17.7660  -34.5460 O   0  0  0  0  0  0  0  0  0  0  0  0
   -9.9760   18.4340  -32.9180 O   0  0  0  0  0  0  0  0  0  0  0  0
   -7.1040   11.1020  -30.1450 C   0  0  0  0  0  0  0  0  0  0  0  0
   -5.9010   11.8850  -31.9840 C   0  0  0  0  0  0  0  0  0  0  0  0
   -6.8090    8.9220  -36.4600 C   0  0  0  0  0  0  0  0  0  0  0  0
   -7.8010   10.3100  -29.5070 O   0  0  0  0  0  0  0  0  0  0  0  0
   -6.2280   11.9150  -29.7100 N   0  0  0  0  0  0  0  0  0  0  0  0
   -5.4330   12.6240  -30.7080 C   0  0  0  0  0  0  0  0  0  0  0  0
   -6.6580    9.7290  -37.6550 O   0  0  0  0  0  0  0  0  0  0  0  0
   -5.8080    8.4980  -35.8980 O   0  0  0  0  0  0  0  0  0  0  0  0
   -5.3610   10.2030  -38.0740 C   0  0  0  0  0  0  0  0  0  0  0  0
   -4.5750    9.1110  -38.7950 C   0  0  0  0  0  0  0  0  0  0  0  0
  2  1  1  6
  3  2  1  0
  2  4  1  0
  5  3  1  0
  4  6  2  0
  4  7  1  0
  8  5  1  0
  5  9  2  0
  7 10  1  0
  8 11  1  1
 12  8  1  0
 10 13  1  1
 10 14  1  0
 15 11  1  0
 16 12  1  0
 17 13  1  6
 14 18  1  0
 14 19  1  1
 20 15  1  0
 21 15  2  0
 16 22  2  0
 17 23  1  0
 17 24  1  0
 18 25  1  0
 23 26  2  0
 23 27  1  0
 28 24  1  0
 25 29  1  0
 25 30  2  0
 27 28  1  0
 31 29  1  0
 31 32  1  0
V   19 *
A    2
 C37
A    3
 N33
A    4
 C39
A    5
 C31
A    6
 O47
A    7
 N49
A    8
 C23
A    9
 O35
A   10
 C57
A   11
 C25
A   12
 N21
A   13
 C59
A   14
 C63
A   15
 C14
A   17
 C61
A   18
 C82
A   19
 X  
A   21
 O1 
A   22
 O19
A   23
 C65
A   24
 C73
A   25
 C84
A   26
 O66
A   27
 N69
A   28
 C71
A   29
 O86
A   30
 O88
A   31
 C3 
A   32
 C5 
M  END
>  <XChem_code>  (288) 
G83§1

>  <Occupancy>  (288) 
[1.0, 1.0, 1.0, 1.0, 1.0, 1.0, 1.0, 1.0, 1.0, 1.0, 1.0, 1.0, 1.0, 1.0, 1.0, 1.0, 1.0, 1.0, 1.0, 1.0, 1.0, 1.0, 1.0, 1.0, 1.0, 1.0, 1.0, 1.0, 1.0, 1.0, 1.0, 1.0, 1.0, 1.0, 1.0, 1.0, 1.0, 1.0, 1.0, 1.0, 1.0, 1.0, 1.0, 1.0, 1.0, 1.0, 1.0, 1.0, 1.0, 1.0]

>  <TempFactor>  (288) 
[21.5, 44.89, 24.36, 42.16, 38.25, 23.95, 40.64, 20.41, 29.29, 22.5, 27.31, 23.15, 28.56, 41.84, 29.6, 38.53, 33.37, 31.58, 30.86, 27.88, 28.97, 31.52, 43.05, 27.66, 27.42, 21.95, 25.67, 24.02, 25.01, 43.36, 43.87, 19.31, 17.05, 26.62, 26.73, 28.95, 20.4, 17.34, 20.74, 21.57, 21.69, 20.06, 20.47, 18.67, 21.64, 27.5, 29.51, 35.17, 31.37, 18.86]

>  <accession>  (288) 
3ZZC_A

>  <description>  (288) 
Chain A, 3C PROTEINASE [Coxsackievirus B3]

>  <evalue>  (288) 
7.4865399999999999e-87

>  <pdb_code>  (288) 
3ZZC

>  <chain>  (288) 
A

>  <ligands>  (288) 
[{'chain_id': 'A', 'author_residue_number': 1181, 'author_insertion_code': '', 'chem_comp_id': 'G83', 'alternate_conformers': 0, 'entity_id': 2, 'struct_asym_id': 'B', 'residue_number': 1, 'chem_comp_name': 'ETHYL (5S,8S,11R)-8-BENZYL-5-(2-TERT-BUTOXY-2-OXOETHYL)-3,6,9-TRIOXO-11-{[(3S)-2-OXOPYRROLIDIN-3-YL]METHYL}-1-PHENYL-2-OXA-4,7,10-TRIAZATETRADECAN-14-OATE', 'weight': 680.788, 'carbohydrate_polymer': False, 'branch_name': ''}]

>  <ligand_codes>  (288) 
['G83']

>  <cofactor_codes>  (288) 
[]

>  <has_cofactor>  (288) 
False

>  <covalent>  (288) 
True

>  <base_name>  (288) 
3ZZC

>  <lig_resn>  (288) 
G83

>  <lig_resi>  (288) 
1181

>  <lig_chain>  (288) 
A

>  <lig_segi>  (288) 
B

>  <lig_alt>  (288) 


>  <polymer_chain>  (288) 
A

>  <single_smiles>  (288) 
CCOC(=O)CC[C@H](C[C@@H]1CCNC1=O)NC(=O)[C@H](Cc2ccccc2)NC(=O)[C@H](CC(=O)OC(C)(C)C)NC(=O)OCc3ccccc3

$$$$
G83P1S130
     RDKit          3D

 30 30  0  0  0  0  0  0  0  0999 V2000
   -7.6750    9.9230  -32.2970 C   0  0  0  0  0  0  0  0  0  0  0  0
   -7.7310    9.9410  -33.8290 C   0  0  2  0  0  0  0  0  0  0  0  0
   -8.7450   10.9170  -34.2200 N   0  0  0  0  0  0  0  0  0  0  0  0
   -8.1830    8.5770  -34.4040 C   0  0  2  0  0  0  0  0  0  0  0  0
   -8.4620   12.0930  -34.7840 C   0  0  0  0  0  0  0  0  0  0  0  0
   -8.1980    8.6230  -35.9360 C   0  0  0  0  0  0  0  0  0  0  0  0
   -9.8310    8.1200  -33.8380 R   0  0  0  0  0  0  0  0  0  0  0  0
   -9.6510   12.9770  -35.0820 C   0  0  1  0  0  0  0  0  0  0  0  0
   -7.3180   12.4750  -35.0590 O   0  0  0  0  0  0  0  0  0  0  0  0
   -6.8090    8.9220  -36.4600 C   0  0  0  0  0  0  0  0  0  0  0  0
   -9.2610   14.3500  -34.7310 N   0  0  0  0  0  0  0  0  0  0  0  0
   -9.8940   12.8970  -36.5940 C   0  0  0  0  0  0  0  0  0  0  0  0
   -6.6580    9.7290  -37.6550 O   0  0  0  0  0  0  0  0  0  0  0  0
   -5.8080    8.4980  -35.8980 O   0  0  0  0  0  0  0  0  0  0  0  0
   -9.0700   14.7310  -33.4520 C   0  0  0  0  0  0  0  0  0  0  0  0
  -11.1210   13.7000  -36.9770 C   0  0  0  0  0  0  0  0  0  0  0  0
   -5.3610   10.2030  -38.0740 C   0  0  0  0  0  0  0  0  0  0  0  0
   -8.5890   16.1350  -33.2460 C   0  0  2  0  0  0  0  0  0  0  0  0
   -9.1660   13.9920  -32.4630 O   0  0  0  0  0  0  0  0  0  0  0  0
  -12.3400   13.5180  -36.3250 C   0  0  0  0  0  0  0  0  0  0  0  0
  -11.0320   14.6580  -38.0030 C   0  0  0  0  0  0  0  0  0  0  0  0
   -4.5750    9.1110  -38.7950 C   0  0  0  0  0  0  0  0  0  0  0  0
   -7.0940   15.9700  -33.0860 C   0  0  0  0  0  0  0  0  0  0  0  0
   -8.9270   16.6710  -31.9560 N   0  0  0  0  0  0  0  0  0  0  0  0
  -13.4670   14.3010  -36.6620 C   0  0  0  0  0  0  0  0  0  0  0  0
  -12.1840   15.4150  -38.3560 C   0  0  0  0  0  0  0  0  0  0  0  0
   -6.3360   17.1850  -33.4620 C   0  0  0  0  0  0  0  0  0  0  0  0
  -13.4100   15.2640  -37.6860 C   0  0  0  0  0  0  0  0  0  0  0  0
   -5.3760   17.6500  -32.4930 O   0  0  0  0  0  0  0  0  0  0  0  0
   -6.4670   17.7660  -34.5460 O   0  0  0  0  0  0  0  0  0  0  0  0
  2  1  1  1
  3  2  1  0
  2  4  1  0
  5  3  1  0
  4  6  1  0
  4  7  1  1
  8  5  1  0
  5  9  2  0
  6 10  1  0
 11  8  1  0
  8 12  1  6
 10 13  1  0
 10 14  2  0
 15 11  1  0
 12 16  1  0
 17 13  1  0
 18 15  1  0
 15 19  2  0
 16 20  2  0
 16 21  1  0
 17 22  1  0
 18 23  1  0
 18 24  1  1
 25 20  1  0
 26 21  2  0
 27 23  1  0
 25 28  2  0
 28 26  1  0
 29 27  1  0
 30 27  2  0
V    7 *
A    2
 C57
A    3
 N49
A    4
 C63
A    5
 C39
A    6
 C82
A    7
 X  
A    8
 C37
A    9
 O47
A   10
 C84
A   11
 N33
A   12
 C41
A   13
 O86
A   14
 O88
A   15
 C31
A   16
 C51
A   17
 C3 
A   18
 C23
A   19
 O35
A   20
 C53
A   21
 C55
A   22
 C5 
A   23
 C25
A   25
 C7 
A   26
 C11
A   27
 C14
A   28
 C9 
A   30
 O1 
M  END
>  <XChem_code>  (289) 
G83§1

>  <Occupancy>  (289) 
[1.0, 1.0, 1.0, 1.0, 1.0, 1.0, 1.0, 1.0, 1.0, 1.0, 1.0, 1.0, 1.0, 1.0, 1.0, 1.0, 1.0, 1.0, 1.0, 1.0, 1.0, 1.0, 1.0, 1.0, 1.0, 1.0, 1.0, 1.0, 1.0, 1.0, 1.0, 1.0, 1.0, 1.0, 1.0, 1.0, 1.0, 1.0, 1.0, 1.0, 1.0, 1.0, 1.0, 1.0, 1.0, 1.0, 1.0, 1.0, 1.0, 1.0]

>  <TempFactor>  (289) 
[21.5, 44.89, 24.36, 42.16, 38.25, 23.95, 40.64, 20.41, 29.29, 22.5, 27.31, 23.15, 28.56, 41.84, 29.6, 38.53, 33.37, 31.58, 30.86, 27.88, 28.97, 31.52, 43.05, 27.66, 27.42, 21.95, 25.67, 24.02, 25.01, 43.36, 43.87, 19.31, 17.05, 26.62, 26.73, 28.95, 20.4, 17.34, 20.74, 21.57, 21.69, 20.06, 20.47, 18.67, 21.64, 27.5, 29.51, 35.17, 31.37, 18.86]

>  <accession>  (289) 
3ZZC_A

>  <description>  (289) 
Chain A, 3C PROTEINASE [Coxsackievirus B3]

>  <evalue>  (289) 
7.4865399999999999e-87

>  <pdb_code>  (289) 
3ZZC

>  <chain>  (289) 
A

>  <ligands>  (289) 
[{'chain_id': 'A', 'author_residue_number': 1181, 'author_insertion_code': '', 'chem_comp_id': 'G83', 'alternate_conformers': 0, 'entity_id': 2, 'struct_asym_id': 'B', 'residue_number': 1, 'chem_comp_name': 'ETHYL (5S,8S,11R)-8-BENZYL-5-(2-TERT-BUTOXY-2-OXOETHYL)-3,6,9-TRIOXO-11-{[(3S)-2-OXOPYRROLIDIN-3-YL]METHYL}-1-PHENYL-2-OXA-4,7,10-TRIAZATETRADECAN-14-OATE', 'weight': 680.788, 'carbohydrate_polymer': False, 'branch_name': ''}]

>  <ligand_codes>  (289) 
['G83']

>  <cofactor_codes>  (289) 
[]

>  <has_cofactor>  (289) 
False

>  <covalent>  (289) 
True

>  <base_name>  (289) 
3ZZC

>  <lig_resn>  (289) 
G83

>  <lig_resi>  (289) 
1181

>  <lig_chain>  (289) 
A

>  <lig_segi>  (289) 
B

>  <lig_alt>  (289) 


>  <polymer_chain>  (289) 
A

>  <single_smiles>  (289) 
CCOC(=O)CC[C@H](C[C@@H]1CCNC1=O)NC(=O)[C@H](Cc2ccccc2)NC(=O)[C@H](CC(=O)OC(C)(C)C)NC(=O)OCc3ccccc3

$$$$
G83P1S131
     RDKit          3D

 30 30  0  0  0  0  0  0  0  0999 V2000
   -9.8940   12.8970  -36.5940 C   0  0  0  0  0  0  0  0  0  0  0  0
   -9.6510   12.9770  -35.0820 C   0  0  2  0  0  0  0  0  0  0  0  0
   -9.2610   14.3500  -34.7310 N   0  0  0  0  0  0  0  0  0  0  0  0
   -8.4620   12.0930  -34.7840 C   0  0  0  0  0  0  0  0  0  0  0  0
   -9.0700   14.7310  -33.4520 C   0  0  0  0  0  0  0  0  0  0  0  0
   -7.3180   12.4750  -35.0590 O   0  0  0  0  0  0  0  0  0  0  0  0
   -8.7450   10.9170  -34.2200 N   0  0  0  0  0  0  0  0  0  0  0  0
   -8.5890   16.1350  -33.2460 C   0  0  2  0  0  0  0  0  0  0  0  0
   -9.1660   13.9920  -32.4630 O   0  0  0  0  0  0  0  0  0  0  0  0
   -7.7310    9.9410  -33.8290 C   0  0  1  0  0  0  0  0  0  0  0  0
   -7.0940   15.9700  -33.0860 C   0  0  0  0  0  0  0  0  0  0  0  0
   -8.9270   16.6710  -31.9560 N   0  0  0  0  0  0  0  0  0  0  0  0
   -7.6750    9.9230  -32.2970 C   0  0  0  0  0  0  0  0  0  0  0  0
   -8.1830    8.5770  -34.4040 C   0  0  2  0  0  0  0  0  0  0  0  0
   -6.3360   17.1850  -33.4620 C   0  0  0  0  0  0  0  0  0  0  0  0
   -7.2530   11.2580  -31.6380 C   0  0  1  0  0  0  0  0  0  0  0  0
   -8.1980    8.6230  -35.9360 C   0  0  0  0  0  0  0  0  0  0  0  0
   -9.8310    8.1200  -33.8380 R   0  0  0  0  0  0  0  0  0  0  0  0
   -5.3760   17.6500  -32.4930 O   0  0  0  0  0  0  0  0  0  0  0  0
   -6.4670   17.7660  -34.5460 O   0  0  0  0  0  0  0  0  0  0  0  0
   -7.1040   11.1020  -30.1450 C   0  0  0  0  0  0  0  0  0  0  0  0
   -5.9010   11.8850  -31.9840 C   0  0  0  0  0  0  0  0  0  0  0  0
   -6.8090    8.9220  -36.4600 C   0  0  0  0  0  0  0  0  0  0  0  0
   -7.8010   10.3100  -29.5070 O   0  0  0  0  0  0  0  0  0  0  0  0
   -6.2280   11.9150  -29.7100 N   0  0  0  0  0  0  0  0  0  0  0  0
   -5.4330   12.6240  -30.7080 C   0  0  0  0  0  0  0  0  0  0  0  0
   -6.6580    9.7290  -37.6550 O   0  0  0  0  0  0  0  0  0  0  0  0
   -5.8080    8.4980  -35.8980 O   0  0  0  0  0  0  0  0  0  0  0  0
   -5.3610   10.2030  -38.0740 C   0  0  0  0  0  0  0  0  0  0  0  0
   -4.5750    9.1110  -38.7950 C   0  0  0  0  0  0  0  0  0  0  0  0
  2  1  1  6
  3  2  1  0
  2  4  1  0
  5  3  1  0
  4  6  2  0
  4  7  1  0
  8  5  1  0
  5  9  2  0
  7 10  1  0
  8 11  1  0
  8 12  1  1
 10 13  1  1
 10 14  1  0
 15 11  1  0
 16 13  1  6
 14 17  1  0
 14 18  1  1
 19 15  1  0
 20 15  2  0
 16 21  1  0
 16 22  1  0
 17 23  1  0
 21 24  2  0
 21 25  1  0
 26 22  1  0
 23 27  1  0
 23 28  2  0
 25 26  1  0
 29 27  1  0
 29 30  1  0
V   18 *
A    2
 C37
A    3
 N33
A    4
 C39
A    5
 C31
A    6
 O47
A    7
 N49
A    8
 C23
A    9
 O35
A   10
 C57
A   11
 C25
A   13
 C59
A   14
 C63
A   15
 C14
A   16
 C61
A   17
 C82
A   18
 X  
A   20
 O1 
A   21
 C65
A   22
 C73
A   23
 C84
A   24
 O66
A   25
 N69
A   26
 C71
A   27
 O86
A   28
 O88
A   29
 C3 
A   30
 C5 
M  END
>  <XChem_code>  (290) 
G83§1

>  <Occupancy>  (290) 
[1.0, 1.0, 1.0, 1.0, 1.0, 1.0, 1.0, 1.0, 1.0, 1.0, 1.0, 1.0, 1.0, 1.0, 1.0, 1.0, 1.0, 1.0, 1.0, 1.0, 1.0, 1.0, 1.0, 1.0, 1.0, 1.0, 1.0, 1.0, 1.0, 1.0, 1.0, 1.0, 1.0, 1.0, 1.0, 1.0, 1.0, 1.0, 1.0, 1.0, 1.0, 1.0, 1.0, 1.0, 1.0, 1.0, 1.0, 1.0, 1.0, 1.0]

>  <TempFactor>  (290) 
[21.5, 44.89, 24.36, 42.16, 38.25, 23.95, 40.64, 20.41, 29.29, 22.5, 27.31, 23.15, 28.56, 41.84, 29.6, 38.53, 33.37, 31.58, 30.86, 27.88, 28.97, 31.52, 43.05, 27.66, 27.42, 21.95, 25.67, 24.02, 25.01, 43.36, 43.87, 19.31, 17.05, 26.62, 26.73, 28.95, 20.4, 17.34, 20.74, 21.57, 21.69, 20.06, 20.47, 18.67, 21.64, 27.5, 29.51, 35.17, 31.37, 18.86]

>  <accession>  (290) 
3ZZC_A

>  <description>  (290) 
Chain A, 3C PROTEINASE [Coxsackievirus B3]

>  <evalue>  (290) 
7.4865399999999999e-87

>  <pdb_code>  (290) 
3ZZC

>  <chain>  (290) 
A

>  <ligands>  (290) 
[{'chain_id': 'A', 'author_residue_number': 1181, 'author_insertion_code': '', 'chem_comp_id': 'G83', 'alternate_conformers': 0, 'entity_id': 2, 'struct_asym_id': 'B', 'residue_number': 1, 'chem_comp_name': 'ETHYL (5S,8S,11R)-8-BENZYL-5-(2-TERT-BUTOXY-2-OXOETHYL)-3,6,9-TRIOXO-11-{[(3S)-2-OXOPYRROLIDIN-3-YL]METHYL}-1-PHENYL-2-OXA-4,7,10-TRIAZATETRADECAN-14-OATE', 'weight': 680.788, 'carbohydrate_polymer': False, 'branch_name': ''}]

>  <ligand_codes>  (290) 
['G83']

>  <cofactor_codes>  (290) 
[]

>  <has_cofactor>  (290) 
False

>  <covalent>  (290) 
True

>  <base_name>  (290) 
3ZZC

>  <lig_resn>  (290) 
G83

>  <lig_resi>  (290) 
1181

>  <lig_chain>  (290) 
A

>  <lig_segi>  (290) 
B

>  <lig_alt>  (290) 


>  <polymer_chain>  (290) 
A

>  <single_smiles>  (290) 
CCOC(=O)CC[C@H](C[C@@H]1CCNC1=O)NC(=O)[C@H](Cc2ccccc2)NC(=O)[C@H](CC(=O)OC(C)(C)C)NC(=O)OCc3ccccc3

$$$$
G83P1S132
     RDKit          3D

 12 11  0  0  0  0  0  0  0  0999 V2000
  -10.3020   19.6950  -30.3210 C   0  0  0  0  0  0  0  0  0  0  0  0
   -9.9650   18.3270  -30.5810 O   0  0  0  0  0  0  0  0  0  0  0  0
   -9.6140   17.8180  -31.9050 C   0  0  0  0  0  0  0  0  0  0  0  0
   -8.9270   16.6710  -31.9560 N   0  0  0  0  0  0  0  0  0  0  0  0
   -9.9760   18.4340  -32.9180 O   0  0  0  0  0  0  0  0  0  0  0  0
   -8.5890   16.1350  -33.2460 C   0  0  1  0  0  0  0  0  0  0  0  0
   -7.0940   15.9700  -33.0860 C   0  0  0  0  0  0  0  0  0  0  0  0
   -9.0700   14.7310  -33.4520 C   0  0  0  0  0  0  0  0  0  0  0  0
   -6.3360   17.1850  -33.4620 C   0  0  0  0  0  0  0  0  0  0  0  0
   -9.1660   13.9920  -32.4630 O   0  0  0  0  0  0  0  0  0  0  0  0
   -5.3760   17.6500  -32.4930 O   0  0  0  0  0  0  0  0  0  0  0  0
   -6.4670   17.7660  -34.5460 O   0  0  0  0  0  0  0  0  0  0  0  0
  1  2  1  0
  2  3  1  0
  3  4  1  0
  3  5  2  0
  4  6  1  0
  6  7  1  1
  6  8  1  0
  9  7  1  0
  8 10  2  0
 11  9  1  0
 12  9  2  0
A    2
 O15
A    3
 C17
A    4
 N21
A    5
 O19
A    6
 C23
A    7
 C25
A    9
 C14
A   10
 O35
A   12
 O1 
M  END
>  <XChem_code>  (291) 
G83§1

>  <Occupancy>  (291) 
[1.0, 1.0, 1.0, 1.0, 1.0, 1.0, 1.0, 1.0, 1.0, 1.0, 1.0, 1.0, 1.0, 1.0, 1.0, 1.0, 1.0, 1.0, 1.0, 1.0, 1.0, 1.0, 1.0, 1.0, 1.0, 1.0, 1.0, 1.0, 1.0, 1.0, 1.0, 1.0, 1.0, 1.0, 1.0, 1.0, 1.0, 1.0, 1.0, 1.0, 1.0, 1.0, 1.0, 1.0, 1.0, 1.0, 1.0, 1.0, 1.0, 1.0]

>  <TempFactor>  (291) 
[21.5, 44.89, 24.36, 42.16, 38.25, 23.95, 40.64, 20.41, 29.29, 22.5, 27.31, 23.15, 28.56, 41.84, 29.6, 38.53, 33.37, 31.58, 30.86, 27.88, 28.97, 31.52, 43.05, 27.66, 27.42, 21.95, 25.67, 24.02, 25.01, 43.36, 43.87, 19.31, 17.05, 26.62, 26.73, 28.95, 20.4, 17.34, 20.74, 21.57, 21.69, 20.06, 20.47, 18.67, 21.64, 27.5, 29.51, 35.17, 31.37, 18.86]

>  <accession>  (291) 
3ZZC_A

>  <description>  (291) 
Chain A, 3C PROTEINASE [Coxsackievirus B3]

>  <evalue>  (291) 
7.4865399999999999e-87

>  <pdb_code>  (291) 
3ZZC

>  <chain>  (291) 
A

>  <ligands>  (291) 
[{'chain_id': 'A', 'author_residue_number': 1181, 'author_insertion_code': '', 'chem_comp_id': 'G83', 'alternate_conformers': 0, 'entity_id': 2, 'struct_asym_id': 'B', 'residue_number': 1, 'chem_comp_name': 'ETHYL (5S,8S,11R)-8-BENZYL-5-(2-TERT-BUTOXY-2-OXOETHYL)-3,6,9-TRIOXO-11-{[(3S)-2-OXOPYRROLIDIN-3-YL]METHYL}-1-PHENYL-2-OXA-4,7,10-TRIAZATETRADECAN-14-OATE', 'weight': 680.788, 'carbohydrate_polymer': False, 'branch_name': ''}]

>  <ligand_codes>  (291) 
['G83']

>  <cofactor_codes>  (291) 
[]

>  <has_cofactor>  (291) 
False

>  <covalent>  (291) 
True

>  <base_name>  (291) 
3ZZC

>  <lig_resn>  (291) 
G83

>  <lig_resi>  (291) 
1181

>  <lig_chain>  (291) 
A

>  <lig_segi>  (291) 
B

>  <lig_alt>  (291) 


>  <polymer_chain>  (291) 
A

>  <single_smiles>  (291) 
CCOC(=O)CC[C@H](C[C@@H]1CCNC1=O)NC(=O)[C@H](Cc2ccccc2)NC(=O)[C@H](CC(=O)OC(C)(C)C)NC(=O)OCc3ccccc3

$$$$
G83P1S133
     RDKit          3D

 20 19  0  0  0  0  0  0  0  0999 V2000
   -9.8940   12.8970  -36.5940 C   0  0  0  0  0  0  0  0  0  0  0  0
   -9.6510   12.9770  -35.0820 C   0  0  2  0  0  0  0  0  0  0  0  0
   -9.2610   14.3500  -34.7310 N   0  0  0  0  0  0  0  0  0  0  0  0
   -8.4620   12.0930  -34.7840 C   0  0  0  0  0  0  0  0  0  0  0  0
   -9.0700   14.7310  -33.4520 C   0  0  0  0  0  0  0  0  0  0  0  0
   -7.3180   12.4750  -35.0590 O   0  0  0  0  0  0  0  0  0  0  0  0
   -8.5890   16.1350  -33.2460 C   0  0  1  0  0  0  0  0  0  0  0  0
   -9.1660   13.9920  -32.4630 O   0  0  0  0  0  0  0  0  0  0  0  0
   -8.9270   16.6710  -31.9560 N   0  0  0  0  0  0  0  0  0  0  0  0
   -7.0940   15.9700  -33.0860 C   0  0  0  0  0  0  0  0  0  0  0  0
   -9.6140   17.8180  -31.9050 C   0  0  0  0  0  0  0  0  0  0  0  0
   -6.3360   17.1850  -33.4620 C   0  0  0  0  0  0  0  0  0  0  0  0
   -9.9650   18.3270  -30.5810 O   0  0  0  0  0  0  0  0  0  0  0  0
   -9.9760   18.4340  -32.9180 O   0  0  0  0  0  0  0  0  0  0  0  0
   -6.4670   17.7660  -34.5460 O   0  0  0  0  0  0  0  0  0  0  0  0
   -5.3760   17.6500  -32.4930 O   0  0  0  0  0  0  0  0  0  0  0  0
   -4.0330   17.1570  -32.4230 C   0  0  0  0  0  0  0  0  0  0  0  0
   -3.6770   16.1600  -33.5370 C   0  0  0  0  0  0  0  0  0  0  0  0
   -3.9520   16.4650  -31.0680 C   0  0  0  0  0  0  0  0  0  0  0  0
   -3.0820   18.3540  -32.5240 C   0  0  0  0  0  0  0  0  0  0  0  0
  2  1  1  6
  3  2  1  0
  2  4  1  0
  5  3  1  0
  4  6  2  0
  7  5  1  0
  5  8  2  0
  9  7  1  0
  7 10  1  1
 11  9  1  0
 12 10  1  0
 13 11  1  0
 11 14  2  0
 15 12  2  0
 16 12  1  0
 16 17  1  0
 17 18  1  0
 17 19  1  0
 17 20  1  0
A    2
 C37
A    3
 N33
A    5
 C31
A    6
 O47
A    7
 C23
A    8
 O35
A    9
 N21
A   10
 C25
A   11
 C17
A   12
 C14
A   14
 O19
A   15
 O1 
A   16
 O2 
A   17
 C29
A   18
 C12
A   19
 C43
A   20
 C45
M  END
>  <XChem_code>  (292) 
G83§1

>  <Occupancy>  (292) 
[1.0, 1.0, 1.0, 1.0, 1.0, 1.0, 1.0, 1.0, 1.0, 1.0, 1.0, 1.0, 1.0, 1.0, 1.0, 1.0, 1.0, 1.0, 1.0, 1.0, 1.0, 1.0, 1.0, 1.0, 1.0, 1.0, 1.0, 1.0, 1.0, 1.0, 1.0, 1.0, 1.0, 1.0, 1.0, 1.0, 1.0, 1.0, 1.0, 1.0, 1.0, 1.0, 1.0, 1.0, 1.0, 1.0, 1.0, 1.0, 1.0, 1.0]

>  <TempFactor>  (292) 
[21.5, 44.89, 24.36, 42.16, 38.25, 23.95, 40.64, 20.41, 29.29, 22.5, 27.31, 23.15, 28.56, 41.84, 29.6, 38.53, 33.37, 31.58, 30.86, 27.88, 28.97, 31.52, 43.05, 27.66, 27.42, 21.95, 25.67, 24.02, 25.01, 43.36, 43.87, 19.31, 17.05, 26.62, 26.73, 28.95, 20.4, 17.34, 20.74, 21.57, 21.69, 20.06, 20.47, 18.67, 21.64, 27.5, 29.51, 35.17, 31.37, 18.86]

>  <accession>  (292) 
3ZZC_A

>  <description>  (292) 
Chain A, 3C PROTEINASE [Coxsackievirus B3]

>  <evalue>  (292) 
7.4865399999999999e-87

>  <pdb_code>  (292) 
3ZZC

>  <chain>  (292) 
A

>  <ligands>  (292) 
[{'chain_id': 'A', 'author_residue_number': 1181, 'author_insertion_code': '', 'chem_comp_id': 'G83', 'alternate_conformers': 0, 'entity_id': 2, 'struct_asym_id': 'B', 'residue_number': 1, 'chem_comp_name': 'ETHYL (5S,8S,11R)-8-BENZYL-5-(2-TERT-BUTOXY-2-OXOETHYL)-3,6,9-TRIOXO-11-{[(3S)-2-OXOPYRROLIDIN-3-YL]METHYL}-1-PHENYL-2-OXA-4,7,10-TRIAZATETRADECAN-14-OATE', 'weight': 680.788, 'carbohydrate_polymer': False, 'branch_name': ''}]

>  <ligand_codes>  (292) 
['G83']

>  <cofactor_codes>  (292) 
[]

>  <has_cofactor>  (292) 
False

>  <covalent>  (292) 
True

>  <base_name>  (292) 
3ZZC

>  <lig_resn>  (292) 
G83

>  <lig_resi>  (292) 
1181

>  <lig_chain>  (292) 
A

>  <lig_segi>  (292) 
B

>  <lig_alt>  (292) 


>  <polymer_chain>  (292) 
A

>  <single_smiles>  (292) 
CCOC(=O)CC[C@H](C[C@@H]1CCNC1=O)NC(=O)[C@H](Cc2ccccc2)NC(=O)[C@H](CC(=O)OC(C)(C)C)NC(=O)OCc3ccccc3

$$$$
G83P1S134
     RDKit          3D

 23 23  0  0  0  0  0  0  0  0999 V2000
   -9.8940   12.8970  -36.5940 C   0  0  0  0  0  0  0  0  0  0  0  0
   -9.6510   12.9770  -35.0820 C   0  0  2  0  0  0  0  0  0  0  0  0
   -9.2610   14.3500  -34.7310 N   0  0  0  0  0  0  0  0  0  0  0  0
   -8.4620   12.0930  -34.7840 C   0  0  0  0  0  0  0  0  0  0  0  0
   -9.0700   14.7310  -33.4520 C   0  0  0  0  0  0  0  0  0  0  0  0
   -7.3180   12.4750  -35.0590 O   0  0  0  0  0  0  0  0  0  0  0  0
   -8.5890   16.1350  -33.2460 C   0  0  2  0  0  0  0  0  0  0  0  0
   -9.1660   13.9920  -32.4630 O   0  0  0  0  0  0  0  0  0  0  0  0
   -7.0940   15.9700  -33.0860 C   0  0  0  0  0  0  0  0  0  0  0  0
   -8.9270   16.6710  -31.9560 N   0  0  0  0  0  0  0  0  0  0  0  0
   -6.3360   17.1850  -33.4620 C   0  0  0  0  0  0  0  0  0  0  0  0
   -9.6140   17.8180  -31.9050 C   0  0  0  0  0  0  0  0  0  0  0  0
   -5.3760   17.6500  -32.4930 O   0  0  0  0  0  0  0  0  0  0  0  0
   -6.4670   17.7660  -34.5460 O   0  0  0  0  0  0  0  0  0  0  0  0
   -9.9650   18.3270  -30.5810 O   0  0  0  0  0  0  0  0  0  0  0  0
   -9.9760   18.4340  -32.9180 O   0  0  0  0  0  0  0  0  0  0  0  0
  -10.3020   19.6950  -30.3210 C   0  0  0  0  0  0  0  0  0  0  0  0
  -10.4040   19.8340  -28.8340 C   0  0  0  0  0  0  0  0  0  0  0  0
   -9.6890   20.8420  -28.1960 C   0  0  0  0  0  0  0  0  0  0  0  0
  -11.1970   18.9310  -28.1220 C   0  0  0  0  0  0  0  0  0  0  0  0
   -9.7810   20.9510  -26.7880 C   0  0  0  0  0  0  0  0  0  0  0  0
  -11.3130   19.0390  -26.7440 C   0  0  0  0  0  0  0  0  0  0  0  0
  -10.5960   20.0640  -26.0750 C   0  0  0  0  0  0  0  0  0  0  0  0
  2  1  1  6
  3  2  1  0
  2  4  1  0
  5  3  1  0
  4  6  2  0
  7  5  1  0
  5  8  2  0
  7  9  1  1
 10  7  1  0
 11  9  1  0
 12 10  1  0
 13 11  1  0
 14 11  2  0
 15 12  1  0
 12 16  2  0
 17 15  1  0
 18 17  1  0
 19 18  2  0
 18 20  1  0
 21 19  1  0
 20 22  2  0
 21 23  2  0
 22 23  1  0
A    2
 C37
A    3
 N33
A    5
 C31
A    6
 O47
A    7
 C23
A    8
 O35
A    9
 C25
A   10
 N21
A   11
 C14
A   12
 C17
A   14
 O1 
A   15
 O15
A   16
 O19
A   17
 C13
A   18
 C4 
A   19
 C2 
A   20
 C6 
A   21
 C1 
A   22
 C8 
A   23
 C10
M  END
>  <XChem_code>  (293) 
G83§1

>  <Occupancy>  (293) 
[1.0, 1.0, 1.0, 1.0, 1.0, 1.0, 1.0, 1.0, 1.0, 1.0, 1.0, 1.0, 1.0, 1.0, 1.0, 1.0, 1.0, 1.0, 1.0, 1.0, 1.0, 1.0, 1.0, 1.0, 1.0, 1.0, 1.0, 1.0, 1.0, 1.0, 1.0, 1.0, 1.0, 1.0, 1.0, 1.0, 1.0, 1.0, 1.0, 1.0, 1.0, 1.0, 1.0, 1.0, 1.0, 1.0, 1.0, 1.0, 1.0, 1.0]

>  <TempFactor>  (293) 
[21.5, 44.89, 24.36, 42.16, 38.25, 23.95, 40.64, 20.41, 29.29, 22.5, 27.31, 23.15, 28.56, 41.84, 29.6, 38.53, 33.37, 31.58, 30.86, 27.88, 28.97, 31.52, 43.05, 27.66, 27.42, 21.95, 25.67, 24.02, 25.01, 43.36, 43.87, 19.31, 17.05, 26.62, 26.73, 28.95, 20.4, 17.34, 20.74, 21.57, 21.69, 20.06, 20.47, 18.67, 21.64, 27.5, 29.51, 35.17, 31.37, 18.86]

>  <accession>  (293) 
3ZZC_A

>  <description>  (293) 
Chain A, 3C PROTEINASE [Coxsackievirus B3]

>  <evalue>  (293) 
7.4865399999999999e-87

>  <pdb_code>  (293) 
3ZZC

>  <chain>  (293) 
A

>  <ligands>  (293) 
[{'chain_id': 'A', 'author_residue_number': 1181, 'author_insertion_code': '', 'chem_comp_id': 'G83', 'alternate_conformers': 0, 'entity_id': 2, 'struct_asym_id': 'B', 'residue_number': 1, 'chem_comp_name': 'ETHYL (5S,8S,11R)-8-BENZYL-5-(2-TERT-BUTOXY-2-OXOETHYL)-3,6,9-TRIOXO-11-{[(3S)-2-OXOPYRROLIDIN-3-YL]METHYL}-1-PHENYL-2-OXA-4,7,10-TRIAZATETRADECAN-14-OATE', 'weight': 680.788, 'carbohydrate_polymer': False, 'branch_name': ''}]

>  <ligand_codes>  (293) 
['G83']

>  <cofactor_codes>  (293) 
[]

>  <has_cofactor>  (293) 
False

>  <covalent>  (293) 
True

>  <base_name>  (293) 
3ZZC

>  <lig_resn>  (293) 
G83

>  <lig_resi>  (293) 
1181

>  <lig_chain>  (293) 
A

>  <lig_segi>  (293) 
B

>  <lig_alt>  (293) 


>  <polymer_chain>  (293) 
A

>  <single_smiles>  (293) 
CCOC(=O)CC[C@H](C[C@@H]1CCNC1=O)NC(=O)[C@H](Cc2ccccc2)NC(=O)[C@H](CC(=O)OC(C)(C)C)NC(=O)OCc3ccccc3

$$$$
G83P1S135
     RDKit          3D

 23 23  0  0  0  0  0  0  0  0999 V2000
  -10.3020   19.6950  -30.3210 C   0  0  0  0  0  0  0  0  0  0  0  0
   -9.9650   18.3270  -30.5810 O   0  0  0  0  0  0  0  0  0  0  0  0
   -9.6140   17.8180  -31.9050 C   0  0  0  0  0  0  0  0  0  0  0  0
   -8.9270   16.6710  -31.9560 N   0  0  0  0  0  0  0  0  0  0  0  0
   -9.9760   18.4340  -32.9180 O   0  0  0  0  0  0  0  0  0  0  0  0
   -8.5890   16.1350  -33.2460 C   0  0  1  0  0  0  0  0  0  0  0  0
   -7.0940   15.9700  -33.0860 C   0  0  0  0  0  0  0  0  0  0  0  0
   -9.0700   14.7310  -33.4520 C   0  0  0  0  0  0  0  0  0  0  0  0
   -6.3360   17.1850  -33.4620 C   0  0  0  0  0  0  0  0  0  0  0  0
   -9.2610   14.3500  -34.7310 N   0  0  0  0  0  0  0  0  0  0  0  0
   -9.1660   13.9920  -32.4630 O   0  0  0  0  0  0  0  0  0  0  0  0
   -5.3760   17.6500  -32.4930 O   0  0  0  0  0  0  0  0  0  0  0  0
   -6.4670   17.7660  -34.5460 O   0  0  0  0  0  0  0  0  0  0  0  0
   -9.6510   12.9770  -35.0820 C   0  0  2  0  0  0  0  0  0  0  0  0
   -8.4620   12.0930  -34.7840 C   0  0  0  0  0  0  0  0  0  0  0  0
   -9.8940   12.8970  -36.5940 C   0  0  0  0  0  0  0  0  0  0  0  0
   -7.3180   12.4750  -35.0590 O   0  0  0  0  0  0  0  0  0  0  0  0
  -11.1210   13.7000  -36.9770 C   0  0  0  0  0  0  0  0  0  0  0  0
  -12.3400   13.5180  -36.3250 C   0  0  0  0  0  0  0  0  0  0  0  0
  -11.0320   14.6580  -38.0030 C   0  0  0  0  0  0  0  0  0  0  0  0
  -13.4670   14.3010  -36.6620 C   0  0  0  0  0  0  0  0  0  0  0  0
  -12.1840   15.4150  -38.3560 C   0  0  0  0  0  0  0  0  0  0  0  0
  -13.4100   15.2640  -37.6860 C   0  0  0  0  0  0  0  0  0  0  0  0
  1  2  1  0
  2  3  1  0
  3  4  1  0
  3  5  2  0
  4  6  1  0
  6  7  1  1
  6  8  1  0
  9  7  1  0
  8 10  1  0
  8 11  2  0
 12  9  1  0
 13  9  2  0
 10 14  1  0
 14 15  1  0
 14 16  1  6
 15 17  2  0
 16 18  1  0
 18 19  2  0
 18 20  1  0
 21 19  1  0
 22 20  2  0
 21 23  2  0
 23 22  1  0
A    2
 O15
A    3
 C17
A    4
 N21
A    5
 O19
A    6
 C23
A    7
 C25
A    8
 C31
A    9
 C14
A   10
 N33
A   11
 O35
A   13
 O1 
A   14
 C37
A   16
 C41
A   17
 O47
A   18
 C51
A   19
 C53
A   20
 C55
A   21
 C7 
A   22
 C11
A   23
 C9 
M  END
>  <XChem_code>  (294) 
G83§1

>  <Occupancy>  (294) 
[1.0, 1.0, 1.0, 1.0, 1.0, 1.0, 1.0, 1.0, 1.0, 1.0, 1.0, 1.0, 1.0, 1.0, 1.0, 1.0, 1.0, 1.0, 1.0, 1.0, 1.0, 1.0, 1.0, 1.0, 1.0, 1.0, 1.0, 1.0, 1.0, 1.0, 1.0, 1.0, 1.0, 1.0, 1.0, 1.0, 1.0, 1.0, 1.0, 1.0, 1.0, 1.0, 1.0, 1.0, 1.0, 1.0, 1.0, 1.0, 1.0, 1.0]

>  <TempFactor>  (294) 
[21.5, 44.89, 24.36, 42.16, 38.25, 23.95, 40.64, 20.41, 29.29, 22.5, 27.31, 23.15, 28.56, 41.84, 29.6, 38.53, 33.37, 31.58, 30.86, 27.88, 28.97, 31.52, 43.05, 27.66, 27.42, 21.95, 25.67, 24.02, 25.01, 43.36, 43.87, 19.31, 17.05, 26.62, 26.73, 28.95, 20.4, 17.34, 20.74, 21.57, 21.69, 20.06, 20.47, 18.67, 21.64, 27.5, 29.51, 35.17, 31.37, 18.86]

>  <accession>  (294) 
3ZZC_A

>  <description>  (294) 
Chain A, 3C PROTEINASE [Coxsackievirus B3]

>  <evalue>  (294) 
7.4865399999999999e-87

>  <pdb_code>  (294) 
3ZZC

>  <chain>  (294) 
A

>  <ligands>  (294) 
[{'chain_id': 'A', 'author_residue_number': 1181, 'author_insertion_code': '', 'chem_comp_id': 'G83', 'alternate_conformers': 0, 'entity_id': 2, 'struct_asym_id': 'B', 'residue_number': 1, 'chem_comp_name': 'ETHYL (5S,8S,11R)-8-BENZYL-5-(2-TERT-BUTOXY-2-OXOETHYL)-3,6,9-TRIOXO-11-{[(3S)-2-OXOPYRROLIDIN-3-YL]METHYL}-1-PHENYL-2-OXA-4,7,10-TRIAZATETRADECAN-14-OATE', 'weight': 680.788, 'carbohydrate_polymer': False, 'branch_name': ''}]

>  <ligand_codes>  (294) 
['G83']

>  <cofactor_codes>  (294) 
[]

>  <has_cofactor>  (294) 
False

>  <covalent>  (294) 
True

>  <base_name>  (294) 
3ZZC

>  <lig_resn>  (294) 
G83

>  <lig_resi>  (294) 
1181

>  <lig_chain>  (294) 
A

>  <lig_segi>  (294) 
B

>  <lig_alt>  (294) 


>  <polymer_chain>  (294) 
A

>  <single_smiles>  (294) 
CCOC(=O)CC[C@H](C[C@@H]1CCNC1=O)NC(=O)[C@H](Cc2ccccc2)NC(=O)[C@H](CC(=O)OC(C)(C)C)NC(=O)OCc3ccccc3

$$$$
G83P1S136
     RDKit          3D

 15 14  0  0  0  0  0  0  0  0999 V2000
   -9.8940   12.8970  -36.5940 C   0  0  0  0  0  0  0  0  0  0  0  0
   -9.6510   12.9770  -35.0820 C   0  0  2  0  0  0  0  0  0  0  0  0
   -9.2610   14.3500  -34.7310 N   0  0  0  0  0  0  0  0  0  0  0  0
   -8.4620   12.0930  -34.7840 C   0  0  0  0  0  0  0  0  0  0  0  0
   -9.0700   14.7310  -33.4520 C   0  0  0  0  0  0  0  0  0  0  0  0
   -7.3180   12.4750  -35.0590 O   0  0  0  0  0  0  0  0  0  0  0  0
   -8.5890   16.1350  -33.2460 C   0  0  1  0  0  0  0  0  0  0  0  0
   -9.1660   13.9920  -32.4630 O   0  0  0  0  0  0  0  0  0  0  0  0
   -8.9270   16.6710  -31.9560 N   0  0  0  0  0  0  0  0  0  0  0  0
   -7.0940   15.9700  -33.0860 C   0  0  0  0  0  0  0  0  0  0  0  0
   -9.6140   17.8180  -31.9050 C   0  0  0  0  0  0  0  0  0  0  0  0
   -6.3360   17.1850  -33.4620 C   0  0  0  0  0  0  0  0  0  0  0  0
   -9.9650   18.3270  -30.5810 O   0  0  0  0  0  0  0  0  0  0  0  0
   -9.9760   18.4340  -32.9180 O   0  0  0  0  0  0  0  0  0  0  0  0
   -6.4670   17.7660  -34.5460 O   0  0  0  0  0  0  0  0  0  0  0  0
  2  1  1  6
  3  2  1  0
  2  4  1  0
  5  3  1  0
  4  6  2  0
  7  5  1  0
  5  8  2  0
  9  7  1  0
  7 10  1  1
 11  9  1  0
 12 10  1  0
 13 11  1  0
 11 14  2  0
 15 12  2  0
A    2
 C37
A    3
 N33
A    5
 C31
A    6
 O47
A    7
 C23
A    8
 O35
A    9
 N21
A   10
 C25
A   11
 C17
A   14
 O19
A   15
 O1 
M  END
>  <XChem_code>  (295) 
G83§1

>  <Occupancy>  (295) 
[1.0, 1.0, 1.0, 1.0, 1.0, 1.0, 1.0, 1.0, 1.0, 1.0, 1.0, 1.0, 1.0, 1.0, 1.0, 1.0, 1.0, 1.0, 1.0, 1.0, 1.0, 1.0, 1.0, 1.0, 1.0, 1.0, 1.0, 1.0, 1.0, 1.0, 1.0, 1.0, 1.0, 1.0, 1.0, 1.0, 1.0, 1.0, 1.0, 1.0, 1.0, 1.0, 1.0, 1.0, 1.0, 1.0, 1.0, 1.0, 1.0, 1.0]

>  <TempFactor>  (295) 
[21.5, 44.89, 24.36, 42.16, 38.25, 23.95, 40.64, 20.41, 29.29, 22.5, 27.31, 23.15, 28.56, 41.84, 29.6, 38.53, 33.37, 31.58, 30.86, 27.88, 28.97, 31.52, 43.05, 27.66, 27.42, 21.95, 25.67, 24.02, 25.01, 43.36, 43.87, 19.31, 17.05, 26.62, 26.73, 28.95, 20.4, 17.34, 20.74, 21.57, 21.69, 20.06, 20.47, 18.67, 21.64, 27.5, 29.51, 35.17, 31.37, 18.86]

>  <accession>  (295) 
3ZZC_A

>  <description>  (295) 
Chain A, 3C PROTEINASE [Coxsackievirus B3]

>  <evalue>  (295) 
7.4865399999999999e-87

>  <pdb_code>  (295) 
3ZZC

>  <chain>  (295) 
A

>  <ligands>  (295) 
[{'chain_id': 'A', 'author_residue_number': 1181, 'author_insertion_code': '', 'chem_comp_id': 'G83', 'alternate_conformers': 0, 'entity_id': 2, 'struct_asym_id': 'B', 'residue_number': 1, 'chem_comp_name': 'ETHYL (5S,8S,11R)-8-BENZYL-5-(2-TERT-BUTOXY-2-OXOETHYL)-3,6,9-TRIOXO-11-{[(3S)-2-OXOPYRROLIDIN-3-YL]METHYL}-1-PHENYL-2-OXA-4,7,10-TRIAZATETRADECAN-14-OATE', 'weight': 680.788, 'carbohydrate_polymer': False, 'branch_name': ''}]

>  <ligand_codes>  (295) 
['G83']

>  <cofactor_codes>  (295) 
[]

>  <has_cofactor>  (295) 
False

>  <covalent>  (295) 
True

>  <base_name>  (295) 
3ZZC

>  <lig_resn>  (295) 
G83

>  <lig_resi>  (295) 
1181

>  <lig_chain>  (295) 
A

>  <lig_segi>  (295) 
B

>  <lig_alt>  (295) 


>  <polymer_chain>  (295) 
A

>  <single_smiles>  (295) 
CCOC(=O)CC[C@H](C[C@@H]1CCNC1=O)NC(=O)[C@H](Cc2ccccc2)NC(=O)[C@H](CC(=O)OC(C)(C)C)NC(=O)OCc3ccccc3

$$$$
G83P1S137
     RDKit          3D

 15 14  0  0  0  0  0  0  0  0999 V2000
   -9.8940   12.8970  -36.5940 C   0  0  0  0  0  0  0  0  0  0  0  0
   -9.6510   12.9770  -35.0820 C   0  0  2  0  0  0  0  0  0  0  0  0
   -9.2610   14.3500  -34.7310 N   0  0  0  0  0  0  0  0  0  0  0  0
   -8.4620   12.0930  -34.7840 C   0  0  0  0  0  0  0  0  0  0  0  0
   -9.0700   14.7310  -33.4520 C   0  0  0  0  0  0  0  0  0  0  0  0
   -7.3180   12.4750  -35.0590 O   0  0  0  0  0  0  0  0  0  0  0  0
   -8.5890   16.1350  -33.2460 C   0  0  2  0  0  0  0  0  0  0  0  0
   -9.1660   13.9920  -32.4630 O   0  0  0  0  0  0  0  0  0  0  0  0
   -7.0940   15.9700  -33.0860 C   0  0  0  0  0  0  0  0  0  0  0  0
   -8.9270   16.6710  -31.9560 N   0  0  0  0  0  0  0  0  0  0  0  0
   -6.3360   17.1850  -33.4620 C   0  0  0  0  0  0  0  0  0  0  0  0
   -9.6140   17.8180  -31.9050 C   0  0  0  0  0  0  0  0  0  0  0  0
   -5.3760   17.6500  -32.4930 O   0  0  0  0  0  0  0  0  0  0  0  0
   -6.4670   17.7660  -34.5460 O   0  0  0  0  0  0  0  0  0  0  0  0
   -9.9760   18.4340  -32.9180 O   0  0  0  0  0  0  0  0  0  0  0  0
  2  1  1  6
  3  2  1  0
  2  4  1  0
  5  3  1  0
  4  6  2  0
  7  5  1  0
  5  8  2  0
  7  9  1  1
 10  7  1  0
 11  9  1  0
 12 10  1  0
 13 11  1  0
 14 11  2  0
 12 15  2  0
A    2
 C37
A    3
 N33
A    5
 C31
A    6
 O47
A    7
 C23
A    8
 O35
A    9
 C25
A   10
 N21
A   11
 C14
A   14
 O1 
A   15
 O19
M  END
>  <XChem_code>  (296) 
G83§1

>  <Occupancy>  (296) 
[1.0, 1.0, 1.0, 1.0, 1.0, 1.0, 1.0, 1.0, 1.0, 1.0, 1.0, 1.0, 1.0, 1.0, 1.0, 1.0, 1.0, 1.0, 1.0, 1.0, 1.0, 1.0, 1.0, 1.0, 1.0, 1.0, 1.0, 1.0, 1.0, 1.0, 1.0, 1.0, 1.0, 1.0, 1.0, 1.0, 1.0, 1.0, 1.0, 1.0, 1.0, 1.0, 1.0, 1.0, 1.0, 1.0, 1.0, 1.0, 1.0, 1.0]

>  <TempFactor>  (296) 
[21.5, 44.89, 24.36, 42.16, 38.25, 23.95, 40.64, 20.41, 29.29, 22.5, 27.31, 23.15, 28.56, 41.84, 29.6, 38.53, 33.37, 31.58, 30.86, 27.88, 28.97, 31.52, 43.05, 27.66, 27.42, 21.95, 25.67, 24.02, 25.01, 43.36, 43.87, 19.31, 17.05, 26.62, 26.73, 28.95, 20.4, 17.34, 20.74, 21.57, 21.69, 20.06, 20.47, 18.67, 21.64, 27.5, 29.51, 35.17, 31.37, 18.86]

>  <accession>  (296) 
3ZZC_A

>  <description>  (296) 
Chain A, 3C PROTEINASE [Coxsackievirus B3]

>  <evalue>  (296) 
7.4865399999999999e-87

>  <pdb_code>  (296) 
3ZZC

>  <chain>  (296) 
A

>  <ligands>  (296) 
[{'chain_id': 'A', 'author_residue_number': 1181, 'author_insertion_code': '', 'chem_comp_id': 'G83', 'alternate_conformers': 0, 'entity_id': 2, 'struct_asym_id': 'B', 'residue_number': 1, 'chem_comp_name': 'ETHYL (5S,8S,11R)-8-BENZYL-5-(2-TERT-BUTOXY-2-OXOETHYL)-3,6,9-TRIOXO-11-{[(3S)-2-OXOPYRROLIDIN-3-YL]METHYL}-1-PHENYL-2-OXA-4,7,10-TRIAZATETRADECAN-14-OATE', 'weight': 680.788, 'carbohydrate_polymer': False, 'branch_name': ''}]

>  <ligand_codes>  (296) 
['G83']

>  <cofactor_codes>  (296) 
[]

>  <has_cofactor>  (296) 
False

>  <covalent>  (296) 
True

>  <base_name>  (296) 
3ZZC

>  <lig_resn>  (296) 
G83

>  <lig_resi>  (296) 
1181

>  <lig_chain>  (296) 
A

>  <lig_segi>  (296) 
B

>  <lig_alt>  (296) 


>  <polymer_chain>  (296) 
A

>  <single_smiles>  (296) 
CCOC(=O)CC[C@H](C[C@@H]1CCNC1=O)NC(=O)[C@H](Cc2ccccc2)NC(=O)[C@H](CC(=O)OC(C)(C)C)NC(=O)OCc3ccccc3

$$$$
G83P1S138
     RDKit          3D

 13 12  0  0  0  0  0  0  0  0999 V2000
   -9.8940   12.8970  -36.5940 C   0  0  0  0  0  0  0  0  0  0  0  0
   -9.6510   12.9770  -35.0820 C   0  0  2  0  0  0  0  0  0  0  0  0
   -9.2610   14.3500  -34.7310 N   0  0  0  0  0  0  0  0  0  0  0  0
   -8.4620   12.0930  -34.7840 C   0  0  0  0  0  0  0  0  0  0  0  0
   -9.0700   14.7310  -33.4520 C   0  0  0  0  0  0  0  0  0  0  0  0
   -7.3180   12.4750  -35.0590 O   0  0  0  0  0  0  0  0  0  0  0  0
   -8.5890   16.1350  -33.2460 C   0  0  2  0  0  0  0  0  0  0  0  0
   -9.1660   13.9920  -32.4630 O   0  0  0  0  0  0  0  0  0  0  0  0
   -7.0940   15.9700  -33.0860 C   0  0  0  0  0  0  0  0  0  0  0  0
   -8.9270   16.6710  -31.9560 N   0  0  0  0  0  0  0  0  0  0  0  0
   -6.3360   17.1850  -33.4620 C   0  0  0  0  0  0  0  0  0  0  0  0
   -5.3760   17.6500  -32.4930 O   0  0  0  0  0  0  0  0  0  0  0  0
   -6.4670   17.7660  -34.5460 O   0  0  0  0  0  0  0  0  0  0  0  0
  2  1  1  6
  3  2  1  0
  2  4  1  0
  5  3  1  0
  4  6  2  0
  7  5  1  0
  5  8  2  0
  7  9  1  0
  7 10  1  1
 11  9  1  0
 12 11  1  0
 13 11  2  0
A    2
 C37
A    3
 N33
A    5
 C31
A    6
 O47
A    7
 C23
A    8
 O35
A    9
 C25
A   11
 C14
A   13
 O1 
M  END
>  <XChem_code>  (297) 
G83§1

>  <Occupancy>  (297) 
[1.0, 1.0, 1.0, 1.0, 1.0, 1.0, 1.0, 1.0, 1.0, 1.0, 1.0, 1.0, 1.0, 1.0, 1.0, 1.0, 1.0, 1.0, 1.0, 1.0, 1.0, 1.0, 1.0, 1.0, 1.0, 1.0, 1.0, 1.0, 1.0, 1.0, 1.0, 1.0, 1.0, 1.0, 1.0, 1.0, 1.0, 1.0, 1.0, 1.0, 1.0, 1.0, 1.0, 1.0, 1.0, 1.0, 1.0, 1.0, 1.0, 1.0]

>  <TempFactor>  (297) 
[21.5, 44.89, 24.36, 42.16, 38.25, 23.95, 40.64, 20.41, 29.29, 22.5, 27.31, 23.15, 28.56, 41.84, 29.6, 38.53, 33.37, 31.58, 30.86, 27.88, 28.97, 31.52, 43.05, 27.66, 27.42, 21.95, 25.67, 24.02, 25.01, 43.36, 43.87, 19.31, 17.05, 26.62, 26.73, 28.95, 20.4, 17.34, 20.74, 21.57, 21.69, 20.06, 20.47, 18.67, 21.64, 27.5, 29.51, 35.17, 31.37, 18.86]

>  <accession>  (297) 
3ZZC_A

>  <description>  (297) 
Chain A, 3C PROTEINASE [Coxsackievirus B3]

>  <evalue>  (297) 
7.4865399999999999e-87

>  <pdb_code>  (297) 
3ZZC

>  <chain>  (297) 
A

>  <ligands>  (297) 
[{'chain_id': 'A', 'author_residue_number': 1181, 'author_insertion_code': '', 'chem_comp_id': 'G83', 'alternate_conformers': 0, 'entity_id': 2, 'struct_asym_id': 'B', 'residue_number': 1, 'chem_comp_name': 'ETHYL (5S,8S,11R)-8-BENZYL-5-(2-TERT-BUTOXY-2-OXOETHYL)-3,6,9-TRIOXO-11-{[(3S)-2-OXOPYRROLIDIN-3-YL]METHYL}-1-PHENYL-2-OXA-4,7,10-TRIAZATETRADECAN-14-OATE', 'weight': 680.788, 'carbohydrate_polymer': False, 'branch_name': ''}]

>  <ligand_codes>  (297) 
['G83']

>  <cofactor_codes>  (297) 
[]

>  <has_cofactor>  (297) 
False

>  <covalent>  (297) 
True

>  <base_name>  (297) 
3ZZC

>  <lig_resn>  (297) 
G83

>  <lig_resi>  (297) 
1181

>  <lig_chain>  (297) 
A

>  <lig_segi>  (297) 
B

>  <lig_alt>  (297) 


>  <polymer_chain>  (297) 
A

>  <single_smiles>  (297) 
CCOC(=O)CC[C@H](C[C@@H]1CCNC1=O)NC(=O)[C@H](Cc2ccccc2)NC(=O)[C@H](CC(=O)OC(C)(C)C)NC(=O)OCc3ccccc3

$$$$
G83P1S139
     RDKit          3D

 33 33  0  0  0  0  0  0  0  0999 V2000
   -7.6750    9.9230  -32.2970 C   0  0  0  0  0  0  0  0  0  0  0  0
   -7.7310    9.9410  -33.8290 C   0  0  2  0  0  0  0  0  0  0  0  0
   -8.7450   10.9170  -34.2200 N   0  0  0  0  0  0  0  0  0  0  0  0
   -8.1830    8.5770  -34.4040 C   0  0  2  0  0  0  0  0  0  0  0  0
   -8.4620   12.0930  -34.7840 C   0  0  0  0  0  0  0  0  0  0  0  0
   -8.1980    8.6230  -35.9360 C   0  0  0  0  0  0  0  0  0  0  0  0
   -9.8310    8.1200  -33.8380 R   0  0  0  0  0  0  0  0  0  0  0  0
   -9.6510   12.9770  -35.0820 C   0  0  1  0  0  0  0  0  0  0  0  0
   -7.3180   12.4750  -35.0590 O   0  0  0  0  0  0  0  0  0  0  0  0
   -6.8090    8.9220  -36.4600 C   0  0  0  0  0  0  0  0  0  0  0  0
   -9.2610   14.3500  -34.7310 N   0  0  0  0  0  0  0  0  0  0  0  0
   -9.8940   12.8970  -36.5940 C   0  0  0  0  0  0  0  0  0  0  0  0
   -6.6580    9.7290  -37.6550 O   0  0  0  0  0  0  0  0  0  0  0  0
   -5.8080    8.4980  -35.8980 O   0  0  0  0  0  0  0  0  0  0  0  0
   -9.0700   14.7310  -33.4520 C   0  0  0  0  0  0  0  0  0  0  0  0
  -11.1210   13.7000  -36.9770 C   0  0  0  0  0  0  0  0  0  0  0  0
   -5.3610   10.2030  -38.0740 C   0  0  0  0  0  0  0  0  0  0  0  0
   -8.5890   16.1350  -33.2460 C   0  0  1  0  0  0  0  0  0  0  0  0
   -9.1660   13.9920  -32.4630 O   0  0  0  0  0  0  0  0  0  0  0  0
  -12.3400   13.5180  -36.3250 C   0  0  0  0  0  0  0  0  0  0  0  0
  -11.0320   14.6580  -38.0030 C   0  0  0  0  0  0  0  0  0  0  0  0
   -4.5750    9.1110  -38.7950 C   0  0  0  0  0  0  0  0  0  0  0  0
   -8.9270   16.6710  -31.9560 N   0  0  0  0  0  0  0  0  0  0  0  0
   -7.0940   15.9700  -33.0860 C   0  0  0  0  0  0  0  0  0  0  0  0
  -13.4670   14.3010  -36.6620 C   0  0  0  0  0  0  0  0  0  0  0  0
  -12.1840   15.4150  -38.3560 C   0  0  0  0  0  0  0  0  0  0  0  0
   -9.6140   17.8180  -31.9050 C   0  0  0  0  0  0  0  0  0  0  0  0
   -6.3360   17.1850  -33.4620 C   0  0  0  0  0  0  0  0  0  0  0  0
  -13.4100   15.2640  -37.6860 C   0  0  0  0  0  0  0  0  0  0  0  0
   -9.9650   18.3270  -30.5810 O   0  0  0  0  0  0  0  0  0  0  0  0
   -9.9760   18.4340  -32.9180 O   0  0  0  0  0  0  0  0  0  0  0  0
   -5.3760   17.6500  -32.4930 O   0  0  0  0  0  0  0  0  0  0  0  0
   -6.4670   17.7660  -34.5460 O   0  0  0  0  0  0  0  0  0  0  0  0
  2  1  1  1
  3  2  1  0
  2  4  1  0
  5  3  1  0
  4  6  1  0
  4  7  1  1
  8  5  1  0
  5  9  2  0
  6 10  1  0
 11  8  1  0
  8 12  1  6
 10 13  1  0
 10 14  2  0
 15 11  1  0
 12 16  1  0
 17 13  1  0
 18 15  1  0
 15 19  2  0
 16 20  2  0
 16 21  1  0
 17 22  1  0
 23 18  1  0
 18 24  1  1
 25 20  1  0
 26 21  2  0
 27 23  1  0
 28 24  1  0
 25 29  2  0
 29 26  1  0
 30 27  1  0
 27 31  2  0
 32 28  1  0
 33 28  2  0
V    7 *
A    2
 C57
A    3
 N49
A    4
 C63
A    5
 C39
A    6
 C82
A    7
 X  
A    8
 C37
A    9
 O47
A   10
 C84
A   11
 N33
A   12
 C41
A   13
 O86
A   14
 O88
A   15
 C31
A   16
 C51
A   17
 C3 
A   18
 C23
A   19
 O35
A   20
 C53
A   21
 C55
A   22
 C5 
A   23
 N21
A   24
 C25
A   25
 C7 
A   26
 C11
A   27
 C17
A   28
 C14
A   29
 C9 
A   31
 O19
A   33
 O1 
M  END
>  <XChem_code>  (298) 
G83§1

>  <Occupancy>  (298) 
[1.0, 1.0, 1.0, 1.0, 1.0, 1.0, 1.0, 1.0, 1.0, 1.0, 1.0, 1.0, 1.0, 1.0, 1.0, 1.0, 1.0, 1.0, 1.0, 1.0, 1.0, 1.0, 1.0, 1.0, 1.0, 1.0, 1.0, 1.0, 1.0, 1.0, 1.0, 1.0, 1.0, 1.0, 1.0, 1.0, 1.0, 1.0, 1.0, 1.0, 1.0, 1.0, 1.0, 1.0, 1.0, 1.0, 1.0, 1.0, 1.0, 1.0]

>  <TempFactor>  (298) 
[21.5, 44.89, 24.36, 42.16, 38.25, 23.95, 40.64, 20.41, 29.29, 22.5, 27.31, 23.15, 28.56, 41.84, 29.6, 38.53, 33.37, 31.58, 30.86, 27.88, 28.97, 31.52, 43.05, 27.66, 27.42, 21.95, 25.67, 24.02, 25.01, 43.36, 43.87, 19.31, 17.05, 26.62, 26.73, 28.95, 20.4, 17.34, 20.74, 21.57, 21.69, 20.06, 20.47, 18.67, 21.64, 27.5, 29.51, 35.17, 31.37, 18.86]

>  <accession>  (298) 
3ZZC_A

>  <description>  (298) 
Chain A, 3C PROTEINASE [Coxsackievirus B3]

>  <evalue>  (298) 
7.4865399999999999e-87

>  <pdb_code>  (298) 
3ZZC

>  <chain>  (298) 
A

>  <ligands>  (298) 
[{'chain_id': 'A', 'author_residue_number': 1181, 'author_insertion_code': '', 'chem_comp_id': 'G83', 'alternate_conformers': 0, 'entity_id': 2, 'struct_asym_id': 'B', 'residue_number': 1, 'chem_comp_name': 'ETHYL (5S,8S,11R)-8-BENZYL-5-(2-TERT-BUTOXY-2-OXOETHYL)-3,6,9-TRIOXO-11-{[(3S)-2-OXOPYRROLIDIN-3-YL]METHYL}-1-PHENYL-2-OXA-4,7,10-TRIAZATETRADECAN-14-OATE', 'weight': 680.788, 'carbohydrate_polymer': False, 'branch_name': ''}]

>  <ligand_codes>  (298) 
['G83']

>  <cofactor_codes>  (298) 
[]

>  <has_cofactor>  (298) 
False

>  <covalent>  (298) 
True

>  <base_name>  (298) 
3ZZC

>  <lig_resn>  (298) 
G83

>  <lig_resi>  (298) 
1181

>  <lig_chain>  (298) 
A

>  <lig_segi>  (298) 
B

>  <lig_alt>  (298) 


>  <polymer_chain>  (298) 
A

>  <single_smiles>  (298) 
CCOC(=O)CC[C@H](C[C@@H]1CCNC1=O)NC(=O)[C@H](Cc2ccccc2)NC(=O)[C@H](CC(=O)OC(C)(C)C)NC(=O)OCc3ccccc3

$$$$
G83P1S140
     RDKit          3D

 33 33  0  0  0  0  0  0  0  0999 V2000
   -9.8940   12.8970  -36.5940 C   0  0  0  0  0  0  0  0  0  0  0  0
   -9.6510   12.9770  -35.0820 C   0  0  2  0  0  0  0  0  0  0  0  0
   -9.2610   14.3500  -34.7310 N   0  0  0  0  0  0  0  0  0  0  0  0
   -8.4620   12.0930  -34.7840 C   0  0  0  0  0  0  0  0  0  0  0  0
   -9.0700   14.7310  -33.4520 C   0  0  0  0  0  0  0  0  0  0  0  0
   -7.3180   12.4750  -35.0590 O   0  0  0  0  0  0  0  0  0  0  0  0
   -8.7450   10.9170  -34.2200 N   0  0  0  0  0  0  0  0  0  0  0  0
   -8.5890   16.1350  -33.2460 C   0  0  1  0  0  0  0  0  0  0  0  0
   -9.1660   13.9920  -32.4630 O   0  0  0  0  0  0  0  0  0  0  0  0
   -7.7310    9.9410  -33.8290 C   0  0  1  0  0  0  0  0  0  0  0  0
   -8.9270   16.6710  -31.9560 N   0  0  0  0  0  0  0  0  0  0  0  0
   -7.0940   15.9700  -33.0860 C   0  0  0  0  0  0  0  0  0  0  0  0
   -7.6750    9.9230  -32.2970 C   0  0  0  0  0  0  0  0  0  0  0  0
   -8.1830    8.5770  -34.4040 C   0  0  2  0  0  0  0  0  0  0  0  0
   -9.6140   17.8180  -31.9050 C   0  0  0  0  0  0  0  0  0  0  0  0
   -6.3360   17.1850  -33.4620 C   0  0  0  0  0  0  0  0  0  0  0  0
   -7.2530   11.2580  -31.6380 C   0  0  1  0  0  0  0  0  0  0  0  0
   -8.1980    8.6230  -35.9360 C   0  0  0  0  0  0  0  0  0  0  0  0
   -9.8310    8.1200  -33.8380 R   0  0  0  0  0  0  0  0  0  0  0  0
   -9.9650   18.3270  -30.5810 O   0  0  0  0  0  0  0  0  0  0  0  0
   -9.9760   18.4340  -32.9180 O   0  0  0  0  0  0  0  0  0  0  0  0
   -5.3760   17.6500  -32.4930 O   0  0  0  0  0  0  0  0  0  0  0  0
   -6.4670   17.7660  -34.5460 O   0  0  0  0  0  0  0  0  0  0  0  0
   -7.1040   11.1020  -30.1450 C   0  0  0  0  0  0  0  0  0  0  0  0
   -5.9010   11.8850  -31.9840 C   0  0  0  0  0  0  0  0  0  0  0  0
   -6.8090    8.9220  -36.4600 C   0  0  0  0  0  0  0  0  0  0  0  0
   -7.8010   10.3100  -29.5070 O   0  0  0  0  0  0  0  0  0  0  0  0
   -6.2280   11.9150  -29.7100 N   0  0  0  0  0  0  0  0  0  0  0  0
   -5.4330   12.6240  -30.7080 C   0  0  0  0  0  0  0  0  0  0  0  0
   -6.6580    9.7290  -37.6550 O   0  0  0  0  0  0  0  0  0  0  0  0
   -5.8080    8.4980  -35.8980 O   0  0  0  0  0  0  0  0  0  0  0  0
   -5.3610   10.2030  -38.0740 C   0  0  0  0  0  0  0  0  0  0  0  0
   -4.5750    9.1110  -38.7950 C   0  0  0  0  0  0  0  0  0  0  0  0
  2  1  1  6
  3  2  1  0
  2  4  1  0
  5  3  1  0
  4  6  2  0
  4  7  1  0
  8  5  1  0
  5  9  2  0
  7 10  1  0
 11  8  1  0
  8 12  1  1
 10 13  1  1
 10 14  1  0
 15 11  1  0
 16 12  1  0
 17 13  1  6
 14 18  1  0
 14 19  1  1
 20 15  1  0
 15 21  2  0
 22 16  1  0
 23 16  2  0
 17 24  1  0
 17 25  1  0
 18 26  1  0
 24 27  2  0
 24 28  1  0
 29 25  1  0
 26 30  1  0
 26 31  2  0
 28 29  1  0
 32 30  1  0
 32 33  1  0
V   19 *
A    2
 C37
A    3
 N33
A    4
 C39
A    5
 C31
A    6
 O47
A    7
 N49
A    8
 C23
A    9
 O35
A   10
 C57
A   11
 N21
A   12
 C25
A   13
 C59
A   14
 C63
A   15
 C17
A   16
 C14
A   17
 C61
A   18
 C82
A   19
 X  
A   21
 O19
A   23
 O1 
A   24
 C65
A   25
 C73
A   26
 C84
A   27
 O66
A   28
 N69
A   29
 C71
A   30
 O86
A   31
 O88
A   32
 C3 
A   33
 C5 
M  END
>  <XChem_code>  (299) 
G83§1

>  <Occupancy>  (299) 
[1.0, 1.0, 1.0, 1.0, 1.0, 1.0, 1.0, 1.0, 1.0, 1.0, 1.0, 1.0, 1.0, 1.0, 1.0, 1.0, 1.0, 1.0, 1.0, 1.0, 1.0, 1.0, 1.0, 1.0, 1.0, 1.0, 1.0, 1.0, 1.0, 1.0, 1.0, 1.0, 1.0, 1.0, 1.0, 1.0, 1.0, 1.0, 1.0, 1.0, 1.0, 1.0, 1.0, 1.0, 1.0, 1.0, 1.0, 1.0, 1.0, 1.0]

>  <TempFactor>  (299) 
[21.5, 44.89, 24.36, 42.16, 38.25, 23.95, 40.64, 20.41, 29.29, 22.5, 27.31, 23.15, 28.56, 41.84, 29.6, 38.53, 33.37, 31.58, 30.86, 27.88, 28.97, 31.52, 43.05, 27.66, 27.42, 21.95, 25.67, 24.02, 25.01, 43.36, 43.87, 19.31, 17.05, 26.62, 26.73, 28.95, 20.4, 17.34, 20.74, 21.57, 21.69, 20.06, 20.47, 18.67, 21.64, 27.5, 29.51, 35.17, 31.37, 18.86]

>  <accession>  (299) 
3ZZC_A

>  <description>  (299) 
Chain A, 3C PROTEINASE [Coxsackievirus B3]

>  <evalue>  (299) 
7.4865399999999999e-87

>  <pdb_code>  (299) 
3ZZC

>  <chain>  (299) 
A

>  <ligands>  (299) 
[{'chain_id': 'A', 'author_residue_number': 1181, 'author_insertion_code': '', 'chem_comp_id': 'G83', 'alternate_conformers': 0, 'entity_id': 2, 'struct_asym_id': 'B', 'residue_number': 1, 'chem_comp_name': 'ETHYL (5S,8S,11R)-8-BENZYL-5-(2-TERT-BUTOXY-2-OXOETHYL)-3,6,9-TRIOXO-11-{[(3S)-2-OXOPYRROLIDIN-3-YL]METHYL}-1-PHENYL-2-OXA-4,7,10-TRIAZATETRADECAN-14-OATE', 'weight': 680.788, 'carbohydrate_polymer': False, 'branch_name': ''}]

>  <ligand_codes>  (299) 
['G83']

>  <cofactor_codes>  (299) 
[]

>  <has_cofactor>  (299) 
False

>  <covalent>  (299) 
True

>  <base_name>  (299) 
3ZZC

>  <lig_resn>  (299) 
G83

>  <lig_resi>  (299) 
1181

>  <lig_chain>  (299) 
A

>  <lig_segi>  (299) 
B

>  <lig_alt>  (299) 


>  <polymer_chain>  (299) 
A

>  <single_smiles>  (299) 
CCOC(=O)CC[C@H](C[C@@H]1CCNC1=O)NC(=O)[C@H](Cc2ccccc2)NC(=O)[C@H](CC(=O)OC(C)(C)C)NC(=O)OCc3ccccc3

$$$$
G83P1S141
     RDKit          3D

 16 15  0  0  0  0  0  0  0  0999 V2000
   -9.8940   12.8970  -36.5940 C   0  0  0  0  0  0  0  0  0  0  0  0
   -9.6510   12.9770  -35.0820 C   0  0  2  0  0  0  0  0  0  0  0  0
   -9.2610   14.3500  -34.7310 N   0  0  0  0  0  0  0  0  0  0  0  0
   -8.4620   12.0930  -34.7840 C   0  0  0  0  0  0  0  0  0  0  0  0
   -9.0700   14.7310  -33.4520 C   0  0  0  0  0  0  0  0  0  0  0  0
   -7.3180   12.4750  -35.0590 O   0  0  0  0  0  0  0  0  0  0  0  0
   -8.5890   16.1350  -33.2460 C   0  0  2  0  0  0  0  0  0  0  0  0
   -9.1660   13.9920  -32.4630 O   0  0  0  0  0  0  0  0  0  0  0  0
   -7.0940   15.9700  -33.0860 C   0  0  0  0  0  0  0  0  0  0  0  0
   -8.9270   16.6710  -31.9560 N   0  0  0  0  0  0  0  0  0  0  0  0
   -6.3360   17.1850  -33.4620 C   0  0  0  0  0  0  0  0  0  0  0  0
   -9.6140   17.8180  -31.9050 C   0  0  0  0  0  0  0  0  0  0  0  0
   -5.3760   17.6500  -32.4930 O   0  0  0  0  0  0  0  0  0  0  0  0
   -6.4670   17.7660  -34.5460 O   0  0  0  0  0  0  0  0  0  0  0  0
   -9.9650   18.3270  -30.5810 O   0  0  0  0  0  0  0  0  0  0  0  0
   -9.9760   18.4340  -32.9180 O   0  0  0  0  0  0  0  0  0  0  0  0
  2  1  1  6
  3  2  1  0
  2  4  1  0
  5  3  1  0
  4  6  2  0
  7  5  1  0
  5  8  2  0
  7  9  1  1
 10  7  1  0
 11  9  1  0
 12 10  1  0
 13 11  1  0
 14 11  2  0
 15 12  1  0
 12 16  2  0
A    2
 C37
A    3
 N33
A    5
 C31
A    6
 O47
A    7
 C23
A    8
 O35
A    9
 C25
A   10
 N21
A   11
 C14
A   12
 C17
A   14
 O1 
A   16
 O19
M  END
>  <XChem_code>  (300) 
G83§1

>  <Occupancy>  (300) 
[1.0, 1.0, 1.0, 1.0, 1.0, 1.0, 1.0, 1.0, 1.0, 1.0, 1.0, 1.0, 1.0, 1.0, 1.0, 1.0, 1.0, 1.0, 1.0, 1.0, 1.0, 1.0, 1.0, 1.0, 1.0, 1.0, 1.0, 1.0, 1.0, 1.0, 1.0, 1.0, 1.0, 1.0, 1.0, 1.0, 1.0, 1.0, 1.0, 1.0, 1.0, 1.0, 1.0, 1.0, 1.0, 1.0, 1.0, 1.0, 1.0, 1.0]

>  <TempFactor>  (300) 
[21.5, 44.89, 24.36, 42.16, 38.25, 23.95, 40.64, 20.41, 29.29, 22.5, 27.31, 23.15, 28.56, 41.84, 29.6, 38.53, 33.37, 31.58, 30.86, 27.88, 28.97, 31.52, 43.05, 27.66, 27.42, 21.95, 25.67, 24.02, 25.01, 43.36, 43.87, 19.31, 17.05, 26.62, 26.73, 28.95, 20.4, 17.34, 20.74, 21.57, 21.69, 20.06, 20.47, 18.67, 21.64, 27.5, 29.51, 35.17, 31.37, 18.86]

>  <accession>  (300) 
3ZZC_A

>  <description>  (300) 
Chain A, 3C PROTEINASE [Coxsackievirus B3]

>  <evalue>  (300) 
7.4865399999999999e-87

>  <pdb_code>  (300) 
3ZZC

>  <chain>  (300) 
A

>  <ligands>  (300) 
[{'chain_id': 'A', 'author_residue_number': 1181, 'author_insertion_code': '', 'chem_comp_id': 'G83', 'alternate_conformers': 0, 'entity_id': 2, 'struct_asym_id': 'B', 'residue_number': 1, 'chem_comp_name': 'ETHYL (5S,8S,11R)-8-BENZYL-5-(2-TERT-BUTOXY-2-OXOETHYL)-3,6,9-TRIOXO-11-{[(3S)-2-OXOPYRROLIDIN-3-YL]METHYL}-1-PHENYL-2-OXA-4,7,10-TRIAZATETRADECAN-14-OATE', 'weight': 680.788, 'carbohydrate_polymer': False, 'branch_name': ''}]

>  <ligand_codes>  (300) 
['G83']

>  <cofactor_codes>  (300) 
[]

>  <has_cofactor>  (300) 
False

>  <covalent>  (300) 
True

>  <base_name>  (300) 
3ZZC

>  <lig_resn>  (300) 
G83

>  <lig_resi>  (300) 
1181

>  <lig_chain>  (300) 
A

>  <lig_segi>  (300) 
B

>  <lig_alt>  (300) 


>  <polymer_chain>  (300) 
A

>  <single_smiles>  (300) 
CCOC(=O)CC[C@H](C[C@@H]1CCNC1=O)NC(=O)[C@H](Cc2ccccc2)NC(=O)[C@H](CC(=O)OC(C)(C)C)NC(=O)OCc3ccccc3

$$$$
G83P1S142
     RDKit          3D

  5  4  0  0  0  0  0  0  0  0999 V2000
  -10.3020   19.6950  -30.3210 C   0  0  0  0  0  0  0  0  0  0  0  0
   -9.9650   18.3270  -30.5810 O   0  0  0  0  0  0  0  0  0  0  0  0
   -9.6140   17.8180  -31.9050 C   0  0  0  0  0  0  0  0  0  0  0  0
   -8.9270   16.6710  -31.9560 N   0  0  0  0  0  0  0  0  0  0  0  0
   -9.9760   18.4340  -32.9180 O   0  0  0  0  0  0  0  0  0  0  0  0
  1  2  1  0
  2  3  1  0
  3  4  1  0
  3  5  2  0
A    2
 O15
A    3
 C17
A    5
 O19
M  END
>  <XChem_code>  (301) 
G83§1

>  <Occupancy>  (301) 
[1.0, 1.0, 1.0, 1.0, 1.0, 1.0, 1.0, 1.0, 1.0, 1.0, 1.0, 1.0, 1.0, 1.0, 1.0, 1.0, 1.0, 1.0, 1.0, 1.0, 1.0, 1.0, 1.0, 1.0, 1.0, 1.0, 1.0, 1.0, 1.0, 1.0, 1.0, 1.0, 1.0, 1.0, 1.0, 1.0, 1.0, 1.0, 1.0, 1.0, 1.0, 1.0, 1.0, 1.0, 1.0, 1.0, 1.0, 1.0, 1.0, 1.0]

>  <TempFactor>  (301) 
[21.5, 44.89, 24.36, 42.16, 38.25, 23.95, 40.64, 20.41, 29.29, 22.5, 27.31, 23.15, 28.56, 41.84, 29.6, 38.53, 33.37, 31.58, 30.86, 27.88, 28.97, 31.52, 43.05, 27.66, 27.42, 21.95, 25.67, 24.02, 25.01, 43.36, 43.87, 19.31, 17.05, 26.62, 26.73, 28.95, 20.4, 17.34, 20.74, 21.57, 21.69, 20.06, 20.47, 18.67, 21.64, 27.5, 29.51, 35.17, 31.37, 18.86]

>  <accession>  (301) 
3ZZC_A

>  <description>  (301) 
Chain A, 3C PROTEINASE [Coxsackievirus B3]

>  <evalue>  (301) 
7.4865399999999999e-87

>  <pdb_code>  (301) 
3ZZC

>  <chain>  (301) 
A

>  <ligands>  (301) 
[{'chain_id': 'A', 'author_residue_number': 1181, 'author_insertion_code': '', 'chem_comp_id': 'G83', 'alternate_conformers': 0, 'entity_id': 2, 'struct_asym_id': 'B', 'residue_number': 1, 'chem_comp_name': 'ETHYL (5S,8S,11R)-8-BENZYL-5-(2-TERT-BUTOXY-2-OXOETHYL)-3,6,9-TRIOXO-11-{[(3S)-2-OXOPYRROLIDIN-3-YL]METHYL}-1-PHENYL-2-OXA-4,7,10-TRIAZATETRADECAN-14-OATE', 'weight': 680.788, 'carbohydrate_polymer': False, 'branch_name': ''}]

>  <ligand_codes>  (301) 
['G83']

>  <cofactor_codes>  (301) 
[]

>  <has_cofactor>  (301) 
False

>  <covalent>  (301) 
True

>  <base_name>  (301) 
3ZZC

>  <lig_resn>  (301) 
G83

>  <lig_resi>  (301) 
1181

>  <lig_chain>  (301) 
A

>  <lig_segi>  (301) 
B

>  <lig_alt>  (301) 


>  <polymer_chain>  (301) 
A

>  <single_smiles>  (301) 
CCOC(=O)CC[C@H](C[C@@H]1CCNC1=O)NC(=O)[C@H](Cc2ccccc2)NC(=O)[C@H](CC(=O)OC(C)(C)C)NC(=O)OCc3ccccc3

$$$$
G83P1S143
     RDKit          3D

 33 33  0  0  0  0  0  0  0  0999 V2000
   -7.6750    9.9230  -32.2970 C   0  0  0  0  0  0  0  0  0  0  0  0
   -7.7310    9.9410  -33.8290 C   0  0  2  0  0  0  0  0  0  0  0  0
   -8.7450   10.9170  -34.2200 N   0  0  0  0  0  0  0  0  0  0  0  0
   -8.1830    8.5770  -34.4040 C   0  0  2  0  0  0  0  0  0  0  0  0
   -8.4620   12.0930  -34.7840 C   0  0  0  0  0  0  0  0  0  0  0  0
   -8.1980    8.6230  -35.9360 C   0  0  0  0  0  0  0  0  0  0  0  0
   -9.8310    8.1200  -33.8380 R   0  0  0  0  0  0  0  0  0  0  0  0
   -9.6510   12.9770  -35.0820 C   0  0  1  0  0  0  0  0  0  0  0  0
   -7.3180   12.4750  -35.0590 O   0  0  0  0  0  0  0  0  0  0  0  0
   -6.8090    8.9220  -36.4600 C   0  0  0  0  0  0  0  0  0  0  0  0
   -9.2610   14.3500  -34.7310 N   0  0  0  0  0  0  0  0  0  0  0  0
   -9.8940   12.8970  -36.5940 C   0  0  0  0  0  0  0  0  0  0  0  0
   -6.6580    9.7290  -37.6550 O   0  0  0  0  0  0  0  0  0  0  0  0
   -5.8080    8.4980  -35.8980 O   0  0  0  0  0  0  0  0  0  0  0  0
   -9.0700   14.7310  -33.4520 C   0  0  0  0  0  0  0  0  0  0  0  0
  -11.1210   13.7000  -36.9770 C   0  0  0  0  0  0  0  0  0  0  0  0
   -5.3610   10.2030  -38.0740 C   0  0  0  0  0  0  0  0  0  0  0  0
   -8.5890   16.1350  -33.2460 C   0  0  0  0  0  0  0  0  0  0  0  0
   -9.1660   13.9920  -32.4630 O   0  0  0  0  0  0  0  0  0  0  0  0
  -12.3400   13.5180  -36.3250 C   0  0  0  0  0  0  0  0  0  0  0  0
  -11.0320   14.6580  -38.0030 C   0  0  0  0  0  0  0  0  0  0  0  0
   -4.5750    9.1110  -38.7950 C   0  0  0  0  0  0  0  0  0  0  0  0
   -7.0940   15.9700  -33.0860 C   0  0  0  0  0  0  0  0  0  0  0  0
  -13.4670   14.3010  -36.6620 C   0  0  0  0  0  0  0  0  0  0  0  0
  -12.1840   15.4150  -38.3560 C   0  0  0  0  0  0  0  0  0  0  0  0
   -6.3360   17.1850  -33.4620 C   0  0  0  0  0  0  0  0  0  0  0  0
  -13.4100   15.2640  -37.6860 C   0  0  0  0  0  0  0  0  0  0  0  0
   -6.4670   17.7660  -34.5460 O   0  0  0  0  0  0  0  0  0  0  0  0
   -5.3760   17.6500  -32.4930 O   0  0  0  0  0  0  0  0  0  0  0  0
   -4.0330   17.1570  -32.4230 C   0  0  0  0  0  0  0  0  0  0  0  0
   -3.6770   16.1600  -33.5370 C   0  0  0  0  0  0  0  0  0  0  0  0
   -3.9520   16.4650  -31.0680 C   0  0  0  0  0  0  0  0  0  0  0  0
   -3.0820   18.3540  -32.5240 C   0  0  0  0  0  0  0  0  0  0  0  0
  2  1  1  1
  3  2  1  0
  2  4  1  0
  5  3  1  0
  4  6  1  0
  4  7  1  1
  8  5  1  0
  5  9  2  0
  6 10  1  0
 11  8  1  0
  8 12  1  6
 10 13  1  0
 10 14  2  0
 15 11  1  0
 12 16  1  0
 17 13  1  0
 18 15  1  0
 15 19  2  0
 16 20  2  0
 16 21  1  0
 17 22  1  0
 18 23  1  6
 24 20  1  0
 25 21  2  0
 26 23  1  0
 24 27  2  0
 27 25  1  0
 28 26  2  0
 29 26  1  0
 29 30  1  0
 30 31  1  0
 30 32  1  0
 30 33  1  0
V    7 *
A    2
 C57
A    3
 N49
A    4
 C63
A    5
 C39
A    6
 C82
A    7
 X  
A    8
 C37
A    9
 O47
A   10
 C84
A   11
 N33
A   12
 C41
A   13
 O86
A   14
 O88
A   15
 C31
A   16
 C51
A   17
 C3 
A   19
 O35
A   20
 C53
A   21
 C55
A   22
 C5 
A   23
 C25
A   24
 C7 
A   25
 C11
A   26
 C14
A   27
 C9 
A   28
 O1 
A   29
 O2 
A   30
 C29
A   31
 C12
A   32
 C43
A   33
 C45
M  END
>  <XChem_code>  (302) 
G83§1

>  <Occupancy>  (302) 
[1.0, 1.0, 1.0, 1.0, 1.0, 1.0, 1.0, 1.0, 1.0, 1.0, 1.0, 1.0, 1.0, 1.0, 1.0, 1.0, 1.0, 1.0, 1.0, 1.0, 1.0, 1.0, 1.0, 1.0, 1.0, 1.0, 1.0, 1.0, 1.0, 1.0, 1.0, 1.0, 1.0, 1.0, 1.0, 1.0, 1.0, 1.0, 1.0, 1.0, 1.0, 1.0, 1.0, 1.0, 1.0, 1.0, 1.0, 1.0, 1.0, 1.0]

>  <TempFactor>  (302) 
[21.5, 44.89, 24.36, 42.16, 38.25, 23.95, 40.64, 20.41, 29.29, 22.5, 27.31, 23.15, 28.56, 41.84, 29.6, 38.53, 33.37, 31.58, 30.86, 27.88, 28.97, 31.52, 43.05, 27.66, 27.42, 21.95, 25.67, 24.02, 25.01, 43.36, 43.87, 19.31, 17.05, 26.62, 26.73, 28.95, 20.4, 17.34, 20.74, 21.57, 21.69, 20.06, 20.47, 18.67, 21.64, 27.5, 29.51, 35.17, 31.37, 18.86]

>  <accession>  (302) 
3ZZC_A

>  <description>  (302) 
Chain A, 3C PROTEINASE [Coxsackievirus B3]

>  <evalue>  (302) 
7.4865399999999999e-87

>  <pdb_code>  (302) 
3ZZC

>  <chain>  (302) 
A

>  <ligands>  (302) 
[{'chain_id': 'A', 'author_residue_number': 1181, 'author_insertion_code': '', 'chem_comp_id': 'G83', 'alternate_conformers': 0, 'entity_id': 2, 'struct_asym_id': 'B', 'residue_number': 1, 'chem_comp_name': 'ETHYL (5S,8S,11R)-8-BENZYL-5-(2-TERT-BUTOXY-2-OXOETHYL)-3,6,9-TRIOXO-11-{[(3S)-2-OXOPYRROLIDIN-3-YL]METHYL}-1-PHENYL-2-OXA-4,7,10-TRIAZATETRADECAN-14-OATE', 'weight': 680.788, 'carbohydrate_polymer': False, 'branch_name': ''}]

>  <ligand_codes>  (302) 
['G83']

>  <cofactor_codes>  (302) 
[]

>  <has_cofactor>  (302) 
False

>  <covalent>  (302) 
True

>  <base_name>  (302) 
3ZZC

>  <lig_resn>  (302) 
G83

>  <lig_resi>  (302) 
1181

>  <lig_chain>  (302) 
A

>  <lig_segi>  (302) 
B

>  <lig_alt>  (302) 


>  <polymer_chain>  (302) 
A

>  <single_smiles>  (302) 
CCOC(=O)CC[C@H](C[C@@H]1CCNC1=O)NC(=O)[C@H](Cc2ccccc2)NC(=O)[C@H](CC(=O)OC(C)(C)C)NC(=O)OCc3ccccc3

$$$$
G83P1S144
     RDKit          3D

 33 33  0  0  0  0  0  0  0  0999 V2000
   -9.8940   12.8970  -36.5940 C   0  0  0  0  0  0  0  0  0  0  0  0
   -9.6510   12.9770  -35.0820 C   0  0  2  0  0  0  0  0  0  0  0  0
   -9.2610   14.3500  -34.7310 N   0  0  0  0  0  0  0  0  0  0  0  0
   -8.4620   12.0930  -34.7840 C   0  0  0  0  0  0  0  0  0  0  0  0
   -9.0700   14.7310  -33.4520 C   0  0  0  0  0  0  0  0  0  0  0  0
   -7.3180   12.4750  -35.0590 O   0  0  0  0  0  0  0  0  0  0  0  0
   -8.7450   10.9170  -34.2200 N   0  0  0  0  0  0  0  0  0  0  0  0
   -8.5890   16.1350  -33.2460 C   0  0  0  0  0  0  0  0  0  0  0  0
   -9.1660   13.9920  -32.4630 O   0  0  0  0  0  0  0  0  0  0  0  0
   -7.7310    9.9410  -33.8290 C   0  0  1  0  0  0  0  0  0  0  0  0
   -7.0940   15.9700  -33.0860 C   0  0  0  0  0  0  0  0  0  0  0  0
   -7.6750    9.9230  -32.2970 C   0  0  0  0  0  0  0  0  0  0  0  0
   -8.1830    8.5770  -34.4040 C   0  0  2  0  0  0  0  0  0  0  0  0
   -6.3360   17.1850  -33.4620 C   0  0  0  0  0  0  0  0  0  0  0  0
   -7.2530   11.2580  -31.6380 C   0  0  1  0  0  0  0  0  0  0  0  0
   -8.1980    8.6230  -35.9360 C   0  0  0  0  0  0  0  0  0  0  0  0
   -9.8310    8.1200  -33.8380 R   0  0  0  0  0  0  0  0  0  0  0  0
   -6.4670   17.7660  -34.5460 O   0  0  0  0  0  0  0  0  0  0  0  0
   -5.3760   17.6500  -32.4930 O   0  0  0  0  0  0  0  0  0  0  0  0
   -7.1040   11.1020  -30.1450 C   0  0  0  0  0  0  0  0  0  0  0  0
   -5.9010   11.8850  -31.9840 C   0  0  0  0  0  0  0  0  0  0  0  0
   -6.8090    8.9220  -36.4600 C   0  0  0  0  0  0  0  0  0  0  0  0
   -4.0330   17.1570  -32.4230 C   0  0  0  0  0  0  0  0  0  0  0  0
   -7.8010   10.3100  -29.5070 O   0  0  0  0  0  0  0  0  0  0  0  0
   -6.2280   11.9150  -29.7100 N   0  0  0  0  0  0  0  0  0  0  0  0
   -5.4330   12.6240  -30.7080 C   0  0  0  0  0  0  0  0  0  0  0  0
   -6.6580    9.7290  -37.6550 O   0  0  0  0  0  0  0  0  0  0  0  0
   -5.8080    8.4980  -35.8980 O   0  0  0  0  0  0  0  0  0  0  0  0
   -3.6770   16.1600  -33.5370 C   0  0  0  0  0  0  0  0  0  0  0  0
   -3.9520   16.4650  -31.0680 C   0  0  0  0  0  0  0  0  0  0  0  0
   -3.0820   18.3540  -32.5240 C   0  0  0  0  0  0  0  0  0  0  0  0
   -5.3610   10.2030  -38.0740 C   0  0  0  0  0  0  0  0  0  0  0  0
   -4.5750    9.1110  -38.7950 C   0  0  0  0  0  0  0  0  0  0  0  0
  2  1  1  6
  3  2  1  0
  2  4  1  0
  5  3  1  0
  4  6  2  0
  4  7  1  0
  8  5  1  0
  5  9  2  0
  7 10  1  0
  8 11  1  6
 10 12  1  1
 10 13  1  0
 14 11  1  0
 15 12  1  6
 13 16  1  0
 13 17  1  1
 18 14  2  0
 19 14  1  0
 15 20  1  0
 15 21  1  0
 16 22  1  0
 19 23  1  0
 20 24  2  0
 20 25  1  0
 26 21  1  0
 22 27  1  0
 22 28  2  0
 23 29  1  0
 23 30  1  0
 23 31  1  0
 25 26  1  0
 32 27  1  0
 32 33  1  0
V   17 *
A    2
 C37
A    3
 N33
A    4
 C39
A    5
 C31
A    6
 O47
A    7
 N49
A    9
 O35
A   10
 C57
A   11
 C25
A   12
 C59
A   13
 C63
A   14
 C14
A   15
 C61
A   16
 C82
A   17
 X  
A   18
 O1 
A   19
 O2 
A   20
 C65
A   21
 C73
A   22
 C84
A   23
 C29
A   24
 O66
A   25
 N69
A   26
 C71
A   27
 O86
A   28
 O88
A   29
 C12
A   30
 C43
A   31
 C45
A   32
 C3 
A   33
 C5 
M  END
>  <XChem_code>  (303) 
G83§1

>  <Occupancy>  (303) 
[1.0, 1.0, 1.0, 1.0, 1.0, 1.0, 1.0, 1.0, 1.0, 1.0, 1.0, 1.0, 1.0, 1.0, 1.0, 1.0, 1.0, 1.0, 1.0, 1.0, 1.0, 1.0, 1.0, 1.0, 1.0, 1.0, 1.0, 1.0, 1.0, 1.0, 1.0, 1.0, 1.0, 1.0, 1.0, 1.0, 1.0, 1.0, 1.0, 1.0, 1.0, 1.0, 1.0, 1.0, 1.0, 1.0, 1.0, 1.0, 1.0, 1.0]

>  <TempFactor>  (303) 
[21.5, 44.89, 24.36, 42.16, 38.25, 23.95, 40.64, 20.41, 29.29, 22.5, 27.31, 23.15, 28.56, 41.84, 29.6, 38.53, 33.37, 31.58, 30.86, 27.88, 28.97, 31.52, 43.05, 27.66, 27.42, 21.95, 25.67, 24.02, 25.01, 43.36, 43.87, 19.31, 17.05, 26.62, 26.73, 28.95, 20.4, 17.34, 20.74, 21.57, 21.69, 20.06, 20.47, 18.67, 21.64, 27.5, 29.51, 35.17, 31.37, 18.86]

>  <accession>  (303) 
3ZZC_A

>  <description>  (303) 
Chain A, 3C PROTEINASE [Coxsackievirus B3]

>  <evalue>  (303) 
7.4865399999999999e-87

>  <pdb_code>  (303) 
3ZZC

>  <chain>  (303) 
A

>  <ligands>  (303) 
[{'chain_id': 'A', 'author_residue_number': 1181, 'author_insertion_code': '', 'chem_comp_id': 'G83', 'alternate_conformers': 0, 'entity_id': 2, 'struct_asym_id': 'B', 'residue_number': 1, 'chem_comp_name': 'ETHYL (5S,8S,11R)-8-BENZYL-5-(2-TERT-BUTOXY-2-OXOETHYL)-3,6,9-TRIOXO-11-{[(3S)-2-OXOPYRROLIDIN-3-YL]METHYL}-1-PHENYL-2-OXA-4,7,10-TRIAZATETRADECAN-14-OATE', 'weight': 680.788, 'carbohydrate_polymer': False, 'branch_name': ''}]

>  <ligand_codes>  (303) 
['G83']

>  <cofactor_codes>  (303) 
[]

>  <has_cofactor>  (303) 
False

>  <covalent>  (303) 
True

>  <base_name>  (303) 
3ZZC

>  <lig_resn>  (303) 
G83

>  <lig_resi>  (303) 
1181

>  <lig_chain>  (303) 
A

>  <lig_segi>  (303) 
B

>  <lig_alt>  (303) 


>  <polymer_chain>  (303) 
A

>  <single_smiles>  (303) 
CCOC(=O)CC[C@H](C[C@@H]1CCNC1=O)NC(=O)[C@H](Cc2ccccc2)NC(=O)[C@H](CC(=O)OC(C)(C)C)NC(=O)OCc3ccccc3

$$$$
G83P1S145
     RDKit          3D

 17 16  0  0  0  0  0  0  0  0999 V2000
  -10.3020   19.6950  -30.3210 C   0  0  0  0  0  0  0  0  0  0  0  0
   -9.9650   18.3270  -30.5810 O   0  0  0  0  0  0  0  0  0  0  0  0
   -9.6140   17.8180  -31.9050 C   0  0  0  0  0  0  0  0  0  0  0  0
   -8.9270   16.6710  -31.9560 N   0  0  0  0  0  0  0  0  0  0  0  0
   -9.9760   18.4340  -32.9180 O   0  0  0  0  0  0  0  0  0  0  0  0
   -8.5890   16.1350  -33.2460 C   0  0  2  0  0  0  0  0  0  0  0  0
   -9.0700   14.7310  -33.4520 C   0  0  0  0  0  0  0  0  0  0  0  0
   -7.0940   15.9700  -33.0860 C   0  0  0  0  0  0  0  0  0  0  0  0
   -9.2610   14.3500  -34.7310 N   0  0  0  0  0  0  0  0  0  0  0  0
   -9.1660   13.9920  -32.4630 O   0  0  0  0  0  0  0  0  0  0  0  0
   -6.3360   17.1850  -33.4620 C   0  0  0  0  0  0  0  0  0  0  0  0
   -6.4670   17.7660  -34.5460 O   0  0  0  0  0  0  0  0  0  0  0  0
   -5.3760   17.6500  -32.4930 O   0  0  0  0  0  0  0  0  0  0  0  0
   -4.0330   17.1570  -32.4230 C   0  0  0  0  0  0  0  0  0  0  0  0
   -3.6770   16.1600  -33.5370 C   0  0  0  0  0  0  0  0  0  0  0  0
   -3.9520   16.4650  -31.0680 C   0  0  0  0  0  0  0  0  0  0  0  0
   -3.0820   18.3540  -32.5240 C   0  0  0  0  0  0  0  0  0  0  0  0
  1  2  1  0
  2  3  1  0
  3  4  1  0
  3  5  2  0
  4  6  1  0
  6  7  1  0
  6  8  1  1
  7  9  1  0
  7 10  2  0
 11  8  1  0
 12 11  2  0
 13 11  1  0
 13 14  1  0
 14 15  1  0
 14 16  1  0
 14 17  1  0
A    2
 O15
A    3
 C17
A    4
 N21
A    5
 O19
A    6
 C23
A    7
 C31
A    8
 C25
A   10
 O35
A   11
 C14
A   12
 O1 
A   13
 O2 
A   14
 C29
A   15
 C12
A   16
 C43
A   17
 C45
M  END
>  <XChem_code>  (304) 
G83§1

>  <Occupancy>  (304) 
[1.0, 1.0, 1.0, 1.0, 1.0, 1.0, 1.0, 1.0, 1.0, 1.0, 1.0, 1.0, 1.0, 1.0, 1.0, 1.0, 1.0, 1.0, 1.0, 1.0, 1.0, 1.0, 1.0, 1.0, 1.0, 1.0, 1.0, 1.0, 1.0, 1.0, 1.0, 1.0, 1.0, 1.0, 1.0, 1.0, 1.0, 1.0, 1.0, 1.0, 1.0, 1.0, 1.0, 1.0, 1.0, 1.0, 1.0, 1.0, 1.0, 1.0]

>  <TempFactor>  (304) 
[21.5, 44.89, 24.36, 42.16, 38.25, 23.95, 40.64, 20.41, 29.29, 22.5, 27.31, 23.15, 28.56, 41.84, 29.6, 38.53, 33.37, 31.58, 30.86, 27.88, 28.97, 31.52, 43.05, 27.66, 27.42, 21.95, 25.67, 24.02, 25.01, 43.36, 43.87, 19.31, 17.05, 26.62, 26.73, 28.95, 20.4, 17.34, 20.74, 21.57, 21.69, 20.06, 20.47, 18.67, 21.64, 27.5, 29.51, 35.17, 31.37, 18.86]

>  <accession>  (304) 
3ZZC_A

>  <description>  (304) 
Chain A, 3C PROTEINASE [Coxsackievirus B3]

>  <evalue>  (304) 
7.4865399999999999e-87

>  <pdb_code>  (304) 
3ZZC

>  <chain>  (304) 
A

>  <ligands>  (304) 
[{'chain_id': 'A', 'author_residue_number': 1181, 'author_insertion_code': '', 'chem_comp_id': 'G83', 'alternate_conformers': 0, 'entity_id': 2, 'struct_asym_id': 'B', 'residue_number': 1, 'chem_comp_name': 'ETHYL (5S,8S,11R)-8-BENZYL-5-(2-TERT-BUTOXY-2-OXOETHYL)-3,6,9-TRIOXO-11-{[(3S)-2-OXOPYRROLIDIN-3-YL]METHYL}-1-PHENYL-2-OXA-4,7,10-TRIAZATETRADECAN-14-OATE', 'weight': 680.788, 'carbohydrate_polymer': False, 'branch_name': ''}]

>  <ligand_codes>  (304) 
['G83']

>  <cofactor_codes>  (304) 
[]

>  <has_cofactor>  (304) 
False

>  <covalent>  (304) 
True

>  <base_name>  (304) 
3ZZC

>  <lig_resn>  (304) 
G83

>  <lig_resi>  (304) 
1181

>  <lig_chain>  (304) 
A

>  <lig_segi>  (304) 
B

>  <lig_alt>  (304) 


>  <polymer_chain>  (304) 
A

>  <single_smiles>  (304) 
CCOC(=O)CC[C@H](C[C@@H]1CCNC1=O)NC(=O)[C@H](Cc2ccccc2)NC(=O)[C@H](CC(=O)OC(C)(C)C)NC(=O)OCc3ccccc3

$$$$
G83P1S146
     RDKit          3D

 21 21  0  0  0  0  0  0  0  0999 V2000
   -7.6750    9.9230  -32.2970 C   0  0  0  0  0  0  0  0  0  0  0  0
   -7.7310    9.9410  -33.8290 C   0  0  2  0  0  0  0  0  0  0  0  0
   -8.7450   10.9170  -34.2200 N   0  0  0  0  0  0  0  0  0  0  0  0
   -8.1830    8.5770  -34.4040 C   0  0  2  0  0  0  0  0  0  0  0  0
   -8.4620   12.0930  -34.7840 C   0  0  0  0  0  0  0  0  0  0  0  0
   -8.1980    8.6230  -35.9360 C   0  0  0  0  0  0  0  0  0  0  0  0
   -9.8310    8.1200  -33.8380 R   0  0  0  0  0  0  0  0  0  0  0  0
   -9.6510   12.9770  -35.0820 C   0  0  0  0  0  0  0  0  0  0  0  0
   -7.3180   12.4750  -35.0590 O   0  0  0  0  0  0  0  0  0  0  0  0
   -6.8090    8.9220  -36.4600 C   0  0  0  0  0  0  0  0  0  0  0  0
   -9.8940   12.8970  -36.5940 C   0  0  0  0  0  0  0  0  0  0  0  0
   -6.6580    9.7290  -37.6550 O   0  0  0  0  0  0  0  0  0  0  0  0
   -5.8080    8.4980  -35.8980 O   0  0  0  0  0  0  0  0  0  0  0  0
  -11.1210   13.7000  -36.9770 C   0  0  0  0  0  0  0  0  0  0  0  0
   -5.3610   10.2030  -38.0740 C   0  0  0  0  0  0  0  0  0  0  0  0
  -12.3400   13.5180  -36.3250 C   0  0  0  0  0  0  0  0  0  0  0  0
  -11.0320   14.6580  -38.0030 C   0  0  0  0  0  0  0  0  0  0  0  0
   -4.5750    9.1110  -38.7950 C   0  0  0  0  0  0  0  0  0  0  0  0
  -13.4670   14.3010  -36.6620 C   0  0  0  0  0  0  0  0  0  0  0  0
  -12.1840   15.4150  -38.3560 C   0  0  0  0  0  0  0  0  0  0  0  0
  -13.4100   15.2640  -37.6860 C   0  0  0  0  0  0  0  0  0  0  0  0
  2  1  1  1
  3  2  1  0
  2  4  1  0
  5  3  1  0
  4  6  1  0
  4  7  1  1
  8  5  1  0
  5  9  2  0
  6 10  1  0
  8 11  1  6
 10 12  1  0
 10 13  2  0
 11 14  1  0
 15 12  1  0
 14 16  2  0
 14 17  1  0
 15 18  1  0
 19 16  1  0
 20 17  2  0
 19 21  2  0
 21 20  1  0
V    7 *
A    2
 C57
A    3
 N49
A    4
 C63
A    5
 C39
A    6
 C82
A    7
 X  
A    9
 O47
A   10
 C84
A   11
 C41
A   12
 O86
A   13
 O88
A   14
 C51
A   15
 C3 
A   16
 C53
A   17
 C55
A   18
 C5 
A   19
 C7 
A   20
 C11
A   21
 C9 
M  END
>  <XChem_code>  (305) 
G83§1

>  <Occupancy>  (305) 
[1.0, 1.0, 1.0, 1.0, 1.0, 1.0, 1.0, 1.0, 1.0, 1.0, 1.0, 1.0, 1.0, 1.0, 1.0, 1.0, 1.0, 1.0, 1.0, 1.0, 1.0, 1.0, 1.0, 1.0, 1.0, 1.0, 1.0, 1.0, 1.0, 1.0, 1.0, 1.0, 1.0, 1.0, 1.0, 1.0, 1.0, 1.0, 1.0, 1.0, 1.0, 1.0, 1.0, 1.0, 1.0, 1.0, 1.0, 1.0, 1.0, 1.0]

>  <TempFactor>  (305) 
[21.5, 44.89, 24.36, 42.16, 38.25, 23.95, 40.64, 20.41, 29.29, 22.5, 27.31, 23.15, 28.56, 41.84, 29.6, 38.53, 33.37, 31.58, 30.86, 27.88, 28.97, 31.52, 43.05, 27.66, 27.42, 21.95, 25.67, 24.02, 25.01, 43.36, 43.87, 19.31, 17.05, 26.62, 26.73, 28.95, 20.4, 17.34, 20.74, 21.57, 21.69, 20.06, 20.47, 18.67, 21.64, 27.5, 29.51, 35.17, 31.37, 18.86]

>  <accession>  (305) 
3ZZC_A

>  <description>  (305) 
Chain A, 3C PROTEINASE [Coxsackievirus B3]

>  <evalue>  (305) 
7.4865399999999999e-87

>  <pdb_code>  (305) 
3ZZC

>  <chain>  (305) 
A

>  <ligands>  (305) 
[{'chain_id': 'A', 'author_residue_number': 1181, 'author_insertion_code': '', 'chem_comp_id': 'G83', 'alternate_conformers': 0, 'entity_id': 2, 'struct_asym_id': 'B', 'residue_number': 1, 'chem_comp_name': 'ETHYL (5S,8S,11R)-8-BENZYL-5-(2-TERT-BUTOXY-2-OXOETHYL)-3,6,9-TRIOXO-11-{[(3S)-2-OXOPYRROLIDIN-3-YL]METHYL}-1-PHENYL-2-OXA-4,7,10-TRIAZATETRADECAN-14-OATE', 'weight': 680.788, 'carbohydrate_polymer': False, 'branch_name': ''}]

>  <ligand_codes>  (305) 
['G83']

>  <cofactor_codes>  (305) 
[]

>  <has_cofactor>  (305) 
False

>  <covalent>  (305) 
True

>  <base_name>  (305) 
3ZZC

>  <lig_resn>  (305) 
G83

>  <lig_resi>  (305) 
1181

>  <lig_chain>  (305) 
A

>  <lig_segi>  (305) 
B

>  <lig_alt>  (305) 


>  <polymer_chain>  (305) 
A

>  <single_smiles>  (305) 
CCOC(=O)CC[C@H](C[C@@H]1CCNC1=O)NC(=O)[C@H](Cc2ccccc2)NC(=O)[C@H](CC(=O)OC(C)(C)C)NC(=O)OCc3ccccc3

$$$$
G83P1S147
     RDKit          3D

 21 21  0  0  0  0  0  0  0  0999 V2000
   -9.8940   12.8970  -36.5940 C   0  0  0  0  0  0  0  0  0  0  0  0
   -9.6510   12.9770  -35.0820 C   0  0  0  0  0  0  0  0  0  0  0  0
   -8.4620   12.0930  -34.7840 C   0  0  0  0  0  0  0  0  0  0  0  0
   -7.3180   12.4750  -35.0590 O   0  0  0  0  0  0  0  0  0  0  0  0
   -8.7450   10.9170  -34.2200 N   0  0  0  0  0  0  0  0  0  0  0  0
   -7.7310    9.9410  -33.8290 C   0  0  1  0  0  0  0  0  0  0  0  0
   -7.6750    9.9230  -32.2970 C   0  0  0  0  0  0  0  0  0  0  0  0
   -8.1830    8.5770  -34.4040 C   0  0  2  0  0  0  0  0  0  0  0  0
   -7.2530   11.2580  -31.6380 C   0  0  1  0  0  0  0  0  0  0  0  0
   -8.1980    8.6230  -35.9360 C   0  0  0  0  0  0  0  0  0  0  0  0
   -9.8310    8.1200  -33.8380 R   0  0  0  0  0  0  0  0  0  0  0  0
   -7.1040   11.1020  -30.1450 C   0  0  0  0  0  0  0  0  0  0  0  0
   -5.9010   11.8850  -31.9840 C   0  0  0  0  0  0  0  0  0  0  0  0
   -6.8090    8.9220  -36.4600 C   0  0  0  0  0  0  0  0  0  0  0  0
   -7.8010   10.3100  -29.5070 O   0  0  0  0  0  0  0  0  0  0  0  0
   -6.2280   11.9150  -29.7100 N   0  0  0  0  0  0  0  0  0  0  0  0
   -5.4330   12.6240  -30.7080 C   0  0  0  0  0  0  0  0  0  0  0  0
   -6.6580    9.7290  -37.6550 O   0  0  0  0  0  0  0  0  0  0  0  0
   -5.8080    8.4980  -35.8980 O   0  0  0  0  0  0  0  0  0  0  0  0
   -5.3610   10.2030  -38.0740 C   0  0  0  0  0  0  0  0  0  0  0  0
   -4.5750    9.1110  -38.7950 C   0  0  0  0  0  0  0  0  0  0  0  0
  2  1  1  6
  2  3  1  0
  3  4  2  0
  3  5  1  0
  5  6  1  0
  6  7  1  1
  6  8  1  0
  9  7  1  6
  8 10  1  0
  8 11  1  1
  9 12  1  0
  9 13  1  0
 10 14  1  0
 12 15  2  0
 12 16  1  0
 17 13  1  0
 14 18  1  0
 14 19  2  0
 16 17  1  0
 20 18  1  0
 20 21  1  0
V   11 *
A    3
 C39
A    4
 O47
A    5
 N49
A    6
 C57
A    7
 C59
A    8
 C63
A    9
 C61
A   10
 C82
A   11
 X  
A   12
 C65
A   13
 C73
A   14
 C84
A   15
 O66
A   16
 N69
A   17
 C71
A   18
 O86
A   19
 O88
A   20
 C3 
A   21
 C5 
M  END
>  <XChem_code>  (306) 
G83§1

>  <Occupancy>  (306) 
[1.0, 1.0, 1.0, 1.0, 1.0, 1.0, 1.0, 1.0, 1.0, 1.0, 1.0, 1.0, 1.0, 1.0, 1.0, 1.0, 1.0, 1.0, 1.0, 1.0, 1.0, 1.0, 1.0, 1.0, 1.0, 1.0, 1.0, 1.0, 1.0, 1.0, 1.0, 1.0, 1.0, 1.0, 1.0, 1.0, 1.0, 1.0, 1.0, 1.0, 1.0, 1.0, 1.0, 1.0, 1.0, 1.0, 1.0, 1.0, 1.0, 1.0]

>  <TempFactor>  (306) 
[21.5, 44.89, 24.36, 42.16, 38.25, 23.95, 40.64, 20.41, 29.29, 22.5, 27.31, 23.15, 28.56, 41.84, 29.6, 38.53, 33.37, 31.58, 30.86, 27.88, 28.97, 31.52, 43.05, 27.66, 27.42, 21.95, 25.67, 24.02, 25.01, 43.36, 43.87, 19.31, 17.05, 26.62, 26.73, 28.95, 20.4, 17.34, 20.74, 21.57, 21.69, 20.06, 20.47, 18.67, 21.64, 27.5, 29.51, 35.17, 31.37, 18.86]

>  <accession>  (306) 
3ZZC_A

>  <description>  (306) 
Chain A, 3C PROTEINASE [Coxsackievirus B3]

>  <evalue>  (306) 
7.4865399999999999e-87

>  <pdb_code>  (306) 
3ZZC

>  <chain>  (306) 
A

>  <ligands>  (306) 
[{'chain_id': 'A', 'author_residue_number': 1181, 'author_insertion_code': '', 'chem_comp_id': 'G83', 'alternate_conformers': 0, 'entity_id': 2, 'struct_asym_id': 'B', 'residue_number': 1, 'chem_comp_name': 'ETHYL (5S,8S,11R)-8-BENZYL-5-(2-TERT-BUTOXY-2-OXOETHYL)-3,6,9-TRIOXO-11-{[(3S)-2-OXOPYRROLIDIN-3-YL]METHYL}-1-PHENYL-2-OXA-4,7,10-TRIAZATETRADECAN-14-OATE', 'weight': 680.788, 'carbohydrate_polymer': False, 'branch_name': ''}]

>  <ligand_codes>  (306) 
['G83']

>  <cofactor_codes>  (306) 
[]

>  <has_cofactor>  (306) 
False

>  <covalent>  (306) 
True

>  <base_name>  (306) 
3ZZC

>  <lig_resn>  (306) 
G83

>  <lig_resi>  (306) 
1181

>  <lig_chain>  (306) 
A

>  <lig_segi>  (306) 
B

>  <lig_alt>  (306) 


>  <polymer_chain>  (306) 
A

>  <single_smiles>  (306) 
CCOC(=O)CC[C@H](C[C@@H]1CCNC1=O)NC(=O)[C@H](Cc2ccccc2)NC(=O)[C@H](CC(=O)OC(C)(C)C)NC(=O)OCc3ccccc3

$$$$
G83P1S148
     RDKit          3D

 10  9  0  0  0  0  0  0  0  0999 V2000
   -7.6750    9.9230  -32.2970 C   0  0  0  0  0  0  0  0  0  0  0  0
   -7.7310    9.9410  -33.8290 C   0  0  0  0  0  0  0  0  0  0  0  0
   -8.1830    8.5770  -34.4040 C   0  0  2  0  0  0  0  0  0  0  0  0
   -8.1980    8.6230  -35.9360 C   0  0  0  0  0  0  0  0  0  0  0  0
   -9.8310    8.1200  -33.8380 R   0  0  0  0  0  0  0  0  0  0  0  0
   -6.8090    8.9220  -36.4600 C   0  0  0  0  0  0  0  0  0  0  0  0
   -6.6580    9.7290  -37.6550 O   0  0  0  0  0  0  0  0  0  0  0  0
   -5.8080    8.4980  -35.8980 O   0  0  0  0  0  0  0  0  0  0  0  0
   -5.3610   10.2030  -38.0740 C   0  0  0  0  0  0  0  0  0  0  0  0
   -4.5750    9.1110  -38.7950 C   0  0  0  0  0  0  0  0  0  0  0  0
  2  1  1  6
  2  3  1  0
  3  4  1  0
  3  5  1  1
  4  6  1  0
  6  7  1  0
  6  8  2  0
  9  7  1  0
  9 10  1  0
V    5 *
A    3
 C63
A    4
 C82
A    5
 X  
A    6
 C84
A    7
 O86
A    8
 O88
A    9
 C3 
A   10
 C5 
M  END
>  <XChem_code>  (307) 
G83§1

>  <Occupancy>  (307) 
[1.0, 1.0, 1.0, 1.0, 1.0, 1.0, 1.0, 1.0, 1.0, 1.0, 1.0, 1.0, 1.0, 1.0, 1.0, 1.0, 1.0, 1.0, 1.0, 1.0, 1.0, 1.0, 1.0, 1.0, 1.0, 1.0, 1.0, 1.0, 1.0, 1.0, 1.0, 1.0, 1.0, 1.0, 1.0, 1.0, 1.0, 1.0, 1.0, 1.0, 1.0, 1.0, 1.0, 1.0, 1.0, 1.0, 1.0, 1.0, 1.0, 1.0]

>  <TempFactor>  (307) 
[21.5, 44.89, 24.36, 42.16, 38.25, 23.95, 40.64, 20.41, 29.29, 22.5, 27.31, 23.15, 28.56, 41.84, 29.6, 38.53, 33.37, 31.58, 30.86, 27.88, 28.97, 31.52, 43.05, 27.66, 27.42, 21.95, 25.67, 24.02, 25.01, 43.36, 43.87, 19.31, 17.05, 26.62, 26.73, 28.95, 20.4, 17.34, 20.74, 21.57, 21.69, 20.06, 20.47, 18.67, 21.64, 27.5, 29.51, 35.17, 31.37, 18.86]

>  <accession>  (307) 
3ZZC_A

>  <description>  (307) 
Chain A, 3C PROTEINASE [Coxsackievirus B3]

>  <evalue>  (307) 
7.4865399999999999e-87

>  <pdb_code>  (307) 
3ZZC

>  <chain>  (307) 
A

>  <ligands>  (307) 
[{'chain_id': 'A', 'author_residue_number': 1181, 'author_insertion_code': '', 'chem_comp_id': 'G83', 'alternate_conformers': 0, 'entity_id': 2, 'struct_asym_id': 'B', 'residue_number': 1, 'chem_comp_name': 'ETHYL (5S,8S,11R)-8-BENZYL-5-(2-TERT-BUTOXY-2-OXOETHYL)-3,6,9-TRIOXO-11-{[(3S)-2-OXOPYRROLIDIN-3-YL]METHYL}-1-PHENYL-2-OXA-4,7,10-TRIAZATETRADECAN-14-OATE', 'weight': 680.788, 'carbohydrate_polymer': False, 'branch_name': ''}]

>  <ligand_codes>  (307) 
['G83']

>  <cofactor_codes>  (307) 
[]

>  <has_cofactor>  (307) 
False

>  <covalent>  (307) 
True

>  <base_name>  (307) 
3ZZC

>  <lig_resn>  (307) 
G83

>  <lig_resi>  (307) 
1181

>  <lig_chain>  (307) 
A

>  <lig_segi>  (307) 
B

>  <lig_alt>  (307) 


>  <polymer_chain>  (307) 
A

>  <single_smiles>  (307) 
CCOC(=O)CC[C@H](C[C@@H]1CCNC1=O)NC(=O)[C@H](Cc2ccccc2)NC(=O)[C@H](CC(=O)OC(C)(C)C)NC(=O)OCc3ccccc3

$$$$
G83P1S149
     RDKit          3D

 28 28  0  0  0  0  0  0  0  0999 V2000
   -9.8940   12.8970  -36.5940 C   0  0  0  0  0  0  0  0  0  0  0  0
   -9.6510   12.9770  -35.0820 C   0  0  1  0  0  0  0  0  0  0  0  0
   -8.4620   12.0930  -34.7840 C   0  0  0  0  0  0  0  0  0  0  0  0
   -9.2610   14.3500  -34.7310 N   0  0  0  0  0  0  0  0  0  0  0  0
   -8.7450   10.9170  -34.2200 N   0  0  0  0  0  0  0  0  0  0  0  0
   -7.3180   12.4750  -35.0590 O   0  0  0  0  0  0  0  0  0  0  0  0
   -9.0700   14.7310  -33.4520 C   0  0  0  0  0  0  0  0  0  0  0  0
   -8.5890   16.1350  -33.2460 C   0  0  1  0  0  0  0  0  0  0  0  0
   -9.1660   13.9920  -32.4630 O   0  0  0  0  0  0  0  0  0  0  0  0
   -8.9270   16.6710  -31.9560 N   0  0  0  0  0  0  0  0  0  0  0  0
   -7.0940   15.9700  -33.0860 C   0  0  0  0  0  0  0  0  0  0  0  0
   -9.6140   17.8180  -31.9050 C   0  0  0  0  0  0  0  0  0  0  0  0
   -6.3360   17.1850  -33.4620 C   0  0  0  0  0  0  0  0  0  0  0  0
   -9.9650   18.3270  -30.5810 O   0  0  0  0  0  0  0  0  0  0  0  0
   -9.9760   18.4340  -32.9180 O   0  0  0  0  0  0  0  0  0  0  0  0
   -6.4670   17.7660  -34.5460 O   0  0  0  0  0  0  0  0  0  0  0  0
   -5.3760   17.6500  -32.4930 O   0  0  0  0  0  0  0  0  0  0  0  0
  -10.3020   19.6950  -30.3210 C   0  0  0  0  0  0  0  0  0  0  0  0
   -4.0330   17.1570  -32.4230 C   0  0  0  0  0  0  0  0  0  0  0  0
  -10.4040   19.8340  -28.8340 C   0  0  0  0  0  0  0  0  0  0  0  0
   -3.6770   16.1600  -33.5370 C   0  0  0  0  0  0  0  0  0  0  0  0
   -3.9520   16.4650  -31.0680 C   0  0  0  0  0  0  0  0  0  0  0  0
   -3.0820   18.3540  -32.5240 C   0  0  0  0  0  0  0  0  0  0  0  0
   -9.6890   20.8420  -28.1960 C   0  0  0  0  0  0  0  0  0  0  0  0
  -11.1970   18.9310  -28.1220 C   0  0  0  0  0  0  0  0  0  0  0  0
   -9.7810   20.9510  -26.7880 C   0  0  0  0  0  0  0  0  0  0  0  0
  -11.3130   19.0390  -26.7440 C   0  0  0  0  0  0  0  0  0  0  0  0
  -10.5960   20.0640  -26.0750 C   0  0  0  0  0  0  0  0  0  0  0  0
  2  1  1  6
  2  3  1  0
  4  2  1  0
  3  5  1  0
  3  6  2  0
  7  4  1  0
  8  7  1  0
  7  9  2  0
 10  8  1  0
  8 11  1  1
 12 10  1  0
 13 11  1  0
 14 12  1  0
 12 15  2  0
 16 13  2  0
 17 13  1  0
 18 14  1  0
 17 19  1  0
 20 18  1  0
 19 21  1  0
 19 22  1  0
 19 23  1  0
 24 20  2  0
 20 25  1  0
 26 24  1  0
 25 27  2  0
 26 28  2  0
 27 28  1  0
A    2
 C37
A    3
 C39
A    4
 N33
A    6
 O47
A    7
 C31
A    8
 C23
A    9
 O35
A   10
 N21
A   11
 C25
A   12
 C17
A   13
 C14
A   14
 O15
A   15
 O19
A   16
 O1 
A   17
 O2 
A   18
 C13
A   19
 C29
A   20
 C4 
A   21
 C12
A   22
 C43
A   23
 C45
A   24
 C2 
A   25
 C6 
A   26
 C1 
A   27
 C8 
A   28
 C10
M  END
>  <XChem_code>  (308) 
G83§1

>  <Occupancy>  (308) 
[1.0, 1.0, 1.0, 1.0, 1.0, 1.0, 1.0, 1.0, 1.0, 1.0, 1.0, 1.0, 1.0, 1.0, 1.0, 1.0, 1.0, 1.0, 1.0, 1.0, 1.0, 1.0, 1.0, 1.0, 1.0, 1.0, 1.0, 1.0, 1.0, 1.0, 1.0, 1.0, 1.0, 1.0, 1.0, 1.0, 1.0, 1.0, 1.0, 1.0, 1.0, 1.0, 1.0, 1.0, 1.0, 1.0, 1.0, 1.0, 1.0, 1.0]

>  <TempFactor>  (308) 
[21.5, 44.89, 24.36, 42.16, 38.25, 23.95, 40.64, 20.41, 29.29, 22.5, 27.31, 23.15, 28.56, 41.84, 29.6, 38.53, 33.37, 31.58, 30.86, 27.88, 28.97, 31.52, 43.05, 27.66, 27.42, 21.95, 25.67, 24.02, 25.01, 43.36, 43.87, 19.31, 17.05, 26.62, 26.73, 28.95, 20.4, 17.34, 20.74, 21.57, 21.69, 20.06, 20.47, 18.67, 21.64, 27.5, 29.51, 35.17, 31.37, 18.86]

>  <accession>  (308) 
3ZZC_A

>  <description>  (308) 
Chain A, 3C PROTEINASE [Coxsackievirus B3]

>  <evalue>  (308) 
7.4865399999999999e-87

>  <pdb_code>  (308) 
3ZZC

>  <chain>  (308) 
A

>  <ligands>  (308) 
[{'chain_id': 'A', 'author_residue_number': 1181, 'author_insertion_code': '', 'chem_comp_id': 'G83', 'alternate_conformers': 0, 'entity_id': 2, 'struct_asym_id': 'B', 'residue_number': 1, 'chem_comp_name': 'ETHYL (5S,8S,11R)-8-BENZYL-5-(2-TERT-BUTOXY-2-OXOETHYL)-3,6,9-TRIOXO-11-{[(3S)-2-OXOPYRROLIDIN-3-YL]METHYL}-1-PHENYL-2-OXA-4,7,10-TRIAZATETRADECAN-14-OATE', 'weight': 680.788, 'carbohydrate_polymer': False, 'branch_name': ''}]

>  <ligand_codes>  (308) 
['G83']

>  <cofactor_codes>  (308) 
[]

>  <has_cofactor>  (308) 
False

>  <covalent>  (308) 
True

>  <base_name>  (308) 
3ZZC

>  <lig_resn>  (308) 
G83

>  <lig_resi>  (308) 
1181

>  <lig_chain>  (308) 
A

>  <lig_segi>  (308) 
B

>  <lig_alt>  (308) 


>  <polymer_chain>  (308) 
A

>  <single_smiles>  (308) 
CCOC(=O)CC[C@H](C[C@@H]1CCNC1=O)NC(=O)[C@H](Cc2ccccc2)NC(=O)[C@H](CC(=O)OC(C)(C)C)NC(=O)OCc3ccccc3

$$$$
G83P1S150
     RDKit          3D

 28 28  0  0  0  0  0  0  0  0999 V2000
  -10.3020   19.6950  -30.3210 C   0  0  0  0  0  0  0  0  0  0  0  0
   -9.9650   18.3270  -30.5810 O   0  0  0  0  0  0  0  0  0  0  0  0
   -9.6140   17.8180  -31.9050 C   0  0  0  0  0  0  0  0  0  0  0  0
   -8.9270   16.6710  -31.9560 N   0  0  0  0  0  0  0  0  0  0  0  0
   -9.9760   18.4340  -32.9180 O   0  0  0  0  0  0  0  0  0  0  0  0
   -8.5890   16.1350  -33.2460 C   0  0  2  0  0  0  0  0  0  0  0  0
   -9.0700   14.7310  -33.4520 C   0  0  0  0  0  0  0  0  0  0  0  0
   -7.0940   15.9700  -33.0860 C   0  0  0  0  0  0  0  0  0  0  0  0
   -9.2610   14.3500  -34.7310 N   0  0  0  0  0  0  0  0  0  0  0  0
   -9.1660   13.9920  -32.4630 O   0  0  0  0  0  0  0  0  0  0  0  0
   -6.3360   17.1850  -33.4620 C   0  0  0  0  0  0  0  0  0  0  0  0
   -9.6510   12.9770  -35.0820 C   0  0  2  0  0  0  0  0  0  0  0  0
   -6.4670   17.7660  -34.5460 O   0  0  0  0  0  0  0  0  0  0  0  0
   -5.3760   17.6500  -32.4930 O   0  0  0  0  0  0  0  0  0  0  0  0
   -8.4620   12.0930  -34.7840 C   0  0  0  0  0  0  0  0  0  0  0  0
   -9.8940   12.8970  -36.5940 C   0  0  0  0  0  0  0  0  0  0  0  0
   -4.0330   17.1570  -32.4230 C   0  0  0  0  0  0  0  0  0  0  0  0
   -8.7450   10.9170  -34.2200 N   0  0  0  0  0  0  0  0  0  0  0  0
   -7.3180   12.4750  -35.0590 O   0  0  0  0  0  0  0  0  0  0  0  0
  -11.1210   13.7000  -36.9770 C   0  0  0  0  0  0  0  0  0  0  0  0
   -3.6770   16.1600  -33.5370 C   0  0  0  0  0  0  0  0  0  0  0  0
   -3.9520   16.4650  -31.0680 C   0  0  0  0  0  0  0  0  0  0  0  0
   -3.0820   18.3540  -32.5240 C   0  0  0  0  0  0  0  0  0  0  0  0
  -12.3400   13.5180  -36.3250 C   0  0  0  0  0  0  0  0  0  0  0  0
  -11.0320   14.6580  -38.0030 C   0  0  0  0  0  0  0  0  0  0  0  0
  -13.4670   14.3010  -36.6620 C   0  0  0  0  0  0  0  0  0  0  0  0
  -12.1840   15.4150  -38.3560 C   0  0  0  0  0  0  0  0  0  0  0  0
  -13.4100   15.2640  -37.6860 C   0  0  0  0  0  0  0  0  0  0  0  0
  1  2  1  0
  2  3  1  0
  3  4  1  0
  3  5  2  0
  4  6  1  0
  6  7  1  0
  6  8  1  1
  7  9  1  0
  7 10  2  0
 11  8  1  0
  9 12  1  0
 13 11  2  0
 14 11  1  0
 12 15  1  0
 12 16  1  6
 14 17  1  0
 15 18  1  0
 15 19  2  0
 16 20  1  0
 17 21  1  0
 17 22  1  0
 17 23  1  0
 20 24  2  0
 20 25  1  0
 26 24  1  0
 27 25  2  0
 26 28  2  0
 28 27  1  0
A    2
 O15
A    3
 C17
A    4
 N21
A    5
 O19
A    6
 C23
A    7
 C31
A    8
 C25
A    9
 N33
A   10
 O35
A   11
 C14
A   12
 C37
A   13
 O1 
A   14
 O2 
A   15
 C39
A   16
 C41
A   17
 C29
A   19
 O47
A   20
 C51
A   21
 C12
A   22
 C43
A   23
 C45
A   24
 C53
A   25
 C55
A   26
 C7 
A   27
 C11
A   28
 C9 
M  END
>  <XChem_code>  (309) 
G83§1

>  <Occupancy>  (309) 
[1.0, 1.0, 1.0, 1.0, 1.0, 1.0, 1.0, 1.0, 1.0, 1.0, 1.0, 1.0, 1.0, 1.0, 1.0, 1.0, 1.0, 1.0, 1.0, 1.0, 1.0, 1.0, 1.0, 1.0, 1.0, 1.0, 1.0, 1.0, 1.0, 1.0, 1.0, 1.0, 1.0, 1.0, 1.0, 1.0, 1.0, 1.0, 1.0, 1.0, 1.0, 1.0, 1.0, 1.0, 1.0, 1.0, 1.0, 1.0, 1.0, 1.0]

>  <TempFactor>  (309) 
[21.5, 44.89, 24.36, 42.16, 38.25, 23.95, 40.64, 20.41, 29.29, 22.5, 27.31, 23.15, 28.56, 41.84, 29.6, 38.53, 33.37, 31.58, 30.86, 27.88, 28.97, 31.52, 43.05, 27.66, 27.42, 21.95, 25.67, 24.02, 25.01, 43.36, 43.87, 19.31, 17.05, 26.62, 26.73, 28.95, 20.4, 17.34, 20.74, 21.57, 21.69, 20.06, 20.47, 18.67, 21.64, 27.5, 29.51, 35.17, 31.37, 18.86]

>  <accession>  (309) 
3ZZC_A

>  <description>  (309) 
Chain A, 3C PROTEINASE [Coxsackievirus B3]

>  <evalue>  (309) 
7.4865399999999999e-87

>  <pdb_code>  (309) 
3ZZC

>  <chain>  (309) 
A

>  <ligands>  (309) 
[{'chain_id': 'A', 'author_residue_number': 1181, 'author_insertion_code': '', 'chem_comp_id': 'G83', 'alternate_conformers': 0, 'entity_id': 2, 'struct_asym_id': 'B', 'residue_number': 1, 'chem_comp_name': 'ETHYL (5S,8S,11R)-8-BENZYL-5-(2-TERT-BUTOXY-2-OXOETHYL)-3,6,9-TRIOXO-11-{[(3S)-2-OXOPYRROLIDIN-3-YL]METHYL}-1-PHENYL-2-OXA-4,7,10-TRIAZATETRADECAN-14-OATE', 'weight': 680.788, 'carbohydrate_polymer': False, 'branch_name': ''}]

>  <ligand_codes>  (309) 
['G83']

>  <cofactor_codes>  (309) 
[]

>  <has_cofactor>  (309) 
False

>  <covalent>  (309) 
True

>  <base_name>  (309) 
3ZZC

>  <lig_resn>  (309) 
G83

>  <lig_resi>  (309) 
1181

>  <lig_chain>  (309) 
A

>  <lig_segi>  (309) 
B

>  <lig_alt>  (309) 


>  <polymer_chain>  (309) 
A

>  <single_smiles>  (309) 
CCOC(=O)CC[C@H](C[C@@H]1CCNC1=O)NC(=O)[C@H](Cc2ccccc2)NC(=O)[C@H](CC(=O)OC(C)(C)C)NC(=O)OCc3ccccc3

$$$$
G83P1S151
     RDKit          3D

 28 28  0  0  0  0  0  0  0  0999 V2000
   -7.6750    9.9230  -32.2970 C   0  0  0  0  0  0  0  0  0  0  0  0
   -7.7310    9.9410  -33.8290 C   0  0  2  0  0  0  0  0  0  0  0  0
   -8.7450   10.9170  -34.2200 N   0  0  0  0  0  0  0  0  0  0  0  0
   -8.1830    8.5770  -34.4040 C   0  0  2  0  0  0  0  0  0  0  0  0
   -8.4620   12.0930  -34.7840 C   0  0  0  0  0  0  0  0  0  0  0  0
   -8.1980    8.6230  -35.9360 C   0  0  0  0  0  0  0  0  0  0  0  0
   -9.8310    8.1200  -33.8380 R   0  0  0  0  0  0  0  0  0  0  0  0
   -9.6510   12.9770  -35.0820 C   0  0  1  0  0  0  0  0  0  0  0  0
   -7.3180   12.4750  -35.0590 O   0  0  0  0  0  0  0  0  0  0  0  0
   -6.8090    8.9220  -36.4600 C   0  0  0  0  0  0  0  0  0  0  0  0
   -9.2610   14.3500  -34.7310 N   0  0  0  0  0  0  0  0  0  0  0  0
   -9.8940   12.8970  -36.5940 C   0  0  0  0  0  0  0  0  0  0  0  0
   -6.6580    9.7290  -37.6550 O   0  0  0  0  0  0  0  0  0  0  0  0
   -5.8080    8.4980  -35.8980 O   0  0  0  0  0  0  0  0  0  0  0  0
   -9.0700   14.7310  -33.4520 C   0  0  0  0  0  0  0  0  0  0  0  0
  -11.1210   13.7000  -36.9770 C   0  0  0  0  0  0  0  0  0  0  0  0
   -5.3610   10.2030  -38.0740 C   0  0  0  0  0  0  0  0  0  0  0  0
   -8.5890   16.1350  -33.2460 C   0  0  0  0  0  0  0  0  0  0  0  0
   -9.1660   13.9920  -32.4630 O   0  0  0  0  0  0  0  0  0  0  0  0
  -12.3400   13.5180  -36.3250 C   0  0  0  0  0  0  0  0  0  0  0  0
  -11.0320   14.6580  -38.0030 C   0  0  0  0  0  0  0  0  0  0  0  0
   -4.5750    9.1110  -38.7950 C   0  0  0  0  0  0  0  0  0  0  0  0
   -7.0940   15.9700  -33.0860 C   0  0  0  0  0  0  0  0  0  0  0  0
  -13.4670   14.3010  -36.6620 C   0  0  0  0  0  0  0  0  0  0  0  0
  -12.1840   15.4150  -38.3560 C   0  0  0  0  0  0  0  0  0  0  0  0
   -6.3360   17.1850  -33.4620 C   0  0  0  0  0  0  0  0  0  0  0  0
  -13.4100   15.2640  -37.6860 C   0  0  0  0  0  0  0  0  0  0  0  0
   -6.4670   17.7660  -34.5460 O   0  0  0  0  0  0  0  0  0  0  0  0
  2  1  1  1
  3  2  1  0
  2  4  1  0
  5  3  1  0
  4  6  1  0
  4  7  1  1
  8  5  1  0
  5  9  2  0
  6 10  1  0
 11  8  1  0
  8 12  1  6
 10 13  1  0
 10 14  2  0
 15 11  1  0
 12 16  1  0
 17 13  1  0
 18 15  1  0
 15 19  2  0
 16 20  2  0
 16 21  1  0
 17 22  1  0
 18 23  1  6
 24 20  1  0
 25 21  2  0
 26 23  1  0
 24 27  2  0
 27 25  1  0
 28 26  2  0
V    7 *
A    2
 C57
A    3
 N49
A    4
 C63
A    5
 C39
A    6
 C82
A    7
 X  
A    8
 C37
A    9
 O47
A   10
 C84
A   11
 N33
A   12
 C41
A   13
 O86
A   14
 O88
A   15
 C31
A   16
 C51
A   17
 C3 
A   19
 O35
A   20
 C53
A   21
 C55
A   22
 C5 
A   23
 C25
A   24
 C7 
A   25
 C11
A   27
 C9 
A   28
 O1 
M  END
>  <XChem_code>  (310) 
G83§1

>  <Occupancy>  (310) 
[1.0, 1.0, 1.0, 1.0, 1.0, 1.0, 1.0, 1.0, 1.0, 1.0, 1.0, 1.0, 1.0, 1.0, 1.0, 1.0, 1.0, 1.0, 1.0, 1.0, 1.0, 1.0, 1.0, 1.0, 1.0, 1.0, 1.0, 1.0, 1.0, 1.0, 1.0, 1.0, 1.0, 1.0, 1.0, 1.0, 1.0, 1.0, 1.0, 1.0, 1.0, 1.0, 1.0, 1.0, 1.0, 1.0, 1.0, 1.0, 1.0, 1.0]

>  <TempFactor>  (310) 
[21.5, 44.89, 24.36, 42.16, 38.25, 23.95, 40.64, 20.41, 29.29, 22.5, 27.31, 23.15, 28.56, 41.84, 29.6, 38.53, 33.37, 31.58, 30.86, 27.88, 28.97, 31.52, 43.05, 27.66, 27.42, 21.95, 25.67, 24.02, 25.01, 43.36, 43.87, 19.31, 17.05, 26.62, 26.73, 28.95, 20.4, 17.34, 20.74, 21.57, 21.69, 20.06, 20.47, 18.67, 21.64, 27.5, 29.51, 35.17, 31.37, 18.86]

>  <accession>  (310) 
3ZZC_A

>  <description>  (310) 
Chain A, 3C PROTEINASE [Coxsackievirus B3]

>  <evalue>  (310) 
7.4865399999999999e-87

>  <pdb_code>  (310) 
3ZZC

>  <chain>  (310) 
A

>  <ligands>  (310) 
[{'chain_id': 'A', 'author_residue_number': 1181, 'author_insertion_code': '', 'chem_comp_id': 'G83', 'alternate_conformers': 0, 'entity_id': 2, 'struct_asym_id': 'B', 'residue_number': 1, 'chem_comp_name': 'ETHYL (5S,8S,11R)-8-BENZYL-5-(2-TERT-BUTOXY-2-OXOETHYL)-3,6,9-TRIOXO-11-{[(3S)-2-OXOPYRROLIDIN-3-YL]METHYL}-1-PHENYL-2-OXA-4,7,10-TRIAZATETRADECAN-14-OATE', 'weight': 680.788, 'carbohydrate_polymer': False, 'branch_name': ''}]

>  <ligand_codes>  (310) 
['G83']

>  <cofactor_codes>  (310) 
[]

>  <has_cofactor>  (310) 
False

>  <covalent>  (310) 
True

>  <base_name>  (310) 
3ZZC

>  <lig_resn>  (310) 
G83

>  <lig_resi>  (310) 
1181

>  <lig_chain>  (310) 
A

>  <lig_segi>  (310) 
B

>  <lig_alt>  (310) 


>  <polymer_chain>  (310) 
A

>  <single_smiles>  (310) 
CCOC(=O)CC[C@H](C[C@@H]1CCNC1=O)NC(=O)[C@H](Cc2ccccc2)NC(=O)[C@H](CC(=O)OC(C)(C)C)NC(=O)OCc3ccccc3

$$$$
G83P1S152
     RDKit          3D

 28 28  0  0  0  0  0  0  0  0999 V2000
   -9.8940   12.8970  -36.5940 C   0  0  0  0  0  0  0  0  0  0  0  0
   -9.6510   12.9770  -35.0820 C   0  0  2  0  0  0  0  0  0  0  0  0
   -9.2610   14.3500  -34.7310 N   0  0  0  0  0  0  0  0  0  0  0  0
   -8.4620   12.0930  -34.7840 C   0  0  0  0  0  0  0  0  0  0  0  0
   -9.0700   14.7310  -33.4520 C   0  0  0  0  0  0  0  0  0  0  0  0
   -7.3180   12.4750  -35.0590 O   0  0  0  0  0  0  0  0  0  0  0  0
   -8.7450   10.9170  -34.2200 N   0  0  0  0  0  0  0  0  0  0  0  0
   -8.5890   16.1350  -33.2460 C   0  0  0  0  0  0  0  0  0  0  0  0
   -9.1660   13.9920  -32.4630 O   0  0  0  0  0  0  0  0  0  0  0  0
   -7.7310    9.9410  -33.8290 C   0  0  1  0  0  0  0  0  0  0  0  0
   -7.0940   15.9700  -33.0860 C   0  0  0  0  0  0  0  0  0  0  0  0
   -7.6750    9.9230  -32.2970 C   0  0  0  0  0  0  0  0  0  0  0  0
   -8.1830    8.5770  -34.4040 C   0  0  2  0  0  0  0  0  0  0  0  0
   -6.3360   17.1850  -33.4620 C   0  0  0  0  0  0  0  0  0  0  0  0
   -7.2530   11.2580  -31.6380 C   0  0  1  0  0  0  0  0  0  0  0  0
   -8.1980    8.6230  -35.9360 C   0  0  0  0  0  0  0  0  0  0  0  0
   -9.8310    8.1200  -33.8380 R   0  0  0  0  0  0  0  0  0  0  0  0
   -6.4670   17.7660  -34.5460 O   0  0  0  0  0  0  0  0  0  0  0  0
   -7.1040   11.1020  -30.1450 C   0  0  0  0  0  0  0  0  0  0  0  0
   -5.9010   11.8850  -31.9840 C   0  0  0  0  0  0  0  0  0  0  0  0
   -6.8090    8.9220  -36.4600 C   0  0  0  0  0  0  0  0  0  0  0  0
   -7.8010   10.3100  -29.5070 O   0  0  0  0  0  0  0  0  0  0  0  0
   -6.2280   11.9150  -29.7100 N   0  0  0  0  0  0  0  0  0  0  0  0
   -5.4330   12.6240  -30.7080 C   0  0  0  0  0  0  0  0  0  0  0  0
   -6.6580    9.7290  -37.6550 O   0  0  0  0  0  0  0  0  0  0  0  0
   -5.8080    8.4980  -35.8980 O   0  0  0  0  0  0  0  0  0  0  0  0
   -5.3610   10.2030  -38.0740 C   0  0  0  0  0  0  0  0  0  0  0  0
   -4.5750    9.1110  -38.7950 C   0  0  0  0  0  0  0  0  0  0  0  0
  2  1  1  6
  3  2  1  0
  2  4  1  0
  5  3  1  0
  4  6  2  0
  4  7  1  0
  8  5  1  0
  5  9  2  0
  7 10  1  0
  8 11  1  6
 10 12  1  1
 10 13  1  0
 14 11  1  0
 15 12  1  6
 13 16  1  0
 13 17  1  1
 18 14  2  0
 15 19  1  0
 15 20  1  0
 16 21  1  0
 19 22  2  0
 19 23  1  0
 24 20  1  0
 21 25  1  0
 21 26  2  0
 23 24  1  0
 27 25  1  0
 27 28  1  0
V   17 *
A    2
 C37
A    3
 N33
A    4
 C39
A    5
 C31
A    6
 O47
A    7
 N49
A    9
 O35
A   10
 C57
A   11
 C25
A   12
 C59
A   13
 C63
A   15
 C61
A   16
 C82
A   17
 X  
A   18
 O1 
A   19
 C65
A   20
 C73
A   21
 C84
A   22
 O66
A   23
 N69
A   24
 C71
A   25
 O86
A   26
 O88
A   27
 C3 
A   28
 C5 
M  END
>  <XChem_code>  (311) 
G83§1

>  <Occupancy>  (311) 
[1.0, 1.0, 1.0, 1.0, 1.0, 1.0, 1.0, 1.0, 1.0, 1.0, 1.0, 1.0, 1.0, 1.0, 1.0, 1.0, 1.0, 1.0, 1.0, 1.0, 1.0, 1.0, 1.0, 1.0, 1.0, 1.0, 1.0, 1.0, 1.0, 1.0, 1.0, 1.0, 1.0, 1.0, 1.0, 1.0, 1.0, 1.0, 1.0, 1.0, 1.0, 1.0, 1.0, 1.0, 1.0, 1.0, 1.0, 1.0, 1.0, 1.0]

>  <TempFactor>  (311) 
[21.5, 44.89, 24.36, 42.16, 38.25, 23.95, 40.64, 20.41, 29.29, 22.5, 27.31, 23.15, 28.56, 41.84, 29.6, 38.53, 33.37, 31.58, 30.86, 27.88, 28.97, 31.52, 43.05, 27.66, 27.42, 21.95, 25.67, 24.02, 25.01, 43.36, 43.87, 19.31, 17.05, 26.62, 26.73, 28.95, 20.4, 17.34, 20.74, 21.57, 21.69, 20.06, 20.47, 18.67, 21.64, 27.5, 29.51, 35.17, 31.37, 18.86]

>  <accession>  (311) 
3ZZC_A

>  <description>  (311) 
Chain A, 3C PROTEINASE [Coxsackievirus B3]

>  <evalue>  (311) 
7.4865399999999999e-87

>  <pdb_code>  (311) 
3ZZC

>  <chain>  (311) 
A

>  <ligands>  (311) 
[{'chain_id': 'A', 'author_residue_number': 1181, 'author_insertion_code': '', 'chem_comp_id': 'G83', 'alternate_conformers': 0, 'entity_id': 2, 'struct_asym_id': 'B', 'residue_number': 1, 'chem_comp_name': 'ETHYL (5S,8S,11R)-8-BENZYL-5-(2-TERT-BUTOXY-2-OXOETHYL)-3,6,9-TRIOXO-11-{[(3S)-2-OXOPYRROLIDIN-3-YL]METHYL}-1-PHENYL-2-OXA-4,7,10-TRIAZATETRADECAN-14-OATE', 'weight': 680.788, 'carbohydrate_polymer': False, 'branch_name': ''}]

>  <ligand_codes>  (311) 
['G83']

>  <cofactor_codes>  (311) 
[]

>  <has_cofactor>  (311) 
False

>  <covalent>  (311) 
True

>  <base_name>  (311) 
3ZZC

>  <lig_resn>  (311) 
G83

>  <lig_resi>  (311) 
1181

>  <lig_chain>  (311) 
A

>  <lig_segi>  (311) 
B

>  <lig_alt>  (311) 


>  <polymer_chain>  (311) 
A

>  <single_smiles>  (311) 
CCOC(=O)CC[C@H](C[C@@H]1CCNC1=O)NC(=O)[C@H](Cc2ccccc2)NC(=O)[C@H](CC(=O)OC(C)(C)C)NC(=O)OCc3ccccc3

$$$$
G83P1S153
     RDKit          3D

 12 11  0  0  0  0  0  0  0  0999 V2000
  -10.3020   19.6950  -30.3210 C   0  0  0  0  0  0  0  0  0  0  0  0
   -9.9650   18.3270  -30.5810 O   0  0  0  0  0  0  0  0  0  0  0  0
   -9.6140   17.8180  -31.9050 C   0  0  0  0  0  0  0  0  0  0  0  0
   -8.9270   16.6710  -31.9560 N   0  0  0  0  0  0  0  0  0  0  0  0
   -9.9760   18.4340  -32.9180 O   0  0  0  0  0  0  0  0  0  0  0  0
   -8.5890   16.1350  -33.2460 C   0  0  2  0  0  0  0  0  0  0  0  0
   -9.0700   14.7310  -33.4520 C   0  0  0  0  0  0  0  0  0  0  0  0
   -7.0940   15.9700  -33.0860 C   0  0  0  0  0  0  0  0  0  0  0  0
   -9.2610   14.3500  -34.7310 N   0  0  0  0  0  0  0  0  0  0  0  0
   -9.1660   13.9920  -32.4630 O   0  0  0  0  0  0  0  0  0  0  0  0
   -6.3360   17.1850  -33.4620 C   0  0  0  0  0  0  0  0  0  0  0  0
   -6.4670   17.7660  -34.5460 O   0  0  0  0  0  0  0  0  0  0  0  0
  1  2  1  0
  2  3  1  0
  3  4  1  0
  3  5  2  0
  4  6  1  0
  6  7  1  0
  6  8  1  1
  7  9  1  0
  7 10  2  0
 11  8  1  0
 12 11  2  0
A    2
 O15
A    3
 C17
A    4
 N21
A    5
 O19
A    6
 C23
A    7
 C31
A    8
 C25
A   10
 O35
A   12
 O1 
M  END
>  <XChem_code>  (312) 
G83§1

>  <Occupancy>  (312) 
[1.0, 1.0, 1.0, 1.0, 1.0, 1.0, 1.0, 1.0, 1.0, 1.0, 1.0, 1.0, 1.0, 1.0, 1.0, 1.0, 1.0, 1.0, 1.0, 1.0, 1.0, 1.0, 1.0, 1.0, 1.0, 1.0, 1.0, 1.0, 1.0, 1.0, 1.0, 1.0, 1.0, 1.0, 1.0, 1.0, 1.0, 1.0, 1.0, 1.0, 1.0, 1.0, 1.0, 1.0, 1.0, 1.0, 1.0, 1.0, 1.0, 1.0]

>  <TempFactor>  (312) 
[21.5, 44.89, 24.36, 42.16, 38.25, 23.95, 40.64, 20.41, 29.29, 22.5, 27.31, 23.15, 28.56, 41.84, 29.6, 38.53, 33.37, 31.58, 30.86, 27.88, 28.97, 31.52, 43.05, 27.66, 27.42, 21.95, 25.67, 24.02, 25.01, 43.36, 43.87, 19.31, 17.05, 26.62, 26.73, 28.95, 20.4, 17.34, 20.74, 21.57, 21.69, 20.06, 20.47, 18.67, 21.64, 27.5, 29.51, 35.17, 31.37, 18.86]

>  <accession>  (312) 
3ZZC_A

>  <description>  (312) 
Chain A, 3C PROTEINASE [Coxsackievirus B3]

>  <evalue>  (312) 
7.4865399999999999e-87

>  <pdb_code>  (312) 
3ZZC

>  <chain>  (312) 
A

>  <ligands>  (312) 
[{'chain_id': 'A', 'author_residue_number': 1181, 'author_insertion_code': '', 'chem_comp_id': 'G83', 'alternate_conformers': 0, 'entity_id': 2, 'struct_asym_id': 'B', 'residue_number': 1, 'chem_comp_name': 'ETHYL (5S,8S,11R)-8-BENZYL-5-(2-TERT-BUTOXY-2-OXOETHYL)-3,6,9-TRIOXO-11-{[(3S)-2-OXOPYRROLIDIN-3-YL]METHYL}-1-PHENYL-2-OXA-4,7,10-TRIAZATETRADECAN-14-OATE', 'weight': 680.788, 'carbohydrate_polymer': False, 'branch_name': ''}]

>  <ligand_codes>  (312) 
['G83']

>  <cofactor_codes>  (312) 
[]

>  <has_cofactor>  (312) 
False

>  <covalent>  (312) 
True

>  <base_name>  (312) 
3ZZC

>  <lig_resn>  (312) 
G83

>  <lig_resi>  (312) 
1181

>  <lig_chain>  (312) 
A

>  <lig_segi>  (312) 
B

>  <lig_alt>  (312) 


>  <polymer_chain>  (312) 
A

>  <single_smiles>  (312) 
CCOC(=O)CC[C@H](C[C@@H]1CCNC1=O)NC(=O)[C@H](Cc2ccccc2)NC(=O)[C@H](CC(=O)OC(C)(C)C)NC(=O)OCc3ccccc3

$$$$
G83P1S154
     RDKit          3D

 23 23  0  0  0  0  0  0  0  0999 V2000
   -9.8940   12.8970  -36.5940 C   0  0  0  0  0  0  0  0  0  0  0  0
   -9.6510   12.9770  -35.0820 C   0  0  1  0  0  0  0  0  0  0  0  0
   -8.4620   12.0930  -34.7840 C   0  0  0  0  0  0  0  0  0  0  0  0
   -9.2610   14.3500  -34.7310 N   0  0  0  0  0  0  0  0  0  0  0  0
   -8.7450   10.9170  -34.2200 N   0  0  0  0  0  0  0  0  0  0  0  0
   -7.3180   12.4750  -35.0590 O   0  0  0  0  0  0  0  0  0  0  0  0
   -9.0700   14.7310  -33.4520 C   0  0  0  0  0  0  0  0  0  0  0  0
   -8.5890   16.1350  -33.2460 C   0  0  2  0  0  0  0  0  0  0  0  0
   -9.1660   13.9920  -32.4630 O   0  0  0  0  0  0  0  0  0  0  0  0
   -7.0940   15.9700  -33.0860 C   0  0  0  0  0  0  0  0  0  0  0  0
   -8.9270   16.6710  -31.9560 N   0  0  0  0  0  0  0  0  0  0  0  0
   -6.3360   17.1850  -33.4620 C   0  0  0  0  0  0  0  0  0  0  0  0
   -9.6140   17.8180  -31.9050 C   0  0  0  0  0  0  0  0  0  0  0  0
   -6.4670   17.7660  -34.5460 O   0  0  0  0  0  0  0  0  0  0  0  0
   -9.9650   18.3270  -30.5810 O   0  0  0  0  0  0  0  0  0  0  0  0
   -9.9760   18.4340  -32.9180 O   0  0  0  0  0  0  0  0  0  0  0  0
  -10.3020   19.6950  -30.3210 C   0  0  0  0  0  0  0  0  0  0  0  0
  -10.4040   19.8340  -28.8340 C   0  0  0  0  0  0  0  0  0  0  0  0
   -9.6890   20.8420  -28.1960 C   0  0  0  0  0  0  0  0  0  0  0  0
  -11.1970   18.9310  -28.1220 C   0  0  0  0  0  0  0  0  0  0  0  0
   -9.7810   20.9510  -26.7880 C   0  0  0  0  0  0  0  0  0  0  0  0
  -11.3130   19.0390  -26.7440 C   0  0  0  0  0  0  0  0  0  0  0  0
  -10.5960   20.0640  -26.0750 C   0  0  0  0  0  0  0  0  0  0  0  0
  2  1  1  6
  2  3  1  0
  4  2  1  0
  3  5  1  0
  3  6  2  0
  7  4  1  0
  8  7  1  0
  7  9  2  0
  8 10  1  1
 11  8  1  0
 12 10  1  0
 13 11  1  0
 14 12  2  0
 15 13  1  0
 13 16  2  0
 17 15  1  0
 18 17  1  0
 19 18  2  0
 18 20  1  0
 21 19  1  0
 20 22  2  0
 21 23  2  0
 22 23  1  0
A    2
 C37
A    3
 C39
A    4
 N33
A    6
 O47
A    7
 C31
A    8
 C23
A    9
 O35
A   10
 C25
A   11
 N21
A   13
 C17
A   14
 O1 
A   15
 O15
A   16
 O19
A   17
 C13
A   18
 C4 
A   19
 C2 
A   20
 C6 
A   21
 C1 
A   22
 C8 
A   23
 C10
M  END
>  <XChem_code>  (313) 
G83§1

>  <Occupancy>  (313) 
[1.0, 1.0, 1.0, 1.0, 1.0, 1.0, 1.0, 1.0, 1.0, 1.0, 1.0, 1.0, 1.0, 1.0, 1.0, 1.0, 1.0, 1.0, 1.0, 1.0, 1.0, 1.0, 1.0, 1.0, 1.0, 1.0, 1.0, 1.0, 1.0, 1.0, 1.0, 1.0, 1.0, 1.0, 1.0, 1.0, 1.0, 1.0, 1.0, 1.0, 1.0, 1.0, 1.0, 1.0, 1.0, 1.0, 1.0, 1.0, 1.0, 1.0]

>  <TempFactor>  (313) 
[21.5, 44.89, 24.36, 42.16, 38.25, 23.95, 40.64, 20.41, 29.29, 22.5, 27.31, 23.15, 28.56, 41.84, 29.6, 38.53, 33.37, 31.58, 30.86, 27.88, 28.97, 31.52, 43.05, 27.66, 27.42, 21.95, 25.67, 24.02, 25.01, 43.36, 43.87, 19.31, 17.05, 26.62, 26.73, 28.95, 20.4, 17.34, 20.74, 21.57, 21.69, 20.06, 20.47, 18.67, 21.64, 27.5, 29.51, 35.17, 31.37, 18.86]

>  <accession>  (313) 
3ZZC_A

>  <description>  (313) 
Chain A, 3C PROTEINASE [Coxsackievirus B3]

>  <evalue>  (313) 
7.4865399999999999e-87

>  <pdb_code>  (313) 
3ZZC

>  <chain>  (313) 
A

>  <ligands>  (313) 
[{'chain_id': 'A', 'author_residue_number': 1181, 'author_insertion_code': '', 'chem_comp_id': 'G83', 'alternate_conformers': 0, 'entity_id': 2, 'struct_asym_id': 'B', 'residue_number': 1, 'chem_comp_name': 'ETHYL (5S,8S,11R)-8-BENZYL-5-(2-TERT-BUTOXY-2-OXOETHYL)-3,6,9-TRIOXO-11-{[(3S)-2-OXOPYRROLIDIN-3-YL]METHYL}-1-PHENYL-2-OXA-4,7,10-TRIAZATETRADECAN-14-OATE', 'weight': 680.788, 'carbohydrate_polymer': False, 'branch_name': ''}]

>  <ligand_codes>  (313) 
['G83']

>  <cofactor_codes>  (313) 
[]

>  <has_cofactor>  (313) 
False

>  <covalent>  (313) 
True

>  <base_name>  (313) 
3ZZC

>  <lig_resn>  (313) 
G83

>  <lig_resi>  (313) 
1181

>  <lig_chain>  (313) 
A

>  <lig_segi>  (313) 
B

>  <lig_alt>  (313) 


>  <polymer_chain>  (313) 
A

>  <single_smiles>  (313) 
CCOC(=O)CC[C@H](C[C@@H]1CCNC1=O)NC(=O)[C@H](Cc2ccccc2)NC(=O)[C@H](CC(=O)OC(C)(C)C)NC(=O)OCc3ccccc3

$$$$
G83P1S155
     RDKit          3D

 23 23  0  0  0  0  0  0  0  0999 V2000
  -10.3020   19.6950  -30.3210 C   0  0  0  0  0  0  0  0  0  0  0  0
   -9.9650   18.3270  -30.5810 O   0  0  0  0  0  0  0  0  0  0  0  0
   -9.6140   17.8180  -31.9050 C   0  0  0  0  0  0  0  0  0  0  0  0
   -8.9270   16.6710  -31.9560 N   0  0  0  0  0  0  0  0  0  0  0  0
   -9.9760   18.4340  -32.9180 O   0  0  0  0  0  0  0  0  0  0  0  0
   -8.5890   16.1350  -33.2460 C   0  0  2  0  0  0  0  0  0  0  0  0
   -9.0700   14.7310  -33.4520 C   0  0  0  0  0  0  0  0  0  0  0  0
   -7.0940   15.9700  -33.0860 C   0  0  0  0  0  0  0  0  0  0  0  0
   -9.2610   14.3500  -34.7310 N   0  0  0  0  0  0  0  0  0  0  0  0
   -9.1660   13.9920  -32.4630 O   0  0  0  0  0  0  0  0  0  0  0  0
   -6.3360   17.1850  -33.4620 C   0  0  0  0  0  0  0  0  0  0  0  0
   -9.6510   12.9770  -35.0820 C   0  0  2  0  0  0  0  0  0  0  0  0
   -6.4670   17.7660  -34.5460 O   0  0  0  0  0  0  0  0  0  0  0  0
   -8.4620   12.0930  -34.7840 C   0  0  0  0  0  0  0  0  0  0  0  0
   -9.8940   12.8970  -36.5940 C   0  0  0  0  0  0  0  0  0  0  0  0
   -8.7450   10.9170  -34.2200 N   0  0  0  0  0  0  0  0  0  0  0  0
   -7.3180   12.4750  -35.0590 O   0  0  0  0  0  0  0  0  0  0  0  0
  -11.1210   13.7000  -36.9770 C   0  0  0  0  0  0  0  0  0  0  0  0
  -12.3400   13.5180  -36.3250 C   0  0  0  0  0  0  0  0  0  0  0  0
  -11.0320   14.6580  -38.0030 C   0  0  0  0  0  0  0  0  0  0  0  0
  -13.4670   14.3010  -36.6620 C   0  0  0  0  0  0  0  0  0  0  0  0
  -12.1840   15.4150  -38.3560 C   0  0  0  0  0  0  0  0  0  0  0  0
  -13.4100   15.2640  -37.6860 C   0  0  0  0  0  0  0  0  0  0  0  0
  1  2  1  0
  2  3  1  0
  3  4  1  0
  3  5  2  0
  4  6  1  0
  6  7  1  0
  6  8  1  1
  7  9  1  0
  7 10  2  0
 11  8  1  0
  9 12  1  0
 13 11  2  0
 12 14  1  0
 12 15  1  6
 14 16  1  0
 14 17  2  0
 15 18  1  0
 18 19  2  0
 18 20  1  0
 21 19  1  0
 22 20  2  0
 21 23  2  0
 23 22  1  0
A    2
 O15
A    3
 C17
A    4
 N21
A    5
 O19
A    6
 C23
A    7
 C31
A    8
 C25
A    9
 N33
A   10
 O35
A   12
 C37
A   13
 O1 
A   14
 C39
A   15
 C41
A   17
 O47
A   18
 C51
A   19
 C53
A   20
 C55
A   21
 C7 
A   22
 C11
A   23
 C9 
M  END
>  <XChem_code>  (314) 
G83§1

>  <Occupancy>  (314) 
[1.0, 1.0, 1.0, 1.0, 1.0, 1.0, 1.0, 1.0, 1.0, 1.0, 1.0, 1.0, 1.0, 1.0, 1.0, 1.0, 1.0, 1.0, 1.0, 1.0, 1.0, 1.0, 1.0, 1.0, 1.0, 1.0, 1.0, 1.0, 1.0, 1.0, 1.0, 1.0, 1.0, 1.0, 1.0, 1.0, 1.0, 1.0, 1.0, 1.0, 1.0, 1.0, 1.0, 1.0, 1.0, 1.0, 1.0, 1.0, 1.0, 1.0]

>  <TempFactor>  (314) 
[21.5, 44.89, 24.36, 42.16, 38.25, 23.95, 40.64, 20.41, 29.29, 22.5, 27.31, 23.15, 28.56, 41.84, 29.6, 38.53, 33.37, 31.58, 30.86, 27.88, 28.97, 31.52, 43.05, 27.66, 27.42, 21.95, 25.67, 24.02, 25.01, 43.36, 43.87, 19.31, 17.05, 26.62, 26.73, 28.95, 20.4, 17.34, 20.74, 21.57, 21.69, 20.06, 20.47, 18.67, 21.64, 27.5, 29.51, 35.17, 31.37, 18.86]

>  <accession>  (314) 
3ZZC_A

>  <description>  (314) 
Chain A, 3C PROTEINASE [Coxsackievirus B3]

>  <evalue>  (314) 
7.4865399999999999e-87

>  <pdb_code>  (314) 
3ZZC

>  <chain>  (314) 
A

>  <ligands>  (314) 
[{'chain_id': 'A', 'author_residue_number': 1181, 'author_insertion_code': '', 'chem_comp_id': 'G83', 'alternate_conformers': 0, 'entity_id': 2, 'struct_asym_id': 'B', 'residue_number': 1, 'chem_comp_name': 'ETHYL (5S,8S,11R)-8-BENZYL-5-(2-TERT-BUTOXY-2-OXOETHYL)-3,6,9-TRIOXO-11-{[(3S)-2-OXOPYRROLIDIN-3-YL]METHYL}-1-PHENYL-2-OXA-4,7,10-TRIAZATETRADECAN-14-OATE', 'weight': 680.788, 'carbohydrate_polymer': False, 'branch_name': ''}]

>  <ligand_codes>  (314) 
['G83']

>  <cofactor_codes>  (314) 
[]

>  <has_cofactor>  (314) 
False

>  <covalent>  (314) 
True

>  <base_name>  (314) 
3ZZC

>  <lig_resn>  (314) 
G83

>  <lig_resi>  (314) 
1181

>  <lig_chain>  (314) 
A

>  <lig_segi>  (314) 
B

>  <lig_alt>  (314) 


>  <polymer_chain>  (314) 
A

>  <single_smiles>  (314) 
CCOC(=O)CC[C@H](C[C@@H]1CCNC1=O)NC(=O)[C@H](Cc2ccccc2)NC(=O)[C@H](CC(=O)OC(C)(C)C)NC(=O)OCc3ccccc3

$$$$
G83P1S156
     RDKit          3D

 20 19  0  0  0  0  0  0  0  0999 V2000
   -9.8940   12.8970  -36.5940 C   0  0  0  0  0  0  0  0  0  0  0  0
   -9.6510   12.9770  -35.0820 C   0  0  1  0  0  0  0  0  0  0  0  0
   -8.4620   12.0930  -34.7840 C   0  0  0  0  0  0  0  0  0  0  0  0
   -9.2610   14.3500  -34.7310 N   0  0  0  0  0  0  0  0  0  0  0  0
   -8.7450   10.9170  -34.2200 N   0  0  0  0  0  0  0  0  0  0  0  0
   -7.3180   12.4750  -35.0590 O   0  0  0  0  0  0  0  0  0  0  0  0
   -9.0700   14.7310  -33.4520 C   0  0  0  0  0  0  0  0  0  0  0  0
   -8.5890   16.1350  -33.2460 C   0  0  1  0  0  0  0  0  0  0  0  0
   -9.1660   13.9920  -32.4630 O   0  0  0  0  0  0  0  0  0  0  0  0
   -8.9270   16.6710  -31.9560 N   0  0  0  0  0  0  0  0  0  0  0  0
   -7.0940   15.9700  -33.0860 C   0  0  0  0  0  0  0  0  0  0  0  0
   -9.6140   17.8180  -31.9050 C   0  0  0  0  0  0  0  0  0  0  0  0
   -6.3360   17.1850  -33.4620 C   0  0  0  0  0  0  0  0  0  0  0  0
   -9.9760   18.4340  -32.9180 O   0  0  0  0  0  0  0  0  0  0  0  0
   -6.4670   17.7660  -34.5460 O   0  0  0  0  0  0  0  0  0  0  0  0
   -5.3760   17.6500  -32.4930 O   0  0  0  0  0  0  0  0  0  0  0  0
   -4.0330   17.1570  -32.4230 C   0  0  0  0  0  0  0  0  0  0  0  0
   -3.6770   16.1600  -33.5370 C   0  0  0  0  0  0  0  0  0  0  0  0
   -3.9520   16.4650  -31.0680 C   0  0  0  0  0  0  0  0  0  0  0  0
   -3.0820   18.3540  -32.5240 C   0  0  0  0  0  0  0  0  0  0  0  0
  2  1  1  6
  2  3  1  0
  4  2  1  0
  3  5  1  0
  3  6  2  0
  7  4  1  0
  8  7  1  0
  7  9  2  0
 10  8  1  0
  8 11  1  1
 12 10  1  0
 13 11  1  0
 12 14  2  0
 15 13  2  0
 16 13  1  0
 16 17  1  0
 17 18  1  0
 17 19  1  0
 17 20  1  0
A    2
 C37
A    3
 C39
A    4
 N33
A    6
 O47
A    7
 C31
A    8
 C23
A    9
 O35
A   10
 N21
A   11
 C25
A   13
 C14
A   14
 O19
A   15
 O1 
A   16
 O2 
A   17
 C29
A   18
 C12
A   19
 C43
A   20
 C45
M  END
>  <XChem_code>  (315) 
G83§1

>  <Occupancy>  (315) 
[1.0, 1.0, 1.0, 1.0, 1.0, 1.0, 1.0, 1.0, 1.0, 1.0, 1.0, 1.0, 1.0, 1.0, 1.0, 1.0, 1.0, 1.0, 1.0, 1.0, 1.0, 1.0, 1.0, 1.0, 1.0, 1.0, 1.0, 1.0, 1.0, 1.0, 1.0, 1.0, 1.0, 1.0, 1.0, 1.0, 1.0, 1.0, 1.0, 1.0, 1.0, 1.0, 1.0, 1.0, 1.0, 1.0, 1.0, 1.0, 1.0, 1.0]

>  <TempFactor>  (315) 
[21.5, 44.89, 24.36, 42.16, 38.25, 23.95, 40.64, 20.41, 29.29, 22.5, 27.31, 23.15, 28.56, 41.84, 29.6, 38.53, 33.37, 31.58, 30.86, 27.88, 28.97, 31.52, 43.05, 27.66, 27.42, 21.95, 25.67, 24.02, 25.01, 43.36, 43.87, 19.31, 17.05, 26.62, 26.73, 28.95, 20.4, 17.34, 20.74, 21.57, 21.69, 20.06, 20.47, 18.67, 21.64, 27.5, 29.51, 35.17, 31.37, 18.86]

>  <accession>  (315) 
3ZZC_A

>  <description>  (315) 
Chain A, 3C PROTEINASE [Coxsackievirus B3]

>  <evalue>  (315) 
7.4865399999999999e-87

>  <pdb_code>  (315) 
3ZZC

>  <chain>  (315) 
A

>  <ligands>  (315) 
[{'chain_id': 'A', 'author_residue_number': 1181, 'author_insertion_code': '', 'chem_comp_id': 'G83', 'alternate_conformers': 0, 'entity_id': 2, 'struct_asym_id': 'B', 'residue_number': 1, 'chem_comp_name': 'ETHYL (5S,8S,11R)-8-BENZYL-5-(2-TERT-BUTOXY-2-OXOETHYL)-3,6,9-TRIOXO-11-{[(3S)-2-OXOPYRROLIDIN-3-YL]METHYL}-1-PHENYL-2-OXA-4,7,10-TRIAZATETRADECAN-14-OATE', 'weight': 680.788, 'carbohydrate_polymer': False, 'branch_name': ''}]

>  <ligand_codes>  (315) 
['G83']

>  <cofactor_codes>  (315) 
[]

>  <has_cofactor>  (315) 
False

>  <covalent>  (315) 
True

>  <base_name>  (315) 
3ZZC

>  <lig_resn>  (315) 
G83

>  <lig_resi>  (315) 
1181

>  <lig_chain>  (315) 
A

>  <lig_segi>  (315) 
B

>  <lig_alt>  (315) 


>  <polymer_chain>  (315) 
A

>  <single_smiles>  (315) 
CCOC(=O)CC[C@H](C[C@@H]1CCNC1=O)NC(=O)[C@H](Cc2ccccc2)NC(=O)[C@H](CC(=O)OC(C)(C)C)NC(=O)OCc3ccccc3

$$$$
G83P1S157
     RDKit          3D

 18 17  0  0  0  0  0  0  0  0999 V2000
   -9.8940   12.8970  -36.5940 C   0  0  0  0  0  0  0  0  0  0  0  0
   -9.6510   12.9770  -35.0820 C   0  0  1  0  0  0  0  0  0  0  0  0
   -8.4620   12.0930  -34.7840 C   0  0  0  0  0  0  0  0  0  0  0  0
   -9.2610   14.3500  -34.7310 N   0  0  0  0  0  0  0  0  0  0  0  0
   -8.7450   10.9170  -34.2200 N   0  0  0  0  0  0  0  0  0  0  0  0
   -7.3180   12.4750  -35.0590 O   0  0  0  0  0  0  0  0  0  0  0  0
   -9.0700   14.7310  -33.4520 C   0  0  0  0  0  0  0  0  0  0  0  0
   -8.5890   16.1350  -33.2460 C   0  0  1  0  0  0  0  0  0  0  0  0
   -9.1660   13.9920  -32.4630 O   0  0  0  0  0  0  0  0  0  0  0  0
   -8.9270   16.6710  -31.9560 N   0  0  0  0  0  0  0  0  0  0  0  0
   -7.0940   15.9700  -33.0860 C   0  0  0  0  0  0  0  0  0  0  0  0
   -6.3360   17.1850  -33.4620 C   0  0  0  0  0  0  0  0  0  0  0  0
   -6.4670   17.7660  -34.5460 O   0  0  0  0  0  0  0  0  0  0  0  0
   -5.3760   17.6500  -32.4930 O   0  0  0  0  0  0  0  0  0  0  0  0
   -4.0330   17.1570  -32.4230 C   0  0  0  0  0  0  0  0  0  0  0  0
   -3.6770   16.1600  -33.5370 C   0  0  0  0  0  0  0  0  0  0  0  0
   -3.9520   16.4650  -31.0680 C   0  0  0  0  0  0  0  0  0  0  0  0
   -3.0820   18.3540  -32.5240 C   0  0  0  0  0  0  0  0  0  0  0  0
  2  1  1  6
  2  3  1  0
  4  2  1  0
  3  5  1  0
  3  6  2  0
  7  4  1  0
  8  7  1  0
  7  9  2  0
  8 10  1  1
  8 11  1  0
 12 11  1  0
 13 12  2  0
 14 12  1  0
 14 15  1  0
 15 16  1  0
 15 17  1  0
 15 18  1  0
A    2
 C37
A    3
 C39
A    4
 N33
A    6
 O47
A    7
 C31
A    8
 C23
A    9
 O35
A   11
 C25
A   12
 C14
A   13
 O1 
A   14
 O2 
A   15
 C29
A   16
 C12
A   17
 C43
A   18
 C45
M  END
>  <XChem_code>  (316) 
G83§1

>  <Occupancy>  (316) 
[1.0, 1.0, 1.0, 1.0, 1.0, 1.0, 1.0, 1.0, 1.0, 1.0, 1.0, 1.0, 1.0, 1.0, 1.0, 1.0, 1.0, 1.0, 1.0, 1.0, 1.0, 1.0, 1.0, 1.0, 1.0, 1.0, 1.0, 1.0, 1.0, 1.0, 1.0, 1.0, 1.0, 1.0, 1.0, 1.0, 1.0, 1.0, 1.0, 1.0, 1.0, 1.0, 1.0, 1.0, 1.0, 1.0, 1.0, 1.0, 1.0, 1.0]

>  <TempFactor>  (316) 
[21.5, 44.89, 24.36, 42.16, 38.25, 23.95, 40.64, 20.41, 29.29, 22.5, 27.31, 23.15, 28.56, 41.84, 29.6, 38.53, 33.37, 31.58, 30.86, 27.88, 28.97, 31.52, 43.05, 27.66, 27.42, 21.95, 25.67, 24.02, 25.01, 43.36, 43.87, 19.31, 17.05, 26.62, 26.73, 28.95, 20.4, 17.34, 20.74, 21.57, 21.69, 20.06, 20.47, 18.67, 21.64, 27.5, 29.51, 35.17, 31.37, 18.86]

>  <accession>  (316) 
3ZZC_A

>  <description>  (316) 
Chain A, 3C PROTEINASE [Coxsackievirus B3]

>  <evalue>  (316) 
7.4865399999999999e-87

>  <pdb_code>  (316) 
3ZZC

>  <chain>  (316) 
A

>  <ligands>  (316) 
[{'chain_id': 'A', 'author_residue_number': 1181, 'author_insertion_code': '', 'chem_comp_id': 'G83', 'alternate_conformers': 0, 'entity_id': 2, 'struct_asym_id': 'B', 'residue_number': 1, 'chem_comp_name': 'ETHYL (5S,8S,11R)-8-BENZYL-5-(2-TERT-BUTOXY-2-OXOETHYL)-3,6,9-TRIOXO-11-{[(3S)-2-OXOPYRROLIDIN-3-YL]METHYL}-1-PHENYL-2-OXA-4,7,10-TRIAZATETRADECAN-14-OATE', 'weight': 680.788, 'carbohydrate_polymer': False, 'branch_name': ''}]

>  <ligand_codes>  (316) 
['G83']

>  <cofactor_codes>  (316) 
[]

>  <has_cofactor>  (316) 
False

>  <covalent>  (316) 
True

>  <base_name>  (316) 
3ZZC

>  <lig_resn>  (316) 
G83

>  <lig_resi>  (316) 
1181

>  <lig_chain>  (316) 
A

>  <lig_segi>  (316) 
B

>  <lig_alt>  (316) 


>  <polymer_chain>  (316) 
A

>  <single_smiles>  (316) 
CCOC(=O)CC[C@H](C[C@@H]1CCNC1=O)NC(=O)[C@H](Cc2ccccc2)NC(=O)[C@H](CC(=O)OC(C)(C)C)NC(=O)OCc3ccccc3

$$$$
G83P1S158
     RDKit          3D

  6  5  0  0  0  0  0  0  0  0999 V2000
   -9.8940   12.8970  -36.5940 C   0  0  0  0  0  0  0  0  0  0  0  0
   -9.6510   12.9770  -35.0820 C   0  0  1  0  0  0  0  0  0  0  0  0
   -8.4620   12.0930  -34.7840 C   0  0  0  0  0  0  0  0  0  0  0  0
   -9.2610   14.3500  -34.7310 N   0  0  0  0  0  0  0  0  0  0  0  0
   -8.7450   10.9170  -34.2200 N   0  0  0  0  0  0  0  0  0  0  0  0
   -7.3180   12.4750  -35.0590 O   0  0  0  0  0  0  0  0  0  0  0  0
  2  1  1  6
  2  3  1  0
  4  2  1  0
  3  5  1  0
  3  6  2  0
A    2
 C37
A    3
 C39
A    6
 O47
M  END
>  <XChem_code>  (317) 
G83§1

>  <Occupancy>  (317) 
[1.0, 1.0, 1.0, 1.0, 1.0, 1.0, 1.0, 1.0, 1.0, 1.0, 1.0, 1.0, 1.0, 1.0, 1.0, 1.0, 1.0, 1.0, 1.0, 1.0, 1.0, 1.0, 1.0, 1.0, 1.0, 1.0, 1.0, 1.0, 1.0, 1.0, 1.0, 1.0, 1.0, 1.0, 1.0, 1.0, 1.0, 1.0, 1.0, 1.0, 1.0, 1.0, 1.0, 1.0, 1.0, 1.0, 1.0, 1.0, 1.0, 1.0]

>  <TempFactor>  (317) 
[21.5, 44.89, 24.36, 42.16, 38.25, 23.95, 40.64, 20.41, 29.29, 22.5, 27.31, 23.15, 28.56, 41.84, 29.6, 38.53, 33.37, 31.58, 30.86, 27.88, 28.97, 31.52, 43.05, 27.66, 27.42, 21.95, 25.67, 24.02, 25.01, 43.36, 43.87, 19.31, 17.05, 26.62, 26.73, 28.95, 20.4, 17.34, 20.74, 21.57, 21.69, 20.06, 20.47, 18.67, 21.64, 27.5, 29.51, 35.17, 31.37, 18.86]

>  <accession>  (317) 
3ZZC_A

>  <description>  (317) 
Chain A, 3C PROTEINASE [Coxsackievirus B3]

>  <evalue>  (317) 
7.4865399999999999e-87

>  <pdb_code>  (317) 
3ZZC

>  <chain>  (317) 
A

>  <ligands>  (317) 
[{'chain_id': 'A', 'author_residue_number': 1181, 'author_insertion_code': '', 'chem_comp_id': 'G83', 'alternate_conformers': 0, 'entity_id': 2, 'struct_asym_id': 'B', 'residue_number': 1, 'chem_comp_name': 'ETHYL (5S,8S,11R)-8-BENZYL-5-(2-TERT-BUTOXY-2-OXOETHYL)-3,6,9-TRIOXO-11-{[(3S)-2-OXOPYRROLIDIN-3-YL]METHYL}-1-PHENYL-2-OXA-4,7,10-TRIAZATETRADECAN-14-OATE', 'weight': 680.788, 'carbohydrate_polymer': False, 'branch_name': ''}]

>  <ligand_codes>  (317) 
['G83']

>  <cofactor_codes>  (317) 
[]

>  <has_cofactor>  (317) 
False

>  <covalent>  (317) 
True

>  <base_name>  (317) 
3ZZC

>  <lig_resn>  (317) 
G83

>  <lig_resi>  (317) 
1181

>  <lig_chain>  (317) 
A

>  <lig_segi>  (317) 
B

>  <lig_alt>  (317) 


>  <polymer_chain>  (317) 
A

>  <single_smiles>  (317) 
CCOC(=O)CC[C@H](C[C@@H]1CCNC1=O)NC(=O)[C@H](Cc2ccccc2)NC(=O)[C@H](CC(=O)OC(C)(C)C)NC(=O)OCc3ccccc3

$$$$
G83P1S159
     RDKit          3D

  4  3  0  0  0  0  0  0  0  0999 V2000
   -9.8940   12.8970  -36.5940 C   0  0  0  0  0  0  0  0  0  0  0  0
   -9.6510   12.9770  -35.0820 C   0  0  0  0  0  0  0  0  0  0  0  0
   -8.4620   12.0930  -34.7840 C   0  0  0  0  0  0  0  0  0  0  0  0
   -7.3180   12.4750  -35.0590 O   0  0  0  0  0  0  0  0  0  0  0  0
  2  1  1  6
  2  3  1  0
  3  4  2  0
A    4
 O47
M  END
>  <XChem_code>  (318) 
G83§1

>  <Occupancy>  (318) 
[1.0, 1.0, 1.0, 1.0, 1.0, 1.0, 1.0, 1.0, 1.0, 1.0, 1.0, 1.0, 1.0, 1.0, 1.0, 1.0, 1.0, 1.0, 1.0, 1.0, 1.0, 1.0, 1.0, 1.0, 1.0, 1.0, 1.0, 1.0, 1.0, 1.0, 1.0, 1.0, 1.0, 1.0, 1.0, 1.0, 1.0, 1.0, 1.0, 1.0, 1.0, 1.0, 1.0, 1.0, 1.0, 1.0, 1.0, 1.0, 1.0, 1.0]

>  <TempFactor>  (318) 
[21.5, 44.89, 24.36, 42.16, 38.25, 23.95, 40.64, 20.41, 29.29, 22.5, 27.31, 23.15, 28.56, 41.84, 29.6, 38.53, 33.37, 31.58, 30.86, 27.88, 28.97, 31.52, 43.05, 27.66, 27.42, 21.95, 25.67, 24.02, 25.01, 43.36, 43.87, 19.31, 17.05, 26.62, 26.73, 28.95, 20.4, 17.34, 20.74, 21.57, 21.69, 20.06, 20.47, 18.67, 21.64, 27.5, 29.51, 35.17, 31.37, 18.86]

>  <accession>  (318) 
3ZZC_A

>  <description>  (318) 
Chain A, 3C PROTEINASE [Coxsackievirus B3]

>  <evalue>  (318) 
7.4865399999999999e-87

>  <pdb_code>  (318) 
3ZZC

>  <chain>  (318) 
A

>  <ligands>  (318) 
[{'chain_id': 'A', 'author_residue_number': 1181, 'author_insertion_code': '', 'chem_comp_id': 'G83', 'alternate_conformers': 0, 'entity_id': 2, 'struct_asym_id': 'B', 'residue_number': 1, 'chem_comp_name': 'ETHYL (5S,8S,11R)-8-BENZYL-5-(2-TERT-BUTOXY-2-OXOETHYL)-3,6,9-TRIOXO-11-{[(3S)-2-OXOPYRROLIDIN-3-YL]METHYL}-1-PHENYL-2-OXA-4,7,10-TRIAZATETRADECAN-14-OATE', 'weight': 680.788, 'carbohydrate_polymer': False, 'branch_name': ''}]

>  <ligand_codes>  (318) 
['G83']

>  <cofactor_codes>  (318) 
[]

>  <has_cofactor>  (318) 
False

>  <covalent>  (318) 
True

>  <base_name>  (318) 
3ZZC

>  <lig_resn>  (318) 
G83

>  <lig_resi>  (318) 
1181

>  <lig_chain>  (318) 
A

>  <lig_segi>  (318) 
B

>  <lig_alt>  (318) 


>  <polymer_chain>  (318) 
A

>  <single_smiles>  (318) 
CCOC(=O)CC[C@H](C[C@@H]1CCNC1=O)NC(=O)[C@H](Cc2ccccc2)NC(=O)[C@H](CC(=O)OC(C)(C)C)NC(=O)OCc3ccccc3

$$$$
G83P1S160
     RDKit          3D

 16 15  0  0  0  0  0  0  0  0999 V2000
   -9.8940   12.8970  -36.5940 C   0  0  0  0  0  0  0  0  0  0  0  0
   -9.6510   12.9770  -35.0820 C   0  0  2  0  0  0  0  0  0  0  0  0
   -9.2610   14.3500  -34.7310 N   0  0  0  0  0  0  0  0  0  0  0  0
   -8.4620   12.0930  -34.7840 C   0  0  0  0  0  0  0  0  0  0  0  0
   -9.0700   14.7310  -33.4520 C   0  0  0  0  0  0  0  0  0  0  0  0
   -7.3180   12.4750  -35.0590 O   0  0  0  0  0  0  0  0  0  0  0  0
   -8.5890   16.1350  -33.2460 C   0  0  0  0  0  0  0  0  0  0  0  0
   -9.1660   13.9920  -32.4630 O   0  0  0  0  0  0  0  0  0  0  0  0
   -7.0940   15.9700  -33.0860 C   0  0  0  0  0  0  0  0  0  0  0  0
   -6.3360   17.1850  -33.4620 C   0  0  0  0  0  0  0  0  0  0  0  0
   -6.4670   17.7660  -34.5460 O   0  0  0  0  0  0  0  0  0  0  0  0
   -5.3760   17.6500  -32.4930 O   0  0  0  0  0  0  0  0  0  0  0  0
   -4.0330   17.1570  -32.4230 C   0  0  0  0  0  0  0  0  0  0  0  0
   -3.6770   16.1600  -33.5370 C   0  0  0  0  0  0  0  0  0  0  0  0
   -3.9520   16.4650  -31.0680 C   0  0  0  0  0  0  0  0  0  0  0  0
   -3.0820   18.3540  -32.5240 C   0  0  0  0  0  0  0  0  0  0  0  0
  2  1  1  6
  3  2  1  0
  2  4  1  0
  5  3  1  0
  4  6  2  0
  7  5  1  0
  5  8  2  0
  7  9  1  6
 10  9  1  0
 11 10  2  0
 12 10  1  0
 12 13  1  0
 13 14  1  0
 13 15  1  0
 13 16  1  0
A    2
 C37
A    3
 N33
A    5
 C31
A    6
 O47
A    8
 O35
A    9
 C25
A   10
 C14
A   11
 O1 
A   12
 O2 
A   13
 C29
A   14
 C12
A   15
 C43
A   16
 C45
M  END
>  <XChem_code>  (319) 
G83§1

>  <Occupancy>  (319) 
[1.0, 1.0, 1.0, 1.0, 1.0, 1.0, 1.0, 1.0, 1.0, 1.0, 1.0, 1.0, 1.0, 1.0, 1.0, 1.0, 1.0, 1.0, 1.0, 1.0, 1.0, 1.0, 1.0, 1.0, 1.0, 1.0, 1.0, 1.0, 1.0, 1.0, 1.0, 1.0, 1.0, 1.0, 1.0, 1.0, 1.0, 1.0, 1.0, 1.0, 1.0, 1.0, 1.0, 1.0, 1.0, 1.0, 1.0, 1.0, 1.0, 1.0]

>  <TempFactor>  (319) 
[21.5, 44.89, 24.36, 42.16, 38.25, 23.95, 40.64, 20.41, 29.29, 22.5, 27.31, 23.15, 28.56, 41.84, 29.6, 38.53, 33.37, 31.58, 30.86, 27.88, 28.97, 31.52, 43.05, 27.66, 27.42, 21.95, 25.67, 24.02, 25.01, 43.36, 43.87, 19.31, 17.05, 26.62, 26.73, 28.95, 20.4, 17.34, 20.74, 21.57, 21.69, 20.06, 20.47, 18.67, 21.64, 27.5, 29.51, 35.17, 31.37, 18.86]

>  <accession>  (319) 
3ZZC_A

>  <description>  (319) 
Chain A, 3C PROTEINASE [Coxsackievirus B3]

>  <evalue>  (319) 
7.4865399999999999e-87

>  <pdb_code>  (319) 
3ZZC

>  <chain>  (319) 
A

>  <ligands>  (319) 
[{'chain_id': 'A', 'author_residue_number': 1181, 'author_insertion_code': '', 'chem_comp_id': 'G83', 'alternate_conformers': 0, 'entity_id': 2, 'struct_asym_id': 'B', 'residue_number': 1, 'chem_comp_name': 'ETHYL (5S,8S,11R)-8-BENZYL-5-(2-TERT-BUTOXY-2-OXOETHYL)-3,6,9-TRIOXO-11-{[(3S)-2-OXOPYRROLIDIN-3-YL]METHYL}-1-PHENYL-2-OXA-4,7,10-TRIAZATETRADECAN-14-OATE', 'weight': 680.788, 'carbohydrate_polymer': False, 'branch_name': ''}]

>  <ligand_codes>  (319) 
['G83']

>  <cofactor_codes>  (319) 
[]

>  <has_cofactor>  (319) 
False

>  <covalent>  (319) 
True

>  <base_name>  (319) 
3ZZC

>  <lig_resn>  (319) 
G83

>  <lig_resi>  (319) 
1181

>  <lig_chain>  (319) 
A

>  <lig_segi>  (319) 
B

>  <lig_alt>  (319) 


>  <polymer_chain>  (319) 
A

>  <single_smiles>  (319) 
CCOC(=O)CC[C@H](C[C@@H]1CCNC1=O)NC(=O)[C@H](Cc2ccccc2)NC(=O)[C@H](CC(=O)OC(C)(C)C)NC(=O)OCc3ccccc3

$$$$
G83P1S161
     RDKit          3D

 15 14  0  0  0  0  0  0  0  0999 V2000
   -9.8940   12.8970  -36.5940 C   0  0  0  0  0  0  0  0  0  0  0  0
   -9.6510   12.9770  -35.0820 C   0  0  1  0  0  0  0  0  0  0  0  0
   -8.4620   12.0930  -34.7840 C   0  0  0  0  0  0  0  0  0  0  0  0
   -9.2610   14.3500  -34.7310 N   0  0  0  0  0  0  0  0  0  0  0  0
   -8.7450   10.9170  -34.2200 N   0  0  0  0  0  0  0  0  0  0  0  0
   -7.3180   12.4750  -35.0590 O   0  0  0  0  0  0  0  0  0  0  0  0
   -9.0700   14.7310  -33.4520 C   0  0  0  0  0  0  0  0  0  0  0  0
   -8.5890   16.1350  -33.2460 C   0  0  1  0  0  0  0  0  0  0  0  0
   -9.1660   13.9920  -32.4630 O   0  0  0  0  0  0  0  0  0  0  0  0
   -8.9270   16.6710  -31.9560 N   0  0  0  0  0  0  0  0  0  0  0  0
   -7.0940   15.9700  -33.0860 C   0  0  0  0  0  0  0  0  0  0  0  0
   -9.6140   17.8180  -31.9050 C   0  0  0  0  0  0  0  0  0  0  0  0
   -6.3360   17.1850  -33.4620 C   0  0  0  0  0  0  0  0  0  0  0  0
   -9.9760   18.4340  -32.9180 O   0  0  0  0  0  0  0  0  0  0  0  0
   -6.4670   17.7660  -34.5460 O   0  0  0  0  0  0  0  0  0  0  0  0
  2  1  1  6
  2  3  1  0
  4  2  1  0
  3  5  1  0
  3  6  2  0
  7  4  1  0
  8  7  1  0
  7  9  2  0
 10  8  1  0
  8 11  1  1
 12 10  1  0
 13 11  1  0
 12 14  2  0
 15 13  2  0
A    2
 C37
A    3
 C39
A    4
 N33
A    6
 O47
A    7
 C31
A    8
 C23
A    9
 O35
A   10
 N21
A   11
 C25
A   14
 O19
A   15
 O1 
M  END
>  <XChem_code>  (320) 
G83§1

>  <Occupancy>  (320) 
[1.0, 1.0, 1.0, 1.0, 1.0, 1.0, 1.0, 1.0, 1.0, 1.0, 1.0, 1.0, 1.0, 1.0, 1.0, 1.0, 1.0, 1.0, 1.0, 1.0, 1.0, 1.0, 1.0, 1.0, 1.0, 1.0, 1.0, 1.0, 1.0, 1.0, 1.0, 1.0, 1.0, 1.0, 1.0, 1.0, 1.0, 1.0, 1.0, 1.0, 1.0, 1.0, 1.0, 1.0, 1.0, 1.0, 1.0, 1.0, 1.0, 1.0]

>  <TempFactor>  (320) 
[21.5, 44.89, 24.36, 42.16, 38.25, 23.95, 40.64, 20.41, 29.29, 22.5, 27.31, 23.15, 28.56, 41.84, 29.6, 38.53, 33.37, 31.58, 30.86, 27.88, 28.97, 31.52, 43.05, 27.66, 27.42, 21.95, 25.67, 24.02, 25.01, 43.36, 43.87, 19.31, 17.05, 26.62, 26.73, 28.95, 20.4, 17.34, 20.74, 21.57, 21.69, 20.06, 20.47, 18.67, 21.64, 27.5, 29.51, 35.17, 31.37, 18.86]

>  <accession>  (320) 
3ZZC_A

>  <description>  (320) 
Chain A, 3C PROTEINASE [Coxsackievirus B3]

>  <evalue>  (320) 
7.4865399999999999e-87

>  <pdb_code>  (320) 
3ZZC

>  <chain>  (320) 
A

>  <ligands>  (320) 
[{'chain_id': 'A', 'author_residue_number': 1181, 'author_insertion_code': '', 'chem_comp_id': 'G83', 'alternate_conformers': 0, 'entity_id': 2, 'struct_asym_id': 'B', 'residue_number': 1, 'chem_comp_name': 'ETHYL (5S,8S,11R)-8-BENZYL-5-(2-TERT-BUTOXY-2-OXOETHYL)-3,6,9-TRIOXO-11-{[(3S)-2-OXOPYRROLIDIN-3-YL]METHYL}-1-PHENYL-2-OXA-4,7,10-TRIAZATETRADECAN-14-OATE', 'weight': 680.788, 'carbohydrate_polymer': False, 'branch_name': ''}]

>  <ligand_codes>  (320) 
['G83']

>  <cofactor_codes>  (320) 
[]

>  <has_cofactor>  (320) 
False

>  <covalent>  (320) 
True

>  <base_name>  (320) 
3ZZC

>  <lig_resn>  (320) 
G83

>  <lig_resi>  (320) 
1181

>  <lig_chain>  (320) 
A

>  <lig_segi>  (320) 
B

>  <lig_alt>  (320) 


>  <polymer_chain>  (320) 
A

>  <single_smiles>  (320) 
CCOC(=O)CC[C@H](C[C@@H]1CCNC1=O)NC(=O)[C@H](Cc2ccccc2)NC(=O)[C@H](CC(=O)OC(C)(C)C)NC(=O)OCc3ccccc3

$$$$
G83P1S162
     RDKit          3D

 13 12  0  0  0  0  0  0  0  0999 V2000
   -9.8940   12.8970  -36.5940 C   0  0  0  0  0  0  0  0  0  0  0  0
   -9.6510   12.9770  -35.0820 C   0  0  1  0  0  0  0  0  0  0  0  0
   -8.4620   12.0930  -34.7840 C   0  0  0  0  0  0  0  0  0  0  0  0
   -9.2610   14.3500  -34.7310 N   0  0  0  0  0  0  0  0  0  0  0  0
   -8.7450   10.9170  -34.2200 N   0  0  0  0  0  0  0  0  0  0  0  0
   -7.3180   12.4750  -35.0590 O   0  0  0  0  0  0  0  0  0  0  0  0
   -9.0700   14.7310  -33.4520 C   0  0  0  0  0  0  0  0  0  0  0  0
   -8.5890   16.1350  -33.2460 C   0  0  1  0  0  0  0  0  0  0  0  0
   -9.1660   13.9920  -32.4630 O   0  0  0  0  0  0  0  0  0  0  0  0
   -8.9270   16.6710  -31.9560 N   0  0  0  0  0  0  0  0  0  0  0  0
   -7.0940   15.9700  -33.0860 C   0  0  0  0  0  0  0  0  0  0  0  0
   -6.3360   17.1850  -33.4620 C   0  0  0  0  0  0  0  0  0  0  0  0
   -6.4670   17.7660  -34.5460 O   0  0  0  0  0  0  0  0  0  0  0  0
  2  1  1  6
  2  3  1  0
  4  2  1  0
  3  5  1  0
  3  6  2  0
  7  4  1  0
  8  7  1  0
  7  9  2  0
  8 10  1  1
  8 11  1  0
 12 11  1  0
 13 12  2  0
A    2
 C37
A    3
 C39
A    4
 N33
A    6
 O47
A    7
 C31
A    8
 C23
A    9
 O35
A   11
 C25
A   13
 O1 
M  END
>  <XChem_code>  (321) 
G83§1

>  <Occupancy>  (321) 
[1.0, 1.0, 1.0, 1.0, 1.0, 1.0, 1.0, 1.0, 1.0, 1.0, 1.0, 1.0, 1.0, 1.0, 1.0, 1.0, 1.0, 1.0, 1.0, 1.0, 1.0, 1.0, 1.0, 1.0, 1.0, 1.0, 1.0, 1.0, 1.0, 1.0, 1.0, 1.0, 1.0, 1.0, 1.0, 1.0, 1.0, 1.0, 1.0, 1.0, 1.0, 1.0, 1.0, 1.0, 1.0, 1.0, 1.0, 1.0, 1.0, 1.0]

>  <TempFactor>  (321) 
[21.5, 44.89, 24.36, 42.16, 38.25, 23.95, 40.64, 20.41, 29.29, 22.5, 27.31, 23.15, 28.56, 41.84, 29.6, 38.53, 33.37, 31.58, 30.86, 27.88, 28.97, 31.52, 43.05, 27.66, 27.42, 21.95, 25.67, 24.02, 25.01, 43.36, 43.87, 19.31, 17.05, 26.62, 26.73, 28.95, 20.4, 17.34, 20.74, 21.57, 21.69, 20.06, 20.47, 18.67, 21.64, 27.5, 29.51, 35.17, 31.37, 18.86]

>  <accession>  (321) 
3ZZC_A

>  <description>  (321) 
Chain A, 3C PROTEINASE [Coxsackievirus B3]

>  <evalue>  (321) 
7.4865399999999999e-87

>  <pdb_code>  (321) 
3ZZC

>  <chain>  (321) 
A

>  <ligands>  (321) 
[{'chain_id': 'A', 'author_residue_number': 1181, 'author_insertion_code': '', 'chem_comp_id': 'G83', 'alternate_conformers': 0, 'entity_id': 2, 'struct_asym_id': 'B', 'residue_number': 1, 'chem_comp_name': 'ETHYL (5S,8S,11R)-8-BENZYL-5-(2-TERT-BUTOXY-2-OXOETHYL)-3,6,9-TRIOXO-11-{[(3S)-2-OXOPYRROLIDIN-3-YL]METHYL}-1-PHENYL-2-OXA-4,7,10-TRIAZATETRADECAN-14-OATE', 'weight': 680.788, 'carbohydrate_polymer': False, 'branch_name': ''}]

>  <ligand_codes>  (321) 
['G83']

>  <cofactor_codes>  (321) 
[]

>  <has_cofactor>  (321) 
False

>  <covalent>  (321) 
True

>  <base_name>  (321) 
3ZZC

>  <lig_resn>  (321) 
G83

>  <lig_resi>  (321) 
1181

>  <lig_chain>  (321) 
A

>  <lig_segi>  (321) 
B

>  <lig_alt>  (321) 


>  <polymer_chain>  (321) 
A

>  <single_smiles>  (321) 
CCOC(=O)CC[C@H](C[C@@H]1CCNC1=O)NC(=O)[C@H](Cc2ccccc2)NC(=O)[C@H](CC(=O)OC(C)(C)C)NC(=O)OCc3ccccc3

$$$$
G83P1S163
     RDKit          3D

 11 10  0  0  0  0  0  0  0  0999 V2000
   -9.8940   12.8970  -36.5940 C   0  0  0  0  0  0  0  0  0  0  0  0
   -9.6510   12.9770  -35.0820 C   0  0  2  0  0  0  0  0  0  0  0  0
   -9.2610   14.3500  -34.7310 N   0  0  0  0  0  0  0  0  0  0  0  0
   -8.4620   12.0930  -34.7840 C   0  0  0  0  0  0  0  0  0  0  0  0
   -9.0700   14.7310  -33.4520 C   0  0  0  0  0  0  0  0  0  0  0  0
   -7.3180   12.4750  -35.0590 O   0  0  0  0  0  0  0  0  0  0  0  0
   -8.5890   16.1350  -33.2460 C   0  0  0  0  0  0  0  0  0  0  0  0
   -9.1660   13.9920  -32.4630 O   0  0  0  0  0  0  0  0  0  0  0  0
   -7.0940   15.9700  -33.0860 C   0  0  0  0  0  0  0  0  0  0  0  0
   -6.3360   17.1850  -33.4620 C   0  0  0  0  0  0  0  0  0  0  0  0
   -6.4670   17.7660  -34.5460 O   0  0  0  0  0  0  0  0  0  0  0  0
  2  1  1  6
  3  2  1  0
  2  4  1  0
  5  3  1  0
  4  6  2  0
  7  5  1  0
  5  8  2  0
  7  9  1  6
 10  9  1  0
 11 10  2  0
A    2
 C37
A    3
 N33
A    5
 C31
A    6
 O47
A    8
 O35
A    9
 C25
A   11
 O1 
M  END
>  <XChem_code>  (322) 
G83§1

>  <Occupancy>  (322) 
[1.0, 1.0, 1.0, 1.0, 1.0, 1.0, 1.0, 1.0, 1.0, 1.0, 1.0, 1.0, 1.0, 1.0, 1.0, 1.0, 1.0, 1.0, 1.0, 1.0, 1.0, 1.0, 1.0, 1.0, 1.0, 1.0, 1.0, 1.0, 1.0, 1.0, 1.0, 1.0, 1.0, 1.0, 1.0, 1.0, 1.0, 1.0, 1.0, 1.0, 1.0, 1.0, 1.0, 1.0, 1.0, 1.0, 1.0, 1.0, 1.0, 1.0]

>  <TempFactor>  (322) 
[21.5, 44.89, 24.36, 42.16, 38.25, 23.95, 40.64, 20.41, 29.29, 22.5, 27.31, 23.15, 28.56, 41.84, 29.6, 38.53, 33.37, 31.58, 30.86, 27.88, 28.97, 31.52, 43.05, 27.66, 27.42, 21.95, 25.67, 24.02, 25.01, 43.36, 43.87, 19.31, 17.05, 26.62, 26.73, 28.95, 20.4, 17.34, 20.74, 21.57, 21.69, 20.06, 20.47, 18.67, 21.64, 27.5, 29.51, 35.17, 31.37, 18.86]

>  <accession>  (322) 
3ZZC_A

>  <description>  (322) 
Chain A, 3C PROTEINASE [Coxsackievirus B3]

>  <evalue>  (322) 
7.4865399999999999e-87

>  <pdb_code>  (322) 
3ZZC

>  <chain>  (322) 
A

>  <ligands>  (322) 
[{'chain_id': 'A', 'author_residue_number': 1181, 'author_insertion_code': '', 'chem_comp_id': 'G83', 'alternate_conformers': 0, 'entity_id': 2, 'struct_asym_id': 'B', 'residue_number': 1, 'chem_comp_name': 'ETHYL (5S,8S,11R)-8-BENZYL-5-(2-TERT-BUTOXY-2-OXOETHYL)-3,6,9-TRIOXO-11-{[(3S)-2-OXOPYRROLIDIN-3-YL]METHYL}-1-PHENYL-2-OXA-4,7,10-TRIAZATETRADECAN-14-OATE', 'weight': 680.788, 'carbohydrate_polymer': False, 'branch_name': ''}]

>  <ligand_codes>  (322) 
['G83']

>  <cofactor_codes>  (322) 
[]

>  <has_cofactor>  (322) 
False

>  <covalent>  (322) 
True

>  <base_name>  (322) 
3ZZC

>  <lig_resn>  (322) 
G83

>  <lig_resi>  (322) 
1181

>  <lig_chain>  (322) 
A

>  <lig_segi>  (322) 
B

>  <lig_alt>  (322) 


>  <polymer_chain>  (322) 
A

>  <single_smiles>  (322) 
CCOC(=O)CC[C@H](C[C@@H]1CCNC1=O)NC(=O)[C@H](Cc2ccccc2)NC(=O)[C@H](CC(=O)OC(C)(C)C)NC(=O)OCc3ccccc3

$$$$
G83P1S164
     RDKit          3D

 29 29  0  0  0  0  0  0  0  0999 V2000
   -7.6750    9.9230  -32.2970 C   0  0  0  0  0  0  0  0  0  0  0  0
   -7.7310    9.9410  -33.8290 C   0  0  2  0  0  0  0  0  0  0  0  0
   -8.7450   10.9170  -34.2200 N   0  0  0  0  0  0  0  0  0  0  0  0
   -8.1830    8.5770  -34.4040 C   0  0  2  0  0  0  0  0  0  0  0  0
   -8.4620   12.0930  -34.7840 C   0  0  0  0  0  0  0  0  0  0  0  0
   -8.1980    8.6230  -35.9360 C   0  0  0  0  0  0  0  0  0  0  0  0
   -9.8310    8.1200  -33.8380 R   0  0  0  0  0  0  0  0  0  0  0  0
   -9.6510   12.9770  -35.0820 C   0  0  1  0  0  0  0  0  0  0  0  0
   -7.3180   12.4750  -35.0590 O   0  0  0  0  0  0  0  0  0  0  0  0
   -6.8090    8.9220  -36.4600 C   0  0  0  0  0  0  0  0  0  0  0  0
   -9.2610   14.3500  -34.7310 N   0  0  0  0  0  0  0  0  0  0  0  0
   -9.8940   12.8970  -36.5940 C   0  0  0  0  0  0  0  0  0  0  0  0
   -6.6580    9.7290  -37.6550 O   0  0  0  0  0  0  0  0  0  0  0  0
   -5.8080    8.4980  -35.8980 O   0  0  0  0  0  0  0  0  0  0  0  0
   -9.0700   14.7310  -33.4520 C   0  0  0  0  0  0  0  0  0  0  0  0
  -11.1210   13.7000  -36.9770 C   0  0  0  0  0  0  0  0  0  0  0  0
   -5.3610   10.2030  -38.0740 C   0  0  0  0  0  0  0  0  0  0  0  0
   -8.5890   16.1350  -33.2460 C   0  0  0  0  0  0  0  0  0  0  0  0
   -9.1660   13.9920  -32.4630 O   0  0  0  0  0  0  0  0  0  0  0  0
  -12.3400   13.5180  -36.3250 C   0  0  0  0  0  0  0  0  0  0  0  0
  -11.0320   14.6580  -38.0030 C   0  0  0  0  0  0  0  0  0  0  0  0
   -4.5750    9.1110  -38.7950 C   0  0  0  0  0  0  0  0  0  0  0  0
   -7.0940   15.9700  -33.0860 C   0  0  0  0  0  0  0  0  0  0  0  0
  -13.4670   14.3010  -36.6620 C   0  0  0  0  0  0  0  0  0  0  0  0
  -12.1840   15.4150  -38.3560 C   0  0  0  0  0  0  0  0  0  0  0  0
   -6.3360   17.1850  -33.4620 C   0  0  0  0  0  0  0  0  0  0  0  0
  -13.4100   15.2640  -37.6860 C   0  0  0  0  0  0  0  0  0  0  0  0
   -5.3760   17.6500  -32.4930 O   0  0  0  0  0  0  0  0  0  0  0  0
   -6.4670   17.7660  -34.5460 O   0  0  0  0  0  0  0  0  0  0  0  0
  2  1  1  1
  3  2  1  0
  2  4  1  0
  5  3  1  0
  4  6  1  0
  4  7  1  1
  8  5  1  0
  5  9  2  0
  6 10  1  0
 11  8  1  0
  8 12  1  6
 10 13  1  0
 10 14  2  0
 15 11  1  0
 12 16  1  0
 17 13  1  0
 18 15  1  0
 15 19  2  0
 16 20  2  0
 16 21  1  0
 17 22  1  0
 18 23  1  6
 24 20  1  0
 25 21  2  0
 26 23  1  0
 24 27  2  0
 27 25  1  0
 28 26  1  0
 29 26  2  0
V    7 *
A    2
 C57
A    3
 N49
A    4
 C63
A    5
 C39
A    6
 C82
A    7
 X  
A    8
 C37
A    9
 O47
A   10
 C84
A   11
 N33
A   12
 C41
A   13
 O86
A   14
 O88
A   15
 C31
A   16
 C51
A   17
 C3 
A   19
 O35
A   20
 C53
A   21
 C55
A   22
 C5 
A   23
 C25
A   24
 C7 
A   25
 C11
A   26
 C14
A   27
 C9 
A   29
 O1 
M  END
>  <XChem_code>  (323) 
G83§1

>  <Occupancy>  (323) 
[1.0, 1.0, 1.0, 1.0, 1.0, 1.0, 1.0, 1.0, 1.0, 1.0, 1.0, 1.0, 1.0, 1.0, 1.0, 1.0, 1.0, 1.0, 1.0, 1.0, 1.0, 1.0, 1.0, 1.0, 1.0, 1.0, 1.0, 1.0, 1.0, 1.0, 1.0, 1.0, 1.0, 1.0, 1.0, 1.0, 1.0, 1.0, 1.0, 1.0, 1.0, 1.0, 1.0, 1.0, 1.0, 1.0, 1.0, 1.0, 1.0, 1.0]

>  <TempFactor>  (323) 
[21.5, 44.89, 24.36, 42.16, 38.25, 23.95, 40.64, 20.41, 29.29, 22.5, 27.31, 23.15, 28.56, 41.84, 29.6, 38.53, 33.37, 31.58, 30.86, 27.88, 28.97, 31.52, 43.05, 27.66, 27.42, 21.95, 25.67, 24.02, 25.01, 43.36, 43.87, 19.31, 17.05, 26.62, 26.73, 28.95, 20.4, 17.34, 20.74, 21.57, 21.69, 20.06, 20.47, 18.67, 21.64, 27.5, 29.51, 35.17, 31.37, 18.86]

>  <accession>  (323) 
3ZZC_A

>  <description>  (323) 
Chain A, 3C PROTEINASE [Coxsackievirus B3]

>  <evalue>  (323) 
7.4865399999999999e-87

>  <pdb_code>  (323) 
3ZZC

>  <chain>  (323) 
A

>  <ligands>  (323) 
[{'chain_id': 'A', 'author_residue_number': 1181, 'author_insertion_code': '', 'chem_comp_id': 'G83', 'alternate_conformers': 0, 'entity_id': 2, 'struct_asym_id': 'B', 'residue_number': 1, 'chem_comp_name': 'ETHYL (5S,8S,11R)-8-BENZYL-5-(2-TERT-BUTOXY-2-OXOETHYL)-3,6,9-TRIOXO-11-{[(3S)-2-OXOPYRROLIDIN-3-YL]METHYL}-1-PHENYL-2-OXA-4,7,10-TRIAZATETRADECAN-14-OATE', 'weight': 680.788, 'carbohydrate_polymer': False, 'branch_name': ''}]

>  <ligand_codes>  (323) 
['G83']

>  <cofactor_codes>  (323) 
[]

>  <has_cofactor>  (323) 
False

>  <covalent>  (323) 
True

>  <base_name>  (323) 
3ZZC

>  <lig_resn>  (323) 
G83

>  <lig_resi>  (323) 
1181

>  <lig_chain>  (323) 
A

>  <lig_segi>  (323) 
B

>  <lig_alt>  (323) 


>  <polymer_chain>  (323) 
A

>  <single_smiles>  (323) 
CCOC(=O)CC[C@H](C[C@@H]1CCNC1=O)NC(=O)[C@H](Cc2ccccc2)NC(=O)[C@H](CC(=O)OC(C)(C)C)NC(=O)OCc3ccccc3

$$$$
G83P1S165
     RDKit          3D

 29 29  0  0  0  0  0  0  0  0999 V2000
   -9.8940   12.8970  -36.5940 C   0  0  0  0  0  0  0  0  0  0  0  0
   -9.6510   12.9770  -35.0820 C   0  0  2  0  0  0  0  0  0  0  0  0
   -9.2610   14.3500  -34.7310 N   0  0  0  0  0  0  0  0  0  0  0  0
   -8.4620   12.0930  -34.7840 C   0  0  0  0  0  0  0  0  0  0  0  0
   -9.0700   14.7310  -33.4520 C   0  0  0  0  0  0  0  0  0  0  0  0
   -7.3180   12.4750  -35.0590 O   0  0  0  0  0  0  0  0  0  0  0  0
   -8.7450   10.9170  -34.2200 N   0  0  0  0  0  0  0  0  0  0  0  0
   -8.5890   16.1350  -33.2460 C   0  0  0  0  0  0  0  0  0  0  0  0
   -9.1660   13.9920  -32.4630 O   0  0  0  0  0  0  0  0  0  0  0  0
   -7.7310    9.9410  -33.8290 C   0  0  1  0  0  0  0  0  0  0  0  0
   -7.0940   15.9700  -33.0860 C   0  0  0  0  0  0  0  0  0  0  0  0
   -7.6750    9.9230  -32.2970 C   0  0  0  0  0  0  0  0  0  0  0  0
   -8.1830    8.5770  -34.4040 C   0  0  2  0  0  0  0  0  0  0  0  0
   -6.3360   17.1850  -33.4620 C   0  0  0  0  0  0  0  0  0  0  0  0
   -7.2530   11.2580  -31.6380 C   0  0  1  0  0  0  0  0  0  0  0  0
   -8.1980    8.6230  -35.9360 C   0  0  0  0  0  0  0  0  0  0  0  0
   -9.8310    8.1200  -33.8380 R   0  0  0  0  0  0  0  0  0  0  0  0
   -5.3760   17.6500  -32.4930 O   0  0  0  0  0  0  0  0  0  0  0  0
   -6.4670   17.7660  -34.5460 O   0  0  0  0  0  0  0  0  0  0  0  0
   -7.1040   11.1020  -30.1450 C   0  0  0  0  0  0  0  0  0  0  0  0
   -5.9010   11.8850  -31.9840 C   0  0  0  0  0  0  0  0  0  0  0  0
   -6.8090    8.9220  -36.4600 C   0  0  0  0  0  0  0  0  0  0  0  0
   -7.8010   10.3100  -29.5070 O   0  0  0  0  0  0  0  0  0  0  0  0
   -6.2280   11.9150  -29.7100 N   0  0  0  0  0  0  0  0  0  0  0  0
   -5.4330   12.6240  -30.7080 C   0  0  0  0  0  0  0  0  0  0  0  0
   -6.6580    9.7290  -37.6550 O   0  0  0  0  0  0  0  0  0  0  0  0
   -5.8080    8.4980  -35.8980 O   0  0  0  0  0  0  0  0  0  0  0  0
   -5.3610   10.2030  -38.0740 C   0  0  0  0  0  0  0  0  0  0  0  0
   -4.5750    9.1110  -38.7950 C   0  0  0  0  0  0  0  0  0  0  0  0
  2  1  1  6
  3  2  1  0
  2  4  1  0
  5  3  1  0
  4  6  2  0
  4  7  1  0
  8  5  1  0
  5  9  2  0
  7 10  1  0
  8 11  1  6
 10 12  1  1
 10 13  1  0
 14 11  1  0
 15 12  1  6
 13 16  1  0
 13 17  1  1
 18 14  1  0
 19 14  2  0
 15 20  1  0
 15 21  1  0
 16 22  1  0
 20 23  2  0
 20 24  1  0
 25 21  1  0
 22 26  1  0
 22 27  2  0
 24 25  1  0
 28 26  1  0
 28 29  1  0
V   17 *
A    2
 C37
A    3
 N33
A    4
 C39
A    5
 C31
A    6
 O47
A    7
 N49
A    9
 O35
A   10
 C57
A   11
 C25
A   12
 C59
A   13
 C63
A   14
 C14
A   15
 C61
A   16
 C82
A   17
 X  
A   19
 O1 
A   20
 C65
A   21
 C73
A   22
 C84
A   23
 O66
A   24
 N69
A   25
 C71
A   26
 O86
A   27
 O88
A   28
 C3 
A   29
 C5 
M  END
>  <XChem_code>  (324) 
G83§1

>  <Occupancy>  (324) 
[1.0, 1.0, 1.0, 1.0, 1.0, 1.0, 1.0, 1.0, 1.0, 1.0, 1.0, 1.0, 1.0, 1.0, 1.0, 1.0, 1.0, 1.0, 1.0, 1.0, 1.0, 1.0, 1.0, 1.0, 1.0, 1.0, 1.0, 1.0, 1.0, 1.0, 1.0, 1.0, 1.0, 1.0, 1.0, 1.0, 1.0, 1.0, 1.0, 1.0, 1.0, 1.0, 1.0, 1.0, 1.0, 1.0, 1.0, 1.0, 1.0, 1.0]

>  <TempFactor>  (324) 
[21.5, 44.89, 24.36, 42.16, 38.25, 23.95, 40.64, 20.41, 29.29, 22.5, 27.31, 23.15, 28.56, 41.84, 29.6, 38.53, 33.37, 31.58, 30.86, 27.88, 28.97, 31.52, 43.05, 27.66, 27.42, 21.95, 25.67, 24.02, 25.01, 43.36, 43.87, 19.31, 17.05, 26.62, 26.73, 28.95, 20.4, 17.34, 20.74, 21.57, 21.69, 20.06, 20.47, 18.67, 21.64, 27.5, 29.51, 35.17, 31.37, 18.86]

>  <accession>  (324) 
3ZZC_A

>  <description>  (324) 
Chain A, 3C PROTEINASE [Coxsackievirus B3]

>  <evalue>  (324) 
7.4865399999999999e-87

>  <pdb_code>  (324) 
3ZZC

>  <chain>  (324) 
A

>  <ligands>  (324) 
[{'chain_id': 'A', 'author_residue_number': 1181, 'author_insertion_code': '', 'chem_comp_id': 'G83', 'alternate_conformers': 0, 'entity_id': 2, 'struct_asym_id': 'B', 'residue_number': 1, 'chem_comp_name': 'ETHYL (5S,8S,11R)-8-BENZYL-5-(2-TERT-BUTOXY-2-OXOETHYL)-3,6,9-TRIOXO-11-{[(3S)-2-OXOPYRROLIDIN-3-YL]METHYL}-1-PHENYL-2-OXA-4,7,10-TRIAZATETRADECAN-14-OATE', 'weight': 680.788, 'carbohydrate_polymer': False, 'branch_name': ''}]

>  <ligand_codes>  (324) 
['G83']

>  <cofactor_codes>  (324) 
[]

>  <has_cofactor>  (324) 
False

>  <covalent>  (324) 
True

>  <base_name>  (324) 
3ZZC

>  <lig_resn>  (324) 
G83

>  <lig_resi>  (324) 
1181

>  <lig_chain>  (324) 
A

>  <lig_segi>  (324) 
B

>  <lig_alt>  (324) 


>  <polymer_chain>  (324) 
A

>  <single_smiles>  (324) 
CCOC(=O)CC[C@H](C[C@@H]1CCNC1=O)NC(=O)[C@H](Cc2ccccc2)NC(=O)[C@H](CC(=O)OC(C)(C)C)NC(=O)OCc3ccccc3

$$$$
G83P1S166
     RDKit          3D

 13 12  0  0  0  0  0  0  0  0999 V2000
  -10.3020   19.6950  -30.3210 C   0  0  0  0  0  0  0  0  0  0  0  0
   -9.9650   18.3270  -30.5810 O   0  0  0  0  0  0  0  0  0  0  0  0
   -9.6140   17.8180  -31.9050 C   0  0  0  0  0  0  0  0  0  0  0  0
   -8.9270   16.6710  -31.9560 N   0  0  0  0  0  0  0  0  0  0  0  0
   -9.9760   18.4340  -32.9180 O   0  0  0  0  0  0  0  0  0  0  0  0
   -8.5890   16.1350  -33.2460 C   0  0  2  0  0  0  0  0  0  0  0  0
   -9.0700   14.7310  -33.4520 C   0  0  0  0  0  0  0  0  0  0  0  0
   -7.0940   15.9700  -33.0860 C   0  0  0  0  0  0  0  0  0  0  0  0
   -9.2610   14.3500  -34.7310 N   0  0  0  0  0  0  0  0  0  0  0  0
   -9.1660   13.9920  -32.4630 O   0  0  0  0  0  0  0  0  0  0  0  0
   -6.3360   17.1850  -33.4620 C   0  0  0  0  0  0  0  0  0  0  0  0
   -5.3760   17.6500  -32.4930 O   0  0  0  0  0  0  0  0  0  0  0  0
   -6.4670   17.7660  -34.5460 O   0  0  0  0  0  0  0  0  0  0  0  0
  1  2  1  0
  2  3  1  0
  3  4  1  0
  3  5  2  0
  4  6  1  0
  6  7  1  0
  6  8  1  1
  7  9  1  0
  7 10  2  0
 11  8  1  0
 12 11  1  0
 13 11  2  0
A    2
 O15
A    3
 C17
A    4
 N21
A    5
 O19
A    6
 C23
A    7
 C31
A    8
 C25
A   10
 O35
A   11
 C14
A   13
 O1 
M  END
>  <XChem_code>  (325) 
G83§1

>  <Occupancy>  (325) 
[1.0, 1.0, 1.0, 1.0, 1.0, 1.0, 1.0, 1.0, 1.0, 1.0, 1.0, 1.0, 1.0, 1.0, 1.0, 1.0, 1.0, 1.0, 1.0, 1.0, 1.0, 1.0, 1.0, 1.0, 1.0, 1.0, 1.0, 1.0, 1.0, 1.0, 1.0, 1.0, 1.0, 1.0, 1.0, 1.0, 1.0, 1.0, 1.0, 1.0, 1.0, 1.0, 1.0, 1.0, 1.0, 1.0, 1.0, 1.0, 1.0, 1.0]

>  <TempFactor>  (325) 
[21.5, 44.89, 24.36, 42.16, 38.25, 23.95, 40.64, 20.41, 29.29, 22.5, 27.31, 23.15, 28.56, 41.84, 29.6, 38.53, 33.37, 31.58, 30.86, 27.88, 28.97, 31.52, 43.05, 27.66, 27.42, 21.95, 25.67, 24.02, 25.01, 43.36, 43.87, 19.31, 17.05, 26.62, 26.73, 28.95, 20.4, 17.34, 20.74, 21.57, 21.69, 20.06, 20.47, 18.67, 21.64, 27.5, 29.51, 35.17, 31.37, 18.86]

>  <accession>  (325) 
3ZZC_A

>  <description>  (325) 
Chain A, 3C PROTEINASE [Coxsackievirus B3]

>  <evalue>  (325) 
7.4865399999999999e-87

>  <pdb_code>  (325) 
3ZZC

>  <chain>  (325) 
A

>  <ligands>  (325) 
[{'chain_id': 'A', 'author_residue_number': 1181, 'author_insertion_code': '', 'chem_comp_id': 'G83', 'alternate_conformers': 0, 'entity_id': 2, 'struct_asym_id': 'B', 'residue_number': 1, 'chem_comp_name': 'ETHYL (5S,8S,11R)-8-BENZYL-5-(2-TERT-BUTOXY-2-OXOETHYL)-3,6,9-TRIOXO-11-{[(3S)-2-OXOPYRROLIDIN-3-YL]METHYL}-1-PHENYL-2-OXA-4,7,10-TRIAZATETRADECAN-14-OATE', 'weight': 680.788, 'carbohydrate_polymer': False, 'branch_name': ''}]

>  <ligand_codes>  (325) 
['G83']

>  <cofactor_codes>  (325) 
[]

>  <has_cofactor>  (325) 
False

>  <covalent>  (325) 
True

>  <base_name>  (325) 
3ZZC

>  <lig_resn>  (325) 
G83

>  <lig_resi>  (325) 
1181

>  <lig_chain>  (325) 
A

>  <lig_segi>  (325) 
B

>  <lig_alt>  (325) 


>  <polymer_chain>  (325) 
A

>  <single_smiles>  (325) 
CCOC(=O)CC[C@H](C[C@@H]1CCNC1=O)NC(=O)[C@H](Cc2ccccc2)NC(=O)[C@H](CC(=O)OC(C)(C)C)NC(=O)OCc3ccccc3

$$$$
G83P1S167
     RDKit          3D

 24 24  0  0  0  0  0  0  0  0999 V2000
   -9.8940   12.8970  -36.5940 C   0  0  0  0  0  0  0  0  0  0  0  0
   -9.6510   12.9770  -35.0820 C   0  0  1  0  0  0  0  0  0  0  0  0
   -8.4620   12.0930  -34.7840 C   0  0  0  0  0  0  0  0  0  0  0  0
   -9.2610   14.3500  -34.7310 N   0  0  0  0  0  0  0  0  0  0  0  0
   -8.7450   10.9170  -34.2200 N   0  0  0  0  0  0  0  0  0  0  0  0
   -7.3180   12.4750  -35.0590 O   0  0  0  0  0  0  0  0  0  0  0  0
   -9.0700   14.7310  -33.4520 C   0  0  0  0  0  0  0  0  0  0  0  0
   -8.5890   16.1350  -33.2460 C   0  0  2  0  0  0  0  0  0  0  0  0
   -9.1660   13.9920  -32.4630 O   0  0  0  0  0  0  0  0  0  0  0  0
   -7.0940   15.9700  -33.0860 C   0  0  0  0  0  0  0  0  0  0  0  0
   -8.9270   16.6710  -31.9560 N   0  0  0  0  0  0  0  0  0  0  0  0
   -6.3360   17.1850  -33.4620 C   0  0  0  0  0  0  0  0  0  0  0  0
   -9.6140   17.8180  -31.9050 C   0  0  0  0  0  0  0  0  0  0  0  0
   -5.3760   17.6500  -32.4930 O   0  0  0  0  0  0  0  0  0  0  0  0
   -6.4670   17.7660  -34.5460 O   0  0  0  0  0  0  0  0  0  0  0  0
   -9.9650   18.3270  -30.5810 O   0  0  0  0  0  0  0  0  0  0  0  0
   -9.9760   18.4340  -32.9180 O   0  0  0  0  0  0  0  0  0  0  0  0
  -10.3020   19.6950  -30.3210 C   0  0  0  0  0  0  0  0  0  0  0  0
  -10.4040   19.8340  -28.8340 C   0  0  0  0  0  0  0  0  0  0  0  0
   -9.6890   20.8420  -28.1960 C   0  0  0  0  0  0  0  0  0  0  0  0
  -11.1970   18.9310  -28.1220 C   0  0  0  0  0  0  0  0  0  0  0  0
   -9.7810   20.9510  -26.7880 C   0  0  0  0  0  0  0  0  0  0  0  0
  -11.3130   19.0390  -26.7440 C   0  0  0  0  0  0  0  0  0  0  0  0
  -10.5960   20.0640  -26.0750 C   0  0  0  0  0  0  0  0  0  0  0  0
  2  1  1  6
  2  3  1  0
  4  2  1  0
  3  5  1  0
  3  6  2  0
  7  4  1  0
  8  7  1  0
  7  9  2  0
  8 10  1  1
 11  8  1  0
 12 10  1  0
 13 11  1  0
 14 12  1  0
 15 12  2  0
 16 13  1  0
 13 17  2  0
 18 16  1  0
 19 18  1  0
 20 19  2  0
 19 21  1  0
 22 20  1  0
 21 23  2  0
 22 24  2  0
 23 24  1  0
A    2
 C37
A    3
 C39
A    4
 N33
A    6
 O47
A    7
 C31
A    8
 C23
A    9
 O35
A   10
 C25
A   11
 N21
A   12
 C14
A   13
 C17
A   15
 O1 
A   16
 O15
A   17
 O19
A   18
 C13
A   19
 C4 
A   20
 C2 
A   21
 C6 
A   22
 C1 
A   23
 C8 
A   24
 C10
M  END
>  <XChem_code>  (326) 
G83§1

>  <Occupancy>  (326) 
[1.0, 1.0, 1.0, 1.0, 1.0, 1.0, 1.0, 1.0, 1.0, 1.0, 1.0, 1.0, 1.0, 1.0, 1.0, 1.0, 1.0, 1.0, 1.0, 1.0, 1.0, 1.0, 1.0, 1.0, 1.0, 1.0, 1.0, 1.0, 1.0, 1.0, 1.0, 1.0, 1.0, 1.0, 1.0, 1.0, 1.0, 1.0, 1.0, 1.0, 1.0, 1.0, 1.0, 1.0, 1.0, 1.0, 1.0, 1.0, 1.0, 1.0]

>  <TempFactor>  (326) 
[21.5, 44.89, 24.36, 42.16, 38.25, 23.95, 40.64, 20.41, 29.29, 22.5, 27.31, 23.15, 28.56, 41.84, 29.6, 38.53, 33.37, 31.58, 30.86, 27.88, 28.97, 31.52, 43.05, 27.66, 27.42, 21.95, 25.67, 24.02, 25.01, 43.36, 43.87, 19.31, 17.05, 26.62, 26.73, 28.95, 20.4, 17.34, 20.74, 21.57, 21.69, 20.06, 20.47, 18.67, 21.64, 27.5, 29.51, 35.17, 31.37, 18.86]

>  <accession>  (326) 
3ZZC_A

>  <description>  (326) 
Chain A, 3C PROTEINASE [Coxsackievirus B3]

>  <evalue>  (326) 
7.4865399999999999e-87

>  <pdb_code>  (326) 
3ZZC

>  <chain>  (326) 
A

>  <ligands>  (326) 
[{'chain_id': 'A', 'author_residue_number': 1181, 'author_insertion_code': '', 'chem_comp_id': 'G83', 'alternate_conformers': 0, 'entity_id': 2, 'struct_asym_id': 'B', 'residue_number': 1, 'chem_comp_name': 'ETHYL (5S,8S,11R)-8-BENZYL-5-(2-TERT-BUTOXY-2-OXOETHYL)-3,6,9-TRIOXO-11-{[(3S)-2-OXOPYRROLIDIN-3-YL]METHYL}-1-PHENYL-2-OXA-4,7,10-TRIAZATETRADECAN-14-OATE', 'weight': 680.788, 'carbohydrate_polymer': False, 'branch_name': ''}]

>  <ligand_codes>  (326) 
['G83']

>  <cofactor_codes>  (326) 
[]

>  <has_cofactor>  (326) 
False

>  <covalent>  (326) 
True

>  <base_name>  (326) 
3ZZC

>  <lig_resn>  (326) 
G83

>  <lig_resi>  (326) 
1181

>  <lig_chain>  (326) 
A

>  <lig_segi>  (326) 
B

>  <lig_alt>  (326) 


>  <polymer_chain>  (326) 
A

>  <single_smiles>  (326) 
CCOC(=O)CC[C@H](C[C@@H]1CCNC1=O)NC(=O)[C@H](Cc2ccccc2)NC(=O)[C@H](CC(=O)OC(C)(C)C)NC(=O)OCc3ccccc3

$$$$
G83P1S168
     RDKit          3D

 24 24  0  0  0  0  0  0  0  0999 V2000
  -10.3020   19.6950  -30.3210 C   0  0  0  0  0  0  0  0  0  0  0  0
   -9.9650   18.3270  -30.5810 O   0  0  0  0  0  0  0  0  0  0  0  0
   -9.6140   17.8180  -31.9050 C   0  0  0  0  0  0  0  0  0  0  0  0
   -8.9270   16.6710  -31.9560 N   0  0  0  0  0  0  0  0  0  0  0  0
   -9.9760   18.4340  -32.9180 O   0  0  0  0  0  0  0  0  0  0  0  0
   -8.5890   16.1350  -33.2460 C   0  0  2  0  0  0  0  0  0  0  0  0
   -9.0700   14.7310  -33.4520 C   0  0  0  0  0  0  0  0  0  0  0  0
   -7.0940   15.9700  -33.0860 C   0  0  0  0  0  0  0  0  0  0  0  0
   -9.2610   14.3500  -34.7310 N   0  0  0  0  0  0  0  0  0  0  0  0
   -9.1660   13.9920  -32.4630 O   0  0  0  0  0  0  0  0  0  0  0  0
   -6.3360   17.1850  -33.4620 C   0  0  0  0  0  0  0  0  0  0  0  0
   -9.6510   12.9770  -35.0820 C   0  0  2  0  0  0  0  0  0  0  0  0
   -5.3760   17.6500  -32.4930 O   0  0  0  0  0  0  0  0  0  0  0  0
   -6.4670   17.7660  -34.5460 O   0  0  0  0  0  0  0  0  0  0  0  0
   -8.4620   12.0930  -34.7840 C   0  0  0  0  0  0  0  0  0  0  0  0
   -9.8940   12.8970  -36.5940 C   0  0  0  0  0  0  0  0  0  0  0  0
   -8.7450   10.9170  -34.2200 N   0  0  0  0  0  0  0  0  0  0  0  0
   -7.3180   12.4750  -35.0590 O   0  0  0  0  0  0  0  0  0  0  0  0
  -11.1210   13.7000  -36.9770 C   0  0  0  0  0  0  0  0  0  0  0  0
  -12.3400   13.5180  -36.3250 C   0  0  0  0  0  0  0  0  0  0  0  0
  -11.0320   14.6580  -38.0030 C   0  0  0  0  0  0  0  0  0  0  0  0
  -13.4670   14.3010  -36.6620 C   0  0  0  0  0  0  0  0  0  0  0  0
  -12.1840   15.4150  -38.3560 C   0  0  0  0  0  0  0  0  0  0  0  0
  -13.4100   15.2640  -37.6860 C   0  0  0  0  0  0  0  0  0  0  0  0
  1  2  1  0
  2  3  1  0
  3  4  1  0
  3  5  2  0
  4  6  1  0
  6  7  1  0
  6  8  1  1
  7  9  1  0
  7 10  2  0
 11  8  1  0
  9 12  1  0
 13 11  1  0
 14 11  2  0
 12 15  1  0
 12 16  1  6
 15 17  1  0
 15 18  2  0
 16 19  1  0
 19 20  2  0
 19 21  1  0
 22 20  1  0
 23 21  2  0
 22 24  2  0
 24 23  1  0
A    2
 O15
A    3
 C17
A    4
 N21
A    5
 O19
A    6
 C23
A    7
 C31
A    8
 C25
A    9
 N33
A   10
 O35
A   11
 C14
A   12
 C37
A   14
 O1 
A   15
 C39
A   16
 C41
A   18
 O47
A   19
 C51
A   20
 C53
A   21
 C55
A   22
 C7 
A   23
 C11
A   24
 C9 
M  END
>  <XChem_code>  (327) 
G83§1

>  <Occupancy>  (327) 
[1.0, 1.0, 1.0, 1.0, 1.0, 1.0, 1.0, 1.0, 1.0, 1.0, 1.0, 1.0, 1.0, 1.0, 1.0, 1.0, 1.0, 1.0, 1.0, 1.0, 1.0, 1.0, 1.0, 1.0, 1.0, 1.0, 1.0, 1.0, 1.0, 1.0, 1.0, 1.0, 1.0, 1.0, 1.0, 1.0, 1.0, 1.0, 1.0, 1.0, 1.0, 1.0, 1.0, 1.0, 1.0, 1.0, 1.0, 1.0, 1.0, 1.0]

>  <TempFactor>  (327) 
[21.5, 44.89, 24.36, 42.16, 38.25, 23.95, 40.64, 20.41, 29.29, 22.5, 27.31, 23.15, 28.56, 41.84, 29.6, 38.53, 33.37, 31.58, 30.86, 27.88, 28.97, 31.52, 43.05, 27.66, 27.42, 21.95, 25.67, 24.02, 25.01, 43.36, 43.87, 19.31, 17.05, 26.62, 26.73, 28.95, 20.4, 17.34, 20.74, 21.57, 21.69, 20.06, 20.47, 18.67, 21.64, 27.5, 29.51, 35.17, 31.37, 18.86]

>  <accession>  (327) 
3ZZC_A

>  <description>  (327) 
Chain A, 3C PROTEINASE [Coxsackievirus B3]

>  <evalue>  (327) 
7.4865399999999999e-87

>  <pdb_code>  (327) 
3ZZC

>  <chain>  (327) 
A

>  <ligands>  (327) 
[{'chain_id': 'A', 'author_residue_number': 1181, 'author_insertion_code': '', 'chem_comp_id': 'G83', 'alternate_conformers': 0, 'entity_id': 2, 'struct_asym_id': 'B', 'residue_number': 1, 'chem_comp_name': 'ETHYL (5S,8S,11R)-8-BENZYL-5-(2-TERT-BUTOXY-2-OXOETHYL)-3,6,9-TRIOXO-11-{[(3S)-2-OXOPYRROLIDIN-3-YL]METHYL}-1-PHENYL-2-OXA-4,7,10-TRIAZATETRADECAN-14-OATE', 'weight': 680.788, 'carbohydrate_polymer': False, 'branch_name': ''}]

>  <ligand_codes>  (327) 
['G83']

>  <cofactor_codes>  (327) 
[]

>  <has_cofactor>  (327) 
False

>  <covalent>  (327) 
True

>  <base_name>  (327) 
3ZZC

>  <lig_resn>  (327) 
G83

>  <lig_resi>  (327) 
1181

>  <lig_chain>  (327) 
A

>  <lig_segi>  (327) 
B

>  <lig_alt>  (327) 


>  <polymer_chain>  (327) 
A

>  <single_smiles>  (327) 
CCOC(=O)CC[C@H](C[C@@H]1CCNC1=O)NC(=O)[C@H](Cc2ccccc2)NC(=O)[C@H](CC(=O)OC(C)(C)C)NC(=O)OCc3ccccc3

$$$$
G83P1S169
     RDKit          3D

 21 20  0  0  0  0  0  0  0  0999 V2000
   -9.8940   12.8970  -36.5940 C   0  0  0  0  0  0  0  0  0  0  0  0
   -9.6510   12.9770  -35.0820 C   0  0  1  0  0  0  0  0  0  0  0  0
   -8.4620   12.0930  -34.7840 C   0  0  0  0  0  0  0  0  0  0  0  0
   -9.2610   14.3500  -34.7310 N   0  0  0  0  0  0  0  0  0  0  0  0
   -8.7450   10.9170  -34.2200 N   0  0  0  0  0  0  0  0  0  0  0  0
   -7.3180   12.4750  -35.0590 O   0  0  0  0  0  0  0  0  0  0  0  0
   -9.0700   14.7310  -33.4520 C   0  0  0  0  0  0  0  0  0  0  0  0
   -8.5890   16.1350  -33.2460 C   0  0  1  0  0  0  0  0  0  0  0  0
   -9.1660   13.9920  -32.4630 O   0  0  0  0  0  0  0  0  0  0  0  0
   -8.9270   16.6710  -31.9560 N   0  0  0  0  0  0  0  0  0  0  0  0
   -7.0940   15.9700  -33.0860 C   0  0  0  0  0  0  0  0  0  0  0  0
   -9.6140   17.8180  -31.9050 C   0  0  0  0  0  0  0  0  0  0  0  0
   -6.3360   17.1850  -33.4620 C   0  0  0  0  0  0  0  0  0  0  0  0
   -9.9650   18.3270  -30.5810 O   0  0  0  0  0  0  0  0  0  0  0  0
   -9.9760   18.4340  -32.9180 O   0  0  0  0  0  0  0  0  0  0  0  0
   -6.4670   17.7660  -34.5460 O   0  0  0  0  0  0  0  0  0  0  0  0
   -5.3760   17.6500  -32.4930 O   0  0  0  0  0  0  0  0  0  0  0  0
   -4.0330   17.1570  -32.4230 C   0  0  0  0  0  0  0  0  0  0  0  0
   -3.6770   16.1600  -33.5370 C   0  0  0  0  0  0  0  0  0  0  0  0
   -3.9520   16.4650  -31.0680 C   0  0  0  0  0  0  0  0  0  0  0  0
   -3.0820   18.3540  -32.5240 C   0  0  0  0  0  0  0  0  0  0  0  0
  2  1  1  6
  2  3  1  0
  4  2  1  0
  3  5  1  0
  3  6  2  0
  7  4  1  0
  8  7  1  0
  7  9  2  0
 10  8  1  0
  8 11  1  1
 12 10  1  0
 13 11  1  0
 14 12  1  0
 12 15  2  0
 16 13  2  0
 17 13  1  0
 17 18  1  0
 18 19  1  0
 18 20  1  0
 18 21  1  0
A    2
 C37
A    3
 C39
A    4
 N33
A    6
 O47
A    7
 C31
A    8
 C23
A    9
 O35
A   10
 N21
A   11
 C25
A   12
 C17
A   13
 C14
A   15
 O19
A   16
 O1 
A   17
 O2 
A   18
 C29
A   19
 C12
A   20
 C43
A   21
 C45
M  END
>  <XChem_code>  (328) 
G83§1

>  <Occupancy>  (328) 
[1.0, 1.0, 1.0, 1.0, 1.0, 1.0, 1.0, 1.0, 1.0, 1.0, 1.0, 1.0, 1.0, 1.0, 1.0, 1.0, 1.0, 1.0, 1.0, 1.0, 1.0, 1.0, 1.0, 1.0, 1.0, 1.0, 1.0, 1.0, 1.0, 1.0, 1.0, 1.0, 1.0, 1.0, 1.0, 1.0, 1.0, 1.0, 1.0, 1.0, 1.0, 1.0, 1.0, 1.0, 1.0, 1.0, 1.0, 1.0, 1.0, 1.0]

>  <TempFactor>  (328) 
[21.5, 44.89, 24.36, 42.16, 38.25, 23.95, 40.64, 20.41, 29.29, 22.5, 27.31, 23.15, 28.56, 41.84, 29.6, 38.53, 33.37, 31.58, 30.86, 27.88, 28.97, 31.52, 43.05, 27.66, 27.42, 21.95, 25.67, 24.02, 25.01, 43.36, 43.87, 19.31, 17.05, 26.62, 26.73, 28.95, 20.4, 17.34, 20.74, 21.57, 21.69, 20.06, 20.47, 18.67, 21.64, 27.5, 29.51, 35.17, 31.37, 18.86]

>  <accession>  (328) 
3ZZC_A

>  <description>  (328) 
Chain A, 3C PROTEINASE [Coxsackievirus B3]

>  <evalue>  (328) 
7.4865399999999999e-87

>  <pdb_code>  (328) 
3ZZC

>  <chain>  (328) 
A

>  <ligands>  (328) 
[{'chain_id': 'A', 'author_residue_number': 1181, 'author_insertion_code': '', 'chem_comp_id': 'G83', 'alternate_conformers': 0, 'entity_id': 2, 'struct_asym_id': 'B', 'residue_number': 1, 'chem_comp_name': 'ETHYL (5S,8S,11R)-8-BENZYL-5-(2-TERT-BUTOXY-2-OXOETHYL)-3,6,9-TRIOXO-11-{[(3S)-2-OXOPYRROLIDIN-3-YL]METHYL}-1-PHENYL-2-OXA-4,7,10-TRIAZATETRADECAN-14-OATE', 'weight': 680.788, 'carbohydrate_polymer': False, 'branch_name': ''}]

>  <ligand_codes>  (328) 
['G83']

>  <cofactor_codes>  (328) 
[]

>  <has_cofactor>  (328) 
False

>  <covalent>  (328) 
True

>  <base_name>  (328) 
3ZZC

>  <lig_resn>  (328) 
G83

>  <lig_resi>  (328) 
1181

>  <lig_chain>  (328) 
A

>  <lig_segi>  (328) 
B

>  <lig_alt>  (328) 


>  <polymer_chain>  (328) 
A

>  <single_smiles>  (328) 
CCOC(=O)CC[C@H](C[C@@H]1CCNC1=O)NC(=O)[C@H](Cc2ccccc2)NC(=O)[C@H](CC(=O)OC(C)(C)C)NC(=O)OCc3ccccc3

$$$$
G83P1S170
     RDKit          3D

 16 15  0  0  0  0  0  0  0  0999 V2000
   -9.8940   12.8970  -36.5940 C   0  0  0  0  0  0  0  0  0  0  0  0
   -9.6510   12.9770  -35.0820 C   0  0  1  0  0  0  0  0  0  0  0  0
   -8.4620   12.0930  -34.7840 C   0  0  0  0  0  0  0  0  0  0  0  0
   -9.2610   14.3500  -34.7310 N   0  0  0  0  0  0  0  0  0  0  0  0
   -8.7450   10.9170  -34.2200 N   0  0  0  0  0  0  0  0  0  0  0  0
   -7.3180   12.4750  -35.0590 O   0  0  0  0  0  0  0  0  0  0  0  0
   -9.0700   14.7310  -33.4520 C   0  0  0  0  0  0  0  0  0  0  0  0
   -8.5890   16.1350  -33.2460 C   0  0  1  0  0  0  0  0  0  0  0  0
   -9.1660   13.9920  -32.4630 O   0  0  0  0  0  0  0  0  0  0  0  0
   -8.9270   16.6710  -31.9560 N   0  0  0  0  0  0  0  0  0  0  0  0
   -7.0940   15.9700  -33.0860 C   0  0  0  0  0  0  0  0  0  0  0  0
   -9.6140   17.8180  -31.9050 C   0  0  0  0  0  0  0  0  0  0  0  0
   -6.3360   17.1850  -33.4620 C   0  0  0  0  0  0  0  0  0  0  0  0
   -9.9650   18.3270  -30.5810 O   0  0  0  0  0  0  0  0  0  0  0  0
   -9.9760   18.4340  -32.9180 O   0  0  0  0  0  0  0  0  0  0  0  0
   -6.4670   17.7660  -34.5460 O   0  0  0  0  0  0  0  0  0  0  0  0
  2  1  1  6
  2  3  1  0
  4  2  1  0
  3  5  1  0
  3  6  2  0
  7  4  1  0
  8  7  1  0
  7  9  2  0
 10  8  1  0
  8 11  1  1
 12 10  1  0
 13 11  1  0
 14 12  1  0
 12 15  2  0
 16 13  2  0
A    2
 C37
A    3
 C39
A    4
 N33
A    6
 O47
A    7
 C31
A    8
 C23
A    9
 O35
A   10
 N21
A   11
 C25
A   12
 C17
A   15
 O19
A   16
 O1 
M  END
>  <XChem_code>  (329) 
G83§1

>  <Occupancy>  (329) 
[1.0, 1.0, 1.0, 1.0, 1.0, 1.0, 1.0, 1.0, 1.0, 1.0, 1.0, 1.0, 1.0, 1.0, 1.0, 1.0, 1.0, 1.0, 1.0, 1.0, 1.0, 1.0, 1.0, 1.0, 1.0, 1.0, 1.0, 1.0, 1.0, 1.0, 1.0, 1.0, 1.0, 1.0, 1.0, 1.0, 1.0, 1.0, 1.0, 1.0, 1.0, 1.0, 1.0, 1.0, 1.0, 1.0, 1.0, 1.0, 1.0, 1.0]

>  <TempFactor>  (329) 
[21.5, 44.89, 24.36, 42.16, 38.25, 23.95, 40.64, 20.41, 29.29, 22.5, 27.31, 23.15, 28.56, 41.84, 29.6, 38.53, 33.37, 31.58, 30.86, 27.88, 28.97, 31.52, 43.05, 27.66, 27.42, 21.95, 25.67, 24.02, 25.01, 43.36, 43.87, 19.31, 17.05, 26.62, 26.73, 28.95, 20.4, 17.34, 20.74, 21.57, 21.69, 20.06, 20.47, 18.67, 21.64, 27.5, 29.51, 35.17, 31.37, 18.86]

>  <accession>  (329) 
3ZZC_A

>  <description>  (329) 
Chain A, 3C PROTEINASE [Coxsackievirus B3]

>  <evalue>  (329) 
7.4865399999999999e-87

>  <pdb_code>  (329) 
3ZZC

>  <chain>  (329) 
A

>  <ligands>  (329) 
[{'chain_id': 'A', 'author_residue_number': 1181, 'author_insertion_code': '', 'chem_comp_id': 'G83', 'alternate_conformers': 0, 'entity_id': 2, 'struct_asym_id': 'B', 'residue_number': 1, 'chem_comp_name': 'ETHYL (5S,8S,11R)-8-BENZYL-5-(2-TERT-BUTOXY-2-OXOETHYL)-3,6,9-TRIOXO-11-{[(3S)-2-OXOPYRROLIDIN-3-YL]METHYL}-1-PHENYL-2-OXA-4,7,10-TRIAZATETRADECAN-14-OATE', 'weight': 680.788, 'carbohydrate_polymer': False, 'branch_name': ''}]

>  <ligand_codes>  (329) 
['G83']

>  <cofactor_codes>  (329) 
[]

>  <has_cofactor>  (329) 
False

>  <covalent>  (329) 
True

>  <base_name>  (329) 
3ZZC

>  <lig_resn>  (329) 
G83

>  <lig_resi>  (329) 
1181

>  <lig_chain>  (329) 
A

>  <lig_segi>  (329) 
B

>  <lig_alt>  (329) 


>  <polymer_chain>  (329) 
A

>  <single_smiles>  (329) 
CCOC(=O)CC[C@H](C[C@@H]1CCNC1=O)NC(=O)[C@H](Cc2ccccc2)NC(=O)[C@H](CC(=O)OC(C)(C)C)NC(=O)OCc3ccccc3

$$$$
G83P1S171
     RDKit          3D

 16 15  0  0  0  0  0  0  0  0999 V2000
   -9.8940   12.8970  -36.5940 C   0  0  0  0  0  0  0  0  0  0  0  0
   -9.6510   12.9770  -35.0820 C   0  0  1  0  0  0  0  0  0  0  0  0
   -8.4620   12.0930  -34.7840 C   0  0  0  0  0  0  0  0  0  0  0  0
   -9.2610   14.3500  -34.7310 N   0  0  0  0  0  0  0  0  0  0  0  0
   -8.7450   10.9170  -34.2200 N   0  0  0  0  0  0  0  0  0  0  0  0
   -7.3180   12.4750  -35.0590 O   0  0  0  0  0  0  0  0  0  0  0  0
   -9.0700   14.7310  -33.4520 C   0  0  0  0  0  0  0  0  0  0  0  0
   -8.5890   16.1350  -33.2460 C   0  0  2  0  0  0  0  0  0  0  0  0
   -9.1660   13.9920  -32.4630 O   0  0  0  0  0  0  0  0  0  0  0  0
   -7.0940   15.9700  -33.0860 C   0  0  0  0  0  0  0  0  0  0  0  0
   -8.9270   16.6710  -31.9560 N   0  0  0  0  0  0  0  0  0  0  0  0
   -6.3360   17.1850  -33.4620 C   0  0  0  0  0  0  0  0  0  0  0  0
   -9.6140   17.8180  -31.9050 C   0  0  0  0  0  0  0  0  0  0  0  0
   -5.3760   17.6500  -32.4930 O   0  0  0  0  0  0  0  0  0  0  0  0
   -6.4670   17.7660  -34.5460 O   0  0  0  0  0  0  0  0  0  0  0  0
   -9.9760   18.4340  -32.9180 O   0  0  0  0  0  0  0  0  0  0  0  0
  2  1  1  6
  2  3  1  0
  4  2  1  0
  3  5  1  0
  3  6  2  0
  7  4  1  0
  8  7  1  0
  7  9  2  0
  8 10  1  1
 11  8  1  0
 12 10  1  0
 13 11  1  0
 14 12  1  0
 15 12  2  0
 13 16  2  0
A    2
 C37
A    3
 C39
A    4
 N33
A    6
 O47
A    7
 C31
A    8
 C23
A    9
 O35
A   10
 C25
A   11
 N21
A   12
 C14
A   15
 O1 
A   16
 O19
M  END
>  <XChem_code>  (330) 
G83§1

>  <Occupancy>  (330) 
[1.0, 1.0, 1.0, 1.0, 1.0, 1.0, 1.0, 1.0, 1.0, 1.0, 1.0, 1.0, 1.0, 1.0, 1.0, 1.0, 1.0, 1.0, 1.0, 1.0, 1.0, 1.0, 1.0, 1.0, 1.0, 1.0, 1.0, 1.0, 1.0, 1.0, 1.0, 1.0, 1.0, 1.0, 1.0, 1.0, 1.0, 1.0, 1.0, 1.0, 1.0, 1.0, 1.0, 1.0, 1.0, 1.0, 1.0, 1.0, 1.0, 1.0]

>  <TempFactor>  (330) 
[21.5, 44.89, 24.36, 42.16, 38.25, 23.95, 40.64, 20.41, 29.29, 22.5, 27.31, 23.15, 28.56, 41.84, 29.6, 38.53, 33.37, 31.58, 30.86, 27.88, 28.97, 31.52, 43.05, 27.66, 27.42, 21.95, 25.67, 24.02, 25.01, 43.36, 43.87, 19.31, 17.05, 26.62, 26.73, 28.95, 20.4, 17.34, 20.74, 21.57, 21.69, 20.06, 20.47, 18.67, 21.64, 27.5, 29.51, 35.17, 31.37, 18.86]

>  <accession>  (330) 
3ZZC_A

>  <description>  (330) 
Chain A, 3C PROTEINASE [Coxsackievirus B3]

>  <evalue>  (330) 
7.4865399999999999e-87

>  <pdb_code>  (330) 
3ZZC

>  <chain>  (330) 
A

>  <ligands>  (330) 
[{'chain_id': 'A', 'author_residue_number': 1181, 'author_insertion_code': '', 'chem_comp_id': 'G83', 'alternate_conformers': 0, 'entity_id': 2, 'struct_asym_id': 'B', 'residue_number': 1, 'chem_comp_name': 'ETHYL (5S,8S,11R)-8-BENZYL-5-(2-TERT-BUTOXY-2-OXOETHYL)-3,6,9-TRIOXO-11-{[(3S)-2-OXOPYRROLIDIN-3-YL]METHYL}-1-PHENYL-2-OXA-4,7,10-TRIAZATETRADECAN-14-OATE', 'weight': 680.788, 'carbohydrate_polymer': False, 'branch_name': ''}]

>  <ligand_codes>  (330) 
['G83']

>  <cofactor_codes>  (330) 
[]

>  <has_cofactor>  (330) 
False

>  <covalent>  (330) 
True

>  <base_name>  (330) 
3ZZC

>  <lig_resn>  (330) 
G83

>  <lig_resi>  (330) 
1181

>  <lig_chain>  (330) 
A

>  <lig_segi>  (330) 
B

>  <lig_alt>  (330) 


>  <polymer_chain>  (330) 
A

>  <single_smiles>  (330) 
CCOC(=O)CC[C@H](C[C@@H]1CCNC1=O)NC(=O)[C@H](Cc2ccccc2)NC(=O)[C@H](CC(=O)OC(C)(C)C)NC(=O)OCc3ccccc3

$$$$
G83P1S172
     RDKit          3D

 14 13  0  0  0  0  0  0  0  0999 V2000
   -9.8940   12.8970  -36.5940 C   0  0  0  0  0  0  0  0  0  0  0  0
   -9.6510   12.9770  -35.0820 C   0  0  1  0  0  0  0  0  0  0  0  0
   -8.4620   12.0930  -34.7840 C   0  0  0  0  0  0  0  0  0  0  0  0
   -9.2610   14.3500  -34.7310 N   0  0  0  0  0  0  0  0  0  0  0  0
   -8.7450   10.9170  -34.2200 N   0  0  0  0  0  0  0  0  0  0  0  0
   -7.3180   12.4750  -35.0590 O   0  0  0  0  0  0  0  0  0  0  0  0
   -9.0700   14.7310  -33.4520 C   0  0  0  0  0  0  0  0  0  0  0  0
   -8.5890   16.1350  -33.2460 C   0  0  2  0  0  0  0  0  0  0  0  0
   -9.1660   13.9920  -32.4630 O   0  0  0  0  0  0  0  0  0  0  0  0
   -7.0940   15.9700  -33.0860 C   0  0  0  0  0  0  0  0  0  0  0  0
   -8.9270   16.6710  -31.9560 N   0  0  0  0  0  0  0  0  0  0  0  0
   -6.3360   17.1850  -33.4620 C   0  0  0  0  0  0  0  0  0  0  0  0
   -5.3760   17.6500  -32.4930 O   0  0  0  0  0  0  0  0  0  0  0  0
   -6.4670   17.7660  -34.5460 O   0  0  0  0  0  0  0  0  0  0  0  0
  2  1  1  6
  2  3  1  0
  4  2  1  0
  3  5  1  0
  3  6  2  0
  7  4  1  0
  8  7  1  0
  7  9  2  0
  8 10  1  0
  8 11  1  1
 12 10  1  0
 13 12  1  0
 14 12  2  0
A    2
 C37
A    3
 C39
A    4
 N33
A    6
 O47
A    7
 C31
A    8
 C23
A    9
 O35
A   10
 C25
A   12
 C14
A   14
 O1 
M  END
>  <XChem_code>  (331) 
G83§1

>  <Occupancy>  (331) 
[1.0, 1.0, 1.0, 1.0, 1.0, 1.0, 1.0, 1.0, 1.0, 1.0, 1.0, 1.0, 1.0, 1.0, 1.0, 1.0, 1.0, 1.0, 1.0, 1.0, 1.0, 1.0, 1.0, 1.0, 1.0, 1.0, 1.0, 1.0, 1.0, 1.0, 1.0, 1.0, 1.0, 1.0, 1.0, 1.0, 1.0, 1.0, 1.0, 1.0, 1.0, 1.0, 1.0, 1.0, 1.0, 1.0, 1.0, 1.0, 1.0, 1.0]

>  <TempFactor>  (331) 
[21.5, 44.89, 24.36, 42.16, 38.25, 23.95, 40.64, 20.41, 29.29, 22.5, 27.31, 23.15, 28.56, 41.84, 29.6, 38.53, 33.37, 31.58, 30.86, 27.88, 28.97, 31.52, 43.05, 27.66, 27.42, 21.95, 25.67, 24.02, 25.01, 43.36, 43.87, 19.31, 17.05, 26.62, 26.73, 28.95, 20.4, 17.34, 20.74, 21.57, 21.69, 20.06, 20.47, 18.67, 21.64, 27.5, 29.51, 35.17, 31.37, 18.86]

>  <accession>  (331) 
3ZZC_A

>  <description>  (331) 
Chain A, 3C PROTEINASE [Coxsackievirus B3]

>  <evalue>  (331) 
7.4865399999999999e-87

>  <pdb_code>  (331) 
3ZZC

>  <chain>  (331) 
A

>  <ligands>  (331) 
[{'chain_id': 'A', 'author_residue_number': 1181, 'author_insertion_code': '', 'chem_comp_id': 'G83', 'alternate_conformers': 0, 'entity_id': 2, 'struct_asym_id': 'B', 'residue_number': 1, 'chem_comp_name': 'ETHYL (5S,8S,11R)-8-BENZYL-5-(2-TERT-BUTOXY-2-OXOETHYL)-3,6,9-TRIOXO-11-{[(3S)-2-OXOPYRROLIDIN-3-YL]METHYL}-1-PHENYL-2-OXA-4,7,10-TRIAZATETRADECAN-14-OATE', 'weight': 680.788, 'carbohydrate_polymer': False, 'branch_name': ''}]

>  <ligand_codes>  (331) 
['G83']

>  <cofactor_codes>  (331) 
[]

>  <has_cofactor>  (331) 
False

>  <covalent>  (331) 
True

>  <base_name>  (331) 
3ZZC

>  <lig_resn>  (331) 
G83

>  <lig_resi>  (331) 
1181

>  <lig_chain>  (331) 
A

>  <lig_segi>  (331) 
B

>  <lig_alt>  (331) 


>  <polymer_chain>  (331) 
A

>  <single_smiles>  (331) 
CCOC(=O)CC[C@H](C[C@@H]1CCNC1=O)NC(=O)[C@H](Cc2ccccc2)NC(=O)[C@H](CC(=O)OC(C)(C)C)NC(=O)OCc3ccccc3

$$$$
G83P1S173
     RDKit          3D

 12 11  0  0  0  0  0  0  0  0999 V2000
   -9.8940   12.8970  -36.5940 C   0  0  0  0  0  0  0  0  0  0  0  0
   -9.6510   12.9770  -35.0820 C   0  0  2  0  0  0  0  0  0  0  0  0
   -9.2610   14.3500  -34.7310 N   0  0  0  0  0  0  0  0  0  0  0  0
   -8.4620   12.0930  -34.7840 C   0  0  0  0  0  0  0  0  0  0  0  0
   -9.0700   14.7310  -33.4520 C   0  0  0  0  0  0  0  0  0  0  0  0
   -7.3180   12.4750  -35.0590 O   0  0  0  0  0  0  0  0  0  0  0  0
   -8.5890   16.1350  -33.2460 C   0  0  0  0  0  0  0  0  0  0  0  0
   -9.1660   13.9920  -32.4630 O   0  0  0  0  0  0  0  0  0  0  0  0
   -7.0940   15.9700  -33.0860 C   0  0  0  0  0  0  0  0  0  0  0  0
   -6.3360   17.1850  -33.4620 C   0  0  0  0  0  0  0  0  0  0  0  0
   -5.3760   17.6500  -32.4930 O   0  0  0  0  0  0  0  0  0  0  0  0
   -6.4670   17.7660  -34.5460 O   0  0  0  0  0  0  0  0  0  0  0  0
  2  1  1  6
  3  2  1  0
  2  4  1  0
  5  3  1  0
  4  6  2  0
  7  5  1  0
  5  8  2  0
  7  9  1  6
 10  9  1  0
 11 10  1  0
 12 10  2  0
A    2
 C37
A    3
 N33
A    5
 C31
A    6
 O47
A    8
 O35
A    9
 C25
A   10
 C14
A   12
 O1 
M  END
>  <XChem_code>  (332) 
G83§1

>  <Occupancy>  (332) 
[1.0, 1.0, 1.0, 1.0, 1.0, 1.0, 1.0, 1.0, 1.0, 1.0, 1.0, 1.0, 1.0, 1.0, 1.0, 1.0, 1.0, 1.0, 1.0, 1.0, 1.0, 1.0, 1.0, 1.0, 1.0, 1.0, 1.0, 1.0, 1.0, 1.0, 1.0, 1.0, 1.0, 1.0, 1.0, 1.0, 1.0, 1.0, 1.0, 1.0, 1.0, 1.0, 1.0, 1.0, 1.0, 1.0, 1.0, 1.0, 1.0, 1.0]

>  <TempFactor>  (332) 
[21.5, 44.89, 24.36, 42.16, 38.25, 23.95, 40.64, 20.41, 29.29, 22.5, 27.31, 23.15, 28.56, 41.84, 29.6, 38.53, 33.37, 31.58, 30.86, 27.88, 28.97, 31.52, 43.05, 27.66, 27.42, 21.95, 25.67, 24.02, 25.01, 43.36, 43.87, 19.31, 17.05, 26.62, 26.73, 28.95, 20.4, 17.34, 20.74, 21.57, 21.69, 20.06, 20.47, 18.67, 21.64, 27.5, 29.51, 35.17, 31.37, 18.86]

>  <accession>  (332) 
3ZZC_A

>  <description>  (332) 
Chain A, 3C PROTEINASE [Coxsackievirus B3]

>  <evalue>  (332) 
7.4865399999999999e-87

>  <pdb_code>  (332) 
3ZZC

>  <chain>  (332) 
A

>  <ligands>  (332) 
[{'chain_id': 'A', 'author_residue_number': 1181, 'author_insertion_code': '', 'chem_comp_id': 'G83', 'alternate_conformers': 0, 'entity_id': 2, 'struct_asym_id': 'B', 'residue_number': 1, 'chem_comp_name': 'ETHYL (5S,8S,11R)-8-BENZYL-5-(2-TERT-BUTOXY-2-OXOETHYL)-3,6,9-TRIOXO-11-{[(3S)-2-OXOPYRROLIDIN-3-YL]METHYL}-1-PHENYL-2-OXA-4,7,10-TRIAZATETRADECAN-14-OATE', 'weight': 680.788, 'carbohydrate_polymer': False, 'branch_name': ''}]

>  <ligand_codes>  (332) 
['G83']

>  <cofactor_codes>  (332) 
[]

>  <has_cofactor>  (332) 
False

>  <covalent>  (332) 
True

>  <base_name>  (332) 
3ZZC

>  <lig_resn>  (332) 
G83

>  <lig_resi>  (332) 
1181

>  <lig_chain>  (332) 
A

>  <lig_segi>  (332) 
B

>  <lig_alt>  (332) 


>  <polymer_chain>  (332) 
A

>  <single_smiles>  (332) 
CCOC(=O)CC[C@H](C[C@@H]1CCNC1=O)NC(=O)[C@H](Cc2ccccc2)NC(=O)[C@H](CC(=O)OC(C)(C)C)NC(=O)OCc3ccccc3

$$$$
G83P1S174
     RDKit          3D

 17 16  0  0  0  0  0  0  0  0999 V2000
   -9.8940   12.8970  -36.5940 C   0  0  0  0  0  0  0  0  0  0  0  0
   -9.6510   12.9770  -35.0820 C   0  0  1  0  0  0  0  0  0  0  0  0
   -8.4620   12.0930  -34.7840 C   0  0  0  0  0  0  0  0  0  0  0  0
   -9.2610   14.3500  -34.7310 N   0  0  0  0  0  0  0  0  0  0  0  0
   -8.7450   10.9170  -34.2200 N   0  0  0  0  0  0  0  0  0  0  0  0
   -7.3180   12.4750  -35.0590 O   0  0  0  0  0  0  0  0  0  0  0  0
   -9.0700   14.7310  -33.4520 C   0  0  0  0  0  0  0  0  0  0  0  0
   -8.5890   16.1350  -33.2460 C   0  0  1  0  0  0  0  0  0  0  0  0
   -9.1660   13.9920  -32.4630 O   0  0  0  0  0  0  0  0  0  0  0  0
   -8.9270   16.6710  -31.9560 N   0  0  0  0  0  0  0  0  0  0  0  0
   -7.0940   15.9700  -33.0860 C   0  0  0  0  0  0  0  0  0  0  0  0
   -9.6140   17.8180  -31.9050 C   0  0  0  0  0  0  0  0  0  0  0  0
   -6.3360   17.1850  -33.4620 C   0  0  0  0  0  0  0  0  0  0  0  0
   -9.9650   18.3270  -30.5810 O   0  0  0  0  0  0  0  0  0  0  0  0
   -9.9760   18.4340  -32.9180 O   0  0  0  0  0  0  0  0  0  0  0  0
   -5.3760   17.6500  -32.4930 O   0  0  0  0  0  0  0  0  0  0  0  0
   -6.4670   17.7660  -34.5460 O   0  0  0  0  0  0  0  0  0  0  0  0
  2  1  1  6
  2  3  1  0
  4  2  1  0
  3  5  1  0
  3  6  2  0
  7  4  1  0
  8  7  1  0
  7  9  2  0
 10  8  1  0
  8 11  1  1
 12 10  1  0
 13 11  1  0
 14 12  1  0
 12 15  2  0
 16 13  1  0
 17 13  2  0
A    2
 C37
A    3
 C39
A    4
 N33
A    6
 O47
A    7
 C31
A    8
 C23
A    9
 O35
A   10
 N21
A   11
 C25
A   12
 C17
A   13
 C14
A   15
 O19
A   17
 O1 
M  END
>  <XChem_code>  (333) 
G83§1

>  <Occupancy>  (333) 
[1.0, 1.0, 1.0, 1.0, 1.0, 1.0, 1.0, 1.0, 1.0, 1.0, 1.0, 1.0, 1.0, 1.0, 1.0, 1.0, 1.0, 1.0, 1.0, 1.0, 1.0, 1.0, 1.0, 1.0, 1.0, 1.0, 1.0, 1.0, 1.0, 1.0, 1.0, 1.0, 1.0, 1.0, 1.0, 1.0, 1.0, 1.0, 1.0, 1.0, 1.0, 1.0, 1.0, 1.0, 1.0, 1.0, 1.0, 1.0, 1.0, 1.0]

>  <TempFactor>  (333) 
[21.5, 44.89, 24.36, 42.16, 38.25, 23.95, 40.64, 20.41, 29.29, 22.5, 27.31, 23.15, 28.56, 41.84, 29.6, 38.53, 33.37, 31.58, 30.86, 27.88, 28.97, 31.52, 43.05, 27.66, 27.42, 21.95, 25.67, 24.02, 25.01, 43.36, 43.87, 19.31, 17.05, 26.62, 26.73, 28.95, 20.4, 17.34, 20.74, 21.57, 21.69, 20.06, 20.47, 18.67, 21.64, 27.5, 29.51, 35.17, 31.37, 18.86]

>  <accession>  (333) 
3ZZC_A

>  <description>  (333) 
Chain A, 3C PROTEINASE [Coxsackievirus B3]

>  <evalue>  (333) 
7.4865399999999999e-87

>  <pdb_code>  (333) 
3ZZC

>  <chain>  (333) 
A

>  <ligands>  (333) 
[{'chain_id': 'A', 'author_residue_number': 1181, 'author_insertion_code': '', 'chem_comp_id': 'G83', 'alternate_conformers': 0, 'entity_id': 2, 'struct_asym_id': 'B', 'residue_number': 1, 'chem_comp_name': 'ETHYL (5S,8S,11R)-8-BENZYL-5-(2-TERT-BUTOXY-2-OXOETHYL)-3,6,9-TRIOXO-11-{[(3S)-2-OXOPYRROLIDIN-3-YL]METHYL}-1-PHENYL-2-OXA-4,7,10-TRIAZATETRADECAN-14-OATE', 'weight': 680.788, 'carbohydrate_polymer': False, 'branch_name': ''}]

>  <ligand_codes>  (333) 
['G83']

>  <cofactor_codes>  (333) 
[]

>  <has_cofactor>  (333) 
False

>  <covalent>  (333) 
True

>  <base_name>  (333) 
3ZZC

>  <lig_resn>  (333) 
G83

>  <lig_resi>  (333) 
1181

>  <lig_chain>  (333) 
A

>  <lig_segi>  (333) 
B

>  <lig_alt>  (333) 


>  <polymer_chain>  (333) 
A

>  <single_smiles>  (333) 
CCOC(=O)CC[C@H](C[C@@H]1CCNC1=O)NC(=O)[C@H](Cc2ccccc2)NC(=O)[C@H](CC(=O)OC(C)(C)C)NC(=O)OCc3ccccc3

$$$$
G83P1S175
     RDKit          3D

 17 16  0  0  0  0  0  0  0  0999 V2000
   -9.8940   12.8970  -36.5940 C   0  0  0  0  0  0  0  0  0  0  0  0
   -9.6510   12.9770  -35.0820 C   0  0  1  0  0  0  0  0  0  0  0  0
   -8.4620   12.0930  -34.7840 C   0  0  0  0  0  0  0  0  0  0  0  0
   -9.2610   14.3500  -34.7310 N   0  0  0  0  0  0  0  0  0  0  0  0
   -8.7450   10.9170  -34.2200 N   0  0  0  0  0  0  0  0  0  0  0  0
   -7.3180   12.4750  -35.0590 O   0  0  0  0  0  0  0  0  0  0  0  0
   -9.0700   14.7310  -33.4520 C   0  0  0  0  0  0  0  0  0  0  0  0
   -8.5890   16.1350  -33.2460 C   0  0  0  0  0  0  0  0  0  0  0  0
   -9.1660   13.9920  -32.4630 O   0  0  0  0  0  0  0  0  0  0  0  0
   -7.0940   15.9700  -33.0860 C   0  0  0  0  0  0  0  0  0  0  0  0
   -6.3360   17.1850  -33.4620 C   0  0  0  0  0  0  0  0  0  0  0  0
   -6.4670   17.7660  -34.5460 O   0  0  0  0  0  0  0  0  0  0  0  0
   -5.3760   17.6500  -32.4930 O   0  0  0  0  0  0  0  0  0  0  0  0
   -4.0330   17.1570  -32.4230 C   0  0  0  0  0  0  0  0  0  0  0  0
   -3.6770   16.1600  -33.5370 C   0  0  0  0  0  0  0  0  0  0  0  0
   -3.9520   16.4650  -31.0680 C   0  0  0  0  0  0  0  0  0  0  0  0
   -3.0820   18.3540  -32.5240 C   0  0  0  0  0  0  0  0  0  0  0  0
  2  1  1  6
  2  3  1  0
  4  2  1  0
  3  5  1  0
  3  6  2  0
  7  4  1  0
  8  7  1  0
  7  9  2  0
  8 10  1  6
 11 10  1  0
 12 11  2  0
 13 11  1  0
 13 14  1  0
 14 15  1  0
 14 16  1  0
 14 17  1  0
A    2
 C37
A    3
 C39
A    4
 N33
A    6
 O47
A    7
 C31
A    9
 O35
A   10
 C25
A   11
 C14
A   12
 O1 
A   13
 O2 
A   14
 C29
A   15
 C12
A   16
 C43
A   17
 C45
M  END
>  <XChem_code>  (334) 
G83§1

>  <Occupancy>  (334) 
[1.0, 1.0, 1.0, 1.0, 1.0, 1.0, 1.0, 1.0, 1.0, 1.0, 1.0, 1.0, 1.0, 1.0, 1.0, 1.0, 1.0, 1.0, 1.0, 1.0, 1.0, 1.0, 1.0, 1.0, 1.0, 1.0, 1.0, 1.0, 1.0, 1.0, 1.0, 1.0, 1.0, 1.0, 1.0, 1.0, 1.0, 1.0, 1.0, 1.0, 1.0, 1.0, 1.0, 1.0, 1.0, 1.0, 1.0, 1.0, 1.0, 1.0]

>  <TempFactor>  (334) 
[21.5, 44.89, 24.36, 42.16, 38.25, 23.95, 40.64, 20.41, 29.29, 22.5, 27.31, 23.15, 28.56, 41.84, 29.6, 38.53, 33.37, 31.58, 30.86, 27.88, 28.97, 31.52, 43.05, 27.66, 27.42, 21.95, 25.67, 24.02, 25.01, 43.36, 43.87, 19.31, 17.05, 26.62, 26.73, 28.95, 20.4, 17.34, 20.74, 21.57, 21.69, 20.06, 20.47, 18.67, 21.64, 27.5, 29.51, 35.17, 31.37, 18.86]

>  <accession>  (334) 
3ZZC_A

>  <description>  (334) 
Chain A, 3C PROTEINASE [Coxsackievirus B3]

>  <evalue>  (334) 
7.4865399999999999e-87

>  <pdb_code>  (334) 
3ZZC

>  <chain>  (334) 
A

>  <ligands>  (334) 
[{'chain_id': 'A', 'author_residue_number': 1181, 'author_insertion_code': '', 'chem_comp_id': 'G83', 'alternate_conformers': 0, 'entity_id': 2, 'struct_asym_id': 'B', 'residue_number': 1, 'chem_comp_name': 'ETHYL (5S,8S,11R)-8-BENZYL-5-(2-TERT-BUTOXY-2-OXOETHYL)-3,6,9-TRIOXO-11-{[(3S)-2-OXOPYRROLIDIN-3-YL]METHYL}-1-PHENYL-2-OXA-4,7,10-TRIAZATETRADECAN-14-OATE', 'weight': 680.788, 'carbohydrate_polymer': False, 'branch_name': ''}]

>  <ligand_codes>  (334) 
['G83']

>  <cofactor_codes>  (334) 
[]

>  <has_cofactor>  (334) 
False

>  <covalent>  (334) 
True

>  <base_name>  (334) 
3ZZC

>  <lig_resn>  (334) 
G83

>  <lig_resi>  (334) 
1181

>  <lig_chain>  (334) 
A

>  <lig_segi>  (334) 
B

>  <lig_alt>  (334) 


>  <polymer_chain>  (334) 
A

>  <single_smiles>  (334) 
CCOC(=O)CC[C@H](C[C@@H]1CCNC1=O)NC(=O)[C@H](Cc2ccccc2)NC(=O)[C@H](CC(=O)OC(C)(C)C)NC(=O)OCc3ccccc3

$$$$
G83P1S176
     RDKit          3D

  5  4  0  0  0  0  0  0  0  0999 V2000
   -9.8940   12.8970  -36.5940 C   0  0  0  0  0  0  0  0  0  0  0  0
   -9.6510   12.9770  -35.0820 C   0  0  0  0  0  0  0  0  0  0  0  0
   -8.4620   12.0930  -34.7840 C   0  0  0  0  0  0  0  0  0  0  0  0
   -8.7450   10.9170  -34.2200 N   0  0  0  0  0  0  0  0  0  0  0  0
   -7.3180   12.4750  -35.0590 O   0  0  0  0  0  0  0  0  0  0  0  0
  2  1  1  6
  2  3  1  0
  3  4  1  0
  3  5  2  0
A    3
 C39
A    5
 O47
M  END
>  <XChem_code>  (335) 
G83§1

>  <Occupancy>  (335) 
[1.0, 1.0, 1.0, 1.0, 1.0, 1.0, 1.0, 1.0, 1.0, 1.0, 1.0, 1.0, 1.0, 1.0, 1.0, 1.0, 1.0, 1.0, 1.0, 1.0, 1.0, 1.0, 1.0, 1.0, 1.0, 1.0, 1.0, 1.0, 1.0, 1.0, 1.0, 1.0, 1.0, 1.0, 1.0, 1.0, 1.0, 1.0, 1.0, 1.0, 1.0, 1.0, 1.0, 1.0, 1.0, 1.0, 1.0, 1.0, 1.0, 1.0]

>  <TempFactor>  (335) 
[21.5, 44.89, 24.36, 42.16, 38.25, 23.95, 40.64, 20.41, 29.29, 22.5, 27.31, 23.15, 28.56, 41.84, 29.6, 38.53, 33.37, 31.58, 30.86, 27.88, 28.97, 31.52, 43.05, 27.66, 27.42, 21.95, 25.67, 24.02, 25.01, 43.36, 43.87, 19.31, 17.05, 26.62, 26.73, 28.95, 20.4, 17.34, 20.74, 21.57, 21.69, 20.06, 20.47, 18.67, 21.64, 27.5, 29.51, 35.17, 31.37, 18.86]

>  <accession>  (335) 
3ZZC_A

>  <description>  (335) 
Chain A, 3C PROTEINASE [Coxsackievirus B3]

>  <evalue>  (335) 
7.4865399999999999e-87

>  <pdb_code>  (335) 
3ZZC

>  <chain>  (335) 
A

>  <ligands>  (335) 
[{'chain_id': 'A', 'author_residue_number': 1181, 'author_insertion_code': '', 'chem_comp_id': 'G83', 'alternate_conformers': 0, 'entity_id': 2, 'struct_asym_id': 'B', 'residue_number': 1, 'chem_comp_name': 'ETHYL (5S,8S,11R)-8-BENZYL-5-(2-TERT-BUTOXY-2-OXOETHYL)-3,6,9-TRIOXO-11-{[(3S)-2-OXOPYRROLIDIN-3-YL]METHYL}-1-PHENYL-2-OXA-4,7,10-TRIAZATETRADECAN-14-OATE', 'weight': 680.788, 'carbohydrate_polymer': False, 'branch_name': ''}]

>  <ligand_codes>  (335) 
['G83']

>  <cofactor_codes>  (335) 
[]

>  <has_cofactor>  (335) 
False

>  <covalent>  (335) 
True

>  <base_name>  (335) 
3ZZC

>  <lig_resn>  (335) 
G83

>  <lig_resi>  (335) 
1181

>  <lig_chain>  (335) 
A

>  <lig_segi>  (335) 
B

>  <lig_alt>  (335) 


>  <polymer_chain>  (335) 
A

>  <single_smiles>  (335) 
CCOC(=O)CC[C@H](C[C@@H]1CCNC1=O)NC(=O)[C@H](Cc2ccccc2)NC(=O)[C@H](CC(=O)OC(C)(C)C)NC(=O)OCc3ccccc3

$$$$
G83P1S177
     RDKit          3D

 12 11  0  0  0  0  0  0  0  0999 V2000
   -9.8940   12.8970  -36.5940 C   0  0  0  0  0  0  0  0  0  0  0  0
   -9.6510   12.9770  -35.0820 C   0  0  1  0  0  0  0  0  0  0  0  0
   -8.4620   12.0930  -34.7840 C   0  0  0  0  0  0  0  0  0  0  0  0
   -9.2610   14.3500  -34.7310 N   0  0  0  0  0  0  0  0  0  0  0  0
   -8.7450   10.9170  -34.2200 N   0  0  0  0  0  0  0  0  0  0  0  0
   -7.3180   12.4750  -35.0590 O   0  0  0  0  0  0  0  0  0  0  0  0
   -9.0700   14.7310  -33.4520 C   0  0  0  0  0  0  0  0  0  0  0  0
   -8.5890   16.1350  -33.2460 C   0  0  0  0  0  0  0  0  0  0  0  0
   -9.1660   13.9920  -32.4630 O   0  0  0  0  0  0  0  0  0  0  0  0
   -7.0940   15.9700  -33.0860 C   0  0  0  0  0  0  0  0  0  0  0  0
   -6.3360   17.1850  -33.4620 C   0  0  0  0  0  0  0  0  0  0  0  0
   -6.4670   17.7660  -34.5460 O   0  0  0  0  0  0  0  0  0  0  0  0
  2  1  1  6
  2  3  1  0
  4  2  1  0
  3  5  1  0
  3  6  2  0
  7  4  1  0
  8  7  1  0
  7  9  2  0
  8 10  1  6
 11 10  1  0
 12 11  2  0
A    2
 C37
A    3
 C39
A    4
 N33
A    6
 O47
A    7
 C31
A    9
 O35
A   10
 C25
A   12
 O1 
M  END
>  <XChem_code>  (336) 
G83§1

>  <Occupancy>  (336) 
[1.0, 1.0, 1.0, 1.0, 1.0, 1.0, 1.0, 1.0, 1.0, 1.0, 1.0, 1.0, 1.0, 1.0, 1.0, 1.0, 1.0, 1.0, 1.0, 1.0, 1.0, 1.0, 1.0, 1.0, 1.0, 1.0, 1.0, 1.0, 1.0, 1.0, 1.0, 1.0, 1.0, 1.0, 1.0, 1.0, 1.0, 1.0, 1.0, 1.0, 1.0, 1.0, 1.0, 1.0, 1.0, 1.0, 1.0, 1.0, 1.0, 1.0]

>  <TempFactor>  (336) 
[21.5, 44.89, 24.36, 42.16, 38.25, 23.95, 40.64, 20.41, 29.29, 22.5, 27.31, 23.15, 28.56, 41.84, 29.6, 38.53, 33.37, 31.58, 30.86, 27.88, 28.97, 31.52, 43.05, 27.66, 27.42, 21.95, 25.67, 24.02, 25.01, 43.36, 43.87, 19.31, 17.05, 26.62, 26.73, 28.95, 20.4, 17.34, 20.74, 21.57, 21.69, 20.06, 20.47, 18.67, 21.64, 27.5, 29.51, 35.17, 31.37, 18.86]

>  <accession>  (336) 
3ZZC_A

>  <description>  (336) 
Chain A, 3C PROTEINASE [Coxsackievirus B3]

>  <evalue>  (336) 
7.4865399999999999e-87

>  <pdb_code>  (336) 
3ZZC

>  <chain>  (336) 
A

>  <ligands>  (336) 
[{'chain_id': 'A', 'author_residue_number': 1181, 'author_insertion_code': '', 'chem_comp_id': 'G83', 'alternate_conformers': 0, 'entity_id': 2, 'struct_asym_id': 'B', 'residue_number': 1, 'chem_comp_name': 'ETHYL (5S,8S,11R)-8-BENZYL-5-(2-TERT-BUTOXY-2-OXOETHYL)-3,6,9-TRIOXO-11-{[(3S)-2-OXOPYRROLIDIN-3-YL]METHYL}-1-PHENYL-2-OXA-4,7,10-TRIAZATETRADECAN-14-OATE', 'weight': 680.788, 'carbohydrate_polymer': False, 'branch_name': ''}]

>  <ligand_codes>  (336) 
['G83']

>  <cofactor_codes>  (336) 
[]

>  <has_cofactor>  (336) 
False

>  <covalent>  (336) 
True

>  <base_name>  (336) 
3ZZC

>  <lig_resn>  (336) 
G83

>  <lig_resi>  (336) 
1181

>  <lig_chain>  (336) 
A

>  <lig_segi>  (336) 
B

>  <lig_alt>  (336) 


>  <polymer_chain>  (336) 
A

>  <single_smiles>  (336) 
CCOC(=O)CC[C@H](C[C@@H]1CCNC1=O)NC(=O)[C@H](Cc2ccccc2)NC(=O)[C@H](CC(=O)OC(C)(C)C)NC(=O)OCc3ccccc3

$$$$
G83P1S178
     RDKit          3D

 13 12  0  0  0  0  0  0  0  0999 V2000
   -9.8940   12.8970  -36.5940 C   0  0  0  0  0  0  0  0  0  0  0  0
   -9.6510   12.9770  -35.0820 C   0  0  1  0  0  0  0  0  0  0  0  0
   -8.4620   12.0930  -34.7840 C   0  0  0  0  0  0  0  0  0  0  0  0
   -9.2610   14.3500  -34.7310 N   0  0  0  0  0  0  0  0  0  0  0  0
   -8.7450   10.9170  -34.2200 N   0  0  0  0  0  0  0  0  0  0  0  0
   -7.3180   12.4750  -35.0590 O   0  0  0  0  0  0  0  0  0  0  0  0
   -9.0700   14.7310  -33.4520 C   0  0  0  0  0  0  0  0  0  0  0  0
   -8.5890   16.1350  -33.2460 C   0  0  0  0  0  0  0  0  0  0  0  0
   -9.1660   13.9920  -32.4630 O   0  0  0  0  0  0  0  0  0  0  0  0
   -7.0940   15.9700  -33.0860 C   0  0  0  0  0  0  0  0  0  0  0  0
   -6.3360   17.1850  -33.4620 C   0  0  0  0  0  0  0  0  0  0  0  0
   -5.3760   17.6500  -32.4930 O   0  0  0  0  0  0  0  0  0  0  0  0
   -6.4670   17.7660  -34.5460 O   0  0  0  0  0  0  0  0  0  0  0  0
  2  1  1  6
  2  3  1  0
  4  2  1  0
  3  5  1  0
  3  6  2  0
  7  4  1  0
  8  7  1  0
  7  9  2  0
  8 10  1  6
 11 10  1  0
 12 11  1  0
 13 11  2  0
A    2
 C37
A    3
 C39
A    4
 N33
A    6
 O47
A    7
 C31
A    9
 O35
A   10
 C25
A   11
 C14
A   13
 O1 
M  END
>  <XChem_code>  (337) 
G83§1

>  <Occupancy>  (337) 
[1.0, 1.0, 1.0, 1.0, 1.0, 1.0, 1.0, 1.0, 1.0, 1.0, 1.0, 1.0, 1.0, 1.0, 1.0, 1.0, 1.0, 1.0, 1.0, 1.0, 1.0, 1.0, 1.0, 1.0, 1.0, 1.0, 1.0, 1.0, 1.0, 1.0, 1.0, 1.0, 1.0, 1.0, 1.0, 1.0, 1.0, 1.0, 1.0, 1.0, 1.0, 1.0, 1.0, 1.0, 1.0, 1.0, 1.0, 1.0, 1.0, 1.0]

>  <TempFactor>  (337) 
[21.5, 44.89, 24.36, 42.16, 38.25, 23.95, 40.64, 20.41, 29.29, 22.5, 27.31, 23.15, 28.56, 41.84, 29.6, 38.53, 33.37, 31.58, 30.86, 27.88, 28.97, 31.52, 43.05, 27.66, 27.42, 21.95, 25.67, 24.02, 25.01, 43.36, 43.87, 19.31, 17.05, 26.62, 26.73, 28.95, 20.4, 17.34, 20.74, 21.57, 21.69, 20.06, 20.47, 18.67, 21.64, 27.5, 29.51, 35.17, 31.37, 18.86]

>  <accession>  (337) 
3ZZC_A

>  <description>  (337) 
Chain A, 3C PROTEINASE [Coxsackievirus B3]

>  <evalue>  (337) 
7.4865399999999999e-87

>  <pdb_code>  (337) 
3ZZC

>  <chain>  (337) 
A

>  <ligands>  (337) 
[{'chain_id': 'A', 'author_residue_number': 1181, 'author_insertion_code': '', 'chem_comp_id': 'G83', 'alternate_conformers': 0, 'entity_id': 2, 'struct_asym_id': 'B', 'residue_number': 1, 'chem_comp_name': 'ETHYL (5S,8S,11R)-8-BENZYL-5-(2-TERT-BUTOXY-2-OXOETHYL)-3,6,9-TRIOXO-11-{[(3S)-2-OXOPYRROLIDIN-3-YL]METHYL}-1-PHENYL-2-OXA-4,7,10-TRIAZATETRADECAN-14-OATE', 'weight': 680.788, 'carbohydrate_polymer': False, 'branch_name': ''}]

>  <ligand_codes>  (337) 
['G83']

>  <cofactor_codes>  (337) 
[]

>  <has_cofactor>  (337) 
False

>  <covalent>  (337) 
True

>  <base_name>  (337) 
3ZZC

>  <lig_resn>  (337) 
G83

>  <lig_resi>  (337) 
1181

>  <lig_chain>  (337) 
A

>  <lig_segi>  (337) 
B

>  <lig_alt>  (337) 


>  <polymer_chain>  (337) 
A

>  <single_smiles>  (337) 
CCOC(=O)CC[C@H](C[C@@H]1CCNC1=O)NC(=O)[C@H](Cc2ccccc2)NC(=O)[C@H](CC(=O)OC(C)(C)C)NC(=O)OCc3ccccc3

$$$$
G83P1S179
     RDKit          3D

 38 38  0  0  0  0  0  0  0  0999 V2000
   -9.8940   12.8970  -36.5940 C   0  0  0  0  0  0  0  0  0  0  0  0
   -9.6510   12.9770  -35.0820 C   0  0  1  0  0  0  0  0  0  0  0  0
   -8.4620   12.0930  -34.7840 C   0  0  0  0  0  0  0  0  0  0  0  0
   -9.2610   14.3500  -34.7310 N   0  0  0  0  0  0  0  0  0  0  0  0
   -8.7450   10.9170  -34.2200 N   0  0  0  0  0  0  0  0  0  0  0  0
   -7.3180   12.4750  -35.0590 O   0  0  0  0  0  0  0  0  0  0  0  0
   -9.0700   14.7310  -33.4520 C   0  0  0  0  0  0  0  0  0  0  0  0
   -7.7310    9.9410  -33.8290 C   0  0  1  0  0  0  0  0  0  0  0  0
   -8.5890   16.1350  -33.2460 C   0  0  1  0  0  0  0  0  0  0  0  0
   -9.1660   13.9920  -32.4630 O   0  0  0  0  0  0  0  0  0  0  0  0
   -7.6750    9.9230  -32.2970 C   0  0  0  0  0  0  0  0  0  0  0  0
   -8.1830    8.5770  -34.4040 C   0  0  2  0  0  0  0  0  0  0  0  0
   -8.9270   16.6710  -31.9560 N   0  0  0  0  0  0  0  0  0  0  0  0
   -7.0940   15.9700  -33.0860 C   0  0  0  0  0  0  0  0  0  0  0  0
   -8.1980    8.6230  -35.9360 C   0  0  0  0  0  0  0  0  0  0  0  0
   -9.8310    8.1200  -33.8380 R   0  0  0  0  0  0  0  0  0  0  0  0
   -9.6140   17.8180  -31.9050 C   0  0  0  0  0  0  0  0  0  0  0  0
   -6.3360   17.1850  -33.4620 C   0  0  0  0  0  0  0  0  0  0  0  0
   -6.8090    8.9220  -36.4600 C   0  0  0  0  0  0  0  0  0  0  0  0
   -9.9650   18.3270  -30.5810 O   0  0  0  0  0  0  0  0  0  0  0  0
   -9.9760   18.4340  -32.9180 O   0  0  0  0  0  0  0  0  0  0  0  0
   -6.4670   17.7660  -34.5460 O   0  0  0  0  0  0  0  0  0  0  0  0
   -5.3760   17.6500  -32.4930 O   0  0  0  0  0  0  0  0  0  0  0  0
   -6.6580    9.7290  -37.6550 O   0  0  0  0  0  0  0  0  0  0  0  0
   -5.8080    8.4980  -35.8980 O   0  0  0  0  0  0  0  0  0  0  0  0
  -10.3020   19.6950  -30.3210 C   0  0  0  0  0  0  0  0  0  0  0  0
   -4.0330   17.1570  -32.4230 C   0  0  0  0  0  0  0  0  0  0  0  0
   -5.3610   10.2030  -38.0740 C   0  0  0  0  0  0  0  0  0  0  0  0
  -10.4040   19.8340  -28.8340 C   0  0  0  0  0  0  0  0  0  0  0  0
   -3.6770   16.1600  -33.5370 C   0  0  0  0  0  0  0  0  0  0  0  0
   -3.9520   16.4650  -31.0680 C   0  0  0  0  0  0  0  0  0  0  0  0
   -3.0820   18.3540  -32.5240 C   0  0  0  0  0  0  0  0  0  0  0  0
   -4.5750    9.1110  -38.7950 C   0  0  0  0  0  0  0  0  0  0  0  0
   -9.6890   20.8420  -28.1960 C   0  0  0  0  0  0  0  0  0  0  0  0
  -11.1970   18.9310  -28.1220 C   0  0  0  0  0  0  0  0  0  0  0  0
   -9.7810   20.9510  -26.7880 C   0  0  0  0  0  0  0  0  0  0  0  0
  -11.3130   19.0390  -26.7440 C   0  0  0  0  0  0  0  0  0  0  0  0
  -10.5960   20.0640  -26.0750 C   0  0  0  0  0  0  0  0  0  0  0  0
  2  1  1  6
  2  3  1  0
  4  2  1  0
  3  5  1  0
  3  6  2  0
  7  4  1  0
  5  8  1  0
  9  7  1  0
  7 10  2  0
  8 11  1  1
  8 12  1  0
 13  9  1  0
  9 14  1  1
 12 15  1  0
 12 16  1  1
 17 13  1  0
 18 14  1  0
 15 19  1  0
 20 17  1  0
 17 21  2  0
 22 18  2  0
 23 18  1  0
 19 24  1  0
 19 25  2  0
 26 20  1  0
 23 27  1  0
 28 24  1  0
 29 26  1  0
 27 30  1  0
 27 31  1  0
 27 32  1  0
 28 33  1  0
 34 29  2  0
 29 35  1  0
 36 34  1  0
 35 37  2  0
 36 38  2  0
 37 38  1  0
V   16 *
A    2
 C37
A    3
 C39
A    4
 N33
A    5
 N49
A    6
 O47
A    7
 C31
A    8
 C57
A    9
 C23
A   10
 O35
A   12
 C63
A   13
 N21
A   14
 C25
A   15
 C82
A   16
 X  
A   17
 C17
A   18
 C14
A   19
 C84
A   20
 O15
A   21
 O19
A   22
 O1 
A   23
 O2 
A   24
 O86
A   25
 O88
A   26
 C13
A   27
 C29
A   28
 C3 
A   29
 C4 
A   30
 C12
A   31
 C43
A   32
 C45
A   33
 C5 
A   34
 C2 
A   35
 C6 
A   36
 C1 
A   37
 C8 
A   38
 C10
M  END
>  <XChem_code>  (338) 
G83§1

>  <Occupancy>  (338) 
[1.0, 1.0, 1.0, 1.0, 1.0, 1.0, 1.0, 1.0, 1.0, 1.0, 1.0, 1.0, 1.0, 1.0, 1.0, 1.0, 1.0, 1.0, 1.0, 1.0, 1.0, 1.0, 1.0, 1.0, 1.0, 1.0, 1.0, 1.0, 1.0, 1.0, 1.0, 1.0, 1.0, 1.0, 1.0, 1.0, 1.0, 1.0, 1.0, 1.0, 1.0, 1.0, 1.0, 1.0, 1.0, 1.0, 1.0, 1.0, 1.0, 1.0]

>  <TempFactor>  (338) 
[21.5, 44.89, 24.36, 42.16, 38.25, 23.95, 40.64, 20.41, 29.29, 22.5, 27.31, 23.15, 28.56, 41.84, 29.6, 38.53, 33.37, 31.58, 30.86, 27.88, 28.97, 31.52, 43.05, 27.66, 27.42, 21.95, 25.67, 24.02, 25.01, 43.36, 43.87, 19.31, 17.05, 26.62, 26.73, 28.95, 20.4, 17.34, 20.74, 21.57, 21.69, 20.06, 20.47, 18.67, 21.64, 27.5, 29.51, 35.17, 31.37, 18.86]

>  <accession>  (338) 
3ZZC_A

>  <description>  (338) 
Chain A, 3C PROTEINASE [Coxsackievirus B3]

>  <evalue>  (338) 
7.4865399999999999e-87

>  <pdb_code>  (338) 
3ZZC

>  <chain>  (338) 
A

>  <ligands>  (338) 
[{'chain_id': 'A', 'author_residue_number': 1181, 'author_insertion_code': '', 'chem_comp_id': 'G83', 'alternate_conformers': 0, 'entity_id': 2, 'struct_asym_id': 'B', 'residue_number': 1, 'chem_comp_name': 'ETHYL (5S,8S,11R)-8-BENZYL-5-(2-TERT-BUTOXY-2-OXOETHYL)-3,6,9-TRIOXO-11-{[(3S)-2-OXOPYRROLIDIN-3-YL]METHYL}-1-PHENYL-2-OXA-4,7,10-TRIAZATETRADECAN-14-OATE', 'weight': 680.788, 'carbohydrate_polymer': False, 'branch_name': ''}]

>  <ligand_codes>  (338) 
['G83']

>  <cofactor_codes>  (338) 
[]

>  <has_cofactor>  (338) 
False

>  <covalent>  (338) 
True

>  <base_name>  (338) 
3ZZC

>  <lig_resn>  (338) 
G83

>  <lig_resi>  (338) 
1181

>  <lig_chain>  (338) 
A

>  <lig_segi>  (338) 
B

>  <lig_alt>  (338) 


>  <polymer_chain>  (338) 
A

>  <single_smiles>  (338) 
CCOC(=O)CC[C@H](C[C@@H]1CCNC1=O)NC(=O)[C@H](Cc2ccccc2)NC(=O)[C@H](CC(=O)OC(C)(C)C)NC(=O)OCc3ccccc3

$$$$
G83P1S180
     RDKit          3D

 38 38  0  0  0  0  0  0  0  0999 V2000
  -10.3020   19.6950  -30.3210 C   0  0  0  0  0  0  0  0  0  0  0  0
   -9.9650   18.3270  -30.5810 O   0  0  0  0  0  0  0  0  0  0  0  0
   -9.6140   17.8180  -31.9050 C   0  0  0  0  0  0  0  0  0  0  0  0
   -8.9270   16.6710  -31.9560 N   0  0  0  0  0  0  0  0  0  0  0  0
   -9.9760   18.4340  -32.9180 O   0  0  0  0  0  0  0  0  0  0  0  0
   -8.5890   16.1350  -33.2460 C   0  0  2  0  0  0  0  0  0  0  0  0
   -9.0700   14.7310  -33.4520 C   0  0  0  0  0  0  0  0  0  0  0  0
   -7.0940   15.9700  -33.0860 C   0  0  0  0  0  0  0  0  0  0  0  0
   -9.2610   14.3500  -34.7310 N   0  0  0  0  0  0  0  0  0  0  0  0
   -9.1660   13.9920  -32.4630 O   0  0  0  0  0  0  0  0  0  0  0  0
   -6.3360   17.1850  -33.4620 C   0  0  0  0  0  0  0  0  0  0  0  0
   -9.6510   12.9770  -35.0820 C   0  0  2  0  0  0  0  0  0  0  0  0
   -6.4670   17.7660  -34.5460 O   0  0  0  0  0  0  0  0  0  0  0  0
   -5.3760   17.6500  -32.4930 O   0  0  0  0  0  0  0  0  0  0  0  0
   -8.4620   12.0930  -34.7840 C   0  0  0  0  0  0  0  0  0  0  0  0
   -9.8940   12.8970  -36.5940 C   0  0  0  0  0  0  0  0  0  0  0  0
   -4.0330   17.1570  -32.4230 C   0  0  0  0  0  0  0  0  0  0  0  0
   -8.7450   10.9170  -34.2200 N   0  0  0  0  0  0  0  0  0  0  0  0
   -7.3180   12.4750  -35.0590 O   0  0  0  0  0  0  0  0  0  0  0  0
  -11.1210   13.7000  -36.9770 C   0  0  0  0  0  0  0  0  0  0  0  0
   -3.6770   16.1600  -33.5370 C   0  0  0  0  0  0  0  0  0  0  0  0
   -3.9520   16.4650  -31.0680 C   0  0  0  0  0  0  0  0  0  0  0  0
   -3.0820   18.3540  -32.5240 C   0  0  0  0  0  0  0  0  0  0  0  0
   -7.7310    9.9410  -33.8290 C   0  0  1  0  0  0  0  0  0  0  0  0
  -12.3400   13.5180  -36.3250 C   0  0  0  0  0  0  0  0  0  0  0  0
  -11.0320   14.6580  -38.0030 C   0  0  0  0  0  0  0  0  0  0  0  0
   -7.6750    9.9230  -32.2970 C   0  0  0  0  0  0  0  0  0  0  0  0
   -8.1830    8.5770  -34.4040 C   0  0  2  0  0  0  0  0  0  0  0  0
  -13.4670   14.3010  -36.6620 C   0  0  0  0  0  0  0  0  0  0  0  0
  -12.1840   15.4150  -38.3560 C   0  0  0  0  0  0  0  0  0  0  0  0
   -8.1980    8.6230  -35.9360 C   0  0  0  0  0  0  0  0  0  0  0  0
   -9.8310    8.1200  -33.8380 R   0  0  0  0  0  0  0  0  0  0  0  0
  -13.4100   15.2640  -37.6860 C   0  0  0  0  0  0  0  0  0  0  0  0
   -6.8090    8.9220  -36.4600 C   0  0  0  0  0  0  0  0  0  0  0  0
   -6.6580    9.7290  -37.6550 O   0  0  0  0  0  0  0  0  0  0  0  0
   -5.8080    8.4980  -35.8980 O   0  0  0  0  0  0  0  0  0  0  0  0
   -5.3610   10.2030  -38.0740 C   0  0  0  0  0  0  0  0  0  0  0  0
   -4.5750    9.1110  -38.7950 C   0  0  0  0  0  0  0  0  0  0  0  0
  1  2  1  0
  2  3  1  0
  3  4  1  0
  3  5  2  0
  4  6  1  0
  6  7  1  0
  6  8  1  1
  7  9  1  0
  7 10  2  0
 11  8  1  0
  9 12  1  0
 13 11  2  0
 14 11  1  0
 12 15  1  0
 12 16  1  6
 14 17  1  0
 15 18  1  0
 15 19  2  0
 16 20  1  0
 17 21  1  0
 17 22  1  0
 17 23  1  0
 18 24  1  0
 20 25  2  0
 20 26  1  0
 24 27  1  1
 24 28  1  0
 29 25  1  0
 30 26  2  0
 28 31  1  0
 28 32  1  1
 29 33  2  0
 33 30  1  0
 31 34  1  0
 34 35  1  0
 34 36  2  0
 37 35  1  0
 37 38  1  0
V   32 *
A    2
 O15
A    3
 C17
A    4
 N21
A    5
 O19
A    6
 C23
A    7
 C31
A    8
 C25
A    9
 N33
A   10
 O35
A   11
 C14
A   12
 C37
A   13
 O1 
A   14
 O2 
A   15
 C39
A   16
 C41
A   17
 C29
A   18
 N49
A   19
 O47
A   20
 C51
A   21
 C12
A   22
 C43
A   23
 C45
A   24
 C57
A   25
 C53
A   26
 C55
A   28
 C63
A   29
 C7 
A   30
 C11
A   31
 C82
A   32
 X  
A   33
 C9 
A   34
 C84
A   35
 O86
A   36
 O88
A   37
 C3 
A   38
 C5 
M  END
>  <XChem_code>  (339) 
G83§1

>  <Occupancy>  (339) 
[1.0, 1.0, 1.0, 1.0, 1.0, 1.0, 1.0, 1.0, 1.0, 1.0, 1.0, 1.0, 1.0, 1.0, 1.0, 1.0, 1.0, 1.0, 1.0, 1.0, 1.0, 1.0, 1.0, 1.0, 1.0, 1.0, 1.0, 1.0, 1.0, 1.0, 1.0, 1.0, 1.0, 1.0, 1.0, 1.0, 1.0, 1.0, 1.0, 1.0, 1.0, 1.0, 1.0, 1.0, 1.0, 1.0, 1.0, 1.0, 1.0, 1.0]

>  <TempFactor>  (339) 
[21.5, 44.89, 24.36, 42.16, 38.25, 23.95, 40.64, 20.41, 29.29, 22.5, 27.31, 23.15, 28.56, 41.84, 29.6, 38.53, 33.37, 31.58, 30.86, 27.88, 28.97, 31.52, 43.05, 27.66, 27.42, 21.95, 25.67, 24.02, 25.01, 43.36, 43.87, 19.31, 17.05, 26.62, 26.73, 28.95, 20.4, 17.34, 20.74, 21.57, 21.69, 20.06, 20.47, 18.67, 21.64, 27.5, 29.51, 35.17, 31.37, 18.86]

>  <accession>  (339) 
3ZZC_A

>  <description>  (339) 
Chain A, 3C PROTEINASE [Coxsackievirus B3]

>  <evalue>  (339) 
7.4865399999999999e-87

>  <pdb_code>  (339) 
3ZZC

>  <chain>  (339) 
A

>  <ligands>  (339) 
[{'chain_id': 'A', 'author_residue_number': 1181, 'author_insertion_code': '', 'chem_comp_id': 'G83', 'alternate_conformers': 0, 'entity_id': 2, 'struct_asym_id': 'B', 'residue_number': 1, 'chem_comp_name': 'ETHYL (5S,8S,11R)-8-BENZYL-5-(2-TERT-BUTOXY-2-OXOETHYL)-3,6,9-TRIOXO-11-{[(3S)-2-OXOPYRROLIDIN-3-YL]METHYL}-1-PHENYL-2-OXA-4,7,10-TRIAZATETRADECAN-14-OATE', 'weight': 680.788, 'carbohydrate_polymer': False, 'branch_name': ''}]

>  <ligand_codes>  (339) 
['G83']

>  <cofactor_codes>  (339) 
[]

>  <has_cofactor>  (339) 
False

>  <covalent>  (339) 
True

>  <base_name>  (339) 
3ZZC

>  <lig_resn>  (339) 
G83

>  <lig_resi>  (339) 
1181

>  <lig_chain>  (339) 
A

>  <lig_segi>  (339) 
B

>  <lig_alt>  (339) 


>  <polymer_chain>  (339) 
A

>  <single_smiles>  (339) 
CCOC(=O)CC[C@H](C[C@@H]1CCNC1=O)NC(=O)[C@H](Cc2ccccc2)NC(=O)[C@H](CC(=O)OC(C)(C)C)NC(=O)OCc3ccccc3

$$$$
G83P1S181
     RDKit          3D

 38 38  0  0  0  0  0  0  0  0999 V2000
   -9.8940   12.8970  -36.5940 C   0  0  0  0  0  0  0  0  0  0  0  0
   -9.6510   12.9770  -35.0820 C   0  0  2  0  0  0  0  0  0  0  0  0
   -9.2610   14.3500  -34.7310 N   0  0  0  0  0  0  0  0  0  0  0  0
   -8.4620   12.0930  -34.7840 C   0  0  0  0  0  0  0  0  0  0  0  0
   -9.0700   14.7310  -33.4520 C   0  0  0  0  0  0  0  0  0  0  0  0
   -7.3180   12.4750  -35.0590 O   0  0  0  0  0  0  0  0  0  0  0  0
   -8.7450   10.9170  -34.2200 N   0  0  0  0  0  0  0  0  0  0  0  0
   -8.5890   16.1350  -33.2460 C   0  0  1  0  0  0  0  0  0  0  0  0
   -9.1660   13.9920  -32.4630 O   0  0  0  0  0  0  0  0  0  0  0  0
   -7.7310    9.9410  -33.8290 C   0  0  1  0  0  0  0  0  0  0  0  0
   -8.9270   16.6710  -31.9560 N   0  0  0  0  0  0  0  0  0  0  0  0
   -7.0940   15.9700  -33.0860 C   0  0  0  0  0  0  0  0  0  0  0  0
   -7.6750    9.9230  -32.2970 C   0  0  0  0  0  0  0  0  0  0  0  0
   -8.1830    8.5770  -34.4040 C   0  0  2  0  0  0  0  0  0  0  0  0
   -9.6140   17.8180  -31.9050 C   0  0  0  0  0  0  0  0  0  0  0  0
   -6.3360   17.1850  -33.4620 C   0  0  0  0  0  0  0  0  0  0  0  0
   -7.2530   11.2580  -31.6380 C   0  0  1  0  0  0  0  0  0  0  0  0
   -8.1980    8.6230  -35.9360 C   0  0  0  0  0  0  0  0  0  0  0  0
   -9.8310    8.1200  -33.8380 R   0  0  0  0  0  0  0  0  0  0  0  0
   -9.9650   18.3270  -30.5810 O   0  0  0  0  0  0  0  0  0  0  0  0
   -9.9760   18.4340  -32.9180 O   0  0  0  0  0  0  0  0  0  0  0  0
   -6.4670   17.7660  -34.5460 O   0  0  0  0  0  0  0  0  0  0  0  0
   -5.3760   17.6500  -32.4930 O   0  0  0  0  0  0  0  0  0  0  0  0
   -7.1040   11.1020  -30.1450 C   0  0  0  0  0  0  0  0  0  0  0  0
   -5.9010   11.8850  -31.9840 C   0  0  0  0  0  0  0  0  0  0  0  0
   -6.8090    8.9220  -36.4600 C   0  0  0  0  0  0  0  0  0  0  0  0
  -10.3020   19.6950  -30.3210 C   0  0  0  0  0  0  0  0  0  0  0  0
   -4.0330   17.1570  -32.4230 C   0  0  0  0  0  0  0  0  0  0  0  0
   -7.8010   10.3100  -29.5070 O   0  0  0  0  0  0  0  0  0  0  0  0
   -6.2280   11.9150  -29.7100 N   0  0  0  0  0  0  0  0  0  0  0  0
   -5.4330   12.6240  -30.7080 C   0  0  0  0  0  0  0  0  0  0  0  0
   -6.6580    9.7290  -37.6550 O   0  0  0  0  0  0  0  0  0  0  0  0
   -5.8080    8.4980  -35.8980 O   0  0  0  0  0  0  0  0  0  0  0  0
   -3.6770   16.1600  -33.5370 C   0  0  0  0  0  0  0  0  0  0  0  0
   -3.9520   16.4650  -31.0680 C   0  0  0  0  0  0  0  0  0  0  0  0
   -3.0820   18.3540  -32.5240 C   0  0  0  0  0  0  0  0  0  0  0  0
   -5.3610   10.2030  -38.0740 C   0  0  0  0  0  0  0  0  0  0  0  0
   -4.5750    9.1110  -38.7950 C   0  0  0  0  0  0  0  0  0  0  0  0
  2  1  1  6
  3  2  1  0
  2  4  1  0
  5  3  1  0
  4  6  2  0
  4  7  1  0
  8  5  1  0
  5  9  2  0
  7 10  1  0
 11  8  1  0
  8 12  1  1
 10 13  1  1
 10 14  1  0
 15 11  1  0
 16 12  1  0
 17 13  1  6
 14 18  1  0
 14 19  1  1
 20 15  1  0
 15 21  2  0
 22 16  2  0
 23 16  1  0
 17 24  1  0
 17 25  1  0
 18 26  1  0
 27 20  1  0
 23 28  1  0
 24 29  2  0
 24 30  1  0
 31 25  1  0
 26 32  1  0
 26 33  2  0
 28 34  1  0
 28 35  1  0
 28 36  1  0
 30 31  1  0
 37 32  1  0
 37 38  1  0
V   19 *
A    2
 C37
A    3
 N33
A    4
 C39
A    5
 C31
A    6
 O47
A    7
 N49
A    8
 C23
A    9
 O35
A   10
 C57
A   11
 N21
A   12
 C25
A   13
 C59
A   14
 C63
A   15
 C17
A   16
 C14
A   17
 C61
A   18
 C82
A   19
 X  
A   20
 O15
A   21
 O19
A   22
 O1 
A   23
 O2 
A   24
 C65
A   25
 C73
A   26
 C84
A   28
 C29
A   29
 O66
A   30
 N69
A   31
 C71
A   32
 O86
A   33
 O88
A   34
 C12
A   35
 C43
A   36
 C45
A   37
 C3 
A   38
 C5 
M  END
>  <XChem_code>  (340) 
G83§1

>  <Occupancy>  (340) 
[1.0, 1.0, 1.0, 1.0, 1.0, 1.0, 1.0, 1.0, 1.0, 1.0, 1.0, 1.0, 1.0, 1.0, 1.0, 1.0, 1.0, 1.0, 1.0, 1.0, 1.0, 1.0, 1.0, 1.0, 1.0, 1.0, 1.0, 1.0, 1.0, 1.0, 1.0, 1.0, 1.0, 1.0, 1.0, 1.0, 1.0, 1.0, 1.0, 1.0, 1.0, 1.0, 1.0, 1.0, 1.0, 1.0, 1.0, 1.0, 1.0, 1.0]

>  <TempFactor>  (340) 
[21.5, 44.89, 24.36, 42.16, 38.25, 23.95, 40.64, 20.41, 29.29, 22.5, 27.31, 23.15, 28.56, 41.84, 29.6, 38.53, 33.37, 31.58, 30.86, 27.88, 28.97, 31.52, 43.05, 27.66, 27.42, 21.95, 25.67, 24.02, 25.01, 43.36, 43.87, 19.31, 17.05, 26.62, 26.73, 28.95, 20.4, 17.34, 20.74, 21.57, 21.69, 20.06, 20.47, 18.67, 21.64, 27.5, 29.51, 35.17, 31.37, 18.86]

>  <accession>  (340) 
3ZZC_A

>  <description>  (340) 
Chain A, 3C PROTEINASE [Coxsackievirus B3]

>  <evalue>  (340) 
7.4865399999999999e-87

>  <pdb_code>  (340) 
3ZZC

>  <chain>  (340) 
A

>  <ligands>  (340) 
[{'chain_id': 'A', 'author_residue_number': 1181, 'author_insertion_code': '', 'chem_comp_id': 'G83', 'alternate_conformers': 0, 'entity_id': 2, 'struct_asym_id': 'B', 'residue_number': 1, 'chem_comp_name': 'ETHYL (5S,8S,11R)-8-BENZYL-5-(2-TERT-BUTOXY-2-OXOETHYL)-3,6,9-TRIOXO-11-{[(3S)-2-OXOPYRROLIDIN-3-YL]METHYL}-1-PHENYL-2-OXA-4,7,10-TRIAZATETRADECAN-14-OATE', 'weight': 680.788, 'carbohydrate_polymer': False, 'branch_name': ''}]

>  <ligand_codes>  (340) 
['G83']

>  <cofactor_codes>  (340) 
[]

>  <has_cofactor>  (340) 
False

>  <covalent>  (340) 
True

>  <base_name>  (340) 
3ZZC

>  <lig_resn>  (340) 
G83

>  <lig_resi>  (340) 
1181

>  <lig_chain>  (340) 
A

>  <lig_segi>  (340) 
B

>  <lig_alt>  (340) 


>  <polymer_chain>  (340) 
A

>  <single_smiles>  (340) 
CCOC(=O)CC[C@H](C[C@@H]1CCNC1=O)NC(=O)[C@H](Cc2ccccc2)NC(=O)[C@H](CC(=O)OC(C)(C)C)NC(=O)OCc3ccccc3

$$$$
G83P1S182
     RDKit          3D

 33 33  0  0  0  0  0  0  0  0999 V2000
   -9.8940   12.8970  -36.5940 C   0  0  0  0  0  0  0  0  0  0  0  0
   -9.6510   12.9770  -35.0820 C   0  0  1  0  0  0  0  0  0  0  0  0
   -8.4620   12.0930  -34.7840 C   0  0  0  0  0  0  0  0  0  0  0  0
   -9.2610   14.3500  -34.7310 N   0  0  0  0  0  0  0  0  0  0  0  0
   -8.7450   10.9170  -34.2200 N   0  0  0  0  0  0  0  0  0  0  0  0
   -7.3180   12.4750  -35.0590 O   0  0  0  0  0  0  0  0  0  0  0  0
   -9.0700   14.7310  -33.4520 C   0  0  0  0  0  0  0  0  0  0  0  0
   -7.7310    9.9410  -33.8290 C   0  0  1  0  0  0  0  0  0  0  0  0
   -8.5890   16.1350  -33.2460 C   0  0  2  0  0  0  0  0  0  0  0  0
   -9.1660   13.9920  -32.4630 O   0  0  0  0  0  0  0  0  0  0  0  0
   -7.6750    9.9230  -32.2970 C   0  0  0  0  0  0  0  0  0  0  0  0
   -8.1830    8.5770  -34.4040 C   0  0  2  0  0  0  0  0  0  0  0  0
   -7.0940   15.9700  -33.0860 C   0  0  0  0  0  0  0  0  0  0  0  0
   -8.9270   16.6710  -31.9560 N   0  0  0  0  0  0  0  0  0  0  0  0
   -8.1980    8.6230  -35.9360 C   0  0  0  0  0  0  0  0  0  0  0  0
   -9.8310    8.1200  -33.8380 R   0  0  0  0  0  0  0  0  0  0  0  0
   -6.3360   17.1850  -33.4620 C   0  0  0  0  0  0  0  0  0  0  0  0
   -9.6140   17.8180  -31.9050 C   0  0  0  0  0  0  0  0  0  0  0  0
   -6.8090    8.9220  -36.4600 C   0  0  0  0  0  0  0  0  0  0  0  0
   -6.4670   17.7660  -34.5460 O   0  0  0  0  0  0  0  0  0  0  0  0
   -9.9650   18.3270  -30.5810 O   0  0  0  0  0  0  0  0  0  0  0  0
   -9.9760   18.4340  -32.9180 O   0  0  0  0  0  0  0  0  0  0  0  0
   -6.6580    9.7290  -37.6550 O   0  0  0  0  0  0  0  0  0  0  0  0
   -5.8080    8.4980  -35.8980 O   0  0  0  0  0  0  0  0  0  0  0  0
  -10.3020   19.6950  -30.3210 C   0  0  0  0  0  0  0  0  0  0  0  0
   -5.3610   10.2030  -38.0740 C   0  0  0  0  0  0  0  0  0  0  0  0
  -10.4040   19.8340  -28.8340 C   0  0  0  0  0  0  0  0  0  0  0  0
   -4.5750    9.1110  -38.7950 C   0  0  0  0  0  0  0  0  0  0  0  0
   -9.6890   20.8420  -28.1960 C   0  0  0  0  0  0  0  0  0  0  0  0
  -11.1970   18.9310  -28.1220 C   0  0  0  0  0  0  0  0  0  0  0  0
   -9.7810   20.9510  -26.7880 C   0  0  0  0  0  0  0  0  0  0  0  0
  -11.3130   19.0390  -26.7440 C   0  0  0  0  0  0  0  0  0  0  0  0
  -10.5960   20.0640  -26.0750 C   0  0  0  0  0  0  0  0  0  0  0  0
  2  1  1  6
  2  3  1  0
  4  2  1  0
  3  5  1  0
  3  6  2  0
  7  4  1  0
  5  8  1  0
  9  7  1  0
  7 10  2  0
  8 11  1  1
  8 12  1  0
  9 13  1  1
 14  9  1  0
 12 15  1  0
 12 16  1  1
 17 13  1  0
 18 14  1  0
 15 19  1  0
 20 17  2  0
 21 18  1  0
 18 22  2  0
 19 23  1  0
 19 24  2  0
 25 21  1  0
 26 23  1  0
 27 25  1  0
 26 28  1  0
 29 27  2  0
 27 30  1  0
 31 29  1  0
 30 32  2  0
 31 33  2  0
 32 33  1  0
V   16 *
A    2
 C37
A    3
 C39
A    4
 N33
A    5
 N49
A    6
 O47
A    7
 C31
A    8
 C57
A    9
 C23
A   10
 O35
A   12
 C63
A   13
 C25
A   14
 N21
A   15
 C82
A   16
 X  
A   18
 C17
A   19
 C84
A   20
 O1 
A   21
 O15
A   22
 O19
A   23
 O86
A   24
 O88
A   25
 C13
A   26
 C3 
A   27
 C4 
A   28
 C5 
A   29
 C2 
A   30
 C6 
A   31
 C1 
A   32
 C8 
A   33
 C10
M  END
>  <XChem_code>  (341) 
G83§1

>  <Occupancy>  (341) 
[1.0, 1.0, 1.0, 1.0, 1.0, 1.0, 1.0, 1.0, 1.0, 1.0, 1.0, 1.0, 1.0, 1.0, 1.0, 1.0, 1.0, 1.0, 1.0, 1.0, 1.0, 1.0, 1.0, 1.0, 1.0, 1.0, 1.0, 1.0, 1.0, 1.0, 1.0, 1.0, 1.0, 1.0, 1.0, 1.0, 1.0, 1.0, 1.0, 1.0, 1.0, 1.0, 1.0, 1.0, 1.0, 1.0, 1.0, 1.0, 1.0, 1.0]

>  <TempFactor>  (341) 
[21.5, 44.89, 24.36, 42.16, 38.25, 23.95, 40.64, 20.41, 29.29, 22.5, 27.31, 23.15, 28.56, 41.84, 29.6, 38.53, 33.37, 31.58, 30.86, 27.88, 28.97, 31.52, 43.05, 27.66, 27.42, 21.95, 25.67, 24.02, 25.01, 43.36, 43.87, 19.31, 17.05, 26.62, 26.73, 28.95, 20.4, 17.34, 20.74, 21.57, 21.69, 20.06, 20.47, 18.67, 21.64, 27.5, 29.51, 35.17, 31.37, 18.86]

>  <accession>  (341) 
3ZZC_A

>  <description>  (341) 
Chain A, 3C PROTEINASE [Coxsackievirus B3]

>  <evalue>  (341) 
7.4865399999999999e-87

>  <pdb_code>  (341) 
3ZZC

>  <chain>  (341) 
A

>  <ligands>  (341) 
[{'chain_id': 'A', 'author_residue_number': 1181, 'author_insertion_code': '', 'chem_comp_id': 'G83', 'alternate_conformers': 0, 'entity_id': 2, 'struct_asym_id': 'B', 'residue_number': 1, 'chem_comp_name': 'ETHYL (5S,8S,11R)-8-BENZYL-5-(2-TERT-BUTOXY-2-OXOETHYL)-3,6,9-TRIOXO-11-{[(3S)-2-OXOPYRROLIDIN-3-YL]METHYL}-1-PHENYL-2-OXA-4,7,10-TRIAZATETRADECAN-14-OATE', 'weight': 680.788, 'carbohydrate_polymer': False, 'branch_name': ''}]

>  <ligand_codes>  (341) 
['G83']

>  <cofactor_codes>  (341) 
[]

>  <has_cofactor>  (341) 
False

>  <covalent>  (341) 
True

>  <base_name>  (341) 
3ZZC

>  <lig_resn>  (341) 
G83

>  <lig_resi>  (341) 
1181

>  <lig_chain>  (341) 
A

>  <lig_segi>  (341) 
B

>  <lig_alt>  (341) 


>  <polymer_chain>  (341) 
A

>  <single_smiles>  (341) 
CCOC(=O)CC[C@H](C[C@@H]1CCNC1=O)NC(=O)[C@H](Cc2ccccc2)NC(=O)[C@H](CC(=O)OC(C)(C)C)NC(=O)OCc3ccccc3

$$$$
G83P1S183
     RDKit          3D

 33 33  0  0  0  0  0  0  0  0999 V2000
  -10.3020   19.6950  -30.3210 C   0  0  0  0  0  0  0  0  0  0  0  0
   -9.9650   18.3270  -30.5810 O   0  0  0  0  0  0  0  0  0  0  0  0
   -9.6140   17.8180  -31.9050 C   0  0  0  0  0  0  0  0  0  0  0  0
   -8.9270   16.6710  -31.9560 N   0  0  0  0  0  0  0  0  0  0  0  0
   -9.9760   18.4340  -32.9180 O   0  0  0  0  0  0  0  0  0  0  0  0
   -8.5890   16.1350  -33.2460 C   0  0  2  0  0  0  0  0  0  0  0  0
   -9.0700   14.7310  -33.4520 C   0  0  0  0  0  0  0  0  0  0  0  0
   -7.0940   15.9700  -33.0860 C   0  0  0  0  0  0  0  0  0  0  0  0
   -9.2610   14.3500  -34.7310 N   0  0  0  0  0  0  0  0  0  0  0  0
   -9.1660   13.9920  -32.4630 O   0  0  0  0  0  0  0  0  0  0  0  0
   -6.3360   17.1850  -33.4620 C   0  0  0  0  0  0  0  0  0  0  0  0
   -9.6510   12.9770  -35.0820 C   0  0  2  0  0  0  0  0  0  0  0  0
   -6.4670   17.7660  -34.5460 O   0  0  0  0  0  0  0  0  0  0  0  0
   -8.4620   12.0930  -34.7840 C   0  0  0  0  0  0  0  0  0  0  0  0
   -9.8940   12.8970  -36.5940 C   0  0  0  0  0  0  0  0  0  0  0  0
   -8.7450   10.9170  -34.2200 N   0  0  0  0  0  0  0  0  0  0  0  0
   -7.3180   12.4750  -35.0590 O   0  0  0  0  0  0  0  0  0  0  0  0
  -11.1210   13.7000  -36.9770 C   0  0  0  0  0  0  0  0  0  0  0  0
   -7.7310    9.9410  -33.8290 C   0  0  1  0  0  0  0  0  0  0  0  0
  -12.3400   13.5180  -36.3250 C   0  0  0  0  0  0  0  0  0  0  0  0
  -11.0320   14.6580  -38.0030 C   0  0  0  0  0  0  0  0  0  0  0  0
   -7.6750    9.9230  -32.2970 C   0  0  0  0  0  0  0  0  0  0  0  0
   -8.1830    8.5770  -34.4040 C   0  0  2  0  0  0  0  0  0  0  0  0
  -13.4670   14.3010  -36.6620 C   0  0  0  0  0  0  0  0  0  0  0  0
  -12.1840   15.4150  -38.3560 C   0  0  0  0  0  0  0  0  0  0  0  0
   -8.1980    8.6230  -35.9360 C   0  0  0  0  0  0  0  0  0  0  0  0
   -9.8310    8.1200  -33.8380 R   0  0  0  0  0  0  0  0  0  0  0  0
  -13.4100   15.2640  -37.6860 C   0  0  0  0  0  0  0  0  0  0  0  0
   -6.8090    8.9220  -36.4600 C   0  0  0  0  0  0  0  0  0  0  0  0
   -6.6580    9.7290  -37.6550 O   0  0  0  0  0  0  0  0  0  0  0  0
   -5.8080    8.4980  -35.8980 O   0  0  0  0  0  0  0  0  0  0  0  0
   -5.3610   10.2030  -38.0740 C   0  0  0  0  0  0  0  0  0  0  0  0
   -4.5750    9.1110  -38.7950 C   0  0  0  0  0  0  0  0  0  0  0  0
  1  2  1  0
  2  3  1  0
  3  4  1  0
  3  5  2  0
  4  6  1  0
  6  7  1  0
  6  8  1  1
  7  9  1  0
  7 10  2  0
 11  8  1  0
  9 12  1  0
 13 11  2  0
 12 14  1  0
 12 15  1  6
 14 16  1  0
 14 17  2  0
 15 18  1  0
 16 19  1  0
 18 20  2  0
 18 21  1  0
 19 22  1  1
 19 23  1  0
 24 20  1  0
 25 21  2  0
 23 26  1  0
 23 27  1  1
 24 28  2  0
 28 25  1  0
 26 29  1  0
 29 30  1  0
 29 31  2  0
 32 30  1  0
 32 33  1  0
V   27 *
A    2
 O15
A    3
 C17
A    4
 N21
A    5
 O19
A    6
 C23
A    7
 C31
A    8
 C25
A    9
 N33
A   10
 O35
A   12
 C37
A   13
 O1 
A   14
 C39
A   15
 C41
A   16
 N49
A   17
 O47
A   18
 C51
A   19
 C57
A   20
 C53
A   21
 C55
A   23
 C63
A   24
 C7 
A   25
 C11
A   26
 C82
A   27
 X  
A   28
 C9 
A   29
 C84
A   30
 O86
A   31
 O88
A   32
 C3 
A   33
 C5 
M  END
>  <XChem_code>  (342) 
G83§1

>  <Occupancy>  (342) 
[1.0, 1.0, 1.0, 1.0, 1.0, 1.0, 1.0, 1.0, 1.0, 1.0, 1.0, 1.0, 1.0, 1.0, 1.0, 1.0, 1.0, 1.0, 1.0, 1.0, 1.0, 1.0, 1.0, 1.0, 1.0, 1.0, 1.0, 1.0, 1.0, 1.0, 1.0, 1.0, 1.0, 1.0, 1.0, 1.0, 1.0, 1.0, 1.0, 1.0, 1.0, 1.0, 1.0, 1.0, 1.0, 1.0, 1.0, 1.0, 1.0, 1.0]

>  <TempFactor>  (342) 
[21.5, 44.89, 24.36, 42.16, 38.25, 23.95, 40.64, 20.41, 29.29, 22.5, 27.31, 23.15, 28.56, 41.84, 29.6, 38.53, 33.37, 31.58, 30.86, 27.88, 28.97, 31.52, 43.05, 27.66, 27.42, 21.95, 25.67, 24.02, 25.01, 43.36, 43.87, 19.31, 17.05, 26.62, 26.73, 28.95, 20.4, 17.34, 20.74, 21.57, 21.69, 20.06, 20.47, 18.67, 21.64, 27.5, 29.51, 35.17, 31.37, 18.86]

>  <accession>  (342) 
3ZZC_A

>  <description>  (342) 
Chain A, 3C PROTEINASE [Coxsackievirus B3]

>  <evalue>  (342) 
7.4865399999999999e-87

>  <pdb_code>  (342) 
3ZZC

>  <chain>  (342) 
A

>  <ligands>  (342) 
[{'chain_id': 'A', 'author_residue_number': 1181, 'author_insertion_code': '', 'chem_comp_id': 'G83', 'alternate_conformers': 0, 'entity_id': 2, 'struct_asym_id': 'B', 'residue_number': 1, 'chem_comp_name': 'ETHYL (5S,8S,11R)-8-BENZYL-5-(2-TERT-BUTOXY-2-OXOETHYL)-3,6,9-TRIOXO-11-{[(3S)-2-OXOPYRROLIDIN-3-YL]METHYL}-1-PHENYL-2-OXA-4,7,10-TRIAZATETRADECAN-14-OATE', 'weight': 680.788, 'carbohydrate_polymer': False, 'branch_name': ''}]

>  <ligand_codes>  (342) 
['G83']

>  <cofactor_codes>  (342) 
[]

>  <has_cofactor>  (342) 
False

>  <covalent>  (342) 
True

>  <base_name>  (342) 
3ZZC

>  <lig_resn>  (342) 
G83

>  <lig_resi>  (342) 
1181

>  <lig_chain>  (342) 
A

>  <lig_segi>  (342) 
B

>  <lig_alt>  (342) 


>  <polymer_chain>  (342) 
A

>  <single_smiles>  (342) 
CCOC(=O)CC[C@H](C[C@@H]1CCNC1=O)NC(=O)[C@H](Cc2ccccc2)NC(=O)[C@H](CC(=O)OC(C)(C)C)NC(=O)OCc3ccccc3

$$$$
G83P1S184
     RDKit          3D

 33 33  0  0  0  0  0  0  0  0999 V2000
   -9.8940   12.8970  -36.5940 C   0  0  0  0  0  0  0  0  0  0  0  0
   -9.6510   12.9770  -35.0820 C   0  0  2  0  0  0  0  0  0  0  0  0
   -9.2610   14.3500  -34.7310 N   0  0  0  0  0  0  0  0  0  0  0  0
   -8.4620   12.0930  -34.7840 C   0  0  0  0  0  0  0  0  0  0  0  0
   -9.0700   14.7310  -33.4520 C   0  0  0  0  0  0  0  0  0  0  0  0
   -7.3180   12.4750  -35.0590 O   0  0  0  0  0  0  0  0  0  0  0  0
   -8.7450   10.9170  -34.2200 N   0  0  0  0  0  0  0  0  0  0  0  0
   -8.5890   16.1350  -33.2460 C   0  0  1  0  0  0  0  0  0  0  0  0
   -9.1660   13.9920  -32.4630 O   0  0  0  0  0  0  0  0  0  0  0  0
   -7.7310    9.9410  -33.8290 C   0  0  1  0  0  0  0  0  0  0  0  0
   -8.9270   16.6710  -31.9560 N   0  0  0  0  0  0  0  0  0  0  0  0
   -7.0940   15.9700  -33.0860 C   0  0  0  0  0  0  0  0  0  0  0  0
   -7.6750    9.9230  -32.2970 C   0  0  0  0  0  0  0  0  0  0  0  0
   -8.1830    8.5770  -34.4040 C   0  0  2  0  0  0  0  0  0  0  0  0
   -9.6140   17.8180  -31.9050 C   0  0  0  0  0  0  0  0  0  0  0  0
   -6.3360   17.1850  -33.4620 C   0  0  0  0  0  0  0  0  0  0  0  0
   -7.2530   11.2580  -31.6380 C   0  0  1  0  0  0  0  0  0  0  0  0
   -8.1980    8.6230  -35.9360 C   0  0  0  0  0  0  0  0  0  0  0  0
   -9.8310    8.1200  -33.8380 R   0  0  0  0  0  0  0  0  0  0  0  0
   -9.9650   18.3270  -30.5810 O   0  0  0  0  0  0  0  0  0  0  0  0
   -9.9760   18.4340  -32.9180 O   0  0  0  0  0  0  0  0  0  0  0  0
   -6.4670   17.7660  -34.5460 O   0  0  0  0  0  0  0  0  0  0  0  0
   -7.1040   11.1020  -30.1450 C   0  0  0  0  0  0  0  0  0  0  0  0
   -5.9010   11.8850  -31.9840 C   0  0  0  0  0  0  0  0  0  0  0  0
   -6.8090    8.9220  -36.4600 C   0  0  0  0  0  0  0  0  0  0  0  0
  -10.3020   19.6950  -30.3210 C   0  0  0  0  0  0  0  0  0  0  0  0
   -7.8010   10.3100  -29.5070 O   0  0  0  0  0  0  0  0  0  0  0  0
   -6.2280   11.9150  -29.7100 N   0  0  0  0  0  0  0  0  0  0  0  0
   -5.4330   12.6240  -30.7080 C   0  0  0  0  0  0  0  0  0  0  0  0
   -6.6580    9.7290  -37.6550 O   0  0  0  0  0  0  0  0  0  0  0  0
   -5.8080    8.4980  -35.8980 O   0  0  0  0  0  0  0  0  0  0  0  0
   -5.3610   10.2030  -38.0740 C   0  0  0  0  0  0  0  0  0  0  0  0
   -4.5750    9.1110  -38.7950 C   0  0  0  0  0  0  0  0  0  0  0  0
  2  1  1  6
  3  2  1  0
  2  4  1  0
  5  3  1  0
  4  6  2  0
  4  7  1  0
  8  5  1  0
  5  9  2  0
  7 10  1  0
 11  8  1  0
  8 12  1  1
 10 13  1  1
 10 14  1  0
 15 11  1  0
 16 12  1  0
 17 13  1  6
 14 18  1  0
 14 19  1  1
 20 15  1  0
 15 21  2  0
 22 16  2  0
 17 23  1  0
 17 24  1  0
 18 25  1  0
 26 20  1  0
 23 27  2  0
 23 28  1  0
 29 24  1  0
 25 30  1  0
 25 31  2  0
 28 29  1  0
 32 30  1  0
 32 33  1  0
V   19 *
A    2
 C37
A    3
 N33
A    4
 C39
A    5
 C31
A    6
 O47
A    7
 N49
A    8
 C23
A    9
 O35
A   10
 C57
A   11
 N21
A   12
 C25
A   13
 C59
A   14
 C63
A   15
 C17
A   17
 C61
A   18
 C82
A   19
 X  
A   20
 O15
A   21
 O19
A   22
 O1 
A   23
 C65
A   24
 C73
A   25
 C84
A   27
 O66
A   28
 N69
A   29
 C71
A   30
 O86
A   31
 O88
A   32
 C3 
A   33
 C5 
M  END
>  <XChem_code>  (343) 
G83§1

>  <Occupancy>  (343) 
[1.0, 1.0, 1.0, 1.0, 1.0, 1.0, 1.0, 1.0, 1.0, 1.0, 1.0, 1.0, 1.0, 1.0, 1.0, 1.0, 1.0, 1.0, 1.0, 1.0, 1.0, 1.0, 1.0, 1.0, 1.0, 1.0, 1.0, 1.0, 1.0, 1.0, 1.0, 1.0, 1.0, 1.0, 1.0, 1.0, 1.0, 1.0, 1.0, 1.0, 1.0, 1.0, 1.0, 1.0, 1.0, 1.0, 1.0, 1.0, 1.0, 1.0]

>  <TempFactor>  (343) 
[21.5, 44.89, 24.36, 42.16, 38.25, 23.95, 40.64, 20.41, 29.29, 22.5, 27.31, 23.15, 28.56, 41.84, 29.6, 38.53, 33.37, 31.58, 30.86, 27.88, 28.97, 31.52, 43.05, 27.66, 27.42, 21.95, 25.67, 24.02, 25.01, 43.36, 43.87, 19.31, 17.05, 26.62, 26.73, 28.95, 20.4, 17.34, 20.74, 21.57, 21.69, 20.06, 20.47, 18.67, 21.64, 27.5, 29.51, 35.17, 31.37, 18.86]

>  <accession>  (343) 
3ZZC_A

>  <description>  (343) 
Chain A, 3C PROTEINASE [Coxsackievirus B3]

>  <evalue>  (343) 
7.4865399999999999e-87

>  <pdb_code>  (343) 
3ZZC

>  <chain>  (343) 
A

>  <ligands>  (343) 
[{'chain_id': 'A', 'author_residue_number': 1181, 'author_insertion_code': '', 'chem_comp_id': 'G83', 'alternate_conformers': 0, 'entity_id': 2, 'struct_asym_id': 'B', 'residue_number': 1, 'chem_comp_name': 'ETHYL (5S,8S,11R)-8-BENZYL-5-(2-TERT-BUTOXY-2-OXOETHYL)-3,6,9-TRIOXO-11-{[(3S)-2-OXOPYRROLIDIN-3-YL]METHYL}-1-PHENYL-2-OXA-4,7,10-TRIAZATETRADECAN-14-OATE', 'weight': 680.788, 'carbohydrate_polymer': False, 'branch_name': ''}]

>  <ligand_codes>  (343) 
['G83']

>  <cofactor_codes>  (343) 
[]

>  <has_cofactor>  (343) 
False

>  <covalent>  (343) 
True

>  <base_name>  (343) 
3ZZC

>  <lig_resn>  (343) 
G83

>  <lig_resi>  (343) 
1181

>  <lig_chain>  (343) 
A

>  <lig_segi>  (343) 
B

>  <lig_alt>  (343) 


>  <polymer_chain>  (343) 
A

>  <single_smiles>  (343) 
CCOC(=O)CC[C@H](C[C@@H]1CCNC1=O)NC(=O)[C@H](Cc2ccccc2)NC(=O)[C@H](CC(=O)OC(C)(C)C)NC(=O)OCc3ccccc3

$$$$
G83P1S185
     RDKit          3D

 30 29  0  0  0  0  0  0  0  0999 V2000
   -9.8940   12.8970  -36.5940 C   0  0  0  0  0  0  0  0  0  0  0  0
   -9.6510   12.9770  -35.0820 C   0  0  1  0  0  0  0  0  0  0  0  0
   -8.4620   12.0930  -34.7840 C   0  0  0  0  0  0  0  0  0  0  0  0
   -9.2610   14.3500  -34.7310 N   0  0  0  0  0  0  0  0  0  0  0  0
   -8.7450   10.9170  -34.2200 N   0  0  0  0  0  0  0  0  0  0  0  0
   -7.3180   12.4750  -35.0590 O   0  0  0  0  0  0  0  0  0  0  0  0
   -9.0700   14.7310  -33.4520 C   0  0  0  0  0  0  0  0  0  0  0  0
   -7.7310    9.9410  -33.8290 C   0  0  1  0  0  0  0  0  0  0  0  0
   -8.5890   16.1350  -33.2460 C   0  0  1  0  0  0  0  0  0  0  0  0
   -9.1660   13.9920  -32.4630 O   0  0  0  0  0  0  0  0  0  0  0  0
   -7.6750    9.9230  -32.2970 C   0  0  0  0  0  0  0  0  0  0  0  0
   -8.1830    8.5770  -34.4040 C   0  0  2  0  0  0  0  0  0  0  0  0
   -8.9270   16.6710  -31.9560 N   0  0  0  0  0  0  0  0  0  0  0  0
   -7.0940   15.9700  -33.0860 C   0  0  0  0  0  0  0  0  0  0  0  0
   -8.1980    8.6230  -35.9360 C   0  0  0  0  0  0  0  0  0  0  0  0
   -9.8310    8.1200  -33.8380 R   0  0  0  0  0  0  0  0  0  0  0  0
   -9.6140   17.8180  -31.9050 C   0  0  0  0  0  0  0  0  0  0  0  0
   -6.3360   17.1850  -33.4620 C   0  0  0  0  0  0  0  0  0  0  0  0
   -6.8090    8.9220  -36.4600 C   0  0  0  0  0  0  0  0  0  0  0  0
   -9.9760   18.4340  -32.9180 O   0  0  0  0  0  0  0  0  0  0  0  0
   -6.4670   17.7660  -34.5460 O   0  0  0  0  0  0  0  0  0  0  0  0
   -5.3760   17.6500  -32.4930 O   0  0  0  0  0  0  0  0  0  0  0  0
   -6.6580    9.7290  -37.6550 O   0  0  0  0  0  0  0  0  0  0  0  0
   -5.8080    8.4980  -35.8980 O   0  0  0  0  0  0  0  0  0  0  0  0
   -4.0330   17.1570  -32.4230 C   0  0  0  0  0  0  0  0  0  0  0  0
   -5.3610   10.2030  -38.0740 C   0  0  0  0  0  0  0  0  0  0  0  0
   -3.6770   16.1600  -33.5370 C   0  0  0  0  0  0  0  0  0  0  0  0
   -3.9520   16.4650  -31.0680 C   0  0  0  0  0  0  0  0  0  0  0  0
   -3.0820   18.3540  -32.5240 C   0  0  0  0  0  0  0  0  0  0  0  0
   -4.5750    9.1110  -38.7950 C   0  0  0  0  0  0  0  0  0  0  0  0
  2  1  1  6
  2  3  1  0
  4  2  1  0
  3  5  1  0
  3  6  2  0
  7  4  1  0
  5  8  1  0
  9  7  1  0
  7 10  2  0
  8 11  1  1
  8 12  1  0
 13  9  1  0
  9 14  1  1
 12 15  1  0
 12 16  1  1
 17 13  1  0
 18 14  1  0
 15 19  1  0
 17 20  2  0
 21 18  2  0
 22 18  1  0
 19 23  1  0
 19 24  2  0
 22 25  1  0
 26 23  1  0
 25 27  1  0
 25 28  1  0
 25 29  1  0
 26 30  1  0
V   16 *
A    2
 C37
A    3
 C39
A    4
 N33
A    5
 N49
A    6
 O47
A    7
 C31
A    8
 C57
A    9
 C23
A   10
 O35
A   12
 C63
A   13
 N21
A   14
 C25
A   15
 C82
A   16
 X  
A   18
 C14
A   19
 C84
A   20
 O19
A   21
 O1 
A   22
 O2 
A   23
 O86
A   24
 O88
A   25
 C29
A   26
 C3 
A   27
 C12
A   28
 C43
A   29
 C45
A   30
 C5 
M  END
>  <XChem_code>  (344) 
G83§1

>  <Occupancy>  (344) 
[1.0, 1.0, 1.0, 1.0, 1.0, 1.0, 1.0, 1.0, 1.0, 1.0, 1.0, 1.0, 1.0, 1.0, 1.0, 1.0, 1.0, 1.0, 1.0, 1.0, 1.0, 1.0, 1.0, 1.0, 1.0, 1.0, 1.0, 1.0, 1.0, 1.0, 1.0, 1.0, 1.0, 1.0, 1.0, 1.0, 1.0, 1.0, 1.0, 1.0, 1.0, 1.0, 1.0, 1.0, 1.0, 1.0, 1.0, 1.0, 1.0, 1.0]

>  <TempFactor>  (344) 
[21.5, 44.89, 24.36, 42.16, 38.25, 23.95, 40.64, 20.41, 29.29, 22.5, 27.31, 23.15, 28.56, 41.84, 29.6, 38.53, 33.37, 31.58, 30.86, 27.88, 28.97, 31.52, 43.05, 27.66, 27.42, 21.95, 25.67, 24.02, 25.01, 43.36, 43.87, 19.31, 17.05, 26.62, 26.73, 28.95, 20.4, 17.34, 20.74, 21.57, 21.69, 20.06, 20.47, 18.67, 21.64, 27.5, 29.51, 35.17, 31.37, 18.86]

>  <accession>  (344) 
3ZZC_A

>  <description>  (344) 
Chain A, 3C PROTEINASE [Coxsackievirus B3]

>  <evalue>  (344) 
7.4865399999999999e-87

>  <pdb_code>  (344) 
3ZZC

>  <chain>  (344) 
A

>  <ligands>  (344) 
[{'chain_id': 'A', 'author_residue_number': 1181, 'author_insertion_code': '', 'chem_comp_id': 'G83', 'alternate_conformers': 0, 'entity_id': 2, 'struct_asym_id': 'B', 'residue_number': 1, 'chem_comp_name': 'ETHYL (5S,8S,11R)-8-BENZYL-5-(2-TERT-BUTOXY-2-OXOETHYL)-3,6,9-TRIOXO-11-{[(3S)-2-OXOPYRROLIDIN-3-YL]METHYL}-1-PHENYL-2-OXA-4,7,10-TRIAZATETRADECAN-14-OATE', 'weight': 680.788, 'carbohydrate_polymer': False, 'branch_name': ''}]

>  <ligand_codes>  (344) 
['G83']

>  <cofactor_codes>  (344) 
[]

>  <has_cofactor>  (344) 
False

>  <covalent>  (344) 
True

>  <base_name>  (344) 
3ZZC

>  <lig_resn>  (344) 
G83

>  <lig_resi>  (344) 
1181

>  <lig_chain>  (344) 
A

>  <lig_segi>  (344) 
B

>  <lig_alt>  (344) 


>  <polymer_chain>  (344) 
A

>  <single_smiles>  (344) 
CCOC(=O)CC[C@H](C[C@@H]1CCNC1=O)NC(=O)[C@H](Cc2ccccc2)NC(=O)[C@H](CC(=O)OC(C)(C)C)NC(=O)OCc3ccccc3

$$$$
G83P1S186
     RDKit          3D

 28 27  0  0  0  0  0  0  0  0999 V2000
   -9.8940   12.8970  -36.5940 C   0  0  0  0  0  0  0  0  0  0  0  0
   -9.6510   12.9770  -35.0820 C   0  0  1  0  0  0  0  0  0  0  0  0
   -8.4620   12.0930  -34.7840 C   0  0  0  0  0  0  0  0  0  0  0  0
   -9.2610   14.3500  -34.7310 N   0  0  0  0  0  0  0  0  0  0  0  0
   -8.7450   10.9170  -34.2200 N   0  0  0  0  0  0  0  0  0  0  0  0
   -7.3180   12.4750  -35.0590 O   0  0  0  0  0  0  0  0  0  0  0  0
   -9.0700   14.7310  -33.4520 C   0  0  0  0  0  0  0  0  0  0  0  0
   -7.7310    9.9410  -33.8290 C   0  0  1  0  0  0  0  0  0  0  0  0
   -8.5890   16.1350  -33.2460 C   0  0  1  0  0  0  0  0  0  0  0  0
   -9.1660   13.9920  -32.4630 O   0  0  0  0  0  0  0  0  0  0  0  0
   -7.6750    9.9230  -32.2970 C   0  0  0  0  0  0  0  0  0  0  0  0
   -8.1830    8.5770  -34.4040 C   0  0  2  0  0  0  0  0  0  0  0  0
   -8.9270   16.6710  -31.9560 N   0  0  0  0  0  0  0  0  0  0  0  0
   -7.0940   15.9700  -33.0860 C   0  0  0  0  0  0  0  0  0  0  0  0
   -8.1980    8.6230  -35.9360 C   0  0  0  0  0  0  0  0  0  0  0  0
   -9.8310    8.1200  -33.8380 R   0  0  0  0  0  0  0  0  0  0  0  0
   -6.3360   17.1850  -33.4620 C   0  0  0  0  0  0  0  0  0  0  0  0
   -6.8090    8.9220  -36.4600 C   0  0  0  0  0  0  0  0  0  0  0  0
   -6.4670   17.7660  -34.5460 O   0  0  0  0  0  0  0  0  0  0  0  0
   -5.3760   17.6500  -32.4930 O   0  0  0  0  0  0  0  0  0  0  0  0
   -6.6580    9.7290  -37.6550 O   0  0  0  0  0  0  0  0  0  0  0  0
   -5.8080    8.4980  -35.8980 O   0  0  0  0  0  0  0  0  0  0  0  0
   -4.0330   17.1570  -32.4230 C   0  0  0  0  0  0  0  0  0  0  0  0
   -5.3610   10.2030  -38.0740 C   0  0  0  0  0  0  0  0  0  0  0  0
   -3.6770   16.1600  -33.5370 C   0  0  0  0  0  0  0  0  0  0  0  0
   -3.9520   16.4650  -31.0680 C   0  0  0  0  0  0  0  0  0  0  0  0
   -3.0820   18.3540  -32.5240 C   0  0  0  0  0  0  0  0  0  0  0  0
   -4.5750    9.1110  -38.7950 C   0  0  0  0  0  0  0  0  0  0  0  0
  2  1  1  6
  2  3  1  0
  4  2  1  0
  3  5  1  0
  3  6  2  0
  7  4  1  0
  5  8  1  0
  9  7  1  0
  7 10  2  0
  8 11  1  1
  8 12  1  0
  9 13  1  1
  9 14  1  0
 12 15  1  0
 12 16  1  1
 17 14  1  0
 15 18  1  0
 19 17  2  0
 20 17  1  0
 18 21  1  0
 18 22  2  0
 20 23  1  0
 24 21  1  0
 23 25  1  0
 23 26  1  0
 23 27  1  0
 24 28  1  0
V   16 *
A    2
 C37
A    3
 C39
A    4
 N33
A    5
 N49
A    6
 O47
A    7
 C31
A    8
 C57
A    9
 C23
A   10
 O35
A   12
 C63
A   14
 C25
A   15
 C82
A   16
 X  
A   17
 C14
A   18
 C84
A   19
 O1 
A   20
 O2 
A   21
 O86
A   22
 O88
A   23
 C29
A   24
 C3 
A   25
 C12
A   26
 C43
A   27
 C45
A   28
 C5 
M  END
>  <XChem_code>  (345) 
G83§1

>  <Occupancy>  (345) 
[1.0, 1.0, 1.0, 1.0, 1.0, 1.0, 1.0, 1.0, 1.0, 1.0, 1.0, 1.0, 1.0, 1.0, 1.0, 1.0, 1.0, 1.0, 1.0, 1.0, 1.0, 1.0, 1.0, 1.0, 1.0, 1.0, 1.0, 1.0, 1.0, 1.0, 1.0, 1.0, 1.0, 1.0, 1.0, 1.0, 1.0, 1.0, 1.0, 1.0, 1.0, 1.0, 1.0, 1.0, 1.0, 1.0, 1.0, 1.0, 1.0, 1.0]

>  <TempFactor>  (345) 
[21.5, 44.89, 24.36, 42.16, 38.25, 23.95, 40.64, 20.41, 29.29, 22.5, 27.31, 23.15, 28.56, 41.84, 29.6, 38.53, 33.37, 31.58, 30.86, 27.88, 28.97, 31.52, 43.05, 27.66, 27.42, 21.95, 25.67, 24.02, 25.01, 43.36, 43.87, 19.31, 17.05, 26.62, 26.73, 28.95, 20.4, 17.34, 20.74, 21.57, 21.69, 20.06, 20.47, 18.67, 21.64, 27.5, 29.51, 35.17, 31.37, 18.86]

>  <accession>  (345) 
3ZZC_A

>  <description>  (345) 
Chain A, 3C PROTEINASE [Coxsackievirus B3]

>  <evalue>  (345) 
7.4865399999999999e-87

>  <pdb_code>  (345) 
3ZZC

>  <chain>  (345) 
A

>  <ligands>  (345) 
[{'chain_id': 'A', 'author_residue_number': 1181, 'author_insertion_code': '', 'chem_comp_id': 'G83', 'alternate_conformers': 0, 'entity_id': 2, 'struct_asym_id': 'B', 'residue_number': 1, 'chem_comp_name': 'ETHYL (5S,8S,11R)-8-BENZYL-5-(2-TERT-BUTOXY-2-OXOETHYL)-3,6,9-TRIOXO-11-{[(3S)-2-OXOPYRROLIDIN-3-YL]METHYL}-1-PHENYL-2-OXA-4,7,10-TRIAZATETRADECAN-14-OATE', 'weight': 680.788, 'carbohydrate_polymer': False, 'branch_name': ''}]

>  <ligand_codes>  (345) 
['G83']

>  <cofactor_codes>  (345) 
[]

>  <has_cofactor>  (345) 
False

>  <covalent>  (345) 
True

>  <base_name>  (345) 
3ZZC

>  <lig_resn>  (345) 
G83

>  <lig_resi>  (345) 
1181

>  <lig_chain>  (345) 
A

>  <lig_segi>  (345) 
B

>  <lig_alt>  (345) 


>  <polymer_chain>  (345) 
A

>  <single_smiles>  (345) 
CCOC(=O)CC[C@H](C[C@@H]1CCNC1=O)NC(=O)[C@H](Cc2ccccc2)NC(=O)[C@H](CC(=O)OC(C)(C)C)NC(=O)OCc3ccccc3

$$$$
G83P1S187
     RDKit          3D

 16 15  0  0  0  0  0  0  0  0999 V2000
   -9.8940   12.8970  -36.5940 C   0  0  0  0  0  0  0  0  0  0  0  0
   -9.6510   12.9770  -35.0820 C   0  0  1  0  0  0  0  0  0  0  0  0
   -8.4620   12.0930  -34.7840 C   0  0  0  0  0  0  0  0  0  0  0  0
   -9.2610   14.3500  -34.7310 N   0  0  0  0  0  0  0  0  0  0  0  0
   -8.7450   10.9170  -34.2200 N   0  0  0  0  0  0  0  0  0  0  0  0
   -7.3180   12.4750  -35.0590 O   0  0  0  0  0  0  0  0  0  0  0  0
   -7.7310    9.9410  -33.8290 C   0  0  1  0  0  0  0  0  0  0  0  0
   -7.6750    9.9230  -32.2970 C   0  0  0  0  0  0  0  0  0  0  0  0
   -8.1830    8.5770  -34.4040 C   0  0  2  0  0  0  0  0  0  0  0  0
   -8.1980    8.6230  -35.9360 C   0  0  0  0  0  0  0  0  0  0  0  0
   -9.8310    8.1200  -33.8380 R   0  0  0  0  0  0  0  0  0  0  0  0
   -6.8090    8.9220  -36.4600 C   0  0  0  0  0  0  0  0  0  0  0  0
   -6.6580    9.7290  -37.6550 O   0  0  0  0  0  0  0  0  0  0  0  0
   -5.8080    8.4980  -35.8980 O   0  0  0  0  0  0  0  0  0  0  0  0
   -5.3610   10.2030  -38.0740 C   0  0  0  0  0  0  0  0  0  0  0  0
   -4.5750    9.1110  -38.7950 C   0  0  0  0  0  0  0  0  0  0  0  0
  2  1  1  6
  2  3  1  0
  4  2  1  0
  3  5  1  0
  3  6  2  0
  5  7  1  0
  7  8  1  1
  7  9  1  0
  9 10  1  0
  9 11  1  1
 10 12  1  0
 12 13  1  0
 12 14  2  0
 15 13  1  0
 15 16  1  0
V   11 *
A    2
 C37
A    3
 C39
A    5
 N49
A    6
 O47
A    7
 C57
A    9
 C63
A   10
 C82
A   11
 X  
A   12
 C84
A   13
 O86
A   14
 O88
A   15
 C3 
A   16
 C5 
M  END
>  <XChem_code>  (346) 
G83§1

>  <Occupancy>  (346) 
[1.0, 1.0, 1.0, 1.0, 1.0, 1.0, 1.0, 1.0, 1.0, 1.0, 1.0, 1.0, 1.0, 1.0, 1.0, 1.0, 1.0, 1.0, 1.0, 1.0, 1.0, 1.0, 1.0, 1.0, 1.0, 1.0, 1.0, 1.0, 1.0, 1.0, 1.0, 1.0, 1.0, 1.0, 1.0, 1.0, 1.0, 1.0, 1.0, 1.0, 1.0, 1.0, 1.0, 1.0, 1.0, 1.0, 1.0, 1.0, 1.0, 1.0]

>  <TempFactor>  (346) 
[21.5, 44.89, 24.36, 42.16, 38.25, 23.95, 40.64, 20.41, 29.29, 22.5, 27.31, 23.15, 28.56, 41.84, 29.6, 38.53, 33.37, 31.58, 30.86, 27.88, 28.97, 31.52, 43.05, 27.66, 27.42, 21.95, 25.67, 24.02, 25.01, 43.36, 43.87, 19.31, 17.05, 26.62, 26.73, 28.95, 20.4, 17.34, 20.74, 21.57, 21.69, 20.06, 20.47, 18.67, 21.64, 27.5, 29.51, 35.17, 31.37, 18.86]

>  <accession>  (346) 
3ZZC_A

>  <description>  (346) 
Chain A, 3C PROTEINASE [Coxsackievirus B3]

>  <evalue>  (346) 
7.4865399999999999e-87

>  <pdb_code>  (346) 
3ZZC

>  <chain>  (346) 
A

>  <ligands>  (346) 
[{'chain_id': 'A', 'author_residue_number': 1181, 'author_insertion_code': '', 'chem_comp_id': 'G83', 'alternate_conformers': 0, 'entity_id': 2, 'struct_asym_id': 'B', 'residue_number': 1, 'chem_comp_name': 'ETHYL (5S,8S,11R)-8-BENZYL-5-(2-TERT-BUTOXY-2-OXOETHYL)-3,6,9-TRIOXO-11-{[(3S)-2-OXOPYRROLIDIN-3-YL]METHYL}-1-PHENYL-2-OXA-4,7,10-TRIAZATETRADECAN-14-OATE', 'weight': 680.788, 'carbohydrate_polymer': False, 'branch_name': ''}]

>  <ligand_codes>  (346) 
['G83']

>  <cofactor_codes>  (346) 
[]

>  <has_cofactor>  (346) 
False

>  <covalent>  (346) 
True

>  <base_name>  (346) 
3ZZC

>  <lig_resn>  (346) 
G83

>  <lig_resi>  (346) 
1181

>  <lig_chain>  (346) 
A

>  <lig_segi>  (346) 
B

>  <lig_alt>  (346) 


>  <polymer_chain>  (346) 
A

>  <single_smiles>  (346) 
CCOC(=O)CC[C@H](C[C@@H]1CCNC1=O)NC(=O)[C@H](Cc2ccccc2)NC(=O)[C@H](CC(=O)OC(C)(C)C)NC(=O)OCc3ccccc3

$$$$
G83P1S188
     RDKit          3D

 21 20  0  0  0  0  0  0  0  0999 V2000
  -10.3020   19.6950  -30.3210 C   0  0  0  0  0  0  0  0  0  0  0  0
   -9.9650   18.3270  -30.5810 O   0  0  0  0  0  0  0  0  0  0  0  0
   -9.6140   17.8180  -31.9050 C   0  0  0  0  0  0  0  0  0  0  0  0
   -8.9270   16.6710  -31.9560 N   0  0  0  0  0  0  0  0  0  0  0  0
   -9.9760   18.4340  -32.9180 O   0  0  0  0  0  0  0  0  0  0  0  0
   -8.5890   16.1350  -33.2460 C   0  0  2  0  0  0  0  0  0  0  0  0
   -9.0700   14.7310  -33.4520 C   0  0  0  0  0  0  0  0  0  0  0  0
   -7.0940   15.9700  -33.0860 C   0  0  0  0  0  0  0  0  0  0  0  0
   -9.2610   14.3500  -34.7310 N   0  0  0  0  0  0  0  0  0  0  0  0
   -9.1660   13.9920  -32.4630 O   0  0  0  0  0  0  0  0  0  0  0  0
   -6.3360   17.1850  -33.4620 C   0  0  0  0  0  0  0  0  0  0  0  0
   -9.6510   12.9770  -35.0820 C   0  0  1  0  0  0  0  0  0  0  0  0
   -6.4670   17.7660  -34.5460 O   0  0  0  0  0  0  0  0  0  0  0  0
   -5.3760   17.6500  -32.4930 O   0  0  0  0  0  0  0  0  0  0  0  0
   -9.8940   12.8970  -36.5940 C   0  0  0  0  0  0  0  0  0  0  0  0
   -8.4620   12.0930  -34.7840 C   0  0  0  0  0  0  0  0  0  0  0  0
   -4.0330   17.1570  -32.4230 C   0  0  0  0  0  0  0  0  0  0  0  0
   -7.3180   12.4750  -35.0590 O   0  0  0  0  0  0  0  0  0  0  0  0
   -3.6770   16.1600  -33.5370 C   0  0  0  0  0  0  0  0  0  0  0  0
   -3.9520   16.4650  -31.0680 C   0  0  0  0  0  0  0  0  0  0  0  0
   -3.0820   18.3540  -32.5240 C   0  0  0  0  0  0  0  0  0  0  0  0
  1  2  1  0
  2  3  1  0
  3  4  1  0
  3  5  2  0
  4  6  1  0
  6  7  1  0
  6  8  1  1
  7  9  1  0
  7 10  2  0
 11  8  1  0
  9 12  1  0
 13 11  2  0
 14 11  1  0
 12 15  1  6
 12 16  1  0
 14 17  1  0
 16 18  2  0
 17 19  1  0
 17 20  1  0
 17 21  1  0
A    2
 O15
A    3
 C17
A    4
 N21
A    5
 O19
A    6
 C23
A    7
 C31
A    8
 C25
A    9
 N33
A   10
 O35
A   11
 C14
A   12
 C37
A   13
 O1 
A   14
 O2 
A   17
 C29
A   18
 O47
A   19
 C12
A   20
 C43
A   21
 C45
M  END
>  <XChem_code>  (347) 
G83§1

>  <Occupancy>  (347) 
[1.0, 1.0, 1.0, 1.0, 1.0, 1.0, 1.0, 1.0, 1.0, 1.0, 1.0, 1.0, 1.0, 1.0, 1.0, 1.0, 1.0, 1.0, 1.0, 1.0, 1.0, 1.0, 1.0, 1.0, 1.0, 1.0, 1.0, 1.0, 1.0, 1.0, 1.0, 1.0, 1.0, 1.0, 1.0, 1.0, 1.0, 1.0, 1.0, 1.0, 1.0, 1.0, 1.0, 1.0, 1.0, 1.0, 1.0, 1.0, 1.0, 1.0]

>  <TempFactor>  (347) 
[21.5, 44.89, 24.36, 42.16, 38.25, 23.95, 40.64, 20.41, 29.29, 22.5, 27.31, 23.15, 28.56, 41.84, 29.6, 38.53, 33.37, 31.58, 30.86, 27.88, 28.97, 31.52, 43.05, 27.66, 27.42, 21.95, 25.67, 24.02, 25.01, 43.36, 43.87, 19.31, 17.05, 26.62, 26.73, 28.95, 20.4, 17.34, 20.74, 21.57, 21.69, 20.06, 20.47, 18.67, 21.64, 27.5, 29.51, 35.17, 31.37, 18.86]

>  <accession>  (347) 
3ZZC_A

>  <description>  (347) 
Chain A, 3C PROTEINASE [Coxsackievirus B3]

>  <evalue>  (347) 
7.4865399999999999e-87

>  <pdb_code>  (347) 
3ZZC

>  <chain>  (347) 
A

>  <ligands>  (347) 
[{'chain_id': 'A', 'author_residue_number': 1181, 'author_insertion_code': '', 'chem_comp_id': 'G83', 'alternate_conformers': 0, 'entity_id': 2, 'struct_asym_id': 'B', 'residue_number': 1, 'chem_comp_name': 'ETHYL (5S,8S,11R)-8-BENZYL-5-(2-TERT-BUTOXY-2-OXOETHYL)-3,6,9-TRIOXO-11-{[(3S)-2-OXOPYRROLIDIN-3-YL]METHYL}-1-PHENYL-2-OXA-4,7,10-TRIAZATETRADECAN-14-OATE', 'weight': 680.788, 'carbohydrate_polymer': False, 'branch_name': ''}]

>  <ligand_codes>  (347) 
['G83']

>  <cofactor_codes>  (347) 
[]

>  <has_cofactor>  (347) 
False

>  <covalent>  (347) 
True

>  <base_name>  (347) 
3ZZC

>  <lig_resn>  (347) 
G83

>  <lig_resi>  (347) 
1181

>  <lig_chain>  (347) 
A

>  <lig_segi>  (347) 
B

>  <lig_alt>  (347) 


>  <polymer_chain>  (347) 
A

>  <single_smiles>  (347) 
CCOC(=O)CC[C@H](C[C@@H]1CCNC1=O)NC(=O)[C@H](Cc2ccccc2)NC(=O)[C@H](CC(=O)OC(C)(C)C)NC(=O)OCc3ccccc3

$$$$
G83P1S189
     RDKit          3D

 25 24  0  0  0  0  0  0  0  0999 V2000
   -9.8940   12.8970  -36.5940 C   0  0  0  0  0  0  0  0  0  0  0  0
   -9.6510   12.9770  -35.0820 C   0  0  1  0  0  0  0  0  0  0  0  0
   -8.4620   12.0930  -34.7840 C   0  0  0  0  0  0  0  0  0  0  0  0
   -9.2610   14.3500  -34.7310 N   0  0  0  0  0  0  0  0  0  0  0  0
   -8.7450   10.9170  -34.2200 N   0  0  0  0  0  0  0  0  0  0  0  0
   -7.3180   12.4750  -35.0590 O   0  0  0  0  0  0  0  0  0  0  0  0
   -9.0700   14.7310  -33.4520 C   0  0  0  0  0  0  0  0  0  0  0  0
   -7.7310    9.9410  -33.8290 C   0  0  1  0  0  0  0  0  0  0  0  0
   -8.5890   16.1350  -33.2460 C   0  0  1  0  0  0  0  0  0  0  0  0
   -9.1660   13.9920  -32.4630 O   0  0  0  0  0  0  0  0  0  0  0  0
   -7.6750    9.9230  -32.2970 C   0  0  0  0  0  0  0  0  0  0  0  0
   -8.1830    8.5770  -34.4040 C   0  0  2  0  0  0  0  0  0  0  0  0
   -8.9270   16.6710  -31.9560 N   0  0  0  0  0  0  0  0  0  0  0  0
   -7.0940   15.9700  -33.0860 C   0  0  0  0  0  0  0  0  0  0  0  0
   -8.1980    8.6230  -35.9360 C   0  0  0  0  0  0  0  0  0  0  0  0
   -9.8310    8.1200  -33.8380 R   0  0  0  0  0  0  0  0  0  0  0  0
   -9.6140   17.8180  -31.9050 C   0  0  0  0  0  0  0  0  0  0  0  0
   -6.3360   17.1850  -33.4620 C   0  0  0  0  0  0  0  0  0  0  0  0
   -6.8090    8.9220  -36.4600 C   0  0  0  0  0  0  0  0  0  0  0  0
   -9.9760   18.4340  -32.9180 O   0  0  0  0  0  0  0  0  0  0  0  0
   -6.4670   17.7660  -34.5460 O   0  0  0  0  0  0  0  0  0  0  0  0
   -6.6580    9.7290  -37.6550 O   0  0  0  0  0  0  0  0  0  0  0  0
   -5.8080    8.4980  -35.8980 O   0  0  0  0  0  0  0  0  0  0  0  0
   -5.3610   10.2030  -38.0740 C   0  0  0  0  0  0  0  0  0  0  0  0
   -4.5750    9.1110  -38.7950 C   0  0  0  0  0  0  0  0  0  0  0  0
  2  1  1  6
  2  3  1  0
  4  2  1  0
  3  5  1  0
  3  6  2  0
  7  4  1  0
  5  8  1  0
  9  7  1  0
  7 10  2  0
  8 11  1  1
  8 12  1  0
 13  9  1  0
  9 14  1  1
 12 15  1  0
 12 16  1  1
 17 13  1  0
 18 14  1  0
 15 19  1  0
 17 20  2  0
 21 18  2  0
 19 22  1  0
 19 23  2  0
 24 22  1  0
 24 25  1  0
V   16 *
A    2
 C37
A    3
 C39
A    4
 N33
A    5
 N49
A    6
 O47
A    7
 C31
A    8
 C57
A    9
 C23
A   10
 O35
A   12
 C63
A   13
 N21
A   14
 C25
A   15
 C82
A   16
 X  
A   19
 C84
A   20
 O19
A   21
 O1 
A   22
 O86
A   23
 O88
A   24
 C3 
A   25
 C5 
M  END
>  <XChem_code>  (348) 
G83§1

>  <Occupancy>  (348) 
[1.0, 1.0, 1.0, 1.0, 1.0, 1.0, 1.0, 1.0, 1.0, 1.0, 1.0, 1.0, 1.0, 1.0, 1.0, 1.0, 1.0, 1.0, 1.0, 1.0, 1.0, 1.0, 1.0, 1.0, 1.0, 1.0, 1.0, 1.0, 1.0, 1.0, 1.0, 1.0, 1.0, 1.0, 1.0, 1.0, 1.0, 1.0, 1.0, 1.0, 1.0, 1.0, 1.0, 1.0, 1.0, 1.0, 1.0, 1.0, 1.0, 1.0]

>  <TempFactor>  (348) 
[21.5, 44.89, 24.36, 42.16, 38.25, 23.95, 40.64, 20.41, 29.29, 22.5, 27.31, 23.15, 28.56, 41.84, 29.6, 38.53, 33.37, 31.58, 30.86, 27.88, 28.97, 31.52, 43.05, 27.66, 27.42, 21.95, 25.67, 24.02, 25.01, 43.36, 43.87, 19.31, 17.05, 26.62, 26.73, 28.95, 20.4, 17.34, 20.74, 21.57, 21.69, 20.06, 20.47, 18.67, 21.64, 27.5, 29.51, 35.17, 31.37, 18.86]

>  <accession>  (348) 
3ZZC_A

>  <description>  (348) 
Chain A, 3C PROTEINASE [Coxsackievirus B3]

>  <evalue>  (348) 
7.4865399999999999e-87

>  <pdb_code>  (348) 
3ZZC

>  <chain>  (348) 
A

>  <ligands>  (348) 
[{'chain_id': 'A', 'author_residue_number': 1181, 'author_insertion_code': '', 'chem_comp_id': 'G83', 'alternate_conformers': 0, 'entity_id': 2, 'struct_asym_id': 'B', 'residue_number': 1, 'chem_comp_name': 'ETHYL (5S,8S,11R)-8-BENZYL-5-(2-TERT-BUTOXY-2-OXOETHYL)-3,6,9-TRIOXO-11-{[(3S)-2-OXOPYRROLIDIN-3-YL]METHYL}-1-PHENYL-2-OXA-4,7,10-TRIAZATETRADECAN-14-OATE', 'weight': 680.788, 'carbohydrate_polymer': False, 'branch_name': ''}]

>  <ligand_codes>  (348) 
['G83']

>  <cofactor_codes>  (348) 
[]

>  <has_cofactor>  (348) 
False

>  <covalent>  (348) 
True

>  <base_name>  (348) 
3ZZC

>  <lig_resn>  (348) 
G83

>  <lig_resi>  (348) 
1181

>  <lig_chain>  (348) 
A

>  <lig_segi>  (348) 
B

>  <lig_alt>  (348) 


>  <polymer_chain>  (348) 
A

>  <single_smiles>  (348) 
CCOC(=O)CC[C@H](C[C@@H]1CCNC1=O)NC(=O)[C@H](Cc2ccccc2)NC(=O)[C@H](CC(=O)OC(C)(C)C)NC(=O)OCc3ccccc3

$$$$
G83P1S190
     RDKit          3D

 23 22  0  0  0  0  0  0  0  0999 V2000
   -9.8940   12.8970  -36.5940 C   0  0  0  0  0  0  0  0  0  0  0  0
   -9.6510   12.9770  -35.0820 C   0  0  1  0  0  0  0  0  0  0  0  0
   -8.4620   12.0930  -34.7840 C   0  0  0  0  0  0  0  0  0  0  0  0
   -9.2610   14.3500  -34.7310 N   0  0  0  0  0  0  0  0  0  0  0  0
   -8.7450   10.9170  -34.2200 N   0  0  0  0  0  0  0  0  0  0  0  0
   -7.3180   12.4750  -35.0590 O   0  0  0  0  0  0  0  0  0  0  0  0
   -9.0700   14.7310  -33.4520 C   0  0  0  0  0  0  0  0  0  0  0  0
   -7.7310    9.9410  -33.8290 C   0  0  1  0  0  0  0  0  0  0  0  0
   -8.5890   16.1350  -33.2460 C   0  0  1  0  0  0  0  0  0  0  0  0
   -9.1660   13.9920  -32.4630 O   0  0  0  0  0  0  0  0  0  0  0  0
   -7.6750    9.9230  -32.2970 C   0  0  0  0  0  0  0  0  0  0  0  0
   -8.1830    8.5770  -34.4040 C   0  0  2  0  0  0  0  0  0  0  0  0
   -8.9270   16.6710  -31.9560 N   0  0  0  0  0  0  0  0  0  0  0  0
   -7.0940   15.9700  -33.0860 C   0  0  0  0  0  0  0  0  0  0  0  0
   -8.1980    8.6230  -35.9360 C   0  0  0  0  0  0  0  0  0  0  0  0
   -9.8310    8.1200  -33.8380 R   0  0  0  0  0  0  0  0  0  0  0  0
   -6.3360   17.1850  -33.4620 C   0  0  0  0  0  0  0  0  0  0  0  0
   -6.8090    8.9220  -36.4600 C   0  0  0  0  0  0  0  0  0  0  0  0
   -6.4670   17.7660  -34.5460 O   0  0  0  0  0  0  0  0  0  0  0  0
   -6.6580    9.7290  -37.6550 O   0  0  0  0  0  0  0  0  0  0  0  0
   -5.8080    8.4980  -35.8980 O   0  0  0  0  0  0  0  0  0  0  0  0
   -5.3610   10.2030  -38.0740 C   0  0  0  0  0  0  0  0  0  0  0  0
   -4.5750    9.1110  -38.7950 C   0  0  0  0  0  0  0  0  0  0  0  0
  2  1  1  6
  2  3  1  0
  4  2  1  0
  3  5  1  0
  3  6  2  0
  7  4  1  0
  5  8  1  0
  9  7  1  0
  7 10  2  0
  8 11  1  1
  8 12  1  0
  9 13  1  1
  9 14  1  0
 12 15  1  0
 12 16  1  1
 17 14  1  0
 15 18  1  0
 19 17  2  0
 18 20  1  0
 18 21  2  0
 22 20  1  0
 22 23  1  0
V   16 *
A    2
 C37
A    3
 C39
A    4
 N33
A    5
 N49
A    6
 O47
A    7
 C31
A    8
 C57
A    9
 C23
A   10
 O35
A   12
 C63
A   14
 C25
A   15
 C82
A   16
 X  
A   18
 C84
A   19
 O1 
A   20
 O86
A   21
 O88
A   22
 C3 
A   23
 C5 
M  END
>  <XChem_code>  (349) 
G83§1

>  <Occupancy>  (349) 
[1.0, 1.0, 1.0, 1.0, 1.0, 1.0, 1.0, 1.0, 1.0, 1.0, 1.0, 1.0, 1.0, 1.0, 1.0, 1.0, 1.0, 1.0, 1.0, 1.0, 1.0, 1.0, 1.0, 1.0, 1.0, 1.0, 1.0, 1.0, 1.0, 1.0, 1.0, 1.0, 1.0, 1.0, 1.0, 1.0, 1.0, 1.0, 1.0, 1.0, 1.0, 1.0, 1.0, 1.0, 1.0, 1.0, 1.0, 1.0, 1.0, 1.0]

>  <TempFactor>  (349) 
[21.5, 44.89, 24.36, 42.16, 38.25, 23.95, 40.64, 20.41, 29.29, 22.5, 27.31, 23.15, 28.56, 41.84, 29.6, 38.53, 33.37, 31.58, 30.86, 27.88, 28.97, 31.52, 43.05, 27.66, 27.42, 21.95, 25.67, 24.02, 25.01, 43.36, 43.87, 19.31, 17.05, 26.62, 26.73, 28.95, 20.4, 17.34, 20.74, 21.57, 21.69, 20.06, 20.47, 18.67, 21.64, 27.5, 29.51, 35.17, 31.37, 18.86]

>  <accession>  (349) 
3ZZC_A

>  <description>  (349) 
Chain A, 3C PROTEINASE [Coxsackievirus B3]

>  <evalue>  (349) 
7.4865399999999999e-87

>  <pdb_code>  (349) 
3ZZC

>  <chain>  (349) 
A

>  <ligands>  (349) 
[{'chain_id': 'A', 'author_residue_number': 1181, 'author_insertion_code': '', 'chem_comp_id': 'G83', 'alternate_conformers': 0, 'entity_id': 2, 'struct_asym_id': 'B', 'residue_number': 1, 'chem_comp_name': 'ETHYL (5S,8S,11R)-8-BENZYL-5-(2-TERT-BUTOXY-2-OXOETHYL)-3,6,9-TRIOXO-11-{[(3S)-2-OXOPYRROLIDIN-3-YL]METHYL}-1-PHENYL-2-OXA-4,7,10-TRIAZATETRADECAN-14-OATE', 'weight': 680.788, 'carbohydrate_polymer': False, 'branch_name': ''}]

>  <ligand_codes>  (349) 
['G83']

>  <cofactor_codes>  (349) 
[]

>  <has_cofactor>  (349) 
False

>  <covalent>  (349) 
True

>  <base_name>  (349) 
3ZZC

>  <lig_resn>  (349) 
G83

>  <lig_resi>  (349) 
1181

>  <lig_chain>  (349) 
A

>  <lig_segi>  (349) 
B

>  <lig_alt>  (349) 


>  <polymer_chain>  (349) 
A

>  <single_smiles>  (349) 
CCOC(=O)CC[C@H](C[C@@H]1CCNC1=O)NC(=O)[C@H](Cc2ccccc2)NC(=O)[C@H](CC(=O)OC(C)(C)C)NC(=O)OCc3ccccc3

$$$$
G83P1S191
     RDKit          3D

 16 15  0  0  0  0  0  0  0  0999 V2000
  -10.3020   19.6950  -30.3210 C   0  0  0  0  0  0  0  0  0  0  0  0
   -9.9650   18.3270  -30.5810 O   0  0  0  0  0  0  0  0  0  0  0  0
   -9.6140   17.8180  -31.9050 C   0  0  0  0  0  0  0  0  0  0  0  0
   -8.9270   16.6710  -31.9560 N   0  0  0  0  0  0  0  0  0  0  0  0
   -9.9760   18.4340  -32.9180 O   0  0  0  0  0  0  0  0  0  0  0  0
   -8.5890   16.1350  -33.2460 C   0  0  2  0  0  0  0  0  0  0  0  0
   -9.0700   14.7310  -33.4520 C   0  0  0  0  0  0  0  0  0  0  0  0
   -7.0940   15.9700  -33.0860 C   0  0  0  0  0  0  0  0  0  0  0  0
   -9.2610   14.3500  -34.7310 N   0  0  0  0  0  0  0  0  0  0  0  0
   -9.1660   13.9920  -32.4630 O   0  0  0  0  0  0  0  0  0  0  0  0
   -6.3360   17.1850  -33.4620 C   0  0  0  0  0  0  0  0  0  0  0  0
   -9.6510   12.9770  -35.0820 C   0  0  1  0  0  0  0  0  0  0  0  0
   -6.4670   17.7660  -34.5460 O   0  0  0  0  0  0  0  0  0  0  0  0
   -9.8940   12.8970  -36.5940 C   0  0  0  0  0  0  0  0  0  0  0  0
   -8.4620   12.0930  -34.7840 C   0  0  0  0  0  0  0  0  0  0  0  0
   -7.3180   12.4750  -35.0590 O   0  0  0  0  0  0  0  0  0  0  0  0
  1  2  1  0
  2  3  1  0
  3  4  1  0
  3  5  2  0
  4  6  1  0
  6  7  1  0
  6  8  1  1
  7  9  1  0
  7 10  2  0
 11  8  1  0
  9 12  1  0
 13 11  2  0
 12 14  1  6
 12 15  1  0
 15 16  2  0
A    2
 O15
A    3
 C17
A    4
 N21
A    5
 O19
A    6
 C23
A    7
 C31
A    8
 C25
A    9
 N33
A   10
 O35
A   12
 C37
A   13
 O1 
A   16
 O47
M  END
>  <XChem_code>  (350) 
G83§1

>  <Occupancy>  (350) 
[1.0, 1.0, 1.0, 1.0, 1.0, 1.0, 1.0, 1.0, 1.0, 1.0, 1.0, 1.0, 1.0, 1.0, 1.0, 1.0, 1.0, 1.0, 1.0, 1.0, 1.0, 1.0, 1.0, 1.0, 1.0, 1.0, 1.0, 1.0, 1.0, 1.0, 1.0, 1.0, 1.0, 1.0, 1.0, 1.0, 1.0, 1.0, 1.0, 1.0, 1.0, 1.0, 1.0, 1.0, 1.0, 1.0, 1.0, 1.0, 1.0, 1.0]

>  <TempFactor>  (350) 
[21.5, 44.89, 24.36, 42.16, 38.25, 23.95, 40.64, 20.41, 29.29, 22.5, 27.31, 23.15, 28.56, 41.84, 29.6, 38.53, 33.37, 31.58, 30.86, 27.88, 28.97, 31.52, 43.05, 27.66, 27.42, 21.95, 25.67, 24.02, 25.01, 43.36, 43.87, 19.31, 17.05, 26.62, 26.73, 28.95, 20.4, 17.34, 20.74, 21.57, 21.69, 20.06, 20.47, 18.67, 21.64, 27.5, 29.51, 35.17, 31.37, 18.86]

>  <accession>  (350) 
3ZZC_A

>  <description>  (350) 
Chain A, 3C PROTEINASE [Coxsackievirus B3]

>  <evalue>  (350) 
7.4865399999999999e-87

>  <pdb_code>  (350) 
3ZZC

>  <chain>  (350) 
A

>  <ligands>  (350) 
[{'chain_id': 'A', 'author_residue_number': 1181, 'author_insertion_code': '', 'chem_comp_id': 'G83', 'alternate_conformers': 0, 'entity_id': 2, 'struct_asym_id': 'B', 'residue_number': 1, 'chem_comp_name': 'ETHYL (5S,8S,11R)-8-BENZYL-5-(2-TERT-BUTOXY-2-OXOETHYL)-3,6,9-TRIOXO-11-{[(3S)-2-OXOPYRROLIDIN-3-YL]METHYL}-1-PHENYL-2-OXA-4,7,10-TRIAZATETRADECAN-14-OATE', 'weight': 680.788, 'carbohydrate_polymer': False, 'branch_name': ''}]

>  <ligand_codes>  (350) 
['G83']

>  <cofactor_codes>  (350) 
[]

>  <has_cofactor>  (350) 
False

>  <covalent>  (350) 
True

>  <base_name>  (350) 
3ZZC

>  <lig_resn>  (350) 
G83

>  <lig_resi>  (350) 
1181

>  <lig_chain>  (350) 
A

>  <lig_segi>  (350) 
B

>  <lig_alt>  (350) 


>  <polymer_chain>  (350) 
A

>  <single_smiles>  (350) 
CCOC(=O)CC[C@H](C[C@@H]1CCNC1=O)NC(=O)[C@H](Cc2ccccc2)NC(=O)[C@H](CC(=O)OC(C)(C)C)NC(=O)OCc3ccccc3

$$$$
G83P1S192
     RDKit          3D

 34 34  0  0  0  0  0  0  0  0999 V2000
   -9.8940   12.8970  -36.5940 C   0  0  0  0  0  0  0  0  0  0  0  0
   -9.6510   12.9770  -35.0820 C   0  0  1  0  0  0  0  0  0  0  0  0
   -8.4620   12.0930  -34.7840 C   0  0  0  0  0  0  0  0  0  0  0  0
   -9.2610   14.3500  -34.7310 N   0  0  0  0  0  0  0  0  0  0  0  0
   -8.7450   10.9170  -34.2200 N   0  0  0  0  0  0  0  0  0  0  0  0
   -7.3180   12.4750  -35.0590 O   0  0  0  0  0  0  0  0  0  0  0  0
   -9.0700   14.7310  -33.4520 C   0  0  0  0  0  0  0  0  0  0  0  0
   -7.7310    9.9410  -33.8290 C   0  0  1  0  0  0  0  0  0  0  0  0
   -8.5890   16.1350  -33.2460 C   0  0  2  0  0  0  0  0  0  0  0  0
   -9.1660   13.9920  -32.4630 O   0  0  0  0  0  0  0  0  0  0  0  0
   -7.6750    9.9230  -32.2970 C   0  0  0  0  0  0  0  0  0  0  0  0
   -8.1830    8.5770  -34.4040 C   0  0  2  0  0  0  0  0  0  0  0  0
   -7.0940   15.9700  -33.0860 C   0  0  0  0  0  0  0  0  0  0  0  0
   -8.9270   16.6710  -31.9560 N   0  0  0  0  0  0  0  0  0  0  0  0
   -8.1980    8.6230  -35.9360 C   0  0  0  0  0  0  0  0  0  0  0  0
   -9.8310    8.1200  -33.8380 R   0  0  0  0  0  0  0  0  0  0  0  0
   -6.3360   17.1850  -33.4620 C   0  0  0  0  0  0  0  0  0  0  0  0
   -9.6140   17.8180  -31.9050 C   0  0  0  0  0  0  0  0  0  0  0  0
   -6.8090    8.9220  -36.4600 C   0  0  0  0  0  0  0  0  0  0  0  0
   -5.3760   17.6500  -32.4930 O   0  0  0  0  0  0  0  0  0  0  0  0
   -6.4670   17.7660  -34.5460 O   0  0  0  0  0  0  0  0  0  0  0  0
   -9.9650   18.3270  -30.5810 O   0  0  0  0  0  0  0  0  0  0  0  0
   -9.9760   18.4340  -32.9180 O   0  0  0  0  0  0  0  0  0  0  0  0
   -6.6580    9.7290  -37.6550 O   0  0  0  0  0  0  0  0  0  0  0  0
   -5.8080    8.4980  -35.8980 O   0  0  0  0  0  0  0  0  0  0  0  0
  -10.3020   19.6950  -30.3210 C   0  0  0  0  0  0  0  0  0  0  0  0
   -5.3610   10.2030  -38.0740 C   0  0  0  0  0  0  0  0  0  0  0  0
  -10.4040   19.8340  -28.8340 C   0  0  0  0  0  0  0  0  0  0  0  0
   -4.5750    9.1110  -38.7950 C   0  0  0  0  0  0  0  0  0  0  0  0
   -9.6890   20.8420  -28.1960 C   0  0  0  0  0  0  0  0  0  0  0  0
  -11.1970   18.9310  -28.1220 C   0  0  0  0  0  0  0  0  0  0  0  0
   -9.7810   20.9510  -26.7880 C   0  0  0  0  0  0  0  0  0  0  0  0
  -11.3130   19.0390  -26.7440 C   0  0  0  0  0  0  0  0  0  0  0  0
  -10.5960   20.0640  -26.0750 C   0  0  0  0  0  0  0  0  0  0  0  0
  2  1  1  6
  2  3  1  0
  4  2  1  0
  3  5  1  0
  3  6  2  0
  7  4  1  0
  5  8  1  0
  9  7  1  0
  7 10  2  0
  8 11  1  1
  8 12  1  0
  9 13  1  1
 14  9  1  0
 12 15  1  0
 12 16  1  1
 17 13  1  0
 18 14  1  0
 15 19  1  0
 20 17  1  0
 21 17  2  0
 22 18  1  0
 18 23  2  0
 19 24  1  0
 19 25  2  0
 26 22  1  0
 27 24  1  0
 28 26  1  0
 27 29  1  0
 30 28  2  0
 28 31  1  0
 32 30  1  0
 31 33  2  0
 32 34  2  0
 33 34  1  0
V   16 *
A    2
 C37
A    3
 C39
A    4
 N33
A    5
 N49
A    6
 O47
A    7
 C31
A    8
 C57
A    9
 C23
A   10
 O35
A   12
 C63
A   13
 C25
A   14
 N21
A   15
 C82
A   16
 X  
A   17
 C14
A   18
 C17
A   19
 C84
A   21
 O1 
A   22
 O15
A   23
 O19
A   24
 O86
A   25
 O88
A   26
 C13
A   27
 C3 
A   28
 C4 
A   29
 C5 
A   30
 C2 
A   31
 C6 
A   32
 C1 
A   33
 C8 
A   34
 C10
M  END
>  <XChem_code>  (351) 
G83§1

>  <Occupancy>  (351) 
[1.0, 1.0, 1.0, 1.0, 1.0, 1.0, 1.0, 1.0, 1.0, 1.0, 1.0, 1.0, 1.0, 1.0, 1.0, 1.0, 1.0, 1.0, 1.0, 1.0, 1.0, 1.0, 1.0, 1.0, 1.0, 1.0, 1.0, 1.0, 1.0, 1.0, 1.0, 1.0, 1.0, 1.0, 1.0, 1.0, 1.0, 1.0, 1.0, 1.0, 1.0, 1.0, 1.0, 1.0, 1.0, 1.0, 1.0, 1.0, 1.0, 1.0]

>  <TempFactor>  (351) 
[21.5, 44.89, 24.36, 42.16, 38.25, 23.95, 40.64, 20.41, 29.29, 22.5, 27.31, 23.15, 28.56, 41.84, 29.6, 38.53, 33.37, 31.58, 30.86, 27.88, 28.97, 31.52, 43.05, 27.66, 27.42, 21.95, 25.67, 24.02, 25.01, 43.36, 43.87, 19.31, 17.05, 26.62, 26.73, 28.95, 20.4, 17.34, 20.74, 21.57, 21.69, 20.06, 20.47, 18.67, 21.64, 27.5, 29.51, 35.17, 31.37, 18.86]

>  <accession>  (351) 
3ZZC_A

>  <description>  (351) 
Chain A, 3C PROTEINASE [Coxsackievirus B3]

>  <evalue>  (351) 
7.4865399999999999e-87

>  <pdb_code>  (351) 
3ZZC

>  <chain>  (351) 
A

>  <ligands>  (351) 
[{'chain_id': 'A', 'author_residue_number': 1181, 'author_insertion_code': '', 'chem_comp_id': 'G83', 'alternate_conformers': 0, 'entity_id': 2, 'struct_asym_id': 'B', 'residue_number': 1, 'chem_comp_name': 'ETHYL (5S,8S,11R)-8-BENZYL-5-(2-TERT-BUTOXY-2-OXOETHYL)-3,6,9-TRIOXO-11-{[(3S)-2-OXOPYRROLIDIN-3-YL]METHYL}-1-PHENYL-2-OXA-4,7,10-TRIAZATETRADECAN-14-OATE', 'weight': 680.788, 'carbohydrate_polymer': False, 'branch_name': ''}]

>  <ligand_codes>  (351) 
['G83']

>  <cofactor_codes>  (351) 
[]

>  <has_cofactor>  (351) 
False

>  <covalent>  (351) 
True

>  <base_name>  (351) 
3ZZC

>  <lig_resn>  (351) 
G83

>  <lig_resi>  (351) 
1181

>  <lig_chain>  (351) 
A

>  <lig_segi>  (351) 
B

>  <lig_alt>  (351) 


>  <polymer_chain>  (351) 
A

>  <single_smiles>  (351) 
CCOC(=O)CC[C@H](C[C@@H]1CCNC1=O)NC(=O)[C@H](Cc2ccccc2)NC(=O)[C@H](CC(=O)OC(C)(C)C)NC(=O)OCc3ccccc3

$$$$
G83P1S193
     RDKit          3D

 34 34  0  0  0  0  0  0  0  0999 V2000
  -10.3020   19.6950  -30.3210 C   0  0  0  0  0  0  0  0  0  0  0  0
   -9.9650   18.3270  -30.5810 O   0  0  0  0  0  0  0  0  0  0  0  0
   -9.6140   17.8180  -31.9050 C   0  0  0  0  0  0  0  0  0  0  0  0
   -8.9270   16.6710  -31.9560 N   0  0  0  0  0  0  0  0  0  0  0  0
   -9.9760   18.4340  -32.9180 O   0  0  0  0  0  0  0  0  0  0  0  0
   -8.5890   16.1350  -33.2460 C   0  0  2  0  0  0  0  0  0  0  0  0
   -9.0700   14.7310  -33.4520 C   0  0  0  0  0  0  0  0  0  0  0  0
   -7.0940   15.9700  -33.0860 C   0  0  0  0  0  0  0  0  0  0  0  0
   -9.2610   14.3500  -34.7310 N   0  0  0  0  0  0  0  0  0  0  0  0
   -9.1660   13.9920  -32.4630 O   0  0  0  0  0  0  0  0  0  0  0  0
   -6.3360   17.1850  -33.4620 C   0  0  0  0  0  0  0  0  0  0  0  0
   -9.6510   12.9770  -35.0820 C   0  0  2  0  0  0  0  0  0  0  0  0
   -5.3760   17.6500  -32.4930 O   0  0  0  0  0  0  0  0  0  0  0  0
   -6.4670   17.7660  -34.5460 O   0  0  0  0  0  0  0  0  0  0  0  0
   -8.4620   12.0930  -34.7840 C   0  0  0  0  0  0  0  0  0  0  0  0
   -9.8940   12.8970  -36.5940 C   0  0  0  0  0  0  0  0  0  0  0  0
   -8.7450   10.9170  -34.2200 N   0  0  0  0  0  0  0  0  0  0  0  0
   -7.3180   12.4750  -35.0590 O   0  0  0  0  0  0  0  0  0  0  0  0
  -11.1210   13.7000  -36.9770 C   0  0  0  0  0  0  0  0  0  0  0  0
   -7.7310    9.9410  -33.8290 C   0  0  1  0  0  0  0  0  0  0  0  0
  -12.3400   13.5180  -36.3250 C   0  0  0  0  0  0  0  0  0  0  0  0
  -11.0320   14.6580  -38.0030 C   0  0  0  0  0  0  0  0  0  0  0  0
   -7.6750    9.9230  -32.2970 C   0  0  0  0  0  0  0  0  0  0  0  0
   -8.1830    8.5770  -34.4040 C   0  0  2  0  0  0  0  0  0  0  0  0
  -13.4670   14.3010  -36.6620 C   0  0  0  0  0  0  0  0  0  0  0  0
  -12.1840   15.4150  -38.3560 C   0  0  0  0  0  0  0  0  0  0  0  0
   -8.1980    8.6230  -35.9360 C   0  0  0  0  0  0  0  0  0  0  0  0
   -9.8310    8.1200  -33.8380 R   0  0  0  0  0  0  0  0  0  0  0  0
  -13.4100   15.2640  -37.6860 C   0  0  0  0  0  0  0  0  0  0  0  0
   -6.8090    8.9220  -36.4600 C   0  0  0  0  0  0  0  0  0  0  0  0
   -6.6580    9.7290  -37.6550 O   0  0  0  0  0  0  0  0  0  0  0  0
   -5.8080    8.4980  -35.8980 O   0  0  0  0  0  0  0  0  0  0  0  0
   -5.3610   10.2030  -38.0740 C   0  0  0  0  0  0  0  0  0  0  0  0
   -4.5750    9.1110  -38.7950 C   0  0  0  0  0  0  0  0  0  0  0  0
  1  2  1  0
  2  3  1  0
  3  4  1  0
  3  5  2  0
  4  6  1  0
  6  7  1  0
  6  8  1  1
  7  9  1  0
  7 10  2  0
 11  8  1  0
  9 12  1  0
 13 11  1  0
 14 11  2  0
 12 15  1  0
 12 16  1  6
 15 17  1  0
 15 18  2  0
 16 19  1  0
 17 20  1  0
 19 21  2  0
 19 22  1  0
 20 23  1  1
 20 24  1  0
 25 21  1  0
 26 22  2  0
 24 27  1  0
 24 28  1  1
 25 29  2  0
 29 26  1  0
 27 30  1  0
 30 31  1  0
 30 32  2  0
 33 31  1  0
 33 34  1  0
V   28 *
A    2
 O15
A    3
 C17
A    4
 N21
A    5
 O19
A    6
 C23
A    7
 C31
A    8
 C25
A    9
 N33
A   10
 O35
A   11
 C14
A   12
 C37
A   14
 O1 
A   15
 C39
A   16
 C41
A   17
 N49
A   18
 O47
A   19
 C51
A   20
 C57
A   21
 C53
A   22
 C55
A   24
 C63
A   25
 C7 
A   26
 C11
A   27
 C82
A   28
 X  
A   29
 C9 
A   30
 C84
A   31
 O86
A   32
 O88
A   33
 C3 
A   34
 C5 
M  END
>  <XChem_code>  (352) 
G83§1

>  <Occupancy>  (352) 
[1.0, 1.0, 1.0, 1.0, 1.0, 1.0, 1.0, 1.0, 1.0, 1.0, 1.0, 1.0, 1.0, 1.0, 1.0, 1.0, 1.0, 1.0, 1.0, 1.0, 1.0, 1.0, 1.0, 1.0, 1.0, 1.0, 1.0, 1.0, 1.0, 1.0, 1.0, 1.0, 1.0, 1.0, 1.0, 1.0, 1.0, 1.0, 1.0, 1.0, 1.0, 1.0, 1.0, 1.0, 1.0, 1.0, 1.0, 1.0, 1.0, 1.0]

>  <TempFactor>  (352) 
[21.5, 44.89, 24.36, 42.16, 38.25, 23.95, 40.64, 20.41, 29.29, 22.5, 27.31, 23.15, 28.56, 41.84, 29.6, 38.53, 33.37, 31.58, 30.86, 27.88, 28.97, 31.52, 43.05, 27.66, 27.42, 21.95, 25.67, 24.02, 25.01, 43.36, 43.87, 19.31, 17.05, 26.62, 26.73, 28.95, 20.4, 17.34, 20.74, 21.57, 21.69, 20.06, 20.47, 18.67, 21.64, 27.5, 29.51, 35.17, 31.37, 18.86]

>  <accession>  (352) 
3ZZC_A

>  <description>  (352) 
Chain A, 3C PROTEINASE [Coxsackievirus B3]

>  <evalue>  (352) 
7.4865399999999999e-87

>  <pdb_code>  (352) 
3ZZC

>  <chain>  (352) 
A

>  <ligands>  (352) 
[{'chain_id': 'A', 'author_residue_number': 1181, 'author_insertion_code': '', 'chem_comp_id': 'G83', 'alternate_conformers': 0, 'entity_id': 2, 'struct_asym_id': 'B', 'residue_number': 1, 'chem_comp_name': 'ETHYL (5S,8S,11R)-8-BENZYL-5-(2-TERT-BUTOXY-2-OXOETHYL)-3,6,9-TRIOXO-11-{[(3S)-2-OXOPYRROLIDIN-3-YL]METHYL}-1-PHENYL-2-OXA-4,7,10-TRIAZATETRADECAN-14-OATE', 'weight': 680.788, 'carbohydrate_polymer': False, 'branch_name': ''}]

>  <ligand_codes>  (352) 
['G83']

>  <cofactor_codes>  (352) 
[]

>  <has_cofactor>  (352) 
False

>  <covalent>  (352) 
True

>  <base_name>  (352) 
3ZZC

>  <lig_resn>  (352) 
G83

>  <lig_resi>  (352) 
1181

>  <lig_chain>  (352) 
A

>  <lig_segi>  (352) 
B

>  <lig_alt>  (352) 


>  <polymer_chain>  (352) 
A

>  <single_smiles>  (352) 
CCOC(=O)CC[C@H](C[C@@H]1CCNC1=O)NC(=O)[C@H](Cc2ccccc2)NC(=O)[C@H](CC(=O)OC(C)(C)C)NC(=O)OCc3ccccc3

$$$$
G83P1S194
     RDKit          3D

 34 34  0  0  0  0  0  0  0  0999 V2000
   -9.8940   12.8970  -36.5940 C   0  0  0  0  0  0  0  0  0  0  0  0
   -9.6510   12.9770  -35.0820 C   0  0  2  0  0  0  0  0  0  0  0  0
   -9.2610   14.3500  -34.7310 N   0  0  0  0  0  0  0  0  0  0  0  0
   -8.4620   12.0930  -34.7840 C   0  0  0  0  0  0  0  0  0  0  0  0
   -9.0700   14.7310  -33.4520 C   0  0  0  0  0  0  0  0  0  0  0  0
   -7.3180   12.4750  -35.0590 O   0  0  0  0  0  0  0  0  0  0  0  0
   -8.7450   10.9170  -34.2200 N   0  0  0  0  0  0  0  0  0  0  0  0
   -8.5890   16.1350  -33.2460 C   0  0  1  0  0  0  0  0  0  0  0  0
   -9.1660   13.9920  -32.4630 O   0  0  0  0  0  0  0  0  0  0  0  0
   -7.7310    9.9410  -33.8290 C   0  0  1  0  0  0  0  0  0  0  0  0
   -8.9270   16.6710  -31.9560 N   0  0  0  0  0  0  0  0  0  0  0  0
   -7.0940   15.9700  -33.0860 C   0  0  0  0  0  0  0  0  0  0  0  0
   -7.6750    9.9230  -32.2970 C   0  0  0  0  0  0  0  0  0  0  0  0
   -8.1830    8.5770  -34.4040 C   0  0  2  0  0  0  0  0  0  0  0  0
   -9.6140   17.8180  -31.9050 C   0  0  0  0  0  0  0  0  0  0  0  0
   -6.3360   17.1850  -33.4620 C   0  0  0  0  0  0  0  0  0  0  0  0
   -7.2530   11.2580  -31.6380 C   0  0  1  0  0  0  0  0  0  0  0  0
   -8.1980    8.6230  -35.9360 C   0  0  0  0  0  0  0  0  0  0  0  0
   -9.8310    8.1200  -33.8380 R   0  0  0  0  0  0  0  0  0  0  0  0
   -9.9650   18.3270  -30.5810 O   0  0  0  0  0  0  0  0  0  0  0  0
   -9.9760   18.4340  -32.9180 O   0  0  0  0  0  0  0  0  0  0  0  0
   -5.3760   17.6500  -32.4930 O   0  0  0  0  0  0  0  0  0  0  0  0
   -6.4670   17.7660  -34.5460 O   0  0  0  0  0  0  0  0  0  0  0  0
   -7.1040   11.1020  -30.1450 C   0  0  0  0  0  0  0  0  0  0  0  0
   -5.9010   11.8850  -31.9840 C   0  0  0  0  0  0  0  0  0  0  0  0
   -6.8090    8.9220  -36.4600 C   0  0  0  0  0  0  0  0  0  0  0  0
  -10.3020   19.6950  -30.3210 C   0  0  0  0  0  0  0  0  0  0  0  0
   -7.8010   10.3100  -29.5070 O   0  0  0  0  0  0  0  0  0  0  0  0
   -6.2280   11.9150  -29.7100 N   0  0  0  0  0  0  0  0  0  0  0  0
   -5.4330   12.6240  -30.7080 C   0  0  0  0  0  0  0  0  0  0  0  0
   -6.6580    9.7290  -37.6550 O   0  0  0  0  0  0  0  0  0  0  0  0
   -5.8080    8.4980  -35.8980 O   0  0  0  0  0  0  0  0  0  0  0  0
   -5.3610   10.2030  -38.0740 C   0  0  0  0  0  0  0  0  0  0  0  0
   -4.5750    9.1110  -38.7950 C   0  0  0  0  0  0  0  0  0  0  0  0
  2  1  1  6
  3  2  1  0
  2  4  1  0
  5  3  1  0
  4  6  2  0
  4  7  1  0
  8  5  1  0
  5  9  2  0
  7 10  1  0
 11  8  1  0
  8 12  1  1
 10 13  1  1
 10 14  1  0
 15 11  1  0
 16 12  1  0
 17 13  1  6
 14 18  1  0
 14 19  1  1
 20 15  1  0
 15 21  2  0
 22 16  1  0
 23 16  2  0
 17 24  1  0
 17 25  1  0
 18 26  1  0
 27 20  1  0
 24 28  2  0
 24 29  1  0
 30 25  1  0
 26 31  1  0
 26 32  2  0
 29 30  1  0
 33 31  1  0
 33 34  1  0
V   19 *
A    2
 C37
A    3
 N33
A    4
 C39
A    5
 C31
A    6
 O47
A    7
 N49
A    8
 C23
A    9
 O35
A   10
 C57
A   11
 N21
A   12
 C25
A   13
 C59
A   14
 C63
A   15
 C17
A   16
 C14
A   17
 C61
A   18
 C82
A   19
 X  
A   20
 O15
A   21
 O19
A   23
 O1 
A   24
 C65
A   25
 C73
A   26
 C84
A   28
 O66
A   29
 N69
A   30
 C71
A   31
 O86
A   32
 O88
A   33
 C3 
A   34
 C5 
M  END
>  <XChem_code>  (353) 
G83§1

>  <Occupancy>  (353) 
[1.0, 1.0, 1.0, 1.0, 1.0, 1.0, 1.0, 1.0, 1.0, 1.0, 1.0, 1.0, 1.0, 1.0, 1.0, 1.0, 1.0, 1.0, 1.0, 1.0, 1.0, 1.0, 1.0, 1.0, 1.0, 1.0, 1.0, 1.0, 1.0, 1.0, 1.0, 1.0, 1.0, 1.0, 1.0, 1.0, 1.0, 1.0, 1.0, 1.0, 1.0, 1.0, 1.0, 1.0, 1.0, 1.0, 1.0, 1.0, 1.0, 1.0]

>  <TempFactor>  (353) 
[21.5, 44.89, 24.36, 42.16, 38.25, 23.95, 40.64, 20.41, 29.29, 22.5, 27.31, 23.15, 28.56, 41.84, 29.6, 38.53, 33.37, 31.58, 30.86, 27.88, 28.97, 31.52, 43.05, 27.66, 27.42, 21.95, 25.67, 24.02, 25.01, 43.36, 43.87, 19.31, 17.05, 26.62, 26.73, 28.95, 20.4, 17.34, 20.74, 21.57, 21.69, 20.06, 20.47, 18.67, 21.64, 27.5, 29.51, 35.17, 31.37, 18.86]

>  <accession>  (353) 
3ZZC_A

>  <description>  (353) 
Chain A, 3C PROTEINASE [Coxsackievirus B3]

>  <evalue>  (353) 
7.4865399999999999e-87

>  <pdb_code>  (353) 
3ZZC

>  <chain>  (353) 
A

>  <ligands>  (353) 
[{'chain_id': 'A', 'author_residue_number': 1181, 'author_insertion_code': '', 'chem_comp_id': 'G83', 'alternate_conformers': 0, 'entity_id': 2, 'struct_asym_id': 'B', 'residue_number': 1, 'chem_comp_name': 'ETHYL (5S,8S,11R)-8-BENZYL-5-(2-TERT-BUTOXY-2-OXOETHYL)-3,6,9-TRIOXO-11-{[(3S)-2-OXOPYRROLIDIN-3-YL]METHYL}-1-PHENYL-2-OXA-4,7,10-TRIAZATETRADECAN-14-OATE', 'weight': 680.788, 'carbohydrate_polymer': False, 'branch_name': ''}]

>  <ligand_codes>  (353) 
['G83']

>  <cofactor_codes>  (353) 
[]

>  <has_cofactor>  (353) 
False

>  <covalent>  (353) 
True

>  <base_name>  (353) 
3ZZC

>  <lig_resn>  (353) 
G83

>  <lig_resi>  (353) 
1181

>  <lig_chain>  (353) 
A

>  <lig_segi>  (353) 
B

>  <lig_alt>  (353) 


>  <polymer_chain>  (353) 
A

>  <single_smiles>  (353) 
CCOC(=O)CC[C@H](C[C@@H]1CCNC1=O)NC(=O)[C@H](Cc2ccccc2)NC(=O)[C@H](CC(=O)OC(C)(C)C)NC(=O)OCc3ccccc3

$$$$
G83P1S195
     RDKit          3D

 31 30  0  0  0  0  0  0  0  0999 V2000
   -9.8940   12.8970  -36.5940 C   0  0  0  0  0  0  0  0  0  0  0  0
   -9.6510   12.9770  -35.0820 C   0  0  1  0  0  0  0  0  0  0  0  0
   -8.4620   12.0930  -34.7840 C   0  0  0  0  0  0  0  0  0  0  0  0
   -9.2610   14.3500  -34.7310 N   0  0  0  0  0  0  0  0  0  0  0  0
   -8.7450   10.9170  -34.2200 N   0  0  0  0  0  0  0  0  0  0  0  0
   -7.3180   12.4750  -35.0590 O   0  0  0  0  0  0  0  0  0  0  0  0
   -9.0700   14.7310  -33.4520 C   0  0  0  0  0  0  0  0  0  0  0  0
   -7.7310    9.9410  -33.8290 C   0  0  1  0  0  0  0  0  0  0  0  0
   -8.5890   16.1350  -33.2460 C   0  0  1  0  0  0  0  0  0  0  0  0
   -9.1660   13.9920  -32.4630 O   0  0  0  0  0  0  0  0  0  0  0  0
   -7.6750    9.9230  -32.2970 C   0  0  0  0  0  0  0  0  0  0  0  0
   -8.1830    8.5770  -34.4040 C   0  0  2  0  0  0  0  0  0  0  0  0
   -8.9270   16.6710  -31.9560 N   0  0  0  0  0  0  0  0  0  0  0  0
   -7.0940   15.9700  -33.0860 C   0  0  0  0  0  0  0  0  0  0  0  0
   -8.1980    8.6230  -35.9360 C   0  0  0  0  0  0  0  0  0  0  0  0
   -9.8310    8.1200  -33.8380 R   0  0  0  0  0  0  0  0  0  0  0  0
   -9.6140   17.8180  -31.9050 C   0  0  0  0  0  0  0  0  0  0  0  0
   -6.3360   17.1850  -33.4620 C   0  0  0  0  0  0  0  0  0  0  0  0
   -6.8090    8.9220  -36.4600 C   0  0  0  0  0  0  0  0  0  0  0  0
   -9.9650   18.3270  -30.5810 O   0  0  0  0  0  0  0  0  0  0  0  0
   -9.9760   18.4340  -32.9180 O   0  0  0  0  0  0  0  0  0  0  0  0
   -6.4670   17.7660  -34.5460 O   0  0  0  0  0  0  0  0  0  0  0  0
   -5.3760   17.6500  -32.4930 O   0  0  0  0  0  0  0  0  0  0  0  0
   -6.6580    9.7290  -37.6550 O   0  0  0  0  0  0  0  0  0  0  0  0
   -5.8080    8.4980  -35.8980 O   0  0  0  0  0  0  0  0  0  0  0  0
   -4.0330   17.1570  -32.4230 C   0  0  0  0  0  0  0  0  0  0  0  0
   -5.3610   10.2030  -38.0740 C   0  0  0  0  0  0  0  0  0  0  0  0
   -3.6770   16.1600  -33.5370 C   0  0  0  0  0  0  0  0  0  0  0  0
   -3.9520   16.4650  -31.0680 C   0  0  0  0  0  0  0  0  0  0  0  0
   -3.0820   18.3540  -32.5240 C   0  0  0  0  0  0  0  0  0  0  0  0
   -4.5750    9.1110  -38.7950 C   0  0  0  0  0  0  0  0  0  0  0  0
  2  1  1  6
  2  3  1  0
  4  2  1  0
  3  5  1  0
  3  6  2  0
  7  4  1  0
  5  8  1  0
  9  7  1  0
  7 10  2  0
  8 11  1  1
  8 12  1  0
 13  9  1  0
  9 14  1  1
 12 15  1  0
 12 16  1  1
 17 13  1  0
 18 14  1  0
 15 19  1  0
 20 17  1  0
 17 21  2  0
 22 18  2  0
 23 18  1  0
 19 24  1  0
 19 25  2  0
 23 26  1  0
 27 24  1  0
 26 28  1  0
 26 29  1  0
 26 30  1  0
 27 31  1  0
V   16 *
A    2
 C37
A    3
 C39
A    4
 N33
A    5
 N49
A    6
 O47
A    7
 C31
A    8
 C57
A    9
 C23
A   10
 O35
A   12
 C63
A   13
 N21
A   14
 C25
A   15
 C82
A   16
 X  
A   17
 C17
A   18
 C14
A   19
 C84
A   21
 O19
A   22
 O1 
A   23
 O2 
A   24
 O86
A   25
 O88
A   26
 C29
A   27
 C3 
A   28
 C12
A   29
 C43
A   30
 C45
A   31
 C5 
M  END
>  <XChem_code>  (354) 
G83§1

>  <Occupancy>  (354) 
[1.0, 1.0, 1.0, 1.0, 1.0, 1.0, 1.0, 1.0, 1.0, 1.0, 1.0, 1.0, 1.0, 1.0, 1.0, 1.0, 1.0, 1.0, 1.0, 1.0, 1.0, 1.0, 1.0, 1.0, 1.0, 1.0, 1.0, 1.0, 1.0, 1.0, 1.0, 1.0, 1.0, 1.0, 1.0, 1.0, 1.0, 1.0, 1.0, 1.0, 1.0, 1.0, 1.0, 1.0, 1.0, 1.0, 1.0, 1.0, 1.0, 1.0]

>  <TempFactor>  (354) 
[21.5, 44.89, 24.36, 42.16, 38.25, 23.95, 40.64, 20.41, 29.29, 22.5, 27.31, 23.15, 28.56, 41.84, 29.6, 38.53, 33.37, 31.58, 30.86, 27.88, 28.97, 31.52, 43.05, 27.66, 27.42, 21.95, 25.67, 24.02, 25.01, 43.36, 43.87, 19.31, 17.05, 26.62, 26.73, 28.95, 20.4, 17.34, 20.74, 21.57, 21.69, 20.06, 20.47, 18.67, 21.64, 27.5, 29.51, 35.17, 31.37, 18.86]

>  <accession>  (354) 
3ZZC_A

>  <description>  (354) 
Chain A, 3C PROTEINASE [Coxsackievirus B3]

>  <evalue>  (354) 
7.4865399999999999e-87

>  <pdb_code>  (354) 
3ZZC

>  <chain>  (354) 
A

>  <ligands>  (354) 
[{'chain_id': 'A', 'author_residue_number': 1181, 'author_insertion_code': '', 'chem_comp_id': 'G83', 'alternate_conformers': 0, 'entity_id': 2, 'struct_asym_id': 'B', 'residue_number': 1, 'chem_comp_name': 'ETHYL (5S,8S,11R)-8-BENZYL-5-(2-TERT-BUTOXY-2-OXOETHYL)-3,6,9-TRIOXO-11-{[(3S)-2-OXOPYRROLIDIN-3-YL]METHYL}-1-PHENYL-2-OXA-4,7,10-TRIAZATETRADECAN-14-OATE', 'weight': 680.788, 'carbohydrate_polymer': False, 'branch_name': ''}]

>  <ligand_codes>  (354) 
['G83']

>  <cofactor_codes>  (354) 
[]

>  <has_cofactor>  (354) 
False

>  <covalent>  (354) 
True

>  <base_name>  (354) 
3ZZC

>  <lig_resn>  (354) 
G83

>  <lig_resi>  (354) 
1181

>  <lig_chain>  (354) 
A

>  <lig_segi>  (354) 
B

>  <lig_alt>  (354) 


>  <polymer_chain>  (354) 
A

>  <single_smiles>  (354) 
CCOC(=O)CC[C@H](C[C@@H]1CCNC1=O)NC(=O)[C@H](Cc2ccccc2)NC(=O)[C@H](CC(=O)OC(C)(C)C)NC(=O)OCc3ccccc3

$$$$
G83P1S196
     RDKit          3D

 26 25  0  0  0  0  0  0  0  0999 V2000
   -9.8940   12.8970  -36.5940 C   0  0  0  0  0  0  0  0  0  0  0  0
   -9.6510   12.9770  -35.0820 C   0  0  1  0  0  0  0  0  0  0  0  0
   -8.4620   12.0930  -34.7840 C   0  0  0  0  0  0  0  0  0  0  0  0
   -9.2610   14.3500  -34.7310 N   0  0  0  0  0  0  0  0  0  0  0  0
   -8.7450   10.9170  -34.2200 N   0  0  0  0  0  0  0  0  0  0  0  0
   -7.3180   12.4750  -35.0590 O   0  0  0  0  0  0  0  0  0  0  0  0
   -9.0700   14.7310  -33.4520 C   0  0  0  0  0  0  0  0  0  0  0  0
   -7.7310    9.9410  -33.8290 C   0  0  1  0  0  0  0  0  0  0  0  0
   -8.5890   16.1350  -33.2460 C   0  0  1  0  0  0  0  0  0  0  0  0
   -9.1660   13.9920  -32.4630 O   0  0  0  0  0  0  0  0  0  0  0  0
   -7.6750    9.9230  -32.2970 C   0  0  0  0  0  0  0  0  0  0  0  0
   -8.1830    8.5770  -34.4040 C   0  0  2  0  0  0  0  0  0  0  0  0
   -8.9270   16.6710  -31.9560 N   0  0  0  0  0  0  0  0  0  0  0  0
   -7.0940   15.9700  -33.0860 C   0  0  0  0  0  0  0  0  0  0  0  0
   -8.1980    8.6230  -35.9360 C   0  0  0  0  0  0  0  0  0  0  0  0
   -9.8310    8.1200  -33.8380 R   0  0  0  0  0  0  0  0  0  0  0  0
   -9.6140   17.8180  -31.9050 C   0  0  0  0  0  0  0  0  0  0  0  0
   -6.3360   17.1850  -33.4620 C   0  0  0  0  0  0  0  0  0  0  0  0
   -6.8090    8.9220  -36.4600 C   0  0  0  0  0  0  0  0  0  0  0  0
   -9.9650   18.3270  -30.5810 O   0  0  0  0  0  0  0  0  0  0  0  0
   -9.9760   18.4340  -32.9180 O   0  0  0  0  0  0  0  0  0  0  0  0
   -6.4670   17.7660  -34.5460 O   0  0  0  0  0  0  0  0  0  0  0  0
   -6.6580    9.7290  -37.6550 O   0  0  0  0  0  0  0  0  0  0  0  0
   -5.8080    8.4980  -35.8980 O   0  0  0  0  0  0  0  0  0  0  0  0
   -5.3610   10.2030  -38.0740 C   0  0  0  0  0  0  0  0  0  0  0  0
   -4.5750    9.1110  -38.7950 C   0  0  0  0  0  0  0  0  0  0  0  0
  2  1  1  6
  2  3  1  0
  4  2  1  0
  3  5  1  0
  3  6  2  0
  7  4  1  0
  5  8  1  0
  9  7  1  0
  7 10  2  0
  8 11  1  1
  8 12  1  0
 13  9  1  0
  9 14  1  1
 12 15  1  0
 12 16  1  1
 17 13  1  0
 18 14  1  0
 15 19  1  0
 20 17  1  0
 17 21  2  0
 22 18  2  0
 19 23  1  0
 19 24  2  0
 25 23  1  0
 25 26  1  0
V   16 *
A    2
 C37
A    3
 C39
A    4
 N33
A    5
 N49
A    6
 O47
A    7
 C31
A    8
 C57
A    9
 C23
A   10
 O35
A   12
 C63
A   13
 N21
A   14
 C25
A   15
 C82
A   16
 X  
A   17
 C17
A   19
 C84
A   21
 O19
A   22
 O1 
A   23
 O86
A   24
 O88
A   25
 C3 
A   26
 C5 
M  END
>  <XChem_code>  (355) 
G83§1

>  <Occupancy>  (355) 
[1.0, 1.0, 1.0, 1.0, 1.0, 1.0, 1.0, 1.0, 1.0, 1.0, 1.0, 1.0, 1.0, 1.0, 1.0, 1.0, 1.0, 1.0, 1.0, 1.0, 1.0, 1.0, 1.0, 1.0, 1.0, 1.0, 1.0, 1.0, 1.0, 1.0, 1.0, 1.0, 1.0, 1.0, 1.0, 1.0, 1.0, 1.0, 1.0, 1.0, 1.0, 1.0, 1.0, 1.0, 1.0, 1.0, 1.0, 1.0, 1.0, 1.0]

>  <TempFactor>  (355) 
[21.5, 44.89, 24.36, 42.16, 38.25, 23.95, 40.64, 20.41, 29.29, 22.5, 27.31, 23.15, 28.56, 41.84, 29.6, 38.53, 33.37, 31.58, 30.86, 27.88, 28.97, 31.52, 43.05, 27.66, 27.42, 21.95, 25.67, 24.02, 25.01, 43.36, 43.87, 19.31, 17.05, 26.62, 26.73, 28.95, 20.4, 17.34, 20.74, 21.57, 21.69, 20.06, 20.47, 18.67, 21.64, 27.5, 29.51, 35.17, 31.37, 18.86]

>  <accession>  (355) 
3ZZC_A

>  <description>  (355) 
Chain A, 3C PROTEINASE [Coxsackievirus B3]

>  <evalue>  (355) 
7.4865399999999999e-87

>  <pdb_code>  (355) 
3ZZC

>  <chain>  (355) 
A

>  <ligands>  (355) 
[{'chain_id': 'A', 'author_residue_number': 1181, 'author_insertion_code': '', 'chem_comp_id': 'G83', 'alternate_conformers': 0, 'entity_id': 2, 'struct_asym_id': 'B', 'residue_number': 1, 'chem_comp_name': 'ETHYL (5S,8S,11R)-8-BENZYL-5-(2-TERT-BUTOXY-2-OXOETHYL)-3,6,9-TRIOXO-11-{[(3S)-2-OXOPYRROLIDIN-3-YL]METHYL}-1-PHENYL-2-OXA-4,7,10-TRIAZATETRADECAN-14-OATE', 'weight': 680.788, 'carbohydrate_polymer': False, 'branch_name': ''}]

>  <ligand_codes>  (355) 
['G83']

>  <cofactor_codes>  (355) 
[]

>  <has_cofactor>  (355) 
False

>  <covalent>  (355) 
True

>  <base_name>  (355) 
3ZZC

>  <lig_resn>  (355) 
G83

>  <lig_resi>  (355) 
1181

>  <lig_chain>  (355) 
A

>  <lig_segi>  (355) 
B

>  <lig_alt>  (355) 


>  <polymer_chain>  (355) 
A

>  <single_smiles>  (355) 
CCOC(=O)CC[C@H](C[C@@H]1CCNC1=O)NC(=O)[C@H](Cc2ccccc2)NC(=O)[C@H](CC(=O)OC(C)(C)C)NC(=O)OCc3ccccc3

$$$$
G83P1S197
     RDKit          3D

 26 25  0  0  0  0  0  0  0  0999 V2000
   -9.8940   12.8970  -36.5940 C   0  0  0  0  0  0  0  0  0  0  0  0
   -9.6510   12.9770  -35.0820 C   0  0  1  0  0  0  0  0  0  0  0  0
   -8.4620   12.0930  -34.7840 C   0  0  0  0  0  0  0  0  0  0  0  0
   -9.2610   14.3500  -34.7310 N   0  0  0  0  0  0  0  0  0  0  0  0
   -8.7450   10.9170  -34.2200 N   0  0  0  0  0  0  0  0  0  0  0  0
   -7.3180   12.4750  -35.0590 O   0  0  0  0  0  0  0  0  0  0  0  0
   -9.0700   14.7310  -33.4520 C   0  0  0  0  0  0  0  0  0  0  0  0
   -7.7310    9.9410  -33.8290 C   0  0  1  0  0  0  0  0  0  0  0  0
   -8.5890   16.1350  -33.2460 C   0  0  2  0  0  0  0  0  0  0  0  0
   -9.1660   13.9920  -32.4630 O   0  0  0  0  0  0  0  0  0  0  0  0
   -7.6750    9.9230  -32.2970 C   0  0  0  0  0  0  0  0  0  0  0  0
   -8.1830    8.5770  -34.4040 C   0  0  2  0  0  0  0  0  0  0  0  0
   -7.0940   15.9700  -33.0860 C   0  0  0  0  0  0  0  0  0  0  0  0
   -8.9270   16.6710  -31.9560 N   0  0  0  0  0  0  0  0  0  0  0  0
   -8.1980    8.6230  -35.9360 C   0  0  0  0  0  0  0  0  0  0  0  0
   -9.8310    8.1200  -33.8380 R   0  0  0  0  0  0  0  0  0  0  0  0
   -6.3360   17.1850  -33.4620 C   0  0  0  0  0  0  0  0  0  0  0  0
   -9.6140   17.8180  -31.9050 C   0  0  0  0  0  0  0  0  0  0  0  0
   -6.8090    8.9220  -36.4600 C   0  0  0  0  0  0  0  0  0  0  0  0
   -5.3760   17.6500  -32.4930 O   0  0  0  0  0  0  0  0  0  0  0  0
   -6.4670   17.7660  -34.5460 O   0  0  0  0  0  0  0  0  0  0  0  0
   -9.9760   18.4340  -32.9180 O   0  0  0  0  0  0  0  0  0  0  0  0
   -6.6580    9.7290  -37.6550 O   0  0  0  0  0  0  0  0  0  0  0  0
   -5.8080    8.4980  -35.8980 O   0  0  0  0  0  0  0  0  0  0  0  0
   -5.3610   10.2030  -38.0740 C   0  0  0  0  0  0  0  0  0  0  0  0
   -4.5750    9.1110  -38.7950 C   0  0  0  0  0  0  0  0  0  0  0  0
  2  1  1  6
  2  3  1  0
  4  2  1  0
  3  5  1  0
  3  6  2  0
  7  4  1  0
  5  8  1  0
  9  7  1  0
  7 10  2  0
  8 11  1  1
  8 12  1  0
  9 13  1  1
 14  9  1  0
 12 15  1  0
 12 16  1  1
 17 13  1  0
 18 14  1  0
 15 19  1  0
 20 17  1  0
 21 17  2  0
 18 22  2  0
 19 23  1  0
 19 24  2  0
 25 23  1  0
 25 26  1  0
V   16 *
A    2
 C37
A    3
 C39
A    4
 N33
A    5
 N49
A    6
 O47
A    7
 C31
A    8
 C57
A    9
 C23
A   10
 O35
A   12
 C63
A   13
 C25
A   14
 N21
A   15
 C82
A   16
 X  
A   17
 C14
A   19
 C84
A   21
 O1 
A   22
 O19
A   23
 O86
A   24
 O88
A   25
 C3 
A   26
 C5 
M  END
>  <XChem_code>  (356) 
G83§1

>  <Occupancy>  (356) 
[1.0, 1.0, 1.0, 1.0, 1.0, 1.0, 1.0, 1.0, 1.0, 1.0, 1.0, 1.0, 1.0, 1.0, 1.0, 1.0, 1.0, 1.0, 1.0, 1.0, 1.0, 1.0, 1.0, 1.0, 1.0, 1.0, 1.0, 1.0, 1.0, 1.0, 1.0, 1.0, 1.0, 1.0, 1.0, 1.0, 1.0, 1.0, 1.0, 1.0, 1.0, 1.0, 1.0, 1.0, 1.0, 1.0, 1.0, 1.0, 1.0, 1.0]

>  <TempFactor>  (356) 
[21.5, 44.89, 24.36, 42.16, 38.25, 23.95, 40.64, 20.41, 29.29, 22.5, 27.31, 23.15, 28.56, 41.84, 29.6, 38.53, 33.37, 31.58, 30.86, 27.88, 28.97, 31.52, 43.05, 27.66, 27.42, 21.95, 25.67, 24.02, 25.01, 43.36, 43.87, 19.31, 17.05, 26.62, 26.73, 28.95, 20.4, 17.34, 20.74, 21.57, 21.69, 20.06, 20.47, 18.67, 21.64, 27.5, 29.51, 35.17, 31.37, 18.86]

>  <accession>  (356) 
3ZZC_A

>  <description>  (356) 
Chain A, 3C PROTEINASE [Coxsackievirus B3]

>  <evalue>  (356) 
7.4865399999999999e-87

>  <pdb_code>  (356) 
3ZZC

>  <chain>  (356) 
A

>  <ligands>  (356) 
[{'chain_id': 'A', 'author_residue_number': 1181, 'author_insertion_code': '', 'chem_comp_id': 'G83', 'alternate_conformers': 0, 'entity_id': 2, 'struct_asym_id': 'B', 'residue_number': 1, 'chem_comp_name': 'ETHYL (5S,8S,11R)-8-BENZYL-5-(2-TERT-BUTOXY-2-OXOETHYL)-3,6,9-TRIOXO-11-{[(3S)-2-OXOPYRROLIDIN-3-YL]METHYL}-1-PHENYL-2-OXA-4,7,10-TRIAZATETRADECAN-14-OATE', 'weight': 680.788, 'carbohydrate_polymer': False, 'branch_name': ''}]

>  <ligand_codes>  (356) 
['G83']

>  <cofactor_codes>  (356) 
[]

>  <has_cofactor>  (356) 
False

>  <covalent>  (356) 
True

>  <base_name>  (356) 
3ZZC

>  <lig_resn>  (356) 
G83

>  <lig_resi>  (356) 
1181

>  <lig_chain>  (356) 
A

>  <lig_segi>  (356) 
B

>  <lig_alt>  (356) 


>  <polymer_chain>  (356) 
A

>  <single_smiles>  (356) 
CCOC(=O)CC[C@H](C[C@@H]1CCNC1=O)NC(=O)[C@H](Cc2ccccc2)NC(=O)[C@H](CC(=O)OC(C)(C)C)NC(=O)OCc3ccccc3

$$$$
G83P1S198
     RDKit          3D

 24 23  0  0  0  0  0  0  0  0999 V2000
   -9.8940   12.8970  -36.5940 C   0  0  0  0  0  0  0  0  0  0  0  0
   -9.6510   12.9770  -35.0820 C   0  0  1  0  0  0  0  0  0  0  0  0
   -8.4620   12.0930  -34.7840 C   0  0  0  0  0  0  0  0  0  0  0  0
   -9.2610   14.3500  -34.7310 N   0  0  0  0  0  0  0  0  0  0  0  0
   -8.7450   10.9170  -34.2200 N   0  0  0  0  0  0  0  0  0  0  0  0
   -7.3180   12.4750  -35.0590 O   0  0  0  0  0  0  0  0  0  0  0  0
   -9.0700   14.7310  -33.4520 C   0  0  0  0  0  0  0  0  0  0  0  0
   -7.7310    9.9410  -33.8290 C   0  0  1  0  0  0  0  0  0  0  0  0
   -8.5890   16.1350  -33.2460 C   0  0  2  0  0  0  0  0  0  0  0  0
   -9.1660   13.9920  -32.4630 O   0  0  0  0  0  0  0  0  0  0  0  0
   -7.6750    9.9230  -32.2970 C   0  0  0  0  0  0  0  0  0  0  0  0
   -8.1830    8.5770  -34.4040 C   0  0  2  0  0  0  0  0  0  0  0  0
   -7.0940   15.9700  -33.0860 C   0  0  0  0  0  0  0  0  0  0  0  0
   -8.9270   16.6710  -31.9560 N   0  0  0  0  0  0  0  0  0  0  0  0
   -8.1980    8.6230  -35.9360 C   0  0  0  0  0  0  0  0  0  0  0  0
   -9.8310    8.1200  -33.8380 R   0  0  0  0  0  0  0  0  0  0  0  0
   -6.3360   17.1850  -33.4620 C   0  0  0  0  0  0  0  0  0  0  0  0
   -6.8090    8.9220  -36.4600 C   0  0  0  0  0  0  0  0  0  0  0  0
   -5.3760   17.6500  -32.4930 O   0  0  0  0  0  0  0  0  0  0  0  0
   -6.4670   17.7660  -34.5460 O   0  0  0  0  0  0  0  0  0  0  0  0
   -6.6580    9.7290  -37.6550 O   0  0  0  0  0  0  0  0  0  0  0  0
   -5.8080    8.4980  -35.8980 O   0  0  0  0  0  0  0  0  0  0  0  0
   -5.3610   10.2030  -38.0740 C   0  0  0  0  0  0  0  0  0  0  0  0
   -4.5750    9.1110  -38.7950 C   0  0  0  0  0  0  0  0  0  0  0  0
  2  1  1  6
  2  3  1  0
  4  2  1  0
  3  5  1  0
  3  6  2  0
  7  4  1  0
  5  8  1  0
  9  7  1  0
  7 10  2  0
  8 11  1  1
  8 12  1  0
  9 13  1  0
  9 14  1  1
 12 15  1  0
 12 16  1  1
 17 13  1  0
 15 18  1  0
 19 17  1  0
 20 17  2  0
 18 21  1  0
 18 22  2  0
 23 21  1  0
 23 24  1  0
V   16 *
A    2
 C37
A    3
 C39
A    4
 N33
A    5
 N49
A    6
 O47
A    7
 C31
A    8
 C57
A    9
 C23
A   10
 O35
A   12
 C63
A   13
 C25
A   15
 C82
A   16
 X  
A   17
 C14
A   18
 C84
A   20
 O1 
A   21
 O86
A   22
 O88
A   23
 C3 
A   24
 C5 
M  END
>  <XChem_code>  (357) 
G83§1

>  <Occupancy>  (357) 
[1.0, 1.0, 1.0, 1.0, 1.0, 1.0, 1.0, 1.0, 1.0, 1.0, 1.0, 1.0, 1.0, 1.0, 1.0, 1.0, 1.0, 1.0, 1.0, 1.0, 1.0, 1.0, 1.0, 1.0, 1.0, 1.0, 1.0, 1.0, 1.0, 1.0, 1.0, 1.0, 1.0, 1.0, 1.0, 1.0, 1.0, 1.0, 1.0, 1.0, 1.0, 1.0, 1.0, 1.0, 1.0, 1.0, 1.0, 1.0, 1.0, 1.0]

>  <TempFactor>  (357) 
[21.5, 44.89, 24.36, 42.16, 38.25, 23.95, 40.64, 20.41, 29.29, 22.5, 27.31, 23.15, 28.56, 41.84, 29.6, 38.53, 33.37, 31.58, 30.86, 27.88, 28.97, 31.52, 43.05, 27.66, 27.42, 21.95, 25.67, 24.02, 25.01, 43.36, 43.87, 19.31, 17.05, 26.62, 26.73, 28.95, 20.4, 17.34, 20.74, 21.57, 21.69, 20.06, 20.47, 18.67, 21.64, 27.5, 29.51, 35.17, 31.37, 18.86]

>  <accession>  (357) 
3ZZC_A

>  <description>  (357) 
Chain A, 3C PROTEINASE [Coxsackievirus B3]

>  <evalue>  (357) 
7.4865399999999999e-87

>  <pdb_code>  (357) 
3ZZC

>  <chain>  (357) 
A

>  <ligands>  (357) 
[{'chain_id': 'A', 'author_residue_number': 1181, 'author_insertion_code': '', 'chem_comp_id': 'G83', 'alternate_conformers': 0, 'entity_id': 2, 'struct_asym_id': 'B', 'residue_number': 1, 'chem_comp_name': 'ETHYL (5S,8S,11R)-8-BENZYL-5-(2-TERT-BUTOXY-2-OXOETHYL)-3,6,9-TRIOXO-11-{[(3S)-2-OXOPYRROLIDIN-3-YL]METHYL}-1-PHENYL-2-OXA-4,7,10-TRIAZATETRADECAN-14-OATE', 'weight': 680.788, 'carbohydrate_polymer': False, 'branch_name': ''}]

>  <ligand_codes>  (357) 
['G83']

>  <cofactor_codes>  (357) 
[]

>  <has_cofactor>  (357) 
False

>  <covalent>  (357) 
True

>  <base_name>  (357) 
3ZZC

>  <lig_resn>  (357) 
G83

>  <lig_resi>  (357) 
1181

>  <lig_chain>  (357) 
A

>  <lig_segi>  (357) 
B

>  <lig_alt>  (357) 


>  <polymer_chain>  (357) 
A

>  <single_smiles>  (357) 
CCOC(=O)CC[C@H](C[C@@H]1CCNC1=O)NC(=O)[C@H](Cc2ccccc2)NC(=O)[C@H](CC(=O)OC(C)(C)C)NC(=O)OCc3ccccc3

$$$$
G83P1S199
     RDKit          3D

 17 16  0  0  0  0  0  0  0  0999 V2000
  -10.3020   19.6950  -30.3210 C   0  0  0  0  0  0  0  0  0  0  0  0
   -9.9650   18.3270  -30.5810 O   0  0  0  0  0  0  0  0  0  0  0  0
   -9.6140   17.8180  -31.9050 C   0  0  0  0  0  0  0  0  0  0  0  0
   -8.9270   16.6710  -31.9560 N   0  0  0  0  0  0  0  0  0  0  0  0
   -9.9760   18.4340  -32.9180 O   0  0  0  0  0  0  0  0  0  0  0  0
   -8.5890   16.1350  -33.2460 C   0  0  2  0  0  0  0  0  0  0  0  0
   -9.0700   14.7310  -33.4520 C   0  0  0  0  0  0  0  0  0  0  0  0
   -7.0940   15.9700  -33.0860 C   0  0  0  0  0  0  0  0  0  0  0  0
   -9.2610   14.3500  -34.7310 N   0  0  0  0  0  0  0  0  0  0  0  0
   -9.1660   13.9920  -32.4630 O   0  0  0  0  0  0  0  0  0  0  0  0
   -6.3360   17.1850  -33.4620 C   0  0  0  0  0  0  0  0  0  0  0  0
   -9.6510   12.9770  -35.0820 C   0  0  1  0  0  0  0  0  0  0  0  0
   -5.3760   17.6500  -32.4930 O   0  0  0  0  0  0  0  0  0  0  0  0
   -6.4670   17.7660  -34.5460 O   0  0  0  0  0  0  0  0  0  0  0  0
   -9.8940   12.8970  -36.5940 C   0  0  0  0  0  0  0  0  0  0  0  0
   -8.4620   12.0930  -34.7840 C   0  0  0  0  0  0  0  0  0  0  0  0
   -7.3180   12.4750  -35.0590 O   0  0  0  0  0  0  0  0  0  0  0  0
  1  2  1  0
  2  3  1  0
  3  4  1  0
  3  5  2  0
  4  6  1  0
  6  7  1  0
  6  8  1  1
  7  9  1  0
  7 10  2  0
 11  8  1  0
  9 12  1  0
 13 11  1  0
 14 11  2  0
 12 15  1  6
 12 16  1  0
 16 17  2  0
A    2
 O15
A    3
 C17
A    4
 N21
A    5
 O19
A    6
 C23
A    7
 C31
A    8
 C25
A    9
 N33
A   10
 O35
A   11
 C14
A   12
 C37
A   14
 O1 
A   17
 O47
M  END
>  <XChem_code>  (358) 
G83§1

>  <Occupancy>  (358) 
[1.0, 1.0, 1.0, 1.0, 1.0, 1.0, 1.0, 1.0, 1.0, 1.0, 1.0, 1.0, 1.0, 1.0, 1.0, 1.0, 1.0, 1.0, 1.0, 1.0, 1.0, 1.0, 1.0, 1.0, 1.0, 1.0, 1.0, 1.0, 1.0, 1.0, 1.0, 1.0, 1.0, 1.0, 1.0, 1.0, 1.0, 1.0, 1.0, 1.0, 1.0, 1.0, 1.0, 1.0, 1.0, 1.0, 1.0, 1.0, 1.0, 1.0]

>  <TempFactor>  (358) 
[21.5, 44.89, 24.36, 42.16, 38.25, 23.95, 40.64, 20.41, 29.29, 22.5, 27.31, 23.15, 28.56, 41.84, 29.6, 38.53, 33.37, 31.58, 30.86, 27.88, 28.97, 31.52, 43.05, 27.66, 27.42, 21.95, 25.67, 24.02, 25.01, 43.36, 43.87, 19.31, 17.05, 26.62, 26.73, 28.95, 20.4, 17.34, 20.74, 21.57, 21.69, 20.06, 20.47, 18.67, 21.64, 27.5, 29.51, 35.17, 31.37, 18.86]

>  <accession>  (358) 
3ZZC_A

>  <description>  (358) 
Chain A, 3C PROTEINASE [Coxsackievirus B3]

>  <evalue>  (358) 
7.4865399999999999e-87

>  <pdb_code>  (358) 
3ZZC

>  <chain>  (358) 
A

>  <ligands>  (358) 
[{'chain_id': 'A', 'author_residue_number': 1181, 'author_insertion_code': '', 'chem_comp_id': 'G83', 'alternate_conformers': 0, 'entity_id': 2, 'struct_asym_id': 'B', 'residue_number': 1, 'chem_comp_name': 'ETHYL (5S,8S,11R)-8-BENZYL-5-(2-TERT-BUTOXY-2-OXOETHYL)-3,6,9-TRIOXO-11-{[(3S)-2-OXOPYRROLIDIN-3-YL]METHYL}-1-PHENYL-2-OXA-4,7,10-TRIAZATETRADECAN-14-OATE', 'weight': 680.788, 'carbohydrate_polymer': False, 'branch_name': ''}]

>  <ligand_codes>  (358) 
['G83']

>  <cofactor_codes>  (358) 
[]

>  <has_cofactor>  (358) 
False

>  <covalent>  (358) 
True

>  <base_name>  (358) 
3ZZC

>  <lig_resn>  (358) 
G83

>  <lig_resi>  (358) 
1181

>  <lig_chain>  (358) 
A

>  <lig_segi>  (358) 
B

>  <lig_alt>  (358) 


>  <polymer_chain>  (358) 
A

>  <single_smiles>  (358) 
CCOC(=O)CC[C@H](C[C@@H]1CCNC1=O)NC(=O)[C@H](Cc2ccccc2)NC(=O)[C@H](CC(=O)OC(C)(C)C)NC(=O)OCc3ccccc3

$$$$
G83P1S200
     RDKit          3D

 27 26  0  0  0  0  0  0  0  0999 V2000
   -9.8940   12.8970  -36.5940 C   0  0  0  0  0  0  0  0  0  0  0  0
   -9.6510   12.9770  -35.0820 C   0  0  1  0  0  0  0  0  0  0  0  0
   -8.4620   12.0930  -34.7840 C   0  0  0  0  0  0  0  0  0  0  0  0
   -9.2610   14.3500  -34.7310 N   0  0  0  0  0  0  0  0  0  0  0  0
   -8.7450   10.9170  -34.2200 N   0  0  0  0  0  0  0  0  0  0  0  0
   -7.3180   12.4750  -35.0590 O   0  0  0  0  0  0  0  0  0  0  0  0
   -9.0700   14.7310  -33.4520 C   0  0  0  0  0  0  0  0  0  0  0  0
   -7.7310    9.9410  -33.8290 C   0  0  1  0  0  0  0  0  0  0  0  0
   -8.5890   16.1350  -33.2460 C   0  0  1  0  0  0  0  0  0  0  0  0
   -9.1660   13.9920  -32.4630 O   0  0  0  0  0  0  0  0  0  0  0  0
   -7.6750    9.9230  -32.2970 C   0  0  0  0  0  0  0  0  0  0  0  0
   -8.1830    8.5770  -34.4040 C   0  0  2  0  0  0  0  0  0  0  0  0
   -8.9270   16.6710  -31.9560 N   0  0  0  0  0  0  0  0  0  0  0  0
   -7.0940   15.9700  -33.0860 C   0  0  0  0  0  0  0  0  0  0  0  0
   -8.1980    8.6230  -35.9360 C   0  0  0  0  0  0  0  0  0  0  0  0
   -9.8310    8.1200  -33.8380 R   0  0  0  0  0  0  0  0  0  0  0  0
   -9.6140   17.8180  -31.9050 C   0  0  0  0  0  0  0  0  0  0  0  0
   -6.3360   17.1850  -33.4620 C   0  0  0  0  0  0  0  0  0  0  0  0
   -6.8090    8.9220  -36.4600 C   0  0  0  0  0  0  0  0  0  0  0  0
   -9.9650   18.3270  -30.5810 O   0  0  0  0  0  0  0  0  0  0  0  0
   -9.9760   18.4340  -32.9180 O   0  0  0  0  0  0  0  0  0  0  0  0
   -5.3760   17.6500  -32.4930 O   0  0  0  0  0  0  0  0  0  0  0  0
   -6.4670   17.7660  -34.5460 O   0  0  0  0  0  0  0  0  0  0  0  0
   -6.6580    9.7290  -37.6550 O   0  0  0  0  0  0  0  0  0  0  0  0
   -5.8080    8.4980  -35.8980 O   0  0  0  0  0  0  0  0  0  0  0  0
   -5.3610   10.2030  -38.0740 C   0  0  0  0  0  0  0  0  0  0  0  0
   -4.5750    9.1110  -38.7950 C   0  0  0  0  0  0  0  0  0  0  0  0
  2  1  1  6
  2  3  1  0
  4  2  1  0
  3  5  1  0
  3  6  2  0
  7  4  1  0
  5  8  1  0
  9  7  1  0
  7 10  2  0
  8 11  1  1
  8 12  1  0
 13  9  1  0
  9 14  1  1
 12 15  1  0
 12 16  1  1
 17 13  1  0
 18 14  1  0
 15 19  1  0
 20 17  1  0
 17 21  2  0
 22 18  1  0
 23 18  2  0
 19 24  1  0
 19 25  2  0
 26 24  1  0
 26 27  1  0
V   16 *
A    2
 C37
A    3
 C39
A    4
 N33
A    5
 N49
A    6
 O47
A    7
 C31
A    8
 C57
A    9
 C23
A   10
 O35
A   12
 C63
A   13
 N21
A   14
 C25
A   15
 C82
A   16
 X  
A   17
 C17
A   18
 C14
A   19
 C84
A   21
 O19
A   23
 O1 
A   24
 O86
A   25
 O88
A   26
 C3 
A   27
 C5 
M  END
>  <XChem_code>  (359) 
G83§1

>  <Occupancy>  (359) 
[1.0, 1.0, 1.0, 1.0, 1.0, 1.0, 1.0, 1.0, 1.0, 1.0, 1.0, 1.0, 1.0, 1.0, 1.0, 1.0, 1.0, 1.0, 1.0, 1.0, 1.0, 1.0, 1.0, 1.0, 1.0, 1.0, 1.0, 1.0, 1.0, 1.0, 1.0, 1.0, 1.0, 1.0, 1.0, 1.0, 1.0, 1.0, 1.0, 1.0, 1.0, 1.0, 1.0, 1.0, 1.0, 1.0, 1.0, 1.0, 1.0, 1.0]

>  <TempFactor>  (359) 
[21.5, 44.89, 24.36, 42.16, 38.25, 23.95, 40.64, 20.41, 29.29, 22.5, 27.31, 23.15, 28.56, 41.84, 29.6, 38.53, 33.37, 31.58, 30.86, 27.88, 28.97, 31.52, 43.05, 27.66, 27.42, 21.95, 25.67, 24.02, 25.01, 43.36, 43.87, 19.31, 17.05, 26.62, 26.73, 28.95, 20.4, 17.34, 20.74, 21.57, 21.69, 20.06, 20.47, 18.67, 21.64, 27.5, 29.51, 35.17, 31.37, 18.86]

>  <accession>  (359) 
3ZZC_A

>  <description>  (359) 
Chain A, 3C PROTEINASE [Coxsackievirus B3]

>  <evalue>  (359) 
7.4865399999999999e-87

>  <pdb_code>  (359) 
3ZZC

>  <chain>  (359) 
A

>  <ligands>  (359) 
[{'chain_id': 'A', 'author_residue_number': 1181, 'author_insertion_code': '', 'chem_comp_id': 'G83', 'alternate_conformers': 0, 'entity_id': 2, 'struct_asym_id': 'B', 'residue_number': 1, 'chem_comp_name': 'ETHYL (5S,8S,11R)-8-BENZYL-5-(2-TERT-BUTOXY-2-OXOETHYL)-3,6,9-TRIOXO-11-{[(3S)-2-OXOPYRROLIDIN-3-YL]METHYL}-1-PHENYL-2-OXA-4,7,10-TRIAZATETRADECAN-14-OATE', 'weight': 680.788, 'carbohydrate_polymer': False, 'branch_name': ''}]

>  <ligand_codes>  (359) 
['G83']

>  <cofactor_codes>  (359) 
[]

>  <has_cofactor>  (359) 
False

>  <covalent>  (359) 
True

>  <base_name>  (359) 
3ZZC

>  <lig_resn>  (359) 
G83

>  <lig_resi>  (359) 
1181

>  <lig_chain>  (359) 
A

>  <lig_segi>  (359) 
B

>  <lig_alt>  (359) 


>  <polymer_chain>  (359) 
A

>  <single_smiles>  (359) 
CCOC(=O)CC[C@H](C[C@@H]1CCNC1=O)NC(=O)[C@H](Cc2ccccc2)NC(=O)[C@H](CC(=O)OC(C)(C)C)NC(=O)OCc3ccccc3

$$$$
G83P1S201
     RDKit          3D

 27 26  0  0  0  0  0  0  0  0999 V2000
   -9.8940   12.8970  -36.5940 C   0  0  0  0  0  0  0  0  0  0  0  0
   -9.6510   12.9770  -35.0820 C   0  0  1  0  0  0  0  0  0  0  0  0
   -8.4620   12.0930  -34.7840 C   0  0  0  0  0  0  0  0  0  0  0  0
   -9.2610   14.3500  -34.7310 N   0  0  0  0  0  0  0  0  0  0  0  0
   -8.7450   10.9170  -34.2200 N   0  0  0  0  0  0  0  0  0  0  0  0
   -7.3180   12.4750  -35.0590 O   0  0  0  0  0  0  0  0  0  0  0  0
   -9.0700   14.7310  -33.4520 C   0  0  0  0  0  0  0  0  0  0  0  0
   -7.7310    9.9410  -33.8290 C   0  0  1  0  0  0  0  0  0  0  0  0
   -8.5890   16.1350  -33.2460 C   0  0  0  0  0  0  0  0  0  0  0  0
   -9.1660   13.9920  -32.4630 O   0  0  0  0  0  0  0  0  0  0  0  0
   -7.6750    9.9230  -32.2970 C   0  0  0  0  0  0  0  0  0  0  0  0
   -8.1830    8.5770  -34.4040 C   0  0  2  0  0  0  0  0  0  0  0  0
   -7.0940   15.9700  -33.0860 C   0  0  0  0  0  0  0  0  0  0  0  0
   -8.1980    8.6230  -35.9360 C   0  0  0  0  0  0  0  0  0  0  0  0
   -9.8310    8.1200  -33.8380 R   0  0  0  0  0  0  0  0  0  0  0  0
   -6.3360   17.1850  -33.4620 C   0  0  0  0  0  0  0  0  0  0  0  0
   -6.8090    8.9220  -36.4600 C   0  0  0  0  0  0  0  0  0  0  0  0
   -6.4670   17.7660  -34.5460 O   0  0  0  0  0  0  0  0  0  0  0  0
   -5.3760   17.6500  -32.4930 O   0  0  0  0  0  0  0  0  0  0  0  0
   -6.6580    9.7290  -37.6550 O   0  0  0  0  0  0  0  0  0  0  0  0
   -5.8080    8.4980  -35.8980 O   0  0  0  0  0  0  0  0  0  0  0  0
   -4.0330   17.1570  -32.4230 C   0  0  0  0  0  0  0  0  0  0  0  0
   -5.3610   10.2030  -38.0740 C   0  0  0  0  0  0  0  0  0  0  0  0
   -3.6770   16.1600  -33.5370 C   0  0  0  0  0  0  0  0  0  0  0  0
   -3.9520   16.4650  -31.0680 C   0  0  0  0  0  0  0  0  0  0  0  0
   -3.0820   18.3540  -32.5240 C   0  0  0  0  0  0  0  0  0  0  0  0
   -4.5750    9.1110  -38.7950 C   0  0  0  0  0  0  0  0  0  0  0  0
  2  1  1  6
  2  3  1  0
  4  2  1  0
  3  5  1  0
  3  6  2  0
  7  4  1  0
  5  8  1  0
  9  7  1  0
  7 10  2  0
  8 11  1  1
  8 12  1  0
  9 13  1  6
 12 14  1  0
 12 15  1  1
 16 13  1  0
 14 17  1  0
 18 16  2  0
 19 16  1  0
 17 20  1  0
 17 21  2  0
 19 22  1  0
 23 20  1  0
 22 24  1  0
 22 25  1  0
 22 26  1  0
 23 27  1  0
V   15 *
A    2
 C37
A    3
 C39
A    4
 N33
A    5
 N49
A    6
 O47
A    7
 C31
A    8
 C57
A   10
 O35
A   12
 C63
A   13
 C25
A   14
 C82
A   15
 X  
A   16
 C14
A   17
 C84
A   18
 O1 
A   19
 O2 
A   20
 O86
A   21
 O88
A   22
 C29
A   23
 C3 
A   24
 C12
A   25
 C43
A   26
 C45
A   27
 C5 
M  END
>  <XChem_code>  (360) 
G83§1

>  <Occupancy>  (360) 
[1.0, 1.0, 1.0, 1.0, 1.0, 1.0, 1.0, 1.0, 1.0, 1.0, 1.0, 1.0, 1.0, 1.0, 1.0, 1.0, 1.0, 1.0, 1.0, 1.0, 1.0, 1.0, 1.0, 1.0, 1.0, 1.0, 1.0, 1.0, 1.0, 1.0, 1.0, 1.0, 1.0, 1.0, 1.0, 1.0, 1.0, 1.0, 1.0, 1.0, 1.0, 1.0, 1.0, 1.0, 1.0, 1.0, 1.0, 1.0, 1.0, 1.0]

>  <TempFactor>  (360) 
[21.5, 44.89, 24.36, 42.16, 38.25, 23.95, 40.64, 20.41, 29.29, 22.5, 27.31, 23.15, 28.56, 41.84, 29.6, 38.53, 33.37, 31.58, 30.86, 27.88, 28.97, 31.52, 43.05, 27.66, 27.42, 21.95, 25.67, 24.02, 25.01, 43.36, 43.87, 19.31, 17.05, 26.62, 26.73, 28.95, 20.4, 17.34, 20.74, 21.57, 21.69, 20.06, 20.47, 18.67, 21.64, 27.5, 29.51, 35.17, 31.37, 18.86]

>  <accession>  (360) 
3ZZC_A

>  <description>  (360) 
Chain A, 3C PROTEINASE [Coxsackievirus B3]

>  <evalue>  (360) 
7.4865399999999999e-87

>  <pdb_code>  (360) 
3ZZC

>  <chain>  (360) 
A

>  <ligands>  (360) 
[{'chain_id': 'A', 'author_residue_number': 1181, 'author_insertion_code': '', 'chem_comp_id': 'G83', 'alternate_conformers': 0, 'entity_id': 2, 'struct_asym_id': 'B', 'residue_number': 1, 'chem_comp_name': 'ETHYL (5S,8S,11R)-8-BENZYL-5-(2-TERT-BUTOXY-2-OXOETHYL)-3,6,9-TRIOXO-11-{[(3S)-2-OXOPYRROLIDIN-3-YL]METHYL}-1-PHENYL-2-OXA-4,7,10-TRIAZATETRADECAN-14-OATE', 'weight': 680.788, 'carbohydrate_polymer': False, 'branch_name': ''}]

>  <ligand_codes>  (360) 
['G83']

>  <cofactor_codes>  (360) 
[]

>  <has_cofactor>  (360) 
False

>  <covalent>  (360) 
True

>  <base_name>  (360) 
3ZZC

>  <lig_resn>  (360) 
G83

>  <lig_resi>  (360) 
1181

>  <lig_chain>  (360) 
A

>  <lig_segi>  (360) 
B

>  <lig_alt>  (360) 


>  <polymer_chain>  (360) 
A

>  <single_smiles>  (360) 
CCOC(=O)CC[C@H](C[C@@H]1CCNC1=O)NC(=O)[C@H](Cc2ccccc2)NC(=O)[C@H](CC(=O)OC(C)(C)C)NC(=O)OCc3ccccc3

$$$$
G83P1S202
     RDKit          3D

 15 14  0  0  0  0  0  0  0  0999 V2000
   -9.8940   12.8970  -36.5940 C   0  0  0  0  0  0  0  0  0  0  0  0
   -9.6510   12.9770  -35.0820 C   0  0  0  0  0  0  0  0  0  0  0  0
   -8.4620   12.0930  -34.7840 C   0  0  0  0  0  0  0  0  0  0  0  0
   -8.7450   10.9170  -34.2200 N   0  0  0  0  0  0  0  0  0  0  0  0
   -7.3180   12.4750  -35.0590 O   0  0  0  0  0  0  0  0  0  0  0  0
   -7.7310    9.9410  -33.8290 C   0  0  1  0  0  0  0  0  0  0  0  0
   -7.6750    9.9230  -32.2970 C   0  0  0  0  0  0  0  0  0  0  0  0
   -8.1830    8.5770  -34.4040 C   0  0  2  0  0  0  0  0  0  0  0  0
   -8.1980    8.6230  -35.9360 C   0  0  0  0  0  0  0  0  0  0  0  0
   -9.8310    8.1200  -33.8380 R   0  0  0  0  0  0  0  0  0  0  0  0
   -6.8090    8.9220  -36.4600 C   0  0  0  0  0  0  0  0  0  0  0  0
   -6.6580    9.7290  -37.6550 O   0  0  0  0  0  0  0  0  0  0  0  0
   -5.8080    8.4980  -35.8980 O   0  0  0  0  0  0  0  0  0  0  0  0
   -5.3610   10.2030  -38.0740 C   0  0  0  0  0  0  0  0  0  0  0  0
   -4.5750    9.1110  -38.7950 C   0  0  0  0  0  0  0  0  0  0  0  0
  2  1  1  6
  2  3  1  0
  3  4  1  0
  3  5  2  0
  4  6  1  0
  6  7  1  1
  6  8  1  0
  8  9  1  0
  8 10  1  1
  9 11  1  0
 11 12  1  0
 11 13  2  0
 14 12  1  0
 14 15  1  0
V   10 *
A    3
 C39
A    4
 N49
A    5
 O47
A    6
 C57
A    8
 C63
A    9
 C82
A   10
 X  
A   11
 C84
A   12
 O86
A   13
 O88
A   14
 C3 
A   15
 C5 
M  END
>  <XChem_code>  (361) 
G83§1

>  <Occupancy>  (361) 
[1.0, 1.0, 1.0, 1.0, 1.0, 1.0, 1.0, 1.0, 1.0, 1.0, 1.0, 1.0, 1.0, 1.0, 1.0, 1.0, 1.0, 1.0, 1.0, 1.0, 1.0, 1.0, 1.0, 1.0, 1.0, 1.0, 1.0, 1.0, 1.0, 1.0, 1.0, 1.0, 1.0, 1.0, 1.0, 1.0, 1.0, 1.0, 1.0, 1.0, 1.0, 1.0, 1.0, 1.0, 1.0, 1.0, 1.0, 1.0, 1.0, 1.0]

>  <TempFactor>  (361) 
[21.5, 44.89, 24.36, 42.16, 38.25, 23.95, 40.64, 20.41, 29.29, 22.5, 27.31, 23.15, 28.56, 41.84, 29.6, 38.53, 33.37, 31.58, 30.86, 27.88, 28.97, 31.52, 43.05, 27.66, 27.42, 21.95, 25.67, 24.02, 25.01, 43.36, 43.87, 19.31, 17.05, 26.62, 26.73, 28.95, 20.4, 17.34, 20.74, 21.57, 21.69, 20.06, 20.47, 18.67, 21.64, 27.5, 29.51, 35.17, 31.37, 18.86]

>  <accession>  (361) 
3ZZC_A

>  <description>  (361) 
Chain A, 3C PROTEINASE [Coxsackievirus B3]

>  <evalue>  (361) 
7.4865399999999999e-87

>  <pdb_code>  (361) 
3ZZC

>  <chain>  (361) 
A

>  <ligands>  (361) 
[{'chain_id': 'A', 'author_residue_number': 1181, 'author_insertion_code': '', 'chem_comp_id': 'G83', 'alternate_conformers': 0, 'entity_id': 2, 'struct_asym_id': 'B', 'residue_number': 1, 'chem_comp_name': 'ETHYL (5S,8S,11R)-8-BENZYL-5-(2-TERT-BUTOXY-2-OXOETHYL)-3,6,9-TRIOXO-11-{[(3S)-2-OXOPYRROLIDIN-3-YL]METHYL}-1-PHENYL-2-OXA-4,7,10-TRIAZATETRADECAN-14-OATE', 'weight': 680.788, 'carbohydrate_polymer': False, 'branch_name': ''}]

>  <ligand_codes>  (361) 
['G83']

>  <cofactor_codes>  (361) 
[]

>  <has_cofactor>  (361) 
False

>  <covalent>  (361) 
True

>  <base_name>  (361) 
3ZZC

>  <lig_resn>  (361) 
G83

>  <lig_resi>  (361) 
1181

>  <lig_chain>  (361) 
A

>  <lig_segi>  (361) 
B

>  <lig_alt>  (361) 


>  <polymer_chain>  (361) 
A

>  <single_smiles>  (361) 
CCOC(=O)CC[C@H](C[C@@H]1CCNC1=O)NC(=O)[C@H](Cc2ccccc2)NC(=O)[C@H](CC(=O)OC(C)(C)C)NC(=O)OCc3ccccc3

$$$$
G83P1S203
     RDKit          3D

 22 21  0  0  0  0  0  0  0  0999 V2000
  -10.3020   19.6950  -30.3210 C   0  0  0  0  0  0  0  0  0  0  0  0
   -9.9650   18.3270  -30.5810 O   0  0  0  0  0  0  0  0  0  0  0  0
   -9.6140   17.8180  -31.9050 C   0  0  0  0  0  0  0  0  0  0  0  0
   -8.9270   16.6710  -31.9560 N   0  0  0  0  0  0  0  0  0  0  0  0
   -9.9760   18.4340  -32.9180 O   0  0  0  0  0  0  0  0  0  0  0  0
   -8.5890   16.1350  -33.2460 C   0  0  2  0  0  0  0  0  0  0  0  0
   -9.0700   14.7310  -33.4520 C   0  0  0  0  0  0  0  0  0  0  0  0
   -7.0940   15.9700  -33.0860 C   0  0  0  0  0  0  0  0  0  0  0  0
   -9.2610   14.3500  -34.7310 N   0  0  0  0  0  0  0  0  0  0  0  0
   -9.1660   13.9920  -32.4630 O   0  0  0  0  0  0  0  0  0  0  0  0
   -6.3360   17.1850  -33.4620 C   0  0  0  0  0  0  0  0  0  0  0  0
   -9.6510   12.9770  -35.0820 C   0  0  1  0  0  0  0  0  0  0  0  0
   -6.4670   17.7660  -34.5460 O   0  0  0  0  0  0  0  0  0  0  0  0
   -5.3760   17.6500  -32.4930 O   0  0  0  0  0  0  0  0  0  0  0  0
   -9.8940   12.8970  -36.5940 C   0  0  0  0  0  0  0  0  0  0  0  0
   -8.4620   12.0930  -34.7840 C   0  0  0  0  0  0  0  0  0  0  0  0
   -4.0330   17.1570  -32.4230 C   0  0  0  0  0  0  0  0  0  0  0  0
   -8.7450   10.9170  -34.2200 N   0  0  0  0  0  0  0  0  0  0  0  0
   -7.3180   12.4750  -35.0590 O   0  0  0  0  0  0  0  0  0  0  0  0
   -3.6770   16.1600  -33.5370 C   0  0  0  0  0  0  0  0  0  0  0  0
   -3.9520   16.4650  -31.0680 C   0  0  0  0  0  0  0  0  0  0  0  0
   -3.0820   18.3540  -32.5240 C   0  0  0  0  0  0  0  0  0  0  0  0
  1  2  1  0
  2  3  1  0
  3  4  1  0
  3  5  2  0
  4  6  1  0
  6  7  1  0
  6  8  1  1
  7  9  1  0
  7 10  2  0
 11  8  1  0
  9 12  1  0
 13 11  2  0
 14 11  1  0
 12 15  1  6
 12 16  1  0
 14 17  1  0
 16 18  1  0
 16 19  2  0
 17 20  1  0
 17 21  1  0
 17 22  1  0
A    2
 O15
A    3
 C17
A    4
 N21
A    5
 O19
A    6
 C23
A    7
 C31
A    8
 C25
A    9
 N33
A   10
 O35
A   11
 C14
A   12
 C37
A   13
 O1 
A   14
 O2 
A   16
 C39
A   17
 C29
A   19
 O47
A   20
 C12
A   21
 C43
A   22
 C45
M  END
>  <XChem_code>  (362) 
G83§1

>  <Occupancy>  (362) 
[1.0, 1.0, 1.0, 1.0, 1.0, 1.0, 1.0, 1.0, 1.0, 1.0, 1.0, 1.0, 1.0, 1.0, 1.0, 1.0, 1.0, 1.0, 1.0, 1.0, 1.0, 1.0, 1.0, 1.0, 1.0, 1.0, 1.0, 1.0, 1.0, 1.0, 1.0, 1.0, 1.0, 1.0, 1.0, 1.0, 1.0, 1.0, 1.0, 1.0, 1.0, 1.0, 1.0, 1.0, 1.0, 1.0, 1.0, 1.0, 1.0, 1.0]

>  <TempFactor>  (362) 
[21.5, 44.89, 24.36, 42.16, 38.25, 23.95, 40.64, 20.41, 29.29, 22.5, 27.31, 23.15, 28.56, 41.84, 29.6, 38.53, 33.37, 31.58, 30.86, 27.88, 28.97, 31.52, 43.05, 27.66, 27.42, 21.95, 25.67, 24.02, 25.01, 43.36, 43.87, 19.31, 17.05, 26.62, 26.73, 28.95, 20.4, 17.34, 20.74, 21.57, 21.69, 20.06, 20.47, 18.67, 21.64, 27.5, 29.51, 35.17, 31.37, 18.86]

>  <accession>  (362) 
3ZZC_A

>  <description>  (362) 
Chain A, 3C PROTEINASE [Coxsackievirus B3]

>  <evalue>  (362) 
7.4865399999999999e-87

>  <pdb_code>  (362) 
3ZZC

>  <chain>  (362) 
A

>  <ligands>  (362) 
[{'chain_id': 'A', 'author_residue_number': 1181, 'author_insertion_code': '', 'chem_comp_id': 'G83', 'alternate_conformers': 0, 'entity_id': 2, 'struct_asym_id': 'B', 'residue_number': 1, 'chem_comp_name': 'ETHYL (5S,8S,11R)-8-BENZYL-5-(2-TERT-BUTOXY-2-OXOETHYL)-3,6,9-TRIOXO-11-{[(3S)-2-OXOPYRROLIDIN-3-YL]METHYL}-1-PHENYL-2-OXA-4,7,10-TRIAZATETRADECAN-14-OATE', 'weight': 680.788, 'carbohydrate_polymer': False, 'branch_name': ''}]

>  <ligand_codes>  (362) 
['G83']

>  <cofactor_codes>  (362) 
[]

>  <has_cofactor>  (362) 
False

>  <covalent>  (362) 
True

>  <base_name>  (362) 
3ZZC

>  <lig_resn>  (362) 
G83

>  <lig_resi>  (362) 
1181

>  <lig_chain>  (362) 
A

>  <lig_segi>  (362) 
B

>  <lig_alt>  (362) 


>  <polymer_chain>  (362) 
A

>  <single_smiles>  (362) 
CCOC(=O)CC[C@H](C[C@@H]1CCNC1=O)NC(=O)[C@H](Cc2ccccc2)NC(=O)[C@H](CC(=O)OC(C)(C)C)NC(=O)OCc3ccccc3

$$$$
G83P1S204
     RDKit          3D

 22 21  0  0  0  0  0  0  0  0999 V2000
   -9.8940   12.8970  -36.5940 C   0  0  0  0  0  0  0  0  0  0  0  0
   -9.6510   12.9770  -35.0820 C   0  0  1  0  0  0  0  0  0  0  0  0
   -8.4620   12.0930  -34.7840 C   0  0  0  0  0  0  0  0  0  0  0  0
   -9.2610   14.3500  -34.7310 N   0  0  0  0  0  0  0  0  0  0  0  0
   -8.7450   10.9170  -34.2200 N   0  0  0  0  0  0  0  0  0  0  0  0
   -7.3180   12.4750  -35.0590 O   0  0  0  0  0  0  0  0  0  0  0  0
   -9.0700   14.7310  -33.4520 C   0  0  0  0  0  0  0  0  0  0  0  0
   -7.7310    9.9410  -33.8290 C   0  0  1  0  0  0  0  0  0  0  0  0
   -8.5890   16.1350  -33.2460 C   0  0  0  0  0  0  0  0  0  0  0  0
   -9.1660   13.9920  -32.4630 O   0  0  0  0  0  0  0  0  0  0  0  0
   -7.6750    9.9230  -32.2970 C   0  0  0  0  0  0  0  0  0  0  0  0
   -8.1830    8.5770  -34.4040 C   0  0  2  0  0  0  0  0  0  0  0  0
   -7.0940   15.9700  -33.0860 C   0  0  0  0  0  0  0  0  0  0  0  0
   -8.1980    8.6230  -35.9360 C   0  0  0  0  0  0  0  0  0  0  0  0
   -9.8310    8.1200  -33.8380 R   0  0  0  0  0  0  0  0  0  0  0  0
   -6.3360   17.1850  -33.4620 C   0  0  0  0  0  0  0  0  0  0  0  0
   -6.8090    8.9220  -36.4600 C   0  0  0  0  0  0  0  0  0  0  0  0
   -6.4670   17.7660  -34.5460 O   0  0  0  0  0  0  0  0  0  0  0  0
   -6.6580    9.7290  -37.6550 O   0  0  0  0  0  0  0  0  0  0  0  0
   -5.8080    8.4980  -35.8980 O   0  0  0  0  0  0  0  0  0  0  0  0
   -5.3610   10.2030  -38.0740 C   0  0  0  0  0  0  0  0  0  0  0  0
   -4.5750    9.1110  -38.7950 C   0  0  0  0  0  0  0  0  0  0  0  0
  2  1  1  6
  2  3  1  0
  4  2  1  0
  3  5  1  0
  3  6  2  0
  7  4  1  0
  5  8  1  0
  9  7  1  0
  7 10  2  0
  8 11  1  1
  8 12  1  0
  9 13  1  6
 12 14  1  0
 12 15  1  1
 16 13  1  0
 14 17  1  0
 18 16  2  0
 17 19  1  0
 17 20  2  0
 21 19  1  0
 21 22  1  0
V   15 *
A    2
 C37
A    3
 C39
A    4
 N33
A    5
 N49
A    6
 O47
A    7
 C31
A    8
 C57
A   10
 O35
A   12
 C63
A   13
 C25
A   14
 C82
A   15
 X  
A   17
 C84
A   18
 O1 
A   19
 O86
A   20
 O88
A   21
 C3 
A   22
 C5 
M  END
>  <XChem_code>  (363) 
G83§1

>  <Occupancy>  (363) 
[1.0, 1.0, 1.0, 1.0, 1.0, 1.0, 1.0, 1.0, 1.0, 1.0, 1.0, 1.0, 1.0, 1.0, 1.0, 1.0, 1.0, 1.0, 1.0, 1.0, 1.0, 1.0, 1.0, 1.0, 1.0, 1.0, 1.0, 1.0, 1.0, 1.0, 1.0, 1.0, 1.0, 1.0, 1.0, 1.0, 1.0, 1.0, 1.0, 1.0, 1.0, 1.0, 1.0, 1.0, 1.0, 1.0, 1.0, 1.0, 1.0, 1.0]

>  <TempFactor>  (363) 
[21.5, 44.89, 24.36, 42.16, 38.25, 23.95, 40.64, 20.41, 29.29, 22.5, 27.31, 23.15, 28.56, 41.84, 29.6, 38.53, 33.37, 31.58, 30.86, 27.88, 28.97, 31.52, 43.05, 27.66, 27.42, 21.95, 25.67, 24.02, 25.01, 43.36, 43.87, 19.31, 17.05, 26.62, 26.73, 28.95, 20.4, 17.34, 20.74, 21.57, 21.69, 20.06, 20.47, 18.67, 21.64, 27.5, 29.51, 35.17, 31.37, 18.86]

>  <accession>  (363) 
3ZZC_A

>  <description>  (363) 
Chain A, 3C PROTEINASE [Coxsackievirus B3]

>  <evalue>  (363) 
7.4865399999999999e-87

>  <pdb_code>  (363) 
3ZZC

>  <chain>  (363) 
A

>  <ligands>  (363) 
[{'chain_id': 'A', 'author_residue_number': 1181, 'author_insertion_code': '', 'chem_comp_id': 'G83', 'alternate_conformers': 0, 'entity_id': 2, 'struct_asym_id': 'B', 'residue_number': 1, 'chem_comp_name': 'ETHYL (5S,8S,11R)-8-BENZYL-5-(2-TERT-BUTOXY-2-OXOETHYL)-3,6,9-TRIOXO-11-{[(3S)-2-OXOPYRROLIDIN-3-YL]METHYL}-1-PHENYL-2-OXA-4,7,10-TRIAZATETRADECAN-14-OATE', 'weight': 680.788, 'carbohydrate_polymer': False, 'branch_name': ''}]

>  <ligand_codes>  (363) 
['G83']

>  <cofactor_codes>  (363) 
[]

>  <has_cofactor>  (363) 
False

>  <covalent>  (363) 
True

>  <base_name>  (363) 
3ZZC

>  <lig_resn>  (363) 
G83

>  <lig_resi>  (363) 
1181

>  <lig_chain>  (363) 
A

>  <lig_segi>  (363) 
B

>  <lig_alt>  (363) 


>  <polymer_chain>  (363) 
A

>  <single_smiles>  (363) 
CCOC(=O)CC[C@H](C[C@@H]1CCNC1=O)NC(=O)[C@H](Cc2ccccc2)NC(=O)[C@H](CC(=O)OC(C)(C)C)NC(=O)OCc3ccccc3

$$$$
G83P1S205
     RDKit          3D

 17 16  0  0  0  0  0  0  0  0999 V2000
  -10.3020   19.6950  -30.3210 C   0  0  0  0  0  0  0  0  0  0  0  0
   -9.9650   18.3270  -30.5810 O   0  0  0  0  0  0  0  0  0  0  0  0
   -9.6140   17.8180  -31.9050 C   0  0  0  0  0  0  0  0  0  0  0  0
   -8.9270   16.6710  -31.9560 N   0  0  0  0  0  0  0  0  0  0  0  0
   -9.9760   18.4340  -32.9180 O   0  0  0  0  0  0  0  0  0  0  0  0
   -8.5890   16.1350  -33.2460 C   0  0  2  0  0  0  0  0  0  0  0  0
   -9.0700   14.7310  -33.4520 C   0  0  0  0  0  0  0  0  0  0  0  0
   -7.0940   15.9700  -33.0860 C   0  0  0  0  0  0  0  0  0  0  0  0
   -9.2610   14.3500  -34.7310 N   0  0  0  0  0  0  0  0  0  0  0  0
   -9.1660   13.9920  -32.4630 O   0  0  0  0  0  0  0  0  0  0  0  0
   -6.3360   17.1850  -33.4620 C   0  0  0  0  0  0  0  0  0  0  0  0
   -9.6510   12.9770  -35.0820 C   0  0  1  0  0  0  0  0  0  0  0  0
   -6.4670   17.7660  -34.5460 O   0  0  0  0  0  0  0  0  0  0  0  0
   -9.8940   12.8970  -36.5940 C   0  0  0  0  0  0  0  0  0  0  0  0
   -8.4620   12.0930  -34.7840 C   0  0  0  0  0  0  0  0  0  0  0  0
   -8.7450   10.9170  -34.2200 N   0  0  0  0  0  0  0  0  0  0  0  0
   -7.3180   12.4750  -35.0590 O   0  0  0  0  0  0  0  0  0  0  0  0
  1  2  1  0
  2  3  1  0
  3  4  1  0
  3  5  2  0
  4  6  1  0
  6  7  1  0
  6  8  1  1
  7  9  1  0
  7 10  2  0
 11  8  1  0
  9 12  1  0
 13 11  2  0
 12 14  1  6
 12 15  1  0
 15 16  1  0
 15 17  2  0
A    2
 O15
A    3
 C17
A    4
 N21
A    5
 O19
A    6
 C23
A    7
 C31
A    8
 C25
A    9
 N33
A   10
 O35
A   12
 C37
A   13
 O1 
A   15
 C39
A   17
 O47
M  END
>  <XChem_code>  (364) 
G83§1

>  <Occupancy>  (364) 
[1.0, 1.0, 1.0, 1.0, 1.0, 1.0, 1.0, 1.0, 1.0, 1.0, 1.0, 1.0, 1.0, 1.0, 1.0, 1.0, 1.0, 1.0, 1.0, 1.0, 1.0, 1.0, 1.0, 1.0, 1.0, 1.0, 1.0, 1.0, 1.0, 1.0, 1.0, 1.0, 1.0, 1.0, 1.0, 1.0, 1.0, 1.0, 1.0, 1.0, 1.0, 1.0, 1.0, 1.0, 1.0, 1.0, 1.0, 1.0, 1.0, 1.0]

>  <TempFactor>  (364) 
[21.5, 44.89, 24.36, 42.16, 38.25, 23.95, 40.64, 20.41, 29.29, 22.5, 27.31, 23.15, 28.56, 41.84, 29.6, 38.53, 33.37, 31.58, 30.86, 27.88, 28.97, 31.52, 43.05, 27.66, 27.42, 21.95, 25.67, 24.02, 25.01, 43.36, 43.87, 19.31, 17.05, 26.62, 26.73, 28.95, 20.4, 17.34, 20.74, 21.57, 21.69, 20.06, 20.47, 18.67, 21.64, 27.5, 29.51, 35.17, 31.37, 18.86]

>  <accession>  (364) 
3ZZC_A

>  <description>  (364) 
Chain A, 3C PROTEINASE [Coxsackievirus B3]

>  <evalue>  (364) 
7.4865399999999999e-87

>  <pdb_code>  (364) 
3ZZC

>  <chain>  (364) 
A

>  <ligands>  (364) 
[{'chain_id': 'A', 'author_residue_number': 1181, 'author_insertion_code': '', 'chem_comp_id': 'G83', 'alternate_conformers': 0, 'entity_id': 2, 'struct_asym_id': 'B', 'residue_number': 1, 'chem_comp_name': 'ETHYL (5S,8S,11R)-8-BENZYL-5-(2-TERT-BUTOXY-2-OXOETHYL)-3,6,9-TRIOXO-11-{[(3S)-2-OXOPYRROLIDIN-3-YL]METHYL}-1-PHENYL-2-OXA-4,7,10-TRIAZATETRADECAN-14-OATE', 'weight': 680.788, 'carbohydrate_polymer': False, 'branch_name': ''}]

>  <ligand_codes>  (364) 
['G83']

>  <cofactor_codes>  (364) 
[]

>  <has_cofactor>  (364) 
False

>  <covalent>  (364) 
True

>  <base_name>  (364) 
3ZZC

>  <lig_resn>  (364) 
G83

>  <lig_resi>  (364) 
1181

>  <lig_chain>  (364) 
A

>  <lig_segi>  (364) 
B

>  <lig_alt>  (364) 


>  <polymer_chain>  (364) 
A

>  <single_smiles>  (364) 
CCOC(=O)CC[C@H](C[C@@H]1CCNC1=O)NC(=O)[C@H](Cc2ccccc2)NC(=O)[C@H](CC(=O)OC(C)(C)C)NC(=O)OCc3ccccc3

$$$$
G83P1S206
     RDKit          3D

 23 22  0  0  0  0  0  0  0  0999 V2000
   -9.8940   12.8970  -36.5940 C   0  0  0  0  0  0  0  0  0  0  0  0
   -9.6510   12.9770  -35.0820 C   0  0  1  0  0  0  0  0  0  0  0  0
   -8.4620   12.0930  -34.7840 C   0  0  0  0  0  0  0  0  0  0  0  0
   -9.2610   14.3500  -34.7310 N   0  0  0  0  0  0  0  0  0  0  0  0
   -8.7450   10.9170  -34.2200 N   0  0  0  0  0  0  0  0  0  0  0  0
   -7.3180   12.4750  -35.0590 O   0  0  0  0  0  0  0  0  0  0  0  0
   -9.0700   14.7310  -33.4520 C   0  0  0  0  0  0  0  0  0  0  0  0
   -7.7310    9.9410  -33.8290 C   0  0  1  0  0  0  0  0  0  0  0  0
   -8.5890   16.1350  -33.2460 C   0  0  0  0  0  0  0  0  0  0  0  0
   -9.1660   13.9920  -32.4630 O   0  0  0  0  0  0  0  0  0  0  0  0
   -7.6750    9.9230  -32.2970 C   0  0  0  0  0  0  0  0  0  0  0  0
   -8.1830    8.5770  -34.4040 C   0  0  2  0  0  0  0  0  0  0  0  0
   -7.0940   15.9700  -33.0860 C   0  0  0  0  0  0  0  0  0  0  0  0
   -8.1980    8.6230  -35.9360 C   0  0  0  0  0  0  0  0  0  0  0  0
   -9.8310    8.1200  -33.8380 R   0  0  0  0  0  0  0  0  0  0  0  0
   -6.3360   17.1850  -33.4620 C   0  0  0  0  0  0  0  0  0  0  0  0
   -6.8090    8.9220  -36.4600 C   0  0  0  0  0  0  0  0  0  0  0  0
   -5.3760   17.6500  -32.4930 O   0  0  0  0  0  0  0  0  0  0  0  0
   -6.4670   17.7660  -34.5460 O   0  0  0  0  0  0  0  0  0  0  0  0
   -6.6580    9.7290  -37.6550 O   0  0  0  0  0  0  0  0  0  0  0  0
   -5.8080    8.4980  -35.8980 O   0  0  0  0  0  0  0  0  0  0  0  0
   -5.3610   10.2030  -38.0740 C   0  0  0  0  0  0  0  0  0  0  0  0
   -4.5750    9.1110  -38.7950 C   0  0  0  0  0  0  0  0  0  0  0  0
  2  1  1  6
  2  3  1  0
  4  2  1  0
  3  5  1  0
  3  6  2  0
  7  4  1  0
  5  8  1  0
  9  7  1  0
  7 10  2  0
  8 11  1  1
  8 12  1  0
  9 13  1  6
 12 14  1  0
 12 15  1  1
 16 13  1  0
 14 17  1  0
 18 16  1  0
 19 16  2  0
 17 20  1  0
 17 21  2  0
 22 20  1  0
 22 23  1  0
V   15 *
A    2
 C37
A    3
 C39
A    4
 N33
A    5
 N49
A    6
 O47
A    7
 C31
A    8
 C57
A   10
 O35
A   12
 C63
A   13
 C25
A   14
 C82
A   15
 X  
A   16
 C14
A   17
 C84
A   19
 O1 
A   20
 O86
A   21
 O88
A   22
 C3 
A   23
 C5 
M  END
>  <XChem_code>  (365) 
G83§1

>  <Occupancy>  (365) 
[1.0, 1.0, 1.0, 1.0, 1.0, 1.0, 1.0, 1.0, 1.0, 1.0, 1.0, 1.0, 1.0, 1.0, 1.0, 1.0, 1.0, 1.0, 1.0, 1.0, 1.0, 1.0, 1.0, 1.0, 1.0, 1.0, 1.0, 1.0, 1.0, 1.0, 1.0, 1.0, 1.0, 1.0, 1.0, 1.0, 1.0, 1.0, 1.0, 1.0, 1.0, 1.0, 1.0, 1.0, 1.0, 1.0, 1.0, 1.0, 1.0, 1.0]

>  <TempFactor>  (365) 
[21.5, 44.89, 24.36, 42.16, 38.25, 23.95, 40.64, 20.41, 29.29, 22.5, 27.31, 23.15, 28.56, 41.84, 29.6, 38.53, 33.37, 31.58, 30.86, 27.88, 28.97, 31.52, 43.05, 27.66, 27.42, 21.95, 25.67, 24.02, 25.01, 43.36, 43.87, 19.31, 17.05, 26.62, 26.73, 28.95, 20.4, 17.34, 20.74, 21.57, 21.69, 20.06, 20.47, 18.67, 21.64, 27.5, 29.51, 35.17, 31.37, 18.86]

>  <accession>  (365) 
3ZZC_A

>  <description>  (365) 
Chain A, 3C PROTEINASE [Coxsackievirus B3]

>  <evalue>  (365) 
7.4865399999999999e-87

>  <pdb_code>  (365) 
3ZZC

>  <chain>  (365) 
A

>  <ligands>  (365) 
[{'chain_id': 'A', 'author_residue_number': 1181, 'author_insertion_code': '', 'chem_comp_id': 'G83', 'alternate_conformers': 0, 'entity_id': 2, 'struct_asym_id': 'B', 'residue_number': 1, 'chem_comp_name': 'ETHYL (5S,8S,11R)-8-BENZYL-5-(2-TERT-BUTOXY-2-OXOETHYL)-3,6,9-TRIOXO-11-{[(3S)-2-OXOPYRROLIDIN-3-YL]METHYL}-1-PHENYL-2-OXA-4,7,10-TRIAZATETRADECAN-14-OATE', 'weight': 680.788, 'carbohydrate_polymer': False, 'branch_name': ''}]

>  <ligand_codes>  (365) 
['G83']

>  <cofactor_codes>  (365) 
[]

>  <has_cofactor>  (365) 
False

>  <covalent>  (365) 
True

>  <base_name>  (365) 
3ZZC

>  <lig_resn>  (365) 
G83

>  <lig_resi>  (365) 
1181

>  <lig_chain>  (365) 
A

>  <lig_segi>  (365) 
B

>  <lig_alt>  (365) 


>  <polymer_chain>  (365) 
A

>  <single_smiles>  (365) 
CCOC(=O)CC[C@H](C[C@@H]1CCNC1=O)NC(=O)[C@H](Cc2ccccc2)NC(=O)[C@H](CC(=O)OC(C)(C)C)NC(=O)OCc3ccccc3

$$$$
G83P1S207
     RDKit          3D

 18 17  0  0  0  0  0  0  0  0999 V2000
  -10.3020   19.6950  -30.3210 C   0  0  0  0  0  0  0  0  0  0  0  0
   -9.9650   18.3270  -30.5810 O   0  0  0  0  0  0  0  0  0  0  0  0
   -9.6140   17.8180  -31.9050 C   0  0  0  0  0  0  0  0  0  0  0  0
   -8.9270   16.6710  -31.9560 N   0  0  0  0  0  0  0  0  0  0  0  0
   -9.9760   18.4340  -32.9180 O   0  0  0  0  0  0  0  0  0  0  0  0
   -8.5890   16.1350  -33.2460 C   0  0  2  0  0  0  0  0  0  0  0  0
   -9.0700   14.7310  -33.4520 C   0  0  0  0  0  0  0  0  0  0  0  0
   -7.0940   15.9700  -33.0860 C   0  0  0  0  0  0  0  0  0  0  0  0
   -9.2610   14.3500  -34.7310 N   0  0  0  0  0  0  0  0  0  0  0  0
   -9.1660   13.9920  -32.4630 O   0  0  0  0  0  0  0  0  0  0  0  0
   -6.3360   17.1850  -33.4620 C   0  0  0  0  0  0  0  0  0  0  0  0
   -9.6510   12.9770  -35.0820 C   0  0  1  0  0  0  0  0  0  0  0  0
   -5.3760   17.6500  -32.4930 O   0  0  0  0  0  0  0  0  0  0  0  0
   -6.4670   17.7660  -34.5460 O   0  0  0  0  0  0  0  0  0  0  0  0
   -9.8940   12.8970  -36.5940 C   0  0  0  0  0  0  0  0  0  0  0  0
   -8.4620   12.0930  -34.7840 C   0  0  0  0  0  0  0  0  0  0  0  0
   -8.7450   10.9170  -34.2200 N   0  0  0  0  0  0  0  0  0  0  0  0
   -7.3180   12.4750  -35.0590 O   0  0  0  0  0  0  0  0  0  0  0  0
  1  2  1  0
  2  3  1  0
  3  4  1  0
  3  5  2  0
  4  6  1  0
  6  7  1  0
  6  8  1  1
  7  9  1  0
  7 10  2  0
 11  8  1  0
  9 12  1  0
 13 11  1  0
 14 11  2  0
 12 15  1  6
 12 16  1  0
 16 17  1  0
 16 18  2  0
A    2
 O15
A    3
 C17
A    4
 N21
A    5
 O19
A    6
 C23
A    7
 C31
A    8
 C25
A    9
 N33
A   10
 O35
A   11
 C14
A   12
 C37
A   14
 O1 
A   16
 C39
A   18
 O47
M  END
>  <XChem_code>  (366) 
G83§1

>  <Occupancy>  (366) 
[1.0, 1.0, 1.0, 1.0, 1.0, 1.0, 1.0, 1.0, 1.0, 1.0, 1.0, 1.0, 1.0, 1.0, 1.0, 1.0, 1.0, 1.0, 1.0, 1.0, 1.0, 1.0, 1.0, 1.0, 1.0, 1.0, 1.0, 1.0, 1.0, 1.0, 1.0, 1.0, 1.0, 1.0, 1.0, 1.0, 1.0, 1.0, 1.0, 1.0, 1.0, 1.0, 1.0, 1.0, 1.0, 1.0, 1.0, 1.0, 1.0, 1.0]

>  <TempFactor>  (366) 
[21.5, 44.89, 24.36, 42.16, 38.25, 23.95, 40.64, 20.41, 29.29, 22.5, 27.31, 23.15, 28.56, 41.84, 29.6, 38.53, 33.37, 31.58, 30.86, 27.88, 28.97, 31.52, 43.05, 27.66, 27.42, 21.95, 25.67, 24.02, 25.01, 43.36, 43.87, 19.31, 17.05, 26.62, 26.73, 28.95, 20.4, 17.34, 20.74, 21.57, 21.69, 20.06, 20.47, 18.67, 21.64, 27.5, 29.51, 35.17, 31.37, 18.86]

>  <accession>  (366) 
3ZZC_A

>  <description>  (366) 
Chain A, 3C PROTEINASE [Coxsackievirus B3]

>  <evalue>  (366) 
7.4865399999999999e-87

>  <pdb_code>  (366) 
3ZZC

>  <chain>  (366) 
A

>  <ligands>  (366) 
[{'chain_id': 'A', 'author_residue_number': 1181, 'author_insertion_code': '', 'chem_comp_id': 'G83', 'alternate_conformers': 0, 'entity_id': 2, 'struct_asym_id': 'B', 'residue_number': 1, 'chem_comp_name': 'ETHYL (5S,8S,11R)-8-BENZYL-5-(2-TERT-BUTOXY-2-OXOETHYL)-3,6,9-TRIOXO-11-{[(3S)-2-OXOPYRROLIDIN-3-YL]METHYL}-1-PHENYL-2-OXA-4,7,10-TRIAZATETRADECAN-14-OATE', 'weight': 680.788, 'carbohydrate_polymer': False, 'branch_name': ''}]

>  <ligand_codes>  (366) 
['G83']

>  <cofactor_codes>  (366) 
[]

>  <has_cofactor>  (366) 
False

>  <covalent>  (366) 
True

>  <base_name>  (366) 
3ZZC

>  <lig_resn>  (366) 
G83

>  <lig_resi>  (366) 
1181

>  <lig_chain>  (366) 
A

>  <lig_segi>  (366) 
B

>  <lig_alt>  (366) 


>  <polymer_chain>  (366) 
A

>  <single_smiles>  (366) 
CCOC(=O)CC[C@H](C[C@@H]1CCNC1=O)NC(=O)[C@H](Cc2ccccc2)NC(=O)[C@H](CC(=O)OC(C)(C)C)NC(=O)OCc3ccccc3

$$$$
G83P1S208
     RDKit          3D

 32 31  0  0  0  0  0  0  0  0999 V2000
  -10.3020   19.6950  -30.3210 C   0  0  0  0  0  0  0  0  0  0  0  0
   -9.9650   18.3270  -30.5810 O   0  0  0  0  0  0  0  0  0  0  0  0
   -9.6140   17.8180  -31.9050 C   0  0  0  0  0  0  0  0  0  0  0  0
   -8.9270   16.6710  -31.9560 N   0  0  0  0  0  0  0  0  0  0  0  0
   -9.9760   18.4340  -32.9180 O   0  0  0  0  0  0  0  0  0  0  0  0
   -8.5890   16.1350  -33.2460 C   0  0  2  0  0  0  0  0  0  0  0  0
   -9.0700   14.7310  -33.4520 C   0  0  0  0  0  0  0  0  0  0  0  0
   -7.0940   15.9700  -33.0860 C   0  0  0  0  0  0  0  0  0  0  0  0
   -9.2610   14.3500  -34.7310 N   0  0  0  0  0  0  0  0  0  0  0  0
   -9.1660   13.9920  -32.4630 O   0  0  0  0  0  0  0  0  0  0  0  0
   -6.3360   17.1850  -33.4620 C   0  0  0  0  0  0  0  0  0  0  0  0
   -9.6510   12.9770  -35.0820 C   0  0  1  0  0  0  0  0  0  0  0  0
   -6.4670   17.7660  -34.5460 O   0  0  0  0  0  0  0  0  0  0  0  0
   -5.3760   17.6500  -32.4930 O   0  0  0  0  0  0  0  0  0  0  0  0
   -9.8940   12.8970  -36.5940 C   0  0  0  0  0  0  0  0  0  0  0  0
   -8.4620   12.0930  -34.7840 C   0  0  0  0  0  0  0  0  0  0  0  0
   -4.0330   17.1570  -32.4230 C   0  0  0  0  0  0  0  0  0  0  0  0
   -8.7450   10.9170  -34.2200 N   0  0  0  0  0  0  0  0  0  0  0  0
   -7.3180   12.4750  -35.0590 O   0  0  0  0  0  0  0  0  0  0  0  0
   -3.6770   16.1600  -33.5370 C   0  0  0  0  0  0  0  0  0  0  0  0
   -3.9520   16.4650  -31.0680 C   0  0  0  0  0  0  0  0  0  0  0  0
   -3.0820   18.3540  -32.5240 C   0  0  0  0  0  0  0  0  0  0  0  0
   -7.7310    9.9410  -33.8290 C   0  0  1  0  0  0  0  0  0  0  0  0
   -7.6750    9.9230  -32.2970 C   0  0  0  0  0  0  0  0  0  0  0  0
   -8.1830    8.5770  -34.4040 C   0  0  2  0  0  0  0  0  0  0  0  0
   -8.1980    8.6230  -35.9360 C   0  0  0  0  0  0  0  0  0  0  0  0
   -9.8310    8.1200  -33.8380 R   0  0  0  0  0  0  0  0  0  0  0  0
   -6.8090    8.9220  -36.4600 C   0  0  0  0  0  0  0  0  0  0  0  0
   -6.6580    9.7290  -37.6550 O   0  0  0  0  0  0  0  0  0  0  0  0
   -5.8080    8.4980  -35.8980 O   0  0  0  0  0  0  0  0  0  0  0  0
   -5.3610   10.2030  -38.0740 C   0  0  0  0  0  0  0  0  0  0  0  0
   -4.5750    9.1110  -38.7950 C   0  0  0  0  0  0  0  0  0  0  0  0
  1  2  1  0
  2  3  1  0
  3  4  1  0
  3  5  2  0
  4  6  1  0
  6  7  1  0
  6  8  1  1
  7  9  1  0
  7 10  2  0
 11  8  1  0
  9 12  1  0
 13 11  2  0
 14 11  1  0
 12 15  1  6
 12 16  1  0
 14 17  1  0
 16 18  1  0
 16 19  2  0
 17 20  1  0
 17 21  1  0
 17 22  1  0
 18 23  1  0
 23 24  1  1
 23 25  1  0
 25 26  1  0
 25 27  1  1
 26 28  1  0
 28 29  1  0
 28 30  2  0
 31 29  1  0
 31 32  1  0
V   27 *
A    2
 O15
A    3
 C17
A    4
 N21
A    5
 O19
A    6
 C23
A    7
 C31
A    8
 C25
A    9
 N33
A   10
 O35
A   11
 C14
A   12
 C37
A   13
 O1 
A   14
 O2 
A   16
 C39
A   17
 C29
A   18
 N49
A   19
 O47
A   20
 C12
A   21
 C43
A   22
 C45
A   23
 C57
A   25
 C63
A   26
 C82
A   27
 X  
A   28
 C84
A   29
 O86
A   30
 O88
A   31
 C3 
A   32
 C5 
M  END
>  <XChem_code>  (367) 
G83§1

>  <Occupancy>  (367) 
[1.0, 1.0, 1.0, 1.0, 1.0, 1.0, 1.0, 1.0, 1.0, 1.0, 1.0, 1.0, 1.0, 1.0, 1.0, 1.0, 1.0, 1.0, 1.0, 1.0, 1.0, 1.0, 1.0, 1.0, 1.0, 1.0, 1.0, 1.0, 1.0, 1.0, 1.0, 1.0, 1.0, 1.0, 1.0, 1.0, 1.0, 1.0, 1.0, 1.0, 1.0, 1.0, 1.0, 1.0, 1.0, 1.0, 1.0, 1.0, 1.0, 1.0]

>  <TempFactor>  (367) 
[21.5, 44.89, 24.36, 42.16, 38.25, 23.95, 40.64, 20.41, 29.29, 22.5, 27.31, 23.15, 28.56, 41.84, 29.6, 38.53, 33.37, 31.58, 30.86, 27.88, 28.97, 31.52, 43.05, 27.66, 27.42, 21.95, 25.67, 24.02, 25.01, 43.36, 43.87, 19.31, 17.05, 26.62, 26.73, 28.95, 20.4, 17.34, 20.74, 21.57, 21.69, 20.06, 20.47, 18.67, 21.64, 27.5, 29.51, 35.17, 31.37, 18.86]

>  <accession>  (367) 
3ZZC_A

>  <description>  (367) 
Chain A, 3C PROTEINASE [Coxsackievirus B3]

>  <evalue>  (367) 
7.4865399999999999e-87

>  <pdb_code>  (367) 
3ZZC

>  <chain>  (367) 
A

>  <ligands>  (367) 
[{'chain_id': 'A', 'author_residue_number': 1181, 'author_insertion_code': '', 'chem_comp_id': 'G83', 'alternate_conformers': 0, 'entity_id': 2, 'struct_asym_id': 'B', 'residue_number': 1, 'chem_comp_name': 'ETHYL (5S,8S,11R)-8-BENZYL-5-(2-TERT-BUTOXY-2-OXOETHYL)-3,6,9-TRIOXO-11-{[(3S)-2-OXOPYRROLIDIN-3-YL]METHYL}-1-PHENYL-2-OXA-4,7,10-TRIAZATETRADECAN-14-OATE', 'weight': 680.788, 'carbohydrate_polymer': False, 'branch_name': ''}]

>  <ligand_codes>  (367) 
['G83']

>  <cofactor_codes>  (367) 
[]

>  <has_cofactor>  (367) 
False

>  <covalent>  (367) 
True

>  <base_name>  (367) 
3ZZC

>  <lig_resn>  (367) 
G83

>  <lig_resi>  (367) 
1181

>  <lig_chain>  (367) 
A

>  <lig_segi>  (367) 
B

>  <lig_alt>  (367) 


>  <polymer_chain>  (367) 
A

>  <single_smiles>  (367) 
CCOC(=O)CC[C@H](C[C@@H]1CCNC1=O)NC(=O)[C@H](Cc2ccccc2)NC(=O)[C@H](CC(=O)OC(C)(C)C)NC(=O)OCc3ccccc3

$$$$
G83P1S209
     RDKit          3D

 27 26  0  0  0  0  0  0  0  0999 V2000
  -10.3020   19.6950  -30.3210 C   0  0  0  0  0  0  0  0  0  0  0  0
   -9.9650   18.3270  -30.5810 O   0  0  0  0  0  0  0  0  0  0  0  0
   -9.6140   17.8180  -31.9050 C   0  0  0  0  0  0  0  0  0  0  0  0
   -8.9270   16.6710  -31.9560 N   0  0  0  0  0  0  0  0  0  0  0  0
   -9.9760   18.4340  -32.9180 O   0  0  0  0  0  0  0  0  0  0  0  0
   -8.5890   16.1350  -33.2460 C   0  0  2  0  0  0  0  0  0  0  0  0
   -9.0700   14.7310  -33.4520 C   0  0  0  0  0  0  0  0  0  0  0  0
   -7.0940   15.9700  -33.0860 C   0  0  0  0  0  0  0  0  0  0  0  0
   -9.2610   14.3500  -34.7310 N   0  0  0  0  0  0  0  0  0  0  0  0
   -9.1660   13.9920  -32.4630 O   0  0  0  0  0  0  0  0  0  0  0  0
   -6.3360   17.1850  -33.4620 C   0  0  0  0  0  0  0  0  0  0  0  0
   -9.6510   12.9770  -35.0820 C   0  0  1  0  0  0  0  0  0  0  0  0
   -6.4670   17.7660  -34.5460 O   0  0  0  0  0  0  0  0  0  0  0  0
   -9.8940   12.8970  -36.5940 C   0  0  0  0  0  0  0  0  0  0  0  0
   -8.4620   12.0930  -34.7840 C   0  0  0  0  0  0  0  0  0  0  0  0
   -8.7450   10.9170  -34.2200 N   0  0  0  0  0  0  0  0  0  0  0  0
   -7.3180   12.4750  -35.0590 O   0  0  0  0  0  0  0  0  0  0  0  0
   -7.7310    9.9410  -33.8290 C   0  0  1  0  0  0  0  0  0  0  0  0
   -7.6750    9.9230  -32.2970 C   0  0  0  0  0  0  0  0  0  0  0  0
   -8.1830    8.5770  -34.4040 C   0  0  2  0  0  0  0  0  0  0  0  0
   -8.1980    8.6230  -35.9360 C   0  0  0  0  0  0  0  0  0  0  0  0
   -9.8310    8.1200  -33.8380 R   0  0  0  0  0  0  0  0  0  0  0  0
   -6.8090    8.9220  -36.4600 C   0  0  0  0  0  0  0  0  0  0  0  0
   -6.6580    9.7290  -37.6550 O   0  0  0  0  0  0  0  0  0  0  0  0
   -5.8080    8.4980  -35.8980 O   0  0  0  0  0  0  0  0  0  0  0  0
   -5.3610   10.2030  -38.0740 C   0  0  0  0  0  0  0  0  0  0  0  0
   -4.5750    9.1110  -38.7950 C   0  0  0  0  0  0  0  0  0  0  0  0
  1  2  1  0
  2  3  1  0
  3  4  1  0
  3  5  2  0
  4  6  1  0
  6  7  1  0
  6  8  1  1
  7  9  1  0
  7 10  2  0
 11  8  1  0
  9 12  1  0
 13 11  2  0
 12 14  1  6
 12 15  1  0
 15 16  1  0
 15 17  2  0
 16 18  1  0
 18 19  1  1
 18 20  1  0
 20 21  1  0
 20 22  1  1
 21 23  1  0
 23 24  1  0
 23 25  2  0
 26 24  1  0
 26 27  1  0
V   22 *
A    2
 O15
A    3
 C17
A    4
 N21
A    5
 O19
A    6
 C23
A    7
 C31
A    8
 C25
A    9
 N33
A   10
 O35
A   12
 C37
A   13
 O1 
A   15
 C39
A   16
 N49
A   17
 O47
A   18
 C57
A   20
 C63
A   21
 C82
A   22
 X  
A   23
 C84
A   24
 O86
A   25
 O88
A   26
 C3 
A   27
 C5 
M  END
>  <XChem_code>  (368) 
G83§1

>  <Occupancy>  (368) 
[1.0, 1.0, 1.0, 1.0, 1.0, 1.0, 1.0, 1.0, 1.0, 1.0, 1.0, 1.0, 1.0, 1.0, 1.0, 1.0, 1.0, 1.0, 1.0, 1.0, 1.0, 1.0, 1.0, 1.0, 1.0, 1.0, 1.0, 1.0, 1.0, 1.0, 1.0, 1.0, 1.0, 1.0, 1.0, 1.0, 1.0, 1.0, 1.0, 1.0, 1.0, 1.0, 1.0, 1.0, 1.0, 1.0, 1.0, 1.0, 1.0, 1.0]

>  <TempFactor>  (368) 
[21.5, 44.89, 24.36, 42.16, 38.25, 23.95, 40.64, 20.41, 29.29, 22.5, 27.31, 23.15, 28.56, 41.84, 29.6, 38.53, 33.37, 31.58, 30.86, 27.88, 28.97, 31.52, 43.05, 27.66, 27.42, 21.95, 25.67, 24.02, 25.01, 43.36, 43.87, 19.31, 17.05, 26.62, 26.73, 28.95, 20.4, 17.34, 20.74, 21.57, 21.69, 20.06, 20.47, 18.67, 21.64, 27.5, 29.51, 35.17, 31.37, 18.86]

>  <accession>  (368) 
3ZZC_A

>  <description>  (368) 
Chain A, 3C PROTEINASE [Coxsackievirus B3]

>  <evalue>  (368) 
7.4865399999999999e-87

>  <pdb_code>  (368) 
3ZZC

>  <chain>  (368) 
A

>  <ligands>  (368) 
[{'chain_id': 'A', 'author_residue_number': 1181, 'author_insertion_code': '', 'chem_comp_id': 'G83', 'alternate_conformers': 0, 'entity_id': 2, 'struct_asym_id': 'B', 'residue_number': 1, 'chem_comp_name': 'ETHYL (5S,8S,11R)-8-BENZYL-5-(2-TERT-BUTOXY-2-OXOETHYL)-3,6,9-TRIOXO-11-{[(3S)-2-OXOPYRROLIDIN-3-YL]METHYL}-1-PHENYL-2-OXA-4,7,10-TRIAZATETRADECAN-14-OATE', 'weight': 680.788, 'carbohydrate_polymer': False, 'branch_name': ''}]

>  <ligand_codes>  (368) 
['G83']

>  <cofactor_codes>  (368) 
[]

>  <has_cofactor>  (368) 
False

>  <covalent>  (368) 
True

>  <base_name>  (368) 
3ZZC

>  <lig_resn>  (368) 
G83

>  <lig_resi>  (368) 
1181

>  <lig_chain>  (368) 
A

>  <lig_segi>  (368) 
B

>  <lig_alt>  (368) 


>  <polymer_chain>  (368) 
A

>  <single_smiles>  (368) 
CCOC(=O)CC[C@H](C[C@@H]1CCNC1=O)NC(=O)[C@H](Cc2ccccc2)NC(=O)[C@H](CC(=O)OC(C)(C)C)NC(=O)OCc3ccccc3

$$$$
G83P1S210
     RDKit          3D

 28 27  0  0  0  0  0  0  0  0999 V2000
  -10.3020   19.6950  -30.3210 C   0  0  0  0  0  0  0  0  0  0  0  0
   -9.9650   18.3270  -30.5810 O   0  0  0  0  0  0  0  0  0  0  0  0
   -9.6140   17.8180  -31.9050 C   0  0  0  0  0  0  0  0  0  0  0  0
   -8.9270   16.6710  -31.9560 N   0  0  0  0  0  0  0  0  0  0  0  0
   -9.9760   18.4340  -32.9180 O   0  0  0  0  0  0  0  0  0  0  0  0
   -8.5890   16.1350  -33.2460 C   0  0  2  0  0  0  0  0  0  0  0  0
   -9.0700   14.7310  -33.4520 C   0  0  0  0  0  0  0  0  0  0  0  0
   -7.0940   15.9700  -33.0860 C   0  0  0  0  0  0  0  0  0  0  0  0
   -9.2610   14.3500  -34.7310 N   0  0  0  0  0  0  0  0  0  0  0  0
   -9.1660   13.9920  -32.4630 O   0  0  0  0  0  0  0  0  0  0  0  0
   -6.3360   17.1850  -33.4620 C   0  0  0  0  0  0  0  0  0  0  0  0
   -9.6510   12.9770  -35.0820 C   0  0  1  0  0  0  0  0  0  0  0  0
   -5.3760   17.6500  -32.4930 O   0  0  0  0  0  0  0  0  0  0  0  0
   -6.4670   17.7660  -34.5460 O   0  0  0  0  0  0  0  0  0  0  0  0
   -9.8940   12.8970  -36.5940 C   0  0  0  0  0  0  0  0  0  0  0  0
   -8.4620   12.0930  -34.7840 C   0  0  0  0  0  0  0  0  0  0  0  0
   -8.7450   10.9170  -34.2200 N   0  0  0  0  0  0  0  0  0  0  0  0
   -7.3180   12.4750  -35.0590 O   0  0  0  0  0  0  0  0  0  0  0  0
   -7.7310    9.9410  -33.8290 C   0  0  1  0  0  0  0  0  0  0  0  0
   -7.6750    9.9230  -32.2970 C   0  0  0  0  0  0  0  0  0  0  0  0
   -8.1830    8.5770  -34.4040 C   0  0  2  0  0  0  0  0  0  0  0  0
   -8.1980    8.6230  -35.9360 C   0  0  0  0  0  0  0  0  0  0  0  0
   -9.8310    8.1200  -33.8380 R   0  0  0  0  0  0  0  0  0  0  0  0
   -6.8090    8.9220  -36.4600 C   0  0  0  0  0  0  0  0  0  0  0  0
   -6.6580    9.7290  -37.6550 O   0  0  0  0  0  0  0  0  0  0  0  0
   -5.8080    8.4980  -35.8980 O   0  0  0  0  0  0  0  0  0  0  0  0
   -5.3610   10.2030  -38.0740 C   0  0  0  0  0  0  0  0  0  0  0  0
   -4.5750    9.1110  -38.7950 C   0  0  0  0  0  0  0  0  0  0  0  0
  1  2  1  0
  2  3  1  0
  3  4  1  0
  3  5  2  0
  4  6  1  0
  6  7  1  0
  6  8  1  1
  7  9  1  0
  7 10  2  0
 11  8  1  0
  9 12  1  0
 13 11  1  0
 14 11  2  0
 12 15  1  6
 12 16  1  0
 16 17  1  0
 16 18  2  0
 17 19  1  0
 19 20  1  1
 19 21  1  0
 21 22  1  0
 21 23  1  1
 22 24  1  0
 24 25  1  0
 24 26  2  0
 27 25  1  0
 27 28  1  0
V   23 *
A    2
 O15
A    3
 C17
A    4
 N21
A    5
 O19
A    6
 C23
A    7
 C31
A    8
 C25
A    9
 N33
A   10
 O35
A   11
 C14
A   12
 C37
A   14
 O1 
A   16
 C39
A   17
 N49
A   18
 O47
A   19
 C57
A   21
 C63
A   22
 C82
A   23
 X  
A   24
 C84
A   25
 O86
A   26
 O88
A   27
 C3 
A   28
 C5 
M  END
>  <XChem_code>  (369) 
G83§1

>  <Occupancy>  (369) 
[1.0, 1.0, 1.0, 1.0, 1.0, 1.0, 1.0, 1.0, 1.0, 1.0, 1.0, 1.0, 1.0, 1.0, 1.0, 1.0, 1.0, 1.0, 1.0, 1.0, 1.0, 1.0, 1.0, 1.0, 1.0, 1.0, 1.0, 1.0, 1.0, 1.0, 1.0, 1.0, 1.0, 1.0, 1.0, 1.0, 1.0, 1.0, 1.0, 1.0, 1.0, 1.0, 1.0, 1.0, 1.0, 1.0, 1.0, 1.0, 1.0, 1.0]

>  <TempFactor>  (369) 
[21.5, 44.89, 24.36, 42.16, 38.25, 23.95, 40.64, 20.41, 29.29, 22.5, 27.31, 23.15, 28.56, 41.84, 29.6, 38.53, 33.37, 31.58, 30.86, 27.88, 28.97, 31.52, 43.05, 27.66, 27.42, 21.95, 25.67, 24.02, 25.01, 43.36, 43.87, 19.31, 17.05, 26.62, 26.73, 28.95, 20.4, 17.34, 20.74, 21.57, 21.69, 20.06, 20.47, 18.67, 21.64, 27.5, 29.51, 35.17, 31.37, 18.86]

>  <accession>  (369) 
3ZZC_A

>  <description>  (369) 
Chain A, 3C PROTEINASE [Coxsackievirus B3]

>  <evalue>  (369) 
7.4865399999999999e-87

>  <pdb_code>  (369) 
3ZZC

>  <chain>  (369) 
A

>  <ligands>  (369) 
[{'chain_id': 'A', 'author_residue_number': 1181, 'author_insertion_code': '', 'chem_comp_id': 'G83', 'alternate_conformers': 0, 'entity_id': 2, 'struct_asym_id': 'B', 'residue_number': 1, 'chem_comp_name': 'ETHYL (5S,8S,11R)-8-BENZYL-5-(2-TERT-BUTOXY-2-OXOETHYL)-3,6,9-TRIOXO-11-{[(3S)-2-OXOPYRROLIDIN-3-YL]METHYL}-1-PHENYL-2-OXA-4,7,10-TRIAZATETRADECAN-14-OATE', 'weight': 680.788, 'carbohydrate_polymer': False, 'branch_name': ''}]

>  <ligand_codes>  (369) 
['G83']

>  <cofactor_codes>  (369) 
[]

>  <has_cofactor>  (369) 
False

>  <covalent>  (369) 
True

>  <base_name>  (369) 
3ZZC

>  <lig_resn>  (369) 
G83

>  <lig_resi>  (369) 
1181

>  <lig_chain>  (369) 
A

>  <lig_segi>  (369) 
B

>  <lig_alt>  (369) 


>  <polymer_chain>  (369) 
A

>  <single_smiles>  (369) 
CCOC(=O)CC[C@H](C[C@@H]1CCNC1=O)NC(=O)[C@H](Cc2ccccc2)NC(=O)[C@H](CC(=O)OC(C)(C)C)NC(=O)OCc3ccccc3

$$$$
E22P1
     RDKit          3D

 35 37  0  0  0  0  0  0  0  0999 V2000
   -9.9190   12.9430  -35.2650 C   0  0  1  0  0  0  0  0  0  0  0  0
   -9.5160   14.2860  -34.9670 N   0  0  0  0  0  0  0  0  0  0  0  0
   -7.7360   12.1130  -35.7460 O   0  0  0  0  0  0  0  0  0  0  0  0
  -10.4120   12.8110  -36.6940 C   0  0  0  0  0  0  0  0  0  0  0  0
   -6.6380    6.9450  -34.6150 N   0  0  0  0  0  0  0  0  0  0  0  0
   -9.3150   13.9250  -32.7120 O   0  0  0  0  0  0  0  0  0  0  0  0
   -8.7700   11.9720  -35.1380 C   0  0  0  0  0  0  0  0  0  0  0  0
   -8.8710   10.8540  -34.2980 N   0  0  0  0  0  0  0  0  0  0  0  0
   -7.8270    9.3530  -36.4740 O   0  0  0  0  0  0  0  0  0  0  0  0
   -9.1480   20.8220  -30.9950 C   0  0  0  0  0  0  0  0  0  0  0  0
   -6.1930   11.9110  -29.6060 N   0  0  0  0  0  0  0  0  0  0  0  0
   -7.6220    9.9280  -29.8110 O   0  0  0  0  0  0  0  0  0  0  0  0
   -9.2290   14.7180  -33.6340 C   0  0  0  0  0  0  0  0  0  0  0  0
   -5.5830   13.0950  -31.6740 C   0  0  0  0  0  0  0  0  0  0  0  0
  -11.6540   13.6210  -36.9560 C   0  0  0  0  0  0  0  0  0  0  0  0
  -10.4320   20.2770  -30.9840 C   0  0  0  0  0  0  0  0  0  0  0  0
   -8.8010   16.1560  -33.3590 C   0  0  0  0  0  0  0  0  0  0  0  0
   -8.1180   20.1680  -31.6780 C   0  0  0  0  0  0  0  0  0  0  0  0
   -7.7760   10.0440  -34.2160 C   0  0  1  0  0  0  0  0  0  0  0  0
  -11.6660   14.5500  -37.9930 C   0  0  0  0  0  0  0  0  0  0  0  0
   -6.1370   11.9120  -32.4520 C   0  0  0  0  0  0  0  0  0  0  0  0
  -10.6660   19.0760  -31.6610 C   0  0  0  0  0  0  0  0  0  0  0  0
   -7.0220   10.9800  -30.3480 C   0  0  0  0  0  0  0  0  0  0  0  0
   -9.9570   17.1090  -33.0820 C   0  0  0  0  0  0  0  0  0  0  0  0
   -7.5860    9.9340  -32.5820 C   0  0  0  0  0  0  0  0  0  0  0  0
  -12.7700   13.4400  -36.1440 C   0  0  0  0  0  0  0  0  0  0  0  0
   -7.2430    7.7760  -34.8330 C   0  0  0  0  0  0  0  0  0  0  0  0
  -13.9340   15.1220  -37.4080 C   0  0  0  0  0  0  0  0  0  0  0  0
   -9.6410   18.4120  -32.3490 C   0  0  0  0  0  0  0  0  0  0  0  0
  -12.8090   15.3130  -38.2220 C   0  0  0  0  0  0  0  0  0  0  0  0
  -13.9210   14.1890  -36.3740 C   0  0  0  0  0  0  0  0  0  0  0  0
   -8.0510    8.9360  -35.1760 C   0  0  2  0  0  0  0  0  0  0  0  0
   -7.1210   11.2530  -31.8690 C   0  0  2  0  0  0  0  0  0  0  0  0
   -8.3610   18.9710  -32.3500 C   0  0  0  0  0  0  0  0  0  0  0  0
   -5.1120   12.6510  -30.2840 C   0  0  0  0  0  0  0  0  0  0  0  0
  1  4  1  6
  1  7  1  0
  1  2  1  0
  2 13  1  0
  3  7  2  0
  4 15  1  0
  5 27  3  0
  6 13  2  0
  7  8  1  0
  8 19  1  0
 32  9  1  6
 10 18  2  0
 10 16  1  0
 11 23  1  0
 11 35  1  0
 12 23  2  0
 13 17  1  0
 14 21  1  0
 14 35  1  0
 15 20  2  0
 15 26  1  0
 16 22  2  0
 17 24  2  3
 18 34  1  0
 19 25  1  1
 19 32  1  0
 20 30  1  0
 21 33  1  0
 22 29  1  0
 23 33  1  0
 24 29  1  0
 33 25  1  6
 26 31  2  0
 27 32  1  0
 28 30  2  0
 28 31  1  0
 29 34  2  0
A    1
 C1 
A    2
 N1 
A    3
 O1 
A    4
 C2 
A    5
 N2 
A    6
 O2 
A    7
 C3 
A    8
 N3 
A    9
 O3 
A   10
 C4 
A   11
 N4 
A   12
 O4 
A   13
 C5 
A   14
 C6 
A   15
 C7 
A   16
 C8 
A   17
 C9 
A   18
 C10
A   19
 C11
A   20
 C12
A   21
 C13
A   22
 C14
A   23
 C15
A   24
 C16
A   25
 C17
A   26
 C18
A   27
 C19
A   28
 C20
A   29
 C21
A   30
 C22
A   31
 C23
A   32
 C24
A   33
 C25
A   34
 C26
A   35
 C27
M  END
>  <XChem_code>  (370) 
E22§1

>  <Occupancy>  (370) 
[1.0, 1.0, 1.0, 1.0, 1.0, 1.0, 1.0, 1.0, 1.0, 1.0, 1.0, 1.0, 1.0, 1.0, 1.0, 1.0, 1.0, 1.0, 1.0, 1.0, 1.0, 1.0, 1.0, 1.0, 1.0, 1.0, 1.0, 1.0, 1.0, 1.0, 1.0, 1.0, 1.0, 1.0, 1.0]

>  <TempFactor>  (370) 
[44.77, 46.95, 43.33, 43.58, 47.51, 47.9, 43.96, 46.53, 46.69, 77.84, 47.13, 39.22, 49.9, 43.36, 42.16, 75.89, 55.22, 72.09, 44.14, 43.03, 43.28, 76.01, 44.2, 62.42, 42.91, 44.07, 47.42, 45.41, 69.71, 44.62, 43.66, 46.14, 44.31, 70.66, 44.24]

>  <accession>  (370) 
5BPE_A

>  <description>  (370) 
Chain A, EV71 3Cpro [Enterovirus A71]

>  <evalue>  (370) 
1.3023100000000001e-85

>  <pdb_code>  (370) 
5BPE

>  <chain>  (370) 
A

>  <ligands>  (370) 
[{'chain_id': 'A', 'author_residue_number': 201, 'author_insertion_code': '', 'chem_comp_id': 'E22', 'alternate_conformers': 0, 'entity_id': 2, 'struct_asym_id': 'B', 'residue_number': 1, 'chem_comp_name': '(2~{S})-~{N}-[(1~{R},2~{S})-1-cyano-1-oxidanyl-3-[(3~{S})-2-oxidanylidenepiperidin-3-yl]propan-2-yl]-3-phenyl-2-[[(~{E})-3-phenylprop-2-enoyl]amino]propanamide', 'weight': 474.552, 'carbohydrate_polymer': False, 'branch_name': ''}]

>  <ligand_codes>  (370) 
['E22']

>  <cofactor_codes>  (370) 
[]

>  <has_cofactor>  (370) 
False

>  <covalent>  (370) 
False

>  <base_name>  (370) 
5BPE

>  <lig_resn>  (370) 
E22

>  <lig_resi>  (370) 
201

>  <lig_chain>  (370) 
A

>  <lig_segi>  (370) 
B

>  <lig_alt>  (370) 


>  <polymer_chain>  (370) 
A

>  <single_smiles>  (370) 
O[C@@H](C#N)[C@H](C[C@@H]1CCCNC1=O)NC(=O)[C@H](Cc2ccccc2)NC(=O)\C=C\c3ccccc3

$$$$
E22P1S1
     RDKit          3D

 14 14  0  0  0  0  0  0  0  0999 V2000
   -8.8710   10.8540  -34.2980 N   0  0  0  0  0  0  0  0  0  0  0  0
   -7.7760   10.0440  -34.2160 C   0  0  1  0  0  0  0  0  0  0  0  0
   -7.5860    9.9340  -32.5820 C   0  0  0  0  0  0  0  0  0  0  0  0
   -8.0510    8.9360  -35.1760 C   0  0  1  0  0  0  0  0  0  0  0  0
   -7.1210   11.2530  -31.8690 C   0  0  2  0  0  0  0  0  0  0  0  0
   -7.8270    9.3530  -36.4740 O   0  0  0  0  0  0  0  0  0  0  0  0
   -7.2430    7.7760  -34.8330 C   0  0  0  0  0  0  0  0  0  0  0  0
   -6.1370   11.9120  -32.4520 C   0  0  0  0  0  0  0  0  0  0  0  0
   -7.0220   10.9800  -30.3480 C   0  0  0  0  0  0  0  0  0  0  0  0
   -6.6380    6.9450  -34.6150 N   0  0  0  0  0  0  0  0  0  0  0  0
   -5.5830   13.0950  -31.6740 C   0  0  0  0  0  0  0  0  0  0  0  0
   -6.1930   11.9110  -29.6060 N   0  0  0  0  0  0  0  0  0  0  0  0
   -7.6220    9.9280  -29.8110 O   0  0  0  0  0  0  0  0  0  0  0  0
   -5.1120   12.6510  -30.2840 C   0  0  0  0  0  0  0  0  0  0  0  0
  2  1  1  1
  2  3  1  0
  2  4  1  0
  5  3  1  6
  4  6  1  6
  7  4  1  0
  8  5  1  0
  9  5  1  0
 10  7  3  0
 11  8  1  0
 12  9  1  0
 13  9  2  0
 11 14  1  0
 12 14  1  0
A    2
 C11
A    3
 C17
A    4
 C24
A    5
 C25
A    6
 O3 
A    7
 C19
A    8
 C13
A    9
 C15
A   10
 N2 
A   11
 C6 
A   12
 N4 
A   13
 O4 
A   14
 C27
M  END
>  <XChem_code>  (371) 
E22§1

>  <Occupancy>  (371) 
[1.0, 1.0, 1.0, 1.0, 1.0, 1.0, 1.0, 1.0, 1.0, 1.0, 1.0, 1.0, 1.0, 1.0, 1.0, 1.0, 1.0, 1.0, 1.0, 1.0, 1.0, 1.0, 1.0, 1.0, 1.0, 1.0, 1.0, 1.0, 1.0, 1.0, 1.0, 1.0, 1.0, 1.0, 1.0]

>  <TempFactor>  (371) 
[44.77, 46.95, 43.33, 43.58, 47.51, 47.9, 43.96, 46.53, 46.69, 77.84, 47.13, 39.22, 49.9, 43.36, 42.16, 75.89, 55.22, 72.09, 44.14, 43.03, 43.28, 76.01, 44.2, 62.42, 42.91, 44.07, 47.42, 45.41, 69.71, 44.62, 43.66, 46.14, 44.31, 70.66, 44.24]

>  <accession>  (371) 
5BPE_A

>  <description>  (371) 
Chain A, EV71 3Cpro [Enterovirus A71]

>  <evalue>  (371) 
1.3023100000000001e-85

>  <pdb_code>  (371) 
5BPE

>  <chain>  (371) 
A

>  <ligands>  (371) 
[{'chain_id': 'A', 'author_residue_number': 201, 'author_insertion_code': '', 'chem_comp_id': 'E22', 'alternate_conformers': 0, 'entity_id': 2, 'struct_asym_id': 'B', 'residue_number': 1, 'chem_comp_name': '(2~{S})-~{N}-[(1~{R},2~{S})-1-cyano-1-oxidanyl-3-[(3~{S})-2-oxidanylidenepiperidin-3-yl]propan-2-yl]-3-phenyl-2-[[(~{E})-3-phenylprop-2-enoyl]amino]propanamide', 'weight': 474.552, 'carbohydrate_polymer': False, 'branch_name': ''}]

>  <ligand_codes>  (371) 
['E22']

>  <cofactor_codes>  (371) 
[]

>  <has_cofactor>  (371) 
False

>  <covalent>  (371) 
False

>  <base_name>  (371) 
5BPE

>  <lig_resn>  (371) 
E22

>  <lig_resi>  (371) 
201

>  <lig_chain>  (371) 
A

>  <lig_segi>  (371) 
B

>  <lig_alt>  (371) 


>  <polymer_chain>  (371) 
A

>  <single_smiles>  (371) 
O[C@@H](C#N)[C@H](C[C@@H]1CCCNC1=O)NC(=O)[C@H](Cc2ccccc2)NC(=O)\C=C\c3ccccc3

$$$$
E22P1S2
     RDKit          3D

 21 22  0  0  0  0  0  0  0  0999 V2000
   -8.7700   11.9720  -35.1380 C   0  0  0  0  0  0  0  0  0  0  0  0
   -9.9190   12.9430  -35.2650 C   0  0  2  0  0  0  0  0  0  0  0  0
   -7.7360   12.1130  -35.7460 O   0  0  0  0  0  0  0  0  0  0  0  0
  -10.4120   12.8110  -36.6940 C   0  0  0  0  0  0  0  0  0  0  0  0
   -9.5160   14.2860  -34.9670 N   0  0  0  0  0  0  0  0  0  0  0  0
  -11.6540   13.6210  -36.9560 C   0  0  0  0  0  0  0  0  0  0  0  0
   -9.2290   14.7180  -33.6340 C   0  0  0  0  0  0  0  0  0  0  0  0
  -11.6660   14.5500  -37.9930 C   0  0  0  0  0  0  0  0  0  0  0  0
  -12.7700   13.4400  -36.1440 C   0  0  0  0  0  0  0  0  0  0  0  0
   -9.3150   13.9250  -32.7120 O   0  0  0  0  0  0  0  0  0  0  0  0
   -8.8010   16.1560  -33.3590 C   0  0  0  0  0  0  0  0  0  0  0  0
  -12.8090   15.3130  -38.2220 C   0  0  0  0  0  0  0  0  0  0  0  0
  -13.9210   14.1890  -36.3740 C   0  0  0  0  0  0  0  0  0  0  0  0
   -9.9570   17.1090  -33.0820 C   0  0  0  0  0  0  0  0  0  0  0  0
  -13.9340   15.1220  -37.4080 C   0  0  0  0  0  0  0  0  0  0  0  0
   -9.6410   18.4120  -32.3490 C   0  0  0  0  0  0  0  0  0  0  0  0
  -10.6660   19.0760  -31.6610 C   0  0  0  0  0  0  0  0  0  0  0  0
   -8.3610   18.9710  -32.3500 C   0  0  0  0  0  0  0  0  0  0  0  0
  -10.4320   20.2770  -30.9840 C   0  0  0  0  0  0  0  0  0  0  0  0
   -8.1180   20.1680  -31.6780 C   0  0  0  0  0  0  0  0  0  0  0  0
   -9.1480   20.8220  -30.9950 C   0  0  0  0  0  0  0  0  0  0  0  0
  2  1  1  0
  3  1  2  0
  2  4  1  6
  2  5  1  0
  4  6  1  0
  5  7  1  0
  6  8  2  0
  6  9  1  0
 10  7  2  0
  7 11  1  0
  8 12  1  0
  9 13  2  0
 11 14  2  3
 15 12  2  0
 15 13  1  0
 14 16  1  0
 17 16  2  0
 16 18  1  0
 19 17  1  0
 20 18  2  0
 21 19  2  0
 21 20  1  0
A    2
 C1 
A    3
 O1 
A    4
 C2 
A    5
 N1 
A    6
 C7 
A    7
 C5 
A    8
 C12
A    9
 C18
A   10
 O2 
A   11
 C9 
A   12
 C22
A   13
 C23
A   14
 C16
A   15
 C20
A   16
 C21
A   17
 C14
A   18
 C26
A   19
 C8 
A   20
 C10
A   21
 C4 
M  END
>  <XChem_code>  (372) 
E22§1

>  <Occupancy>  (372) 
[1.0, 1.0, 1.0, 1.0, 1.0, 1.0, 1.0, 1.0, 1.0, 1.0, 1.0, 1.0, 1.0, 1.0, 1.0, 1.0, 1.0, 1.0, 1.0, 1.0, 1.0, 1.0, 1.0, 1.0, 1.0, 1.0, 1.0, 1.0, 1.0, 1.0, 1.0, 1.0, 1.0, 1.0, 1.0]

>  <TempFactor>  (372) 
[44.77, 46.95, 43.33, 43.58, 47.51, 47.9, 43.96, 46.53, 46.69, 77.84, 47.13, 39.22, 49.9, 43.36, 42.16, 75.89, 55.22, 72.09, 44.14, 43.03, 43.28, 76.01, 44.2, 62.42, 42.91, 44.07, 47.42, 45.41, 69.71, 44.62, 43.66, 46.14, 44.31, 70.66, 44.24]

>  <accession>  (372) 
5BPE_A

>  <description>  (372) 
Chain A, EV71 3Cpro [Enterovirus A71]

>  <evalue>  (372) 
1.3023100000000001e-85

>  <pdb_code>  (372) 
5BPE

>  <chain>  (372) 
A

>  <ligands>  (372) 
[{'chain_id': 'A', 'author_residue_number': 201, 'author_insertion_code': '', 'chem_comp_id': 'E22', 'alternate_conformers': 0, 'entity_id': 2, 'struct_asym_id': 'B', 'residue_number': 1, 'chem_comp_name': '(2~{S})-~{N}-[(1~{R},2~{S})-1-cyano-1-oxidanyl-3-[(3~{S})-2-oxidanylidenepiperidin-3-yl]propan-2-yl]-3-phenyl-2-[[(~{E})-3-phenylprop-2-enoyl]amino]propanamide', 'weight': 474.552, 'carbohydrate_polymer': False, 'branch_name': ''}]

>  <ligand_codes>  (372) 
['E22']

>  <cofactor_codes>  (372) 
[]

>  <has_cofactor>  (372) 
False

>  <covalent>  (372) 
False

>  <base_name>  (372) 
5BPE

>  <lig_resn>  (372) 
E22

>  <lig_resi>  (372) 
201

>  <lig_chain>  (372) 
A

>  <lig_segi>  (372) 
B

>  <lig_alt>  (372) 


>  <polymer_chain>  (372) 
A

>  <single_smiles>  (372) 
O[C@@H](C#N)[C@H](C[C@@H]1CCCNC1=O)NC(=O)[C@H](Cc2ccccc2)NC(=O)\C=C\c3ccccc3

$$$$
E22P1S3
     RDKit          3D

 10 10  0  0  0  0  0  0  0  0999 V2000
   -9.2290   14.7180  -33.6340 C   0  0  0  0  0  0  0  0  0  0  0  0
   -9.3150   13.9250  -32.7120 O   0  0  0  0  0  0  0  0  0  0  0  0
   -8.8010   16.1560  -33.3590 C   0  0  0  0  0  0  0  0  0  0  0  0
   -9.9570   17.1090  -33.0820 C   0  0  0  0  0  0  0  0  0  0  0  0
   -9.6410   18.4120  -32.3490 C   0  0  0  0  0  0  0  0  0  0  0  0
  -10.6660   19.0760  -31.6610 C   0  0  0  0  0  0  0  0  0  0  0  0
   -8.3610   18.9710  -32.3500 C   0  0  0  0  0  0  0  0  0  0  0  0
  -10.4320   20.2770  -30.9840 C   0  0  0  0  0  0  0  0  0  0  0  0
   -8.1180   20.1680  -31.6780 C   0  0  0  0  0  0  0  0  0  0  0  0
   -9.1480   20.8220  -30.9950 C   0  0  0  0  0  0  0  0  0  0  0  0
  2  1  2  0
  1  3  1  0
  3  4  2  3
  4  5  1  0
  6  5  2  0
  5  7  1  0
  8  6  1  0
  9  7  2  0
 10  8  2  0
 10  9  1  0
A    2
 O2 
A    3
 C9 
A    4
 C16
A    5
 C21
A    6
 C14
A    7
 C26
A    8
 C8 
A    9
 C10
A   10
 C4 
M  END
>  <XChem_code>  (373) 
E22§1

>  <Occupancy>  (373) 
[1.0, 1.0, 1.0, 1.0, 1.0, 1.0, 1.0, 1.0, 1.0, 1.0, 1.0, 1.0, 1.0, 1.0, 1.0, 1.0, 1.0, 1.0, 1.0, 1.0, 1.0, 1.0, 1.0, 1.0, 1.0, 1.0, 1.0, 1.0, 1.0, 1.0, 1.0, 1.0, 1.0, 1.0, 1.0]

>  <TempFactor>  (373) 
[44.77, 46.95, 43.33, 43.58, 47.51, 47.9, 43.96, 46.53, 46.69, 77.84, 47.13, 39.22, 49.9, 43.36, 42.16, 75.89, 55.22, 72.09, 44.14, 43.03, 43.28, 76.01, 44.2, 62.42, 42.91, 44.07, 47.42, 45.41, 69.71, 44.62, 43.66, 46.14, 44.31, 70.66, 44.24]

>  <accession>  (373) 
5BPE_A

>  <description>  (373) 
Chain A, EV71 3Cpro [Enterovirus A71]

>  <evalue>  (373) 
1.3023100000000001e-85

>  <pdb_code>  (373) 
5BPE

>  <chain>  (373) 
A

>  <ligands>  (373) 
[{'chain_id': 'A', 'author_residue_number': 201, 'author_insertion_code': '', 'chem_comp_id': 'E22', 'alternate_conformers': 0, 'entity_id': 2, 'struct_asym_id': 'B', 'residue_number': 1, 'chem_comp_name': '(2~{S})-~{N}-[(1~{R},2~{S})-1-cyano-1-oxidanyl-3-[(3~{S})-2-oxidanylidenepiperidin-3-yl]propan-2-yl]-3-phenyl-2-[[(~{E})-3-phenylprop-2-enoyl]amino]propanamide', 'weight': 474.552, 'carbohydrate_polymer': False, 'branch_name': ''}]

>  <ligand_codes>  (373) 
['E22']

>  <cofactor_codes>  (373) 
[]

>  <has_cofactor>  (373) 
False

>  <covalent>  (373) 
False

>  <base_name>  (373) 
5BPE

>  <lig_resn>  (373) 
E22

>  <lig_resi>  (373) 
201

>  <lig_chain>  (373) 
A

>  <lig_segi>  (373) 
B

>  <lig_alt>  (373) 


>  <polymer_chain>  (373) 
A

>  <single_smiles>  (373) 
O[C@@H](C#N)[C@H](C[C@@H]1CCCNC1=O)NC(=O)[C@H](Cc2ccccc2)NC(=O)\C=C\c3ccccc3

$$$$
E22P1S4
     RDKit          3D

 25 26  0  0  0  0  0  0  0  0999 V2000
   -9.5160   14.2860  -34.9670 N   0  0  0  0  0  0  0  0  0  0  0  0
   -9.9190   12.9430  -35.2650 C   0  0  1  0  0  0  0  0  0  0  0  0
  -10.4120   12.8110  -36.6940 C   0  0  0  0  0  0  0  0  0  0  0  0
   -8.7700   11.9720  -35.1380 C   0  0  0  0  0  0  0  0  0  0  0  0
  -11.6540   13.6210  -36.9560 C   0  0  0  0  0  0  0  0  0  0  0  0
   -7.7360   12.1130  -35.7460 O   0  0  0  0  0  0  0  0  0  0  0  0
   -8.8710   10.8540  -34.2980 N   0  0  0  0  0  0  0  0  0  0  0  0
  -11.6660   14.5500  -37.9930 C   0  0  0  0  0  0  0  0  0  0  0  0
  -12.7700   13.4400  -36.1440 C   0  0  0  0  0  0  0  0  0  0  0  0
   -7.7760   10.0440  -34.2160 C   0  0  1  0  0  0  0  0  0  0  0  0
  -12.8090   15.3130  -38.2220 C   0  0  0  0  0  0  0  0  0  0  0  0
  -13.9210   14.1890  -36.3740 C   0  0  0  0  0  0  0  0  0  0  0  0
   -7.5860    9.9340  -32.5820 C   0  0  0  0  0  0  0  0  0  0  0  0
   -8.0510    8.9360  -35.1760 C   0  0  1  0  0  0  0  0  0  0  0  0
  -13.9340   15.1220  -37.4080 C   0  0  0  0  0  0  0  0  0  0  0  0
   -7.1210   11.2530  -31.8690 C   0  0  2  0  0  0  0  0  0  0  0  0
   -7.8270    9.3530  -36.4740 O   0  0  0  0  0  0  0  0  0  0  0  0
   -7.2430    7.7760  -34.8330 C   0  0  0  0  0  0  0  0  0  0  0  0
   -6.1370   11.9120  -32.4520 C   0  0  0  0  0  0  0  0  0  0  0  0
   -7.0220   10.9800  -30.3480 C   0  0  0  0  0  0  0  0  0  0  0  0
   -6.6380    6.9450  -34.6150 N   0  0  0  0  0  0  0  0  0  0  0  0
   -5.5830   13.0950  -31.6740 C   0  0  0  0  0  0  0  0  0  0  0  0
   -6.1930   11.9110  -29.6060 N   0  0  0  0  0  0  0  0  0  0  0  0
   -7.6220    9.9280  -29.8110 O   0  0  0  0  0  0  0  0  0  0  0  0
   -5.1120   12.6510  -30.2840 C   0  0  0  0  0  0  0  0  0  0  0  0
  2  1  1  6
  2  3  1  0
  2  4  1  0
  3  5  1  0
  6  4  2  0
  4  7  1  0
  5  8  2  0
  5  9  1  0
  7 10  1  0
  8 11  1  0
  9 12  2  0
 10 13  1  1
 10 14  1  0
 15 11  2  0
 15 12  1  0
 16 13  1  6
 14 17  1  6
 18 14  1  0
 19 16  1  0
 20 16  1  0
 21 18  3  0
 22 19  1  0
 23 20  1  0
 24 20  2  0
 22 25  1  0
 23 25  1  0
A    2
 C1 
A    3
 C2 
A    4
 C3 
A    5
 C7 
A    6
 O1 
A    7
 N3 
A    8
 C12
A    9
 C18
A   10
 C11
A   11
 C22
A   12
 C23
A   13
 C17
A   14
 C24
A   15
 C20
A   16
 C25
A   17
 O3 
A   18
 C19
A   19
 C13
A   20
 C15
A   21
 N2 
A   22
 C6 
A   23
 N4 
A   24
 O4 
A   25
 C27
M  END
>  <XChem_code>  (374) 
E22§1

>  <Occupancy>  (374) 
[1.0, 1.0, 1.0, 1.0, 1.0, 1.0, 1.0, 1.0, 1.0, 1.0, 1.0, 1.0, 1.0, 1.0, 1.0, 1.0, 1.0, 1.0, 1.0, 1.0, 1.0, 1.0, 1.0, 1.0, 1.0, 1.0, 1.0, 1.0, 1.0, 1.0, 1.0, 1.0, 1.0, 1.0, 1.0]

>  <TempFactor>  (374) 
[44.77, 46.95, 43.33, 43.58, 47.51, 47.9, 43.96, 46.53, 46.69, 77.84, 47.13, 39.22, 49.9, 43.36, 42.16, 75.89, 55.22, 72.09, 44.14, 43.03, 43.28, 76.01, 44.2, 62.42, 42.91, 44.07, 47.42, 45.41, 69.71, 44.62, 43.66, 46.14, 44.31, 70.66, 44.24]

>  <accession>  (374) 
5BPE_A

>  <description>  (374) 
Chain A, EV71 3Cpro [Enterovirus A71]

>  <evalue>  (374) 
1.3023100000000001e-85

>  <pdb_code>  (374) 
5BPE

>  <chain>  (374) 
A

>  <ligands>  (374) 
[{'chain_id': 'A', 'author_residue_number': 201, 'author_insertion_code': '', 'chem_comp_id': 'E22', 'alternate_conformers': 0, 'entity_id': 2, 'struct_asym_id': 'B', 'residue_number': 1, 'chem_comp_name': '(2~{S})-~{N}-[(1~{R},2~{S})-1-cyano-1-oxidanyl-3-[(3~{S})-2-oxidanylidenepiperidin-3-yl]propan-2-yl]-3-phenyl-2-[[(~{E})-3-phenylprop-2-enoyl]amino]propanamide', 'weight': 474.552, 'carbohydrate_polymer': False, 'branch_name': ''}]

>  <ligand_codes>  (374) 
['E22']

>  <cofactor_codes>  (374) 
[]

>  <has_cofactor>  (374) 
False

>  <covalent>  (374) 
False

>  <base_name>  (374) 
5BPE

>  <lig_resn>  (374) 
E22

>  <lig_resi>  (374) 
201

>  <lig_chain>  (374) 
A

>  <lig_segi>  (374) 
B

>  <lig_alt>  (374) 


>  <polymer_chain>  (374) 
A

>  <single_smiles>  (374) 
O[C@@H](C#N)[C@H](C[C@@H]1CCCNC1=O)NC(=O)[C@H](Cc2ccccc2)NC(=O)\C=C\c3ccccc3

$$$$
E22P1S5
     RDKit          3D

 11 11  0  0  0  0  0  0  0  0999 V2000
   -9.5160   14.2860  -34.9670 N   0  0  0  0  0  0  0  0  0  0  0  0
   -9.9190   12.9430  -35.2650 C   0  0  2  0  0  0  0  0  0  0  0  0
   -8.7700   11.9720  -35.1380 C   0  0  0  0  0  0  0  0  0  0  0  0
  -10.4120   12.8110  -36.6940 C   0  0  0  0  0  0  0  0  0  0  0  0
   -7.7360   12.1130  -35.7460 O   0  0  0  0  0  0  0  0  0  0  0  0
  -11.6540   13.6210  -36.9560 C   0  0  0  0  0  0  0  0  0  0  0  0
  -11.6660   14.5500  -37.9930 C   0  0  0  0  0  0  0  0  0  0  0  0
  -12.7700   13.4400  -36.1440 C   0  0  0  0  0  0  0  0  0  0  0  0
  -12.8090   15.3130  -38.2220 C   0  0  0  0  0  0  0  0  0  0  0  0
  -13.9210   14.1890  -36.3740 C   0  0  0  0  0  0  0  0  0  0  0  0
  -13.9340   15.1220  -37.4080 C   0  0  0  0  0  0  0  0  0  0  0  0
  2  1  1  6
  2  3  1  0
  2  4  1  0
  5  3  2  0
  4  6  1  0
  6  7  2  0
  6  8  1  0
  7  9  1  0
  8 10  2  0
 11  9  2  0
 11 10  1  0
A    2
 C1 
A    4
 C2 
A    5
 O1 
A    6
 C7 
A    7
 C12
A    8
 C18
A    9
 C22
A   10
 C23
A   11
 C20
M  END
>  <XChem_code>  (375) 
E22§1

>  <Occupancy>  (375) 
[1.0, 1.0, 1.0, 1.0, 1.0, 1.0, 1.0, 1.0, 1.0, 1.0, 1.0, 1.0, 1.0, 1.0, 1.0, 1.0, 1.0, 1.0, 1.0, 1.0, 1.0, 1.0, 1.0, 1.0, 1.0, 1.0, 1.0, 1.0, 1.0, 1.0, 1.0, 1.0, 1.0, 1.0, 1.0]

>  <TempFactor>  (375) 
[44.77, 46.95, 43.33, 43.58, 47.51, 47.9, 43.96, 46.53, 46.69, 77.84, 47.13, 39.22, 49.9, 43.36, 42.16, 75.89, 55.22, 72.09, 44.14, 43.03, 43.28, 76.01, 44.2, 62.42, 42.91, 44.07, 47.42, 45.41, 69.71, 44.62, 43.66, 46.14, 44.31, 70.66, 44.24]

>  <accession>  (375) 
5BPE_A

>  <description>  (375) 
Chain A, EV71 3Cpro [Enterovirus A71]

>  <evalue>  (375) 
1.3023100000000001e-85

>  <pdb_code>  (375) 
5BPE

>  <chain>  (375) 
A

>  <ligands>  (375) 
[{'chain_id': 'A', 'author_residue_number': 201, 'author_insertion_code': '', 'chem_comp_id': 'E22', 'alternate_conformers': 0, 'entity_id': 2, 'struct_asym_id': 'B', 'residue_number': 1, 'chem_comp_name': '(2~{S})-~{N}-[(1~{R},2~{S})-1-cyano-1-oxidanyl-3-[(3~{S})-2-oxidanylidenepiperidin-3-yl]propan-2-yl]-3-phenyl-2-[[(~{E})-3-phenylprop-2-enoyl]amino]propanamide', 'weight': 474.552, 'carbohydrate_polymer': False, 'branch_name': ''}]

>  <ligand_codes>  (375) 
['E22']

>  <cofactor_codes>  (375) 
[]

>  <has_cofactor>  (375) 
False

>  <covalent>  (375) 
False

>  <base_name>  (375) 
5BPE

>  <lig_resn>  (375) 
E22

>  <lig_resi>  (375) 
201

>  <lig_chain>  (375) 
A

>  <lig_segi>  (375) 
B

>  <lig_alt>  (375) 


>  <polymer_chain>  (375) 
A

>  <single_smiles>  (375) 
O[C@@H](C#N)[C@H](C[C@@H]1CCCNC1=O)NC(=O)[C@H](Cc2ccccc2)NC(=O)\C=C\c3ccccc3

$$$$
E22P1S6
     RDKit          3D

 11 11  0  0  0  0  0  0  0  0999 V2000
   -9.5160   14.2860  -34.9670 N   0  0  0  0  0  0  0  0  0  0  0  0
   -9.2290   14.7180  -33.6340 C   0  0  0  0  0  0  0  0  0  0  0  0
   -9.3150   13.9250  -32.7120 O   0  0  0  0  0  0  0  0  0  0  0  0
   -8.8010   16.1560  -33.3590 C   0  0  0  0  0  0  0  0  0  0  0  0
   -9.9570   17.1090  -33.0820 C   0  0  0  0  0  0  0  0  0  0  0  0
   -9.6410   18.4120  -32.3490 C   0  0  0  0  0  0  0  0  0  0  0  0
  -10.6660   19.0760  -31.6610 C   0  0  0  0  0  0  0  0  0  0  0  0
   -8.3610   18.9710  -32.3500 C   0  0  0  0  0  0  0  0  0  0  0  0
  -10.4320   20.2770  -30.9840 C   0  0  0  0  0  0  0  0  0  0  0  0
   -8.1180   20.1680  -31.6780 C   0  0  0  0  0  0  0  0  0  0  0  0
   -9.1480   20.8220  -30.9950 C   0  0  0  0  0  0  0  0  0  0  0  0
  1  2  1  0
  3  2  2  0
  2  4  1  0
  4  5  2  3
  5  6  1  0
  7  6  2  0
  6  8  1  0
  9  7  1  0
 10  8  2  0
 11  9  2  0
 11 10  1  0
A    2
 C5 
A    3
 O2 
A    4
 C9 
A    5
 C16
A    6
 C21
A    7
 C14
A    8
 C26
A    9
 C8 
A   10
 C10
A   11
 C4 
M  END
>  <XChem_code>  (376) 
E22§1

>  <Occupancy>  (376) 
[1.0, 1.0, 1.0, 1.0, 1.0, 1.0, 1.0, 1.0, 1.0, 1.0, 1.0, 1.0, 1.0, 1.0, 1.0, 1.0, 1.0, 1.0, 1.0, 1.0, 1.0, 1.0, 1.0, 1.0, 1.0, 1.0, 1.0, 1.0, 1.0, 1.0, 1.0, 1.0, 1.0, 1.0, 1.0]

>  <TempFactor>  (376) 
[44.77, 46.95, 43.33, 43.58, 47.51, 47.9, 43.96, 46.53, 46.69, 77.84, 47.13, 39.22, 49.9, 43.36, 42.16, 75.89, 55.22, 72.09, 44.14, 43.03, 43.28, 76.01, 44.2, 62.42, 42.91, 44.07, 47.42, 45.41, 69.71, 44.62, 43.66, 46.14, 44.31, 70.66, 44.24]

>  <accession>  (376) 
5BPE_A

>  <description>  (376) 
Chain A, EV71 3Cpro [Enterovirus A71]

>  <evalue>  (376) 
1.3023100000000001e-85

>  <pdb_code>  (376) 
5BPE

>  <chain>  (376) 
A

>  <ligands>  (376) 
[{'chain_id': 'A', 'author_residue_number': 201, 'author_insertion_code': '', 'chem_comp_id': 'E22', 'alternate_conformers': 0, 'entity_id': 2, 'struct_asym_id': 'B', 'residue_number': 1, 'chem_comp_name': '(2~{S})-~{N}-[(1~{R},2~{S})-1-cyano-1-oxidanyl-3-[(3~{S})-2-oxidanylidenepiperidin-3-yl]propan-2-yl]-3-phenyl-2-[[(~{E})-3-phenylprop-2-enoyl]amino]propanamide', 'weight': 474.552, 'carbohydrate_polymer': False, 'branch_name': ''}]

>  <ligand_codes>  (376) 
['E22']

>  <cofactor_codes>  (376) 
[]

>  <has_cofactor>  (376) 
False

>  <covalent>  (376) 
False

>  <base_name>  (376) 
5BPE

>  <lig_resn>  (376) 
E22

>  <lig_resi>  (376) 
201

>  <lig_chain>  (376) 
A

>  <lig_segi>  (376) 
B

>  <lig_alt>  (376) 


>  <polymer_chain>  (376) 
A

>  <single_smiles>  (376) 
O[C@@H](C#N)[C@H](C[C@@H]1CCCNC1=O)NC(=O)[C@H](Cc2ccccc2)NC(=O)\C=C\c3ccccc3

$$$$
E22P1S7
     RDKit          3D

 24 25  0  0  0  0  0  0  0  0999 V2000
   -9.9190   12.9430  -35.2650 C   0  0  0  0  0  0  0  0  0  0  0  0
  -10.4120   12.8110  -36.6940 C   0  0  0  0  0  0  0  0  0  0  0  0
   -8.7700   11.9720  -35.1380 C   0  0  0  0  0  0  0  0  0  0  0  0
  -11.6540   13.6210  -36.9560 C   0  0  0  0  0  0  0  0  0  0  0  0
   -7.7360   12.1130  -35.7460 O   0  0  0  0  0  0  0  0  0  0  0  0
   -8.8710   10.8540  -34.2980 N   0  0  0  0  0  0  0  0  0  0  0  0
  -11.6660   14.5500  -37.9930 C   0  0  0  0  0  0  0  0  0  0  0  0
  -12.7700   13.4400  -36.1440 C   0  0  0  0  0  0  0  0  0  0  0  0
   -7.7760   10.0440  -34.2160 C   0  0  1  0  0  0  0  0  0  0  0  0
  -12.8090   15.3130  -38.2220 C   0  0  0  0  0  0  0  0  0  0  0  0
  -13.9210   14.1890  -36.3740 C   0  0  0  0  0  0  0  0  0  0  0  0
   -7.5860    9.9340  -32.5820 C   0  0  0  0  0  0  0  0  0  0  0  0
   -8.0510    8.9360  -35.1760 C   0  0  1  0  0  0  0  0  0  0  0  0
  -13.9340   15.1220  -37.4080 C   0  0  0  0  0  0  0  0  0  0  0  0
   -7.1210   11.2530  -31.8690 C   0  0  2  0  0  0  0  0  0  0  0  0
   -7.8270    9.3530  -36.4740 O   0  0  0  0  0  0  0  0  0  0  0  0
   -7.2430    7.7760  -34.8330 C   0  0  0  0  0  0  0  0  0  0  0  0
   -6.1370   11.9120  -32.4520 C   0  0  0  0  0  0  0  0  0  0  0  0
   -7.0220   10.9800  -30.3480 C   0  0  0  0  0  0  0  0  0  0  0  0
   -6.6380    6.9450  -34.6150 N   0  0  0  0  0  0  0  0  0  0  0  0
   -5.5830   13.0950  -31.6740 C   0  0  0  0  0  0  0  0  0  0  0  0
   -6.1930   11.9110  -29.6060 N   0  0  0  0  0  0  0  0  0  0  0  0
   -7.6220    9.9280  -29.8110 O   0  0  0  0  0  0  0  0  0  0  0  0
   -5.1120   12.6510  -30.2840 C   0  0  0  0  0  0  0  0  0  0  0  0
  1  2  1  6
  1  3  1  0
  2  4  1  0
  5  3  2  0
  3  6  1  0
  4  7  2  0
  4  8  1  0
  6  9  1  0
  7 10  1  0
  8 11  2  0
  9 12  1  1
  9 13  1  0
 14 10  2  0
 14 11  1  0
 15 12  1  6
 13 16  1  6
 17 13  1  0
 18 15  1  0
 19 15  1  0
 20 17  3  0
 21 18  1  0
 22 19  1  0
 23 19  2  0
 21 24  1  0
 22 24  1  0
A    2
 C2 
A    3
 C3 
A    4
 C7 
A    5
 O1 
A    6
 N3 
A    7
 C12
A    8
 C18
A    9
 C11
A   10
 C22
A   11
 C23
A   12
 C17
A   13
 C24
A   14
 C20
A   15
 C25
A   16
 O3 
A   17
 C19
A   18
 C13
A   19
 C15
A   20
 N2 
A   21
 C6 
A   22
 N4 
A   23
 O4 
A   24
 C27
M  END
>  <XChem_code>  (377) 
E22§1

>  <Occupancy>  (377) 
[1.0, 1.0, 1.0, 1.0, 1.0, 1.0, 1.0, 1.0, 1.0, 1.0, 1.0, 1.0, 1.0, 1.0, 1.0, 1.0, 1.0, 1.0, 1.0, 1.0, 1.0, 1.0, 1.0, 1.0, 1.0, 1.0, 1.0, 1.0, 1.0, 1.0, 1.0, 1.0, 1.0, 1.0, 1.0]

>  <TempFactor>  (377) 
[44.77, 46.95, 43.33, 43.58, 47.51, 47.9, 43.96, 46.53, 46.69, 77.84, 47.13, 39.22, 49.9, 43.36, 42.16, 75.89, 55.22, 72.09, 44.14, 43.03, 43.28, 76.01, 44.2, 62.42, 42.91, 44.07, 47.42, 45.41, 69.71, 44.62, 43.66, 46.14, 44.31, 70.66, 44.24]

>  <accession>  (377) 
5BPE_A

>  <description>  (377) 
Chain A, EV71 3Cpro [Enterovirus A71]

>  <evalue>  (377) 
1.3023100000000001e-85

>  <pdb_code>  (377) 
5BPE

>  <chain>  (377) 
A

>  <ligands>  (377) 
[{'chain_id': 'A', 'author_residue_number': 201, 'author_insertion_code': '', 'chem_comp_id': 'E22', 'alternate_conformers': 0, 'entity_id': 2, 'struct_asym_id': 'B', 'residue_number': 1, 'chem_comp_name': '(2~{S})-~{N}-[(1~{R},2~{S})-1-cyano-1-oxidanyl-3-[(3~{S})-2-oxidanylidenepiperidin-3-yl]propan-2-yl]-3-phenyl-2-[[(~{E})-3-phenylprop-2-enoyl]amino]propanamide', 'weight': 474.552, 'carbohydrate_polymer': False, 'branch_name': ''}]

>  <ligand_codes>  (377) 
['E22']

>  <cofactor_codes>  (377) 
[]

>  <has_cofactor>  (377) 
False

>  <covalent>  (377) 
False

>  <base_name>  (377) 
5BPE

>  <lig_resn>  (377) 
E22

>  <lig_resi>  (377) 
201

>  <lig_chain>  (377) 
A

>  <lig_segi>  (377) 
B

>  <lig_alt>  (377) 


>  <polymer_chain>  (377) 
A

>  <single_smiles>  (377) 
O[C@@H](C#N)[C@H](C[C@@H]1CCCNC1=O)NC(=O)[C@H](Cc2ccccc2)NC(=O)\C=C\c3ccccc3

$$$$
E22P1S8
     RDKit          3D

 13 13  0  0  0  0  0  0  0  0999 V2000
   -7.7760   10.0440  -34.2160 C   0  0  0  0  0  0  0  0  0  0  0  0
   -7.5860    9.9340  -32.5820 C   0  0  0  0  0  0  0  0  0  0  0  0
   -8.0510    8.9360  -35.1760 C   0  0  1  0  0  0  0  0  0  0  0  0
   -7.1210   11.2530  -31.8690 C   0  0  2  0  0  0  0  0  0  0  0  0
   -7.8270    9.3530  -36.4740 O   0  0  0  0  0  0  0  0  0  0  0  0
   -7.2430    7.7760  -34.8330 C   0  0  0  0  0  0  0  0  0  0  0  0
   -6.1370   11.9120  -32.4520 C   0  0  0  0  0  0  0  0  0  0  0  0
   -7.0220   10.9800  -30.3480 C   0  0  0  0  0  0  0  0  0  0  0  0
   -6.6380    6.9450  -34.6150 N   0  0  0  0  0  0  0  0  0  0  0  0
   -5.5830   13.0950  -31.6740 C   0  0  0  0  0  0  0  0  0  0  0  0
   -6.1930   11.9110  -29.6060 N   0  0  0  0  0  0  0  0  0  0  0  0
   -7.6220    9.9280  -29.8110 O   0  0  0  0  0  0  0  0  0  0  0  0
   -5.1120   12.6510  -30.2840 C   0  0  0  0  0  0  0  0  0  0  0  0
  1  2  1  6
  1  3  1  0
  4  2  1  6
  3  5  1  6
  6  3  1  0
  7  4  1  0
  8  4  1  0
  9  6  3  0
 10  7  1  0
 11  8  1  0
 12  8  2  0
 10 13  1  0
 11 13  1  0
A    2
 C17
A    3
 C24
A    4
 C25
A    5
 O3 
A    6
 C19
A    7
 C13
A    8
 C15
A    9
 N2 
A   10
 C6 
A   11
 N4 
A   12
 O4 
A   13
 C27
M  END
>  <XChem_code>  (378) 
E22§1

>  <Occupancy>  (378) 
[1.0, 1.0, 1.0, 1.0, 1.0, 1.0, 1.0, 1.0, 1.0, 1.0, 1.0, 1.0, 1.0, 1.0, 1.0, 1.0, 1.0, 1.0, 1.0, 1.0, 1.0, 1.0, 1.0, 1.0, 1.0, 1.0, 1.0, 1.0, 1.0, 1.0, 1.0, 1.0, 1.0, 1.0, 1.0]

>  <TempFactor>  (378) 
[44.77, 46.95, 43.33, 43.58, 47.51, 47.9, 43.96, 46.53, 46.69, 77.84, 47.13, 39.22, 49.9, 43.36, 42.16, 75.89, 55.22, 72.09, 44.14, 43.03, 43.28, 76.01, 44.2, 62.42, 42.91, 44.07, 47.42, 45.41, 69.71, 44.62, 43.66, 46.14, 44.31, 70.66, 44.24]

>  <accession>  (378) 
5BPE_A

>  <description>  (378) 
Chain A, EV71 3Cpro [Enterovirus A71]

>  <evalue>  (378) 
1.3023100000000001e-85

>  <pdb_code>  (378) 
5BPE

>  <chain>  (378) 
A

>  <ligands>  (378) 
[{'chain_id': 'A', 'author_residue_number': 201, 'author_insertion_code': '', 'chem_comp_id': 'E22', 'alternate_conformers': 0, 'entity_id': 2, 'struct_asym_id': 'B', 'residue_number': 1, 'chem_comp_name': '(2~{S})-~{N}-[(1~{R},2~{S})-1-cyano-1-oxidanyl-3-[(3~{S})-2-oxidanylidenepiperidin-3-yl]propan-2-yl]-3-phenyl-2-[[(~{E})-3-phenylprop-2-enoyl]amino]propanamide', 'weight': 474.552, 'carbohydrate_polymer': False, 'branch_name': ''}]

>  <ligand_codes>  (378) 
['E22']

>  <cofactor_codes>  (378) 
[]

>  <has_cofactor>  (378) 
False

>  <covalent>  (378) 
False

>  <base_name>  (378) 
5BPE

>  <lig_resn>  (378) 
E22

>  <lig_resi>  (378) 
201

>  <lig_chain>  (378) 
A

>  <lig_segi>  (378) 
B

>  <lig_alt>  (378) 


>  <polymer_chain>  (378) 
A

>  <single_smiles>  (378) 
O[C@@H](C#N)[C@H](C[C@@H]1CCCNC1=O)NC(=O)[C@H](Cc2ccccc2)NC(=O)\C=C\c3ccccc3

$$$$
E22P1S9
     RDKit          3D

 22 23  0  0  0  0  0  0  0  0999 V2000
   -8.8710   10.8540  -34.2980 N   0  0  0  0  0  0  0  0  0  0  0  0
   -8.7700   11.9720  -35.1380 C   0  0  0  0  0  0  0  0  0  0  0  0
   -9.9190   12.9430  -35.2650 C   0  0  2  0  0  0  0  0  0  0  0  0
   -7.7360   12.1130  -35.7460 O   0  0  0  0  0  0  0  0  0  0  0  0
  -10.4120   12.8110  -36.6940 C   0  0  0  0  0  0  0  0  0  0  0  0
   -9.5160   14.2860  -34.9670 N   0  0  0  0  0  0  0  0  0  0  0  0
  -11.6540   13.6210  -36.9560 C   0  0  0  0  0  0  0  0  0  0  0  0
   -9.2290   14.7180  -33.6340 C   0  0  0  0  0  0  0  0  0  0  0  0
  -11.6660   14.5500  -37.9930 C   0  0  0  0  0  0  0  0  0  0  0  0
  -12.7700   13.4400  -36.1440 C   0  0  0  0  0  0  0  0  0  0  0  0
   -9.3150   13.9250  -32.7120 O   0  0  0  0  0  0  0  0  0  0  0  0
   -8.8010   16.1560  -33.3590 C   0  0  0  0  0  0  0  0  0  0  0  0
  -12.8090   15.3130  -38.2220 C   0  0  0  0  0  0  0  0  0  0  0  0
  -13.9210   14.1890  -36.3740 C   0  0  0  0  0  0  0  0  0  0  0  0
   -9.9570   17.1090  -33.0820 C   0  0  0  0  0  0  0  0  0  0  0  0
  -13.9340   15.1220  -37.4080 C   0  0  0  0  0  0  0  0  0  0  0  0
   -9.6410   18.4120  -32.3490 C   0  0  0  0  0  0  0  0  0  0  0  0
  -10.6660   19.0760  -31.6610 C   0  0  0  0  0  0  0  0  0  0  0  0
   -8.3610   18.9710  -32.3500 C   0  0  0  0  0  0  0  0  0  0  0  0
  -10.4320   20.2770  -30.9840 C   0  0  0  0  0  0  0  0  0  0  0  0
   -8.1180   20.1680  -31.6780 C   0  0  0  0  0  0  0  0  0  0  0  0
   -9.1480   20.8220  -30.9950 C   0  0  0  0  0  0  0  0  0  0  0  0
  2  1  1  0
  3  2  1  0
  4  2  2  0
  3  5  1  6
  3  6  1  0
  5  7  1  0
  6  8  1  0
  7  9  2  0
  7 10  1  0
 11  8  2  0
  8 12  1  0
  9 13  1  0
 10 14  2  0
 12 15  2  3
 16 13  2  0
 16 14  1  0
 15 17  1  0
 18 17  2  0
 17 19  1  0
 20 18  1  0
 21 19  2  0
 22 20  2  0
 22 21  1  0
A    2
 C3 
A    3
 C1 
A    4
 O1 
A    5
 C2 
A    6
 N1 
A    7
 C7 
A    8
 C5 
A    9
 C12
A   10
 C18
A   11
 O2 
A   12
 C9 
A   13
 C22
A   14
 C23
A   15
 C16
A   16
 C20
A   17
 C21
A   18
 C14
A   19
 C26
A   20
 C8 
A   21
 C10
A   22
 C4 
M  END
>  <XChem_code>  (379) 
E22§1

>  <Occupancy>  (379) 
[1.0, 1.0, 1.0, 1.0, 1.0, 1.0, 1.0, 1.0, 1.0, 1.0, 1.0, 1.0, 1.0, 1.0, 1.0, 1.0, 1.0, 1.0, 1.0, 1.0, 1.0, 1.0, 1.0, 1.0, 1.0, 1.0, 1.0, 1.0, 1.0, 1.0, 1.0, 1.0, 1.0, 1.0, 1.0]

>  <TempFactor>  (379) 
[44.77, 46.95, 43.33, 43.58, 47.51, 47.9, 43.96, 46.53, 46.69, 77.84, 47.13, 39.22, 49.9, 43.36, 42.16, 75.89, 55.22, 72.09, 44.14, 43.03, 43.28, 76.01, 44.2, 62.42, 42.91, 44.07, 47.42, 45.41, 69.71, 44.62, 43.66, 46.14, 44.31, 70.66, 44.24]

>  <accession>  (379) 
5BPE_A

>  <description>  (379) 
Chain A, EV71 3Cpro [Enterovirus A71]

>  <evalue>  (379) 
1.3023100000000001e-85

>  <pdb_code>  (379) 
5BPE

>  <chain>  (379) 
A

>  <ligands>  (379) 
[{'chain_id': 'A', 'author_residue_number': 201, 'author_insertion_code': '', 'chem_comp_id': 'E22', 'alternate_conformers': 0, 'entity_id': 2, 'struct_asym_id': 'B', 'residue_number': 1, 'chem_comp_name': '(2~{S})-~{N}-[(1~{R},2~{S})-1-cyano-1-oxidanyl-3-[(3~{S})-2-oxidanylidenepiperidin-3-yl]propan-2-yl]-3-phenyl-2-[[(~{E})-3-phenylprop-2-enoyl]amino]propanamide', 'weight': 474.552, 'carbohydrate_polymer': False, 'branch_name': ''}]

>  <ligand_codes>  (379) 
['E22']

>  <cofactor_codes>  (379) 
[]

>  <has_cofactor>  (379) 
False

>  <covalent>  (379) 
False

>  <base_name>  (379) 
5BPE

>  <lig_resn>  (379) 
E22

>  <lig_resi>  (379) 
201

>  <lig_chain>  (379) 
A

>  <lig_segi>  (379) 
B

>  <lig_alt>  (379) 


>  <polymer_chain>  (379) 
A

>  <single_smiles>  (379) 
O[C@@H](C#N)[C@H](C[C@@H]1CCCNC1=O)NC(=O)[C@H](Cc2ccccc2)NC(=O)\C=C\c3ccccc3

$$$$
E22P1S10
     RDKit          3D

 10 10  0  0  0  0  0  0  0  0999 V2000
   -9.9190   12.9430  -35.2650 C   0  0  0  0  0  0  0  0  0  0  0  0
   -8.7700   11.9720  -35.1380 C   0  0  0  0  0  0  0  0  0  0  0  0
  -10.4120   12.8110  -36.6940 C   0  0  0  0  0  0  0  0  0  0  0  0
   -7.7360   12.1130  -35.7460 O   0  0  0  0  0  0  0  0  0  0  0  0
  -11.6540   13.6210  -36.9560 C   0  0  0  0  0  0  0  0  0  0  0  0
  -11.6660   14.5500  -37.9930 C   0  0  0  0  0  0  0  0  0  0  0  0
  -12.7700   13.4400  -36.1440 C   0  0  0  0  0  0  0  0  0  0  0  0
  -12.8090   15.3130  -38.2220 C   0  0  0  0  0  0  0  0  0  0  0  0
  -13.9210   14.1890  -36.3740 C   0  0  0  0  0  0  0  0  0  0  0  0
  -13.9340   15.1220  -37.4080 C   0  0  0  0  0  0  0  0  0  0  0  0
  1  2  1  0
  1  3  1  6
  4  2  2  0
  3  5  1  0
  5  6  2  0
  5  7  1  0
  6  8  1  0
  7  9  2  0
 10  8  2  0
 10  9  1  0
A    3
 C2 
A    4
 O1 
A    5
 C7 
A    6
 C12
A    7
 C18
A    8
 C22
A    9
 C23
A   10
 C20
M  END
>  <XChem_code>  (380) 
E22§1

>  <Occupancy>  (380) 
[1.0, 1.0, 1.0, 1.0, 1.0, 1.0, 1.0, 1.0, 1.0, 1.0, 1.0, 1.0, 1.0, 1.0, 1.0, 1.0, 1.0, 1.0, 1.0, 1.0, 1.0, 1.0, 1.0, 1.0, 1.0, 1.0, 1.0, 1.0, 1.0, 1.0, 1.0, 1.0, 1.0, 1.0, 1.0]

>  <TempFactor>  (380) 
[44.77, 46.95, 43.33, 43.58, 47.51, 47.9, 43.96, 46.53, 46.69, 77.84, 47.13, 39.22, 49.9, 43.36, 42.16, 75.89, 55.22, 72.09, 44.14, 43.03, 43.28, 76.01, 44.2, 62.42, 42.91, 44.07, 47.42, 45.41, 69.71, 44.62, 43.66, 46.14, 44.31, 70.66, 44.24]

>  <accession>  (380) 
5BPE_A

>  <description>  (380) 
Chain A, EV71 3Cpro [Enterovirus A71]

>  <evalue>  (380) 
1.3023100000000001e-85

>  <pdb_code>  (380) 
5BPE

>  <chain>  (380) 
A

>  <ligands>  (380) 
[{'chain_id': 'A', 'author_residue_number': 201, 'author_insertion_code': '', 'chem_comp_id': 'E22', 'alternate_conformers': 0, 'entity_id': 2, 'struct_asym_id': 'B', 'residue_number': 1, 'chem_comp_name': '(2~{S})-~{N}-[(1~{R},2~{S})-1-cyano-1-oxidanyl-3-[(3~{S})-2-oxidanylidenepiperidin-3-yl]propan-2-yl]-3-phenyl-2-[[(~{E})-3-phenylprop-2-enoyl]amino]propanamide', 'weight': 474.552, 'carbohydrate_polymer': False, 'branch_name': ''}]

>  <ligand_codes>  (380) 
['E22']

>  <cofactor_codes>  (380) 
[]

>  <has_cofactor>  (380) 
False

>  <covalent>  (380) 
False

>  <base_name>  (380) 
5BPE

>  <lig_resn>  (380) 
E22

>  <lig_resi>  (380) 
201

>  <lig_chain>  (380) 
A

>  <lig_segi>  (380) 
B

>  <lig_alt>  (380) 


>  <polymer_chain>  (380) 
A

>  <single_smiles>  (380) 
O[C@@H](C#N)[C@H](C[C@@H]1CCCNC1=O)NC(=O)[C@H](Cc2ccccc2)NC(=O)\C=C\c3ccccc3

$$$$
E22P1S11
     RDKit          3D

 12 12  0  0  0  0  0  0  0  0999 V2000
   -8.8710   10.8540  -34.2980 N   0  0  0  0  0  0  0  0  0  0  0  0
   -8.7700   11.9720  -35.1380 C   0  0  0  0  0  0  0  0  0  0  0  0
   -9.9190   12.9430  -35.2650 C   0  0  1  0  0  0  0  0  0  0  0  0
   -7.7360   12.1130  -35.7460 O   0  0  0  0  0  0  0  0  0  0  0  0
   -9.5160   14.2860  -34.9670 N   0  0  0  0  0  0  0  0  0  0  0  0
  -10.4120   12.8110  -36.6940 C   0  0  0  0  0  0  0  0  0  0  0  0
  -11.6540   13.6210  -36.9560 C   0  0  0  0  0  0  0  0  0  0  0  0
  -11.6660   14.5500  -37.9930 C   0  0  0  0  0  0  0  0  0  0  0  0
  -12.7700   13.4400  -36.1440 C   0  0  0  0  0  0  0  0  0  0  0  0
  -12.8090   15.3130  -38.2220 C   0  0  0  0  0  0  0  0  0  0  0  0
  -13.9210   14.1890  -36.3740 C   0  0  0  0  0  0  0  0  0  0  0  0
  -13.9340   15.1220  -37.4080 C   0  0  0  0  0  0  0  0  0  0  0  0
  2  1  1  0
  3  2  1  0
  4  2  2  0
  3  5  1  6
  3  6  1  0
  6  7  1  0
  7  8  2  0
  7  9  1  0
  8 10  1  0
  9 11  2  0
 12 10  2  0
 12 11  1  0
A    2
 C3 
A    3
 C1 
A    4
 O1 
A    6
 C2 
A    7
 C7 
A    8
 C12
A    9
 C18
A   10
 C22
A   11
 C23
A   12
 C20
M  END
>  <XChem_code>  (381) 
E22§1

>  <Occupancy>  (381) 
[1.0, 1.0, 1.0, 1.0, 1.0, 1.0, 1.0, 1.0, 1.0, 1.0, 1.0, 1.0, 1.0, 1.0, 1.0, 1.0, 1.0, 1.0, 1.0, 1.0, 1.0, 1.0, 1.0, 1.0, 1.0, 1.0, 1.0, 1.0, 1.0, 1.0, 1.0, 1.0, 1.0, 1.0, 1.0]

>  <TempFactor>  (381) 
[44.77, 46.95, 43.33, 43.58, 47.51, 47.9, 43.96, 46.53, 46.69, 77.84, 47.13, 39.22, 49.9, 43.36, 42.16, 75.89, 55.22, 72.09, 44.14, 43.03, 43.28, 76.01, 44.2, 62.42, 42.91, 44.07, 47.42, 45.41, 69.71, 44.62, 43.66, 46.14, 44.31, 70.66, 44.24]

>  <accession>  (381) 
5BPE_A

>  <description>  (381) 
Chain A, EV71 3Cpro [Enterovirus A71]

>  <evalue>  (381) 
1.3023100000000001e-85

>  <pdb_code>  (381) 
5BPE

>  <chain>  (381) 
A

>  <ligands>  (381) 
[{'chain_id': 'A', 'author_residue_number': 201, 'author_insertion_code': '', 'chem_comp_id': 'E22', 'alternate_conformers': 0, 'entity_id': 2, 'struct_asym_id': 'B', 'residue_number': 1, 'chem_comp_name': '(2~{S})-~{N}-[(1~{R},2~{S})-1-cyano-1-oxidanyl-3-[(3~{S})-2-oxidanylidenepiperidin-3-yl]propan-2-yl]-3-phenyl-2-[[(~{E})-3-phenylprop-2-enoyl]amino]propanamide', 'weight': 474.552, 'carbohydrate_polymer': False, 'branch_name': ''}]

>  <ligand_codes>  (381) 
['E22']

>  <cofactor_codes>  (381) 
[]

>  <has_cofactor>  (381) 
False

>  <covalent>  (381) 
False

>  <base_name>  (381) 
5BPE

>  <lig_resn>  (381) 
E22

>  <lig_resi>  (381) 
201

>  <lig_chain>  (381) 
A

>  <lig_segi>  (381) 
B

>  <lig_alt>  (381) 


>  <polymer_chain>  (381) 
A

>  <single_smiles>  (381) 
O[C@@H](C#N)[C@H](C[C@@H]1CCCNC1=O)NC(=O)[C@H](Cc2ccccc2)NC(=O)\C=C\c3ccccc3

$$$$
E22P1S12
     RDKit          3D

 11 11  0  0  0  0  0  0  0  0999 V2000
   -8.8710   10.8540  -34.2980 N   0  0  0  0  0  0  0  0  0  0  0  0
   -8.7700   11.9720  -35.1380 C   0  0  0  0  0  0  0  0  0  0  0  0
   -9.9190   12.9430  -35.2650 C   0  0  0  0  0  0  0  0  0  0  0  0
   -7.7360   12.1130  -35.7460 O   0  0  0  0  0  0  0  0  0  0  0  0
  -10.4120   12.8110  -36.6940 C   0  0  0  0  0  0  0  0  0  0  0  0
  -11.6540   13.6210  -36.9560 C   0  0  0  0  0  0  0  0  0  0  0  0
  -11.6660   14.5500  -37.9930 C   0  0  0  0  0  0  0  0  0  0  0  0
  -12.7700   13.4400  -36.1440 C   0  0  0  0  0  0  0  0  0  0  0  0
  -12.8090   15.3130  -38.2220 C   0  0  0  0  0  0  0  0  0  0  0  0
  -13.9210   14.1890  -36.3740 C   0  0  0  0  0  0  0  0  0  0  0  0
  -13.9340   15.1220  -37.4080 C   0  0  0  0  0  0  0  0  0  0  0  0
  2  1  1  0
  3  2  1  0
  4  2  2  0
  3  5  1  6
  5  6  1  0
  6  7  2  0
  6  8  1  0
  7  9  1  0
  8 10  2  0
 11  9  2  0
 11 10  1  0
A    2
 C3 
A    4
 O1 
A    5
 C2 
A    6
 C7 
A    7
 C12
A    8
 C18
A    9
 C22
A   10
 C23
A   11
 C20
M  END
>  <XChem_code>  (382) 
E22§1

>  <Occupancy>  (382) 
[1.0, 1.0, 1.0, 1.0, 1.0, 1.0, 1.0, 1.0, 1.0, 1.0, 1.0, 1.0, 1.0, 1.0, 1.0, 1.0, 1.0, 1.0, 1.0, 1.0, 1.0, 1.0, 1.0, 1.0, 1.0, 1.0, 1.0, 1.0, 1.0, 1.0, 1.0, 1.0, 1.0, 1.0, 1.0]

>  <TempFactor>  (382) 
[44.77, 46.95, 43.33, 43.58, 47.51, 47.9, 43.96, 46.53, 46.69, 77.84, 47.13, 39.22, 49.9, 43.36, 42.16, 75.89, 55.22, 72.09, 44.14, 43.03, 43.28, 76.01, 44.2, 62.42, 42.91, 44.07, 47.42, 45.41, 69.71, 44.62, 43.66, 46.14, 44.31, 70.66, 44.24]

>  <accession>  (382) 
5BPE_A

>  <description>  (382) 
Chain A, EV71 3Cpro [Enterovirus A71]

>  <evalue>  (382) 
1.3023100000000001e-85

>  <pdb_code>  (382) 
5BPE

>  <chain>  (382) 
A

>  <ligands>  (382) 
[{'chain_id': 'A', 'author_residue_number': 201, 'author_insertion_code': '', 'chem_comp_id': 'E22', 'alternate_conformers': 0, 'entity_id': 2, 'struct_asym_id': 'B', 'residue_number': 1, 'chem_comp_name': '(2~{S})-~{N}-[(1~{R},2~{S})-1-cyano-1-oxidanyl-3-[(3~{S})-2-oxidanylidenepiperidin-3-yl]propan-2-yl]-3-phenyl-2-[[(~{E})-3-phenylprop-2-enoyl]amino]propanamide', 'weight': 474.552, 'carbohydrate_polymer': False, 'branch_name': ''}]

>  <ligand_codes>  (382) 
['E22']

>  <cofactor_codes>  (382) 
[]

>  <has_cofactor>  (382) 
False

>  <covalent>  (382) 
False

>  <base_name>  (382) 
5BPE

>  <lig_resn>  (382) 
E22

>  <lig_resi>  (382) 
201

>  <lig_chain>  (382) 
A

>  <lig_segi>  (382) 
B

>  <lig_alt>  (382) 


>  <polymer_chain>  (382) 
A

>  <single_smiles>  (382) 
O[C@@H](C#N)[C@H](C[C@@H]1CCCNC1=O)NC(=O)[C@H](Cc2ccccc2)NC(=O)\C=C\c3ccccc3

$$$$
E22P1S13
     RDKit          3D

  7  7  0  0  0  0  0  0  0  0999 V2000
   -9.9570   17.1090  -33.0820 C   0  0  0  0  0  0  0  0  0  0  0  0
   -9.6410   18.4120  -32.3490 C   0  0  0  0  0  0  0  0  0  0  0  0
  -10.6660   19.0760  -31.6610 C   0  0  0  0  0  0  0  0  0  0  0  0
   -8.3610   18.9710  -32.3500 C   0  0  0  0  0  0  0  0  0  0  0  0
  -10.4320   20.2770  -30.9840 C   0  0  0  0  0  0  0  0  0  0  0  0
   -8.1180   20.1680  -31.6780 C   0  0  0  0  0  0  0  0  0  0  0  0
   -9.1480   20.8220  -30.9950 C   0  0  0  0  0  0  0  0  0  0  0  0
  1  2  1  0
  3  2  2  0
  2  4  1  0
  5  3  1  0
  6  4  2  0
  7  5  2  0
  7  6  1  0
A    2
 C21
A    3
 C14
A    4
 C26
A    5
 C8 
A    6
 C10
A    7
 C4 
M  END
>  <XChem_code>  (383) 
E22§1

>  <Occupancy>  (383) 
[1.0, 1.0, 1.0, 1.0, 1.0, 1.0, 1.0, 1.0, 1.0, 1.0, 1.0, 1.0, 1.0, 1.0, 1.0, 1.0, 1.0, 1.0, 1.0, 1.0, 1.0, 1.0, 1.0, 1.0, 1.0, 1.0, 1.0, 1.0, 1.0, 1.0, 1.0, 1.0, 1.0, 1.0, 1.0]

>  <TempFactor>  (383) 
[44.77, 46.95, 43.33, 43.58, 47.51, 47.9, 43.96, 46.53, 46.69, 77.84, 47.13, 39.22, 49.9, 43.36, 42.16, 75.89, 55.22, 72.09, 44.14, 43.03, 43.28, 76.01, 44.2, 62.42, 42.91, 44.07, 47.42, 45.41, 69.71, 44.62, 43.66, 46.14, 44.31, 70.66, 44.24]

>  <accession>  (383) 
5BPE_A

>  <description>  (383) 
Chain A, EV71 3Cpro [Enterovirus A71]

>  <evalue>  (383) 
1.3023100000000001e-85

>  <pdb_code>  (383) 
5BPE

>  <chain>  (383) 
A

>  <ligands>  (383) 
[{'chain_id': 'A', 'author_residue_number': 201, 'author_insertion_code': '', 'chem_comp_id': 'E22', 'alternate_conformers': 0, 'entity_id': 2, 'struct_asym_id': 'B', 'residue_number': 1, 'chem_comp_name': '(2~{S})-~{N}-[(1~{R},2~{S})-1-cyano-1-oxidanyl-3-[(3~{S})-2-oxidanylidenepiperidin-3-yl]propan-2-yl]-3-phenyl-2-[[(~{E})-3-phenylprop-2-enoyl]amino]propanamide', 'weight': 474.552, 'carbohydrate_polymer': False, 'branch_name': ''}]

>  <ligand_codes>  (383) 
['E22']

>  <cofactor_codes>  (383) 
[]

>  <has_cofactor>  (383) 
False

>  <covalent>  (383) 
False

>  <base_name>  (383) 
5BPE

>  <lig_resn>  (383) 
E22

>  <lig_resi>  (383) 
201

>  <lig_chain>  (383) 
A

>  <lig_segi>  (383) 
B

>  <lig_alt>  (383) 


>  <polymer_chain>  (383) 
A

>  <single_smiles>  (383) 
O[C@@H](C#N)[C@H](C[C@@H]1CCCNC1=O)NC(=O)[C@H](Cc2ccccc2)NC(=O)\C=C\c3ccccc3

$$$$
E22P1S14
     RDKit          3D

 28 29  0  0  0  0  0  0  0  0999 V2000
   -8.8010   16.1560  -33.3590 C   0  0  0  0  0  0  0  0  0  0  0  0
   -9.2290   14.7180  -33.6340 C   0  0  0  0  0  0  0  0  0  0  0  0
   -9.5160   14.2860  -34.9670 N   0  0  0  0  0  0  0  0  0  0  0  0
   -9.3150   13.9250  -32.7120 O   0  0  0  0  0  0  0  0  0  0  0  0
   -9.9190   12.9430  -35.2650 C   0  0  1  0  0  0  0  0  0  0  0  0
  -10.4120   12.8110  -36.6940 C   0  0  0  0  0  0  0  0  0  0  0  0
   -8.7700   11.9720  -35.1380 C   0  0  0  0  0  0  0  0  0  0  0  0
  -11.6540   13.6210  -36.9560 C   0  0  0  0  0  0  0  0  0  0  0  0
   -7.7360   12.1130  -35.7460 O   0  0  0  0  0  0  0  0  0  0  0  0
   -8.8710   10.8540  -34.2980 N   0  0  0  0  0  0  0  0  0  0  0  0
  -11.6660   14.5500  -37.9930 C   0  0  0  0  0  0  0  0  0  0  0  0
  -12.7700   13.4400  -36.1440 C   0  0  0  0  0  0  0  0  0  0  0  0
   -7.7760   10.0440  -34.2160 C   0  0  1  0  0  0  0  0  0  0  0  0
  -12.8090   15.3130  -38.2220 C   0  0  0  0  0  0  0  0  0  0  0  0
  -13.9210   14.1890  -36.3740 C   0  0  0  0  0  0  0  0  0  0  0  0
   -7.5860    9.9340  -32.5820 C   0  0  0  0  0  0  0  0  0  0  0  0
   -8.0510    8.9360  -35.1760 C   0  0  1  0  0  0  0  0  0  0  0  0
  -13.9340   15.1220  -37.4080 C   0  0  0  0  0  0  0  0  0  0  0  0
   -7.1210   11.2530  -31.8690 C   0  0  2  0  0  0  0  0  0  0  0  0
   -7.8270    9.3530  -36.4740 O   0  0  0  0  0  0  0  0  0  0  0  0
   -7.2430    7.7760  -34.8330 C   0  0  0  0  0  0  0  0  0  0  0  0
   -6.1370   11.9120  -32.4520 C   0  0  0  0  0  0  0  0  0  0  0  0
   -7.0220   10.9800  -30.3480 C   0  0  0  0  0  0  0  0  0  0  0  0
   -6.6380    6.9450  -34.6150 N   0  0  0  0  0  0  0  0  0  0  0  0
   -5.5830   13.0950  -31.6740 C   0  0  0  0  0  0  0  0  0  0  0  0
   -6.1930   11.9110  -29.6060 N   0  0  0  0  0  0  0  0  0  0  0  0
   -7.6220    9.9280  -29.8110 O   0  0  0  0  0  0  0  0  0  0  0  0
   -5.1120   12.6510  -30.2840 C   0  0  0  0  0  0  0  0  0  0  0  0
  2  1  1  0
  3  2  1  0
  4  2  2  0
  5  3  1  0
  5  6  1  6
  5  7  1  0
  6  8  1  0
  9  7  2  0
  7 10  1  0
  8 11  2  0
  8 12  1  0
 10 13  1  0
 11 14  1  0
 12 15  2  0
 13 16  1  1
 13 17  1  0
 18 14  2  0
 18 15  1  0
 19 16  1  6
 17 20  1  6
 21 17  1  0
 22 19  1  0
 23 19  1  0
 24 21  3  0
 25 22  1  0
 26 23  1  0
 27 23  2  0
 25 28  1  0
 26 28  1  0
A    2
 C5 
A    3
 N1 
A    4
 O2 
A    5
 C1 
A    6
 C2 
A    7
 C3 
A    8
 C7 
A    9
 O1 
A   10
 N3 
A   11
 C12
A   12
 C18
A   13
 C11
A   14
 C22
A   15
 C23
A   16
 C17
A   17
 C24
A   18
 C20
A   19
 C25
A   20
 O3 
A   21
 C19
A   22
 C13
A   23
 C15
A   24
 N2 
A   25
 C6 
A   26
 N4 
A   27
 O4 
A   28
 C27
M  END
>  <XChem_code>  (384) 
E22§1

>  <Occupancy>  (384) 
[1.0, 1.0, 1.0, 1.0, 1.0, 1.0, 1.0, 1.0, 1.0, 1.0, 1.0, 1.0, 1.0, 1.0, 1.0, 1.0, 1.0, 1.0, 1.0, 1.0, 1.0, 1.0, 1.0, 1.0, 1.0, 1.0, 1.0, 1.0, 1.0, 1.0, 1.0, 1.0, 1.0, 1.0, 1.0]

>  <TempFactor>  (384) 
[44.77, 46.95, 43.33, 43.58, 47.51, 47.9, 43.96, 46.53, 46.69, 77.84, 47.13, 39.22, 49.9, 43.36, 42.16, 75.89, 55.22, 72.09, 44.14, 43.03, 43.28, 76.01, 44.2, 62.42, 42.91, 44.07, 47.42, 45.41, 69.71, 44.62, 43.66, 46.14, 44.31, 70.66, 44.24]

>  <accession>  (384) 
5BPE_A

>  <description>  (384) 
Chain A, EV71 3Cpro [Enterovirus A71]

>  <evalue>  (384) 
1.3023100000000001e-85

>  <pdb_code>  (384) 
5BPE

>  <chain>  (384) 
A

>  <ligands>  (384) 
[{'chain_id': 'A', 'author_residue_number': 201, 'author_insertion_code': '', 'chem_comp_id': 'E22', 'alternate_conformers': 0, 'entity_id': 2, 'struct_asym_id': 'B', 'residue_number': 1, 'chem_comp_name': '(2~{S})-~{N}-[(1~{R},2~{S})-1-cyano-1-oxidanyl-3-[(3~{S})-2-oxidanylidenepiperidin-3-yl]propan-2-yl]-3-phenyl-2-[[(~{E})-3-phenylprop-2-enoyl]amino]propanamide', 'weight': 474.552, 'carbohydrate_polymer': False, 'branch_name': ''}]

>  <ligand_codes>  (384) 
['E22']

>  <cofactor_codes>  (384) 
[]

>  <has_cofactor>  (384) 
False

>  <covalent>  (384) 
False

>  <base_name>  (384) 
5BPE

>  <lig_resn>  (384) 
E22

>  <lig_resi>  (384) 
201

>  <lig_chain>  (384) 
A

>  <lig_segi>  (384) 
B

>  <lig_alt>  (384) 


>  <polymer_chain>  (384) 
A

>  <single_smiles>  (384) 
O[C@@H](C#N)[C@H](C[C@@H]1CCCNC1=O)NC(=O)[C@H](Cc2ccccc2)NC(=O)\C=C\c3ccccc3

$$$$
E22P1S15
     RDKit          3D

 14 14  0  0  0  0  0  0  0  0999 V2000
   -8.8010   16.1560  -33.3590 C   0  0  0  0  0  0  0  0  0  0  0  0
   -9.2290   14.7180  -33.6340 C   0  0  0  0  0  0  0  0  0  0  0  0
   -9.5160   14.2860  -34.9670 N   0  0  0  0  0  0  0  0  0  0  0  0
   -9.3150   13.9250  -32.7120 O   0  0  0  0  0  0  0  0  0  0  0  0
   -9.9190   12.9430  -35.2650 C   0  0  2  0  0  0  0  0  0  0  0  0
   -8.7700   11.9720  -35.1380 C   0  0  0  0  0  0  0  0  0  0  0  0
  -10.4120   12.8110  -36.6940 C   0  0  0  0  0  0  0  0  0  0  0  0
   -7.7360   12.1130  -35.7460 O   0  0  0  0  0  0  0  0  0  0  0  0
  -11.6540   13.6210  -36.9560 C   0  0  0  0  0  0  0  0  0  0  0  0
  -11.6660   14.5500  -37.9930 C   0  0  0  0  0  0  0  0  0  0  0  0
  -12.7700   13.4400  -36.1440 C   0  0  0  0  0  0  0  0  0  0  0  0
  -12.8090   15.3130  -38.2220 C   0  0  0  0  0  0  0  0  0  0  0  0
  -13.9210   14.1890  -36.3740 C   0  0  0  0  0  0  0  0  0  0  0  0
  -13.9340   15.1220  -37.4080 C   0  0  0  0  0  0  0  0  0  0  0  0
  2  1  1  0
  3  2  1  0
  4  2  2  0
  5  3  1  0
  5  6  1  0
  5  7  1  6
  8  6  2  0
  7  9  1  0
  9 10  2  0
  9 11  1  0
 10 12  1  0
 11 13  2  0
 14 12  2  0
 14 13  1  0
A    2
 C5 
A    3
 N1 
A    4
 O2 
A    5
 C1 
A    7
 C2 
A    8
 O1 
A    9
 C7 
A   10
 C12
A   11
 C18
A   12
 C22
A   13
 C23
A   14
 C20
M  END
>  <XChem_code>  (385) 
E22§1

>  <Occupancy>  (385) 
[1.0, 1.0, 1.0, 1.0, 1.0, 1.0, 1.0, 1.0, 1.0, 1.0, 1.0, 1.0, 1.0, 1.0, 1.0, 1.0, 1.0, 1.0, 1.0, 1.0, 1.0, 1.0, 1.0, 1.0, 1.0, 1.0, 1.0, 1.0, 1.0, 1.0, 1.0, 1.0, 1.0, 1.0, 1.0]

>  <TempFactor>  (385) 
[44.77, 46.95, 43.33, 43.58, 47.51, 47.9, 43.96, 46.53, 46.69, 77.84, 47.13, 39.22, 49.9, 43.36, 42.16, 75.89, 55.22, 72.09, 44.14, 43.03, 43.28, 76.01, 44.2, 62.42, 42.91, 44.07, 47.42, 45.41, 69.71, 44.62, 43.66, 46.14, 44.31, 70.66, 44.24]

>  <accession>  (385) 
5BPE_A

>  <description>  (385) 
Chain A, EV71 3Cpro [Enterovirus A71]

>  <evalue>  (385) 
1.3023100000000001e-85

>  <pdb_code>  (385) 
5BPE

>  <chain>  (385) 
A

>  <ligands>  (385) 
[{'chain_id': 'A', 'author_residue_number': 201, 'author_insertion_code': '', 'chem_comp_id': 'E22', 'alternate_conformers': 0, 'entity_id': 2, 'struct_asym_id': 'B', 'residue_number': 1, 'chem_comp_name': '(2~{S})-~{N}-[(1~{R},2~{S})-1-cyano-1-oxidanyl-3-[(3~{S})-2-oxidanylidenepiperidin-3-yl]propan-2-yl]-3-phenyl-2-[[(~{E})-3-phenylprop-2-enoyl]amino]propanamide', 'weight': 474.552, 'carbohydrate_polymer': False, 'branch_name': ''}]

>  <ligand_codes>  (385) 
['E22']

>  <cofactor_codes>  (385) 
[]

>  <has_cofactor>  (385) 
False

>  <covalent>  (385) 
False

>  <base_name>  (385) 
5BPE

>  <lig_resn>  (385) 
E22

>  <lig_resi>  (385) 
201

>  <lig_chain>  (385) 
A

>  <lig_segi>  (385) 
B

>  <lig_alt>  (385) 


>  <polymer_chain>  (385) 
A

>  <single_smiles>  (385) 
O[C@@H](C#N)[C@H](C[C@@H]1CCCNC1=O)NC(=O)[C@H](Cc2ccccc2)NC(=O)\C=C\c3ccccc3

$$$$
E22P1S16
     RDKit          3D

  4  3  0  0  0  0  0  0  0  0999 V2000
   -8.8010   16.1560  -33.3590 C   0  0  0  0  0  0  0  0  0  0  0  0
   -9.2290   14.7180  -33.6340 C   0  0  0  0  0  0  0  0  0  0  0  0
   -9.5160   14.2860  -34.9670 N   0  0  0  0  0  0  0  0  0  0  0  0
   -9.3150   13.9250  -32.7120 O   0  0  0  0  0  0  0  0  0  0  0  0
  2  1  1  0
  3  2  1  0
  4  2  2  0
A    2
 C5 
A    4
 O2 
M  END
>  <XChem_code>  (386) 
E22§1

>  <Occupancy>  (386) 
[1.0, 1.0, 1.0, 1.0, 1.0, 1.0, 1.0, 1.0, 1.0, 1.0, 1.0, 1.0, 1.0, 1.0, 1.0, 1.0, 1.0, 1.0, 1.0, 1.0, 1.0, 1.0, 1.0, 1.0, 1.0, 1.0, 1.0, 1.0, 1.0, 1.0, 1.0, 1.0, 1.0, 1.0, 1.0]

>  <TempFactor>  (386) 
[44.77, 46.95, 43.33, 43.58, 47.51, 47.9, 43.96, 46.53, 46.69, 77.84, 47.13, 39.22, 49.9, 43.36, 42.16, 75.89, 55.22, 72.09, 44.14, 43.03, 43.28, 76.01, 44.2, 62.42, 42.91, 44.07, 47.42, 45.41, 69.71, 44.62, 43.66, 46.14, 44.31, 70.66, 44.24]

>  <accession>  (386) 
5BPE_A

>  <description>  (386) 
Chain A, EV71 3Cpro [Enterovirus A71]

>  <evalue>  (386) 
1.3023100000000001e-85

>  <pdb_code>  (386) 
5BPE

>  <chain>  (386) 
A

>  <ligands>  (386) 
[{'chain_id': 'A', 'author_residue_number': 201, 'author_insertion_code': '', 'chem_comp_id': 'E22', 'alternate_conformers': 0, 'entity_id': 2, 'struct_asym_id': 'B', 'residue_number': 1, 'chem_comp_name': '(2~{S})-~{N}-[(1~{R},2~{S})-1-cyano-1-oxidanyl-3-[(3~{S})-2-oxidanylidenepiperidin-3-yl]propan-2-yl]-3-phenyl-2-[[(~{E})-3-phenylprop-2-enoyl]amino]propanamide', 'weight': 474.552, 'carbohydrate_polymer': False, 'branch_name': ''}]

>  <ligand_codes>  (386) 
['E22']

>  <cofactor_codes>  (386) 
[]

>  <has_cofactor>  (386) 
False

>  <covalent>  (386) 
False

>  <base_name>  (386) 
5BPE

>  <lig_resn>  (386) 
E22

>  <lig_resi>  (386) 
201

>  <lig_chain>  (386) 
A

>  <lig_segi>  (386) 
B

>  <lig_alt>  (386) 


>  <polymer_chain>  (386) 
A

>  <single_smiles>  (386) 
O[C@@H](C#N)[C@H](C[C@@H]1CCCNC1=O)NC(=O)[C@H](Cc2ccccc2)NC(=O)\C=C\c3ccccc3

$$$$
E22P1S17
     RDKit          3D

 15 15  0  0  0  0  0  0  0  0999 V2000
   -8.8010   16.1560  -33.3590 C   0  0  0  0  0  0  0  0  0  0  0  0
   -9.2290   14.7180  -33.6340 C   0  0  0  0  0  0  0  0  0  0  0  0
   -9.5160   14.2860  -34.9670 N   0  0  0  0  0  0  0  0  0  0  0  0
   -9.3150   13.9250  -32.7120 O   0  0  0  0  0  0  0  0  0  0  0  0
   -9.9190   12.9430  -35.2650 C   0  0  2  0  0  0  0  0  0  0  0  0
   -8.7700   11.9720  -35.1380 C   0  0  0  0  0  0  0  0  0  0  0  0
  -10.4120   12.8110  -36.6940 C   0  0  0  0  0  0  0  0  0  0  0  0
   -8.8710   10.8540  -34.2980 N   0  0  0  0  0  0  0  0  0  0  0  0
   -7.7360   12.1130  -35.7460 O   0  0  0  0  0  0  0  0  0  0  0  0
  -11.6540   13.6210  -36.9560 C   0  0  0  0  0  0  0  0  0  0  0  0
  -11.6660   14.5500  -37.9930 C   0  0  0  0  0  0  0  0  0  0  0  0
  -12.7700   13.4400  -36.1440 C   0  0  0  0  0  0  0  0  0  0  0  0
  -12.8090   15.3130  -38.2220 C   0  0  0  0  0  0  0  0  0  0  0  0
  -13.9210   14.1890  -36.3740 C   0  0  0  0  0  0  0  0  0  0  0  0
  -13.9340   15.1220  -37.4080 C   0  0  0  0  0  0  0  0  0  0  0  0
  2  1  1  0
  3  2  1  0
  4  2  2  0
  5  3  1  0
  5  6  1  0
  5  7  1  6
  6  8  1  0
  9  6  2  0
  7 10  1  0
 10 11  2  0
 10 12  1  0
 11 13  1  0
 12 14  2  0
 15 13  2  0
 15 14  1  0
A    2
 C5 
A    3
 N1 
A    4
 O2 
A    5
 C1 
A    6
 C3 
A    7
 C2 
A    9
 O1 
A   10
 C7 
A   11
 C12
A   12
 C18
A   13
 C22
A   14
 C23
A   15
 C20
M  END
>  <XChem_code>  (387) 
E22§1

>  <Occupancy>  (387) 
[1.0, 1.0, 1.0, 1.0, 1.0, 1.0, 1.0, 1.0, 1.0, 1.0, 1.0, 1.0, 1.0, 1.0, 1.0, 1.0, 1.0, 1.0, 1.0, 1.0, 1.0, 1.0, 1.0, 1.0, 1.0, 1.0, 1.0, 1.0, 1.0, 1.0, 1.0, 1.0, 1.0, 1.0, 1.0]

>  <TempFactor>  (387) 
[44.77, 46.95, 43.33, 43.58, 47.51, 47.9, 43.96, 46.53, 46.69, 77.84, 47.13, 39.22, 49.9, 43.36, 42.16, 75.89, 55.22, 72.09, 44.14, 43.03, 43.28, 76.01, 44.2, 62.42, 42.91, 44.07, 47.42, 45.41, 69.71, 44.62, 43.66, 46.14, 44.31, 70.66, 44.24]

>  <accession>  (387) 
5BPE_A

>  <description>  (387) 
Chain A, EV71 3Cpro [Enterovirus A71]

>  <evalue>  (387) 
1.3023100000000001e-85

>  <pdb_code>  (387) 
5BPE

>  <chain>  (387) 
A

>  <ligands>  (387) 
[{'chain_id': 'A', 'author_residue_number': 201, 'author_insertion_code': '', 'chem_comp_id': 'E22', 'alternate_conformers': 0, 'entity_id': 2, 'struct_asym_id': 'B', 'residue_number': 1, 'chem_comp_name': '(2~{S})-~{N}-[(1~{R},2~{S})-1-cyano-1-oxidanyl-3-[(3~{S})-2-oxidanylidenepiperidin-3-yl]propan-2-yl]-3-phenyl-2-[[(~{E})-3-phenylprop-2-enoyl]amino]propanamide', 'weight': 474.552, 'carbohydrate_polymer': False, 'branch_name': ''}]

>  <ligand_codes>  (387) 
['E22']

>  <cofactor_codes>  (387) 
[]

>  <has_cofactor>  (387) 
False

>  <covalent>  (387) 
False

>  <base_name>  (387) 
5BPE

>  <lig_resn>  (387) 
E22

>  <lig_resi>  (387) 
201

>  <lig_chain>  (387) 
A

>  <lig_segi>  (387) 
B

>  <lig_alt>  (387) 


>  <polymer_chain>  (387) 
A

>  <single_smiles>  (387) 
O[C@@H](C#N)[C@H](C[C@@H]1CCCNC1=O)NC(=O)[C@H](Cc2ccccc2)NC(=O)\C=C\c3ccccc3

$$$$
E22P1S18
     RDKit          3D

  7  7  0  0  0  0  0  0  0  0999 V2000
   -7.1210   11.2530  -31.8690 C   0  0  0  0  0  0  0  0  0  0  0  0
   -6.1370   11.9120  -32.4520 C   0  0  0  0  0  0  0  0  0  0  0  0
   -7.0220   10.9800  -30.3480 C   0  0  0  0  0  0  0  0  0  0  0  0
   -5.5830   13.0950  -31.6740 C   0  0  0  0  0  0  0  0  0  0  0  0
   -6.1930   11.9110  -29.6060 N   0  0  0  0  0  0  0  0  0  0  0  0
   -7.6220    9.9280  -29.8110 O   0  0  0  0  0  0  0  0  0  0  0  0
   -5.1120   12.6510  -30.2840 C   0  0  0  0  0  0  0  0  0  0  0  0
  1  2  1  1
  3  1  1  0
  4  2  1  0
  5  3  1  0
  6  3  2  0
  4  7  1  0
  5  7  1  0
A    2
 C13
A    3
 C15
A    4
 C6 
A    5
 N4 
A    6
 O4 
A    7
 C27
M  END
>  <XChem_code>  (388) 
E22§1

>  <Occupancy>  (388) 
[1.0, 1.0, 1.0, 1.0, 1.0, 1.0, 1.0, 1.0, 1.0, 1.0, 1.0, 1.0, 1.0, 1.0, 1.0, 1.0, 1.0, 1.0, 1.0, 1.0, 1.0, 1.0, 1.0, 1.0, 1.0, 1.0, 1.0, 1.0, 1.0, 1.0, 1.0, 1.0, 1.0, 1.0, 1.0]

>  <TempFactor>  (388) 
[44.77, 46.95, 43.33, 43.58, 47.51, 47.9, 43.96, 46.53, 46.69, 77.84, 47.13, 39.22, 49.9, 43.36, 42.16, 75.89, 55.22, 72.09, 44.14, 43.03, 43.28, 76.01, 44.2, 62.42, 42.91, 44.07, 47.42, 45.41, 69.71, 44.62, 43.66, 46.14, 44.31, 70.66, 44.24]

>  <accession>  (388) 
5BPE_A

>  <description>  (388) 
Chain A, EV71 3Cpro [Enterovirus A71]

>  <evalue>  (388) 
1.3023100000000001e-85

>  <pdb_code>  (388) 
5BPE

>  <chain>  (388) 
A

>  <ligands>  (388) 
[{'chain_id': 'A', 'author_residue_number': 201, 'author_insertion_code': '', 'chem_comp_id': 'E22', 'alternate_conformers': 0, 'entity_id': 2, 'struct_asym_id': 'B', 'residue_number': 1, 'chem_comp_name': '(2~{S})-~{N}-[(1~{R},2~{S})-1-cyano-1-oxidanyl-3-[(3~{S})-2-oxidanylidenepiperidin-3-yl]propan-2-yl]-3-phenyl-2-[[(~{E})-3-phenylprop-2-enoyl]amino]propanamide', 'weight': 474.552, 'carbohydrate_polymer': False, 'branch_name': ''}]

>  <ligand_codes>  (388) 
['E22']

>  <cofactor_codes>  (388) 
[]

>  <has_cofactor>  (388) 
False

>  <covalent>  (388) 
False

>  <base_name>  (388) 
5BPE

>  <lig_resn>  (388) 
E22

>  <lig_resi>  (388) 
201

>  <lig_chain>  (388) 
A

>  <lig_segi>  (388) 
B

>  <lig_alt>  (388) 


>  <polymer_chain>  (388) 
A

>  <single_smiles>  (388) 
O[C@@H](C#N)[C@H](C[C@@H]1CCCNC1=O)NC(=O)[C@H](Cc2ccccc2)NC(=O)\C=C\c3ccccc3

$$$$
E22P1S19
     RDKit          3D

 28 29  0  0  0  0  0  0  0  0999 V2000
   -7.5860    9.9340  -32.5820 C   0  0  0  0  0  0  0  0  0  0  0  0
   -7.7760   10.0440  -34.2160 C   0  0  2  0  0  0  0  0  0  0  0  0
   -8.8710   10.8540  -34.2980 N   0  0  0  0  0  0  0  0  0  0  0  0
   -8.0510    8.9360  -35.1760 C   0  0  1  0  0  0  0  0  0  0  0  0
   -8.7700   11.9720  -35.1380 C   0  0  0  0  0  0  0  0  0  0  0  0
   -7.8270    9.3530  -36.4740 O   0  0  0  0  0  0  0  0  0  0  0  0
   -7.2430    7.7760  -34.8330 C   0  0  0  0  0  0  0  0  0  0  0  0
   -9.9190   12.9430  -35.2650 C   0  0  2  0  0  0  0  0  0  0  0  0
   -7.7360   12.1130  -35.7460 O   0  0  0  0  0  0  0  0  0  0  0  0
   -6.6380    6.9450  -34.6150 N   0  0  0  0  0  0  0  0  0  0  0  0
  -10.4120   12.8110  -36.6940 C   0  0  0  0  0  0  0  0  0  0  0  0
   -9.5160   14.2860  -34.9670 N   0  0  0  0  0  0  0  0  0  0  0  0
  -11.6540   13.6210  -36.9560 C   0  0  0  0  0  0  0  0  0  0  0  0
   -9.2290   14.7180  -33.6340 C   0  0  0  0  0  0  0  0  0  0  0  0
  -11.6660   14.5500  -37.9930 C   0  0  0  0  0  0  0  0  0  0  0  0
  -12.7700   13.4400  -36.1440 C   0  0  0  0  0  0  0  0  0  0  0  0
   -9.3150   13.9250  -32.7120 O   0  0  0  0  0  0  0  0  0  0  0  0
   -8.8010   16.1560  -33.3590 C   0  0  0  0  0  0  0  0  0  0  0  0
  -12.8090   15.3130  -38.2220 C   0  0  0  0  0  0  0  0  0  0  0  0
  -13.9210   14.1890  -36.3740 C   0  0  0  0  0  0  0  0  0  0  0  0
   -9.9570   17.1090  -33.0820 C   0  0  0  0  0  0  0  0  0  0  0  0
  -13.9340   15.1220  -37.4080 C   0  0  0  0  0  0  0  0  0  0  0  0
   -9.6410   18.4120  -32.3490 C   0  0  0  0  0  0  0  0  0  0  0  0
  -10.6660   19.0760  -31.6610 C   0  0  0  0  0  0  0  0  0  0  0  0
   -8.3610   18.9710  -32.3500 C   0  0  0  0  0  0  0  0  0  0  0  0
  -10.4320   20.2770  -30.9840 C   0  0  0  0  0  0  0  0  0  0  0  0
   -8.1180   20.1680  -31.6780 C   0  0  0  0  0  0  0  0  0  0  0  0
   -9.1480   20.8220  -30.9950 C   0  0  0  0  0  0  0  0  0  0  0  0
  2  1  1  1
  3  2  1  0
  2  4  1  0
  5  3  1  0
  4  6  1  6
  7  4  1  0
  8  5  1  0
  9  5  2  0
 10  7  3  0
  8 11  1  6
  8 12  1  0
 11 13  1  0
 12 14  1  0
 13 15  2  0
 13 16  1  0
 17 14  2  0
 14 18  1  0
 15 19  1  0
 16 20  2  0
 18 21  2  3
 22 19  2  0
 22 20  1  0
 21 23  1  0
 24 23  2  0
 23 25  1  0
 26 24  1  0
 27 25  2  0
 28 26  2  0
 28 27  1  0
A    2
 C11
A    3
 N3 
A    4
 C24
A    5
 C3 
A    6
 O3 
A    7
 C19
A    8
 C1 
A    9
 O1 
A   10
 N2 
A   11
 C2 
A   12
 N1 
A   13
 C7 
A   14
 C5 
A   15
 C12
A   16
 C18
A   17
 O2 
A   18
 C9 
A   19
 C22
A   20
 C23
A   21
 C16
A   22
 C20
A   23
 C21
A   24
 C14
A   25
 C26
A   26
 C8 
A   27
 C10
A   28
 C4 
M  END
>  <XChem_code>  (389) 
E22§1

>  <Occupancy>  (389) 
[1.0, 1.0, 1.0, 1.0, 1.0, 1.0, 1.0, 1.0, 1.0, 1.0, 1.0, 1.0, 1.0, 1.0, 1.0, 1.0, 1.0, 1.0, 1.0, 1.0, 1.0, 1.0, 1.0, 1.0, 1.0, 1.0, 1.0, 1.0, 1.0, 1.0, 1.0, 1.0, 1.0, 1.0, 1.0]

>  <TempFactor>  (389) 
[44.77, 46.95, 43.33, 43.58, 47.51, 47.9, 43.96, 46.53, 46.69, 77.84, 47.13, 39.22, 49.9, 43.36, 42.16, 75.89, 55.22, 72.09, 44.14, 43.03, 43.28, 76.01, 44.2, 62.42, 42.91, 44.07, 47.42, 45.41, 69.71, 44.62, 43.66, 46.14, 44.31, 70.66, 44.24]

>  <accession>  (389) 
5BPE_A

>  <description>  (389) 
Chain A, EV71 3Cpro [Enterovirus A71]

>  <evalue>  (389) 
1.3023100000000001e-85

>  <pdb_code>  (389) 
5BPE

>  <chain>  (389) 
A

>  <ligands>  (389) 
[{'chain_id': 'A', 'author_residue_number': 201, 'author_insertion_code': '', 'chem_comp_id': 'E22', 'alternate_conformers': 0, 'entity_id': 2, 'struct_asym_id': 'B', 'residue_number': 1, 'chem_comp_name': '(2~{S})-~{N}-[(1~{R},2~{S})-1-cyano-1-oxidanyl-3-[(3~{S})-2-oxidanylidenepiperidin-3-yl]propan-2-yl]-3-phenyl-2-[[(~{E})-3-phenylprop-2-enoyl]amino]propanamide', 'weight': 474.552, 'carbohydrate_polymer': False, 'branch_name': ''}]

>  <ligand_codes>  (389) 
['E22']

>  <cofactor_codes>  (389) 
[]

>  <has_cofactor>  (389) 
False

>  <covalent>  (389) 
False

>  <base_name>  (389) 
5BPE

>  <lig_resn>  (389) 
E22

>  <lig_resi>  (389) 
201

>  <lig_chain>  (389) 
A

>  <lig_segi>  (389) 
B

>  <lig_alt>  (389) 


>  <polymer_chain>  (389) 
A

>  <single_smiles>  (389) 
O[C@@H](C#N)[C@H](C[C@@H]1CCCNC1=O)NC(=O)[C@H](Cc2ccccc2)NC(=O)\C=C\c3ccccc3

$$$$
E22P1S20
     RDKit          3D

  6  6  0  0  0  0  0  0  0  0999 V2000
  -11.6540   13.6210  -36.9560 C   0  0  0  0  0  0  0  0  0  0  0  0
  -11.6660   14.5500  -37.9930 C   0  0  0  0  0  0  0  0  0  0  0  0
  -12.7700   13.4400  -36.1440 C   0  0  0  0  0  0  0  0  0  0  0  0
  -12.8090   15.3130  -38.2220 C   0  0  0  0  0  0  0  0  0  0  0  0
  -13.9210   14.1890  -36.3740 C   0  0  0  0  0  0  0  0  0  0  0  0
  -13.9340   15.1220  -37.4080 C   0  0  0  0  0  0  0  0  0  0  0  0
  1  2  2  0
  1  3  1  0
  2  4  1  0
  3  5  2  0
  6  4  2  0
  6  5  1  0
A    2
 C12
A    3
 C18
A    4
 C22
A    5
 C23
A    6
 C20
M  END
>  <XChem_code>  (390) 
E22§1

>  <Occupancy>  (390) 
[1.0, 1.0, 1.0, 1.0, 1.0, 1.0, 1.0, 1.0, 1.0, 1.0, 1.0, 1.0, 1.0, 1.0, 1.0, 1.0, 1.0, 1.0, 1.0, 1.0, 1.0, 1.0, 1.0, 1.0, 1.0, 1.0, 1.0, 1.0, 1.0, 1.0, 1.0, 1.0, 1.0, 1.0, 1.0]

>  <TempFactor>  (390) 
[44.77, 46.95, 43.33, 43.58, 47.51, 47.9, 43.96, 46.53, 46.69, 77.84, 47.13, 39.22, 49.9, 43.36, 42.16, 75.89, 55.22, 72.09, 44.14, 43.03, 43.28, 76.01, 44.2, 62.42, 42.91, 44.07, 47.42, 45.41, 69.71, 44.62, 43.66, 46.14, 44.31, 70.66, 44.24]

>  <accession>  (390) 
5BPE_A

>  <description>  (390) 
Chain A, EV71 3Cpro [Enterovirus A71]

>  <evalue>  (390) 
1.3023100000000001e-85

>  <pdb_code>  (390) 
5BPE

>  <chain>  (390) 
A

>  <ligands>  (390) 
[{'chain_id': 'A', 'author_residue_number': 201, 'author_insertion_code': '', 'chem_comp_id': 'E22', 'alternate_conformers': 0, 'entity_id': 2, 'struct_asym_id': 'B', 'residue_number': 1, 'chem_comp_name': '(2~{S})-~{N}-[(1~{R},2~{S})-1-cyano-1-oxidanyl-3-[(3~{S})-2-oxidanylidenepiperidin-3-yl]propan-2-yl]-3-phenyl-2-[[(~{E})-3-phenylprop-2-enoyl]amino]propanamide', 'weight': 474.552, 'carbohydrate_polymer': False, 'branch_name': ''}]

>  <ligand_codes>  (390) 
['E22']

>  <cofactor_codes>  (390) 
[]

>  <has_cofactor>  (390) 
False

>  <covalent>  (390) 
False

>  <base_name>  (390) 
5BPE

>  <lig_resn>  (390) 
E22

>  <lig_resi>  (390) 
201

>  <lig_chain>  (390) 
A

>  <lig_segi>  (390) 
B

>  <lig_alt>  (390) 


>  <polymer_chain>  (390) 
A

>  <single_smiles>  (390) 
O[C@@H](C#N)[C@H](C[C@@H]1CCCNC1=O)NC(=O)[C@H](Cc2ccccc2)NC(=O)\C=C\c3ccccc3

$$$$
E22P1S21
     RDKit          3D

 29 30  0  0  0  0  0  0  0  0999 V2000
  -10.4120   12.8110  -36.6940 C   0  0  0  0  0  0  0  0  0  0  0  0
   -9.9190   12.9430  -35.2650 C   0  0  1  0  0  0  0  0  0  0  0  0
   -8.7700   11.9720  -35.1380 C   0  0  0  0  0  0  0  0  0  0  0  0
   -9.5160   14.2860  -34.9670 N   0  0  0  0  0  0  0  0  0  0  0  0
   -7.7360   12.1130  -35.7460 O   0  0  0  0  0  0  0  0  0  0  0  0
   -8.8710   10.8540  -34.2980 N   0  0  0  0  0  0  0  0  0  0  0  0
   -9.2290   14.7180  -33.6340 C   0  0  0  0  0  0  0  0  0  0  0  0
   -7.7760   10.0440  -34.2160 C   0  0  1  0  0  0  0  0  0  0  0  0
   -9.3150   13.9250  -32.7120 O   0  0  0  0  0  0  0  0  0  0  0  0
   -8.8010   16.1560  -33.3590 C   0  0  0  0  0  0  0  0  0  0  0  0
   -7.5860    9.9340  -32.5820 C   0  0  0  0  0  0  0  0  0  0  0  0
   -8.0510    8.9360  -35.1760 C   0  0  1  0  0  0  0  0  0  0  0  0
   -9.9570   17.1090  -33.0820 C   0  0  0  0  0  0  0  0  0  0  0  0
   -7.1210   11.2530  -31.8690 C   0  0  2  0  0  0  0  0  0  0  0  0
   -7.8270    9.3530  -36.4740 O   0  0  0  0  0  0  0  0  0  0  0  0
   -7.2430    7.7760  -34.8330 C   0  0  0  0  0  0  0  0  0  0  0  0
   -9.6410   18.4120  -32.3490 C   0  0  0  0  0  0  0  0  0  0  0  0
   -6.1370   11.9120  -32.4520 C   0  0  0  0  0  0  0  0  0  0  0  0
   -7.0220   10.9800  -30.3480 C   0  0  0  0  0  0  0  0  0  0  0  0
   -6.6380    6.9450  -34.6150 N   0  0  0  0  0  0  0  0  0  0  0  0
  -10.6660   19.0760  -31.6610 C   0  0  0  0  0  0  0  0  0  0  0  0
   -8.3610   18.9710  -32.3500 C   0  0  0  0  0  0  0  0  0  0  0  0
   -5.5830   13.0950  -31.6740 C   0  0  0  0  0  0  0  0  0  0  0  0
   -6.1930   11.9110  -29.6060 N   0  0  0  0  0  0  0  0  0  0  0  0
   -7.6220    9.9280  -29.8110 O   0  0  0  0  0  0  0  0  0  0  0  0
  -10.4320   20.2770  -30.9840 C   0  0  0  0  0  0  0  0  0  0  0  0
   -8.1180   20.1680  -31.6780 C   0  0  0  0  0  0  0  0  0  0  0  0
   -5.1120   12.6510  -30.2840 C   0  0  0  0  0  0  0  0  0  0  0  0
   -9.1480   20.8220  -30.9950 C   0  0  0  0  0  0  0  0  0  0  0  0
  2  1  1  6
  2  3  1  0
  2  4  1  0
  5  3  2  0
  3  6  1  0
  4  7  1  0
  6  8  1  0
  9  7  2  0
  7 10  1  0
  8 11  1  1
  8 12  1  0
 10 13  2  3
 14 11  1  6
 12 15  1  6
 16 12  1  0
 13 17  1  0
 18 14  1  0
 19 14  1  0
 20 16  3  0
 21 17  2  0
 17 22  1  0
 23 18  1  0
 24 19  1  0
 25 19  2  0
 26 21  1  0
 27 22  2  0
 23 28  1  0
 24 28  1  0
 29 26  2  0
 29 27  1  0
A    2
 C1 
A    3
 C3 
A    4
 N1 
A    5
 O1 
A    6
 N3 
A    7
 C5 
A    8
 C11
A    9
 O2 
A   10
 C9 
A   11
 C17
A   12
 C24
A   13
 C16
A   14
 C25
A   15
 O3 
A   16
 C19
A   17
 C21
A   18
 C13
A   19
 C15
A   20
 N2 
A   21
 C14
A   22
 C26
A   23
 C6 
A   24
 N4 
A   25
 O4 
A   26
 C8 
A   27
 C10
A   28
 C27
A   29
 C4 
M  END
>  <XChem_code>  (391) 
E22§1

>  <Occupancy>  (391) 
[1.0, 1.0, 1.0, 1.0, 1.0, 1.0, 1.0, 1.0, 1.0, 1.0, 1.0, 1.0, 1.0, 1.0, 1.0, 1.0, 1.0, 1.0, 1.0, 1.0, 1.0, 1.0, 1.0, 1.0, 1.0, 1.0, 1.0, 1.0, 1.0, 1.0, 1.0, 1.0, 1.0, 1.0, 1.0]

>  <TempFactor>  (391) 
[44.77, 46.95, 43.33, 43.58, 47.51, 47.9, 43.96, 46.53, 46.69, 77.84, 47.13, 39.22, 49.9, 43.36, 42.16, 75.89, 55.22, 72.09, 44.14, 43.03, 43.28, 76.01, 44.2, 62.42, 42.91, 44.07, 47.42, 45.41, 69.71, 44.62, 43.66, 46.14, 44.31, 70.66, 44.24]

>  <accession>  (391) 
5BPE_A

>  <description>  (391) 
Chain A, EV71 3Cpro [Enterovirus A71]

>  <evalue>  (391) 
1.3023100000000001e-85

>  <pdb_code>  (391) 
5BPE

>  <chain>  (391) 
A

>  <ligands>  (391) 
[{'chain_id': 'A', 'author_residue_number': 201, 'author_insertion_code': '', 'chem_comp_id': 'E22', 'alternate_conformers': 0, 'entity_id': 2, 'struct_asym_id': 'B', 'residue_number': 1, 'chem_comp_name': '(2~{S})-~{N}-[(1~{R},2~{S})-1-cyano-1-oxidanyl-3-[(3~{S})-2-oxidanylidenepiperidin-3-yl]propan-2-yl]-3-phenyl-2-[[(~{E})-3-phenylprop-2-enoyl]amino]propanamide', 'weight': 474.552, 'carbohydrate_polymer': False, 'branch_name': ''}]

>  <ligand_codes>  (391) 
['E22']

>  <cofactor_codes>  (391) 
[]

>  <has_cofactor>  (391) 
False

>  <covalent>  (391) 
False

>  <base_name>  (391) 
5BPE

>  <lig_resn>  (391) 
E22

>  <lig_resi>  (391) 
201

>  <lig_chain>  (391) 
A

>  <lig_segi>  (391) 
B

>  <lig_alt>  (391) 


>  <polymer_chain>  (391) 
A

>  <single_smiles>  (391) 
O[C@@H](C#N)[C@H](C[C@@H]1CCCNC1=O)NC(=O)[C@H](Cc2ccccc2)NC(=O)\C=C\c3ccccc3

$$$$
E22P1S22
     RDKit          3D

  7  6  0  0  0  0  0  0  0  0999 V2000
   -7.5860    9.9340  -32.5820 C   0  0  0  0  0  0  0  0  0  0  0  0
   -7.7760   10.0440  -34.2160 C   0  0  2  0  0  0  0  0  0  0  0  0
   -8.8710   10.8540  -34.2980 N   0  0  0  0  0  0  0  0  0  0  0  0
   -8.0510    8.9360  -35.1760 C   0  0  1  0  0  0  0  0  0  0  0  0
   -7.8270    9.3530  -36.4740 O   0  0  0  0  0  0  0  0  0  0  0  0
   -7.2430    7.7760  -34.8330 C   0  0  0  0  0  0  0  0  0  0  0  0
   -6.6380    6.9450  -34.6150 N   0  0  0  0  0  0  0  0  0  0  0  0
  2  1  1  1
  3  2  1  0
  2  4  1  0
  4  5  1  6
  6  4  1  0
  7  6  3  0
A    2
 C11
A    4
 C24
A    5
 O3 
A    6
 C19
A    7
 N2 
M  END
>  <XChem_code>  (392) 
E22§1

>  <Occupancy>  (392) 
[1.0, 1.0, 1.0, 1.0, 1.0, 1.0, 1.0, 1.0, 1.0, 1.0, 1.0, 1.0, 1.0, 1.0, 1.0, 1.0, 1.0, 1.0, 1.0, 1.0, 1.0, 1.0, 1.0, 1.0, 1.0, 1.0, 1.0, 1.0, 1.0, 1.0, 1.0, 1.0, 1.0, 1.0, 1.0]

>  <TempFactor>  (392) 
[44.77, 46.95, 43.33, 43.58, 47.51, 47.9, 43.96, 46.53, 46.69, 77.84, 47.13, 39.22, 49.9, 43.36, 42.16, 75.89, 55.22, 72.09, 44.14, 43.03, 43.28, 76.01, 44.2, 62.42, 42.91, 44.07, 47.42, 45.41, 69.71, 44.62, 43.66, 46.14, 44.31, 70.66, 44.24]

>  <accession>  (392) 
5BPE_A

>  <description>  (392) 
Chain A, EV71 3Cpro [Enterovirus A71]

>  <evalue>  (392) 
1.3023100000000001e-85

>  <pdb_code>  (392) 
5BPE

>  <chain>  (392) 
A

>  <ligands>  (392) 
[{'chain_id': 'A', 'author_residue_number': 201, 'author_insertion_code': '', 'chem_comp_id': 'E22', 'alternate_conformers': 0, 'entity_id': 2, 'struct_asym_id': 'B', 'residue_number': 1, 'chem_comp_name': '(2~{S})-~{N}-[(1~{R},2~{S})-1-cyano-1-oxidanyl-3-[(3~{S})-2-oxidanylidenepiperidin-3-yl]propan-2-yl]-3-phenyl-2-[[(~{E})-3-phenylprop-2-enoyl]amino]propanamide', 'weight': 474.552, 'carbohydrate_polymer': False, 'branch_name': ''}]

>  <ligand_codes>  (392) 
['E22']

>  <cofactor_codes>  (392) 
[]

>  <has_cofactor>  (392) 
False

>  <covalent>  (392) 
False

>  <base_name>  (392) 
5BPE

>  <lig_resn>  (392) 
E22

>  <lig_resi>  (392) 
201

>  <lig_chain>  (392) 
A

>  <lig_segi>  (392) 
B

>  <lig_alt>  (392) 


>  <polymer_chain>  (392) 
A

>  <single_smiles>  (392) 
O[C@@H](C#N)[C@H](C[C@@H]1CCCNC1=O)NC(=O)[C@H](Cc2ccccc2)NC(=O)\C=C\c3ccccc3

$$$$
E22P1S23
     RDKit          3D

 15 15  0  0  0  0  0  0  0  0999 V2000
  -10.4120   12.8110  -36.6940 C   0  0  0  0  0  0  0  0  0  0  0  0
   -9.9190   12.9430  -35.2650 C   0  0  1  0  0  0  0  0  0  0  0  0
   -8.7700   11.9720  -35.1380 C   0  0  0  0  0  0  0  0  0  0  0  0
   -9.5160   14.2860  -34.9670 N   0  0  0  0  0  0  0  0  0  0  0  0
   -7.7360   12.1130  -35.7460 O   0  0  0  0  0  0  0  0  0  0  0  0
   -9.2290   14.7180  -33.6340 C   0  0  0  0  0  0  0  0  0  0  0  0
   -9.3150   13.9250  -32.7120 O   0  0  0  0  0  0  0  0  0  0  0  0
   -8.8010   16.1560  -33.3590 C   0  0  0  0  0  0  0  0  0  0  0  0
   -9.9570   17.1090  -33.0820 C   0  0  0  0  0  0  0  0  0  0  0  0
   -9.6410   18.4120  -32.3490 C   0  0  0  0  0  0  0  0  0  0  0  0
  -10.6660   19.0760  -31.6610 C   0  0  0  0  0  0  0  0  0  0  0  0
   -8.3610   18.9710  -32.3500 C   0  0  0  0  0  0  0  0  0  0  0  0
  -10.4320   20.2770  -30.9840 C   0  0  0  0  0  0  0  0  0  0  0  0
   -8.1180   20.1680  -31.6780 C   0  0  0  0  0  0  0  0  0  0  0  0
   -9.1480   20.8220  -30.9950 C   0  0  0  0  0  0  0  0  0  0  0  0
  2  1  1  6
  2  3  1  0
  2  4  1  0
  5  3  2  0
  4  6  1  0
  7  6  2  0
  6  8  1  0
  8  9  2  3
  9 10  1  0
 11 10  2  0
 10 12  1  0
 13 11  1  0
 14 12  2  0
 15 13  2  0
 15 14  1  0
A    2
 C1 
A    4
 N1 
A    5
 O1 
A    6
 C5 
A    7
 O2 
A    8
 C9 
A    9
 C16
A   10
 C21
A   11
 C14
A   12
 C26
A   13
 C8 
A   14
 C10
A   15
 C4 
M  END
>  <XChem_code>  (393) 
E22§1

>  <Occupancy>  (393) 
[1.0, 1.0, 1.0, 1.0, 1.0, 1.0, 1.0, 1.0, 1.0, 1.0, 1.0, 1.0, 1.0, 1.0, 1.0, 1.0, 1.0, 1.0, 1.0, 1.0, 1.0, 1.0, 1.0, 1.0, 1.0, 1.0, 1.0, 1.0, 1.0, 1.0, 1.0, 1.0, 1.0, 1.0, 1.0]

>  <TempFactor>  (393) 
[44.77, 46.95, 43.33, 43.58, 47.51, 47.9, 43.96, 46.53, 46.69, 77.84, 47.13, 39.22, 49.9, 43.36, 42.16, 75.89, 55.22, 72.09, 44.14, 43.03, 43.28, 76.01, 44.2, 62.42, 42.91, 44.07, 47.42, 45.41, 69.71, 44.62, 43.66, 46.14, 44.31, 70.66, 44.24]

>  <accession>  (393) 
5BPE_A

>  <description>  (393) 
Chain A, EV71 3Cpro [Enterovirus A71]

>  <evalue>  (393) 
1.3023100000000001e-85

>  <pdb_code>  (393) 
5BPE

>  <chain>  (393) 
A

>  <ligands>  (393) 
[{'chain_id': 'A', 'author_residue_number': 201, 'author_insertion_code': '', 'chem_comp_id': 'E22', 'alternate_conformers': 0, 'entity_id': 2, 'struct_asym_id': 'B', 'residue_number': 1, 'chem_comp_name': '(2~{S})-~{N}-[(1~{R},2~{S})-1-cyano-1-oxidanyl-3-[(3~{S})-2-oxidanylidenepiperidin-3-yl]propan-2-yl]-3-phenyl-2-[[(~{E})-3-phenylprop-2-enoyl]amino]propanamide', 'weight': 474.552, 'carbohydrate_polymer': False, 'branch_name': ''}]

>  <ligand_codes>  (393) 
['E22']

>  <cofactor_codes>  (393) 
[]

>  <has_cofactor>  (393) 
False

>  <covalent>  (393) 
False

>  <base_name>  (393) 
5BPE

>  <lig_resn>  (393) 
E22

>  <lig_resi>  (393) 
201

>  <lig_chain>  (393) 
A

>  <lig_segi>  (393) 
B

>  <lig_alt>  (393) 


>  <polymer_chain>  (393) 
A

>  <single_smiles>  (393) 
O[C@@H](C#N)[C@H](C[C@@H]1CCCNC1=O)NC(=O)[C@H](Cc2ccccc2)NC(=O)\C=C\c3ccccc3

$$$$
E22P1S24
     RDKit          3D

 18 18  0  0  0  0  0  0  0  0999 V2000
   -7.5860    9.9340  -32.5820 C   0  0  0  0  0  0  0  0  0  0  0  0
   -7.7760   10.0440  -34.2160 C   0  0  2  0  0  0  0  0  0  0  0  0
   -8.8710   10.8540  -34.2980 N   0  0  0  0  0  0  0  0  0  0  0  0
   -8.0510    8.9360  -35.1760 C   0  0  1  0  0  0  0  0  0  0  0  0
   -8.7700   11.9720  -35.1380 C   0  0  0  0  0  0  0  0  0  0  0  0
   -7.8270    9.3530  -36.4740 O   0  0  0  0  0  0  0  0  0  0  0  0
   -7.2430    7.7760  -34.8330 C   0  0  0  0  0  0  0  0  0  0  0  0
   -9.9190   12.9430  -35.2650 C   0  0  1  0  0  0  0  0  0  0  0  0
   -7.7360   12.1130  -35.7460 O   0  0  0  0  0  0  0  0  0  0  0  0
   -6.6380    6.9450  -34.6150 N   0  0  0  0  0  0  0  0  0  0  0  0
   -9.5160   14.2860  -34.9670 N   0  0  0  0  0  0  0  0  0  0  0  0
  -10.4120   12.8110  -36.6940 C   0  0  0  0  0  0  0  0  0  0  0  0
  -11.6540   13.6210  -36.9560 C   0  0  0  0  0  0  0  0  0  0  0  0
  -11.6660   14.5500  -37.9930 C   0  0  0  0  0  0  0  0  0  0  0  0
  -12.7700   13.4400  -36.1440 C   0  0  0  0  0  0  0  0  0  0  0  0
  -12.8090   15.3130  -38.2220 C   0  0  0  0  0  0  0  0  0  0  0  0
  -13.9210   14.1890  -36.3740 C   0  0  0  0  0  0  0  0  0  0  0  0
  -13.9340   15.1220  -37.4080 C   0  0  0  0  0  0  0  0  0  0  0  0
  2  1  1  1
  3  2  1  0
  2  4  1  0
  5  3  1  0
  4  6  1  6
  7  4  1  0
  8  5  1  0
  9  5  2  0
 10  7  3  0
  8 11  1  6
  8 12  1  0
 12 13  1  0
 13 14  2  0
 13 15  1  0
 14 16  1  0
 15 17  2  0
 18 16  2  0
 18 17  1  0
A    2
 C11
A    3
 N3 
A    4
 C24
A    5
 C3 
A    6
 O3 
A    7
 C19
A    8
 C1 
A    9
 O1 
A   10
 N2 
A   12
 C2 
A   13
 C7 
A   14
 C12
A   15
 C18
A   16
 C22
A   17
 C23
A   18
 C20
M  END
>  <XChem_code>  (394) 
E22§1

>  <Occupancy>  (394) 
[1.0, 1.0, 1.0, 1.0, 1.0, 1.0, 1.0, 1.0, 1.0, 1.0, 1.0, 1.0, 1.0, 1.0, 1.0, 1.0, 1.0, 1.0, 1.0, 1.0, 1.0, 1.0, 1.0, 1.0, 1.0, 1.0, 1.0, 1.0, 1.0, 1.0, 1.0, 1.0, 1.0, 1.0, 1.0]

>  <TempFactor>  (394) 
[44.77, 46.95, 43.33, 43.58, 47.51, 47.9, 43.96, 46.53, 46.69, 77.84, 47.13, 39.22, 49.9, 43.36, 42.16, 75.89, 55.22, 72.09, 44.14, 43.03, 43.28, 76.01, 44.2, 62.42, 42.91, 44.07, 47.42, 45.41, 69.71, 44.62, 43.66, 46.14, 44.31, 70.66, 44.24]

>  <accession>  (394) 
5BPE_A

>  <description>  (394) 
Chain A, EV71 3Cpro [Enterovirus A71]

>  <evalue>  (394) 
1.3023100000000001e-85

>  <pdb_code>  (394) 
5BPE

>  <chain>  (394) 
A

>  <ligands>  (394) 
[{'chain_id': 'A', 'author_residue_number': 201, 'author_insertion_code': '', 'chem_comp_id': 'E22', 'alternate_conformers': 0, 'entity_id': 2, 'struct_asym_id': 'B', 'residue_number': 1, 'chem_comp_name': '(2~{S})-~{N}-[(1~{R},2~{S})-1-cyano-1-oxidanyl-3-[(3~{S})-2-oxidanylidenepiperidin-3-yl]propan-2-yl]-3-phenyl-2-[[(~{E})-3-phenylprop-2-enoyl]amino]propanamide', 'weight': 474.552, 'carbohydrate_polymer': False, 'branch_name': ''}]

>  <ligand_codes>  (394) 
['E22']

>  <cofactor_codes>  (394) 
[]

>  <has_cofactor>  (394) 
False

>  <covalent>  (394) 
False

>  <base_name>  (394) 
5BPE

>  <lig_resn>  (394) 
E22

>  <lig_resi>  (394) 
201

>  <lig_chain>  (394) 
A

>  <lig_segi>  (394) 
B

>  <lig_alt>  (394) 


>  <polymer_chain>  (394) 
A

>  <single_smiles>  (394) 
O[C@@H](C#N)[C@H](C[C@@H]1CCCNC1=O)NC(=O)[C@H](Cc2ccccc2)NC(=O)\C=C\c3ccccc3

$$$$
E22P1S25
     RDKit          3D

 19 19  0  0  0  0  0  0  0  0999 V2000
  -10.4120   12.8110  -36.6940 C   0  0  0  0  0  0  0  0  0  0  0  0
   -9.9190   12.9430  -35.2650 C   0  0  2  0  0  0  0  0  0  0  0  0
   -9.5160   14.2860  -34.9670 N   0  0  0  0  0  0  0  0  0  0  0  0
   -8.7700   11.9720  -35.1380 C   0  0  0  0  0  0  0  0  0  0  0  0
   -7.7360   12.1130  -35.7460 O   0  0  0  0  0  0  0  0  0  0  0  0
   -8.8710   10.8540  -34.2980 N   0  0  0  0  0  0  0  0  0  0  0  0
   -7.7760   10.0440  -34.2160 C   0  0  1  0  0  0  0  0  0  0  0  0
   -7.5860    9.9340  -32.5820 C   0  0  0  0  0  0  0  0  0  0  0  0
   -8.0510    8.9360  -35.1760 C   0  0  1  0  0  0  0  0  0  0  0  0
   -7.1210   11.2530  -31.8690 C   0  0  2  0  0  0  0  0  0  0  0  0
   -7.8270    9.3530  -36.4740 O   0  0  0  0  0  0  0  0  0  0  0  0
   -7.2430    7.7760  -34.8330 C   0  0  0  0  0  0  0  0  0  0  0  0
   -6.1370   11.9120  -32.4520 C   0  0  0  0  0  0  0  0  0  0  0  0
   -7.0220   10.9800  -30.3480 C   0  0  0  0  0  0  0  0  0  0  0  0
   -6.6380    6.9450  -34.6150 N   0  0  0  0  0  0  0  0  0  0  0  0
   -5.5830   13.0950  -31.6740 C   0  0  0  0  0  0  0  0  0  0  0  0
   -6.1930   11.9110  -29.6060 N   0  0  0  0  0  0  0  0  0  0  0  0
   -7.6220    9.9280  -29.8110 O   0  0  0  0  0  0  0  0  0  0  0  0
   -5.1120   12.6510  -30.2840 C   0  0  0  0  0  0  0  0  0  0  0  0
  2  1  1  6
  2  3  1  0
  2  4  1  0
  5  4  2  0
  4  6  1  0
  6  7  1  0
  7  8  1  1
  7  9  1  0
 10  8  1  6
  9 11  1  6
 12  9  1  0
 13 10  1  0
 14 10  1  0
 15 12  3  0
 16 13  1  0
 17 14  1  0
 18 14  2  0
 16 19  1  0
 17 19  1  0
A    2
 C1 
A    4
 C3 
A    5
 O1 
A    6
 N3 
A    7
 C11
A    8
 C17
A    9
 C24
A   10
 C25
A   11
 O3 
A   12
 C19
A   13
 C13
A   14
 C15
A   15
 N2 
A   16
 C6 
A   17
 N4 
A   18
 O4 
A   19
 C27
M  END
>  <XChem_code>  (395) 
E22§1

>  <Occupancy>  (395) 
[1.0, 1.0, 1.0, 1.0, 1.0, 1.0, 1.0, 1.0, 1.0, 1.0, 1.0, 1.0, 1.0, 1.0, 1.0, 1.0, 1.0, 1.0, 1.0, 1.0, 1.0, 1.0, 1.0, 1.0, 1.0, 1.0, 1.0, 1.0, 1.0, 1.0, 1.0, 1.0, 1.0, 1.0, 1.0]

>  <TempFactor>  (395) 
[44.77, 46.95, 43.33, 43.58, 47.51, 47.9, 43.96, 46.53, 46.69, 77.84, 47.13, 39.22, 49.9, 43.36, 42.16, 75.89, 55.22, 72.09, 44.14, 43.03, 43.28, 76.01, 44.2, 62.42, 42.91, 44.07, 47.42, 45.41, 69.71, 44.62, 43.66, 46.14, 44.31, 70.66, 44.24]

>  <accession>  (395) 
5BPE_A

>  <description>  (395) 
Chain A, EV71 3Cpro [Enterovirus A71]

>  <evalue>  (395) 
1.3023100000000001e-85

>  <pdb_code>  (395) 
5BPE

>  <chain>  (395) 
A

>  <ligands>  (395) 
[{'chain_id': 'A', 'author_residue_number': 201, 'author_insertion_code': '', 'chem_comp_id': 'E22', 'alternate_conformers': 0, 'entity_id': 2, 'struct_asym_id': 'B', 'residue_number': 1, 'chem_comp_name': '(2~{S})-~{N}-[(1~{R},2~{S})-1-cyano-1-oxidanyl-3-[(3~{S})-2-oxidanylidenepiperidin-3-yl]propan-2-yl]-3-phenyl-2-[[(~{E})-3-phenylprop-2-enoyl]amino]propanamide', 'weight': 474.552, 'carbohydrate_polymer': False, 'branch_name': ''}]

>  <ligand_codes>  (395) 
['E22']

>  <cofactor_codes>  (395) 
[]

>  <has_cofactor>  (395) 
False

>  <covalent>  (395) 
False

>  <base_name>  (395) 
5BPE

>  <lig_resn>  (395) 
E22

>  <lig_resi>  (395) 
201

>  <lig_chain>  (395) 
A

>  <lig_segi>  (395) 
B

>  <lig_alt>  (395) 


>  <polymer_chain>  (395) 
A

>  <single_smiles>  (395) 
O[C@@H](C#N)[C@H](C[C@@H]1CCCNC1=O)NC(=O)[C@H](Cc2ccccc2)NC(=O)\C=C\c3ccccc3

$$$$
E22P1S26
     RDKit          3D

  5  4  0  0  0  0  0  0  0  0999 V2000
  -10.4120   12.8110  -36.6940 C   0  0  0  0  0  0  0  0  0  0  0  0
   -9.9190   12.9430  -35.2650 C   0  0  2  0  0  0  0  0  0  0  0  0
   -9.5160   14.2860  -34.9670 N   0  0  0  0  0  0  0  0  0  0  0  0
   -8.7700   11.9720  -35.1380 C   0  0  0  0  0  0  0  0  0  0  0  0
   -7.7360   12.1130  -35.7460 O   0  0  0  0  0  0  0  0  0  0  0  0
  2  1  1  6
  2  3  1  0
  2  4  1  0
  5  4  2  0
A    2
 C1 
A    5
 O1 
M  END
>  <XChem_code>  (396) 
E22§1

>  <Occupancy>  (396) 
[1.0, 1.0, 1.0, 1.0, 1.0, 1.0, 1.0, 1.0, 1.0, 1.0, 1.0, 1.0, 1.0, 1.0, 1.0, 1.0, 1.0, 1.0, 1.0, 1.0, 1.0, 1.0, 1.0, 1.0, 1.0, 1.0, 1.0, 1.0, 1.0, 1.0, 1.0, 1.0, 1.0, 1.0, 1.0]

>  <TempFactor>  (396) 
[44.77, 46.95, 43.33, 43.58, 47.51, 47.9, 43.96, 46.53, 46.69, 77.84, 47.13, 39.22, 49.9, 43.36, 42.16, 75.89, 55.22, 72.09, 44.14, 43.03, 43.28, 76.01, 44.2, 62.42, 42.91, 44.07, 47.42, 45.41, 69.71, 44.62, 43.66, 46.14, 44.31, 70.66, 44.24]

>  <accession>  (396) 
5BPE_A

>  <description>  (396) 
Chain A, EV71 3Cpro [Enterovirus A71]

>  <evalue>  (396) 
1.3023100000000001e-85

>  <pdb_code>  (396) 
5BPE

>  <chain>  (396) 
A

>  <ligands>  (396) 
[{'chain_id': 'A', 'author_residue_number': 201, 'author_insertion_code': '', 'chem_comp_id': 'E22', 'alternate_conformers': 0, 'entity_id': 2, 'struct_asym_id': 'B', 'residue_number': 1, 'chem_comp_name': '(2~{S})-~{N}-[(1~{R},2~{S})-1-cyano-1-oxidanyl-3-[(3~{S})-2-oxidanylidenepiperidin-3-yl]propan-2-yl]-3-phenyl-2-[[(~{E})-3-phenylprop-2-enoyl]amino]propanamide', 'weight': 474.552, 'carbohydrate_polymer': False, 'branch_name': ''}]

>  <ligand_codes>  (396) 
['E22']

>  <cofactor_codes>  (396) 
[]

>  <has_cofactor>  (396) 
False

>  <covalent>  (396) 
False

>  <base_name>  (396) 
5BPE

>  <lig_resn>  (396) 
E22

>  <lig_resi>  (396) 
201

>  <lig_chain>  (396) 
A

>  <lig_segi>  (396) 
B

>  <lig_alt>  (396) 


>  <polymer_chain>  (396) 
A

>  <single_smiles>  (396) 
O[C@@H](C#N)[C@H](C[C@@H]1CCCNC1=O)NC(=O)[C@H](Cc2ccccc2)NC(=O)\C=C\c3ccccc3

$$$$
E22P1S27
     RDKit          3D

 17 17  0  0  0  0  0  0  0  0999 V2000
   -7.5860    9.9340  -32.5820 C   0  0  0  0  0  0  0  0  0  0  0  0
   -7.7760   10.0440  -34.2160 C   0  0  2  0  0  0  0  0  0  0  0  0
   -8.8710   10.8540  -34.2980 N   0  0  0  0  0  0  0  0  0  0  0  0
   -8.0510    8.9360  -35.1760 C   0  0  1  0  0  0  0  0  0  0  0  0
   -8.7700   11.9720  -35.1380 C   0  0  0  0  0  0  0  0  0  0  0  0
   -7.8270    9.3530  -36.4740 O   0  0  0  0  0  0  0  0  0  0  0  0
   -7.2430    7.7760  -34.8330 C   0  0  0  0  0  0  0  0  0  0  0  0
   -9.9190   12.9430  -35.2650 C   0  0  0  0  0  0  0  0  0  0  0  0
   -7.7360   12.1130  -35.7460 O   0  0  0  0  0  0  0  0  0  0  0  0
   -6.6380    6.9450  -34.6150 N   0  0  0  0  0  0  0  0  0  0  0  0
  -10.4120   12.8110  -36.6940 C   0  0  0  0  0  0  0  0  0  0  0  0
  -11.6540   13.6210  -36.9560 C   0  0  0  0  0  0  0  0  0  0  0  0
  -11.6660   14.5500  -37.9930 C   0  0  0  0  0  0  0  0  0  0  0  0
  -12.7700   13.4400  -36.1440 C   0  0  0  0  0  0  0  0  0  0  0  0
  -12.8090   15.3130  -38.2220 C   0  0  0  0  0  0  0  0  0  0  0  0
  -13.9210   14.1890  -36.3740 C   0  0  0  0  0  0  0  0  0  0  0  0
  -13.9340   15.1220  -37.4080 C   0  0  0  0  0  0  0  0  0  0  0  0
  2  1  1  1
  3  2  1  0
  2  4  1  0
  5  3  1  0
  4  6  1  6
  7  4  1  0
  8  5  1  0
  9  5  2  0
 10  7  3  0
  8 11  1  6
 11 12  1  0
 12 13  2  0
 12 14  1  0
 13 15  1  0
 14 16  2  0
 17 15  2  0
 17 16  1  0
A    2
 C11
A    3
 N3 
A    4
 C24
A    5
 C3 
A    6
 O3 
A    7
 C19
A    9
 O1 
A   10
 N2 
A   11
 C2 
A   12
 C7 
A   13
 C12
A   14
 C18
A   15
 C22
A   16
 C23
A   17
 C20
M  END
>  <XChem_code>  (397) 
E22§1

>  <Occupancy>  (397) 
[1.0, 1.0, 1.0, 1.0, 1.0, 1.0, 1.0, 1.0, 1.0, 1.0, 1.0, 1.0, 1.0, 1.0, 1.0, 1.0, 1.0, 1.0, 1.0, 1.0, 1.0, 1.0, 1.0, 1.0, 1.0, 1.0, 1.0, 1.0, 1.0, 1.0, 1.0, 1.0, 1.0, 1.0, 1.0]

>  <TempFactor>  (397) 
[44.77, 46.95, 43.33, 43.58, 47.51, 47.9, 43.96, 46.53, 46.69, 77.84, 47.13, 39.22, 49.9, 43.36, 42.16, 75.89, 55.22, 72.09, 44.14, 43.03, 43.28, 76.01, 44.2, 62.42, 42.91, 44.07, 47.42, 45.41, 69.71, 44.62, 43.66, 46.14, 44.31, 70.66, 44.24]

>  <accession>  (397) 
5BPE_A

>  <description>  (397) 
Chain A, EV71 3Cpro [Enterovirus A71]

>  <evalue>  (397) 
1.3023100000000001e-85

>  <pdb_code>  (397) 
5BPE

>  <chain>  (397) 
A

>  <ligands>  (397) 
[{'chain_id': 'A', 'author_residue_number': 201, 'author_insertion_code': '', 'chem_comp_id': 'E22', 'alternate_conformers': 0, 'entity_id': 2, 'struct_asym_id': 'B', 'residue_number': 1, 'chem_comp_name': '(2~{S})-~{N}-[(1~{R},2~{S})-1-cyano-1-oxidanyl-3-[(3~{S})-2-oxidanylidenepiperidin-3-yl]propan-2-yl]-3-phenyl-2-[[(~{E})-3-phenylprop-2-enoyl]amino]propanamide', 'weight': 474.552, 'carbohydrate_polymer': False, 'branch_name': ''}]

>  <ligand_codes>  (397) 
['E22']

>  <cofactor_codes>  (397) 
[]

>  <has_cofactor>  (397) 
False

>  <covalent>  (397) 
False

>  <base_name>  (397) 
5BPE

>  <lig_resn>  (397) 
E22

>  <lig_resi>  (397) 
201

>  <lig_chain>  (397) 
A

>  <lig_segi>  (397) 
B

>  <lig_alt>  (397) 


>  <polymer_chain>  (397) 
A

>  <single_smiles>  (397) 
O[C@@H](C#N)[C@H](C[C@@H]1CCCNC1=O)NC(=O)[C@H](Cc2ccccc2)NC(=O)\C=C\c3ccccc3

$$$$
E22P1S28
     RDKit          3D

 18 18  0  0  0  0  0  0  0  0999 V2000
  -10.4120   12.8110  -36.6940 C   0  0  0  0  0  0  0  0  0  0  0  0
   -9.9190   12.9430  -35.2650 C   0  0  0  0  0  0  0  0  0  0  0  0
   -8.7700   11.9720  -35.1380 C   0  0  0  0  0  0  0  0  0  0  0  0
   -7.7360   12.1130  -35.7460 O   0  0  0  0  0  0  0  0  0  0  0  0
   -8.8710   10.8540  -34.2980 N   0  0  0  0  0  0  0  0  0  0  0  0
   -7.7760   10.0440  -34.2160 C   0  0  1  0  0  0  0  0  0  0  0  0
   -7.5860    9.9340  -32.5820 C   0  0  0  0  0  0  0  0  0  0  0  0
   -8.0510    8.9360  -35.1760 C   0  0  1  0  0  0  0  0  0  0  0  0
   -7.1210   11.2530  -31.8690 C   0  0  2  0  0  0  0  0  0  0  0  0
   -7.8270    9.3530  -36.4740 O   0  0  0  0  0  0  0  0  0  0  0  0
   -7.2430    7.7760  -34.8330 C   0  0  0  0  0  0  0  0  0  0  0  0
   -6.1370   11.9120  -32.4520 C   0  0  0  0  0  0  0  0  0  0  0  0
   -7.0220   10.9800  -30.3480 C   0  0  0  0  0  0  0  0  0  0  0  0
   -6.6380    6.9450  -34.6150 N   0  0  0  0  0  0  0  0  0  0  0  0
   -5.5830   13.0950  -31.6740 C   0  0  0  0  0  0  0  0  0  0  0  0
   -6.1930   11.9110  -29.6060 N   0  0  0  0  0  0  0  0  0  0  0  0
   -7.6220    9.9280  -29.8110 O   0  0  0  0  0  0  0  0  0  0  0  0
   -5.1120   12.6510  -30.2840 C   0  0  0  0  0  0  0  0  0  0  0  0
  2  1  1  6
  2  3  1  0
  4  3  2  0
  3  5  1  0
  5  6  1  0
  6  7  1  1
  6  8  1  0
  9  7  1  6
  8 10  1  6
 11  8  1  0
 12  9  1  0
 13  9  1  0
 14 11  3  0
 15 12  1  0
 16 13  1  0
 17 13  2  0
 15 18  1  0
 16 18  1  0
A    3
 C3 
A    4
 O1 
A    5
 N3 
A    6
 C11
A    7
 C17
A    8
 C24
A    9
 C25
A   10
 O3 
A   11
 C19
A   12
 C13
A   13
 C15
A   14
 N2 
A   15
 C6 
A   16
 N4 
A   17
 O4 
A   18
 C27
M  END
>  <XChem_code>  (398) 
E22§1

>  <Occupancy>  (398) 
[1.0, 1.0, 1.0, 1.0, 1.0, 1.0, 1.0, 1.0, 1.0, 1.0, 1.0, 1.0, 1.0, 1.0, 1.0, 1.0, 1.0, 1.0, 1.0, 1.0, 1.0, 1.0, 1.0, 1.0, 1.0, 1.0, 1.0, 1.0, 1.0, 1.0, 1.0, 1.0, 1.0, 1.0, 1.0]

>  <TempFactor>  (398) 
[44.77, 46.95, 43.33, 43.58, 47.51, 47.9, 43.96, 46.53, 46.69, 77.84, 47.13, 39.22, 49.9, 43.36, 42.16, 75.89, 55.22, 72.09, 44.14, 43.03, 43.28, 76.01, 44.2, 62.42, 42.91, 44.07, 47.42, 45.41, 69.71, 44.62, 43.66, 46.14, 44.31, 70.66, 44.24]

>  <accession>  (398) 
5BPE_A

>  <description>  (398) 
Chain A, EV71 3Cpro [Enterovirus A71]

>  <evalue>  (398) 
1.3023100000000001e-85

>  <pdb_code>  (398) 
5BPE

>  <chain>  (398) 
A

>  <ligands>  (398) 
[{'chain_id': 'A', 'author_residue_number': 201, 'author_insertion_code': '', 'chem_comp_id': 'E22', 'alternate_conformers': 0, 'entity_id': 2, 'struct_asym_id': 'B', 'residue_number': 1, 'chem_comp_name': '(2~{S})-~{N}-[(1~{R},2~{S})-1-cyano-1-oxidanyl-3-[(3~{S})-2-oxidanylidenepiperidin-3-yl]propan-2-yl]-3-phenyl-2-[[(~{E})-3-phenylprop-2-enoyl]amino]propanamide', 'weight': 474.552, 'carbohydrate_polymer': False, 'branch_name': ''}]

>  <ligand_codes>  (398) 
['E22']

>  <cofactor_codes>  (398) 
[]

>  <has_cofactor>  (398) 
False

>  <covalent>  (398) 
False

>  <base_name>  (398) 
5BPE

>  <lig_resn>  (398) 
E22

>  <lig_resi>  (398) 
201

>  <lig_chain>  (398) 
A

>  <lig_segi>  (398) 
B

>  <lig_alt>  (398) 


>  <polymer_chain>  (398) 
A

>  <single_smiles>  (398) 
O[C@@H](C#N)[C@H](C[C@@H]1CCCNC1=O)NC(=O)[C@H](Cc2ccccc2)NC(=O)\C=C\c3ccccc3

$$$$
E22P1S29
     RDKit          3D

  6  5  0  0  0  0  0  0  0  0999 V2000
   -7.5860    9.9340  -32.5820 C   0  0  0  0  0  0  0  0  0  0  0  0
   -7.7760   10.0440  -34.2160 C   0  0  0  0  0  0  0  0  0  0  0  0
   -8.0510    8.9360  -35.1760 C   0  0  1  0  0  0  0  0  0  0  0  0
   -7.8270    9.3530  -36.4740 O   0  0  0  0  0  0  0  0  0  0  0  0
   -7.2430    7.7760  -34.8330 C   0  0  0  0  0  0  0  0  0  0  0  0
   -6.6380    6.9450  -34.6150 N   0  0  0  0  0  0  0  0  0  0  0  0
  2  1  1  6
  2  3  1  0
  3  4  1  6
  5  3  1  0
  6  5  3  0
A    3
 C24
A    4
 O3 
A    5
 C19
A    6
 N2 
M  END
>  <XChem_code>  (399) 
E22§1

>  <Occupancy>  (399) 
[1.0, 1.0, 1.0, 1.0, 1.0, 1.0, 1.0, 1.0, 1.0, 1.0, 1.0, 1.0, 1.0, 1.0, 1.0, 1.0, 1.0, 1.0, 1.0, 1.0, 1.0, 1.0, 1.0, 1.0, 1.0, 1.0, 1.0, 1.0, 1.0, 1.0, 1.0, 1.0, 1.0, 1.0, 1.0]

>  <TempFactor>  (399) 
[44.77, 46.95, 43.33, 43.58, 47.51, 47.9, 43.96, 46.53, 46.69, 77.84, 47.13, 39.22, 49.9, 43.36, 42.16, 75.89, 55.22, 72.09, 44.14, 43.03, 43.28, 76.01, 44.2, 62.42, 42.91, 44.07, 47.42, 45.41, 69.71, 44.62, 43.66, 46.14, 44.31, 70.66, 44.24]

>  <accession>  (399) 
5BPE_A

>  <description>  (399) 
Chain A, EV71 3Cpro [Enterovirus A71]

>  <evalue>  (399) 
1.3023100000000001e-85

>  <pdb_code>  (399) 
5BPE

>  <chain>  (399) 
A

>  <ligands>  (399) 
[{'chain_id': 'A', 'author_residue_number': 201, 'author_insertion_code': '', 'chem_comp_id': 'E22', 'alternate_conformers': 0, 'entity_id': 2, 'struct_asym_id': 'B', 'residue_number': 1, 'chem_comp_name': '(2~{S})-~{N}-[(1~{R},2~{S})-1-cyano-1-oxidanyl-3-[(3~{S})-2-oxidanylidenepiperidin-3-yl]propan-2-yl]-3-phenyl-2-[[(~{E})-3-phenylprop-2-enoyl]amino]propanamide', 'weight': 474.552, 'carbohydrate_polymer': False, 'branch_name': ''}]

>  <ligand_codes>  (399) 
['E22']

>  <cofactor_codes>  (399) 
[]

>  <has_cofactor>  (399) 
False

>  <covalent>  (399) 
False

>  <base_name>  (399) 
5BPE

>  <lig_resn>  (399) 
E22

>  <lig_resi>  (399) 
201

>  <lig_chain>  (399) 
A

>  <lig_segi>  (399) 
B

>  <lig_alt>  (399) 


>  <polymer_chain>  (399) 
A

>  <single_smiles>  (399) 
O[C@@H](C#N)[C@H](C[C@@H]1CCCNC1=O)NC(=O)[C@H](Cc2ccccc2)NC(=O)\C=C\c3ccccc3

$$$$
E22P1S30
     RDKit          3D

 16 16  0  0  0  0  0  0  0  0999 V2000
  -10.4120   12.8110  -36.6940 C   0  0  0  0  0  0  0  0  0  0  0  0
   -9.9190   12.9430  -35.2650 C   0  0  1  0  0  0  0  0  0  0  0  0
   -8.7700   11.9720  -35.1380 C   0  0  0  0  0  0  0  0  0  0  0  0
   -9.5160   14.2860  -34.9670 N   0  0  0  0  0  0  0  0  0  0  0  0
   -8.8710   10.8540  -34.2980 N   0  0  0  0  0  0  0  0  0  0  0  0
   -7.7360   12.1130  -35.7460 O   0  0  0  0  0  0  0  0  0  0  0  0
   -9.2290   14.7180  -33.6340 C   0  0  0  0  0  0  0  0  0  0  0  0
   -9.3150   13.9250  -32.7120 O   0  0  0  0  0  0  0  0  0  0  0  0
   -8.8010   16.1560  -33.3590 C   0  0  0  0  0  0  0  0  0  0  0  0
   -9.9570   17.1090  -33.0820 C   0  0  0  0  0  0  0  0  0  0  0  0
   -9.6410   18.4120  -32.3490 C   0  0  0  0  0  0  0  0  0  0  0  0
  -10.6660   19.0760  -31.6610 C   0  0  0  0  0  0  0  0  0  0  0  0
   -8.3610   18.9710  -32.3500 C   0  0  0  0  0  0  0  0  0  0  0  0
  -10.4320   20.2770  -30.9840 C   0  0  0  0  0  0  0  0  0  0  0  0
   -8.1180   20.1680  -31.6780 C   0  0  0  0  0  0  0  0  0  0  0  0
   -9.1480   20.8220  -30.9950 C   0  0  0  0  0  0  0  0  0  0  0  0
  2  1  1  6
  2  3  1  0
  2  4  1  0
  3  5  1  0
  6  3  2  0
  4  7  1  0
  8  7  2  0
  7  9  1  0
  9 10  2  3
 10 11  1  0
 12 11  2  0
 11 13  1  0
 14 12  1  0
 15 13  2  0
 16 14  2  0
 16 15  1  0
A    2
 C1 
A    3
 C3 
A    4
 N1 
A    6
 O1 
A    7
 C5 
A    8
 O2 
A    9
 C9 
A   10
 C16
A   11
 C21
A   12
 C14
A   13
 C26
A   14
 C8 
A   15
 C10
A   16
 C4 
M  END
>  <XChem_code>  (400) 
E22§1

>  <Occupancy>  (400) 
[1.0, 1.0, 1.0, 1.0, 1.0, 1.0, 1.0, 1.0, 1.0, 1.0, 1.0, 1.0, 1.0, 1.0, 1.0, 1.0, 1.0, 1.0, 1.0, 1.0, 1.0, 1.0, 1.0, 1.0, 1.0, 1.0, 1.0, 1.0, 1.0, 1.0, 1.0, 1.0, 1.0, 1.0, 1.0]

>  <TempFactor>  (400) 
[44.77, 46.95, 43.33, 43.58, 47.51, 47.9, 43.96, 46.53, 46.69, 77.84, 47.13, 39.22, 49.9, 43.36, 42.16, 75.89, 55.22, 72.09, 44.14, 43.03, 43.28, 76.01, 44.2, 62.42, 42.91, 44.07, 47.42, 45.41, 69.71, 44.62, 43.66, 46.14, 44.31, 70.66, 44.24]

>  <accession>  (400) 
5BPE_A

>  <description>  (400) 
Chain A, EV71 3Cpro [Enterovirus A71]

>  <evalue>  (400) 
1.3023100000000001e-85

>  <pdb_code>  (400) 
5BPE

>  <chain>  (400) 
A

>  <ligands>  (400) 
[{'chain_id': 'A', 'author_residue_number': 201, 'author_insertion_code': '', 'chem_comp_id': 'E22', 'alternate_conformers': 0, 'entity_id': 2, 'struct_asym_id': 'B', 'residue_number': 1, 'chem_comp_name': '(2~{S})-~{N}-[(1~{R},2~{S})-1-cyano-1-oxidanyl-3-[(3~{S})-2-oxidanylidenepiperidin-3-yl]propan-2-yl]-3-phenyl-2-[[(~{E})-3-phenylprop-2-enoyl]amino]propanamide', 'weight': 474.552, 'carbohydrate_polymer': False, 'branch_name': ''}]

>  <ligand_codes>  (400) 
['E22']

>  <cofactor_codes>  (400) 
[]

>  <has_cofactor>  (400) 
False

>  <covalent>  (400) 
False

>  <base_name>  (400) 
5BPE

>  <lig_resn>  (400) 
E22

>  <lig_resi>  (400) 
201

>  <lig_chain>  (400) 
A

>  <lig_segi>  (400) 
B

>  <lig_alt>  (400) 


>  <polymer_chain>  (400) 
A

>  <single_smiles>  (400) 
O[C@@H](C#N)[C@H](C[C@@H]1CCCNC1=O)NC(=O)[C@H](Cc2ccccc2)NC(=O)\C=C\c3ccccc3

$$$$
E22P1S31
     RDKit          3D

  4  3  0  0  0  0  0  0  0  0999 V2000
  -10.4120   12.8110  -36.6940 C   0  0  0  0  0  0  0  0  0  0  0  0
   -9.9190   12.9430  -35.2650 C   0  0  0  0  0  0  0  0  0  0  0  0
   -8.7700   11.9720  -35.1380 C   0  0  0  0  0  0  0  0  0  0  0  0
   -7.7360   12.1130  -35.7460 O   0  0  0  0  0  0  0  0  0  0  0  0
  2  1  1  6
  2  3  1  0
  4  3  2  0
A    4
 O1 
M  END
>  <XChem_code>  (401) 
E22§1

>  <Occupancy>  (401) 
[1.0, 1.0, 1.0, 1.0, 1.0, 1.0, 1.0, 1.0, 1.0, 1.0, 1.0, 1.0, 1.0, 1.0, 1.0, 1.0, 1.0, 1.0, 1.0, 1.0, 1.0, 1.0, 1.0, 1.0, 1.0, 1.0, 1.0, 1.0, 1.0, 1.0, 1.0, 1.0, 1.0, 1.0, 1.0]

>  <TempFactor>  (401) 
[44.77, 46.95, 43.33, 43.58, 47.51, 47.9, 43.96, 46.53, 46.69, 77.84, 47.13, 39.22, 49.9, 43.36, 42.16, 75.89, 55.22, 72.09, 44.14, 43.03, 43.28, 76.01, 44.2, 62.42, 42.91, 44.07, 47.42, 45.41, 69.71, 44.62, 43.66, 46.14, 44.31, 70.66, 44.24]

>  <accession>  (401) 
5BPE_A

>  <description>  (401) 
Chain A, EV71 3Cpro [Enterovirus A71]

>  <evalue>  (401) 
1.3023100000000001e-85

>  <pdb_code>  (401) 
5BPE

>  <chain>  (401) 
A

>  <ligands>  (401) 
[{'chain_id': 'A', 'author_residue_number': 201, 'author_insertion_code': '', 'chem_comp_id': 'E22', 'alternate_conformers': 0, 'entity_id': 2, 'struct_asym_id': 'B', 'residue_number': 1, 'chem_comp_name': '(2~{S})-~{N}-[(1~{R},2~{S})-1-cyano-1-oxidanyl-3-[(3~{S})-2-oxidanylidenepiperidin-3-yl]propan-2-yl]-3-phenyl-2-[[(~{E})-3-phenylprop-2-enoyl]amino]propanamide', 'weight': 474.552, 'carbohydrate_polymer': False, 'branch_name': ''}]

>  <ligand_codes>  (401) 
['E22']

>  <cofactor_codes>  (401) 
[]

>  <has_cofactor>  (401) 
False

>  <covalent>  (401) 
False

>  <base_name>  (401) 
5BPE

>  <lig_resn>  (401) 
E22

>  <lig_resi>  (401) 
201

>  <lig_chain>  (401) 
A

>  <lig_segi>  (401) 
B

>  <lig_alt>  (401) 


>  <polymer_chain>  (401) 
A

>  <single_smiles>  (401) 
O[C@@H](C#N)[C@H](C[C@@H]1CCCNC1=O)NC(=O)[C@H](Cc2ccccc2)NC(=O)\C=C\c3ccccc3

$$$$
E22P1S32
     RDKit          3D

  6  5  0  0  0  0  0  0  0  0999 V2000
  -10.4120   12.8110  -36.6940 C   0  0  0  0  0  0  0  0  0  0  0  0
   -9.9190   12.9430  -35.2650 C   0  0  1  0  0  0  0  0  0  0  0  0
   -8.7700   11.9720  -35.1380 C   0  0  0  0  0  0  0  0  0  0  0  0
   -9.5160   14.2860  -34.9670 N   0  0  0  0  0  0  0  0  0  0  0  0
   -8.8710   10.8540  -34.2980 N   0  0  0  0  0  0  0  0  0  0  0  0
   -7.7360   12.1130  -35.7460 O   0  0  0  0  0  0  0  0  0  0  0  0
  2  1  1  6
  2  3  1  0
  2  4  1  0
  3  5  1  0
  6  3  2  0
A    2
 C1 
A    3
 C3 
A    6
 O1 
M  END
>  <XChem_code>  (402) 
E22§1

>  <Occupancy>  (402) 
[1.0, 1.0, 1.0, 1.0, 1.0, 1.0, 1.0, 1.0, 1.0, 1.0, 1.0, 1.0, 1.0, 1.0, 1.0, 1.0, 1.0, 1.0, 1.0, 1.0, 1.0, 1.0, 1.0, 1.0, 1.0, 1.0, 1.0, 1.0, 1.0, 1.0, 1.0, 1.0, 1.0, 1.0, 1.0]

>  <TempFactor>  (402) 
[44.77, 46.95, 43.33, 43.58, 47.51, 47.9, 43.96, 46.53, 46.69, 77.84, 47.13, 39.22, 49.9, 43.36, 42.16, 75.89, 55.22, 72.09, 44.14, 43.03, 43.28, 76.01, 44.2, 62.42, 42.91, 44.07, 47.42, 45.41, 69.71, 44.62, 43.66, 46.14, 44.31, 70.66, 44.24]

>  <accession>  (402) 
5BPE_A

>  <description>  (402) 
Chain A, EV71 3Cpro [Enterovirus A71]

>  <evalue>  (402) 
1.3023100000000001e-85

>  <pdb_code>  (402) 
5BPE

>  <chain>  (402) 
A

>  <ligands>  (402) 
[{'chain_id': 'A', 'author_residue_number': 201, 'author_insertion_code': '', 'chem_comp_id': 'E22', 'alternate_conformers': 0, 'entity_id': 2, 'struct_asym_id': 'B', 'residue_number': 1, 'chem_comp_name': '(2~{S})-~{N}-[(1~{R},2~{S})-1-cyano-1-oxidanyl-3-[(3~{S})-2-oxidanylidenepiperidin-3-yl]propan-2-yl]-3-phenyl-2-[[(~{E})-3-phenylprop-2-enoyl]amino]propanamide', 'weight': 474.552, 'carbohydrate_polymer': False, 'branch_name': ''}]

>  <ligand_codes>  (402) 
['E22']

>  <cofactor_codes>  (402) 
[]

>  <has_cofactor>  (402) 
False

>  <covalent>  (402) 
False

>  <base_name>  (402) 
5BPE

>  <lig_resn>  (402) 
E22

>  <lig_resi>  (402) 
201

>  <lig_chain>  (402) 
A

>  <lig_segi>  (402) 
B

>  <lig_alt>  (402) 


>  <polymer_chain>  (402) 
A

>  <single_smiles>  (402) 
O[C@@H](C#N)[C@H](C[C@@H]1CCCNC1=O)NC(=O)[C@H](Cc2ccccc2)NC(=O)\C=C\c3ccccc3

$$$$
E22P1S33
     RDKit          3D

  5  4  0  0  0  0  0  0  0  0999 V2000
  -10.4120   12.8110  -36.6940 C   0  0  0  0  0  0  0  0  0  0  0  0
   -9.9190   12.9430  -35.2650 C   0  0  0  0  0  0  0  0  0  0  0  0
   -8.7700   11.9720  -35.1380 C   0  0  0  0  0  0  0  0  0  0  0  0
   -8.8710   10.8540  -34.2980 N   0  0  0  0  0  0  0  0  0  0  0  0
   -7.7360   12.1130  -35.7460 O   0  0  0  0  0  0  0  0  0  0  0  0
  2  1  1  6
  2  3  1  0
  3  4  1  0
  5  3  2  0
A    3
 C3 
A    5
 O1 
M  END
>  <XChem_code>  (403) 
E22§1

>  <Occupancy>  (403) 
[1.0, 1.0, 1.0, 1.0, 1.0, 1.0, 1.0, 1.0, 1.0, 1.0, 1.0, 1.0, 1.0, 1.0, 1.0, 1.0, 1.0, 1.0, 1.0, 1.0, 1.0, 1.0, 1.0, 1.0, 1.0, 1.0, 1.0, 1.0, 1.0, 1.0, 1.0, 1.0, 1.0, 1.0, 1.0]

>  <TempFactor>  (403) 
[44.77, 46.95, 43.33, 43.58, 47.51, 47.9, 43.96, 46.53, 46.69, 77.84, 47.13, 39.22, 49.9, 43.36, 42.16, 75.89, 55.22, 72.09, 44.14, 43.03, 43.28, 76.01, 44.2, 62.42, 42.91, 44.07, 47.42, 45.41, 69.71, 44.62, 43.66, 46.14, 44.31, 70.66, 44.24]

>  <accession>  (403) 
5BPE_A

>  <description>  (403) 
Chain A, EV71 3Cpro [Enterovirus A71]

>  <evalue>  (403) 
1.3023100000000001e-85

>  <pdb_code>  (403) 
5BPE

>  <chain>  (403) 
A

>  <ligands>  (403) 
[{'chain_id': 'A', 'author_residue_number': 201, 'author_insertion_code': '', 'chem_comp_id': 'E22', 'alternate_conformers': 0, 'entity_id': 2, 'struct_asym_id': 'B', 'residue_number': 1, 'chem_comp_name': '(2~{S})-~{N}-[(1~{R},2~{S})-1-cyano-1-oxidanyl-3-[(3~{S})-2-oxidanylidenepiperidin-3-yl]propan-2-yl]-3-phenyl-2-[[(~{E})-3-phenylprop-2-enoyl]amino]propanamide', 'weight': 474.552, 'carbohydrate_polymer': False, 'branch_name': ''}]

>  <ligand_codes>  (403) 
['E22']

>  <cofactor_codes>  (403) 
[]

>  <has_cofactor>  (403) 
False

>  <covalent>  (403) 
False

>  <base_name>  (403) 
5BPE

>  <lig_resn>  (403) 
E22

>  <lig_resi>  (403) 
201

>  <lig_chain>  (403) 
A

>  <lig_segi>  (403) 
B

>  <lig_alt>  (403) 


>  <polymer_chain>  (403) 
A

>  <single_smiles>  (403) 
O[C@@H](C#N)[C@H](C[C@@H]1CCCNC1=O)NC(=O)[C@H](Cc2ccccc2)NC(=O)\C=C\c3ccccc3

$$$$
E22P1S34
     RDKit          3D

 21 21  0  0  0  0  0  0  0  0999 V2000
   -7.5860    9.9340  -32.5820 C   0  0  0  0  0  0  0  0  0  0  0  0
   -7.7760   10.0440  -34.2160 C   0  0  2  0  0  0  0  0  0  0  0  0
   -8.8710   10.8540  -34.2980 N   0  0  0  0  0  0  0  0  0  0  0  0
   -8.0510    8.9360  -35.1760 C   0  0  1  0  0  0  0  0  0  0  0  0
   -8.7700   11.9720  -35.1380 C   0  0  0  0  0  0  0  0  0  0  0  0
   -7.8270    9.3530  -36.4740 O   0  0  0  0  0  0  0  0  0  0  0  0
   -7.2430    7.7760  -34.8330 C   0  0  0  0  0  0  0  0  0  0  0  0
   -9.9190   12.9430  -35.2650 C   0  0  1  0  0  0  0  0  0  0  0  0
   -7.7360   12.1130  -35.7460 O   0  0  0  0  0  0  0  0  0  0  0  0
   -6.6380    6.9450  -34.6150 N   0  0  0  0  0  0  0  0  0  0  0  0
   -9.5160   14.2860  -34.9670 N   0  0  0  0  0  0  0  0  0  0  0  0
  -10.4120   12.8110  -36.6940 C   0  0  0  0  0  0  0  0  0  0  0  0
   -9.2290   14.7180  -33.6340 C   0  0  0  0  0  0  0  0  0  0  0  0
  -11.6540   13.6210  -36.9560 C   0  0  0  0  0  0  0  0  0  0  0  0
   -8.8010   16.1560  -33.3590 C   0  0  0  0  0  0  0  0  0  0  0  0
   -9.3150   13.9250  -32.7120 O   0  0  0  0  0  0  0  0  0  0  0  0
  -11.6660   14.5500  -37.9930 C   0  0  0  0  0  0  0  0  0  0  0  0
  -12.7700   13.4400  -36.1440 C   0  0  0  0  0  0  0  0  0  0  0  0
  -12.8090   15.3130  -38.2220 C   0  0  0  0  0  0  0  0  0  0  0  0
  -13.9210   14.1890  -36.3740 C   0  0  0  0  0  0  0  0  0  0  0  0
  -13.9340   15.1220  -37.4080 C   0  0  0  0  0  0  0  0  0  0  0  0
  2  1  1  1
  3  2  1  0
  2  4  1  0
  5  3  1  0
  4  6  1  6
  7  4  1  0
  8  5  1  0
  9  5  2  0
 10  7  3  0
  8 11  1  0
  8 12  1  6
 11 13  1  0
 12 14  1  0
 13 15  1  0
 16 13  2  0
 14 17  2  0
 14 18  1  0
 17 19  1  0
 18 20  2  0
 21 19  2  0
 21 20  1  0
A    2
 C11
A    3
 N3 
A    4
 C24
A    5
 C3 
A    6
 O3 
A    7
 C19
A    8
 C1 
A    9
 O1 
A   10
 N2 
A   11
 N1 
A   12
 C2 
A   13
 C5 
A   14
 C7 
A   16
 O2 
A   17
 C12
A   18
 C18
A   19
 C22
A   20
 C23
A   21
 C20
M  END
>  <XChem_code>  (404) 
E22§1

>  <Occupancy>  (404) 
[1.0, 1.0, 1.0, 1.0, 1.0, 1.0, 1.0, 1.0, 1.0, 1.0, 1.0, 1.0, 1.0, 1.0, 1.0, 1.0, 1.0, 1.0, 1.0, 1.0, 1.0, 1.0, 1.0, 1.0, 1.0, 1.0, 1.0, 1.0, 1.0, 1.0, 1.0, 1.0, 1.0, 1.0, 1.0]

>  <TempFactor>  (404) 
[44.77, 46.95, 43.33, 43.58, 47.51, 47.9, 43.96, 46.53, 46.69, 77.84, 47.13, 39.22, 49.9, 43.36, 42.16, 75.89, 55.22, 72.09, 44.14, 43.03, 43.28, 76.01, 44.2, 62.42, 42.91, 44.07, 47.42, 45.41, 69.71, 44.62, 43.66, 46.14, 44.31, 70.66, 44.24]

>  <accession>  (404) 
5BPE_A

>  <description>  (404) 
Chain A, EV71 3Cpro [Enterovirus A71]

>  <evalue>  (404) 
1.3023100000000001e-85

>  <pdb_code>  (404) 
5BPE

>  <chain>  (404) 
A

>  <ligands>  (404) 
[{'chain_id': 'A', 'author_residue_number': 201, 'author_insertion_code': '', 'chem_comp_id': 'E22', 'alternate_conformers': 0, 'entity_id': 2, 'struct_asym_id': 'B', 'residue_number': 1, 'chem_comp_name': '(2~{S})-~{N}-[(1~{R},2~{S})-1-cyano-1-oxidanyl-3-[(3~{S})-2-oxidanylidenepiperidin-3-yl]propan-2-yl]-3-phenyl-2-[[(~{E})-3-phenylprop-2-enoyl]amino]propanamide', 'weight': 474.552, 'carbohydrate_polymer': False, 'branch_name': ''}]

>  <ligand_codes>  (404) 
['E22']

>  <cofactor_codes>  (404) 
[]

>  <has_cofactor>  (404) 
False

>  <covalent>  (404) 
False

>  <base_name>  (404) 
5BPE

>  <lig_resn>  (404) 
E22

>  <lig_resi>  (404) 
201

>  <lig_chain>  (404) 
A

>  <lig_segi>  (404) 
B

>  <lig_alt>  (404) 


>  <polymer_chain>  (404) 
A

>  <single_smiles>  (404) 
O[C@@H](C#N)[C@H](C[C@@H]1CCCNC1=O)NC(=O)[C@H](Cc2ccccc2)NC(=O)\C=C\c3ccccc3

$$$$
E22P1S35
     RDKit          3D

 22 22  0  0  0  0  0  0  0  0999 V2000
  -10.4120   12.8110  -36.6940 C   0  0  0  0  0  0  0  0  0  0  0  0
   -9.9190   12.9430  -35.2650 C   0  0  2  0  0  0  0  0  0  0  0  0
   -9.5160   14.2860  -34.9670 N   0  0  0  0  0  0  0  0  0  0  0  0
   -8.7700   11.9720  -35.1380 C   0  0  0  0  0  0  0  0  0  0  0  0
   -9.2290   14.7180  -33.6340 C   0  0  0  0  0  0  0  0  0  0  0  0
   -7.7360   12.1130  -35.7460 O   0  0  0  0  0  0  0  0  0  0  0  0
   -8.8710   10.8540  -34.2980 N   0  0  0  0  0  0  0  0  0  0  0  0
   -8.8010   16.1560  -33.3590 C   0  0  0  0  0  0  0  0  0  0  0  0
   -9.3150   13.9250  -32.7120 O   0  0  0  0  0  0  0  0  0  0  0  0
   -7.7760   10.0440  -34.2160 C   0  0  1  0  0  0  0  0  0  0  0  0
   -7.5860    9.9340  -32.5820 C   0  0  0  0  0  0  0  0  0  0  0  0
   -8.0510    8.9360  -35.1760 C   0  0  1  0  0  0  0  0  0  0  0  0
   -7.1210   11.2530  -31.8690 C   0  0  2  0  0  0  0  0  0  0  0  0
   -7.8270    9.3530  -36.4740 O   0  0  0  0  0  0  0  0  0  0  0  0
   -7.2430    7.7760  -34.8330 C   0  0  0  0  0  0  0  0  0  0  0  0
   -6.1370   11.9120  -32.4520 C   0  0  0  0  0  0  0  0  0  0  0  0
   -7.0220   10.9800  -30.3480 C   0  0  0  0  0  0  0  0  0  0  0  0
   -6.6380    6.9450  -34.6150 N   0  0  0  0  0  0  0  0  0  0  0  0
   -5.5830   13.0950  -31.6740 C   0  0  0  0  0  0  0  0  0  0  0  0
   -6.1930   11.9110  -29.6060 N   0  0  0  0  0  0  0  0  0  0  0  0
   -7.6220    9.9280  -29.8110 O   0  0  0  0  0  0  0  0  0  0  0  0
   -5.1120   12.6510  -30.2840 C   0  0  0  0  0  0  0  0  0  0  0  0
  2  1  1  6
  2  3  1  0
  2  4  1  0
  3  5  1  0
  6  4  2  0
  4  7  1  0
  5  8  1  0
  9  5  2  0
  7 10  1  0
 10 11  1  1
 10 12  1  0
 13 11  1  6
 12 14  1  6
 15 12  1  0
 16 13  1  0
 17 13  1  0
 18 15  3  0
 19 16  1  0
 20 17  1  0
 21 17  2  0
 19 22  1  0
 20 22  1  0
A    2
 C1 
A    3
 N1 
A    4
 C3 
A    5
 C5 
A    6
 O1 
A    7
 N3 
A    9
 O2 
A   10
 C11
A   11
 C17
A   12
 C24
A   13
 C25
A   14
 O3 
A   15
 C19
A   16
 C13
A   17
 C15
A   18
 N2 
A   19
 C6 
A   20
 N4 
A   21
 O4 
A   22
 C27
M  END
>  <XChem_code>  (405) 
E22§1

>  <Occupancy>  (405) 
[1.0, 1.0, 1.0, 1.0, 1.0, 1.0, 1.0, 1.0, 1.0, 1.0, 1.0, 1.0, 1.0, 1.0, 1.0, 1.0, 1.0, 1.0, 1.0, 1.0, 1.0, 1.0, 1.0, 1.0, 1.0, 1.0, 1.0, 1.0, 1.0, 1.0, 1.0, 1.0, 1.0, 1.0, 1.0]

>  <TempFactor>  (405) 
[44.77, 46.95, 43.33, 43.58, 47.51, 47.9, 43.96, 46.53, 46.69, 77.84, 47.13, 39.22, 49.9, 43.36, 42.16, 75.89, 55.22, 72.09, 44.14, 43.03, 43.28, 76.01, 44.2, 62.42, 42.91, 44.07, 47.42, 45.41, 69.71, 44.62, 43.66, 46.14, 44.31, 70.66, 44.24]

>  <accession>  (405) 
5BPE_A

>  <description>  (405) 
Chain A, EV71 3Cpro [Enterovirus A71]

>  <evalue>  (405) 
1.3023100000000001e-85

>  <pdb_code>  (405) 
5BPE

>  <chain>  (405) 
A

>  <ligands>  (405) 
[{'chain_id': 'A', 'author_residue_number': 201, 'author_insertion_code': '', 'chem_comp_id': 'E22', 'alternate_conformers': 0, 'entity_id': 2, 'struct_asym_id': 'B', 'residue_number': 1, 'chem_comp_name': '(2~{S})-~{N}-[(1~{R},2~{S})-1-cyano-1-oxidanyl-3-[(3~{S})-2-oxidanylidenepiperidin-3-yl]propan-2-yl]-3-phenyl-2-[[(~{E})-3-phenylprop-2-enoyl]amino]propanamide', 'weight': 474.552, 'carbohydrate_polymer': False, 'branch_name': ''}]

>  <ligand_codes>  (405) 
['E22']

>  <cofactor_codes>  (405) 
[]

>  <has_cofactor>  (405) 
False

>  <covalent>  (405) 
False

>  <base_name>  (405) 
5BPE

>  <lig_resn>  (405) 
E22

>  <lig_resi>  (405) 
201

>  <lig_chain>  (405) 
A

>  <lig_segi>  (405) 
B

>  <lig_alt>  (405) 


>  <polymer_chain>  (405) 
A

>  <single_smiles>  (405) 
O[C@@H](C#N)[C@H](C[C@@H]1CCCNC1=O)NC(=O)[C@H](Cc2ccccc2)NC(=O)\C=C\c3ccccc3

$$$$
E22P1S36
     RDKit          3D

  8  7  0  0  0  0  0  0  0  0999 V2000
  -10.4120   12.8110  -36.6940 C   0  0  0  0  0  0  0  0  0  0  0  0
   -9.9190   12.9430  -35.2650 C   0  0  2  0  0  0  0  0  0  0  0  0
   -9.5160   14.2860  -34.9670 N   0  0  0  0  0  0  0  0  0  0  0  0
   -8.7700   11.9720  -35.1380 C   0  0  0  0  0  0  0  0  0  0  0  0
   -9.2290   14.7180  -33.6340 C   0  0  0  0  0  0  0  0  0  0  0  0
   -7.7360   12.1130  -35.7460 O   0  0  0  0  0  0  0  0  0  0  0  0
   -8.8010   16.1560  -33.3590 C   0  0  0  0  0  0  0  0  0  0  0  0
   -9.3150   13.9250  -32.7120 O   0  0  0  0  0  0  0  0  0  0  0  0
  2  1  1  6
  2  3  1  0
  2  4  1  0
  3  5  1  0
  6  4  2  0
  5  7  1  0
  8  5  2  0
A    2
 C1 
A    3
 N1 
A    5
 C5 
A    6
 O1 
A    8
 O2 
M  END
>  <XChem_code>  (406) 
E22§1

>  <Occupancy>  (406) 
[1.0, 1.0, 1.0, 1.0, 1.0, 1.0, 1.0, 1.0, 1.0, 1.0, 1.0, 1.0, 1.0, 1.0, 1.0, 1.0, 1.0, 1.0, 1.0, 1.0, 1.0, 1.0, 1.0, 1.0, 1.0, 1.0, 1.0, 1.0, 1.0, 1.0, 1.0, 1.0, 1.0, 1.0, 1.0]

>  <TempFactor>  (406) 
[44.77, 46.95, 43.33, 43.58, 47.51, 47.9, 43.96, 46.53, 46.69, 77.84, 47.13, 39.22, 49.9, 43.36, 42.16, 75.89, 55.22, 72.09, 44.14, 43.03, 43.28, 76.01, 44.2, 62.42, 42.91, 44.07, 47.42, 45.41, 69.71, 44.62, 43.66, 46.14, 44.31, 70.66, 44.24]

>  <accession>  (406) 
5BPE_A

>  <description>  (406) 
Chain A, EV71 3Cpro [Enterovirus A71]

>  <evalue>  (406) 
1.3023100000000001e-85

>  <pdb_code>  (406) 
5BPE

>  <chain>  (406) 
A

>  <ligands>  (406) 
[{'chain_id': 'A', 'author_residue_number': 201, 'author_insertion_code': '', 'chem_comp_id': 'E22', 'alternate_conformers': 0, 'entity_id': 2, 'struct_asym_id': 'B', 'residue_number': 1, 'chem_comp_name': '(2~{S})-~{N}-[(1~{R},2~{S})-1-cyano-1-oxidanyl-3-[(3~{S})-2-oxidanylidenepiperidin-3-yl]propan-2-yl]-3-phenyl-2-[[(~{E})-3-phenylprop-2-enoyl]amino]propanamide', 'weight': 474.552, 'carbohydrate_polymer': False, 'branch_name': ''}]

>  <ligand_codes>  (406) 
['E22']

>  <cofactor_codes>  (406) 
[]

>  <has_cofactor>  (406) 
False

>  <covalent>  (406) 
False

>  <base_name>  (406) 
5BPE

>  <lig_resn>  (406) 
E22

>  <lig_resi>  (406) 
201

>  <lig_chain>  (406) 
A

>  <lig_segi>  (406) 
B

>  <lig_alt>  (406) 


>  <polymer_chain>  (406) 
A

>  <single_smiles>  (406) 
O[C@@H](C#N)[C@H](C[C@@H]1CCCNC1=O)NC(=O)[C@H](Cc2ccccc2)NC(=O)\C=C\c3ccccc3

$$$$
E22P1S37
     RDKit          3D

  9  8  0  0  0  0  0  0  0  0999 V2000
  -10.4120   12.8110  -36.6940 C   0  0  0  0  0  0  0  0  0  0  0  0
   -9.9190   12.9430  -35.2650 C   0  0  2  0  0  0  0  0  0  0  0  0
   -9.5160   14.2860  -34.9670 N   0  0  0  0  0  0  0  0  0  0  0  0
   -8.7700   11.9720  -35.1380 C   0  0  0  0  0  0  0  0  0  0  0  0
   -9.2290   14.7180  -33.6340 C   0  0  0  0  0  0  0  0  0  0  0  0
   -8.8710   10.8540  -34.2980 N   0  0  0  0  0  0  0  0  0  0  0  0
   -7.7360   12.1130  -35.7460 O   0  0  0  0  0  0  0  0  0  0  0  0
   -8.8010   16.1560  -33.3590 C   0  0  0  0  0  0  0  0  0  0  0  0
   -9.3150   13.9250  -32.7120 O   0  0  0  0  0  0  0  0  0  0  0  0
  2  1  1  6
  2  3  1  0
  2  4  1  0
  3  5  1  0
  4  6  1  0
  7  4  2  0
  5  8  1  0
  9  5  2  0
A    2
 C1 
A    3
 N1 
A    4
 C3 
A    5
 C5 
A    7
 O1 
A    9
 O2 
M  END
>  <XChem_code>  (407) 
E22§1

>  <Occupancy>  (407) 
[1.0, 1.0, 1.0, 1.0, 1.0, 1.0, 1.0, 1.0, 1.0, 1.0, 1.0, 1.0, 1.0, 1.0, 1.0, 1.0, 1.0, 1.0, 1.0, 1.0, 1.0, 1.0, 1.0, 1.0, 1.0, 1.0, 1.0, 1.0, 1.0, 1.0, 1.0, 1.0, 1.0, 1.0, 1.0]

>  <TempFactor>  (407) 
[44.77, 46.95, 43.33, 43.58, 47.51, 47.9, 43.96, 46.53, 46.69, 77.84, 47.13, 39.22, 49.9, 43.36, 42.16, 75.89, 55.22, 72.09, 44.14, 43.03, 43.28, 76.01, 44.2, 62.42, 42.91, 44.07, 47.42, 45.41, 69.71, 44.62, 43.66, 46.14, 44.31, 70.66, 44.24]

>  <accession>  (407) 
5BPE_A

>  <description>  (407) 
Chain A, EV71 3Cpro [Enterovirus A71]

>  <evalue>  (407) 
1.3023100000000001e-85

>  <pdb_code>  (407) 
5BPE

>  <chain>  (407) 
A

>  <ligands>  (407) 
[{'chain_id': 'A', 'author_residue_number': 201, 'author_insertion_code': '', 'chem_comp_id': 'E22', 'alternate_conformers': 0, 'entity_id': 2, 'struct_asym_id': 'B', 'residue_number': 1, 'chem_comp_name': '(2~{S})-~{N}-[(1~{R},2~{S})-1-cyano-1-oxidanyl-3-[(3~{S})-2-oxidanylidenepiperidin-3-yl]propan-2-yl]-3-phenyl-2-[[(~{E})-3-phenylprop-2-enoyl]amino]propanamide', 'weight': 474.552, 'carbohydrate_polymer': False, 'branch_name': ''}]

>  <ligand_codes>  (407) 
['E22']

>  <cofactor_codes>  (407) 
[]

>  <has_cofactor>  (407) 
False

>  <covalent>  (407) 
False

>  <base_name>  (407) 
5BPE

>  <lig_resn>  (407) 
E22

>  <lig_resi>  (407) 
201

>  <lig_chain>  (407) 
A

>  <lig_segi>  (407) 
B

>  <lig_alt>  (407) 


>  <polymer_chain>  (407) 
A

>  <single_smiles>  (407) 
O[C@@H](C#N)[C@H](C[C@@H]1CCCNC1=O)NC(=O)[C@H](Cc2ccccc2)NC(=O)\C=C\c3ccccc3

$$$$
E22P1S38
     RDKit          3D

 22 22  0  0  0  0  0  0  0  0999 V2000
  -10.4120   12.8110  -36.6940 C   0  0  0  0  0  0  0  0  0  0  0  0
   -9.9190   12.9430  -35.2650 C   0  0  1  0  0  0  0  0  0  0  0  0
   -8.7700   11.9720  -35.1380 C   0  0  0  0  0  0  0  0  0  0  0  0
   -9.5160   14.2860  -34.9670 N   0  0  0  0  0  0  0  0  0  0  0  0
   -8.8710   10.8540  -34.2980 N   0  0  0  0  0  0  0  0  0  0  0  0
   -7.7360   12.1130  -35.7460 O   0  0  0  0  0  0  0  0  0  0  0  0
   -9.2290   14.7180  -33.6340 C   0  0  0  0  0  0  0  0  0  0  0  0
   -7.7760   10.0440  -34.2160 C   0  0  1  0  0  0  0  0  0  0  0  0
   -9.3150   13.9250  -32.7120 O   0  0  0  0  0  0  0  0  0  0  0  0
   -8.8010   16.1560  -33.3590 C   0  0  0  0  0  0  0  0  0  0  0  0
   -7.5860    9.9340  -32.5820 C   0  0  0  0  0  0  0  0  0  0  0  0
   -8.0510    8.9360  -35.1760 C   0  0  1  0  0  0  0  0  0  0  0  0
   -9.9570   17.1090  -33.0820 C   0  0  0  0  0  0  0  0  0  0  0  0
   -7.8270    9.3530  -36.4740 O   0  0  0  0  0  0  0  0  0  0  0  0
   -7.2430    7.7760  -34.8330 C   0  0  0  0  0  0  0  0  0  0  0  0
   -9.6410   18.4120  -32.3490 C   0  0  0  0  0  0  0  0  0  0  0  0
   -6.6380    6.9450  -34.6150 N   0  0  0  0  0  0  0  0  0  0  0  0
  -10.6660   19.0760  -31.6610 C   0  0  0  0  0  0  0  0  0  0  0  0
   -8.3610   18.9710  -32.3500 C   0  0  0  0  0  0  0  0  0  0  0  0
  -10.4320   20.2770  -30.9840 C   0  0  0  0  0  0  0  0  0  0  0  0
   -8.1180   20.1680  -31.6780 C   0  0  0  0  0  0  0  0  0  0  0  0
   -9.1480   20.8220  -30.9950 C   0  0  0  0  0  0  0  0  0  0  0  0
  2  1  1  6
  2  3  1  0
  2  4  1  0
  3  5  1  0
  6  3  2  0
  4  7  1  0
  5  8  1  0
  9  7  2  0
  7 10  1  0
  8 11  1  1
  8 12  1  0
 10 13  2  3
 12 14  1  6
 15 12  1  0
 13 16  1  0
 17 15  3  0
 18 16  2  0
 16 19  1  0
 20 18  1  0
 21 19  2  0
 22 20  2  0
 22 21  1  0
A    2
 C1 
A    3
 C3 
A    4
 N1 
A    5
 N3 
A    6
 O1 
A    7
 C5 
A    8
 C11
A    9
 O2 
A   10
 C9 
A   12
 C24
A   13
 C16
A   14
 O3 
A   15
 C19
A   16
 C21
A   17
 N2 
A   18
 C14
A   19
 C26
A   20
 C8 
A   21
 C10
A   22
 C4 
M  END
>  <XChem_code>  (408) 
E22§1

>  <Occupancy>  (408) 
[1.0, 1.0, 1.0, 1.0, 1.0, 1.0, 1.0, 1.0, 1.0, 1.0, 1.0, 1.0, 1.0, 1.0, 1.0, 1.0, 1.0, 1.0, 1.0, 1.0, 1.0, 1.0, 1.0, 1.0, 1.0, 1.0, 1.0, 1.0, 1.0, 1.0, 1.0, 1.0, 1.0, 1.0, 1.0]

>  <TempFactor>  (408) 
[44.77, 46.95, 43.33, 43.58, 47.51, 47.9, 43.96, 46.53, 46.69, 77.84, 47.13, 39.22, 49.9, 43.36, 42.16, 75.89, 55.22, 72.09, 44.14, 43.03, 43.28, 76.01, 44.2, 62.42, 42.91, 44.07, 47.42, 45.41, 69.71, 44.62, 43.66, 46.14, 44.31, 70.66, 44.24]

>  <accession>  (408) 
5BPE_A

>  <description>  (408) 
Chain A, EV71 3Cpro [Enterovirus A71]

>  <evalue>  (408) 
1.3023100000000001e-85

>  <pdb_code>  (408) 
5BPE

>  <chain>  (408) 
A

>  <ligands>  (408) 
[{'chain_id': 'A', 'author_residue_number': 201, 'author_insertion_code': '', 'chem_comp_id': 'E22', 'alternate_conformers': 0, 'entity_id': 2, 'struct_asym_id': 'B', 'residue_number': 1, 'chem_comp_name': '(2~{S})-~{N}-[(1~{R},2~{S})-1-cyano-1-oxidanyl-3-[(3~{S})-2-oxidanylidenepiperidin-3-yl]propan-2-yl]-3-phenyl-2-[[(~{E})-3-phenylprop-2-enoyl]amino]propanamide', 'weight': 474.552, 'carbohydrate_polymer': False, 'branch_name': ''}]

>  <ligand_codes>  (408) 
['E22']

>  <cofactor_codes>  (408) 
[]

>  <has_cofactor>  (408) 
False

>  <covalent>  (408) 
False

>  <base_name>  (408) 
5BPE

>  <lig_resn>  (408) 
E22

>  <lig_resi>  (408) 
201

>  <lig_chain>  (408) 
A

>  <lig_segi>  (408) 
B

>  <lig_alt>  (408) 


>  <polymer_chain>  (408) 
A

>  <single_smiles>  (408) 
O[C@@H](C#N)[C@H](C[C@@H]1CCCNC1=O)NC(=O)[C@H](Cc2ccccc2)NC(=O)\C=C\c3ccccc3

$$$$
E22P1S39
     RDKit          3D

 12 11  0  0  0  0  0  0  0  0999 V2000
  -10.4120   12.8110  -36.6940 C   0  0  0  0  0  0  0  0  0  0  0  0
   -9.9190   12.9430  -35.2650 C   0  0  1  0  0  0  0  0  0  0  0  0
   -8.7700   11.9720  -35.1380 C   0  0  0  0  0  0  0  0  0  0  0  0
   -9.5160   14.2860  -34.9670 N   0  0  0  0  0  0  0  0  0  0  0  0
   -8.8710   10.8540  -34.2980 N   0  0  0  0  0  0  0  0  0  0  0  0
   -7.7360   12.1130  -35.7460 O   0  0  0  0  0  0  0  0  0  0  0  0
   -7.7760   10.0440  -34.2160 C   0  0  1  0  0  0  0  0  0  0  0  0
   -7.5860    9.9340  -32.5820 C   0  0  0  0  0  0  0  0  0  0  0  0
   -8.0510    8.9360  -35.1760 C   0  0  1  0  0  0  0  0  0  0  0  0
   -7.8270    9.3530  -36.4740 O   0  0  0  0  0  0  0  0  0  0  0  0
   -7.2430    7.7760  -34.8330 C   0  0  0  0  0  0  0  0  0  0  0  0
   -6.6380    6.9450  -34.6150 N   0  0  0  0  0  0  0  0  0  0  0  0
  2  1  1  6
  2  3  1  0
  2  4  1  0
  3  5  1  0
  6  3  2  0
  5  7  1  0
  7  8  1  1
  7  9  1  0
  9 10  1  6
 11  9  1  0
 12 11  3  0
A    2
 C1 
A    3
 C3 
A    5
 N3 
A    6
 O1 
A    7
 C11
A    9
 C24
A   10
 O3 
A   11
 C19
A   12
 N2 
M  END
>  <XChem_code>  (409) 
E22§1

>  <Occupancy>  (409) 
[1.0, 1.0, 1.0, 1.0, 1.0, 1.0, 1.0, 1.0, 1.0, 1.0, 1.0, 1.0, 1.0, 1.0, 1.0, 1.0, 1.0, 1.0, 1.0, 1.0, 1.0, 1.0, 1.0, 1.0, 1.0, 1.0, 1.0, 1.0, 1.0, 1.0, 1.0, 1.0, 1.0, 1.0, 1.0]

>  <TempFactor>  (409) 
[44.77, 46.95, 43.33, 43.58, 47.51, 47.9, 43.96, 46.53, 46.69, 77.84, 47.13, 39.22, 49.9, 43.36, 42.16, 75.89, 55.22, 72.09, 44.14, 43.03, 43.28, 76.01, 44.2, 62.42, 42.91, 44.07, 47.42, 45.41, 69.71, 44.62, 43.66, 46.14, 44.31, 70.66, 44.24]

>  <accession>  (409) 
5BPE_A

>  <description>  (409) 
Chain A, EV71 3Cpro [Enterovirus A71]

>  <evalue>  (409) 
1.3023100000000001e-85

>  <pdb_code>  (409) 
5BPE

>  <chain>  (409) 
A

>  <ligands>  (409) 
[{'chain_id': 'A', 'author_residue_number': 201, 'author_insertion_code': '', 'chem_comp_id': 'E22', 'alternate_conformers': 0, 'entity_id': 2, 'struct_asym_id': 'B', 'residue_number': 1, 'chem_comp_name': '(2~{S})-~{N}-[(1~{R},2~{S})-1-cyano-1-oxidanyl-3-[(3~{S})-2-oxidanylidenepiperidin-3-yl]propan-2-yl]-3-phenyl-2-[[(~{E})-3-phenylprop-2-enoyl]amino]propanamide', 'weight': 474.552, 'carbohydrate_polymer': False, 'branch_name': ''}]

>  <ligand_codes>  (409) 
['E22']

>  <cofactor_codes>  (409) 
[]

>  <has_cofactor>  (409) 
False

>  <covalent>  (409) 
False

>  <base_name>  (409) 
5BPE

>  <lig_resn>  (409) 
E22

>  <lig_resi>  (409) 
201

>  <lig_chain>  (409) 
A

>  <lig_segi>  (409) 
B

>  <lig_alt>  (409) 


>  <polymer_chain>  (409) 
A

>  <single_smiles>  (409) 
O[C@@H](C#N)[C@H](C[C@@H]1CCCNC1=O)NC(=O)[C@H](Cc2ccccc2)NC(=O)\C=C\c3ccccc3

$$$$
E22P1S40
     RDKit          3D

 11 10  0  0  0  0  0  0  0  0999 V2000
  -10.4120   12.8110  -36.6940 C   0  0  0  0  0  0  0  0  0  0  0  0
   -9.9190   12.9430  -35.2650 C   0  0  0  0  0  0  0  0  0  0  0  0
   -8.7700   11.9720  -35.1380 C   0  0  0  0  0  0  0  0  0  0  0  0
   -8.8710   10.8540  -34.2980 N   0  0  0  0  0  0  0  0  0  0  0  0
   -7.7360   12.1130  -35.7460 O   0  0  0  0  0  0  0  0  0  0  0  0
   -7.7760   10.0440  -34.2160 C   0  0  1  0  0  0  0  0  0  0  0  0
   -7.5860    9.9340  -32.5820 C   0  0  0  0  0  0  0  0  0  0  0  0
   -8.0510    8.9360  -35.1760 C   0  0  1  0  0  0  0  0  0  0  0  0
   -7.8270    9.3530  -36.4740 O   0  0  0  0  0  0  0  0  0  0  0  0
   -7.2430    7.7760  -34.8330 C   0  0  0  0  0  0  0  0  0  0  0  0
   -6.6380    6.9450  -34.6150 N   0  0  0  0  0  0  0  0  0  0  0  0
  2  1  1  6
  2  3  1  0
  3  4  1  0
  5  3  2  0
  4  6  1  0
  6  7  1  1
  6  8  1  0
  8  9  1  6
 10  8  1  0
 11 10  3  0
A    3
 C3 
A    4
 N3 
A    5
 O1 
A    6
 C11
A    8
 C24
A    9
 O3 
A   10
 C19
A   11
 N2 
M  END
>  <XChem_code>  (410) 
E22§1

>  <Occupancy>  (410) 
[1.0, 1.0, 1.0, 1.0, 1.0, 1.0, 1.0, 1.0, 1.0, 1.0, 1.0, 1.0, 1.0, 1.0, 1.0, 1.0, 1.0, 1.0, 1.0, 1.0, 1.0, 1.0, 1.0, 1.0, 1.0, 1.0, 1.0, 1.0, 1.0, 1.0, 1.0, 1.0, 1.0, 1.0, 1.0]

>  <TempFactor>  (410) 
[44.77, 46.95, 43.33, 43.58, 47.51, 47.9, 43.96, 46.53, 46.69, 77.84, 47.13, 39.22, 49.9, 43.36, 42.16, 75.89, 55.22, 72.09, 44.14, 43.03, 43.28, 76.01, 44.2, 62.42, 42.91, 44.07, 47.42, 45.41, 69.71, 44.62, 43.66, 46.14, 44.31, 70.66, 44.24]

>  <accession>  (410) 
5BPE_A

>  <description>  (410) 
Chain A, EV71 3Cpro [Enterovirus A71]

>  <evalue>  (410) 
1.3023100000000001e-85

>  <pdb_code>  (410) 
5BPE

>  <chain>  (410) 
A

>  <ligands>  (410) 
[{'chain_id': 'A', 'author_residue_number': 201, 'author_insertion_code': '', 'chem_comp_id': 'E22', 'alternate_conformers': 0, 'entity_id': 2, 'struct_asym_id': 'B', 'residue_number': 1, 'chem_comp_name': '(2~{S})-~{N}-[(1~{R},2~{S})-1-cyano-1-oxidanyl-3-[(3~{S})-2-oxidanylidenepiperidin-3-yl]propan-2-yl]-3-phenyl-2-[[(~{E})-3-phenylprop-2-enoyl]amino]propanamide', 'weight': 474.552, 'carbohydrate_polymer': False, 'branch_name': ''}]

>  <ligand_codes>  (410) 
['E22']

>  <cofactor_codes>  (410) 
[]

>  <has_cofactor>  (410) 
False

>  <covalent>  (410) 
False

>  <base_name>  (410) 
5BPE

>  <lig_resn>  (410) 
E22

>  <lig_resi>  (410) 
201

>  <lig_chain>  (410) 
A

>  <lig_segi>  (410) 
B

>  <lig_alt>  (410) 


>  <polymer_chain>  (410) 
A

>  <single_smiles>  (410) 
O[C@@H](C#N)[C@H](C[C@@H]1CCCNC1=O)NC(=O)[C@H](Cc2ccccc2)NC(=O)\C=C\c3ccccc3

$$$$
E22P1S41
     RDKit          3D

 15 14  0  0  0  0  0  0  0  0999 V2000
  -10.4120   12.8110  -36.6940 C   0  0  0  0  0  0  0  0  0  0  0  0
   -9.9190   12.9430  -35.2650 C   0  0  1  0  0  0  0  0  0  0  0  0
   -8.7700   11.9720  -35.1380 C   0  0  0  0  0  0  0  0  0  0  0  0
   -9.5160   14.2860  -34.9670 N   0  0  0  0  0  0  0  0  0  0  0  0
   -8.8710   10.8540  -34.2980 N   0  0  0  0  0  0  0  0  0  0  0  0
   -7.7360   12.1130  -35.7460 O   0  0  0  0  0  0  0  0  0  0  0  0
   -9.2290   14.7180  -33.6340 C   0  0  0  0  0  0  0  0  0  0  0  0
   -7.7760   10.0440  -34.2160 C   0  0  1  0  0  0  0  0  0  0  0  0
   -8.8010   16.1560  -33.3590 C   0  0  0  0  0  0  0  0  0  0  0  0
   -9.3150   13.9250  -32.7120 O   0  0  0  0  0  0  0  0  0  0  0  0
   -7.5860    9.9340  -32.5820 C   0  0  0  0  0  0  0  0  0  0  0  0
   -8.0510    8.9360  -35.1760 C   0  0  1  0  0  0  0  0  0  0  0  0
   -7.8270    9.3530  -36.4740 O   0  0  0  0  0  0  0  0  0  0  0  0
   -7.2430    7.7760  -34.8330 C   0  0  0  0  0  0  0  0  0  0  0  0
   -6.6380    6.9450  -34.6150 N   0  0  0  0  0  0  0  0  0  0  0  0
  2  1  1  6
  2  3  1  0
  2  4  1  0
  3  5  1  0
  6  3  2  0
  4  7  1  0
  5  8  1  0
  7  9  1  0
 10  7  2  0
  8 11  1  1
  8 12  1  0
 12 13  1  6
 14 12  1  0
 15 14  3  0
A    2
 C1 
A    3
 C3 
A    4
 N1 
A    5
 N3 
A    6
 O1 
A    7
 C5 
A    8
 C11
A   10
 O2 
A   12
 C24
A   13
 O3 
A   14
 C19
A   15
 N2 
M  END
>  <XChem_code>  (411) 
E22§1

>  <Occupancy>  (411) 
[1.0, 1.0, 1.0, 1.0, 1.0, 1.0, 1.0, 1.0, 1.0, 1.0, 1.0, 1.0, 1.0, 1.0, 1.0, 1.0, 1.0, 1.0, 1.0, 1.0, 1.0, 1.0, 1.0, 1.0, 1.0, 1.0, 1.0, 1.0, 1.0, 1.0, 1.0, 1.0, 1.0, 1.0, 1.0]

>  <TempFactor>  (411) 
[44.77, 46.95, 43.33, 43.58, 47.51, 47.9, 43.96, 46.53, 46.69, 77.84, 47.13, 39.22, 49.9, 43.36, 42.16, 75.89, 55.22, 72.09, 44.14, 43.03, 43.28, 76.01, 44.2, 62.42, 42.91, 44.07, 47.42, 45.41, 69.71, 44.62, 43.66, 46.14, 44.31, 70.66, 44.24]

>  <accession>  (411) 
5BPE_A

>  <description>  (411) 
Chain A, EV71 3Cpro [Enterovirus A71]

>  <evalue>  (411) 
1.3023100000000001e-85

>  <pdb_code>  (411) 
5BPE

>  <chain>  (411) 
A

>  <ligands>  (411) 
[{'chain_id': 'A', 'author_residue_number': 201, 'author_insertion_code': '', 'chem_comp_id': 'E22', 'alternate_conformers': 0, 'entity_id': 2, 'struct_asym_id': 'B', 'residue_number': 1, 'chem_comp_name': '(2~{S})-~{N}-[(1~{R},2~{S})-1-cyano-1-oxidanyl-3-[(3~{S})-2-oxidanylidenepiperidin-3-yl]propan-2-yl]-3-phenyl-2-[[(~{E})-3-phenylprop-2-enoyl]amino]propanamide', 'weight': 474.552, 'carbohydrate_polymer': False, 'branch_name': ''}]

>  <ligand_codes>  (411) 
['E22']

>  <cofactor_codes>  (411) 
[]

>  <has_cofactor>  (411) 
False

>  <covalent>  (411) 
False

>  <base_name>  (411) 
5BPE

>  <lig_resn>  (411) 
E22

>  <lig_resi>  (411) 
201

>  <lig_chain>  (411) 
A

>  <lig_segi>  (411) 
B

>  <lig_alt>  (411) 


>  <polymer_chain>  (411) 
A

>  <single_smiles>  (411) 
O[C@@H](C#N)[C@H](C[C@@H]1CCCNC1=O)NC(=O)[C@H](Cc2ccccc2)NC(=O)\C=C\c3ccccc3

$$$$
K36P1
     RDKit          3D

 30 31  0  0  0  0  0  0  0  0999 V2000
   -8.9700   17.5750  -31.0090 C   0  0  0  0  0  0  0  0  0  0  0  0
  -10.0590   16.9670  -30.4140 C   0  0  0  0  0  0  0  0  0  0  0  0
  -10.8920   17.7010  -29.5780 C   0  0  0  0  0  0  0  0  0  0  0  0
  -10.6400   19.0530  -29.3700 C   0  0  0  0  0  0  0  0  0  0  0  0
   -9.5570   19.6690  -29.9800 C   0  0  0  0  0  0  0  0  0  0  0  0
   -8.7130   18.9270  -30.8020 C   0  0  0  0  0  0  0  0  0  0  0  0
   -8.0750   16.7460  -31.8990 C   0  0  0  0  0  0  0  0  0  0  0  0
   -8.7990   16.3920  -33.0860 O   0  0  0  0  0  0  0  0  0  0  0  0
   -9.2260   15.0230  -33.2570 C   0  0  0  0  0  0  0  0  0  0  0  0
   -9.1610   14.2130  -32.3370 O   0  0  0  0  0  0  0  0  0  0  0  0
   -9.7150   14.7080  -34.4900 N   0  0  0  0  0  0  0  0  0  0  0  0
   -9.8030   13.3470  -35.0110 C   0  0  1  0  0  0  0  0  0  0  0  0
  -10.5080   13.1720  -36.3590 C   0  0  0  0  0  0  0  0  0  0  0  0
  -11.7110   14.0930  -36.5420 C   0  0  0  0  0  0  0  0  0  0  0  0
  -11.9690   14.3320  -38.0230 C   0  0  0  0  0  0  0  0  0  0  0  0
  -12.9410   13.5180  -35.8720 C   0  0  0  0  0  0  0  0  0  0  0  0
   -8.7060   12.3590  -34.7330 C   0  0  2  0  0  0  0  0  0  0  0  0
   -7.5560   12.6800  -35.0200 O   0  0  0  0  0  0  0  0  0  0  0  0
   -9.0120   11.1150  -34.2520 N   0  0  0  0  0  0  0  0  0  0  0  0
   -7.9480   10.1300  -33.9570 C   0  0  2  0  0  0  0  0  0  0  0  0
   -8.2670    8.7510  -34.5240 C   0  0  2  0  0  0  0  0  0  0  0  0
   -8.3190    8.8070  -35.9490 O   0  0  0  0  0  0  0  0  0  0  0  0
   -7.8060    9.9810  -32.4450 C   0  0  0  0  0  0  0  0  0  0  0  0
   -7.3520   11.2620  -31.7920 C   0  0  2  0  0  0  0  0  0  0  0  0
   -5.9980   11.7790  -32.2540 C   0  0  0  0  0  0  0  0  0  0  0  0
   -5.3830   12.4060  -31.0100 C   0  0  0  0  0  0  0  0  0  0  0  0
   -6.0060   11.7100  -29.8810 N   0  0  0  0  0  0  0  0  0  0  0  0
   -7.1020   11.0560  -30.3450 C   0  0  0  0  0  0  0  0  0  0  0  0
   -7.7710   10.3460  -29.6020 O   0  0  0  0  0  0  0  0  0  0  0  0
  -10.0160    8.3280  -33.9520 R   0  0  0  0  0  0  0  0  0  0  0  0
  1  2  1  0
  1  6  1  0
  1  7  1  0
  2  3  1  0
  3  4  1  0
  4  5  1  0
  5  6  1  0
  7  8  1  0
  8  9  1  0
  9 10  1  0
  9 11  1  0
 11 12  1  0
 12 13  1  6
 12 17  1  0
 13 14  1  0
 14 15  1  0
 14 16  1  0
 17 18  1  6
 17 19  1  0
 19 20  1  0
 20 21  1  0
 20 23  1  1
 21 22  1  0
 21 30  1  1
 24 23  1  6
 24 25  1  0
 24 28  1  0
 25 26  1  0
 26 27  1  0
 27 28  1  0
 28 29  1  0
V   30 *
A    1
 C1 
A    2
 C2 
A    3
 C3 
A    4
 C4 
A    5
 C5 
A    6
 C6 
A    7
 C7 
A    8
 O8 
A    9
 C9 
A   10
 O10
A   11
 N11
A   12
 C12
A   13
 C13
A   14
 C14
A   15
 C15
A   16
 C16
A   17
 C17
A   18
 O18
A   19
 N19
A   20
 C20
A   21
 C21
A   22
 O22
A   23
 C24
A   24
 C25
A   25
 C26
A   26
 C27
A   27
 N28
A   28
 C29
A   29
 O30
A   30
 X  
M  END
>  <XChem_code>  (412) 
K36§1

>  <Occupancy>  (412) 
[1.0, 1.0, 1.0, 1.0, 1.0, 1.0, 1.0, 1.0, 1.0, 1.0, 1.0, 1.0, 1.0, 1.0, 1.0, 1.0, 1.0, 1.0, 1.0, 1.0, 1.0, 1.0, 1.0, 1.0, 1.0, 1.0, 1.0, 1.0, 1.0, 1.0]

>  <TempFactor>  (412) 
[30.71, 25.76, 25.55, 30.93, 32.73, 33.09, 29.57, 27.45, 21.78, 20.1, 18.64, 16.74, 17.68, 18.03, 20.27, 18.93, 19.19, 22.15, 19.34, 15.88, 17.48, 19.25, 14.06, 14.56, 14.66, 16.75, 19.27, 15.98, 17.08, 17.2]

>  <accession>  (412) 
4DCD_A

>  <description>  (412) 
Chain A, Genome polyprotein [Human poliovirus 1 Mahoney]

>  <evalue>  (412) 
1.3582900000000001e-82

>  <pdb_code>  (412) 
4DCD

>  <chain>  (412) 
A

>  <ligands>  (412) 
[{'chain_id': 'A', 'author_residue_number': 201, 'author_insertion_code': '', 'chem_comp_id': 'DTT', 'alternate_conformers': 0, 'entity_id': 2, 'struct_asym_id': 'B', 'residue_number': 1, 'chem_comp_name': '2,3-DIHYDROXY-1,4-DITHIOBUTANE', 'weight': 154.251, 'carbohydrate_polymer': False, 'branch_name': ''}, {'chain_id': 'A', 'author_residue_number': 202, 'author_insertion_code': '', 'chem_comp_id': 'K36', 'alternate_conformers': 0, 'entity_id': 3, 'struct_asym_id': 'C', 'residue_number': 1, 'chem_comp_name': '(1S,2S)-2-({N-[(benzyloxy)carbonyl]-L-leucyl}amino)-1-hydroxy-3-[(3S)-2-oxopyrrolidin-3-yl]propane-1-sulfonic acid', 'weight': 485.551, 'carbohydrate_polymer': False, 'branch_name': ''}, {'chain_id': 'A', 'author_residue_number': 203, 'author_insertion_code': '', 'chem_comp_id': 'SO4', 'alternate_conformers': 0, 'entity_id': 4, 'struct_asym_id': 'D', 'residue_number': 1, 'chem_comp_name': 'SULFATE ION', 'weight': 96.063, 'carbohydrate_polymer': False, 'branch_name': ''}, {'chain_id': 'A', 'author_residue_number': 204, 'author_insertion_code': '', 'chem_comp_id': 'SO4', 'alternate_conformers': 0, 'entity_id': 4, 'struct_asym_id': 'E', 'residue_number': 1, 'chem_comp_name': 'SULFATE ION', 'weight': 96.063, 'carbohydrate_polymer': False, 'branch_name': ''}]

>  <ligand_codes>  (412) 
['DTT', 'K36', 'SO4', 'SO4']

>  <cofactor_codes>  (412) 
[]

>  <has_cofactor>  (412) 
False

>  <covalent>  (412) 
True

>  <base_name>  (412) 
4DCD

>  <lig_resn>  (412) 
K36

>  <lig_resi>  (412) 
202

>  <lig_chain>  (412) 
A

>  <lig_segi>  (412) 
C

>  <lig_alt>  (412) 


>  <polymer_chain>  (412) 
A

>  <single_smiles>  (412) 
CC(C)C[C@H](NC(=O)OCc1ccccc1)C(=O)N[C@@H](C[C@@H]2CCNC2=O)[C@@H](O)[S](O)(=O)=O

$$$$
K36P1S1
     RDKit          3D

  7  7  0  0  0  0  0  0  0  0999 V2000
   -8.0750   16.7460  -31.8990 C   0  0  0  0  0  0  0  0  0  0  0  0
   -8.9700   17.5750  -31.0090 C   0  0  0  0  0  0  0  0  0  0  0  0
  -10.0590   16.9670  -30.4140 C   0  0  0  0  0  0  0  0  0  0  0  0
   -8.7130   18.9270  -30.8020 C   0  0  0  0  0  0  0  0  0  0  0  0
  -10.8920   17.7010  -29.5780 C   0  0  0  0  0  0  0  0  0  0  0  0
   -9.5570   19.6690  -29.9800 C   0  0  0  0  0  0  0  0  0  0  0  0
  -10.6400   19.0530  -29.3700 C   0  0  0  0  0  0  0  0  0  0  0  0
  2  1  1  0
  2  3  1  0
  2  4  1  0
  3  5  1  0
  6  4  1  0
  5  7  1  0
  7  6  1  0
A    2
 C1 
A    3
 C2 
A    4
 C6 
A    5
 C3 
A    6
 C5 
A    7
 C4 
M  END
>  <XChem_code>  (413) 
K36§1

>  <Occupancy>  (413) 
[1.0, 1.0, 1.0, 1.0, 1.0, 1.0, 1.0, 1.0, 1.0, 1.0, 1.0, 1.0, 1.0, 1.0, 1.0, 1.0, 1.0, 1.0, 1.0, 1.0, 1.0, 1.0, 1.0, 1.0, 1.0, 1.0, 1.0, 1.0, 1.0, 1.0]

>  <TempFactor>  (413) 
[30.71, 25.76, 25.55, 30.93, 32.73, 33.09, 29.57, 27.45, 21.78, 20.1, 18.64, 16.74, 17.68, 18.03, 20.27, 18.93, 19.19, 22.15, 19.34, 15.88, 17.48, 19.25, 14.06, 14.56, 14.66, 16.75, 19.27, 15.98, 17.08, 17.2]

>  <accession>  (413) 
4DCD_A

>  <description>  (413) 
Chain A, Genome polyprotein [Human poliovirus 1 Mahoney]

>  <evalue>  (413) 
1.3582900000000001e-82

>  <pdb_code>  (413) 
4DCD

>  <chain>  (413) 
A

>  <ligands>  (413) 
[{'chain_id': 'A', 'author_residue_number': 201, 'author_insertion_code': '', 'chem_comp_id': 'DTT', 'alternate_conformers': 0, 'entity_id': 2, 'struct_asym_id': 'B', 'residue_number': 1, 'chem_comp_name': '2,3-DIHYDROXY-1,4-DITHIOBUTANE', 'weight': 154.251, 'carbohydrate_polymer': False, 'branch_name': ''}, {'chain_id': 'A', 'author_residue_number': 202, 'author_insertion_code': '', 'chem_comp_id': 'K36', 'alternate_conformers': 0, 'entity_id': 3, 'struct_asym_id': 'C', 'residue_number': 1, 'chem_comp_name': '(1S,2S)-2-({N-[(benzyloxy)carbonyl]-L-leucyl}amino)-1-hydroxy-3-[(3S)-2-oxopyrrolidin-3-yl]propane-1-sulfonic acid', 'weight': 485.551, 'carbohydrate_polymer': False, 'branch_name': ''}, {'chain_id': 'A', 'author_residue_number': 203, 'author_insertion_code': '', 'chem_comp_id': 'SO4', 'alternate_conformers': 0, 'entity_id': 4, 'struct_asym_id': 'D', 'residue_number': 1, 'chem_comp_name': 'SULFATE ION', 'weight': 96.063, 'carbohydrate_polymer': False, 'branch_name': ''}, {'chain_id': 'A', 'author_residue_number': 204, 'author_insertion_code': '', 'chem_comp_id': 'SO4', 'alternate_conformers': 0, 'entity_id': 4, 'struct_asym_id': 'E', 'residue_number': 1, 'chem_comp_name': 'SULFATE ION', 'weight': 96.063, 'carbohydrate_polymer': False, 'branch_name': ''}]

>  <ligand_codes>  (413) 
['DTT', 'K36', 'SO4', 'SO4']

>  <cofactor_codes>  (413) 
[]

>  <has_cofactor>  (413) 
False

>  <covalent>  (413) 
True

>  <base_name>  (413) 
4DCD

>  <lig_resn>  (413) 
K36

>  <lig_resi>  (413) 
202

>  <lig_chain>  (413) 
A

>  <lig_segi>  (413) 
C

>  <lig_alt>  (413) 


>  <polymer_chain>  (413) 
A

>  <single_smiles>  (413) 
CC(C)C[C@H](NC(=O)OCc1ccccc1)C(=O)N[C@@H](C[C@@H]2CCNC2=O)[C@@H](O)[S](O)(=O)=O

$$$$
K36P1S2
     RDKit          3D

 23 23  0  0  0  0  0  0  0  0999 V2000
   -8.7990   16.3920  -33.0860 O   0  0  0  0  0  0  0  0  0  0  0  0
   -9.2260   15.0230  -33.2570 C   0  0  0  0  0  0  0  0  0  0  0  0
   -9.1610   14.2130  -32.3370 O   0  0  0  0  0  0  0  0  0  0  0  0
   -9.7150   14.7080  -34.4900 N   0  0  0  0  0  0  0  0  0  0  0  0
   -9.8030   13.3470  -35.0110 C   0  0  1  0  0  0  0  0  0  0  0  0
  -10.5080   13.1720  -36.3590 C   0  0  0  0  0  0  0  0  0  0  0  0
   -8.7060   12.3590  -34.7330 C   0  0  2  0  0  0  0  0  0  0  0  0
  -11.7110   14.0930  -36.5420 C   0  0  0  0  0  0  0  0  0  0  0  0
   -7.5560   12.6800  -35.0200 O   0  0  0  0  0  0  0  0  0  0  0  0
   -9.0120   11.1150  -34.2520 N   0  0  0  0  0  0  0  0  0  0  0  0
  -11.9690   14.3320  -38.0230 C   0  0  0  0  0  0  0  0  0  0  0  0
  -12.9410   13.5180  -35.8720 C   0  0  0  0  0  0  0  0  0  0  0  0
   -7.9480   10.1300  -33.9570 C   0  0  2  0  0  0  0  0  0  0  0  0
   -8.2670    8.7510  -34.5240 C   0  0  2  0  0  0  0  0  0  0  0  0
   -7.8060    9.9810  -32.4450 C   0  0  0  0  0  0  0  0  0  0  0  0
   -8.3190    8.8070  -35.9490 O   0  0  0  0  0  0  0  0  0  0  0  0
  -10.0160    8.3280  -33.9520 R   0  0  0  0  0  0  0  0  0  0  0  0
   -7.3520   11.2620  -31.7920 C   0  0  2  0  0  0  0  0  0  0  0  0
   -5.9980   11.7790  -32.2540 C   0  0  0  0  0  0  0  0  0  0  0  0
   -7.1020   11.0560  -30.3450 C   0  0  0  0  0  0  0  0  0  0  0  0
   -5.3830   12.4060  -31.0100 C   0  0  0  0  0  0  0  0  0  0  0  0
   -6.0060   11.7100  -29.8810 N   0  0  0  0  0  0  0  0  0  0  0  0
   -7.7710   10.3460  -29.6020 O   0  0  0  0  0  0  0  0  0  0  0  0
  1  2  1  0
  2  3  1  0
  2  4  1  0
  4  5  1  0
  5  6  1  6
  5  7  1  0
  6  8  1  0
  7  9  1  6
  7 10  1  0
  8 11  1  0
  8 12  1  0
 10 13  1  0
 13 14  1  0
 13 15  1  1
 14 16  1  0
 14 17  1  1
 18 15  1  6
 18 19  1  0
 18 20  1  0
 19 21  1  0
 22 20  1  0
 20 23  1  0
 21 22  1  0
V   17 *
A    2
 C9 
A    3
 O10
A    4
 N11
A    5
 C12
A    6
 C13
A    7
 C17
A    8
 C14
A    9
 O18
A   10
 N19
A   11
 C15
A   12
 C16
A   13
 C20
A   14
 C21
A   15
 C24
A   16
 O22
A   17
 X  
A   18
 C25
A   19
 C26
A   20
 C29
A   21
 C27
A   22
 N28
A   23
 O30
M  END
>  <XChem_code>  (414) 
K36§1

>  <Occupancy>  (414) 
[1.0, 1.0, 1.0, 1.0, 1.0, 1.0, 1.0, 1.0, 1.0, 1.0, 1.0, 1.0, 1.0, 1.0, 1.0, 1.0, 1.0, 1.0, 1.0, 1.0, 1.0, 1.0, 1.0, 1.0, 1.0, 1.0, 1.0, 1.0, 1.0, 1.0]

>  <TempFactor>  (414) 
[30.71, 25.76, 25.55, 30.93, 32.73, 33.09, 29.57, 27.45, 21.78, 20.1, 18.64, 16.74, 17.68, 18.03, 20.27, 18.93, 19.19, 22.15, 19.34, 15.88, 17.48, 19.25, 14.06, 14.56, 14.66, 16.75, 19.27, 15.98, 17.08, 17.2]

>  <accession>  (414) 
4DCD_A

>  <description>  (414) 
Chain A, Genome polyprotein [Human poliovirus 1 Mahoney]

>  <evalue>  (414) 
1.3582900000000001e-82

>  <pdb_code>  (414) 
4DCD

>  <chain>  (414) 
A

>  <ligands>  (414) 
[{'chain_id': 'A', 'author_residue_number': 201, 'author_insertion_code': '', 'chem_comp_id': 'DTT', 'alternate_conformers': 0, 'entity_id': 2, 'struct_asym_id': 'B', 'residue_number': 1, 'chem_comp_name': '2,3-DIHYDROXY-1,4-DITHIOBUTANE', 'weight': 154.251, 'carbohydrate_polymer': False, 'branch_name': ''}, {'chain_id': 'A', 'author_residue_number': 202, 'author_insertion_code': '', 'chem_comp_id': 'K36', 'alternate_conformers': 0, 'entity_id': 3, 'struct_asym_id': 'C', 'residue_number': 1, 'chem_comp_name': '(1S,2S)-2-({N-[(benzyloxy)carbonyl]-L-leucyl}amino)-1-hydroxy-3-[(3S)-2-oxopyrrolidin-3-yl]propane-1-sulfonic acid', 'weight': 485.551, 'carbohydrate_polymer': False, 'branch_name': ''}, {'chain_id': 'A', 'author_residue_number': 203, 'author_insertion_code': '', 'chem_comp_id': 'SO4', 'alternate_conformers': 0, 'entity_id': 4, 'struct_asym_id': 'D', 'residue_number': 1, 'chem_comp_name': 'SULFATE ION', 'weight': 96.063, 'carbohydrate_polymer': False, 'branch_name': ''}, {'chain_id': 'A', 'author_residue_number': 204, 'author_insertion_code': '', 'chem_comp_id': 'SO4', 'alternate_conformers': 0, 'entity_id': 4, 'struct_asym_id': 'E', 'residue_number': 1, 'chem_comp_name': 'SULFATE ION', 'weight': 96.063, 'carbohydrate_polymer': False, 'branch_name': ''}]

>  <ligand_codes>  (414) 
['DTT', 'K36', 'SO4', 'SO4']

>  <cofactor_codes>  (414) 
[]

>  <has_cofactor>  (414) 
False

>  <covalent>  (414) 
True

>  <base_name>  (414) 
4DCD

>  <lig_resn>  (414) 
K36

>  <lig_resi>  (414) 
202

>  <lig_chain>  (414) 
A

>  <lig_segi>  (414) 
C

>  <lig_alt>  (414) 


>  <polymer_chain>  (414) 
A

>  <single_smiles>  (414) 
CC(C)C[C@H](NC(=O)OCc1ccccc1)C(=O)N[C@@H](C[C@@H]2CCNC2=O)[C@@H](O)[S](O)(=O)=O

$$$$
K36P1S3
     RDKit          3D

 11 11  0  0  0  0  0  0  0  0999 V2000
   -9.7150   14.7080  -34.4900 N   0  0  0  0  0  0  0  0  0  0  0  0
   -9.2260   15.0230  -33.2570 C   0  0  0  0  0  0  0  0  0  0  0  0
   -8.7990   16.3920  -33.0860 O   0  0  0  0  0  0  0  0  0  0  0  0
   -9.1610   14.2130  -32.3370 O   0  0  0  0  0  0  0  0  0  0  0  0
   -8.0750   16.7460  -31.8990 C   0  0  0  0  0  0  0  0  0  0  0  0
   -8.9700   17.5750  -31.0090 C   0  0  0  0  0  0  0  0  0  0  0  0
  -10.0590   16.9670  -30.4140 C   0  0  0  0  0  0  0  0  0  0  0  0
   -8.7130   18.9270  -30.8020 C   0  0  0  0  0  0  0  0  0  0  0  0
  -10.8920   17.7010  -29.5780 C   0  0  0  0  0  0  0  0  0  0  0  0
   -9.5570   19.6690  -29.9800 C   0  0  0  0  0  0  0  0  0  0  0  0
  -10.6400   19.0530  -29.3700 C   0  0  0  0  0  0  0  0  0  0  0  0
  2  1  1  0
  3  2  1  0
  2  4  1  0
  5  3  1  0
  6  5  1  0
  6  7  1  0
  6  8  1  0
  7  9  1  0
 10  8  1  0
  9 11  1  0
 11 10  1  0
A    2
 C9 
A    3
 O8 
A    4
 O10
A    5
 C7 
A    6
 C1 
A    7
 C2 
A    8
 C6 
A    9
 C3 
A   10
 C5 
A   11
 C4 
M  END
>  <XChem_code>  (415) 
K36§1

>  <Occupancy>  (415) 
[1.0, 1.0, 1.0, 1.0, 1.0, 1.0, 1.0, 1.0, 1.0, 1.0, 1.0, 1.0, 1.0, 1.0, 1.0, 1.0, 1.0, 1.0, 1.0, 1.0, 1.0, 1.0, 1.0, 1.0, 1.0, 1.0, 1.0, 1.0, 1.0, 1.0]

>  <TempFactor>  (415) 
[30.71, 25.76, 25.55, 30.93, 32.73, 33.09, 29.57, 27.45, 21.78, 20.1, 18.64, 16.74, 17.68, 18.03, 20.27, 18.93, 19.19, 22.15, 19.34, 15.88, 17.48, 19.25, 14.06, 14.56, 14.66, 16.75, 19.27, 15.98, 17.08, 17.2]

>  <accession>  (415) 
4DCD_A

>  <description>  (415) 
Chain A, Genome polyprotein [Human poliovirus 1 Mahoney]

>  <evalue>  (415) 
1.3582900000000001e-82

>  <pdb_code>  (415) 
4DCD

>  <chain>  (415) 
A

>  <ligands>  (415) 
[{'chain_id': 'A', 'author_residue_number': 201, 'author_insertion_code': '', 'chem_comp_id': 'DTT', 'alternate_conformers': 0, 'entity_id': 2, 'struct_asym_id': 'B', 'residue_number': 1, 'chem_comp_name': '2,3-DIHYDROXY-1,4-DITHIOBUTANE', 'weight': 154.251, 'carbohydrate_polymer': False, 'branch_name': ''}, {'chain_id': 'A', 'author_residue_number': 202, 'author_insertion_code': '', 'chem_comp_id': 'K36', 'alternate_conformers': 0, 'entity_id': 3, 'struct_asym_id': 'C', 'residue_number': 1, 'chem_comp_name': '(1S,2S)-2-({N-[(benzyloxy)carbonyl]-L-leucyl}amino)-1-hydroxy-3-[(3S)-2-oxopyrrolidin-3-yl]propane-1-sulfonic acid', 'weight': 485.551, 'carbohydrate_polymer': False, 'branch_name': ''}, {'chain_id': 'A', 'author_residue_number': 203, 'author_insertion_code': '', 'chem_comp_id': 'SO4', 'alternate_conformers': 0, 'entity_id': 4, 'struct_asym_id': 'D', 'residue_number': 1, 'chem_comp_name': 'SULFATE ION', 'weight': 96.063, 'carbohydrate_polymer': False, 'branch_name': ''}, {'chain_id': 'A', 'author_residue_number': 204, 'author_insertion_code': '', 'chem_comp_id': 'SO4', 'alternate_conformers': 0, 'entity_id': 4, 'struct_asym_id': 'E', 'residue_number': 1, 'chem_comp_name': 'SULFATE ION', 'weight': 96.063, 'carbohydrate_polymer': False, 'branch_name': ''}]

>  <ligand_codes>  (415) 
['DTT', 'K36', 'SO4', 'SO4']

>  <cofactor_codes>  (415) 
[]

>  <has_cofactor>  (415) 
False

>  <covalent>  (415) 
True

>  <base_name>  (415) 
4DCD

>  <lig_resn>  (415) 
K36

>  <lig_resi>  (415) 
202

>  <lig_chain>  (415) 
A

>  <lig_segi>  (415) 
C

>  <lig_alt>  (415) 


>  <polymer_chain>  (415) 
A

>  <single_smiles>  (415) 
CC(C)C[C@H](NC(=O)OCc1ccccc1)C(=O)N[C@@H](C[C@@H]2CCNC2=O)[C@@H](O)[S](O)(=O)=O

$$$$
K36P1S4
     RDKit          3D

 19 19  0  0  0  0  0  0  0  0999 V2000
   -9.8030   13.3470  -35.0110 C   0  0  0  0  0  0  0  0  0  0  0  0
  -10.5080   13.1720  -36.3590 C   0  0  0  0  0  0  0  0  0  0  0  0
   -8.7060   12.3590  -34.7330 C   0  0  2  0  0  0  0  0  0  0  0  0
  -11.7110   14.0930  -36.5420 C   0  0  0  0  0  0  0  0  0  0  0  0
   -7.5560   12.6800  -35.0200 O   0  0  0  0  0  0  0  0  0  0  0  0
   -9.0120   11.1150  -34.2520 N   0  0  0  0  0  0  0  0  0  0  0  0
  -11.9690   14.3320  -38.0230 C   0  0  0  0  0  0  0  0  0  0  0  0
  -12.9410   13.5180  -35.8720 C   0  0  0  0  0  0  0  0  0  0  0  0
   -7.9480   10.1300  -33.9570 C   0  0  2  0  0  0  0  0  0  0  0  0
   -8.2670    8.7510  -34.5240 C   0  0  2  0  0  0  0  0  0  0  0  0
   -7.8060    9.9810  -32.4450 C   0  0  0  0  0  0  0  0  0  0  0  0
   -8.3190    8.8070  -35.9490 O   0  0  0  0  0  0  0  0  0  0  0  0
  -10.0160    8.3280  -33.9520 R   0  0  0  0  0  0  0  0  0  0  0  0
   -7.3520   11.2620  -31.7920 C   0  0  2  0  0  0  0  0  0  0  0  0
   -5.9980   11.7790  -32.2540 C   0  0  0  0  0  0  0  0  0  0  0  0
   -7.1020   11.0560  -30.3450 C   0  0  0  0  0  0  0  0  0  0  0  0
   -5.3830   12.4060  -31.0100 C   0  0  0  0  0  0  0  0  0  0  0  0
   -6.0060   11.7100  -29.8810 N   0  0  0  0  0  0  0  0  0  0  0  0
   -7.7710   10.3460  -29.6020 O   0  0  0  0  0  0  0  0  0  0  0  0
  1  2  1  6
  1  3  1  0
  2  4  1  0
  3  5  1  6
  3  6  1  0
  4  7  1  0
  4  8  1  0
  6  9  1  0
  9 10  1  0
  9 11  1  1
 10 12  1  0
 10 13  1  1
 14 11  1  6
 14 15  1  0
 14 16  1  0
 15 17  1  0
 18 16  1  0
 16 19  1  0
 17 18  1  0
V   13 *
A    2
 C13
A    3
 C17
A    4
 C14
A    5
 O18
A    6
 N19
A    7
 C15
A    8
 C16
A    9
 C20
A   10
 C21
A   11
 C24
A   12
 O22
A   13
 X  
A   14
 C25
A   15
 C26
A   16
 C29
A   17
 C27
A   18
 N28
A   19
 O30
M  END
>  <XChem_code>  (416) 
K36§1

>  <Occupancy>  (416) 
[1.0, 1.0, 1.0, 1.0, 1.0, 1.0, 1.0, 1.0, 1.0, 1.0, 1.0, 1.0, 1.0, 1.0, 1.0, 1.0, 1.0, 1.0, 1.0, 1.0, 1.0, 1.0, 1.0, 1.0, 1.0, 1.0, 1.0, 1.0, 1.0, 1.0]

>  <TempFactor>  (416) 
[30.71, 25.76, 25.55, 30.93, 32.73, 33.09, 29.57, 27.45, 21.78, 20.1, 18.64, 16.74, 17.68, 18.03, 20.27, 18.93, 19.19, 22.15, 19.34, 15.88, 17.48, 19.25, 14.06, 14.56, 14.66, 16.75, 19.27, 15.98, 17.08, 17.2]

>  <accession>  (416) 
4DCD_A

>  <description>  (416) 
Chain A, Genome polyprotein [Human poliovirus 1 Mahoney]

>  <evalue>  (416) 
1.3582900000000001e-82

>  <pdb_code>  (416) 
4DCD

>  <chain>  (416) 
A

>  <ligands>  (416) 
[{'chain_id': 'A', 'author_residue_number': 201, 'author_insertion_code': '', 'chem_comp_id': 'DTT', 'alternate_conformers': 0, 'entity_id': 2, 'struct_asym_id': 'B', 'residue_number': 1, 'chem_comp_name': '2,3-DIHYDROXY-1,4-DITHIOBUTANE', 'weight': 154.251, 'carbohydrate_polymer': False, 'branch_name': ''}, {'chain_id': 'A', 'author_residue_number': 202, 'author_insertion_code': '', 'chem_comp_id': 'K36', 'alternate_conformers': 0, 'entity_id': 3, 'struct_asym_id': 'C', 'residue_number': 1, 'chem_comp_name': '(1S,2S)-2-({N-[(benzyloxy)carbonyl]-L-leucyl}amino)-1-hydroxy-3-[(3S)-2-oxopyrrolidin-3-yl]propane-1-sulfonic acid', 'weight': 485.551, 'carbohydrate_polymer': False, 'branch_name': ''}, {'chain_id': 'A', 'author_residue_number': 203, 'author_insertion_code': '', 'chem_comp_id': 'SO4', 'alternate_conformers': 0, 'entity_id': 4, 'struct_asym_id': 'D', 'residue_number': 1, 'chem_comp_name': 'SULFATE ION', 'weight': 96.063, 'carbohydrate_polymer': False, 'branch_name': ''}, {'chain_id': 'A', 'author_residue_number': 204, 'author_insertion_code': '', 'chem_comp_id': 'SO4', 'alternate_conformers': 0, 'entity_id': 4, 'struct_asym_id': 'E', 'residue_number': 1, 'chem_comp_name': 'SULFATE ION', 'weight': 96.063, 'carbohydrate_polymer': False, 'branch_name': ''}]

>  <ligand_codes>  (416) 
['DTT', 'K36', 'SO4', 'SO4']

>  <cofactor_codes>  (416) 
[]

>  <has_cofactor>  (416) 
False

>  <covalent>  (416) 
True

>  <base_name>  (416) 
4DCD

>  <lig_resn>  (416) 
K36

>  <lig_resi>  (416) 
202

>  <lig_chain>  (416) 
A

>  <lig_segi>  (416) 
C

>  <lig_alt>  (416) 


>  <polymer_chain>  (416) 
A

>  <single_smiles>  (416) 
CC(C)C[C@H](NC(=O)OCc1ccccc1)C(=O)N[C@@H](C[C@@H]2CCNC2=O)[C@@H](O)[S](O)(=O)=O

$$$$
K36P1S5
     RDKit          3D

 12 12  0  0  0  0  0  0  0  0999 V2000
   -9.0120   11.1150  -34.2520 N   0  0  0  0  0  0  0  0  0  0  0  0
   -7.9480   10.1300  -33.9570 C   0  0  2  0  0  0  0  0  0  0  0  0
   -8.2670    8.7510  -34.5240 C   0  0  2  0  0  0  0  0  0  0  0  0
   -7.8060    9.9810  -32.4450 C   0  0  0  0  0  0  0  0  0  0  0  0
   -8.3190    8.8070  -35.9490 O   0  0  0  0  0  0  0  0  0  0  0  0
  -10.0160    8.3280  -33.9520 R   0  0  0  0  0  0  0  0  0  0  0  0
   -7.3520   11.2620  -31.7920 C   0  0  2  0  0  0  0  0  0  0  0  0
   -5.9980   11.7790  -32.2540 C   0  0  0  0  0  0  0  0  0  0  0  0
   -7.1020   11.0560  -30.3450 C   0  0  0  0  0  0  0  0  0  0  0  0
   -5.3830   12.4060  -31.0100 C   0  0  0  0  0  0  0  0  0  0  0  0
   -6.0060   11.7100  -29.8810 N   0  0  0  0  0  0  0  0  0  0  0  0
   -7.7710   10.3460  -29.6020 O   0  0  0  0  0  0  0  0  0  0  0  0
  2  1  1  1
  2  3  1  0
  2  4  1  0
  3  5  1  0
  3  6  1  1
  7  4  1  6
  7  8  1  0
  7  9  1  0
  8 10  1  0
 11  9  1  0
  9 12  1  0
 10 11  1  0
V    6 *
A    2
 C20
A    3
 C21
A    4
 C24
A    5
 O22
A    6
 X  
A    7
 C25
A    8
 C26
A    9
 C29
A   10
 C27
A   11
 N28
A   12
 O30
M  END
>  <XChem_code>  (417) 
K36§1

>  <Occupancy>  (417) 
[1.0, 1.0, 1.0, 1.0, 1.0, 1.0, 1.0, 1.0, 1.0, 1.0, 1.0, 1.0, 1.0, 1.0, 1.0, 1.0, 1.0, 1.0, 1.0, 1.0, 1.0, 1.0, 1.0, 1.0, 1.0, 1.0, 1.0, 1.0, 1.0, 1.0]

>  <TempFactor>  (417) 
[30.71, 25.76, 25.55, 30.93, 32.73, 33.09, 29.57, 27.45, 21.78, 20.1, 18.64, 16.74, 17.68, 18.03, 20.27, 18.93, 19.19, 22.15, 19.34, 15.88, 17.48, 19.25, 14.06, 14.56, 14.66, 16.75, 19.27, 15.98, 17.08, 17.2]

>  <accession>  (417) 
4DCD_A

>  <description>  (417) 
Chain A, Genome polyprotein [Human poliovirus 1 Mahoney]

>  <evalue>  (417) 
1.3582900000000001e-82

>  <pdb_code>  (417) 
4DCD

>  <chain>  (417) 
A

>  <ligands>  (417) 
[{'chain_id': 'A', 'author_residue_number': 201, 'author_insertion_code': '', 'chem_comp_id': 'DTT', 'alternate_conformers': 0, 'entity_id': 2, 'struct_asym_id': 'B', 'residue_number': 1, 'chem_comp_name': '2,3-DIHYDROXY-1,4-DITHIOBUTANE', 'weight': 154.251, 'carbohydrate_polymer': False, 'branch_name': ''}, {'chain_id': 'A', 'author_residue_number': 202, 'author_insertion_code': '', 'chem_comp_id': 'K36', 'alternate_conformers': 0, 'entity_id': 3, 'struct_asym_id': 'C', 'residue_number': 1, 'chem_comp_name': '(1S,2S)-2-({N-[(benzyloxy)carbonyl]-L-leucyl}amino)-1-hydroxy-3-[(3S)-2-oxopyrrolidin-3-yl]propane-1-sulfonic acid', 'weight': 485.551, 'carbohydrate_polymer': False, 'branch_name': ''}, {'chain_id': 'A', 'author_residue_number': 203, 'author_insertion_code': '', 'chem_comp_id': 'SO4', 'alternate_conformers': 0, 'entity_id': 4, 'struct_asym_id': 'D', 'residue_number': 1, 'chem_comp_name': 'SULFATE ION', 'weight': 96.063, 'carbohydrate_polymer': False, 'branch_name': ''}, {'chain_id': 'A', 'author_residue_number': 204, 'author_insertion_code': '', 'chem_comp_id': 'SO4', 'alternate_conformers': 0, 'entity_id': 4, 'struct_asym_id': 'E', 'residue_number': 1, 'chem_comp_name': 'SULFATE ION', 'weight': 96.063, 'carbohydrate_polymer': False, 'branch_name': ''}]

>  <ligand_codes>  (417) 
['DTT', 'K36', 'SO4', 'SO4']

>  <cofactor_codes>  (417) 
[]

>  <has_cofactor>  (417) 
False

>  <covalent>  (417) 
True

>  <base_name>  (417) 
4DCD

>  <lig_resn>  (417) 
K36

>  <lig_resi>  (417) 
202

>  <lig_chain>  (417) 
A

>  <lig_segi>  (417) 
C

>  <lig_alt>  (417) 


>  <polymer_chain>  (417) 
A

>  <single_smiles>  (417) 
CC(C)C[C@H](NC(=O)OCc1ccccc1)C(=O)N[C@@H](C[C@@H]2CCNC2=O)[C@@H](O)[S](O)(=O)=O

$$$$
K36P1S6
     RDKit          3D

 18 18  0  0  0  0  0  0  0  0999 V2000
   -8.7060   12.3590  -34.7330 C   0  0  0  0  0  0  0  0  0  0  0  0
   -9.8030   13.3470  -35.0110 C   0  0  1  0  0  0  0  0  0  0  0  0
   -7.5560   12.6800  -35.0200 O   0  0  0  0  0  0  0  0  0  0  0  0
   -9.7150   14.7080  -34.4900 N   0  0  0  0  0  0  0  0  0  0  0  0
  -10.5080   13.1720  -36.3590 C   0  0  0  0  0  0  0  0  0  0  0  0
   -9.2260   15.0230  -33.2570 C   0  0  0  0  0  0  0  0  0  0  0  0
  -11.7110   14.0930  -36.5420 C   0  0  0  0  0  0  0  0  0  0  0  0
   -8.7990   16.3920  -33.0860 O   0  0  0  0  0  0  0  0  0  0  0  0
   -9.1610   14.2130  -32.3370 O   0  0  0  0  0  0  0  0  0  0  0  0
  -11.9690   14.3320  -38.0230 C   0  0  0  0  0  0  0  0  0  0  0  0
  -12.9410   13.5180  -35.8720 C   0  0  0  0  0  0  0  0  0  0  0  0
   -8.0750   16.7460  -31.8990 C   0  0  0  0  0  0  0  0  0  0  0  0
   -8.9700   17.5750  -31.0090 C   0  0  0  0  0  0  0  0  0  0  0  0
  -10.0590   16.9670  -30.4140 C   0  0  0  0  0  0  0  0  0  0  0  0
   -8.7130   18.9270  -30.8020 C   0  0  0  0  0  0  0  0  0  0  0  0
  -10.8920   17.7010  -29.5780 C   0  0  0  0  0  0  0  0  0  0  0  0
   -9.5570   19.6690  -29.9800 C   0  0  0  0  0  0  0  0  0  0  0  0
  -10.6400   19.0530  -29.3700 C   0  0  0  0  0  0  0  0  0  0  0  0
  2  1  1  0
  1  3  1  6
  4  2  1  0
  2  5  1  6
  6  4  1  0
  5  7  1  0
  8  6  1  0
  6  9  1  0
  7 10  1  0
  7 11  1  0
 12  8  1  0
 13 12  1  0
 13 14  1  0
 13 15  1  0
 14 16  1  0
 17 15  1  0
 16 18  1  0
 18 17  1  0
A    2
 C12
A    3
 O18
A    4
 N11
A    5
 C13
A    6
 C9 
A    7
 C14
A    8
 O8 
A    9
 O10
A   10
 C15
A   11
 C16
A   12
 C7 
A   13
 C1 
A   14
 C2 
A   15
 C6 
A   16
 C3 
A   17
 C5 
A   18
 C4 
M  END
>  <XChem_code>  (418) 
K36§1

>  <Occupancy>  (418) 
[1.0, 1.0, 1.0, 1.0, 1.0, 1.0, 1.0, 1.0, 1.0, 1.0, 1.0, 1.0, 1.0, 1.0, 1.0, 1.0, 1.0, 1.0, 1.0, 1.0, 1.0, 1.0, 1.0, 1.0, 1.0, 1.0, 1.0, 1.0, 1.0, 1.0]

>  <TempFactor>  (418) 
[30.71, 25.76, 25.55, 30.93, 32.73, 33.09, 29.57, 27.45, 21.78, 20.1, 18.64, 16.74, 17.68, 18.03, 20.27, 18.93, 19.19, 22.15, 19.34, 15.88, 17.48, 19.25, 14.06, 14.56, 14.66, 16.75, 19.27, 15.98, 17.08, 17.2]

>  <accession>  (418) 
4DCD_A

>  <description>  (418) 
Chain A, Genome polyprotein [Human poliovirus 1 Mahoney]

>  <evalue>  (418) 
1.3582900000000001e-82

>  <pdb_code>  (418) 
4DCD

>  <chain>  (418) 
A

>  <ligands>  (418) 
[{'chain_id': 'A', 'author_residue_number': 201, 'author_insertion_code': '', 'chem_comp_id': 'DTT', 'alternate_conformers': 0, 'entity_id': 2, 'struct_asym_id': 'B', 'residue_number': 1, 'chem_comp_name': '2,3-DIHYDROXY-1,4-DITHIOBUTANE', 'weight': 154.251, 'carbohydrate_polymer': False, 'branch_name': ''}, {'chain_id': 'A', 'author_residue_number': 202, 'author_insertion_code': '', 'chem_comp_id': 'K36', 'alternate_conformers': 0, 'entity_id': 3, 'struct_asym_id': 'C', 'residue_number': 1, 'chem_comp_name': '(1S,2S)-2-({N-[(benzyloxy)carbonyl]-L-leucyl}amino)-1-hydroxy-3-[(3S)-2-oxopyrrolidin-3-yl]propane-1-sulfonic acid', 'weight': 485.551, 'carbohydrate_polymer': False, 'branch_name': ''}, {'chain_id': 'A', 'author_residue_number': 203, 'author_insertion_code': '', 'chem_comp_id': 'SO4', 'alternate_conformers': 0, 'entity_id': 4, 'struct_asym_id': 'D', 'residue_number': 1, 'chem_comp_name': 'SULFATE ION', 'weight': 96.063, 'carbohydrate_polymer': False, 'branch_name': ''}, {'chain_id': 'A', 'author_residue_number': 204, 'author_insertion_code': '', 'chem_comp_id': 'SO4', 'alternate_conformers': 0, 'entity_id': 4, 'struct_asym_id': 'E', 'residue_number': 1, 'chem_comp_name': 'SULFATE ION', 'weight': 96.063, 'carbohydrate_polymer': False, 'branch_name': ''}]

>  <ligand_codes>  (418) 
['DTT', 'K36', 'SO4', 'SO4']

>  <cofactor_codes>  (418) 
[]

>  <has_cofactor>  (418) 
False

>  <covalent>  (418) 
True

>  <base_name>  (418) 
4DCD

>  <lig_resn>  (418) 
K36

>  <lig_resi>  (418) 
202

>  <lig_chain>  (418) 
A

>  <lig_segi>  (418) 
C

>  <lig_alt>  (418) 


>  <polymer_chain>  (418) 
A

>  <single_smiles>  (418) 
CC(C)C[C@H](NC(=O)OCc1ccccc1)C(=O)N[C@@H](C[C@@H]2CCNC2=O)[C@@H](O)[S](O)(=O)=O

$$$$
K36P1S7
     RDKit          3D

 11 11  0  0  0  0  0  0  0  0999 V2000
   -7.9480   10.1300  -33.9570 C   0  0  0  0  0  0  0  0  0  0  0  0
   -8.2670    8.7510  -34.5240 C   0  0  2  0  0  0  0  0  0  0  0  0
   -7.8060    9.9810  -32.4450 C   0  0  0  0  0  0  0  0  0  0  0  0
   -8.3190    8.8070  -35.9490 O   0  0  0  0  0  0  0  0  0  0  0  0
  -10.0160    8.3280  -33.9520 R   0  0  0  0  0  0  0  0  0  0  0  0
   -7.3520   11.2620  -31.7920 C   0  0  2  0  0  0  0  0  0  0  0  0
   -5.9980   11.7790  -32.2540 C   0  0  0  0  0  0  0  0  0  0  0  0
   -7.1020   11.0560  -30.3450 C   0  0  0  0  0  0  0  0  0  0  0  0
   -5.3830   12.4060  -31.0100 C   0  0  0  0  0  0  0  0  0  0  0  0
   -6.0060   11.7100  -29.8810 N   0  0  0  0  0  0  0  0  0  0  0  0
   -7.7710   10.3460  -29.6020 O   0  0  0  0  0  0  0  0  0  0  0  0
  1  2  1  0
  1  3  1  6
  2  4  1  0
  2  5  1  1
  6  3  1  6
  6  7  1  0
  6  8  1  0
  7  9  1  0
 10  8  1  0
  8 11  1  0
  9 10  1  0
V    5 *
A    2
 C21
A    3
 C24
A    4
 O22
A    5
 X  
A    6
 C25
A    7
 C26
A    8
 C29
A    9
 C27
A   10
 N28
A   11
 O30
M  END
>  <XChem_code>  (419) 
K36§1

>  <Occupancy>  (419) 
[1.0, 1.0, 1.0, 1.0, 1.0, 1.0, 1.0, 1.0, 1.0, 1.0, 1.0, 1.0, 1.0, 1.0, 1.0, 1.0, 1.0, 1.0, 1.0, 1.0, 1.0, 1.0, 1.0, 1.0, 1.0, 1.0, 1.0, 1.0, 1.0, 1.0]

>  <TempFactor>  (419) 
[30.71, 25.76, 25.55, 30.93, 32.73, 33.09, 29.57, 27.45, 21.78, 20.1, 18.64, 16.74, 17.68, 18.03, 20.27, 18.93, 19.19, 22.15, 19.34, 15.88, 17.48, 19.25, 14.06, 14.56, 14.66, 16.75, 19.27, 15.98, 17.08, 17.2]

>  <accession>  (419) 
4DCD_A

>  <description>  (419) 
Chain A, Genome polyprotein [Human poliovirus 1 Mahoney]

>  <evalue>  (419) 
1.3582900000000001e-82

>  <pdb_code>  (419) 
4DCD

>  <chain>  (419) 
A

>  <ligands>  (419) 
[{'chain_id': 'A', 'author_residue_number': 201, 'author_insertion_code': '', 'chem_comp_id': 'DTT', 'alternate_conformers': 0, 'entity_id': 2, 'struct_asym_id': 'B', 'residue_number': 1, 'chem_comp_name': '2,3-DIHYDROXY-1,4-DITHIOBUTANE', 'weight': 154.251, 'carbohydrate_polymer': False, 'branch_name': ''}, {'chain_id': 'A', 'author_residue_number': 202, 'author_insertion_code': '', 'chem_comp_id': 'K36', 'alternate_conformers': 0, 'entity_id': 3, 'struct_asym_id': 'C', 'residue_number': 1, 'chem_comp_name': '(1S,2S)-2-({N-[(benzyloxy)carbonyl]-L-leucyl}amino)-1-hydroxy-3-[(3S)-2-oxopyrrolidin-3-yl]propane-1-sulfonic acid', 'weight': 485.551, 'carbohydrate_polymer': False, 'branch_name': ''}, {'chain_id': 'A', 'author_residue_number': 203, 'author_insertion_code': '', 'chem_comp_id': 'SO4', 'alternate_conformers': 0, 'entity_id': 4, 'struct_asym_id': 'D', 'residue_number': 1, 'chem_comp_name': 'SULFATE ION', 'weight': 96.063, 'carbohydrate_polymer': False, 'branch_name': ''}, {'chain_id': 'A', 'author_residue_number': 204, 'author_insertion_code': '', 'chem_comp_id': 'SO4', 'alternate_conformers': 0, 'entity_id': 4, 'struct_asym_id': 'E', 'residue_number': 1, 'chem_comp_name': 'SULFATE ION', 'weight': 96.063, 'carbohydrate_polymer': False, 'branch_name': ''}]

>  <ligand_codes>  (419) 
['DTT', 'K36', 'SO4', 'SO4']

>  <cofactor_codes>  (419) 
[]

>  <has_cofactor>  (419) 
False

>  <covalent>  (419) 
True

>  <base_name>  (419) 
4DCD

>  <lig_resn>  (419) 
K36

>  <lig_resi>  (419) 
202

>  <lig_chain>  (419) 
A

>  <lig_segi>  (419) 
C

>  <lig_alt>  (419) 


>  <polymer_chain>  (419) 
A

>  <single_smiles>  (419) 
CC(C)C[C@H](NC(=O)OCc1ccccc1)C(=O)N[C@@H](C[C@@H]2CCNC2=O)[C@@H](O)[S](O)(=O)=O

$$$$
K36P1S8
     RDKit          3D

 19 19  0  0  0  0  0  0  0  0999 V2000
   -9.0120   11.1150  -34.2520 N   0  0  0  0  0  0  0  0  0  0  0  0
   -8.7060   12.3590  -34.7330 C   0  0  2  0  0  0  0  0  0  0  0  0
   -9.8030   13.3470  -35.0110 C   0  0  1  0  0  0  0  0  0  0  0  0
   -7.5560   12.6800  -35.0200 O   0  0  0  0  0  0  0  0  0  0  0  0
   -9.7150   14.7080  -34.4900 N   0  0  0  0  0  0  0  0  0  0  0  0
  -10.5080   13.1720  -36.3590 C   0  0  0  0  0  0  0  0  0  0  0  0
   -9.2260   15.0230  -33.2570 C   0  0  0  0  0  0  0  0  0  0  0  0
  -11.7110   14.0930  -36.5420 C   0  0  0  0  0  0  0  0  0  0  0  0
   -8.7990   16.3920  -33.0860 O   0  0  0  0  0  0  0  0  0  0  0  0
   -9.1610   14.2130  -32.3370 O   0  0  0  0  0  0  0  0  0  0  0  0
  -11.9690   14.3320  -38.0230 C   0  0  0  0  0  0  0  0  0  0  0  0
  -12.9410   13.5180  -35.8720 C   0  0  0  0  0  0  0  0  0  0  0  0
   -8.0750   16.7460  -31.8990 C   0  0  0  0  0  0  0  0  0  0  0  0
   -8.9700   17.5750  -31.0090 C   0  0  0  0  0  0  0  0  0  0  0  0
  -10.0590   16.9670  -30.4140 C   0  0  0  0  0  0  0  0  0  0  0  0
   -8.7130   18.9270  -30.8020 C   0  0  0  0  0  0  0  0  0  0  0  0
  -10.8920   17.7010  -29.5780 C   0  0  0  0  0  0  0  0  0  0  0  0
   -9.5570   19.6690  -29.9800 C   0  0  0  0  0  0  0  0  0  0  0  0
  -10.6400   19.0530  -29.3700 C   0  0  0  0  0  0  0  0  0  0  0  0
  2  1  1  6
  3  2  1  0
  2  4  1  0
  5  3  1  0
  3  6  1  6
  7  5  1  0
  6  8  1  0
  9  7  1  0
  7 10  1  0
  8 11  1  0
  8 12  1  0
 13  9  1  0
 14 13  1  0
 14 15  1  0
 14 16  1  0
 15 17  1  0
 18 16  1  0
 17 19  1  0
 19 18  1  0
A    2
 C17
A    3
 C12
A    4
 O18
A    5
 N11
A    6
 C13
A    7
 C9 
A    8
 C14
A    9
 O8 
A   10
 O10
A   11
 C15
A   12
 C16
A   13
 C7 
A   14
 C1 
A   15
 C2 
A   16
 C6 
A   17
 C3 
A   18
 C5 
A   19
 C4 
M  END
>  <XChem_code>  (420) 
K36§1

>  <Occupancy>  (420) 
[1.0, 1.0, 1.0, 1.0, 1.0, 1.0, 1.0, 1.0, 1.0, 1.0, 1.0, 1.0, 1.0, 1.0, 1.0, 1.0, 1.0, 1.0, 1.0, 1.0, 1.0, 1.0, 1.0, 1.0, 1.0, 1.0, 1.0, 1.0, 1.0, 1.0]

>  <TempFactor>  (420) 
[30.71, 25.76, 25.55, 30.93, 32.73, 33.09, 29.57, 27.45, 21.78, 20.1, 18.64, 16.74, 17.68, 18.03, 20.27, 18.93, 19.19, 22.15, 19.34, 15.88, 17.48, 19.25, 14.06, 14.56, 14.66, 16.75, 19.27, 15.98, 17.08, 17.2]

>  <accession>  (420) 
4DCD_A

>  <description>  (420) 
Chain A, Genome polyprotein [Human poliovirus 1 Mahoney]

>  <evalue>  (420) 
1.3582900000000001e-82

>  <pdb_code>  (420) 
4DCD

>  <chain>  (420) 
A

>  <ligands>  (420) 
[{'chain_id': 'A', 'author_residue_number': 201, 'author_insertion_code': '', 'chem_comp_id': 'DTT', 'alternate_conformers': 0, 'entity_id': 2, 'struct_asym_id': 'B', 'residue_number': 1, 'chem_comp_name': '2,3-DIHYDROXY-1,4-DITHIOBUTANE', 'weight': 154.251, 'carbohydrate_polymer': False, 'branch_name': ''}, {'chain_id': 'A', 'author_residue_number': 202, 'author_insertion_code': '', 'chem_comp_id': 'K36', 'alternate_conformers': 0, 'entity_id': 3, 'struct_asym_id': 'C', 'residue_number': 1, 'chem_comp_name': '(1S,2S)-2-({N-[(benzyloxy)carbonyl]-L-leucyl}amino)-1-hydroxy-3-[(3S)-2-oxopyrrolidin-3-yl]propane-1-sulfonic acid', 'weight': 485.551, 'carbohydrate_polymer': False, 'branch_name': ''}, {'chain_id': 'A', 'author_residue_number': 203, 'author_insertion_code': '', 'chem_comp_id': 'SO4', 'alternate_conformers': 0, 'entity_id': 4, 'struct_asym_id': 'D', 'residue_number': 1, 'chem_comp_name': 'SULFATE ION', 'weight': 96.063, 'carbohydrate_polymer': False, 'branch_name': ''}, {'chain_id': 'A', 'author_residue_number': 204, 'author_insertion_code': '', 'chem_comp_id': 'SO4', 'alternate_conformers': 0, 'entity_id': 4, 'struct_asym_id': 'E', 'residue_number': 1, 'chem_comp_name': 'SULFATE ION', 'weight': 96.063, 'carbohydrate_polymer': False, 'branch_name': ''}]

>  <ligand_codes>  (420) 
['DTT', 'K36', 'SO4', 'SO4']

>  <cofactor_codes>  (420) 
[]

>  <has_cofactor>  (420) 
False

>  <covalent>  (420) 
True

>  <base_name>  (420) 
4DCD

>  <lig_resn>  (420) 
K36

>  <lig_resi>  (420) 
202

>  <lig_chain>  (420) 
A

>  <lig_segi>  (420) 
C

>  <lig_alt>  (420) 


>  <polymer_chain>  (420) 
A

>  <single_smiles>  (420) 
CC(C)C[C@H](NC(=O)OCc1ccccc1)C(=O)N[C@@H](C[C@@H]2CCNC2=O)[C@@H](O)[S](O)(=O)=O

$$$$
K36P1S9
     RDKit          3D

  4  3  0  0  0  0  0  0  0  0999 V2000
   -9.7150   14.7080  -34.4900 N   0  0  0  0  0  0  0  0  0  0  0  0
   -9.2260   15.0230  -33.2570 C   0  0  0  0  0  0  0  0  0  0  0  0
   -8.7990   16.3920  -33.0860 O   0  0  0  0  0  0  0  0  0  0  0  0
   -9.1610   14.2130  -32.3370 O   0  0  0  0  0  0  0  0  0  0  0  0
  2  1  1  0
  3  2  1  0
  2  4  1  0
A    2
 C9 
A    4
 O10
M  END
>  <XChem_code>  (421) 
K36§1

>  <Occupancy>  (421) 
[1.0, 1.0, 1.0, 1.0, 1.0, 1.0, 1.0, 1.0, 1.0, 1.0, 1.0, 1.0, 1.0, 1.0, 1.0, 1.0, 1.0, 1.0, 1.0, 1.0, 1.0, 1.0, 1.0, 1.0, 1.0, 1.0, 1.0, 1.0, 1.0, 1.0]

>  <TempFactor>  (421) 
[30.71, 25.76, 25.55, 30.93, 32.73, 33.09, 29.57, 27.45, 21.78, 20.1, 18.64, 16.74, 17.68, 18.03, 20.27, 18.93, 19.19, 22.15, 19.34, 15.88, 17.48, 19.25, 14.06, 14.56, 14.66, 16.75, 19.27, 15.98, 17.08, 17.2]

>  <accession>  (421) 
4DCD_A

>  <description>  (421) 
Chain A, Genome polyprotein [Human poliovirus 1 Mahoney]

>  <evalue>  (421) 
1.3582900000000001e-82

>  <pdb_code>  (421) 
4DCD

>  <chain>  (421) 
A

>  <ligands>  (421) 
[{'chain_id': 'A', 'author_residue_number': 201, 'author_insertion_code': '', 'chem_comp_id': 'DTT', 'alternate_conformers': 0, 'entity_id': 2, 'struct_asym_id': 'B', 'residue_number': 1, 'chem_comp_name': '2,3-DIHYDROXY-1,4-DITHIOBUTANE', 'weight': 154.251, 'carbohydrate_polymer': False, 'branch_name': ''}, {'chain_id': 'A', 'author_residue_number': 202, 'author_insertion_code': '', 'chem_comp_id': 'K36', 'alternate_conformers': 0, 'entity_id': 3, 'struct_asym_id': 'C', 'residue_number': 1, 'chem_comp_name': '(1S,2S)-2-({N-[(benzyloxy)carbonyl]-L-leucyl}amino)-1-hydroxy-3-[(3S)-2-oxopyrrolidin-3-yl]propane-1-sulfonic acid', 'weight': 485.551, 'carbohydrate_polymer': False, 'branch_name': ''}, {'chain_id': 'A', 'author_residue_number': 203, 'author_insertion_code': '', 'chem_comp_id': 'SO4', 'alternate_conformers': 0, 'entity_id': 4, 'struct_asym_id': 'D', 'residue_number': 1, 'chem_comp_name': 'SULFATE ION', 'weight': 96.063, 'carbohydrate_polymer': False, 'branch_name': ''}, {'chain_id': 'A', 'author_residue_number': 204, 'author_insertion_code': '', 'chem_comp_id': 'SO4', 'alternate_conformers': 0, 'entity_id': 4, 'struct_asym_id': 'E', 'residue_number': 1, 'chem_comp_name': 'SULFATE ION', 'weight': 96.063, 'carbohydrate_polymer': False, 'branch_name': ''}]

>  <ligand_codes>  (421) 
['DTT', 'K36', 'SO4', 'SO4']

>  <cofactor_codes>  (421) 
[]

>  <has_cofactor>  (421) 
False

>  <covalent>  (421) 
True

>  <base_name>  (421) 
4DCD

>  <lig_resn>  (421) 
K36

>  <lig_resi>  (421) 
202

>  <lig_chain>  (421) 
A

>  <lig_segi>  (421) 
C

>  <lig_alt>  (421) 


>  <polymer_chain>  (421) 
A

>  <single_smiles>  (421) 
CC(C)C[C@H](NC(=O)OCc1ccccc1)C(=O)N[C@@H](C[C@@H]2CCNC2=O)[C@@H](O)[S](O)(=O)=O

$$$$
K36P1S10
     RDKit          3D

 11 10  0  0  0  0  0  0  0  0999 V2000
   -8.7060   12.3590  -34.7330 C   0  0  0  0  0  0  0  0  0  0  0  0
   -9.8030   13.3470  -35.0110 C   0  0  1  0  0  0  0  0  0  0  0  0
   -7.5560   12.6800  -35.0200 O   0  0  0  0  0  0  0  0  0  0  0  0
   -9.7150   14.7080  -34.4900 N   0  0  0  0  0  0  0  0  0  0  0  0
  -10.5080   13.1720  -36.3590 C   0  0  0  0  0  0  0  0  0  0  0  0
   -9.2260   15.0230  -33.2570 C   0  0  0  0  0  0  0  0  0  0  0  0
  -11.7110   14.0930  -36.5420 C   0  0  0  0  0  0  0  0  0  0  0  0
   -8.7990   16.3920  -33.0860 O   0  0  0  0  0  0  0  0  0  0  0  0
   -9.1610   14.2130  -32.3370 O   0  0  0  0  0  0  0  0  0  0  0  0
  -11.9690   14.3320  -38.0230 C   0  0  0  0  0  0  0  0  0  0  0  0
  -12.9410   13.5180  -35.8720 C   0  0  0  0  0  0  0  0  0  0  0  0
  2  1  1  0
  1  3  1  6
  4  2  1  0
  2  5  1  6
  6  4  1  0
  5  7  1  0
  8  6  1  0
  6  9  1  0
  7 10  1  0
  7 11  1  0
A    2
 C12
A    3
 O18
A    4
 N11
A    5
 C13
A    6
 C9 
A    7
 C14
A    9
 O10
A   10
 C15
A   11
 C16
M  END
>  <XChem_code>  (422) 
K36§1

>  <Occupancy>  (422) 
[1.0, 1.0, 1.0, 1.0, 1.0, 1.0, 1.0, 1.0, 1.0, 1.0, 1.0, 1.0, 1.0, 1.0, 1.0, 1.0, 1.0, 1.0, 1.0, 1.0, 1.0, 1.0, 1.0, 1.0, 1.0, 1.0, 1.0, 1.0, 1.0, 1.0]

>  <TempFactor>  (422) 
[30.71, 25.76, 25.55, 30.93, 32.73, 33.09, 29.57, 27.45, 21.78, 20.1, 18.64, 16.74, 17.68, 18.03, 20.27, 18.93, 19.19, 22.15, 19.34, 15.88, 17.48, 19.25, 14.06, 14.56, 14.66, 16.75, 19.27, 15.98, 17.08, 17.2]

>  <accession>  (422) 
4DCD_A

>  <description>  (422) 
Chain A, Genome polyprotein [Human poliovirus 1 Mahoney]

>  <evalue>  (422) 
1.3582900000000001e-82

>  <pdb_code>  (422) 
4DCD

>  <chain>  (422) 
A

>  <ligands>  (422) 
[{'chain_id': 'A', 'author_residue_number': 201, 'author_insertion_code': '', 'chem_comp_id': 'DTT', 'alternate_conformers': 0, 'entity_id': 2, 'struct_asym_id': 'B', 'residue_number': 1, 'chem_comp_name': '2,3-DIHYDROXY-1,4-DITHIOBUTANE', 'weight': 154.251, 'carbohydrate_polymer': False, 'branch_name': ''}, {'chain_id': 'A', 'author_residue_number': 202, 'author_insertion_code': '', 'chem_comp_id': 'K36', 'alternate_conformers': 0, 'entity_id': 3, 'struct_asym_id': 'C', 'residue_number': 1, 'chem_comp_name': '(1S,2S)-2-({N-[(benzyloxy)carbonyl]-L-leucyl}amino)-1-hydroxy-3-[(3S)-2-oxopyrrolidin-3-yl]propane-1-sulfonic acid', 'weight': 485.551, 'carbohydrate_polymer': False, 'branch_name': ''}, {'chain_id': 'A', 'author_residue_number': 203, 'author_insertion_code': '', 'chem_comp_id': 'SO4', 'alternate_conformers': 0, 'entity_id': 4, 'struct_asym_id': 'D', 'residue_number': 1, 'chem_comp_name': 'SULFATE ION', 'weight': 96.063, 'carbohydrate_polymer': False, 'branch_name': ''}, {'chain_id': 'A', 'author_residue_number': 204, 'author_insertion_code': '', 'chem_comp_id': 'SO4', 'alternate_conformers': 0, 'entity_id': 4, 'struct_asym_id': 'E', 'residue_number': 1, 'chem_comp_name': 'SULFATE ION', 'weight': 96.063, 'carbohydrate_polymer': False, 'branch_name': ''}]

>  <ligand_codes>  (422) 
['DTT', 'K36', 'SO4', 'SO4']

>  <cofactor_codes>  (422) 
[]

>  <has_cofactor>  (422) 
False

>  <covalent>  (422) 
True

>  <base_name>  (422) 
4DCD

>  <lig_resn>  (422) 
K36

>  <lig_resi>  (422) 
202

>  <lig_chain>  (422) 
A

>  <lig_segi>  (422) 
C

>  <lig_alt>  (422) 


>  <polymer_chain>  (422) 
A

>  <single_smiles>  (422) 
CC(C)C[C@H](NC(=O)OCc1ccccc1)C(=O)N[C@@H](C[C@@H]2CCNC2=O)[C@@H](O)[S](O)(=O)=O

$$$$
K36P1S11
     RDKit          3D

 12 11  0  0  0  0  0  0  0  0999 V2000
   -9.0120   11.1150  -34.2520 N   0  0  0  0  0  0  0  0  0  0  0  0
   -8.7060   12.3590  -34.7330 C   0  0  2  0  0  0  0  0  0  0  0  0
   -9.8030   13.3470  -35.0110 C   0  0  1  0  0  0  0  0  0  0  0  0
   -7.5560   12.6800  -35.0200 O   0  0  0  0  0  0  0  0  0  0  0  0
   -9.7150   14.7080  -34.4900 N   0  0  0  0  0  0  0  0  0  0  0  0
  -10.5080   13.1720  -36.3590 C   0  0  0  0  0  0  0  0  0  0  0  0
   -9.2260   15.0230  -33.2570 C   0  0  0  0  0  0  0  0  0  0  0  0
  -11.7110   14.0930  -36.5420 C   0  0  0  0  0  0  0  0  0  0  0  0
   -8.7990   16.3920  -33.0860 O   0  0  0  0  0  0  0  0  0  0  0  0
   -9.1610   14.2130  -32.3370 O   0  0  0  0  0  0  0  0  0  0  0  0
  -11.9690   14.3320  -38.0230 C   0  0  0  0  0  0  0  0  0  0  0  0
  -12.9410   13.5180  -35.8720 C   0  0  0  0  0  0  0  0  0  0  0  0
  2  1  1  6
  3  2  1  0
  2  4  1  0
  5  3  1  0
  3  6  1  6
  7  5  1  0
  6  8  1  0
  9  7  1  0
  7 10  1  0
  8 11  1  0
  8 12  1  0
A    2
 C17
A    3
 C12
A    4
 O18
A    5
 N11
A    6
 C13
A    7
 C9 
A    8
 C14
A   10
 O10
A   11
 C15
A   12
 C16
M  END
>  <XChem_code>  (423) 
K36§1

>  <Occupancy>  (423) 
[1.0, 1.0, 1.0, 1.0, 1.0, 1.0, 1.0, 1.0, 1.0, 1.0, 1.0, 1.0, 1.0, 1.0, 1.0, 1.0, 1.0, 1.0, 1.0, 1.0, 1.0, 1.0, 1.0, 1.0, 1.0, 1.0, 1.0, 1.0, 1.0, 1.0]

>  <TempFactor>  (423) 
[30.71, 25.76, 25.55, 30.93, 32.73, 33.09, 29.57, 27.45, 21.78, 20.1, 18.64, 16.74, 17.68, 18.03, 20.27, 18.93, 19.19, 22.15, 19.34, 15.88, 17.48, 19.25, 14.06, 14.56, 14.66, 16.75, 19.27, 15.98, 17.08, 17.2]

>  <accession>  (423) 
4DCD_A

>  <description>  (423) 
Chain A, Genome polyprotein [Human poliovirus 1 Mahoney]

>  <evalue>  (423) 
1.3582900000000001e-82

>  <pdb_code>  (423) 
4DCD

>  <chain>  (423) 
A

>  <ligands>  (423) 
[{'chain_id': 'A', 'author_residue_number': 201, 'author_insertion_code': '', 'chem_comp_id': 'DTT', 'alternate_conformers': 0, 'entity_id': 2, 'struct_asym_id': 'B', 'residue_number': 1, 'chem_comp_name': '2,3-DIHYDROXY-1,4-DITHIOBUTANE', 'weight': 154.251, 'carbohydrate_polymer': False, 'branch_name': ''}, {'chain_id': 'A', 'author_residue_number': 202, 'author_insertion_code': '', 'chem_comp_id': 'K36', 'alternate_conformers': 0, 'entity_id': 3, 'struct_asym_id': 'C', 'residue_number': 1, 'chem_comp_name': '(1S,2S)-2-({N-[(benzyloxy)carbonyl]-L-leucyl}amino)-1-hydroxy-3-[(3S)-2-oxopyrrolidin-3-yl]propane-1-sulfonic acid', 'weight': 485.551, 'carbohydrate_polymer': False, 'branch_name': ''}, {'chain_id': 'A', 'author_residue_number': 203, 'author_insertion_code': '', 'chem_comp_id': 'SO4', 'alternate_conformers': 0, 'entity_id': 4, 'struct_asym_id': 'D', 'residue_number': 1, 'chem_comp_name': 'SULFATE ION', 'weight': 96.063, 'carbohydrate_polymer': False, 'branch_name': ''}, {'chain_id': 'A', 'author_residue_number': 204, 'author_insertion_code': '', 'chem_comp_id': 'SO4', 'alternate_conformers': 0, 'entity_id': 4, 'struct_asym_id': 'E', 'residue_number': 1, 'chem_comp_name': 'SULFATE ION', 'weight': 96.063, 'carbohydrate_polymer': False, 'branch_name': ''}]

>  <ligand_codes>  (423) 
['DTT', 'K36', 'SO4', 'SO4']

>  <cofactor_codes>  (423) 
[]

>  <has_cofactor>  (423) 
False

>  <covalent>  (423) 
True

>  <base_name>  (423) 
4DCD

>  <lig_resn>  (423) 
K36

>  <lig_resi>  (423) 
202

>  <lig_chain>  (423) 
A

>  <lig_segi>  (423) 
C

>  <lig_alt>  (423) 


>  <polymer_chain>  (423) 
A

>  <single_smiles>  (423) 
CC(C)C[C@H](NC(=O)OCc1ccccc1)C(=O)N[C@@H](C[C@@H]2CCNC2=O)[C@@H](O)[S](O)(=O)=O

$$$$
K36P1S12
     RDKit          3D

  7  6  0  0  0  0  0  0  0  0999 V2000
   -8.7060   12.3590  -34.7330 C   0  0  0  0  0  0  0  0  0  0  0  0
   -9.8030   13.3470  -35.0110 C   0  0  0  0  0  0  0  0  0  0  0  0
   -7.5560   12.6800  -35.0200 O   0  0  0  0  0  0  0  0  0  0  0  0
  -10.5080   13.1720  -36.3590 C   0  0  0  0  0  0  0  0  0  0  0  0
  -11.7110   14.0930  -36.5420 C   0  0  0  0  0  0  0  0  0  0  0  0
  -11.9690   14.3320  -38.0230 C   0  0  0  0  0  0  0  0  0  0  0  0
  -12.9410   13.5180  -35.8720 C   0  0  0  0  0  0  0  0  0  0  0  0
  2  1  1  0
  1  3  1  6
  2  4  1  6
  4  5  1  0
  5  6  1  0
  5  7  1  0
A    3
 O18
A    4
 C13
A    5
 C14
A    6
 C15
A    7
 C16
M  END
>  <XChem_code>  (424) 
K36§1

>  <Occupancy>  (424) 
[1.0, 1.0, 1.0, 1.0, 1.0, 1.0, 1.0, 1.0, 1.0, 1.0, 1.0, 1.0, 1.0, 1.0, 1.0, 1.0, 1.0, 1.0, 1.0, 1.0, 1.0, 1.0, 1.0, 1.0, 1.0, 1.0, 1.0, 1.0, 1.0, 1.0]

>  <TempFactor>  (424) 
[30.71, 25.76, 25.55, 30.93, 32.73, 33.09, 29.57, 27.45, 21.78, 20.1, 18.64, 16.74, 17.68, 18.03, 20.27, 18.93, 19.19, 22.15, 19.34, 15.88, 17.48, 19.25, 14.06, 14.56, 14.66, 16.75, 19.27, 15.98, 17.08, 17.2]

>  <accession>  (424) 
4DCD_A

>  <description>  (424) 
Chain A, Genome polyprotein [Human poliovirus 1 Mahoney]

>  <evalue>  (424) 
1.3582900000000001e-82

>  <pdb_code>  (424) 
4DCD

>  <chain>  (424) 
A

>  <ligands>  (424) 
[{'chain_id': 'A', 'author_residue_number': 201, 'author_insertion_code': '', 'chem_comp_id': 'DTT', 'alternate_conformers': 0, 'entity_id': 2, 'struct_asym_id': 'B', 'residue_number': 1, 'chem_comp_name': '2,3-DIHYDROXY-1,4-DITHIOBUTANE', 'weight': 154.251, 'carbohydrate_polymer': False, 'branch_name': ''}, {'chain_id': 'A', 'author_residue_number': 202, 'author_insertion_code': '', 'chem_comp_id': 'K36', 'alternate_conformers': 0, 'entity_id': 3, 'struct_asym_id': 'C', 'residue_number': 1, 'chem_comp_name': '(1S,2S)-2-({N-[(benzyloxy)carbonyl]-L-leucyl}amino)-1-hydroxy-3-[(3S)-2-oxopyrrolidin-3-yl]propane-1-sulfonic acid', 'weight': 485.551, 'carbohydrate_polymer': False, 'branch_name': ''}, {'chain_id': 'A', 'author_residue_number': 203, 'author_insertion_code': '', 'chem_comp_id': 'SO4', 'alternate_conformers': 0, 'entity_id': 4, 'struct_asym_id': 'D', 'residue_number': 1, 'chem_comp_name': 'SULFATE ION', 'weight': 96.063, 'carbohydrate_polymer': False, 'branch_name': ''}, {'chain_id': 'A', 'author_residue_number': 204, 'author_insertion_code': '', 'chem_comp_id': 'SO4', 'alternate_conformers': 0, 'entity_id': 4, 'struct_asym_id': 'E', 'residue_number': 1, 'chem_comp_name': 'SULFATE ION', 'weight': 96.063, 'carbohydrate_polymer': False, 'branch_name': ''}]

>  <ligand_codes>  (424) 
['DTT', 'K36', 'SO4', 'SO4']

>  <cofactor_codes>  (424) 
[]

>  <has_cofactor>  (424) 
False

>  <covalent>  (424) 
True

>  <base_name>  (424) 
4DCD

>  <lig_resn>  (424) 
K36

>  <lig_resi>  (424) 
202

>  <lig_chain>  (424) 
A

>  <lig_segi>  (424) 
C

>  <lig_alt>  (424) 


>  <polymer_chain>  (424) 
A

>  <single_smiles>  (424) 
CC(C)C[C@H](NC(=O)OCc1ccccc1)C(=O)N[C@@H](C[C@@H]2CCNC2=O)[C@@H](O)[S](O)(=O)=O

$$$$
K36P1S13
     RDKit          3D

  8  7  0  0  0  0  0  0  0  0999 V2000
   -9.0120   11.1150  -34.2520 N   0  0  0  0  0  0  0  0  0  0  0  0
   -8.7060   12.3590  -34.7330 C   0  0  2  0  0  0  0  0  0  0  0  0
   -9.8030   13.3470  -35.0110 C   0  0  0  0  0  0  0  0  0  0  0  0
   -7.5560   12.6800  -35.0200 O   0  0  0  0  0  0  0  0  0  0  0  0
  -10.5080   13.1720  -36.3590 C   0  0  0  0  0  0  0  0  0  0  0  0
  -11.7110   14.0930  -36.5420 C   0  0  0  0  0  0  0  0  0  0  0  0
  -11.9690   14.3320  -38.0230 C   0  0  0  0  0  0  0  0  0  0  0  0
  -12.9410   13.5180  -35.8720 C   0  0  0  0  0  0  0  0  0  0  0  0
  2  1  1  6
  3  2  1  0
  2  4  1  0
  3  5  1  6
  5  6  1  0
  6  7  1  0
  6  8  1  0
A    2
 C17
A    4
 O18
A    5
 C13
A    6
 C14
A    7
 C15
A    8
 C16
M  END
>  <XChem_code>  (425) 
K36§1

>  <Occupancy>  (425) 
[1.0, 1.0, 1.0, 1.0, 1.0, 1.0, 1.0, 1.0, 1.0, 1.0, 1.0, 1.0, 1.0, 1.0, 1.0, 1.0, 1.0, 1.0, 1.0, 1.0, 1.0, 1.0, 1.0, 1.0, 1.0, 1.0, 1.0, 1.0, 1.0, 1.0]

>  <TempFactor>  (425) 
[30.71, 25.76, 25.55, 30.93, 32.73, 33.09, 29.57, 27.45, 21.78, 20.1, 18.64, 16.74, 17.68, 18.03, 20.27, 18.93, 19.19, 22.15, 19.34, 15.88, 17.48, 19.25, 14.06, 14.56, 14.66, 16.75, 19.27, 15.98, 17.08, 17.2]

>  <accession>  (425) 
4DCD_A

>  <description>  (425) 
Chain A, Genome polyprotein [Human poliovirus 1 Mahoney]

>  <evalue>  (425) 
1.3582900000000001e-82

>  <pdb_code>  (425) 
4DCD

>  <chain>  (425) 
A

>  <ligands>  (425) 
[{'chain_id': 'A', 'author_residue_number': 201, 'author_insertion_code': '', 'chem_comp_id': 'DTT', 'alternate_conformers': 0, 'entity_id': 2, 'struct_asym_id': 'B', 'residue_number': 1, 'chem_comp_name': '2,3-DIHYDROXY-1,4-DITHIOBUTANE', 'weight': 154.251, 'carbohydrate_polymer': False, 'branch_name': ''}, {'chain_id': 'A', 'author_residue_number': 202, 'author_insertion_code': '', 'chem_comp_id': 'K36', 'alternate_conformers': 0, 'entity_id': 3, 'struct_asym_id': 'C', 'residue_number': 1, 'chem_comp_name': '(1S,2S)-2-({N-[(benzyloxy)carbonyl]-L-leucyl}amino)-1-hydroxy-3-[(3S)-2-oxopyrrolidin-3-yl]propane-1-sulfonic acid', 'weight': 485.551, 'carbohydrate_polymer': False, 'branch_name': ''}, {'chain_id': 'A', 'author_residue_number': 203, 'author_insertion_code': '', 'chem_comp_id': 'SO4', 'alternate_conformers': 0, 'entity_id': 4, 'struct_asym_id': 'D', 'residue_number': 1, 'chem_comp_name': 'SULFATE ION', 'weight': 96.063, 'carbohydrate_polymer': False, 'branch_name': ''}, {'chain_id': 'A', 'author_residue_number': 204, 'author_insertion_code': '', 'chem_comp_id': 'SO4', 'alternate_conformers': 0, 'entity_id': 4, 'struct_asym_id': 'E', 'residue_number': 1, 'chem_comp_name': 'SULFATE ION', 'weight': 96.063, 'carbohydrate_polymer': False, 'branch_name': ''}]

>  <ligand_codes>  (425) 
['DTT', 'K36', 'SO4', 'SO4']

>  <cofactor_codes>  (425) 
[]

>  <has_cofactor>  (425) 
False

>  <covalent>  (425) 
True

>  <base_name>  (425) 
4DCD

>  <lig_resn>  (425) 
K36

>  <lig_resi>  (425) 
202

>  <lig_chain>  (425) 
A

>  <lig_segi>  (425) 
C

>  <lig_alt>  (425) 


>  <polymer_chain>  (425) 
A

>  <single_smiles>  (425) 
CC(C)C[C@H](NC(=O)OCc1ccccc1)C(=O)N[C@@H](C[C@@H]2CCNC2=O)[C@@H](O)[S](O)(=O)=O

$$$$
K36P1S14
     RDKit          3D

  6  6  0  0  0  0  0  0  0  0999 V2000
   -8.9700   17.5750  -31.0090 C   0  0  0  0  0  0  0  0  0  0  0  0
  -10.0590   16.9670  -30.4140 C   0  0  0  0  0  0  0  0  0  0  0  0
   -8.7130   18.9270  -30.8020 C   0  0  0  0  0  0  0  0  0  0  0  0
  -10.8920   17.7010  -29.5780 C   0  0  0  0  0  0  0  0  0  0  0  0
   -9.5570   19.6690  -29.9800 C   0  0  0  0  0  0  0  0  0  0  0  0
  -10.6400   19.0530  -29.3700 C   0  0  0  0  0  0  0  0  0  0  0  0
  1  2  1  0
  1  3  1  0
  2  4  1  0
  5  3  1  0
  4  6  1  0
  6  5  1  0
A    2
 C2 
A    3
 C6 
A    4
 C3 
A    5
 C5 
A    6
 C4 
M  END
>  <XChem_code>  (426) 
K36§1

>  <Occupancy>  (426) 
[1.0, 1.0, 1.0, 1.0, 1.0, 1.0, 1.0, 1.0, 1.0, 1.0, 1.0, 1.0, 1.0, 1.0, 1.0, 1.0, 1.0, 1.0, 1.0, 1.0, 1.0, 1.0, 1.0, 1.0, 1.0, 1.0, 1.0, 1.0, 1.0, 1.0]

>  <TempFactor>  (426) 
[30.71, 25.76, 25.55, 30.93, 32.73, 33.09, 29.57, 27.45, 21.78, 20.1, 18.64, 16.74, 17.68, 18.03, 20.27, 18.93, 19.19, 22.15, 19.34, 15.88, 17.48, 19.25, 14.06, 14.56, 14.66, 16.75, 19.27, 15.98, 17.08, 17.2]

>  <accession>  (426) 
4DCD_A

>  <description>  (426) 
Chain A, Genome polyprotein [Human poliovirus 1 Mahoney]

>  <evalue>  (426) 
1.3582900000000001e-82

>  <pdb_code>  (426) 
4DCD

>  <chain>  (426) 
A

>  <ligands>  (426) 
[{'chain_id': 'A', 'author_residue_number': 201, 'author_insertion_code': '', 'chem_comp_id': 'DTT', 'alternate_conformers': 0, 'entity_id': 2, 'struct_asym_id': 'B', 'residue_number': 1, 'chem_comp_name': '2,3-DIHYDROXY-1,4-DITHIOBUTANE', 'weight': 154.251, 'carbohydrate_polymer': False, 'branch_name': ''}, {'chain_id': 'A', 'author_residue_number': 202, 'author_insertion_code': '', 'chem_comp_id': 'K36', 'alternate_conformers': 0, 'entity_id': 3, 'struct_asym_id': 'C', 'residue_number': 1, 'chem_comp_name': '(1S,2S)-2-({N-[(benzyloxy)carbonyl]-L-leucyl}amino)-1-hydroxy-3-[(3S)-2-oxopyrrolidin-3-yl]propane-1-sulfonic acid', 'weight': 485.551, 'carbohydrate_polymer': False, 'branch_name': ''}, {'chain_id': 'A', 'author_residue_number': 203, 'author_insertion_code': '', 'chem_comp_id': 'SO4', 'alternate_conformers': 0, 'entity_id': 4, 'struct_asym_id': 'D', 'residue_number': 1, 'chem_comp_name': 'SULFATE ION', 'weight': 96.063, 'carbohydrate_polymer': False, 'branch_name': ''}, {'chain_id': 'A', 'author_residue_number': 204, 'author_insertion_code': '', 'chem_comp_id': 'SO4', 'alternate_conformers': 0, 'entity_id': 4, 'struct_asym_id': 'E', 'residue_number': 1, 'chem_comp_name': 'SULFATE ION', 'weight': 96.063, 'carbohydrate_polymer': False, 'branch_name': ''}]

>  <ligand_codes>  (426) 
['DTT', 'K36', 'SO4', 'SO4']

>  <cofactor_codes>  (426) 
[]

>  <has_cofactor>  (426) 
False

>  <covalent>  (426) 
True

>  <base_name>  (426) 
4DCD

>  <lig_resn>  (426) 
K36

>  <lig_resi>  (426) 
202

>  <lig_chain>  (426) 
A

>  <lig_segi>  (426) 
C

>  <lig_alt>  (426) 


>  <polymer_chain>  (426) 
A

>  <single_smiles>  (426) 
CC(C)C[C@H](NC(=O)OCc1ccccc1)C(=O)N[C@@H](C[C@@H]2CCNC2=O)[C@@H](O)[S](O)(=O)=O

$$$$
K36P1S15
     RDKit          3D

 24 24  0  0  0  0  0  0  0  0999 V2000
   -8.0750   16.7460  -31.8990 C   0  0  0  0  0  0  0  0  0  0  0  0
   -8.7990   16.3920  -33.0860 O   0  0  0  0  0  0  0  0  0  0  0  0
   -9.2260   15.0230  -33.2570 C   0  0  0  0  0  0  0  0  0  0  0  0
   -9.1610   14.2130  -32.3370 O   0  0  0  0  0  0  0  0  0  0  0  0
   -9.7150   14.7080  -34.4900 N   0  0  0  0  0  0  0  0  0  0  0  0
   -9.8030   13.3470  -35.0110 C   0  0  1  0  0  0  0  0  0  0  0  0
  -10.5080   13.1720  -36.3590 C   0  0  0  0  0  0  0  0  0  0  0  0
   -8.7060   12.3590  -34.7330 C   0  0  2  0  0  0  0  0  0  0  0  0
  -11.7110   14.0930  -36.5420 C   0  0  0  0  0  0  0  0  0  0  0  0
   -7.5560   12.6800  -35.0200 O   0  0  0  0  0  0  0  0  0  0  0  0
   -9.0120   11.1150  -34.2520 N   0  0  0  0  0  0  0  0  0  0  0  0
  -11.9690   14.3320  -38.0230 C   0  0  0  0  0  0  0  0  0  0  0  0
  -12.9410   13.5180  -35.8720 C   0  0  0  0  0  0  0  0  0  0  0  0
   -7.9480   10.1300  -33.9570 C   0  0  2  0  0  0  0  0  0  0  0  0
   -8.2670    8.7510  -34.5240 C   0  0  2  0  0  0  0  0  0  0  0  0
   -7.8060    9.9810  -32.4450 C   0  0  0  0  0  0  0  0  0  0  0  0
   -8.3190    8.8070  -35.9490 O   0  0  0  0  0  0  0  0  0  0  0  0
  -10.0160    8.3280  -33.9520 R   0  0  0  0  0  0  0  0  0  0  0  0
   -7.3520   11.2620  -31.7920 C   0  0  2  0  0  0  0  0  0  0  0  0
   -5.9980   11.7790  -32.2540 C   0  0  0  0  0  0  0  0  0  0  0  0
   -7.1020   11.0560  -30.3450 C   0  0  0  0  0  0  0  0  0  0  0  0
   -5.3830   12.4060  -31.0100 C   0  0  0  0  0  0  0  0  0  0  0  0
   -6.0060   11.7100  -29.8810 N   0  0  0  0  0  0  0  0  0  0  0  0
   -7.7710   10.3460  -29.6020 O   0  0  0  0  0  0  0  0  0  0  0  0
  1  2  1  0
  2  3  1  0
  3  4  1  0
  3  5  1  0
  5  6  1  0
  6  7  1  6
  6  8  1  0
  7  9  1  0
  8 10  1  6
  8 11  1  0
  9 12  1  0
  9 13  1  0
 11 14  1  0
 14 15  1  0
 14 16  1  1
 15 17  1  0
 15 18  1  1
 19 16  1  6
 19 20  1  0
 19 21  1  0
 20 22  1  0
 23 21  1  0
 21 24  1  0
 22 23  1  0
V   18 *
A    2
 O8 
A    3
 C9 
A    4
 O10
A    5
 N11
A    6
 C12
A    7
 C13
A    8
 C17
A    9
 C14
A   10
 O18
A   11
 N19
A   12
 C15
A   13
 C16
A   14
 C20
A   15
 C21
A   16
 C24
A   17
 O22
A   18
 X  
A   19
 C25
A   20
 C26
A   21
 C29
A   22
 C27
A   23
 N28
A   24
 O30
M  END
>  <XChem_code>  (427) 
K36§1

>  <Occupancy>  (427) 
[1.0, 1.0, 1.0, 1.0, 1.0, 1.0, 1.0, 1.0, 1.0, 1.0, 1.0, 1.0, 1.0, 1.0, 1.0, 1.0, 1.0, 1.0, 1.0, 1.0, 1.0, 1.0, 1.0, 1.0, 1.0, 1.0, 1.0, 1.0, 1.0, 1.0]

>  <TempFactor>  (427) 
[30.71, 25.76, 25.55, 30.93, 32.73, 33.09, 29.57, 27.45, 21.78, 20.1, 18.64, 16.74, 17.68, 18.03, 20.27, 18.93, 19.19, 22.15, 19.34, 15.88, 17.48, 19.25, 14.06, 14.56, 14.66, 16.75, 19.27, 15.98, 17.08, 17.2]

>  <accession>  (427) 
4DCD_A

>  <description>  (427) 
Chain A, Genome polyprotein [Human poliovirus 1 Mahoney]

>  <evalue>  (427) 
1.3582900000000001e-82

>  <pdb_code>  (427) 
4DCD

>  <chain>  (427) 
A

>  <ligands>  (427) 
[{'chain_id': 'A', 'author_residue_number': 201, 'author_insertion_code': '', 'chem_comp_id': 'DTT', 'alternate_conformers': 0, 'entity_id': 2, 'struct_asym_id': 'B', 'residue_number': 1, 'chem_comp_name': '2,3-DIHYDROXY-1,4-DITHIOBUTANE', 'weight': 154.251, 'carbohydrate_polymer': False, 'branch_name': ''}, {'chain_id': 'A', 'author_residue_number': 202, 'author_insertion_code': '', 'chem_comp_id': 'K36', 'alternate_conformers': 0, 'entity_id': 3, 'struct_asym_id': 'C', 'residue_number': 1, 'chem_comp_name': '(1S,2S)-2-({N-[(benzyloxy)carbonyl]-L-leucyl}amino)-1-hydroxy-3-[(3S)-2-oxopyrrolidin-3-yl]propane-1-sulfonic acid', 'weight': 485.551, 'carbohydrate_polymer': False, 'branch_name': ''}, {'chain_id': 'A', 'author_residue_number': 203, 'author_insertion_code': '', 'chem_comp_id': 'SO4', 'alternate_conformers': 0, 'entity_id': 4, 'struct_asym_id': 'D', 'residue_number': 1, 'chem_comp_name': 'SULFATE ION', 'weight': 96.063, 'carbohydrate_polymer': False, 'branch_name': ''}, {'chain_id': 'A', 'author_residue_number': 204, 'author_insertion_code': '', 'chem_comp_id': 'SO4', 'alternate_conformers': 0, 'entity_id': 4, 'struct_asym_id': 'E', 'residue_number': 1, 'chem_comp_name': 'SULFATE ION', 'weight': 96.063, 'carbohydrate_polymer': False, 'branch_name': ''}]

>  <ligand_codes>  (427) 
['DTT', 'K36', 'SO4', 'SO4']

>  <cofactor_codes>  (427) 
[]

>  <has_cofactor>  (427) 
False

>  <covalent>  (427) 
True

>  <base_name>  (427) 
4DCD

>  <lig_resn>  (427) 
K36

>  <lig_resi>  (427) 
202

>  <lig_chain>  (427) 
A

>  <lig_segi>  (427) 
C

>  <lig_alt>  (427) 


>  <polymer_chain>  (427) 
A

>  <single_smiles>  (427) 
CC(C)C[C@H](NC(=O)OCc1ccccc1)C(=O)N[C@@H](C[C@@H]2CCNC2=O)[C@@H](O)[S](O)(=O)=O

$$$$
K36P1S16
     RDKit          3D

  6  6  0  0  0  0  0  0  0  0999 V2000
   -7.3520   11.2620  -31.7920 C   0  0  0  0  0  0  0  0  0  0  0  0
   -5.9980   11.7790  -32.2540 C   0  0  0  0  0  0  0  0  0  0  0  0
   -7.1020   11.0560  -30.3450 C   0  0  0  0  0  0  0  0  0  0  0  0
   -5.3830   12.4060  -31.0100 C   0  0  0  0  0  0  0  0  0  0  0  0
   -6.0060   11.7100  -29.8810 N   0  0  0  0  0  0  0  0  0  0  0  0
   -7.7710   10.3460  -29.6020 O   0  0  0  0  0  0  0  0  0  0  0  0
  1  2  1  1
  1  3  1  0
  2  4  1  0
  5  3  1  0
  3  6  1  0
  4  5  1  0
A    2
 C26
A    3
 C29
A    4
 C27
A    5
 N28
A    6
 O30
M  END
>  <XChem_code>  (428) 
K36§1

>  <Occupancy>  (428) 
[1.0, 1.0, 1.0, 1.0, 1.0, 1.0, 1.0, 1.0, 1.0, 1.0, 1.0, 1.0, 1.0, 1.0, 1.0, 1.0, 1.0, 1.0, 1.0, 1.0, 1.0, 1.0, 1.0, 1.0, 1.0, 1.0, 1.0, 1.0, 1.0, 1.0]

>  <TempFactor>  (428) 
[30.71, 25.76, 25.55, 30.93, 32.73, 33.09, 29.57, 27.45, 21.78, 20.1, 18.64, 16.74, 17.68, 18.03, 20.27, 18.93, 19.19, 22.15, 19.34, 15.88, 17.48, 19.25, 14.06, 14.56, 14.66, 16.75, 19.27, 15.98, 17.08, 17.2]

>  <accession>  (428) 
4DCD_A

>  <description>  (428) 
Chain A, Genome polyprotein [Human poliovirus 1 Mahoney]

>  <evalue>  (428) 
1.3582900000000001e-82

>  <pdb_code>  (428) 
4DCD

>  <chain>  (428) 
A

>  <ligands>  (428) 
[{'chain_id': 'A', 'author_residue_number': 201, 'author_insertion_code': '', 'chem_comp_id': 'DTT', 'alternate_conformers': 0, 'entity_id': 2, 'struct_asym_id': 'B', 'residue_number': 1, 'chem_comp_name': '2,3-DIHYDROXY-1,4-DITHIOBUTANE', 'weight': 154.251, 'carbohydrate_polymer': False, 'branch_name': ''}, {'chain_id': 'A', 'author_residue_number': 202, 'author_insertion_code': '', 'chem_comp_id': 'K36', 'alternate_conformers': 0, 'entity_id': 3, 'struct_asym_id': 'C', 'residue_number': 1, 'chem_comp_name': '(1S,2S)-2-({N-[(benzyloxy)carbonyl]-L-leucyl}amino)-1-hydroxy-3-[(3S)-2-oxopyrrolidin-3-yl]propane-1-sulfonic acid', 'weight': 485.551, 'carbohydrate_polymer': False, 'branch_name': ''}, {'chain_id': 'A', 'author_residue_number': 203, 'author_insertion_code': '', 'chem_comp_id': 'SO4', 'alternate_conformers': 0, 'entity_id': 4, 'struct_asym_id': 'D', 'residue_number': 1, 'chem_comp_name': 'SULFATE ION', 'weight': 96.063, 'carbohydrate_polymer': False, 'branch_name': ''}, {'chain_id': 'A', 'author_residue_number': 204, 'author_insertion_code': '', 'chem_comp_id': 'SO4', 'alternate_conformers': 0, 'entity_id': 4, 'struct_asym_id': 'E', 'residue_number': 1, 'chem_comp_name': 'SULFATE ION', 'weight': 96.063, 'carbohydrate_polymer': False, 'branch_name': ''}]

>  <ligand_codes>  (428) 
['DTT', 'K36', 'SO4', 'SO4']

>  <cofactor_codes>  (428) 
[]

>  <has_cofactor>  (428) 
False

>  <covalent>  (428) 
True

>  <base_name>  (428) 
4DCD

>  <lig_resn>  (428) 
K36

>  <lig_resi>  (428) 
202

>  <lig_chain>  (428) 
A

>  <lig_segi>  (428) 
C

>  <lig_alt>  (428) 


>  <polymer_chain>  (428) 
A

>  <single_smiles>  (428) 
CC(C)C[C@H](NC(=O)OCc1ccccc1)C(=O)N[C@@H](C[C@@H]2CCNC2=O)[C@@H](O)[S](O)(=O)=O

$$$$
K36P1S17
     RDKit          3D

 24 24  0  0  0  0  0  0  0  0999 V2000
   -7.8060    9.9810  -32.4450 C   0  0  0  0  0  0  0  0  0  0  0  0
   -7.9480   10.1300  -33.9570 C   0  0  2  0  0  0  0  0  0  0  0  0
   -9.0120   11.1150  -34.2520 N   0  0  0  0  0  0  0  0  0  0  0  0
   -8.2670    8.7510  -34.5240 C   0  0  2  0  0  0  0  0  0  0  0  0
   -8.7060   12.3590  -34.7330 C   0  0  2  0  0  0  0  0  0  0  0  0
   -8.3190    8.8070  -35.9490 O   0  0  0  0  0  0  0  0  0  0  0  0
  -10.0160    8.3280  -33.9520 R   0  0  0  0  0  0  0  0  0  0  0  0
   -9.8030   13.3470  -35.0110 C   0  0  1  0  0  0  0  0  0  0  0  0
   -7.5560   12.6800  -35.0200 O   0  0  0  0  0  0  0  0  0  0  0  0
   -9.7150   14.7080  -34.4900 N   0  0  0  0  0  0  0  0  0  0  0  0
  -10.5080   13.1720  -36.3590 C   0  0  0  0  0  0  0  0  0  0  0  0
   -9.2260   15.0230  -33.2570 C   0  0  0  0  0  0  0  0  0  0  0  0
  -11.7110   14.0930  -36.5420 C   0  0  0  0  0  0  0  0  0  0  0  0
   -8.7990   16.3920  -33.0860 O   0  0  0  0  0  0  0  0  0  0  0  0
   -9.1610   14.2130  -32.3370 O   0  0  0  0  0  0  0  0  0  0  0  0
  -11.9690   14.3320  -38.0230 C   0  0  0  0  0  0  0  0  0  0  0  0
  -12.9410   13.5180  -35.8720 C   0  0  0  0  0  0  0  0  0  0  0  0
   -8.0750   16.7460  -31.8990 C   0  0  0  0  0  0  0  0  0  0  0  0
   -8.9700   17.5750  -31.0090 C   0  0  0  0  0  0  0  0  0  0  0  0
  -10.0590   16.9670  -30.4140 C   0  0  0  0  0  0  0  0  0  0  0  0
   -8.7130   18.9270  -30.8020 C   0  0  0  0  0  0  0  0  0  0  0  0
  -10.8920   17.7010  -29.5780 C   0  0  0  0  0  0  0  0  0  0  0  0
   -9.5570   19.6690  -29.9800 C   0  0  0  0  0  0  0  0  0  0  0  0
  -10.6400   19.0530  -29.3700 C   0  0  0  0  0  0  0  0  0  0  0  0
  2  1  1  1
  3  2  1  0
  2  4  1  0
  5  3  1  0
  4  6  1  0
  4  7  1  1
  8  5  1  0
  5  9  1  6
 10  8  1  0
  8 11  1  6
 12 10  1  0
 11 13  1  0
 14 12  1  0
 12 15  1  0
 13 16  1  0
 13 17  1  0
 18 14  1  0
 19 18  1  0
 19 20  1  0
 19 21  1  0
 20 22  1  0
 23 21  1  0
 22 24  1  0
 24 23  1  0
V    7 *
A    2
 C20
A    3
 N19
A    4
 C21
A    5
 C17
A    6
 O22
A    7
 X  
A    8
 C12
A    9
 O18
A   10
 N11
A   11
 C13
A   12
 C9 
A   13
 C14
A   14
 O8 
A   15
 O10
A   16
 C15
A   17
 C16
A   18
 C7 
A   19
 C1 
A   20
 C2 
A   21
 C6 
A   22
 C3 
A   23
 C5 
A   24
 C4 
M  END
>  <XChem_code>  (429) 
K36§1

>  <Occupancy>  (429) 
[1.0, 1.0, 1.0, 1.0, 1.0, 1.0, 1.0, 1.0, 1.0, 1.0, 1.0, 1.0, 1.0, 1.0, 1.0, 1.0, 1.0, 1.0, 1.0, 1.0, 1.0, 1.0, 1.0, 1.0, 1.0, 1.0, 1.0, 1.0, 1.0, 1.0]

>  <TempFactor>  (429) 
[30.71, 25.76, 25.55, 30.93, 32.73, 33.09, 29.57, 27.45, 21.78, 20.1, 18.64, 16.74, 17.68, 18.03, 20.27, 18.93, 19.19, 22.15, 19.34, 15.88, 17.48, 19.25, 14.06, 14.56, 14.66, 16.75, 19.27, 15.98, 17.08, 17.2]

>  <accession>  (429) 
4DCD_A

>  <description>  (429) 
Chain A, Genome polyprotein [Human poliovirus 1 Mahoney]

>  <evalue>  (429) 
1.3582900000000001e-82

>  <pdb_code>  (429) 
4DCD

>  <chain>  (429) 
A

>  <ligands>  (429) 
[{'chain_id': 'A', 'author_residue_number': 201, 'author_insertion_code': '', 'chem_comp_id': 'DTT', 'alternate_conformers': 0, 'entity_id': 2, 'struct_asym_id': 'B', 'residue_number': 1, 'chem_comp_name': '2,3-DIHYDROXY-1,4-DITHIOBUTANE', 'weight': 154.251, 'carbohydrate_polymer': False, 'branch_name': ''}, {'chain_id': 'A', 'author_residue_number': 202, 'author_insertion_code': '', 'chem_comp_id': 'K36', 'alternate_conformers': 0, 'entity_id': 3, 'struct_asym_id': 'C', 'residue_number': 1, 'chem_comp_name': '(1S,2S)-2-({N-[(benzyloxy)carbonyl]-L-leucyl}amino)-1-hydroxy-3-[(3S)-2-oxopyrrolidin-3-yl]propane-1-sulfonic acid', 'weight': 485.551, 'carbohydrate_polymer': False, 'branch_name': ''}, {'chain_id': 'A', 'author_residue_number': 203, 'author_insertion_code': '', 'chem_comp_id': 'SO4', 'alternate_conformers': 0, 'entity_id': 4, 'struct_asym_id': 'D', 'residue_number': 1, 'chem_comp_name': 'SULFATE ION', 'weight': 96.063, 'carbohydrate_polymer': False, 'branch_name': ''}, {'chain_id': 'A', 'author_residue_number': 204, 'author_insertion_code': '', 'chem_comp_id': 'SO4', 'alternate_conformers': 0, 'entity_id': 4, 'struct_asym_id': 'E', 'residue_number': 1, 'chem_comp_name': 'SULFATE ION', 'weight': 96.063, 'carbohydrate_polymer': False, 'branch_name': ''}]

>  <ligand_codes>  (429) 
['DTT', 'K36', 'SO4', 'SO4']

>  <cofactor_codes>  (429) 
[]

>  <has_cofactor>  (429) 
False

>  <covalent>  (429) 
True

>  <base_name>  (429) 
4DCD

>  <lig_resn>  (429) 
K36

>  <lig_resi>  (429) 
202

>  <lig_chain>  (429) 
A

>  <lig_segi>  (429) 
C

>  <lig_alt>  (429) 


>  <polymer_chain>  (429) 
A

>  <single_smiles>  (429) 
CC(C)C[C@H](NC(=O)OCc1ccccc1)C(=O)N[C@@H](C[C@@H]2CCNC2=O)[C@@H](O)[S](O)(=O)=O

$$$$
K36P1S18
     RDKit          3D

 17 16  0  0  0  0  0  0  0  0999 V2000
   -7.8060    9.9810  -32.4450 C   0  0  0  0  0  0  0  0  0  0  0  0
   -7.9480   10.1300  -33.9570 C   0  0  2  0  0  0  0  0  0  0  0  0
   -9.0120   11.1150  -34.2520 N   0  0  0  0  0  0  0  0  0  0  0  0
   -8.2670    8.7510  -34.5240 C   0  0  2  0  0  0  0  0  0  0  0  0
   -8.7060   12.3590  -34.7330 C   0  0  2  0  0  0  0  0  0  0  0  0
   -8.3190    8.8070  -35.9490 O   0  0  0  0  0  0  0  0  0  0  0  0
  -10.0160    8.3280  -33.9520 R   0  0  0  0  0  0  0  0  0  0  0  0
   -9.8030   13.3470  -35.0110 C   0  0  1  0  0  0  0  0  0  0  0  0
   -7.5560   12.6800  -35.0200 O   0  0  0  0  0  0  0  0  0  0  0  0
   -9.7150   14.7080  -34.4900 N   0  0  0  0  0  0  0  0  0  0  0  0
  -10.5080   13.1720  -36.3590 C   0  0  0  0  0  0  0  0  0  0  0  0
   -9.2260   15.0230  -33.2570 C   0  0  0  0  0  0  0  0  0  0  0  0
  -11.7110   14.0930  -36.5420 C   0  0  0  0  0  0  0  0  0  0  0  0
   -8.7990   16.3920  -33.0860 O   0  0  0  0  0  0  0  0  0  0  0  0
   -9.1610   14.2130  -32.3370 O   0  0  0  0  0  0  0  0  0  0  0  0
  -11.9690   14.3320  -38.0230 C   0  0  0  0  0  0  0  0  0  0  0  0
  -12.9410   13.5180  -35.8720 C   0  0  0  0  0  0  0  0  0  0  0  0
  2  1  1  1
  3  2  1  0
  2  4  1  0
  5  3  1  0
  4  6  1  0
  4  7  1  1
  8  5  1  0
  5  9  1  6
 10  8  1  0
  8 11  1  6
 12 10  1  0
 11 13  1  0
 14 12  1  0
 12 15  1  0
 13 16  1  0
 13 17  1  0
V    7 *
A    2
 C20
A    3
 N19
A    4
 C21
A    5
 C17
A    6
 O22
A    7
 X  
A    8
 C12
A    9
 O18
A   10
 N11
A   11
 C13
A   12
 C9 
A   13
 C14
A   15
 O10
A   16
 C15
A   17
 C16
M  END
>  <XChem_code>  (430) 
K36§1

>  <Occupancy>  (430) 
[1.0, 1.0, 1.0, 1.0, 1.0, 1.0, 1.0, 1.0, 1.0, 1.0, 1.0, 1.0, 1.0, 1.0, 1.0, 1.0, 1.0, 1.0, 1.0, 1.0, 1.0, 1.0, 1.0, 1.0, 1.0, 1.0, 1.0, 1.0, 1.0, 1.0]

>  <TempFactor>  (430) 
[30.71, 25.76, 25.55, 30.93, 32.73, 33.09, 29.57, 27.45, 21.78, 20.1, 18.64, 16.74, 17.68, 18.03, 20.27, 18.93, 19.19, 22.15, 19.34, 15.88, 17.48, 19.25, 14.06, 14.56, 14.66, 16.75, 19.27, 15.98, 17.08, 17.2]

>  <accession>  (430) 
4DCD_A

>  <description>  (430) 
Chain A, Genome polyprotein [Human poliovirus 1 Mahoney]

>  <evalue>  (430) 
1.3582900000000001e-82

>  <pdb_code>  (430) 
4DCD

>  <chain>  (430) 
A

>  <ligands>  (430) 
[{'chain_id': 'A', 'author_residue_number': 201, 'author_insertion_code': '', 'chem_comp_id': 'DTT', 'alternate_conformers': 0, 'entity_id': 2, 'struct_asym_id': 'B', 'residue_number': 1, 'chem_comp_name': '2,3-DIHYDROXY-1,4-DITHIOBUTANE', 'weight': 154.251, 'carbohydrate_polymer': False, 'branch_name': ''}, {'chain_id': 'A', 'author_residue_number': 202, 'author_insertion_code': '', 'chem_comp_id': 'K36', 'alternate_conformers': 0, 'entity_id': 3, 'struct_asym_id': 'C', 'residue_number': 1, 'chem_comp_name': '(1S,2S)-2-({N-[(benzyloxy)carbonyl]-L-leucyl}amino)-1-hydroxy-3-[(3S)-2-oxopyrrolidin-3-yl]propane-1-sulfonic acid', 'weight': 485.551, 'carbohydrate_polymer': False, 'branch_name': ''}, {'chain_id': 'A', 'author_residue_number': 203, 'author_insertion_code': '', 'chem_comp_id': 'SO4', 'alternate_conformers': 0, 'entity_id': 4, 'struct_asym_id': 'D', 'residue_number': 1, 'chem_comp_name': 'SULFATE ION', 'weight': 96.063, 'carbohydrate_polymer': False, 'branch_name': ''}, {'chain_id': 'A', 'author_residue_number': 204, 'author_insertion_code': '', 'chem_comp_id': 'SO4', 'alternate_conformers': 0, 'entity_id': 4, 'struct_asym_id': 'E', 'residue_number': 1, 'chem_comp_name': 'SULFATE ION', 'weight': 96.063, 'carbohydrate_polymer': False, 'branch_name': ''}]

>  <ligand_codes>  (430) 
['DTT', 'K36', 'SO4', 'SO4']

>  <cofactor_codes>  (430) 
[]

>  <has_cofactor>  (430) 
False

>  <covalent>  (430) 
True

>  <base_name>  (430) 
4DCD

>  <lig_resn>  (430) 
K36

>  <lig_resi>  (430) 
202

>  <lig_chain>  (430) 
A

>  <lig_segi>  (430) 
C

>  <lig_alt>  (430) 


>  <polymer_chain>  (430) 
A

>  <single_smiles>  (430) 
CC(C)C[C@H](NC(=O)OCc1ccccc1)C(=O)N[C@@H](C[C@@H]2CCNC2=O)[C@@H](O)[S](O)(=O)=O

$$$$
K36P1S19
     RDKit          3D

  5  4  0  0  0  0  0  0  0  0999 V2000
   -8.0750   16.7460  -31.8990 C   0  0  0  0  0  0  0  0  0  0  0  0
   -8.7990   16.3920  -33.0860 O   0  0  0  0  0  0  0  0  0  0  0  0
   -9.2260   15.0230  -33.2570 C   0  0  0  0  0  0  0  0  0  0  0  0
   -9.7150   14.7080  -34.4900 N   0  0  0  0  0  0  0  0  0  0  0  0
   -9.1610   14.2130  -32.3370 O   0  0  0  0  0  0  0  0  0  0  0  0
  1  2  1  0
  2  3  1  0
  3  4  1  0
  3  5  1  0
A    2
 O8 
A    3
 C9 
A    5
 O10
M  END
>  <XChem_code>  (431) 
K36§1

>  <Occupancy>  (431) 
[1.0, 1.0, 1.0, 1.0, 1.0, 1.0, 1.0, 1.0, 1.0, 1.0, 1.0, 1.0, 1.0, 1.0, 1.0, 1.0, 1.0, 1.0, 1.0, 1.0, 1.0, 1.0, 1.0, 1.0, 1.0, 1.0, 1.0, 1.0, 1.0, 1.0]

>  <TempFactor>  (431) 
[30.71, 25.76, 25.55, 30.93, 32.73, 33.09, 29.57, 27.45, 21.78, 20.1, 18.64, 16.74, 17.68, 18.03, 20.27, 18.93, 19.19, 22.15, 19.34, 15.88, 17.48, 19.25, 14.06, 14.56, 14.66, 16.75, 19.27, 15.98, 17.08, 17.2]

>  <accession>  (431) 
4DCD_A

>  <description>  (431) 
Chain A, Genome polyprotein [Human poliovirus 1 Mahoney]

>  <evalue>  (431) 
1.3582900000000001e-82

>  <pdb_code>  (431) 
4DCD

>  <chain>  (431) 
A

>  <ligands>  (431) 
[{'chain_id': 'A', 'author_residue_number': 201, 'author_insertion_code': '', 'chem_comp_id': 'DTT', 'alternate_conformers': 0, 'entity_id': 2, 'struct_asym_id': 'B', 'residue_number': 1, 'chem_comp_name': '2,3-DIHYDROXY-1,4-DITHIOBUTANE', 'weight': 154.251, 'carbohydrate_polymer': False, 'branch_name': ''}, {'chain_id': 'A', 'author_residue_number': 202, 'author_insertion_code': '', 'chem_comp_id': 'K36', 'alternate_conformers': 0, 'entity_id': 3, 'struct_asym_id': 'C', 'residue_number': 1, 'chem_comp_name': '(1S,2S)-2-({N-[(benzyloxy)carbonyl]-L-leucyl}amino)-1-hydroxy-3-[(3S)-2-oxopyrrolidin-3-yl]propane-1-sulfonic acid', 'weight': 485.551, 'carbohydrate_polymer': False, 'branch_name': ''}, {'chain_id': 'A', 'author_residue_number': 203, 'author_insertion_code': '', 'chem_comp_id': 'SO4', 'alternate_conformers': 0, 'entity_id': 4, 'struct_asym_id': 'D', 'residue_number': 1, 'chem_comp_name': 'SULFATE ION', 'weight': 96.063, 'carbohydrate_polymer': False, 'branch_name': ''}, {'chain_id': 'A', 'author_residue_number': 204, 'author_insertion_code': '', 'chem_comp_id': 'SO4', 'alternate_conformers': 0, 'entity_id': 4, 'struct_asym_id': 'E', 'residue_number': 1, 'chem_comp_name': 'SULFATE ION', 'weight': 96.063, 'carbohydrate_polymer': False, 'branch_name': ''}]

>  <ligand_codes>  (431) 
['DTT', 'K36', 'SO4', 'SO4']

>  <cofactor_codes>  (431) 
[]

>  <has_cofactor>  (431) 
False

>  <covalent>  (431) 
True

>  <base_name>  (431) 
4DCD

>  <lig_resn>  (431) 
K36

>  <lig_resi>  (431) 
202

>  <lig_chain>  (431) 
A

>  <lig_segi>  (431) 
C

>  <lig_alt>  (431) 


>  <polymer_chain>  (431) 
A

>  <single_smiles>  (431) 
CC(C)C[C@H](NC(=O)OCc1ccccc1)C(=O)N[C@@H](C[C@@H]2CCNC2=O)[C@@H](O)[S](O)(=O)=O

$$$$
K36P1S20
     RDKit          3D

 13 12  0  0  0  0  0  0  0  0999 V2000
   -7.8060    9.9810  -32.4450 C   0  0  0  0  0  0  0  0  0  0  0  0
   -7.9480   10.1300  -33.9570 C   0  0  2  0  0  0  0  0  0  0  0  0
   -9.0120   11.1150  -34.2520 N   0  0  0  0  0  0  0  0  0  0  0  0
   -8.2670    8.7510  -34.5240 C   0  0  2  0  0  0  0  0  0  0  0  0
   -8.7060   12.3590  -34.7330 C   0  0  2  0  0  0  0  0  0  0  0  0
   -8.3190    8.8070  -35.9490 O   0  0  0  0  0  0  0  0  0  0  0  0
  -10.0160    8.3280  -33.9520 R   0  0  0  0  0  0  0  0  0  0  0  0
   -9.8030   13.3470  -35.0110 C   0  0  0  0  0  0  0  0  0  0  0  0
   -7.5560   12.6800  -35.0200 O   0  0  0  0  0  0  0  0  0  0  0  0
  -10.5080   13.1720  -36.3590 C   0  0  0  0  0  0  0  0  0  0  0  0
  -11.7110   14.0930  -36.5420 C   0  0  0  0  0  0  0  0  0  0  0  0
  -11.9690   14.3320  -38.0230 C   0  0  0  0  0  0  0  0  0  0  0  0
  -12.9410   13.5180  -35.8720 C   0  0  0  0  0  0  0  0  0  0  0  0
  2  1  1  1
  3  2  1  0
  2  4  1  0
  5  3  1  0
  4  6  1  0
  4  7  1  1
  8  5  1  0
  5  9  1  6
  8 10  1  6
 10 11  1  0
 11 12  1  0
 11 13  1  0
V    7 *
A    2
 C20
A    3
 N19
A    4
 C21
A    5
 C17
A    6
 O22
A    7
 X  
A    9
 O18
A   10
 C13
A   11
 C14
A   12
 C15
A   13
 C16
M  END
>  <XChem_code>  (432) 
K36§1

>  <Occupancy>  (432) 
[1.0, 1.0, 1.0, 1.0, 1.0, 1.0, 1.0, 1.0, 1.0, 1.0, 1.0, 1.0, 1.0, 1.0, 1.0, 1.0, 1.0, 1.0, 1.0, 1.0, 1.0, 1.0, 1.0, 1.0, 1.0, 1.0, 1.0, 1.0, 1.0, 1.0]

>  <TempFactor>  (432) 
[30.71, 25.76, 25.55, 30.93, 32.73, 33.09, 29.57, 27.45, 21.78, 20.1, 18.64, 16.74, 17.68, 18.03, 20.27, 18.93, 19.19, 22.15, 19.34, 15.88, 17.48, 19.25, 14.06, 14.56, 14.66, 16.75, 19.27, 15.98, 17.08, 17.2]

>  <accession>  (432) 
4DCD_A

>  <description>  (432) 
Chain A, Genome polyprotein [Human poliovirus 1 Mahoney]

>  <evalue>  (432) 
1.3582900000000001e-82

>  <pdb_code>  (432) 
4DCD

>  <chain>  (432) 
A

>  <ligands>  (432) 
[{'chain_id': 'A', 'author_residue_number': 201, 'author_insertion_code': '', 'chem_comp_id': 'DTT', 'alternate_conformers': 0, 'entity_id': 2, 'struct_asym_id': 'B', 'residue_number': 1, 'chem_comp_name': '2,3-DIHYDROXY-1,4-DITHIOBUTANE', 'weight': 154.251, 'carbohydrate_polymer': False, 'branch_name': ''}, {'chain_id': 'A', 'author_residue_number': 202, 'author_insertion_code': '', 'chem_comp_id': 'K36', 'alternate_conformers': 0, 'entity_id': 3, 'struct_asym_id': 'C', 'residue_number': 1, 'chem_comp_name': '(1S,2S)-2-({N-[(benzyloxy)carbonyl]-L-leucyl}amino)-1-hydroxy-3-[(3S)-2-oxopyrrolidin-3-yl]propane-1-sulfonic acid', 'weight': 485.551, 'carbohydrate_polymer': False, 'branch_name': ''}, {'chain_id': 'A', 'author_residue_number': 203, 'author_insertion_code': '', 'chem_comp_id': 'SO4', 'alternate_conformers': 0, 'entity_id': 4, 'struct_asym_id': 'D', 'residue_number': 1, 'chem_comp_name': 'SULFATE ION', 'weight': 96.063, 'carbohydrate_polymer': False, 'branch_name': ''}, {'chain_id': 'A', 'author_residue_number': 204, 'author_insertion_code': '', 'chem_comp_id': 'SO4', 'alternate_conformers': 0, 'entity_id': 4, 'struct_asym_id': 'E', 'residue_number': 1, 'chem_comp_name': 'SULFATE ION', 'weight': 96.063, 'carbohydrate_polymer': False, 'branch_name': ''}]

>  <ligand_codes>  (432) 
['DTT', 'K36', 'SO4', 'SO4']

>  <cofactor_codes>  (432) 
[]

>  <has_cofactor>  (432) 
False

>  <covalent>  (432) 
True

>  <base_name>  (432) 
4DCD

>  <lig_resn>  (432) 
K36

>  <lig_resi>  (432) 
202

>  <lig_chain>  (432) 
A

>  <lig_segi>  (432) 
C

>  <lig_alt>  (432) 


>  <polymer_chain>  (432) 
A

>  <single_smiles>  (432) 
CC(C)C[C@H](NC(=O)OCc1ccccc1)C(=O)N[C@@H](C[C@@H]2CCNC2=O)[C@@H](O)[S](O)(=O)=O

$$$$
K36P1S21
     RDKit          3D

  6  5  0  0  0  0  0  0  0  0999 V2000
   -7.8060    9.9810  -32.4450 C   0  0  0  0  0  0  0  0  0  0  0  0
   -7.9480   10.1300  -33.9570 C   0  0  2  0  0  0  0  0  0  0  0  0
   -9.0120   11.1150  -34.2520 N   0  0  0  0  0  0  0  0  0  0  0  0
   -8.2670    8.7510  -34.5240 C   0  0  2  0  0  0  0  0  0  0  0  0
   -8.3190    8.8070  -35.9490 O   0  0  0  0  0  0  0  0  0  0  0  0
  -10.0160    8.3280  -33.9520 R   0  0  0  0  0  0  0  0  0  0  0  0
  2  1  1  1
  3  2  1  0
  2  4  1  0
  4  5  1  0
  4  6  1  1
V    6 *
A    2
 C20
A    4
 C21
A    5
 O22
A    6
 X  
M  END
>  <XChem_code>  (433) 
K36§1

>  <Occupancy>  (433) 
[1.0, 1.0, 1.0, 1.0, 1.0, 1.0, 1.0, 1.0, 1.0, 1.0, 1.0, 1.0, 1.0, 1.0, 1.0, 1.0, 1.0, 1.0, 1.0, 1.0, 1.0, 1.0, 1.0, 1.0, 1.0, 1.0, 1.0, 1.0, 1.0, 1.0]

>  <TempFactor>  (433) 
[30.71, 25.76, 25.55, 30.93, 32.73, 33.09, 29.57, 27.45, 21.78, 20.1, 18.64, 16.74, 17.68, 18.03, 20.27, 18.93, 19.19, 22.15, 19.34, 15.88, 17.48, 19.25, 14.06, 14.56, 14.66, 16.75, 19.27, 15.98, 17.08, 17.2]

>  <accession>  (433) 
4DCD_A

>  <description>  (433) 
Chain A, Genome polyprotein [Human poliovirus 1 Mahoney]

>  <evalue>  (433) 
1.3582900000000001e-82

>  <pdb_code>  (433) 
4DCD

>  <chain>  (433) 
A

>  <ligands>  (433) 
[{'chain_id': 'A', 'author_residue_number': 201, 'author_insertion_code': '', 'chem_comp_id': 'DTT', 'alternate_conformers': 0, 'entity_id': 2, 'struct_asym_id': 'B', 'residue_number': 1, 'chem_comp_name': '2,3-DIHYDROXY-1,4-DITHIOBUTANE', 'weight': 154.251, 'carbohydrate_polymer': False, 'branch_name': ''}, {'chain_id': 'A', 'author_residue_number': 202, 'author_insertion_code': '', 'chem_comp_id': 'K36', 'alternate_conformers': 0, 'entity_id': 3, 'struct_asym_id': 'C', 'residue_number': 1, 'chem_comp_name': '(1S,2S)-2-({N-[(benzyloxy)carbonyl]-L-leucyl}amino)-1-hydroxy-3-[(3S)-2-oxopyrrolidin-3-yl]propane-1-sulfonic acid', 'weight': 485.551, 'carbohydrate_polymer': False, 'branch_name': ''}, {'chain_id': 'A', 'author_residue_number': 203, 'author_insertion_code': '', 'chem_comp_id': 'SO4', 'alternate_conformers': 0, 'entity_id': 4, 'struct_asym_id': 'D', 'residue_number': 1, 'chem_comp_name': 'SULFATE ION', 'weight': 96.063, 'carbohydrate_polymer': False, 'branch_name': ''}, {'chain_id': 'A', 'author_residue_number': 204, 'author_insertion_code': '', 'chem_comp_id': 'SO4', 'alternate_conformers': 0, 'entity_id': 4, 'struct_asym_id': 'E', 'residue_number': 1, 'chem_comp_name': 'SULFATE ION', 'weight': 96.063, 'carbohydrate_polymer': False, 'branch_name': ''}]

>  <ligand_codes>  (433) 
['DTT', 'K36', 'SO4', 'SO4']

>  <cofactor_codes>  (433) 
[]

>  <has_cofactor>  (433) 
False

>  <covalent>  (433) 
True

>  <base_name>  (433) 
4DCD

>  <lig_resn>  (433) 
K36

>  <lig_resi>  (433) 
202

>  <lig_chain>  (433) 
A

>  <lig_segi>  (433) 
C

>  <lig_alt>  (433) 


>  <polymer_chain>  (433) 
A

>  <single_smiles>  (433) 
CC(C)C[C@H](NC(=O)OCc1ccccc1)C(=O)N[C@@H](C[C@@H]2CCNC2=O)[C@@H](O)[S](O)(=O)=O

$$$$
K36P1S22
     RDKit          3D

 12 11  0  0  0  0  0  0  0  0999 V2000
   -8.0750   16.7460  -31.8990 C   0  0  0  0  0  0  0  0  0  0  0  0
   -8.7990   16.3920  -33.0860 O   0  0  0  0  0  0  0  0  0  0  0  0
   -9.2260   15.0230  -33.2570 C   0  0  0  0  0  0  0  0  0  0  0  0
   -9.7150   14.7080  -34.4900 N   0  0  0  0  0  0  0  0  0  0  0  0
   -9.1610   14.2130  -32.3370 O   0  0  0  0  0  0  0  0  0  0  0  0
   -9.8030   13.3470  -35.0110 C   0  0  2  0  0  0  0  0  0  0  0  0
   -8.7060   12.3590  -34.7330 C   0  0  0  0  0  0  0  0  0  0  0  0
  -10.5080   13.1720  -36.3590 C   0  0  0  0  0  0  0  0  0  0  0  0
   -7.5560   12.6800  -35.0200 O   0  0  0  0  0  0  0  0  0  0  0  0
  -11.7110   14.0930  -36.5420 C   0  0  0  0  0  0  0  0  0  0  0  0
  -11.9690   14.3320  -38.0230 C   0  0  0  0  0  0  0  0  0  0  0  0
  -12.9410   13.5180  -35.8720 C   0  0  0  0  0  0  0  0  0  0  0  0
  1  2  1  0
  2  3  1  0
  3  4  1  0
  3  5  1  0
  4  6  1  0
  6  7  1  0
  6  8  1  6
  7  9  1  6
  8 10  1  0
 10 11  1  0
 10 12  1  0
A    2
 O8 
A    3
 C9 
A    4
 N11
A    5
 O10
A    6
 C12
A    8
 C13
A    9
 O18
A   10
 C14
A   11
 C15
A   12
 C16
M  END
>  <XChem_code>  (434) 
K36§1

>  <Occupancy>  (434) 
[1.0, 1.0, 1.0, 1.0, 1.0, 1.0, 1.0, 1.0, 1.0, 1.0, 1.0, 1.0, 1.0, 1.0, 1.0, 1.0, 1.0, 1.0, 1.0, 1.0, 1.0, 1.0, 1.0, 1.0, 1.0, 1.0, 1.0, 1.0, 1.0, 1.0]

>  <TempFactor>  (434) 
[30.71, 25.76, 25.55, 30.93, 32.73, 33.09, 29.57, 27.45, 21.78, 20.1, 18.64, 16.74, 17.68, 18.03, 20.27, 18.93, 19.19, 22.15, 19.34, 15.88, 17.48, 19.25, 14.06, 14.56, 14.66, 16.75, 19.27, 15.98, 17.08, 17.2]

>  <accession>  (434) 
4DCD_A

>  <description>  (434) 
Chain A, Genome polyprotein [Human poliovirus 1 Mahoney]

>  <evalue>  (434) 
1.3582900000000001e-82

>  <pdb_code>  (434) 
4DCD

>  <chain>  (434) 
A

>  <ligands>  (434) 
[{'chain_id': 'A', 'author_residue_number': 201, 'author_insertion_code': '', 'chem_comp_id': 'DTT', 'alternate_conformers': 0, 'entity_id': 2, 'struct_asym_id': 'B', 'residue_number': 1, 'chem_comp_name': '2,3-DIHYDROXY-1,4-DITHIOBUTANE', 'weight': 154.251, 'carbohydrate_polymer': False, 'branch_name': ''}, {'chain_id': 'A', 'author_residue_number': 202, 'author_insertion_code': '', 'chem_comp_id': 'K36', 'alternate_conformers': 0, 'entity_id': 3, 'struct_asym_id': 'C', 'residue_number': 1, 'chem_comp_name': '(1S,2S)-2-({N-[(benzyloxy)carbonyl]-L-leucyl}amino)-1-hydroxy-3-[(3S)-2-oxopyrrolidin-3-yl]propane-1-sulfonic acid', 'weight': 485.551, 'carbohydrate_polymer': False, 'branch_name': ''}, {'chain_id': 'A', 'author_residue_number': 203, 'author_insertion_code': '', 'chem_comp_id': 'SO4', 'alternate_conformers': 0, 'entity_id': 4, 'struct_asym_id': 'D', 'residue_number': 1, 'chem_comp_name': 'SULFATE ION', 'weight': 96.063, 'carbohydrate_polymer': False, 'branch_name': ''}, {'chain_id': 'A', 'author_residue_number': 204, 'author_insertion_code': '', 'chem_comp_id': 'SO4', 'alternate_conformers': 0, 'entity_id': 4, 'struct_asym_id': 'E', 'residue_number': 1, 'chem_comp_name': 'SULFATE ION', 'weight': 96.063, 'carbohydrate_polymer': False, 'branch_name': ''}]

>  <ligand_codes>  (434) 
['DTT', 'K36', 'SO4', 'SO4']

>  <cofactor_codes>  (434) 
[]

>  <has_cofactor>  (434) 
False

>  <covalent>  (434) 
True

>  <base_name>  (434) 
4DCD

>  <lig_resn>  (434) 
K36

>  <lig_resi>  (434) 
202

>  <lig_chain>  (434) 
A

>  <lig_segi>  (434) 
C

>  <lig_alt>  (434) 


>  <polymer_chain>  (434) 
A

>  <single_smiles>  (434) 
CC(C)C[C@H](NC(=O)OCc1ccccc1)C(=O)N[C@@H](C[C@@H]2CCNC2=O)[C@@H](O)[S](O)(=O)=O

$$$$
K36P1S23
     RDKit          3D

  5  4  0  0  0  0  0  0  0  0999 V2000
   -7.8060    9.9810  -32.4450 C   0  0  0  0  0  0  0  0  0  0  0  0
   -7.9480   10.1300  -33.9570 C   0  0  0  0  0  0  0  0  0  0  0  0
   -8.2670    8.7510  -34.5240 C   0  0  2  0  0  0  0  0  0  0  0  0
   -8.3190    8.8070  -35.9490 O   0  0  0  0  0  0  0  0  0  0  0  0
  -10.0160    8.3280  -33.9520 R   0  0  0  0  0  0  0  0  0  0  0  0
  2  1  1  6
  2  3  1  0
  3  4  1  0
  3  5  1  1
V    5 *
A    3
 C21
A    4
 O22
A    5
 X  
M  END
>  <XChem_code>  (435) 
K36§1

>  <Occupancy>  (435) 
[1.0, 1.0, 1.0, 1.0, 1.0, 1.0, 1.0, 1.0, 1.0, 1.0, 1.0, 1.0, 1.0, 1.0, 1.0, 1.0, 1.0, 1.0, 1.0, 1.0, 1.0, 1.0, 1.0, 1.0, 1.0, 1.0, 1.0, 1.0, 1.0, 1.0]

>  <TempFactor>  (435) 
[30.71, 25.76, 25.55, 30.93, 32.73, 33.09, 29.57, 27.45, 21.78, 20.1, 18.64, 16.74, 17.68, 18.03, 20.27, 18.93, 19.19, 22.15, 19.34, 15.88, 17.48, 19.25, 14.06, 14.56, 14.66, 16.75, 19.27, 15.98, 17.08, 17.2]

>  <accession>  (435) 
4DCD_A

>  <description>  (435) 
Chain A, Genome polyprotein [Human poliovirus 1 Mahoney]

>  <evalue>  (435) 
1.3582900000000001e-82

>  <pdb_code>  (435) 
4DCD

>  <chain>  (435) 
A

>  <ligands>  (435) 
[{'chain_id': 'A', 'author_residue_number': 201, 'author_insertion_code': '', 'chem_comp_id': 'DTT', 'alternate_conformers': 0, 'entity_id': 2, 'struct_asym_id': 'B', 'residue_number': 1, 'chem_comp_name': '2,3-DIHYDROXY-1,4-DITHIOBUTANE', 'weight': 154.251, 'carbohydrate_polymer': False, 'branch_name': ''}, {'chain_id': 'A', 'author_residue_number': 202, 'author_insertion_code': '', 'chem_comp_id': 'K36', 'alternate_conformers': 0, 'entity_id': 3, 'struct_asym_id': 'C', 'residue_number': 1, 'chem_comp_name': '(1S,2S)-2-({N-[(benzyloxy)carbonyl]-L-leucyl}amino)-1-hydroxy-3-[(3S)-2-oxopyrrolidin-3-yl]propane-1-sulfonic acid', 'weight': 485.551, 'carbohydrate_polymer': False, 'branch_name': ''}, {'chain_id': 'A', 'author_residue_number': 203, 'author_insertion_code': '', 'chem_comp_id': 'SO4', 'alternate_conformers': 0, 'entity_id': 4, 'struct_asym_id': 'D', 'residue_number': 1, 'chem_comp_name': 'SULFATE ION', 'weight': 96.063, 'carbohydrate_polymer': False, 'branch_name': ''}, {'chain_id': 'A', 'author_residue_number': 204, 'author_insertion_code': '', 'chem_comp_id': 'SO4', 'alternate_conformers': 0, 'entity_id': 4, 'struct_asym_id': 'E', 'residue_number': 1, 'chem_comp_name': 'SULFATE ION', 'weight': 96.063, 'carbohydrate_polymer': False, 'branch_name': ''}]

>  <ligand_codes>  (435) 
['DTT', 'K36', 'SO4', 'SO4']

>  <cofactor_codes>  (435) 
[]

>  <has_cofactor>  (435) 
False

>  <covalent>  (435) 
True

>  <base_name>  (435) 
4DCD

>  <lig_resn>  (435) 
K36

>  <lig_resi>  (435) 
202

>  <lig_chain>  (435) 
A

>  <lig_segi>  (435) 
C

>  <lig_alt>  (435) 


>  <polymer_chain>  (435) 
A

>  <single_smiles>  (435) 
CC(C)C[C@H](NC(=O)OCc1ccccc1)C(=O)N[C@@H](C[C@@H]2CCNC2=O)[C@@H](O)[S](O)(=O)=O

$$$$
K36P1S24
     RDKit          3D

 13 12  0  0  0  0  0  0  0  0999 V2000
   -8.0750   16.7460  -31.8990 C   0  0  0  0  0  0  0  0  0  0  0  0
   -8.7990   16.3920  -33.0860 O   0  0  0  0  0  0  0  0  0  0  0  0
   -9.2260   15.0230  -33.2570 C   0  0  0  0  0  0  0  0  0  0  0  0
   -9.7150   14.7080  -34.4900 N   0  0  0  0  0  0  0  0  0  0  0  0
   -9.1610   14.2130  -32.3370 O   0  0  0  0  0  0  0  0  0  0  0  0
   -9.8030   13.3470  -35.0110 C   0  0  2  0  0  0  0  0  0  0  0  0
   -8.7060   12.3590  -34.7330 C   0  0  1  0  0  0  0  0  0  0  0  0
  -10.5080   13.1720  -36.3590 C   0  0  0  0  0  0  0  0  0  0  0  0
   -9.0120   11.1150  -34.2520 N   0  0  0  0  0  0  0  0  0  0  0  0
   -7.5560   12.6800  -35.0200 O   0  0  0  0  0  0  0  0  0  0  0  0
  -11.7110   14.0930  -36.5420 C   0  0  0  0  0  0  0  0  0  0  0  0
  -11.9690   14.3320  -38.0230 C   0  0  0  0  0  0  0  0  0  0  0  0
  -12.9410   13.5180  -35.8720 C   0  0  0  0  0  0  0  0  0  0  0  0
  1  2  1  0
  2  3  1  0
  3  4  1  0
  3  5  1  0
  4  6  1  0
  6  7  1  0
  6  8  1  6
  7  9  1  6
  7 10  1  0
  8 11  1  0
 11 12  1  0
 11 13  1  0
A    2
 O8 
A    3
 C9 
A    4
 N11
A    5
 O10
A    6
 C12
A    7
 C17
A    8
 C13
A   10
 O18
A   11
 C14
A   12
 C15
A   13
 C16
M  END
>  <XChem_code>  (436) 
K36§1

>  <Occupancy>  (436) 
[1.0, 1.0, 1.0, 1.0, 1.0, 1.0, 1.0, 1.0, 1.0, 1.0, 1.0, 1.0, 1.0, 1.0, 1.0, 1.0, 1.0, 1.0, 1.0, 1.0, 1.0, 1.0, 1.0, 1.0, 1.0, 1.0, 1.0, 1.0, 1.0, 1.0]

>  <TempFactor>  (436) 
[30.71, 25.76, 25.55, 30.93, 32.73, 33.09, 29.57, 27.45, 21.78, 20.1, 18.64, 16.74, 17.68, 18.03, 20.27, 18.93, 19.19, 22.15, 19.34, 15.88, 17.48, 19.25, 14.06, 14.56, 14.66, 16.75, 19.27, 15.98, 17.08, 17.2]

>  <accession>  (436) 
4DCD_A

>  <description>  (436) 
Chain A, Genome polyprotein [Human poliovirus 1 Mahoney]

>  <evalue>  (436) 
1.3582900000000001e-82

>  <pdb_code>  (436) 
4DCD

>  <chain>  (436) 
A

>  <ligands>  (436) 
[{'chain_id': 'A', 'author_residue_number': 201, 'author_insertion_code': '', 'chem_comp_id': 'DTT', 'alternate_conformers': 0, 'entity_id': 2, 'struct_asym_id': 'B', 'residue_number': 1, 'chem_comp_name': '2,3-DIHYDROXY-1,4-DITHIOBUTANE', 'weight': 154.251, 'carbohydrate_polymer': False, 'branch_name': ''}, {'chain_id': 'A', 'author_residue_number': 202, 'author_insertion_code': '', 'chem_comp_id': 'K36', 'alternate_conformers': 0, 'entity_id': 3, 'struct_asym_id': 'C', 'residue_number': 1, 'chem_comp_name': '(1S,2S)-2-({N-[(benzyloxy)carbonyl]-L-leucyl}amino)-1-hydroxy-3-[(3S)-2-oxopyrrolidin-3-yl]propane-1-sulfonic acid', 'weight': 485.551, 'carbohydrate_polymer': False, 'branch_name': ''}, {'chain_id': 'A', 'author_residue_number': 203, 'author_insertion_code': '', 'chem_comp_id': 'SO4', 'alternate_conformers': 0, 'entity_id': 4, 'struct_asym_id': 'D', 'residue_number': 1, 'chem_comp_name': 'SULFATE ION', 'weight': 96.063, 'carbohydrate_polymer': False, 'branch_name': ''}, {'chain_id': 'A', 'author_residue_number': 204, 'author_insertion_code': '', 'chem_comp_id': 'SO4', 'alternate_conformers': 0, 'entity_id': 4, 'struct_asym_id': 'E', 'residue_number': 1, 'chem_comp_name': 'SULFATE ION', 'weight': 96.063, 'carbohydrate_polymer': False, 'branch_name': ''}]

>  <ligand_codes>  (436) 
['DTT', 'K36', 'SO4', 'SO4']

>  <cofactor_codes>  (436) 
[]

>  <has_cofactor>  (436) 
False

>  <covalent>  (436) 
True

>  <base_name>  (436) 
4DCD

>  <lig_resn>  (436) 
K36

>  <lig_resi>  (436) 
202

>  <lig_chain>  (436) 
A

>  <lig_segi>  (436) 
C

>  <lig_alt>  (436) 


>  <polymer_chain>  (436) 
A

>  <single_smiles>  (436) 
CC(C)C[C@H](NC(=O)OCc1ccccc1)C(=O)N[C@@H](C[C@@H]2CCNC2=O)[C@@H](O)[S](O)(=O)=O

$$$$
K36P1S25
     RDKit          3D

 18 17  0  0  0  0  0  0  0  0999 V2000
   -7.8060    9.9810  -32.4450 C   0  0  0  0  0  0  0  0  0  0  0  0
   -7.9480   10.1300  -33.9570 C   0  0  2  0  0  0  0  0  0  0  0  0
   -9.0120   11.1150  -34.2520 N   0  0  0  0  0  0  0  0  0  0  0  0
   -8.2670    8.7510  -34.5240 C   0  0  2  0  0  0  0  0  0  0  0  0
   -8.7060   12.3590  -34.7330 C   0  0  2  0  0  0  0  0  0  0  0  0
   -8.3190    8.8070  -35.9490 O   0  0  0  0  0  0  0  0  0  0  0  0
  -10.0160    8.3280  -33.9520 R   0  0  0  0  0  0  0  0  0  0  0  0
   -9.8030   13.3470  -35.0110 C   0  0  1  0  0  0  0  0  0  0  0  0
   -7.5560   12.6800  -35.0200 O   0  0  0  0  0  0  0  0  0  0  0  0
   -9.7150   14.7080  -34.4900 N   0  0  0  0  0  0  0  0  0  0  0  0
  -10.5080   13.1720  -36.3590 C   0  0  0  0  0  0  0  0  0  0  0  0
   -9.2260   15.0230  -33.2570 C   0  0  0  0  0  0  0  0  0  0  0  0
  -11.7110   14.0930  -36.5420 C   0  0  0  0  0  0  0  0  0  0  0  0
   -8.7990   16.3920  -33.0860 O   0  0  0  0  0  0  0  0  0  0  0  0
   -9.1610   14.2130  -32.3370 O   0  0  0  0  0  0  0  0  0  0  0  0
  -11.9690   14.3320  -38.0230 C   0  0  0  0  0  0  0  0  0  0  0  0
  -12.9410   13.5180  -35.8720 C   0  0  0  0  0  0  0  0  0  0  0  0
   -8.0750   16.7460  -31.8990 C   0  0  0  0  0  0  0  0  0  0  0  0
  2  1  1  1
  3  2  1  0
  2  4  1  0
  5  3  1  0
  4  6  1  0
  4  7  1  1
  8  5  1  0
  5  9  1  6
 10  8  1  0
  8 11  1  6
 12 10  1  0
 11 13  1  0
 14 12  1  0
 12 15  1  0
 13 16  1  0
 13 17  1  0
 18 14  1  0
V    7 *
A    2
 C20
A    3
 N19
A    4
 C21
A    5
 C17
A    6
 O22
A    7
 X  
A    8
 C12
A    9
 O18
A   10
 N11
A   11
 C13
A   12
 C9 
A   13
 C14
A   14
 O8 
A   15
 O10
A   16
 C15
A   17
 C16
M  END
>  <XChem_code>  (437) 
K36§1

>  <Occupancy>  (437) 
[1.0, 1.0, 1.0, 1.0, 1.0, 1.0, 1.0, 1.0, 1.0, 1.0, 1.0, 1.0, 1.0, 1.0, 1.0, 1.0, 1.0, 1.0, 1.0, 1.0, 1.0, 1.0, 1.0, 1.0, 1.0, 1.0, 1.0, 1.0, 1.0, 1.0]

>  <TempFactor>  (437) 
[30.71, 25.76, 25.55, 30.93, 32.73, 33.09, 29.57, 27.45, 21.78, 20.1, 18.64, 16.74, 17.68, 18.03, 20.27, 18.93, 19.19, 22.15, 19.34, 15.88, 17.48, 19.25, 14.06, 14.56, 14.66, 16.75, 19.27, 15.98, 17.08, 17.2]

>  <accession>  (437) 
4DCD_A

>  <description>  (437) 
Chain A, Genome polyprotein [Human poliovirus 1 Mahoney]

>  <evalue>  (437) 
1.3582900000000001e-82

>  <pdb_code>  (437) 
4DCD

>  <chain>  (437) 
A

>  <ligands>  (437) 
[{'chain_id': 'A', 'author_residue_number': 201, 'author_insertion_code': '', 'chem_comp_id': 'DTT', 'alternate_conformers': 0, 'entity_id': 2, 'struct_asym_id': 'B', 'residue_number': 1, 'chem_comp_name': '2,3-DIHYDROXY-1,4-DITHIOBUTANE', 'weight': 154.251, 'carbohydrate_polymer': False, 'branch_name': ''}, {'chain_id': 'A', 'author_residue_number': 202, 'author_insertion_code': '', 'chem_comp_id': 'K36', 'alternate_conformers': 0, 'entity_id': 3, 'struct_asym_id': 'C', 'residue_number': 1, 'chem_comp_name': '(1S,2S)-2-({N-[(benzyloxy)carbonyl]-L-leucyl}amino)-1-hydroxy-3-[(3S)-2-oxopyrrolidin-3-yl]propane-1-sulfonic acid', 'weight': 485.551, 'carbohydrate_polymer': False, 'branch_name': ''}, {'chain_id': 'A', 'author_residue_number': 203, 'author_insertion_code': '', 'chem_comp_id': 'SO4', 'alternate_conformers': 0, 'entity_id': 4, 'struct_asym_id': 'D', 'residue_number': 1, 'chem_comp_name': 'SULFATE ION', 'weight': 96.063, 'carbohydrate_polymer': False, 'branch_name': ''}, {'chain_id': 'A', 'author_residue_number': 204, 'author_insertion_code': '', 'chem_comp_id': 'SO4', 'alternate_conformers': 0, 'entity_id': 4, 'struct_asym_id': 'E', 'residue_number': 1, 'chem_comp_name': 'SULFATE ION', 'weight': 96.063, 'carbohydrate_polymer': False, 'branch_name': ''}]

>  <ligand_codes>  (437) 
['DTT', 'K36', 'SO4', 'SO4']

>  <cofactor_codes>  (437) 
[]

>  <has_cofactor>  (437) 
False

>  <covalent>  (437) 
True

>  <base_name>  (437) 
4DCD

>  <lig_resn>  (437) 
K36

>  <lig_resi>  (437) 
202

>  <lig_chain>  (437) 
A

>  <lig_segi>  (437) 
C

>  <lig_alt>  (437) 


>  <polymer_chain>  (437) 
A

>  <single_smiles>  (437) 
CC(C)C[C@H](NC(=O)OCc1ccccc1)C(=O)N[C@@H](C[C@@H]2CCNC2=O)[C@@H](O)[S](O)(=O)=O

$$$$
AG7P8
     RDKit          3D

 44 46  0  0  0  0  0  0  0  0999 V2000
   -8.7340   14.8750  -33.6330 C   0  0  0  0  0  0  0  0  0  0  0  0
  -10.1690   17.8670  -30.1510 C   0  0  0  0  0  0  0  0  0  0  0  0
   -9.1250   14.5600  -35.0710 C   0  0  0  0  0  0  0  0  0  0  0  0
  -11.1420   18.9430  -29.6030 C   0  0  0  0  0  0  0  0  0  0  0  0
  -11.1970   18.7860  -28.1620 C   0  0  0  0  0  0  0  0  0  0  0  0
   -8.9120   14.0500  -32.7640 O   0  0  0  0  0  0  0  0  0  0  0  0
   -9.2650   13.0870  -35.4210 C   0  0  1  0  0  0  0  0  0  0  0  0
  -12.0110   19.6150  -27.2080 C   0  0  0  0  0  0  0  0  0  0  0  0
  -10.3350   17.7020  -27.7930 O   0  0  0  0  0  0  0  0  0  0  0  0
   -9.4060   12.8260  -36.9090 C   0  0  0  0  0  0  0  0  0  0  0  0
   -9.7110   17.1440  -29.0800 N   0  0  0  0  0  0  0  0  0  0  0  0
  -10.4680   13.6500  -37.5900 C   0  0  0  0  0  0  0  0  0  0  0  0
  -11.8920   13.3740  -37.3060 C   0  0  0  0  0  0  0  0  0  0  0  0
  -12.9410   14.1870  -37.9670 C   0  0  0  0  0  0  0  0  0  0  0  0
  -12.5760   15.2200  -38.8370 C   0  0  0  0  0  0  0  0  0  0  0  0
  -11.1310   15.5040  -39.1190 C   0  0  0  0  0  0  0  0  0  0  0  0
  -10.0960   14.6950  -38.4660 C   0  0  0  0  0  0  0  0  0  0  0  0
   -8.6690   10.9670  -34.0900 N   0  0  0  0  0  0  0  0  0  0  0  0
   -7.6950    9.9410  -33.7020 C   0  0  1  0  0  0  0  0  0  0  0  0
   -7.5680    9.8350  -32.1900 C   0  0  0  0  0  0  0  0  0  0  0  0
   -7.0030   11.1120  -31.5690 C   0  0  1  0  0  0  0  0  0  0  0  0
   -7.1160   11.2790  -30.0480 C   0  0  0  0  0  0  0  0  0  0  0  0
   -5.8140   11.8640  -29.5400 N   0  0  0  0  0  0  0  0  0  0  0  0
   -7.7570   10.3380  -29.3000 O   0  0  0  0  0  0  0  0  0  0  0  0
   -7.9440    8.6270  -34.4090 C   0  0  2  0  0  0  0  0  0  0  0  0
   -7.6890    8.6920  -35.9030 C   0  0  0  0  0  0  0  0  0  0  0  0
   -6.2280    8.9610  -36.2420 C   0  0  0  0  0  0  0  0  0  0  0  0
   -5.9130    9.9450  -37.0170 O   0  0  0  0  0  0  0  0  0  0  0  0
   -5.3400    8.4630  -35.5080 O   0  0  0  0  0  0  0  0  0  0  0  0
   -8.2190   12.1920  -34.7470 C   0  0  0  0  0  0  0  0  0  0  0  0
   -7.0310   12.4100  -34.8930 O   0  0  0  0  0  0  0  0  0  0  0  0
   -4.5540   10.2290  -37.2100 C   0  0  0  0  0  0  0  0  0  0  0  0
   -4.2040   11.6040  -37.7340 C   0  0  0  0  0  0  0  0  0  0  0  0
   -8.3660   16.3160  -33.2440 C   0  0  1  0  0  0  0  0  0  0  0  0
   -8.7350   16.6450  -31.8730 N   0  0  0  0  0  0  0  0  0  0  0  0
   -9.7620   17.6260  -31.5940 C   0  0  0  0  0  0  0  0  0  0  0  0
  -10.2070   18.3220  -32.4960 O   0  0  0  0  0  0  0  0  0  0  0  0
   -6.9450   16.7440  -33.5590 C   0  0  0  0  0  0  0  0  0  0  0  0
   -6.7430   18.1960  -33.2420 C   0  0  0  0  0  0  0  0  0  0  0  0
   -5.9160   15.8690  -32.9170 C   0  0  0  0  0  0  0  0  0  0  0  0
   -5.1080   12.3840  -30.7640 C   0  0  0  0  0  0  0  0  0  0  0  0
   -5.6150   11.5640  -31.9570 C   0  0  0  0  0  0  0  0  0  0  0  0
   -9.6990    8.3690  -34.0940 R   0  0  0  0  0  0  0  0  0  0  0  0
  -13.5230   15.9340  -39.4430 F   0  0  0  0  0  0  0  0  0  0  0  0
  1  3  1  0
  1  6  2  0
  1 34  1  0
  2  4  1  0
  2 11  2  0
  2 36  1  0
  7  3  1  6
  4  5  2  0
  5  8  1  0
  5  9  1  0
  7 10  1  0
  7 30  1  0
  9 11  1  0
 10 12  1  0
 12 13  2  0
 12 17  1  0
 13 14  1  0
 14 15  2  0
 15 16  1  0
 15 44  1  0
 16 17  2  0
 18 19  1  0
 18 30  1  0
 19 20  1  1
 19 25  1  0
 21 20  1  1
 21 22  1  0
 21 42  1  0
 22 23  1  0
 22 24  2  0
 23 41  1  0
 25 26  1  0
 25 43  1  6
 26 27  1  0
 27 28  1  0
 27 29  2  0
 28 32  1  0
 30 31  2  0
 32 33  1  0
 34 35  1  1
 34 38  1  0
 35 36  1  0
 36 37  2  0
 38 39  1  0
 38 40  1  0
 41 42  1  0
V   43 *
A    1
 C01
A    2
 C1 
A    3
 C02
A    4
 C2 
A    5
 C3 
A    6
 O03
A    7
 C04
A    8
 C4 
A    9
 O4 
A   10
 C05
A   11
 N5 
A   12
 C06
A   13
 C07
A   14
 C08
A   15
 C09
A   16
 C10
A   17
 C11
A   18
 N12
A   19
 C13
A   20
 C14
A   21
 C15
A   22
 C16
A   23
 N17
A   24
 O18
A   25
 C19
A   26
 C20
A   27
 C21
A   28
 O22
A   29
 O23
A   30
 C47
A   31
 O48
A   32
 C50
A   33
 C53
A   34
 C57
A   35
 N58
A   36
 C59
A   37
 O60
A   38
 C78
A   39
 C81
A   40
 C82
A   41
 C83
A   42
 C84
A   43
 X  
A   44
 F1 
M  END
>  <XChem_code>  (438) 
AG7§8

>  <Occupancy>  (438) 
[1.0, 1.0, 1.0, 1.0, 1.0, 1.0, 1.0, 1.0, 1.0, 1.0, 1.0, 1.0, 1.0, 1.0, 1.0, 1.0, 1.0, 1.0, 1.0, 1.0, 1.0, 1.0, 1.0, 1.0, 1.0, 1.0, 1.0, 1.0, 1.0, 1.0, 1.0, 1.0, 1.0, 1.0, 1.0, 1.0, 1.0, 1.0, 1.0, 1.0, 1.0, 1.0, 1.0, 1.0]

>  <TempFactor>  (438) 
[18.81, 27.66, 18.42, 28.47, 31.3, 19.86, 18.0, 36.49, 33.82, 16.63, 29.4, 22.13, 22.68, 21.54, 23.87, 26.44, 24.22, 19.0, 15.21, 18.33, 16.27, 19.18, 19.0, 17.13, 14.73, 16.04, 18.83, 23.76, 19.63, 17.66, 18.54, 25.52, 26.09, 23.51, 21.61, 23.49, 26.81, 22.53, 27.37, 21.38, 21.53, 22.61, 16.29, 28.88]

>  <accession>  (438) 
3SJO_A

>  <description>  (438) 
Chain A, 3C protease [Enterovirus A71]

>  <evalue>  (438) 
1.0179e-70

>  <pdb_code>  (438) 
3SJO

>  <chain>  (438) 
A

>  <ligands>  (438) 
[{'chain_id': 'A', 'author_residue_number': 501, 'author_insertion_code': '', 'chem_comp_id': 'AG7', 'alternate_conformers': 0, 'entity_id': 2, 'struct_asym_id': 'I', 'residue_number': 1, 'chem_comp_name': '4-{2-(4-FLUORO-BENZYL)-6-METHYL-5-[(5-METHYL-ISOXAZOLE-3-CARBONYL)-AMINO]-4-OXO-HEPTANOYLAMINO}-5-(2-OXO-PYRROLIDIN-3-YL)-PENTANOIC ACID ETHYL ESTER', 'weight': 600.678, 'carbohydrate_polymer': False, 'branch_name': ''}, {'chain_id': 'B', 'author_residue_number': 501, 'author_insertion_code': '', 'chem_comp_id': 'AG7', 'alternate_conformers': 0, 'entity_id': 2, 'struct_asym_id': 'J', 'residue_number': 1, 'chem_comp_name': '4-{2-(4-FLUORO-BENZYL)-6-METHYL-5-[(5-METHYL-ISOXAZOLE-3-CARBONYL)-AMINO]-4-OXO-HEPTANOYLAMINO}-5-(2-OXO-PYRROLIDIN-3-YL)-PENTANOIC ACID ETHYL ESTER', 'weight': 600.678, 'carbohydrate_polymer': False, 'branch_name': ''}, {'chain_id': 'C', 'author_residue_number': 501, 'author_insertion_code': '', 'chem_comp_id': 'AG7', 'alternate_conformers': 0, 'entity_id': 2, 'struct_asym_id': 'K', 'residue_number': 1, 'chem_comp_name': '4-{2-(4-FLUORO-BENZYL)-6-METHYL-5-[(5-METHYL-ISOXAZOLE-3-CARBONYL)-AMINO]-4-OXO-HEPTANOYLAMINO}-5-(2-OXO-PYRROLIDIN-3-YL)-PENTANOIC ACID ETHYL ESTER', 'weight': 600.678, 'carbohydrate_polymer': False, 'branch_name': ''}, {'chain_id': 'D', 'author_residue_number': 501, 'author_insertion_code': '', 'chem_comp_id': 'AG7', 'alternate_conformers': 0, 'entity_id': 2, 'struct_asym_id': 'L', 'residue_number': 1, 'chem_comp_name': '4-{2-(4-FLUORO-BENZYL)-6-METHYL-5-[(5-METHYL-ISOXAZOLE-3-CARBONYL)-AMINO]-4-OXO-HEPTANOYLAMINO}-5-(2-OXO-PYRROLIDIN-3-YL)-PENTANOIC ACID ETHYL ESTER', 'weight': 600.678, 'carbohydrate_polymer': False, 'branch_name': ''}, {'chain_id': 'E', 'author_residue_number': 501, 'author_insertion_code': '', 'chem_comp_id': 'AG7', 'alternate_conformers': 0, 'entity_id': 2, 'struct_asym_id': 'M', 'residue_number': 1, 'chem_comp_name': '4-{2-(4-FLUORO-BENZYL)-6-METHYL-5-[(5-METHYL-ISOXAZOLE-3-CARBONYL)-AMINO]-4-OXO-HEPTANOYLAMINO}-5-(2-OXO-PYRROLIDIN-3-YL)-PENTANOIC ACID ETHYL ESTER', 'weight': 600.678, 'carbohydrate_polymer': False, 'branch_name': ''}, {'chain_id': 'F', 'author_residue_number': 501, 'author_insertion_code': '', 'chem_comp_id': 'AG7', 'alternate_conformers': 0, 'entity_id': 2, 'struct_asym_id': 'N', 'residue_number': 1, 'chem_comp_name': '4-{2-(4-FLUORO-BENZYL)-6-METHYL-5-[(5-METHYL-ISOXAZOLE-3-CARBONYL)-AMINO]-4-OXO-HEPTANOYLAMINO}-5-(2-OXO-PYRROLIDIN-3-YL)-PENTANOIC ACID ETHYL ESTER', 'weight': 600.678, 'carbohydrate_polymer': False, 'branch_name': ''}, {'chain_id': 'G', 'author_residue_number': 501, 'author_insertion_code': '', 'chem_comp_id': 'AG7', 'alternate_conformers': 0, 'entity_id': 2, 'struct_asym_id': 'O', 'residue_number': 1, 'chem_comp_name': '4-{2-(4-FLUORO-BENZYL)-6-METHYL-5-[(5-METHYL-ISOXAZOLE-3-CARBONYL)-AMINO]-4-OXO-HEPTANOYLAMINO}-5-(2-OXO-PYRROLIDIN-3-YL)-PENTANOIC ACID ETHYL ESTER', 'weight': 600.678, 'carbohydrate_polymer': False, 'branch_name': ''}, {'chain_id': 'H', 'author_residue_number': 501, 'author_insertion_code': '', 'chem_comp_id': 'AG7', 'alternate_conformers': 0, 'entity_id': 2, 'struct_asym_id': 'P', 'residue_number': 1, 'chem_comp_name': '4-{2-(4-FLUORO-BENZYL)-6-METHYL-5-[(5-METHYL-ISOXAZOLE-3-CARBONYL)-AMINO]-4-OXO-HEPTANOYLAMINO}-5-(2-OXO-PYRROLIDIN-3-YL)-PENTANOIC ACID ETHYL ESTER', 'weight': 600.678, 'carbohydrate_polymer': False, 'branch_name': ''}]

>  <ligand_codes>  (438) 
['AG7', 'AG7', 'AG7', 'AG7', 'AG7', 'AG7', 'AG7', 'AG7']

>  <cofactor_codes>  (438) 
[]

>  <has_cofactor>  (438) 
False

>  <covalent>  (438) 
True

>  <base_name>  (438) 
3SJO

>  <lig_resn>  (438) 
AG7

>  <lig_resi>  (438) 
501

>  <lig_chain>  (438) 
A

>  <lig_segi>  (438) 
I

>  <lig_alt>  (438) 


>  <polymer_chain>  (438) 
A

>  <single_smiles>  (438) 
CCOC(=O)CC[C@H](C[C@@H]1CCNC1=O)NC(=O)[C@@H](CC(=O)[C@@H](NC(=O)c2cc(C)on2)C(C)C)Cc3ccc(F)cc3

$$$$
AG7P8S1
     RDKit          3D

 17 17  0  0  0  0  0  0  0  0999 V2000
   -8.6690   10.9670  -34.0900 N   0  0  0  0  0  0  0  0  0  0  0  0
   -7.6950    9.9410  -33.7020 C   0  0  1  0  0  0  0  0  0  0  0  0
   -7.5680    9.8350  -32.1900 C   0  0  0  0  0  0  0  0  0  0  0  0
   -7.9440    8.6270  -34.4090 C   0  0  2  0  0  0  0  0  0  0  0  0
   -7.0030   11.1120  -31.5690 C   0  0  1  0  0  0  0  0  0  0  0  0
   -7.6890    8.6920  -35.9030 C   0  0  0  0  0  0  0  0  0  0  0  0
   -9.6990    8.3690  -34.0940 R   0  0  0  0  0  0  0  0  0  0  0  0
   -7.1160   11.2790  -30.0480 C   0  0  0  0  0  0  0  0  0  0  0  0
   -5.6150   11.5640  -31.9570 C   0  0  0  0  0  0  0  0  0  0  0  0
   -6.2280    8.9610  -36.2420 C   0  0  0  0  0  0  0  0  0  0  0  0
   -5.8140   11.8640  -29.5400 N   0  0  0  0  0  0  0  0  0  0  0  0
   -7.7570   10.3380  -29.3000 O   0  0  0  0  0  0  0  0  0  0  0  0
   -5.1080   12.3840  -30.7640 C   0  0  0  0  0  0  0  0  0  0  0  0
   -5.9130    9.9450  -37.0170 O   0  0  0  0  0  0  0  0  0  0  0  0
   -5.3400    8.4630  -35.5080 O   0  0  0  0  0  0  0  0  0  0  0  0
   -4.5540   10.2290  -37.2100 C   0  0  0  0  0  0  0  0  0  0  0  0
   -4.2040   11.6040  -37.7340 C   0  0  0  0  0  0  0  0  0  0  0  0
  2  1  1  1
  2  3  1  0
  2  4  1  0
  5  3  1  1
  4  6  1  0
  4  7  1  6
  5  8  1  0
  5  9  1  0
  6 10  1  0
  8 11  1  0
  8 12  2  0
 13  9  1  0
 10 14  1  0
 10 15  2  0
 11 13  1  0
 14 16  1  0
 16 17  1  0
V    7 *
A    2
 C13
A    3
 C14
A    4
 C19
A    5
 C15
A    6
 C20
A    7
 X  
A    8
 C16
A    9
 C84
A   10
 C21
A   11
 N17
A   12
 O18
A   13
 C83
A   14
 O22
A   15
 O23
A   16
 C50
A   17
 C53
M  END
>  <XChem_code>  (439) 
AG7§8

>  <Occupancy>  (439) 
[1.0, 1.0, 1.0, 1.0, 1.0, 1.0, 1.0, 1.0, 1.0, 1.0, 1.0, 1.0, 1.0, 1.0, 1.0, 1.0, 1.0, 1.0, 1.0, 1.0, 1.0, 1.0, 1.0, 1.0, 1.0, 1.0, 1.0, 1.0, 1.0, 1.0, 1.0, 1.0, 1.0, 1.0, 1.0, 1.0, 1.0, 1.0, 1.0, 1.0, 1.0, 1.0, 1.0, 1.0]

>  <TempFactor>  (439) 
[18.81, 27.66, 18.42, 28.47, 31.3, 19.86, 18.0, 36.49, 33.82, 16.63, 29.4, 22.13, 22.68, 21.54, 23.87, 26.44, 24.22, 19.0, 15.21, 18.33, 16.27, 19.18, 19.0, 17.13, 14.73, 16.04, 18.83, 23.76, 19.63, 17.66, 18.54, 25.52, 26.09, 23.51, 21.61, 23.49, 26.81, 22.53, 27.37, 21.38, 21.53, 22.61, 16.29, 28.88]

>  <accession>  (439) 
3SJO_A

>  <description>  (439) 
Chain A, 3C protease [Enterovirus A71]

>  <evalue>  (439) 
1.0179e-70

>  <pdb_code>  (439) 
3SJO

>  <chain>  (439) 
A

>  <ligands>  (439) 
[{'chain_id': 'A', 'author_residue_number': 501, 'author_insertion_code': '', 'chem_comp_id': 'AG7', 'alternate_conformers': 0, 'entity_id': 2, 'struct_asym_id': 'I', 'residue_number': 1, 'chem_comp_name': '4-{2-(4-FLUORO-BENZYL)-6-METHYL-5-[(5-METHYL-ISOXAZOLE-3-CARBONYL)-AMINO]-4-OXO-HEPTANOYLAMINO}-5-(2-OXO-PYRROLIDIN-3-YL)-PENTANOIC ACID ETHYL ESTER', 'weight': 600.678, 'carbohydrate_polymer': False, 'branch_name': ''}, {'chain_id': 'B', 'author_residue_number': 501, 'author_insertion_code': '', 'chem_comp_id': 'AG7', 'alternate_conformers': 0, 'entity_id': 2, 'struct_asym_id': 'J', 'residue_number': 1, 'chem_comp_name': '4-{2-(4-FLUORO-BENZYL)-6-METHYL-5-[(5-METHYL-ISOXAZOLE-3-CARBONYL)-AMINO]-4-OXO-HEPTANOYLAMINO}-5-(2-OXO-PYRROLIDIN-3-YL)-PENTANOIC ACID ETHYL ESTER', 'weight': 600.678, 'carbohydrate_polymer': False, 'branch_name': ''}, {'chain_id': 'C', 'author_residue_number': 501, 'author_insertion_code': '', 'chem_comp_id': 'AG7', 'alternate_conformers': 0, 'entity_id': 2, 'struct_asym_id': 'K', 'residue_number': 1, 'chem_comp_name': '4-{2-(4-FLUORO-BENZYL)-6-METHYL-5-[(5-METHYL-ISOXAZOLE-3-CARBONYL)-AMINO]-4-OXO-HEPTANOYLAMINO}-5-(2-OXO-PYRROLIDIN-3-YL)-PENTANOIC ACID ETHYL ESTER', 'weight': 600.678, 'carbohydrate_polymer': False, 'branch_name': ''}, {'chain_id': 'D', 'author_residue_number': 501, 'author_insertion_code': '', 'chem_comp_id': 'AG7', 'alternate_conformers': 0, 'entity_id': 2, 'struct_asym_id': 'L', 'residue_number': 1, 'chem_comp_name': '4-{2-(4-FLUORO-BENZYL)-6-METHYL-5-[(5-METHYL-ISOXAZOLE-3-CARBONYL)-AMINO]-4-OXO-HEPTANOYLAMINO}-5-(2-OXO-PYRROLIDIN-3-YL)-PENTANOIC ACID ETHYL ESTER', 'weight': 600.678, 'carbohydrate_polymer': False, 'branch_name': ''}, {'chain_id': 'E', 'author_residue_number': 501, 'author_insertion_code': '', 'chem_comp_id': 'AG7', 'alternate_conformers': 0, 'entity_id': 2, 'struct_asym_id': 'M', 'residue_number': 1, 'chem_comp_name': '4-{2-(4-FLUORO-BENZYL)-6-METHYL-5-[(5-METHYL-ISOXAZOLE-3-CARBONYL)-AMINO]-4-OXO-HEPTANOYLAMINO}-5-(2-OXO-PYRROLIDIN-3-YL)-PENTANOIC ACID ETHYL ESTER', 'weight': 600.678, 'carbohydrate_polymer': False, 'branch_name': ''}, {'chain_id': 'F', 'author_residue_number': 501, 'author_insertion_code': '', 'chem_comp_id': 'AG7', 'alternate_conformers': 0, 'entity_id': 2, 'struct_asym_id': 'N', 'residue_number': 1, 'chem_comp_name': '4-{2-(4-FLUORO-BENZYL)-6-METHYL-5-[(5-METHYL-ISOXAZOLE-3-CARBONYL)-AMINO]-4-OXO-HEPTANOYLAMINO}-5-(2-OXO-PYRROLIDIN-3-YL)-PENTANOIC ACID ETHYL ESTER', 'weight': 600.678, 'carbohydrate_polymer': False, 'branch_name': ''}, {'chain_id': 'G', 'author_residue_number': 501, 'author_insertion_code': '', 'chem_comp_id': 'AG7', 'alternate_conformers': 0, 'entity_id': 2, 'struct_asym_id': 'O', 'residue_number': 1, 'chem_comp_name': '4-{2-(4-FLUORO-BENZYL)-6-METHYL-5-[(5-METHYL-ISOXAZOLE-3-CARBONYL)-AMINO]-4-OXO-HEPTANOYLAMINO}-5-(2-OXO-PYRROLIDIN-3-YL)-PENTANOIC ACID ETHYL ESTER', 'weight': 600.678, 'carbohydrate_polymer': False, 'branch_name': ''}, {'chain_id': 'H', 'author_residue_number': 501, 'author_insertion_code': '', 'chem_comp_id': 'AG7', 'alternate_conformers': 0, 'entity_id': 2, 'struct_asym_id': 'P', 'residue_number': 1, 'chem_comp_name': '4-{2-(4-FLUORO-BENZYL)-6-METHYL-5-[(5-METHYL-ISOXAZOLE-3-CARBONYL)-AMINO]-4-OXO-HEPTANOYLAMINO}-5-(2-OXO-PYRROLIDIN-3-YL)-PENTANOIC ACID ETHYL ESTER', 'weight': 600.678, 'carbohydrate_polymer': False, 'branch_name': ''}]

>  <ligand_codes>  (439) 
['AG7', 'AG7', 'AG7', 'AG7', 'AG7', 'AG7', 'AG7', 'AG7']

>  <cofactor_codes>  (439) 
[]

>  <has_cofactor>  (439) 
False

>  <covalent>  (439) 
True

>  <base_name>  (439) 
3SJO

>  <lig_resn>  (439) 
AG7

>  <lig_resi>  (439) 
501

>  <lig_chain>  (439) 
A

>  <lig_segi>  (439) 
I

>  <lig_alt>  (439) 


>  <polymer_chain>  (439) 
A

>  <single_smiles>  (439) 
CCOC(=O)CC[C@H](C[C@@H]1CCNC1=O)NC(=O)[C@@H](CC(=O)[C@@H](NC(=O)c2cc(C)on2)C(C)C)Cc3ccc(F)cc3

$$$$
AG7P8S2
     RDKit          3D

 27 28  0  0  0  0  0  0  0  0999 V2000
   -8.2190   12.1920  -34.7470 C   0  0  0  0  0  0  0  0  0  0  0  0
   -9.2650   13.0870  -35.4210 C   0  0  1  0  0  0  0  0  0  0  0  0
   -7.0310   12.4100  -34.8930 O   0  0  0  0  0  0  0  0  0  0  0  0
   -9.1250   14.5600  -35.0710 C   0  0  0  0  0  0  0  0  0  0  0  0
   -9.4060   12.8260  -36.9090 C   0  0  0  0  0  0  0  0  0  0  0  0
   -8.7340   14.8750  -33.6330 C   0  0  0  0  0  0  0  0  0  0  0  0
  -10.4680   13.6500  -37.5900 C   0  0  0  0  0  0  0  0  0  0  0  0
   -8.9120   14.0500  -32.7640 O   0  0  0  0  0  0  0  0  0  0  0  0
   -8.3660   16.3160  -33.2440 C   0  0  1  0  0  0  0  0  0  0  0  0
  -11.8920   13.3740  -37.3060 C   0  0  0  0  0  0  0  0  0  0  0  0
  -10.0960   14.6950  -38.4660 C   0  0  0  0  0  0  0  0  0  0  0  0
   -8.7350   16.6450  -31.8730 N   0  0  0  0  0  0  0  0  0  0  0  0
   -6.9450   16.7440  -33.5590 C   0  0  0  0  0  0  0  0  0  0  0  0
  -12.9410   14.1870  -37.9670 C   0  0  0  0  0  0  0  0  0  0  0  0
  -11.1310   15.5040  -39.1190 C   0  0  0  0  0  0  0  0  0  0  0  0
   -9.7620   17.6260  -31.5940 C   0  0  0  0  0  0  0  0  0  0  0  0
   -6.7430   18.1960  -33.2420 C   0  0  0  0  0  0  0  0  0  0  0  0
   -5.9160   15.8690  -32.9170 C   0  0  0  0  0  0  0  0  0  0  0  0
  -12.5760   15.2200  -38.8370 C   0  0  0  0  0  0  0  0  0  0  0  0
  -10.1690   17.8670  -30.1510 C   0  0  0  0  0  0  0  0  0  0  0  0
  -10.2070   18.3220  -32.4960 O   0  0  0  0  0  0  0  0  0  0  0  0
  -13.5230   15.9340  -39.4430 F   0  0  0  0  0  0  0  0  0  0  0  0
  -11.1420   18.9430  -29.6030 C   0  0  0  0  0  0  0  0  0  0  0  0
   -9.7110   17.1440  -29.0800 N   0  0  0  0  0  0  0  0  0  0  0  0
  -11.1970   18.7860  -28.1620 C   0  0  0  0  0  0  0  0  0  0  0  0
  -10.3350   17.7020  -27.7930 O   0  0  0  0  0  0  0  0  0  0  0  0
  -12.0110   19.6150  -27.2080 C   0  0  0  0  0  0  0  0  0  0  0  0
  2  1  1  0
  1  3  2  0
  2  4  1  6
  2  5  1  0
  6  4  1  0
  5  7  1  0
  6  8  2  0
  6  9  1  0
  7 10  2  0
  7 11  1  0
  9 12  1  1
  9 13  1  0
 10 14  1  0
 15 11  2  0
 12 16  1  0
 13 17  1  0
 13 18  1  0
 14 19  2  0
 19 15  1  0
 20 16  1  0
 16 21  2  0
 19 22  1  0
 20 23  1  0
 20 24  2  0
 23 25  2  0
 26 24  1  0
 25 27  1  0
 25 26  1  0
A    2
 C04
A    3
 O48
A    4
 C02
A    5
 C05
A    6
 C01
A    7
 C06
A    8
 O03
A    9
 C57
A   10
 C07
A   11
 C11
A   12
 N58
A   13
 C78
A   14
 C08
A   15
 C10
A   16
 C59
A   17
 C81
A   18
 C82
A   19
 C09
A   20
 C1 
A   21
 O60
A   22
 F1 
A   23
 C2 
A   24
 N5 
A   25
 C3 
A   26
 O4 
A   27
 C4 
M  END
>  <XChem_code>  (440) 
AG7§8

>  <Occupancy>  (440) 
[1.0, 1.0, 1.0, 1.0, 1.0, 1.0, 1.0, 1.0, 1.0, 1.0, 1.0, 1.0, 1.0, 1.0, 1.0, 1.0, 1.0, 1.0, 1.0, 1.0, 1.0, 1.0, 1.0, 1.0, 1.0, 1.0, 1.0, 1.0, 1.0, 1.0, 1.0, 1.0, 1.0, 1.0, 1.0, 1.0, 1.0, 1.0, 1.0, 1.0, 1.0, 1.0, 1.0, 1.0]

>  <TempFactor>  (440) 
[18.81, 27.66, 18.42, 28.47, 31.3, 19.86, 18.0, 36.49, 33.82, 16.63, 29.4, 22.13, 22.68, 21.54, 23.87, 26.44, 24.22, 19.0, 15.21, 18.33, 16.27, 19.18, 19.0, 17.13, 14.73, 16.04, 18.83, 23.76, 19.63, 17.66, 18.54, 25.52, 26.09, 23.51, 21.61, 23.49, 26.81, 22.53, 27.37, 21.38, 21.53, 22.61, 16.29, 28.88]

>  <accession>  (440) 
3SJO_A

>  <description>  (440) 
Chain A, 3C protease [Enterovirus A71]

>  <evalue>  (440) 
1.0179e-70

>  <pdb_code>  (440) 
3SJO

>  <chain>  (440) 
A

>  <ligands>  (440) 
[{'chain_id': 'A', 'author_residue_number': 501, 'author_insertion_code': '', 'chem_comp_id': 'AG7', 'alternate_conformers': 0, 'entity_id': 2, 'struct_asym_id': 'I', 'residue_number': 1, 'chem_comp_name': '4-{2-(4-FLUORO-BENZYL)-6-METHYL-5-[(5-METHYL-ISOXAZOLE-3-CARBONYL)-AMINO]-4-OXO-HEPTANOYLAMINO}-5-(2-OXO-PYRROLIDIN-3-YL)-PENTANOIC ACID ETHYL ESTER', 'weight': 600.678, 'carbohydrate_polymer': False, 'branch_name': ''}, {'chain_id': 'B', 'author_residue_number': 501, 'author_insertion_code': '', 'chem_comp_id': 'AG7', 'alternate_conformers': 0, 'entity_id': 2, 'struct_asym_id': 'J', 'residue_number': 1, 'chem_comp_name': '4-{2-(4-FLUORO-BENZYL)-6-METHYL-5-[(5-METHYL-ISOXAZOLE-3-CARBONYL)-AMINO]-4-OXO-HEPTANOYLAMINO}-5-(2-OXO-PYRROLIDIN-3-YL)-PENTANOIC ACID ETHYL ESTER', 'weight': 600.678, 'carbohydrate_polymer': False, 'branch_name': ''}, {'chain_id': 'C', 'author_residue_number': 501, 'author_insertion_code': '', 'chem_comp_id': 'AG7', 'alternate_conformers': 0, 'entity_id': 2, 'struct_asym_id': 'K', 'residue_number': 1, 'chem_comp_name': '4-{2-(4-FLUORO-BENZYL)-6-METHYL-5-[(5-METHYL-ISOXAZOLE-3-CARBONYL)-AMINO]-4-OXO-HEPTANOYLAMINO}-5-(2-OXO-PYRROLIDIN-3-YL)-PENTANOIC ACID ETHYL ESTER', 'weight': 600.678, 'carbohydrate_polymer': False, 'branch_name': ''}, {'chain_id': 'D', 'author_residue_number': 501, 'author_insertion_code': '', 'chem_comp_id': 'AG7', 'alternate_conformers': 0, 'entity_id': 2, 'struct_asym_id': 'L', 'residue_number': 1, 'chem_comp_name': '4-{2-(4-FLUORO-BENZYL)-6-METHYL-5-[(5-METHYL-ISOXAZOLE-3-CARBONYL)-AMINO]-4-OXO-HEPTANOYLAMINO}-5-(2-OXO-PYRROLIDIN-3-YL)-PENTANOIC ACID ETHYL ESTER', 'weight': 600.678, 'carbohydrate_polymer': False, 'branch_name': ''}, {'chain_id': 'E', 'author_residue_number': 501, 'author_insertion_code': '', 'chem_comp_id': 'AG7', 'alternate_conformers': 0, 'entity_id': 2, 'struct_asym_id': 'M', 'residue_number': 1, 'chem_comp_name': '4-{2-(4-FLUORO-BENZYL)-6-METHYL-5-[(5-METHYL-ISOXAZOLE-3-CARBONYL)-AMINO]-4-OXO-HEPTANOYLAMINO}-5-(2-OXO-PYRROLIDIN-3-YL)-PENTANOIC ACID ETHYL ESTER', 'weight': 600.678, 'carbohydrate_polymer': False, 'branch_name': ''}, {'chain_id': 'F', 'author_residue_number': 501, 'author_insertion_code': '', 'chem_comp_id': 'AG7', 'alternate_conformers': 0, 'entity_id': 2, 'struct_asym_id': 'N', 'residue_number': 1, 'chem_comp_name': '4-{2-(4-FLUORO-BENZYL)-6-METHYL-5-[(5-METHYL-ISOXAZOLE-3-CARBONYL)-AMINO]-4-OXO-HEPTANOYLAMINO}-5-(2-OXO-PYRROLIDIN-3-YL)-PENTANOIC ACID ETHYL ESTER', 'weight': 600.678, 'carbohydrate_polymer': False, 'branch_name': ''}, {'chain_id': 'G', 'author_residue_number': 501, 'author_insertion_code': '', 'chem_comp_id': 'AG7', 'alternate_conformers': 0, 'entity_id': 2, 'struct_asym_id': 'O', 'residue_number': 1, 'chem_comp_name': '4-{2-(4-FLUORO-BENZYL)-6-METHYL-5-[(5-METHYL-ISOXAZOLE-3-CARBONYL)-AMINO]-4-OXO-HEPTANOYLAMINO}-5-(2-OXO-PYRROLIDIN-3-YL)-PENTANOIC ACID ETHYL ESTER', 'weight': 600.678, 'carbohydrate_polymer': False, 'branch_name': ''}, {'chain_id': 'H', 'author_residue_number': 501, 'author_insertion_code': '', 'chem_comp_id': 'AG7', 'alternate_conformers': 0, 'entity_id': 2, 'struct_asym_id': 'P', 'residue_number': 1, 'chem_comp_name': '4-{2-(4-FLUORO-BENZYL)-6-METHYL-5-[(5-METHYL-ISOXAZOLE-3-CARBONYL)-AMINO]-4-OXO-HEPTANOYLAMINO}-5-(2-OXO-PYRROLIDIN-3-YL)-PENTANOIC ACID ETHYL ESTER', 'weight': 600.678, 'carbohydrate_polymer': False, 'branch_name': ''}]

>  <ligand_codes>  (440) 
['AG7', 'AG7', 'AG7', 'AG7', 'AG7', 'AG7', 'AG7', 'AG7']

>  <cofactor_codes>  (440) 
[]

>  <has_cofactor>  (440) 
False

>  <covalent>  (440) 
True

>  <base_name>  (440) 
3SJO

>  <lig_resn>  (440) 
AG7

>  <lig_resi>  (440) 
501

>  <lig_chain>  (440) 
A

>  <lig_segi>  (440) 
I

>  <lig_alt>  (440) 


>  <polymer_chain>  (440) 
A

>  <single_smiles>  (440) 
CCOC(=O)CC[C@H](C[C@@H]1CCNC1=O)NC(=O)[C@@H](CC(=O)[C@@H](NC(=O)c2cc(C)on2)C(C)C)Cc3ccc(F)cc3

$$$$
AG7P8S3
     RDKit          3D

  8  8  0  0  0  0  0  0  0  0999 V2000
   -9.7620   17.6260  -31.5940 C   0  0  0  0  0  0  0  0  0  0  0  0
  -10.1690   17.8670  -30.1510 C   0  0  0  0  0  0  0  0  0  0  0  0
  -10.2070   18.3220  -32.4960 O   0  0  0  0  0  0  0  0  0  0  0  0
  -11.1420   18.9430  -29.6030 C   0  0  0  0  0  0  0  0  0  0  0  0
   -9.7110   17.1440  -29.0800 N   0  0  0  0  0  0  0  0  0  0  0  0
  -11.1970   18.7860  -28.1620 C   0  0  0  0  0  0  0  0  0  0  0  0
  -10.3350   17.7020  -27.7930 O   0  0  0  0  0  0  0  0  0  0  0  0
  -12.0110   19.6150  -27.2080 C   0  0  0  0  0  0  0  0  0  0  0  0
  2  1  1  0
  1  3  2  0
  2  4  1  0
  2  5  2  0
  4  6  2  0
  7  5  1  0
  6  8  1  0
  6  7  1  0
A    2
 C1 
A    3
 O60
A    4
 C2 
A    5
 N5 
A    6
 C3 
A    7
 O4 
A    8
 C4 
M  END
>  <XChem_code>  (441) 
AG7§8

>  <Occupancy>  (441) 
[1.0, 1.0, 1.0, 1.0, 1.0, 1.0, 1.0, 1.0, 1.0, 1.0, 1.0, 1.0, 1.0, 1.0, 1.0, 1.0, 1.0, 1.0, 1.0, 1.0, 1.0, 1.0, 1.0, 1.0, 1.0, 1.0, 1.0, 1.0, 1.0, 1.0, 1.0, 1.0, 1.0, 1.0, 1.0, 1.0, 1.0, 1.0, 1.0, 1.0, 1.0, 1.0, 1.0, 1.0]

>  <TempFactor>  (441) 
[18.81, 27.66, 18.42, 28.47, 31.3, 19.86, 18.0, 36.49, 33.82, 16.63, 29.4, 22.13, 22.68, 21.54, 23.87, 26.44, 24.22, 19.0, 15.21, 18.33, 16.27, 19.18, 19.0, 17.13, 14.73, 16.04, 18.83, 23.76, 19.63, 17.66, 18.54, 25.52, 26.09, 23.51, 21.61, 23.49, 26.81, 22.53, 27.37, 21.38, 21.53, 22.61, 16.29, 28.88]

>  <accession>  (441) 
3SJO_A

>  <description>  (441) 
Chain A, 3C protease [Enterovirus A71]

>  <evalue>  (441) 
1.0179e-70

>  <pdb_code>  (441) 
3SJO

>  <chain>  (441) 
A

>  <ligands>  (441) 
[{'chain_id': 'A', 'author_residue_number': 501, 'author_insertion_code': '', 'chem_comp_id': 'AG7', 'alternate_conformers': 0, 'entity_id': 2, 'struct_asym_id': 'I', 'residue_number': 1, 'chem_comp_name': '4-{2-(4-FLUORO-BENZYL)-6-METHYL-5-[(5-METHYL-ISOXAZOLE-3-CARBONYL)-AMINO]-4-OXO-HEPTANOYLAMINO}-5-(2-OXO-PYRROLIDIN-3-YL)-PENTANOIC ACID ETHYL ESTER', 'weight': 600.678, 'carbohydrate_polymer': False, 'branch_name': ''}, {'chain_id': 'B', 'author_residue_number': 501, 'author_insertion_code': '', 'chem_comp_id': 'AG7', 'alternate_conformers': 0, 'entity_id': 2, 'struct_asym_id': 'J', 'residue_number': 1, 'chem_comp_name': '4-{2-(4-FLUORO-BENZYL)-6-METHYL-5-[(5-METHYL-ISOXAZOLE-3-CARBONYL)-AMINO]-4-OXO-HEPTANOYLAMINO}-5-(2-OXO-PYRROLIDIN-3-YL)-PENTANOIC ACID ETHYL ESTER', 'weight': 600.678, 'carbohydrate_polymer': False, 'branch_name': ''}, {'chain_id': 'C', 'author_residue_number': 501, 'author_insertion_code': '', 'chem_comp_id': 'AG7', 'alternate_conformers': 0, 'entity_id': 2, 'struct_asym_id': 'K', 'residue_number': 1, 'chem_comp_name': '4-{2-(4-FLUORO-BENZYL)-6-METHYL-5-[(5-METHYL-ISOXAZOLE-3-CARBONYL)-AMINO]-4-OXO-HEPTANOYLAMINO}-5-(2-OXO-PYRROLIDIN-3-YL)-PENTANOIC ACID ETHYL ESTER', 'weight': 600.678, 'carbohydrate_polymer': False, 'branch_name': ''}, {'chain_id': 'D', 'author_residue_number': 501, 'author_insertion_code': '', 'chem_comp_id': 'AG7', 'alternate_conformers': 0, 'entity_id': 2, 'struct_asym_id': 'L', 'residue_number': 1, 'chem_comp_name': '4-{2-(4-FLUORO-BENZYL)-6-METHYL-5-[(5-METHYL-ISOXAZOLE-3-CARBONYL)-AMINO]-4-OXO-HEPTANOYLAMINO}-5-(2-OXO-PYRROLIDIN-3-YL)-PENTANOIC ACID ETHYL ESTER', 'weight': 600.678, 'carbohydrate_polymer': False, 'branch_name': ''}, {'chain_id': 'E', 'author_residue_number': 501, 'author_insertion_code': '', 'chem_comp_id': 'AG7', 'alternate_conformers': 0, 'entity_id': 2, 'struct_asym_id': 'M', 'residue_number': 1, 'chem_comp_name': '4-{2-(4-FLUORO-BENZYL)-6-METHYL-5-[(5-METHYL-ISOXAZOLE-3-CARBONYL)-AMINO]-4-OXO-HEPTANOYLAMINO}-5-(2-OXO-PYRROLIDIN-3-YL)-PENTANOIC ACID ETHYL ESTER', 'weight': 600.678, 'carbohydrate_polymer': False, 'branch_name': ''}, {'chain_id': 'F', 'author_residue_number': 501, 'author_insertion_code': '', 'chem_comp_id': 'AG7', 'alternate_conformers': 0, 'entity_id': 2, 'struct_asym_id': 'N', 'residue_number': 1, 'chem_comp_name': '4-{2-(4-FLUORO-BENZYL)-6-METHYL-5-[(5-METHYL-ISOXAZOLE-3-CARBONYL)-AMINO]-4-OXO-HEPTANOYLAMINO}-5-(2-OXO-PYRROLIDIN-3-YL)-PENTANOIC ACID ETHYL ESTER', 'weight': 600.678, 'carbohydrate_polymer': False, 'branch_name': ''}, {'chain_id': 'G', 'author_residue_number': 501, 'author_insertion_code': '', 'chem_comp_id': 'AG7', 'alternate_conformers': 0, 'entity_id': 2, 'struct_asym_id': 'O', 'residue_number': 1, 'chem_comp_name': '4-{2-(4-FLUORO-BENZYL)-6-METHYL-5-[(5-METHYL-ISOXAZOLE-3-CARBONYL)-AMINO]-4-OXO-HEPTANOYLAMINO}-5-(2-OXO-PYRROLIDIN-3-YL)-PENTANOIC ACID ETHYL ESTER', 'weight': 600.678, 'carbohydrate_polymer': False, 'branch_name': ''}, {'chain_id': 'H', 'author_residue_number': 501, 'author_insertion_code': '', 'chem_comp_id': 'AG7', 'alternate_conformers': 0, 'entity_id': 2, 'struct_asym_id': 'P', 'residue_number': 1, 'chem_comp_name': '4-{2-(4-FLUORO-BENZYL)-6-METHYL-5-[(5-METHYL-ISOXAZOLE-3-CARBONYL)-AMINO]-4-OXO-HEPTANOYLAMINO}-5-(2-OXO-PYRROLIDIN-3-YL)-PENTANOIC ACID ETHYL ESTER', 'weight': 600.678, 'carbohydrate_polymer': False, 'branch_name': ''}]

>  <ligand_codes>  (441) 
['AG7', 'AG7', 'AG7', 'AG7', 'AG7', 'AG7', 'AG7', 'AG7']

>  <cofactor_codes>  (441) 
[]

>  <has_cofactor>  (441) 
False

>  <covalent>  (441) 
True

>  <base_name>  (441) 
3SJO

>  <lig_resn>  (441) 
AG7

>  <lig_resi>  (441) 
501

>  <lig_chain>  (441) 
A

>  <lig_segi>  (441) 
I

>  <lig_alt>  (441) 


>  <polymer_chain>  (441) 
A

>  <single_smiles>  (441) 
CCOC(=O)CC[C@H](C[C@@H]1CCNC1=O)NC(=O)[C@@H](CC(=O)[C@@H](NC(=O)c2cc(C)on2)C(C)C)Cc3ccc(F)cc3

$$$$
AG7P8S4
     RDKit          3D

 36 37  0  0  0  0  0  0  0  0999 V2000
   -8.7350   16.6450  -31.8730 N   0  0  0  0  0  0  0  0  0  0  0  0
   -8.3660   16.3160  -33.2440 C   0  0  2  0  0  0  0  0  0  0  0  0
   -8.7340   14.8750  -33.6330 C   0  0  0  0  0  0  0  0  0  0  0  0
   -6.9450   16.7440  -33.5590 C   0  0  0  0  0  0  0  0  0  0  0  0
   -9.1250   14.5600  -35.0710 C   0  0  0  0  0  0  0  0  0  0  0  0
   -8.9120   14.0500  -32.7640 O   0  0  0  0  0  0  0  0  0  0  0  0
   -6.7430   18.1960  -33.2420 C   0  0  0  0  0  0  0  0  0  0  0  0
   -5.9160   15.8690  -32.9170 C   0  0  0  0  0  0  0  0  0  0  0  0
   -9.2650   13.0870  -35.4210 C   0  0  1  0  0  0  0  0  0  0  0  0
   -9.4060   12.8260  -36.9090 C   0  0  0  0  0  0  0  0  0  0  0  0
   -8.2190   12.1920  -34.7470 C   0  0  0  0  0  0  0  0  0  0  0  0
  -10.4680   13.6500  -37.5900 C   0  0  0  0  0  0  0  0  0  0  0  0
   -8.6690   10.9670  -34.0900 N   0  0  0  0  0  0  0  0  0  0  0  0
   -7.0310   12.4100  -34.8930 O   0  0  0  0  0  0  0  0  0  0  0  0
  -11.8920   13.3740  -37.3060 C   0  0  0  0  0  0  0  0  0  0  0  0
  -10.0960   14.6950  -38.4660 C   0  0  0  0  0  0  0  0  0  0  0  0
   -7.6950    9.9410  -33.7020 C   0  0  1  0  0  0  0  0  0  0  0  0
  -12.9410   14.1870  -37.9670 C   0  0  0  0  0  0  0  0  0  0  0  0
  -11.1310   15.5040  -39.1190 C   0  0  0  0  0  0  0  0  0  0  0  0
   -7.5680    9.8350  -32.1900 C   0  0  0  0  0  0  0  0  0  0  0  0
   -7.9440    8.6270  -34.4090 C   0  0  2  0  0  0  0  0  0  0  0  0
  -12.5760   15.2200  -38.8370 C   0  0  0  0  0  0  0  0  0  0  0  0
   -7.0030   11.1120  -31.5690 C   0  0  1  0  0  0  0  0  0  0  0  0
   -7.6890    8.6920  -35.9030 C   0  0  0  0  0  0  0  0  0  0  0  0
   -9.6990    8.3690  -34.0940 R   0  0  0  0  0  0  0  0  0  0  0  0
  -13.5230   15.9340  -39.4430 F   0  0  0  0  0  0  0  0  0  0  0  0
   -7.1160   11.2790  -30.0480 C   0  0  0  0  0  0  0  0  0  0  0  0
   -5.6150   11.5640  -31.9570 C   0  0  0  0  0  0  0  0  0  0  0  0
   -6.2280    8.9610  -36.2420 C   0  0  0  0  0  0  0  0  0  0  0  0
   -5.8140   11.8640  -29.5400 N   0  0  0  0  0  0  0  0  0  0  0  0
   -7.7570   10.3380  -29.3000 O   0  0  0  0  0  0  0  0  0  0  0  0
   -5.1080   12.3840  -30.7640 C   0  0  0  0  0  0  0  0  0  0  0  0
   -5.9130    9.9450  -37.0170 O   0  0  0  0  0  0  0  0  0  0  0  0
   -5.3400    8.4630  -35.5080 O   0  0  0  0  0  0  0  0  0  0  0  0
   -4.5540   10.2290  -37.2100 C   0  0  0  0  0  0  0  0  0  0  0  0
   -4.2040   11.6040  -37.7340 C   0  0  0  0  0  0  0  0  0  0  0  0
  2  1  1  1
  3  2  1  0
  2  4  1  0
  3  5  1  0
  3  6  2  0
  4  7  1  0
  4  8  1  0
  9  5  1  6
  9 10  1  0
  9 11  1  0
 10 12  1  0
 13 11  1  0
 11 14  2  0
 12 15  2  0
 12 16  1  0
 13 17  1  0
 15 18  1  0
 19 16  2  0
 17 20  1  1
 17 21  1  0
 18 22  2  0
 22 19  1  0
 23 20  1  1
 21 24  1  0
 21 25  1  6
 22 26  1  0
 23 27  1  0
 23 28  1  0
 24 29  1  0
 27 30  1  0
 27 31  2  0
 32 28  1  0
 29 33  1  0
 29 34  2  0
 30 32  1  0
 33 35  1  0
 35 36  1  0
V   25 *
A    2
 C57
A    3
 C01
A    4
 C78
A    5
 C02
A    6
 O03
A    7
 C81
A    8
 C82
A    9
 C04
A   10
 C05
A   11
 C47
A   12
 C06
A   13
 N12
A   14
 O48
A   15
 C07
A   16
 C11
A   17
 C13
A   18
 C08
A   19
 C10
A   20
 C14
A   21
 C19
A   22
 C09
A   23
 C15
A   24
 C20
A   25
 X  
A   26
 F1 
A   27
 C16
A   28
 C84
A   29
 C21
A   30
 N17
A   31
 O18
A   32
 C83
A   33
 O22
A   34
 O23
A   35
 C50
A   36
 C53
M  END
>  <XChem_code>  (442) 
AG7§8

>  <Occupancy>  (442) 
[1.0, 1.0, 1.0, 1.0, 1.0, 1.0, 1.0, 1.0, 1.0, 1.0, 1.0, 1.0, 1.0, 1.0, 1.0, 1.0, 1.0, 1.0, 1.0, 1.0, 1.0, 1.0, 1.0, 1.0, 1.0, 1.0, 1.0, 1.0, 1.0, 1.0, 1.0, 1.0, 1.0, 1.0, 1.0, 1.0, 1.0, 1.0, 1.0, 1.0, 1.0, 1.0, 1.0, 1.0]

>  <TempFactor>  (442) 
[18.81, 27.66, 18.42, 28.47, 31.3, 19.86, 18.0, 36.49, 33.82, 16.63, 29.4, 22.13, 22.68, 21.54, 23.87, 26.44, 24.22, 19.0, 15.21, 18.33, 16.27, 19.18, 19.0, 17.13, 14.73, 16.04, 18.83, 23.76, 19.63, 17.66, 18.54, 25.52, 26.09, 23.51, 21.61, 23.49, 26.81, 22.53, 27.37, 21.38, 21.53, 22.61, 16.29, 28.88]

>  <accession>  (442) 
3SJO_A

>  <description>  (442) 
Chain A, 3C protease [Enterovirus A71]

>  <evalue>  (442) 
1.0179e-70

>  <pdb_code>  (442) 
3SJO

>  <chain>  (442) 
A

>  <ligands>  (442) 
[{'chain_id': 'A', 'author_residue_number': 501, 'author_insertion_code': '', 'chem_comp_id': 'AG7', 'alternate_conformers': 0, 'entity_id': 2, 'struct_asym_id': 'I', 'residue_number': 1, 'chem_comp_name': '4-{2-(4-FLUORO-BENZYL)-6-METHYL-5-[(5-METHYL-ISOXAZOLE-3-CARBONYL)-AMINO]-4-OXO-HEPTANOYLAMINO}-5-(2-OXO-PYRROLIDIN-3-YL)-PENTANOIC ACID ETHYL ESTER', 'weight': 600.678, 'carbohydrate_polymer': False, 'branch_name': ''}, {'chain_id': 'B', 'author_residue_number': 501, 'author_insertion_code': '', 'chem_comp_id': 'AG7', 'alternate_conformers': 0, 'entity_id': 2, 'struct_asym_id': 'J', 'residue_number': 1, 'chem_comp_name': '4-{2-(4-FLUORO-BENZYL)-6-METHYL-5-[(5-METHYL-ISOXAZOLE-3-CARBONYL)-AMINO]-4-OXO-HEPTANOYLAMINO}-5-(2-OXO-PYRROLIDIN-3-YL)-PENTANOIC ACID ETHYL ESTER', 'weight': 600.678, 'carbohydrate_polymer': False, 'branch_name': ''}, {'chain_id': 'C', 'author_residue_number': 501, 'author_insertion_code': '', 'chem_comp_id': 'AG7', 'alternate_conformers': 0, 'entity_id': 2, 'struct_asym_id': 'K', 'residue_number': 1, 'chem_comp_name': '4-{2-(4-FLUORO-BENZYL)-6-METHYL-5-[(5-METHYL-ISOXAZOLE-3-CARBONYL)-AMINO]-4-OXO-HEPTANOYLAMINO}-5-(2-OXO-PYRROLIDIN-3-YL)-PENTANOIC ACID ETHYL ESTER', 'weight': 600.678, 'carbohydrate_polymer': False, 'branch_name': ''}, {'chain_id': 'D', 'author_residue_number': 501, 'author_insertion_code': '', 'chem_comp_id': 'AG7', 'alternate_conformers': 0, 'entity_id': 2, 'struct_asym_id': 'L', 'residue_number': 1, 'chem_comp_name': '4-{2-(4-FLUORO-BENZYL)-6-METHYL-5-[(5-METHYL-ISOXAZOLE-3-CARBONYL)-AMINO]-4-OXO-HEPTANOYLAMINO}-5-(2-OXO-PYRROLIDIN-3-YL)-PENTANOIC ACID ETHYL ESTER', 'weight': 600.678, 'carbohydrate_polymer': False, 'branch_name': ''}, {'chain_id': 'E', 'author_residue_number': 501, 'author_insertion_code': '', 'chem_comp_id': 'AG7', 'alternate_conformers': 0, 'entity_id': 2, 'struct_asym_id': 'M', 'residue_number': 1, 'chem_comp_name': '4-{2-(4-FLUORO-BENZYL)-6-METHYL-5-[(5-METHYL-ISOXAZOLE-3-CARBONYL)-AMINO]-4-OXO-HEPTANOYLAMINO}-5-(2-OXO-PYRROLIDIN-3-YL)-PENTANOIC ACID ETHYL ESTER', 'weight': 600.678, 'carbohydrate_polymer': False, 'branch_name': ''}, {'chain_id': 'F', 'author_residue_number': 501, 'author_insertion_code': '', 'chem_comp_id': 'AG7', 'alternate_conformers': 0, 'entity_id': 2, 'struct_asym_id': 'N', 'residue_number': 1, 'chem_comp_name': '4-{2-(4-FLUORO-BENZYL)-6-METHYL-5-[(5-METHYL-ISOXAZOLE-3-CARBONYL)-AMINO]-4-OXO-HEPTANOYLAMINO}-5-(2-OXO-PYRROLIDIN-3-YL)-PENTANOIC ACID ETHYL ESTER', 'weight': 600.678, 'carbohydrate_polymer': False, 'branch_name': ''}, {'chain_id': 'G', 'author_residue_number': 501, 'author_insertion_code': '', 'chem_comp_id': 'AG7', 'alternate_conformers': 0, 'entity_id': 2, 'struct_asym_id': 'O', 'residue_number': 1, 'chem_comp_name': '4-{2-(4-FLUORO-BENZYL)-6-METHYL-5-[(5-METHYL-ISOXAZOLE-3-CARBONYL)-AMINO]-4-OXO-HEPTANOYLAMINO}-5-(2-OXO-PYRROLIDIN-3-YL)-PENTANOIC ACID ETHYL ESTER', 'weight': 600.678, 'carbohydrate_polymer': False, 'branch_name': ''}, {'chain_id': 'H', 'author_residue_number': 501, 'author_insertion_code': '', 'chem_comp_id': 'AG7', 'alternate_conformers': 0, 'entity_id': 2, 'struct_asym_id': 'P', 'residue_number': 1, 'chem_comp_name': '4-{2-(4-FLUORO-BENZYL)-6-METHYL-5-[(5-METHYL-ISOXAZOLE-3-CARBONYL)-AMINO]-4-OXO-HEPTANOYLAMINO}-5-(2-OXO-PYRROLIDIN-3-YL)-PENTANOIC ACID ETHYL ESTER', 'weight': 600.678, 'carbohydrate_polymer': False, 'branch_name': ''}]

>  <ligand_codes>  (442) 
['AG7', 'AG7', 'AG7', 'AG7', 'AG7', 'AG7', 'AG7', 'AG7']

>  <cofactor_codes>  (442) 
[]

>  <has_cofactor>  (442) 
False

>  <covalent>  (442) 
True

>  <base_name>  (442) 
3SJO

>  <lig_resn>  (442) 
AG7

>  <lig_resi>  (442) 
501

>  <lig_chain>  (442) 
A

>  <lig_segi>  (442) 
I

>  <lig_alt>  (442) 


>  <polymer_chain>  (442) 
A

>  <single_smiles>  (442) 
CCOC(=O)CC[C@H](C[C@@H]1CCNC1=O)NC(=O)[C@@H](CC(=O)[C@@H](NC(=O)c2cc(C)on2)C(C)C)Cc3ccc(F)cc3

$$$$
AG7P8S5
     RDKit          3D

 19 19  0  0  0  0  0  0  0  0999 V2000
   -8.7350   16.6450  -31.8730 N   0  0  0  0  0  0  0  0  0  0  0  0
   -8.3660   16.3160  -33.2440 C   0  0  2  0  0  0  0  0  0  0  0  0
   -8.7340   14.8750  -33.6330 C   0  0  0  0  0  0  0  0  0  0  0  0
   -6.9450   16.7440  -33.5590 C   0  0  0  0  0  0  0  0  0  0  0  0
   -9.1250   14.5600  -35.0710 C   0  0  0  0  0  0  0  0  0  0  0  0
   -8.9120   14.0500  -32.7640 O   0  0  0  0  0  0  0  0  0  0  0  0
   -6.7430   18.1960  -33.2420 C   0  0  0  0  0  0  0  0  0  0  0  0
   -5.9160   15.8690  -32.9170 C   0  0  0  0  0  0  0  0  0  0  0  0
   -9.2650   13.0870  -35.4210 C   0  0  2  0  0  0  0  0  0  0  0  0
   -8.2190   12.1920  -34.7470 C   0  0  0  0  0  0  0  0  0  0  0  0
   -9.4060   12.8260  -36.9090 C   0  0  0  0  0  0  0  0  0  0  0  0
   -7.0310   12.4100  -34.8930 O   0  0  0  0  0  0  0  0  0  0  0  0
  -10.4680   13.6500  -37.5900 C   0  0  0  0  0  0  0  0  0  0  0  0
  -11.8920   13.3740  -37.3060 C   0  0  0  0  0  0  0  0  0  0  0  0
  -10.0960   14.6950  -38.4660 C   0  0  0  0  0  0  0  0  0  0  0  0
  -12.9410   14.1870  -37.9670 C   0  0  0  0  0  0  0  0  0  0  0  0
  -11.1310   15.5040  -39.1190 C   0  0  0  0  0  0  0  0  0  0  0  0
  -12.5760   15.2200  -38.8370 C   0  0  0  0  0  0  0  0  0  0  0  0
  -13.5230   15.9340  -39.4430 F   0  0  0  0  0  0  0  0  0  0  0  0
  2  1  1  1
  3  2  1  0
  2  4  1  0
  3  5  1  0
  3  6  2  0
  4  7  1  0
  4  8  1  0
  9  5  1  6
  9 10  1  0
  9 11  1  0
 10 12  2  0
 11 13  1  0
 13 14  2  0
 13 15  1  0
 14 16  1  0
 17 15  2  0
 16 18  2  0
 18 17  1  0
 18 19  1  0
A    2
 C57
A    3
 C01
A    4
 C78
A    5
 C02
A    6
 O03
A    7
 C81
A    8
 C82
A    9
 C04
A   11
 C05
A   12
 O48
A   13
 C06
A   14
 C07
A   15
 C11
A   16
 C08
A   17
 C10
A   18
 C09
A   19
 F1 
M  END
>  <XChem_code>  (443) 
AG7§8

>  <Occupancy>  (443) 
[1.0, 1.0, 1.0, 1.0, 1.0, 1.0, 1.0, 1.0, 1.0, 1.0, 1.0, 1.0, 1.0, 1.0, 1.0, 1.0, 1.0, 1.0, 1.0, 1.0, 1.0, 1.0, 1.0, 1.0, 1.0, 1.0, 1.0, 1.0, 1.0, 1.0, 1.0, 1.0, 1.0, 1.0, 1.0, 1.0, 1.0, 1.0, 1.0, 1.0, 1.0, 1.0, 1.0, 1.0]

>  <TempFactor>  (443) 
[18.81, 27.66, 18.42, 28.47, 31.3, 19.86, 18.0, 36.49, 33.82, 16.63, 29.4, 22.13, 22.68, 21.54, 23.87, 26.44, 24.22, 19.0, 15.21, 18.33, 16.27, 19.18, 19.0, 17.13, 14.73, 16.04, 18.83, 23.76, 19.63, 17.66, 18.54, 25.52, 26.09, 23.51, 21.61, 23.49, 26.81, 22.53, 27.37, 21.38, 21.53, 22.61, 16.29, 28.88]

>  <accession>  (443) 
3SJO_A

>  <description>  (443) 
Chain A, 3C protease [Enterovirus A71]

>  <evalue>  (443) 
1.0179e-70

>  <pdb_code>  (443) 
3SJO

>  <chain>  (443) 
A

>  <ligands>  (443) 
[{'chain_id': 'A', 'author_residue_number': 501, 'author_insertion_code': '', 'chem_comp_id': 'AG7', 'alternate_conformers': 0, 'entity_id': 2, 'struct_asym_id': 'I', 'residue_number': 1, 'chem_comp_name': '4-{2-(4-FLUORO-BENZYL)-6-METHYL-5-[(5-METHYL-ISOXAZOLE-3-CARBONYL)-AMINO]-4-OXO-HEPTANOYLAMINO}-5-(2-OXO-PYRROLIDIN-3-YL)-PENTANOIC ACID ETHYL ESTER', 'weight': 600.678, 'carbohydrate_polymer': False, 'branch_name': ''}, {'chain_id': 'B', 'author_residue_number': 501, 'author_insertion_code': '', 'chem_comp_id': 'AG7', 'alternate_conformers': 0, 'entity_id': 2, 'struct_asym_id': 'J', 'residue_number': 1, 'chem_comp_name': '4-{2-(4-FLUORO-BENZYL)-6-METHYL-5-[(5-METHYL-ISOXAZOLE-3-CARBONYL)-AMINO]-4-OXO-HEPTANOYLAMINO}-5-(2-OXO-PYRROLIDIN-3-YL)-PENTANOIC ACID ETHYL ESTER', 'weight': 600.678, 'carbohydrate_polymer': False, 'branch_name': ''}, {'chain_id': 'C', 'author_residue_number': 501, 'author_insertion_code': '', 'chem_comp_id': 'AG7', 'alternate_conformers': 0, 'entity_id': 2, 'struct_asym_id': 'K', 'residue_number': 1, 'chem_comp_name': '4-{2-(4-FLUORO-BENZYL)-6-METHYL-5-[(5-METHYL-ISOXAZOLE-3-CARBONYL)-AMINO]-4-OXO-HEPTANOYLAMINO}-5-(2-OXO-PYRROLIDIN-3-YL)-PENTANOIC ACID ETHYL ESTER', 'weight': 600.678, 'carbohydrate_polymer': False, 'branch_name': ''}, {'chain_id': 'D', 'author_residue_number': 501, 'author_insertion_code': '', 'chem_comp_id': 'AG7', 'alternate_conformers': 0, 'entity_id': 2, 'struct_asym_id': 'L', 'residue_number': 1, 'chem_comp_name': '4-{2-(4-FLUORO-BENZYL)-6-METHYL-5-[(5-METHYL-ISOXAZOLE-3-CARBONYL)-AMINO]-4-OXO-HEPTANOYLAMINO}-5-(2-OXO-PYRROLIDIN-3-YL)-PENTANOIC ACID ETHYL ESTER', 'weight': 600.678, 'carbohydrate_polymer': False, 'branch_name': ''}, {'chain_id': 'E', 'author_residue_number': 501, 'author_insertion_code': '', 'chem_comp_id': 'AG7', 'alternate_conformers': 0, 'entity_id': 2, 'struct_asym_id': 'M', 'residue_number': 1, 'chem_comp_name': '4-{2-(4-FLUORO-BENZYL)-6-METHYL-5-[(5-METHYL-ISOXAZOLE-3-CARBONYL)-AMINO]-4-OXO-HEPTANOYLAMINO}-5-(2-OXO-PYRROLIDIN-3-YL)-PENTANOIC ACID ETHYL ESTER', 'weight': 600.678, 'carbohydrate_polymer': False, 'branch_name': ''}, {'chain_id': 'F', 'author_residue_number': 501, 'author_insertion_code': '', 'chem_comp_id': 'AG7', 'alternate_conformers': 0, 'entity_id': 2, 'struct_asym_id': 'N', 'residue_number': 1, 'chem_comp_name': '4-{2-(4-FLUORO-BENZYL)-6-METHYL-5-[(5-METHYL-ISOXAZOLE-3-CARBONYL)-AMINO]-4-OXO-HEPTANOYLAMINO}-5-(2-OXO-PYRROLIDIN-3-YL)-PENTANOIC ACID ETHYL ESTER', 'weight': 600.678, 'carbohydrate_polymer': False, 'branch_name': ''}, {'chain_id': 'G', 'author_residue_number': 501, 'author_insertion_code': '', 'chem_comp_id': 'AG7', 'alternate_conformers': 0, 'entity_id': 2, 'struct_asym_id': 'O', 'residue_number': 1, 'chem_comp_name': '4-{2-(4-FLUORO-BENZYL)-6-METHYL-5-[(5-METHYL-ISOXAZOLE-3-CARBONYL)-AMINO]-4-OXO-HEPTANOYLAMINO}-5-(2-OXO-PYRROLIDIN-3-YL)-PENTANOIC ACID ETHYL ESTER', 'weight': 600.678, 'carbohydrate_polymer': False, 'branch_name': ''}, {'chain_id': 'H', 'author_residue_number': 501, 'author_insertion_code': '', 'chem_comp_id': 'AG7', 'alternate_conformers': 0, 'entity_id': 2, 'struct_asym_id': 'P', 'residue_number': 1, 'chem_comp_name': '4-{2-(4-FLUORO-BENZYL)-6-METHYL-5-[(5-METHYL-ISOXAZOLE-3-CARBONYL)-AMINO]-4-OXO-HEPTANOYLAMINO}-5-(2-OXO-PYRROLIDIN-3-YL)-PENTANOIC ACID ETHYL ESTER', 'weight': 600.678, 'carbohydrate_polymer': False, 'branch_name': ''}]

>  <ligand_codes>  (443) 
['AG7', 'AG7', 'AG7', 'AG7', 'AG7', 'AG7', 'AG7', 'AG7']

>  <cofactor_codes>  (443) 
[]

>  <has_cofactor>  (443) 
False

>  <covalent>  (443) 
True

>  <base_name>  (443) 
3SJO

>  <lig_resn>  (443) 
AG7

>  <lig_resi>  (443) 
501

>  <lig_chain>  (443) 
A

>  <lig_segi>  (443) 
I

>  <lig_alt>  (443) 


>  <polymer_chain>  (443) 
A

>  <single_smiles>  (443) 
CCOC(=O)CC[C@H](C[C@@H]1CCNC1=O)NC(=O)[C@@H](CC(=O)[C@@H](NC(=O)c2cc(C)on2)C(C)C)Cc3ccc(F)cc3

$$$$
AG7P8S6
     RDKit          3D

 16 16  0  0  0  0  0  0  0  0999 V2000
   -7.6950    9.9410  -33.7020 C   0  0  0  0  0  0  0  0  0  0  0  0
   -7.5680    9.8350  -32.1900 C   0  0  0  0  0  0  0  0  0  0  0  0
   -7.9440    8.6270  -34.4090 C   0  0  2  0  0  0  0  0  0  0  0  0
   -7.0030   11.1120  -31.5690 C   0  0  1  0  0  0  0  0  0  0  0  0
   -7.6890    8.6920  -35.9030 C   0  0  0  0  0  0  0  0  0  0  0  0
   -9.6990    8.3690  -34.0940 R   0  0  0  0  0  0  0  0  0  0  0  0
   -7.1160   11.2790  -30.0480 C   0  0  0  0  0  0  0  0  0  0  0  0
   -5.6150   11.5640  -31.9570 C   0  0  0  0  0  0  0  0  0  0  0  0
   -6.2280    8.9610  -36.2420 C   0  0  0  0  0  0  0  0  0  0  0  0
   -5.8140   11.8640  -29.5400 N   0  0  0  0  0  0  0  0  0  0  0  0
   -7.7570   10.3380  -29.3000 O   0  0  0  0  0  0  0  0  0  0  0  0
   -5.1080   12.3840  -30.7640 C   0  0  0  0  0  0  0  0  0  0  0  0
   -5.9130    9.9450  -37.0170 O   0  0  0  0  0  0  0  0  0  0  0  0
   -5.3400    8.4630  -35.5080 O   0  0  0  0  0  0  0  0  0  0  0  0
   -4.5540   10.2290  -37.2100 C   0  0  0  0  0  0  0  0  0  0  0  0
   -4.2040   11.6040  -37.7340 C   0  0  0  0  0  0  0  0  0  0  0  0
  1  2  1  6
  1  3  1  0
  4  2  1  1
  3  5  1  0
  3  6  1  6
  4  7  1  0
  4  8  1  0
  5  9  1  0
  7 10  1  0
  7 11  2  0
 12  8  1  0
  9 13  1  0
  9 14  2  0
 10 12  1  0
 13 15  1  0
 15 16  1  0
V    6 *
A    2
 C14
A    3
 C19
A    4
 C15
A    5
 C20
A    6
 X  
A    7
 C16
A    8
 C84
A    9
 C21
A   10
 N17
A   11
 O18
A   12
 C83
A   13
 O22
A   14
 O23
A   15
 C50
A   16
 C53
M  END
>  <XChem_code>  (444) 
AG7§8

>  <Occupancy>  (444) 
[1.0, 1.0, 1.0, 1.0, 1.0, 1.0, 1.0, 1.0, 1.0, 1.0, 1.0, 1.0, 1.0, 1.0, 1.0, 1.0, 1.0, 1.0, 1.0, 1.0, 1.0, 1.0, 1.0, 1.0, 1.0, 1.0, 1.0, 1.0, 1.0, 1.0, 1.0, 1.0, 1.0, 1.0, 1.0, 1.0, 1.0, 1.0, 1.0, 1.0, 1.0, 1.0, 1.0, 1.0]

>  <TempFactor>  (444) 
[18.81, 27.66, 18.42, 28.47, 31.3, 19.86, 18.0, 36.49, 33.82, 16.63, 29.4, 22.13, 22.68, 21.54, 23.87, 26.44, 24.22, 19.0, 15.21, 18.33, 16.27, 19.18, 19.0, 17.13, 14.73, 16.04, 18.83, 23.76, 19.63, 17.66, 18.54, 25.52, 26.09, 23.51, 21.61, 23.49, 26.81, 22.53, 27.37, 21.38, 21.53, 22.61, 16.29, 28.88]

>  <accession>  (444) 
3SJO_A

>  <description>  (444) 
Chain A, 3C protease [Enterovirus A71]

>  <evalue>  (444) 
1.0179e-70

>  <pdb_code>  (444) 
3SJO

>  <chain>  (444) 
A

>  <ligands>  (444) 
[{'chain_id': 'A', 'author_residue_number': 501, 'author_insertion_code': '', 'chem_comp_id': 'AG7', 'alternate_conformers': 0, 'entity_id': 2, 'struct_asym_id': 'I', 'residue_number': 1, 'chem_comp_name': '4-{2-(4-FLUORO-BENZYL)-6-METHYL-5-[(5-METHYL-ISOXAZOLE-3-CARBONYL)-AMINO]-4-OXO-HEPTANOYLAMINO}-5-(2-OXO-PYRROLIDIN-3-YL)-PENTANOIC ACID ETHYL ESTER', 'weight': 600.678, 'carbohydrate_polymer': False, 'branch_name': ''}, {'chain_id': 'B', 'author_residue_number': 501, 'author_insertion_code': '', 'chem_comp_id': 'AG7', 'alternate_conformers': 0, 'entity_id': 2, 'struct_asym_id': 'J', 'residue_number': 1, 'chem_comp_name': '4-{2-(4-FLUORO-BENZYL)-6-METHYL-5-[(5-METHYL-ISOXAZOLE-3-CARBONYL)-AMINO]-4-OXO-HEPTANOYLAMINO}-5-(2-OXO-PYRROLIDIN-3-YL)-PENTANOIC ACID ETHYL ESTER', 'weight': 600.678, 'carbohydrate_polymer': False, 'branch_name': ''}, {'chain_id': 'C', 'author_residue_number': 501, 'author_insertion_code': '', 'chem_comp_id': 'AG7', 'alternate_conformers': 0, 'entity_id': 2, 'struct_asym_id': 'K', 'residue_number': 1, 'chem_comp_name': '4-{2-(4-FLUORO-BENZYL)-6-METHYL-5-[(5-METHYL-ISOXAZOLE-3-CARBONYL)-AMINO]-4-OXO-HEPTANOYLAMINO}-5-(2-OXO-PYRROLIDIN-3-YL)-PENTANOIC ACID ETHYL ESTER', 'weight': 600.678, 'carbohydrate_polymer': False, 'branch_name': ''}, {'chain_id': 'D', 'author_residue_number': 501, 'author_insertion_code': '', 'chem_comp_id': 'AG7', 'alternate_conformers': 0, 'entity_id': 2, 'struct_asym_id': 'L', 'residue_number': 1, 'chem_comp_name': '4-{2-(4-FLUORO-BENZYL)-6-METHYL-5-[(5-METHYL-ISOXAZOLE-3-CARBONYL)-AMINO]-4-OXO-HEPTANOYLAMINO}-5-(2-OXO-PYRROLIDIN-3-YL)-PENTANOIC ACID ETHYL ESTER', 'weight': 600.678, 'carbohydrate_polymer': False, 'branch_name': ''}, {'chain_id': 'E', 'author_residue_number': 501, 'author_insertion_code': '', 'chem_comp_id': 'AG7', 'alternate_conformers': 0, 'entity_id': 2, 'struct_asym_id': 'M', 'residue_number': 1, 'chem_comp_name': '4-{2-(4-FLUORO-BENZYL)-6-METHYL-5-[(5-METHYL-ISOXAZOLE-3-CARBONYL)-AMINO]-4-OXO-HEPTANOYLAMINO}-5-(2-OXO-PYRROLIDIN-3-YL)-PENTANOIC ACID ETHYL ESTER', 'weight': 600.678, 'carbohydrate_polymer': False, 'branch_name': ''}, {'chain_id': 'F', 'author_residue_number': 501, 'author_insertion_code': '', 'chem_comp_id': 'AG7', 'alternate_conformers': 0, 'entity_id': 2, 'struct_asym_id': 'N', 'residue_number': 1, 'chem_comp_name': '4-{2-(4-FLUORO-BENZYL)-6-METHYL-5-[(5-METHYL-ISOXAZOLE-3-CARBONYL)-AMINO]-4-OXO-HEPTANOYLAMINO}-5-(2-OXO-PYRROLIDIN-3-YL)-PENTANOIC ACID ETHYL ESTER', 'weight': 600.678, 'carbohydrate_polymer': False, 'branch_name': ''}, {'chain_id': 'G', 'author_residue_number': 501, 'author_insertion_code': '', 'chem_comp_id': 'AG7', 'alternate_conformers': 0, 'entity_id': 2, 'struct_asym_id': 'O', 'residue_number': 1, 'chem_comp_name': '4-{2-(4-FLUORO-BENZYL)-6-METHYL-5-[(5-METHYL-ISOXAZOLE-3-CARBONYL)-AMINO]-4-OXO-HEPTANOYLAMINO}-5-(2-OXO-PYRROLIDIN-3-YL)-PENTANOIC ACID ETHYL ESTER', 'weight': 600.678, 'carbohydrate_polymer': False, 'branch_name': ''}, {'chain_id': 'H', 'author_residue_number': 501, 'author_insertion_code': '', 'chem_comp_id': 'AG7', 'alternate_conformers': 0, 'entity_id': 2, 'struct_asym_id': 'P', 'residue_number': 1, 'chem_comp_name': '4-{2-(4-FLUORO-BENZYL)-6-METHYL-5-[(5-METHYL-ISOXAZOLE-3-CARBONYL)-AMINO]-4-OXO-HEPTANOYLAMINO}-5-(2-OXO-PYRROLIDIN-3-YL)-PENTANOIC ACID ETHYL ESTER', 'weight': 600.678, 'carbohydrate_polymer': False, 'branch_name': ''}]

>  <ligand_codes>  (444) 
['AG7', 'AG7', 'AG7', 'AG7', 'AG7', 'AG7', 'AG7', 'AG7']

>  <cofactor_codes>  (444) 
[]

>  <has_cofactor>  (444) 
False

>  <covalent>  (444) 
True

>  <base_name>  (444) 
3SJO

>  <lig_resn>  (444) 
AG7

>  <lig_resi>  (444) 
501

>  <lig_chain>  (444) 
A

>  <lig_segi>  (444) 
I

>  <lig_alt>  (444) 


>  <polymer_chain>  (444) 
A

>  <single_smiles>  (444) 
CCOC(=O)CC[C@H](C[C@@H]1CCNC1=O)NC(=O)[C@@H](CC(=O)[C@@H](NC(=O)c2cc(C)on2)C(C)C)Cc3ccc(F)cc3

$$$$
AG7P8S7
     RDKit          3D

 28 29  0  0  0  0  0  0  0  0999 V2000
   -8.6690   10.9670  -34.0900 N   0  0  0  0  0  0  0  0  0  0  0  0
   -8.2190   12.1920  -34.7470 C   0  0  0  0  0  0  0  0  0  0  0  0
   -9.2650   13.0870  -35.4210 C   0  0  1  0  0  0  0  0  0  0  0  0
   -7.0310   12.4100  -34.8930 O   0  0  0  0  0  0  0  0  0  0  0  0
   -9.1250   14.5600  -35.0710 C   0  0  0  0  0  0  0  0  0  0  0  0
   -9.4060   12.8260  -36.9090 C   0  0  0  0  0  0  0  0  0  0  0  0
   -8.7340   14.8750  -33.6330 C   0  0  0  0  0  0  0  0  0  0  0  0
  -10.4680   13.6500  -37.5900 C   0  0  0  0  0  0  0  0  0  0  0  0
   -8.9120   14.0500  -32.7640 O   0  0  0  0  0  0  0  0  0  0  0  0
   -8.3660   16.3160  -33.2440 C   0  0  1  0  0  0  0  0  0  0  0  0
  -11.8920   13.3740  -37.3060 C   0  0  0  0  0  0  0  0  0  0  0  0
  -10.0960   14.6950  -38.4660 C   0  0  0  0  0  0  0  0  0  0  0  0
   -8.7350   16.6450  -31.8730 N   0  0  0  0  0  0  0  0  0  0  0  0
   -6.9450   16.7440  -33.5590 C   0  0  0  0  0  0  0  0  0  0  0  0
  -12.9410   14.1870  -37.9670 C   0  0  0  0  0  0  0  0  0  0  0  0
  -11.1310   15.5040  -39.1190 C   0  0  0  0  0  0  0  0  0  0  0  0
   -9.7620   17.6260  -31.5940 C   0  0  0  0  0  0  0  0  0  0  0  0
   -6.7430   18.1960  -33.2420 C   0  0  0  0  0  0  0  0  0  0  0  0
   -5.9160   15.8690  -32.9170 C   0  0  0  0  0  0  0  0  0  0  0  0
  -12.5760   15.2200  -38.8370 C   0  0  0  0  0  0  0  0  0  0  0  0
  -10.1690   17.8670  -30.1510 C   0  0  0  0  0  0  0  0  0  0  0  0
  -10.2070   18.3220  -32.4960 O   0  0  0  0  0  0  0  0  0  0  0  0
  -13.5230   15.9340  -39.4430 F   0  0  0  0  0  0  0  0  0  0  0  0
  -11.1420   18.9430  -29.6030 C   0  0  0  0  0  0  0  0  0  0  0  0
   -9.7110   17.1440  -29.0800 N   0  0  0  0  0  0  0  0  0  0  0  0
  -11.1970   18.7860  -28.1620 C   0  0  0  0  0  0  0  0  0  0  0  0
  -10.3350   17.7020  -27.7930 O   0  0  0  0  0  0  0  0  0  0  0  0
  -12.0110   19.6150  -27.2080 C   0  0  0  0  0  0  0  0  0  0  0  0
  1  2  1  0
  3  2  1  0
  2  4  2  0
  3  5  1  6
  3  6  1  0
  7  5  1  0
  6  8  1  0
  7  9  2  0
  7 10  1  0
  8 11  2  0
  8 12  1  0
 10 13  1  1
 10 14  1  0
 11 15  1  0
 16 12  2  0
 13 17  1  0
 14 18  1  0
 14 19  1  0
 15 20  2  0
 20 16  1  0
 21 17  1  0
 17 22  2  0
 20 23  1  0
 21 24  1  0
 21 25  2  0
 24 26  2  0
 27 25  1  0
 26 28  1  0
 26 27  1  0
A    2
 C47
A    3
 C04
A    4
 O48
A    5
 C02
A    6
 C05
A    7
 C01
A    8
 C06
A    9
 O03
A   10
 C57
A   11
 C07
A   12
 C11
A   13
 N58
A   14
 C78
A   15
 C08
A   16
 C10
A   17
 C59
A   18
 C81
A   19
 C82
A   20
 C09
A   21
 C1 
A   22
 O60
A   23
 F1 
A   24
 C2 
A   25
 N5 
A   26
 C3 
A   27
 O4 
A   28
 C4 
M  END
>  <XChem_code>  (445) 
AG7§8

>  <Occupancy>  (445) 
[1.0, 1.0, 1.0, 1.0, 1.0, 1.0, 1.0, 1.0, 1.0, 1.0, 1.0, 1.0, 1.0, 1.0, 1.0, 1.0, 1.0, 1.0, 1.0, 1.0, 1.0, 1.0, 1.0, 1.0, 1.0, 1.0, 1.0, 1.0, 1.0, 1.0, 1.0, 1.0, 1.0, 1.0, 1.0, 1.0, 1.0, 1.0, 1.0, 1.0, 1.0, 1.0, 1.0, 1.0]

>  <TempFactor>  (445) 
[18.81, 27.66, 18.42, 28.47, 31.3, 19.86, 18.0, 36.49, 33.82, 16.63, 29.4, 22.13, 22.68, 21.54, 23.87, 26.44, 24.22, 19.0, 15.21, 18.33, 16.27, 19.18, 19.0, 17.13, 14.73, 16.04, 18.83, 23.76, 19.63, 17.66, 18.54, 25.52, 26.09, 23.51, 21.61, 23.49, 26.81, 22.53, 27.37, 21.38, 21.53, 22.61, 16.29, 28.88]

>  <accession>  (445) 
3SJO_A

>  <description>  (445) 
Chain A, 3C protease [Enterovirus A71]

>  <evalue>  (445) 
1.0179e-70

>  <pdb_code>  (445) 
3SJO

>  <chain>  (445) 
A

>  <ligands>  (445) 
[{'chain_id': 'A', 'author_residue_number': 501, 'author_insertion_code': '', 'chem_comp_id': 'AG7', 'alternate_conformers': 0, 'entity_id': 2, 'struct_asym_id': 'I', 'residue_number': 1, 'chem_comp_name': '4-{2-(4-FLUORO-BENZYL)-6-METHYL-5-[(5-METHYL-ISOXAZOLE-3-CARBONYL)-AMINO]-4-OXO-HEPTANOYLAMINO}-5-(2-OXO-PYRROLIDIN-3-YL)-PENTANOIC ACID ETHYL ESTER', 'weight': 600.678, 'carbohydrate_polymer': False, 'branch_name': ''}, {'chain_id': 'B', 'author_residue_number': 501, 'author_insertion_code': '', 'chem_comp_id': 'AG7', 'alternate_conformers': 0, 'entity_id': 2, 'struct_asym_id': 'J', 'residue_number': 1, 'chem_comp_name': '4-{2-(4-FLUORO-BENZYL)-6-METHYL-5-[(5-METHYL-ISOXAZOLE-3-CARBONYL)-AMINO]-4-OXO-HEPTANOYLAMINO}-5-(2-OXO-PYRROLIDIN-3-YL)-PENTANOIC ACID ETHYL ESTER', 'weight': 600.678, 'carbohydrate_polymer': False, 'branch_name': ''}, {'chain_id': 'C', 'author_residue_number': 501, 'author_insertion_code': '', 'chem_comp_id': 'AG7', 'alternate_conformers': 0, 'entity_id': 2, 'struct_asym_id': 'K', 'residue_number': 1, 'chem_comp_name': '4-{2-(4-FLUORO-BENZYL)-6-METHYL-5-[(5-METHYL-ISOXAZOLE-3-CARBONYL)-AMINO]-4-OXO-HEPTANOYLAMINO}-5-(2-OXO-PYRROLIDIN-3-YL)-PENTANOIC ACID ETHYL ESTER', 'weight': 600.678, 'carbohydrate_polymer': False, 'branch_name': ''}, {'chain_id': 'D', 'author_residue_number': 501, 'author_insertion_code': '', 'chem_comp_id': 'AG7', 'alternate_conformers': 0, 'entity_id': 2, 'struct_asym_id': 'L', 'residue_number': 1, 'chem_comp_name': '4-{2-(4-FLUORO-BENZYL)-6-METHYL-5-[(5-METHYL-ISOXAZOLE-3-CARBONYL)-AMINO]-4-OXO-HEPTANOYLAMINO}-5-(2-OXO-PYRROLIDIN-3-YL)-PENTANOIC ACID ETHYL ESTER', 'weight': 600.678, 'carbohydrate_polymer': False, 'branch_name': ''}, {'chain_id': 'E', 'author_residue_number': 501, 'author_insertion_code': '', 'chem_comp_id': 'AG7', 'alternate_conformers': 0, 'entity_id': 2, 'struct_asym_id': 'M', 'residue_number': 1, 'chem_comp_name': '4-{2-(4-FLUORO-BENZYL)-6-METHYL-5-[(5-METHYL-ISOXAZOLE-3-CARBONYL)-AMINO]-4-OXO-HEPTANOYLAMINO}-5-(2-OXO-PYRROLIDIN-3-YL)-PENTANOIC ACID ETHYL ESTER', 'weight': 600.678, 'carbohydrate_polymer': False, 'branch_name': ''}, {'chain_id': 'F', 'author_residue_number': 501, 'author_insertion_code': '', 'chem_comp_id': 'AG7', 'alternate_conformers': 0, 'entity_id': 2, 'struct_asym_id': 'N', 'residue_number': 1, 'chem_comp_name': '4-{2-(4-FLUORO-BENZYL)-6-METHYL-5-[(5-METHYL-ISOXAZOLE-3-CARBONYL)-AMINO]-4-OXO-HEPTANOYLAMINO}-5-(2-OXO-PYRROLIDIN-3-YL)-PENTANOIC ACID ETHYL ESTER', 'weight': 600.678, 'carbohydrate_polymer': False, 'branch_name': ''}, {'chain_id': 'G', 'author_residue_number': 501, 'author_insertion_code': '', 'chem_comp_id': 'AG7', 'alternate_conformers': 0, 'entity_id': 2, 'struct_asym_id': 'O', 'residue_number': 1, 'chem_comp_name': '4-{2-(4-FLUORO-BENZYL)-6-METHYL-5-[(5-METHYL-ISOXAZOLE-3-CARBONYL)-AMINO]-4-OXO-HEPTANOYLAMINO}-5-(2-OXO-PYRROLIDIN-3-YL)-PENTANOIC ACID ETHYL ESTER', 'weight': 600.678, 'carbohydrate_polymer': False, 'branch_name': ''}, {'chain_id': 'H', 'author_residue_number': 501, 'author_insertion_code': '', 'chem_comp_id': 'AG7', 'alternate_conformers': 0, 'entity_id': 2, 'struct_asym_id': 'P', 'residue_number': 1, 'chem_comp_name': '4-{2-(4-FLUORO-BENZYL)-6-METHYL-5-[(5-METHYL-ISOXAZOLE-3-CARBONYL)-AMINO]-4-OXO-HEPTANOYLAMINO}-5-(2-OXO-PYRROLIDIN-3-YL)-PENTANOIC ACID ETHYL ESTER', 'weight': 600.678, 'carbohydrate_polymer': False, 'branch_name': ''}]

>  <ligand_codes>  (445) 
['AG7', 'AG7', 'AG7', 'AG7', 'AG7', 'AG7', 'AG7', 'AG7']

>  <cofactor_codes>  (445) 
[]

>  <has_cofactor>  (445) 
False

>  <covalent>  (445) 
True

>  <base_name>  (445) 
3SJO

>  <lig_resn>  (445) 
AG7

>  <lig_resi>  (445) 
501

>  <lig_chain>  (445) 
A

>  <lig_segi>  (445) 
I

>  <lig_alt>  (445) 


>  <polymer_chain>  (445) 
A

>  <single_smiles>  (445) 
CCOC(=O)CC[C@H](C[C@@H]1CCNC1=O)NC(=O)[C@@H](CC(=O)[C@@H](NC(=O)c2cc(C)on2)C(C)C)Cc3ccc(F)cc3

$$$$
AG7P8S8
     RDKit          3D

  9  9  0  0  0  0  0  0  0  0999 V2000
   -8.7350   16.6450  -31.8730 N   0  0  0  0  0  0  0  0  0  0  0  0
   -9.7620   17.6260  -31.5940 C   0  0  0  0  0  0  0  0  0  0  0  0
  -10.1690   17.8670  -30.1510 C   0  0  0  0  0  0  0  0  0  0  0  0
  -10.2070   18.3220  -32.4960 O   0  0  0  0  0  0  0  0  0  0  0  0
  -11.1420   18.9430  -29.6030 C   0  0  0  0  0  0  0  0  0  0  0  0
   -9.7110   17.1440  -29.0800 N   0  0  0  0  0  0  0  0  0  0  0  0
  -11.1970   18.7860  -28.1620 C   0  0  0  0  0  0  0  0  0  0  0  0
  -10.3350   17.7020  -27.7930 O   0  0  0  0  0  0  0  0  0  0  0  0
  -12.0110   19.6150  -27.2080 C   0  0  0  0  0  0  0  0  0  0  0  0
  1  2  1  0
  3  2  1  0
  2  4  2  0
  3  5  1  0
  3  6  2  0
  5  7  2  0
  8  6  1  0
  7  9  1  0
  7  8  1  0
A    2
 C59
A    3
 C1 
A    4
 O60
A    5
 C2 
A    6
 N5 
A    7
 C3 
A    8
 O4 
A    9
 C4 
M  END
>  <XChem_code>  (446) 
AG7§8

>  <Occupancy>  (446) 
[1.0, 1.0, 1.0, 1.0, 1.0, 1.0, 1.0, 1.0, 1.0, 1.0, 1.0, 1.0, 1.0, 1.0, 1.0, 1.0, 1.0, 1.0, 1.0, 1.0, 1.0, 1.0, 1.0, 1.0, 1.0, 1.0, 1.0, 1.0, 1.0, 1.0, 1.0, 1.0, 1.0, 1.0, 1.0, 1.0, 1.0, 1.0, 1.0, 1.0, 1.0, 1.0, 1.0, 1.0]

>  <TempFactor>  (446) 
[18.81, 27.66, 18.42, 28.47, 31.3, 19.86, 18.0, 36.49, 33.82, 16.63, 29.4, 22.13, 22.68, 21.54, 23.87, 26.44, 24.22, 19.0, 15.21, 18.33, 16.27, 19.18, 19.0, 17.13, 14.73, 16.04, 18.83, 23.76, 19.63, 17.66, 18.54, 25.52, 26.09, 23.51, 21.61, 23.49, 26.81, 22.53, 27.37, 21.38, 21.53, 22.61, 16.29, 28.88]

>  <accession>  (446) 
3SJO_A

>  <description>  (446) 
Chain A, 3C protease [Enterovirus A71]

>  <evalue>  (446) 
1.0179e-70

>  <pdb_code>  (446) 
3SJO

>  <chain>  (446) 
A

>  <ligands>  (446) 
[{'chain_id': 'A', 'author_residue_number': 501, 'author_insertion_code': '', 'chem_comp_id': 'AG7', 'alternate_conformers': 0, 'entity_id': 2, 'struct_asym_id': 'I', 'residue_number': 1, 'chem_comp_name': '4-{2-(4-FLUORO-BENZYL)-6-METHYL-5-[(5-METHYL-ISOXAZOLE-3-CARBONYL)-AMINO]-4-OXO-HEPTANOYLAMINO}-5-(2-OXO-PYRROLIDIN-3-YL)-PENTANOIC ACID ETHYL ESTER', 'weight': 600.678, 'carbohydrate_polymer': False, 'branch_name': ''}, {'chain_id': 'B', 'author_residue_number': 501, 'author_insertion_code': '', 'chem_comp_id': 'AG7', 'alternate_conformers': 0, 'entity_id': 2, 'struct_asym_id': 'J', 'residue_number': 1, 'chem_comp_name': '4-{2-(4-FLUORO-BENZYL)-6-METHYL-5-[(5-METHYL-ISOXAZOLE-3-CARBONYL)-AMINO]-4-OXO-HEPTANOYLAMINO}-5-(2-OXO-PYRROLIDIN-3-YL)-PENTANOIC ACID ETHYL ESTER', 'weight': 600.678, 'carbohydrate_polymer': False, 'branch_name': ''}, {'chain_id': 'C', 'author_residue_number': 501, 'author_insertion_code': '', 'chem_comp_id': 'AG7', 'alternate_conformers': 0, 'entity_id': 2, 'struct_asym_id': 'K', 'residue_number': 1, 'chem_comp_name': '4-{2-(4-FLUORO-BENZYL)-6-METHYL-5-[(5-METHYL-ISOXAZOLE-3-CARBONYL)-AMINO]-4-OXO-HEPTANOYLAMINO}-5-(2-OXO-PYRROLIDIN-3-YL)-PENTANOIC ACID ETHYL ESTER', 'weight': 600.678, 'carbohydrate_polymer': False, 'branch_name': ''}, {'chain_id': 'D', 'author_residue_number': 501, 'author_insertion_code': '', 'chem_comp_id': 'AG7', 'alternate_conformers': 0, 'entity_id': 2, 'struct_asym_id': 'L', 'residue_number': 1, 'chem_comp_name': '4-{2-(4-FLUORO-BENZYL)-6-METHYL-5-[(5-METHYL-ISOXAZOLE-3-CARBONYL)-AMINO]-4-OXO-HEPTANOYLAMINO}-5-(2-OXO-PYRROLIDIN-3-YL)-PENTANOIC ACID ETHYL ESTER', 'weight': 600.678, 'carbohydrate_polymer': False, 'branch_name': ''}, {'chain_id': 'E', 'author_residue_number': 501, 'author_insertion_code': '', 'chem_comp_id': 'AG7', 'alternate_conformers': 0, 'entity_id': 2, 'struct_asym_id': 'M', 'residue_number': 1, 'chem_comp_name': '4-{2-(4-FLUORO-BENZYL)-6-METHYL-5-[(5-METHYL-ISOXAZOLE-3-CARBONYL)-AMINO]-4-OXO-HEPTANOYLAMINO}-5-(2-OXO-PYRROLIDIN-3-YL)-PENTANOIC ACID ETHYL ESTER', 'weight': 600.678, 'carbohydrate_polymer': False, 'branch_name': ''}, {'chain_id': 'F', 'author_residue_number': 501, 'author_insertion_code': '', 'chem_comp_id': 'AG7', 'alternate_conformers': 0, 'entity_id': 2, 'struct_asym_id': 'N', 'residue_number': 1, 'chem_comp_name': '4-{2-(4-FLUORO-BENZYL)-6-METHYL-5-[(5-METHYL-ISOXAZOLE-3-CARBONYL)-AMINO]-4-OXO-HEPTANOYLAMINO}-5-(2-OXO-PYRROLIDIN-3-YL)-PENTANOIC ACID ETHYL ESTER', 'weight': 600.678, 'carbohydrate_polymer': False, 'branch_name': ''}, {'chain_id': 'G', 'author_residue_number': 501, 'author_insertion_code': '', 'chem_comp_id': 'AG7', 'alternate_conformers': 0, 'entity_id': 2, 'struct_asym_id': 'O', 'residue_number': 1, 'chem_comp_name': '4-{2-(4-FLUORO-BENZYL)-6-METHYL-5-[(5-METHYL-ISOXAZOLE-3-CARBONYL)-AMINO]-4-OXO-HEPTANOYLAMINO}-5-(2-OXO-PYRROLIDIN-3-YL)-PENTANOIC ACID ETHYL ESTER', 'weight': 600.678, 'carbohydrate_polymer': False, 'branch_name': ''}, {'chain_id': 'H', 'author_residue_number': 501, 'author_insertion_code': '', 'chem_comp_id': 'AG7', 'alternate_conformers': 0, 'entity_id': 2, 'struct_asym_id': 'P', 'residue_number': 1, 'chem_comp_name': '4-{2-(4-FLUORO-BENZYL)-6-METHYL-5-[(5-METHYL-ISOXAZOLE-3-CARBONYL)-AMINO]-4-OXO-HEPTANOYLAMINO}-5-(2-OXO-PYRROLIDIN-3-YL)-PENTANOIC ACID ETHYL ESTER', 'weight': 600.678, 'carbohydrate_polymer': False, 'branch_name': ''}]

>  <ligand_codes>  (446) 
['AG7', 'AG7', 'AG7', 'AG7', 'AG7', 'AG7', 'AG7', 'AG7']

>  <cofactor_codes>  (446) 
[]

>  <has_cofactor>  (446) 
False

>  <covalent>  (446) 
True

>  <base_name>  (446) 
3SJO

>  <lig_resn>  (446) 
AG7

>  <lig_resi>  (446) 
501

>  <lig_chain>  (446) 
A

>  <lig_segi>  (446) 
I

>  <lig_alt>  (446) 


>  <polymer_chain>  (446) 
A

>  <single_smiles>  (446) 
CCOC(=O)CC[C@H](C[C@@H]1CCNC1=O)NC(=O)[C@@H](CC(=O)[C@@H](NC(=O)c2cc(C)on2)C(C)C)Cc3ccc(F)cc3

$$$$
AG7P8S9
     RDKit          3D

 35 36  0  0  0  0  0  0  0  0999 V2000
   -8.3660   16.3160  -33.2440 C   0  0  0  0  0  0  0  0  0  0  0  0
   -8.7340   14.8750  -33.6330 C   0  0  0  0  0  0  0  0  0  0  0  0
   -6.9450   16.7440  -33.5590 C   0  0  0  0  0  0  0  0  0  0  0  0
   -9.1250   14.5600  -35.0710 C   0  0  0  0  0  0  0  0  0  0  0  0
   -8.9120   14.0500  -32.7640 O   0  0  0  0  0  0  0  0  0  0  0  0
   -6.7430   18.1960  -33.2420 C   0  0  0  0  0  0  0  0  0  0  0  0
   -5.9160   15.8690  -32.9170 C   0  0  0  0  0  0  0  0  0  0  0  0
   -9.2650   13.0870  -35.4210 C   0  0  1  0  0  0  0  0  0  0  0  0
   -9.4060   12.8260  -36.9090 C   0  0  0  0  0  0  0  0  0  0  0  0
   -8.2190   12.1920  -34.7470 C   0  0  0  0  0  0  0  0  0  0  0  0
  -10.4680   13.6500  -37.5900 C   0  0  0  0  0  0  0  0  0  0  0  0
   -8.6690   10.9670  -34.0900 N   0  0  0  0  0  0  0  0  0  0  0  0
   -7.0310   12.4100  -34.8930 O   0  0  0  0  0  0  0  0  0  0  0  0
  -11.8920   13.3740  -37.3060 C   0  0  0  0  0  0  0  0  0  0  0  0
  -10.0960   14.6950  -38.4660 C   0  0  0  0  0  0  0  0  0  0  0  0
   -7.6950    9.9410  -33.7020 C   0  0  1  0  0  0  0  0  0  0  0  0
  -12.9410   14.1870  -37.9670 C   0  0  0  0  0  0  0  0  0  0  0  0
  -11.1310   15.5040  -39.1190 C   0  0  0  0  0  0  0  0  0  0  0  0
   -7.5680    9.8350  -32.1900 C   0  0  0  0  0  0  0  0  0  0  0  0
   -7.9440    8.6270  -34.4090 C   0  0  2  0  0  0  0  0  0  0  0  0
  -12.5760   15.2200  -38.8370 C   0  0  0  0  0  0  0  0  0  0  0  0
   -7.0030   11.1120  -31.5690 C   0  0  1  0  0  0  0  0  0  0  0  0
   -7.6890    8.6920  -35.9030 C   0  0  0  0  0  0  0  0  0  0  0  0
   -9.6990    8.3690  -34.0940 R   0  0  0  0  0  0  0  0  0  0  0  0
  -13.5230   15.9340  -39.4430 F   0  0  0  0  0  0  0  0  0  0  0  0
   -7.1160   11.2790  -30.0480 C   0  0  0  0  0  0  0  0  0  0  0  0
   -5.6150   11.5640  -31.9570 C   0  0  0  0  0  0  0  0  0  0  0  0
   -6.2280    8.9610  -36.2420 C   0  0  0  0  0  0  0  0  0  0  0  0
   -5.8140   11.8640  -29.5400 N   0  0  0  0  0  0  0  0  0  0  0  0
   -7.7570   10.3380  -29.3000 O   0  0  0  0  0  0  0  0  0  0  0  0
   -5.1080   12.3840  -30.7640 C   0  0  0  0  0  0  0  0  0  0  0  0
   -5.9130    9.9450  -37.0170 O   0  0  0  0  0  0  0  0  0  0  0  0
   -5.3400    8.4630  -35.5080 O   0  0  0  0  0  0  0  0  0  0  0  0
   -4.5540   10.2290  -37.2100 C   0  0  0  0  0  0  0  0  0  0  0  0
   -4.2040   11.6040  -37.7340 C   0  0  0  0  0  0  0  0  0  0  0  0
  2  1  1  0
  1  3  1  6
  2  4  1  0
  2  5  2  0
  3  6  1  0
  3  7  1  0
  8  4  1  6
  8  9  1  0
  8 10  1  0
  9 11  1  0
 12 10  1  0
 10 13  2  0
 11 14  2  0
 11 15  1  0
 12 16  1  0
 14 17  1  0
 18 15  2  0
 16 19  1  1
 16 20  1  0
 17 21  2  0
 21 18  1  0
 22 19  1  1
 20 23  1  0
 20 24  1  6
 21 25  1  0
 22 26  1  0
 22 27  1  0
 23 28  1  0
 26 29  1  0
 26 30  2  0
 31 27  1  0
 28 32  1  0
 28 33  2  0
 29 31  1  0
 32 34  1  0
 34 35  1  0
V   24 *
A    2
 C01
A    3
 C78
A    4
 C02
A    5
 O03
A    6
 C81
A    7
 C82
A    8
 C04
A    9
 C05
A   10
 C47
A   11
 C06
A   12
 N12
A   13
 O48
A   14
 C07
A   15
 C11
A   16
 C13
A   17
 C08
A   18
 C10
A   19
 C14
A   20
 C19
A   21
 C09
A   22
 C15
A   23
 C20
A   24
 X  
A   25
 F1 
A   26
 C16
A   27
 C84
A   28
 C21
A   29
 N17
A   30
 O18
A   31
 C83
A   32
 O22
A   33
 O23
A   34
 C50
A   35
 C53
M  END
>  <XChem_code>  (447) 
AG7§8

>  <Occupancy>  (447) 
[1.0, 1.0, 1.0, 1.0, 1.0, 1.0, 1.0, 1.0, 1.0, 1.0, 1.0, 1.0, 1.0, 1.0, 1.0, 1.0, 1.0, 1.0, 1.0, 1.0, 1.0, 1.0, 1.0, 1.0, 1.0, 1.0, 1.0, 1.0, 1.0, 1.0, 1.0, 1.0, 1.0, 1.0, 1.0, 1.0, 1.0, 1.0, 1.0, 1.0, 1.0, 1.0, 1.0, 1.0]

>  <TempFactor>  (447) 
[18.81, 27.66, 18.42, 28.47, 31.3, 19.86, 18.0, 36.49, 33.82, 16.63, 29.4, 22.13, 22.68, 21.54, 23.87, 26.44, 24.22, 19.0, 15.21, 18.33, 16.27, 19.18, 19.0, 17.13, 14.73, 16.04, 18.83, 23.76, 19.63, 17.66, 18.54, 25.52, 26.09, 23.51, 21.61, 23.49, 26.81, 22.53, 27.37, 21.38, 21.53, 22.61, 16.29, 28.88]

>  <accession>  (447) 
3SJO_A

>  <description>  (447) 
Chain A, 3C protease [Enterovirus A71]

>  <evalue>  (447) 
1.0179e-70

>  <pdb_code>  (447) 
3SJO

>  <chain>  (447) 
A

>  <ligands>  (447) 
[{'chain_id': 'A', 'author_residue_number': 501, 'author_insertion_code': '', 'chem_comp_id': 'AG7', 'alternate_conformers': 0, 'entity_id': 2, 'struct_asym_id': 'I', 'residue_number': 1, 'chem_comp_name': '4-{2-(4-FLUORO-BENZYL)-6-METHYL-5-[(5-METHYL-ISOXAZOLE-3-CARBONYL)-AMINO]-4-OXO-HEPTANOYLAMINO}-5-(2-OXO-PYRROLIDIN-3-YL)-PENTANOIC ACID ETHYL ESTER', 'weight': 600.678, 'carbohydrate_polymer': False, 'branch_name': ''}, {'chain_id': 'B', 'author_residue_number': 501, 'author_insertion_code': '', 'chem_comp_id': 'AG7', 'alternate_conformers': 0, 'entity_id': 2, 'struct_asym_id': 'J', 'residue_number': 1, 'chem_comp_name': '4-{2-(4-FLUORO-BENZYL)-6-METHYL-5-[(5-METHYL-ISOXAZOLE-3-CARBONYL)-AMINO]-4-OXO-HEPTANOYLAMINO}-5-(2-OXO-PYRROLIDIN-3-YL)-PENTANOIC ACID ETHYL ESTER', 'weight': 600.678, 'carbohydrate_polymer': False, 'branch_name': ''}, {'chain_id': 'C', 'author_residue_number': 501, 'author_insertion_code': '', 'chem_comp_id': 'AG7', 'alternate_conformers': 0, 'entity_id': 2, 'struct_asym_id': 'K', 'residue_number': 1, 'chem_comp_name': '4-{2-(4-FLUORO-BENZYL)-6-METHYL-5-[(5-METHYL-ISOXAZOLE-3-CARBONYL)-AMINO]-4-OXO-HEPTANOYLAMINO}-5-(2-OXO-PYRROLIDIN-3-YL)-PENTANOIC ACID ETHYL ESTER', 'weight': 600.678, 'carbohydrate_polymer': False, 'branch_name': ''}, {'chain_id': 'D', 'author_residue_number': 501, 'author_insertion_code': '', 'chem_comp_id': 'AG7', 'alternate_conformers': 0, 'entity_id': 2, 'struct_asym_id': 'L', 'residue_number': 1, 'chem_comp_name': '4-{2-(4-FLUORO-BENZYL)-6-METHYL-5-[(5-METHYL-ISOXAZOLE-3-CARBONYL)-AMINO]-4-OXO-HEPTANOYLAMINO}-5-(2-OXO-PYRROLIDIN-3-YL)-PENTANOIC ACID ETHYL ESTER', 'weight': 600.678, 'carbohydrate_polymer': False, 'branch_name': ''}, {'chain_id': 'E', 'author_residue_number': 501, 'author_insertion_code': '', 'chem_comp_id': 'AG7', 'alternate_conformers': 0, 'entity_id': 2, 'struct_asym_id': 'M', 'residue_number': 1, 'chem_comp_name': '4-{2-(4-FLUORO-BENZYL)-6-METHYL-5-[(5-METHYL-ISOXAZOLE-3-CARBONYL)-AMINO]-4-OXO-HEPTANOYLAMINO}-5-(2-OXO-PYRROLIDIN-3-YL)-PENTANOIC ACID ETHYL ESTER', 'weight': 600.678, 'carbohydrate_polymer': False, 'branch_name': ''}, {'chain_id': 'F', 'author_residue_number': 501, 'author_insertion_code': '', 'chem_comp_id': 'AG7', 'alternate_conformers': 0, 'entity_id': 2, 'struct_asym_id': 'N', 'residue_number': 1, 'chem_comp_name': '4-{2-(4-FLUORO-BENZYL)-6-METHYL-5-[(5-METHYL-ISOXAZOLE-3-CARBONYL)-AMINO]-4-OXO-HEPTANOYLAMINO}-5-(2-OXO-PYRROLIDIN-3-YL)-PENTANOIC ACID ETHYL ESTER', 'weight': 600.678, 'carbohydrate_polymer': False, 'branch_name': ''}, {'chain_id': 'G', 'author_residue_number': 501, 'author_insertion_code': '', 'chem_comp_id': 'AG7', 'alternate_conformers': 0, 'entity_id': 2, 'struct_asym_id': 'O', 'residue_number': 1, 'chem_comp_name': '4-{2-(4-FLUORO-BENZYL)-6-METHYL-5-[(5-METHYL-ISOXAZOLE-3-CARBONYL)-AMINO]-4-OXO-HEPTANOYLAMINO}-5-(2-OXO-PYRROLIDIN-3-YL)-PENTANOIC ACID ETHYL ESTER', 'weight': 600.678, 'carbohydrate_polymer': False, 'branch_name': ''}, {'chain_id': 'H', 'author_residue_number': 501, 'author_insertion_code': '', 'chem_comp_id': 'AG7', 'alternate_conformers': 0, 'entity_id': 2, 'struct_asym_id': 'P', 'residue_number': 1, 'chem_comp_name': '4-{2-(4-FLUORO-BENZYL)-6-METHYL-5-[(5-METHYL-ISOXAZOLE-3-CARBONYL)-AMINO]-4-OXO-HEPTANOYLAMINO}-5-(2-OXO-PYRROLIDIN-3-YL)-PENTANOIC ACID ETHYL ESTER', 'weight': 600.678, 'carbohydrate_polymer': False, 'branch_name': ''}]

>  <ligand_codes>  (447) 
['AG7', 'AG7', 'AG7', 'AG7', 'AG7', 'AG7', 'AG7', 'AG7']

>  <cofactor_codes>  (447) 
[]

>  <has_cofactor>  (447) 
False

>  <covalent>  (447) 
True

>  <base_name>  (447) 
3SJO

>  <lig_resn>  (447) 
AG7

>  <lig_resi>  (447) 
501

>  <lig_chain>  (447) 
A

>  <lig_segi>  (447) 
I

>  <lig_alt>  (447) 


>  <polymer_chain>  (447) 
A

>  <single_smiles>  (447) 
CCOC(=O)CC[C@H](C[C@@H]1CCNC1=O)NC(=O)[C@@H](CC(=O)[C@@H](NC(=O)c2cc(C)on2)C(C)C)Cc3ccc(F)cc3

$$$$
AG7P8S10
     RDKit          3D

 18 18  0  0  0  0  0  0  0  0999 V2000
   -8.3660   16.3160  -33.2440 C   0  0  0  0  0  0  0  0  0  0  0  0
   -8.7340   14.8750  -33.6330 C   0  0  0  0  0  0  0  0  0  0  0  0
   -6.9450   16.7440  -33.5590 C   0  0  0  0  0  0  0  0  0  0  0  0
   -9.1250   14.5600  -35.0710 C   0  0  0  0  0  0  0  0  0  0  0  0
   -8.9120   14.0500  -32.7640 O   0  0  0  0  0  0  0  0  0  0  0  0
   -6.7430   18.1960  -33.2420 C   0  0  0  0  0  0  0  0  0  0  0  0
   -5.9160   15.8690  -32.9170 C   0  0  0  0  0  0  0  0  0  0  0  0
   -9.2650   13.0870  -35.4210 C   0  0  2  0  0  0  0  0  0  0  0  0
   -8.2190   12.1920  -34.7470 C   0  0  0  0  0  0  0  0  0  0  0  0
   -9.4060   12.8260  -36.9090 C   0  0  0  0  0  0  0  0  0  0  0  0
   -7.0310   12.4100  -34.8930 O   0  0  0  0  0  0  0  0  0  0  0  0
  -10.4680   13.6500  -37.5900 C   0  0  0  0  0  0  0  0  0  0  0  0
  -11.8920   13.3740  -37.3060 C   0  0  0  0  0  0  0  0  0  0  0  0
  -10.0960   14.6950  -38.4660 C   0  0  0  0  0  0  0  0  0  0  0  0
  -12.9410   14.1870  -37.9670 C   0  0  0  0  0  0  0  0  0  0  0  0
  -11.1310   15.5040  -39.1190 C   0  0  0  0  0  0  0  0  0  0  0  0
  -12.5760   15.2200  -38.8370 C   0  0  0  0  0  0  0  0  0  0  0  0
  -13.5230   15.9340  -39.4430 F   0  0  0  0  0  0  0  0  0  0  0  0
  2  1  1  0
  1  3  1  6
  2  4  1  0
  2  5  2  0
  3  6  1  0
  3  7  1  0
  8  4  1  6
  8  9  1  0
  8 10  1  0
  9 11  2  0
 10 12  1  0
 12 13  2  0
 12 14  1  0
 13 15  1  0
 16 14  2  0
 15 17  2  0
 17 16  1  0
 17 18  1  0
A    2
 C01
A    3
 C78
A    4
 C02
A    5
 O03
A    6
 C81
A    7
 C82
A    8
 C04
A   10
 C05
A   11
 O48
A   12
 C06
A   13
 C07
A   14
 C11
A   15
 C08
A   16
 C10
A   17
 C09
A   18
 F1 
M  END
>  <XChem_code>  (448) 
AG7§8

>  <Occupancy>  (448) 
[1.0, 1.0, 1.0, 1.0, 1.0, 1.0, 1.0, 1.0, 1.0, 1.0, 1.0, 1.0, 1.0, 1.0, 1.0, 1.0, 1.0, 1.0, 1.0, 1.0, 1.0, 1.0, 1.0, 1.0, 1.0, 1.0, 1.0, 1.0, 1.0, 1.0, 1.0, 1.0, 1.0, 1.0, 1.0, 1.0, 1.0, 1.0, 1.0, 1.0, 1.0, 1.0, 1.0, 1.0]

>  <TempFactor>  (448) 
[18.81, 27.66, 18.42, 28.47, 31.3, 19.86, 18.0, 36.49, 33.82, 16.63, 29.4, 22.13, 22.68, 21.54, 23.87, 26.44, 24.22, 19.0, 15.21, 18.33, 16.27, 19.18, 19.0, 17.13, 14.73, 16.04, 18.83, 23.76, 19.63, 17.66, 18.54, 25.52, 26.09, 23.51, 21.61, 23.49, 26.81, 22.53, 27.37, 21.38, 21.53, 22.61, 16.29, 28.88]

>  <accession>  (448) 
3SJO_A

>  <description>  (448) 
Chain A, 3C protease [Enterovirus A71]

>  <evalue>  (448) 
1.0179e-70

>  <pdb_code>  (448) 
3SJO

>  <chain>  (448) 
A

>  <ligands>  (448) 
[{'chain_id': 'A', 'author_residue_number': 501, 'author_insertion_code': '', 'chem_comp_id': 'AG7', 'alternate_conformers': 0, 'entity_id': 2, 'struct_asym_id': 'I', 'residue_number': 1, 'chem_comp_name': '4-{2-(4-FLUORO-BENZYL)-6-METHYL-5-[(5-METHYL-ISOXAZOLE-3-CARBONYL)-AMINO]-4-OXO-HEPTANOYLAMINO}-5-(2-OXO-PYRROLIDIN-3-YL)-PENTANOIC ACID ETHYL ESTER', 'weight': 600.678, 'carbohydrate_polymer': False, 'branch_name': ''}, {'chain_id': 'B', 'author_residue_number': 501, 'author_insertion_code': '', 'chem_comp_id': 'AG7', 'alternate_conformers': 0, 'entity_id': 2, 'struct_asym_id': 'J', 'residue_number': 1, 'chem_comp_name': '4-{2-(4-FLUORO-BENZYL)-6-METHYL-5-[(5-METHYL-ISOXAZOLE-3-CARBONYL)-AMINO]-4-OXO-HEPTANOYLAMINO}-5-(2-OXO-PYRROLIDIN-3-YL)-PENTANOIC ACID ETHYL ESTER', 'weight': 600.678, 'carbohydrate_polymer': False, 'branch_name': ''}, {'chain_id': 'C', 'author_residue_number': 501, 'author_insertion_code': '', 'chem_comp_id': 'AG7', 'alternate_conformers': 0, 'entity_id': 2, 'struct_asym_id': 'K', 'residue_number': 1, 'chem_comp_name': '4-{2-(4-FLUORO-BENZYL)-6-METHYL-5-[(5-METHYL-ISOXAZOLE-3-CARBONYL)-AMINO]-4-OXO-HEPTANOYLAMINO}-5-(2-OXO-PYRROLIDIN-3-YL)-PENTANOIC ACID ETHYL ESTER', 'weight': 600.678, 'carbohydrate_polymer': False, 'branch_name': ''}, {'chain_id': 'D', 'author_residue_number': 501, 'author_insertion_code': '', 'chem_comp_id': 'AG7', 'alternate_conformers': 0, 'entity_id': 2, 'struct_asym_id': 'L', 'residue_number': 1, 'chem_comp_name': '4-{2-(4-FLUORO-BENZYL)-6-METHYL-5-[(5-METHYL-ISOXAZOLE-3-CARBONYL)-AMINO]-4-OXO-HEPTANOYLAMINO}-5-(2-OXO-PYRROLIDIN-3-YL)-PENTANOIC ACID ETHYL ESTER', 'weight': 600.678, 'carbohydrate_polymer': False, 'branch_name': ''}, {'chain_id': 'E', 'author_residue_number': 501, 'author_insertion_code': '', 'chem_comp_id': 'AG7', 'alternate_conformers': 0, 'entity_id': 2, 'struct_asym_id': 'M', 'residue_number': 1, 'chem_comp_name': '4-{2-(4-FLUORO-BENZYL)-6-METHYL-5-[(5-METHYL-ISOXAZOLE-3-CARBONYL)-AMINO]-4-OXO-HEPTANOYLAMINO}-5-(2-OXO-PYRROLIDIN-3-YL)-PENTANOIC ACID ETHYL ESTER', 'weight': 600.678, 'carbohydrate_polymer': False, 'branch_name': ''}, {'chain_id': 'F', 'author_residue_number': 501, 'author_insertion_code': '', 'chem_comp_id': 'AG7', 'alternate_conformers': 0, 'entity_id': 2, 'struct_asym_id': 'N', 'residue_number': 1, 'chem_comp_name': '4-{2-(4-FLUORO-BENZYL)-6-METHYL-5-[(5-METHYL-ISOXAZOLE-3-CARBONYL)-AMINO]-4-OXO-HEPTANOYLAMINO}-5-(2-OXO-PYRROLIDIN-3-YL)-PENTANOIC ACID ETHYL ESTER', 'weight': 600.678, 'carbohydrate_polymer': False, 'branch_name': ''}, {'chain_id': 'G', 'author_residue_number': 501, 'author_insertion_code': '', 'chem_comp_id': 'AG7', 'alternate_conformers': 0, 'entity_id': 2, 'struct_asym_id': 'O', 'residue_number': 1, 'chem_comp_name': '4-{2-(4-FLUORO-BENZYL)-6-METHYL-5-[(5-METHYL-ISOXAZOLE-3-CARBONYL)-AMINO]-4-OXO-HEPTANOYLAMINO}-5-(2-OXO-PYRROLIDIN-3-YL)-PENTANOIC ACID ETHYL ESTER', 'weight': 600.678, 'carbohydrate_polymer': False, 'branch_name': ''}, {'chain_id': 'H', 'author_residue_number': 501, 'author_insertion_code': '', 'chem_comp_id': 'AG7', 'alternate_conformers': 0, 'entity_id': 2, 'struct_asym_id': 'P', 'residue_number': 1, 'chem_comp_name': '4-{2-(4-FLUORO-BENZYL)-6-METHYL-5-[(5-METHYL-ISOXAZOLE-3-CARBONYL)-AMINO]-4-OXO-HEPTANOYLAMINO}-5-(2-OXO-PYRROLIDIN-3-YL)-PENTANOIC ACID ETHYL ESTER', 'weight': 600.678, 'carbohydrate_polymer': False, 'branch_name': ''}]

>  <ligand_codes>  (448) 
['AG7', 'AG7', 'AG7', 'AG7', 'AG7', 'AG7', 'AG7', 'AG7']

>  <cofactor_codes>  (448) 
[]

>  <has_cofactor>  (448) 
False

>  <covalent>  (448) 
True

>  <base_name>  (448) 
3SJO

>  <lig_resn>  (448) 
AG7

>  <lig_resi>  (448) 
501

>  <lig_chain>  (448) 
A

>  <lig_segi>  (448) 
I

>  <lig_alt>  (448) 


>  <polymer_chain>  (448) 
A

>  <single_smiles>  (448) 
CCOC(=O)CC[C@H](C[C@@H]1CCNC1=O)NC(=O)[C@@H](CC(=O)[C@@H](NC(=O)c2cc(C)on2)C(C)C)Cc3ccc(F)cc3

$$$$
AG7P8S11
     RDKit          3D

 20 20  0  0  0  0  0  0  0  0999 V2000
   -8.6690   10.9670  -34.0900 N   0  0  0  0  0  0  0  0  0  0  0  0
   -8.2190   12.1920  -34.7470 C   0  0  0  0  0  0  0  0  0  0  0  0
   -9.2650   13.0870  -35.4210 C   0  0  1  0  0  0  0  0  0  0  0  0
   -7.0310   12.4100  -34.8930 O   0  0  0  0  0  0  0  0  0  0  0  0
   -9.1250   14.5600  -35.0710 C   0  0  0  0  0  0  0  0  0  0  0  0
   -9.4060   12.8260  -36.9090 C   0  0  0  0  0  0  0  0  0  0  0  0
   -8.7340   14.8750  -33.6330 C   0  0  0  0  0  0  0  0  0  0  0  0
  -10.4680   13.6500  -37.5900 C   0  0  0  0  0  0  0  0  0  0  0  0
   -8.3660   16.3160  -33.2440 C   0  0  1  0  0  0  0  0  0  0  0  0
   -8.9120   14.0500  -32.7640 O   0  0  0  0  0  0  0  0  0  0  0  0
  -11.8920   13.3740  -37.3060 C   0  0  0  0  0  0  0  0  0  0  0  0
  -10.0960   14.6950  -38.4660 C   0  0  0  0  0  0  0  0  0  0  0  0
   -8.7350   16.6450  -31.8730 N   0  0  0  0  0  0  0  0  0  0  0  0
   -6.9450   16.7440  -33.5590 C   0  0  0  0  0  0  0  0  0  0  0  0
  -12.9410   14.1870  -37.9670 C   0  0  0  0  0  0  0  0  0  0  0  0
  -11.1310   15.5040  -39.1190 C   0  0  0  0  0  0  0  0  0  0  0  0
   -6.7430   18.1960  -33.2420 C   0  0  0  0  0  0  0  0  0  0  0  0
   -5.9160   15.8690  -32.9170 C   0  0  0  0  0  0  0  0  0  0  0  0
  -12.5760   15.2200  -38.8370 C   0  0  0  0  0  0  0  0  0  0  0  0
  -13.5230   15.9340  -39.4430 F   0  0  0  0  0  0  0  0  0  0  0  0
  1  2  1  0
  3  2  1  0
  2  4  2  0
  3  5  1  6
  3  6  1  0
  7  5  1  0
  6  8  1  0
  7  9  1  0
  7 10  2  0
  8 11  2  0
  8 12  1  0
  9 13  1  1
  9 14  1  0
 11 15  1  0
 16 12  2  0
 14 17  1  0
 14 18  1  0
 15 19  2  0
 19 16  1  0
 19 20  1  0
A    2
 C47
A    3
 C04
A    4
 O48
A    5
 C02
A    6
 C05
A    7
 C01
A    8
 C06
A    9
 C57
A   10
 O03
A   11
 C07
A   12
 C11
A   14
 C78
A   15
 C08
A   16
 C10
A   17
 C81
A   18
 C82
A   19
 C09
A   20
 F1 
M  END
>  <XChem_code>  (449) 
AG7§8

>  <Occupancy>  (449) 
[1.0, 1.0, 1.0, 1.0, 1.0, 1.0, 1.0, 1.0, 1.0, 1.0, 1.0, 1.0, 1.0, 1.0, 1.0, 1.0, 1.0, 1.0, 1.0, 1.0, 1.0, 1.0, 1.0, 1.0, 1.0, 1.0, 1.0, 1.0, 1.0, 1.0, 1.0, 1.0, 1.0, 1.0, 1.0, 1.0, 1.0, 1.0, 1.0, 1.0, 1.0, 1.0, 1.0, 1.0]

>  <TempFactor>  (449) 
[18.81, 27.66, 18.42, 28.47, 31.3, 19.86, 18.0, 36.49, 33.82, 16.63, 29.4, 22.13, 22.68, 21.54, 23.87, 26.44, 24.22, 19.0, 15.21, 18.33, 16.27, 19.18, 19.0, 17.13, 14.73, 16.04, 18.83, 23.76, 19.63, 17.66, 18.54, 25.52, 26.09, 23.51, 21.61, 23.49, 26.81, 22.53, 27.37, 21.38, 21.53, 22.61, 16.29, 28.88]

>  <accession>  (449) 
3SJO_A

>  <description>  (449) 
Chain A, 3C protease [Enterovirus A71]

>  <evalue>  (449) 
1.0179e-70

>  <pdb_code>  (449) 
3SJO

>  <chain>  (449) 
A

>  <ligands>  (449) 
[{'chain_id': 'A', 'author_residue_number': 501, 'author_insertion_code': '', 'chem_comp_id': 'AG7', 'alternate_conformers': 0, 'entity_id': 2, 'struct_asym_id': 'I', 'residue_number': 1, 'chem_comp_name': '4-{2-(4-FLUORO-BENZYL)-6-METHYL-5-[(5-METHYL-ISOXAZOLE-3-CARBONYL)-AMINO]-4-OXO-HEPTANOYLAMINO}-5-(2-OXO-PYRROLIDIN-3-YL)-PENTANOIC ACID ETHYL ESTER', 'weight': 600.678, 'carbohydrate_polymer': False, 'branch_name': ''}, {'chain_id': 'B', 'author_residue_number': 501, 'author_insertion_code': '', 'chem_comp_id': 'AG7', 'alternate_conformers': 0, 'entity_id': 2, 'struct_asym_id': 'J', 'residue_number': 1, 'chem_comp_name': '4-{2-(4-FLUORO-BENZYL)-6-METHYL-5-[(5-METHYL-ISOXAZOLE-3-CARBONYL)-AMINO]-4-OXO-HEPTANOYLAMINO}-5-(2-OXO-PYRROLIDIN-3-YL)-PENTANOIC ACID ETHYL ESTER', 'weight': 600.678, 'carbohydrate_polymer': False, 'branch_name': ''}, {'chain_id': 'C', 'author_residue_number': 501, 'author_insertion_code': '', 'chem_comp_id': 'AG7', 'alternate_conformers': 0, 'entity_id': 2, 'struct_asym_id': 'K', 'residue_number': 1, 'chem_comp_name': '4-{2-(4-FLUORO-BENZYL)-6-METHYL-5-[(5-METHYL-ISOXAZOLE-3-CARBONYL)-AMINO]-4-OXO-HEPTANOYLAMINO}-5-(2-OXO-PYRROLIDIN-3-YL)-PENTANOIC ACID ETHYL ESTER', 'weight': 600.678, 'carbohydrate_polymer': False, 'branch_name': ''}, {'chain_id': 'D', 'author_residue_number': 501, 'author_insertion_code': '', 'chem_comp_id': 'AG7', 'alternate_conformers': 0, 'entity_id': 2, 'struct_asym_id': 'L', 'residue_number': 1, 'chem_comp_name': '4-{2-(4-FLUORO-BENZYL)-6-METHYL-5-[(5-METHYL-ISOXAZOLE-3-CARBONYL)-AMINO]-4-OXO-HEPTANOYLAMINO}-5-(2-OXO-PYRROLIDIN-3-YL)-PENTANOIC ACID ETHYL ESTER', 'weight': 600.678, 'carbohydrate_polymer': False, 'branch_name': ''}, {'chain_id': 'E', 'author_residue_number': 501, 'author_insertion_code': '', 'chem_comp_id': 'AG7', 'alternate_conformers': 0, 'entity_id': 2, 'struct_asym_id': 'M', 'residue_number': 1, 'chem_comp_name': '4-{2-(4-FLUORO-BENZYL)-6-METHYL-5-[(5-METHYL-ISOXAZOLE-3-CARBONYL)-AMINO]-4-OXO-HEPTANOYLAMINO}-5-(2-OXO-PYRROLIDIN-3-YL)-PENTANOIC ACID ETHYL ESTER', 'weight': 600.678, 'carbohydrate_polymer': False, 'branch_name': ''}, {'chain_id': 'F', 'author_residue_number': 501, 'author_insertion_code': '', 'chem_comp_id': 'AG7', 'alternate_conformers': 0, 'entity_id': 2, 'struct_asym_id': 'N', 'residue_number': 1, 'chem_comp_name': '4-{2-(4-FLUORO-BENZYL)-6-METHYL-5-[(5-METHYL-ISOXAZOLE-3-CARBONYL)-AMINO]-4-OXO-HEPTANOYLAMINO}-5-(2-OXO-PYRROLIDIN-3-YL)-PENTANOIC ACID ETHYL ESTER', 'weight': 600.678, 'carbohydrate_polymer': False, 'branch_name': ''}, {'chain_id': 'G', 'author_residue_number': 501, 'author_insertion_code': '', 'chem_comp_id': 'AG7', 'alternate_conformers': 0, 'entity_id': 2, 'struct_asym_id': 'O', 'residue_number': 1, 'chem_comp_name': '4-{2-(4-FLUORO-BENZYL)-6-METHYL-5-[(5-METHYL-ISOXAZOLE-3-CARBONYL)-AMINO]-4-OXO-HEPTANOYLAMINO}-5-(2-OXO-PYRROLIDIN-3-YL)-PENTANOIC ACID ETHYL ESTER', 'weight': 600.678, 'carbohydrate_polymer': False, 'branch_name': ''}, {'chain_id': 'H', 'author_residue_number': 501, 'author_insertion_code': '', 'chem_comp_id': 'AG7', 'alternate_conformers': 0, 'entity_id': 2, 'struct_asym_id': 'P', 'residue_number': 1, 'chem_comp_name': '4-{2-(4-FLUORO-BENZYL)-6-METHYL-5-[(5-METHYL-ISOXAZOLE-3-CARBONYL)-AMINO]-4-OXO-HEPTANOYLAMINO}-5-(2-OXO-PYRROLIDIN-3-YL)-PENTANOIC ACID ETHYL ESTER', 'weight': 600.678, 'carbohydrate_polymer': False, 'branch_name': ''}]

>  <ligand_codes>  (449) 
['AG7', 'AG7', 'AG7', 'AG7', 'AG7', 'AG7', 'AG7', 'AG7']

>  <cofactor_codes>  (449) 
[]

>  <has_cofactor>  (449) 
False

>  <covalent>  (449) 
True

>  <base_name>  (449) 
3SJO

>  <lig_resn>  (449) 
AG7

>  <lig_resi>  (449) 
501

>  <lig_chain>  (449) 
A

>  <lig_segi>  (449) 
I

>  <lig_alt>  (449) 


>  <polymer_chain>  (449) 
A

>  <single_smiles>  (449) 
CCOC(=O)CC[C@H](C[C@@H]1CCNC1=O)NC(=O)[C@@H](CC(=O)[C@@H](NC(=O)c2cc(C)on2)C(C)C)Cc3ccc(F)cc3

$$$$
AG7P8S12
     RDKit          3D

 19 19  0  0  0  0  0  0  0  0999 V2000
   -8.3660   16.3160  -33.2440 C   0  0  0  0  0  0  0  0  0  0  0  0
   -8.7340   14.8750  -33.6330 C   0  0  0  0  0  0  0  0  0  0  0  0
   -6.9450   16.7440  -33.5590 C   0  0  0  0  0  0  0  0  0  0  0  0
   -9.1250   14.5600  -35.0710 C   0  0  0  0  0  0  0  0  0  0  0  0
   -8.9120   14.0500  -32.7640 O   0  0  0  0  0  0  0  0  0  0  0  0
   -6.7430   18.1960  -33.2420 C   0  0  0  0  0  0  0  0  0  0  0  0
   -5.9160   15.8690  -32.9170 C   0  0  0  0  0  0  0  0  0  0  0  0
   -9.2650   13.0870  -35.4210 C   0  0  2  0  0  0  0  0  0  0  0  0
   -8.2190   12.1920  -34.7470 C   0  0  0  0  0  0  0  0  0  0  0  0
   -9.4060   12.8260  -36.9090 C   0  0  0  0  0  0  0  0  0  0  0  0
   -8.6690   10.9670  -34.0900 N   0  0  0  0  0  0  0  0  0  0  0  0
   -7.0310   12.4100  -34.8930 O   0  0  0  0  0  0  0  0  0  0  0  0
  -10.4680   13.6500  -37.5900 C   0  0  0  0  0  0  0  0  0  0  0  0
  -11.8920   13.3740  -37.3060 C   0  0  0  0  0  0  0  0  0  0  0  0
  -10.0960   14.6950  -38.4660 C   0  0  0  0  0  0  0  0  0  0  0  0
  -12.9410   14.1870  -37.9670 C   0  0  0  0  0  0  0  0  0  0  0  0
  -11.1310   15.5040  -39.1190 C   0  0  0  0  0  0  0  0  0  0  0  0
  -12.5760   15.2200  -38.8370 C   0  0  0  0  0  0  0  0  0  0  0  0
  -13.5230   15.9340  -39.4430 F   0  0  0  0  0  0  0  0  0  0  0  0
  2  1  1  0
  1  3  1  6
  2  4  1  0
  2  5  2  0
  3  6  1  0
  3  7  1  0
  8  4  1  6
  8  9  1  0
  8 10  1  0
 11  9  1  0
  9 12  2  0
 10 13  1  0
 13 14  2  0
 13 15  1  0
 14 16  1  0
 17 15  2  0
 16 18  2  0
 18 17  1  0
 18 19  1  0
A    2
 C01
A    3
 C78
A    4
 C02
A    5
 O03
A    6
 C81
A    7
 C82
A    8
 C04
A    9
 C47
A   10
 C05
A   12
 O48
A   13
 C06
A   14
 C07
A   15
 C11
A   16
 C08
A   17
 C10
A   18
 C09
A   19
 F1 
M  END
>  <XChem_code>  (450) 
AG7§8

>  <Occupancy>  (450) 
[1.0, 1.0, 1.0, 1.0, 1.0, 1.0, 1.0, 1.0, 1.0, 1.0, 1.0, 1.0, 1.0, 1.0, 1.0, 1.0, 1.0, 1.0, 1.0, 1.0, 1.0, 1.0, 1.0, 1.0, 1.0, 1.0, 1.0, 1.0, 1.0, 1.0, 1.0, 1.0, 1.0, 1.0, 1.0, 1.0, 1.0, 1.0, 1.0, 1.0, 1.0, 1.0, 1.0, 1.0]

>  <TempFactor>  (450) 
[18.81, 27.66, 18.42, 28.47, 31.3, 19.86, 18.0, 36.49, 33.82, 16.63, 29.4, 22.13, 22.68, 21.54, 23.87, 26.44, 24.22, 19.0, 15.21, 18.33, 16.27, 19.18, 19.0, 17.13, 14.73, 16.04, 18.83, 23.76, 19.63, 17.66, 18.54, 25.52, 26.09, 23.51, 21.61, 23.49, 26.81, 22.53, 27.37, 21.38, 21.53, 22.61, 16.29, 28.88]

>  <accession>  (450) 
3SJO_A

>  <description>  (450) 
Chain A, 3C protease [Enterovirus A71]

>  <evalue>  (450) 
1.0179e-70

>  <pdb_code>  (450) 
3SJO

>  <chain>  (450) 
A

>  <ligands>  (450) 
[{'chain_id': 'A', 'author_residue_number': 501, 'author_insertion_code': '', 'chem_comp_id': 'AG7', 'alternate_conformers': 0, 'entity_id': 2, 'struct_asym_id': 'I', 'residue_number': 1, 'chem_comp_name': '4-{2-(4-FLUORO-BENZYL)-6-METHYL-5-[(5-METHYL-ISOXAZOLE-3-CARBONYL)-AMINO]-4-OXO-HEPTANOYLAMINO}-5-(2-OXO-PYRROLIDIN-3-YL)-PENTANOIC ACID ETHYL ESTER', 'weight': 600.678, 'carbohydrate_polymer': False, 'branch_name': ''}, {'chain_id': 'B', 'author_residue_number': 501, 'author_insertion_code': '', 'chem_comp_id': 'AG7', 'alternate_conformers': 0, 'entity_id': 2, 'struct_asym_id': 'J', 'residue_number': 1, 'chem_comp_name': '4-{2-(4-FLUORO-BENZYL)-6-METHYL-5-[(5-METHYL-ISOXAZOLE-3-CARBONYL)-AMINO]-4-OXO-HEPTANOYLAMINO}-5-(2-OXO-PYRROLIDIN-3-YL)-PENTANOIC ACID ETHYL ESTER', 'weight': 600.678, 'carbohydrate_polymer': False, 'branch_name': ''}, {'chain_id': 'C', 'author_residue_number': 501, 'author_insertion_code': '', 'chem_comp_id': 'AG7', 'alternate_conformers': 0, 'entity_id': 2, 'struct_asym_id': 'K', 'residue_number': 1, 'chem_comp_name': '4-{2-(4-FLUORO-BENZYL)-6-METHYL-5-[(5-METHYL-ISOXAZOLE-3-CARBONYL)-AMINO]-4-OXO-HEPTANOYLAMINO}-5-(2-OXO-PYRROLIDIN-3-YL)-PENTANOIC ACID ETHYL ESTER', 'weight': 600.678, 'carbohydrate_polymer': False, 'branch_name': ''}, {'chain_id': 'D', 'author_residue_number': 501, 'author_insertion_code': '', 'chem_comp_id': 'AG7', 'alternate_conformers': 0, 'entity_id': 2, 'struct_asym_id': 'L', 'residue_number': 1, 'chem_comp_name': '4-{2-(4-FLUORO-BENZYL)-6-METHYL-5-[(5-METHYL-ISOXAZOLE-3-CARBONYL)-AMINO]-4-OXO-HEPTANOYLAMINO}-5-(2-OXO-PYRROLIDIN-3-YL)-PENTANOIC ACID ETHYL ESTER', 'weight': 600.678, 'carbohydrate_polymer': False, 'branch_name': ''}, {'chain_id': 'E', 'author_residue_number': 501, 'author_insertion_code': '', 'chem_comp_id': 'AG7', 'alternate_conformers': 0, 'entity_id': 2, 'struct_asym_id': 'M', 'residue_number': 1, 'chem_comp_name': '4-{2-(4-FLUORO-BENZYL)-6-METHYL-5-[(5-METHYL-ISOXAZOLE-3-CARBONYL)-AMINO]-4-OXO-HEPTANOYLAMINO}-5-(2-OXO-PYRROLIDIN-3-YL)-PENTANOIC ACID ETHYL ESTER', 'weight': 600.678, 'carbohydrate_polymer': False, 'branch_name': ''}, {'chain_id': 'F', 'author_residue_number': 501, 'author_insertion_code': '', 'chem_comp_id': 'AG7', 'alternate_conformers': 0, 'entity_id': 2, 'struct_asym_id': 'N', 'residue_number': 1, 'chem_comp_name': '4-{2-(4-FLUORO-BENZYL)-6-METHYL-5-[(5-METHYL-ISOXAZOLE-3-CARBONYL)-AMINO]-4-OXO-HEPTANOYLAMINO}-5-(2-OXO-PYRROLIDIN-3-YL)-PENTANOIC ACID ETHYL ESTER', 'weight': 600.678, 'carbohydrate_polymer': False, 'branch_name': ''}, {'chain_id': 'G', 'author_residue_number': 501, 'author_insertion_code': '', 'chem_comp_id': 'AG7', 'alternate_conformers': 0, 'entity_id': 2, 'struct_asym_id': 'O', 'residue_number': 1, 'chem_comp_name': '4-{2-(4-FLUORO-BENZYL)-6-METHYL-5-[(5-METHYL-ISOXAZOLE-3-CARBONYL)-AMINO]-4-OXO-HEPTANOYLAMINO}-5-(2-OXO-PYRROLIDIN-3-YL)-PENTANOIC ACID ETHYL ESTER', 'weight': 600.678, 'carbohydrate_polymer': False, 'branch_name': ''}, {'chain_id': 'H', 'author_residue_number': 501, 'author_insertion_code': '', 'chem_comp_id': 'AG7', 'alternate_conformers': 0, 'entity_id': 2, 'struct_asym_id': 'P', 'residue_number': 1, 'chem_comp_name': '4-{2-(4-FLUORO-BENZYL)-6-METHYL-5-[(5-METHYL-ISOXAZOLE-3-CARBONYL)-AMINO]-4-OXO-HEPTANOYLAMINO}-5-(2-OXO-PYRROLIDIN-3-YL)-PENTANOIC ACID ETHYL ESTER', 'weight': 600.678, 'carbohydrate_polymer': False, 'branch_name': ''}]

>  <ligand_codes>  (450) 
['AG7', 'AG7', 'AG7', 'AG7', 'AG7', 'AG7', 'AG7', 'AG7']

>  <cofactor_codes>  (450) 
[]

>  <has_cofactor>  (450) 
False

>  <covalent>  (450) 
True

>  <base_name>  (450) 
3SJO

>  <lig_resn>  (450) 
AG7

>  <lig_resi>  (450) 
501

>  <lig_chain>  (450) 
A

>  <lig_segi>  (450) 
I

>  <lig_alt>  (450) 


>  <polymer_chain>  (450) 
A

>  <single_smiles>  (450) 
CCOC(=O)CC[C@H](C[C@@H]1CCNC1=O)NC(=O)[C@@H](CC(=O)[C@@H](NC(=O)c2cc(C)on2)C(C)C)Cc3ccc(F)cc3

$$$$
AG7P8S13
     RDKit          3D

  6  6  0  0  0  0  0  0  0  0999 V2000
  -10.1690   17.8670  -30.1510 C   0  0  0  0  0  0  0  0  0  0  0  0
  -11.1420   18.9430  -29.6030 C   0  0  0  0  0  0  0  0  0  0  0  0
   -9.7110   17.1440  -29.0800 N   0  0  0  0  0  0  0  0  0  0  0  0
  -11.1970   18.7860  -28.1620 C   0  0  0  0  0  0  0  0  0  0  0  0
  -10.3350   17.7020  -27.7930 O   0  0  0  0  0  0  0  0  0  0  0  0
  -12.0110   19.6150  -27.2080 C   0  0  0  0  0  0  0  0  0  0  0  0
  1  2  1  0
  1  3  2  0
  2  4  2  0
  5  3  1  0
  4  6  1  0
  4  5  1  0
A    2
 C2 
A    3
 N5 
A    4
 C3 
A    5
 O4 
A    6
 C4 
M  END
>  <XChem_code>  (451) 
AG7§8

>  <Occupancy>  (451) 
[1.0, 1.0, 1.0, 1.0, 1.0, 1.0, 1.0, 1.0, 1.0, 1.0, 1.0, 1.0, 1.0, 1.0, 1.0, 1.0, 1.0, 1.0, 1.0, 1.0, 1.0, 1.0, 1.0, 1.0, 1.0, 1.0, 1.0, 1.0, 1.0, 1.0, 1.0, 1.0, 1.0, 1.0, 1.0, 1.0, 1.0, 1.0, 1.0, 1.0, 1.0, 1.0, 1.0, 1.0]

>  <TempFactor>  (451) 
[18.81, 27.66, 18.42, 28.47, 31.3, 19.86, 18.0, 36.49, 33.82, 16.63, 29.4, 22.13, 22.68, 21.54, 23.87, 26.44, 24.22, 19.0, 15.21, 18.33, 16.27, 19.18, 19.0, 17.13, 14.73, 16.04, 18.83, 23.76, 19.63, 17.66, 18.54, 25.52, 26.09, 23.51, 21.61, 23.49, 26.81, 22.53, 27.37, 21.38, 21.53, 22.61, 16.29, 28.88]

>  <accession>  (451) 
3SJO_A

>  <description>  (451) 
Chain A, 3C protease [Enterovirus A71]

>  <evalue>  (451) 
1.0179e-70

>  <pdb_code>  (451) 
3SJO

>  <chain>  (451) 
A

>  <ligands>  (451) 
[{'chain_id': 'A', 'author_residue_number': 501, 'author_insertion_code': '', 'chem_comp_id': 'AG7', 'alternate_conformers': 0, 'entity_id': 2, 'struct_asym_id': 'I', 'residue_number': 1, 'chem_comp_name': '4-{2-(4-FLUORO-BENZYL)-6-METHYL-5-[(5-METHYL-ISOXAZOLE-3-CARBONYL)-AMINO]-4-OXO-HEPTANOYLAMINO}-5-(2-OXO-PYRROLIDIN-3-YL)-PENTANOIC ACID ETHYL ESTER', 'weight': 600.678, 'carbohydrate_polymer': False, 'branch_name': ''}, {'chain_id': 'B', 'author_residue_number': 501, 'author_insertion_code': '', 'chem_comp_id': 'AG7', 'alternate_conformers': 0, 'entity_id': 2, 'struct_asym_id': 'J', 'residue_number': 1, 'chem_comp_name': '4-{2-(4-FLUORO-BENZYL)-6-METHYL-5-[(5-METHYL-ISOXAZOLE-3-CARBONYL)-AMINO]-4-OXO-HEPTANOYLAMINO}-5-(2-OXO-PYRROLIDIN-3-YL)-PENTANOIC ACID ETHYL ESTER', 'weight': 600.678, 'carbohydrate_polymer': False, 'branch_name': ''}, {'chain_id': 'C', 'author_residue_number': 501, 'author_insertion_code': '', 'chem_comp_id': 'AG7', 'alternate_conformers': 0, 'entity_id': 2, 'struct_asym_id': 'K', 'residue_number': 1, 'chem_comp_name': '4-{2-(4-FLUORO-BENZYL)-6-METHYL-5-[(5-METHYL-ISOXAZOLE-3-CARBONYL)-AMINO]-4-OXO-HEPTANOYLAMINO}-5-(2-OXO-PYRROLIDIN-3-YL)-PENTANOIC ACID ETHYL ESTER', 'weight': 600.678, 'carbohydrate_polymer': False, 'branch_name': ''}, {'chain_id': 'D', 'author_residue_number': 501, 'author_insertion_code': '', 'chem_comp_id': 'AG7', 'alternate_conformers': 0, 'entity_id': 2, 'struct_asym_id': 'L', 'residue_number': 1, 'chem_comp_name': '4-{2-(4-FLUORO-BENZYL)-6-METHYL-5-[(5-METHYL-ISOXAZOLE-3-CARBONYL)-AMINO]-4-OXO-HEPTANOYLAMINO}-5-(2-OXO-PYRROLIDIN-3-YL)-PENTANOIC ACID ETHYL ESTER', 'weight': 600.678, 'carbohydrate_polymer': False, 'branch_name': ''}, {'chain_id': 'E', 'author_residue_number': 501, 'author_insertion_code': '', 'chem_comp_id': 'AG7', 'alternate_conformers': 0, 'entity_id': 2, 'struct_asym_id': 'M', 'residue_number': 1, 'chem_comp_name': '4-{2-(4-FLUORO-BENZYL)-6-METHYL-5-[(5-METHYL-ISOXAZOLE-3-CARBONYL)-AMINO]-4-OXO-HEPTANOYLAMINO}-5-(2-OXO-PYRROLIDIN-3-YL)-PENTANOIC ACID ETHYL ESTER', 'weight': 600.678, 'carbohydrate_polymer': False, 'branch_name': ''}, {'chain_id': 'F', 'author_residue_number': 501, 'author_insertion_code': '', 'chem_comp_id': 'AG7', 'alternate_conformers': 0, 'entity_id': 2, 'struct_asym_id': 'N', 'residue_number': 1, 'chem_comp_name': '4-{2-(4-FLUORO-BENZYL)-6-METHYL-5-[(5-METHYL-ISOXAZOLE-3-CARBONYL)-AMINO]-4-OXO-HEPTANOYLAMINO}-5-(2-OXO-PYRROLIDIN-3-YL)-PENTANOIC ACID ETHYL ESTER', 'weight': 600.678, 'carbohydrate_polymer': False, 'branch_name': ''}, {'chain_id': 'G', 'author_residue_number': 501, 'author_insertion_code': '', 'chem_comp_id': 'AG7', 'alternate_conformers': 0, 'entity_id': 2, 'struct_asym_id': 'O', 'residue_number': 1, 'chem_comp_name': '4-{2-(4-FLUORO-BENZYL)-6-METHYL-5-[(5-METHYL-ISOXAZOLE-3-CARBONYL)-AMINO]-4-OXO-HEPTANOYLAMINO}-5-(2-OXO-PYRROLIDIN-3-YL)-PENTANOIC ACID ETHYL ESTER', 'weight': 600.678, 'carbohydrate_polymer': False, 'branch_name': ''}, {'chain_id': 'H', 'author_residue_number': 501, 'author_insertion_code': '', 'chem_comp_id': 'AG7', 'alternate_conformers': 0, 'entity_id': 2, 'struct_asym_id': 'P', 'residue_number': 1, 'chem_comp_name': '4-{2-(4-FLUORO-BENZYL)-6-METHYL-5-[(5-METHYL-ISOXAZOLE-3-CARBONYL)-AMINO]-4-OXO-HEPTANOYLAMINO}-5-(2-OXO-PYRROLIDIN-3-YL)-PENTANOIC ACID ETHYL ESTER', 'weight': 600.678, 'carbohydrate_polymer': False, 'branch_name': ''}]

>  <ligand_codes>  (451) 
['AG7', 'AG7', 'AG7', 'AG7', 'AG7', 'AG7', 'AG7', 'AG7']

>  <cofactor_codes>  (451) 
[]

>  <has_cofactor>  (451) 
False

>  <covalent>  (451) 
True

>  <base_name>  (451) 
3SJO

>  <lig_resn>  (451) 
AG7

>  <lig_resi>  (451) 
501

>  <lig_chain>  (451) 
A

>  <lig_segi>  (451) 
I

>  <lig_alt>  (451) 


>  <polymer_chain>  (451) 
A

>  <single_smiles>  (451) 
CCOC(=O)CC[C@H](C[C@@H]1CCNC1=O)NC(=O)[C@@H](CC(=O)[C@@H](NC(=O)c2cc(C)on2)C(C)C)Cc3ccc(F)cc3

$$$$
AG7P8S14
     RDKit          3D

 38 39  0  0  0  0  0  0  0  0999 V2000
   -9.7620   17.6260  -31.5940 C   0  0  0  0  0  0  0  0  0  0  0  0
   -8.7350   16.6450  -31.8730 N   0  0  0  0  0  0  0  0  0  0  0  0
  -10.2070   18.3220  -32.4960 O   0  0  0  0  0  0  0  0  0  0  0  0
   -8.3660   16.3160  -33.2440 C   0  0  2  0  0  0  0  0  0  0  0  0
   -8.7340   14.8750  -33.6330 C   0  0  0  0  0  0  0  0  0  0  0  0
   -6.9450   16.7440  -33.5590 C   0  0  0  0  0  0  0  0  0  0  0  0
   -9.1250   14.5600  -35.0710 C   0  0  0  0  0  0  0  0  0  0  0  0
   -8.9120   14.0500  -32.7640 O   0  0  0  0  0  0  0  0  0  0  0  0
   -6.7430   18.1960  -33.2420 C   0  0  0  0  0  0  0  0  0  0  0  0
   -5.9160   15.8690  -32.9170 C   0  0  0  0  0  0  0  0  0  0  0  0
   -9.2650   13.0870  -35.4210 C   0  0  1  0  0  0  0  0  0  0  0  0
   -9.4060   12.8260  -36.9090 C   0  0  0  0  0  0  0  0  0  0  0  0
   -8.2190   12.1920  -34.7470 C   0  0  0  0  0  0  0  0  0  0  0  0
  -10.4680   13.6500  -37.5900 C   0  0  0  0  0  0  0  0  0  0  0  0
   -8.6690   10.9670  -34.0900 N   0  0  0  0  0  0  0  0  0  0  0  0
   -7.0310   12.4100  -34.8930 O   0  0  0  0  0  0  0  0  0  0  0  0
  -11.8920   13.3740  -37.3060 C   0  0  0  0  0  0  0  0  0  0  0  0
  -10.0960   14.6950  -38.4660 C   0  0  0  0  0  0  0  0  0  0  0  0
   -7.6950    9.9410  -33.7020 C   0  0  1  0  0  0  0  0  0  0  0  0
  -12.9410   14.1870  -37.9670 C   0  0  0  0  0  0  0  0  0  0  0  0
  -11.1310   15.5040  -39.1190 C   0  0  0  0  0  0  0  0  0  0  0  0
   -7.5680    9.8350  -32.1900 C   0  0  0  0  0  0  0  0  0  0  0  0
   -7.9440    8.6270  -34.4090 C   0  0  2  0  0  0  0  0  0  0  0  0
  -12.5760   15.2200  -38.8370 C   0  0  0  0  0  0  0  0  0  0  0  0
   -7.0030   11.1120  -31.5690 C   0  0  1  0  0  0  0  0  0  0  0  0
   -7.6890    8.6920  -35.9030 C   0  0  0  0  0  0  0  0  0  0  0  0
   -9.6990    8.3690  -34.0940 R   0  0  0  0  0  0  0  0  0  0  0  0
  -13.5230   15.9340  -39.4430 F   0  0  0  0  0  0  0  0  0  0  0  0
   -7.1160   11.2790  -30.0480 C   0  0  0  0  0  0  0  0  0  0  0  0
   -5.6150   11.5640  -31.9570 C   0  0  0  0  0  0  0  0  0  0  0  0
   -6.2280    8.9610  -36.2420 C   0  0  0  0  0  0  0  0  0  0  0  0
   -5.8140   11.8640  -29.5400 N   0  0  0  0  0  0  0  0  0  0  0  0
   -7.7570   10.3380  -29.3000 O   0  0  0  0  0  0  0  0  0  0  0  0
   -5.1080   12.3840  -30.7640 C   0  0  0  0  0  0  0  0  0  0  0  0
   -5.9130    9.9450  -37.0170 O   0  0  0  0  0  0  0  0  0  0  0  0
   -5.3400    8.4630  -35.5080 O   0  0  0  0  0  0  0  0  0  0  0  0
   -4.5540   10.2290  -37.2100 C   0  0  0  0  0  0  0  0  0  0  0  0
   -4.2040   11.6040  -37.7340 C   0  0  0  0  0  0  0  0  0  0  0  0
  2  1  1  0
  1  3  2  0
  4  2  1  1
  5  4  1  0
  4  6  1  0
  5  7  1  0
  5  8  2  0
  6  9  1  0
  6 10  1  0
 11  7  1  6
 11 12  1  0
 11 13  1  0
 12 14  1  0
 15 13  1  0
 13 16  2  0
 14 17  2  0
 14 18  1  0
 15 19  1  0
 17 20  1  0
 21 18  2  0
 19 22  1  1
 19 23  1  0
 20 24  2  0
 24 21  1  0
 25 22  1  1
 23 26  1  0
 23 27  1  6
 24 28  1  0
 25 29  1  0
 25 30  1  0
 26 31  1  0
 29 32  1  0
 29 33  2  0
 34 30  1  0
 31 35  1  0
 31 36  2  0
 32 34  1  0
 35 37  1  0
 37 38  1  0
V   27 *
A    2
 N58
A    3
 O60
A    4
 C57
A    5
 C01
A    6
 C78
A    7
 C02
A    8
 O03
A    9
 C81
A   10
 C82
A   11
 C04
A   12
 C05
A   13
 C47
A   14
 C06
A   15
 N12
A   16
 O48
A   17
 C07
A   18
 C11
A   19
 C13
A   20
 C08
A   21
 C10
A   22
 C14
A   23
 C19
A   24
 C09
A   25
 C15
A   26
 C20
A   27
 X  
A   28
 F1 
A   29
 C16
A   30
 C84
A   31
 C21
A   32
 N17
A   33
 O18
A   34
 C83
A   35
 O22
A   36
 O23
A   37
 C50
A   38
 C53
M  END
>  <XChem_code>  (452) 
AG7§8

>  <Occupancy>  (452) 
[1.0, 1.0, 1.0, 1.0, 1.0, 1.0, 1.0, 1.0, 1.0, 1.0, 1.0, 1.0, 1.0, 1.0, 1.0, 1.0, 1.0, 1.0, 1.0, 1.0, 1.0, 1.0, 1.0, 1.0, 1.0, 1.0, 1.0, 1.0, 1.0, 1.0, 1.0, 1.0, 1.0, 1.0, 1.0, 1.0, 1.0, 1.0, 1.0, 1.0, 1.0, 1.0, 1.0, 1.0]

>  <TempFactor>  (452) 
[18.81, 27.66, 18.42, 28.47, 31.3, 19.86, 18.0, 36.49, 33.82, 16.63, 29.4, 22.13, 22.68, 21.54, 23.87, 26.44, 24.22, 19.0, 15.21, 18.33, 16.27, 19.18, 19.0, 17.13, 14.73, 16.04, 18.83, 23.76, 19.63, 17.66, 18.54, 25.52, 26.09, 23.51, 21.61, 23.49, 26.81, 22.53, 27.37, 21.38, 21.53, 22.61, 16.29, 28.88]

>  <accession>  (452) 
3SJO_A

>  <description>  (452) 
Chain A, 3C protease [Enterovirus A71]

>  <evalue>  (452) 
1.0179e-70

>  <pdb_code>  (452) 
3SJO

>  <chain>  (452) 
A

>  <ligands>  (452) 
[{'chain_id': 'A', 'author_residue_number': 501, 'author_insertion_code': '', 'chem_comp_id': 'AG7', 'alternate_conformers': 0, 'entity_id': 2, 'struct_asym_id': 'I', 'residue_number': 1, 'chem_comp_name': '4-{2-(4-FLUORO-BENZYL)-6-METHYL-5-[(5-METHYL-ISOXAZOLE-3-CARBONYL)-AMINO]-4-OXO-HEPTANOYLAMINO}-5-(2-OXO-PYRROLIDIN-3-YL)-PENTANOIC ACID ETHYL ESTER', 'weight': 600.678, 'carbohydrate_polymer': False, 'branch_name': ''}, {'chain_id': 'B', 'author_residue_number': 501, 'author_insertion_code': '', 'chem_comp_id': 'AG7', 'alternate_conformers': 0, 'entity_id': 2, 'struct_asym_id': 'J', 'residue_number': 1, 'chem_comp_name': '4-{2-(4-FLUORO-BENZYL)-6-METHYL-5-[(5-METHYL-ISOXAZOLE-3-CARBONYL)-AMINO]-4-OXO-HEPTANOYLAMINO}-5-(2-OXO-PYRROLIDIN-3-YL)-PENTANOIC ACID ETHYL ESTER', 'weight': 600.678, 'carbohydrate_polymer': False, 'branch_name': ''}, {'chain_id': 'C', 'author_residue_number': 501, 'author_insertion_code': '', 'chem_comp_id': 'AG7', 'alternate_conformers': 0, 'entity_id': 2, 'struct_asym_id': 'K', 'residue_number': 1, 'chem_comp_name': '4-{2-(4-FLUORO-BENZYL)-6-METHYL-5-[(5-METHYL-ISOXAZOLE-3-CARBONYL)-AMINO]-4-OXO-HEPTANOYLAMINO}-5-(2-OXO-PYRROLIDIN-3-YL)-PENTANOIC ACID ETHYL ESTER', 'weight': 600.678, 'carbohydrate_polymer': False, 'branch_name': ''}, {'chain_id': 'D', 'author_residue_number': 501, 'author_insertion_code': '', 'chem_comp_id': 'AG7', 'alternate_conformers': 0, 'entity_id': 2, 'struct_asym_id': 'L', 'residue_number': 1, 'chem_comp_name': '4-{2-(4-FLUORO-BENZYL)-6-METHYL-5-[(5-METHYL-ISOXAZOLE-3-CARBONYL)-AMINO]-4-OXO-HEPTANOYLAMINO}-5-(2-OXO-PYRROLIDIN-3-YL)-PENTANOIC ACID ETHYL ESTER', 'weight': 600.678, 'carbohydrate_polymer': False, 'branch_name': ''}, {'chain_id': 'E', 'author_residue_number': 501, 'author_insertion_code': '', 'chem_comp_id': 'AG7', 'alternate_conformers': 0, 'entity_id': 2, 'struct_asym_id': 'M', 'residue_number': 1, 'chem_comp_name': '4-{2-(4-FLUORO-BENZYL)-6-METHYL-5-[(5-METHYL-ISOXAZOLE-3-CARBONYL)-AMINO]-4-OXO-HEPTANOYLAMINO}-5-(2-OXO-PYRROLIDIN-3-YL)-PENTANOIC ACID ETHYL ESTER', 'weight': 600.678, 'carbohydrate_polymer': False, 'branch_name': ''}, {'chain_id': 'F', 'author_residue_number': 501, 'author_insertion_code': '', 'chem_comp_id': 'AG7', 'alternate_conformers': 0, 'entity_id': 2, 'struct_asym_id': 'N', 'residue_number': 1, 'chem_comp_name': '4-{2-(4-FLUORO-BENZYL)-6-METHYL-5-[(5-METHYL-ISOXAZOLE-3-CARBONYL)-AMINO]-4-OXO-HEPTANOYLAMINO}-5-(2-OXO-PYRROLIDIN-3-YL)-PENTANOIC ACID ETHYL ESTER', 'weight': 600.678, 'carbohydrate_polymer': False, 'branch_name': ''}, {'chain_id': 'G', 'author_residue_number': 501, 'author_insertion_code': '', 'chem_comp_id': 'AG7', 'alternate_conformers': 0, 'entity_id': 2, 'struct_asym_id': 'O', 'residue_number': 1, 'chem_comp_name': '4-{2-(4-FLUORO-BENZYL)-6-METHYL-5-[(5-METHYL-ISOXAZOLE-3-CARBONYL)-AMINO]-4-OXO-HEPTANOYLAMINO}-5-(2-OXO-PYRROLIDIN-3-YL)-PENTANOIC ACID ETHYL ESTER', 'weight': 600.678, 'carbohydrate_polymer': False, 'branch_name': ''}, {'chain_id': 'H', 'author_residue_number': 501, 'author_insertion_code': '', 'chem_comp_id': 'AG7', 'alternate_conformers': 0, 'entity_id': 2, 'struct_asym_id': 'P', 'residue_number': 1, 'chem_comp_name': '4-{2-(4-FLUORO-BENZYL)-6-METHYL-5-[(5-METHYL-ISOXAZOLE-3-CARBONYL)-AMINO]-4-OXO-HEPTANOYLAMINO}-5-(2-OXO-PYRROLIDIN-3-YL)-PENTANOIC ACID ETHYL ESTER', 'weight': 600.678, 'carbohydrate_polymer': False, 'branch_name': ''}]

>  <ligand_codes>  (452) 
['AG7', 'AG7', 'AG7', 'AG7', 'AG7', 'AG7', 'AG7', 'AG7']

>  <cofactor_codes>  (452) 
[]

>  <has_cofactor>  (452) 
False

>  <covalent>  (452) 
True

>  <base_name>  (452) 
3SJO

>  <lig_resn>  (452) 
AG7

>  <lig_resi>  (452) 
501

>  <lig_chain>  (452) 
A

>  <lig_segi>  (452) 
I

>  <lig_alt>  (452) 


>  <polymer_chain>  (452) 
A

>  <single_smiles>  (452) 
CCOC(=O)CC[C@H](C[C@@H]1CCNC1=O)NC(=O)[C@@H](CC(=O)[C@@H](NC(=O)c2cc(C)on2)C(C)C)Cc3ccc(F)cc3

$$$$
AG7P8S15
     RDKit          3D

 21 21  0  0  0  0  0  0  0  0999 V2000
   -9.7620   17.6260  -31.5940 C   0  0  0  0  0  0  0  0  0  0  0  0
   -8.7350   16.6450  -31.8730 N   0  0  0  0  0  0  0  0  0  0  0  0
  -10.2070   18.3220  -32.4960 O   0  0  0  0  0  0  0  0  0  0  0  0
   -8.3660   16.3160  -33.2440 C   0  0  2  0  0  0  0  0  0  0  0  0
   -8.7340   14.8750  -33.6330 C   0  0  0  0  0  0  0  0  0  0  0  0
   -6.9450   16.7440  -33.5590 C   0  0  0  0  0  0  0  0  0  0  0  0
   -9.1250   14.5600  -35.0710 C   0  0  0  0  0  0  0  0  0  0  0  0
   -8.9120   14.0500  -32.7640 O   0  0  0  0  0  0  0  0  0  0  0  0
   -6.7430   18.1960  -33.2420 C   0  0  0  0  0  0  0  0  0  0  0  0
   -5.9160   15.8690  -32.9170 C   0  0  0  0  0  0  0  0  0  0  0  0
   -9.2650   13.0870  -35.4210 C   0  0  2  0  0  0  0  0  0  0  0  0
   -8.2190   12.1920  -34.7470 C   0  0  0  0  0  0  0  0  0  0  0  0
   -9.4060   12.8260  -36.9090 C   0  0  0  0  0  0  0  0  0  0  0  0
   -7.0310   12.4100  -34.8930 O   0  0  0  0  0  0  0  0  0  0  0  0
  -10.4680   13.6500  -37.5900 C   0  0  0  0  0  0  0  0  0  0  0  0
  -11.8920   13.3740  -37.3060 C   0  0  0  0  0  0  0  0  0  0  0  0
  -10.0960   14.6950  -38.4660 C   0  0  0  0  0  0  0  0  0  0  0  0
  -12.9410   14.1870  -37.9670 C   0  0  0  0  0  0  0  0  0  0  0  0
  -11.1310   15.5040  -39.1190 C   0  0  0  0  0  0  0  0  0  0  0  0
  -12.5760   15.2200  -38.8370 C   0  0  0  0  0  0  0  0  0  0  0  0
  -13.5230   15.9340  -39.4430 F   0  0  0  0  0  0  0  0  0  0  0  0
  2  1  1  0
  1  3  2  0
  4  2  1  1
  5  4  1  0
  4  6  1  0
  5  7  1  0
  5  8  2  0
  6  9  1  0
  6 10  1  0
 11  7  1  6
 11 12  1  0
 11 13  1  0
 12 14  2  0
 13 15  1  0
 15 16  2  0
 15 17  1  0
 16 18  1  0
 19 17  2  0
 18 20  2  0
 20 19  1  0
 20 21  1  0
A    2
 N58
A    3
 O60
A    4
 C57
A    5
 C01
A    6
 C78
A    7
 C02
A    8
 O03
A    9
 C81
A   10
 C82
A   11
 C04
A   13
 C05
A   14
 O48
A   15
 C06
A   16
 C07
A   17
 C11
A   18
 C08
A   19
 C10
A   20
 C09
A   21
 F1 
M  END
>  <XChem_code>  (453) 
AG7§8

>  <Occupancy>  (453) 
[1.0, 1.0, 1.0, 1.0, 1.0, 1.0, 1.0, 1.0, 1.0, 1.0, 1.0, 1.0, 1.0, 1.0, 1.0, 1.0, 1.0, 1.0, 1.0, 1.0, 1.0, 1.0, 1.0, 1.0, 1.0, 1.0, 1.0, 1.0, 1.0, 1.0, 1.0, 1.0, 1.0, 1.0, 1.0, 1.0, 1.0, 1.0, 1.0, 1.0, 1.0, 1.0, 1.0, 1.0]

>  <TempFactor>  (453) 
[18.81, 27.66, 18.42, 28.47, 31.3, 19.86, 18.0, 36.49, 33.82, 16.63, 29.4, 22.13, 22.68, 21.54, 23.87, 26.44, 24.22, 19.0, 15.21, 18.33, 16.27, 19.18, 19.0, 17.13, 14.73, 16.04, 18.83, 23.76, 19.63, 17.66, 18.54, 25.52, 26.09, 23.51, 21.61, 23.49, 26.81, 22.53, 27.37, 21.38, 21.53, 22.61, 16.29, 28.88]

>  <accession>  (453) 
3SJO_A

>  <description>  (453) 
Chain A, 3C protease [Enterovirus A71]

>  <evalue>  (453) 
1.0179e-70

>  <pdb_code>  (453) 
3SJO

>  <chain>  (453) 
A

>  <ligands>  (453) 
[{'chain_id': 'A', 'author_residue_number': 501, 'author_insertion_code': '', 'chem_comp_id': 'AG7', 'alternate_conformers': 0, 'entity_id': 2, 'struct_asym_id': 'I', 'residue_number': 1, 'chem_comp_name': '4-{2-(4-FLUORO-BENZYL)-6-METHYL-5-[(5-METHYL-ISOXAZOLE-3-CARBONYL)-AMINO]-4-OXO-HEPTANOYLAMINO}-5-(2-OXO-PYRROLIDIN-3-YL)-PENTANOIC ACID ETHYL ESTER', 'weight': 600.678, 'carbohydrate_polymer': False, 'branch_name': ''}, {'chain_id': 'B', 'author_residue_number': 501, 'author_insertion_code': '', 'chem_comp_id': 'AG7', 'alternate_conformers': 0, 'entity_id': 2, 'struct_asym_id': 'J', 'residue_number': 1, 'chem_comp_name': '4-{2-(4-FLUORO-BENZYL)-6-METHYL-5-[(5-METHYL-ISOXAZOLE-3-CARBONYL)-AMINO]-4-OXO-HEPTANOYLAMINO}-5-(2-OXO-PYRROLIDIN-3-YL)-PENTANOIC ACID ETHYL ESTER', 'weight': 600.678, 'carbohydrate_polymer': False, 'branch_name': ''}, {'chain_id': 'C', 'author_residue_number': 501, 'author_insertion_code': '', 'chem_comp_id': 'AG7', 'alternate_conformers': 0, 'entity_id': 2, 'struct_asym_id': 'K', 'residue_number': 1, 'chem_comp_name': '4-{2-(4-FLUORO-BENZYL)-6-METHYL-5-[(5-METHYL-ISOXAZOLE-3-CARBONYL)-AMINO]-4-OXO-HEPTANOYLAMINO}-5-(2-OXO-PYRROLIDIN-3-YL)-PENTANOIC ACID ETHYL ESTER', 'weight': 600.678, 'carbohydrate_polymer': False, 'branch_name': ''}, {'chain_id': 'D', 'author_residue_number': 501, 'author_insertion_code': '', 'chem_comp_id': 'AG7', 'alternate_conformers': 0, 'entity_id': 2, 'struct_asym_id': 'L', 'residue_number': 1, 'chem_comp_name': '4-{2-(4-FLUORO-BENZYL)-6-METHYL-5-[(5-METHYL-ISOXAZOLE-3-CARBONYL)-AMINO]-4-OXO-HEPTANOYLAMINO}-5-(2-OXO-PYRROLIDIN-3-YL)-PENTANOIC ACID ETHYL ESTER', 'weight': 600.678, 'carbohydrate_polymer': False, 'branch_name': ''}, {'chain_id': 'E', 'author_residue_number': 501, 'author_insertion_code': '', 'chem_comp_id': 'AG7', 'alternate_conformers': 0, 'entity_id': 2, 'struct_asym_id': 'M', 'residue_number': 1, 'chem_comp_name': '4-{2-(4-FLUORO-BENZYL)-6-METHYL-5-[(5-METHYL-ISOXAZOLE-3-CARBONYL)-AMINO]-4-OXO-HEPTANOYLAMINO}-5-(2-OXO-PYRROLIDIN-3-YL)-PENTANOIC ACID ETHYL ESTER', 'weight': 600.678, 'carbohydrate_polymer': False, 'branch_name': ''}, {'chain_id': 'F', 'author_residue_number': 501, 'author_insertion_code': '', 'chem_comp_id': 'AG7', 'alternate_conformers': 0, 'entity_id': 2, 'struct_asym_id': 'N', 'residue_number': 1, 'chem_comp_name': '4-{2-(4-FLUORO-BENZYL)-6-METHYL-5-[(5-METHYL-ISOXAZOLE-3-CARBONYL)-AMINO]-4-OXO-HEPTANOYLAMINO}-5-(2-OXO-PYRROLIDIN-3-YL)-PENTANOIC ACID ETHYL ESTER', 'weight': 600.678, 'carbohydrate_polymer': False, 'branch_name': ''}, {'chain_id': 'G', 'author_residue_number': 501, 'author_insertion_code': '', 'chem_comp_id': 'AG7', 'alternate_conformers': 0, 'entity_id': 2, 'struct_asym_id': 'O', 'residue_number': 1, 'chem_comp_name': '4-{2-(4-FLUORO-BENZYL)-6-METHYL-5-[(5-METHYL-ISOXAZOLE-3-CARBONYL)-AMINO]-4-OXO-HEPTANOYLAMINO}-5-(2-OXO-PYRROLIDIN-3-YL)-PENTANOIC ACID ETHYL ESTER', 'weight': 600.678, 'carbohydrate_polymer': False, 'branch_name': ''}, {'chain_id': 'H', 'author_residue_number': 501, 'author_insertion_code': '', 'chem_comp_id': 'AG7', 'alternate_conformers': 0, 'entity_id': 2, 'struct_asym_id': 'P', 'residue_number': 1, 'chem_comp_name': '4-{2-(4-FLUORO-BENZYL)-6-METHYL-5-[(5-METHYL-ISOXAZOLE-3-CARBONYL)-AMINO]-4-OXO-HEPTANOYLAMINO}-5-(2-OXO-PYRROLIDIN-3-YL)-PENTANOIC ACID ETHYL ESTER', 'weight': 600.678, 'carbohydrate_polymer': False, 'branch_name': ''}]

>  <ligand_codes>  (453) 
['AG7', 'AG7', 'AG7', 'AG7', 'AG7', 'AG7', 'AG7', 'AG7']

>  <cofactor_codes>  (453) 
[]

>  <has_cofactor>  (453) 
False

>  <covalent>  (453) 
True

>  <base_name>  (453) 
3SJO

>  <lig_resn>  (453) 
AG7

>  <lig_resi>  (453) 
501

>  <lig_chain>  (453) 
A

>  <lig_segi>  (453) 
I

>  <lig_alt>  (453) 


>  <polymer_chain>  (453) 
A

>  <single_smiles>  (453) 
CCOC(=O)CC[C@H](C[C@@H]1CCNC1=O)NC(=O)[C@@H](CC(=O)[C@@H](NC(=O)c2cc(C)on2)C(C)C)Cc3ccc(F)cc3

$$$$
AG7P8S16
     RDKit          3D

 22 22  0  0  0  0  0  0  0  0999 V2000
   -9.7620   17.6260  -31.5940 C   0  0  0  0  0  0  0  0  0  0  0  0
   -8.7350   16.6450  -31.8730 N   0  0  0  0  0  0  0  0  0  0  0  0
  -10.2070   18.3220  -32.4960 O   0  0  0  0  0  0  0  0  0  0  0  0
   -8.3660   16.3160  -33.2440 C   0  0  2  0  0  0  0  0  0  0  0  0
   -8.7340   14.8750  -33.6330 C   0  0  0  0  0  0  0  0  0  0  0  0
   -6.9450   16.7440  -33.5590 C   0  0  0  0  0  0  0  0  0  0  0  0
   -9.1250   14.5600  -35.0710 C   0  0  0  0  0  0  0  0  0  0  0  0
   -8.9120   14.0500  -32.7640 O   0  0  0  0  0  0  0  0  0  0  0  0
   -6.7430   18.1960  -33.2420 C   0  0  0  0  0  0  0  0  0  0  0  0
   -5.9160   15.8690  -32.9170 C   0  0  0  0  0  0  0  0  0  0  0  0
   -9.2650   13.0870  -35.4210 C   0  0  2  0  0  0  0  0  0  0  0  0
   -8.2190   12.1920  -34.7470 C   0  0  0  0  0  0  0  0  0  0  0  0
   -9.4060   12.8260  -36.9090 C   0  0  0  0  0  0  0  0  0  0  0  0
   -8.6690   10.9670  -34.0900 N   0  0  0  0  0  0  0  0  0  0  0  0
   -7.0310   12.4100  -34.8930 O   0  0  0  0  0  0  0  0  0  0  0  0
  -10.4680   13.6500  -37.5900 C   0  0  0  0  0  0  0  0  0  0  0  0
  -11.8920   13.3740  -37.3060 C   0  0  0  0  0  0  0  0  0  0  0  0
  -10.0960   14.6950  -38.4660 C   0  0  0  0  0  0  0  0  0  0  0  0
  -12.9410   14.1870  -37.9670 C   0  0  0  0  0  0  0  0  0  0  0  0
  -11.1310   15.5040  -39.1190 C   0  0  0  0  0  0  0  0  0  0  0  0
  -12.5760   15.2200  -38.8370 C   0  0  0  0  0  0  0  0  0  0  0  0
  -13.5230   15.9340  -39.4430 F   0  0  0  0  0  0  0  0  0  0  0  0
  2  1  1  0
  1  3  2  0
  4  2  1  1
  5  4  1  0
  4  6  1  0
  5  7  1  0
  5  8  2  0
  6  9  1  0
  6 10  1  0
 11  7  1  6
 11 12  1  0
 11 13  1  0
 14 12  1  0
 12 15  2  0
 13 16  1  0
 16 17  2  0
 16 18  1  0
 17 19  1  0
 20 18  2  0
 19 21  2  0
 21 20  1  0
 21 22  1  0
A    2
 N58
A    3
 O60
A    4
 C57
A    5
 C01
A    6
 C78
A    7
 C02
A    8
 O03
A    9
 C81
A   10
 C82
A   11
 C04
A   12
 C47
A   13
 C05
A   15
 O48
A   16
 C06
A   17
 C07
A   18
 C11
A   19
 C08
A   20
 C10
A   21
 C09
A   22
 F1 
M  END
>  <XChem_code>  (454) 
AG7§8

>  <Occupancy>  (454) 
[1.0, 1.0, 1.0, 1.0, 1.0, 1.0, 1.0, 1.0, 1.0, 1.0, 1.0, 1.0, 1.0, 1.0, 1.0, 1.0, 1.0, 1.0, 1.0, 1.0, 1.0, 1.0, 1.0, 1.0, 1.0, 1.0, 1.0, 1.0, 1.0, 1.0, 1.0, 1.0, 1.0, 1.0, 1.0, 1.0, 1.0, 1.0, 1.0, 1.0, 1.0, 1.0, 1.0, 1.0]

>  <TempFactor>  (454) 
[18.81, 27.66, 18.42, 28.47, 31.3, 19.86, 18.0, 36.49, 33.82, 16.63, 29.4, 22.13, 22.68, 21.54, 23.87, 26.44, 24.22, 19.0, 15.21, 18.33, 16.27, 19.18, 19.0, 17.13, 14.73, 16.04, 18.83, 23.76, 19.63, 17.66, 18.54, 25.52, 26.09, 23.51, 21.61, 23.49, 26.81, 22.53, 27.37, 21.38, 21.53, 22.61, 16.29, 28.88]

>  <accession>  (454) 
3SJO_A

>  <description>  (454) 
Chain A, 3C protease [Enterovirus A71]

>  <evalue>  (454) 
1.0179e-70

>  <pdb_code>  (454) 
3SJO

>  <chain>  (454) 
A

>  <ligands>  (454) 
[{'chain_id': 'A', 'author_residue_number': 501, 'author_insertion_code': '', 'chem_comp_id': 'AG7', 'alternate_conformers': 0, 'entity_id': 2, 'struct_asym_id': 'I', 'residue_number': 1, 'chem_comp_name': '4-{2-(4-FLUORO-BENZYL)-6-METHYL-5-[(5-METHYL-ISOXAZOLE-3-CARBONYL)-AMINO]-4-OXO-HEPTANOYLAMINO}-5-(2-OXO-PYRROLIDIN-3-YL)-PENTANOIC ACID ETHYL ESTER', 'weight': 600.678, 'carbohydrate_polymer': False, 'branch_name': ''}, {'chain_id': 'B', 'author_residue_number': 501, 'author_insertion_code': '', 'chem_comp_id': 'AG7', 'alternate_conformers': 0, 'entity_id': 2, 'struct_asym_id': 'J', 'residue_number': 1, 'chem_comp_name': '4-{2-(4-FLUORO-BENZYL)-6-METHYL-5-[(5-METHYL-ISOXAZOLE-3-CARBONYL)-AMINO]-4-OXO-HEPTANOYLAMINO}-5-(2-OXO-PYRROLIDIN-3-YL)-PENTANOIC ACID ETHYL ESTER', 'weight': 600.678, 'carbohydrate_polymer': False, 'branch_name': ''}, {'chain_id': 'C', 'author_residue_number': 501, 'author_insertion_code': '', 'chem_comp_id': 'AG7', 'alternate_conformers': 0, 'entity_id': 2, 'struct_asym_id': 'K', 'residue_number': 1, 'chem_comp_name': '4-{2-(4-FLUORO-BENZYL)-6-METHYL-5-[(5-METHYL-ISOXAZOLE-3-CARBONYL)-AMINO]-4-OXO-HEPTANOYLAMINO}-5-(2-OXO-PYRROLIDIN-3-YL)-PENTANOIC ACID ETHYL ESTER', 'weight': 600.678, 'carbohydrate_polymer': False, 'branch_name': ''}, {'chain_id': 'D', 'author_residue_number': 501, 'author_insertion_code': '', 'chem_comp_id': 'AG7', 'alternate_conformers': 0, 'entity_id': 2, 'struct_asym_id': 'L', 'residue_number': 1, 'chem_comp_name': '4-{2-(4-FLUORO-BENZYL)-6-METHYL-5-[(5-METHYL-ISOXAZOLE-3-CARBONYL)-AMINO]-4-OXO-HEPTANOYLAMINO}-5-(2-OXO-PYRROLIDIN-3-YL)-PENTANOIC ACID ETHYL ESTER', 'weight': 600.678, 'carbohydrate_polymer': False, 'branch_name': ''}, {'chain_id': 'E', 'author_residue_number': 501, 'author_insertion_code': '', 'chem_comp_id': 'AG7', 'alternate_conformers': 0, 'entity_id': 2, 'struct_asym_id': 'M', 'residue_number': 1, 'chem_comp_name': '4-{2-(4-FLUORO-BENZYL)-6-METHYL-5-[(5-METHYL-ISOXAZOLE-3-CARBONYL)-AMINO]-4-OXO-HEPTANOYLAMINO}-5-(2-OXO-PYRROLIDIN-3-YL)-PENTANOIC ACID ETHYL ESTER', 'weight': 600.678, 'carbohydrate_polymer': False, 'branch_name': ''}, {'chain_id': 'F', 'author_residue_number': 501, 'author_insertion_code': '', 'chem_comp_id': 'AG7', 'alternate_conformers': 0, 'entity_id': 2, 'struct_asym_id': 'N', 'residue_number': 1, 'chem_comp_name': '4-{2-(4-FLUORO-BENZYL)-6-METHYL-5-[(5-METHYL-ISOXAZOLE-3-CARBONYL)-AMINO]-4-OXO-HEPTANOYLAMINO}-5-(2-OXO-PYRROLIDIN-3-YL)-PENTANOIC ACID ETHYL ESTER', 'weight': 600.678, 'carbohydrate_polymer': False, 'branch_name': ''}, {'chain_id': 'G', 'author_residue_number': 501, 'author_insertion_code': '', 'chem_comp_id': 'AG7', 'alternate_conformers': 0, 'entity_id': 2, 'struct_asym_id': 'O', 'residue_number': 1, 'chem_comp_name': '4-{2-(4-FLUORO-BENZYL)-6-METHYL-5-[(5-METHYL-ISOXAZOLE-3-CARBONYL)-AMINO]-4-OXO-HEPTANOYLAMINO}-5-(2-OXO-PYRROLIDIN-3-YL)-PENTANOIC ACID ETHYL ESTER', 'weight': 600.678, 'carbohydrate_polymer': False, 'branch_name': ''}, {'chain_id': 'H', 'author_residue_number': 501, 'author_insertion_code': '', 'chem_comp_id': 'AG7', 'alternate_conformers': 0, 'entity_id': 2, 'struct_asym_id': 'P', 'residue_number': 1, 'chem_comp_name': '4-{2-(4-FLUORO-BENZYL)-6-METHYL-5-[(5-METHYL-ISOXAZOLE-3-CARBONYL)-AMINO]-4-OXO-HEPTANOYLAMINO}-5-(2-OXO-PYRROLIDIN-3-YL)-PENTANOIC ACID ETHYL ESTER', 'weight': 600.678, 'carbohydrate_polymer': False, 'branch_name': ''}]

>  <ligand_codes>  (454) 
['AG7', 'AG7', 'AG7', 'AG7', 'AG7', 'AG7', 'AG7', 'AG7']

>  <cofactor_codes>  (454) 
[]

>  <has_cofactor>  (454) 
False

>  <covalent>  (454) 
True

>  <base_name>  (454) 
3SJO

>  <lig_resn>  (454) 
AG7

>  <lig_resi>  (454) 
501

>  <lig_chain>  (454) 
A

>  <lig_segi>  (454) 
I

>  <lig_alt>  (454) 


>  <polymer_chain>  (454) 
A

>  <single_smiles>  (454) 
CCOC(=O)CC[C@H](C[C@@H]1CCNC1=O)NC(=O)[C@@H](CC(=O)[C@@H](NC(=O)c2cc(C)on2)C(C)C)Cc3ccc(F)cc3

$$$$
AG7P8S17
     RDKit          3D

  6  6  0  0  0  0  0  0  0  0999 V2000
   -7.0030   11.1120  -31.5690 C   0  0  0  0  0  0  0  0  0  0  0  0
   -7.1160   11.2790  -30.0480 C   0  0  0  0  0  0  0  0  0  0  0  0
   -5.6150   11.5640  -31.9570 C   0  0  0  0  0  0  0  0  0  0  0  0
   -5.8140   11.8640  -29.5400 N   0  0  0  0  0  0  0  0  0  0  0  0
   -7.7570   10.3380  -29.3000 O   0  0  0  0  0  0  0  0  0  0  0  0
   -5.1080   12.3840  -30.7640 C   0  0  0  0  0  0  0  0  0  0  0  0
  1  2  1  0
  1  3  1  1
  2  4  1  0
  2  5  2  0
  6  3  1  0
  4  6  1  0
A    2
 C16
A    3
 C84
A    4
 N17
A    5
 O18
A    6
 C83
M  END
>  <XChem_code>  (455) 
AG7§8

>  <Occupancy>  (455) 
[1.0, 1.0, 1.0, 1.0, 1.0, 1.0, 1.0, 1.0, 1.0, 1.0, 1.0, 1.0, 1.0, 1.0, 1.0, 1.0, 1.0, 1.0, 1.0, 1.0, 1.0, 1.0, 1.0, 1.0, 1.0, 1.0, 1.0, 1.0, 1.0, 1.0, 1.0, 1.0, 1.0, 1.0, 1.0, 1.0, 1.0, 1.0, 1.0, 1.0, 1.0, 1.0, 1.0, 1.0]

>  <TempFactor>  (455) 
[18.81, 27.66, 18.42, 28.47, 31.3, 19.86, 18.0, 36.49, 33.82, 16.63, 29.4, 22.13, 22.68, 21.54, 23.87, 26.44, 24.22, 19.0, 15.21, 18.33, 16.27, 19.18, 19.0, 17.13, 14.73, 16.04, 18.83, 23.76, 19.63, 17.66, 18.54, 25.52, 26.09, 23.51, 21.61, 23.49, 26.81, 22.53, 27.37, 21.38, 21.53, 22.61, 16.29, 28.88]

>  <accession>  (455) 
3SJO_A

>  <description>  (455) 
Chain A, 3C protease [Enterovirus A71]

>  <evalue>  (455) 
1.0179e-70

>  <pdb_code>  (455) 
3SJO

>  <chain>  (455) 
A

>  <ligands>  (455) 
[{'chain_id': 'A', 'author_residue_number': 501, 'author_insertion_code': '', 'chem_comp_id': 'AG7', 'alternate_conformers': 0, 'entity_id': 2, 'struct_asym_id': 'I', 'residue_number': 1, 'chem_comp_name': '4-{2-(4-FLUORO-BENZYL)-6-METHYL-5-[(5-METHYL-ISOXAZOLE-3-CARBONYL)-AMINO]-4-OXO-HEPTANOYLAMINO}-5-(2-OXO-PYRROLIDIN-3-YL)-PENTANOIC ACID ETHYL ESTER', 'weight': 600.678, 'carbohydrate_polymer': False, 'branch_name': ''}, {'chain_id': 'B', 'author_residue_number': 501, 'author_insertion_code': '', 'chem_comp_id': 'AG7', 'alternate_conformers': 0, 'entity_id': 2, 'struct_asym_id': 'J', 'residue_number': 1, 'chem_comp_name': '4-{2-(4-FLUORO-BENZYL)-6-METHYL-5-[(5-METHYL-ISOXAZOLE-3-CARBONYL)-AMINO]-4-OXO-HEPTANOYLAMINO}-5-(2-OXO-PYRROLIDIN-3-YL)-PENTANOIC ACID ETHYL ESTER', 'weight': 600.678, 'carbohydrate_polymer': False, 'branch_name': ''}, {'chain_id': 'C', 'author_residue_number': 501, 'author_insertion_code': '', 'chem_comp_id': 'AG7', 'alternate_conformers': 0, 'entity_id': 2, 'struct_asym_id': 'K', 'residue_number': 1, 'chem_comp_name': '4-{2-(4-FLUORO-BENZYL)-6-METHYL-5-[(5-METHYL-ISOXAZOLE-3-CARBONYL)-AMINO]-4-OXO-HEPTANOYLAMINO}-5-(2-OXO-PYRROLIDIN-3-YL)-PENTANOIC ACID ETHYL ESTER', 'weight': 600.678, 'carbohydrate_polymer': False, 'branch_name': ''}, {'chain_id': 'D', 'author_residue_number': 501, 'author_insertion_code': '', 'chem_comp_id': 'AG7', 'alternate_conformers': 0, 'entity_id': 2, 'struct_asym_id': 'L', 'residue_number': 1, 'chem_comp_name': '4-{2-(4-FLUORO-BENZYL)-6-METHYL-5-[(5-METHYL-ISOXAZOLE-3-CARBONYL)-AMINO]-4-OXO-HEPTANOYLAMINO}-5-(2-OXO-PYRROLIDIN-3-YL)-PENTANOIC ACID ETHYL ESTER', 'weight': 600.678, 'carbohydrate_polymer': False, 'branch_name': ''}, {'chain_id': 'E', 'author_residue_number': 501, 'author_insertion_code': '', 'chem_comp_id': 'AG7', 'alternate_conformers': 0, 'entity_id': 2, 'struct_asym_id': 'M', 'residue_number': 1, 'chem_comp_name': '4-{2-(4-FLUORO-BENZYL)-6-METHYL-5-[(5-METHYL-ISOXAZOLE-3-CARBONYL)-AMINO]-4-OXO-HEPTANOYLAMINO}-5-(2-OXO-PYRROLIDIN-3-YL)-PENTANOIC ACID ETHYL ESTER', 'weight': 600.678, 'carbohydrate_polymer': False, 'branch_name': ''}, {'chain_id': 'F', 'author_residue_number': 501, 'author_insertion_code': '', 'chem_comp_id': 'AG7', 'alternate_conformers': 0, 'entity_id': 2, 'struct_asym_id': 'N', 'residue_number': 1, 'chem_comp_name': '4-{2-(4-FLUORO-BENZYL)-6-METHYL-5-[(5-METHYL-ISOXAZOLE-3-CARBONYL)-AMINO]-4-OXO-HEPTANOYLAMINO}-5-(2-OXO-PYRROLIDIN-3-YL)-PENTANOIC ACID ETHYL ESTER', 'weight': 600.678, 'carbohydrate_polymer': False, 'branch_name': ''}, {'chain_id': 'G', 'author_residue_number': 501, 'author_insertion_code': '', 'chem_comp_id': 'AG7', 'alternate_conformers': 0, 'entity_id': 2, 'struct_asym_id': 'O', 'residue_number': 1, 'chem_comp_name': '4-{2-(4-FLUORO-BENZYL)-6-METHYL-5-[(5-METHYL-ISOXAZOLE-3-CARBONYL)-AMINO]-4-OXO-HEPTANOYLAMINO}-5-(2-OXO-PYRROLIDIN-3-YL)-PENTANOIC ACID ETHYL ESTER', 'weight': 600.678, 'carbohydrate_polymer': False, 'branch_name': ''}, {'chain_id': 'H', 'author_residue_number': 501, 'author_insertion_code': '', 'chem_comp_id': 'AG7', 'alternate_conformers': 0, 'entity_id': 2, 'struct_asym_id': 'P', 'residue_number': 1, 'chem_comp_name': '4-{2-(4-FLUORO-BENZYL)-6-METHYL-5-[(5-METHYL-ISOXAZOLE-3-CARBONYL)-AMINO]-4-OXO-HEPTANOYLAMINO}-5-(2-OXO-PYRROLIDIN-3-YL)-PENTANOIC ACID ETHYL ESTER', 'weight': 600.678, 'carbohydrate_polymer': False, 'branch_name': ''}]

>  <ligand_codes>  (455) 
['AG7', 'AG7', 'AG7', 'AG7', 'AG7', 'AG7', 'AG7', 'AG7']

>  <cofactor_codes>  (455) 
[]

>  <has_cofactor>  (455) 
False

>  <covalent>  (455) 
True

>  <base_name>  (455) 
3SJO

>  <lig_resn>  (455) 
AG7

>  <lig_resi>  (455) 
501

>  <lig_chain>  (455) 
A

>  <lig_segi>  (455) 
I

>  <lig_alt>  (455) 


>  <polymer_chain>  (455) 
A

>  <single_smiles>  (455) 
CCOC(=O)CC[C@H](C[C@@H]1CCNC1=O)NC(=O)[C@@H](CC(=O)[C@@H](NC(=O)c2cc(C)on2)C(C)C)Cc3ccc(F)cc3

$$$$
AG7P8S18
     RDKit          3D

 38 39  0  0  0  0  0  0  0  0999 V2000
   -7.5680    9.8350  -32.1900 C   0  0  0  0  0  0  0  0  0  0  0  0
   -7.6950    9.9410  -33.7020 C   0  0  2  0  0  0  0  0  0  0  0  0
   -8.6690   10.9670  -34.0900 N   0  0  0  0  0  0  0  0  0  0  0  0
   -7.9440    8.6270  -34.4090 C   0  0  2  0  0  0  0  0  0  0  0  0
   -8.2190   12.1920  -34.7470 C   0  0  0  0  0  0  0  0  0  0  0  0
   -7.6890    8.6920  -35.9030 C   0  0  0  0  0  0  0  0  0  0  0  0
   -9.6990    8.3690  -34.0940 R   0  0  0  0  0  0  0  0  0  0  0  0
   -9.2650   13.0870  -35.4210 C   0  0  1  0  0  0  0  0  0  0  0  0
   -7.0310   12.4100  -34.8930 O   0  0  0  0  0  0  0  0  0  0  0  0
   -6.2280    8.9610  -36.2420 C   0  0  0  0  0  0  0  0  0  0  0  0
   -9.1250   14.5600  -35.0710 C   0  0  0  0  0  0  0  0  0  0  0  0
   -9.4060   12.8260  -36.9090 C   0  0  0  0  0  0  0  0  0  0  0  0
   -5.9130    9.9450  -37.0170 O   0  0  0  0  0  0  0  0  0  0  0  0
   -5.3400    8.4630  -35.5080 O   0  0  0  0  0  0  0  0  0  0  0  0
   -8.7340   14.8750  -33.6330 C   0  0  0  0  0  0  0  0  0  0  0  0
  -10.4680   13.6500  -37.5900 C   0  0  0  0  0  0  0  0  0  0  0  0
   -4.5540   10.2290  -37.2100 C   0  0  0  0  0  0  0  0  0  0  0  0
   -8.9120   14.0500  -32.7640 O   0  0  0  0  0  0  0  0  0  0  0  0
   -8.3660   16.3160  -33.2440 C   0  0  1  0  0  0  0  0  0  0  0  0
  -11.8920   13.3740  -37.3060 C   0  0  0  0  0  0  0  0  0  0  0  0
  -10.0960   14.6950  -38.4660 C   0  0  0  0  0  0  0  0  0  0  0  0
   -4.2040   11.6040  -37.7340 C   0  0  0  0  0  0  0  0  0  0  0  0
   -8.7350   16.6450  -31.8730 N   0  0  0  0  0  0  0  0  0  0  0  0
   -6.9450   16.7440  -33.5590 C   0  0  0  0  0  0  0  0  0  0  0  0
  -12.9410   14.1870  -37.9670 C   0  0  0  0  0  0  0  0  0  0  0  0
  -11.1310   15.5040  -39.1190 C   0  0  0  0  0  0  0  0  0  0  0  0
   -9.7620   17.6260  -31.5940 C   0  0  0  0  0  0  0  0  0  0  0  0
   -6.7430   18.1960  -33.2420 C   0  0  0  0  0  0  0  0  0  0  0  0
   -5.9160   15.8690  -32.9170 C   0  0  0  0  0  0  0  0  0  0  0  0
  -12.5760   15.2200  -38.8370 C   0  0  0  0  0  0  0  0  0  0  0  0
  -10.1690   17.8670  -30.1510 C   0  0  0  0  0  0  0  0  0  0  0  0
  -10.2070   18.3220  -32.4960 O   0  0  0  0  0  0  0  0  0  0  0  0
  -13.5230   15.9340  -39.4430 F   0  0  0  0  0  0  0  0  0  0  0  0
  -11.1420   18.9430  -29.6030 C   0  0  0  0  0  0  0  0  0  0  0  0
   -9.7110   17.1440  -29.0800 N   0  0  0  0  0  0  0  0  0  0  0  0
  -11.1970   18.7860  -28.1620 C   0  0  0  0  0  0  0  0  0  0  0  0
  -10.3350   17.7020  -27.7930 O   0  0  0  0  0  0  0  0  0  0  0  0
  -12.0110   19.6150  -27.2080 C   0  0  0  0  0  0  0  0  0  0  0  0
  2  1  1  1
  3  2  1  0
  2  4  1  0
  3  5  1  0
  4  6  1  0
  4  7  1  6
  8  5  1  0
  5  9  2  0
  6 10  1  0
  8 11  1  6
  8 12  1  0
 10 13  1  0
 10 14  2  0
 15 11  1  0
 12 16  1  0
 13 17  1  0
 15 18  2  0
 15 19  1  0
 16 20  2  0
 16 21  1  0
 17 22  1  0
 19 23  1  1
 19 24  1  0
 20 25  1  0
 26 21  2  0
 23 27  1  0
 24 28  1  0
 24 29  1  0
 25 30  2  0
 30 26  1  0
 31 27  1  0
 27 32  2  0
 30 33  1  0
 31 34  1  0
 31 35  2  0
 34 36  2  0
 37 35  1  0
 36 38  1  0
 36 37  1  0
V    7 *
A    2
 C13
A    3
 N12
A    4
 C19
A    5
 C47
A    6
 C20
A    7
 X  
A    8
 C04
A    9
 O48
A   10
 C21
A   11
 C02
A   12
 C05
A   13
 O22
A   14
 O23
A   15
 C01
A   16
 C06
A   17
 C50
A   18
 O03
A   19
 C57
A   20
 C07
A   21
 C11
A   22
 C53
A   23
 N58
A   24
 C78
A   25
 C08
A   26
 C10
A   27
 C59
A   28
 C81
A   29
 C82
A   30
 C09
A   31
 C1 
A   32
 O60
A   33
 F1 
A   34
 C2 
A   35
 N5 
A   36
 C3 
A   37
 O4 
A   38
 C4 
M  END
>  <XChem_code>  (456) 
AG7§8

>  <Occupancy>  (456) 
[1.0, 1.0, 1.0, 1.0, 1.0, 1.0, 1.0, 1.0, 1.0, 1.0, 1.0, 1.0, 1.0, 1.0, 1.0, 1.0, 1.0, 1.0, 1.0, 1.0, 1.0, 1.0, 1.0, 1.0, 1.0, 1.0, 1.0, 1.0, 1.0, 1.0, 1.0, 1.0, 1.0, 1.0, 1.0, 1.0, 1.0, 1.0, 1.0, 1.0, 1.0, 1.0, 1.0, 1.0]

>  <TempFactor>  (456) 
[18.81, 27.66, 18.42, 28.47, 31.3, 19.86, 18.0, 36.49, 33.82, 16.63, 29.4, 22.13, 22.68, 21.54, 23.87, 26.44, 24.22, 19.0, 15.21, 18.33, 16.27, 19.18, 19.0, 17.13, 14.73, 16.04, 18.83, 23.76, 19.63, 17.66, 18.54, 25.52, 26.09, 23.51, 21.61, 23.49, 26.81, 22.53, 27.37, 21.38, 21.53, 22.61, 16.29, 28.88]

>  <accession>  (456) 
3SJO_A

>  <description>  (456) 
Chain A, 3C protease [Enterovirus A71]

>  <evalue>  (456) 
1.0179e-70

>  <pdb_code>  (456) 
3SJO

>  <chain>  (456) 
A

>  <ligands>  (456) 
[{'chain_id': 'A', 'author_residue_number': 501, 'author_insertion_code': '', 'chem_comp_id': 'AG7', 'alternate_conformers': 0, 'entity_id': 2, 'struct_asym_id': 'I', 'residue_number': 1, 'chem_comp_name': '4-{2-(4-FLUORO-BENZYL)-6-METHYL-5-[(5-METHYL-ISOXAZOLE-3-CARBONYL)-AMINO]-4-OXO-HEPTANOYLAMINO}-5-(2-OXO-PYRROLIDIN-3-YL)-PENTANOIC ACID ETHYL ESTER', 'weight': 600.678, 'carbohydrate_polymer': False, 'branch_name': ''}, {'chain_id': 'B', 'author_residue_number': 501, 'author_insertion_code': '', 'chem_comp_id': 'AG7', 'alternate_conformers': 0, 'entity_id': 2, 'struct_asym_id': 'J', 'residue_number': 1, 'chem_comp_name': '4-{2-(4-FLUORO-BENZYL)-6-METHYL-5-[(5-METHYL-ISOXAZOLE-3-CARBONYL)-AMINO]-4-OXO-HEPTANOYLAMINO}-5-(2-OXO-PYRROLIDIN-3-YL)-PENTANOIC ACID ETHYL ESTER', 'weight': 600.678, 'carbohydrate_polymer': False, 'branch_name': ''}, {'chain_id': 'C', 'author_residue_number': 501, 'author_insertion_code': '', 'chem_comp_id': 'AG7', 'alternate_conformers': 0, 'entity_id': 2, 'struct_asym_id': 'K', 'residue_number': 1, 'chem_comp_name': '4-{2-(4-FLUORO-BENZYL)-6-METHYL-5-[(5-METHYL-ISOXAZOLE-3-CARBONYL)-AMINO]-4-OXO-HEPTANOYLAMINO}-5-(2-OXO-PYRROLIDIN-3-YL)-PENTANOIC ACID ETHYL ESTER', 'weight': 600.678, 'carbohydrate_polymer': False, 'branch_name': ''}, {'chain_id': 'D', 'author_residue_number': 501, 'author_insertion_code': '', 'chem_comp_id': 'AG7', 'alternate_conformers': 0, 'entity_id': 2, 'struct_asym_id': 'L', 'residue_number': 1, 'chem_comp_name': '4-{2-(4-FLUORO-BENZYL)-6-METHYL-5-[(5-METHYL-ISOXAZOLE-3-CARBONYL)-AMINO]-4-OXO-HEPTANOYLAMINO}-5-(2-OXO-PYRROLIDIN-3-YL)-PENTANOIC ACID ETHYL ESTER', 'weight': 600.678, 'carbohydrate_polymer': False, 'branch_name': ''}, {'chain_id': 'E', 'author_residue_number': 501, 'author_insertion_code': '', 'chem_comp_id': 'AG7', 'alternate_conformers': 0, 'entity_id': 2, 'struct_asym_id': 'M', 'residue_number': 1, 'chem_comp_name': '4-{2-(4-FLUORO-BENZYL)-6-METHYL-5-[(5-METHYL-ISOXAZOLE-3-CARBONYL)-AMINO]-4-OXO-HEPTANOYLAMINO}-5-(2-OXO-PYRROLIDIN-3-YL)-PENTANOIC ACID ETHYL ESTER', 'weight': 600.678, 'carbohydrate_polymer': False, 'branch_name': ''}, {'chain_id': 'F', 'author_residue_number': 501, 'author_insertion_code': '', 'chem_comp_id': 'AG7', 'alternate_conformers': 0, 'entity_id': 2, 'struct_asym_id': 'N', 'residue_number': 1, 'chem_comp_name': '4-{2-(4-FLUORO-BENZYL)-6-METHYL-5-[(5-METHYL-ISOXAZOLE-3-CARBONYL)-AMINO]-4-OXO-HEPTANOYLAMINO}-5-(2-OXO-PYRROLIDIN-3-YL)-PENTANOIC ACID ETHYL ESTER', 'weight': 600.678, 'carbohydrate_polymer': False, 'branch_name': ''}, {'chain_id': 'G', 'author_residue_number': 501, 'author_insertion_code': '', 'chem_comp_id': 'AG7', 'alternate_conformers': 0, 'entity_id': 2, 'struct_asym_id': 'O', 'residue_number': 1, 'chem_comp_name': '4-{2-(4-FLUORO-BENZYL)-6-METHYL-5-[(5-METHYL-ISOXAZOLE-3-CARBONYL)-AMINO]-4-OXO-HEPTANOYLAMINO}-5-(2-OXO-PYRROLIDIN-3-YL)-PENTANOIC ACID ETHYL ESTER', 'weight': 600.678, 'carbohydrate_polymer': False, 'branch_name': ''}, {'chain_id': 'H', 'author_residue_number': 501, 'author_insertion_code': '', 'chem_comp_id': 'AG7', 'alternate_conformers': 0, 'entity_id': 2, 'struct_asym_id': 'P', 'residue_number': 1, 'chem_comp_name': '4-{2-(4-FLUORO-BENZYL)-6-METHYL-5-[(5-METHYL-ISOXAZOLE-3-CARBONYL)-AMINO]-4-OXO-HEPTANOYLAMINO}-5-(2-OXO-PYRROLIDIN-3-YL)-PENTANOIC ACID ETHYL ESTER', 'weight': 600.678, 'carbohydrate_polymer': False, 'branch_name': ''}]

>  <ligand_codes>  (456) 
['AG7', 'AG7', 'AG7', 'AG7', 'AG7', 'AG7', 'AG7', 'AG7']

>  <cofactor_codes>  (456) 
[]

>  <has_cofactor>  (456) 
False

>  <covalent>  (456) 
True

>  <base_name>  (456) 
3SJO

>  <lig_resn>  (456) 
AG7

>  <lig_resi>  (456) 
501

>  <lig_chain>  (456) 
A

>  <lig_segi>  (456) 
I

>  <lig_alt>  (456) 


>  <polymer_chain>  (456) 
A

>  <single_smiles>  (456) 
CCOC(=O)CC[C@H](C[C@@H]1CCNC1=O)NC(=O)[C@@H](CC(=O)[C@@H](NC(=O)c2cc(C)on2)C(C)C)Cc3ccc(F)cc3

$$$$
AG7P8S19
     RDKit          3D

  7  7  0  0  0  0  0  0  0  0999 V2000
  -10.4680   13.6500  -37.5900 C   0  0  0  0  0  0  0  0  0  0  0  0
  -11.8920   13.3740  -37.3060 C   0  0  0  0  0  0  0  0  0  0  0  0
  -10.0960   14.6950  -38.4660 C   0  0  0  0  0  0  0  0  0  0  0  0
  -12.9410   14.1870  -37.9670 C   0  0  0  0  0  0  0  0  0  0  0  0
  -11.1310   15.5040  -39.1190 C   0  0  0  0  0  0  0  0  0  0  0  0
  -12.5760   15.2200  -38.8370 C   0  0  0  0  0  0  0  0  0  0  0  0
  -13.5230   15.9340  -39.4430 F   0  0  0  0  0  0  0  0  0  0  0  0
  1  2  2  0
  1  3  1  0
  2  4  1  0
  5  3  2  0
  4  6  2  0
  6  5  1  0
  6  7  1  0
A    2
 C07
A    3
 C11
A    4
 C08
A    5
 C10
A    6
 C09
A    7
 F1 
M  END
>  <XChem_code>  (457) 
AG7§8

>  <Occupancy>  (457) 
[1.0, 1.0, 1.0, 1.0, 1.0, 1.0, 1.0, 1.0, 1.0, 1.0, 1.0, 1.0, 1.0, 1.0, 1.0, 1.0, 1.0, 1.0, 1.0, 1.0, 1.0, 1.0, 1.0, 1.0, 1.0, 1.0, 1.0, 1.0, 1.0, 1.0, 1.0, 1.0, 1.0, 1.0, 1.0, 1.0, 1.0, 1.0, 1.0, 1.0, 1.0, 1.0, 1.0, 1.0]

>  <TempFactor>  (457) 
[18.81, 27.66, 18.42, 28.47, 31.3, 19.86, 18.0, 36.49, 33.82, 16.63, 29.4, 22.13, 22.68, 21.54, 23.87, 26.44, 24.22, 19.0, 15.21, 18.33, 16.27, 19.18, 19.0, 17.13, 14.73, 16.04, 18.83, 23.76, 19.63, 17.66, 18.54, 25.52, 26.09, 23.51, 21.61, 23.49, 26.81, 22.53, 27.37, 21.38, 21.53, 22.61, 16.29, 28.88]

>  <accession>  (457) 
3SJO_A

>  <description>  (457) 
Chain A, 3C protease [Enterovirus A71]

>  <evalue>  (457) 
1.0179e-70

>  <pdb_code>  (457) 
3SJO

>  <chain>  (457) 
A

>  <ligands>  (457) 
[{'chain_id': 'A', 'author_residue_number': 501, 'author_insertion_code': '', 'chem_comp_id': 'AG7', 'alternate_conformers': 0, 'entity_id': 2, 'struct_asym_id': 'I', 'residue_number': 1, 'chem_comp_name': '4-{2-(4-FLUORO-BENZYL)-6-METHYL-5-[(5-METHYL-ISOXAZOLE-3-CARBONYL)-AMINO]-4-OXO-HEPTANOYLAMINO}-5-(2-OXO-PYRROLIDIN-3-YL)-PENTANOIC ACID ETHYL ESTER', 'weight': 600.678, 'carbohydrate_polymer': False, 'branch_name': ''}, {'chain_id': 'B', 'author_residue_number': 501, 'author_insertion_code': '', 'chem_comp_id': 'AG7', 'alternate_conformers': 0, 'entity_id': 2, 'struct_asym_id': 'J', 'residue_number': 1, 'chem_comp_name': '4-{2-(4-FLUORO-BENZYL)-6-METHYL-5-[(5-METHYL-ISOXAZOLE-3-CARBONYL)-AMINO]-4-OXO-HEPTANOYLAMINO}-5-(2-OXO-PYRROLIDIN-3-YL)-PENTANOIC ACID ETHYL ESTER', 'weight': 600.678, 'carbohydrate_polymer': False, 'branch_name': ''}, {'chain_id': 'C', 'author_residue_number': 501, 'author_insertion_code': '', 'chem_comp_id': 'AG7', 'alternate_conformers': 0, 'entity_id': 2, 'struct_asym_id': 'K', 'residue_number': 1, 'chem_comp_name': '4-{2-(4-FLUORO-BENZYL)-6-METHYL-5-[(5-METHYL-ISOXAZOLE-3-CARBONYL)-AMINO]-4-OXO-HEPTANOYLAMINO}-5-(2-OXO-PYRROLIDIN-3-YL)-PENTANOIC ACID ETHYL ESTER', 'weight': 600.678, 'carbohydrate_polymer': False, 'branch_name': ''}, {'chain_id': 'D', 'author_residue_number': 501, 'author_insertion_code': '', 'chem_comp_id': 'AG7', 'alternate_conformers': 0, 'entity_id': 2, 'struct_asym_id': 'L', 'residue_number': 1, 'chem_comp_name': '4-{2-(4-FLUORO-BENZYL)-6-METHYL-5-[(5-METHYL-ISOXAZOLE-3-CARBONYL)-AMINO]-4-OXO-HEPTANOYLAMINO}-5-(2-OXO-PYRROLIDIN-3-YL)-PENTANOIC ACID ETHYL ESTER', 'weight': 600.678, 'carbohydrate_polymer': False, 'branch_name': ''}, {'chain_id': 'E', 'author_residue_number': 501, 'author_insertion_code': '', 'chem_comp_id': 'AG7', 'alternate_conformers': 0, 'entity_id': 2, 'struct_asym_id': 'M', 'residue_number': 1, 'chem_comp_name': '4-{2-(4-FLUORO-BENZYL)-6-METHYL-5-[(5-METHYL-ISOXAZOLE-3-CARBONYL)-AMINO]-4-OXO-HEPTANOYLAMINO}-5-(2-OXO-PYRROLIDIN-3-YL)-PENTANOIC ACID ETHYL ESTER', 'weight': 600.678, 'carbohydrate_polymer': False, 'branch_name': ''}, {'chain_id': 'F', 'author_residue_number': 501, 'author_insertion_code': '', 'chem_comp_id': 'AG7', 'alternate_conformers': 0, 'entity_id': 2, 'struct_asym_id': 'N', 'residue_number': 1, 'chem_comp_name': '4-{2-(4-FLUORO-BENZYL)-6-METHYL-5-[(5-METHYL-ISOXAZOLE-3-CARBONYL)-AMINO]-4-OXO-HEPTANOYLAMINO}-5-(2-OXO-PYRROLIDIN-3-YL)-PENTANOIC ACID ETHYL ESTER', 'weight': 600.678, 'carbohydrate_polymer': False, 'branch_name': ''}, {'chain_id': 'G', 'author_residue_number': 501, 'author_insertion_code': '', 'chem_comp_id': 'AG7', 'alternate_conformers': 0, 'entity_id': 2, 'struct_asym_id': 'O', 'residue_number': 1, 'chem_comp_name': '4-{2-(4-FLUORO-BENZYL)-6-METHYL-5-[(5-METHYL-ISOXAZOLE-3-CARBONYL)-AMINO]-4-OXO-HEPTANOYLAMINO}-5-(2-OXO-PYRROLIDIN-3-YL)-PENTANOIC ACID ETHYL ESTER', 'weight': 600.678, 'carbohydrate_polymer': False, 'branch_name': ''}, {'chain_id': 'H', 'author_residue_number': 501, 'author_insertion_code': '', 'chem_comp_id': 'AG7', 'alternate_conformers': 0, 'entity_id': 2, 'struct_asym_id': 'P', 'residue_number': 1, 'chem_comp_name': '4-{2-(4-FLUORO-BENZYL)-6-METHYL-5-[(5-METHYL-ISOXAZOLE-3-CARBONYL)-AMINO]-4-OXO-HEPTANOYLAMINO}-5-(2-OXO-PYRROLIDIN-3-YL)-PENTANOIC ACID ETHYL ESTER', 'weight': 600.678, 'carbohydrate_polymer': False, 'branch_name': ''}]

>  <ligand_codes>  (457) 
['AG7', 'AG7', 'AG7', 'AG7', 'AG7', 'AG7', 'AG7', 'AG7']

>  <cofactor_codes>  (457) 
[]

>  <has_cofactor>  (457) 
False

>  <covalent>  (457) 
True

>  <base_name>  (457) 
3SJO

>  <lig_resn>  (457) 
AG7

>  <lig_resi>  (457) 
501

>  <lig_chain>  (457) 
A

>  <lig_segi>  (457) 
I

>  <lig_alt>  (457) 


>  <polymer_chain>  (457) 
A

>  <single_smiles>  (457) 
CCOC(=O)CC[C@H](C[C@@H]1CCNC1=O)NC(=O)[C@@H](CC(=O)[C@@H](NC(=O)c2cc(C)on2)C(C)C)Cc3ccc(F)cc3

$$$$
AG7P8S20
     RDKit          3D

 37 38  0  0  0  0  0  0  0  0999 V2000
   -9.4060   12.8260  -36.9090 C   0  0  0  0  0  0  0  0  0  0  0  0
   -9.2650   13.0870  -35.4210 C   0  0  2  0  0  0  0  0  0  0  0  0
   -9.1250   14.5600  -35.0710 C   0  0  0  0  0  0  0  0  0  0  0  0
   -8.2190   12.1920  -34.7470 C   0  0  0  0  0  0  0  0  0  0  0  0
   -8.7340   14.8750  -33.6330 C   0  0  0  0  0  0  0  0  0  0  0  0
   -8.6690   10.9670  -34.0900 N   0  0  0  0  0  0  0  0  0  0  0  0
   -7.0310   12.4100  -34.8930 O   0  0  0  0  0  0  0  0  0  0  0  0
   -8.9120   14.0500  -32.7640 O   0  0  0  0  0  0  0  0  0  0  0  0
   -8.3660   16.3160  -33.2440 C   0  0  1  0  0  0  0  0  0  0  0  0
   -7.6950    9.9410  -33.7020 C   0  0  1  0  0  0  0  0  0  0  0  0
   -8.7350   16.6450  -31.8730 N   0  0  0  0  0  0  0  0  0  0  0  0
   -6.9450   16.7440  -33.5590 C   0  0  0  0  0  0  0  0  0  0  0  0
   -7.5680    9.8350  -32.1900 C   0  0  0  0  0  0  0  0  0  0  0  0
   -7.9440    8.6270  -34.4090 C   0  0  2  0  0  0  0  0  0  0  0  0
   -9.7620   17.6260  -31.5940 C   0  0  0  0  0  0  0  0  0  0  0  0
   -6.7430   18.1960  -33.2420 C   0  0  0  0  0  0  0  0  0  0  0  0
   -5.9160   15.8690  -32.9170 C   0  0  0  0  0  0  0  0  0  0  0  0
   -7.0030   11.1120  -31.5690 C   0  0  1  0  0  0  0  0  0  0  0  0
   -7.6890    8.6920  -35.9030 C   0  0  0  0  0  0  0  0  0  0  0  0
   -9.6990    8.3690  -34.0940 R   0  0  0  0  0  0  0  0  0  0  0  0
  -10.1690   17.8670  -30.1510 C   0  0  0  0  0  0  0  0  0  0  0  0
  -10.2070   18.3220  -32.4960 O   0  0  0  0  0  0  0  0  0  0  0  0
   -7.1160   11.2790  -30.0480 C   0  0  0  0  0  0  0  0  0  0  0  0
   -5.6150   11.5640  -31.9570 C   0  0  0  0  0  0  0  0  0  0  0  0
   -6.2280    8.9610  -36.2420 C   0  0  0  0  0  0  0  0  0  0  0  0
  -11.1420   18.9430  -29.6030 C   0  0  0  0  0  0  0  0  0  0  0  0
   -9.7110   17.1440  -29.0800 N   0  0  0  0  0  0  0  0  0  0  0  0
   -5.8140   11.8640  -29.5400 N   0  0  0  0  0  0  0  0  0  0  0  0
   -7.7570   10.3380  -29.3000 O   0  0  0  0  0  0  0  0  0  0  0  0
   -5.1080   12.3840  -30.7640 C   0  0  0  0  0  0  0  0  0  0  0  0
   -5.9130    9.9450  -37.0170 O   0  0  0  0  0  0  0  0  0  0  0  0
   -5.3400    8.4630  -35.5080 O   0  0  0  0  0  0  0  0  0  0  0  0
  -11.1970   18.7860  -28.1620 C   0  0  0  0  0  0  0  0  0  0  0  0
  -10.3350   17.7020  -27.7930 O   0  0  0  0  0  0  0  0  0  0  0  0
   -4.5540   10.2290  -37.2100 C   0  0  0  0  0  0  0  0  0  0  0  0
  -12.0110   19.6150  -27.2080 C   0  0  0  0  0  0  0  0  0  0  0  0
   -4.2040   11.6040  -37.7340 C   0  0  0  0  0  0  0  0  0  0  0  0
  2  1  1  6
  2  3  1  0
  2  4  1  0
  5  3  1  0
  6  4  1  0
  4  7  2  0
  5  8  2  0
  5  9  1  0
  6 10  1  0
  9 11  1  1
  9 12  1  0
 10 13  1  1
 10 14  1  0
 11 15  1  0
 12 16  1  0
 12 17  1  0
 18 13  1  1
 14 19  1  0
 14 20  1  6
 21 15  1  0
 15 22  2  0
 18 23  1  0
 18 24  1  0
 19 25  1  0
 21 26  1  0
 21 27  2  0
 23 28  1  0
 23 29  2  0
 30 24  1  0
 25 31  1  0
 25 32  2  0
 26 33  2  0
 34 27  1  0
 28 30  1  0
 31 35  1  0
 33 36  1  0
 33 34  1  0
 35 37  1  0
V   20 *
A    2
 C04
A    3
 C02
A    4
 C47
A    5
 C01
A    6
 N12
A    7
 O48
A    8
 O03
A    9
 C57
A   10
 C13
A   11
 N58
A   12
 C78
A   13
 C14
A   14
 C19
A   15
 C59
A   16
 C81
A   17
 C82
A   18
 C15
A   19
 C20
A   20
 X  
A   21
 C1 
A   22
 O60
A   23
 C16
A   24
 C84
A   25
 C21
A   26
 C2 
A   27
 N5 
A   28
 N17
A   29
 O18
A   30
 C83
A   31
 O22
A   32
 O23
A   33
 C3 
A   34
 O4 
A   35
 C50
A   36
 C4 
A   37
 C53
M  END
>  <XChem_code>  (458) 
AG7§8

>  <Occupancy>  (458) 
[1.0, 1.0, 1.0, 1.0, 1.0, 1.0, 1.0, 1.0, 1.0, 1.0, 1.0, 1.0, 1.0, 1.0, 1.0, 1.0, 1.0, 1.0, 1.0, 1.0, 1.0, 1.0, 1.0, 1.0, 1.0, 1.0, 1.0, 1.0, 1.0, 1.0, 1.0, 1.0, 1.0, 1.0, 1.0, 1.0, 1.0, 1.0, 1.0, 1.0, 1.0, 1.0, 1.0, 1.0]

>  <TempFactor>  (458) 
[18.81, 27.66, 18.42, 28.47, 31.3, 19.86, 18.0, 36.49, 33.82, 16.63, 29.4, 22.13, 22.68, 21.54, 23.87, 26.44, 24.22, 19.0, 15.21, 18.33, 16.27, 19.18, 19.0, 17.13, 14.73, 16.04, 18.83, 23.76, 19.63, 17.66, 18.54, 25.52, 26.09, 23.51, 21.61, 23.49, 26.81, 22.53, 27.37, 21.38, 21.53, 22.61, 16.29, 28.88]

>  <accession>  (458) 
3SJO_A

>  <description>  (458) 
Chain A, 3C protease [Enterovirus A71]

>  <evalue>  (458) 
1.0179e-70

>  <pdb_code>  (458) 
3SJO

>  <chain>  (458) 
A

>  <ligands>  (458) 
[{'chain_id': 'A', 'author_residue_number': 501, 'author_insertion_code': '', 'chem_comp_id': 'AG7', 'alternate_conformers': 0, 'entity_id': 2, 'struct_asym_id': 'I', 'residue_number': 1, 'chem_comp_name': '4-{2-(4-FLUORO-BENZYL)-6-METHYL-5-[(5-METHYL-ISOXAZOLE-3-CARBONYL)-AMINO]-4-OXO-HEPTANOYLAMINO}-5-(2-OXO-PYRROLIDIN-3-YL)-PENTANOIC ACID ETHYL ESTER', 'weight': 600.678, 'carbohydrate_polymer': False, 'branch_name': ''}, {'chain_id': 'B', 'author_residue_number': 501, 'author_insertion_code': '', 'chem_comp_id': 'AG7', 'alternate_conformers': 0, 'entity_id': 2, 'struct_asym_id': 'J', 'residue_number': 1, 'chem_comp_name': '4-{2-(4-FLUORO-BENZYL)-6-METHYL-5-[(5-METHYL-ISOXAZOLE-3-CARBONYL)-AMINO]-4-OXO-HEPTANOYLAMINO}-5-(2-OXO-PYRROLIDIN-3-YL)-PENTANOIC ACID ETHYL ESTER', 'weight': 600.678, 'carbohydrate_polymer': False, 'branch_name': ''}, {'chain_id': 'C', 'author_residue_number': 501, 'author_insertion_code': '', 'chem_comp_id': 'AG7', 'alternate_conformers': 0, 'entity_id': 2, 'struct_asym_id': 'K', 'residue_number': 1, 'chem_comp_name': '4-{2-(4-FLUORO-BENZYL)-6-METHYL-5-[(5-METHYL-ISOXAZOLE-3-CARBONYL)-AMINO]-4-OXO-HEPTANOYLAMINO}-5-(2-OXO-PYRROLIDIN-3-YL)-PENTANOIC ACID ETHYL ESTER', 'weight': 600.678, 'carbohydrate_polymer': False, 'branch_name': ''}, {'chain_id': 'D', 'author_residue_number': 501, 'author_insertion_code': '', 'chem_comp_id': 'AG7', 'alternate_conformers': 0, 'entity_id': 2, 'struct_asym_id': 'L', 'residue_number': 1, 'chem_comp_name': '4-{2-(4-FLUORO-BENZYL)-6-METHYL-5-[(5-METHYL-ISOXAZOLE-3-CARBONYL)-AMINO]-4-OXO-HEPTANOYLAMINO}-5-(2-OXO-PYRROLIDIN-3-YL)-PENTANOIC ACID ETHYL ESTER', 'weight': 600.678, 'carbohydrate_polymer': False, 'branch_name': ''}, {'chain_id': 'E', 'author_residue_number': 501, 'author_insertion_code': '', 'chem_comp_id': 'AG7', 'alternate_conformers': 0, 'entity_id': 2, 'struct_asym_id': 'M', 'residue_number': 1, 'chem_comp_name': '4-{2-(4-FLUORO-BENZYL)-6-METHYL-5-[(5-METHYL-ISOXAZOLE-3-CARBONYL)-AMINO]-4-OXO-HEPTANOYLAMINO}-5-(2-OXO-PYRROLIDIN-3-YL)-PENTANOIC ACID ETHYL ESTER', 'weight': 600.678, 'carbohydrate_polymer': False, 'branch_name': ''}, {'chain_id': 'F', 'author_residue_number': 501, 'author_insertion_code': '', 'chem_comp_id': 'AG7', 'alternate_conformers': 0, 'entity_id': 2, 'struct_asym_id': 'N', 'residue_number': 1, 'chem_comp_name': '4-{2-(4-FLUORO-BENZYL)-6-METHYL-5-[(5-METHYL-ISOXAZOLE-3-CARBONYL)-AMINO]-4-OXO-HEPTANOYLAMINO}-5-(2-OXO-PYRROLIDIN-3-YL)-PENTANOIC ACID ETHYL ESTER', 'weight': 600.678, 'carbohydrate_polymer': False, 'branch_name': ''}, {'chain_id': 'G', 'author_residue_number': 501, 'author_insertion_code': '', 'chem_comp_id': 'AG7', 'alternate_conformers': 0, 'entity_id': 2, 'struct_asym_id': 'O', 'residue_number': 1, 'chem_comp_name': '4-{2-(4-FLUORO-BENZYL)-6-METHYL-5-[(5-METHYL-ISOXAZOLE-3-CARBONYL)-AMINO]-4-OXO-HEPTANOYLAMINO}-5-(2-OXO-PYRROLIDIN-3-YL)-PENTANOIC ACID ETHYL ESTER', 'weight': 600.678, 'carbohydrate_polymer': False, 'branch_name': ''}, {'chain_id': 'H', 'author_residue_number': 501, 'author_insertion_code': '', 'chem_comp_id': 'AG7', 'alternate_conformers': 0, 'entity_id': 2, 'struct_asym_id': 'P', 'residue_number': 1, 'chem_comp_name': '4-{2-(4-FLUORO-BENZYL)-6-METHYL-5-[(5-METHYL-ISOXAZOLE-3-CARBONYL)-AMINO]-4-OXO-HEPTANOYLAMINO}-5-(2-OXO-PYRROLIDIN-3-YL)-PENTANOIC ACID ETHYL ESTER', 'weight': 600.678, 'carbohydrate_polymer': False, 'branch_name': ''}]

>  <ligand_codes>  (458) 
['AG7', 'AG7', 'AG7', 'AG7', 'AG7', 'AG7', 'AG7', 'AG7']

>  <cofactor_codes>  (458) 
[]

>  <has_cofactor>  (458) 
False

>  <covalent>  (458) 
True

>  <base_name>  (458) 
3SJO

>  <lig_resn>  (458) 
AG7

>  <lig_resi>  (458) 
501

>  <lig_chain>  (458) 
A

>  <lig_segi>  (458) 
I

>  <lig_alt>  (458) 


>  <polymer_chain>  (458) 
A

>  <single_smiles>  (458) 
CCOC(=O)CC[C@H](C[C@@H]1CCNC1=O)NC(=O)[C@@H](CC(=O)[C@@H](NC(=O)c2cc(C)on2)C(C)C)Cc3ccc(F)cc3

$$$$
AG7P8S21
     RDKit          3D

 11 10  0  0  0  0  0  0  0  0999 V2000
   -7.5680    9.8350  -32.1900 C   0  0  0  0  0  0  0  0  0  0  0  0
   -7.6950    9.9410  -33.7020 C   0  0  2  0  0  0  0  0  0  0  0  0
   -8.6690   10.9670  -34.0900 N   0  0  0  0  0  0  0  0  0  0  0  0
   -7.9440    8.6270  -34.4090 C   0  0  2  0  0  0  0  0  0  0  0  0
   -7.6890    8.6920  -35.9030 C   0  0  0  0  0  0  0  0  0  0  0  0
   -9.6990    8.3690  -34.0940 R   0  0  0  0  0  0  0  0  0  0  0  0
   -6.2280    8.9610  -36.2420 C   0  0  0  0  0  0  0  0  0  0  0  0
   -5.9130    9.9450  -37.0170 O   0  0  0  0  0  0  0  0  0  0  0  0
   -5.3400    8.4630  -35.5080 O   0  0  0  0  0  0  0  0  0  0  0  0
   -4.5540   10.2290  -37.2100 C   0  0  0  0  0  0  0  0  0  0  0  0
   -4.2040   11.6040  -37.7340 C   0  0  0  0  0  0  0  0  0  0  0  0
  2  1  1  1
  3  2  1  0
  2  4  1  0
  4  5  1  0
  4  6  1  6
  5  7  1  0
  7  8  1  0
  7  9  2  0
  8 10  1  0
 10 11  1  0
V    6 *
A    2
 C13
A    4
 C19
A    5
 C20
A    6
 X  
A    7
 C21
A    8
 O22
A    9
 O23
A   10
 C50
A   11
 C53
M  END
>  <XChem_code>  (459) 
AG7§8

>  <Occupancy>  (459) 
[1.0, 1.0, 1.0, 1.0, 1.0, 1.0, 1.0, 1.0, 1.0, 1.0, 1.0, 1.0, 1.0, 1.0, 1.0, 1.0, 1.0, 1.0, 1.0, 1.0, 1.0, 1.0, 1.0, 1.0, 1.0, 1.0, 1.0, 1.0, 1.0, 1.0, 1.0, 1.0, 1.0, 1.0, 1.0, 1.0, 1.0, 1.0, 1.0, 1.0, 1.0, 1.0, 1.0, 1.0]

>  <TempFactor>  (459) 
[18.81, 27.66, 18.42, 28.47, 31.3, 19.86, 18.0, 36.49, 33.82, 16.63, 29.4, 22.13, 22.68, 21.54, 23.87, 26.44, 24.22, 19.0, 15.21, 18.33, 16.27, 19.18, 19.0, 17.13, 14.73, 16.04, 18.83, 23.76, 19.63, 17.66, 18.54, 25.52, 26.09, 23.51, 21.61, 23.49, 26.81, 22.53, 27.37, 21.38, 21.53, 22.61, 16.29, 28.88]

>  <accession>  (459) 
3SJO_A

>  <description>  (459) 
Chain A, 3C protease [Enterovirus A71]

>  <evalue>  (459) 
1.0179e-70

>  <pdb_code>  (459) 
3SJO

>  <chain>  (459) 
A

>  <ligands>  (459) 
[{'chain_id': 'A', 'author_residue_number': 501, 'author_insertion_code': '', 'chem_comp_id': 'AG7', 'alternate_conformers': 0, 'entity_id': 2, 'struct_asym_id': 'I', 'residue_number': 1, 'chem_comp_name': '4-{2-(4-FLUORO-BENZYL)-6-METHYL-5-[(5-METHYL-ISOXAZOLE-3-CARBONYL)-AMINO]-4-OXO-HEPTANOYLAMINO}-5-(2-OXO-PYRROLIDIN-3-YL)-PENTANOIC ACID ETHYL ESTER', 'weight': 600.678, 'carbohydrate_polymer': False, 'branch_name': ''}, {'chain_id': 'B', 'author_residue_number': 501, 'author_insertion_code': '', 'chem_comp_id': 'AG7', 'alternate_conformers': 0, 'entity_id': 2, 'struct_asym_id': 'J', 'residue_number': 1, 'chem_comp_name': '4-{2-(4-FLUORO-BENZYL)-6-METHYL-5-[(5-METHYL-ISOXAZOLE-3-CARBONYL)-AMINO]-4-OXO-HEPTANOYLAMINO}-5-(2-OXO-PYRROLIDIN-3-YL)-PENTANOIC ACID ETHYL ESTER', 'weight': 600.678, 'carbohydrate_polymer': False, 'branch_name': ''}, {'chain_id': 'C', 'author_residue_number': 501, 'author_insertion_code': '', 'chem_comp_id': 'AG7', 'alternate_conformers': 0, 'entity_id': 2, 'struct_asym_id': 'K', 'residue_number': 1, 'chem_comp_name': '4-{2-(4-FLUORO-BENZYL)-6-METHYL-5-[(5-METHYL-ISOXAZOLE-3-CARBONYL)-AMINO]-4-OXO-HEPTANOYLAMINO}-5-(2-OXO-PYRROLIDIN-3-YL)-PENTANOIC ACID ETHYL ESTER', 'weight': 600.678, 'carbohydrate_polymer': False, 'branch_name': ''}, {'chain_id': 'D', 'author_residue_number': 501, 'author_insertion_code': '', 'chem_comp_id': 'AG7', 'alternate_conformers': 0, 'entity_id': 2, 'struct_asym_id': 'L', 'residue_number': 1, 'chem_comp_name': '4-{2-(4-FLUORO-BENZYL)-6-METHYL-5-[(5-METHYL-ISOXAZOLE-3-CARBONYL)-AMINO]-4-OXO-HEPTANOYLAMINO}-5-(2-OXO-PYRROLIDIN-3-YL)-PENTANOIC ACID ETHYL ESTER', 'weight': 600.678, 'carbohydrate_polymer': False, 'branch_name': ''}, {'chain_id': 'E', 'author_residue_number': 501, 'author_insertion_code': '', 'chem_comp_id': 'AG7', 'alternate_conformers': 0, 'entity_id': 2, 'struct_asym_id': 'M', 'residue_number': 1, 'chem_comp_name': '4-{2-(4-FLUORO-BENZYL)-6-METHYL-5-[(5-METHYL-ISOXAZOLE-3-CARBONYL)-AMINO]-4-OXO-HEPTANOYLAMINO}-5-(2-OXO-PYRROLIDIN-3-YL)-PENTANOIC ACID ETHYL ESTER', 'weight': 600.678, 'carbohydrate_polymer': False, 'branch_name': ''}, {'chain_id': 'F', 'author_residue_number': 501, 'author_insertion_code': '', 'chem_comp_id': 'AG7', 'alternate_conformers': 0, 'entity_id': 2, 'struct_asym_id': 'N', 'residue_number': 1, 'chem_comp_name': '4-{2-(4-FLUORO-BENZYL)-6-METHYL-5-[(5-METHYL-ISOXAZOLE-3-CARBONYL)-AMINO]-4-OXO-HEPTANOYLAMINO}-5-(2-OXO-PYRROLIDIN-3-YL)-PENTANOIC ACID ETHYL ESTER', 'weight': 600.678, 'carbohydrate_polymer': False, 'branch_name': ''}, {'chain_id': 'G', 'author_residue_number': 501, 'author_insertion_code': '', 'chem_comp_id': 'AG7', 'alternate_conformers': 0, 'entity_id': 2, 'struct_asym_id': 'O', 'residue_number': 1, 'chem_comp_name': '4-{2-(4-FLUORO-BENZYL)-6-METHYL-5-[(5-METHYL-ISOXAZOLE-3-CARBONYL)-AMINO]-4-OXO-HEPTANOYLAMINO}-5-(2-OXO-PYRROLIDIN-3-YL)-PENTANOIC ACID ETHYL ESTER', 'weight': 600.678, 'carbohydrate_polymer': False, 'branch_name': ''}, {'chain_id': 'H', 'author_residue_number': 501, 'author_insertion_code': '', 'chem_comp_id': 'AG7', 'alternate_conformers': 0, 'entity_id': 2, 'struct_asym_id': 'P', 'residue_number': 1, 'chem_comp_name': '4-{2-(4-FLUORO-BENZYL)-6-METHYL-5-[(5-METHYL-ISOXAZOLE-3-CARBONYL)-AMINO]-4-OXO-HEPTANOYLAMINO}-5-(2-OXO-PYRROLIDIN-3-YL)-PENTANOIC ACID ETHYL ESTER', 'weight': 600.678, 'carbohydrate_polymer': False, 'branch_name': ''}]

>  <ligand_codes>  (459) 
['AG7', 'AG7', 'AG7', 'AG7', 'AG7', 'AG7', 'AG7', 'AG7']

>  <cofactor_codes>  (459) 
[]

>  <has_cofactor>  (459) 
False

>  <covalent>  (459) 
True

>  <base_name>  (459) 
3SJO

>  <lig_resn>  (459) 
AG7

>  <lig_resi>  (459) 
501

>  <lig_chain>  (459) 
A

>  <lig_segi>  (459) 
I

>  <lig_alt>  (459) 


>  <polymer_chain>  (459) 
A

>  <single_smiles>  (459) 
CCOC(=O)CC[C@H](C[C@@H]1CCNC1=O)NC(=O)[C@@H](CC(=O)[C@@H](NC(=O)c2cc(C)on2)C(C)C)Cc3ccc(F)cc3

$$$$
AG7P8S22
     RDKit          3D

 20 20  0  0  0  0  0  0  0  0999 V2000
   -9.4060   12.8260  -36.9090 C   0  0  0  0  0  0  0  0  0  0  0  0
   -9.2650   13.0870  -35.4210 C   0  0  1  0  0  0  0  0  0  0  0  0
   -8.2190   12.1920  -34.7470 C   0  0  0  0  0  0  0  0  0  0  0  0
   -9.1250   14.5600  -35.0710 C   0  0  0  0  0  0  0  0  0  0  0  0
   -7.0310   12.4100  -34.8930 O   0  0  0  0  0  0  0  0  0  0  0  0
   -8.7340   14.8750  -33.6330 C   0  0  0  0  0  0  0  0  0  0  0  0
   -8.9120   14.0500  -32.7640 O   0  0  0  0  0  0  0  0  0  0  0  0
   -8.3660   16.3160  -33.2440 C   0  0  1  0  0  0  0  0  0  0  0  0
   -8.7350   16.6450  -31.8730 N   0  0  0  0  0  0  0  0  0  0  0  0
   -6.9450   16.7440  -33.5590 C   0  0  0  0  0  0  0  0  0  0  0  0
   -9.7620   17.6260  -31.5940 C   0  0  0  0  0  0  0  0  0  0  0  0
   -6.7430   18.1960  -33.2420 C   0  0  0  0  0  0  0  0  0  0  0  0
   -5.9160   15.8690  -32.9170 C   0  0  0  0  0  0  0  0  0  0  0  0
  -10.1690   17.8670  -30.1510 C   0  0  0  0  0  0  0  0  0  0  0  0
  -10.2070   18.3220  -32.4960 O   0  0  0  0  0  0  0  0  0  0  0  0
  -11.1420   18.9430  -29.6030 C   0  0  0  0  0  0  0  0  0  0  0  0
   -9.7110   17.1440  -29.0800 N   0  0  0  0  0  0  0  0  0  0  0  0
  -11.1970   18.7860  -28.1620 C   0  0  0  0  0  0  0  0  0  0  0  0
  -10.3350   17.7020  -27.7930 O   0  0  0  0  0  0  0  0  0  0  0  0
  -12.0110   19.6150  -27.2080 C   0  0  0  0  0  0  0  0  0  0  0  0
  2  1  1  6
  2  3  1  0
  2  4  1  0
  3  5  2  0
  6  4  1  0
  6  7  2  0
  6  8  1  0
  8  9  1  1
  8 10  1  0
  9 11  1  0
 10 12  1  0
 10 13  1  0
 14 11  1  0
 11 15  2  0
 14 16  1  0
 14 17  2  0
 16 18  2  0
 19 17  1  0
 18 20  1  0
 18 19  1  0
A    2
 C04
A    4
 C02
A    5
 O48
A    6
 C01
A    7
 O03
A    8
 C57
A    9
 N58
A   10
 C78
A   11
 C59
A   12
 C81
A   13
 C82
A   14
 C1 
A   15
 O60
A   16
 C2 
A   17
 N5 
A   18
 C3 
A   19
 O4 
A   20
 C4 
M  END
>  <XChem_code>  (460) 
AG7§8

>  <Occupancy>  (460) 
[1.0, 1.0, 1.0, 1.0, 1.0, 1.0, 1.0, 1.0, 1.0, 1.0, 1.0, 1.0, 1.0, 1.0, 1.0, 1.0, 1.0, 1.0, 1.0, 1.0, 1.0, 1.0, 1.0, 1.0, 1.0, 1.0, 1.0, 1.0, 1.0, 1.0, 1.0, 1.0, 1.0, 1.0, 1.0, 1.0, 1.0, 1.0, 1.0, 1.0, 1.0, 1.0, 1.0, 1.0]

>  <TempFactor>  (460) 
[18.81, 27.66, 18.42, 28.47, 31.3, 19.86, 18.0, 36.49, 33.82, 16.63, 29.4, 22.13, 22.68, 21.54, 23.87, 26.44, 24.22, 19.0, 15.21, 18.33, 16.27, 19.18, 19.0, 17.13, 14.73, 16.04, 18.83, 23.76, 19.63, 17.66, 18.54, 25.52, 26.09, 23.51, 21.61, 23.49, 26.81, 22.53, 27.37, 21.38, 21.53, 22.61, 16.29, 28.88]

>  <accession>  (460) 
3SJO_A

>  <description>  (460) 
Chain A, 3C protease [Enterovirus A71]

>  <evalue>  (460) 
1.0179e-70

>  <pdb_code>  (460) 
3SJO

>  <chain>  (460) 
A

>  <ligands>  (460) 
[{'chain_id': 'A', 'author_residue_number': 501, 'author_insertion_code': '', 'chem_comp_id': 'AG7', 'alternate_conformers': 0, 'entity_id': 2, 'struct_asym_id': 'I', 'residue_number': 1, 'chem_comp_name': '4-{2-(4-FLUORO-BENZYL)-6-METHYL-5-[(5-METHYL-ISOXAZOLE-3-CARBONYL)-AMINO]-4-OXO-HEPTANOYLAMINO}-5-(2-OXO-PYRROLIDIN-3-YL)-PENTANOIC ACID ETHYL ESTER', 'weight': 600.678, 'carbohydrate_polymer': False, 'branch_name': ''}, {'chain_id': 'B', 'author_residue_number': 501, 'author_insertion_code': '', 'chem_comp_id': 'AG7', 'alternate_conformers': 0, 'entity_id': 2, 'struct_asym_id': 'J', 'residue_number': 1, 'chem_comp_name': '4-{2-(4-FLUORO-BENZYL)-6-METHYL-5-[(5-METHYL-ISOXAZOLE-3-CARBONYL)-AMINO]-4-OXO-HEPTANOYLAMINO}-5-(2-OXO-PYRROLIDIN-3-YL)-PENTANOIC ACID ETHYL ESTER', 'weight': 600.678, 'carbohydrate_polymer': False, 'branch_name': ''}, {'chain_id': 'C', 'author_residue_number': 501, 'author_insertion_code': '', 'chem_comp_id': 'AG7', 'alternate_conformers': 0, 'entity_id': 2, 'struct_asym_id': 'K', 'residue_number': 1, 'chem_comp_name': '4-{2-(4-FLUORO-BENZYL)-6-METHYL-5-[(5-METHYL-ISOXAZOLE-3-CARBONYL)-AMINO]-4-OXO-HEPTANOYLAMINO}-5-(2-OXO-PYRROLIDIN-3-YL)-PENTANOIC ACID ETHYL ESTER', 'weight': 600.678, 'carbohydrate_polymer': False, 'branch_name': ''}, {'chain_id': 'D', 'author_residue_number': 501, 'author_insertion_code': '', 'chem_comp_id': 'AG7', 'alternate_conformers': 0, 'entity_id': 2, 'struct_asym_id': 'L', 'residue_number': 1, 'chem_comp_name': '4-{2-(4-FLUORO-BENZYL)-6-METHYL-5-[(5-METHYL-ISOXAZOLE-3-CARBONYL)-AMINO]-4-OXO-HEPTANOYLAMINO}-5-(2-OXO-PYRROLIDIN-3-YL)-PENTANOIC ACID ETHYL ESTER', 'weight': 600.678, 'carbohydrate_polymer': False, 'branch_name': ''}, {'chain_id': 'E', 'author_residue_number': 501, 'author_insertion_code': '', 'chem_comp_id': 'AG7', 'alternate_conformers': 0, 'entity_id': 2, 'struct_asym_id': 'M', 'residue_number': 1, 'chem_comp_name': '4-{2-(4-FLUORO-BENZYL)-6-METHYL-5-[(5-METHYL-ISOXAZOLE-3-CARBONYL)-AMINO]-4-OXO-HEPTANOYLAMINO}-5-(2-OXO-PYRROLIDIN-3-YL)-PENTANOIC ACID ETHYL ESTER', 'weight': 600.678, 'carbohydrate_polymer': False, 'branch_name': ''}, {'chain_id': 'F', 'author_residue_number': 501, 'author_insertion_code': '', 'chem_comp_id': 'AG7', 'alternate_conformers': 0, 'entity_id': 2, 'struct_asym_id': 'N', 'residue_number': 1, 'chem_comp_name': '4-{2-(4-FLUORO-BENZYL)-6-METHYL-5-[(5-METHYL-ISOXAZOLE-3-CARBONYL)-AMINO]-4-OXO-HEPTANOYLAMINO}-5-(2-OXO-PYRROLIDIN-3-YL)-PENTANOIC ACID ETHYL ESTER', 'weight': 600.678, 'carbohydrate_polymer': False, 'branch_name': ''}, {'chain_id': 'G', 'author_residue_number': 501, 'author_insertion_code': '', 'chem_comp_id': 'AG7', 'alternate_conformers': 0, 'entity_id': 2, 'struct_asym_id': 'O', 'residue_number': 1, 'chem_comp_name': '4-{2-(4-FLUORO-BENZYL)-6-METHYL-5-[(5-METHYL-ISOXAZOLE-3-CARBONYL)-AMINO]-4-OXO-HEPTANOYLAMINO}-5-(2-OXO-PYRROLIDIN-3-YL)-PENTANOIC ACID ETHYL ESTER', 'weight': 600.678, 'carbohydrate_polymer': False, 'branch_name': ''}, {'chain_id': 'H', 'author_residue_number': 501, 'author_insertion_code': '', 'chem_comp_id': 'AG7', 'alternate_conformers': 0, 'entity_id': 2, 'struct_asym_id': 'P', 'residue_number': 1, 'chem_comp_name': '4-{2-(4-FLUORO-BENZYL)-6-METHYL-5-[(5-METHYL-ISOXAZOLE-3-CARBONYL)-AMINO]-4-OXO-HEPTANOYLAMINO}-5-(2-OXO-PYRROLIDIN-3-YL)-PENTANOIC ACID ETHYL ESTER', 'weight': 600.678, 'carbohydrate_polymer': False, 'branch_name': ''}]

>  <ligand_codes>  (460) 
['AG7', 'AG7', 'AG7', 'AG7', 'AG7', 'AG7', 'AG7', 'AG7']

>  <cofactor_codes>  (460) 
[]

>  <has_cofactor>  (460) 
False

>  <covalent>  (460) 
True

>  <base_name>  (460) 
3SJO

>  <lig_resn>  (460) 
AG7

>  <lig_resi>  (460) 
501

>  <lig_chain>  (460) 
A

>  <lig_segi>  (460) 
I

>  <lig_alt>  (460) 


>  <polymer_chain>  (460) 
A

>  <single_smiles>  (460) 
CCOC(=O)CC[C@H](C[C@@H]1CCNC1=O)NC(=O)[C@@H](CC(=O)[C@@H](NC(=O)c2cc(C)on2)C(C)C)Cc3ccc(F)cc3

$$$$
AG7P8S23
     RDKit          3D

 30 30  0  0  0  0  0  0  0  0999 V2000
   -7.5680    9.8350  -32.1900 C   0  0  0  0  0  0  0  0  0  0  0  0
   -7.6950    9.9410  -33.7020 C   0  0  2  0  0  0  0  0  0  0  0  0
   -8.6690   10.9670  -34.0900 N   0  0  0  0  0  0  0  0  0  0  0  0
   -7.9440    8.6270  -34.4090 C   0  0  2  0  0  0  0  0  0  0  0  0
   -8.2190   12.1920  -34.7470 C   0  0  0  0  0  0  0  0  0  0  0  0
   -7.6890    8.6920  -35.9030 C   0  0  0  0  0  0  0  0  0  0  0  0
   -9.6990    8.3690  -34.0940 R   0  0  0  0  0  0  0  0  0  0  0  0
   -9.2650   13.0870  -35.4210 C   0  0  1  0  0  0  0  0  0  0  0  0
   -7.0310   12.4100  -34.8930 O   0  0  0  0  0  0  0  0  0  0  0  0
   -6.2280    8.9610  -36.2420 C   0  0  0  0  0  0  0  0  0  0  0  0
   -9.1250   14.5600  -35.0710 C   0  0  0  0  0  0  0  0  0  0  0  0
   -9.4060   12.8260  -36.9090 C   0  0  0  0  0  0  0  0  0  0  0  0
   -5.9130    9.9450  -37.0170 O   0  0  0  0  0  0  0  0  0  0  0  0
   -5.3400    8.4630  -35.5080 O   0  0  0  0  0  0  0  0  0  0  0  0
   -8.7340   14.8750  -33.6330 C   0  0  0  0  0  0  0  0  0  0  0  0
  -10.4680   13.6500  -37.5900 C   0  0  0  0  0  0  0  0  0  0  0  0
   -4.5540   10.2290  -37.2100 C   0  0  0  0  0  0  0  0  0  0  0  0
   -8.3660   16.3160  -33.2440 C   0  0  1  0  0  0  0  0  0  0  0  0
   -8.9120   14.0500  -32.7640 O   0  0  0  0  0  0  0  0  0  0  0  0
  -11.8920   13.3740  -37.3060 C   0  0  0  0  0  0  0  0  0  0  0  0
  -10.0960   14.6950  -38.4660 C   0  0  0  0  0  0  0  0  0  0  0  0
   -4.2040   11.6040  -37.7340 C   0  0  0  0  0  0  0  0  0  0  0  0
   -8.7350   16.6450  -31.8730 N   0  0  0  0  0  0  0  0  0  0  0  0
   -6.9450   16.7440  -33.5590 C   0  0  0  0  0  0  0  0  0  0  0  0
  -12.9410   14.1870  -37.9670 C   0  0  0  0  0  0  0  0  0  0  0  0
  -11.1310   15.5040  -39.1190 C   0  0  0  0  0  0  0  0  0  0  0  0
   -6.7430   18.1960  -33.2420 C   0  0  0  0  0  0  0  0  0  0  0  0
   -5.9160   15.8690  -32.9170 C   0  0  0  0  0  0  0  0  0  0  0  0
  -12.5760   15.2200  -38.8370 C   0  0  0  0  0  0  0  0  0  0  0  0
  -13.5230   15.9340  -39.4430 F   0  0  0  0  0  0  0  0  0  0  0  0
  2  1  1  1
  3  2  1  0
  2  4  1  0
  3  5  1  0
  4  6  1  0
  4  7  1  6
  8  5  1  0
  5  9  2  0
  6 10  1  0
  8 11  1  6
  8 12  1  0
 10 13  1  0
 10 14  2  0
 15 11  1  0
 12 16  1  0
 13 17  1  0
 15 18  1  0
 15 19  2  0
 16 20  2  0
 16 21  1  0
 17 22  1  0
 18 23  1  1
 18 24  1  0
 20 25  1  0
 26 21  2  0
 24 27  1  0
 24 28  1  0
 25 29  2  0
 29 26  1  0
 29 30  1  0
V    7 *
A    2
 C13
A    3
 N12
A    4
 C19
A    5
 C47
A    6
 C20
A    7
 X  
A    8
 C04
A    9
 O48
A   10
 C21
A   11
 C02
A   12
 C05
A   13
 O22
A   14
 O23
A   15
 C01
A   16
 C06
A   17
 C50
A   18
 C57
A   19
 O03
A   20
 C07
A   21
 C11
A   22
 C53
A   24
 C78
A   25
 C08
A   26
 C10
A   27
 C81
A   28
 C82
A   29
 C09
A   30
 F1 
M  END
>  <XChem_code>  (461) 
AG7§8

>  <Occupancy>  (461) 
[1.0, 1.0, 1.0, 1.0, 1.0, 1.0, 1.0, 1.0, 1.0, 1.0, 1.0, 1.0, 1.0, 1.0, 1.0, 1.0, 1.0, 1.0, 1.0, 1.0, 1.0, 1.0, 1.0, 1.0, 1.0, 1.0, 1.0, 1.0, 1.0, 1.0, 1.0, 1.0, 1.0, 1.0, 1.0, 1.0, 1.0, 1.0, 1.0, 1.0, 1.0, 1.0, 1.0, 1.0]

>  <TempFactor>  (461) 
[18.81, 27.66, 18.42, 28.47, 31.3, 19.86, 18.0, 36.49, 33.82, 16.63, 29.4, 22.13, 22.68, 21.54, 23.87, 26.44, 24.22, 19.0, 15.21, 18.33, 16.27, 19.18, 19.0, 17.13, 14.73, 16.04, 18.83, 23.76, 19.63, 17.66, 18.54, 25.52, 26.09, 23.51, 21.61, 23.49, 26.81, 22.53, 27.37, 21.38, 21.53, 22.61, 16.29, 28.88]

>  <accession>  (461) 
3SJO_A

>  <description>  (461) 
Chain A, 3C protease [Enterovirus A71]

>  <evalue>  (461) 
1.0179e-70

>  <pdb_code>  (461) 
3SJO

>  <chain>  (461) 
A

>  <ligands>  (461) 
[{'chain_id': 'A', 'author_residue_number': 501, 'author_insertion_code': '', 'chem_comp_id': 'AG7', 'alternate_conformers': 0, 'entity_id': 2, 'struct_asym_id': 'I', 'residue_number': 1, 'chem_comp_name': '4-{2-(4-FLUORO-BENZYL)-6-METHYL-5-[(5-METHYL-ISOXAZOLE-3-CARBONYL)-AMINO]-4-OXO-HEPTANOYLAMINO}-5-(2-OXO-PYRROLIDIN-3-YL)-PENTANOIC ACID ETHYL ESTER', 'weight': 600.678, 'carbohydrate_polymer': False, 'branch_name': ''}, {'chain_id': 'B', 'author_residue_number': 501, 'author_insertion_code': '', 'chem_comp_id': 'AG7', 'alternate_conformers': 0, 'entity_id': 2, 'struct_asym_id': 'J', 'residue_number': 1, 'chem_comp_name': '4-{2-(4-FLUORO-BENZYL)-6-METHYL-5-[(5-METHYL-ISOXAZOLE-3-CARBONYL)-AMINO]-4-OXO-HEPTANOYLAMINO}-5-(2-OXO-PYRROLIDIN-3-YL)-PENTANOIC ACID ETHYL ESTER', 'weight': 600.678, 'carbohydrate_polymer': False, 'branch_name': ''}, {'chain_id': 'C', 'author_residue_number': 501, 'author_insertion_code': '', 'chem_comp_id': 'AG7', 'alternate_conformers': 0, 'entity_id': 2, 'struct_asym_id': 'K', 'residue_number': 1, 'chem_comp_name': '4-{2-(4-FLUORO-BENZYL)-6-METHYL-5-[(5-METHYL-ISOXAZOLE-3-CARBONYL)-AMINO]-4-OXO-HEPTANOYLAMINO}-5-(2-OXO-PYRROLIDIN-3-YL)-PENTANOIC ACID ETHYL ESTER', 'weight': 600.678, 'carbohydrate_polymer': False, 'branch_name': ''}, {'chain_id': 'D', 'author_residue_number': 501, 'author_insertion_code': '', 'chem_comp_id': 'AG7', 'alternate_conformers': 0, 'entity_id': 2, 'struct_asym_id': 'L', 'residue_number': 1, 'chem_comp_name': '4-{2-(4-FLUORO-BENZYL)-6-METHYL-5-[(5-METHYL-ISOXAZOLE-3-CARBONYL)-AMINO]-4-OXO-HEPTANOYLAMINO}-5-(2-OXO-PYRROLIDIN-3-YL)-PENTANOIC ACID ETHYL ESTER', 'weight': 600.678, 'carbohydrate_polymer': False, 'branch_name': ''}, {'chain_id': 'E', 'author_residue_number': 501, 'author_insertion_code': '', 'chem_comp_id': 'AG7', 'alternate_conformers': 0, 'entity_id': 2, 'struct_asym_id': 'M', 'residue_number': 1, 'chem_comp_name': '4-{2-(4-FLUORO-BENZYL)-6-METHYL-5-[(5-METHYL-ISOXAZOLE-3-CARBONYL)-AMINO]-4-OXO-HEPTANOYLAMINO}-5-(2-OXO-PYRROLIDIN-3-YL)-PENTANOIC ACID ETHYL ESTER', 'weight': 600.678, 'carbohydrate_polymer': False, 'branch_name': ''}, {'chain_id': 'F', 'author_residue_number': 501, 'author_insertion_code': '', 'chem_comp_id': 'AG7', 'alternate_conformers': 0, 'entity_id': 2, 'struct_asym_id': 'N', 'residue_number': 1, 'chem_comp_name': '4-{2-(4-FLUORO-BENZYL)-6-METHYL-5-[(5-METHYL-ISOXAZOLE-3-CARBONYL)-AMINO]-4-OXO-HEPTANOYLAMINO}-5-(2-OXO-PYRROLIDIN-3-YL)-PENTANOIC ACID ETHYL ESTER', 'weight': 600.678, 'carbohydrate_polymer': False, 'branch_name': ''}, {'chain_id': 'G', 'author_residue_number': 501, 'author_insertion_code': '', 'chem_comp_id': 'AG7', 'alternate_conformers': 0, 'entity_id': 2, 'struct_asym_id': 'O', 'residue_number': 1, 'chem_comp_name': '4-{2-(4-FLUORO-BENZYL)-6-METHYL-5-[(5-METHYL-ISOXAZOLE-3-CARBONYL)-AMINO]-4-OXO-HEPTANOYLAMINO}-5-(2-OXO-PYRROLIDIN-3-YL)-PENTANOIC ACID ETHYL ESTER', 'weight': 600.678, 'carbohydrate_polymer': False, 'branch_name': ''}, {'chain_id': 'H', 'author_residue_number': 501, 'author_insertion_code': '', 'chem_comp_id': 'AG7', 'alternate_conformers': 0, 'entity_id': 2, 'struct_asym_id': 'P', 'residue_number': 1, 'chem_comp_name': '4-{2-(4-FLUORO-BENZYL)-6-METHYL-5-[(5-METHYL-ISOXAZOLE-3-CARBONYL)-AMINO]-4-OXO-HEPTANOYLAMINO}-5-(2-OXO-PYRROLIDIN-3-YL)-PENTANOIC ACID ETHYL ESTER', 'weight': 600.678, 'carbohydrate_polymer': False, 'branch_name': ''}]

>  <ligand_codes>  (461) 
['AG7', 'AG7', 'AG7', 'AG7', 'AG7', 'AG7', 'AG7', 'AG7']

>  <cofactor_codes>  (461) 
[]

>  <has_cofactor>  (461) 
False

>  <covalent>  (461) 
True

>  <base_name>  (461) 
3SJO

>  <lig_resn>  (461) 
AG7

>  <lig_resi>  (461) 
501

>  <lig_chain>  (461) 
A

>  <lig_segi>  (461) 
I

>  <lig_alt>  (461) 


>  <polymer_chain>  (461) 
A

>  <single_smiles>  (461) 
CCOC(=O)CC[C@H](C[C@@H]1CCNC1=O)NC(=O)[C@@H](CC(=O)[C@@H](NC(=O)c2cc(C)on2)C(C)C)Cc3ccc(F)cc3

$$$$
AG7P8S24
     RDKit          3D

 29 29  0  0  0  0  0  0  0  0999 V2000
   -9.4060   12.8260  -36.9090 C   0  0  0  0  0  0  0  0  0  0  0  0
   -9.2650   13.0870  -35.4210 C   0  0  2  0  0  0  0  0  0  0  0  0
   -9.1250   14.5600  -35.0710 C   0  0  0  0  0  0  0  0  0  0  0  0
   -8.2190   12.1920  -34.7470 C   0  0  0  0  0  0  0  0  0  0  0  0
   -8.7340   14.8750  -33.6330 C   0  0  0  0  0  0  0  0  0  0  0  0
   -8.6690   10.9670  -34.0900 N   0  0  0  0  0  0  0  0  0  0  0  0
   -7.0310   12.4100  -34.8930 O   0  0  0  0  0  0  0  0  0  0  0  0
   -8.3660   16.3160  -33.2440 C   0  0  1  0  0  0  0  0  0  0  0  0
   -8.9120   14.0500  -32.7640 O   0  0  0  0  0  0  0  0  0  0  0  0
   -7.6950    9.9410  -33.7020 C   0  0  1  0  0  0  0  0  0  0  0  0
   -8.7350   16.6450  -31.8730 N   0  0  0  0  0  0  0  0  0  0  0  0
   -6.9450   16.7440  -33.5590 C   0  0  0  0  0  0  0  0  0  0  0  0
   -7.5680    9.8350  -32.1900 C   0  0  0  0  0  0  0  0  0  0  0  0
   -7.9440    8.6270  -34.4090 C   0  0  2  0  0  0  0  0  0  0  0  0
   -6.7430   18.1960  -33.2420 C   0  0  0  0  0  0  0  0  0  0  0  0
   -5.9160   15.8690  -32.9170 C   0  0  0  0  0  0  0  0  0  0  0  0
   -7.0030   11.1120  -31.5690 C   0  0  1  0  0  0  0  0  0  0  0  0
   -7.6890    8.6920  -35.9030 C   0  0  0  0  0  0  0  0  0  0  0  0
   -9.6990    8.3690  -34.0940 R   0  0  0  0  0  0  0  0  0  0  0  0
   -7.1160   11.2790  -30.0480 C   0  0  0  0  0  0  0  0  0  0  0  0
   -5.6150   11.5640  -31.9570 C   0  0  0  0  0  0  0  0  0  0  0  0
   -6.2280    8.9610  -36.2420 C   0  0  0  0  0  0  0  0  0  0  0  0
   -5.8140   11.8640  -29.5400 N   0  0  0  0  0  0  0  0  0  0  0  0
   -7.7570   10.3380  -29.3000 O   0  0  0  0  0  0  0  0  0  0  0  0
   -5.1080   12.3840  -30.7640 C   0  0  0  0  0  0  0  0  0  0  0  0
   -5.9130    9.9450  -37.0170 O   0  0  0  0  0  0  0  0  0  0  0  0
   -5.3400    8.4630  -35.5080 O   0  0  0  0  0  0  0  0  0  0  0  0
   -4.5540   10.2290  -37.2100 C   0  0  0  0  0  0  0  0  0  0  0  0
   -4.2040   11.6040  -37.7340 C   0  0  0  0  0  0  0  0  0  0  0  0
  2  1  1  6
  2  3  1  0
  2  4  1  0
  5  3  1  0
  6  4  1  0
  4  7  2  0
  5  8  1  0
  5  9  2  0
  6 10  1  0
  8 11  1  1
  8 12  1  0
 10 13  1  1
 10 14  1  0
 12 15  1  0
 12 16  1  0
 17 13  1  1
 14 18  1  0
 14 19  1  6
 17 20  1  0
 17 21  1  0
 18 22  1  0
 20 23  1  0
 20 24  2  0
 25 21  1  0
 22 26  1  0
 22 27  2  0
 23 25  1  0
 26 28  1  0
 28 29  1  0
V   19 *
A    2
 C04
A    3
 C02
A    4
 C47
A    5
 C01
A    6
 N12
A    7
 O48
A    8
 C57
A    9
 O03
A   10
 C13
A   12
 C78
A   13
 C14
A   14
 C19
A   15
 C81
A   16
 C82
A   17
 C15
A   18
 C20
A   19
 X  
A   20
 C16
A   21
 C84
A   22
 C21
A   23
 N17
A   24
 O18
A   25
 C83
A   26
 O22
A   27
 O23
A   28
 C50
A   29
 C53
M  END
>  <XChem_code>  (462) 
AG7§8

>  <Occupancy>  (462) 
[1.0, 1.0, 1.0, 1.0, 1.0, 1.0, 1.0, 1.0, 1.0, 1.0, 1.0, 1.0, 1.0, 1.0, 1.0, 1.0, 1.0, 1.0, 1.0, 1.0, 1.0, 1.0, 1.0, 1.0, 1.0, 1.0, 1.0, 1.0, 1.0, 1.0, 1.0, 1.0, 1.0, 1.0, 1.0, 1.0, 1.0, 1.0, 1.0, 1.0, 1.0, 1.0, 1.0, 1.0]

>  <TempFactor>  (462) 
[18.81, 27.66, 18.42, 28.47, 31.3, 19.86, 18.0, 36.49, 33.82, 16.63, 29.4, 22.13, 22.68, 21.54, 23.87, 26.44, 24.22, 19.0, 15.21, 18.33, 16.27, 19.18, 19.0, 17.13, 14.73, 16.04, 18.83, 23.76, 19.63, 17.66, 18.54, 25.52, 26.09, 23.51, 21.61, 23.49, 26.81, 22.53, 27.37, 21.38, 21.53, 22.61, 16.29, 28.88]

>  <accession>  (462) 
3SJO_A

>  <description>  (462) 
Chain A, 3C protease [Enterovirus A71]

>  <evalue>  (462) 
1.0179e-70

>  <pdb_code>  (462) 
3SJO

>  <chain>  (462) 
A

>  <ligands>  (462) 
[{'chain_id': 'A', 'author_residue_number': 501, 'author_insertion_code': '', 'chem_comp_id': 'AG7', 'alternate_conformers': 0, 'entity_id': 2, 'struct_asym_id': 'I', 'residue_number': 1, 'chem_comp_name': '4-{2-(4-FLUORO-BENZYL)-6-METHYL-5-[(5-METHYL-ISOXAZOLE-3-CARBONYL)-AMINO]-4-OXO-HEPTANOYLAMINO}-5-(2-OXO-PYRROLIDIN-3-YL)-PENTANOIC ACID ETHYL ESTER', 'weight': 600.678, 'carbohydrate_polymer': False, 'branch_name': ''}, {'chain_id': 'B', 'author_residue_number': 501, 'author_insertion_code': '', 'chem_comp_id': 'AG7', 'alternate_conformers': 0, 'entity_id': 2, 'struct_asym_id': 'J', 'residue_number': 1, 'chem_comp_name': '4-{2-(4-FLUORO-BENZYL)-6-METHYL-5-[(5-METHYL-ISOXAZOLE-3-CARBONYL)-AMINO]-4-OXO-HEPTANOYLAMINO}-5-(2-OXO-PYRROLIDIN-3-YL)-PENTANOIC ACID ETHYL ESTER', 'weight': 600.678, 'carbohydrate_polymer': False, 'branch_name': ''}, {'chain_id': 'C', 'author_residue_number': 501, 'author_insertion_code': '', 'chem_comp_id': 'AG7', 'alternate_conformers': 0, 'entity_id': 2, 'struct_asym_id': 'K', 'residue_number': 1, 'chem_comp_name': '4-{2-(4-FLUORO-BENZYL)-6-METHYL-5-[(5-METHYL-ISOXAZOLE-3-CARBONYL)-AMINO]-4-OXO-HEPTANOYLAMINO}-5-(2-OXO-PYRROLIDIN-3-YL)-PENTANOIC ACID ETHYL ESTER', 'weight': 600.678, 'carbohydrate_polymer': False, 'branch_name': ''}, {'chain_id': 'D', 'author_residue_number': 501, 'author_insertion_code': '', 'chem_comp_id': 'AG7', 'alternate_conformers': 0, 'entity_id': 2, 'struct_asym_id': 'L', 'residue_number': 1, 'chem_comp_name': '4-{2-(4-FLUORO-BENZYL)-6-METHYL-5-[(5-METHYL-ISOXAZOLE-3-CARBONYL)-AMINO]-4-OXO-HEPTANOYLAMINO}-5-(2-OXO-PYRROLIDIN-3-YL)-PENTANOIC ACID ETHYL ESTER', 'weight': 600.678, 'carbohydrate_polymer': False, 'branch_name': ''}, {'chain_id': 'E', 'author_residue_number': 501, 'author_insertion_code': '', 'chem_comp_id': 'AG7', 'alternate_conformers': 0, 'entity_id': 2, 'struct_asym_id': 'M', 'residue_number': 1, 'chem_comp_name': '4-{2-(4-FLUORO-BENZYL)-6-METHYL-5-[(5-METHYL-ISOXAZOLE-3-CARBONYL)-AMINO]-4-OXO-HEPTANOYLAMINO}-5-(2-OXO-PYRROLIDIN-3-YL)-PENTANOIC ACID ETHYL ESTER', 'weight': 600.678, 'carbohydrate_polymer': False, 'branch_name': ''}, {'chain_id': 'F', 'author_residue_number': 501, 'author_insertion_code': '', 'chem_comp_id': 'AG7', 'alternate_conformers': 0, 'entity_id': 2, 'struct_asym_id': 'N', 'residue_number': 1, 'chem_comp_name': '4-{2-(4-FLUORO-BENZYL)-6-METHYL-5-[(5-METHYL-ISOXAZOLE-3-CARBONYL)-AMINO]-4-OXO-HEPTANOYLAMINO}-5-(2-OXO-PYRROLIDIN-3-YL)-PENTANOIC ACID ETHYL ESTER', 'weight': 600.678, 'carbohydrate_polymer': False, 'branch_name': ''}, {'chain_id': 'G', 'author_residue_number': 501, 'author_insertion_code': '', 'chem_comp_id': 'AG7', 'alternate_conformers': 0, 'entity_id': 2, 'struct_asym_id': 'O', 'residue_number': 1, 'chem_comp_name': '4-{2-(4-FLUORO-BENZYL)-6-METHYL-5-[(5-METHYL-ISOXAZOLE-3-CARBONYL)-AMINO]-4-OXO-HEPTANOYLAMINO}-5-(2-OXO-PYRROLIDIN-3-YL)-PENTANOIC ACID ETHYL ESTER', 'weight': 600.678, 'carbohydrate_polymer': False, 'branch_name': ''}, {'chain_id': 'H', 'author_residue_number': 501, 'author_insertion_code': '', 'chem_comp_id': 'AG7', 'alternate_conformers': 0, 'entity_id': 2, 'struct_asym_id': 'P', 'residue_number': 1, 'chem_comp_name': '4-{2-(4-FLUORO-BENZYL)-6-METHYL-5-[(5-METHYL-ISOXAZOLE-3-CARBONYL)-AMINO]-4-OXO-HEPTANOYLAMINO}-5-(2-OXO-PYRROLIDIN-3-YL)-PENTANOIC ACID ETHYL ESTER', 'weight': 600.678, 'carbohydrate_polymer': False, 'branch_name': ''}]

>  <ligand_codes>  (462) 
['AG7', 'AG7', 'AG7', 'AG7', 'AG7', 'AG7', 'AG7', 'AG7']

>  <cofactor_codes>  (462) 
[]

>  <has_cofactor>  (462) 
False

>  <covalent>  (462) 
True

>  <base_name>  (462) 
3SJO

>  <lig_resn>  (462) 
AG7

>  <lig_resi>  (462) 
501

>  <lig_chain>  (462) 
A

>  <lig_segi>  (462) 
I

>  <lig_alt>  (462) 


>  <polymer_chain>  (462) 
A

>  <single_smiles>  (462) 
CCOC(=O)CC[C@H](C[C@@H]1CCNC1=O)NC(=O)[C@@H](CC(=O)[C@@H](NC(=O)c2cc(C)on2)C(C)C)Cc3ccc(F)cc3

$$$$
AG7P8S25
     RDKit          3D

 12 11  0  0  0  0  0  0  0  0999 V2000
   -9.4060   12.8260  -36.9090 C   0  0  0  0  0  0  0  0  0  0  0  0
   -9.2650   13.0870  -35.4210 C   0  0  2  0  0  0  0  0  0  0  0  0
   -9.1250   14.5600  -35.0710 C   0  0  0  0  0  0  0  0  0  0  0  0
   -8.2190   12.1920  -34.7470 C   0  0  0  0  0  0  0  0  0  0  0  0
   -8.7340   14.8750  -33.6330 C   0  0  0  0  0  0  0  0  0  0  0  0
   -7.0310   12.4100  -34.8930 O   0  0  0  0  0  0  0  0  0  0  0  0
   -8.3660   16.3160  -33.2440 C   0  0  1  0  0  0  0  0  0  0  0  0
   -8.9120   14.0500  -32.7640 O   0  0  0  0  0  0  0  0  0  0  0  0
   -8.7350   16.6450  -31.8730 N   0  0  0  0  0  0  0  0  0  0  0  0
   -6.9450   16.7440  -33.5590 C   0  0  0  0  0  0  0  0  0  0  0  0
   -6.7430   18.1960  -33.2420 C   0  0  0  0  0  0  0  0  0  0  0  0
   -5.9160   15.8690  -32.9170 C   0  0  0  0  0  0  0  0  0  0  0  0
  2  1  1  6
  2  3  1  0
  2  4  1  0
  5  3  1  0
  4  6  2  0
  5  7  1  0
  5  8  2  0
  7  9  1  1
  7 10  1  0
 10 11  1  0
 10 12  1  0
A    2
 C04
A    3
 C02
A    5
 C01
A    6
 O48
A    7
 C57
A    8
 O03
A   10
 C78
A   11
 C81
A   12
 C82
M  END
>  <XChem_code>  (463) 
AG7§8

>  <Occupancy>  (463) 
[1.0, 1.0, 1.0, 1.0, 1.0, 1.0, 1.0, 1.0, 1.0, 1.0, 1.0, 1.0, 1.0, 1.0, 1.0, 1.0, 1.0, 1.0, 1.0, 1.0, 1.0, 1.0, 1.0, 1.0, 1.0, 1.0, 1.0, 1.0, 1.0, 1.0, 1.0, 1.0, 1.0, 1.0, 1.0, 1.0, 1.0, 1.0, 1.0, 1.0, 1.0, 1.0, 1.0, 1.0]

>  <TempFactor>  (463) 
[18.81, 27.66, 18.42, 28.47, 31.3, 19.86, 18.0, 36.49, 33.82, 16.63, 29.4, 22.13, 22.68, 21.54, 23.87, 26.44, 24.22, 19.0, 15.21, 18.33, 16.27, 19.18, 19.0, 17.13, 14.73, 16.04, 18.83, 23.76, 19.63, 17.66, 18.54, 25.52, 26.09, 23.51, 21.61, 23.49, 26.81, 22.53, 27.37, 21.38, 21.53, 22.61, 16.29, 28.88]

>  <accession>  (463) 
3SJO_A

>  <description>  (463) 
Chain A, 3C protease [Enterovirus A71]

>  <evalue>  (463) 
1.0179e-70

>  <pdb_code>  (463) 
3SJO

>  <chain>  (463) 
A

>  <ligands>  (463) 
[{'chain_id': 'A', 'author_residue_number': 501, 'author_insertion_code': '', 'chem_comp_id': 'AG7', 'alternate_conformers': 0, 'entity_id': 2, 'struct_asym_id': 'I', 'residue_number': 1, 'chem_comp_name': '4-{2-(4-FLUORO-BENZYL)-6-METHYL-5-[(5-METHYL-ISOXAZOLE-3-CARBONYL)-AMINO]-4-OXO-HEPTANOYLAMINO}-5-(2-OXO-PYRROLIDIN-3-YL)-PENTANOIC ACID ETHYL ESTER', 'weight': 600.678, 'carbohydrate_polymer': False, 'branch_name': ''}, {'chain_id': 'B', 'author_residue_number': 501, 'author_insertion_code': '', 'chem_comp_id': 'AG7', 'alternate_conformers': 0, 'entity_id': 2, 'struct_asym_id': 'J', 'residue_number': 1, 'chem_comp_name': '4-{2-(4-FLUORO-BENZYL)-6-METHYL-5-[(5-METHYL-ISOXAZOLE-3-CARBONYL)-AMINO]-4-OXO-HEPTANOYLAMINO}-5-(2-OXO-PYRROLIDIN-3-YL)-PENTANOIC ACID ETHYL ESTER', 'weight': 600.678, 'carbohydrate_polymer': False, 'branch_name': ''}, {'chain_id': 'C', 'author_residue_number': 501, 'author_insertion_code': '', 'chem_comp_id': 'AG7', 'alternate_conformers': 0, 'entity_id': 2, 'struct_asym_id': 'K', 'residue_number': 1, 'chem_comp_name': '4-{2-(4-FLUORO-BENZYL)-6-METHYL-5-[(5-METHYL-ISOXAZOLE-3-CARBONYL)-AMINO]-4-OXO-HEPTANOYLAMINO}-5-(2-OXO-PYRROLIDIN-3-YL)-PENTANOIC ACID ETHYL ESTER', 'weight': 600.678, 'carbohydrate_polymer': False, 'branch_name': ''}, {'chain_id': 'D', 'author_residue_number': 501, 'author_insertion_code': '', 'chem_comp_id': 'AG7', 'alternate_conformers': 0, 'entity_id': 2, 'struct_asym_id': 'L', 'residue_number': 1, 'chem_comp_name': '4-{2-(4-FLUORO-BENZYL)-6-METHYL-5-[(5-METHYL-ISOXAZOLE-3-CARBONYL)-AMINO]-4-OXO-HEPTANOYLAMINO}-5-(2-OXO-PYRROLIDIN-3-YL)-PENTANOIC ACID ETHYL ESTER', 'weight': 600.678, 'carbohydrate_polymer': False, 'branch_name': ''}, {'chain_id': 'E', 'author_residue_number': 501, 'author_insertion_code': '', 'chem_comp_id': 'AG7', 'alternate_conformers': 0, 'entity_id': 2, 'struct_asym_id': 'M', 'residue_number': 1, 'chem_comp_name': '4-{2-(4-FLUORO-BENZYL)-6-METHYL-5-[(5-METHYL-ISOXAZOLE-3-CARBONYL)-AMINO]-4-OXO-HEPTANOYLAMINO}-5-(2-OXO-PYRROLIDIN-3-YL)-PENTANOIC ACID ETHYL ESTER', 'weight': 600.678, 'carbohydrate_polymer': False, 'branch_name': ''}, {'chain_id': 'F', 'author_residue_number': 501, 'author_insertion_code': '', 'chem_comp_id': 'AG7', 'alternate_conformers': 0, 'entity_id': 2, 'struct_asym_id': 'N', 'residue_number': 1, 'chem_comp_name': '4-{2-(4-FLUORO-BENZYL)-6-METHYL-5-[(5-METHYL-ISOXAZOLE-3-CARBONYL)-AMINO]-4-OXO-HEPTANOYLAMINO}-5-(2-OXO-PYRROLIDIN-3-YL)-PENTANOIC ACID ETHYL ESTER', 'weight': 600.678, 'carbohydrate_polymer': False, 'branch_name': ''}, {'chain_id': 'G', 'author_residue_number': 501, 'author_insertion_code': '', 'chem_comp_id': 'AG7', 'alternate_conformers': 0, 'entity_id': 2, 'struct_asym_id': 'O', 'residue_number': 1, 'chem_comp_name': '4-{2-(4-FLUORO-BENZYL)-6-METHYL-5-[(5-METHYL-ISOXAZOLE-3-CARBONYL)-AMINO]-4-OXO-HEPTANOYLAMINO}-5-(2-OXO-PYRROLIDIN-3-YL)-PENTANOIC ACID ETHYL ESTER', 'weight': 600.678, 'carbohydrate_polymer': False, 'branch_name': ''}, {'chain_id': 'H', 'author_residue_number': 501, 'author_insertion_code': '', 'chem_comp_id': 'AG7', 'alternate_conformers': 0, 'entity_id': 2, 'struct_asym_id': 'P', 'residue_number': 1, 'chem_comp_name': '4-{2-(4-FLUORO-BENZYL)-6-METHYL-5-[(5-METHYL-ISOXAZOLE-3-CARBONYL)-AMINO]-4-OXO-HEPTANOYLAMINO}-5-(2-OXO-PYRROLIDIN-3-YL)-PENTANOIC ACID ETHYL ESTER', 'weight': 600.678, 'carbohydrate_polymer': False, 'branch_name': ''}]

>  <ligand_codes>  (463) 
['AG7', 'AG7', 'AG7', 'AG7', 'AG7', 'AG7', 'AG7', 'AG7']

>  <cofactor_codes>  (463) 
[]

>  <has_cofactor>  (463) 
False

>  <covalent>  (463) 
True

>  <base_name>  (463) 
3SJO

>  <lig_resn>  (463) 
AG7

>  <lig_resi>  (463) 
501

>  <lig_chain>  (463) 
A

>  <lig_segi>  (463) 
I

>  <lig_alt>  (463) 


>  <polymer_chain>  (463) 
A

>  <single_smiles>  (463) 
CCOC(=O)CC[C@H](C[C@@H]1CCNC1=O)NC(=O)[C@@H](CC(=O)[C@@H](NC(=O)c2cc(C)on2)C(C)C)Cc3ccc(F)cc3

$$$$
AG7P8S26
     RDKit          3D

 10  9  0  0  0  0  0  0  0  0999 V2000
   -7.5680    9.8350  -32.1900 C   0  0  0  0  0  0  0  0  0  0  0  0
   -7.6950    9.9410  -33.7020 C   0  0  0  0  0  0  0  0  0  0  0  0
   -7.9440    8.6270  -34.4090 C   0  0  2  0  0  0  0  0  0  0  0  0
   -7.6890    8.6920  -35.9030 C   0  0  0  0  0  0  0  0  0  0  0  0
   -9.6990    8.3690  -34.0940 R   0  0  0  0  0  0  0  0  0  0  0  0
   -6.2280    8.9610  -36.2420 C   0  0  0  0  0  0  0  0  0  0  0  0
   -5.9130    9.9450  -37.0170 O   0  0  0  0  0  0  0  0  0  0  0  0
   -5.3400    8.4630  -35.5080 O   0  0  0  0  0  0  0  0  0  0  0  0
   -4.5540   10.2290  -37.2100 C   0  0  0  0  0  0  0  0  0  0  0  0
   -4.2040   11.6040  -37.7340 C   0  0  0  0  0  0  0  0  0  0  0  0
  2  1  1  6
  2  3  1  0
  3  4  1  0
  3  5  1  6
  4  6  1  0
  6  7  1  0
  6  8  2  0
  7  9  1  0
  9 10  1  0
V    5 *
A    3
 C19
A    4
 C20
A    5
 X  
A    6
 C21
A    7
 O22
A    8
 O23
A    9
 C50
A   10
 C53
M  END
>  <XChem_code>  (464) 
AG7§8

>  <Occupancy>  (464) 
[1.0, 1.0, 1.0, 1.0, 1.0, 1.0, 1.0, 1.0, 1.0, 1.0, 1.0, 1.0, 1.0, 1.0, 1.0, 1.0, 1.0, 1.0, 1.0, 1.0, 1.0, 1.0, 1.0, 1.0, 1.0, 1.0, 1.0, 1.0, 1.0, 1.0, 1.0, 1.0, 1.0, 1.0, 1.0, 1.0, 1.0, 1.0, 1.0, 1.0, 1.0, 1.0, 1.0, 1.0]

>  <TempFactor>  (464) 
[18.81, 27.66, 18.42, 28.47, 31.3, 19.86, 18.0, 36.49, 33.82, 16.63, 29.4, 22.13, 22.68, 21.54, 23.87, 26.44, 24.22, 19.0, 15.21, 18.33, 16.27, 19.18, 19.0, 17.13, 14.73, 16.04, 18.83, 23.76, 19.63, 17.66, 18.54, 25.52, 26.09, 23.51, 21.61, 23.49, 26.81, 22.53, 27.37, 21.38, 21.53, 22.61, 16.29, 28.88]

>  <accession>  (464) 
3SJO_A

>  <description>  (464) 
Chain A, 3C protease [Enterovirus A71]

>  <evalue>  (464) 
1.0179e-70

>  <pdb_code>  (464) 
3SJO

>  <chain>  (464) 
A

>  <ligands>  (464) 
[{'chain_id': 'A', 'author_residue_number': 501, 'author_insertion_code': '', 'chem_comp_id': 'AG7', 'alternate_conformers': 0, 'entity_id': 2, 'struct_asym_id': 'I', 'residue_number': 1, 'chem_comp_name': '4-{2-(4-FLUORO-BENZYL)-6-METHYL-5-[(5-METHYL-ISOXAZOLE-3-CARBONYL)-AMINO]-4-OXO-HEPTANOYLAMINO}-5-(2-OXO-PYRROLIDIN-3-YL)-PENTANOIC ACID ETHYL ESTER', 'weight': 600.678, 'carbohydrate_polymer': False, 'branch_name': ''}, {'chain_id': 'B', 'author_residue_number': 501, 'author_insertion_code': '', 'chem_comp_id': 'AG7', 'alternate_conformers': 0, 'entity_id': 2, 'struct_asym_id': 'J', 'residue_number': 1, 'chem_comp_name': '4-{2-(4-FLUORO-BENZYL)-6-METHYL-5-[(5-METHYL-ISOXAZOLE-3-CARBONYL)-AMINO]-4-OXO-HEPTANOYLAMINO}-5-(2-OXO-PYRROLIDIN-3-YL)-PENTANOIC ACID ETHYL ESTER', 'weight': 600.678, 'carbohydrate_polymer': False, 'branch_name': ''}, {'chain_id': 'C', 'author_residue_number': 501, 'author_insertion_code': '', 'chem_comp_id': 'AG7', 'alternate_conformers': 0, 'entity_id': 2, 'struct_asym_id': 'K', 'residue_number': 1, 'chem_comp_name': '4-{2-(4-FLUORO-BENZYL)-6-METHYL-5-[(5-METHYL-ISOXAZOLE-3-CARBONYL)-AMINO]-4-OXO-HEPTANOYLAMINO}-5-(2-OXO-PYRROLIDIN-3-YL)-PENTANOIC ACID ETHYL ESTER', 'weight': 600.678, 'carbohydrate_polymer': False, 'branch_name': ''}, {'chain_id': 'D', 'author_residue_number': 501, 'author_insertion_code': '', 'chem_comp_id': 'AG7', 'alternate_conformers': 0, 'entity_id': 2, 'struct_asym_id': 'L', 'residue_number': 1, 'chem_comp_name': '4-{2-(4-FLUORO-BENZYL)-6-METHYL-5-[(5-METHYL-ISOXAZOLE-3-CARBONYL)-AMINO]-4-OXO-HEPTANOYLAMINO}-5-(2-OXO-PYRROLIDIN-3-YL)-PENTANOIC ACID ETHYL ESTER', 'weight': 600.678, 'carbohydrate_polymer': False, 'branch_name': ''}, {'chain_id': 'E', 'author_residue_number': 501, 'author_insertion_code': '', 'chem_comp_id': 'AG7', 'alternate_conformers': 0, 'entity_id': 2, 'struct_asym_id': 'M', 'residue_number': 1, 'chem_comp_name': '4-{2-(4-FLUORO-BENZYL)-6-METHYL-5-[(5-METHYL-ISOXAZOLE-3-CARBONYL)-AMINO]-4-OXO-HEPTANOYLAMINO}-5-(2-OXO-PYRROLIDIN-3-YL)-PENTANOIC ACID ETHYL ESTER', 'weight': 600.678, 'carbohydrate_polymer': False, 'branch_name': ''}, {'chain_id': 'F', 'author_residue_number': 501, 'author_insertion_code': '', 'chem_comp_id': 'AG7', 'alternate_conformers': 0, 'entity_id': 2, 'struct_asym_id': 'N', 'residue_number': 1, 'chem_comp_name': '4-{2-(4-FLUORO-BENZYL)-6-METHYL-5-[(5-METHYL-ISOXAZOLE-3-CARBONYL)-AMINO]-4-OXO-HEPTANOYLAMINO}-5-(2-OXO-PYRROLIDIN-3-YL)-PENTANOIC ACID ETHYL ESTER', 'weight': 600.678, 'carbohydrate_polymer': False, 'branch_name': ''}, {'chain_id': 'G', 'author_residue_number': 501, 'author_insertion_code': '', 'chem_comp_id': 'AG7', 'alternate_conformers': 0, 'entity_id': 2, 'struct_asym_id': 'O', 'residue_number': 1, 'chem_comp_name': '4-{2-(4-FLUORO-BENZYL)-6-METHYL-5-[(5-METHYL-ISOXAZOLE-3-CARBONYL)-AMINO]-4-OXO-HEPTANOYLAMINO}-5-(2-OXO-PYRROLIDIN-3-YL)-PENTANOIC ACID ETHYL ESTER', 'weight': 600.678, 'carbohydrate_polymer': False, 'branch_name': ''}, {'chain_id': 'H', 'author_residue_number': 501, 'author_insertion_code': '', 'chem_comp_id': 'AG7', 'alternate_conformers': 0, 'entity_id': 2, 'struct_asym_id': 'P', 'residue_number': 1, 'chem_comp_name': '4-{2-(4-FLUORO-BENZYL)-6-METHYL-5-[(5-METHYL-ISOXAZOLE-3-CARBONYL)-AMINO]-4-OXO-HEPTANOYLAMINO}-5-(2-OXO-PYRROLIDIN-3-YL)-PENTANOIC ACID ETHYL ESTER', 'weight': 600.678, 'carbohydrate_polymer': False, 'branch_name': ''}]

>  <ligand_codes>  (464) 
['AG7', 'AG7', 'AG7', 'AG7', 'AG7', 'AG7', 'AG7', 'AG7']

>  <cofactor_codes>  (464) 
[]

>  <has_cofactor>  (464) 
False

>  <covalent>  (464) 
True

>  <base_name>  (464) 
3SJO

>  <lig_resn>  (464) 
AG7

>  <lig_resi>  (464) 
501

>  <lig_chain>  (464) 
A

>  <lig_segi>  (464) 
I

>  <lig_alt>  (464) 


>  <polymer_chain>  (464) 
A

>  <single_smiles>  (464) 
CCOC(=O)CC[C@H](C[C@@H]1CCNC1=O)NC(=O)[C@@H](CC(=O)[C@@H](NC(=O)c2cc(C)on2)C(C)C)Cc3ccc(F)cc3

$$$$
AG7P8S27
     RDKit          3D

 21 21  0  0  0  0  0  0  0  0999 V2000
   -9.4060   12.8260  -36.9090 C   0  0  0  0  0  0  0  0  0  0  0  0
   -9.2650   13.0870  -35.4210 C   0  0  1  0  0  0  0  0  0  0  0  0
   -8.2190   12.1920  -34.7470 C   0  0  0  0  0  0  0  0  0  0  0  0
   -9.1250   14.5600  -35.0710 C   0  0  0  0  0  0  0  0  0  0  0  0
   -8.6690   10.9670  -34.0900 N   0  0  0  0  0  0  0  0  0  0  0  0
   -7.0310   12.4100  -34.8930 O   0  0  0  0  0  0  0  0  0  0  0  0
   -8.7340   14.8750  -33.6330 C   0  0  0  0  0  0  0  0  0  0  0  0
   -8.9120   14.0500  -32.7640 O   0  0  0  0  0  0  0  0  0  0  0  0
   -8.3660   16.3160  -33.2440 C   0  0  1  0  0  0  0  0  0  0  0  0
   -8.7350   16.6450  -31.8730 N   0  0  0  0  0  0  0  0  0  0  0  0
   -6.9450   16.7440  -33.5590 C   0  0  0  0  0  0  0  0  0  0  0  0
   -9.7620   17.6260  -31.5940 C   0  0  0  0  0  0  0  0  0  0  0  0
   -6.7430   18.1960  -33.2420 C   0  0  0  0  0  0  0  0  0  0  0  0
   -5.9160   15.8690  -32.9170 C   0  0  0  0  0  0  0  0  0  0  0  0
  -10.1690   17.8670  -30.1510 C   0  0  0  0  0  0  0  0  0  0  0  0
  -10.2070   18.3220  -32.4960 O   0  0  0  0  0  0  0  0  0  0  0  0
  -11.1420   18.9430  -29.6030 C   0  0  0  0  0  0  0  0  0  0  0  0
   -9.7110   17.1440  -29.0800 N   0  0  0  0  0  0  0  0  0  0  0  0
  -11.1970   18.7860  -28.1620 C   0  0  0  0  0  0  0  0  0  0  0  0
  -10.3350   17.7020  -27.7930 O   0  0  0  0  0  0  0  0  0  0  0  0
  -12.0110   19.6150  -27.2080 C   0  0  0  0  0  0  0  0  0  0  0  0
  2  1  1  6
  2  3  1  0
  2  4  1  0
  5  3  1  0
  3  6  2  0
  7  4  1  0
  7  8  2  0
  7  9  1  0
  9 10  1  1
  9 11  1  0
 10 12  1  0
 11 13  1  0
 11 14  1  0
 15 12  1  0
 12 16  2  0
 15 17  1  0
 15 18  2  0
 17 19  2  0
 20 18  1  0
 19 21  1  0
 19 20  1  0
A    2
 C04
A    3
 C47
A    4
 C02
A    6
 O48
A    7
 C01
A    8
 O03
A    9
 C57
A   10
 N58
A   11
 C78
A   12
 C59
A   13
 C81
A   14
 C82
A   15
 C1 
A   16
 O60
A   17
 C2 
A   18
 N5 
A   19
 C3 
A   20
 O4 
A   21
 C4 
M  END
>  <XChem_code>  (465) 
AG7§8

>  <Occupancy>  (465) 
[1.0, 1.0, 1.0, 1.0, 1.0, 1.0, 1.0, 1.0, 1.0, 1.0, 1.0, 1.0, 1.0, 1.0, 1.0, 1.0, 1.0, 1.0, 1.0, 1.0, 1.0, 1.0, 1.0, 1.0, 1.0, 1.0, 1.0, 1.0, 1.0, 1.0, 1.0, 1.0, 1.0, 1.0, 1.0, 1.0, 1.0, 1.0, 1.0, 1.0, 1.0, 1.0, 1.0, 1.0]

>  <TempFactor>  (465) 
[18.81, 27.66, 18.42, 28.47, 31.3, 19.86, 18.0, 36.49, 33.82, 16.63, 29.4, 22.13, 22.68, 21.54, 23.87, 26.44, 24.22, 19.0, 15.21, 18.33, 16.27, 19.18, 19.0, 17.13, 14.73, 16.04, 18.83, 23.76, 19.63, 17.66, 18.54, 25.52, 26.09, 23.51, 21.61, 23.49, 26.81, 22.53, 27.37, 21.38, 21.53, 22.61, 16.29, 28.88]

>  <accession>  (465) 
3SJO_A

>  <description>  (465) 
Chain A, 3C protease [Enterovirus A71]

>  <evalue>  (465) 
1.0179e-70

>  <pdb_code>  (465) 
3SJO

>  <chain>  (465) 
A

>  <ligands>  (465) 
[{'chain_id': 'A', 'author_residue_number': 501, 'author_insertion_code': '', 'chem_comp_id': 'AG7', 'alternate_conformers': 0, 'entity_id': 2, 'struct_asym_id': 'I', 'residue_number': 1, 'chem_comp_name': '4-{2-(4-FLUORO-BENZYL)-6-METHYL-5-[(5-METHYL-ISOXAZOLE-3-CARBONYL)-AMINO]-4-OXO-HEPTANOYLAMINO}-5-(2-OXO-PYRROLIDIN-3-YL)-PENTANOIC ACID ETHYL ESTER', 'weight': 600.678, 'carbohydrate_polymer': False, 'branch_name': ''}, {'chain_id': 'B', 'author_residue_number': 501, 'author_insertion_code': '', 'chem_comp_id': 'AG7', 'alternate_conformers': 0, 'entity_id': 2, 'struct_asym_id': 'J', 'residue_number': 1, 'chem_comp_name': '4-{2-(4-FLUORO-BENZYL)-6-METHYL-5-[(5-METHYL-ISOXAZOLE-3-CARBONYL)-AMINO]-4-OXO-HEPTANOYLAMINO}-5-(2-OXO-PYRROLIDIN-3-YL)-PENTANOIC ACID ETHYL ESTER', 'weight': 600.678, 'carbohydrate_polymer': False, 'branch_name': ''}, {'chain_id': 'C', 'author_residue_number': 501, 'author_insertion_code': '', 'chem_comp_id': 'AG7', 'alternate_conformers': 0, 'entity_id': 2, 'struct_asym_id': 'K', 'residue_number': 1, 'chem_comp_name': '4-{2-(4-FLUORO-BENZYL)-6-METHYL-5-[(5-METHYL-ISOXAZOLE-3-CARBONYL)-AMINO]-4-OXO-HEPTANOYLAMINO}-5-(2-OXO-PYRROLIDIN-3-YL)-PENTANOIC ACID ETHYL ESTER', 'weight': 600.678, 'carbohydrate_polymer': False, 'branch_name': ''}, {'chain_id': 'D', 'author_residue_number': 501, 'author_insertion_code': '', 'chem_comp_id': 'AG7', 'alternate_conformers': 0, 'entity_id': 2, 'struct_asym_id': 'L', 'residue_number': 1, 'chem_comp_name': '4-{2-(4-FLUORO-BENZYL)-6-METHYL-5-[(5-METHYL-ISOXAZOLE-3-CARBONYL)-AMINO]-4-OXO-HEPTANOYLAMINO}-5-(2-OXO-PYRROLIDIN-3-YL)-PENTANOIC ACID ETHYL ESTER', 'weight': 600.678, 'carbohydrate_polymer': False, 'branch_name': ''}, {'chain_id': 'E', 'author_residue_number': 501, 'author_insertion_code': '', 'chem_comp_id': 'AG7', 'alternate_conformers': 0, 'entity_id': 2, 'struct_asym_id': 'M', 'residue_number': 1, 'chem_comp_name': '4-{2-(4-FLUORO-BENZYL)-6-METHYL-5-[(5-METHYL-ISOXAZOLE-3-CARBONYL)-AMINO]-4-OXO-HEPTANOYLAMINO}-5-(2-OXO-PYRROLIDIN-3-YL)-PENTANOIC ACID ETHYL ESTER', 'weight': 600.678, 'carbohydrate_polymer': False, 'branch_name': ''}, {'chain_id': 'F', 'author_residue_number': 501, 'author_insertion_code': '', 'chem_comp_id': 'AG7', 'alternate_conformers': 0, 'entity_id': 2, 'struct_asym_id': 'N', 'residue_number': 1, 'chem_comp_name': '4-{2-(4-FLUORO-BENZYL)-6-METHYL-5-[(5-METHYL-ISOXAZOLE-3-CARBONYL)-AMINO]-4-OXO-HEPTANOYLAMINO}-5-(2-OXO-PYRROLIDIN-3-YL)-PENTANOIC ACID ETHYL ESTER', 'weight': 600.678, 'carbohydrate_polymer': False, 'branch_name': ''}, {'chain_id': 'G', 'author_residue_number': 501, 'author_insertion_code': '', 'chem_comp_id': 'AG7', 'alternate_conformers': 0, 'entity_id': 2, 'struct_asym_id': 'O', 'residue_number': 1, 'chem_comp_name': '4-{2-(4-FLUORO-BENZYL)-6-METHYL-5-[(5-METHYL-ISOXAZOLE-3-CARBONYL)-AMINO]-4-OXO-HEPTANOYLAMINO}-5-(2-OXO-PYRROLIDIN-3-YL)-PENTANOIC ACID ETHYL ESTER', 'weight': 600.678, 'carbohydrate_polymer': False, 'branch_name': ''}, {'chain_id': 'H', 'author_residue_number': 501, 'author_insertion_code': '', 'chem_comp_id': 'AG7', 'alternate_conformers': 0, 'entity_id': 2, 'struct_asym_id': 'P', 'residue_number': 1, 'chem_comp_name': '4-{2-(4-FLUORO-BENZYL)-6-METHYL-5-[(5-METHYL-ISOXAZOLE-3-CARBONYL)-AMINO]-4-OXO-HEPTANOYLAMINO}-5-(2-OXO-PYRROLIDIN-3-YL)-PENTANOIC ACID ETHYL ESTER', 'weight': 600.678, 'carbohydrate_polymer': False, 'branch_name': ''}]

>  <ligand_codes>  (465) 
['AG7', 'AG7', 'AG7', 'AG7', 'AG7', 'AG7', 'AG7', 'AG7']

>  <cofactor_codes>  (465) 
[]

>  <has_cofactor>  (465) 
False

>  <covalent>  (465) 
True

>  <base_name>  (465) 
3SJO

>  <lig_resn>  (465) 
AG7

>  <lig_resi>  (465) 
501

>  <lig_chain>  (465) 
A

>  <lig_segi>  (465) 
I

>  <lig_alt>  (465) 


>  <polymer_chain>  (465) 
A

>  <single_smiles>  (465) 
CCOC(=O)CC[C@H](C[C@@H]1CCNC1=O)NC(=O)[C@@H](CC(=O)[C@@H](NC(=O)c2cc(C)on2)C(C)C)Cc3ccc(F)cc3

$$$$
AG7P8S28
     RDKit          3D

 29 29  0  0  0  0  0  0  0  0999 V2000
   -7.5680    9.8350  -32.1900 C   0  0  0  0  0  0  0  0  0  0  0  0
   -7.6950    9.9410  -33.7020 C   0  0  2  0  0  0  0  0  0  0  0  0
   -8.6690   10.9670  -34.0900 N   0  0  0  0  0  0  0  0  0  0  0  0
   -7.9440    8.6270  -34.4090 C   0  0  2  0  0  0  0  0  0  0  0  0
   -8.2190   12.1920  -34.7470 C   0  0  0  0  0  0  0  0  0  0  0  0
   -7.6890    8.6920  -35.9030 C   0  0  0  0  0  0  0  0  0  0  0  0
   -9.6990    8.3690  -34.0940 R   0  0  0  0  0  0  0  0  0  0  0  0
   -9.2650   13.0870  -35.4210 C   0  0  1  0  0  0  0  0  0  0  0  0
   -7.0310   12.4100  -34.8930 O   0  0  0  0  0  0  0  0  0  0  0  0
   -6.2280    8.9610  -36.2420 C   0  0  0  0  0  0  0  0  0  0  0  0
   -9.1250   14.5600  -35.0710 C   0  0  0  0  0  0  0  0  0  0  0  0
   -9.4060   12.8260  -36.9090 C   0  0  0  0  0  0  0  0  0  0  0  0
   -5.9130    9.9450  -37.0170 O   0  0  0  0  0  0  0  0  0  0  0  0
   -5.3400    8.4630  -35.5080 O   0  0  0  0  0  0  0  0  0  0  0  0
   -8.7340   14.8750  -33.6330 C   0  0  0  0  0  0  0  0  0  0  0  0
  -10.4680   13.6500  -37.5900 C   0  0  0  0  0  0  0  0  0  0  0  0
   -4.5540   10.2290  -37.2100 C   0  0  0  0  0  0  0  0  0  0  0  0
   -8.3660   16.3160  -33.2440 C   0  0  0  0  0  0  0  0  0  0  0  0
   -8.9120   14.0500  -32.7640 O   0  0  0  0  0  0  0  0  0  0  0  0
  -11.8920   13.3740  -37.3060 C   0  0  0  0  0  0  0  0  0  0  0  0
  -10.0960   14.6950  -38.4660 C   0  0  0  0  0  0  0  0  0  0  0  0
   -4.2040   11.6040  -37.7340 C   0  0  0  0  0  0  0  0  0  0  0  0
   -6.9450   16.7440  -33.5590 C   0  0  0  0  0  0  0  0  0  0  0  0
  -12.9410   14.1870  -37.9670 C   0  0  0  0  0  0  0  0  0  0  0  0
  -11.1310   15.5040  -39.1190 C   0  0  0  0  0  0  0  0  0  0  0  0
   -6.7430   18.1960  -33.2420 C   0  0  0  0  0  0  0  0  0  0  0  0
   -5.9160   15.8690  -32.9170 C   0  0  0  0  0  0  0  0  0  0  0  0
  -12.5760   15.2200  -38.8370 C   0  0  0  0  0  0  0  0  0  0  0  0
  -13.5230   15.9340  -39.4430 F   0  0  0  0  0  0  0  0  0  0  0  0
  2  1  1  1
  3  2  1  0
  2  4  1  0
  3  5  1  0
  4  6  1  0
  4  7  1  6
  8  5  1  0
  5  9  2  0
  6 10  1  0
  8 11  1  6
  8 12  1  0
 10 13  1  0
 10 14  2  0
 15 11  1  0
 12 16  1  0
 13 17  1  0
 15 18  1  0
 15 19  2  0
 16 20  2  0
 16 21  1  0
 17 22  1  0
 18 23  1  6
 20 24  1  0
 25 21  2  0
 23 26  1  0
 23 27  1  0
 24 28  2  0
 28 25  1  0
 28 29  1  0
V    7 *
A    2
 C13
A    3
 N12
A    4
 C19
A    5
 C47
A    6
 C20
A    7
 X  
A    8
 C04
A    9
 O48
A   10
 C21
A   11
 C02
A   12
 C05
A   13
 O22
A   14
 O23
A   15
 C01
A   16
 C06
A   17
 C50
A   19
 O03
A   20
 C07
A   21
 C11
A   22
 C53
A   23
 C78
A   24
 C08
A   25
 C10
A   26
 C81
A   27
 C82
A   28
 C09
A   29
 F1 
M  END
>  <XChem_code>  (466) 
AG7§8

>  <Occupancy>  (466) 
[1.0, 1.0, 1.0, 1.0, 1.0, 1.0, 1.0, 1.0, 1.0, 1.0, 1.0, 1.0, 1.0, 1.0, 1.0, 1.0, 1.0, 1.0, 1.0, 1.0, 1.0, 1.0, 1.0, 1.0, 1.0, 1.0, 1.0, 1.0, 1.0, 1.0, 1.0, 1.0, 1.0, 1.0, 1.0, 1.0, 1.0, 1.0, 1.0, 1.0, 1.0, 1.0, 1.0, 1.0]

>  <TempFactor>  (466) 
[18.81, 27.66, 18.42, 28.47, 31.3, 19.86, 18.0, 36.49, 33.82, 16.63, 29.4, 22.13, 22.68, 21.54, 23.87, 26.44, 24.22, 19.0, 15.21, 18.33, 16.27, 19.18, 19.0, 17.13, 14.73, 16.04, 18.83, 23.76, 19.63, 17.66, 18.54, 25.52, 26.09, 23.51, 21.61, 23.49, 26.81, 22.53, 27.37, 21.38, 21.53, 22.61, 16.29, 28.88]

>  <accession>  (466) 
3SJO_A

>  <description>  (466) 
Chain A, 3C protease [Enterovirus A71]

>  <evalue>  (466) 
1.0179e-70

>  <pdb_code>  (466) 
3SJO

>  <chain>  (466) 
A

>  <ligands>  (466) 
[{'chain_id': 'A', 'author_residue_number': 501, 'author_insertion_code': '', 'chem_comp_id': 'AG7', 'alternate_conformers': 0, 'entity_id': 2, 'struct_asym_id': 'I', 'residue_number': 1, 'chem_comp_name': '4-{2-(4-FLUORO-BENZYL)-6-METHYL-5-[(5-METHYL-ISOXAZOLE-3-CARBONYL)-AMINO]-4-OXO-HEPTANOYLAMINO}-5-(2-OXO-PYRROLIDIN-3-YL)-PENTANOIC ACID ETHYL ESTER', 'weight': 600.678, 'carbohydrate_polymer': False, 'branch_name': ''}, {'chain_id': 'B', 'author_residue_number': 501, 'author_insertion_code': '', 'chem_comp_id': 'AG7', 'alternate_conformers': 0, 'entity_id': 2, 'struct_asym_id': 'J', 'residue_number': 1, 'chem_comp_name': '4-{2-(4-FLUORO-BENZYL)-6-METHYL-5-[(5-METHYL-ISOXAZOLE-3-CARBONYL)-AMINO]-4-OXO-HEPTANOYLAMINO}-5-(2-OXO-PYRROLIDIN-3-YL)-PENTANOIC ACID ETHYL ESTER', 'weight': 600.678, 'carbohydrate_polymer': False, 'branch_name': ''}, {'chain_id': 'C', 'author_residue_number': 501, 'author_insertion_code': '', 'chem_comp_id': 'AG7', 'alternate_conformers': 0, 'entity_id': 2, 'struct_asym_id': 'K', 'residue_number': 1, 'chem_comp_name': '4-{2-(4-FLUORO-BENZYL)-6-METHYL-5-[(5-METHYL-ISOXAZOLE-3-CARBONYL)-AMINO]-4-OXO-HEPTANOYLAMINO}-5-(2-OXO-PYRROLIDIN-3-YL)-PENTANOIC ACID ETHYL ESTER', 'weight': 600.678, 'carbohydrate_polymer': False, 'branch_name': ''}, {'chain_id': 'D', 'author_residue_number': 501, 'author_insertion_code': '', 'chem_comp_id': 'AG7', 'alternate_conformers': 0, 'entity_id': 2, 'struct_asym_id': 'L', 'residue_number': 1, 'chem_comp_name': '4-{2-(4-FLUORO-BENZYL)-6-METHYL-5-[(5-METHYL-ISOXAZOLE-3-CARBONYL)-AMINO]-4-OXO-HEPTANOYLAMINO}-5-(2-OXO-PYRROLIDIN-3-YL)-PENTANOIC ACID ETHYL ESTER', 'weight': 600.678, 'carbohydrate_polymer': False, 'branch_name': ''}, {'chain_id': 'E', 'author_residue_number': 501, 'author_insertion_code': '', 'chem_comp_id': 'AG7', 'alternate_conformers': 0, 'entity_id': 2, 'struct_asym_id': 'M', 'residue_number': 1, 'chem_comp_name': '4-{2-(4-FLUORO-BENZYL)-6-METHYL-5-[(5-METHYL-ISOXAZOLE-3-CARBONYL)-AMINO]-4-OXO-HEPTANOYLAMINO}-5-(2-OXO-PYRROLIDIN-3-YL)-PENTANOIC ACID ETHYL ESTER', 'weight': 600.678, 'carbohydrate_polymer': False, 'branch_name': ''}, {'chain_id': 'F', 'author_residue_number': 501, 'author_insertion_code': '', 'chem_comp_id': 'AG7', 'alternate_conformers': 0, 'entity_id': 2, 'struct_asym_id': 'N', 'residue_number': 1, 'chem_comp_name': '4-{2-(4-FLUORO-BENZYL)-6-METHYL-5-[(5-METHYL-ISOXAZOLE-3-CARBONYL)-AMINO]-4-OXO-HEPTANOYLAMINO}-5-(2-OXO-PYRROLIDIN-3-YL)-PENTANOIC ACID ETHYL ESTER', 'weight': 600.678, 'carbohydrate_polymer': False, 'branch_name': ''}, {'chain_id': 'G', 'author_residue_number': 501, 'author_insertion_code': '', 'chem_comp_id': 'AG7', 'alternate_conformers': 0, 'entity_id': 2, 'struct_asym_id': 'O', 'residue_number': 1, 'chem_comp_name': '4-{2-(4-FLUORO-BENZYL)-6-METHYL-5-[(5-METHYL-ISOXAZOLE-3-CARBONYL)-AMINO]-4-OXO-HEPTANOYLAMINO}-5-(2-OXO-PYRROLIDIN-3-YL)-PENTANOIC ACID ETHYL ESTER', 'weight': 600.678, 'carbohydrate_polymer': False, 'branch_name': ''}, {'chain_id': 'H', 'author_residue_number': 501, 'author_insertion_code': '', 'chem_comp_id': 'AG7', 'alternate_conformers': 0, 'entity_id': 2, 'struct_asym_id': 'P', 'residue_number': 1, 'chem_comp_name': '4-{2-(4-FLUORO-BENZYL)-6-METHYL-5-[(5-METHYL-ISOXAZOLE-3-CARBONYL)-AMINO]-4-OXO-HEPTANOYLAMINO}-5-(2-OXO-PYRROLIDIN-3-YL)-PENTANOIC ACID ETHYL ESTER', 'weight': 600.678, 'carbohydrate_polymer': False, 'branch_name': ''}]

>  <ligand_codes>  (466) 
['AG7', 'AG7', 'AG7', 'AG7', 'AG7', 'AG7', 'AG7', 'AG7']

>  <cofactor_codes>  (466) 
[]

>  <has_cofactor>  (466) 
False

>  <covalent>  (466) 
True

>  <base_name>  (466) 
3SJO

>  <lig_resn>  (466) 
AG7

>  <lig_resi>  (466) 
501

>  <lig_chain>  (466) 
A

>  <lig_segi>  (466) 
I

>  <lig_alt>  (466) 


>  <polymer_chain>  (466) 
A

>  <single_smiles>  (466) 
CCOC(=O)CC[C@H](C[C@@H]1CCNC1=O)NC(=O)[C@@H](CC(=O)[C@@H](NC(=O)c2cc(C)on2)C(C)C)Cc3ccc(F)cc3

$$$$
AG7P8S29
     RDKit          3D

 28 28  0  0  0  0  0  0  0  0999 V2000
   -9.4060   12.8260  -36.9090 C   0  0  0  0  0  0  0  0  0  0  0  0
   -9.2650   13.0870  -35.4210 C   0  0  2  0  0  0  0  0  0  0  0  0
   -9.1250   14.5600  -35.0710 C   0  0  0  0  0  0  0  0  0  0  0  0
   -8.2190   12.1920  -34.7470 C   0  0  0  0  0  0  0  0  0  0  0  0
   -8.7340   14.8750  -33.6330 C   0  0  0  0  0  0  0  0  0  0  0  0
   -8.6690   10.9670  -34.0900 N   0  0  0  0  0  0  0  0  0  0  0  0
   -7.0310   12.4100  -34.8930 O   0  0  0  0  0  0  0  0  0  0  0  0
   -8.3660   16.3160  -33.2440 C   0  0  0  0  0  0  0  0  0  0  0  0
   -8.9120   14.0500  -32.7640 O   0  0  0  0  0  0  0  0  0  0  0  0
   -7.6950    9.9410  -33.7020 C   0  0  1  0  0  0  0  0  0  0  0  0
   -6.9450   16.7440  -33.5590 C   0  0  0  0  0  0  0  0  0  0  0  0
   -7.5680    9.8350  -32.1900 C   0  0  0  0  0  0  0  0  0  0  0  0
   -7.9440    8.6270  -34.4090 C   0  0  2  0  0  0  0  0  0  0  0  0
   -6.7430   18.1960  -33.2420 C   0  0  0  0  0  0  0  0  0  0  0  0
   -5.9160   15.8690  -32.9170 C   0  0  0  0  0  0  0  0  0  0  0  0
   -7.0030   11.1120  -31.5690 C   0  0  1  0  0  0  0  0  0  0  0  0
   -7.6890    8.6920  -35.9030 C   0  0  0  0  0  0  0  0  0  0  0  0
   -9.6990    8.3690  -34.0940 R   0  0  0  0  0  0  0  0  0  0  0  0
   -7.1160   11.2790  -30.0480 C   0  0  0  0  0  0  0  0  0  0  0  0
   -5.6150   11.5640  -31.9570 C   0  0  0  0  0  0  0  0  0  0  0  0
   -6.2280    8.9610  -36.2420 C   0  0  0  0  0  0  0  0  0  0  0  0
   -5.8140   11.8640  -29.5400 N   0  0  0  0  0  0  0  0  0  0  0  0
   -7.7570   10.3380  -29.3000 O   0  0  0  0  0  0  0  0  0  0  0  0
   -5.1080   12.3840  -30.7640 C   0  0  0  0  0  0  0  0  0  0  0  0
   -5.9130    9.9450  -37.0170 O   0  0  0  0  0  0  0  0  0  0  0  0
   -5.3400    8.4630  -35.5080 O   0  0  0  0  0  0  0  0  0  0  0  0
   -4.5540   10.2290  -37.2100 C   0  0  0  0  0  0  0  0  0  0  0  0
   -4.2040   11.6040  -37.7340 C   0  0  0  0  0  0  0  0  0  0  0  0
  2  1  1  6
  2  3  1  0
  2  4  1  0
  5  3  1  0
  6  4  1  0
  4  7  2  0
  5  8  1  0
  5  9  2  0
  6 10  1  0
  8 11  1  6
 10 12  1  1
 10 13  1  0
 11 14  1  0
 11 15  1  0
 16 12  1  1
 13 17  1  0
 13 18  1  6
 16 19  1  0
 16 20  1  0
 17 21  1  0
 19 22  1  0
 19 23  2  0
 24 20  1  0
 21 25  1  0
 21 26  2  0
 22 24  1  0
 25 27  1  0
 27 28  1  0
V   18 *
A    2
 C04
A    3
 C02
A    4
 C47
A    5
 C01
A    6
 N12
A    7
 O48
A    9
 O03
A   10
 C13
A   11
 C78
A   12
 C14
A   13
 C19
A   14
 C81
A   15
 C82
A   16
 C15
A   17
 C20
A   18
 X  
A   19
 C16
A   20
 C84
A   21
 C21
A   22
 N17
A   23
 O18
A   24
 C83
A   25
 O22
A   26
 O23
A   27
 C50
A   28
 C53
M  END
>  <XChem_code>  (467) 
AG7§8

>  <Occupancy>  (467) 
[1.0, 1.0, 1.0, 1.0, 1.0, 1.0, 1.0, 1.0, 1.0, 1.0, 1.0, 1.0, 1.0, 1.0, 1.0, 1.0, 1.0, 1.0, 1.0, 1.0, 1.0, 1.0, 1.0, 1.0, 1.0, 1.0, 1.0, 1.0, 1.0, 1.0, 1.0, 1.0, 1.0, 1.0, 1.0, 1.0, 1.0, 1.0, 1.0, 1.0, 1.0, 1.0, 1.0, 1.0]

>  <TempFactor>  (467) 
[18.81, 27.66, 18.42, 28.47, 31.3, 19.86, 18.0, 36.49, 33.82, 16.63, 29.4, 22.13, 22.68, 21.54, 23.87, 26.44, 24.22, 19.0, 15.21, 18.33, 16.27, 19.18, 19.0, 17.13, 14.73, 16.04, 18.83, 23.76, 19.63, 17.66, 18.54, 25.52, 26.09, 23.51, 21.61, 23.49, 26.81, 22.53, 27.37, 21.38, 21.53, 22.61, 16.29, 28.88]

>  <accession>  (467) 
3SJO_A

>  <description>  (467) 
Chain A, 3C protease [Enterovirus A71]

>  <evalue>  (467) 
1.0179e-70

>  <pdb_code>  (467) 
3SJO

>  <chain>  (467) 
A

>  <ligands>  (467) 
[{'chain_id': 'A', 'author_residue_number': 501, 'author_insertion_code': '', 'chem_comp_id': 'AG7', 'alternate_conformers': 0, 'entity_id': 2, 'struct_asym_id': 'I', 'residue_number': 1, 'chem_comp_name': '4-{2-(4-FLUORO-BENZYL)-6-METHYL-5-[(5-METHYL-ISOXAZOLE-3-CARBONYL)-AMINO]-4-OXO-HEPTANOYLAMINO}-5-(2-OXO-PYRROLIDIN-3-YL)-PENTANOIC ACID ETHYL ESTER', 'weight': 600.678, 'carbohydrate_polymer': False, 'branch_name': ''}, {'chain_id': 'B', 'author_residue_number': 501, 'author_insertion_code': '', 'chem_comp_id': 'AG7', 'alternate_conformers': 0, 'entity_id': 2, 'struct_asym_id': 'J', 'residue_number': 1, 'chem_comp_name': '4-{2-(4-FLUORO-BENZYL)-6-METHYL-5-[(5-METHYL-ISOXAZOLE-3-CARBONYL)-AMINO]-4-OXO-HEPTANOYLAMINO}-5-(2-OXO-PYRROLIDIN-3-YL)-PENTANOIC ACID ETHYL ESTER', 'weight': 600.678, 'carbohydrate_polymer': False, 'branch_name': ''}, {'chain_id': 'C', 'author_residue_number': 501, 'author_insertion_code': '', 'chem_comp_id': 'AG7', 'alternate_conformers': 0, 'entity_id': 2, 'struct_asym_id': 'K', 'residue_number': 1, 'chem_comp_name': '4-{2-(4-FLUORO-BENZYL)-6-METHYL-5-[(5-METHYL-ISOXAZOLE-3-CARBONYL)-AMINO]-4-OXO-HEPTANOYLAMINO}-5-(2-OXO-PYRROLIDIN-3-YL)-PENTANOIC ACID ETHYL ESTER', 'weight': 600.678, 'carbohydrate_polymer': False, 'branch_name': ''}, {'chain_id': 'D', 'author_residue_number': 501, 'author_insertion_code': '', 'chem_comp_id': 'AG7', 'alternate_conformers': 0, 'entity_id': 2, 'struct_asym_id': 'L', 'residue_number': 1, 'chem_comp_name': '4-{2-(4-FLUORO-BENZYL)-6-METHYL-5-[(5-METHYL-ISOXAZOLE-3-CARBONYL)-AMINO]-4-OXO-HEPTANOYLAMINO}-5-(2-OXO-PYRROLIDIN-3-YL)-PENTANOIC ACID ETHYL ESTER', 'weight': 600.678, 'carbohydrate_polymer': False, 'branch_name': ''}, {'chain_id': 'E', 'author_residue_number': 501, 'author_insertion_code': '', 'chem_comp_id': 'AG7', 'alternate_conformers': 0, 'entity_id': 2, 'struct_asym_id': 'M', 'residue_number': 1, 'chem_comp_name': '4-{2-(4-FLUORO-BENZYL)-6-METHYL-5-[(5-METHYL-ISOXAZOLE-3-CARBONYL)-AMINO]-4-OXO-HEPTANOYLAMINO}-5-(2-OXO-PYRROLIDIN-3-YL)-PENTANOIC ACID ETHYL ESTER', 'weight': 600.678, 'carbohydrate_polymer': False, 'branch_name': ''}, {'chain_id': 'F', 'author_residue_number': 501, 'author_insertion_code': '', 'chem_comp_id': 'AG7', 'alternate_conformers': 0, 'entity_id': 2, 'struct_asym_id': 'N', 'residue_number': 1, 'chem_comp_name': '4-{2-(4-FLUORO-BENZYL)-6-METHYL-5-[(5-METHYL-ISOXAZOLE-3-CARBONYL)-AMINO]-4-OXO-HEPTANOYLAMINO}-5-(2-OXO-PYRROLIDIN-3-YL)-PENTANOIC ACID ETHYL ESTER', 'weight': 600.678, 'carbohydrate_polymer': False, 'branch_name': ''}, {'chain_id': 'G', 'author_residue_number': 501, 'author_insertion_code': '', 'chem_comp_id': 'AG7', 'alternate_conformers': 0, 'entity_id': 2, 'struct_asym_id': 'O', 'residue_number': 1, 'chem_comp_name': '4-{2-(4-FLUORO-BENZYL)-6-METHYL-5-[(5-METHYL-ISOXAZOLE-3-CARBONYL)-AMINO]-4-OXO-HEPTANOYLAMINO}-5-(2-OXO-PYRROLIDIN-3-YL)-PENTANOIC ACID ETHYL ESTER', 'weight': 600.678, 'carbohydrate_polymer': False, 'branch_name': ''}, {'chain_id': 'H', 'author_residue_number': 501, 'author_insertion_code': '', 'chem_comp_id': 'AG7', 'alternate_conformers': 0, 'entity_id': 2, 'struct_asym_id': 'P', 'residue_number': 1, 'chem_comp_name': '4-{2-(4-FLUORO-BENZYL)-6-METHYL-5-[(5-METHYL-ISOXAZOLE-3-CARBONYL)-AMINO]-4-OXO-HEPTANOYLAMINO}-5-(2-OXO-PYRROLIDIN-3-YL)-PENTANOIC ACID ETHYL ESTER', 'weight': 600.678, 'carbohydrate_polymer': False, 'branch_name': ''}]

>  <ligand_codes>  (467) 
['AG7', 'AG7', 'AG7', 'AG7', 'AG7', 'AG7', 'AG7', 'AG7']

>  <cofactor_codes>  (467) 
[]

>  <has_cofactor>  (467) 
False

>  <covalent>  (467) 
True

>  <base_name>  (467) 
3SJO

>  <lig_resn>  (467) 
AG7

>  <lig_resi>  (467) 
501

>  <lig_chain>  (467) 
A

>  <lig_segi>  (467) 
I

>  <lig_alt>  (467) 


>  <polymer_chain>  (467) 
A

>  <single_smiles>  (467) 
CCOC(=O)CC[C@H](C[C@@H]1CCNC1=O)NC(=O)[C@@H](CC(=O)[C@@H](NC(=O)c2cc(C)on2)C(C)C)Cc3ccc(F)cc3

$$$$
AG7P8S30
     RDKit          3D

 11 10  0  0  0  0  0  0  0  0999 V2000
   -9.4060   12.8260  -36.9090 C   0  0  0  0  0  0  0  0  0  0  0  0
   -9.2650   13.0870  -35.4210 C   0  0  2  0  0  0  0  0  0  0  0  0
   -9.1250   14.5600  -35.0710 C   0  0  0  0  0  0  0  0  0  0  0  0
   -8.2190   12.1920  -34.7470 C   0  0  0  0  0  0  0  0  0  0  0  0
   -8.7340   14.8750  -33.6330 C   0  0  0  0  0  0  0  0  0  0  0  0
   -7.0310   12.4100  -34.8930 O   0  0  0  0  0  0  0  0  0  0  0  0
   -8.3660   16.3160  -33.2440 C   0  0  0  0  0  0  0  0  0  0  0  0
   -8.9120   14.0500  -32.7640 O   0  0  0  0  0  0  0  0  0  0  0  0
   -6.9450   16.7440  -33.5590 C   0  0  0  0  0  0  0  0  0  0  0  0
   -6.7430   18.1960  -33.2420 C   0  0  0  0  0  0  0  0  0  0  0  0
   -5.9160   15.8690  -32.9170 C   0  0  0  0  0  0  0  0  0  0  0  0
  2  1  1  6
  2  3  1  0
  2  4  1  0
  5  3  1  0
  4  6  2  0
  5  7  1  0
  5  8  2  0
  7  9  1  6
  9 10  1  0
  9 11  1  0
A    2
 C04
A    3
 C02
A    5
 C01
A    6
 O48
A    8
 O03
A    9
 C78
A   10
 C81
A   11
 C82
M  END
>  <XChem_code>  (468) 
AG7§8

>  <Occupancy>  (468) 
[1.0, 1.0, 1.0, 1.0, 1.0, 1.0, 1.0, 1.0, 1.0, 1.0, 1.0, 1.0, 1.0, 1.0, 1.0, 1.0, 1.0, 1.0, 1.0, 1.0, 1.0, 1.0, 1.0, 1.0, 1.0, 1.0, 1.0, 1.0, 1.0, 1.0, 1.0, 1.0, 1.0, 1.0, 1.0, 1.0, 1.0, 1.0, 1.0, 1.0, 1.0, 1.0, 1.0, 1.0]

>  <TempFactor>  (468) 
[18.81, 27.66, 18.42, 28.47, 31.3, 19.86, 18.0, 36.49, 33.82, 16.63, 29.4, 22.13, 22.68, 21.54, 23.87, 26.44, 24.22, 19.0, 15.21, 18.33, 16.27, 19.18, 19.0, 17.13, 14.73, 16.04, 18.83, 23.76, 19.63, 17.66, 18.54, 25.52, 26.09, 23.51, 21.61, 23.49, 26.81, 22.53, 27.37, 21.38, 21.53, 22.61, 16.29, 28.88]

>  <accession>  (468) 
3SJO_A

>  <description>  (468) 
Chain A, 3C protease [Enterovirus A71]

>  <evalue>  (468) 
1.0179e-70

>  <pdb_code>  (468) 
3SJO

>  <chain>  (468) 
A

>  <ligands>  (468) 
[{'chain_id': 'A', 'author_residue_number': 501, 'author_insertion_code': '', 'chem_comp_id': 'AG7', 'alternate_conformers': 0, 'entity_id': 2, 'struct_asym_id': 'I', 'residue_number': 1, 'chem_comp_name': '4-{2-(4-FLUORO-BENZYL)-6-METHYL-5-[(5-METHYL-ISOXAZOLE-3-CARBONYL)-AMINO]-4-OXO-HEPTANOYLAMINO}-5-(2-OXO-PYRROLIDIN-3-YL)-PENTANOIC ACID ETHYL ESTER', 'weight': 600.678, 'carbohydrate_polymer': False, 'branch_name': ''}, {'chain_id': 'B', 'author_residue_number': 501, 'author_insertion_code': '', 'chem_comp_id': 'AG7', 'alternate_conformers': 0, 'entity_id': 2, 'struct_asym_id': 'J', 'residue_number': 1, 'chem_comp_name': '4-{2-(4-FLUORO-BENZYL)-6-METHYL-5-[(5-METHYL-ISOXAZOLE-3-CARBONYL)-AMINO]-4-OXO-HEPTANOYLAMINO}-5-(2-OXO-PYRROLIDIN-3-YL)-PENTANOIC ACID ETHYL ESTER', 'weight': 600.678, 'carbohydrate_polymer': False, 'branch_name': ''}, {'chain_id': 'C', 'author_residue_number': 501, 'author_insertion_code': '', 'chem_comp_id': 'AG7', 'alternate_conformers': 0, 'entity_id': 2, 'struct_asym_id': 'K', 'residue_number': 1, 'chem_comp_name': '4-{2-(4-FLUORO-BENZYL)-6-METHYL-5-[(5-METHYL-ISOXAZOLE-3-CARBONYL)-AMINO]-4-OXO-HEPTANOYLAMINO}-5-(2-OXO-PYRROLIDIN-3-YL)-PENTANOIC ACID ETHYL ESTER', 'weight': 600.678, 'carbohydrate_polymer': False, 'branch_name': ''}, {'chain_id': 'D', 'author_residue_number': 501, 'author_insertion_code': '', 'chem_comp_id': 'AG7', 'alternate_conformers': 0, 'entity_id': 2, 'struct_asym_id': 'L', 'residue_number': 1, 'chem_comp_name': '4-{2-(4-FLUORO-BENZYL)-6-METHYL-5-[(5-METHYL-ISOXAZOLE-3-CARBONYL)-AMINO]-4-OXO-HEPTANOYLAMINO}-5-(2-OXO-PYRROLIDIN-3-YL)-PENTANOIC ACID ETHYL ESTER', 'weight': 600.678, 'carbohydrate_polymer': False, 'branch_name': ''}, {'chain_id': 'E', 'author_residue_number': 501, 'author_insertion_code': '', 'chem_comp_id': 'AG7', 'alternate_conformers': 0, 'entity_id': 2, 'struct_asym_id': 'M', 'residue_number': 1, 'chem_comp_name': '4-{2-(4-FLUORO-BENZYL)-6-METHYL-5-[(5-METHYL-ISOXAZOLE-3-CARBONYL)-AMINO]-4-OXO-HEPTANOYLAMINO}-5-(2-OXO-PYRROLIDIN-3-YL)-PENTANOIC ACID ETHYL ESTER', 'weight': 600.678, 'carbohydrate_polymer': False, 'branch_name': ''}, {'chain_id': 'F', 'author_residue_number': 501, 'author_insertion_code': '', 'chem_comp_id': 'AG7', 'alternate_conformers': 0, 'entity_id': 2, 'struct_asym_id': 'N', 'residue_number': 1, 'chem_comp_name': '4-{2-(4-FLUORO-BENZYL)-6-METHYL-5-[(5-METHYL-ISOXAZOLE-3-CARBONYL)-AMINO]-4-OXO-HEPTANOYLAMINO}-5-(2-OXO-PYRROLIDIN-3-YL)-PENTANOIC ACID ETHYL ESTER', 'weight': 600.678, 'carbohydrate_polymer': False, 'branch_name': ''}, {'chain_id': 'G', 'author_residue_number': 501, 'author_insertion_code': '', 'chem_comp_id': 'AG7', 'alternate_conformers': 0, 'entity_id': 2, 'struct_asym_id': 'O', 'residue_number': 1, 'chem_comp_name': '4-{2-(4-FLUORO-BENZYL)-6-METHYL-5-[(5-METHYL-ISOXAZOLE-3-CARBONYL)-AMINO]-4-OXO-HEPTANOYLAMINO}-5-(2-OXO-PYRROLIDIN-3-YL)-PENTANOIC ACID ETHYL ESTER', 'weight': 600.678, 'carbohydrate_polymer': False, 'branch_name': ''}, {'chain_id': 'H', 'author_residue_number': 501, 'author_insertion_code': '', 'chem_comp_id': 'AG7', 'alternate_conformers': 0, 'entity_id': 2, 'struct_asym_id': 'P', 'residue_number': 1, 'chem_comp_name': '4-{2-(4-FLUORO-BENZYL)-6-METHYL-5-[(5-METHYL-ISOXAZOLE-3-CARBONYL)-AMINO]-4-OXO-HEPTANOYLAMINO}-5-(2-OXO-PYRROLIDIN-3-YL)-PENTANOIC ACID ETHYL ESTER', 'weight': 600.678, 'carbohydrate_polymer': False, 'branch_name': ''}]

>  <ligand_codes>  (468) 
['AG7', 'AG7', 'AG7', 'AG7', 'AG7', 'AG7', 'AG7', 'AG7']

>  <cofactor_codes>  (468) 
[]

>  <has_cofactor>  (468) 
False

>  <covalent>  (468) 
True

>  <base_name>  (468) 
3SJO

>  <lig_resn>  (468) 
AG7

>  <lig_resi>  (468) 
501

>  <lig_chain>  (468) 
A

>  <lig_segi>  (468) 
I

>  <lig_alt>  (468) 


>  <polymer_chain>  (468) 
A

>  <single_smiles>  (468) 
CCOC(=O)CC[C@H](C[C@@H]1CCNC1=O)NC(=O)[C@@H](CC(=O)[C@@H](NC(=O)c2cc(C)on2)C(C)C)Cc3ccc(F)cc3

$$$$
AG7P8S31
     RDKit          3D

 13 12  0  0  0  0  0  0  0  0999 V2000
   -9.4060   12.8260  -36.9090 C   0  0  0  0  0  0  0  0  0  0  0  0
   -9.2650   13.0870  -35.4210 C   0  0  1  0  0  0  0  0  0  0  0  0
   -8.2190   12.1920  -34.7470 C   0  0  0  0  0  0  0  0  0  0  0  0
   -9.1250   14.5600  -35.0710 C   0  0  0  0  0  0  0  0  0  0  0  0
   -8.6690   10.9670  -34.0900 N   0  0  0  0  0  0  0  0  0  0  0  0
   -7.0310   12.4100  -34.8930 O   0  0  0  0  0  0  0  0  0  0  0  0
   -8.7340   14.8750  -33.6330 C   0  0  0  0  0  0  0  0  0  0  0  0
   -8.3660   16.3160  -33.2440 C   0  0  1  0  0  0  0  0  0  0  0  0
   -8.9120   14.0500  -32.7640 O   0  0  0  0  0  0  0  0  0  0  0  0
   -8.7350   16.6450  -31.8730 N   0  0  0  0  0  0  0  0  0  0  0  0
   -6.9450   16.7440  -33.5590 C   0  0  0  0  0  0  0  0  0  0  0  0
   -6.7430   18.1960  -33.2420 C   0  0  0  0  0  0  0  0  0  0  0  0
   -5.9160   15.8690  -32.9170 C   0  0  0  0  0  0  0  0  0  0  0  0
  2  1  1  6
  2  3  1  0
  2  4  1  0
  5  3  1  0
  3  6  2  0
  7  4  1  0
  7  8  1  0
  7  9  2  0
  8 10  1  1
  8 11  1  0
 11 12  1  0
 11 13  1  0
A    2
 C04
A    3
 C47
A    4
 C02
A    6
 O48
A    7
 C01
A    8
 C57
A    9
 O03
A   11
 C78
A   12
 C81
A   13
 C82
M  END
>  <XChem_code>  (469) 
AG7§8

>  <Occupancy>  (469) 
[1.0, 1.0, 1.0, 1.0, 1.0, 1.0, 1.0, 1.0, 1.0, 1.0, 1.0, 1.0, 1.0, 1.0, 1.0, 1.0, 1.0, 1.0, 1.0, 1.0, 1.0, 1.0, 1.0, 1.0, 1.0, 1.0, 1.0, 1.0, 1.0, 1.0, 1.0, 1.0, 1.0, 1.0, 1.0, 1.0, 1.0, 1.0, 1.0, 1.0, 1.0, 1.0, 1.0, 1.0]

>  <TempFactor>  (469) 
[18.81, 27.66, 18.42, 28.47, 31.3, 19.86, 18.0, 36.49, 33.82, 16.63, 29.4, 22.13, 22.68, 21.54, 23.87, 26.44, 24.22, 19.0, 15.21, 18.33, 16.27, 19.18, 19.0, 17.13, 14.73, 16.04, 18.83, 23.76, 19.63, 17.66, 18.54, 25.52, 26.09, 23.51, 21.61, 23.49, 26.81, 22.53, 27.37, 21.38, 21.53, 22.61, 16.29, 28.88]

>  <accession>  (469) 
3SJO_A

>  <description>  (469) 
Chain A, 3C protease [Enterovirus A71]

>  <evalue>  (469) 
1.0179e-70

>  <pdb_code>  (469) 
3SJO

>  <chain>  (469) 
A

>  <ligands>  (469) 
[{'chain_id': 'A', 'author_residue_number': 501, 'author_insertion_code': '', 'chem_comp_id': 'AG7', 'alternate_conformers': 0, 'entity_id': 2, 'struct_asym_id': 'I', 'residue_number': 1, 'chem_comp_name': '4-{2-(4-FLUORO-BENZYL)-6-METHYL-5-[(5-METHYL-ISOXAZOLE-3-CARBONYL)-AMINO]-4-OXO-HEPTANOYLAMINO}-5-(2-OXO-PYRROLIDIN-3-YL)-PENTANOIC ACID ETHYL ESTER', 'weight': 600.678, 'carbohydrate_polymer': False, 'branch_name': ''}, {'chain_id': 'B', 'author_residue_number': 501, 'author_insertion_code': '', 'chem_comp_id': 'AG7', 'alternate_conformers': 0, 'entity_id': 2, 'struct_asym_id': 'J', 'residue_number': 1, 'chem_comp_name': '4-{2-(4-FLUORO-BENZYL)-6-METHYL-5-[(5-METHYL-ISOXAZOLE-3-CARBONYL)-AMINO]-4-OXO-HEPTANOYLAMINO}-5-(2-OXO-PYRROLIDIN-3-YL)-PENTANOIC ACID ETHYL ESTER', 'weight': 600.678, 'carbohydrate_polymer': False, 'branch_name': ''}, {'chain_id': 'C', 'author_residue_number': 501, 'author_insertion_code': '', 'chem_comp_id': 'AG7', 'alternate_conformers': 0, 'entity_id': 2, 'struct_asym_id': 'K', 'residue_number': 1, 'chem_comp_name': '4-{2-(4-FLUORO-BENZYL)-6-METHYL-5-[(5-METHYL-ISOXAZOLE-3-CARBONYL)-AMINO]-4-OXO-HEPTANOYLAMINO}-5-(2-OXO-PYRROLIDIN-3-YL)-PENTANOIC ACID ETHYL ESTER', 'weight': 600.678, 'carbohydrate_polymer': False, 'branch_name': ''}, {'chain_id': 'D', 'author_residue_number': 501, 'author_insertion_code': '', 'chem_comp_id': 'AG7', 'alternate_conformers': 0, 'entity_id': 2, 'struct_asym_id': 'L', 'residue_number': 1, 'chem_comp_name': '4-{2-(4-FLUORO-BENZYL)-6-METHYL-5-[(5-METHYL-ISOXAZOLE-3-CARBONYL)-AMINO]-4-OXO-HEPTANOYLAMINO}-5-(2-OXO-PYRROLIDIN-3-YL)-PENTANOIC ACID ETHYL ESTER', 'weight': 600.678, 'carbohydrate_polymer': False, 'branch_name': ''}, {'chain_id': 'E', 'author_residue_number': 501, 'author_insertion_code': '', 'chem_comp_id': 'AG7', 'alternate_conformers': 0, 'entity_id': 2, 'struct_asym_id': 'M', 'residue_number': 1, 'chem_comp_name': '4-{2-(4-FLUORO-BENZYL)-6-METHYL-5-[(5-METHYL-ISOXAZOLE-3-CARBONYL)-AMINO]-4-OXO-HEPTANOYLAMINO}-5-(2-OXO-PYRROLIDIN-3-YL)-PENTANOIC ACID ETHYL ESTER', 'weight': 600.678, 'carbohydrate_polymer': False, 'branch_name': ''}, {'chain_id': 'F', 'author_residue_number': 501, 'author_insertion_code': '', 'chem_comp_id': 'AG7', 'alternate_conformers': 0, 'entity_id': 2, 'struct_asym_id': 'N', 'residue_number': 1, 'chem_comp_name': '4-{2-(4-FLUORO-BENZYL)-6-METHYL-5-[(5-METHYL-ISOXAZOLE-3-CARBONYL)-AMINO]-4-OXO-HEPTANOYLAMINO}-5-(2-OXO-PYRROLIDIN-3-YL)-PENTANOIC ACID ETHYL ESTER', 'weight': 600.678, 'carbohydrate_polymer': False, 'branch_name': ''}, {'chain_id': 'G', 'author_residue_number': 501, 'author_insertion_code': '', 'chem_comp_id': 'AG7', 'alternate_conformers': 0, 'entity_id': 2, 'struct_asym_id': 'O', 'residue_number': 1, 'chem_comp_name': '4-{2-(4-FLUORO-BENZYL)-6-METHYL-5-[(5-METHYL-ISOXAZOLE-3-CARBONYL)-AMINO]-4-OXO-HEPTANOYLAMINO}-5-(2-OXO-PYRROLIDIN-3-YL)-PENTANOIC ACID ETHYL ESTER', 'weight': 600.678, 'carbohydrate_polymer': False, 'branch_name': ''}, {'chain_id': 'H', 'author_residue_number': 501, 'author_insertion_code': '', 'chem_comp_id': 'AG7', 'alternate_conformers': 0, 'entity_id': 2, 'struct_asym_id': 'P', 'residue_number': 1, 'chem_comp_name': '4-{2-(4-FLUORO-BENZYL)-6-METHYL-5-[(5-METHYL-ISOXAZOLE-3-CARBONYL)-AMINO]-4-OXO-HEPTANOYLAMINO}-5-(2-OXO-PYRROLIDIN-3-YL)-PENTANOIC ACID ETHYL ESTER', 'weight': 600.678, 'carbohydrate_polymer': False, 'branch_name': ''}]

>  <ligand_codes>  (469) 
['AG7', 'AG7', 'AG7', 'AG7', 'AG7', 'AG7', 'AG7', 'AG7']

>  <cofactor_codes>  (469) 
[]

>  <has_cofactor>  (469) 
False

>  <covalent>  (469) 
True

>  <base_name>  (469) 
3SJO

>  <lig_resn>  (469) 
AG7

>  <lig_resi>  (469) 
501

>  <lig_chain>  (469) 
A

>  <lig_segi>  (469) 
I

>  <lig_alt>  (469) 


>  <polymer_chain>  (469) 
A

>  <single_smiles>  (469) 
CCOC(=O)CC[C@H](C[C@@H]1CCNC1=O)NC(=O)[C@@H](CC(=O)[C@@H](NC(=O)c2cc(C)on2)C(C)C)Cc3ccc(F)cc3

$$$$
AG7P8S32
     RDKit          3D

 12 11  0  0  0  0  0  0  0  0999 V2000
   -9.4060   12.8260  -36.9090 C   0  0  0  0  0  0  0  0  0  0  0  0
   -9.2650   13.0870  -35.4210 C   0  0  2  0  0  0  0  0  0  0  0  0
   -9.1250   14.5600  -35.0710 C   0  0  0  0  0  0  0  0  0  0  0  0
   -8.2190   12.1920  -34.7470 C   0  0  0  0  0  0  0  0  0  0  0  0
   -8.7340   14.8750  -33.6330 C   0  0  0  0  0  0  0  0  0  0  0  0
   -8.6690   10.9670  -34.0900 N   0  0  0  0  0  0  0  0  0  0  0  0
   -7.0310   12.4100  -34.8930 O   0  0  0  0  0  0  0  0  0  0  0  0
   -8.3660   16.3160  -33.2440 C   0  0  0  0  0  0  0  0  0  0  0  0
   -8.9120   14.0500  -32.7640 O   0  0  0  0  0  0  0  0  0  0  0  0
   -6.9450   16.7440  -33.5590 C   0  0  0  0  0  0  0  0  0  0  0  0
   -6.7430   18.1960  -33.2420 C   0  0  0  0  0  0  0  0  0  0  0  0
   -5.9160   15.8690  -32.9170 C   0  0  0  0  0  0  0  0  0  0  0  0
  2  1  1  6
  2  3  1  0
  2  4  1  0
  5  3  1  0
  6  4  1  0
  4  7  2  0
  5  8  1  0
  5  9  2  0
  8 10  1  6
 10 11  1  0
 10 12  1  0
A    2
 C04
A    3
 C02
A    4
 C47
A    5
 C01
A    7
 O48
A    9
 O03
A   10
 C78
A   11
 C81
A   12
 C82
M  END
>  <XChem_code>  (470) 
AG7§8

>  <Occupancy>  (470) 
[1.0, 1.0, 1.0, 1.0, 1.0, 1.0, 1.0, 1.0, 1.0, 1.0, 1.0, 1.0, 1.0, 1.0, 1.0, 1.0, 1.0, 1.0, 1.0, 1.0, 1.0, 1.0, 1.0, 1.0, 1.0, 1.0, 1.0, 1.0, 1.0, 1.0, 1.0, 1.0, 1.0, 1.0, 1.0, 1.0, 1.0, 1.0, 1.0, 1.0, 1.0, 1.0, 1.0, 1.0]

>  <TempFactor>  (470) 
[18.81, 27.66, 18.42, 28.47, 31.3, 19.86, 18.0, 36.49, 33.82, 16.63, 29.4, 22.13, 22.68, 21.54, 23.87, 26.44, 24.22, 19.0, 15.21, 18.33, 16.27, 19.18, 19.0, 17.13, 14.73, 16.04, 18.83, 23.76, 19.63, 17.66, 18.54, 25.52, 26.09, 23.51, 21.61, 23.49, 26.81, 22.53, 27.37, 21.38, 21.53, 22.61, 16.29, 28.88]

>  <accession>  (470) 
3SJO_A

>  <description>  (470) 
Chain A, 3C protease [Enterovirus A71]

>  <evalue>  (470) 
1.0179e-70

>  <pdb_code>  (470) 
3SJO

>  <chain>  (470) 
A

>  <ligands>  (470) 
[{'chain_id': 'A', 'author_residue_number': 501, 'author_insertion_code': '', 'chem_comp_id': 'AG7', 'alternate_conformers': 0, 'entity_id': 2, 'struct_asym_id': 'I', 'residue_number': 1, 'chem_comp_name': '4-{2-(4-FLUORO-BENZYL)-6-METHYL-5-[(5-METHYL-ISOXAZOLE-3-CARBONYL)-AMINO]-4-OXO-HEPTANOYLAMINO}-5-(2-OXO-PYRROLIDIN-3-YL)-PENTANOIC ACID ETHYL ESTER', 'weight': 600.678, 'carbohydrate_polymer': False, 'branch_name': ''}, {'chain_id': 'B', 'author_residue_number': 501, 'author_insertion_code': '', 'chem_comp_id': 'AG7', 'alternate_conformers': 0, 'entity_id': 2, 'struct_asym_id': 'J', 'residue_number': 1, 'chem_comp_name': '4-{2-(4-FLUORO-BENZYL)-6-METHYL-5-[(5-METHYL-ISOXAZOLE-3-CARBONYL)-AMINO]-4-OXO-HEPTANOYLAMINO}-5-(2-OXO-PYRROLIDIN-3-YL)-PENTANOIC ACID ETHYL ESTER', 'weight': 600.678, 'carbohydrate_polymer': False, 'branch_name': ''}, {'chain_id': 'C', 'author_residue_number': 501, 'author_insertion_code': '', 'chem_comp_id': 'AG7', 'alternate_conformers': 0, 'entity_id': 2, 'struct_asym_id': 'K', 'residue_number': 1, 'chem_comp_name': '4-{2-(4-FLUORO-BENZYL)-6-METHYL-5-[(5-METHYL-ISOXAZOLE-3-CARBONYL)-AMINO]-4-OXO-HEPTANOYLAMINO}-5-(2-OXO-PYRROLIDIN-3-YL)-PENTANOIC ACID ETHYL ESTER', 'weight': 600.678, 'carbohydrate_polymer': False, 'branch_name': ''}, {'chain_id': 'D', 'author_residue_number': 501, 'author_insertion_code': '', 'chem_comp_id': 'AG7', 'alternate_conformers': 0, 'entity_id': 2, 'struct_asym_id': 'L', 'residue_number': 1, 'chem_comp_name': '4-{2-(4-FLUORO-BENZYL)-6-METHYL-5-[(5-METHYL-ISOXAZOLE-3-CARBONYL)-AMINO]-4-OXO-HEPTANOYLAMINO}-5-(2-OXO-PYRROLIDIN-3-YL)-PENTANOIC ACID ETHYL ESTER', 'weight': 600.678, 'carbohydrate_polymer': False, 'branch_name': ''}, {'chain_id': 'E', 'author_residue_number': 501, 'author_insertion_code': '', 'chem_comp_id': 'AG7', 'alternate_conformers': 0, 'entity_id': 2, 'struct_asym_id': 'M', 'residue_number': 1, 'chem_comp_name': '4-{2-(4-FLUORO-BENZYL)-6-METHYL-5-[(5-METHYL-ISOXAZOLE-3-CARBONYL)-AMINO]-4-OXO-HEPTANOYLAMINO}-5-(2-OXO-PYRROLIDIN-3-YL)-PENTANOIC ACID ETHYL ESTER', 'weight': 600.678, 'carbohydrate_polymer': False, 'branch_name': ''}, {'chain_id': 'F', 'author_residue_number': 501, 'author_insertion_code': '', 'chem_comp_id': 'AG7', 'alternate_conformers': 0, 'entity_id': 2, 'struct_asym_id': 'N', 'residue_number': 1, 'chem_comp_name': '4-{2-(4-FLUORO-BENZYL)-6-METHYL-5-[(5-METHYL-ISOXAZOLE-3-CARBONYL)-AMINO]-4-OXO-HEPTANOYLAMINO}-5-(2-OXO-PYRROLIDIN-3-YL)-PENTANOIC ACID ETHYL ESTER', 'weight': 600.678, 'carbohydrate_polymer': False, 'branch_name': ''}, {'chain_id': 'G', 'author_residue_number': 501, 'author_insertion_code': '', 'chem_comp_id': 'AG7', 'alternate_conformers': 0, 'entity_id': 2, 'struct_asym_id': 'O', 'residue_number': 1, 'chem_comp_name': '4-{2-(4-FLUORO-BENZYL)-6-METHYL-5-[(5-METHYL-ISOXAZOLE-3-CARBONYL)-AMINO]-4-OXO-HEPTANOYLAMINO}-5-(2-OXO-PYRROLIDIN-3-YL)-PENTANOIC ACID ETHYL ESTER', 'weight': 600.678, 'carbohydrate_polymer': False, 'branch_name': ''}, {'chain_id': 'H', 'author_residue_number': 501, 'author_insertion_code': '', 'chem_comp_id': 'AG7', 'alternate_conformers': 0, 'entity_id': 2, 'struct_asym_id': 'P', 'residue_number': 1, 'chem_comp_name': '4-{2-(4-FLUORO-BENZYL)-6-METHYL-5-[(5-METHYL-ISOXAZOLE-3-CARBONYL)-AMINO]-4-OXO-HEPTANOYLAMINO}-5-(2-OXO-PYRROLIDIN-3-YL)-PENTANOIC ACID ETHYL ESTER', 'weight': 600.678, 'carbohydrate_polymer': False, 'branch_name': ''}]

>  <ligand_codes>  (470) 
['AG7', 'AG7', 'AG7', 'AG7', 'AG7', 'AG7', 'AG7', 'AG7']

>  <cofactor_codes>  (470) 
[]

>  <has_cofactor>  (470) 
False

>  <covalent>  (470) 
True

>  <base_name>  (470) 
3SJO

>  <lig_resn>  (470) 
AG7

>  <lig_resi>  (470) 
501

>  <lig_chain>  (470) 
A

>  <lig_segi>  (470) 
I

>  <lig_alt>  (470) 


>  <polymer_chain>  (470) 
A

>  <single_smiles>  (470) 
CCOC(=O)CC[C@H](C[C@@H]1CCNC1=O)NC(=O)[C@@H](CC(=O)[C@@H](NC(=O)c2cc(C)on2)C(C)C)Cc3ccc(F)cc3

$$$$
AG7P8S33
     RDKit          3D

 32 32  0  0  0  0  0  0  0  0999 V2000
   -7.5680    9.8350  -32.1900 C   0  0  0  0  0  0  0  0  0  0  0  0
   -7.6950    9.9410  -33.7020 C   0  0  2  0  0  0  0  0  0  0  0  0
   -8.6690   10.9670  -34.0900 N   0  0  0  0  0  0  0  0  0  0  0  0
   -7.9440    8.6270  -34.4090 C   0  0  2  0  0  0  0  0  0  0  0  0
   -8.2190   12.1920  -34.7470 C   0  0  0  0  0  0  0  0  0  0  0  0
   -7.6890    8.6920  -35.9030 C   0  0  0  0  0  0  0  0  0  0  0  0
   -9.6990    8.3690  -34.0940 R   0  0  0  0  0  0  0  0  0  0  0  0
   -9.2650   13.0870  -35.4210 C   0  0  1  0  0  0  0  0  0  0  0  0
   -7.0310   12.4100  -34.8930 O   0  0  0  0  0  0  0  0  0  0  0  0
   -6.2280    8.9610  -36.2420 C   0  0  0  0  0  0  0  0  0  0  0  0
   -9.1250   14.5600  -35.0710 C   0  0  0  0  0  0  0  0  0  0  0  0
   -9.4060   12.8260  -36.9090 C   0  0  0  0  0  0  0  0  0  0  0  0
   -5.9130    9.9450  -37.0170 O   0  0  0  0  0  0  0  0  0  0  0  0
   -5.3400    8.4630  -35.5080 O   0  0  0  0  0  0  0  0  0  0  0  0
   -8.7340   14.8750  -33.6330 C   0  0  0  0  0  0  0  0  0  0  0  0
  -10.4680   13.6500  -37.5900 C   0  0  0  0  0  0  0  0  0  0  0  0
   -4.5540   10.2290  -37.2100 C   0  0  0  0  0  0  0  0  0  0  0  0
   -8.3660   16.3160  -33.2440 C   0  0  1  0  0  0  0  0  0  0  0  0
   -8.9120   14.0500  -32.7640 O   0  0  0  0  0  0  0  0  0  0  0  0
  -11.8920   13.3740  -37.3060 C   0  0  0  0  0  0  0  0  0  0  0  0
  -10.0960   14.6950  -38.4660 C   0  0  0  0  0  0  0  0  0  0  0  0
   -4.2040   11.6040  -37.7340 C   0  0  0  0  0  0  0  0  0  0  0  0
   -8.7350   16.6450  -31.8730 N   0  0  0  0  0  0  0  0  0  0  0  0
   -6.9450   16.7440  -33.5590 C   0  0  0  0  0  0  0  0  0  0  0  0
  -12.9410   14.1870  -37.9670 C   0  0  0  0  0  0  0  0  0  0  0  0
  -11.1310   15.5040  -39.1190 C   0  0  0  0  0  0  0  0  0  0  0  0
   -9.7620   17.6260  -31.5940 C   0  0  0  0  0  0  0  0  0  0  0  0
   -6.7430   18.1960  -33.2420 C   0  0  0  0  0  0  0  0  0  0  0  0
   -5.9160   15.8690  -32.9170 C   0  0  0  0  0  0  0  0  0  0  0  0
  -12.5760   15.2200  -38.8370 C   0  0  0  0  0  0  0  0  0  0  0  0
  -10.2070   18.3220  -32.4960 O   0  0  0  0  0  0  0  0  0  0  0  0
  -13.5230   15.9340  -39.4430 F   0  0  0  0  0  0  0  0  0  0  0  0
  2  1  1  1
  3  2  1  0
  2  4  1  0
  3  5  1  0
  4  6  1  0
  4  7  1  6
  8  5  1  0
  5  9  2  0
  6 10  1  0
  8 11  1  6
  8 12  1  0
 10 13  1  0
 10 14  2  0
 15 11  1  0
 12 16  1  0
 13 17  1  0
 15 18  1  0
 15 19  2  0
 16 20  2  0
 16 21  1  0
 17 22  1  0
 18 23  1  1
 18 24  1  0
 20 25  1  0
 26 21  2  0
 23 27  1  0
 24 28  1  0
 24 29  1  0
 25 30  2  0
 30 26  1  0
 27 31  2  0
 30 32  1  0
V    7 *
A    2
 C13
A    3
 N12
A    4
 C19
A    5
 C47
A    6
 C20
A    7
 X  
A    8
 C04
A    9
 O48
A   10
 C21
A   11
 C02
A   12
 C05
A   13
 O22
A   14
 O23
A   15
 C01
A   16
 C06
A   17
 C50
A   18
 C57
A   19
 O03
A   20
 C07
A   21
 C11
A   22
 C53
A   23
 N58
A   24
 C78
A   25
 C08
A   26
 C10
A   28
 C81
A   29
 C82
A   30
 C09
A   31
 O60
A   32
 F1 
M  END
>  <XChem_code>  (471) 
AG7§8

>  <Occupancy>  (471) 
[1.0, 1.0, 1.0, 1.0, 1.0, 1.0, 1.0, 1.0, 1.0, 1.0, 1.0, 1.0, 1.0, 1.0, 1.0, 1.0, 1.0, 1.0, 1.0, 1.0, 1.0, 1.0, 1.0, 1.0, 1.0, 1.0, 1.0, 1.0, 1.0, 1.0, 1.0, 1.0, 1.0, 1.0, 1.0, 1.0, 1.0, 1.0, 1.0, 1.0, 1.0, 1.0, 1.0, 1.0]

>  <TempFactor>  (471) 
[18.81, 27.66, 18.42, 28.47, 31.3, 19.86, 18.0, 36.49, 33.82, 16.63, 29.4, 22.13, 22.68, 21.54, 23.87, 26.44, 24.22, 19.0, 15.21, 18.33, 16.27, 19.18, 19.0, 17.13, 14.73, 16.04, 18.83, 23.76, 19.63, 17.66, 18.54, 25.52, 26.09, 23.51, 21.61, 23.49, 26.81, 22.53, 27.37, 21.38, 21.53, 22.61, 16.29, 28.88]

>  <accession>  (471) 
3SJO_A

>  <description>  (471) 
Chain A, 3C protease [Enterovirus A71]

>  <evalue>  (471) 
1.0179e-70

>  <pdb_code>  (471) 
3SJO

>  <chain>  (471) 
A

>  <ligands>  (471) 
[{'chain_id': 'A', 'author_residue_number': 501, 'author_insertion_code': '', 'chem_comp_id': 'AG7', 'alternate_conformers': 0, 'entity_id': 2, 'struct_asym_id': 'I', 'residue_number': 1, 'chem_comp_name': '4-{2-(4-FLUORO-BENZYL)-6-METHYL-5-[(5-METHYL-ISOXAZOLE-3-CARBONYL)-AMINO]-4-OXO-HEPTANOYLAMINO}-5-(2-OXO-PYRROLIDIN-3-YL)-PENTANOIC ACID ETHYL ESTER', 'weight': 600.678, 'carbohydrate_polymer': False, 'branch_name': ''}, {'chain_id': 'B', 'author_residue_number': 501, 'author_insertion_code': '', 'chem_comp_id': 'AG7', 'alternate_conformers': 0, 'entity_id': 2, 'struct_asym_id': 'J', 'residue_number': 1, 'chem_comp_name': '4-{2-(4-FLUORO-BENZYL)-6-METHYL-5-[(5-METHYL-ISOXAZOLE-3-CARBONYL)-AMINO]-4-OXO-HEPTANOYLAMINO}-5-(2-OXO-PYRROLIDIN-3-YL)-PENTANOIC ACID ETHYL ESTER', 'weight': 600.678, 'carbohydrate_polymer': False, 'branch_name': ''}, {'chain_id': 'C', 'author_residue_number': 501, 'author_insertion_code': '', 'chem_comp_id': 'AG7', 'alternate_conformers': 0, 'entity_id': 2, 'struct_asym_id': 'K', 'residue_number': 1, 'chem_comp_name': '4-{2-(4-FLUORO-BENZYL)-6-METHYL-5-[(5-METHYL-ISOXAZOLE-3-CARBONYL)-AMINO]-4-OXO-HEPTANOYLAMINO}-5-(2-OXO-PYRROLIDIN-3-YL)-PENTANOIC ACID ETHYL ESTER', 'weight': 600.678, 'carbohydrate_polymer': False, 'branch_name': ''}, {'chain_id': 'D', 'author_residue_number': 501, 'author_insertion_code': '', 'chem_comp_id': 'AG7', 'alternate_conformers': 0, 'entity_id': 2, 'struct_asym_id': 'L', 'residue_number': 1, 'chem_comp_name': '4-{2-(4-FLUORO-BENZYL)-6-METHYL-5-[(5-METHYL-ISOXAZOLE-3-CARBONYL)-AMINO]-4-OXO-HEPTANOYLAMINO}-5-(2-OXO-PYRROLIDIN-3-YL)-PENTANOIC ACID ETHYL ESTER', 'weight': 600.678, 'carbohydrate_polymer': False, 'branch_name': ''}, {'chain_id': 'E', 'author_residue_number': 501, 'author_insertion_code': '', 'chem_comp_id': 'AG7', 'alternate_conformers': 0, 'entity_id': 2, 'struct_asym_id': 'M', 'residue_number': 1, 'chem_comp_name': '4-{2-(4-FLUORO-BENZYL)-6-METHYL-5-[(5-METHYL-ISOXAZOLE-3-CARBONYL)-AMINO]-4-OXO-HEPTANOYLAMINO}-5-(2-OXO-PYRROLIDIN-3-YL)-PENTANOIC ACID ETHYL ESTER', 'weight': 600.678, 'carbohydrate_polymer': False, 'branch_name': ''}, {'chain_id': 'F', 'author_residue_number': 501, 'author_insertion_code': '', 'chem_comp_id': 'AG7', 'alternate_conformers': 0, 'entity_id': 2, 'struct_asym_id': 'N', 'residue_number': 1, 'chem_comp_name': '4-{2-(4-FLUORO-BENZYL)-6-METHYL-5-[(5-METHYL-ISOXAZOLE-3-CARBONYL)-AMINO]-4-OXO-HEPTANOYLAMINO}-5-(2-OXO-PYRROLIDIN-3-YL)-PENTANOIC ACID ETHYL ESTER', 'weight': 600.678, 'carbohydrate_polymer': False, 'branch_name': ''}, {'chain_id': 'G', 'author_residue_number': 501, 'author_insertion_code': '', 'chem_comp_id': 'AG7', 'alternate_conformers': 0, 'entity_id': 2, 'struct_asym_id': 'O', 'residue_number': 1, 'chem_comp_name': '4-{2-(4-FLUORO-BENZYL)-6-METHYL-5-[(5-METHYL-ISOXAZOLE-3-CARBONYL)-AMINO]-4-OXO-HEPTANOYLAMINO}-5-(2-OXO-PYRROLIDIN-3-YL)-PENTANOIC ACID ETHYL ESTER', 'weight': 600.678, 'carbohydrate_polymer': False, 'branch_name': ''}, {'chain_id': 'H', 'author_residue_number': 501, 'author_insertion_code': '', 'chem_comp_id': 'AG7', 'alternate_conformers': 0, 'entity_id': 2, 'struct_asym_id': 'P', 'residue_number': 1, 'chem_comp_name': '4-{2-(4-FLUORO-BENZYL)-6-METHYL-5-[(5-METHYL-ISOXAZOLE-3-CARBONYL)-AMINO]-4-OXO-HEPTANOYLAMINO}-5-(2-OXO-PYRROLIDIN-3-YL)-PENTANOIC ACID ETHYL ESTER', 'weight': 600.678, 'carbohydrate_polymer': False, 'branch_name': ''}]

>  <ligand_codes>  (471) 
['AG7', 'AG7', 'AG7', 'AG7', 'AG7', 'AG7', 'AG7', 'AG7']

>  <cofactor_codes>  (471) 
[]

>  <has_cofactor>  (471) 
False

>  <covalent>  (471) 
True

>  <base_name>  (471) 
3SJO

>  <lig_resn>  (471) 
AG7

>  <lig_resi>  (471) 
501

>  <lig_chain>  (471) 
A

>  <lig_segi>  (471) 
I

>  <lig_alt>  (471) 


>  <polymer_chain>  (471) 
A

>  <single_smiles>  (471) 
CCOC(=O)CC[C@H](C[C@@H]1CCNC1=O)NC(=O)[C@@H](CC(=O)[C@@H](NC(=O)c2cc(C)on2)C(C)C)Cc3ccc(F)cc3

$$$$
AG7P8S34
     RDKit          3D

 31 31  0  0  0  0  0  0  0  0999 V2000
   -9.4060   12.8260  -36.9090 C   0  0  0  0  0  0  0  0  0  0  0  0
   -9.2650   13.0870  -35.4210 C   0  0  2  0  0  0  0  0  0  0  0  0
   -9.1250   14.5600  -35.0710 C   0  0  0  0  0  0  0  0  0  0  0  0
   -8.2190   12.1920  -34.7470 C   0  0  0  0  0  0  0  0  0  0  0  0
   -8.7340   14.8750  -33.6330 C   0  0  0  0  0  0  0  0  0  0  0  0
   -8.6690   10.9670  -34.0900 N   0  0  0  0  0  0  0  0  0  0  0  0
   -7.0310   12.4100  -34.8930 O   0  0  0  0  0  0  0  0  0  0  0  0
   -8.3660   16.3160  -33.2440 C   0  0  1  0  0  0  0  0  0  0  0  0
   -8.9120   14.0500  -32.7640 O   0  0  0  0  0  0  0  0  0  0  0  0
   -7.6950    9.9410  -33.7020 C   0  0  1  0  0  0  0  0  0  0  0  0
   -8.7350   16.6450  -31.8730 N   0  0  0  0  0  0  0  0  0  0  0  0
   -6.9450   16.7440  -33.5590 C   0  0  0  0  0  0  0  0  0  0  0  0
   -7.5680    9.8350  -32.1900 C   0  0  0  0  0  0  0  0  0  0  0  0
   -7.9440    8.6270  -34.4090 C   0  0  2  0  0  0  0  0  0  0  0  0
   -9.7620   17.6260  -31.5940 C   0  0  0  0  0  0  0  0  0  0  0  0
   -6.7430   18.1960  -33.2420 C   0  0  0  0  0  0  0  0  0  0  0  0
   -5.9160   15.8690  -32.9170 C   0  0  0  0  0  0  0  0  0  0  0  0
   -7.0030   11.1120  -31.5690 C   0  0  1  0  0  0  0  0  0  0  0  0
   -7.6890    8.6920  -35.9030 C   0  0  0  0  0  0  0  0  0  0  0  0
   -9.6990    8.3690  -34.0940 R   0  0  0  0  0  0  0  0  0  0  0  0
  -10.2070   18.3220  -32.4960 O   0  0  0  0  0  0  0  0  0  0  0  0
   -7.1160   11.2790  -30.0480 C   0  0  0  0  0  0  0  0  0  0  0  0
   -5.6150   11.5640  -31.9570 C   0  0  0  0  0  0  0  0  0  0  0  0
   -6.2280    8.9610  -36.2420 C   0  0  0  0  0  0  0  0  0  0  0  0
   -5.8140   11.8640  -29.5400 N   0  0  0  0  0  0  0  0  0  0  0  0
   -7.7570   10.3380  -29.3000 O   0  0  0  0  0  0  0  0  0  0  0  0
   -5.1080   12.3840  -30.7640 C   0  0  0  0  0  0  0  0  0  0  0  0
   -5.9130    9.9450  -37.0170 O   0  0  0  0  0  0  0  0  0  0  0  0
   -5.3400    8.4630  -35.5080 O   0  0  0  0  0  0  0  0  0  0  0  0
   -4.5540   10.2290  -37.2100 C   0  0  0  0  0  0  0  0  0  0  0  0
   -4.2040   11.6040  -37.7340 C   0  0  0  0  0  0  0  0  0  0  0  0
  2  1  1  6
  2  3  1  0
  2  4  1  0
  5  3  1  0
  6  4  1  0
  4  7  2  0
  5  8  1  0
  5  9  2  0
  6 10  1  0
  8 11  1  1
  8 12  1  0
 10 13  1  1
 10 14  1  0
 11 15  1  0
 12 16  1  0
 12 17  1  0
 18 13  1  1
 14 19  1  0
 14 20  1  6
 15 21  2  0
 18 22  1  0
 18 23  1  0
 19 24  1  0
 22 25  1  0
 22 26  2  0
 27 23  1  0
 24 28  1  0
 24 29  2  0
 25 27  1  0
 28 30  1  0
 30 31  1  0
V   20 *
A    2
 C04
A    3
 C02
A    4
 C47
A    5
 C01
A    6
 N12
A    7
 O48
A    8
 C57
A    9
 O03
A   10
 C13
A   11
 N58
A   12
 C78
A   13
 C14
A   14
 C19
A   16
 C81
A   17
 C82
A   18
 C15
A   19
 C20
A   20
 X  
A   21
 O60
A   22
 C16
A   23
 C84
A   24
 C21
A   25
 N17
A   26
 O18
A   27
 C83
A   28
 O22
A   29
 O23
A   30
 C50
A   31
 C53
M  END
>  <XChem_code>  (472) 
AG7§8

>  <Occupancy>  (472) 
[1.0, 1.0, 1.0, 1.0, 1.0, 1.0, 1.0, 1.0, 1.0, 1.0, 1.0, 1.0, 1.0, 1.0, 1.0, 1.0, 1.0, 1.0, 1.0, 1.0, 1.0, 1.0, 1.0, 1.0, 1.0, 1.0, 1.0, 1.0, 1.0, 1.0, 1.0, 1.0, 1.0, 1.0, 1.0, 1.0, 1.0, 1.0, 1.0, 1.0, 1.0, 1.0, 1.0, 1.0]

>  <TempFactor>  (472) 
[18.81, 27.66, 18.42, 28.47, 31.3, 19.86, 18.0, 36.49, 33.82, 16.63, 29.4, 22.13, 22.68, 21.54, 23.87, 26.44, 24.22, 19.0, 15.21, 18.33, 16.27, 19.18, 19.0, 17.13, 14.73, 16.04, 18.83, 23.76, 19.63, 17.66, 18.54, 25.52, 26.09, 23.51, 21.61, 23.49, 26.81, 22.53, 27.37, 21.38, 21.53, 22.61, 16.29, 28.88]

>  <accession>  (472) 
3SJO_A

>  <description>  (472) 
Chain A, 3C protease [Enterovirus A71]

>  <evalue>  (472) 
1.0179e-70

>  <pdb_code>  (472) 
3SJO

>  <chain>  (472) 
A

>  <ligands>  (472) 
[{'chain_id': 'A', 'author_residue_number': 501, 'author_insertion_code': '', 'chem_comp_id': 'AG7', 'alternate_conformers': 0, 'entity_id': 2, 'struct_asym_id': 'I', 'residue_number': 1, 'chem_comp_name': '4-{2-(4-FLUORO-BENZYL)-6-METHYL-5-[(5-METHYL-ISOXAZOLE-3-CARBONYL)-AMINO]-4-OXO-HEPTANOYLAMINO}-5-(2-OXO-PYRROLIDIN-3-YL)-PENTANOIC ACID ETHYL ESTER', 'weight': 600.678, 'carbohydrate_polymer': False, 'branch_name': ''}, {'chain_id': 'B', 'author_residue_number': 501, 'author_insertion_code': '', 'chem_comp_id': 'AG7', 'alternate_conformers': 0, 'entity_id': 2, 'struct_asym_id': 'J', 'residue_number': 1, 'chem_comp_name': '4-{2-(4-FLUORO-BENZYL)-6-METHYL-5-[(5-METHYL-ISOXAZOLE-3-CARBONYL)-AMINO]-4-OXO-HEPTANOYLAMINO}-5-(2-OXO-PYRROLIDIN-3-YL)-PENTANOIC ACID ETHYL ESTER', 'weight': 600.678, 'carbohydrate_polymer': False, 'branch_name': ''}, {'chain_id': 'C', 'author_residue_number': 501, 'author_insertion_code': '', 'chem_comp_id': 'AG7', 'alternate_conformers': 0, 'entity_id': 2, 'struct_asym_id': 'K', 'residue_number': 1, 'chem_comp_name': '4-{2-(4-FLUORO-BENZYL)-6-METHYL-5-[(5-METHYL-ISOXAZOLE-3-CARBONYL)-AMINO]-4-OXO-HEPTANOYLAMINO}-5-(2-OXO-PYRROLIDIN-3-YL)-PENTANOIC ACID ETHYL ESTER', 'weight': 600.678, 'carbohydrate_polymer': False, 'branch_name': ''}, {'chain_id': 'D', 'author_residue_number': 501, 'author_insertion_code': '', 'chem_comp_id': 'AG7', 'alternate_conformers': 0, 'entity_id': 2, 'struct_asym_id': 'L', 'residue_number': 1, 'chem_comp_name': '4-{2-(4-FLUORO-BENZYL)-6-METHYL-5-[(5-METHYL-ISOXAZOLE-3-CARBONYL)-AMINO]-4-OXO-HEPTANOYLAMINO}-5-(2-OXO-PYRROLIDIN-3-YL)-PENTANOIC ACID ETHYL ESTER', 'weight': 600.678, 'carbohydrate_polymer': False, 'branch_name': ''}, {'chain_id': 'E', 'author_residue_number': 501, 'author_insertion_code': '', 'chem_comp_id': 'AG7', 'alternate_conformers': 0, 'entity_id': 2, 'struct_asym_id': 'M', 'residue_number': 1, 'chem_comp_name': '4-{2-(4-FLUORO-BENZYL)-6-METHYL-5-[(5-METHYL-ISOXAZOLE-3-CARBONYL)-AMINO]-4-OXO-HEPTANOYLAMINO}-5-(2-OXO-PYRROLIDIN-3-YL)-PENTANOIC ACID ETHYL ESTER', 'weight': 600.678, 'carbohydrate_polymer': False, 'branch_name': ''}, {'chain_id': 'F', 'author_residue_number': 501, 'author_insertion_code': '', 'chem_comp_id': 'AG7', 'alternate_conformers': 0, 'entity_id': 2, 'struct_asym_id': 'N', 'residue_number': 1, 'chem_comp_name': '4-{2-(4-FLUORO-BENZYL)-6-METHYL-5-[(5-METHYL-ISOXAZOLE-3-CARBONYL)-AMINO]-4-OXO-HEPTANOYLAMINO}-5-(2-OXO-PYRROLIDIN-3-YL)-PENTANOIC ACID ETHYL ESTER', 'weight': 600.678, 'carbohydrate_polymer': False, 'branch_name': ''}, {'chain_id': 'G', 'author_residue_number': 501, 'author_insertion_code': '', 'chem_comp_id': 'AG7', 'alternate_conformers': 0, 'entity_id': 2, 'struct_asym_id': 'O', 'residue_number': 1, 'chem_comp_name': '4-{2-(4-FLUORO-BENZYL)-6-METHYL-5-[(5-METHYL-ISOXAZOLE-3-CARBONYL)-AMINO]-4-OXO-HEPTANOYLAMINO}-5-(2-OXO-PYRROLIDIN-3-YL)-PENTANOIC ACID ETHYL ESTER', 'weight': 600.678, 'carbohydrate_polymer': False, 'branch_name': ''}, {'chain_id': 'H', 'author_residue_number': 501, 'author_insertion_code': '', 'chem_comp_id': 'AG7', 'alternate_conformers': 0, 'entity_id': 2, 'struct_asym_id': 'P', 'residue_number': 1, 'chem_comp_name': '4-{2-(4-FLUORO-BENZYL)-6-METHYL-5-[(5-METHYL-ISOXAZOLE-3-CARBONYL)-AMINO]-4-OXO-HEPTANOYLAMINO}-5-(2-OXO-PYRROLIDIN-3-YL)-PENTANOIC ACID ETHYL ESTER', 'weight': 600.678, 'carbohydrate_polymer': False, 'branch_name': ''}]

>  <ligand_codes>  (472) 
['AG7', 'AG7', 'AG7', 'AG7', 'AG7', 'AG7', 'AG7', 'AG7']

>  <cofactor_codes>  (472) 
[]

>  <has_cofactor>  (472) 
False

>  <covalent>  (472) 
True

>  <base_name>  (472) 
3SJO

>  <lig_resn>  (472) 
AG7

>  <lig_resi>  (472) 
501

>  <lig_chain>  (472) 
A

>  <lig_segi>  (472) 
I

>  <lig_alt>  (472) 


>  <polymer_chain>  (472) 
A

>  <single_smiles>  (472) 
CCOC(=O)CC[C@H](C[C@@H]1CCNC1=O)NC(=O)[C@@H](CC(=O)[C@@H](NC(=O)c2cc(C)on2)C(C)C)Cc3ccc(F)cc3

$$$$
AG7P8S35
     RDKit          3D

 14 13  0  0  0  0  0  0  0  0999 V2000
   -9.4060   12.8260  -36.9090 C   0  0  0  0  0  0  0  0  0  0  0  0
   -9.2650   13.0870  -35.4210 C   0  0  2  0  0  0  0  0  0  0  0  0
   -9.1250   14.5600  -35.0710 C   0  0  0  0  0  0  0  0  0  0  0  0
   -8.2190   12.1920  -34.7470 C   0  0  0  0  0  0  0  0  0  0  0  0
   -8.7340   14.8750  -33.6330 C   0  0  0  0  0  0  0  0  0  0  0  0
   -7.0310   12.4100  -34.8930 O   0  0  0  0  0  0  0  0  0  0  0  0
   -8.3660   16.3160  -33.2440 C   0  0  1  0  0  0  0  0  0  0  0  0
   -8.9120   14.0500  -32.7640 O   0  0  0  0  0  0  0  0  0  0  0  0
   -8.7350   16.6450  -31.8730 N   0  0  0  0  0  0  0  0  0  0  0  0
   -6.9450   16.7440  -33.5590 C   0  0  0  0  0  0  0  0  0  0  0  0
   -9.7620   17.6260  -31.5940 C   0  0  0  0  0  0  0  0  0  0  0  0
   -6.7430   18.1960  -33.2420 C   0  0  0  0  0  0  0  0  0  0  0  0
   -5.9160   15.8690  -32.9170 C   0  0  0  0  0  0  0  0  0  0  0  0
  -10.2070   18.3220  -32.4960 O   0  0  0  0  0  0  0  0  0  0  0  0
  2  1  1  6
  2  3  1  0
  2  4  1  0
  5  3  1  0
  4  6  2  0
  5  7  1  0
  5  8  2  0
  7  9  1  1
  7 10  1  0
  9 11  1  0
 10 12  1  0
 10 13  1  0
 11 14  2  0
A    2
 C04
A    3
 C02
A    5
 C01
A    6
 O48
A    7
 C57
A    8
 O03
A    9
 N58
A   10
 C78
A   12
 C81
A   13
 C82
A   14
 O60
M  END
>  <XChem_code>  (473) 
AG7§8

>  <Occupancy>  (473) 
[1.0, 1.0, 1.0, 1.0, 1.0, 1.0, 1.0, 1.0, 1.0, 1.0, 1.0, 1.0, 1.0, 1.0, 1.0, 1.0, 1.0, 1.0, 1.0, 1.0, 1.0, 1.0, 1.0, 1.0, 1.0, 1.0, 1.0, 1.0, 1.0, 1.0, 1.0, 1.0, 1.0, 1.0, 1.0, 1.0, 1.0, 1.0, 1.0, 1.0, 1.0, 1.0, 1.0, 1.0]

>  <TempFactor>  (473) 
[18.81, 27.66, 18.42, 28.47, 31.3, 19.86, 18.0, 36.49, 33.82, 16.63, 29.4, 22.13, 22.68, 21.54, 23.87, 26.44, 24.22, 19.0, 15.21, 18.33, 16.27, 19.18, 19.0, 17.13, 14.73, 16.04, 18.83, 23.76, 19.63, 17.66, 18.54, 25.52, 26.09, 23.51, 21.61, 23.49, 26.81, 22.53, 27.37, 21.38, 21.53, 22.61, 16.29, 28.88]

>  <accession>  (473) 
3SJO_A

>  <description>  (473) 
Chain A, 3C protease [Enterovirus A71]

>  <evalue>  (473) 
1.0179e-70

>  <pdb_code>  (473) 
3SJO

>  <chain>  (473) 
A

>  <ligands>  (473) 
[{'chain_id': 'A', 'author_residue_number': 501, 'author_insertion_code': '', 'chem_comp_id': 'AG7', 'alternate_conformers': 0, 'entity_id': 2, 'struct_asym_id': 'I', 'residue_number': 1, 'chem_comp_name': '4-{2-(4-FLUORO-BENZYL)-6-METHYL-5-[(5-METHYL-ISOXAZOLE-3-CARBONYL)-AMINO]-4-OXO-HEPTANOYLAMINO}-5-(2-OXO-PYRROLIDIN-3-YL)-PENTANOIC ACID ETHYL ESTER', 'weight': 600.678, 'carbohydrate_polymer': False, 'branch_name': ''}, {'chain_id': 'B', 'author_residue_number': 501, 'author_insertion_code': '', 'chem_comp_id': 'AG7', 'alternate_conformers': 0, 'entity_id': 2, 'struct_asym_id': 'J', 'residue_number': 1, 'chem_comp_name': '4-{2-(4-FLUORO-BENZYL)-6-METHYL-5-[(5-METHYL-ISOXAZOLE-3-CARBONYL)-AMINO]-4-OXO-HEPTANOYLAMINO}-5-(2-OXO-PYRROLIDIN-3-YL)-PENTANOIC ACID ETHYL ESTER', 'weight': 600.678, 'carbohydrate_polymer': False, 'branch_name': ''}, {'chain_id': 'C', 'author_residue_number': 501, 'author_insertion_code': '', 'chem_comp_id': 'AG7', 'alternate_conformers': 0, 'entity_id': 2, 'struct_asym_id': 'K', 'residue_number': 1, 'chem_comp_name': '4-{2-(4-FLUORO-BENZYL)-6-METHYL-5-[(5-METHYL-ISOXAZOLE-3-CARBONYL)-AMINO]-4-OXO-HEPTANOYLAMINO}-5-(2-OXO-PYRROLIDIN-3-YL)-PENTANOIC ACID ETHYL ESTER', 'weight': 600.678, 'carbohydrate_polymer': False, 'branch_name': ''}, {'chain_id': 'D', 'author_residue_number': 501, 'author_insertion_code': '', 'chem_comp_id': 'AG7', 'alternate_conformers': 0, 'entity_id': 2, 'struct_asym_id': 'L', 'residue_number': 1, 'chem_comp_name': '4-{2-(4-FLUORO-BENZYL)-6-METHYL-5-[(5-METHYL-ISOXAZOLE-3-CARBONYL)-AMINO]-4-OXO-HEPTANOYLAMINO}-5-(2-OXO-PYRROLIDIN-3-YL)-PENTANOIC ACID ETHYL ESTER', 'weight': 600.678, 'carbohydrate_polymer': False, 'branch_name': ''}, {'chain_id': 'E', 'author_residue_number': 501, 'author_insertion_code': '', 'chem_comp_id': 'AG7', 'alternate_conformers': 0, 'entity_id': 2, 'struct_asym_id': 'M', 'residue_number': 1, 'chem_comp_name': '4-{2-(4-FLUORO-BENZYL)-6-METHYL-5-[(5-METHYL-ISOXAZOLE-3-CARBONYL)-AMINO]-4-OXO-HEPTANOYLAMINO}-5-(2-OXO-PYRROLIDIN-3-YL)-PENTANOIC ACID ETHYL ESTER', 'weight': 600.678, 'carbohydrate_polymer': False, 'branch_name': ''}, {'chain_id': 'F', 'author_residue_number': 501, 'author_insertion_code': '', 'chem_comp_id': 'AG7', 'alternate_conformers': 0, 'entity_id': 2, 'struct_asym_id': 'N', 'residue_number': 1, 'chem_comp_name': '4-{2-(4-FLUORO-BENZYL)-6-METHYL-5-[(5-METHYL-ISOXAZOLE-3-CARBONYL)-AMINO]-4-OXO-HEPTANOYLAMINO}-5-(2-OXO-PYRROLIDIN-3-YL)-PENTANOIC ACID ETHYL ESTER', 'weight': 600.678, 'carbohydrate_polymer': False, 'branch_name': ''}, {'chain_id': 'G', 'author_residue_number': 501, 'author_insertion_code': '', 'chem_comp_id': 'AG7', 'alternate_conformers': 0, 'entity_id': 2, 'struct_asym_id': 'O', 'residue_number': 1, 'chem_comp_name': '4-{2-(4-FLUORO-BENZYL)-6-METHYL-5-[(5-METHYL-ISOXAZOLE-3-CARBONYL)-AMINO]-4-OXO-HEPTANOYLAMINO}-5-(2-OXO-PYRROLIDIN-3-YL)-PENTANOIC ACID ETHYL ESTER', 'weight': 600.678, 'carbohydrate_polymer': False, 'branch_name': ''}, {'chain_id': 'H', 'author_residue_number': 501, 'author_insertion_code': '', 'chem_comp_id': 'AG7', 'alternate_conformers': 0, 'entity_id': 2, 'struct_asym_id': 'P', 'residue_number': 1, 'chem_comp_name': '4-{2-(4-FLUORO-BENZYL)-6-METHYL-5-[(5-METHYL-ISOXAZOLE-3-CARBONYL)-AMINO]-4-OXO-HEPTANOYLAMINO}-5-(2-OXO-PYRROLIDIN-3-YL)-PENTANOIC ACID ETHYL ESTER', 'weight': 600.678, 'carbohydrate_polymer': False, 'branch_name': ''}]

>  <ligand_codes>  (473) 
['AG7', 'AG7', 'AG7', 'AG7', 'AG7', 'AG7', 'AG7', 'AG7']

>  <cofactor_codes>  (473) 
[]

>  <has_cofactor>  (473) 
False

>  <covalent>  (473) 
True

>  <base_name>  (473) 
3SJO

>  <lig_resn>  (473) 
AG7

>  <lig_resi>  (473) 
501

>  <lig_chain>  (473) 
A

>  <lig_segi>  (473) 
I

>  <lig_alt>  (473) 


>  <polymer_chain>  (473) 
A

>  <single_smiles>  (473) 
CCOC(=O)CC[C@H](C[C@@H]1CCNC1=O)NC(=O)[C@@H](CC(=O)[C@@H](NC(=O)c2cc(C)on2)C(C)C)Cc3ccc(F)cc3

$$$$
AG7P8S36
     RDKit          3D

 15 14  0  0  0  0  0  0  0  0999 V2000
   -9.4060   12.8260  -36.9090 C   0  0  0  0  0  0  0  0  0  0  0  0
   -9.2650   13.0870  -35.4210 C   0  0  2  0  0  0  0  0  0  0  0  0
   -9.1250   14.5600  -35.0710 C   0  0  0  0  0  0  0  0  0  0  0  0
   -8.2190   12.1920  -34.7470 C   0  0  0  0  0  0  0  0  0  0  0  0
   -8.7340   14.8750  -33.6330 C   0  0  0  0  0  0  0  0  0  0  0  0
   -8.6690   10.9670  -34.0900 N   0  0  0  0  0  0  0  0  0  0  0  0
   -7.0310   12.4100  -34.8930 O   0  0  0  0  0  0  0  0  0  0  0  0
   -8.3660   16.3160  -33.2440 C   0  0  1  0  0  0  0  0  0  0  0  0
   -8.9120   14.0500  -32.7640 O   0  0  0  0  0  0  0  0  0  0  0  0
   -8.7350   16.6450  -31.8730 N   0  0  0  0  0  0  0  0  0  0  0  0
   -6.9450   16.7440  -33.5590 C   0  0  0  0  0  0  0  0  0  0  0  0
   -9.7620   17.6260  -31.5940 C   0  0  0  0  0  0  0  0  0  0  0  0
   -6.7430   18.1960  -33.2420 C   0  0  0  0  0  0  0  0  0  0  0  0
   -5.9160   15.8690  -32.9170 C   0  0  0  0  0  0  0  0  0  0  0  0
  -10.2070   18.3220  -32.4960 O   0  0  0  0  0  0  0  0  0  0  0  0
  2  1  1  6
  2  3  1  0
  2  4  1  0
  5  3  1  0
  6  4  1  0
  4  7  2  0
  5  8  1  0
  5  9  2  0
  8 10  1  1
  8 11  1  0
 10 12  1  0
 11 13  1  0
 11 14  1  0
 12 15  2  0
A    2
 C04
A    3
 C02
A    4
 C47
A    5
 C01
A    7
 O48
A    8
 C57
A    9
 O03
A   10
 N58
A   11
 C78
A   13
 C81
A   14
 C82
A   15
 O60
M  END
>  <XChem_code>  (474) 
AG7§8

>  <Occupancy>  (474) 
[1.0, 1.0, 1.0, 1.0, 1.0, 1.0, 1.0, 1.0, 1.0, 1.0, 1.0, 1.0, 1.0, 1.0, 1.0, 1.0, 1.0, 1.0, 1.0, 1.0, 1.0, 1.0, 1.0, 1.0, 1.0, 1.0, 1.0, 1.0, 1.0, 1.0, 1.0, 1.0, 1.0, 1.0, 1.0, 1.0, 1.0, 1.0, 1.0, 1.0, 1.0, 1.0, 1.0, 1.0]

>  <TempFactor>  (474) 
[18.81, 27.66, 18.42, 28.47, 31.3, 19.86, 18.0, 36.49, 33.82, 16.63, 29.4, 22.13, 22.68, 21.54, 23.87, 26.44, 24.22, 19.0, 15.21, 18.33, 16.27, 19.18, 19.0, 17.13, 14.73, 16.04, 18.83, 23.76, 19.63, 17.66, 18.54, 25.52, 26.09, 23.51, 21.61, 23.49, 26.81, 22.53, 27.37, 21.38, 21.53, 22.61, 16.29, 28.88]

>  <accession>  (474) 
3SJO_A

>  <description>  (474) 
Chain A, 3C protease [Enterovirus A71]

>  <evalue>  (474) 
1.0179e-70

>  <pdb_code>  (474) 
3SJO

>  <chain>  (474) 
A

>  <ligands>  (474) 
[{'chain_id': 'A', 'author_residue_number': 501, 'author_insertion_code': '', 'chem_comp_id': 'AG7', 'alternate_conformers': 0, 'entity_id': 2, 'struct_asym_id': 'I', 'residue_number': 1, 'chem_comp_name': '4-{2-(4-FLUORO-BENZYL)-6-METHYL-5-[(5-METHYL-ISOXAZOLE-3-CARBONYL)-AMINO]-4-OXO-HEPTANOYLAMINO}-5-(2-OXO-PYRROLIDIN-3-YL)-PENTANOIC ACID ETHYL ESTER', 'weight': 600.678, 'carbohydrate_polymer': False, 'branch_name': ''}, {'chain_id': 'B', 'author_residue_number': 501, 'author_insertion_code': '', 'chem_comp_id': 'AG7', 'alternate_conformers': 0, 'entity_id': 2, 'struct_asym_id': 'J', 'residue_number': 1, 'chem_comp_name': '4-{2-(4-FLUORO-BENZYL)-6-METHYL-5-[(5-METHYL-ISOXAZOLE-3-CARBONYL)-AMINO]-4-OXO-HEPTANOYLAMINO}-5-(2-OXO-PYRROLIDIN-3-YL)-PENTANOIC ACID ETHYL ESTER', 'weight': 600.678, 'carbohydrate_polymer': False, 'branch_name': ''}, {'chain_id': 'C', 'author_residue_number': 501, 'author_insertion_code': '', 'chem_comp_id': 'AG7', 'alternate_conformers': 0, 'entity_id': 2, 'struct_asym_id': 'K', 'residue_number': 1, 'chem_comp_name': '4-{2-(4-FLUORO-BENZYL)-6-METHYL-5-[(5-METHYL-ISOXAZOLE-3-CARBONYL)-AMINO]-4-OXO-HEPTANOYLAMINO}-5-(2-OXO-PYRROLIDIN-3-YL)-PENTANOIC ACID ETHYL ESTER', 'weight': 600.678, 'carbohydrate_polymer': False, 'branch_name': ''}, {'chain_id': 'D', 'author_residue_number': 501, 'author_insertion_code': '', 'chem_comp_id': 'AG7', 'alternate_conformers': 0, 'entity_id': 2, 'struct_asym_id': 'L', 'residue_number': 1, 'chem_comp_name': '4-{2-(4-FLUORO-BENZYL)-6-METHYL-5-[(5-METHYL-ISOXAZOLE-3-CARBONYL)-AMINO]-4-OXO-HEPTANOYLAMINO}-5-(2-OXO-PYRROLIDIN-3-YL)-PENTANOIC ACID ETHYL ESTER', 'weight': 600.678, 'carbohydrate_polymer': False, 'branch_name': ''}, {'chain_id': 'E', 'author_residue_number': 501, 'author_insertion_code': '', 'chem_comp_id': 'AG7', 'alternate_conformers': 0, 'entity_id': 2, 'struct_asym_id': 'M', 'residue_number': 1, 'chem_comp_name': '4-{2-(4-FLUORO-BENZYL)-6-METHYL-5-[(5-METHYL-ISOXAZOLE-3-CARBONYL)-AMINO]-4-OXO-HEPTANOYLAMINO}-5-(2-OXO-PYRROLIDIN-3-YL)-PENTANOIC ACID ETHYL ESTER', 'weight': 600.678, 'carbohydrate_polymer': False, 'branch_name': ''}, {'chain_id': 'F', 'author_residue_number': 501, 'author_insertion_code': '', 'chem_comp_id': 'AG7', 'alternate_conformers': 0, 'entity_id': 2, 'struct_asym_id': 'N', 'residue_number': 1, 'chem_comp_name': '4-{2-(4-FLUORO-BENZYL)-6-METHYL-5-[(5-METHYL-ISOXAZOLE-3-CARBONYL)-AMINO]-4-OXO-HEPTANOYLAMINO}-5-(2-OXO-PYRROLIDIN-3-YL)-PENTANOIC ACID ETHYL ESTER', 'weight': 600.678, 'carbohydrate_polymer': False, 'branch_name': ''}, {'chain_id': 'G', 'author_residue_number': 501, 'author_insertion_code': '', 'chem_comp_id': 'AG7', 'alternate_conformers': 0, 'entity_id': 2, 'struct_asym_id': 'O', 'residue_number': 1, 'chem_comp_name': '4-{2-(4-FLUORO-BENZYL)-6-METHYL-5-[(5-METHYL-ISOXAZOLE-3-CARBONYL)-AMINO]-4-OXO-HEPTANOYLAMINO}-5-(2-OXO-PYRROLIDIN-3-YL)-PENTANOIC ACID ETHYL ESTER', 'weight': 600.678, 'carbohydrate_polymer': False, 'branch_name': ''}, {'chain_id': 'H', 'author_residue_number': 501, 'author_insertion_code': '', 'chem_comp_id': 'AG7', 'alternate_conformers': 0, 'entity_id': 2, 'struct_asym_id': 'P', 'residue_number': 1, 'chem_comp_name': '4-{2-(4-FLUORO-BENZYL)-6-METHYL-5-[(5-METHYL-ISOXAZOLE-3-CARBONYL)-AMINO]-4-OXO-HEPTANOYLAMINO}-5-(2-OXO-PYRROLIDIN-3-YL)-PENTANOIC ACID ETHYL ESTER', 'weight': 600.678, 'carbohydrate_polymer': False, 'branch_name': ''}]

>  <ligand_codes>  (474) 
['AG7', 'AG7', 'AG7', 'AG7', 'AG7', 'AG7', 'AG7', 'AG7']

>  <cofactor_codes>  (474) 
[]

>  <has_cofactor>  (474) 
False

>  <covalent>  (474) 
True

>  <base_name>  (474) 
3SJO

>  <lig_resn>  (474) 
AG7

>  <lig_resi>  (474) 
501

>  <lig_chain>  (474) 
A

>  <lig_segi>  (474) 
I

>  <lig_alt>  (474) 


>  <polymer_chain>  (474) 
A

>  <single_smiles>  (474) 
CCOC(=O)CC[C@H](C[C@@H]1CCNC1=O)NC(=O)[C@@H](CC(=O)[C@@H](NC(=O)c2cc(C)on2)C(C)C)Cc3ccc(F)cc3

$$$$
AG7P8S37
     RDKit          3D

 31 31  0  0  0  0  0  0  0  0999 V2000
   -9.4060   12.8260  -36.9090 C   0  0  0  0  0  0  0  0  0  0  0  0
   -9.2650   13.0870  -35.4210 C   0  0  1  0  0  0  0  0  0  0  0  0
   -8.2190   12.1920  -34.7470 C   0  0  0  0  0  0  0  0  0  0  0  0
   -9.1250   14.5600  -35.0710 C   0  0  0  0  0  0  0  0  0  0  0  0
   -8.6690   10.9670  -34.0900 N   0  0  0  0  0  0  0  0  0  0  0  0
   -7.0310   12.4100  -34.8930 O   0  0  0  0  0  0  0  0  0  0  0  0
   -8.7340   14.8750  -33.6330 C   0  0  0  0  0  0  0  0  0  0  0  0
   -7.6950    9.9410  -33.7020 C   0  0  1  0  0  0  0  0  0  0  0  0
   -8.9120   14.0500  -32.7640 O   0  0  0  0  0  0  0  0  0  0  0  0
   -8.3660   16.3160  -33.2440 C   0  0  1  0  0  0  0  0  0  0  0  0
   -7.5680    9.8350  -32.1900 C   0  0  0  0  0  0  0  0  0  0  0  0
   -7.9440    8.6270  -34.4090 C   0  0  2  0  0  0  0  0  0  0  0  0
   -8.7350   16.6450  -31.8730 N   0  0  0  0  0  0  0  0  0  0  0  0
   -6.9450   16.7440  -33.5590 C   0  0  0  0  0  0  0  0  0  0  0  0
   -7.6890    8.6920  -35.9030 C   0  0  0  0  0  0  0  0  0  0  0  0
   -9.6990    8.3690  -34.0940 R   0  0  0  0  0  0  0  0  0  0  0  0
   -9.7620   17.6260  -31.5940 C   0  0  0  0  0  0  0  0  0  0  0  0
   -6.7430   18.1960  -33.2420 C   0  0  0  0  0  0  0  0  0  0  0  0
   -5.9160   15.8690  -32.9170 C   0  0  0  0  0  0  0  0  0  0  0  0
   -6.2280    8.9610  -36.2420 C   0  0  0  0  0  0  0  0  0  0  0  0
  -10.1690   17.8670  -30.1510 C   0  0  0  0  0  0  0  0  0  0  0  0
  -10.2070   18.3220  -32.4960 O   0  0  0  0  0  0  0  0  0  0  0  0
   -5.9130    9.9450  -37.0170 O   0  0  0  0  0  0  0  0  0  0  0  0
   -5.3400    8.4630  -35.5080 O   0  0  0  0  0  0  0  0  0  0  0  0
  -11.1420   18.9430  -29.6030 C   0  0  0  0  0  0  0  0  0  0  0  0
   -9.7110   17.1440  -29.0800 N   0  0  0  0  0  0  0  0  0  0  0  0
   -4.5540   10.2290  -37.2100 C   0  0  0  0  0  0  0  0  0  0  0  0
  -11.1970   18.7860  -28.1620 C   0  0  0  0  0  0  0  0  0  0  0  0
  -10.3350   17.7020  -27.7930 O   0  0  0  0  0  0  0  0  0  0  0  0
   -4.2040   11.6040  -37.7340 C   0  0  0  0  0  0  0  0  0  0  0  0
  -12.0110   19.6150  -27.2080 C   0  0  0  0  0  0  0  0  0  0  0  0
  2  1  1  6
  2  3  1  0
  2  4  1  0
  5  3  1  0
  3  6  2  0
  7  4  1  0
  5  8  1  0
  7  9  2  0
  7 10  1  0
  8 11  1  1
  8 12  1  0
 10 13  1  1
 10 14  1  0
 12 15  1  0
 12 16  1  6
 13 17  1  0
 14 18  1  0
 14 19  1  0
 15 20  1  0
 21 17  1  0
 17 22  2  0
 20 23  1  0
 20 24  2  0
 21 25  1  0
 21 26  2  0
 23 27  1  0
 25 28  2  0
 29 26  1  0
 27 30  1  0
 28 31  1  0
 28 29  1  0
V   16 *
A    2
 C04
A    3
 C47
A    4
 C02
A    5
 N12
A    6
 O48
A    7
 C01
A    8
 C13
A    9
 O03
A   10
 C57
A   12
 C19
A   13
 N58
A   14
 C78
A   15
 C20
A   16
 X  
A   17
 C59
A   18
 C81
A   19
 C82
A   20
 C21
A   21
 C1 
A   22
 O60
A   23
 O22
A   24
 O23
A   25
 C2 
A   26
 N5 
A   27
 C50
A   28
 C3 
A   29
 O4 
A   30
 C53
A   31
 C4 
M  END
>  <XChem_code>  (475) 
AG7§8

>  <Occupancy>  (475) 
[1.0, 1.0, 1.0, 1.0, 1.0, 1.0, 1.0, 1.0, 1.0, 1.0, 1.0, 1.0, 1.0, 1.0, 1.0, 1.0, 1.0, 1.0, 1.0, 1.0, 1.0, 1.0, 1.0, 1.0, 1.0, 1.0, 1.0, 1.0, 1.0, 1.0, 1.0, 1.0, 1.0, 1.0, 1.0, 1.0, 1.0, 1.0, 1.0, 1.0, 1.0, 1.0, 1.0, 1.0]

>  <TempFactor>  (475) 
[18.81, 27.66, 18.42, 28.47, 31.3, 19.86, 18.0, 36.49, 33.82, 16.63, 29.4, 22.13, 22.68, 21.54, 23.87, 26.44, 24.22, 19.0, 15.21, 18.33, 16.27, 19.18, 19.0, 17.13, 14.73, 16.04, 18.83, 23.76, 19.63, 17.66, 18.54, 25.52, 26.09, 23.51, 21.61, 23.49, 26.81, 22.53, 27.37, 21.38, 21.53, 22.61, 16.29, 28.88]

>  <accession>  (475) 
3SJO_A

>  <description>  (475) 
Chain A, 3C protease [Enterovirus A71]

>  <evalue>  (475) 
1.0179e-70

>  <pdb_code>  (475) 
3SJO

>  <chain>  (475) 
A

>  <ligands>  (475) 
[{'chain_id': 'A', 'author_residue_number': 501, 'author_insertion_code': '', 'chem_comp_id': 'AG7', 'alternate_conformers': 0, 'entity_id': 2, 'struct_asym_id': 'I', 'residue_number': 1, 'chem_comp_name': '4-{2-(4-FLUORO-BENZYL)-6-METHYL-5-[(5-METHYL-ISOXAZOLE-3-CARBONYL)-AMINO]-4-OXO-HEPTANOYLAMINO}-5-(2-OXO-PYRROLIDIN-3-YL)-PENTANOIC ACID ETHYL ESTER', 'weight': 600.678, 'carbohydrate_polymer': False, 'branch_name': ''}, {'chain_id': 'B', 'author_residue_number': 501, 'author_insertion_code': '', 'chem_comp_id': 'AG7', 'alternate_conformers': 0, 'entity_id': 2, 'struct_asym_id': 'J', 'residue_number': 1, 'chem_comp_name': '4-{2-(4-FLUORO-BENZYL)-6-METHYL-5-[(5-METHYL-ISOXAZOLE-3-CARBONYL)-AMINO]-4-OXO-HEPTANOYLAMINO}-5-(2-OXO-PYRROLIDIN-3-YL)-PENTANOIC ACID ETHYL ESTER', 'weight': 600.678, 'carbohydrate_polymer': False, 'branch_name': ''}, {'chain_id': 'C', 'author_residue_number': 501, 'author_insertion_code': '', 'chem_comp_id': 'AG7', 'alternate_conformers': 0, 'entity_id': 2, 'struct_asym_id': 'K', 'residue_number': 1, 'chem_comp_name': '4-{2-(4-FLUORO-BENZYL)-6-METHYL-5-[(5-METHYL-ISOXAZOLE-3-CARBONYL)-AMINO]-4-OXO-HEPTANOYLAMINO}-5-(2-OXO-PYRROLIDIN-3-YL)-PENTANOIC ACID ETHYL ESTER', 'weight': 600.678, 'carbohydrate_polymer': False, 'branch_name': ''}, {'chain_id': 'D', 'author_residue_number': 501, 'author_insertion_code': '', 'chem_comp_id': 'AG7', 'alternate_conformers': 0, 'entity_id': 2, 'struct_asym_id': 'L', 'residue_number': 1, 'chem_comp_name': '4-{2-(4-FLUORO-BENZYL)-6-METHYL-5-[(5-METHYL-ISOXAZOLE-3-CARBONYL)-AMINO]-4-OXO-HEPTANOYLAMINO}-5-(2-OXO-PYRROLIDIN-3-YL)-PENTANOIC ACID ETHYL ESTER', 'weight': 600.678, 'carbohydrate_polymer': False, 'branch_name': ''}, {'chain_id': 'E', 'author_residue_number': 501, 'author_insertion_code': '', 'chem_comp_id': 'AG7', 'alternate_conformers': 0, 'entity_id': 2, 'struct_asym_id': 'M', 'residue_number': 1, 'chem_comp_name': '4-{2-(4-FLUORO-BENZYL)-6-METHYL-5-[(5-METHYL-ISOXAZOLE-3-CARBONYL)-AMINO]-4-OXO-HEPTANOYLAMINO}-5-(2-OXO-PYRROLIDIN-3-YL)-PENTANOIC ACID ETHYL ESTER', 'weight': 600.678, 'carbohydrate_polymer': False, 'branch_name': ''}, {'chain_id': 'F', 'author_residue_number': 501, 'author_insertion_code': '', 'chem_comp_id': 'AG7', 'alternate_conformers': 0, 'entity_id': 2, 'struct_asym_id': 'N', 'residue_number': 1, 'chem_comp_name': '4-{2-(4-FLUORO-BENZYL)-6-METHYL-5-[(5-METHYL-ISOXAZOLE-3-CARBONYL)-AMINO]-4-OXO-HEPTANOYLAMINO}-5-(2-OXO-PYRROLIDIN-3-YL)-PENTANOIC ACID ETHYL ESTER', 'weight': 600.678, 'carbohydrate_polymer': False, 'branch_name': ''}, {'chain_id': 'G', 'author_residue_number': 501, 'author_insertion_code': '', 'chem_comp_id': 'AG7', 'alternate_conformers': 0, 'entity_id': 2, 'struct_asym_id': 'O', 'residue_number': 1, 'chem_comp_name': '4-{2-(4-FLUORO-BENZYL)-6-METHYL-5-[(5-METHYL-ISOXAZOLE-3-CARBONYL)-AMINO]-4-OXO-HEPTANOYLAMINO}-5-(2-OXO-PYRROLIDIN-3-YL)-PENTANOIC ACID ETHYL ESTER', 'weight': 600.678, 'carbohydrate_polymer': False, 'branch_name': ''}, {'chain_id': 'H', 'author_residue_number': 501, 'author_insertion_code': '', 'chem_comp_id': 'AG7', 'alternate_conformers': 0, 'entity_id': 2, 'struct_asym_id': 'P', 'residue_number': 1, 'chem_comp_name': '4-{2-(4-FLUORO-BENZYL)-6-METHYL-5-[(5-METHYL-ISOXAZOLE-3-CARBONYL)-AMINO]-4-OXO-HEPTANOYLAMINO}-5-(2-OXO-PYRROLIDIN-3-YL)-PENTANOIC ACID ETHYL ESTER', 'weight': 600.678, 'carbohydrate_polymer': False, 'branch_name': ''}]

>  <ligand_codes>  (475) 
['AG7', 'AG7', 'AG7', 'AG7', 'AG7', 'AG7', 'AG7', 'AG7']

>  <cofactor_codes>  (475) 
[]

>  <has_cofactor>  (475) 
False

>  <covalent>  (475) 
True

>  <base_name>  (475) 
3SJO

>  <lig_resn>  (475) 
AG7

>  <lig_resi>  (475) 
501

>  <lig_chain>  (475) 
A

>  <lig_segi>  (475) 
I

>  <lig_alt>  (475) 


>  <polymer_chain>  (475) 
A

>  <single_smiles>  (475) 
CCOC(=O)CC[C@H](C[C@@H]1CCNC1=O)NC(=O)[C@@H](CC(=O)[C@@H](NC(=O)c2cc(C)on2)C(C)C)Cc3ccc(F)cc3

$$$$
AG7P8S38
     RDKit          3D

 23 22  0  0  0  0  0  0  0  0999 V2000
   -9.4060   12.8260  -36.9090 C   0  0  0  0  0  0  0  0  0  0  0  0
   -9.2650   13.0870  -35.4210 C   0  0  1  0  0  0  0  0  0  0  0  0
   -8.2190   12.1920  -34.7470 C   0  0  0  0  0  0  0  0  0  0  0  0
   -9.1250   14.5600  -35.0710 C   0  0  0  0  0  0  0  0  0  0  0  0
   -8.6690   10.9670  -34.0900 N   0  0  0  0  0  0  0  0  0  0  0  0
   -7.0310   12.4100  -34.8930 O   0  0  0  0  0  0  0  0  0  0  0  0
   -8.7340   14.8750  -33.6330 C   0  0  0  0  0  0  0  0  0  0  0  0
   -7.6950    9.9410  -33.7020 C   0  0  1  0  0  0  0  0  0  0  0  0
   -8.3660   16.3160  -33.2440 C   0  0  1  0  0  0  0  0  0  0  0  0
   -8.9120   14.0500  -32.7640 O   0  0  0  0  0  0  0  0  0  0  0  0
   -7.5680    9.8350  -32.1900 C   0  0  0  0  0  0  0  0  0  0  0  0
   -7.9440    8.6270  -34.4090 C   0  0  2  0  0  0  0  0  0  0  0  0
   -8.7350   16.6450  -31.8730 N   0  0  0  0  0  0  0  0  0  0  0  0
   -6.9450   16.7440  -33.5590 C   0  0  0  0  0  0  0  0  0  0  0  0
   -7.6890    8.6920  -35.9030 C   0  0  0  0  0  0  0  0  0  0  0  0
   -9.6990    8.3690  -34.0940 R   0  0  0  0  0  0  0  0  0  0  0  0
   -6.7430   18.1960  -33.2420 C   0  0  0  0  0  0  0  0  0  0  0  0
   -5.9160   15.8690  -32.9170 C   0  0  0  0  0  0  0  0  0  0  0  0
   -6.2280    8.9610  -36.2420 C   0  0  0  0  0  0  0  0  0  0  0  0
   -5.9130    9.9450  -37.0170 O   0  0  0  0  0  0  0  0  0  0  0  0
   -5.3400    8.4630  -35.5080 O   0  0  0  0  0  0  0  0  0  0  0  0
   -4.5540   10.2290  -37.2100 C   0  0  0  0  0  0  0  0  0  0  0  0
   -4.2040   11.6040  -37.7340 C   0  0  0  0  0  0  0  0  0  0  0  0
  2  1  1  6
  2  3  1  0
  2  4  1  0
  5  3  1  0
  3  6  2  0
  7  4  1  0
  5  8  1  0
  7  9  1  0
  7 10  2  0
  8 11  1  1
  8 12  1  0
  9 13  1  1
  9 14  1  0
 12 15  1  0
 12 16  1  6
 14 17  1  0
 14 18  1  0
 15 19  1  0
 19 20  1  0
 19 21  2  0
 20 22  1  0
 22 23  1  0
V   16 *
A    2
 C04
A    3
 C47
A    4
 C02
A    5
 N12
A    6
 O48
A    7
 C01
A    8
 C13
A    9
 C57
A   10
 O03
A   12
 C19
A   14
 C78
A   15
 C20
A   16
 X  
A   17
 C81
A   18
 C82
A   19
 C21
A   20
 O22
A   21
 O23
A   22
 C50
A   23
 C53
M  END
>  <XChem_code>  (476) 
AG7§8

>  <Occupancy>  (476) 
[1.0, 1.0, 1.0, 1.0, 1.0, 1.0, 1.0, 1.0, 1.0, 1.0, 1.0, 1.0, 1.0, 1.0, 1.0, 1.0, 1.0, 1.0, 1.0, 1.0, 1.0, 1.0, 1.0, 1.0, 1.0, 1.0, 1.0, 1.0, 1.0, 1.0, 1.0, 1.0, 1.0, 1.0, 1.0, 1.0, 1.0, 1.0, 1.0, 1.0, 1.0, 1.0, 1.0, 1.0]

>  <TempFactor>  (476) 
[18.81, 27.66, 18.42, 28.47, 31.3, 19.86, 18.0, 36.49, 33.82, 16.63, 29.4, 22.13, 22.68, 21.54, 23.87, 26.44, 24.22, 19.0, 15.21, 18.33, 16.27, 19.18, 19.0, 17.13, 14.73, 16.04, 18.83, 23.76, 19.63, 17.66, 18.54, 25.52, 26.09, 23.51, 21.61, 23.49, 26.81, 22.53, 27.37, 21.38, 21.53, 22.61, 16.29, 28.88]

>  <accession>  (476) 
3SJO_A

>  <description>  (476) 
Chain A, 3C protease [Enterovirus A71]

>  <evalue>  (476) 
1.0179e-70

>  <pdb_code>  (476) 
3SJO

>  <chain>  (476) 
A

>  <ligands>  (476) 
[{'chain_id': 'A', 'author_residue_number': 501, 'author_insertion_code': '', 'chem_comp_id': 'AG7', 'alternate_conformers': 0, 'entity_id': 2, 'struct_asym_id': 'I', 'residue_number': 1, 'chem_comp_name': '4-{2-(4-FLUORO-BENZYL)-6-METHYL-5-[(5-METHYL-ISOXAZOLE-3-CARBONYL)-AMINO]-4-OXO-HEPTANOYLAMINO}-5-(2-OXO-PYRROLIDIN-3-YL)-PENTANOIC ACID ETHYL ESTER', 'weight': 600.678, 'carbohydrate_polymer': False, 'branch_name': ''}, {'chain_id': 'B', 'author_residue_number': 501, 'author_insertion_code': '', 'chem_comp_id': 'AG7', 'alternate_conformers': 0, 'entity_id': 2, 'struct_asym_id': 'J', 'residue_number': 1, 'chem_comp_name': '4-{2-(4-FLUORO-BENZYL)-6-METHYL-5-[(5-METHYL-ISOXAZOLE-3-CARBONYL)-AMINO]-4-OXO-HEPTANOYLAMINO}-5-(2-OXO-PYRROLIDIN-3-YL)-PENTANOIC ACID ETHYL ESTER', 'weight': 600.678, 'carbohydrate_polymer': False, 'branch_name': ''}, {'chain_id': 'C', 'author_residue_number': 501, 'author_insertion_code': '', 'chem_comp_id': 'AG7', 'alternate_conformers': 0, 'entity_id': 2, 'struct_asym_id': 'K', 'residue_number': 1, 'chem_comp_name': '4-{2-(4-FLUORO-BENZYL)-6-METHYL-5-[(5-METHYL-ISOXAZOLE-3-CARBONYL)-AMINO]-4-OXO-HEPTANOYLAMINO}-5-(2-OXO-PYRROLIDIN-3-YL)-PENTANOIC ACID ETHYL ESTER', 'weight': 600.678, 'carbohydrate_polymer': False, 'branch_name': ''}, {'chain_id': 'D', 'author_residue_number': 501, 'author_insertion_code': '', 'chem_comp_id': 'AG7', 'alternate_conformers': 0, 'entity_id': 2, 'struct_asym_id': 'L', 'residue_number': 1, 'chem_comp_name': '4-{2-(4-FLUORO-BENZYL)-6-METHYL-5-[(5-METHYL-ISOXAZOLE-3-CARBONYL)-AMINO]-4-OXO-HEPTANOYLAMINO}-5-(2-OXO-PYRROLIDIN-3-YL)-PENTANOIC ACID ETHYL ESTER', 'weight': 600.678, 'carbohydrate_polymer': False, 'branch_name': ''}, {'chain_id': 'E', 'author_residue_number': 501, 'author_insertion_code': '', 'chem_comp_id': 'AG7', 'alternate_conformers': 0, 'entity_id': 2, 'struct_asym_id': 'M', 'residue_number': 1, 'chem_comp_name': '4-{2-(4-FLUORO-BENZYL)-6-METHYL-5-[(5-METHYL-ISOXAZOLE-3-CARBONYL)-AMINO]-4-OXO-HEPTANOYLAMINO}-5-(2-OXO-PYRROLIDIN-3-YL)-PENTANOIC ACID ETHYL ESTER', 'weight': 600.678, 'carbohydrate_polymer': False, 'branch_name': ''}, {'chain_id': 'F', 'author_residue_number': 501, 'author_insertion_code': '', 'chem_comp_id': 'AG7', 'alternate_conformers': 0, 'entity_id': 2, 'struct_asym_id': 'N', 'residue_number': 1, 'chem_comp_name': '4-{2-(4-FLUORO-BENZYL)-6-METHYL-5-[(5-METHYL-ISOXAZOLE-3-CARBONYL)-AMINO]-4-OXO-HEPTANOYLAMINO}-5-(2-OXO-PYRROLIDIN-3-YL)-PENTANOIC ACID ETHYL ESTER', 'weight': 600.678, 'carbohydrate_polymer': False, 'branch_name': ''}, {'chain_id': 'G', 'author_residue_number': 501, 'author_insertion_code': '', 'chem_comp_id': 'AG7', 'alternate_conformers': 0, 'entity_id': 2, 'struct_asym_id': 'O', 'residue_number': 1, 'chem_comp_name': '4-{2-(4-FLUORO-BENZYL)-6-METHYL-5-[(5-METHYL-ISOXAZOLE-3-CARBONYL)-AMINO]-4-OXO-HEPTANOYLAMINO}-5-(2-OXO-PYRROLIDIN-3-YL)-PENTANOIC ACID ETHYL ESTER', 'weight': 600.678, 'carbohydrate_polymer': False, 'branch_name': ''}, {'chain_id': 'H', 'author_residue_number': 501, 'author_insertion_code': '', 'chem_comp_id': 'AG7', 'alternate_conformers': 0, 'entity_id': 2, 'struct_asym_id': 'P', 'residue_number': 1, 'chem_comp_name': '4-{2-(4-FLUORO-BENZYL)-6-METHYL-5-[(5-METHYL-ISOXAZOLE-3-CARBONYL)-AMINO]-4-OXO-HEPTANOYLAMINO}-5-(2-OXO-PYRROLIDIN-3-YL)-PENTANOIC ACID ETHYL ESTER', 'weight': 600.678, 'carbohydrate_polymer': False, 'branch_name': ''}]

>  <ligand_codes>  (476) 
['AG7', 'AG7', 'AG7', 'AG7', 'AG7', 'AG7', 'AG7', 'AG7']

>  <cofactor_codes>  (476) 
[]

>  <has_cofactor>  (476) 
False

>  <covalent>  (476) 
True

>  <base_name>  (476) 
3SJO

>  <lig_resn>  (476) 
AG7

>  <lig_resi>  (476) 
501

>  <lig_chain>  (476) 
A

>  <lig_segi>  (476) 
I

>  <lig_alt>  (476) 


>  <polymer_chain>  (476) 
A

>  <single_smiles>  (476) 
CCOC(=O)CC[C@H](C[C@@H]1CCNC1=O)NC(=O)[C@@H](CC(=O)[C@@H](NC(=O)c2cc(C)on2)C(C)C)Cc3ccc(F)cc3

$$$$
AG7P8S39
     RDKit          3D

 22 21  0  0  0  0  0  0  0  0999 V2000
   -9.4060   12.8260  -36.9090 C   0  0  0  0  0  0  0  0  0  0  0  0
   -9.2650   13.0870  -35.4210 C   0  0  1  0  0  0  0  0  0  0  0  0
   -8.2190   12.1920  -34.7470 C   0  0  0  0  0  0  0  0  0  0  0  0
   -9.1250   14.5600  -35.0710 C   0  0  0  0  0  0  0  0  0  0  0  0
   -8.6690   10.9670  -34.0900 N   0  0  0  0  0  0  0  0  0  0  0  0
   -7.0310   12.4100  -34.8930 O   0  0  0  0  0  0  0  0  0  0  0  0
   -8.7340   14.8750  -33.6330 C   0  0  0  0  0  0  0  0  0  0  0  0
   -7.6950    9.9410  -33.7020 C   0  0  1  0  0  0  0  0  0  0  0  0
   -8.3660   16.3160  -33.2440 C   0  0  0  0  0  0  0  0  0  0  0  0
   -8.9120   14.0500  -32.7640 O   0  0  0  0  0  0  0  0  0  0  0  0
   -7.5680    9.8350  -32.1900 C   0  0  0  0  0  0  0  0  0  0  0  0
   -7.9440    8.6270  -34.4090 C   0  0  2  0  0  0  0  0  0  0  0  0
   -6.9450   16.7440  -33.5590 C   0  0  0  0  0  0  0  0  0  0  0  0
   -7.6890    8.6920  -35.9030 C   0  0  0  0  0  0  0  0  0  0  0  0
   -9.6990    8.3690  -34.0940 R   0  0  0  0  0  0  0  0  0  0  0  0
   -6.7430   18.1960  -33.2420 C   0  0  0  0  0  0  0  0  0  0  0  0
   -5.9160   15.8690  -32.9170 C   0  0  0  0  0  0  0  0  0  0  0  0
   -6.2280    8.9610  -36.2420 C   0  0  0  0  0  0  0  0  0  0  0  0
   -5.9130    9.9450  -37.0170 O   0  0  0  0  0  0  0  0  0  0  0  0
   -5.3400    8.4630  -35.5080 O   0  0  0  0  0  0  0  0  0  0  0  0
   -4.5540   10.2290  -37.2100 C   0  0  0  0  0  0  0  0  0  0  0  0
   -4.2040   11.6040  -37.7340 C   0  0  0  0  0  0  0  0  0  0  0  0
  2  1  1  6
  2  3  1  0
  2  4  1  0
  5  3  1  0
  3  6  2  0
  7  4  1  0
  5  8  1  0
  7  9  1  0
  7 10  2  0
  8 11  1  1
  8 12  1  0
  9 13  1  6
 12 14  1  0
 12 15  1  6
 13 16  1  0
 13 17  1  0
 14 18  1  0
 18 19  1  0
 18 20  2  0
 19 21  1  0
 21 22  1  0
V   15 *
A    2
 C04
A    3
 C47
A    4
 C02
A    5
 N12
A    6
 O48
A    7
 C01
A    8
 C13
A   10
 O03
A   12
 C19
A   13
 C78
A   14
 C20
A   15
 X  
A   16
 C81
A   17
 C82
A   18
 C21
A   19
 O22
A   20
 O23
A   21
 C50
A   22
 C53
M  END
>  <XChem_code>  (477) 
AG7§8

>  <Occupancy>  (477) 
[1.0, 1.0, 1.0, 1.0, 1.0, 1.0, 1.0, 1.0, 1.0, 1.0, 1.0, 1.0, 1.0, 1.0, 1.0, 1.0, 1.0, 1.0, 1.0, 1.0, 1.0, 1.0, 1.0, 1.0, 1.0, 1.0, 1.0, 1.0, 1.0, 1.0, 1.0, 1.0, 1.0, 1.0, 1.0, 1.0, 1.0, 1.0, 1.0, 1.0, 1.0, 1.0, 1.0, 1.0]

>  <TempFactor>  (477) 
[18.81, 27.66, 18.42, 28.47, 31.3, 19.86, 18.0, 36.49, 33.82, 16.63, 29.4, 22.13, 22.68, 21.54, 23.87, 26.44, 24.22, 19.0, 15.21, 18.33, 16.27, 19.18, 19.0, 17.13, 14.73, 16.04, 18.83, 23.76, 19.63, 17.66, 18.54, 25.52, 26.09, 23.51, 21.61, 23.49, 26.81, 22.53, 27.37, 21.38, 21.53, 22.61, 16.29, 28.88]

>  <accession>  (477) 
3SJO_A

>  <description>  (477) 
Chain A, 3C protease [Enterovirus A71]

>  <evalue>  (477) 
1.0179e-70

>  <pdb_code>  (477) 
3SJO

>  <chain>  (477) 
A

>  <ligands>  (477) 
[{'chain_id': 'A', 'author_residue_number': 501, 'author_insertion_code': '', 'chem_comp_id': 'AG7', 'alternate_conformers': 0, 'entity_id': 2, 'struct_asym_id': 'I', 'residue_number': 1, 'chem_comp_name': '4-{2-(4-FLUORO-BENZYL)-6-METHYL-5-[(5-METHYL-ISOXAZOLE-3-CARBONYL)-AMINO]-4-OXO-HEPTANOYLAMINO}-5-(2-OXO-PYRROLIDIN-3-YL)-PENTANOIC ACID ETHYL ESTER', 'weight': 600.678, 'carbohydrate_polymer': False, 'branch_name': ''}, {'chain_id': 'B', 'author_residue_number': 501, 'author_insertion_code': '', 'chem_comp_id': 'AG7', 'alternate_conformers': 0, 'entity_id': 2, 'struct_asym_id': 'J', 'residue_number': 1, 'chem_comp_name': '4-{2-(4-FLUORO-BENZYL)-6-METHYL-5-[(5-METHYL-ISOXAZOLE-3-CARBONYL)-AMINO]-4-OXO-HEPTANOYLAMINO}-5-(2-OXO-PYRROLIDIN-3-YL)-PENTANOIC ACID ETHYL ESTER', 'weight': 600.678, 'carbohydrate_polymer': False, 'branch_name': ''}, {'chain_id': 'C', 'author_residue_number': 501, 'author_insertion_code': '', 'chem_comp_id': 'AG7', 'alternate_conformers': 0, 'entity_id': 2, 'struct_asym_id': 'K', 'residue_number': 1, 'chem_comp_name': '4-{2-(4-FLUORO-BENZYL)-6-METHYL-5-[(5-METHYL-ISOXAZOLE-3-CARBONYL)-AMINO]-4-OXO-HEPTANOYLAMINO}-5-(2-OXO-PYRROLIDIN-3-YL)-PENTANOIC ACID ETHYL ESTER', 'weight': 600.678, 'carbohydrate_polymer': False, 'branch_name': ''}, {'chain_id': 'D', 'author_residue_number': 501, 'author_insertion_code': '', 'chem_comp_id': 'AG7', 'alternate_conformers': 0, 'entity_id': 2, 'struct_asym_id': 'L', 'residue_number': 1, 'chem_comp_name': '4-{2-(4-FLUORO-BENZYL)-6-METHYL-5-[(5-METHYL-ISOXAZOLE-3-CARBONYL)-AMINO]-4-OXO-HEPTANOYLAMINO}-5-(2-OXO-PYRROLIDIN-3-YL)-PENTANOIC ACID ETHYL ESTER', 'weight': 600.678, 'carbohydrate_polymer': False, 'branch_name': ''}, {'chain_id': 'E', 'author_residue_number': 501, 'author_insertion_code': '', 'chem_comp_id': 'AG7', 'alternate_conformers': 0, 'entity_id': 2, 'struct_asym_id': 'M', 'residue_number': 1, 'chem_comp_name': '4-{2-(4-FLUORO-BENZYL)-6-METHYL-5-[(5-METHYL-ISOXAZOLE-3-CARBONYL)-AMINO]-4-OXO-HEPTANOYLAMINO}-5-(2-OXO-PYRROLIDIN-3-YL)-PENTANOIC ACID ETHYL ESTER', 'weight': 600.678, 'carbohydrate_polymer': False, 'branch_name': ''}, {'chain_id': 'F', 'author_residue_number': 501, 'author_insertion_code': '', 'chem_comp_id': 'AG7', 'alternate_conformers': 0, 'entity_id': 2, 'struct_asym_id': 'N', 'residue_number': 1, 'chem_comp_name': '4-{2-(4-FLUORO-BENZYL)-6-METHYL-5-[(5-METHYL-ISOXAZOLE-3-CARBONYL)-AMINO]-4-OXO-HEPTANOYLAMINO}-5-(2-OXO-PYRROLIDIN-3-YL)-PENTANOIC ACID ETHYL ESTER', 'weight': 600.678, 'carbohydrate_polymer': False, 'branch_name': ''}, {'chain_id': 'G', 'author_residue_number': 501, 'author_insertion_code': '', 'chem_comp_id': 'AG7', 'alternate_conformers': 0, 'entity_id': 2, 'struct_asym_id': 'O', 'residue_number': 1, 'chem_comp_name': '4-{2-(4-FLUORO-BENZYL)-6-METHYL-5-[(5-METHYL-ISOXAZOLE-3-CARBONYL)-AMINO]-4-OXO-HEPTANOYLAMINO}-5-(2-OXO-PYRROLIDIN-3-YL)-PENTANOIC ACID ETHYL ESTER', 'weight': 600.678, 'carbohydrate_polymer': False, 'branch_name': ''}, {'chain_id': 'H', 'author_residue_number': 501, 'author_insertion_code': '', 'chem_comp_id': 'AG7', 'alternate_conformers': 0, 'entity_id': 2, 'struct_asym_id': 'P', 'residue_number': 1, 'chem_comp_name': '4-{2-(4-FLUORO-BENZYL)-6-METHYL-5-[(5-METHYL-ISOXAZOLE-3-CARBONYL)-AMINO]-4-OXO-HEPTANOYLAMINO}-5-(2-OXO-PYRROLIDIN-3-YL)-PENTANOIC ACID ETHYL ESTER', 'weight': 600.678, 'carbohydrate_polymer': False, 'branch_name': ''}]

>  <ligand_codes>  (477) 
['AG7', 'AG7', 'AG7', 'AG7', 'AG7', 'AG7', 'AG7', 'AG7']

>  <cofactor_codes>  (477) 
[]

>  <has_cofactor>  (477) 
False

>  <covalent>  (477) 
True

>  <base_name>  (477) 
3SJO

>  <lig_resn>  (477) 
AG7

>  <lig_resi>  (477) 
501

>  <lig_chain>  (477) 
A

>  <lig_segi>  (477) 
I

>  <lig_alt>  (477) 


>  <polymer_chain>  (477) 
A

>  <single_smiles>  (477) 
CCOC(=O)CC[C@H](C[C@@H]1CCNC1=O)NC(=O)[C@@H](CC(=O)[C@@H](NC(=O)c2cc(C)on2)C(C)C)Cc3ccc(F)cc3

$$$$
AG7P8S40
     RDKit          3D

 25 24  0  0  0  0  0  0  0  0999 V2000
   -9.4060   12.8260  -36.9090 C   0  0  0  0  0  0  0  0  0  0  0  0
   -9.2650   13.0870  -35.4210 C   0  0  1  0  0  0  0  0  0  0  0  0
   -8.2190   12.1920  -34.7470 C   0  0  0  0  0  0  0  0  0  0  0  0
   -9.1250   14.5600  -35.0710 C   0  0  0  0  0  0  0  0  0  0  0  0
   -8.6690   10.9670  -34.0900 N   0  0  0  0  0  0  0  0  0  0  0  0
   -7.0310   12.4100  -34.8930 O   0  0  0  0  0  0  0  0  0  0  0  0
   -8.7340   14.8750  -33.6330 C   0  0  0  0  0  0  0  0  0  0  0  0
   -7.6950    9.9410  -33.7020 C   0  0  1  0  0  0  0  0  0  0  0  0
   -8.3660   16.3160  -33.2440 C   0  0  1  0  0  0  0  0  0  0  0  0
   -8.9120   14.0500  -32.7640 O   0  0  0  0  0  0  0  0  0  0  0  0
   -7.5680    9.8350  -32.1900 C   0  0  0  0  0  0  0  0  0  0  0  0
   -7.9440    8.6270  -34.4090 C   0  0  2  0  0  0  0  0  0  0  0  0
   -8.7350   16.6450  -31.8730 N   0  0  0  0  0  0  0  0  0  0  0  0
   -6.9450   16.7440  -33.5590 C   0  0  0  0  0  0  0  0  0  0  0  0
   -7.6890    8.6920  -35.9030 C   0  0  0  0  0  0  0  0  0  0  0  0
   -9.6990    8.3690  -34.0940 R   0  0  0  0  0  0  0  0  0  0  0  0
   -9.7620   17.6260  -31.5940 C   0  0  0  0  0  0  0  0  0  0  0  0
   -6.7430   18.1960  -33.2420 C   0  0  0  0  0  0  0  0  0  0  0  0
   -5.9160   15.8690  -32.9170 C   0  0  0  0  0  0  0  0  0  0  0  0
   -6.2280    8.9610  -36.2420 C   0  0  0  0  0  0  0  0  0  0  0  0
  -10.2070   18.3220  -32.4960 O   0  0  0  0  0  0  0  0  0  0  0  0
   -5.9130    9.9450  -37.0170 O   0  0  0  0  0  0  0  0  0  0  0  0
   -5.3400    8.4630  -35.5080 O   0  0  0  0  0  0  0  0  0  0  0  0
   -4.5540   10.2290  -37.2100 C   0  0  0  0  0  0  0  0  0  0  0  0
   -4.2040   11.6040  -37.7340 C   0  0  0  0  0  0  0  0  0  0  0  0
  2  1  1  6
  2  3  1  0
  2  4  1  0
  5  3  1  0
  3  6  2  0
  7  4  1  0
  5  8  1  0
  7  9  1  0
  7 10  2  0
  8 11  1  1
  8 12  1  0
  9 13  1  1
  9 14  1  0
 12 15  1  0
 12 16  1  6
 13 17  1  0
 14 18  1  0
 14 19  1  0
 15 20  1  0
 17 21  2  0
 20 22  1  0
 20 23  2  0
 22 24  1  0
 24 25  1  0
V   16 *
A    2
 C04
A    3
 C47
A    4
 C02
A    5
 N12
A    6
 O48
A    7
 C01
A    8
 C13
A    9
 C57
A   10
 O03
A   12
 C19
A   13
 N58
A   14
 C78
A   15
 C20
A   16
 X  
A   18
 C81
A   19
 C82
A   20
 C21
A   21
 O60
A   22
 O22
A   23
 O23
A   24
 C50
A   25
 C53
M  END
>  <XChem_code>  (478) 
AG7§8

>  <Occupancy>  (478) 
[1.0, 1.0, 1.0, 1.0, 1.0, 1.0, 1.0, 1.0, 1.0, 1.0, 1.0, 1.0, 1.0, 1.0, 1.0, 1.0, 1.0, 1.0, 1.0, 1.0, 1.0, 1.0, 1.0, 1.0, 1.0, 1.0, 1.0, 1.0, 1.0, 1.0, 1.0, 1.0, 1.0, 1.0, 1.0, 1.0, 1.0, 1.0, 1.0, 1.0, 1.0, 1.0, 1.0, 1.0]

>  <TempFactor>  (478) 
[18.81, 27.66, 18.42, 28.47, 31.3, 19.86, 18.0, 36.49, 33.82, 16.63, 29.4, 22.13, 22.68, 21.54, 23.87, 26.44, 24.22, 19.0, 15.21, 18.33, 16.27, 19.18, 19.0, 17.13, 14.73, 16.04, 18.83, 23.76, 19.63, 17.66, 18.54, 25.52, 26.09, 23.51, 21.61, 23.49, 26.81, 22.53, 27.37, 21.38, 21.53, 22.61, 16.29, 28.88]

>  <accession>  (478) 
3SJO_A

>  <description>  (478) 
Chain A, 3C protease [Enterovirus A71]

>  <evalue>  (478) 
1.0179e-70

>  <pdb_code>  (478) 
3SJO

>  <chain>  (478) 
A

>  <ligands>  (478) 
[{'chain_id': 'A', 'author_residue_number': 501, 'author_insertion_code': '', 'chem_comp_id': 'AG7', 'alternate_conformers': 0, 'entity_id': 2, 'struct_asym_id': 'I', 'residue_number': 1, 'chem_comp_name': '4-{2-(4-FLUORO-BENZYL)-6-METHYL-5-[(5-METHYL-ISOXAZOLE-3-CARBONYL)-AMINO]-4-OXO-HEPTANOYLAMINO}-5-(2-OXO-PYRROLIDIN-3-YL)-PENTANOIC ACID ETHYL ESTER', 'weight': 600.678, 'carbohydrate_polymer': False, 'branch_name': ''}, {'chain_id': 'B', 'author_residue_number': 501, 'author_insertion_code': '', 'chem_comp_id': 'AG7', 'alternate_conformers': 0, 'entity_id': 2, 'struct_asym_id': 'J', 'residue_number': 1, 'chem_comp_name': '4-{2-(4-FLUORO-BENZYL)-6-METHYL-5-[(5-METHYL-ISOXAZOLE-3-CARBONYL)-AMINO]-4-OXO-HEPTANOYLAMINO}-5-(2-OXO-PYRROLIDIN-3-YL)-PENTANOIC ACID ETHYL ESTER', 'weight': 600.678, 'carbohydrate_polymer': False, 'branch_name': ''}, {'chain_id': 'C', 'author_residue_number': 501, 'author_insertion_code': '', 'chem_comp_id': 'AG7', 'alternate_conformers': 0, 'entity_id': 2, 'struct_asym_id': 'K', 'residue_number': 1, 'chem_comp_name': '4-{2-(4-FLUORO-BENZYL)-6-METHYL-5-[(5-METHYL-ISOXAZOLE-3-CARBONYL)-AMINO]-4-OXO-HEPTANOYLAMINO}-5-(2-OXO-PYRROLIDIN-3-YL)-PENTANOIC ACID ETHYL ESTER', 'weight': 600.678, 'carbohydrate_polymer': False, 'branch_name': ''}, {'chain_id': 'D', 'author_residue_number': 501, 'author_insertion_code': '', 'chem_comp_id': 'AG7', 'alternate_conformers': 0, 'entity_id': 2, 'struct_asym_id': 'L', 'residue_number': 1, 'chem_comp_name': '4-{2-(4-FLUORO-BENZYL)-6-METHYL-5-[(5-METHYL-ISOXAZOLE-3-CARBONYL)-AMINO]-4-OXO-HEPTANOYLAMINO}-5-(2-OXO-PYRROLIDIN-3-YL)-PENTANOIC ACID ETHYL ESTER', 'weight': 600.678, 'carbohydrate_polymer': False, 'branch_name': ''}, {'chain_id': 'E', 'author_residue_number': 501, 'author_insertion_code': '', 'chem_comp_id': 'AG7', 'alternate_conformers': 0, 'entity_id': 2, 'struct_asym_id': 'M', 'residue_number': 1, 'chem_comp_name': '4-{2-(4-FLUORO-BENZYL)-6-METHYL-5-[(5-METHYL-ISOXAZOLE-3-CARBONYL)-AMINO]-4-OXO-HEPTANOYLAMINO}-5-(2-OXO-PYRROLIDIN-3-YL)-PENTANOIC ACID ETHYL ESTER', 'weight': 600.678, 'carbohydrate_polymer': False, 'branch_name': ''}, {'chain_id': 'F', 'author_residue_number': 501, 'author_insertion_code': '', 'chem_comp_id': 'AG7', 'alternate_conformers': 0, 'entity_id': 2, 'struct_asym_id': 'N', 'residue_number': 1, 'chem_comp_name': '4-{2-(4-FLUORO-BENZYL)-6-METHYL-5-[(5-METHYL-ISOXAZOLE-3-CARBONYL)-AMINO]-4-OXO-HEPTANOYLAMINO}-5-(2-OXO-PYRROLIDIN-3-YL)-PENTANOIC ACID ETHYL ESTER', 'weight': 600.678, 'carbohydrate_polymer': False, 'branch_name': ''}, {'chain_id': 'G', 'author_residue_number': 501, 'author_insertion_code': '', 'chem_comp_id': 'AG7', 'alternate_conformers': 0, 'entity_id': 2, 'struct_asym_id': 'O', 'residue_number': 1, 'chem_comp_name': '4-{2-(4-FLUORO-BENZYL)-6-METHYL-5-[(5-METHYL-ISOXAZOLE-3-CARBONYL)-AMINO]-4-OXO-HEPTANOYLAMINO}-5-(2-OXO-PYRROLIDIN-3-YL)-PENTANOIC ACID ETHYL ESTER', 'weight': 600.678, 'carbohydrate_polymer': False, 'branch_name': ''}, {'chain_id': 'H', 'author_residue_number': 501, 'author_insertion_code': '', 'chem_comp_id': 'AG7', 'alternate_conformers': 0, 'entity_id': 2, 'struct_asym_id': 'P', 'residue_number': 1, 'chem_comp_name': '4-{2-(4-FLUORO-BENZYL)-6-METHYL-5-[(5-METHYL-ISOXAZOLE-3-CARBONYL)-AMINO]-4-OXO-HEPTANOYLAMINO}-5-(2-OXO-PYRROLIDIN-3-YL)-PENTANOIC ACID ETHYL ESTER', 'weight': 600.678, 'carbohydrate_polymer': False, 'branch_name': ''}]

>  <ligand_codes>  (478) 
['AG7', 'AG7', 'AG7', 'AG7', 'AG7', 'AG7', 'AG7', 'AG7']

>  <cofactor_codes>  (478) 
[]

>  <has_cofactor>  (478) 
False

>  <covalent>  (478) 
True

>  <base_name>  (478) 
3SJO

>  <lig_resn>  (478) 
AG7

>  <lig_resi>  (478) 
501

>  <lig_chain>  (478) 
A

>  <lig_segi>  (478) 
I

>  <lig_alt>  (478) 


>  <polymer_chain>  (478) 
A

>  <single_smiles>  (478) 
CCOC(=O)CC[C@H](C[C@@H]1CCNC1=O)NC(=O)[C@@H](CC(=O)[C@@H](NC(=O)c2cc(C)on2)C(C)C)Cc3ccc(F)cc3

$$$$
5E9P1
     RDKit          3D

 36 37  0  0  0  0  0  0  0  0999 V2000
   -8.6860   11.0770  -34.0170 N   0  0  0  0  0  0  0  0  0  0  0  0
   -8.6810   15.0160  -33.2280 C   0  0  0  0  0  0  0  0  0  0  0  0
   -8.6940   14.1780  -32.3210 O   0  0  0  0  0  0  0  0  0  0  0  0
   -5.8400   11.7270  -29.4300 N   0  0  0  0  0  0  0  0  0  0  0  0
   -7.6850   10.3310  -29.2400 O   0  0  0  0  0  0  0  0  0  0  0  0
   -9.3410   13.2140  -35.0270 C   0  0  1  0  0  0  0  0  0  0  0  0
   -8.2120   16.6720  -31.3740 N   0  0  0  0  0  0  0  0  0  0  0  0
   -6.0430   10.0350  -37.0530 O   0  0  0  0  0  0  0  0  0  0  0  0
   -9.5570   12.9440  -36.5080 C   0  0  0  0  0  0  0  0  0  0  0  0
   -5.5150    8.4070  -35.5500 O   0  0  0  0  0  0  0  0  0  0  0  0
  -10.6910   13.6950  -37.1830 C   0  0  0  0  0  0  0  0  0  0  0  0
   -7.0840   12.5120  -34.7360 O   0  0  0  0  0  0  0  0  0  0  0  0
  -10.3980   14.6980  -38.1120 C   0  0  0  0  0  0  0  0  0  0  0  0
  -11.4100   15.3950  -38.7580 C   0  0  0  0  0  0  0  0  0  0  0  0
  -12.7450   15.1100  -38.4840 C   0  0  0  0  0  0  0  0  0  0  0  0
  -13.0440   14.0840  -37.5690 C   0  0  0  0  0  0  0  0  0  0  0  0
  -12.0110   13.3850  -36.9280 C   0  0  0  0  0  0  0  0  0  0  0  0
   -7.6770   10.0790  -33.5580 C   0  0  1  0  0  0  0  0  0  0  0  0
   -7.6060    9.9880  -32.0610 C   0  0  0  0  0  0  0  0  0  0  0  0
   -7.0900   11.2740  -31.3660 C   0  0  1  0  0  0  0  0  0  0  0  0
   -6.9280   11.0630  -29.8890 C   0  0  0  0  0  0  0  0  0  0  0  0
   -8.1030    8.7640  -34.2130 C   0  0  0  0  0  0  0  0  0  0  0  0
   -7.8720    8.8940  -35.7110 C   0  0  0  0  0  0  0  0  0  0  0  0
   -6.4110    9.0680  -36.0560 C   0  0  0  0  0  0  0  0  0  0  0  0
   -8.2730   12.2270  -34.5900 C   0  0  0  0  0  0  0  0  0  0  0  0
   -5.0600    9.5580  -37.9640 C   0  0  0  0  0  0  0  0  0  0  0  0
   -5.6800    8.4450  -38.8020 C   0  0  0  0  0  0  0  0  0  0  0  0
   -8.2690   16.4470  -32.8570 C   0  0  1  0  0  0  0  0  0  0  0  0
   -8.9980   14.6950  -34.6930 C   0  0  0  0  0  0  0  0  0  0  0  0
   -6.8960   16.7890  -33.4690 C   0  0  0  0  0  0  0  0  0  0  0  0
   -6.4380   18.1830  -33.0660 C   0  0  0  0  0  0  0  0  0  0  0  0
   -5.8350   15.7520  -33.1000 C   0  0  0  0  0  0  0  0  0  0  0  0
   -5.0120   12.2750  -30.4960 C   0  0  0  0  0  0  0  0  0  0  0  0
   -5.6970   11.7410  -31.7720 C   0  0  0  0  0  0  0  0  0  0  0  0
   -9.7950    8.3550  -33.9060 R   0  0  0  0  0  0  0  0  0  0  0  0
  -13.7370   15.7770  -39.1250 F   0  0  0  0  0  0  0  0  0  0  0  0
  1 18  1  0
  1 25  1  0
  2  3  2  0
  2 28  1  0
  2 29  1  0
  4 21  1  0
  4 33  1  0
  5 21  2  0
  6  9  1  6
  6 25  1  0
  6 29  1  0
 28  7  1  1
  8 26  1  0
  8 24  1  0
  9 11  1  0
 10 24  2  0
 11 13  2  0
 11 17  1  0
 12 25  2  0
 13 14  1  0
 14 15  2  0
 15 16  1  0
 15 36  1  0
 16 17  2  0
 18 19  1  1
 18 22  1  0
 20 19  1  6
 20 21  1  0
 20 34  1  0
 22 23  2  3
 22 35  1  0
 23 24  1  0
 26 27  1  0
 28 30  1  0
 30 31  1  0
 30 32  1  0
 33 34  1  0
V   35 *
A    1
 N  
A    2
 C  
A    3
 O  
A    4
 N1 
A    5
 O1 
A    6
 C2 
A    7
 N2 
A    8
 O2 
A    9
 C3 
A   10
 O3 
A   11
 C4 
A   12
 O4 
A   13
 C5 
A   14
 C6 
A   15
 C7 
A   16
 C8 
A   17
 C9 
A   18
 C10
A   19
 C11
A   20
 C12
A   21
 C13
A   22
 C14
A   23
 C15
A   24
 C16
A   25
 C17
A   26
 C18
A   27
 C19
A   28
 C20
A   29
 C21
A   30
 C22
A   31
 C23
A   32
 C24
A   33
 C25
A   34
 C26
A   35
 X  
A   36
 F1 
M  END
>  <XChem_code>  (479) 
5E9§1

>  <Occupancy>  (479) 
[1.0, 1.0, 1.0, 1.0, 1.0, 1.0, 1.0, 1.0, 1.0, 1.0, 1.0, 1.0, 1.0, 1.0, 1.0, 1.0, 1.0, 1.0, 1.0, 1.0, 1.0, 1.0, 1.0, 1.0, 1.0, 1.0, 1.0, 1.0, 1.0, 1.0, 1.0, 1.0, 1.0, 1.0, 1.0, 1.0]

>  <TempFactor>  (479) 
[22.12, 29.54, 27.79, 22.79, 27.7, 25.48, 34.28, 30.31, 25.63, 28.02, 25.53, 25.12, 26.39, 27.1, 28.54, 27.02, 25.43, 21.61, 21.08, 22.98, 23.89, 22.26, 25.01, 26.4, 24.85, 30.29, 29.11, 33.7, 26.49, 36.07, 37.0, 35.62, 22.45, 21.88, 20.92, 29.67]

>  <accession>  (479) 
5DP5_A

>  <description>  (479) 
Chain A, 3C proteinase [Enterovirus A71]

>  <evalue>  (479) 
1.13719e-70

>  <pdb_code>  (479) 
5DP5

>  <chain>  (479) 
A

>  <ligands>  (479) 
[{'chain_id': 'A', 'author_residue_number': 201, 'author_insertion_code': '', 'chem_comp_id': '5E9', 'alternate_conformers': 0, 'entity_id': 2, 'struct_asym_id': 'B', 'residue_number': 1, 'chem_comp_name': 'ethyl (2Z,4S)-4-{[(2R,5S)-5-amino-2-(4-fluorobenzyl)-6-methyl-4-oxoheptanoyl]amino}-5-[(3S)-2-oxopyrrolidin-3-yl]pent-2-enoate', 'weight': 489.58, 'carbohydrate_polymer': False, 'branch_name': ''}]

>  <ligand_codes>  (479) 
['5E9']

>  <cofactor_codes>  (479) 
[]

>  <has_cofactor>  (479) 
False

>  <covalent>  (479) 
True

>  <base_name>  (479) 
5DP5

>  <lig_resn>  (479) 
5000000000

>  <lig_resi>  (479) 
201

>  <lig_chain>  (479) 
A

>  <lig_segi>  (479) 
B

>  <lig_alt>  (479) 


>  <polymer_chain>  (479) 
A

>  <single_smiles>  (479) 
CCOC(=O)\C=C/[C@H](C[C@@H]1CCNC1=O)NC(=O)[C@@H](CC(=O)[C@@H](N)C(C)C)Cc2ccc(F)cc2

$$$$
5E9P1S1
     RDKit          3D

 17 17  0  0  0  0  0  0  0  0999 V2000
   -8.6860   11.0770  -34.0170 N   0  0  0  0  0  0  0  0  0  0  0  0
   -7.6770   10.0790  -33.5580 C   0  0  1  0  0  0  0  0  0  0  0  0
   -7.6060    9.9880  -32.0610 C   0  0  0  0  0  0  0  0  0  0  0  0
   -8.1030    8.7640  -34.2130 C   0  0  0  0  0  0  0  0  0  0  0  0
   -7.0900   11.2740  -31.3660 C   0  0  1  0  0  0  0  0  0  0  0  0
   -7.8720    8.8940  -35.7110 C   0  0  0  0  0  0  0  0  0  0  0  0
   -9.7950    8.3550  -33.9060 R   0  0  0  0  0  0  0  0  0  0  0  0
   -6.9280   11.0630  -29.8890 C   0  0  0  0  0  0  0  0  0  0  0  0
   -5.6970   11.7410  -31.7720 C   0  0  0  0  0  0  0  0  0  0  0  0
   -6.4110    9.0680  -36.0560 C   0  0  0  0  0  0  0  0  0  0  0  0
   -5.8400   11.7270  -29.4300 N   0  0  0  0  0  0  0  0  0  0  0  0
   -7.6850   10.3310  -29.2400 O   0  0  0  0  0  0  0  0  0  0  0  0
   -5.0120   12.2750  -30.4960 C   0  0  0  0  0  0  0  0  0  0  0  0
   -6.0430   10.0350  -37.0530 O   0  0  0  0  0  0  0  0  0  0  0  0
   -5.5150    8.4070  -35.5500 O   0  0  0  0  0  0  0  0  0  0  0  0
   -5.0600    9.5580  -37.9640 C   0  0  0  0  0  0  0  0  0  0  0  0
   -5.6800    8.4450  -38.8020 C   0  0  0  0  0  0  0  0  0  0  0  0
  2  1  1  1
  2  3  1  0
  2  4  1  0
  5  3  1  6
  4  6  2  3
  4  7  1  0
  5  8  1  0
  5  9  1  0
  6 10  1  0
 11  8  1  0
 12  8  2  0
 13  9  1  0
 14 10  1  0
 15 10  2  0
 11 13  1  0
 14 16  1  0
 16 17  1  0
V    7 *
A    2
 C10
A    3
 C11
A    4
 C14
A    5
 C12
A    6
 C15
A    7
 X  
A    8
 C13
A    9
 C26
A   10
 C16
A   11
 N1 
A   12
 O1 
A   13
 C25
A   14
 O2 
A   15
 O3 
A   16
 C18
A   17
 C19
M  END
>  <XChem_code>  (480) 
5E9§1

>  <Occupancy>  (480) 
[1.0, 1.0, 1.0, 1.0, 1.0, 1.0, 1.0, 1.0, 1.0, 1.0, 1.0, 1.0, 1.0, 1.0, 1.0, 1.0, 1.0, 1.0, 1.0, 1.0, 1.0, 1.0, 1.0, 1.0, 1.0, 1.0, 1.0, 1.0, 1.0, 1.0, 1.0, 1.0, 1.0, 1.0, 1.0, 1.0]

>  <TempFactor>  (480) 
[22.12, 29.54, 27.79, 22.79, 27.7, 25.48, 34.28, 30.31, 25.63, 28.02, 25.53, 25.12, 26.39, 27.1, 28.54, 27.02, 25.43, 21.61, 21.08, 22.98, 23.89, 22.26, 25.01, 26.4, 24.85, 30.29, 29.11, 33.7, 26.49, 36.07, 37.0, 35.62, 22.45, 21.88, 20.92, 29.67]

>  <accession>  (480) 
5DP5_A

>  <description>  (480) 
Chain A, 3C proteinase [Enterovirus A71]

>  <evalue>  (480) 
1.13719e-70

>  <pdb_code>  (480) 
5DP5

>  <chain>  (480) 
A

>  <ligands>  (480) 
[{'chain_id': 'A', 'author_residue_number': 201, 'author_insertion_code': '', 'chem_comp_id': '5E9', 'alternate_conformers': 0, 'entity_id': 2, 'struct_asym_id': 'B', 'residue_number': 1, 'chem_comp_name': 'ethyl (2Z,4S)-4-{[(2R,5S)-5-amino-2-(4-fluorobenzyl)-6-methyl-4-oxoheptanoyl]amino}-5-[(3S)-2-oxopyrrolidin-3-yl]pent-2-enoate', 'weight': 489.58, 'carbohydrate_polymer': False, 'branch_name': ''}]

>  <ligand_codes>  (480) 
['5E9']

>  <cofactor_codes>  (480) 
[]

>  <has_cofactor>  (480) 
False

>  <covalent>  (480) 
True

>  <base_name>  (480) 
5DP5

>  <lig_resn>  (480) 
5000000000

>  <lig_resi>  (480) 
201

>  <lig_chain>  (480) 
A

>  <lig_segi>  (480) 
B

>  <lig_alt>  (480) 


>  <polymer_chain>  (480) 
A

>  <single_smiles>  (480) 
CCOC(=O)\C=C/[C@H](C[C@@H]1CCNC1=O)NC(=O)[C@@H](CC(=O)[C@@H](N)C(C)C)Cc2ccc(F)cc2

$$$$
5E9P1S2
     RDKit          3D

 19 19  0  0  0  0  0  0  0  0999 V2000
   -8.2730   12.2270  -34.5900 C   0  0  0  0  0  0  0  0  0  0  0  0
   -9.3410   13.2140  -35.0270 C   0  0  2  0  0  0  0  0  0  0  0  0
   -7.0840   12.5120  -34.7360 O   0  0  0  0  0  0  0  0  0  0  0  0
   -9.5570   12.9440  -36.5080 C   0  0  0  0  0  0  0  0  0  0  0  0
   -8.9980   14.6950  -34.6930 C   0  0  0  0  0  0  0  0  0  0  0  0
  -10.6910   13.6950  -37.1830 C   0  0  0  0  0  0  0  0  0  0  0  0
   -8.6810   15.0160  -33.2280 C   0  0  0  0  0  0  0  0  0  0  0  0
  -10.3980   14.6980  -38.1120 C   0  0  0  0  0  0  0  0  0  0  0  0
  -12.0110   13.3850  -36.9280 C   0  0  0  0  0  0  0  0  0  0  0  0
   -8.6940   14.1780  -32.3210 O   0  0  0  0  0  0  0  0  0  0  0  0
   -8.2690   16.4470  -32.8570 C   0  0  1  0  0  0  0  0  0  0  0  0
  -11.4100   15.3950  -38.7580 C   0  0  0  0  0  0  0  0  0  0  0  0
  -13.0440   14.0840  -37.5690 C   0  0  0  0  0  0  0  0  0  0  0  0
   -8.2120   16.6720  -31.3740 N   0  0  0  0  0  0  0  0  0  0  0  0
   -6.8960   16.7890  -33.4690 C   0  0  0  0  0  0  0  0  0  0  0  0
  -12.7450   15.1100  -38.4840 C   0  0  0  0  0  0  0  0  0  0  0  0
   -6.4380   18.1830  -33.0660 C   0  0  0  0  0  0  0  0  0  0  0  0
   -5.8350   15.7520  -33.1000 C   0  0  0  0  0  0  0  0  0  0  0  0
  -13.7370   15.7770  -39.1250 F   0  0  0  0  0  0  0  0  0  0  0  0
  2  1  1  0
  3  1  2  0
  2  4  1  6
  2  5  1  0
  4  6  1  0
  7  5  1  0
  6  8  2  0
  6  9  1  0
  7 10  2  0
  7 11  1  0
  8 12  1  0
 13  9  2  0
 11 14  1  1
 11 15  1  0
 12 16  2  0
 16 13  1  0
 15 17  1  0
 15 18  1  0
 16 19  1  0
A    2
 C2 
A    3
 O4 
A    4
 C3 
A    5
 C21
A    6
 C4 
A    7
 C  
A    8
 C5 
A    9
 C9 
A   10
 O  
A   11
 C20
A   12
 C6 
A   13
 C8 
A   14
 N2 
A   15
 C22
A   16
 C7 
A   17
 C23
A   18
 C24
A   19
 F1 
M  END
>  <XChem_code>  (481) 
5E9§1

>  <Occupancy>  (481) 
[1.0, 1.0, 1.0, 1.0, 1.0, 1.0, 1.0, 1.0, 1.0, 1.0, 1.0, 1.0, 1.0, 1.0, 1.0, 1.0, 1.0, 1.0, 1.0, 1.0, 1.0, 1.0, 1.0, 1.0, 1.0, 1.0, 1.0, 1.0, 1.0, 1.0, 1.0, 1.0, 1.0, 1.0, 1.0, 1.0]

>  <TempFactor>  (481) 
[22.12, 29.54, 27.79, 22.79, 27.7, 25.48, 34.28, 30.31, 25.63, 28.02, 25.53, 25.12, 26.39, 27.1, 28.54, 27.02, 25.43, 21.61, 21.08, 22.98, 23.89, 22.26, 25.01, 26.4, 24.85, 30.29, 29.11, 33.7, 26.49, 36.07, 37.0, 35.62, 22.45, 21.88, 20.92, 29.67]

>  <accession>  (481) 
5DP5_A

>  <description>  (481) 
Chain A, 3C proteinase [Enterovirus A71]

>  <evalue>  (481) 
1.13719e-70

>  <pdb_code>  (481) 
5DP5

>  <chain>  (481) 
A

>  <ligands>  (481) 
[{'chain_id': 'A', 'author_residue_number': 201, 'author_insertion_code': '', 'chem_comp_id': '5E9', 'alternate_conformers': 0, 'entity_id': 2, 'struct_asym_id': 'B', 'residue_number': 1, 'chem_comp_name': 'ethyl (2Z,4S)-4-{[(2R,5S)-5-amino-2-(4-fluorobenzyl)-6-methyl-4-oxoheptanoyl]amino}-5-[(3S)-2-oxopyrrolidin-3-yl]pent-2-enoate', 'weight': 489.58, 'carbohydrate_polymer': False, 'branch_name': ''}]

>  <ligand_codes>  (481) 
['5E9']

>  <cofactor_codes>  (481) 
[]

>  <has_cofactor>  (481) 
False

>  <covalent>  (481) 
True

>  <base_name>  (481) 
5DP5

>  <lig_resn>  (481) 
5000000000

>  <lig_resi>  (481) 
201

>  <lig_chain>  (481) 
A

>  <lig_segi>  (481) 
B

>  <lig_alt>  (481) 


>  <polymer_chain>  (481) 
A

>  <single_smiles>  (481) 
CCOC(=O)\C=C/[C@H](C[C@@H]1CCNC1=O)NC(=O)[C@@H](CC(=O)[C@@H](N)C(C)C)Cc2ccc(F)cc2

$$$$
5E9P1S3
     RDKit          3D

 16 16  0  0  0  0  0  0  0  0999 V2000
   -7.6770   10.0790  -33.5580 C   0  0  0  0  0  0  0  0  0  0  0  0
   -7.6060    9.9880  -32.0610 C   0  0  0  0  0  0  0  0  0  0  0  0
   -8.1030    8.7640  -34.2130 C   0  0  0  0  0  0  0  0  0  0  0  0
   -7.0900   11.2740  -31.3660 C   0  0  1  0  0  0  0  0  0  0  0  0
   -7.8720    8.8940  -35.7110 C   0  0  0  0  0  0  0  0  0  0  0  0
   -9.7950    8.3550  -33.9060 R   0  0  0  0  0  0  0  0  0  0  0  0
   -6.9280   11.0630  -29.8890 C   0  0  0  0  0  0  0  0  0  0  0  0
   -5.6970   11.7410  -31.7720 C   0  0  0  0  0  0  0  0  0  0  0  0
   -6.4110    9.0680  -36.0560 C   0  0  0  0  0  0  0  0  0  0  0  0
   -5.8400   11.7270  -29.4300 N   0  0  0  0  0  0  0  0  0  0  0  0
   -7.6850   10.3310  -29.2400 O   0  0  0  0  0  0  0  0  0  0  0  0
   -5.0120   12.2750  -30.4960 C   0  0  0  0  0  0  0  0  0  0  0  0
   -6.0430   10.0350  -37.0530 O   0  0  0  0  0  0  0  0  0  0  0  0
   -5.5150    8.4070  -35.5500 O   0  0  0  0  0  0  0  0  0  0  0  0
   -5.0600    9.5580  -37.9640 C   0  0  0  0  0  0  0  0  0  0  0  0
   -5.6800    8.4450  -38.8020 C   0  0  0  0  0  0  0  0  0  0  0  0
  1  2  1  6
  1  3  1  0
  4  2  1  6
  3  5  2  3
  3  6  1  0
  4  7  1  0
  4  8  1  0
  5  9  1  0
 10  7  1  0
 11  7  2  0
 12  8  1  0
 13  9  1  0
 14  9  2  0
 10 12  1  0
 13 15  1  0
 15 16  1  0
V    6 *
A    2
 C11
A    3
 C14
A    4
 C12
A    5
 C15
A    6
 X  
A    7
 C13
A    8
 C26
A    9
 C16
A   10
 N1 
A   11
 O1 
A   12
 C25
A   13
 O2 
A   14
 O3 
A   15
 C18
A   16
 C19
M  END
>  <XChem_code>  (482) 
5E9§1

>  <Occupancy>  (482) 
[1.0, 1.0, 1.0, 1.0, 1.0, 1.0, 1.0, 1.0, 1.0, 1.0, 1.0, 1.0, 1.0, 1.0, 1.0, 1.0, 1.0, 1.0, 1.0, 1.0, 1.0, 1.0, 1.0, 1.0, 1.0, 1.0, 1.0, 1.0, 1.0, 1.0, 1.0, 1.0, 1.0, 1.0, 1.0, 1.0]

>  <TempFactor>  (482) 
[22.12, 29.54, 27.79, 22.79, 27.7, 25.48, 34.28, 30.31, 25.63, 28.02, 25.53, 25.12, 26.39, 27.1, 28.54, 27.02, 25.43, 21.61, 21.08, 22.98, 23.89, 22.26, 25.01, 26.4, 24.85, 30.29, 29.11, 33.7, 26.49, 36.07, 37.0, 35.62, 22.45, 21.88, 20.92, 29.67]

>  <accession>  (482) 
5DP5_A

>  <description>  (482) 
Chain A, 3C proteinase [Enterovirus A71]

>  <evalue>  (482) 
1.13719e-70

>  <pdb_code>  (482) 
5DP5

>  <chain>  (482) 
A

>  <ligands>  (482) 
[{'chain_id': 'A', 'author_residue_number': 201, 'author_insertion_code': '', 'chem_comp_id': '5E9', 'alternate_conformers': 0, 'entity_id': 2, 'struct_asym_id': 'B', 'residue_number': 1, 'chem_comp_name': 'ethyl (2Z,4S)-4-{[(2R,5S)-5-amino-2-(4-fluorobenzyl)-6-methyl-4-oxoheptanoyl]amino}-5-[(3S)-2-oxopyrrolidin-3-yl]pent-2-enoate', 'weight': 489.58, 'carbohydrate_polymer': False, 'branch_name': ''}]

>  <ligand_codes>  (482) 
['5E9']

>  <cofactor_codes>  (482) 
[]

>  <has_cofactor>  (482) 
False

>  <covalent>  (482) 
True

>  <base_name>  (482) 
5DP5

>  <lig_resn>  (482) 
5000000000

>  <lig_resi>  (482) 
201

>  <lig_chain>  (482) 
A

>  <lig_segi>  (482) 
B

>  <lig_alt>  (482) 


>  <polymer_chain>  (482) 
A

>  <single_smiles>  (482) 
CCOC(=O)\C=C/[C@H](C[C@@H]1CCNC1=O)NC(=O)[C@@H](CC(=O)[C@@H](N)C(C)C)Cc2ccc(F)cc2

$$$$
5E9P1S4
     RDKit          3D

 20 20  0  0  0  0  0  0  0  0999 V2000
   -8.6860   11.0770  -34.0170 N   0  0  0  0  0  0  0  0  0  0  0  0
   -8.2730   12.2270  -34.5900 C   0  0  0  0  0  0  0  0  0  0  0  0
   -9.3410   13.2140  -35.0270 C   0  0  2  0  0  0  0  0  0  0  0  0
   -7.0840   12.5120  -34.7360 O   0  0  0  0  0  0  0  0  0  0  0  0
   -9.5570   12.9440  -36.5080 C   0  0  0  0  0  0  0  0  0  0  0  0
   -8.9980   14.6950  -34.6930 C   0  0  0  0  0  0  0  0  0  0  0  0
  -10.6910   13.6950  -37.1830 C   0  0  0  0  0  0  0  0  0  0  0  0
   -8.6810   15.0160  -33.2280 C   0  0  0  0  0  0  0  0  0  0  0  0
  -10.3980   14.6980  -38.1120 C   0  0  0  0  0  0  0  0  0  0  0  0
  -12.0110   13.3850  -36.9280 C   0  0  0  0  0  0  0  0  0  0  0  0
   -8.6940   14.1780  -32.3210 O   0  0  0  0  0  0  0  0  0  0  0  0
   -8.2690   16.4470  -32.8570 C   0  0  1  0  0  0  0  0  0  0  0  0
  -11.4100   15.3950  -38.7580 C   0  0  0  0  0  0  0  0  0  0  0  0
  -13.0440   14.0840  -37.5690 C   0  0  0  0  0  0  0  0  0  0  0  0
   -8.2120   16.6720  -31.3740 N   0  0  0  0  0  0  0  0  0  0  0  0
   -6.8960   16.7890  -33.4690 C   0  0  0  0  0  0  0  0  0  0  0  0
  -12.7450   15.1100  -38.4840 C   0  0  0  0  0  0  0  0  0  0  0  0
   -6.4380   18.1830  -33.0660 C   0  0  0  0  0  0  0  0  0  0  0  0
   -5.8350   15.7520  -33.1000 C   0  0  0  0  0  0  0  0  0  0  0  0
  -13.7370   15.7770  -39.1250 F   0  0  0  0  0  0  0  0  0  0  0  0
  1  2  1  0
  3  2  1  0
  4  2  2  0
  3  5  1  6
  3  6  1  0
  5  7  1  0
  8  6  1  0
  7  9  2  0
  7 10  1  0
  8 11  2  0
  8 12  1  0
  9 13  1  0
 14 10  2  0
 12 15  1  1
 12 16  1  0
 13 17  2  0
 17 14  1  0
 16 18  1  0
 16 19  1  0
 17 20  1  0
A    2
 C17
A    3
 C2 
A    4
 O4 
A    5
 C3 
A    6
 C21
A    7
 C4 
A    8
 C  
A    9
 C5 
A   10
 C9 
A   11
 O  
A   12
 C20
A   13
 C6 
A   14
 C8 
A   15
 N2 
A   16
 C22
A   17
 C7 
A   18
 C23
A   19
 C24
A   20
 F1 
M  END
>  <XChem_code>  (483) 
5E9§1

>  <Occupancy>  (483) 
[1.0, 1.0, 1.0, 1.0, 1.0, 1.0, 1.0, 1.0, 1.0, 1.0, 1.0, 1.0, 1.0, 1.0, 1.0, 1.0, 1.0, 1.0, 1.0, 1.0, 1.0, 1.0, 1.0, 1.0, 1.0, 1.0, 1.0, 1.0, 1.0, 1.0, 1.0, 1.0, 1.0, 1.0, 1.0, 1.0]

>  <TempFactor>  (483) 
[22.12, 29.54, 27.79, 22.79, 27.7, 25.48, 34.28, 30.31, 25.63, 28.02, 25.53, 25.12, 26.39, 27.1, 28.54, 27.02, 25.43, 21.61, 21.08, 22.98, 23.89, 22.26, 25.01, 26.4, 24.85, 30.29, 29.11, 33.7, 26.49, 36.07, 37.0, 35.62, 22.45, 21.88, 20.92, 29.67]

>  <accession>  (483) 
5DP5_A

>  <description>  (483) 
Chain A, 3C proteinase [Enterovirus A71]

>  <evalue>  (483) 
1.13719e-70

>  <pdb_code>  (483) 
5DP5

>  <chain>  (483) 
A

>  <ligands>  (483) 
[{'chain_id': 'A', 'author_residue_number': 201, 'author_insertion_code': '', 'chem_comp_id': '5E9', 'alternate_conformers': 0, 'entity_id': 2, 'struct_asym_id': 'B', 'residue_number': 1, 'chem_comp_name': 'ethyl (2Z,4S)-4-{[(2R,5S)-5-amino-2-(4-fluorobenzyl)-6-methyl-4-oxoheptanoyl]amino}-5-[(3S)-2-oxopyrrolidin-3-yl]pent-2-enoate', 'weight': 489.58, 'carbohydrate_polymer': False, 'branch_name': ''}]

>  <ligand_codes>  (483) 
['5E9']

>  <cofactor_codes>  (483) 
[]

>  <has_cofactor>  (483) 
False

>  <covalent>  (483) 
True

>  <base_name>  (483) 
5DP5

>  <lig_resn>  (483) 
5000000000

>  <lig_resi>  (483) 
201

>  <lig_chain>  (483) 
A

>  <lig_segi>  (483) 
B

>  <lig_alt>  (483) 


>  <polymer_chain>  (483) 
A

>  <single_smiles>  (483) 
CCOC(=O)\C=C/[C@H](C[C@@H]1CCNC1=O)NC(=O)[C@@H](CC(=O)[C@@H](N)C(C)C)Cc2ccc(F)cc2

$$$$
5E9P1S5
     RDKit          3D

  6  5  0  0  0  0  0  0  0  0999 V2000
   -7.8720    8.8940  -35.7110 C   0  0  0  0  0  0  0  0  0  0  0  0
   -6.4110    9.0680  -36.0560 C   0  0  0  0  0  0  0  0  0  0  0  0
   -6.0430   10.0350  -37.0530 O   0  0  0  0  0  0  0  0  0  0  0  0
   -5.5150    8.4070  -35.5500 O   0  0  0  0  0  0  0  0  0  0  0  0
   -5.0600    9.5580  -37.9640 C   0  0  0  0  0  0  0  0  0  0  0  0
   -5.6800    8.4450  -38.8020 C   0  0  0  0  0  0  0  0  0  0  0  0
  1  2  1  0
  3  2  1  0
  4  2  2  0
  3  5  1  0
  5  6  1  0
A    2
 C16
A    3
 O2 
A    4
 O3 
A    5
 C18
A    6
 C19
M  END
>  <XChem_code>  (484) 
5E9§1

>  <Occupancy>  (484) 
[1.0, 1.0, 1.0, 1.0, 1.0, 1.0, 1.0, 1.0, 1.0, 1.0, 1.0, 1.0, 1.0, 1.0, 1.0, 1.0, 1.0, 1.0, 1.0, 1.0, 1.0, 1.0, 1.0, 1.0, 1.0, 1.0, 1.0, 1.0, 1.0, 1.0, 1.0, 1.0, 1.0, 1.0, 1.0, 1.0]

>  <TempFactor>  (484) 
[22.12, 29.54, 27.79, 22.79, 27.7, 25.48, 34.28, 30.31, 25.63, 28.02, 25.53, 25.12, 26.39, 27.1, 28.54, 27.02, 25.43, 21.61, 21.08, 22.98, 23.89, 22.26, 25.01, 26.4, 24.85, 30.29, 29.11, 33.7, 26.49, 36.07, 37.0, 35.62, 22.45, 21.88, 20.92, 29.67]

>  <accession>  (484) 
5DP5_A

>  <description>  (484) 
Chain A, 3C proteinase [Enterovirus A71]

>  <evalue>  (484) 
1.13719e-70

>  <pdb_code>  (484) 
5DP5

>  <chain>  (484) 
A

>  <ligands>  (484) 
[{'chain_id': 'A', 'author_residue_number': 201, 'author_insertion_code': '', 'chem_comp_id': '5E9', 'alternate_conformers': 0, 'entity_id': 2, 'struct_asym_id': 'B', 'residue_number': 1, 'chem_comp_name': 'ethyl (2Z,4S)-4-{[(2R,5S)-5-amino-2-(4-fluorobenzyl)-6-methyl-4-oxoheptanoyl]amino}-5-[(3S)-2-oxopyrrolidin-3-yl]pent-2-enoate', 'weight': 489.58, 'carbohydrate_polymer': False, 'branch_name': ''}]

>  <ligand_codes>  (484) 
['5E9']

>  <cofactor_codes>  (484) 
[]

>  <has_cofactor>  (484) 
False

>  <covalent>  (484) 
True

>  <base_name>  (484) 
5DP5

>  <lig_resn>  (484) 
5000000000

>  <lig_resi>  (484) 
201

>  <lig_chain>  (484) 
A

>  <lig_segi>  (484) 
B

>  <lig_alt>  (484) 


>  <polymer_chain>  (484) 
A

>  <single_smiles>  (484) 
CCOC(=O)\C=C/[C@H](C[C@@H]1CCNC1=O)NC(=O)[C@@H](CC(=O)[C@@H](N)C(C)C)Cc2ccc(F)cc2

$$$$
5E9P1S6
     RDKit          3D

 30 31  0  0  0  0  0  0  0  0999 V2000
   -8.1030    8.7640  -34.2130 C   0  0  0  0  0  0  0  0  0  0  0  0
   -7.6770   10.0790  -33.5580 C   0  0  1  0  0  0  0  0  0  0  0  0
   -9.7950    8.3550  -33.9060 R   0  0  0  0  0  0  0  0  0  0  0  0
   -8.6860   11.0770  -34.0170 N   0  0  0  0  0  0  0  0  0  0  0  0
   -7.6060    9.9880  -32.0610 C   0  0  0  0  0  0  0  0  0  0  0  0
   -8.2730   12.2270  -34.5900 C   0  0  0  0  0  0  0  0  0  0  0  0
   -7.0900   11.2740  -31.3660 C   0  0  1  0  0  0  0  0  0  0  0  0
   -9.3410   13.2140  -35.0270 C   0  0  2  0  0  0  0  0  0  0  0  0
   -7.0840   12.5120  -34.7360 O   0  0  0  0  0  0  0  0  0  0  0  0
   -6.9280   11.0630  -29.8890 C   0  0  0  0  0  0  0  0  0  0  0  0
   -5.6970   11.7410  -31.7720 C   0  0  0  0  0  0  0  0  0  0  0  0
   -9.5570   12.9440  -36.5080 C   0  0  0  0  0  0  0  0  0  0  0  0
   -8.9980   14.6950  -34.6930 C   0  0  0  0  0  0  0  0  0  0  0  0
   -5.8400   11.7270  -29.4300 N   0  0  0  0  0  0  0  0  0  0  0  0
   -7.6850   10.3310  -29.2400 O   0  0  0  0  0  0  0  0  0  0  0  0
   -5.0120   12.2750  -30.4960 C   0  0  0  0  0  0  0  0  0  0  0  0
  -10.6910   13.6950  -37.1830 C   0  0  0  0  0  0  0  0  0  0  0  0
   -8.6810   15.0160  -33.2280 C   0  0  0  0  0  0  0  0  0  0  0  0
  -10.3980   14.6980  -38.1120 C   0  0  0  0  0  0  0  0  0  0  0  0
  -12.0110   13.3850  -36.9280 C   0  0  0  0  0  0  0  0  0  0  0  0
   -8.6940   14.1780  -32.3210 O   0  0  0  0  0  0  0  0  0  0  0  0
   -8.2690   16.4470  -32.8570 C   0  0  1  0  0  0  0  0  0  0  0  0
  -11.4100   15.3950  -38.7580 C   0  0  0  0  0  0  0  0  0  0  0  0
  -13.0440   14.0840  -37.5690 C   0  0  0  0  0  0  0  0  0  0  0  0
   -8.2120   16.6720  -31.3740 N   0  0  0  0  0  0  0  0  0  0  0  0
   -6.8960   16.7890  -33.4690 C   0  0  0  0  0  0  0  0  0  0  0  0
  -12.7450   15.1100  -38.4840 C   0  0  0  0  0  0  0  0  0  0  0  0
   -6.4380   18.1830  -33.0660 C   0  0  0  0  0  0  0  0  0  0  0  0
   -5.8350   15.7520  -33.1000 C   0  0  0  0  0  0  0  0  0  0  0  0
  -13.7370   15.7770  -39.1250 F   0  0  0  0  0  0  0  0  0  0  0  0
  2  1  1  6
  1  3  1  0
  4  2  1  0
  2  5  1  0
  4  6  1  0
  7  5  1  6
  8  6  1  0
  9  6  2  0
  7 10  1  0
  7 11  1  0
  8 12  1  6
  8 13  1  0
 14 10  1  0
 15 10  2  0
 16 11  1  0
 12 17  1  0
 18 13  1  0
 14 16  1  0
 17 19  2  0
 17 20  1  0
 18 21  2  0
 18 22  1  0
 19 23  1  0
 24 20  2  0
 22 25  1  1
 22 26  1  0
 23 27  2  0
 27 24  1  0
 26 28  1  0
 26 29  1  0
 27 30  1  0
V    3 *
A    2
 C10
A    3
 X  
A    4
 N  
A    5
 C11
A    6
 C17
A    7
 C12
A    8
 C2 
A    9
 O4 
A   10
 C13
A   11
 C26
A   12
 C3 
A   13
 C21
A   14
 N1 
A   15
 O1 
A   16
 C25
A   17
 C4 
A   18
 C  
A   19
 C5 
A   20
 C9 
A   21
 O  
A   22
 C20
A   23
 C6 
A   24
 C8 
A   25
 N2 
A   26
 C22
A   27
 C7 
A   28
 C23
A   29
 C24
A   30
 F1 
M  END
>  <XChem_code>  (485) 
5E9§1

>  <Occupancy>  (485) 
[1.0, 1.0, 1.0, 1.0, 1.0, 1.0, 1.0, 1.0, 1.0, 1.0, 1.0, 1.0, 1.0, 1.0, 1.0, 1.0, 1.0, 1.0, 1.0, 1.0, 1.0, 1.0, 1.0, 1.0, 1.0, 1.0, 1.0, 1.0, 1.0, 1.0, 1.0, 1.0, 1.0, 1.0, 1.0, 1.0]

>  <TempFactor>  (485) 
[22.12, 29.54, 27.79, 22.79, 27.7, 25.48, 34.28, 30.31, 25.63, 28.02, 25.53, 25.12, 26.39, 27.1, 28.54, 27.02, 25.43, 21.61, 21.08, 22.98, 23.89, 22.26, 25.01, 26.4, 24.85, 30.29, 29.11, 33.7, 26.49, 36.07, 37.0, 35.62, 22.45, 21.88, 20.92, 29.67]

>  <accession>  (485) 
5DP5_A

>  <description>  (485) 
Chain A, 3C proteinase [Enterovirus A71]

>  <evalue>  (485) 
1.13719e-70

>  <pdb_code>  (485) 
5DP5

>  <chain>  (485) 
A

>  <ligands>  (485) 
[{'chain_id': 'A', 'author_residue_number': 201, 'author_insertion_code': '', 'chem_comp_id': '5E9', 'alternate_conformers': 0, 'entity_id': 2, 'struct_asym_id': 'B', 'residue_number': 1, 'chem_comp_name': 'ethyl (2Z,4S)-4-{[(2R,5S)-5-amino-2-(4-fluorobenzyl)-6-methyl-4-oxoheptanoyl]amino}-5-[(3S)-2-oxopyrrolidin-3-yl]pent-2-enoate', 'weight': 489.58, 'carbohydrate_polymer': False, 'branch_name': ''}]

>  <ligand_codes>  (485) 
['5E9']

>  <cofactor_codes>  (485) 
[]

>  <has_cofactor>  (485) 
False

>  <covalent>  (485) 
True

>  <base_name>  (485) 
5DP5

>  <lig_resn>  (485) 
5000000000

>  <lig_resi>  (485) 
201

>  <lig_chain>  (485) 
A

>  <lig_segi>  (485) 
B

>  <lig_alt>  (485) 


>  <polymer_chain>  (485) 
A

>  <single_smiles>  (485) 
CCOC(=O)\C=C/[C@H](C[C@@H]1CCNC1=O)NC(=O)[C@@H](CC(=O)[C@@H](N)C(C)C)Cc2ccc(F)cc2

$$$$
5E9P1S7
     RDKit          3D

 11 11  0  0  0  0  0  0  0  0999 V2000
   -8.1030    8.7640  -34.2130 C   0  0  0  0  0  0  0  0  0  0  0  0
   -7.6770   10.0790  -33.5580 C   0  0  1  0  0  0  0  0  0  0  0  0
   -9.7950    8.3550  -33.9060 R   0  0  0  0  0  0  0  0  0  0  0  0
   -8.6860   11.0770  -34.0170 N   0  0  0  0  0  0  0  0  0  0  0  0
   -7.6060    9.9880  -32.0610 C   0  0  0  0  0  0  0  0  0  0  0  0
   -7.0900   11.2740  -31.3660 C   0  0  1  0  0  0  0  0  0  0  0  0
   -6.9280   11.0630  -29.8890 C   0  0  0  0  0  0  0  0  0  0  0  0
   -5.6970   11.7410  -31.7720 C   0  0  0  0  0  0  0  0  0  0  0  0
   -5.8400   11.7270  -29.4300 N   0  0  0  0  0  0  0  0  0  0  0  0
   -7.6850   10.3310  -29.2400 O   0  0  0  0  0  0  0  0  0  0  0  0
   -5.0120   12.2750  -30.4960 C   0  0  0  0  0  0  0  0  0  0  0  0
  2  1  1  0
  1  3  1  0
  2  4  1  1
  2  5  1  0
  6  5  1  6
  6  7  1  0
  6  8  1  0
  9  7  1  0
 10  7  2  0
 11  8  1  0
  9 11  1  0
V    3 *
A    2
 C10
A    3
 X  
A    5
 C11
A    6
 C12
A    7
 C13
A    8
 C26
A    9
 N1 
A   10
 O1 
A   11
 C25
M  END
>  <XChem_code>  (486) 
5E9§1

>  <Occupancy>  (486) 
[1.0, 1.0, 1.0, 1.0, 1.0, 1.0, 1.0, 1.0, 1.0, 1.0, 1.0, 1.0, 1.0, 1.0, 1.0, 1.0, 1.0, 1.0, 1.0, 1.0, 1.0, 1.0, 1.0, 1.0, 1.0, 1.0, 1.0, 1.0, 1.0, 1.0, 1.0, 1.0, 1.0, 1.0, 1.0, 1.0]

>  <TempFactor>  (486) 
[22.12, 29.54, 27.79, 22.79, 27.7, 25.48, 34.28, 30.31, 25.63, 28.02, 25.53, 25.12, 26.39, 27.1, 28.54, 27.02, 25.43, 21.61, 21.08, 22.98, 23.89, 22.26, 25.01, 26.4, 24.85, 30.29, 29.11, 33.7, 26.49, 36.07, 37.0, 35.62, 22.45, 21.88, 20.92, 29.67]

>  <accession>  (486) 
5DP5_A

>  <description>  (486) 
Chain A, 3C proteinase [Enterovirus A71]

>  <evalue>  (486) 
1.13719e-70

>  <pdb_code>  (486) 
5DP5

>  <chain>  (486) 
A

>  <ligands>  (486) 
[{'chain_id': 'A', 'author_residue_number': 201, 'author_insertion_code': '', 'chem_comp_id': '5E9', 'alternate_conformers': 0, 'entity_id': 2, 'struct_asym_id': 'B', 'residue_number': 1, 'chem_comp_name': 'ethyl (2Z,4S)-4-{[(2R,5S)-5-amino-2-(4-fluorobenzyl)-6-methyl-4-oxoheptanoyl]amino}-5-[(3S)-2-oxopyrrolidin-3-yl]pent-2-enoate', 'weight': 489.58, 'carbohydrate_polymer': False, 'branch_name': ''}]

>  <ligand_codes>  (486) 
['5E9']

>  <cofactor_codes>  (486) 
[]

>  <has_cofactor>  (486) 
False

>  <covalent>  (486) 
True

>  <base_name>  (486) 
5DP5

>  <lig_resn>  (486) 
5000000000

>  <lig_resi>  (486) 
201

>  <lig_chain>  (486) 
A

>  <lig_segi>  (486) 
B

>  <lig_alt>  (486) 


>  <polymer_chain>  (486) 
A

>  <single_smiles>  (486) 
CCOC(=O)\C=C/[C@H](C[C@@H]1CCNC1=O)NC(=O)[C@@H](CC(=O)[C@@H](N)C(C)C)Cc2ccc(F)cc2

$$$$
5E9P1S8
     RDKit          3D

 10 10  0  0  0  0  0  0  0  0999 V2000
   -8.1030    8.7640  -34.2130 C   0  0  0  0  0  0  0  0  0  0  0  0
   -7.6770   10.0790  -33.5580 C   0  0  0  0  0  0  0  0  0  0  0  0
   -9.7950    8.3550  -33.9060 R   0  0  0  0  0  0  0  0  0  0  0  0
   -7.6060    9.9880  -32.0610 C   0  0  0  0  0  0  0  0  0  0  0  0
   -7.0900   11.2740  -31.3660 C   0  0  1  0  0  0  0  0  0  0  0  0
   -6.9280   11.0630  -29.8890 C   0  0  0  0  0  0  0  0  0  0  0  0
   -5.6970   11.7410  -31.7720 C   0  0  0  0  0  0  0  0  0  0  0  0
   -5.8400   11.7270  -29.4300 N   0  0  0  0  0  0  0  0  0  0  0  0
   -7.6850   10.3310  -29.2400 O   0  0  0  0  0  0  0  0  0  0  0  0
   -5.0120   12.2750  -30.4960 C   0  0  0  0  0  0  0  0  0  0  0  0
  2  1  1  1
  1  3  1  0
  2  4  1  0
  5  4  1  6
  5  6  1  0
  5  7  1  0
  8  6  1  0
  9  6  2  0
 10  7  1  0
  8 10  1  0
V    3 *
A    3
 X  
A    4
 C11
A    5
 C12
A    6
 C13
A    7
 C26
A    8
 N1 
A    9
 O1 
A   10
 C25
M  END
>  <XChem_code>  (487) 
5E9§1

>  <Occupancy>  (487) 
[1.0, 1.0, 1.0, 1.0, 1.0, 1.0, 1.0, 1.0, 1.0, 1.0, 1.0, 1.0, 1.0, 1.0, 1.0, 1.0, 1.0, 1.0, 1.0, 1.0, 1.0, 1.0, 1.0, 1.0, 1.0, 1.0, 1.0, 1.0, 1.0, 1.0, 1.0, 1.0, 1.0, 1.0, 1.0, 1.0]

>  <TempFactor>  (487) 
[22.12, 29.54, 27.79, 22.79, 27.7, 25.48, 34.28, 30.31, 25.63, 28.02, 25.53, 25.12, 26.39, 27.1, 28.54, 27.02, 25.43, 21.61, 21.08, 22.98, 23.89, 22.26, 25.01, 26.4, 24.85, 30.29, 29.11, 33.7, 26.49, 36.07, 37.0, 35.62, 22.45, 21.88, 20.92, 29.67]

>  <accession>  (487) 
5DP5_A

>  <description>  (487) 
Chain A, 3C proteinase [Enterovirus A71]

>  <evalue>  (487) 
1.13719e-70

>  <pdb_code>  (487) 
5DP5

>  <chain>  (487) 
A

>  <ligands>  (487) 
[{'chain_id': 'A', 'author_residue_number': 201, 'author_insertion_code': '', 'chem_comp_id': '5E9', 'alternate_conformers': 0, 'entity_id': 2, 'struct_asym_id': 'B', 'residue_number': 1, 'chem_comp_name': 'ethyl (2Z,4S)-4-{[(2R,5S)-5-amino-2-(4-fluorobenzyl)-6-methyl-4-oxoheptanoyl]amino}-5-[(3S)-2-oxopyrrolidin-3-yl]pent-2-enoate', 'weight': 489.58, 'carbohydrate_polymer': False, 'branch_name': ''}]

>  <ligand_codes>  (487) 
['5E9']

>  <cofactor_codes>  (487) 
[]

>  <has_cofactor>  (487) 
False

>  <covalent>  (487) 
True

>  <base_name>  (487) 
5DP5

>  <lig_resn>  (487) 
5000000000

>  <lig_resi>  (487) 
201

>  <lig_chain>  (487) 
A

>  <lig_segi>  (487) 
B

>  <lig_alt>  (487) 


>  <polymer_chain>  (487) 
A

>  <single_smiles>  (487) 
CCOC(=O)\C=C/[C@H](C[C@@H]1CCNC1=O)NC(=O)[C@@H](CC(=O)[C@@H](N)C(C)C)Cc2ccc(F)cc2

$$$$
5E9P1S9
     RDKit          3D

  6  6  0  0  0  0  0  0  0  0999 V2000
   -7.0900   11.2740  -31.3660 C   0  0  0  0  0  0  0  0  0  0  0  0
   -6.9280   11.0630  -29.8890 C   0  0  0  0  0  0  0  0  0  0  0  0
   -5.6970   11.7410  -31.7720 C   0  0  0  0  0  0  0  0  0  0  0  0
   -5.8400   11.7270  -29.4300 N   0  0  0  0  0  0  0  0  0  0  0  0
   -7.6850   10.3310  -29.2400 O   0  0  0  0  0  0  0  0  0  0  0  0
   -5.0120   12.2750  -30.4960 C   0  0  0  0  0  0  0  0  0  0  0  0
  1  2  1  0
  1  3  1  1
  4  2  1  0
  5  2  2  0
  6  3  1  0
  4  6  1  0
A    2
 C13
A    3
 C26
A    4
 N1 
A    5
 O1 
A    6
 C25
M  END
>  <XChem_code>  (488) 
5E9§1

>  <Occupancy>  (488) 
[1.0, 1.0, 1.0, 1.0, 1.0, 1.0, 1.0, 1.0, 1.0, 1.0, 1.0, 1.0, 1.0, 1.0, 1.0, 1.0, 1.0, 1.0, 1.0, 1.0, 1.0, 1.0, 1.0, 1.0, 1.0, 1.0, 1.0, 1.0, 1.0, 1.0, 1.0, 1.0, 1.0, 1.0, 1.0, 1.0]

>  <TempFactor>  (488) 
[22.12, 29.54, 27.79, 22.79, 27.7, 25.48, 34.28, 30.31, 25.63, 28.02, 25.53, 25.12, 26.39, 27.1, 28.54, 27.02, 25.43, 21.61, 21.08, 22.98, 23.89, 22.26, 25.01, 26.4, 24.85, 30.29, 29.11, 33.7, 26.49, 36.07, 37.0, 35.62, 22.45, 21.88, 20.92, 29.67]

>  <accession>  (488) 
5DP5_A

>  <description>  (488) 
Chain A, 3C proteinase [Enterovirus A71]

>  <evalue>  (488) 
1.13719e-70

>  <pdb_code>  (488) 
5DP5

>  <chain>  (488) 
A

>  <ligands>  (488) 
[{'chain_id': 'A', 'author_residue_number': 201, 'author_insertion_code': '', 'chem_comp_id': '5E9', 'alternate_conformers': 0, 'entity_id': 2, 'struct_asym_id': 'B', 'residue_number': 1, 'chem_comp_name': 'ethyl (2Z,4S)-4-{[(2R,5S)-5-amino-2-(4-fluorobenzyl)-6-methyl-4-oxoheptanoyl]amino}-5-[(3S)-2-oxopyrrolidin-3-yl]pent-2-enoate', 'weight': 489.58, 'carbohydrate_polymer': False, 'branch_name': ''}]

>  <ligand_codes>  (488) 
['5E9']

>  <cofactor_codes>  (488) 
[]

>  <has_cofactor>  (488) 
False

>  <covalent>  (488) 
True

>  <base_name>  (488) 
5DP5

>  <lig_resn>  (488) 
5000000000

>  <lig_resi>  (488) 
201

>  <lig_chain>  (488) 
A

>  <lig_segi>  (488) 
B

>  <lig_alt>  (488) 


>  <polymer_chain>  (488) 
A

>  <single_smiles>  (488) 
CCOC(=O)\C=C/[C@H](C[C@@H]1CCNC1=O)NC(=O)[C@@H](CC(=O)[C@@H](N)C(C)C)Cc2ccc(F)cc2

$$$$
5E9P1S10
     RDKit          3D

 30 30  0  0  0  0  0  0  0  0999 V2000
   -7.6060    9.9880  -32.0610 C   0  0  0  0  0  0  0  0  0  0  0  0
   -7.6770   10.0790  -33.5580 C   0  0  2  0  0  0  0  0  0  0  0  0
   -8.6860   11.0770  -34.0170 N   0  0  0  0  0  0  0  0  0  0  0  0
   -8.1030    8.7640  -34.2130 C   0  0  0  0  0  0  0  0  0  0  0  0
   -8.2730   12.2270  -34.5900 C   0  0  0  0  0  0  0  0  0  0  0  0
   -7.8720    8.8940  -35.7110 C   0  0  0  0  0  0  0  0  0  0  0  0
   -9.7950    8.3550  -33.9060 R   0  0  0  0  0  0  0  0  0  0  0  0
   -9.3410   13.2140  -35.0270 C   0  0  2  0  0  0  0  0  0  0  0  0
   -7.0840   12.5120  -34.7360 O   0  0  0  0  0  0  0  0  0  0  0  0
   -6.4110    9.0680  -36.0560 C   0  0  0  0  0  0  0  0  0  0  0  0
   -9.5570   12.9440  -36.5080 C   0  0  0  0  0  0  0  0  0  0  0  0
   -8.9980   14.6950  -34.6930 C   0  0  0  0  0  0  0  0  0  0  0  0
   -6.0430   10.0350  -37.0530 O   0  0  0  0  0  0  0  0  0  0  0  0
   -5.5150    8.4070  -35.5500 O   0  0  0  0  0  0  0  0  0  0  0  0
  -10.6910   13.6950  -37.1830 C   0  0  0  0  0  0  0  0  0  0  0  0
   -8.6810   15.0160  -33.2280 C   0  0  0  0  0  0  0  0  0  0  0  0
   -5.0600    9.5580  -37.9640 C   0  0  0  0  0  0  0  0  0  0  0  0
  -10.3980   14.6980  -38.1120 C   0  0  0  0  0  0  0  0  0  0  0  0
  -12.0110   13.3850  -36.9280 C   0  0  0  0  0  0  0  0  0  0  0  0
   -8.6940   14.1780  -32.3210 O   0  0  0  0  0  0  0  0  0  0  0  0
   -8.2690   16.4470  -32.8570 C   0  0  1  0  0  0  0  0  0  0  0  0
   -5.6800    8.4450  -38.8020 C   0  0  0  0  0  0  0  0  0  0  0  0
  -11.4100   15.3950  -38.7580 C   0  0  0  0  0  0  0  0  0  0  0  0
  -13.0440   14.0840  -37.5690 C   0  0  0  0  0  0  0  0  0  0  0  0
   -8.2120   16.6720  -31.3740 N   0  0  0  0  0  0  0  0  0  0  0  0
   -6.8960   16.7890  -33.4690 C   0  0  0  0  0  0  0  0  0  0  0  0
  -12.7450   15.1100  -38.4840 C   0  0  0  0  0  0  0  0  0  0  0  0
   -6.4380   18.1830  -33.0660 C   0  0  0  0  0  0  0  0  0  0  0  0
   -5.8350   15.7520  -33.1000 C   0  0  0  0  0  0  0  0  0  0  0  0
  -13.7370   15.7770  -39.1250 F   0  0  0  0  0  0  0  0  0  0  0  0
  2  1  1  1
  3  2  1  0
  2  4  1  0
  3  5  1  0
  4  6  2  3
  4  7  1  0
  8  5  1  0
  9  5  2  0
  6 10  1  0
  8 11  1  6
  8 12  1  0
 13 10  1  0
 14 10  2  0
 11 15  1  0
 16 12  1  0
 13 17  1  0
 15 18  2  0
 15 19  1  0
 16 20  2  0
 16 21  1  0
 17 22  1  0
 18 23  1  0
 24 19  2  0
 21 25  1  1
 21 26  1  0
 23 27  2  0
 27 24  1  0
 26 28  1  0
 26 29  1  0
 27 30  1  0
V    7 *
A    2
 C10
A    3
 N  
A    4
 C14
A    5
 C17
A    6
 C15
A    7
 X  
A    8
 C2 
A    9
 O4 
A   10
 C16
A   11
 C3 
A   12
 C21
A   13
 O2 
A   14
 O3 
A   15
 C4 
A   16
 C  
A   17
 C18
A   18
 C5 
A   19
 C9 
A   20
 O  
A   21
 C20
A   22
 C19
A   23
 C6 
A   24
 C8 
A   25
 N2 
A   26
 C22
A   27
 C7 
A   28
 C23
A   29
 C24
A   30
 F1 
M  END
>  <XChem_code>  (489) 
5E9§1

>  <Occupancy>  (489) 
[1.0, 1.0, 1.0, 1.0, 1.0, 1.0, 1.0, 1.0, 1.0, 1.0, 1.0, 1.0, 1.0, 1.0, 1.0, 1.0, 1.0, 1.0, 1.0, 1.0, 1.0, 1.0, 1.0, 1.0, 1.0, 1.0, 1.0, 1.0, 1.0, 1.0, 1.0, 1.0, 1.0, 1.0, 1.0, 1.0]

>  <TempFactor>  (489) 
[22.12, 29.54, 27.79, 22.79, 27.7, 25.48, 34.28, 30.31, 25.63, 28.02, 25.53, 25.12, 26.39, 27.1, 28.54, 27.02, 25.43, 21.61, 21.08, 22.98, 23.89, 22.26, 25.01, 26.4, 24.85, 30.29, 29.11, 33.7, 26.49, 36.07, 37.0, 35.62, 22.45, 21.88, 20.92, 29.67]

>  <accession>  (489) 
5DP5_A

>  <description>  (489) 
Chain A, 3C proteinase [Enterovirus A71]

>  <evalue>  (489) 
1.13719e-70

>  <pdb_code>  (489) 
5DP5

>  <chain>  (489) 
A

>  <ligands>  (489) 
[{'chain_id': 'A', 'author_residue_number': 201, 'author_insertion_code': '', 'chem_comp_id': '5E9', 'alternate_conformers': 0, 'entity_id': 2, 'struct_asym_id': 'B', 'residue_number': 1, 'chem_comp_name': 'ethyl (2Z,4S)-4-{[(2R,5S)-5-amino-2-(4-fluorobenzyl)-6-methyl-4-oxoheptanoyl]amino}-5-[(3S)-2-oxopyrrolidin-3-yl]pent-2-enoate', 'weight': 489.58, 'carbohydrate_polymer': False, 'branch_name': ''}]

>  <ligand_codes>  (489) 
['5E9']

>  <cofactor_codes>  (489) 
[]

>  <has_cofactor>  (489) 
False

>  <covalent>  (489) 
True

>  <base_name>  (489) 
5DP5

>  <lig_resn>  (489) 
5000000000

>  <lig_resi>  (489) 
201

>  <lig_chain>  (489) 
A

>  <lig_segi>  (489) 
B

>  <lig_alt>  (489) 


>  <polymer_chain>  (489) 
A

>  <single_smiles>  (489) 
CCOC(=O)\C=C/[C@H](C[C@@H]1CCNC1=O)NC(=O)[C@@H](CC(=O)[C@@H](N)C(C)C)Cc2ccc(F)cc2

$$$$
5E9P1S11
     RDKit          3D

  7  7  0  0  0  0  0  0  0  0999 V2000
  -10.6910   13.6950  -37.1830 C   0  0  0  0  0  0  0  0  0  0  0  0
  -10.3980   14.6980  -38.1120 C   0  0  0  0  0  0  0  0  0  0  0  0
  -12.0110   13.3850  -36.9280 C   0  0  0  0  0  0  0  0  0  0  0  0
  -11.4100   15.3950  -38.7580 C   0  0  0  0  0  0  0  0  0  0  0  0
  -13.0440   14.0840  -37.5690 C   0  0  0  0  0  0  0  0  0  0  0  0
  -12.7450   15.1100  -38.4840 C   0  0  0  0  0  0  0  0  0  0  0  0
  -13.7370   15.7770  -39.1250 F   0  0  0  0  0  0  0  0  0  0  0  0
  1  2  2  0
  1  3  1  0
  2  4  1  0
  5  3  2  0
  4  6  2  0
  6  5  1  0
  6  7  1  0
A    2
 C5 
A    3
 C9 
A    4
 C6 
A    5
 C8 
A    6
 C7 
A    7
 F1 
M  END
>  <XChem_code>  (490) 
5E9§1

>  <Occupancy>  (490) 
[1.0, 1.0, 1.0, 1.0, 1.0, 1.0, 1.0, 1.0, 1.0, 1.0, 1.0, 1.0, 1.0, 1.0, 1.0, 1.0, 1.0, 1.0, 1.0, 1.0, 1.0, 1.0, 1.0, 1.0, 1.0, 1.0, 1.0, 1.0, 1.0, 1.0, 1.0, 1.0, 1.0, 1.0, 1.0, 1.0]

>  <TempFactor>  (490) 
[22.12, 29.54, 27.79, 22.79, 27.7, 25.48, 34.28, 30.31, 25.63, 28.02, 25.53, 25.12, 26.39, 27.1, 28.54, 27.02, 25.43, 21.61, 21.08, 22.98, 23.89, 22.26, 25.01, 26.4, 24.85, 30.29, 29.11, 33.7, 26.49, 36.07, 37.0, 35.62, 22.45, 21.88, 20.92, 29.67]

>  <accession>  (490) 
5DP5_A

>  <description>  (490) 
Chain A, 3C proteinase [Enterovirus A71]

>  <evalue>  (490) 
1.13719e-70

>  <pdb_code>  (490) 
5DP5

>  <chain>  (490) 
A

>  <ligands>  (490) 
[{'chain_id': 'A', 'author_residue_number': 201, 'author_insertion_code': '', 'chem_comp_id': '5E9', 'alternate_conformers': 0, 'entity_id': 2, 'struct_asym_id': 'B', 'residue_number': 1, 'chem_comp_name': 'ethyl (2Z,4S)-4-{[(2R,5S)-5-amino-2-(4-fluorobenzyl)-6-methyl-4-oxoheptanoyl]amino}-5-[(3S)-2-oxopyrrolidin-3-yl]pent-2-enoate', 'weight': 489.58, 'carbohydrate_polymer': False, 'branch_name': ''}]

>  <ligand_codes>  (490) 
['5E9']

>  <cofactor_codes>  (490) 
[]

>  <has_cofactor>  (490) 
False

>  <covalent>  (490) 
True

>  <base_name>  (490) 
5DP5

>  <lig_resn>  (490) 
5000000000

>  <lig_resi>  (490) 
201

>  <lig_chain>  (490) 
A

>  <lig_segi>  (490) 
B

>  <lig_alt>  (490) 


>  <polymer_chain>  (490) 
A

>  <single_smiles>  (490) 
CCOC(=O)\C=C/[C@H](C[C@@H]1CCNC1=O)NC(=O)[C@@H](CC(=O)[C@@H](N)C(C)C)Cc2ccc(F)cc2

$$$$
5E9P1S12
     RDKit          3D

 29 29  0  0  0  0  0  0  0  0999 V2000
   -9.5570   12.9440  -36.5080 C   0  0  0  0  0  0  0  0  0  0  0  0
   -9.3410   13.2140  -35.0270 C   0  0  1  0  0  0  0  0  0  0  0  0
   -8.2730   12.2270  -34.5900 C   0  0  0  0  0  0  0  0  0  0  0  0
   -8.9980   14.6950  -34.6930 C   0  0  0  0  0  0  0  0  0  0  0  0
   -8.6860   11.0770  -34.0170 N   0  0  0  0  0  0  0  0  0  0  0  0
   -7.0840   12.5120  -34.7360 O   0  0  0  0  0  0  0  0  0  0  0  0
   -8.6810   15.0160  -33.2280 C   0  0  0  0  0  0  0  0  0  0  0  0
   -7.6770   10.0790  -33.5580 C   0  0  1  0  0  0  0  0  0  0  0  0
   -8.6940   14.1780  -32.3210 O   0  0  0  0  0  0  0  0  0  0  0  0
   -8.2690   16.4470  -32.8570 C   0  0  1  0  0  0  0  0  0  0  0  0
   -7.6060    9.9880  -32.0610 C   0  0  0  0  0  0  0  0  0  0  0  0
   -8.1030    8.7640  -34.2130 C   0  0  0  0  0  0  0  0  0  0  0  0
   -8.2120   16.6720  -31.3740 N   0  0  0  0  0  0  0  0  0  0  0  0
   -6.8960   16.7890  -33.4690 C   0  0  0  0  0  0  0  0  0  0  0  0
   -7.0900   11.2740  -31.3660 C   0  0  1  0  0  0  0  0  0  0  0  0
   -7.8720    8.8940  -35.7110 C   0  0  0  0  0  0  0  0  0  0  0  0
   -9.7950    8.3550  -33.9060 R   0  0  0  0  0  0  0  0  0  0  0  0
   -6.4380   18.1830  -33.0660 C   0  0  0  0  0  0  0  0  0  0  0  0
   -5.8350   15.7520  -33.1000 C   0  0  0  0  0  0  0  0  0  0  0  0
   -6.9280   11.0630  -29.8890 C   0  0  0  0  0  0  0  0  0  0  0  0
   -5.6970   11.7410  -31.7720 C   0  0  0  0  0  0  0  0  0  0  0  0
   -6.4110    9.0680  -36.0560 C   0  0  0  0  0  0  0  0  0  0  0  0
   -5.8400   11.7270  -29.4300 N   0  0  0  0  0  0  0  0  0  0  0  0
   -7.6850   10.3310  -29.2400 O   0  0  0  0  0  0  0  0  0  0  0  0
   -5.0120   12.2750  -30.4960 C   0  0  0  0  0  0  0  0  0  0  0  0
   -6.0430   10.0350  -37.0530 O   0  0  0  0  0  0  0  0  0  0  0  0
   -5.5150    8.4070  -35.5500 O   0  0  0  0  0  0  0  0  0  0  0  0
   -5.0600    9.5580  -37.9640 C   0  0  0  0  0  0  0  0  0  0  0  0
   -5.6800    8.4450  -38.8020 C   0  0  0  0  0  0  0  0  0  0  0  0
  2  1  1  6
  2  3  1  0
  2  4  1  0
  5  3  1  0
  6  3  2  0
  7  4  1  0
  5  8  1  0
  7  9  2  0
  7 10  1  0
  8 11  1  1
  8 12  1  0
 10 13  1  1
 10 14  1  0
 15 11  1  6
 12 16  2  3
 12 17  1  0
 14 18  1  0
 14 19  1  0
 15 20  1  0
 15 21  1  0
 16 22  1  0
 23 20  1  0
 24 20  2  0
 25 21  1  0
 26 22  1  0
 27 22  2  0
 23 25  1  0
 26 28  1  0
 28 29  1  0
V   17 *
A    2
 C2 
A    3
 C17
A    4
 C21
A    5
 N  
A    6
 O4 
A    7
 C  
A    8
 C10
A    9
 O  
A   10
 C20
A   11
 C11
A   12
 C14
A   13
 N2 
A   14
 C22
A   15
 C12
A   16
 C15
A   17
 X  
A   18
 C23
A   19
 C24
A   20
 C13
A   21
 C26
A   22
 C16
A   23
 N1 
A   24
 O1 
A   25
 C25
A   26
 O2 
A   27
 O3 
A   28
 C18
A   29
 C19
M  END
>  <XChem_code>  (491) 
5E9§1

>  <Occupancy>  (491) 
[1.0, 1.0, 1.0, 1.0, 1.0, 1.0, 1.0, 1.0, 1.0, 1.0, 1.0, 1.0, 1.0, 1.0, 1.0, 1.0, 1.0, 1.0, 1.0, 1.0, 1.0, 1.0, 1.0, 1.0, 1.0, 1.0, 1.0, 1.0, 1.0, 1.0, 1.0, 1.0, 1.0, 1.0, 1.0, 1.0]

>  <TempFactor>  (491) 
[22.12, 29.54, 27.79, 22.79, 27.7, 25.48, 34.28, 30.31, 25.63, 28.02, 25.53, 25.12, 26.39, 27.1, 28.54, 27.02, 25.43, 21.61, 21.08, 22.98, 23.89, 22.26, 25.01, 26.4, 24.85, 30.29, 29.11, 33.7, 26.49, 36.07, 37.0, 35.62, 22.45, 21.88, 20.92, 29.67]

>  <accession>  (491) 
5DP5_A

>  <description>  (491) 
Chain A, 3C proteinase [Enterovirus A71]

>  <evalue>  (491) 
1.13719e-70

>  <pdb_code>  (491) 
5DP5

>  <chain>  (491) 
A

>  <ligands>  (491) 
[{'chain_id': 'A', 'author_residue_number': 201, 'author_insertion_code': '', 'chem_comp_id': '5E9', 'alternate_conformers': 0, 'entity_id': 2, 'struct_asym_id': 'B', 'residue_number': 1, 'chem_comp_name': 'ethyl (2Z,4S)-4-{[(2R,5S)-5-amino-2-(4-fluorobenzyl)-6-methyl-4-oxoheptanoyl]amino}-5-[(3S)-2-oxopyrrolidin-3-yl]pent-2-enoate', 'weight': 489.58, 'carbohydrate_polymer': False, 'branch_name': ''}]

>  <ligand_codes>  (491) 
['5E9']

>  <cofactor_codes>  (491) 
[]

>  <has_cofactor>  (491) 
False

>  <covalent>  (491) 
True

>  <base_name>  (491) 
5DP5

>  <lig_resn>  (491) 
5000000000

>  <lig_resi>  (491) 
201

>  <lig_chain>  (491) 
A

>  <lig_segi>  (491) 
B

>  <lig_alt>  (491) 


>  <polymer_chain>  (491) 
A

>  <single_smiles>  (491) 
CCOC(=O)\C=C/[C@H](C[C@@H]1CCNC1=O)NC(=O)[C@@H](CC(=O)[C@@H](N)C(C)C)Cc2ccc(F)cc2

$$$$
5E9P1S13
     RDKit          3D

 11 10  0  0  0  0  0  0  0  0999 V2000
   -7.6060    9.9880  -32.0610 C   0  0  0  0  0  0  0  0  0  0  0  0
   -7.6770   10.0790  -33.5580 C   0  0  2  0  0  0  0  0  0  0  0  0
   -8.6860   11.0770  -34.0170 N   0  0  0  0  0  0  0  0  0  0  0  0
   -8.1030    8.7640  -34.2130 C   0  0  0  0  0  0  0  0  0  0  0  0
   -7.8720    8.8940  -35.7110 C   0  0  0  0  0  0  0  0  0  0  0  0
   -9.7950    8.3550  -33.9060 R   0  0  0  0  0  0  0  0  0  0  0  0
   -6.4110    9.0680  -36.0560 C   0  0  0  0  0  0  0  0  0  0  0  0
   -6.0430   10.0350  -37.0530 O   0  0  0  0  0  0  0  0  0  0  0  0
   -5.5150    8.4070  -35.5500 O   0  0  0  0  0  0  0  0  0  0  0  0
   -5.0600    9.5580  -37.9640 C   0  0  0  0  0  0  0  0  0  0  0  0
   -5.6800    8.4450  -38.8020 C   0  0  0  0  0  0  0  0  0  0  0  0
  2  1  1  1
  3  2  1  0
  2  4  1  0
  4  5  2  3
  4  6  1  0
  5  7  1  0
  8  7  1  0
  9  7  2  0
  8 10  1  0
 10 11  1  0
V    6 *
A    2
 C10
A    4
 C14
A    5
 C15
A    6
 X  
A    7
 C16
A    8
 O2 
A    9
 O3 
A   10
 C18
A   11
 C19
M  END
>  <XChem_code>  (492) 
5E9§1

>  <Occupancy>  (492) 
[1.0, 1.0, 1.0, 1.0, 1.0, 1.0, 1.0, 1.0, 1.0, 1.0, 1.0, 1.0, 1.0, 1.0, 1.0, 1.0, 1.0, 1.0, 1.0, 1.0, 1.0, 1.0, 1.0, 1.0, 1.0, 1.0, 1.0, 1.0, 1.0, 1.0, 1.0, 1.0, 1.0, 1.0, 1.0, 1.0]

>  <TempFactor>  (492) 
[22.12, 29.54, 27.79, 22.79, 27.7, 25.48, 34.28, 30.31, 25.63, 28.02, 25.53, 25.12, 26.39, 27.1, 28.54, 27.02, 25.43, 21.61, 21.08, 22.98, 23.89, 22.26, 25.01, 26.4, 24.85, 30.29, 29.11, 33.7, 26.49, 36.07, 37.0, 35.62, 22.45, 21.88, 20.92, 29.67]

>  <accession>  (492) 
5DP5_A

>  <description>  (492) 
Chain A, 3C proteinase [Enterovirus A71]

>  <evalue>  (492) 
1.13719e-70

>  <pdb_code>  (492) 
5DP5

>  <chain>  (492) 
A

>  <ligands>  (492) 
[{'chain_id': 'A', 'author_residue_number': 201, 'author_insertion_code': '', 'chem_comp_id': '5E9', 'alternate_conformers': 0, 'entity_id': 2, 'struct_asym_id': 'B', 'residue_number': 1, 'chem_comp_name': 'ethyl (2Z,4S)-4-{[(2R,5S)-5-amino-2-(4-fluorobenzyl)-6-methyl-4-oxoheptanoyl]amino}-5-[(3S)-2-oxopyrrolidin-3-yl]pent-2-enoate', 'weight': 489.58, 'carbohydrate_polymer': False, 'branch_name': ''}]

>  <ligand_codes>  (492) 
['5E9']

>  <cofactor_codes>  (492) 
[]

>  <has_cofactor>  (492) 
False

>  <covalent>  (492) 
True

>  <base_name>  (492) 
5DP5

>  <lig_resn>  (492) 
5000000000

>  <lig_resi>  (492) 
201

>  <lig_chain>  (492) 
A

>  <lig_segi>  (492) 
B

>  <lig_alt>  (492) 


>  <polymer_chain>  (492) 
A

>  <single_smiles>  (492) 
CCOC(=O)\C=C/[C@H](C[C@@H]1CCNC1=O)NC(=O)[C@@H](CC(=O)[C@@H](N)C(C)C)Cc2ccc(F)cc2

$$$$
5E9P1S14
     RDKit          3D

 12 11  0  0  0  0  0  0  0  0999 V2000
   -9.5570   12.9440  -36.5080 C   0  0  0  0  0  0  0  0  0  0  0  0
   -9.3410   13.2140  -35.0270 C   0  0  1  0  0  0  0  0  0  0  0  0
   -8.2730   12.2270  -34.5900 C   0  0  0  0  0  0  0  0  0  0  0  0
   -8.9980   14.6950  -34.6930 C   0  0  0  0  0  0  0  0  0  0  0  0
   -7.0840   12.5120  -34.7360 O   0  0  0  0  0  0  0  0  0  0  0  0
   -8.6810   15.0160  -33.2280 C   0  0  0  0  0  0  0  0  0  0  0  0
   -8.6940   14.1780  -32.3210 O   0  0  0  0  0  0  0  0  0  0  0  0
   -8.2690   16.4470  -32.8570 C   0  0  1  0  0  0  0  0  0  0  0  0
   -8.2120   16.6720  -31.3740 N   0  0  0  0  0  0  0  0  0  0  0  0
   -6.8960   16.7890  -33.4690 C   0  0  0  0  0  0  0  0  0  0  0  0
   -6.4380   18.1830  -33.0660 C   0  0  0  0  0  0  0  0  0  0  0  0
   -5.8350   15.7520  -33.1000 C   0  0  0  0  0  0  0  0  0  0  0  0
  2  1  1  6
  2  3  1  0
  2  4  1  0
  5  3  2  0
  6  4  1  0
  6  7  2  0
  6  8  1  0
  8  9  1  1
  8 10  1  0
 10 11  1  0
 10 12  1  0
A    2
 C2 
A    4
 C21
A    5
 O4 
A    6
 C  
A    7
 O  
A    8
 C20
A    9
 N2 
A   10
 C22
A   11
 C23
A   12
 C24
M  END
>  <XChem_code>  (493) 
5E9§1

>  <Occupancy>  (493) 
[1.0, 1.0, 1.0, 1.0, 1.0, 1.0, 1.0, 1.0, 1.0, 1.0, 1.0, 1.0, 1.0, 1.0, 1.0, 1.0, 1.0, 1.0, 1.0, 1.0, 1.0, 1.0, 1.0, 1.0, 1.0, 1.0, 1.0, 1.0, 1.0, 1.0, 1.0, 1.0, 1.0, 1.0, 1.0, 1.0]

>  <TempFactor>  (493) 
[22.12, 29.54, 27.79, 22.79, 27.7, 25.48, 34.28, 30.31, 25.63, 28.02, 25.53, 25.12, 26.39, 27.1, 28.54, 27.02, 25.43, 21.61, 21.08, 22.98, 23.89, 22.26, 25.01, 26.4, 24.85, 30.29, 29.11, 33.7, 26.49, 36.07, 37.0, 35.62, 22.45, 21.88, 20.92, 29.67]

>  <accession>  (493) 
5DP5_A

>  <description>  (493) 
Chain A, 3C proteinase [Enterovirus A71]

>  <evalue>  (493) 
1.13719e-70

>  <pdb_code>  (493) 
5DP5

>  <chain>  (493) 
A

>  <ligands>  (493) 
[{'chain_id': 'A', 'author_residue_number': 201, 'author_insertion_code': '', 'chem_comp_id': '5E9', 'alternate_conformers': 0, 'entity_id': 2, 'struct_asym_id': 'B', 'residue_number': 1, 'chem_comp_name': 'ethyl (2Z,4S)-4-{[(2R,5S)-5-amino-2-(4-fluorobenzyl)-6-methyl-4-oxoheptanoyl]amino}-5-[(3S)-2-oxopyrrolidin-3-yl]pent-2-enoate', 'weight': 489.58, 'carbohydrate_polymer': False, 'branch_name': ''}]

>  <ligand_codes>  (493) 
['5E9']

>  <cofactor_codes>  (493) 
[]

>  <has_cofactor>  (493) 
False

>  <covalent>  (493) 
True

>  <base_name>  (493) 
5DP5

>  <lig_resn>  (493) 
5000000000

>  <lig_resi>  (493) 
201

>  <lig_chain>  (493) 
A

>  <lig_segi>  (493) 
B

>  <lig_alt>  (493) 


>  <polymer_chain>  (493) 
A

>  <single_smiles>  (493) 
CCOC(=O)\C=C/[C@H](C[C@@H]1CCNC1=O)NC(=O)[C@@H](CC(=O)[C@@H](N)C(C)C)Cc2ccc(F)cc2

$$$$
5E9P1S15
     RDKit          3D

 10  9  0  0  0  0  0  0  0  0999 V2000
   -7.6060    9.9880  -32.0610 C   0  0  0  0  0  0  0  0  0  0  0  0
   -7.6770   10.0790  -33.5580 C   0  0  0  0  0  0  0  0  0  0  0  0
   -8.1030    8.7640  -34.2130 C   0  0  0  0  0  0  0  0  0  0  0  0
   -7.8720    8.8940  -35.7110 C   0  0  0  0  0  0  0  0  0  0  0  0
   -9.7950    8.3550  -33.9060 R   0  0  0  0  0  0  0  0  0  0  0  0
   -6.4110    9.0680  -36.0560 C   0  0  0  0  0  0  0  0  0  0  0  0
   -6.0430   10.0350  -37.0530 O   0  0  0  0  0  0  0  0  0  0  0  0
   -5.5150    8.4070  -35.5500 O   0  0  0  0  0  0  0  0  0  0  0  0
   -5.0600    9.5580  -37.9640 C   0  0  0  0  0  0  0  0  0  0  0  0
   -5.6800    8.4450  -38.8020 C   0  0  0  0  0  0  0  0  0  0  0  0
  2  1  1  6
  2  3  1  0
  3  4  2  3
  3  5  1  0
  4  6  1  0
  7  6  1  0
  8  6  2  0
  7  9  1  0
  9 10  1  0
V    5 *
A    3
 C14
A    4
 C15
A    5
 X  
A    6
 C16
A    7
 O2 
A    8
 O3 
A    9
 C18
A   10
 C19
M  END
>  <XChem_code>  (494) 
5E9§1

>  <Occupancy>  (494) 
[1.0, 1.0, 1.0, 1.0, 1.0, 1.0, 1.0, 1.0, 1.0, 1.0, 1.0, 1.0, 1.0, 1.0, 1.0, 1.0, 1.0, 1.0, 1.0, 1.0, 1.0, 1.0, 1.0, 1.0, 1.0, 1.0, 1.0, 1.0, 1.0, 1.0, 1.0, 1.0, 1.0, 1.0, 1.0, 1.0]

>  <TempFactor>  (494) 
[22.12, 29.54, 27.79, 22.79, 27.7, 25.48, 34.28, 30.31, 25.63, 28.02, 25.53, 25.12, 26.39, 27.1, 28.54, 27.02, 25.43, 21.61, 21.08, 22.98, 23.89, 22.26, 25.01, 26.4, 24.85, 30.29, 29.11, 33.7, 26.49, 36.07, 37.0, 35.62, 22.45, 21.88, 20.92, 29.67]

>  <accession>  (494) 
5DP5_A

>  <description>  (494) 
Chain A, 3C proteinase [Enterovirus A71]

>  <evalue>  (494) 
1.13719e-70

>  <pdb_code>  (494) 
5DP5

>  <chain>  (494) 
A

>  <ligands>  (494) 
[{'chain_id': 'A', 'author_residue_number': 201, 'author_insertion_code': '', 'chem_comp_id': '5E9', 'alternate_conformers': 0, 'entity_id': 2, 'struct_asym_id': 'B', 'residue_number': 1, 'chem_comp_name': 'ethyl (2Z,4S)-4-{[(2R,5S)-5-amino-2-(4-fluorobenzyl)-6-methyl-4-oxoheptanoyl]amino}-5-[(3S)-2-oxopyrrolidin-3-yl]pent-2-enoate', 'weight': 489.58, 'carbohydrate_polymer': False, 'branch_name': ''}]

>  <ligand_codes>  (494) 
['5E9']

>  <cofactor_codes>  (494) 
[]

>  <has_cofactor>  (494) 
False

>  <covalent>  (494) 
True

>  <base_name>  (494) 
5DP5

>  <lig_resn>  (494) 
5000000000

>  <lig_resi>  (494) 
201

>  <lig_chain>  (494) 
A

>  <lig_segi>  (494) 
B

>  <lig_alt>  (494) 


>  <polymer_chain>  (494) 
A

>  <single_smiles>  (494) 
CCOC(=O)\C=C/[C@H](C[C@@H]1CCNC1=O)NC(=O)[C@@H](CC(=O)[C@@H](N)C(C)C)Cc2ccc(F)cc2

$$$$
5E9P1S16
     RDKit          3D

 13 12  0  0  0  0  0  0  0  0999 V2000
   -9.5570   12.9440  -36.5080 C   0  0  0  0  0  0  0  0  0  0  0  0
   -9.3410   13.2140  -35.0270 C   0  0  1  0  0  0  0  0  0  0  0  0
   -8.2730   12.2270  -34.5900 C   0  0  0  0  0  0  0  0  0  0  0  0
   -8.9980   14.6950  -34.6930 C   0  0  0  0  0  0  0  0  0  0  0  0
   -8.6860   11.0770  -34.0170 N   0  0  0  0  0  0  0  0  0  0  0  0
   -7.0840   12.5120  -34.7360 O   0  0  0  0  0  0  0  0  0  0  0  0
   -8.6810   15.0160  -33.2280 C   0  0  0  0  0  0  0  0  0  0  0  0
   -8.6940   14.1780  -32.3210 O   0  0  0  0  0  0  0  0  0  0  0  0
   -8.2690   16.4470  -32.8570 C   0  0  1  0  0  0  0  0  0  0  0  0
   -8.2120   16.6720  -31.3740 N   0  0  0  0  0  0  0  0  0  0  0  0
   -6.8960   16.7890  -33.4690 C   0  0  0  0  0  0  0  0  0  0  0  0
   -6.4380   18.1830  -33.0660 C   0  0  0  0  0  0  0  0  0  0  0  0
   -5.8350   15.7520  -33.1000 C   0  0  0  0  0  0  0  0  0  0  0  0
  2  1  1  6
  2  3  1  0
  2  4  1  0
  5  3  1  0
  6  3  2  0
  7  4  1  0
  7  8  2  0
  7  9  1  0
  9 10  1  1
  9 11  1  0
 11 12  1  0
 11 13  1  0
A    2
 C2 
A    3
 C17
A    4
 C21
A    6
 O4 
A    7
 C  
A    8
 O  
A    9
 C20
A   10
 N2 
A   11
 C22
A   12
 C23
A   13
 C24
M  END
>  <XChem_code>  (495) 
5E9§1

>  <Occupancy>  (495) 
[1.0, 1.0, 1.0, 1.0, 1.0, 1.0, 1.0, 1.0, 1.0, 1.0, 1.0, 1.0, 1.0, 1.0, 1.0, 1.0, 1.0, 1.0, 1.0, 1.0, 1.0, 1.0, 1.0, 1.0, 1.0, 1.0, 1.0, 1.0, 1.0, 1.0, 1.0, 1.0, 1.0, 1.0, 1.0, 1.0]

>  <TempFactor>  (495) 
[22.12, 29.54, 27.79, 22.79, 27.7, 25.48, 34.28, 30.31, 25.63, 28.02, 25.53, 25.12, 26.39, 27.1, 28.54, 27.02, 25.43, 21.61, 21.08, 22.98, 23.89, 22.26, 25.01, 26.4, 24.85, 30.29, 29.11, 33.7, 26.49, 36.07, 37.0, 35.62, 22.45, 21.88, 20.92, 29.67]

>  <accession>  (495) 
5DP5_A

>  <description>  (495) 
Chain A, 3C proteinase [Enterovirus A71]

>  <evalue>  (495) 
1.13719e-70

>  <pdb_code>  (495) 
5DP5

>  <chain>  (495) 
A

>  <ligands>  (495) 
[{'chain_id': 'A', 'author_residue_number': 201, 'author_insertion_code': '', 'chem_comp_id': '5E9', 'alternate_conformers': 0, 'entity_id': 2, 'struct_asym_id': 'B', 'residue_number': 1, 'chem_comp_name': 'ethyl (2Z,4S)-4-{[(2R,5S)-5-amino-2-(4-fluorobenzyl)-6-methyl-4-oxoheptanoyl]amino}-5-[(3S)-2-oxopyrrolidin-3-yl]pent-2-enoate', 'weight': 489.58, 'carbohydrate_polymer': False, 'branch_name': ''}]

>  <ligand_codes>  (495) 
['5E9']

>  <cofactor_codes>  (495) 
[]

>  <has_cofactor>  (495) 
False

>  <covalent>  (495) 
True

>  <base_name>  (495) 
5DP5

>  <lig_resn>  (495) 
5000000000

>  <lig_resi>  (495) 
201

>  <lig_chain>  (495) 
A

>  <lig_segi>  (495) 
B

>  <lig_alt>  (495) 


>  <polymer_chain>  (495) 
A

>  <single_smiles>  (495) 
CCOC(=O)\C=C/[C@H](C[C@@H]1CCNC1=O)NC(=O)[C@@H](CC(=O)[C@@H](N)C(C)C)Cc2ccc(F)cc2

$$$$
5E9P1S17
     RDKit          3D

 24 24  0  0  0  0  0  0  0  0999 V2000
   -7.6060    9.9880  -32.0610 C   0  0  0  0  0  0  0  0  0  0  0  0
   -7.6770   10.0790  -33.5580 C   0  0  1  0  0  0  0  0  0  0  0  0
   -8.1030    8.7640  -34.2130 C   0  0  0  0  0  0  0  0  0  0  0  0
   -8.6860   11.0770  -34.0170 N   0  0  0  0  0  0  0  0  0  0  0  0
   -9.7950    8.3550  -33.9060 R   0  0  0  0  0  0  0  0  0  0  0  0
   -8.2730   12.2270  -34.5900 C   0  0  0  0  0  0  0  0  0  0  0  0
   -9.3410   13.2140  -35.0270 C   0  0  2  0  0  0  0  0  0  0  0  0
   -7.0840   12.5120  -34.7360 O   0  0  0  0  0  0  0  0  0  0  0  0
   -9.5570   12.9440  -36.5080 C   0  0  0  0  0  0  0  0  0  0  0  0
   -8.9980   14.6950  -34.6930 C   0  0  0  0  0  0  0  0  0  0  0  0
  -10.6910   13.6950  -37.1830 C   0  0  0  0  0  0  0  0  0  0  0  0
   -8.6810   15.0160  -33.2280 C   0  0  0  0  0  0  0  0  0  0  0  0
  -10.3980   14.6980  -38.1120 C   0  0  0  0  0  0  0  0  0  0  0  0
  -12.0110   13.3850  -36.9280 C   0  0  0  0  0  0  0  0  0  0  0  0
   -8.6940   14.1780  -32.3210 O   0  0  0  0  0  0  0  0  0  0  0  0
   -8.2690   16.4470  -32.8570 C   0  0  1  0  0  0  0  0  0  0  0  0
  -11.4100   15.3950  -38.7580 C   0  0  0  0  0  0  0  0  0  0  0  0
  -13.0440   14.0840  -37.5690 C   0  0  0  0  0  0  0  0  0  0  0  0
   -8.2120   16.6720  -31.3740 N   0  0  0  0  0  0  0  0  0  0  0  0
   -6.8960   16.7890  -33.4690 C   0  0  0  0  0  0  0  0  0  0  0  0
  -12.7450   15.1100  -38.4840 C   0  0  0  0  0  0  0  0  0  0  0  0
   -6.4380   18.1830  -33.0660 C   0  0  0  0  0  0  0  0  0  0  0  0
   -5.8350   15.7520  -33.1000 C   0  0  0  0  0  0  0  0  0  0  0  0
  -13.7370   15.7770  -39.1250 F   0  0  0  0  0  0  0  0  0  0  0  0
  2  1  1  1
  2  3  1  0
  4  2  1  0
  3  5  1  0
  4  6  1  0
  7  6  1  0
  8  6  2  0
  7  9  1  6
  7 10  1  0
  9 11  1  0
 12 10  1  0
 11 13  2  0
 11 14  1  0
 12 15  2  0
 12 16  1  0
 13 17  1  0
 18 14  2  0
 16 19  1  1
 16 20  1  0
 17 21  2  0
 21 18  1  0
 20 22  1  0
 20 23  1  0
 21 24  1  0
V    5 *
A    2
 C10
A    4
 N  
A    5
 X  
A    6
 C17
A    7
 C2 
A    8
 O4 
A    9
 C3 
A   10
 C21
A   11
 C4 
A   12
 C  
A   13
 C5 
A   14
 C9 
A   15
 O  
A   16
 C20
A   17
 C6 
A   18
 C8 
A   19
 N2 
A   20
 C22
A   21
 C7 
A   22
 C23
A   23
 C24
A   24
 F1 
M  END
>  <XChem_code>  (496) 
5E9§1

>  <Occupancy>  (496) 
[1.0, 1.0, 1.0, 1.0, 1.0, 1.0, 1.0, 1.0, 1.0, 1.0, 1.0, 1.0, 1.0, 1.0, 1.0, 1.0, 1.0, 1.0, 1.0, 1.0, 1.0, 1.0, 1.0, 1.0, 1.0, 1.0, 1.0, 1.0, 1.0, 1.0, 1.0, 1.0, 1.0, 1.0, 1.0, 1.0]

>  <TempFactor>  (496) 
[22.12, 29.54, 27.79, 22.79, 27.7, 25.48, 34.28, 30.31, 25.63, 28.02, 25.53, 25.12, 26.39, 27.1, 28.54, 27.02, 25.43, 21.61, 21.08, 22.98, 23.89, 22.26, 25.01, 26.4, 24.85, 30.29, 29.11, 33.7, 26.49, 36.07, 37.0, 35.62, 22.45, 21.88, 20.92, 29.67]

>  <accession>  (496) 
5DP5_A

>  <description>  (496) 
Chain A, 3C proteinase [Enterovirus A71]

>  <evalue>  (496) 
1.13719e-70

>  <pdb_code>  (496) 
5DP5

>  <chain>  (496) 
A

>  <ligands>  (496) 
[{'chain_id': 'A', 'author_residue_number': 201, 'author_insertion_code': '', 'chem_comp_id': '5E9', 'alternate_conformers': 0, 'entity_id': 2, 'struct_asym_id': 'B', 'residue_number': 1, 'chem_comp_name': 'ethyl (2Z,4S)-4-{[(2R,5S)-5-amino-2-(4-fluorobenzyl)-6-methyl-4-oxoheptanoyl]amino}-5-[(3S)-2-oxopyrrolidin-3-yl]pent-2-enoate', 'weight': 489.58, 'carbohydrate_polymer': False, 'branch_name': ''}]

>  <ligand_codes>  (496) 
['5E9']

>  <cofactor_codes>  (496) 
[]

>  <has_cofactor>  (496) 
False

>  <covalent>  (496) 
True

>  <base_name>  (496) 
5DP5

>  <lig_resn>  (496) 
5000000000

>  <lig_resi>  (496) 
201

>  <lig_chain>  (496) 
A

>  <lig_segi>  (496) 
B

>  <lig_alt>  (496) 


>  <polymer_chain>  (496) 
A

>  <single_smiles>  (496) 
CCOC(=O)\C=C/[C@H](C[C@@H]1CCNC1=O)NC(=O)[C@@H](CC(=O)[C@@H](N)C(C)C)Cc2ccc(F)cc2

$$$$
5E9P1S18
     RDKit          3D

 23 23  0  0  0  0  0  0  0  0999 V2000
   -9.5570   12.9440  -36.5080 C   0  0  0  0  0  0  0  0  0  0  0  0
   -9.3410   13.2140  -35.0270 C   0  0  1  0  0  0  0  0  0  0  0  0
   -8.2730   12.2270  -34.5900 C   0  0  0  0  0  0  0  0  0  0  0  0
   -8.9980   14.6950  -34.6930 C   0  0  0  0  0  0  0  0  0  0  0  0
   -8.6860   11.0770  -34.0170 N   0  0  0  0  0  0  0  0  0  0  0  0
   -7.0840   12.5120  -34.7360 O   0  0  0  0  0  0  0  0  0  0  0  0
   -8.6810   15.0160  -33.2280 C   0  0  0  0  0  0  0  0  0  0  0  0
   -7.6770   10.0790  -33.5580 C   0  0  2  0  0  0  0  0  0  0  0  0
   -8.6940   14.1780  -32.3210 O   0  0  0  0  0  0  0  0  0  0  0  0
   -8.2690   16.4470  -32.8570 C   0  0  1  0  0  0  0  0  0  0  0  0
   -8.1030    8.7640  -34.2130 C   0  0  0  0  0  0  0  0  0  0  0  0
   -7.6060    9.9880  -32.0610 C   0  0  0  0  0  0  0  0  0  0  0  0
   -8.2120   16.6720  -31.3740 N   0  0  0  0  0  0  0  0  0  0  0  0
   -6.8960   16.7890  -33.4690 C   0  0  0  0  0  0  0  0  0  0  0  0
   -9.7950    8.3550  -33.9060 R   0  0  0  0  0  0  0  0  0  0  0  0
   -7.0900   11.2740  -31.3660 C   0  0  1  0  0  0  0  0  0  0  0  0
   -6.4380   18.1830  -33.0660 C   0  0  0  0  0  0  0  0  0  0  0  0
   -5.8350   15.7520  -33.1000 C   0  0  0  0  0  0  0  0  0  0  0  0
   -6.9280   11.0630  -29.8890 C   0  0  0  0  0  0  0  0  0  0  0  0
   -5.6970   11.7410  -31.7720 C   0  0  0  0  0  0  0  0  0  0  0  0
   -5.8400   11.7270  -29.4300 N   0  0  0  0  0  0  0  0  0  0  0  0
   -7.6850   10.3310  -29.2400 O   0  0  0  0  0  0  0  0  0  0  0  0
   -5.0120   12.2750  -30.4960 C   0  0  0  0  0  0  0  0  0  0  0  0
  2  1  1  6
  2  3  1  0
  2  4  1  0
  5  3  1  0
  6  3  2  0
  7  4  1  0
  5  8  1  0
  7  9  2  0
  7 10  1  0
  8 11  1  6
  8 12  1  0
 10 13  1  1
 10 14  1  0
 11 15  1  0
 16 12  1  6
 14 17  1  0
 14 18  1  0
 16 19  1  0
 16 20  1  0
 21 19  1  0
 22 19  2  0
 23 20  1  0
 21 23  1  0
V   15 *
A    2
 C2 
A    3
 C17
A    4
 C21
A    5
 N  
A    6
 O4 
A    7
 C  
A    8
 C10
A    9
 O  
A   10
 C20
A   12
 C11
A   13
 N2 
A   14
 C22
A   15
 X  
A   16
 C12
A   17
 C23
A   18
 C24
A   19
 C13
A   20
 C26
A   21
 N1 
A   22
 O1 
A   23
 C25
M  END
>  <XChem_code>  (497) 
5E9§1

>  <Occupancy>  (497) 
[1.0, 1.0, 1.0, 1.0, 1.0, 1.0, 1.0, 1.0, 1.0, 1.0, 1.0, 1.0, 1.0, 1.0, 1.0, 1.0, 1.0, 1.0, 1.0, 1.0, 1.0, 1.0, 1.0, 1.0, 1.0, 1.0, 1.0, 1.0, 1.0, 1.0, 1.0, 1.0, 1.0, 1.0, 1.0, 1.0]

>  <TempFactor>  (497) 
[22.12, 29.54, 27.79, 22.79, 27.7, 25.48, 34.28, 30.31, 25.63, 28.02, 25.53, 25.12, 26.39, 27.1, 28.54, 27.02, 25.43, 21.61, 21.08, 22.98, 23.89, 22.26, 25.01, 26.4, 24.85, 30.29, 29.11, 33.7, 26.49, 36.07, 37.0, 35.62, 22.45, 21.88, 20.92, 29.67]

>  <accession>  (497) 
5DP5_A

>  <description>  (497) 
Chain A, 3C proteinase [Enterovirus A71]

>  <evalue>  (497) 
1.13719e-70

>  <pdb_code>  (497) 
5DP5

>  <chain>  (497) 
A

>  <ligands>  (497) 
[{'chain_id': 'A', 'author_residue_number': 201, 'author_insertion_code': '', 'chem_comp_id': '5E9', 'alternate_conformers': 0, 'entity_id': 2, 'struct_asym_id': 'B', 'residue_number': 1, 'chem_comp_name': 'ethyl (2Z,4S)-4-{[(2R,5S)-5-amino-2-(4-fluorobenzyl)-6-methyl-4-oxoheptanoyl]amino}-5-[(3S)-2-oxopyrrolidin-3-yl]pent-2-enoate', 'weight': 489.58, 'carbohydrate_polymer': False, 'branch_name': ''}]

>  <ligand_codes>  (497) 
['5E9']

>  <cofactor_codes>  (497) 
[]

>  <has_cofactor>  (497) 
False

>  <covalent>  (497) 
True

>  <base_name>  (497) 
5DP5

>  <lig_resn>  (497) 
5000000000

>  <lig_resi>  (497) 
201

>  <lig_chain>  (497) 
A

>  <lig_segi>  (497) 
B

>  <lig_alt>  (497) 


>  <polymer_chain>  (497) 
A

>  <single_smiles>  (497) 
CCOC(=O)\C=C/[C@H](C[C@@H]1CCNC1=O)NC(=O)[C@@H](CC(=O)[C@@H](N)C(C)C)Cc2ccc(F)cc2

$$$$
5E9P1S19
     RDKit          3D

  5  4  0  0  0  0  0  0  0  0999 V2000
   -7.6060    9.9880  -32.0610 C   0  0  0  0  0  0  0  0  0  0  0  0
   -7.6770   10.0790  -33.5580 C   0  0  1  0  0  0  0  0  0  0  0  0
   -8.1030    8.7640  -34.2130 C   0  0  0  0  0  0  0  0  0  0  0  0
   -8.6860   11.0770  -34.0170 N   0  0  0  0  0  0  0  0  0  0  0  0
   -9.7950    8.3550  -33.9060 R   0  0  0  0  0  0  0  0  0  0  0  0
  2  1  1  1
  2  3  1  0
  4  2  1  0
  3  5  1  0
V    5 *
A    2
 C10
A    5
 X  
M  END
>  <XChem_code>  (498) 
5E9§1

>  <Occupancy>  (498) 
[1.0, 1.0, 1.0, 1.0, 1.0, 1.0, 1.0, 1.0, 1.0, 1.0, 1.0, 1.0, 1.0, 1.0, 1.0, 1.0, 1.0, 1.0, 1.0, 1.0, 1.0, 1.0, 1.0, 1.0, 1.0, 1.0, 1.0, 1.0, 1.0, 1.0, 1.0, 1.0, 1.0, 1.0, 1.0, 1.0]

>  <TempFactor>  (498) 
[22.12, 29.54, 27.79, 22.79, 27.7, 25.48, 34.28, 30.31, 25.63, 28.02, 25.53, 25.12, 26.39, 27.1, 28.54, 27.02, 25.43, 21.61, 21.08, 22.98, 23.89, 22.26, 25.01, 26.4, 24.85, 30.29, 29.11, 33.7, 26.49, 36.07, 37.0, 35.62, 22.45, 21.88, 20.92, 29.67]

>  <accession>  (498) 
5DP5_A

>  <description>  (498) 
Chain A, 3C proteinase [Enterovirus A71]

>  <evalue>  (498) 
1.13719e-70

>  <pdb_code>  (498) 
5DP5

>  <chain>  (498) 
A

>  <ligands>  (498) 
[{'chain_id': 'A', 'author_residue_number': 201, 'author_insertion_code': '', 'chem_comp_id': '5E9', 'alternate_conformers': 0, 'entity_id': 2, 'struct_asym_id': 'B', 'residue_number': 1, 'chem_comp_name': 'ethyl (2Z,4S)-4-{[(2R,5S)-5-amino-2-(4-fluorobenzyl)-6-methyl-4-oxoheptanoyl]amino}-5-[(3S)-2-oxopyrrolidin-3-yl]pent-2-enoate', 'weight': 489.58, 'carbohydrate_polymer': False, 'branch_name': ''}]

>  <ligand_codes>  (498) 
['5E9']

>  <cofactor_codes>  (498) 
[]

>  <has_cofactor>  (498) 
False

>  <covalent>  (498) 
True

>  <base_name>  (498) 
5DP5

>  <lig_resn>  (498) 
5000000000

>  <lig_resi>  (498) 
201

>  <lig_chain>  (498) 
A

>  <lig_segi>  (498) 
B

>  <lig_alt>  (498) 


>  <polymer_chain>  (498) 
A

>  <single_smiles>  (498) 
CCOC(=O)\C=C/[C@H](C[C@@H]1CCNC1=O)NC(=O)[C@@H](CC(=O)[C@@H](N)C(C)C)Cc2ccc(F)cc2

$$$$
5E9P1S20
     RDKit          3D

  4  3  0  0  0  0  0  0  0  0999 V2000
   -7.6060    9.9880  -32.0610 C   0  0  0  0  0  0  0  0  0  0  0  0
   -7.6770   10.0790  -33.5580 C   0  0  0  0  0  0  0  0  0  0  0  0
   -8.1030    8.7640  -34.2130 C   0  0  0  0  0  0  0  0  0  0  0  0
   -9.7950    8.3550  -33.9060 R   0  0  0  0  0  0  0  0  0  0  0  0
  2  1  1  6
  2  3  1  0
  3  4  1  0
V    4 *
A    4
 X  
M  END
>  <XChem_code>  (499) 
5E9§1

>  <Occupancy>  (499) 
[1.0, 1.0, 1.0, 1.0, 1.0, 1.0, 1.0, 1.0, 1.0, 1.0, 1.0, 1.0, 1.0, 1.0, 1.0, 1.0, 1.0, 1.0, 1.0, 1.0, 1.0, 1.0, 1.0, 1.0, 1.0, 1.0, 1.0, 1.0, 1.0, 1.0, 1.0, 1.0, 1.0, 1.0, 1.0, 1.0]

>  <TempFactor>  (499) 
[22.12, 29.54, 27.79, 22.79, 27.7, 25.48, 34.28, 30.31, 25.63, 28.02, 25.53, 25.12, 26.39, 27.1, 28.54, 27.02, 25.43, 21.61, 21.08, 22.98, 23.89, 22.26, 25.01, 26.4, 24.85, 30.29, 29.11, 33.7, 26.49, 36.07, 37.0, 35.62, 22.45, 21.88, 20.92, 29.67]

>  <accession>  (499) 
5DP5_A

>  <description>  (499) 
Chain A, 3C proteinase [Enterovirus A71]

>  <evalue>  (499) 
1.13719e-70

>  <pdb_code>  (499) 
5DP5

>  <chain>  (499) 
A

>  <ligands>  (499) 
[{'chain_id': 'A', 'author_residue_number': 201, 'author_insertion_code': '', 'chem_comp_id': '5E9', 'alternate_conformers': 0, 'entity_id': 2, 'struct_asym_id': 'B', 'residue_number': 1, 'chem_comp_name': 'ethyl (2Z,4S)-4-{[(2R,5S)-5-amino-2-(4-fluorobenzyl)-6-methyl-4-oxoheptanoyl]amino}-5-[(3S)-2-oxopyrrolidin-3-yl]pent-2-enoate', 'weight': 489.58, 'carbohydrate_polymer': False, 'branch_name': ''}]

>  <ligand_codes>  (499) 
['5E9']

>  <cofactor_codes>  (499) 
[]

>  <has_cofactor>  (499) 
False

>  <covalent>  (499) 
True

>  <base_name>  (499) 
5DP5

>  <lig_resn>  (499) 
5000000000

>  <lig_resi>  (499) 
201

>  <lig_chain>  (499) 
A

>  <lig_segi>  (499) 
B

>  <lig_alt>  (499) 


>  <polymer_chain>  (499) 
A

>  <single_smiles>  (499) 
CCOC(=O)\C=C/[C@H](C[C@@H]1CCNC1=O)NC(=O)[C@@H](CC(=O)[C@@H](N)C(C)C)Cc2ccc(F)cc2

$$$$
5E9P1S21
     RDKit          3D

 23 22  0  0  0  0  0  0  0  0999 V2000
   -9.5570   12.9440  -36.5080 C   0  0  0  0  0  0  0  0  0  0  0  0
   -9.3410   13.2140  -35.0270 C   0  0  1  0  0  0  0  0  0  0  0  0
   -8.2730   12.2270  -34.5900 C   0  0  0  0  0  0  0  0  0  0  0  0
   -8.9980   14.6950  -34.6930 C   0  0  0  0  0  0  0  0  0  0  0  0
   -8.6860   11.0770  -34.0170 N   0  0  0  0  0  0  0  0  0  0  0  0
   -7.0840   12.5120  -34.7360 O   0  0  0  0  0  0  0  0  0  0  0  0
   -8.6810   15.0160  -33.2280 C   0  0  0  0  0  0  0  0  0  0  0  0
   -7.6770   10.0790  -33.5580 C   0  0  1  0  0  0  0  0  0  0  0  0
   -8.6940   14.1780  -32.3210 O   0  0  0  0  0  0  0  0  0  0  0  0
   -8.2690   16.4470  -32.8570 C   0  0  1  0  0  0  0  0  0  0  0  0
   -7.6060    9.9880  -32.0610 C   0  0  0  0  0  0  0  0  0  0  0  0
   -8.1030    8.7640  -34.2130 C   0  0  0  0  0  0  0  0  0  0  0  0
   -8.2120   16.6720  -31.3740 N   0  0  0  0  0  0  0  0  0  0  0  0
   -6.8960   16.7890  -33.4690 C   0  0  0  0  0  0  0  0  0  0  0  0
   -7.8720    8.8940  -35.7110 C   0  0  0  0  0  0  0  0  0  0  0  0
   -9.7950    8.3550  -33.9060 R   0  0  0  0  0  0  0  0  0  0  0  0
   -6.4380   18.1830  -33.0660 C   0  0  0  0  0  0  0  0  0  0  0  0
   -5.8350   15.7520  -33.1000 C   0  0  0  0  0  0  0  0  0  0  0  0
   -6.4110    9.0680  -36.0560 C   0  0  0  0  0  0  0  0  0  0  0  0
   -6.0430   10.0350  -37.0530 O   0  0  0  0  0  0  0  0  0  0  0  0
   -5.5150    8.4070  -35.5500 O   0  0  0  0  0  0  0  0  0  0  0  0
   -5.0600    9.5580  -37.9640 C   0  0  0  0  0  0  0  0  0  0  0  0
   -5.6800    8.4450  -38.8020 C   0  0  0  0  0  0  0  0  0  0  0  0
  2  1  1  6
  2  3  1  0
  2  4  1  0
  5  3  1  0
  6  3  2  0
  7  4  1  0
  5  8  1  0
  7  9  2  0
  7 10  1  0
  8 11  1  1
  8 12  1  0
 10 13  1  1
 10 14  1  0
 12 15  2  3
 12 16  1  0
 14 17  1  0
 14 18  1  0
 15 19  1  0
 20 19  1  0
 21 19  2  0
 20 22  1  0
 22 23  1  0
V   16 *
A    2
 C2 
A    3
 C17
A    4
 C21
A    5
 N  
A    6
 O4 
A    7
 C  
A    8
 C10
A    9
 O  
A   10
 C20
A   12
 C14
A   13
 N2 
A   14
 C22
A   15
 C15
A   16
 X  
A   17
 C23
A   18
 C24
A   19
 C16
A   20
 O2 
A   21
 O3 
A   22
 C18
A   23
 C19
M  END
>  <XChem_code>  (500) 
5E9§1

>  <Occupancy>  (500) 
[1.0, 1.0, 1.0, 1.0, 1.0, 1.0, 1.0, 1.0, 1.0, 1.0, 1.0, 1.0, 1.0, 1.0, 1.0, 1.0, 1.0, 1.0, 1.0, 1.0, 1.0, 1.0, 1.0, 1.0, 1.0, 1.0, 1.0, 1.0, 1.0, 1.0, 1.0, 1.0, 1.0, 1.0, 1.0, 1.0]

>  <TempFactor>  (500) 
[22.12, 29.54, 27.79, 22.79, 27.7, 25.48, 34.28, 30.31, 25.63, 28.02, 25.53, 25.12, 26.39, 27.1, 28.54, 27.02, 25.43, 21.61, 21.08, 22.98, 23.89, 22.26, 25.01, 26.4, 24.85, 30.29, 29.11, 33.7, 26.49, 36.07, 37.0, 35.62, 22.45, 21.88, 20.92, 29.67]

>  <accession>  (500) 
5DP5_A

>  <description>  (500) 
Chain A, 3C proteinase [Enterovirus A71]

>  <evalue>  (500) 
1.13719e-70

>  <pdb_code>  (500) 
5DP5

>  <chain>  (500) 
A

>  <ligands>  (500) 
[{'chain_id': 'A', 'author_residue_number': 201, 'author_insertion_code': '', 'chem_comp_id': '5E9', 'alternate_conformers': 0, 'entity_id': 2, 'struct_asym_id': 'B', 'residue_number': 1, 'chem_comp_name': 'ethyl (2Z,4S)-4-{[(2R,5S)-5-amino-2-(4-fluorobenzyl)-6-methyl-4-oxoheptanoyl]amino}-5-[(3S)-2-oxopyrrolidin-3-yl]pent-2-enoate', 'weight': 489.58, 'carbohydrate_polymer': False, 'branch_name': ''}]

>  <ligand_codes>  (500) 
['5E9']

>  <cofactor_codes>  (500) 
[]

>  <has_cofactor>  (500) 
False

>  <covalent>  (500) 
True

>  <base_name>  (500) 
5DP5

>  <lig_resn>  (500) 
5000000000

>  <lig_resi>  (500) 
201

>  <lig_chain>  (500) 
A

>  <lig_segi>  (500) 
B

>  <lig_alt>  (500) 


>  <polymer_chain>  (500) 
A

>  <single_smiles>  (500) 
CCOC(=O)\C=C/[C@H](C[C@@H]1CCNC1=O)NC(=O)[C@@H](CC(=O)[C@@H](N)C(C)C)Cc2ccc(F)cc2

$$$$
5E9P1S22
     RDKit          3D

 17 16  0  0  0  0  0  0  0  0999 V2000
   -9.5570   12.9440  -36.5080 C   0  0  0  0  0  0  0  0  0  0  0  0
   -9.3410   13.2140  -35.0270 C   0  0  1  0  0  0  0  0  0  0  0  0
   -8.2730   12.2270  -34.5900 C   0  0  0  0  0  0  0  0  0  0  0  0
   -8.9980   14.6950  -34.6930 C   0  0  0  0  0  0  0  0  0  0  0  0
   -8.6860   11.0770  -34.0170 N   0  0  0  0  0  0  0  0  0  0  0  0
   -7.0840   12.5120  -34.7360 O   0  0  0  0  0  0  0  0  0  0  0  0
   -8.6810   15.0160  -33.2280 C   0  0  0  0  0  0  0  0  0  0  0  0
   -7.6770   10.0790  -33.5580 C   0  0  1  0  0  0  0  0  0  0  0  0
   -8.6940   14.1780  -32.3210 O   0  0  0  0  0  0  0  0  0  0  0  0
   -8.2690   16.4470  -32.8570 C   0  0  1  0  0  0  0  0  0  0  0  0
   -7.6060    9.9880  -32.0610 C   0  0  0  0  0  0  0  0  0  0  0  0
   -8.1030    8.7640  -34.2130 C   0  0  0  0  0  0  0  0  0  0  0  0
   -8.2120   16.6720  -31.3740 N   0  0  0  0  0  0  0  0  0  0  0  0
   -6.8960   16.7890  -33.4690 C   0  0  0  0  0  0  0  0  0  0  0  0
   -9.7950    8.3550  -33.9060 R   0  0  0  0  0  0  0  0  0  0  0  0
   -6.4380   18.1830  -33.0660 C   0  0  0  0  0  0  0  0  0  0  0  0
   -5.8350   15.7520  -33.1000 C   0  0  0  0  0  0  0  0  0  0  0  0
  2  1  1  6
  2  3  1  0
  2  4  1  0
  5  3  1  0
  6  3  2  0
  7  4  1  0
  5  8  1  0
  7  9  2  0
  7 10  1  0
  8 11  1  1
  8 12  1  0
 10 13  1  1
 10 14  1  0
 12 15  1  0
 14 16  1  0
 14 17  1  0
V   15 *
A    2
 C2 
A    3
 C17
A    4
 C21
A    5
 N  
A    6
 O4 
A    7
 C  
A    8
 C10
A    9
 O  
A   10
 C20
A   13
 N2 
A   14
 C22
A   15
 X  
A   16
 C23
A   17
 C24
M  END
>  <XChem_code>  (501) 
5E9§1

>  <Occupancy>  (501) 
[1.0, 1.0, 1.0, 1.0, 1.0, 1.0, 1.0, 1.0, 1.0, 1.0, 1.0, 1.0, 1.0, 1.0, 1.0, 1.0, 1.0, 1.0, 1.0, 1.0, 1.0, 1.0, 1.0, 1.0, 1.0, 1.0, 1.0, 1.0, 1.0, 1.0, 1.0, 1.0, 1.0, 1.0, 1.0, 1.0]

>  <TempFactor>  (501) 
[22.12, 29.54, 27.79, 22.79, 27.7, 25.48, 34.28, 30.31, 25.63, 28.02, 25.53, 25.12, 26.39, 27.1, 28.54, 27.02, 25.43, 21.61, 21.08, 22.98, 23.89, 22.26, 25.01, 26.4, 24.85, 30.29, 29.11, 33.7, 26.49, 36.07, 37.0, 35.62, 22.45, 21.88, 20.92, 29.67]

>  <accession>  (501) 
5DP5_A

>  <description>  (501) 
Chain A, 3C proteinase [Enterovirus A71]

>  <evalue>  (501) 
1.13719e-70

>  <pdb_code>  (501) 
5DP5

>  <chain>  (501) 
A

>  <ligands>  (501) 
[{'chain_id': 'A', 'author_residue_number': 201, 'author_insertion_code': '', 'chem_comp_id': '5E9', 'alternate_conformers': 0, 'entity_id': 2, 'struct_asym_id': 'B', 'residue_number': 1, 'chem_comp_name': 'ethyl (2Z,4S)-4-{[(2R,5S)-5-amino-2-(4-fluorobenzyl)-6-methyl-4-oxoheptanoyl]amino}-5-[(3S)-2-oxopyrrolidin-3-yl]pent-2-enoate', 'weight': 489.58, 'carbohydrate_polymer': False, 'branch_name': ''}]

>  <ligand_codes>  (501) 
['5E9']

>  <cofactor_codes>  (501) 
[]

>  <has_cofactor>  (501) 
False

>  <covalent>  (501) 
True

>  <base_name>  (501) 
5DP5

>  <lig_resn>  (501) 
5000000000

>  <lig_resi>  (501) 
201

>  <lig_chain>  (501) 
A

>  <lig_segi>  (501) 
B

>  <lig_alt>  (501) 


>  <polymer_chain>  (501) 
A

>  <single_smiles>  (501) 
CCOC(=O)\C=C/[C@H](C[C@@H]1CCNC1=O)NC(=O)[C@@H](CC(=O)[C@@H](N)C(C)C)Cc2ccc(F)cc2

$$$$
AG7P11
     RDKit          3D

 43 45  0  0  0  0  0  0  0  0999 V2000
   -8.8720   15.0590  -33.3180 C   0  0  0  0  0  0  0  0  0  0  0  0
  -10.4440   17.9520  -29.9660 C   0  0  0  0  0  0  0  0  0  0  0  0
   -9.1810   14.8030  -34.8550 C   0  0  0  0  0  0  0  0  0  0  0  0
  -11.4110   18.8010  -29.4820 C   0  0  0  0  0  0  0  0  0  0  0  0
  -11.4910   18.5870  -28.1420 C   0  0  0  0  0  0  0  0  0  0  0  0
   -9.0100   14.2010  -32.4750 O   0  0  0  0  0  0  0  0  0  0  0  0
   -9.5290   13.3210  -35.1020 C   0  0  1  0  0  0  0  0  0  0  0  0
  -12.4230   19.2850  -27.1830 C   0  0  0  0  0  0  0  0  0  0  0  0
  -10.5980   17.6410  -27.8030 O   0  0  0  0  0  0  0  0  0  0  0  0
   -9.8470   13.1350  -36.6200 C   0  0  0  0  0  0  0  0  0  0  0  0
   -9.9480   17.2570  -28.9540 N   0  0  0  0  0  0  0  0  0  0  0  0
  -11.3050   13.7450  -36.8440 C   0  0  0  0  0  0  0  0  0  0  0  0
  -11.4560   14.8940  -37.6190 C   0  0  0  0  0  0  0  0  0  0  0  0
  -12.7230   15.4330  -37.8170 C   0  0  0  0  0  0  0  0  0  0  0  0
  -13.8400   14.8240  -37.2230 C   0  0  0  0  0  0  0  0  0  0  0  0
  -13.6950   13.6860  -36.4410 C   0  0  0  0  0  0  0  0  0  0  0  0
  -12.4130   13.1380  -36.2460 C   0  0  0  0  0  0  0  0  0  0  0  0
   -8.6990   11.1710  -34.0830 N   0  0  0  0  0  0  0  0  0  0  0  0
   -7.4890   10.3990  -33.7670 C   0  0  1  0  0  0  0  0  0  0  0  0
   -7.5780   10.0040  -32.2880 C   0  0  0  0  0  0  0  0  0  0  0  0
   -7.0990   11.3020  -31.5750 C   0  0  1  0  0  0  0  0  0  0  0  0
   -7.0230   11.0800  -29.9920 C   0  0  0  0  0  0  0  0  0  0  0  0
   -6.0040   11.8370  -29.5430 N   0  0  0  0  0  0  0  0  0  0  0  0
   -7.7390   10.4060  -29.3120 O   0  0  0  0  0  0  0  0  0  0  0  0
   -7.1540    9.1680  -34.5770 C   0  0  0  0  0  0  0  0  0  0  0  0
   -7.7230    9.1470  -35.9980 C   0  0  0  0  0  0  0  0  0  0  0  0
   -6.3230    9.0840  -36.5380 C   0  0  0  0  0  0  0  0  0  0  0  0
   -5.9850    9.6770  -37.7640 O   0  0  0  0  0  0  0  0  0  0  0  0
   -5.5070    8.5210  -35.8520 O   0  0  0  0  0  0  0  0  0  0  0  0
   -8.3810   12.4340  -34.7380 C   0  0  0  0  0  0  0  0  0  0  0  0
   -7.2420   12.6600  -34.9610 O   0  0  0  0  0  0  0  0  0  0  0  0
   -5.1320    8.8350  -38.5250 C   0  0  0  0  0  0  0  0  0  0  0  0
   -5.9370    8.4030  -39.7220 C   0  0  0  0  0  0  0  0  0  0  0  0
   -8.3700   16.4840  -32.8990 C   0  0  1  0  0  0  0  0  0  0  0  0
   -8.9490   16.7850  -31.6390 N   0  0  0  0  0  0  0  0  0  0  0  0
   -9.9620   17.8050  -31.4360 C   0  0  0  0  0  0  0  0  0  0  0  0
  -10.3840   18.4690  -32.3160 O   0  0  0  0  0  0  0  0  0  0  0  0
   -6.8180   16.5090  -32.7420 C   0  0  0  0  0  0  0  0  0  0  0  0
   -6.0760   16.0030  -34.0320 C   0  0  0  0  0  0  0  0  0  0  0  0
   -6.4180   17.9810  -32.4960 C   0  0  0  0  0  0  0  0  0  0  0  0
   -5.3380   12.5560  -30.7120 C   0  0  0  0  0  0  0  0  0  0  0  0
   -5.8440   11.7210  -31.9680 C   0  0  0  0  0  0  0  0  0  0  0  0
  -15.0840   15.3590  -37.4180 F   0  0  0  0  0  0  0  0  0  0  0  0
  1  3  1  0
  1  6  2  0
  1 34  1  0
  2  4  1  0
  2 11  2  0
  2 36  1  0
  7  3  1  6
  4  5  2  0
  5  8  1  0
  5  9  1  0
  7 10  1  0
  7 30  1  0
  9 11  1  0
 10 12  1  0
 12 13  2  0
 12 17  1  0
 13 14  1  0
 14 15  2  0
 15 16  1  0
 15 43  1  0
 16 17  2  0
 18 19  1  0
 18 30  1  0
 19 20  1  1
 19 25  1  0
 21 20  1  6
 21 22  1  0
 21 42  1  0
 22 23  1  0
 22 24  2  0
 23 41  1  0
 25 26  1  0
 26 27  1  0
 27 28  1  0
 27 29  2  0
 28 32  1  0
 30 31  2  0
 32 33  1  0
 34 35  1  1
 34 38  1  0
 35 36  1  0
 36 37  2  0
 38 39  1  0
 38 40  1  0
 41 42  1  0
A    1
 C01
A    2
 C1 
A    3
 C02
A    4
 C2 
A    5
 C3 
A    6
 O03
A    7
 C04
A    8
 C4 
A    9
 O4 
A   10
 C05
A   11
 N5 
A   12
 C06
A   13
 C07
A   14
 C08
A   15
 C09
A   16
 C10
A   17
 C11
A   18
 N12
A   19
 C13
A   20
 C14
A   21
 C15
A   22
 C16
A   23
 N17
A   24
 O18
A   25
 C19
A   26
 C20
A   27
 C21
A   28
 O22
A   29
 O23
A   30
 C47
A   31
 O48
A   32
 C50
A   33
 C53
A   34
 C57
A   35
 N58
A   36
 C59
A   37
 O60
A   38
 C78
A   39
 C81
A   40
 C82
A   41
 C83
A   42
 C84
A   43
 F1 
M  END
>  <XChem_code>  (502) 
AG7§11

>  <Occupancy>  (502) 
[1.0, 1.0, 1.0, 1.0, 1.0, 1.0, 1.0, 1.0, 1.0, 1.0, 1.0, 1.0, 1.0, 1.0, 1.0, 1.0, 1.0, 1.0, 1.0, 1.0, 1.0, 1.0, 1.0, 1.0, 1.0, 1.0, 1.0, 1.0, 1.0, 1.0, 1.0, 1.0, 1.0, 1.0, 1.0, 1.0, 1.0, 1.0, 1.0, 1.0, 1.0, 1.0, 1.0]

>  <TempFactor>  (502) 
[11.58, 15.03, 11.83, 16.25, 16.92, 12.34, 10.54, 20.22, 18.19, 14.53, 16.52, 20.55, 23.87, 20.72, 31.66, 32.21, 24.48, 11.55, 13.92, 10.24, 11.44, 10.75, 11.87, 10.52, 48.42, 14.67, 18.9, 51.51, 20.99, 12.24, 12.71, 37.77, 32.69, 13.62, 12.02, 16.3, 16.59, 14.61, 20.42, 22.35, 13.24, 10.96, 27.55]

>  <accession>  (502) 
5HXF_A

>  <description>  (502) 
Chain A, 3C protease [Enterovirus A71]

>  <evalue>  (502) 
1.33118e-69

>  <pdb_code>  (502) 
5HXF

>  <chain>  (502) 
A

>  <ligands>  (502) 
[{'chain_id': 'A', 'author_residue_number': 201, 'author_insertion_code': '', 'chem_comp_id': 'AG7', 'alternate_conformers': 0, 'entity_id': 2, 'struct_asym_id': 'B', 'residue_number': 1, 'chem_comp_name': '4-{2-(4-FLUORO-BENZYL)-6-METHYL-5-[(5-METHYL-ISOXAZOLE-3-CARBONYL)-AMINO]-4-OXO-HEPTANOYLAMINO}-5-(2-OXO-PYRROLIDIN-3-YL)-PENTANOIC ACID ETHYL ESTER', 'weight': 600.678, 'carbohydrate_polymer': False, 'branch_name': ''}, {'chain_id': 'A', 'author_residue_number': 202, 'author_insertion_code': '', 'chem_comp_id': 'SO4', 'alternate_conformers': 0, 'entity_id': 3, 'struct_asym_id': 'C', 'residue_number': 1, 'chem_comp_name': 'SULFATE ION', 'weight': 96.063, 'carbohydrate_polymer': False, 'branch_name': ''}, {'chain_id': 'A', 'author_residue_number': 203, 'author_insertion_code': '', 'chem_comp_id': 'SO4', 'alternate_conformers': 0, 'entity_id': 3, 'struct_asym_id': 'D', 'residue_number': 1, 'chem_comp_name': 'SULFATE ION', 'weight': 96.063, 'carbohydrate_polymer': False, 'branch_name': ''}]

>  <ligand_codes>  (502) 
['AG7', 'SO4', 'SO4']

>  <cofactor_codes>  (502) 
[]

>  <has_cofactor>  (502) 
False

>  <covalent>  (502) 
False

>  <base_name>  (502) 
5HXF

>  <lig_resn>  (502) 
AG7

>  <lig_resi>  (502) 
201

>  <lig_chain>  (502) 
A

>  <lig_segi>  (502) 
B

>  <lig_alt>  (502) 


>  <polymer_chain>  (502) 
A

>  <single_smiles>  (502) 
CCOC(=O)CC[C@H](C[C@@H]1CCNC1=O)NC(=O)[C@@H](CC(=O)[C@@H](NC(=O)c2cc(C)on2)C(C)C)Cc3ccc(F)cc3

$$$$
AG7P11S1
     RDKit          3D

 16 16  0  0  0  0  0  0  0  0999 V2000
   -8.6990   11.1710  -34.0830 N   0  0  0  0  0  0  0  0  0  0  0  0
   -7.4890   10.3990  -33.7670 C   0  0  1  0  0  0  0  0  0  0  0  0
   -7.5780   10.0040  -32.2880 C   0  0  0  0  0  0  0  0  0  0  0  0
   -7.1540    9.1680  -34.5770 C   0  0  0  0  0  0  0  0  0  0  0  0
   -7.0990   11.3020  -31.5750 C   0  0  1  0  0  0  0  0  0  0  0  0
   -7.7230    9.1470  -35.9980 C   0  0  0  0  0  0  0  0  0  0  0  0
   -7.0230   11.0800  -29.9920 C   0  0  0  0  0  0  0  0  0  0  0  0
   -5.8440   11.7210  -31.9680 C   0  0  0  0  0  0  0  0  0  0  0  0
   -6.3230    9.0840  -36.5380 C   0  0  0  0  0  0  0  0  0  0  0  0
   -6.0040   11.8370  -29.5430 N   0  0  0  0  0  0  0  0  0  0  0  0
   -7.7390   10.4060  -29.3120 O   0  0  0  0  0  0  0  0  0  0  0  0
   -5.3380   12.5560  -30.7120 C   0  0  0  0  0  0  0  0  0  0  0  0
   -5.9850    9.6770  -37.7640 O   0  0  0  0  0  0  0  0  0  0  0  0
   -5.5070    8.5210  -35.8520 O   0  0  0  0  0  0  0  0  0  0  0  0
   -5.1320    8.8350  -38.5250 C   0  0  0  0  0  0  0  0  0  0  0  0
   -5.9370    8.4030  -39.7220 C   0  0  0  0  0  0  0  0  0  0  0  0
  2  1  1  6
  2  3  1  0
  2  4  1  0
  5  3  1  6
  4  6  1  0
  5  7  1  0
  5  8  1  0
  6  9  1  0
  7 10  1  0
  7 11  2  0
 12  8  1  0
  9 13  1  0
  9 14  2  0
 10 12  1  0
 13 15  1  0
 15 16  1  0
A    2
 C13
A    3
 C14
A    4
 C19
A    5
 C15
A    6
 C20
A    7
 C16
A    8
 C84
A    9
 C21
A   10
 N17
A   11
 O18
A   12
 C83
A   13
 O22
A   14
 O23
A   15
 C50
A   16
 C53
M  END
>  <XChem_code>  (503) 
AG7§11

>  <Occupancy>  (503) 
[1.0, 1.0, 1.0, 1.0, 1.0, 1.0, 1.0, 1.0, 1.0, 1.0, 1.0, 1.0, 1.0, 1.0, 1.0, 1.0, 1.0, 1.0, 1.0, 1.0, 1.0, 1.0, 1.0, 1.0, 1.0, 1.0, 1.0, 1.0, 1.0, 1.0, 1.0, 1.0, 1.0, 1.0, 1.0, 1.0, 1.0, 1.0, 1.0, 1.0, 1.0, 1.0, 1.0]

>  <TempFactor>  (503) 
[11.58, 15.03, 11.83, 16.25, 16.92, 12.34, 10.54, 20.22, 18.19, 14.53, 16.52, 20.55, 23.87, 20.72, 31.66, 32.21, 24.48, 11.55, 13.92, 10.24, 11.44, 10.75, 11.87, 10.52, 48.42, 14.67, 18.9, 51.51, 20.99, 12.24, 12.71, 37.77, 32.69, 13.62, 12.02, 16.3, 16.59, 14.61, 20.42, 22.35, 13.24, 10.96, 27.55]

>  <accession>  (503) 
5HXF_A

>  <description>  (503) 
Chain A, 3C protease [Enterovirus A71]

>  <evalue>  (503) 
1.33118e-69

>  <pdb_code>  (503) 
5HXF

>  <chain>  (503) 
A

>  <ligands>  (503) 
[{'chain_id': 'A', 'author_residue_number': 201, 'author_insertion_code': '', 'chem_comp_id': 'AG7', 'alternate_conformers': 0, 'entity_id': 2, 'struct_asym_id': 'B', 'residue_number': 1, 'chem_comp_name': '4-{2-(4-FLUORO-BENZYL)-6-METHYL-5-[(5-METHYL-ISOXAZOLE-3-CARBONYL)-AMINO]-4-OXO-HEPTANOYLAMINO}-5-(2-OXO-PYRROLIDIN-3-YL)-PENTANOIC ACID ETHYL ESTER', 'weight': 600.678, 'carbohydrate_polymer': False, 'branch_name': ''}, {'chain_id': 'A', 'author_residue_number': 202, 'author_insertion_code': '', 'chem_comp_id': 'SO4', 'alternate_conformers': 0, 'entity_id': 3, 'struct_asym_id': 'C', 'residue_number': 1, 'chem_comp_name': 'SULFATE ION', 'weight': 96.063, 'carbohydrate_polymer': False, 'branch_name': ''}, {'chain_id': 'A', 'author_residue_number': 203, 'author_insertion_code': '', 'chem_comp_id': 'SO4', 'alternate_conformers': 0, 'entity_id': 3, 'struct_asym_id': 'D', 'residue_number': 1, 'chem_comp_name': 'SULFATE ION', 'weight': 96.063, 'carbohydrate_polymer': False, 'branch_name': ''}]

>  <ligand_codes>  (503) 
['AG7', 'SO4', 'SO4']

>  <cofactor_codes>  (503) 
[]

>  <has_cofactor>  (503) 
False

>  <covalent>  (503) 
False

>  <base_name>  (503) 
5HXF

>  <lig_resn>  (503) 
AG7

>  <lig_resi>  (503) 
201

>  <lig_chain>  (503) 
A

>  <lig_segi>  (503) 
B

>  <lig_alt>  (503) 


>  <polymer_chain>  (503) 
A

>  <single_smiles>  (503) 
CCOC(=O)CC[C@H](C[C@@H]1CCNC1=O)NC(=O)[C@@H](CC(=O)[C@@H](NC(=O)c2cc(C)on2)C(C)C)Cc3ccc(F)cc3

$$$$
AG7P11S2
     RDKit          3D

 27 28  0  0  0  0  0  0  0  0999 V2000
   -8.3810   12.4340  -34.7380 C   0  0  0  0  0  0  0  0  0  0  0  0
   -9.5290   13.3210  -35.1020 C   0  0  1  0  0  0  0  0  0  0  0  0
   -7.2420   12.6600  -34.9610 O   0  0  0  0  0  0  0  0  0  0  0  0
   -9.1810   14.8030  -34.8550 C   0  0  0  0  0  0  0  0  0  0  0  0
   -9.8470   13.1350  -36.6200 C   0  0  0  0  0  0  0  0  0  0  0  0
   -8.8720   15.0590  -33.3180 C   0  0  0  0  0  0  0  0  0  0  0  0
  -11.3050   13.7450  -36.8440 C   0  0  0  0  0  0  0  0  0  0  0  0
   -9.0100   14.2010  -32.4750 O   0  0  0  0  0  0  0  0  0  0  0  0
   -8.3700   16.4840  -32.8990 C   0  0  1  0  0  0  0  0  0  0  0  0
  -11.4560   14.8940  -37.6190 C   0  0  0  0  0  0  0  0  0  0  0  0
  -12.4130   13.1380  -36.2460 C   0  0  0  0  0  0  0  0  0  0  0  0
   -8.9490   16.7850  -31.6390 N   0  0  0  0  0  0  0  0  0  0  0  0
   -6.8180   16.5090  -32.7420 C   0  0  0  0  0  0  0  0  0  0  0  0
  -12.7230   15.4330  -37.8170 C   0  0  0  0  0  0  0  0  0  0  0  0
  -13.6950   13.6860  -36.4410 C   0  0  0  0  0  0  0  0  0  0  0  0
   -9.9620   17.8050  -31.4360 C   0  0  0  0  0  0  0  0  0  0  0  0
   -6.0760   16.0030  -34.0320 C   0  0  0  0  0  0  0  0  0  0  0  0
   -6.4180   17.9810  -32.4960 C   0  0  0  0  0  0  0  0  0  0  0  0
  -13.8400   14.8240  -37.2230 C   0  0  0  0  0  0  0  0  0  0  0  0
  -10.4440   17.9520  -29.9660 C   0  0  0  0  0  0  0  0  0  0  0  0
  -10.3840   18.4690  -32.3160 O   0  0  0  0  0  0  0  0  0  0  0  0
  -15.0840   15.3590  -37.4180 F   0  0  0  0  0  0  0  0  0  0  0  0
  -11.4110   18.8010  -29.4820 C   0  0  0  0  0  0  0  0  0  0  0  0
   -9.9480   17.2570  -28.9540 N   0  0  0  0  0  0  0  0  0  0  0  0
  -11.4910   18.5870  -28.1420 C   0  0  0  0  0  0  0  0  0  0  0  0
  -10.5980   17.6410  -27.8030 O   0  0  0  0  0  0  0  0  0  0  0  0
  -12.4230   19.2850  -27.1830 C   0  0  0  0  0  0  0  0  0  0  0  0
  2  1  1  0
  1  3  2  0
  2  4  1  6
  2  5  1  0
  6  4  1  0
  5  7  1  0
  6  8  2  0
  6  9  1  0
  7 10  2  0
  7 11  1  0
  9 12  1  1
  9 13  1  0
 10 14  1  0
 15 11  2  0
 12 16  1  0
 13 17  1  0
 13 18  1  0
 14 19  2  0
 19 15  1  0
 20 16  1  0
 16 21  2  0
 19 22  1  0
 20 23  1  0
 20 24  2  0
 23 25  2  0
 26 24  1  0
 25 27  1  0
 25 26  1  0
A    2
 C04
A    3
 O48
A    4
 C02
A    5
 C05
A    6
 C01
A    7
 C06
A    8
 O03
A    9
 C57
A   10
 C07
A   11
 C11
A   12
 N58
A   13
 C78
A   14
 C08
A   15
 C10
A   16
 C59
A   17
 C81
A   18
 C82
A   19
 C09
A   20
 C1 
A   21
 O60
A   22
 F1 
A   23
 C2 
A   24
 N5 
A   25
 C3 
A   26
 O4 
A   27
 C4 
M  END
>  <XChem_code>  (504) 
AG7§11

>  <Occupancy>  (504) 
[1.0, 1.0, 1.0, 1.0, 1.0, 1.0, 1.0, 1.0, 1.0, 1.0, 1.0, 1.0, 1.0, 1.0, 1.0, 1.0, 1.0, 1.0, 1.0, 1.0, 1.0, 1.0, 1.0, 1.0, 1.0, 1.0, 1.0, 1.0, 1.0, 1.0, 1.0, 1.0, 1.0, 1.0, 1.0, 1.0, 1.0, 1.0, 1.0, 1.0, 1.0, 1.0, 1.0]

>  <TempFactor>  (504) 
[11.58, 15.03, 11.83, 16.25, 16.92, 12.34, 10.54, 20.22, 18.19, 14.53, 16.52, 20.55, 23.87, 20.72, 31.66, 32.21, 24.48, 11.55, 13.92, 10.24, 11.44, 10.75, 11.87, 10.52, 48.42, 14.67, 18.9, 51.51, 20.99, 12.24, 12.71, 37.77, 32.69, 13.62, 12.02, 16.3, 16.59, 14.61, 20.42, 22.35, 13.24, 10.96, 27.55]

>  <accession>  (504) 
5HXF_A

>  <description>  (504) 
Chain A, 3C protease [Enterovirus A71]

>  <evalue>  (504) 
1.33118e-69

>  <pdb_code>  (504) 
5HXF

>  <chain>  (504) 
A

>  <ligands>  (504) 
[{'chain_id': 'A', 'author_residue_number': 201, 'author_insertion_code': '', 'chem_comp_id': 'AG7', 'alternate_conformers': 0, 'entity_id': 2, 'struct_asym_id': 'B', 'residue_number': 1, 'chem_comp_name': '4-{2-(4-FLUORO-BENZYL)-6-METHYL-5-[(5-METHYL-ISOXAZOLE-3-CARBONYL)-AMINO]-4-OXO-HEPTANOYLAMINO}-5-(2-OXO-PYRROLIDIN-3-YL)-PENTANOIC ACID ETHYL ESTER', 'weight': 600.678, 'carbohydrate_polymer': False, 'branch_name': ''}, {'chain_id': 'A', 'author_residue_number': 202, 'author_insertion_code': '', 'chem_comp_id': 'SO4', 'alternate_conformers': 0, 'entity_id': 3, 'struct_asym_id': 'C', 'residue_number': 1, 'chem_comp_name': 'SULFATE ION', 'weight': 96.063, 'carbohydrate_polymer': False, 'branch_name': ''}, {'chain_id': 'A', 'author_residue_number': 203, 'author_insertion_code': '', 'chem_comp_id': 'SO4', 'alternate_conformers': 0, 'entity_id': 3, 'struct_asym_id': 'D', 'residue_number': 1, 'chem_comp_name': 'SULFATE ION', 'weight': 96.063, 'carbohydrate_polymer': False, 'branch_name': ''}]

>  <ligand_codes>  (504) 
['AG7', 'SO4', 'SO4']

>  <cofactor_codes>  (504) 
[]

>  <has_cofactor>  (504) 
False

>  <covalent>  (504) 
False

>  <base_name>  (504) 
5HXF

>  <lig_resn>  (504) 
AG7

>  <lig_resi>  (504) 
201

>  <lig_chain>  (504) 
A

>  <lig_segi>  (504) 
B

>  <lig_alt>  (504) 


>  <polymer_chain>  (504) 
A

>  <single_smiles>  (504) 
CCOC(=O)CC[C@H](C[C@@H]1CCNC1=O)NC(=O)[C@@H](CC(=O)[C@@H](NC(=O)c2cc(C)on2)C(C)C)Cc3ccc(F)cc3

$$$$
AG7P11S3
     RDKit          3D

  8  8  0  0  0  0  0  0  0  0999 V2000
   -9.9620   17.8050  -31.4360 C   0  0  0  0  0  0  0  0  0  0  0  0
  -10.4440   17.9520  -29.9660 C   0  0  0  0  0  0  0  0  0  0  0  0
  -10.3840   18.4690  -32.3160 O   0  0  0  0  0  0  0  0  0  0  0  0
  -11.4110   18.8010  -29.4820 C   0  0  0  0  0  0  0  0  0  0  0  0
   -9.9480   17.2570  -28.9540 N   0  0  0  0  0  0  0  0  0  0  0  0
  -11.4910   18.5870  -28.1420 C   0  0  0  0  0  0  0  0  0  0  0  0
  -10.5980   17.6410  -27.8030 O   0  0  0  0  0  0  0  0  0  0  0  0
  -12.4230   19.2850  -27.1830 C   0  0  0  0  0  0  0  0  0  0  0  0
  2  1  1  0
  1  3  2  0
  2  4  1  0
  2  5  2  0
  4  6  2  0
  7  5  1  0
  6  8  1  0
  6  7  1  0
A    2
 C1 
A    3
 O60
A    4
 C2 
A    5
 N5 
A    6
 C3 
A    7
 O4 
A    8
 C4 
M  END
>  <XChem_code>  (505) 
AG7§11

>  <Occupancy>  (505) 
[1.0, 1.0, 1.0, 1.0, 1.0, 1.0, 1.0, 1.0, 1.0, 1.0, 1.0, 1.0, 1.0, 1.0, 1.0, 1.0, 1.0, 1.0, 1.0, 1.0, 1.0, 1.0, 1.0, 1.0, 1.0, 1.0, 1.0, 1.0, 1.0, 1.0, 1.0, 1.0, 1.0, 1.0, 1.0, 1.0, 1.0, 1.0, 1.0, 1.0, 1.0, 1.0, 1.0]

>  <TempFactor>  (505) 
[11.58, 15.03, 11.83, 16.25, 16.92, 12.34, 10.54, 20.22, 18.19, 14.53, 16.52, 20.55, 23.87, 20.72, 31.66, 32.21, 24.48, 11.55, 13.92, 10.24, 11.44, 10.75, 11.87, 10.52, 48.42, 14.67, 18.9, 51.51, 20.99, 12.24, 12.71, 37.77, 32.69, 13.62, 12.02, 16.3, 16.59, 14.61, 20.42, 22.35, 13.24, 10.96, 27.55]

>  <accession>  (505) 
5HXF_A

>  <description>  (505) 
Chain A, 3C protease [Enterovirus A71]

>  <evalue>  (505) 
1.33118e-69

>  <pdb_code>  (505) 
5HXF

>  <chain>  (505) 
A

>  <ligands>  (505) 
[{'chain_id': 'A', 'author_residue_number': 201, 'author_insertion_code': '', 'chem_comp_id': 'AG7', 'alternate_conformers': 0, 'entity_id': 2, 'struct_asym_id': 'B', 'residue_number': 1, 'chem_comp_name': '4-{2-(4-FLUORO-BENZYL)-6-METHYL-5-[(5-METHYL-ISOXAZOLE-3-CARBONYL)-AMINO]-4-OXO-HEPTANOYLAMINO}-5-(2-OXO-PYRROLIDIN-3-YL)-PENTANOIC ACID ETHYL ESTER', 'weight': 600.678, 'carbohydrate_polymer': False, 'branch_name': ''}, {'chain_id': 'A', 'author_residue_number': 202, 'author_insertion_code': '', 'chem_comp_id': 'SO4', 'alternate_conformers': 0, 'entity_id': 3, 'struct_asym_id': 'C', 'residue_number': 1, 'chem_comp_name': 'SULFATE ION', 'weight': 96.063, 'carbohydrate_polymer': False, 'branch_name': ''}, {'chain_id': 'A', 'author_residue_number': 203, 'author_insertion_code': '', 'chem_comp_id': 'SO4', 'alternate_conformers': 0, 'entity_id': 3, 'struct_asym_id': 'D', 'residue_number': 1, 'chem_comp_name': 'SULFATE ION', 'weight': 96.063, 'carbohydrate_polymer': False, 'branch_name': ''}]

>  <ligand_codes>  (505) 
['AG7', 'SO4', 'SO4']

>  <cofactor_codes>  (505) 
[]

>  <has_cofactor>  (505) 
False

>  <covalent>  (505) 
False

>  <base_name>  (505) 
5HXF

>  <lig_resn>  (505) 
AG7

>  <lig_resi>  (505) 
201

>  <lig_chain>  (505) 
A

>  <lig_segi>  (505) 
B

>  <lig_alt>  (505) 


>  <polymer_chain>  (505) 
A

>  <single_smiles>  (505) 
CCOC(=O)CC[C@H](C[C@@H]1CCNC1=O)NC(=O)[C@@H](CC(=O)[C@@H](NC(=O)c2cc(C)on2)C(C)C)Cc3ccc(F)cc3

$$$$
AG7P11S4
     RDKit          3D

 35 36  0  0  0  0  0  0  0  0999 V2000
   -8.9490   16.7850  -31.6390 N   0  0  0  0  0  0  0  0  0  0  0  0
   -8.3700   16.4840  -32.8990 C   0  0  2  0  0  0  0  0  0  0  0  0
   -8.8720   15.0590  -33.3180 C   0  0  0  0  0  0  0  0  0  0  0  0
   -6.8180   16.5090  -32.7420 C   0  0  0  0  0  0  0  0  0  0  0  0
   -9.1810   14.8030  -34.8550 C   0  0  0  0  0  0  0  0  0  0  0  0
   -9.0100   14.2010  -32.4750 O   0  0  0  0  0  0  0  0  0  0  0  0
   -6.0760   16.0030  -34.0320 C   0  0  0  0  0  0  0  0  0  0  0  0
   -6.4180   17.9810  -32.4960 C   0  0  0  0  0  0  0  0  0  0  0  0
   -9.5290   13.3210  -35.1020 C   0  0  1  0  0  0  0  0  0  0  0  0
   -9.8470   13.1350  -36.6200 C   0  0  0  0  0  0  0  0  0  0  0  0
   -8.3810   12.4340  -34.7380 C   0  0  0  0  0  0  0  0  0  0  0  0
  -11.3050   13.7450  -36.8440 C   0  0  0  0  0  0  0  0  0  0  0  0
   -8.6990   11.1710  -34.0830 N   0  0  0  0  0  0  0  0  0  0  0  0
   -7.2420   12.6600  -34.9610 O   0  0  0  0  0  0  0  0  0  0  0  0
  -11.4560   14.8940  -37.6190 C   0  0  0  0  0  0  0  0  0  0  0  0
  -12.4130   13.1380  -36.2460 C   0  0  0  0  0  0  0  0  0  0  0  0
   -7.4890   10.3990  -33.7670 C   0  0  1  0  0  0  0  0  0  0  0  0
  -12.7230   15.4330  -37.8170 C   0  0  0  0  0  0  0  0  0  0  0  0
  -13.6950   13.6860  -36.4410 C   0  0  0  0  0  0  0  0  0  0  0  0
   -7.5780   10.0040  -32.2880 C   0  0  0  0  0  0  0  0  0  0  0  0
   -7.1540    9.1680  -34.5770 C   0  0  0  0  0  0  0  0  0  0  0  0
  -13.8400   14.8240  -37.2230 C   0  0  0  0  0  0  0  0  0  0  0  0
   -7.0990   11.3020  -31.5750 C   0  0  1  0  0  0  0  0  0  0  0  0
   -7.7230    9.1470  -35.9980 C   0  0  0  0  0  0  0  0  0  0  0  0
  -15.0840   15.3590  -37.4180 F   0  0  0  0  0  0  0  0  0  0  0  0
   -7.0230   11.0800  -29.9920 C   0  0  0  0  0  0  0  0  0  0  0  0
   -5.8440   11.7210  -31.9680 C   0  0  0  0  0  0  0  0  0  0  0  0
   -6.3230    9.0840  -36.5380 C   0  0  0  0  0  0  0  0  0  0  0  0
   -6.0040   11.8370  -29.5430 N   0  0  0  0  0  0  0  0  0  0  0  0
   -7.7390   10.4060  -29.3120 O   0  0  0  0  0  0  0  0  0  0  0  0
   -5.3380   12.5560  -30.7120 C   0  0  0  0  0  0  0  0  0  0  0  0
   -5.9850    9.6770  -37.7640 O   0  0  0  0  0  0  0  0  0  0  0  0
   -5.5070    8.5210  -35.8520 O   0  0  0  0  0  0  0  0  0  0  0  0
   -5.1320    8.8350  -38.5250 C   0  0  0  0  0  0  0  0  0  0  0  0
   -5.9370    8.4030  -39.7220 C   0  0  0  0  0  0  0  0  0  0  0  0
  2  1  1  1
  3  2  1  0
  2  4  1  0
  3  5  1  0
  3  6  2  0
  4  7  1  0
  4  8  1  0
  9  5  1  6
  9 10  1  0
  9 11  1  0
 10 12  1  0
 13 11  1  0
 11 14  2  0
 12 15  2  0
 12 16  1  0
 13 17  1  0
 15 18  1  0
 19 16  2  0
 17 20  1  1
 17 21  1  0
 18 22  2  0
 22 19  1  0
 23 20  1  6
 21 24  1  0
 22 25  1  0
 23 26  1  0
 23 27  1  0
 24 28  1  0
 26 29  1  0
 26 30  2  0
 31 27  1  0
 28 32  1  0
 28 33  2  0
 29 31  1  0
 32 34  1  0
 34 35  1  0
A    2
 C57
A    3
 C01
A    4
 C78
A    5
 C02
A    6
 O03
A    7
 C81
A    8
 C82
A    9
 C04
A   10
 C05
A   11
 C47
A   12
 C06
A   13
 N12
A   14
 O48
A   15
 C07
A   16
 C11
A   17
 C13
A   18
 C08
A   19
 C10
A   20
 C14
A   21
 C19
A   22
 C09
A   23
 C15
A   24
 C20
A   25
 F1 
A   26
 C16
A   27
 C84
A   28
 C21
A   29
 N17
A   30
 O18
A   31
 C83
A   32
 O22
A   33
 O23
A   34
 C50
A   35
 C53
M  END
>  <XChem_code>  (506) 
AG7§11

>  <Occupancy>  (506) 
[1.0, 1.0, 1.0, 1.0, 1.0, 1.0, 1.0, 1.0, 1.0, 1.0, 1.0, 1.0, 1.0, 1.0, 1.0, 1.0, 1.0, 1.0, 1.0, 1.0, 1.0, 1.0, 1.0, 1.0, 1.0, 1.0, 1.0, 1.0, 1.0, 1.0, 1.0, 1.0, 1.0, 1.0, 1.0, 1.0, 1.0, 1.0, 1.0, 1.0, 1.0, 1.0, 1.0]

>  <TempFactor>  (506) 
[11.58, 15.03, 11.83, 16.25, 16.92, 12.34, 10.54, 20.22, 18.19, 14.53, 16.52, 20.55, 23.87, 20.72, 31.66, 32.21, 24.48, 11.55, 13.92, 10.24, 11.44, 10.75, 11.87, 10.52, 48.42, 14.67, 18.9, 51.51, 20.99, 12.24, 12.71, 37.77, 32.69, 13.62, 12.02, 16.3, 16.59, 14.61, 20.42, 22.35, 13.24, 10.96, 27.55]

>  <accession>  (506) 
5HXF_A

>  <description>  (506) 
Chain A, 3C protease [Enterovirus A71]

>  <evalue>  (506) 
1.33118e-69

>  <pdb_code>  (506) 
5HXF

>  <chain>  (506) 
A

>  <ligands>  (506) 
[{'chain_id': 'A', 'author_residue_number': 201, 'author_insertion_code': '', 'chem_comp_id': 'AG7', 'alternate_conformers': 0, 'entity_id': 2, 'struct_asym_id': 'B', 'residue_number': 1, 'chem_comp_name': '4-{2-(4-FLUORO-BENZYL)-6-METHYL-5-[(5-METHYL-ISOXAZOLE-3-CARBONYL)-AMINO]-4-OXO-HEPTANOYLAMINO}-5-(2-OXO-PYRROLIDIN-3-YL)-PENTANOIC ACID ETHYL ESTER', 'weight': 600.678, 'carbohydrate_polymer': False, 'branch_name': ''}, {'chain_id': 'A', 'author_residue_number': 202, 'author_insertion_code': '', 'chem_comp_id': 'SO4', 'alternate_conformers': 0, 'entity_id': 3, 'struct_asym_id': 'C', 'residue_number': 1, 'chem_comp_name': 'SULFATE ION', 'weight': 96.063, 'carbohydrate_polymer': False, 'branch_name': ''}, {'chain_id': 'A', 'author_residue_number': 203, 'author_insertion_code': '', 'chem_comp_id': 'SO4', 'alternate_conformers': 0, 'entity_id': 3, 'struct_asym_id': 'D', 'residue_number': 1, 'chem_comp_name': 'SULFATE ION', 'weight': 96.063, 'carbohydrate_polymer': False, 'branch_name': ''}]

>  <ligand_codes>  (506) 
['AG7', 'SO4', 'SO4']

>  <cofactor_codes>  (506) 
[]

>  <has_cofactor>  (506) 
False

>  <covalent>  (506) 
False

>  <base_name>  (506) 
5HXF

>  <lig_resn>  (506) 
AG7

>  <lig_resi>  (506) 
201

>  <lig_chain>  (506) 
A

>  <lig_segi>  (506) 
B

>  <lig_alt>  (506) 


>  <polymer_chain>  (506) 
A

>  <single_smiles>  (506) 
CCOC(=O)CC[C@H](C[C@@H]1CCNC1=O)NC(=O)[C@@H](CC(=O)[C@@H](NC(=O)c2cc(C)on2)C(C)C)Cc3ccc(F)cc3

$$$$
AG7P11S5
     RDKit          3D

 19 19  0  0  0  0  0  0  0  0999 V2000
   -8.9490   16.7850  -31.6390 N   0  0  0  0  0  0  0  0  0  0  0  0
   -8.3700   16.4840  -32.8990 C   0  0  2  0  0  0  0  0  0  0  0  0
   -8.8720   15.0590  -33.3180 C   0  0  0  0  0  0  0  0  0  0  0  0
   -6.8180   16.5090  -32.7420 C   0  0  0  0  0  0  0  0  0  0  0  0
   -9.1810   14.8030  -34.8550 C   0  0  0  0  0  0  0  0  0  0  0  0
   -9.0100   14.2010  -32.4750 O   0  0  0  0  0  0  0  0  0  0  0  0
   -6.0760   16.0030  -34.0320 C   0  0  0  0  0  0  0  0  0  0  0  0
   -6.4180   17.9810  -32.4960 C   0  0  0  0  0  0  0  0  0  0  0  0
   -9.5290   13.3210  -35.1020 C   0  0  2  0  0  0  0  0  0  0  0  0
   -8.3810   12.4340  -34.7380 C   0  0  0  0  0  0  0  0  0  0  0  0
   -9.8470   13.1350  -36.6200 C   0  0  0  0  0  0  0  0  0  0  0  0
   -7.2420   12.6600  -34.9610 O   0  0  0  0  0  0  0  0  0  0  0  0
  -11.3050   13.7450  -36.8440 C   0  0  0  0  0  0  0  0  0  0  0  0
  -11.4560   14.8940  -37.6190 C   0  0  0  0  0  0  0  0  0  0  0  0
  -12.4130   13.1380  -36.2460 C   0  0  0  0  0  0  0  0  0  0  0  0
  -12.7230   15.4330  -37.8170 C   0  0  0  0  0  0  0  0  0  0  0  0
  -13.6950   13.6860  -36.4410 C   0  0  0  0  0  0  0  0  0  0  0  0
  -13.8400   14.8240  -37.2230 C   0  0  0  0  0  0  0  0  0  0  0  0
  -15.0840   15.3590  -37.4180 F   0  0  0  0  0  0  0  0  0  0  0  0
  2  1  1  1
  3  2  1  0
  2  4  1  0
  3  5  1  0
  3  6  2  0
  4  7  1  0
  4  8  1  0
  9  5  1  6
  9 10  1  0
  9 11  1  0
 10 12  2  0
 11 13  1  0
 13 14  2  0
 13 15  1  0
 14 16  1  0
 17 15  2  0
 16 18  2  0
 18 17  1  0
 18 19  1  0
A    2
 C57
A    3
 C01
A    4
 C78
A    5
 C02
A    6
 O03
A    7
 C81
A    8
 C82
A    9
 C04
A   11
 C05
A   12
 O48
A   13
 C06
A   14
 C07
A   15
 C11
A   16
 C08
A   17
 C10
A   18
 C09
A   19
 F1 
M  END
>  <XChem_code>  (507) 
AG7§11

>  <Occupancy>  (507) 
[1.0, 1.0, 1.0, 1.0, 1.0, 1.0, 1.0, 1.0, 1.0, 1.0, 1.0, 1.0, 1.0, 1.0, 1.0, 1.0, 1.0, 1.0, 1.0, 1.0, 1.0, 1.0, 1.0, 1.0, 1.0, 1.0, 1.0, 1.0, 1.0, 1.0, 1.0, 1.0, 1.0, 1.0, 1.0, 1.0, 1.0, 1.0, 1.0, 1.0, 1.0, 1.0, 1.0]

>  <TempFactor>  (507) 
[11.58, 15.03, 11.83, 16.25, 16.92, 12.34, 10.54, 20.22, 18.19, 14.53, 16.52, 20.55, 23.87, 20.72, 31.66, 32.21, 24.48, 11.55, 13.92, 10.24, 11.44, 10.75, 11.87, 10.52, 48.42, 14.67, 18.9, 51.51, 20.99, 12.24, 12.71, 37.77, 32.69, 13.62, 12.02, 16.3, 16.59, 14.61, 20.42, 22.35, 13.24, 10.96, 27.55]

>  <accession>  (507) 
5HXF_A

>  <description>  (507) 
Chain A, 3C protease [Enterovirus A71]

>  <evalue>  (507) 
1.33118e-69

>  <pdb_code>  (507) 
5HXF

>  <chain>  (507) 
A

>  <ligands>  (507) 
[{'chain_id': 'A', 'author_residue_number': 201, 'author_insertion_code': '', 'chem_comp_id': 'AG7', 'alternate_conformers': 0, 'entity_id': 2, 'struct_asym_id': 'B', 'residue_number': 1, 'chem_comp_name': '4-{2-(4-FLUORO-BENZYL)-6-METHYL-5-[(5-METHYL-ISOXAZOLE-3-CARBONYL)-AMINO]-4-OXO-HEPTANOYLAMINO}-5-(2-OXO-PYRROLIDIN-3-YL)-PENTANOIC ACID ETHYL ESTER', 'weight': 600.678, 'carbohydrate_polymer': False, 'branch_name': ''}, {'chain_id': 'A', 'author_residue_number': 202, 'author_insertion_code': '', 'chem_comp_id': 'SO4', 'alternate_conformers': 0, 'entity_id': 3, 'struct_asym_id': 'C', 'residue_number': 1, 'chem_comp_name': 'SULFATE ION', 'weight': 96.063, 'carbohydrate_polymer': False, 'branch_name': ''}, {'chain_id': 'A', 'author_residue_number': 203, 'author_insertion_code': '', 'chem_comp_id': 'SO4', 'alternate_conformers': 0, 'entity_id': 3, 'struct_asym_id': 'D', 'residue_number': 1, 'chem_comp_name': 'SULFATE ION', 'weight': 96.063, 'carbohydrate_polymer': False, 'branch_name': ''}]

>  <ligand_codes>  (507) 
['AG7', 'SO4', 'SO4']

>  <cofactor_codes>  (507) 
[]

>  <has_cofactor>  (507) 
False

>  <covalent>  (507) 
False

>  <base_name>  (507) 
5HXF

>  <lig_resn>  (507) 
AG7

>  <lig_resi>  (507) 
201

>  <lig_chain>  (507) 
A

>  <lig_segi>  (507) 
B

>  <lig_alt>  (507) 


>  <polymer_chain>  (507) 
A

>  <single_smiles>  (507) 
CCOC(=O)CC[C@H](C[C@@H]1CCNC1=O)NC(=O)[C@@H](CC(=O)[C@@H](NC(=O)c2cc(C)on2)C(C)C)Cc3ccc(F)cc3

$$$$
AG7P11S6
     RDKit          3D

 15 15  0  0  0  0  0  0  0  0999 V2000
   -7.4890   10.3990  -33.7670 C   0  0  0  0  0  0  0  0  0  0  0  0
   -7.5780   10.0040  -32.2880 C   0  0  0  0  0  0  0  0  0  0  0  0
   -7.1540    9.1680  -34.5770 C   0  0  0  0  0  0  0  0  0  0  0  0
   -7.0990   11.3020  -31.5750 C   0  0  1  0  0  0  0  0  0  0  0  0
   -7.7230    9.1470  -35.9980 C   0  0  0  0  0  0  0  0  0  0  0  0
   -7.0230   11.0800  -29.9920 C   0  0  0  0  0  0  0  0  0  0  0  0
   -5.8440   11.7210  -31.9680 C   0  0  0  0  0  0  0  0  0  0  0  0
   -6.3230    9.0840  -36.5380 C   0  0  0  0  0  0  0  0  0  0  0  0
   -6.0040   11.8370  -29.5430 N   0  0  0  0  0  0  0  0  0  0  0  0
   -7.7390   10.4060  -29.3120 O   0  0  0  0  0  0  0  0  0  0  0  0
   -5.3380   12.5560  -30.7120 C   0  0  0  0  0  0  0  0  0  0  0  0
   -5.9850    9.6770  -37.7640 O   0  0  0  0  0  0  0  0  0  0  0  0
   -5.5070    8.5210  -35.8520 O   0  0  0  0  0  0  0  0  0  0  0  0
   -5.1320    8.8350  -38.5250 C   0  0  0  0  0  0  0  0  0  0  0  0
   -5.9370    8.4030  -39.7220 C   0  0  0  0  0  0  0  0  0  0  0  0
  1  2  1  6
  1  3  1  0
  4  2  1  6
  3  5  1  0
  4  6  1  0
  4  7  1  0
  5  8  1  0
  6  9  1  0
  6 10  2  0
 11  7  1  0
  8 12  1  0
  8 13  2  0
  9 11  1  0
 12 14  1  0
 14 15  1  0
A    2
 C14
A    3
 C19
A    4
 C15
A    5
 C20
A    6
 C16
A    7
 C84
A    8
 C21
A    9
 N17
A   10
 O18
A   11
 C83
A   12
 O22
A   13
 O23
A   14
 C50
A   15
 C53
M  END
>  <XChem_code>  (508) 
AG7§11

>  <Occupancy>  (508) 
[1.0, 1.0, 1.0, 1.0, 1.0, 1.0, 1.0, 1.0, 1.0, 1.0, 1.0, 1.0, 1.0, 1.0, 1.0, 1.0, 1.0, 1.0, 1.0, 1.0, 1.0, 1.0, 1.0, 1.0, 1.0, 1.0, 1.0, 1.0, 1.0, 1.0, 1.0, 1.0, 1.0, 1.0, 1.0, 1.0, 1.0, 1.0, 1.0, 1.0, 1.0, 1.0, 1.0]

>  <TempFactor>  (508) 
[11.58, 15.03, 11.83, 16.25, 16.92, 12.34, 10.54, 20.22, 18.19, 14.53, 16.52, 20.55, 23.87, 20.72, 31.66, 32.21, 24.48, 11.55, 13.92, 10.24, 11.44, 10.75, 11.87, 10.52, 48.42, 14.67, 18.9, 51.51, 20.99, 12.24, 12.71, 37.77, 32.69, 13.62, 12.02, 16.3, 16.59, 14.61, 20.42, 22.35, 13.24, 10.96, 27.55]

>  <accession>  (508) 
5HXF_A

>  <description>  (508) 
Chain A, 3C protease [Enterovirus A71]

>  <evalue>  (508) 
1.33118e-69

>  <pdb_code>  (508) 
5HXF

>  <chain>  (508) 
A

>  <ligands>  (508) 
[{'chain_id': 'A', 'author_residue_number': 201, 'author_insertion_code': '', 'chem_comp_id': 'AG7', 'alternate_conformers': 0, 'entity_id': 2, 'struct_asym_id': 'B', 'residue_number': 1, 'chem_comp_name': '4-{2-(4-FLUORO-BENZYL)-6-METHYL-5-[(5-METHYL-ISOXAZOLE-3-CARBONYL)-AMINO]-4-OXO-HEPTANOYLAMINO}-5-(2-OXO-PYRROLIDIN-3-YL)-PENTANOIC ACID ETHYL ESTER', 'weight': 600.678, 'carbohydrate_polymer': False, 'branch_name': ''}, {'chain_id': 'A', 'author_residue_number': 202, 'author_insertion_code': '', 'chem_comp_id': 'SO4', 'alternate_conformers': 0, 'entity_id': 3, 'struct_asym_id': 'C', 'residue_number': 1, 'chem_comp_name': 'SULFATE ION', 'weight': 96.063, 'carbohydrate_polymer': False, 'branch_name': ''}, {'chain_id': 'A', 'author_residue_number': 203, 'author_insertion_code': '', 'chem_comp_id': 'SO4', 'alternate_conformers': 0, 'entity_id': 3, 'struct_asym_id': 'D', 'residue_number': 1, 'chem_comp_name': 'SULFATE ION', 'weight': 96.063, 'carbohydrate_polymer': False, 'branch_name': ''}]

>  <ligand_codes>  (508) 
['AG7', 'SO4', 'SO4']

>  <cofactor_codes>  (508) 
[]

>  <has_cofactor>  (508) 
False

>  <covalent>  (508) 
False

>  <base_name>  (508) 
5HXF

>  <lig_resn>  (508) 
AG7

>  <lig_resi>  (508) 
201

>  <lig_chain>  (508) 
A

>  <lig_segi>  (508) 
B

>  <lig_alt>  (508) 


>  <polymer_chain>  (508) 
A

>  <single_smiles>  (508) 
CCOC(=O)CC[C@H](C[C@@H]1CCNC1=O)NC(=O)[C@@H](CC(=O)[C@@H](NC(=O)c2cc(C)on2)C(C)C)Cc3ccc(F)cc3

$$$$
AG7P11S7
     RDKit          3D

 28 29  0  0  0  0  0  0  0  0999 V2000
   -8.6990   11.1710  -34.0830 N   0  0  0  0  0  0  0  0  0  0  0  0
   -8.3810   12.4340  -34.7380 C   0  0  0  0  0  0  0  0  0  0  0  0
   -9.5290   13.3210  -35.1020 C   0  0  1  0  0  0  0  0  0  0  0  0
   -7.2420   12.6600  -34.9610 O   0  0  0  0  0  0  0  0  0  0  0  0
   -9.1810   14.8030  -34.8550 C   0  0  0  0  0  0  0  0  0  0  0  0
   -9.8470   13.1350  -36.6200 C   0  0  0  0  0  0  0  0  0  0  0  0
   -8.8720   15.0590  -33.3180 C   0  0  0  0  0  0  0  0  0  0  0  0
  -11.3050   13.7450  -36.8440 C   0  0  0  0  0  0  0  0  0  0  0  0
   -9.0100   14.2010  -32.4750 O   0  0  0  0  0  0  0  0  0  0  0  0
   -8.3700   16.4840  -32.8990 C   0  0  1  0  0  0  0  0  0  0  0  0
  -11.4560   14.8940  -37.6190 C   0  0  0  0  0  0  0  0  0  0  0  0
  -12.4130   13.1380  -36.2460 C   0  0  0  0  0  0  0  0  0  0  0  0
   -8.9490   16.7850  -31.6390 N   0  0  0  0  0  0  0  0  0  0  0  0
   -6.8180   16.5090  -32.7420 C   0  0  0  0  0  0  0  0  0  0  0  0
  -12.7230   15.4330  -37.8170 C   0  0  0  0  0  0  0  0  0  0  0  0
  -13.6950   13.6860  -36.4410 C   0  0  0  0  0  0  0  0  0  0  0  0
   -9.9620   17.8050  -31.4360 C   0  0  0  0  0  0  0  0  0  0  0  0
   -6.0760   16.0030  -34.0320 C   0  0  0  0  0  0  0  0  0  0  0  0
   -6.4180   17.9810  -32.4960 C   0  0  0  0  0  0  0  0  0  0  0  0
  -13.8400   14.8240  -37.2230 C   0  0  0  0  0  0  0  0  0  0  0  0
  -10.4440   17.9520  -29.9660 C   0  0  0  0  0  0  0  0  0  0  0  0
  -10.3840   18.4690  -32.3160 O   0  0  0  0  0  0  0  0  0  0  0  0
  -15.0840   15.3590  -37.4180 F   0  0  0  0  0  0  0  0  0  0  0  0
  -11.4110   18.8010  -29.4820 C   0  0  0  0  0  0  0  0  0  0  0  0
   -9.9480   17.2570  -28.9540 N   0  0  0  0  0  0  0  0  0  0  0  0
  -11.4910   18.5870  -28.1420 C   0  0  0  0  0  0  0  0  0  0  0  0
  -10.5980   17.6410  -27.8030 O   0  0  0  0  0  0  0  0  0  0  0  0
  -12.4230   19.2850  -27.1830 C   0  0  0  0  0  0  0  0  0  0  0  0
  1  2  1  0
  3  2  1  0
  2  4  2  0
  3  5  1  6
  3  6  1  0
  7  5  1  0
  6  8  1  0
  7  9  2  0
  7 10  1  0
  8 11  2  0
  8 12  1  0
 10 13  1  1
 10 14  1  0
 11 15  1  0
 16 12  2  0
 13 17  1  0
 14 18  1  0
 14 19  1  0
 15 20  2  0
 20 16  1  0
 21 17  1  0
 17 22  2  0
 20 23  1  0
 21 24  1  0
 21 25  2  0
 24 26  2  0
 27 25  1  0
 26 28  1  0
 26 27  1  0
A    2
 C47
A    3
 C04
A    4
 O48
A    5
 C02
A    6
 C05
A    7
 C01
A    8
 C06
A    9
 O03
A   10
 C57
A   11
 C07
A   12
 C11
A   13
 N58
A   14
 C78
A   15
 C08
A   16
 C10
A   17
 C59
A   18
 C81
A   19
 C82
A   20
 C09
A   21
 C1 
A   22
 O60
A   23
 F1 
A   24
 C2 
A   25
 N5 
A   26
 C3 
A   27
 O4 
A   28
 C4 
M  END
>  <XChem_code>  (509) 
AG7§11

>  <Occupancy>  (509) 
[1.0, 1.0, 1.0, 1.0, 1.0, 1.0, 1.0, 1.0, 1.0, 1.0, 1.0, 1.0, 1.0, 1.0, 1.0, 1.0, 1.0, 1.0, 1.0, 1.0, 1.0, 1.0, 1.0, 1.0, 1.0, 1.0, 1.0, 1.0, 1.0, 1.0, 1.0, 1.0, 1.0, 1.0, 1.0, 1.0, 1.0, 1.0, 1.0, 1.0, 1.0, 1.0, 1.0]

>  <TempFactor>  (509) 
[11.58, 15.03, 11.83, 16.25, 16.92, 12.34, 10.54, 20.22, 18.19, 14.53, 16.52, 20.55, 23.87, 20.72, 31.66, 32.21, 24.48, 11.55, 13.92, 10.24, 11.44, 10.75, 11.87, 10.52, 48.42, 14.67, 18.9, 51.51, 20.99, 12.24, 12.71, 37.77, 32.69, 13.62, 12.02, 16.3, 16.59, 14.61, 20.42, 22.35, 13.24, 10.96, 27.55]

>  <accession>  (509) 
5HXF_A

>  <description>  (509) 
Chain A, 3C protease [Enterovirus A71]

>  <evalue>  (509) 
1.33118e-69

>  <pdb_code>  (509) 
5HXF

>  <chain>  (509) 
A

>  <ligands>  (509) 
[{'chain_id': 'A', 'author_residue_number': 201, 'author_insertion_code': '', 'chem_comp_id': 'AG7', 'alternate_conformers': 0, 'entity_id': 2, 'struct_asym_id': 'B', 'residue_number': 1, 'chem_comp_name': '4-{2-(4-FLUORO-BENZYL)-6-METHYL-5-[(5-METHYL-ISOXAZOLE-3-CARBONYL)-AMINO]-4-OXO-HEPTANOYLAMINO}-5-(2-OXO-PYRROLIDIN-3-YL)-PENTANOIC ACID ETHYL ESTER', 'weight': 600.678, 'carbohydrate_polymer': False, 'branch_name': ''}, {'chain_id': 'A', 'author_residue_number': 202, 'author_insertion_code': '', 'chem_comp_id': 'SO4', 'alternate_conformers': 0, 'entity_id': 3, 'struct_asym_id': 'C', 'residue_number': 1, 'chem_comp_name': 'SULFATE ION', 'weight': 96.063, 'carbohydrate_polymer': False, 'branch_name': ''}, {'chain_id': 'A', 'author_residue_number': 203, 'author_insertion_code': '', 'chem_comp_id': 'SO4', 'alternate_conformers': 0, 'entity_id': 3, 'struct_asym_id': 'D', 'residue_number': 1, 'chem_comp_name': 'SULFATE ION', 'weight': 96.063, 'carbohydrate_polymer': False, 'branch_name': ''}]

>  <ligand_codes>  (509) 
['AG7', 'SO4', 'SO4']

>  <cofactor_codes>  (509) 
[]

>  <has_cofactor>  (509) 
False

>  <covalent>  (509) 
False

>  <base_name>  (509) 
5HXF

>  <lig_resn>  (509) 
AG7

>  <lig_resi>  (509) 
201

>  <lig_chain>  (509) 
A

>  <lig_segi>  (509) 
B

>  <lig_alt>  (509) 


>  <polymer_chain>  (509) 
A

>  <single_smiles>  (509) 
CCOC(=O)CC[C@H](C[C@@H]1CCNC1=O)NC(=O)[C@@H](CC(=O)[C@@H](NC(=O)c2cc(C)on2)C(C)C)Cc3ccc(F)cc3

$$$$
AG7P11S8
     RDKit          3D

  9  9  0  0  0  0  0  0  0  0999 V2000
   -8.9490   16.7850  -31.6390 N   0  0  0  0  0  0  0  0  0  0  0  0
   -9.9620   17.8050  -31.4360 C   0  0  0  0  0  0  0  0  0  0  0  0
  -10.4440   17.9520  -29.9660 C   0  0  0  0  0  0  0  0  0  0  0  0
  -10.3840   18.4690  -32.3160 O   0  0  0  0  0  0  0  0  0  0  0  0
  -11.4110   18.8010  -29.4820 C   0  0  0  0  0  0  0  0  0  0  0  0
   -9.9480   17.2570  -28.9540 N   0  0  0  0  0  0  0  0  0  0  0  0
  -11.4910   18.5870  -28.1420 C   0  0  0  0  0  0  0  0  0  0  0  0
  -10.5980   17.6410  -27.8030 O   0  0  0  0  0  0  0  0  0  0  0  0
  -12.4230   19.2850  -27.1830 C   0  0  0  0  0  0  0  0  0  0  0  0
  1  2  1  0
  3  2  1  0
  2  4  2  0
  3  5  1  0
  3  6  2  0
  5  7  2  0
  8  6  1  0
  7  9  1  0
  7  8  1  0
A    2
 C59
A    3
 C1 
A    4
 O60
A    5
 C2 
A    6
 N5 
A    7
 C3 
A    8
 O4 
A    9
 C4 
M  END
>  <XChem_code>  (510) 
AG7§11

>  <Occupancy>  (510) 
[1.0, 1.0, 1.0, 1.0, 1.0, 1.0, 1.0, 1.0, 1.0, 1.0, 1.0, 1.0, 1.0, 1.0, 1.0, 1.0, 1.0, 1.0, 1.0, 1.0, 1.0, 1.0, 1.0, 1.0, 1.0, 1.0, 1.0, 1.0, 1.0, 1.0, 1.0, 1.0, 1.0, 1.0, 1.0, 1.0, 1.0, 1.0, 1.0, 1.0, 1.0, 1.0, 1.0]

>  <TempFactor>  (510) 
[11.58, 15.03, 11.83, 16.25, 16.92, 12.34, 10.54, 20.22, 18.19, 14.53, 16.52, 20.55, 23.87, 20.72, 31.66, 32.21, 24.48, 11.55, 13.92, 10.24, 11.44, 10.75, 11.87, 10.52, 48.42, 14.67, 18.9, 51.51, 20.99, 12.24, 12.71, 37.77, 32.69, 13.62, 12.02, 16.3, 16.59, 14.61, 20.42, 22.35, 13.24, 10.96, 27.55]

>  <accession>  (510) 
5HXF_A

>  <description>  (510) 
Chain A, 3C protease [Enterovirus A71]

>  <evalue>  (510) 
1.33118e-69

>  <pdb_code>  (510) 
5HXF

>  <chain>  (510) 
A

>  <ligands>  (510) 
[{'chain_id': 'A', 'author_residue_number': 201, 'author_insertion_code': '', 'chem_comp_id': 'AG7', 'alternate_conformers': 0, 'entity_id': 2, 'struct_asym_id': 'B', 'residue_number': 1, 'chem_comp_name': '4-{2-(4-FLUORO-BENZYL)-6-METHYL-5-[(5-METHYL-ISOXAZOLE-3-CARBONYL)-AMINO]-4-OXO-HEPTANOYLAMINO}-5-(2-OXO-PYRROLIDIN-3-YL)-PENTANOIC ACID ETHYL ESTER', 'weight': 600.678, 'carbohydrate_polymer': False, 'branch_name': ''}, {'chain_id': 'A', 'author_residue_number': 202, 'author_insertion_code': '', 'chem_comp_id': 'SO4', 'alternate_conformers': 0, 'entity_id': 3, 'struct_asym_id': 'C', 'residue_number': 1, 'chem_comp_name': 'SULFATE ION', 'weight': 96.063, 'carbohydrate_polymer': False, 'branch_name': ''}, {'chain_id': 'A', 'author_residue_number': 203, 'author_insertion_code': '', 'chem_comp_id': 'SO4', 'alternate_conformers': 0, 'entity_id': 3, 'struct_asym_id': 'D', 'residue_number': 1, 'chem_comp_name': 'SULFATE ION', 'weight': 96.063, 'carbohydrate_polymer': False, 'branch_name': ''}]

>  <ligand_codes>  (510) 
['AG7', 'SO4', 'SO4']

>  <cofactor_codes>  (510) 
[]

>  <has_cofactor>  (510) 
False

>  <covalent>  (510) 
False

>  <base_name>  (510) 
5HXF

>  <lig_resn>  (510) 
AG7

>  <lig_resi>  (510) 
201

>  <lig_chain>  (510) 
A

>  <lig_segi>  (510) 
B

>  <lig_alt>  (510) 


>  <polymer_chain>  (510) 
A

>  <single_smiles>  (510) 
CCOC(=O)CC[C@H](C[C@@H]1CCNC1=O)NC(=O)[C@@H](CC(=O)[C@@H](NC(=O)c2cc(C)on2)C(C)C)Cc3ccc(F)cc3

$$$$
AG7P11S9
     RDKit          3D

 34 35  0  0  0  0  0  0  0  0999 V2000
   -8.3700   16.4840  -32.8990 C   0  0  0  0  0  0  0  0  0  0  0  0
   -8.8720   15.0590  -33.3180 C   0  0  0  0  0  0  0  0  0  0  0  0
   -6.8180   16.5090  -32.7420 C   0  0  0  0  0  0  0  0  0  0  0  0
   -9.1810   14.8030  -34.8550 C   0  0  0  0  0  0  0  0  0  0  0  0
   -9.0100   14.2010  -32.4750 O   0  0  0  0  0  0  0  0  0  0  0  0
   -6.0760   16.0030  -34.0320 C   0  0  0  0  0  0  0  0  0  0  0  0
   -6.4180   17.9810  -32.4960 C   0  0  0  0  0  0  0  0  0  0  0  0
   -9.5290   13.3210  -35.1020 C   0  0  1  0  0  0  0  0  0  0  0  0
   -9.8470   13.1350  -36.6200 C   0  0  0  0  0  0  0  0  0  0  0  0
   -8.3810   12.4340  -34.7380 C   0  0  0  0  0  0  0  0  0  0  0  0
  -11.3050   13.7450  -36.8440 C   0  0  0  0  0  0  0  0  0  0  0  0
   -8.6990   11.1710  -34.0830 N   0  0  0  0  0  0  0  0  0  0  0  0
   -7.2420   12.6600  -34.9610 O   0  0  0  0  0  0  0  0  0  0  0  0
  -11.4560   14.8940  -37.6190 C   0  0  0  0  0  0  0  0  0  0  0  0
  -12.4130   13.1380  -36.2460 C   0  0  0  0  0  0  0  0  0  0  0  0
   -7.4890   10.3990  -33.7670 C   0  0  1  0  0  0  0  0  0  0  0  0
  -12.7230   15.4330  -37.8170 C   0  0  0  0  0  0  0  0  0  0  0  0
  -13.6950   13.6860  -36.4410 C   0  0  0  0  0  0  0  0  0  0  0  0
   -7.5780   10.0040  -32.2880 C   0  0  0  0  0  0  0  0  0  0  0  0
   -7.1540    9.1680  -34.5770 C   0  0  0  0  0  0  0  0  0  0  0  0
  -13.8400   14.8240  -37.2230 C   0  0  0  0  0  0  0  0  0  0  0  0
   -7.0990   11.3020  -31.5750 C   0  0  1  0  0  0  0  0  0  0  0  0
   -7.7230    9.1470  -35.9980 C   0  0  0  0  0  0  0  0  0  0  0  0
  -15.0840   15.3590  -37.4180 F   0  0  0  0  0  0  0  0  0  0  0  0
   -7.0230   11.0800  -29.9920 C   0  0  0  0  0  0  0  0  0  0  0  0
   -5.8440   11.7210  -31.9680 C   0  0  0  0  0  0  0  0  0  0  0  0
   -6.3230    9.0840  -36.5380 C   0  0  0  0  0  0  0  0  0  0  0  0
   -6.0040   11.8370  -29.5430 N   0  0  0  0  0  0  0  0  0  0  0  0
   -7.7390   10.4060  -29.3120 O   0  0  0  0  0  0  0  0  0  0  0  0
   -5.3380   12.5560  -30.7120 C   0  0  0  0  0  0  0  0  0  0  0  0
   -5.9850    9.6770  -37.7640 O   0  0  0  0  0  0  0  0  0  0  0  0
   -5.5070    8.5210  -35.8520 O   0  0  0  0  0  0  0  0  0  0  0  0
   -5.1320    8.8350  -38.5250 C   0  0  0  0  0  0  0  0  0  0  0  0
   -5.9370    8.4030  -39.7220 C   0  0  0  0  0  0  0  0  0  0  0  0
  2  1  1  0
  1  3  1  6
  2  4  1  0
  2  5  2  0
  3  6  1  0
  3  7  1  0
  8  4  1  6
  8  9  1  0
  8 10  1  0
  9 11  1  0
 12 10  1  0
 10 13  2  0
 11 14  2  0
 11 15  1  0
 12 16  1  0
 14 17  1  0
 18 15  2  0
 16 19  1  1
 16 20  1  0
 17 21  2  0
 21 18  1  0
 22 19  1  6
 20 23  1  0
 21 24  1  0
 22 25  1  0
 22 26  1  0
 23 27  1  0
 25 28  1  0
 25 29  2  0
 30 26  1  0
 27 31  1  0
 27 32  2  0
 28 30  1  0
 31 33  1  0
 33 34  1  0
A    2
 C01
A    3
 C78
A    4
 C02
A    5
 O03
A    6
 C81
A    7
 C82
A    8
 C04
A    9
 C05
A   10
 C47
A   11
 C06
A   12
 N12
A   13
 O48
A   14
 C07
A   15
 C11
A   16
 C13
A   17
 C08
A   18
 C10
A   19
 C14
A   20
 C19
A   21
 C09
A   22
 C15
A   23
 C20
A   24
 F1 
A   25
 C16
A   26
 C84
A   27
 C21
A   28
 N17
A   29
 O18
A   30
 C83
A   31
 O22
A   32
 O23
A   33
 C50
A   34
 C53
M  END
>  <XChem_code>  (511) 
AG7§11

>  <Occupancy>  (511) 
[1.0, 1.0, 1.0, 1.0, 1.0, 1.0, 1.0, 1.0, 1.0, 1.0, 1.0, 1.0, 1.0, 1.0, 1.0, 1.0, 1.0, 1.0, 1.0, 1.0, 1.0, 1.0, 1.0, 1.0, 1.0, 1.0, 1.0, 1.0, 1.0, 1.0, 1.0, 1.0, 1.0, 1.0, 1.0, 1.0, 1.0, 1.0, 1.0, 1.0, 1.0, 1.0, 1.0]

>  <TempFactor>  (511) 
[11.58, 15.03, 11.83, 16.25, 16.92, 12.34, 10.54, 20.22, 18.19, 14.53, 16.52, 20.55, 23.87, 20.72, 31.66, 32.21, 24.48, 11.55, 13.92, 10.24, 11.44, 10.75, 11.87, 10.52, 48.42, 14.67, 18.9, 51.51, 20.99, 12.24, 12.71, 37.77, 32.69, 13.62, 12.02, 16.3, 16.59, 14.61, 20.42, 22.35, 13.24, 10.96, 27.55]

>  <accession>  (511) 
5HXF_A

>  <description>  (511) 
Chain A, 3C protease [Enterovirus A71]

>  <evalue>  (511) 
1.33118e-69

>  <pdb_code>  (511) 
5HXF

>  <chain>  (511) 
A

>  <ligands>  (511) 
[{'chain_id': 'A', 'author_residue_number': 201, 'author_insertion_code': '', 'chem_comp_id': 'AG7', 'alternate_conformers': 0, 'entity_id': 2, 'struct_asym_id': 'B', 'residue_number': 1, 'chem_comp_name': '4-{2-(4-FLUORO-BENZYL)-6-METHYL-5-[(5-METHYL-ISOXAZOLE-3-CARBONYL)-AMINO]-4-OXO-HEPTANOYLAMINO}-5-(2-OXO-PYRROLIDIN-3-YL)-PENTANOIC ACID ETHYL ESTER', 'weight': 600.678, 'carbohydrate_polymer': False, 'branch_name': ''}, {'chain_id': 'A', 'author_residue_number': 202, 'author_insertion_code': '', 'chem_comp_id': 'SO4', 'alternate_conformers': 0, 'entity_id': 3, 'struct_asym_id': 'C', 'residue_number': 1, 'chem_comp_name': 'SULFATE ION', 'weight': 96.063, 'carbohydrate_polymer': False, 'branch_name': ''}, {'chain_id': 'A', 'author_residue_number': 203, 'author_insertion_code': '', 'chem_comp_id': 'SO4', 'alternate_conformers': 0, 'entity_id': 3, 'struct_asym_id': 'D', 'residue_number': 1, 'chem_comp_name': 'SULFATE ION', 'weight': 96.063, 'carbohydrate_polymer': False, 'branch_name': ''}]

>  <ligand_codes>  (511) 
['AG7', 'SO4', 'SO4']

>  <cofactor_codes>  (511) 
[]

>  <has_cofactor>  (511) 
False

>  <covalent>  (511) 
False

>  <base_name>  (511) 
5HXF

>  <lig_resn>  (511) 
AG7

>  <lig_resi>  (511) 
201

>  <lig_chain>  (511) 
A

>  <lig_segi>  (511) 
B

>  <lig_alt>  (511) 


>  <polymer_chain>  (511) 
A

>  <single_smiles>  (511) 
CCOC(=O)CC[C@H](C[C@@H]1CCNC1=O)NC(=O)[C@@H](CC(=O)[C@@H](NC(=O)c2cc(C)on2)C(C)C)Cc3ccc(F)cc3

$$$$
AG7P11S10
     RDKit          3D

 18 18  0  0  0  0  0  0  0  0999 V2000
   -8.3700   16.4840  -32.8990 C   0  0  0  0  0  0  0  0  0  0  0  0
   -8.8720   15.0590  -33.3180 C   0  0  0  0  0  0  0  0  0  0  0  0
   -6.8180   16.5090  -32.7420 C   0  0  0  0  0  0  0  0  0  0  0  0
   -9.1810   14.8030  -34.8550 C   0  0  0  0  0  0  0  0  0  0  0  0
   -9.0100   14.2010  -32.4750 O   0  0  0  0  0  0  0  0  0  0  0  0
   -6.0760   16.0030  -34.0320 C   0  0  0  0  0  0  0  0  0  0  0  0
   -6.4180   17.9810  -32.4960 C   0  0  0  0  0  0  0  0  0  0  0  0
   -9.5290   13.3210  -35.1020 C   0  0  2  0  0  0  0  0  0  0  0  0
   -8.3810   12.4340  -34.7380 C   0  0  0  0  0  0  0  0  0  0  0  0
   -9.8470   13.1350  -36.6200 C   0  0  0  0  0  0  0  0  0  0  0  0
   -7.2420   12.6600  -34.9610 O   0  0  0  0  0  0  0  0  0  0  0  0
  -11.3050   13.7450  -36.8440 C   0  0  0  0  0  0  0  0  0  0  0  0
  -11.4560   14.8940  -37.6190 C   0  0  0  0  0  0  0  0  0  0  0  0
  -12.4130   13.1380  -36.2460 C   0  0  0  0  0  0  0  0  0  0  0  0
  -12.7230   15.4330  -37.8170 C   0  0  0  0  0  0  0  0  0  0  0  0
  -13.6950   13.6860  -36.4410 C   0  0  0  0  0  0  0  0  0  0  0  0
  -13.8400   14.8240  -37.2230 C   0  0  0  0  0  0  0  0  0  0  0  0
  -15.0840   15.3590  -37.4180 F   0  0  0  0  0  0  0  0  0  0  0  0
  2  1  1  0
  1  3  1  6
  2  4  1  0
  2  5  2  0
  3  6  1  0
  3  7  1  0
  8  4  1  6
  8  9  1  0
  8 10  1  0
  9 11  2  0
 10 12  1  0
 12 13  2  0
 12 14  1  0
 13 15  1  0
 16 14  2  0
 15 17  2  0
 17 16  1  0
 17 18  1  0
A    2
 C01
A    3
 C78
A    4
 C02
A    5
 O03
A    6
 C81
A    7
 C82
A    8
 C04
A   10
 C05
A   11
 O48
A   12
 C06
A   13
 C07
A   14
 C11
A   15
 C08
A   16
 C10
A   17
 C09
A   18
 F1 
M  END
>  <XChem_code>  (512) 
AG7§11

>  <Occupancy>  (512) 
[1.0, 1.0, 1.0, 1.0, 1.0, 1.0, 1.0, 1.0, 1.0, 1.0, 1.0, 1.0, 1.0, 1.0, 1.0, 1.0, 1.0, 1.0, 1.0, 1.0, 1.0, 1.0, 1.0, 1.0, 1.0, 1.0, 1.0, 1.0, 1.0, 1.0, 1.0, 1.0, 1.0, 1.0, 1.0, 1.0, 1.0, 1.0, 1.0, 1.0, 1.0, 1.0, 1.0]

>  <TempFactor>  (512) 
[11.58, 15.03, 11.83, 16.25, 16.92, 12.34, 10.54, 20.22, 18.19, 14.53, 16.52, 20.55, 23.87, 20.72, 31.66, 32.21, 24.48, 11.55, 13.92, 10.24, 11.44, 10.75, 11.87, 10.52, 48.42, 14.67, 18.9, 51.51, 20.99, 12.24, 12.71, 37.77, 32.69, 13.62, 12.02, 16.3, 16.59, 14.61, 20.42, 22.35, 13.24, 10.96, 27.55]

>  <accession>  (512) 
5HXF_A

>  <description>  (512) 
Chain A, 3C protease [Enterovirus A71]

>  <evalue>  (512) 
1.33118e-69

>  <pdb_code>  (512) 
5HXF

>  <chain>  (512) 
A

>  <ligands>  (512) 
[{'chain_id': 'A', 'author_residue_number': 201, 'author_insertion_code': '', 'chem_comp_id': 'AG7', 'alternate_conformers': 0, 'entity_id': 2, 'struct_asym_id': 'B', 'residue_number': 1, 'chem_comp_name': '4-{2-(4-FLUORO-BENZYL)-6-METHYL-5-[(5-METHYL-ISOXAZOLE-3-CARBONYL)-AMINO]-4-OXO-HEPTANOYLAMINO}-5-(2-OXO-PYRROLIDIN-3-YL)-PENTANOIC ACID ETHYL ESTER', 'weight': 600.678, 'carbohydrate_polymer': False, 'branch_name': ''}, {'chain_id': 'A', 'author_residue_number': 202, 'author_insertion_code': '', 'chem_comp_id': 'SO4', 'alternate_conformers': 0, 'entity_id': 3, 'struct_asym_id': 'C', 'residue_number': 1, 'chem_comp_name': 'SULFATE ION', 'weight': 96.063, 'carbohydrate_polymer': False, 'branch_name': ''}, {'chain_id': 'A', 'author_residue_number': 203, 'author_insertion_code': '', 'chem_comp_id': 'SO4', 'alternate_conformers': 0, 'entity_id': 3, 'struct_asym_id': 'D', 'residue_number': 1, 'chem_comp_name': 'SULFATE ION', 'weight': 96.063, 'carbohydrate_polymer': False, 'branch_name': ''}]

>  <ligand_codes>  (512) 
['AG7', 'SO4', 'SO4']

>  <cofactor_codes>  (512) 
[]

>  <has_cofactor>  (512) 
False

>  <covalent>  (512) 
False

>  <base_name>  (512) 
5HXF

>  <lig_resn>  (512) 
AG7

>  <lig_resi>  (512) 
201

>  <lig_chain>  (512) 
A

>  <lig_segi>  (512) 
B

>  <lig_alt>  (512) 


>  <polymer_chain>  (512) 
A

>  <single_smiles>  (512) 
CCOC(=O)CC[C@H](C[C@@H]1CCNC1=O)NC(=O)[C@@H](CC(=O)[C@@H](NC(=O)c2cc(C)on2)C(C)C)Cc3ccc(F)cc3

$$$$
AG7P11S11
     RDKit          3D

 20 20  0  0  0  0  0  0  0  0999 V2000
   -8.6990   11.1710  -34.0830 N   0  0  0  0  0  0  0  0  0  0  0  0
   -8.3810   12.4340  -34.7380 C   0  0  0  0  0  0  0  0  0  0  0  0
   -9.5290   13.3210  -35.1020 C   0  0  1  0  0  0  0  0  0  0  0  0
   -7.2420   12.6600  -34.9610 O   0  0  0  0  0  0  0  0  0  0  0  0
   -9.1810   14.8030  -34.8550 C   0  0  0  0  0  0  0  0  0  0  0  0
   -9.8470   13.1350  -36.6200 C   0  0  0  0  0  0  0  0  0  0  0  0
   -8.8720   15.0590  -33.3180 C   0  0  0  0  0  0  0  0  0  0  0  0
  -11.3050   13.7450  -36.8440 C   0  0  0  0  0  0  0  0  0  0  0  0
   -8.3700   16.4840  -32.8990 C   0  0  1  0  0  0  0  0  0  0  0  0
   -9.0100   14.2010  -32.4750 O   0  0  0  0  0  0  0  0  0  0  0  0
  -11.4560   14.8940  -37.6190 C   0  0  0  0  0  0  0  0  0  0  0  0
  -12.4130   13.1380  -36.2460 C   0  0  0  0  0  0  0  0  0  0  0  0
   -8.9490   16.7850  -31.6390 N   0  0  0  0  0  0  0  0  0  0  0  0
   -6.8180   16.5090  -32.7420 C   0  0  0  0  0  0  0  0  0  0  0  0
  -12.7230   15.4330  -37.8170 C   0  0  0  0  0  0  0  0  0  0  0  0
  -13.6950   13.6860  -36.4410 C   0  0  0  0  0  0  0  0  0  0  0  0
   -6.0760   16.0030  -34.0320 C   0  0  0  0  0  0  0  0  0  0  0  0
   -6.4180   17.9810  -32.4960 C   0  0  0  0  0  0  0  0  0  0  0  0
  -13.8400   14.8240  -37.2230 C   0  0  0  0  0  0  0  0  0  0  0  0
  -15.0840   15.3590  -37.4180 F   0  0  0  0  0  0  0  0  0  0  0  0
  1  2  1  0
  3  2  1  0
  2  4  2  0
  3  5  1  6
  3  6  1  0
  7  5  1  0
  6  8  1  0
  7  9  1  0
  7 10  2  0
  8 11  2  0
  8 12  1  0
  9 13  1  1
  9 14  1  0
 11 15  1  0
 16 12  2  0
 14 17  1  0
 14 18  1  0
 15 19  2  0
 19 16  1  0
 19 20  1  0
A    2
 C47
A    3
 C04
A    4
 O48
A    5
 C02
A    6
 C05
A    7
 C01
A    8
 C06
A    9
 C57
A   10
 O03
A   11
 C07
A   12
 C11
A   14
 C78
A   15
 C08
A   16
 C10
A   17
 C81
A   18
 C82
A   19
 C09
A   20
 F1 
M  END
>  <XChem_code>  (513) 
AG7§11

>  <Occupancy>  (513) 
[1.0, 1.0, 1.0, 1.0, 1.0, 1.0, 1.0, 1.0, 1.0, 1.0, 1.0, 1.0, 1.0, 1.0, 1.0, 1.0, 1.0, 1.0, 1.0, 1.0, 1.0, 1.0, 1.0, 1.0, 1.0, 1.0, 1.0, 1.0, 1.0, 1.0, 1.0, 1.0, 1.0, 1.0, 1.0, 1.0, 1.0, 1.0, 1.0, 1.0, 1.0, 1.0, 1.0]

>  <TempFactor>  (513) 
[11.58, 15.03, 11.83, 16.25, 16.92, 12.34, 10.54, 20.22, 18.19, 14.53, 16.52, 20.55, 23.87, 20.72, 31.66, 32.21, 24.48, 11.55, 13.92, 10.24, 11.44, 10.75, 11.87, 10.52, 48.42, 14.67, 18.9, 51.51, 20.99, 12.24, 12.71, 37.77, 32.69, 13.62, 12.02, 16.3, 16.59, 14.61, 20.42, 22.35, 13.24, 10.96, 27.55]

>  <accession>  (513) 
5HXF_A

>  <description>  (513) 
Chain A, 3C protease [Enterovirus A71]

>  <evalue>  (513) 
1.33118e-69

>  <pdb_code>  (513) 
5HXF

>  <chain>  (513) 
A

>  <ligands>  (513) 
[{'chain_id': 'A', 'author_residue_number': 201, 'author_insertion_code': '', 'chem_comp_id': 'AG7', 'alternate_conformers': 0, 'entity_id': 2, 'struct_asym_id': 'B', 'residue_number': 1, 'chem_comp_name': '4-{2-(4-FLUORO-BENZYL)-6-METHYL-5-[(5-METHYL-ISOXAZOLE-3-CARBONYL)-AMINO]-4-OXO-HEPTANOYLAMINO}-5-(2-OXO-PYRROLIDIN-3-YL)-PENTANOIC ACID ETHYL ESTER', 'weight': 600.678, 'carbohydrate_polymer': False, 'branch_name': ''}, {'chain_id': 'A', 'author_residue_number': 202, 'author_insertion_code': '', 'chem_comp_id': 'SO4', 'alternate_conformers': 0, 'entity_id': 3, 'struct_asym_id': 'C', 'residue_number': 1, 'chem_comp_name': 'SULFATE ION', 'weight': 96.063, 'carbohydrate_polymer': False, 'branch_name': ''}, {'chain_id': 'A', 'author_residue_number': 203, 'author_insertion_code': '', 'chem_comp_id': 'SO4', 'alternate_conformers': 0, 'entity_id': 3, 'struct_asym_id': 'D', 'residue_number': 1, 'chem_comp_name': 'SULFATE ION', 'weight': 96.063, 'carbohydrate_polymer': False, 'branch_name': ''}]

>  <ligand_codes>  (513) 
['AG7', 'SO4', 'SO4']

>  <cofactor_codes>  (513) 
[]

>  <has_cofactor>  (513) 
False

>  <covalent>  (513) 
False

>  <base_name>  (513) 
5HXF

>  <lig_resn>  (513) 
AG7

>  <lig_resi>  (513) 
201

>  <lig_chain>  (513) 
A

>  <lig_segi>  (513) 
B

>  <lig_alt>  (513) 


>  <polymer_chain>  (513) 
A

>  <single_smiles>  (513) 
CCOC(=O)CC[C@H](C[C@@H]1CCNC1=O)NC(=O)[C@@H](CC(=O)[C@@H](NC(=O)c2cc(C)on2)C(C)C)Cc3ccc(F)cc3

$$$$
AG7P11S12
     RDKit          3D

 19 19  0  0  0  0  0  0  0  0999 V2000
   -8.3700   16.4840  -32.8990 C   0  0  0  0  0  0  0  0  0  0  0  0
   -8.8720   15.0590  -33.3180 C   0  0  0  0  0  0  0  0  0  0  0  0
   -6.8180   16.5090  -32.7420 C   0  0  0  0  0  0  0  0  0  0  0  0
   -9.1810   14.8030  -34.8550 C   0  0  0  0  0  0  0  0  0  0  0  0
   -9.0100   14.2010  -32.4750 O   0  0  0  0  0  0  0  0  0  0  0  0
   -6.0760   16.0030  -34.0320 C   0  0  0  0  0  0  0  0  0  0  0  0
   -6.4180   17.9810  -32.4960 C   0  0  0  0  0  0  0  0  0  0  0  0
   -9.5290   13.3210  -35.1020 C   0  0  2  0  0  0  0  0  0  0  0  0
   -8.3810   12.4340  -34.7380 C   0  0  0  0  0  0  0  0  0  0  0  0
   -9.8470   13.1350  -36.6200 C   0  0  0  0  0  0  0  0  0  0  0  0
   -8.6990   11.1710  -34.0830 N   0  0  0  0  0  0  0  0  0  0  0  0
   -7.2420   12.6600  -34.9610 O   0  0  0  0  0  0  0  0  0  0  0  0
  -11.3050   13.7450  -36.8440 C   0  0  0  0  0  0  0  0  0  0  0  0
  -11.4560   14.8940  -37.6190 C   0  0  0  0  0  0  0  0  0  0  0  0
  -12.4130   13.1380  -36.2460 C   0  0  0  0  0  0  0  0  0  0  0  0
  -12.7230   15.4330  -37.8170 C   0  0  0  0  0  0  0  0  0  0  0  0
  -13.6950   13.6860  -36.4410 C   0  0  0  0  0  0  0  0  0  0  0  0
  -13.8400   14.8240  -37.2230 C   0  0  0  0  0  0  0  0  0  0  0  0
  -15.0840   15.3590  -37.4180 F   0  0  0  0  0  0  0  0  0  0  0  0
  2  1  1  0
  1  3  1  6
  2  4  1  0
  2  5  2  0
  3  6  1  0
  3  7  1  0
  8  4  1  6
  8  9  1  0
  8 10  1  0
 11  9  1  0
  9 12  2  0
 10 13  1  0
 13 14  2  0
 13 15  1  0
 14 16  1  0
 17 15  2  0
 16 18  2  0
 18 17  1  0
 18 19  1  0
A    2
 C01
A    3
 C78
A    4
 C02
A    5
 O03
A    6
 C81
A    7
 C82
A    8
 C04
A    9
 C47
A   10
 C05
A   12
 O48
A   13
 C06
A   14
 C07
A   15
 C11
A   16
 C08
A   17
 C10
A   18
 C09
A   19
 F1 
M  END
>  <XChem_code>  (514) 
AG7§11

>  <Occupancy>  (514) 
[1.0, 1.0, 1.0, 1.0, 1.0, 1.0, 1.0, 1.0, 1.0, 1.0, 1.0, 1.0, 1.0, 1.0, 1.0, 1.0, 1.0, 1.0, 1.0, 1.0, 1.0, 1.0, 1.0, 1.0, 1.0, 1.0, 1.0, 1.0, 1.0, 1.0, 1.0, 1.0, 1.0, 1.0, 1.0, 1.0, 1.0, 1.0, 1.0, 1.0, 1.0, 1.0, 1.0]

>  <TempFactor>  (514) 
[11.58, 15.03, 11.83, 16.25, 16.92, 12.34, 10.54, 20.22, 18.19, 14.53, 16.52, 20.55, 23.87, 20.72, 31.66, 32.21, 24.48, 11.55, 13.92, 10.24, 11.44, 10.75, 11.87, 10.52, 48.42, 14.67, 18.9, 51.51, 20.99, 12.24, 12.71, 37.77, 32.69, 13.62, 12.02, 16.3, 16.59, 14.61, 20.42, 22.35, 13.24, 10.96, 27.55]

>  <accession>  (514) 
5HXF_A

>  <description>  (514) 
Chain A, 3C protease [Enterovirus A71]

>  <evalue>  (514) 
1.33118e-69

>  <pdb_code>  (514) 
5HXF

>  <chain>  (514) 
A

>  <ligands>  (514) 
[{'chain_id': 'A', 'author_residue_number': 201, 'author_insertion_code': '', 'chem_comp_id': 'AG7', 'alternate_conformers': 0, 'entity_id': 2, 'struct_asym_id': 'B', 'residue_number': 1, 'chem_comp_name': '4-{2-(4-FLUORO-BENZYL)-6-METHYL-5-[(5-METHYL-ISOXAZOLE-3-CARBONYL)-AMINO]-4-OXO-HEPTANOYLAMINO}-5-(2-OXO-PYRROLIDIN-3-YL)-PENTANOIC ACID ETHYL ESTER', 'weight': 600.678, 'carbohydrate_polymer': False, 'branch_name': ''}, {'chain_id': 'A', 'author_residue_number': 202, 'author_insertion_code': '', 'chem_comp_id': 'SO4', 'alternate_conformers': 0, 'entity_id': 3, 'struct_asym_id': 'C', 'residue_number': 1, 'chem_comp_name': 'SULFATE ION', 'weight': 96.063, 'carbohydrate_polymer': False, 'branch_name': ''}, {'chain_id': 'A', 'author_residue_number': 203, 'author_insertion_code': '', 'chem_comp_id': 'SO4', 'alternate_conformers': 0, 'entity_id': 3, 'struct_asym_id': 'D', 'residue_number': 1, 'chem_comp_name': 'SULFATE ION', 'weight': 96.063, 'carbohydrate_polymer': False, 'branch_name': ''}]

>  <ligand_codes>  (514) 
['AG7', 'SO4', 'SO4']

>  <cofactor_codes>  (514) 
[]

>  <has_cofactor>  (514) 
False

>  <covalent>  (514) 
False

>  <base_name>  (514) 
5HXF

>  <lig_resn>  (514) 
AG7

>  <lig_resi>  (514) 
201

>  <lig_chain>  (514) 
A

>  <lig_segi>  (514) 
B

>  <lig_alt>  (514) 


>  <polymer_chain>  (514) 
A

>  <single_smiles>  (514) 
CCOC(=O)CC[C@H](C[C@@H]1CCNC1=O)NC(=O)[C@@H](CC(=O)[C@@H](NC(=O)c2cc(C)on2)C(C)C)Cc3ccc(F)cc3

$$$$
AG7P11S13
     RDKit          3D

  6  6  0  0  0  0  0  0  0  0999 V2000
  -10.4440   17.9520  -29.9660 C   0  0  0  0  0  0  0  0  0  0  0  0
  -11.4110   18.8010  -29.4820 C   0  0  0  0  0  0  0  0  0  0  0  0
   -9.9480   17.2570  -28.9540 N   0  0  0  0  0  0  0  0  0  0  0  0
  -11.4910   18.5870  -28.1420 C   0  0  0  0  0  0  0  0  0  0  0  0
  -10.5980   17.6410  -27.8030 O   0  0  0  0  0  0  0  0  0  0  0  0
  -12.4230   19.2850  -27.1830 C   0  0  0  0  0  0  0  0  0  0  0  0
  1  2  1  0
  1  3  2  0
  2  4  2  0
  5  3  1  0
  4  6  1  0
  4  5  1  0
A    2
 C2 
A    3
 N5 
A    4
 C3 
A    5
 O4 
A    6
 C4 
M  END
>  <XChem_code>  (515) 
AG7§11

>  <Occupancy>  (515) 
[1.0, 1.0, 1.0, 1.0, 1.0, 1.0, 1.0, 1.0, 1.0, 1.0, 1.0, 1.0, 1.0, 1.0, 1.0, 1.0, 1.0, 1.0, 1.0, 1.0, 1.0, 1.0, 1.0, 1.0, 1.0, 1.0, 1.0, 1.0, 1.0, 1.0, 1.0, 1.0, 1.0, 1.0, 1.0, 1.0, 1.0, 1.0, 1.0, 1.0, 1.0, 1.0, 1.0]

>  <TempFactor>  (515) 
[11.58, 15.03, 11.83, 16.25, 16.92, 12.34, 10.54, 20.22, 18.19, 14.53, 16.52, 20.55, 23.87, 20.72, 31.66, 32.21, 24.48, 11.55, 13.92, 10.24, 11.44, 10.75, 11.87, 10.52, 48.42, 14.67, 18.9, 51.51, 20.99, 12.24, 12.71, 37.77, 32.69, 13.62, 12.02, 16.3, 16.59, 14.61, 20.42, 22.35, 13.24, 10.96, 27.55]

>  <accession>  (515) 
5HXF_A

>  <description>  (515) 
Chain A, 3C protease [Enterovirus A71]

>  <evalue>  (515) 
1.33118e-69

>  <pdb_code>  (515) 
5HXF

>  <chain>  (515) 
A

>  <ligands>  (515) 
[{'chain_id': 'A', 'author_residue_number': 201, 'author_insertion_code': '', 'chem_comp_id': 'AG7', 'alternate_conformers': 0, 'entity_id': 2, 'struct_asym_id': 'B', 'residue_number': 1, 'chem_comp_name': '4-{2-(4-FLUORO-BENZYL)-6-METHYL-5-[(5-METHYL-ISOXAZOLE-3-CARBONYL)-AMINO]-4-OXO-HEPTANOYLAMINO}-5-(2-OXO-PYRROLIDIN-3-YL)-PENTANOIC ACID ETHYL ESTER', 'weight': 600.678, 'carbohydrate_polymer': False, 'branch_name': ''}, {'chain_id': 'A', 'author_residue_number': 202, 'author_insertion_code': '', 'chem_comp_id': 'SO4', 'alternate_conformers': 0, 'entity_id': 3, 'struct_asym_id': 'C', 'residue_number': 1, 'chem_comp_name': 'SULFATE ION', 'weight': 96.063, 'carbohydrate_polymer': False, 'branch_name': ''}, {'chain_id': 'A', 'author_residue_number': 203, 'author_insertion_code': '', 'chem_comp_id': 'SO4', 'alternate_conformers': 0, 'entity_id': 3, 'struct_asym_id': 'D', 'residue_number': 1, 'chem_comp_name': 'SULFATE ION', 'weight': 96.063, 'carbohydrate_polymer': False, 'branch_name': ''}]

>  <ligand_codes>  (515) 
['AG7', 'SO4', 'SO4']

>  <cofactor_codes>  (515) 
[]

>  <has_cofactor>  (515) 
False

>  <covalent>  (515) 
False

>  <base_name>  (515) 
5HXF

>  <lig_resn>  (515) 
AG7

>  <lig_resi>  (515) 
201

>  <lig_chain>  (515) 
A

>  <lig_segi>  (515) 
B

>  <lig_alt>  (515) 


>  <polymer_chain>  (515) 
A

>  <single_smiles>  (515) 
CCOC(=O)CC[C@H](C[C@@H]1CCNC1=O)NC(=O)[C@@H](CC(=O)[C@@H](NC(=O)c2cc(C)on2)C(C)C)Cc3ccc(F)cc3

$$$$
AG7P11S14
     RDKit          3D

 37 38  0  0  0  0  0  0  0  0999 V2000
   -9.9620   17.8050  -31.4360 C   0  0  0  0  0  0  0  0  0  0  0  0
   -8.9490   16.7850  -31.6390 N   0  0  0  0  0  0  0  0  0  0  0  0
  -10.3840   18.4690  -32.3160 O   0  0  0  0  0  0  0  0  0  0  0  0
   -8.3700   16.4840  -32.8990 C   0  0  2  0  0  0  0  0  0  0  0  0
   -8.8720   15.0590  -33.3180 C   0  0  0  0  0  0  0  0  0  0  0  0
   -6.8180   16.5090  -32.7420 C   0  0  0  0  0  0  0  0  0  0  0  0
   -9.1810   14.8030  -34.8550 C   0  0  0  0  0  0  0  0  0  0  0  0
   -9.0100   14.2010  -32.4750 O   0  0  0  0  0  0  0  0  0  0  0  0
   -6.0760   16.0030  -34.0320 C   0  0  0  0  0  0  0  0  0  0  0  0
   -6.4180   17.9810  -32.4960 C   0  0  0  0  0  0  0  0  0  0  0  0
   -9.5290   13.3210  -35.1020 C   0  0  1  0  0  0  0  0  0  0  0  0
   -9.8470   13.1350  -36.6200 C   0  0  0  0  0  0  0  0  0  0  0  0
   -8.3810   12.4340  -34.7380 C   0  0  0  0  0  0  0  0  0  0  0  0
  -11.3050   13.7450  -36.8440 C   0  0  0  0  0  0  0  0  0  0  0  0
   -8.6990   11.1710  -34.0830 N   0  0  0  0  0  0  0  0  0  0  0  0
   -7.2420   12.6600  -34.9610 O   0  0  0  0  0  0  0  0  0  0  0  0
  -11.4560   14.8940  -37.6190 C   0  0  0  0  0  0  0  0  0  0  0  0
  -12.4130   13.1380  -36.2460 C   0  0  0  0  0  0  0  0  0  0  0  0
   -7.4890   10.3990  -33.7670 C   0  0  1  0  0  0  0  0  0  0  0  0
  -12.7230   15.4330  -37.8170 C   0  0  0  0  0  0  0  0  0  0  0  0
  -13.6950   13.6860  -36.4410 C   0  0  0  0  0  0  0  0  0  0  0  0
   -7.5780   10.0040  -32.2880 C   0  0  0  0  0  0  0  0  0  0  0  0
   -7.1540    9.1680  -34.5770 C   0  0  0  0  0  0  0  0  0  0  0  0
  -13.8400   14.8240  -37.2230 C   0  0  0  0  0  0  0  0  0  0  0  0
   -7.0990   11.3020  -31.5750 C   0  0  1  0  0  0  0  0  0  0  0  0
   -7.7230    9.1470  -35.9980 C   0  0  0  0  0  0  0  0  0  0  0  0
  -15.0840   15.3590  -37.4180 F   0  0  0  0  0  0  0  0  0  0  0  0
   -7.0230   11.0800  -29.9920 C   0  0  0  0  0  0  0  0  0  0  0  0
   -5.8440   11.7210  -31.9680 C   0  0  0  0  0  0  0  0  0  0  0  0
   -6.3230    9.0840  -36.5380 C   0  0  0  0  0  0  0  0  0  0  0  0
   -6.0040   11.8370  -29.5430 N   0  0  0  0  0  0  0  0  0  0  0  0
   -7.7390   10.4060  -29.3120 O   0  0  0  0  0  0  0  0  0  0  0  0
   -5.3380   12.5560  -30.7120 C   0  0  0  0  0  0  0  0  0  0  0  0
   -5.9850    9.6770  -37.7640 O   0  0  0  0  0  0  0  0  0  0  0  0
   -5.5070    8.5210  -35.8520 O   0  0  0  0  0  0  0  0  0  0  0  0
   -5.1320    8.8350  -38.5250 C   0  0  0  0  0  0  0  0  0  0  0  0
   -5.9370    8.4030  -39.7220 C   0  0  0  0  0  0  0  0  0  0  0  0
  2  1  1  0
  1  3  2  0
  4  2  1  1
  5  4  1  0
  4  6  1  0
  5  7  1  0
  5  8  2  0
  6  9  1  0
  6 10  1  0
 11  7  1  6
 11 12  1  0
 11 13  1  0
 12 14  1  0
 15 13  1  0
 13 16  2  0
 14 17  2  0
 14 18  1  0
 15 19  1  0
 17 20  1  0
 21 18  2  0
 19 22  1  1
 19 23  1  0
 20 24  2  0
 24 21  1  0
 25 22  1  6
 23 26  1  0
 24 27  1  0
 25 28  1  0
 25 29  1  0
 26 30  1  0
 28 31  1  0
 28 32  2  0
 33 29  1  0
 30 34  1  0
 30 35  2  0
 31 33  1  0
 34 36  1  0
 36 37  1  0
A    2
 N58
A    3
 O60
A    4
 C57
A    5
 C01
A    6
 C78
A    7
 C02
A    8
 O03
A    9
 C81
A   10
 C82
A   11
 C04
A   12
 C05
A   13
 C47
A   14
 C06
A   15
 N12
A   16
 O48
A   17
 C07
A   18
 C11
A   19
 C13
A   20
 C08
A   21
 C10
A   22
 C14
A   23
 C19
A   24
 C09
A   25
 C15
A   26
 C20
A   27
 F1 
A   28
 C16
A   29
 C84
A   30
 C21
A   31
 N17
A   32
 O18
A   33
 C83
A   34
 O22
A   35
 O23
A   36
 C50
A   37
 C53
M  END
>  <XChem_code>  (516) 
AG7§11

>  <Occupancy>  (516) 
[1.0, 1.0, 1.0, 1.0, 1.0, 1.0, 1.0, 1.0, 1.0, 1.0, 1.0, 1.0, 1.0, 1.0, 1.0, 1.0, 1.0, 1.0, 1.0, 1.0, 1.0, 1.0, 1.0, 1.0, 1.0, 1.0, 1.0, 1.0, 1.0, 1.0, 1.0, 1.0, 1.0, 1.0, 1.0, 1.0, 1.0, 1.0, 1.0, 1.0, 1.0, 1.0, 1.0]

>  <TempFactor>  (516) 
[11.58, 15.03, 11.83, 16.25, 16.92, 12.34, 10.54, 20.22, 18.19, 14.53, 16.52, 20.55, 23.87, 20.72, 31.66, 32.21, 24.48, 11.55, 13.92, 10.24, 11.44, 10.75, 11.87, 10.52, 48.42, 14.67, 18.9, 51.51, 20.99, 12.24, 12.71, 37.77, 32.69, 13.62, 12.02, 16.3, 16.59, 14.61, 20.42, 22.35, 13.24, 10.96, 27.55]

>  <accession>  (516) 
5HXF_A

>  <description>  (516) 
Chain A, 3C protease [Enterovirus A71]

>  <evalue>  (516) 
1.33118e-69

>  <pdb_code>  (516) 
5HXF

>  <chain>  (516) 
A

>  <ligands>  (516) 
[{'chain_id': 'A', 'author_residue_number': 201, 'author_insertion_code': '', 'chem_comp_id': 'AG7', 'alternate_conformers': 0, 'entity_id': 2, 'struct_asym_id': 'B', 'residue_number': 1, 'chem_comp_name': '4-{2-(4-FLUORO-BENZYL)-6-METHYL-5-[(5-METHYL-ISOXAZOLE-3-CARBONYL)-AMINO]-4-OXO-HEPTANOYLAMINO}-5-(2-OXO-PYRROLIDIN-3-YL)-PENTANOIC ACID ETHYL ESTER', 'weight': 600.678, 'carbohydrate_polymer': False, 'branch_name': ''}, {'chain_id': 'A', 'author_residue_number': 202, 'author_insertion_code': '', 'chem_comp_id': 'SO4', 'alternate_conformers': 0, 'entity_id': 3, 'struct_asym_id': 'C', 'residue_number': 1, 'chem_comp_name': 'SULFATE ION', 'weight': 96.063, 'carbohydrate_polymer': False, 'branch_name': ''}, {'chain_id': 'A', 'author_residue_number': 203, 'author_insertion_code': '', 'chem_comp_id': 'SO4', 'alternate_conformers': 0, 'entity_id': 3, 'struct_asym_id': 'D', 'residue_number': 1, 'chem_comp_name': 'SULFATE ION', 'weight': 96.063, 'carbohydrate_polymer': False, 'branch_name': ''}]

>  <ligand_codes>  (516) 
['AG7', 'SO4', 'SO4']

>  <cofactor_codes>  (516) 
[]

>  <has_cofactor>  (516) 
False

>  <covalent>  (516) 
False

>  <base_name>  (516) 
5HXF

>  <lig_resn>  (516) 
AG7

>  <lig_resi>  (516) 
201

>  <lig_chain>  (516) 
A

>  <lig_segi>  (516) 
B

>  <lig_alt>  (516) 


>  <polymer_chain>  (516) 
A

>  <single_smiles>  (516) 
CCOC(=O)CC[C@H](C[C@@H]1CCNC1=O)NC(=O)[C@@H](CC(=O)[C@@H](NC(=O)c2cc(C)on2)C(C)C)Cc3ccc(F)cc3

$$$$
AG7P11S15
     RDKit          3D

 21 21  0  0  0  0  0  0  0  0999 V2000
   -9.9620   17.8050  -31.4360 C   0  0  0  0  0  0  0  0  0  0  0  0
   -8.9490   16.7850  -31.6390 N   0  0  0  0  0  0  0  0  0  0  0  0
  -10.3840   18.4690  -32.3160 O   0  0  0  0  0  0  0  0  0  0  0  0
   -8.3700   16.4840  -32.8990 C   0  0  2  0  0  0  0  0  0  0  0  0
   -8.8720   15.0590  -33.3180 C   0  0  0  0  0  0  0  0  0  0  0  0
   -6.8180   16.5090  -32.7420 C   0  0  0  0  0  0  0  0  0  0  0  0
   -9.1810   14.8030  -34.8550 C   0  0  0  0  0  0  0  0  0  0  0  0
   -9.0100   14.2010  -32.4750 O   0  0  0  0  0  0  0  0  0  0  0  0
   -6.0760   16.0030  -34.0320 C   0  0  0  0  0  0  0  0  0  0  0  0
   -6.4180   17.9810  -32.4960 C   0  0  0  0  0  0  0  0  0  0  0  0
   -9.5290   13.3210  -35.1020 C   0  0  2  0  0  0  0  0  0  0  0  0
   -8.3810   12.4340  -34.7380 C   0  0  0  0  0  0  0  0  0  0  0  0
   -9.8470   13.1350  -36.6200 C   0  0  0  0  0  0  0  0  0  0  0  0
   -7.2420   12.6600  -34.9610 O   0  0  0  0  0  0  0  0  0  0  0  0
  -11.3050   13.7450  -36.8440 C   0  0  0  0  0  0  0  0  0  0  0  0
  -11.4560   14.8940  -37.6190 C   0  0  0  0  0  0  0  0  0  0  0  0
  -12.4130   13.1380  -36.2460 C   0  0  0  0  0  0  0  0  0  0  0  0
  -12.7230   15.4330  -37.8170 C   0  0  0  0  0  0  0  0  0  0  0  0
  -13.6950   13.6860  -36.4410 C   0  0  0  0  0  0  0  0  0  0  0  0
  -13.8400   14.8240  -37.2230 C   0  0  0  0  0  0  0  0  0  0  0  0
  -15.0840   15.3590  -37.4180 F   0  0  0  0  0  0  0  0  0  0  0  0
  2  1  1  0
  1  3  2  0
  4  2  1  1
  5  4  1  0
  4  6  1  0
  5  7  1  0
  5  8  2  0
  6  9  1  0
  6 10  1  0
 11  7  1  6
 11 12  1  0
 11 13  1  0
 12 14  2  0
 13 15  1  0
 15 16  2  0
 15 17  1  0
 16 18  1  0
 19 17  2  0
 18 20  2  0
 20 19  1  0
 20 21  1  0
A    2
 N58
A    3
 O60
A    4
 C57
A    5
 C01
A    6
 C78
A    7
 C02
A    8
 O03
A    9
 C81
A   10
 C82
A   11
 C04
A   13
 C05
A   14
 O48
A   15
 C06
A   16
 C07
A   17
 C11
A   18
 C08
A   19
 C10
A   20
 C09
A   21
 F1 
M  END
>  <XChem_code>  (517) 
AG7§11

>  <Occupancy>  (517) 
[1.0, 1.0, 1.0, 1.0, 1.0, 1.0, 1.0, 1.0, 1.0, 1.0, 1.0, 1.0, 1.0, 1.0, 1.0, 1.0, 1.0, 1.0, 1.0, 1.0, 1.0, 1.0, 1.0, 1.0, 1.0, 1.0, 1.0, 1.0, 1.0, 1.0, 1.0, 1.0, 1.0, 1.0, 1.0, 1.0, 1.0, 1.0, 1.0, 1.0, 1.0, 1.0, 1.0]

>  <TempFactor>  (517) 
[11.58, 15.03, 11.83, 16.25, 16.92, 12.34, 10.54, 20.22, 18.19, 14.53, 16.52, 20.55, 23.87, 20.72, 31.66, 32.21, 24.48, 11.55, 13.92, 10.24, 11.44, 10.75, 11.87, 10.52, 48.42, 14.67, 18.9, 51.51, 20.99, 12.24, 12.71, 37.77, 32.69, 13.62, 12.02, 16.3, 16.59, 14.61, 20.42, 22.35, 13.24, 10.96, 27.55]

>  <accession>  (517) 
5HXF_A

>  <description>  (517) 
Chain A, 3C protease [Enterovirus A71]

>  <evalue>  (517) 
1.33118e-69

>  <pdb_code>  (517) 
5HXF

>  <chain>  (517) 
A

>  <ligands>  (517) 
[{'chain_id': 'A', 'author_residue_number': 201, 'author_insertion_code': '', 'chem_comp_id': 'AG7', 'alternate_conformers': 0, 'entity_id': 2, 'struct_asym_id': 'B', 'residue_number': 1, 'chem_comp_name': '4-{2-(4-FLUORO-BENZYL)-6-METHYL-5-[(5-METHYL-ISOXAZOLE-3-CARBONYL)-AMINO]-4-OXO-HEPTANOYLAMINO}-5-(2-OXO-PYRROLIDIN-3-YL)-PENTANOIC ACID ETHYL ESTER', 'weight': 600.678, 'carbohydrate_polymer': False, 'branch_name': ''}, {'chain_id': 'A', 'author_residue_number': 202, 'author_insertion_code': '', 'chem_comp_id': 'SO4', 'alternate_conformers': 0, 'entity_id': 3, 'struct_asym_id': 'C', 'residue_number': 1, 'chem_comp_name': 'SULFATE ION', 'weight': 96.063, 'carbohydrate_polymer': False, 'branch_name': ''}, {'chain_id': 'A', 'author_residue_number': 203, 'author_insertion_code': '', 'chem_comp_id': 'SO4', 'alternate_conformers': 0, 'entity_id': 3, 'struct_asym_id': 'D', 'residue_number': 1, 'chem_comp_name': 'SULFATE ION', 'weight': 96.063, 'carbohydrate_polymer': False, 'branch_name': ''}]

>  <ligand_codes>  (517) 
['AG7', 'SO4', 'SO4']

>  <cofactor_codes>  (517) 
[]

>  <has_cofactor>  (517) 
False

>  <covalent>  (517) 
False

>  <base_name>  (517) 
5HXF

>  <lig_resn>  (517) 
AG7

>  <lig_resi>  (517) 
201

>  <lig_chain>  (517) 
A

>  <lig_segi>  (517) 
B

>  <lig_alt>  (517) 


>  <polymer_chain>  (517) 
A

>  <single_smiles>  (517) 
CCOC(=O)CC[C@H](C[C@@H]1CCNC1=O)NC(=O)[C@@H](CC(=O)[C@@H](NC(=O)c2cc(C)on2)C(C)C)Cc3ccc(F)cc3

$$$$
AG7P11S16
     RDKit          3D

 22 22  0  0  0  0  0  0  0  0999 V2000
   -9.9620   17.8050  -31.4360 C   0  0  0  0  0  0  0  0  0  0  0  0
   -8.9490   16.7850  -31.6390 N   0  0  0  0  0  0  0  0  0  0  0  0
  -10.3840   18.4690  -32.3160 O   0  0  0  0  0  0  0  0  0  0  0  0
   -8.3700   16.4840  -32.8990 C   0  0  2  0  0  0  0  0  0  0  0  0
   -8.8720   15.0590  -33.3180 C   0  0  0  0  0  0  0  0  0  0  0  0
   -6.8180   16.5090  -32.7420 C   0  0  0  0  0  0  0  0  0  0  0  0
   -9.1810   14.8030  -34.8550 C   0  0  0  0  0  0  0  0  0  0  0  0
   -9.0100   14.2010  -32.4750 O   0  0  0  0  0  0  0  0  0  0  0  0
   -6.0760   16.0030  -34.0320 C   0  0  0  0  0  0  0  0  0  0  0  0
   -6.4180   17.9810  -32.4960 C   0  0  0  0  0  0  0  0  0  0  0  0
   -9.5290   13.3210  -35.1020 C   0  0  2  0  0  0  0  0  0  0  0  0
   -8.3810   12.4340  -34.7380 C   0  0  0  0  0  0  0  0  0  0  0  0
   -9.8470   13.1350  -36.6200 C   0  0  0  0  0  0  0  0  0  0  0  0
   -8.6990   11.1710  -34.0830 N   0  0  0  0  0  0  0  0  0  0  0  0
   -7.2420   12.6600  -34.9610 O   0  0  0  0  0  0  0  0  0  0  0  0
  -11.3050   13.7450  -36.8440 C   0  0  0  0  0  0  0  0  0  0  0  0
  -11.4560   14.8940  -37.6190 C   0  0  0  0  0  0  0  0  0  0  0  0
  -12.4130   13.1380  -36.2460 C   0  0  0  0  0  0  0  0  0  0  0  0
  -12.7230   15.4330  -37.8170 C   0  0  0  0  0  0  0  0  0  0  0  0
  -13.6950   13.6860  -36.4410 C   0  0  0  0  0  0  0  0  0  0  0  0
  -13.8400   14.8240  -37.2230 C   0  0  0  0  0  0  0  0  0  0  0  0
  -15.0840   15.3590  -37.4180 F   0  0  0  0  0  0  0  0  0  0  0  0
  2  1  1  0
  1  3  2  0
  4  2  1  1
  5  4  1  0
  4  6  1  0
  5  7  1  0
  5  8  2  0
  6  9  1  0
  6 10  1  0
 11  7  1  6
 11 12  1  0
 11 13  1  0
 14 12  1  0
 12 15  2  0
 13 16  1  0
 16 17  2  0
 16 18  1  0
 17 19  1  0
 20 18  2  0
 19 21  2  0
 21 20  1  0
 21 22  1  0
A    2
 N58
A    3
 O60
A    4
 C57
A    5
 C01
A    6
 C78
A    7
 C02
A    8
 O03
A    9
 C81
A   10
 C82
A   11
 C04
A   12
 C47
A   13
 C05
A   15
 O48
A   16
 C06
A   17
 C07
A   18
 C11
A   19
 C08
A   20
 C10
A   21
 C09
A   22
 F1 
M  END
>  <XChem_code>  (518) 
AG7§11

>  <Occupancy>  (518) 
[1.0, 1.0, 1.0, 1.0, 1.0, 1.0, 1.0, 1.0, 1.0, 1.0, 1.0, 1.0, 1.0, 1.0, 1.0, 1.0, 1.0, 1.0, 1.0, 1.0, 1.0, 1.0, 1.0, 1.0, 1.0, 1.0, 1.0, 1.0, 1.0, 1.0, 1.0, 1.0, 1.0, 1.0, 1.0, 1.0, 1.0, 1.0, 1.0, 1.0, 1.0, 1.0, 1.0]

>  <TempFactor>  (518) 
[11.58, 15.03, 11.83, 16.25, 16.92, 12.34, 10.54, 20.22, 18.19, 14.53, 16.52, 20.55, 23.87, 20.72, 31.66, 32.21, 24.48, 11.55, 13.92, 10.24, 11.44, 10.75, 11.87, 10.52, 48.42, 14.67, 18.9, 51.51, 20.99, 12.24, 12.71, 37.77, 32.69, 13.62, 12.02, 16.3, 16.59, 14.61, 20.42, 22.35, 13.24, 10.96, 27.55]

>  <accession>  (518) 
5HXF_A

>  <description>  (518) 
Chain A, 3C protease [Enterovirus A71]

>  <evalue>  (518) 
1.33118e-69

>  <pdb_code>  (518) 
5HXF

>  <chain>  (518) 
A

>  <ligands>  (518) 
[{'chain_id': 'A', 'author_residue_number': 201, 'author_insertion_code': '', 'chem_comp_id': 'AG7', 'alternate_conformers': 0, 'entity_id': 2, 'struct_asym_id': 'B', 'residue_number': 1, 'chem_comp_name': '4-{2-(4-FLUORO-BENZYL)-6-METHYL-5-[(5-METHYL-ISOXAZOLE-3-CARBONYL)-AMINO]-4-OXO-HEPTANOYLAMINO}-5-(2-OXO-PYRROLIDIN-3-YL)-PENTANOIC ACID ETHYL ESTER', 'weight': 600.678, 'carbohydrate_polymer': False, 'branch_name': ''}, {'chain_id': 'A', 'author_residue_number': 202, 'author_insertion_code': '', 'chem_comp_id': 'SO4', 'alternate_conformers': 0, 'entity_id': 3, 'struct_asym_id': 'C', 'residue_number': 1, 'chem_comp_name': 'SULFATE ION', 'weight': 96.063, 'carbohydrate_polymer': False, 'branch_name': ''}, {'chain_id': 'A', 'author_residue_number': 203, 'author_insertion_code': '', 'chem_comp_id': 'SO4', 'alternate_conformers': 0, 'entity_id': 3, 'struct_asym_id': 'D', 'residue_number': 1, 'chem_comp_name': 'SULFATE ION', 'weight': 96.063, 'carbohydrate_polymer': False, 'branch_name': ''}]

>  <ligand_codes>  (518) 
['AG7', 'SO4', 'SO4']

>  <cofactor_codes>  (518) 
[]

>  <has_cofactor>  (518) 
False

>  <covalent>  (518) 
False

>  <base_name>  (518) 
5HXF

>  <lig_resn>  (518) 
AG7

>  <lig_resi>  (518) 
201

>  <lig_chain>  (518) 
A

>  <lig_segi>  (518) 
B

>  <lig_alt>  (518) 


>  <polymer_chain>  (518) 
A

>  <single_smiles>  (518) 
CCOC(=O)CC[C@H](C[C@@H]1CCNC1=O)NC(=O)[C@@H](CC(=O)[C@@H](NC(=O)c2cc(C)on2)C(C)C)Cc3ccc(F)cc3

$$$$
AG7P11S17
     RDKit          3D

  6  6  0  0  0  0  0  0  0  0999 V2000
   -7.0990   11.3020  -31.5750 C   0  0  0  0  0  0  0  0  0  0  0  0
   -7.0230   11.0800  -29.9920 C   0  0  0  0  0  0  0  0  0  0  0  0
   -5.8440   11.7210  -31.9680 C   0  0  0  0  0  0  0  0  0  0  0  0
   -6.0040   11.8370  -29.5430 N   0  0  0  0  0  0  0  0  0  0  0  0
   -7.7390   10.4060  -29.3120 O   0  0  0  0  0  0  0  0  0  0  0  0
   -5.3380   12.5560  -30.7120 C   0  0  0  0  0  0  0  0  0  0  0  0
  1  2  1  0
  1  3  1  1
  2  4  1  0
  2  5  2  0
  6  3  1  0
  4  6  1  0
A    2
 C16
A    3
 C84
A    4
 N17
A    5
 O18
A    6
 C83
M  END
>  <XChem_code>  (519) 
AG7§11

>  <Occupancy>  (519) 
[1.0, 1.0, 1.0, 1.0, 1.0, 1.0, 1.0, 1.0, 1.0, 1.0, 1.0, 1.0, 1.0, 1.0, 1.0, 1.0, 1.0, 1.0, 1.0, 1.0, 1.0, 1.0, 1.0, 1.0, 1.0, 1.0, 1.0, 1.0, 1.0, 1.0, 1.0, 1.0, 1.0, 1.0, 1.0, 1.0, 1.0, 1.0, 1.0, 1.0, 1.0, 1.0, 1.0]

>  <TempFactor>  (519) 
[11.58, 15.03, 11.83, 16.25, 16.92, 12.34, 10.54, 20.22, 18.19, 14.53, 16.52, 20.55, 23.87, 20.72, 31.66, 32.21, 24.48, 11.55, 13.92, 10.24, 11.44, 10.75, 11.87, 10.52, 48.42, 14.67, 18.9, 51.51, 20.99, 12.24, 12.71, 37.77, 32.69, 13.62, 12.02, 16.3, 16.59, 14.61, 20.42, 22.35, 13.24, 10.96, 27.55]

>  <accession>  (519) 
5HXF_A

>  <description>  (519) 
Chain A, 3C protease [Enterovirus A71]

>  <evalue>  (519) 
1.33118e-69

>  <pdb_code>  (519) 
5HXF

>  <chain>  (519) 
A

>  <ligands>  (519) 
[{'chain_id': 'A', 'author_residue_number': 201, 'author_insertion_code': '', 'chem_comp_id': 'AG7', 'alternate_conformers': 0, 'entity_id': 2, 'struct_asym_id': 'B', 'residue_number': 1, 'chem_comp_name': '4-{2-(4-FLUORO-BENZYL)-6-METHYL-5-[(5-METHYL-ISOXAZOLE-3-CARBONYL)-AMINO]-4-OXO-HEPTANOYLAMINO}-5-(2-OXO-PYRROLIDIN-3-YL)-PENTANOIC ACID ETHYL ESTER', 'weight': 600.678, 'carbohydrate_polymer': False, 'branch_name': ''}, {'chain_id': 'A', 'author_residue_number': 202, 'author_insertion_code': '', 'chem_comp_id': 'SO4', 'alternate_conformers': 0, 'entity_id': 3, 'struct_asym_id': 'C', 'residue_number': 1, 'chem_comp_name': 'SULFATE ION', 'weight': 96.063, 'carbohydrate_polymer': False, 'branch_name': ''}, {'chain_id': 'A', 'author_residue_number': 203, 'author_insertion_code': '', 'chem_comp_id': 'SO4', 'alternate_conformers': 0, 'entity_id': 3, 'struct_asym_id': 'D', 'residue_number': 1, 'chem_comp_name': 'SULFATE ION', 'weight': 96.063, 'carbohydrate_polymer': False, 'branch_name': ''}]

>  <ligand_codes>  (519) 
['AG7', 'SO4', 'SO4']

>  <cofactor_codes>  (519) 
[]

>  <has_cofactor>  (519) 
False

>  <covalent>  (519) 
False

>  <base_name>  (519) 
5HXF

>  <lig_resn>  (519) 
AG7

>  <lig_resi>  (519) 
201

>  <lig_chain>  (519) 
A

>  <lig_segi>  (519) 
B

>  <lig_alt>  (519) 


>  <polymer_chain>  (519) 
A

>  <single_smiles>  (519) 
CCOC(=O)CC[C@H](C[C@@H]1CCNC1=O)NC(=O)[C@@H](CC(=O)[C@@H](NC(=O)c2cc(C)on2)C(C)C)Cc3ccc(F)cc3

$$$$
AG7P11S18
     RDKit          3D

 37 38  0  0  0  0  0  0  0  0999 V2000
   -7.5780   10.0040  -32.2880 C   0  0  0  0  0  0  0  0  0  0  0  0
   -7.4890   10.3990  -33.7670 C   0  0  2  0  0  0  0  0  0  0  0  0
   -8.6990   11.1710  -34.0830 N   0  0  0  0  0  0  0  0  0  0  0  0
   -7.1540    9.1680  -34.5770 C   0  0  0  0  0  0  0  0  0  0  0  0
   -8.3810   12.4340  -34.7380 C   0  0  0  0  0  0  0  0  0  0  0  0
   -7.7230    9.1470  -35.9980 C   0  0  0  0  0  0  0  0  0  0  0  0
   -9.5290   13.3210  -35.1020 C   0  0  1  0  0  0  0  0  0  0  0  0
   -7.2420   12.6600  -34.9610 O   0  0  0  0  0  0  0  0  0  0  0  0
   -6.3230    9.0840  -36.5380 C   0  0  0  0  0  0  0  0  0  0  0  0
   -9.1810   14.8030  -34.8550 C   0  0  0  0  0  0  0  0  0  0  0  0
   -9.8470   13.1350  -36.6200 C   0  0  0  0  0  0  0  0  0  0  0  0
   -5.9850    9.6770  -37.7640 O   0  0  0  0  0  0  0  0  0  0  0  0
   -5.5070    8.5210  -35.8520 O   0  0  0  0  0  0  0  0  0  0  0  0
   -8.8720   15.0590  -33.3180 C   0  0  0  0  0  0  0  0  0  0  0  0
  -11.3050   13.7450  -36.8440 C   0  0  0  0  0  0  0  0  0  0  0  0
   -5.1320    8.8350  -38.5250 C   0  0  0  0  0  0  0  0  0  0  0  0
   -9.0100   14.2010  -32.4750 O   0  0  0  0  0  0  0  0  0  0  0  0
   -8.3700   16.4840  -32.8990 C   0  0  1  0  0  0  0  0  0  0  0  0
  -11.4560   14.8940  -37.6190 C   0  0  0  0  0  0  0  0  0  0  0  0
  -12.4130   13.1380  -36.2460 C   0  0  0  0  0  0  0  0  0  0  0  0
   -5.9370    8.4030  -39.7220 C   0  0  0  0  0  0  0  0  0  0  0  0
   -8.9490   16.7850  -31.6390 N   0  0  0  0  0  0  0  0  0  0  0  0
   -6.8180   16.5090  -32.7420 C   0  0  0  0  0  0  0  0  0  0  0  0
  -12.7230   15.4330  -37.8170 C   0  0  0  0  0  0  0  0  0  0  0  0
  -13.6950   13.6860  -36.4410 C   0  0  0  0  0  0  0  0  0  0  0  0
   -9.9620   17.8050  -31.4360 C   0  0  0  0  0  0  0  0  0  0  0  0
   -6.0760   16.0030  -34.0320 C   0  0  0  0  0  0  0  0  0  0  0  0
   -6.4180   17.9810  -32.4960 C   0  0  0  0  0  0  0  0  0  0  0  0
  -13.8400   14.8240  -37.2230 C   0  0  0  0  0  0  0  0  0  0  0  0
  -10.4440   17.9520  -29.9660 C   0  0  0  0  0  0  0  0  0  0  0  0
  -10.3840   18.4690  -32.3160 O   0  0  0  0  0  0  0  0  0  0  0  0
  -15.0840   15.3590  -37.4180 F   0  0  0  0  0  0  0  0  0  0  0  0
  -11.4110   18.8010  -29.4820 C   0  0  0  0  0  0  0  0  0  0  0  0
   -9.9480   17.2570  -28.9540 N   0  0  0  0  0  0  0  0  0  0  0  0
  -11.4910   18.5870  -28.1420 C   0  0  0  0  0  0  0  0  0  0  0  0
  -10.5980   17.6410  -27.8030 O   0  0  0  0  0  0  0  0  0  0  0  0
  -12.4230   19.2850  -27.1830 C   0  0  0  0  0  0  0  0  0  0  0  0
  2  1  1  1
  3  2  1  0
  2  4  1  0
  3  5  1  0
  4  6  1  0
  7  5  1  0
  5  8  2  0
  6  9  1  0
  7 10  1  6
  7 11  1  0
  9 12  1  0
  9 13  2  0
 14 10  1  0
 11 15  1  0
 12 16  1  0
 14 17  2  0
 14 18  1  0
 15 19  2  0
 15 20  1  0
 16 21  1  0
 18 22  1  1
 18 23  1  0
 19 24  1  0
 25 20  2  0
 22 26  1  0
 23 27  1  0
 23 28  1  0
 24 29  2  0
 29 25  1  0
 30 26  1  0
 26 31  2  0
 29 32  1  0
 30 33  1  0
 30 34  2  0
 33 35  2  0
 36 34  1  0
 35 37  1  0
 35 36  1  0
A    2
 C13
A    3
 N12
A    4
 C19
A    5
 C47
A    6
 C20
A    7
 C04
A    8
 O48
A    9
 C21
A   10
 C02
A   11
 C05
A   12
 O22
A   13
 O23
A   14
 C01
A   15
 C06
A   16
 C50
A   17
 O03
A   18
 C57
A   19
 C07
A   20
 C11
A   21
 C53
A   22
 N58
A   23
 C78
A   24
 C08
A   25
 C10
A   26
 C59
A   27
 C81
A   28
 C82
A   29
 C09
A   30
 C1 
A   31
 O60
A   32
 F1 
A   33
 C2 
A   34
 N5 
A   35
 C3 
A   36
 O4 
A   37
 C4 
M  END
>  <XChem_code>  (520) 
AG7§11

>  <Occupancy>  (520) 
[1.0, 1.0, 1.0, 1.0, 1.0, 1.0, 1.0, 1.0, 1.0, 1.0, 1.0, 1.0, 1.0, 1.0, 1.0, 1.0, 1.0, 1.0, 1.0, 1.0, 1.0, 1.0, 1.0, 1.0, 1.0, 1.0, 1.0, 1.0, 1.0, 1.0, 1.0, 1.0, 1.0, 1.0, 1.0, 1.0, 1.0, 1.0, 1.0, 1.0, 1.0, 1.0, 1.0]

>  <TempFactor>  (520) 
[11.58, 15.03, 11.83, 16.25, 16.92, 12.34, 10.54, 20.22, 18.19, 14.53, 16.52, 20.55, 23.87, 20.72, 31.66, 32.21, 24.48, 11.55, 13.92, 10.24, 11.44, 10.75, 11.87, 10.52, 48.42, 14.67, 18.9, 51.51, 20.99, 12.24, 12.71, 37.77, 32.69, 13.62, 12.02, 16.3, 16.59, 14.61, 20.42, 22.35, 13.24, 10.96, 27.55]

>  <accession>  (520) 
5HXF_A

>  <description>  (520) 
Chain A, 3C protease [Enterovirus A71]

>  <evalue>  (520) 
1.33118e-69

>  <pdb_code>  (520) 
5HXF

>  <chain>  (520) 
A

>  <ligands>  (520) 
[{'chain_id': 'A', 'author_residue_number': 201, 'author_insertion_code': '', 'chem_comp_id': 'AG7', 'alternate_conformers': 0, 'entity_id': 2, 'struct_asym_id': 'B', 'residue_number': 1, 'chem_comp_name': '4-{2-(4-FLUORO-BENZYL)-6-METHYL-5-[(5-METHYL-ISOXAZOLE-3-CARBONYL)-AMINO]-4-OXO-HEPTANOYLAMINO}-5-(2-OXO-PYRROLIDIN-3-YL)-PENTANOIC ACID ETHYL ESTER', 'weight': 600.678, 'carbohydrate_polymer': False, 'branch_name': ''}, {'chain_id': 'A', 'author_residue_number': 202, 'author_insertion_code': '', 'chem_comp_id': 'SO4', 'alternate_conformers': 0, 'entity_id': 3, 'struct_asym_id': 'C', 'residue_number': 1, 'chem_comp_name': 'SULFATE ION', 'weight': 96.063, 'carbohydrate_polymer': False, 'branch_name': ''}, {'chain_id': 'A', 'author_residue_number': 203, 'author_insertion_code': '', 'chem_comp_id': 'SO4', 'alternate_conformers': 0, 'entity_id': 3, 'struct_asym_id': 'D', 'residue_number': 1, 'chem_comp_name': 'SULFATE ION', 'weight': 96.063, 'carbohydrate_polymer': False, 'branch_name': ''}]

>  <ligand_codes>  (520) 
['AG7', 'SO4', 'SO4']

>  <cofactor_codes>  (520) 
[]

>  <has_cofactor>  (520) 
False

>  <covalent>  (520) 
False

>  <base_name>  (520) 
5HXF

>  <lig_resn>  (520) 
AG7

>  <lig_resi>  (520) 
201

>  <lig_chain>  (520) 
A

>  <lig_segi>  (520) 
B

>  <lig_alt>  (520) 


>  <polymer_chain>  (520) 
A

>  <single_smiles>  (520) 
CCOC(=O)CC[C@H](C[C@@H]1CCNC1=O)NC(=O)[C@@H](CC(=O)[C@@H](NC(=O)c2cc(C)on2)C(C)C)Cc3ccc(F)cc3

$$$$
AG7P11S19
     RDKit          3D

  7  7  0  0  0  0  0  0  0  0999 V2000
  -11.3050   13.7450  -36.8440 C   0  0  0  0  0  0  0  0  0  0  0  0
  -11.4560   14.8940  -37.6190 C   0  0  0  0  0  0  0  0  0  0  0  0
  -12.4130   13.1380  -36.2460 C   0  0  0  0  0  0  0  0  0  0  0  0
  -12.7230   15.4330  -37.8170 C   0  0  0  0  0  0  0  0  0  0  0  0
  -13.6950   13.6860  -36.4410 C   0  0  0  0  0  0  0  0  0  0  0  0
  -13.8400   14.8240  -37.2230 C   0  0  0  0  0  0  0  0  0  0  0  0
  -15.0840   15.3590  -37.4180 F   0  0  0  0  0  0  0  0  0  0  0  0
  1  2  2  0
  1  3  1  0
  2  4  1  0
  5  3  2  0
  4  6  2  0
  6  5  1  0
  6  7  1  0
A    2
 C07
A    3
 C11
A    4
 C08
A    5
 C10
A    6
 C09
A    7
 F1 
M  END
>  <XChem_code>  (521) 
AG7§11

>  <Occupancy>  (521) 
[1.0, 1.0, 1.0, 1.0, 1.0, 1.0, 1.0, 1.0, 1.0, 1.0, 1.0, 1.0, 1.0, 1.0, 1.0, 1.0, 1.0, 1.0, 1.0, 1.0, 1.0, 1.0, 1.0, 1.0, 1.0, 1.0, 1.0, 1.0, 1.0, 1.0, 1.0, 1.0, 1.0, 1.0, 1.0, 1.0, 1.0, 1.0, 1.0, 1.0, 1.0, 1.0, 1.0]

>  <TempFactor>  (521) 
[11.58, 15.03, 11.83, 16.25, 16.92, 12.34, 10.54, 20.22, 18.19, 14.53, 16.52, 20.55, 23.87, 20.72, 31.66, 32.21, 24.48, 11.55, 13.92, 10.24, 11.44, 10.75, 11.87, 10.52, 48.42, 14.67, 18.9, 51.51, 20.99, 12.24, 12.71, 37.77, 32.69, 13.62, 12.02, 16.3, 16.59, 14.61, 20.42, 22.35, 13.24, 10.96, 27.55]

>  <accession>  (521) 
5HXF_A

>  <description>  (521) 
Chain A, 3C protease [Enterovirus A71]

>  <evalue>  (521) 
1.33118e-69

>  <pdb_code>  (521) 
5HXF

>  <chain>  (521) 
A

>  <ligands>  (521) 
[{'chain_id': 'A', 'author_residue_number': 201, 'author_insertion_code': '', 'chem_comp_id': 'AG7', 'alternate_conformers': 0, 'entity_id': 2, 'struct_asym_id': 'B', 'residue_number': 1, 'chem_comp_name': '4-{2-(4-FLUORO-BENZYL)-6-METHYL-5-[(5-METHYL-ISOXAZOLE-3-CARBONYL)-AMINO]-4-OXO-HEPTANOYLAMINO}-5-(2-OXO-PYRROLIDIN-3-YL)-PENTANOIC ACID ETHYL ESTER', 'weight': 600.678, 'carbohydrate_polymer': False, 'branch_name': ''}, {'chain_id': 'A', 'author_residue_number': 202, 'author_insertion_code': '', 'chem_comp_id': 'SO4', 'alternate_conformers': 0, 'entity_id': 3, 'struct_asym_id': 'C', 'residue_number': 1, 'chem_comp_name': 'SULFATE ION', 'weight': 96.063, 'carbohydrate_polymer': False, 'branch_name': ''}, {'chain_id': 'A', 'author_residue_number': 203, 'author_insertion_code': '', 'chem_comp_id': 'SO4', 'alternate_conformers': 0, 'entity_id': 3, 'struct_asym_id': 'D', 'residue_number': 1, 'chem_comp_name': 'SULFATE ION', 'weight': 96.063, 'carbohydrate_polymer': False, 'branch_name': ''}]

>  <ligand_codes>  (521) 
['AG7', 'SO4', 'SO4']

>  <cofactor_codes>  (521) 
[]

>  <has_cofactor>  (521) 
False

>  <covalent>  (521) 
False

>  <base_name>  (521) 
5HXF

>  <lig_resn>  (521) 
AG7

>  <lig_resi>  (521) 
201

>  <lig_chain>  (521) 
A

>  <lig_segi>  (521) 
B

>  <lig_alt>  (521) 


>  <polymer_chain>  (521) 
A

>  <single_smiles>  (521) 
CCOC(=O)CC[C@H](C[C@@H]1CCNC1=O)NC(=O)[C@@H](CC(=O)[C@@H](NC(=O)c2cc(C)on2)C(C)C)Cc3ccc(F)cc3

$$$$
AG7P11S20
     RDKit          3D

 36 37  0  0  0  0  0  0  0  0999 V2000
   -9.8470   13.1350  -36.6200 C   0  0  0  0  0  0  0  0  0  0  0  0
   -9.5290   13.3210  -35.1020 C   0  0  2  0  0  0  0  0  0  0  0  0
   -9.1810   14.8030  -34.8550 C   0  0  0  0  0  0  0  0  0  0  0  0
   -8.3810   12.4340  -34.7380 C   0  0  0  0  0  0  0  0  0  0  0  0
   -8.8720   15.0590  -33.3180 C   0  0  0  0  0  0  0  0  0  0  0  0
   -8.6990   11.1710  -34.0830 N   0  0  0  0  0  0  0  0  0  0  0  0
   -7.2420   12.6600  -34.9610 O   0  0  0  0  0  0  0  0  0  0  0  0
   -9.0100   14.2010  -32.4750 O   0  0  0  0  0  0  0  0  0  0  0  0
   -8.3700   16.4840  -32.8990 C   0  0  1  0  0  0  0  0  0  0  0  0
   -7.4890   10.3990  -33.7670 C   0  0  1  0  0  0  0  0  0  0  0  0
   -8.9490   16.7850  -31.6390 N   0  0  0  0  0  0  0  0  0  0  0  0
   -6.8180   16.5090  -32.7420 C   0  0  0  0  0  0  0  0  0  0  0  0
   -7.5780   10.0040  -32.2880 C   0  0  0  0  0  0  0  0  0  0  0  0
   -7.1540    9.1680  -34.5770 C   0  0  0  0  0  0  0  0  0  0  0  0
   -9.9620   17.8050  -31.4360 C   0  0  0  0  0  0  0  0  0  0  0  0
   -6.0760   16.0030  -34.0320 C   0  0  0  0  0  0  0  0  0  0  0  0
   -6.4180   17.9810  -32.4960 C   0  0  0  0  0  0  0  0  0  0  0  0
   -7.0990   11.3020  -31.5750 C   0  0  1  0  0  0  0  0  0  0  0  0
   -7.7230    9.1470  -35.9980 C   0  0  0  0  0  0  0  0  0  0  0  0
  -10.4440   17.9520  -29.9660 C   0  0  0  0  0  0  0  0  0  0  0  0
  -10.3840   18.4690  -32.3160 O   0  0  0  0  0  0  0  0  0  0  0  0
   -7.0230   11.0800  -29.9920 C   0  0  0  0  0  0  0  0  0  0  0  0
   -5.8440   11.7210  -31.9680 C   0  0  0  0  0  0  0  0  0  0  0  0
   -6.3230    9.0840  -36.5380 C   0  0  0  0  0  0  0  0  0  0  0  0
  -11.4110   18.8010  -29.4820 C   0  0  0  0  0  0  0  0  0  0  0  0
   -9.9480   17.2570  -28.9540 N   0  0  0  0  0  0  0  0  0  0  0  0
   -6.0040   11.8370  -29.5430 N   0  0  0  0  0  0  0  0  0  0  0  0
   -7.7390   10.4060  -29.3120 O   0  0  0  0  0  0  0  0  0  0  0  0
   -5.3380   12.5560  -30.7120 C   0  0  0  0  0  0  0  0  0  0  0  0
   -5.9850    9.6770  -37.7640 O   0  0  0  0  0  0  0  0  0  0  0  0
   -5.5070    8.5210  -35.8520 O   0  0  0  0  0  0  0  0  0  0  0  0
  -11.4910   18.5870  -28.1420 C   0  0  0  0  0  0  0  0  0  0  0  0
  -10.5980   17.6410  -27.8030 O   0  0  0  0  0  0  0  0  0  0  0  0
   -5.1320    8.8350  -38.5250 C   0  0  0  0  0  0  0  0  0  0  0  0
  -12.4230   19.2850  -27.1830 C   0  0  0  0  0  0  0  0  0  0  0  0
   -5.9370    8.4030  -39.7220 C   0  0  0  0  0  0  0  0  0  0  0  0
  2  1  1  6
  2  3  1  0
  2  4  1  0
  5  3  1  0
  6  4  1  0
  4  7  2  0
  5  8  2  0
  5  9  1  0
  6 10  1  0
  9 11  1  1
  9 12  1  0
 10 13  1  1
 10 14  1  0
 11 15  1  0
 12 16  1  0
 12 17  1  0
 18 13  1  6
 14 19  1  0
 20 15  1  0
 15 21  2  0
 18 22  1  0
 18 23  1  0
 19 24  1  0
 20 25  1  0
 20 26  2  0
 22 27  1  0
 22 28  2  0
 29 23  1  0
 24 30  1  0
 24 31  2  0
 25 32  2  0
 33 26  1  0
 27 29  1  0
 30 34  1  0
 32 35  1  0
 32 33  1  0
 34 36  1  0
A    2
 C04
A    3
 C02
A    4
 C47
A    5
 C01
A    6
 N12
A    7
 O48
A    8
 O03
A    9
 C57
A   10
 C13
A   11
 N58
A   12
 C78
A   13
 C14
A   14
 C19
A   15
 C59
A   16
 C81
A   17
 C82
A   18
 C15
A   19
 C20
A   20
 C1 
A   21
 O60
A   22
 C16
A   23
 C84
A   24
 C21
A   25
 C2 
A   26
 N5 
A   27
 N17
A   28
 O18
A   29
 C83
A   30
 O22
A   31
 O23
A   32
 C3 
A   33
 O4 
A   34
 C50
A   35
 C4 
A   36
 C53
M  END
>  <XChem_code>  (522) 
AG7§11

>  <Occupancy>  (522) 
[1.0, 1.0, 1.0, 1.0, 1.0, 1.0, 1.0, 1.0, 1.0, 1.0, 1.0, 1.0, 1.0, 1.0, 1.0, 1.0, 1.0, 1.0, 1.0, 1.0, 1.0, 1.0, 1.0, 1.0, 1.0, 1.0, 1.0, 1.0, 1.0, 1.0, 1.0, 1.0, 1.0, 1.0, 1.0, 1.0, 1.0, 1.0, 1.0, 1.0, 1.0, 1.0, 1.0]

>  <TempFactor>  (522) 
[11.58, 15.03, 11.83, 16.25, 16.92, 12.34, 10.54, 20.22, 18.19, 14.53, 16.52, 20.55, 23.87, 20.72, 31.66, 32.21, 24.48, 11.55, 13.92, 10.24, 11.44, 10.75, 11.87, 10.52, 48.42, 14.67, 18.9, 51.51, 20.99, 12.24, 12.71, 37.77, 32.69, 13.62, 12.02, 16.3, 16.59, 14.61, 20.42, 22.35, 13.24, 10.96, 27.55]

>  <accession>  (522) 
5HXF_A

>  <description>  (522) 
Chain A, 3C protease [Enterovirus A71]

>  <evalue>  (522) 
1.33118e-69

>  <pdb_code>  (522) 
5HXF

>  <chain>  (522) 
A

>  <ligands>  (522) 
[{'chain_id': 'A', 'author_residue_number': 201, 'author_insertion_code': '', 'chem_comp_id': 'AG7', 'alternate_conformers': 0, 'entity_id': 2, 'struct_asym_id': 'B', 'residue_number': 1, 'chem_comp_name': '4-{2-(4-FLUORO-BENZYL)-6-METHYL-5-[(5-METHYL-ISOXAZOLE-3-CARBONYL)-AMINO]-4-OXO-HEPTANOYLAMINO}-5-(2-OXO-PYRROLIDIN-3-YL)-PENTANOIC ACID ETHYL ESTER', 'weight': 600.678, 'carbohydrate_polymer': False, 'branch_name': ''}, {'chain_id': 'A', 'author_residue_number': 202, 'author_insertion_code': '', 'chem_comp_id': 'SO4', 'alternate_conformers': 0, 'entity_id': 3, 'struct_asym_id': 'C', 'residue_number': 1, 'chem_comp_name': 'SULFATE ION', 'weight': 96.063, 'carbohydrate_polymer': False, 'branch_name': ''}, {'chain_id': 'A', 'author_residue_number': 203, 'author_insertion_code': '', 'chem_comp_id': 'SO4', 'alternate_conformers': 0, 'entity_id': 3, 'struct_asym_id': 'D', 'residue_number': 1, 'chem_comp_name': 'SULFATE ION', 'weight': 96.063, 'carbohydrate_polymer': False, 'branch_name': ''}]

>  <ligand_codes>  (522) 
['AG7', 'SO4', 'SO4']

>  <cofactor_codes>  (522) 
[]

>  <has_cofactor>  (522) 
False

>  <covalent>  (522) 
False

>  <base_name>  (522) 
5HXF

>  <lig_resn>  (522) 
AG7

>  <lig_resi>  (522) 
201

>  <lig_chain>  (522) 
A

>  <lig_segi>  (522) 
B

>  <lig_alt>  (522) 


>  <polymer_chain>  (522) 
A

>  <single_smiles>  (522) 
CCOC(=O)CC[C@H](C[C@@H]1CCNC1=O)NC(=O)[C@@H](CC(=O)[C@@H](NC(=O)c2cc(C)on2)C(C)C)Cc3ccc(F)cc3

$$$$
AG7P11S21
     RDKit          3D

 10  9  0  0  0  0  0  0  0  0999 V2000
   -7.5780   10.0040  -32.2880 C   0  0  0  0  0  0  0  0  0  0  0  0
   -7.4890   10.3990  -33.7670 C   0  0  2  0  0  0  0  0  0  0  0  0
   -8.6990   11.1710  -34.0830 N   0  0  0  0  0  0  0  0  0  0  0  0
   -7.1540    9.1680  -34.5770 C   0  0  0  0  0  0  0  0  0  0  0  0
   -7.7230    9.1470  -35.9980 C   0  0  0  0  0  0  0  0  0  0  0  0
   -6.3230    9.0840  -36.5380 C   0  0  0  0  0  0  0  0  0  0  0  0
   -5.9850    9.6770  -37.7640 O   0  0  0  0  0  0  0  0  0  0  0  0
   -5.5070    8.5210  -35.8520 O   0  0  0  0  0  0  0  0  0  0  0  0
   -5.1320    8.8350  -38.5250 C   0  0  0  0  0  0  0  0  0  0  0  0
   -5.9370    8.4030  -39.7220 C   0  0  0  0  0  0  0  0  0  0  0  0
  2  1  1  1
  3  2  1  0
  2  4  1  0
  4  5  1  0
  5  6  1  0
  6  7  1  0
  6  8  2  0
  7  9  1  0
  9 10  1  0
A    2
 C13
A    4
 C19
A    5
 C20
A    6
 C21
A    7
 O22
A    8
 O23
A    9
 C50
A   10
 C53
M  END
>  <XChem_code>  (523) 
AG7§11

>  <Occupancy>  (523) 
[1.0, 1.0, 1.0, 1.0, 1.0, 1.0, 1.0, 1.0, 1.0, 1.0, 1.0, 1.0, 1.0, 1.0, 1.0, 1.0, 1.0, 1.0, 1.0, 1.0, 1.0, 1.0, 1.0, 1.0, 1.0, 1.0, 1.0, 1.0, 1.0, 1.0, 1.0, 1.0, 1.0, 1.0, 1.0, 1.0, 1.0, 1.0, 1.0, 1.0, 1.0, 1.0, 1.0]

>  <TempFactor>  (523) 
[11.58, 15.03, 11.83, 16.25, 16.92, 12.34, 10.54, 20.22, 18.19, 14.53, 16.52, 20.55, 23.87, 20.72, 31.66, 32.21, 24.48, 11.55, 13.92, 10.24, 11.44, 10.75, 11.87, 10.52, 48.42, 14.67, 18.9, 51.51, 20.99, 12.24, 12.71, 37.77, 32.69, 13.62, 12.02, 16.3, 16.59, 14.61, 20.42, 22.35, 13.24, 10.96, 27.55]

>  <accession>  (523) 
5HXF_A

>  <description>  (523) 
Chain A, 3C protease [Enterovirus A71]

>  <evalue>  (523) 
1.33118e-69

>  <pdb_code>  (523) 
5HXF

>  <chain>  (523) 
A

>  <ligands>  (523) 
[{'chain_id': 'A', 'author_residue_number': 201, 'author_insertion_code': '', 'chem_comp_id': 'AG7', 'alternate_conformers': 0, 'entity_id': 2, 'struct_asym_id': 'B', 'residue_number': 1, 'chem_comp_name': '4-{2-(4-FLUORO-BENZYL)-6-METHYL-5-[(5-METHYL-ISOXAZOLE-3-CARBONYL)-AMINO]-4-OXO-HEPTANOYLAMINO}-5-(2-OXO-PYRROLIDIN-3-YL)-PENTANOIC ACID ETHYL ESTER', 'weight': 600.678, 'carbohydrate_polymer': False, 'branch_name': ''}, {'chain_id': 'A', 'author_residue_number': 202, 'author_insertion_code': '', 'chem_comp_id': 'SO4', 'alternate_conformers': 0, 'entity_id': 3, 'struct_asym_id': 'C', 'residue_number': 1, 'chem_comp_name': 'SULFATE ION', 'weight': 96.063, 'carbohydrate_polymer': False, 'branch_name': ''}, {'chain_id': 'A', 'author_residue_number': 203, 'author_insertion_code': '', 'chem_comp_id': 'SO4', 'alternate_conformers': 0, 'entity_id': 3, 'struct_asym_id': 'D', 'residue_number': 1, 'chem_comp_name': 'SULFATE ION', 'weight': 96.063, 'carbohydrate_polymer': False, 'branch_name': ''}]

>  <ligand_codes>  (523) 
['AG7', 'SO4', 'SO4']

>  <cofactor_codes>  (523) 
[]

>  <has_cofactor>  (523) 
False

>  <covalent>  (523) 
False

>  <base_name>  (523) 
5HXF

>  <lig_resn>  (523) 
AG7

>  <lig_resi>  (523) 
201

>  <lig_chain>  (523) 
A

>  <lig_segi>  (523) 
B

>  <lig_alt>  (523) 


>  <polymer_chain>  (523) 
A

>  <single_smiles>  (523) 
CCOC(=O)CC[C@H](C[C@@H]1CCNC1=O)NC(=O)[C@@H](CC(=O)[C@@H](NC(=O)c2cc(C)on2)C(C)C)Cc3ccc(F)cc3

$$$$
AG7P11S22
     RDKit          3D

 20 20  0  0  0  0  0  0  0  0999 V2000
   -9.8470   13.1350  -36.6200 C   0  0  0  0  0  0  0  0  0  0  0  0
   -9.5290   13.3210  -35.1020 C   0  0  1  0  0  0  0  0  0  0  0  0
   -8.3810   12.4340  -34.7380 C   0  0  0  0  0  0  0  0  0  0  0  0
   -9.1810   14.8030  -34.8550 C   0  0  0  0  0  0  0  0  0  0  0  0
   -7.2420   12.6600  -34.9610 O   0  0  0  0  0  0  0  0  0  0  0  0
   -8.8720   15.0590  -33.3180 C   0  0  0  0  0  0  0  0  0  0  0  0
   -9.0100   14.2010  -32.4750 O   0  0  0  0  0  0  0  0  0  0  0  0
   -8.3700   16.4840  -32.8990 C   0  0  1  0  0  0  0  0  0  0  0  0
   -8.9490   16.7850  -31.6390 N   0  0  0  0  0  0  0  0  0  0  0  0
   -6.8180   16.5090  -32.7420 C   0  0  0  0  0  0  0  0  0  0  0  0
   -9.9620   17.8050  -31.4360 C   0  0  0  0  0  0  0  0  0  0  0  0
   -6.0760   16.0030  -34.0320 C   0  0  0  0  0  0  0  0  0  0  0  0
   -6.4180   17.9810  -32.4960 C   0  0  0  0  0  0  0  0  0  0  0  0
  -10.4440   17.9520  -29.9660 C   0  0  0  0  0  0  0  0  0  0  0  0
  -10.3840   18.4690  -32.3160 O   0  0  0  0  0  0  0  0  0  0  0  0
  -11.4110   18.8010  -29.4820 C   0  0  0  0  0  0  0  0  0  0  0  0
   -9.9480   17.2570  -28.9540 N   0  0  0  0  0  0  0  0  0  0  0  0
  -11.4910   18.5870  -28.1420 C   0  0  0  0  0  0  0  0  0  0  0  0
  -10.5980   17.6410  -27.8030 O   0  0  0  0  0  0  0  0  0  0  0  0
  -12.4230   19.2850  -27.1830 C   0  0  0  0  0  0  0  0  0  0  0  0
  2  1  1  6
  2  3  1  0
  2  4  1  0
  3  5  2  0
  6  4  1  0
  6  7  2  0
  6  8  1  0
  8  9  1  1
  8 10  1  0
  9 11  1  0
 10 12  1  0
 10 13  1  0
 14 11  1  0
 11 15  2  0
 14 16  1  0
 14 17  2  0
 16 18  2  0
 19 17  1  0
 18 20  1  0
 18 19  1  0
A    2
 C04
A    4
 C02
A    5
 O48
A    6
 C01
A    7
 O03
A    8
 C57
A    9
 N58
A   10
 C78
A   11
 C59
A   12
 C81
A   13
 C82
A   14
 C1 
A   15
 O60
A   16
 C2 
A   17
 N5 
A   18
 C3 
A   19
 O4 
A   20
 C4 
M  END
>  <XChem_code>  (524) 
AG7§11

>  <Occupancy>  (524) 
[1.0, 1.0, 1.0, 1.0, 1.0, 1.0, 1.0, 1.0, 1.0, 1.0, 1.0, 1.0, 1.0, 1.0, 1.0, 1.0, 1.0, 1.0, 1.0, 1.0, 1.0, 1.0, 1.0, 1.0, 1.0, 1.0, 1.0, 1.0, 1.0, 1.0, 1.0, 1.0, 1.0, 1.0, 1.0, 1.0, 1.0, 1.0, 1.0, 1.0, 1.0, 1.0, 1.0]

>  <TempFactor>  (524) 
[11.58, 15.03, 11.83, 16.25, 16.92, 12.34, 10.54, 20.22, 18.19, 14.53, 16.52, 20.55, 23.87, 20.72, 31.66, 32.21, 24.48, 11.55, 13.92, 10.24, 11.44, 10.75, 11.87, 10.52, 48.42, 14.67, 18.9, 51.51, 20.99, 12.24, 12.71, 37.77, 32.69, 13.62, 12.02, 16.3, 16.59, 14.61, 20.42, 22.35, 13.24, 10.96, 27.55]

>  <accession>  (524) 
5HXF_A

>  <description>  (524) 
Chain A, 3C protease [Enterovirus A71]

>  <evalue>  (524) 
1.33118e-69

>  <pdb_code>  (524) 
5HXF

>  <chain>  (524) 
A

>  <ligands>  (524) 
[{'chain_id': 'A', 'author_residue_number': 201, 'author_insertion_code': '', 'chem_comp_id': 'AG7', 'alternate_conformers': 0, 'entity_id': 2, 'struct_asym_id': 'B', 'residue_number': 1, 'chem_comp_name': '4-{2-(4-FLUORO-BENZYL)-6-METHYL-5-[(5-METHYL-ISOXAZOLE-3-CARBONYL)-AMINO]-4-OXO-HEPTANOYLAMINO}-5-(2-OXO-PYRROLIDIN-3-YL)-PENTANOIC ACID ETHYL ESTER', 'weight': 600.678, 'carbohydrate_polymer': False, 'branch_name': ''}, {'chain_id': 'A', 'author_residue_number': 202, 'author_insertion_code': '', 'chem_comp_id': 'SO4', 'alternate_conformers': 0, 'entity_id': 3, 'struct_asym_id': 'C', 'residue_number': 1, 'chem_comp_name': 'SULFATE ION', 'weight': 96.063, 'carbohydrate_polymer': False, 'branch_name': ''}, {'chain_id': 'A', 'author_residue_number': 203, 'author_insertion_code': '', 'chem_comp_id': 'SO4', 'alternate_conformers': 0, 'entity_id': 3, 'struct_asym_id': 'D', 'residue_number': 1, 'chem_comp_name': 'SULFATE ION', 'weight': 96.063, 'carbohydrate_polymer': False, 'branch_name': ''}]

>  <ligand_codes>  (524) 
['AG7', 'SO4', 'SO4']

>  <cofactor_codes>  (524) 
[]

>  <has_cofactor>  (524) 
False

>  <covalent>  (524) 
False

>  <base_name>  (524) 
5HXF

>  <lig_resn>  (524) 
AG7

>  <lig_resi>  (524) 
201

>  <lig_chain>  (524) 
A

>  <lig_segi>  (524) 
B

>  <lig_alt>  (524) 


>  <polymer_chain>  (524) 
A

>  <single_smiles>  (524) 
CCOC(=O)CC[C@H](C[C@@H]1CCNC1=O)NC(=O)[C@@H](CC(=O)[C@@H](NC(=O)c2cc(C)on2)C(C)C)Cc3ccc(F)cc3

$$$$
AG7P11S23
     RDKit          3D

 29 29  0  0  0  0  0  0  0  0999 V2000
   -7.5780   10.0040  -32.2880 C   0  0  0  0  0  0  0  0  0  0  0  0
   -7.4890   10.3990  -33.7670 C   0  0  2  0  0  0  0  0  0  0  0  0
   -8.6990   11.1710  -34.0830 N   0  0  0  0  0  0  0  0  0  0  0  0
   -7.1540    9.1680  -34.5770 C   0  0  0  0  0  0  0  0  0  0  0  0
   -8.3810   12.4340  -34.7380 C   0  0  0  0  0  0  0  0  0  0  0  0
   -7.7230    9.1470  -35.9980 C   0  0  0  0  0  0  0  0  0  0  0  0
   -9.5290   13.3210  -35.1020 C   0  0  1  0  0  0  0  0  0  0  0  0
   -7.2420   12.6600  -34.9610 O   0  0  0  0  0  0  0  0  0  0  0  0
   -6.3230    9.0840  -36.5380 C   0  0  0  0  0  0  0  0  0  0  0  0
   -9.1810   14.8030  -34.8550 C   0  0  0  0  0  0  0  0  0  0  0  0
   -9.8470   13.1350  -36.6200 C   0  0  0  0  0  0  0  0  0  0  0  0
   -5.9850    9.6770  -37.7640 O   0  0  0  0  0  0  0  0  0  0  0  0
   -5.5070    8.5210  -35.8520 O   0  0  0  0  0  0  0  0  0  0  0  0
   -8.8720   15.0590  -33.3180 C   0  0  0  0  0  0  0  0  0  0  0  0
  -11.3050   13.7450  -36.8440 C   0  0  0  0  0  0  0  0  0  0  0  0
   -5.1320    8.8350  -38.5250 C   0  0  0  0  0  0  0  0  0  0  0  0
   -8.3700   16.4840  -32.8990 C   0  0  1  0  0  0  0  0  0  0  0  0
   -9.0100   14.2010  -32.4750 O   0  0  0  0  0  0  0  0  0  0  0  0
  -11.4560   14.8940  -37.6190 C   0  0  0  0  0  0  0  0  0  0  0  0
  -12.4130   13.1380  -36.2460 C   0  0  0  0  0  0  0  0  0  0  0  0
   -5.9370    8.4030  -39.7220 C   0  0  0  0  0  0  0  0  0  0  0  0
   -8.9490   16.7850  -31.6390 N   0  0  0  0  0  0  0  0  0  0  0  0
   -6.8180   16.5090  -32.7420 C   0  0  0  0  0  0  0  0  0  0  0  0
  -12.7230   15.4330  -37.8170 C   0  0  0  0  0  0  0  0  0  0  0  0
  -13.6950   13.6860  -36.4410 C   0  0  0  0  0  0  0  0  0  0  0  0
   -6.0760   16.0030  -34.0320 C   0  0  0  0  0  0  0  0  0  0  0  0
   -6.4180   17.9810  -32.4960 C   0  0  0  0  0  0  0  0  0  0  0  0
  -13.8400   14.8240  -37.2230 C   0  0  0  0  0  0  0  0  0  0  0  0
  -15.0840   15.3590  -37.4180 F   0  0  0  0  0  0  0  0  0  0  0  0
  2  1  1  1
  3  2  1  0
  2  4  1  0
  3  5  1  0
  4  6  1  0
  7  5  1  0
  5  8  2  0
  6  9  1  0
  7 10  1  6
  7 11  1  0
  9 12  1  0
  9 13  2  0
 14 10  1  0
 11 15  1  0
 12 16  1  0
 14 17  1  0
 14 18  2  0
 15 19  2  0
 15 20  1  0
 16 21  1  0
 17 22  1  1
 17 23  1  0
 19 24  1  0
 25 20  2  0
 23 26  1  0
 23 27  1  0
 24 28  2  0
 28 25  1  0
 28 29  1  0
A    2
 C13
A    3
 N12
A    4
 C19
A    5
 C47
A    6
 C20
A    7
 C04
A    8
 O48
A    9
 C21
A   10
 C02
A   11
 C05
A   12
 O22
A   13
 O23
A   14
 C01
A   15
 C06
A   16
 C50
A   17
 C57
A   18
 O03
A   19
 C07
A   20
 C11
A   21
 C53
A   23
 C78
A   24
 C08
A   25
 C10
A   26
 C81
A   27
 C82
A   28
 C09
A   29
 F1 
M  END
>  <XChem_code>  (525) 
AG7§11

>  <Occupancy>  (525) 
[1.0, 1.0, 1.0, 1.0, 1.0, 1.0, 1.0, 1.0, 1.0, 1.0, 1.0, 1.0, 1.0, 1.0, 1.0, 1.0, 1.0, 1.0, 1.0, 1.0, 1.0, 1.0, 1.0, 1.0, 1.0, 1.0, 1.0, 1.0, 1.0, 1.0, 1.0, 1.0, 1.0, 1.0, 1.0, 1.0, 1.0, 1.0, 1.0, 1.0, 1.0, 1.0, 1.0]

>  <TempFactor>  (525) 
[11.58, 15.03, 11.83, 16.25, 16.92, 12.34, 10.54, 20.22, 18.19, 14.53, 16.52, 20.55, 23.87, 20.72, 31.66, 32.21, 24.48, 11.55, 13.92, 10.24, 11.44, 10.75, 11.87, 10.52, 48.42, 14.67, 18.9, 51.51, 20.99, 12.24, 12.71, 37.77, 32.69, 13.62, 12.02, 16.3, 16.59, 14.61, 20.42, 22.35, 13.24, 10.96, 27.55]

>  <accession>  (525) 
5HXF_A

>  <description>  (525) 
Chain A, 3C protease [Enterovirus A71]

>  <evalue>  (525) 
1.33118e-69

>  <pdb_code>  (525) 
5HXF

>  <chain>  (525) 
A

>  <ligands>  (525) 
[{'chain_id': 'A', 'author_residue_number': 201, 'author_insertion_code': '', 'chem_comp_id': 'AG7', 'alternate_conformers': 0, 'entity_id': 2, 'struct_asym_id': 'B', 'residue_number': 1, 'chem_comp_name': '4-{2-(4-FLUORO-BENZYL)-6-METHYL-5-[(5-METHYL-ISOXAZOLE-3-CARBONYL)-AMINO]-4-OXO-HEPTANOYLAMINO}-5-(2-OXO-PYRROLIDIN-3-YL)-PENTANOIC ACID ETHYL ESTER', 'weight': 600.678, 'carbohydrate_polymer': False, 'branch_name': ''}, {'chain_id': 'A', 'author_residue_number': 202, 'author_insertion_code': '', 'chem_comp_id': 'SO4', 'alternate_conformers': 0, 'entity_id': 3, 'struct_asym_id': 'C', 'residue_number': 1, 'chem_comp_name': 'SULFATE ION', 'weight': 96.063, 'carbohydrate_polymer': False, 'branch_name': ''}, {'chain_id': 'A', 'author_residue_number': 203, 'author_insertion_code': '', 'chem_comp_id': 'SO4', 'alternate_conformers': 0, 'entity_id': 3, 'struct_asym_id': 'D', 'residue_number': 1, 'chem_comp_name': 'SULFATE ION', 'weight': 96.063, 'carbohydrate_polymer': False, 'branch_name': ''}]

>  <ligand_codes>  (525) 
['AG7', 'SO4', 'SO4']

>  <cofactor_codes>  (525) 
[]

>  <has_cofactor>  (525) 
False

>  <covalent>  (525) 
False

>  <base_name>  (525) 
5HXF

>  <lig_resn>  (525) 
AG7

>  <lig_resi>  (525) 
201

>  <lig_chain>  (525) 
A

>  <lig_segi>  (525) 
B

>  <lig_alt>  (525) 


>  <polymer_chain>  (525) 
A

>  <single_smiles>  (525) 
CCOC(=O)CC[C@H](C[C@@H]1CCNC1=O)NC(=O)[C@@H](CC(=O)[C@@H](NC(=O)c2cc(C)on2)C(C)C)Cc3ccc(F)cc3

$$$$
AG7P11S24
     RDKit          3D

 28 28  0  0  0  0  0  0  0  0999 V2000
   -9.8470   13.1350  -36.6200 C   0  0  0  0  0  0  0  0  0  0  0  0
   -9.5290   13.3210  -35.1020 C   0  0  2  0  0  0  0  0  0  0  0  0
   -9.1810   14.8030  -34.8550 C   0  0  0  0  0  0  0  0  0  0  0  0
   -8.3810   12.4340  -34.7380 C   0  0  0  0  0  0  0  0  0  0  0  0
   -8.8720   15.0590  -33.3180 C   0  0  0  0  0  0  0  0  0  0  0  0
   -8.6990   11.1710  -34.0830 N   0  0  0  0  0  0  0  0  0  0  0  0
   -7.2420   12.6600  -34.9610 O   0  0  0  0  0  0  0  0  0  0  0  0
   -8.3700   16.4840  -32.8990 C   0  0  1  0  0  0  0  0  0  0  0  0
   -9.0100   14.2010  -32.4750 O   0  0  0  0  0  0  0  0  0  0  0  0
   -7.4890   10.3990  -33.7670 C   0  0  1  0  0  0  0  0  0  0  0  0
   -8.9490   16.7850  -31.6390 N   0  0  0  0  0  0  0  0  0  0  0  0
   -6.8180   16.5090  -32.7420 C   0  0  0  0  0  0  0  0  0  0  0  0
   -7.5780   10.0040  -32.2880 C   0  0  0  0  0  0  0  0  0  0  0  0
   -7.1540    9.1680  -34.5770 C   0  0  0  0  0  0  0  0  0  0  0  0
   -6.0760   16.0030  -34.0320 C   0  0  0  0  0  0  0  0  0  0  0  0
   -6.4180   17.9810  -32.4960 C   0  0  0  0  0  0  0  0  0  0  0  0
   -7.0990   11.3020  -31.5750 C   0  0  1  0  0  0  0  0  0  0  0  0
   -7.7230    9.1470  -35.9980 C   0  0  0  0  0  0  0  0  0  0  0  0
   -7.0230   11.0800  -29.9920 C   0  0  0  0  0  0  0  0  0  0  0  0
   -5.8440   11.7210  -31.9680 C   0  0  0  0  0  0  0  0  0  0  0  0
   -6.3230    9.0840  -36.5380 C   0  0  0  0  0  0  0  0  0  0  0  0
   -6.0040   11.8370  -29.5430 N   0  0  0  0  0  0  0  0  0  0  0  0
   -7.7390   10.4060  -29.3120 O   0  0  0  0  0  0  0  0  0  0  0  0
   -5.3380   12.5560  -30.7120 C   0  0  0  0  0  0  0  0  0  0  0  0
   -5.9850    9.6770  -37.7640 O   0  0  0  0  0  0  0  0  0  0  0  0
   -5.5070    8.5210  -35.8520 O   0  0  0  0  0  0  0  0  0  0  0  0
   -5.1320    8.8350  -38.5250 C   0  0  0  0  0  0  0  0  0  0  0  0
   -5.9370    8.4030  -39.7220 C   0  0  0  0  0  0  0  0  0  0  0  0
  2  1  1  6
  2  3  1  0
  2  4  1  0
  5  3  1  0
  6  4  1  0
  4  7  2  0
  5  8  1  0
  5  9  2  0
  6 10  1  0
  8 11  1  1
  8 12  1  0
 10 13  1  1
 10 14  1  0
 12 15  1  0
 12 16  1  0
 17 13  1  6
 14 18  1  0
 17 19  1  0
 17 20  1  0
 18 21  1  0
 19 22  1  0
 19 23  2  0
 24 20  1  0
 21 25  1  0
 21 26  2  0
 22 24  1  0
 25 27  1  0
 27 28  1  0
A    2
 C04
A    3
 C02
A    4
 C47
A    5
 C01
A    6
 N12
A    7
 O48
A    8
 C57
A    9
 O03
A   10
 C13
A   12
 C78
A   13
 C14
A   14
 C19
A   15
 C81
A   16
 C82
A   17
 C15
A   18
 C20
A   19
 C16
A   20
 C84
A   21
 C21
A   22
 N17
A   23
 O18
A   24
 C83
A   25
 O22
A   26
 O23
A   27
 C50
A   28
 C53
M  END
>  <XChem_code>  (526) 
AG7§11

>  <Occupancy>  (526) 
[1.0, 1.0, 1.0, 1.0, 1.0, 1.0, 1.0, 1.0, 1.0, 1.0, 1.0, 1.0, 1.0, 1.0, 1.0, 1.0, 1.0, 1.0, 1.0, 1.0, 1.0, 1.0, 1.0, 1.0, 1.0, 1.0, 1.0, 1.0, 1.0, 1.0, 1.0, 1.0, 1.0, 1.0, 1.0, 1.0, 1.0, 1.0, 1.0, 1.0, 1.0, 1.0, 1.0]

>  <TempFactor>  (526) 
[11.58, 15.03, 11.83, 16.25, 16.92, 12.34, 10.54, 20.22, 18.19, 14.53, 16.52, 20.55, 23.87, 20.72, 31.66, 32.21, 24.48, 11.55, 13.92, 10.24, 11.44, 10.75, 11.87, 10.52, 48.42, 14.67, 18.9, 51.51, 20.99, 12.24, 12.71, 37.77, 32.69, 13.62, 12.02, 16.3, 16.59, 14.61, 20.42, 22.35, 13.24, 10.96, 27.55]

>  <accession>  (526) 
5HXF_A

>  <description>  (526) 
Chain A, 3C protease [Enterovirus A71]

>  <evalue>  (526) 
1.33118e-69

>  <pdb_code>  (526) 
5HXF

>  <chain>  (526) 
A

>  <ligands>  (526) 
[{'chain_id': 'A', 'author_residue_number': 201, 'author_insertion_code': '', 'chem_comp_id': 'AG7', 'alternate_conformers': 0, 'entity_id': 2, 'struct_asym_id': 'B', 'residue_number': 1, 'chem_comp_name': '4-{2-(4-FLUORO-BENZYL)-6-METHYL-5-[(5-METHYL-ISOXAZOLE-3-CARBONYL)-AMINO]-4-OXO-HEPTANOYLAMINO}-5-(2-OXO-PYRROLIDIN-3-YL)-PENTANOIC ACID ETHYL ESTER', 'weight': 600.678, 'carbohydrate_polymer': False, 'branch_name': ''}, {'chain_id': 'A', 'author_residue_number': 202, 'author_insertion_code': '', 'chem_comp_id': 'SO4', 'alternate_conformers': 0, 'entity_id': 3, 'struct_asym_id': 'C', 'residue_number': 1, 'chem_comp_name': 'SULFATE ION', 'weight': 96.063, 'carbohydrate_polymer': False, 'branch_name': ''}, {'chain_id': 'A', 'author_residue_number': 203, 'author_insertion_code': '', 'chem_comp_id': 'SO4', 'alternate_conformers': 0, 'entity_id': 3, 'struct_asym_id': 'D', 'residue_number': 1, 'chem_comp_name': 'SULFATE ION', 'weight': 96.063, 'carbohydrate_polymer': False, 'branch_name': ''}]

>  <ligand_codes>  (526) 
['AG7', 'SO4', 'SO4']

>  <cofactor_codes>  (526) 
[]

>  <has_cofactor>  (526) 
False

>  <covalent>  (526) 
False

>  <base_name>  (526) 
5HXF

>  <lig_resn>  (526) 
AG7

>  <lig_resi>  (526) 
201

>  <lig_chain>  (526) 
A

>  <lig_segi>  (526) 
B

>  <lig_alt>  (526) 


>  <polymer_chain>  (526) 
A

>  <single_smiles>  (526) 
CCOC(=O)CC[C@H](C[C@@H]1CCNC1=O)NC(=O)[C@@H](CC(=O)[C@@H](NC(=O)c2cc(C)on2)C(C)C)Cc3ccc(F)cc3

$$$$
AG7P11S25
     RDKit          3D

 12 11  0  0  0  0  0  0  0  0999 V2000
   -9.8470   13.1350  -36.6200 C   0  0  0  0  0  0  0  0  0  0  0  0
   -9.5290   13.3210  -35.1020 C   0  0  2  0  0  0  0  0  0  0  0  0
   -9.1810   14.8030  -34.8550 C   0  0  0  0  0  0  0  0  0  0  0  0
   -8.3810   12.4340  -34.7380 C   0  0  0  0  0  0  0  0  0  0  0  0
   -8.8720   15.0590  -33.3180 C   0  0  0  0  0  0  0  0  0  0  0  0
   -7.2420   12.6600  -34.9610 O   0  0  0  0  0  0  0  0  0  0  0  0
   -8.3700   16.4840  -32.8990 C   0  0  1  0  0  0  0  0  0  0  0  0
   -9.0100   14.2010  -32.4750 O   0  0  0  0  0  0  0  0  0  0  0  0
   -8.9490   16.7850  -31.6390 N   0  0  0  0  0  0  0  0  0  0  0  0
   -6.8180   16.5090  -32.7420 C   0  0  0  0  0  0  0  0  0  0  0  0
   -6.0760   16.0030  -34.0320 C   0  0  0  0  0  0  0  0  0  0  0  0
   -6.4180   17.9810  -32.4960 C   0  0  0  0  0  0  0  0  0  0  0  0
  2  1  1  6
  2  3  1  0
  2  4  1  0
  5  3  1  0
  4  6  2  0
  5  7  1  0
  5  8  2  0
  7  9  1  1
  7 10  1  0
 10 11  1  0
 10 12  1  0
A    2
 C04
A    3
 C02
A    5
 C01
A    6
 O48
A    7
 C57
A    8
 O03
A   10
 C78
A   11
 C81
A   12
 C82
M  END
>  <XChem_code>  (527) 
AG7§11

>  <Occupancy>  (527) 
[1.0, 1.0, 1.0, 1.0, 1.0, 1.0, 1.0, 1.0, 1.0, 1.0, 1.0, 1.0, 1.0, 1.0, 1.0, 1.0, 1.0, 1.0, 1.0, 1.0, 1.0, 1.0, 1.0, 1.0, 1.0, 1.0, 1.0, 1.0, 1.0, 1.0, 1.0, 1.0, 1.0, 1.0, 1.0, 1.0, 1.0, 1.0, 1.0, 1.0, 1.0, 1.0, 1.0]

>  <TempFactor>  (527) 
[11.58, 15.03, 11.83, 16.25, 16.92, 12.34, 10.54, 20.22, 18.19, 14.53, 16.52, 20.55, 23.87, 20.72, 31.66, 32.21, 24.48, 11.55, 13.92, 10.24, 11.44, 10.75, 11.87, 10.52, 48.42, 14.67, 18.9, 51.51, 20.99, 12.24, 12.71, 37.77, 32.69, 13.62, 12.02, 16.3, 16.59, 14.61, 20.42, 22.35, 13.24, 10.96, 27.55]

>  <accession>  (527) 
5HXF_A

>  <description>  (527) 
Chain A, 3C protease [Enterovirus A71]

>  <evalue>  (527) 
1.33118e-69

>  <pdb_code>  (527) 
5HXF

>  <chain>  (527) 
A

>  <ligands>  (527) 
[{'chain_id': 'A', 'author_residue_number': 201, 'author_insertion_code': '', 'chem_comp_id': 'AG7', 'alternate_conformers': 0, 'entity_id': 2, 'struct_asym_id': 'B', 'residue_number': 1, 'chem_comp_name': '4-{2-(4-FLUORO-BENZYL)-6-METHYL-5-[(5-METHYL-ISOXAZOLE-3-CARBONYL)-AMINO]-4-OXO-HEPTANOYLAMINO}-5-(2-OXO-PYRROLIDIN-3-YL)-PENTANOIC ACID ETHYL ESTER', 'weight': 600.678, 'carbohydrate_polymer': False, 'branch_name': ''}, {'chain_id': 'A', 'author_residue_number': 202, 'author_insertion_code': '', 'chem_comp_id': 'SO4', 'alternate_conformers': 0, 'entity_id': 3, 'struct_asym_id': 'C', 'residue_number': 1, 'chem_comp_name': 'SULFATE ION', 'weight': 96.063, 'carbohydrate_polymer': False, 'branch_name': ''}, {'chain_id': 'A', 'author_residue_number': 203, 'author_insertion_code': '', 'chem_comp_id': 'SO4', 'alternate_conformers': 0, 'entity_id': 3, 'struct_asym_id': 'D', 'residue_number': 1, 'chem_comp_name': 'SULFATE ION', 'weight': 96.063, 'carbohydrate_polymer': False, 'branch_name': ''}]

>  <ligand_codes>  (527) 
['AG7', 'SO4', 'SO4']

>  <cofactor_codes>  (527) 
[]

>  <has_cofactor>  (527) 
False

>  <covalent>  (527) 
False

>  <base_name>  (527) 
5HXF

>  <lig_resn>  (527) 
AG7

>  <lig_resi>  (527) 
201

>  <lig_chain>  (527) 
A

>  <lig_segi>  (527) 
B

>  <lig_alt>  (527) 


>  <polymer_chain>  (527) 
A

>  <single_smiles>  (527) 
CCOC(=O)CC[C@H](C[C@@H]1CCNC1=O)NC(=O)[C@@H](CC(=O)[C@@H](NC(=O)c2cc(C)on2)C(C)C)Cc3ccc(F)cc3

$$$$
AG7P11S26
     RDKit          3D

  9  8  0  0  0  0  0  0  0  0999 V2000
   -7.5780   10.0040  -32.2880 C   0  0  0  0  0  0  0  0  0  0  0  0
   -7.4890   10.3990  -33.7670 C   0  0  0  0  0  0  0  0  0  0  0  0
   -7.1540    9.1680  -34.5770 C   0  0  0  0  0  0  0  0  0  0  0  0
   -7.7230    9.1470  -35.9980 C   0  0  0  0  0  0  0  0  0  0  0  0
   -6.3230    9.0840  -36.5380 C   0  0  0  0  0  0  0  0  0  0  0  0
   -5.9850    9.6770  -37.7640 O   0  0  0  0  0  0  0  0  0  0  0  0
   -5.5070    8.5210  -35.8520 O   0  0  0  0  0  0  0  0  0  0  0  0
   -5.1320    8.8350  -38.5250 C   0  0  0  0  0  0  0  0  0  0  0  0
   -5.9370    8.4030  -39.7220 C   0  0  0  0  0  0  0  0  0  0  0  0
  2  1  1  6
  2  3  1  0
  3  4  1  0
  4  5  1  0
  5  6  1  0
  5  7  2  0
  6  8  1  0
  8  9  1  0
A    3
 C19
A    4
 C20
A    5
 C21
A    6
 O22
A    7
 O23
A    8
 C50
A    9
 C53
M  END
>  <XChem_code>  (528) 
AG7§11

>  <Occupancy>  (528) 
[1.0, 1.0, 1.0, 1.0, 1.0, 1.0, 1.0, 1.0, 1.0, 1.0, 1.0, 1.0, 1.0, 1.0, 1.0, 1.0, 1.0, 1.0, 1.0, 1.0, 1.0, 1.0, 1.0, 1.0, 1.0, 1.0, 1.0, 1.0, 1.0, 1.0, 1.0, 1.0, 1.0, 1.0, 1.0, 1.0, 1.0, 1.0, 1.0, 1.0, 1.0, 1.0, 1.0]

>  <TempFactor>  (528) 
[11.58, 15.03, 11.83, 16.25, 16.92, 12.34, 10.54, 20.22, 18.19, 14.53, 16.52, 20.55, 23.87, 20.72, 31.66, 32.21, 24.48, 11.55, 13.92, 10.24, 11.44, 10.75, 11.87, 10.52, 48.42, 14.67, 18.9, 51.51, 20.99, 12.24, 12.71, 37.77, 32.69, 13.62, 12.02, 16.3, 16.59, 14.61, 20.42, 22.35, 13.24, 10.96, 27.55]

>  <accession>  (528) 
5HXF_A

>  <description>  (528) 
Chain A, 3C protease [Enterovirus A71]

>  <evalue>  (528) 
1.33118e-69

>  <pdb_code>  (528) 
5HXF

>  <chain>  (528) 
A

>  <ligands>  (528) 
[{'chain_id': 'A', 'author_residue_number': 201, 'author_insertion_code': '', 'chem_comp_id': 'AG7', 'alternate_conformers': 0, 'entity_id': 2, 'struct_asym_id': 'B', 'residue_number': 1, 'chem_comp_name': '4-{2-(4-FLUORO-BENZYL)-6-METHYL-5-[(5-METHYL-ISOXAZOLE-3-CARBONYL)-AMINO]-4-OXO-HEPTANOYLAMINO}-5-(2-OXO-PYRROLIDIN-3-YL)-PENTANOIC ACID ETHYL ESTER', 'weight': 600.678, 'carbohydrate_polymer': False, 'branch_name': ''}, {'chain_id': 'A', 'author_residue_number': 202, 'author_insertion_code': '', 'chem_comp_id': 'SO4', 'alternate_conformers': 0, 'entity_id': 3, 'struct_asym_id': 'C', 'residue_number': 1, 'chem_comp_name': 'SULFATE ION', 'weight': 96.063, 'carbohydrate_polymer': False, 'branch_name': ''}, {'chain_id': 'A', 'author_residue_number': 203, 'author_insertion_code': '', 'chem_comp_id': 'SO4', 'alternate_conformers': 0, 'entity_id': 3, 'struct_asym_id': 'D', 'residue_number': 1, 'chem_comp_name': 'SULFATE ION', 'weight': 96.063, 'carbohydrate_polymer': False, 'branch_name': ''}]

>  <ligand_codes>  (528) 
['AG7', 'SO4', 'SO4']

>  <cofactor_codes>  (528) 
[]

>  <has_cofactor>  (528) 
False

>  <covalent>  (528) 
False

>  <base_name>  (528) 
5HXF

>  <lig_resn>  (528) 
AG7

>  <lig_resi>  (528) 
201

>  <lig_chain>  (528) 
A

>  <lig_segi>  (528) 
B

>  <lig_alt>  (528) 


>  <polymer_chain>  (528) 
A

>  <single_smiles>  (528) 
CCOC(=O)CC[C@H](C[C@@H]1CCNC1=O)NC(=O)[C@@H](CC(=O)[C@@H](NC(=O)c2cc(C)on2)C(C)C)Cc3ccc(F)cc3

$$$$
AG7P11S27
     RDKit          3D

 21 21  0  0  0  0  0  0  0  0999 V2000
   -9.8470   13.1350  -36.6200 C   0  0  0  0  0  0  0  0  0  0  0  0
   -9.5290   13.3210  -35.1020 C   0  0  1  0  0  0  0  0  0  0  0  0
   -8.3810   12.4340  -34.7380 C   0  0  0  0  0  0  0  0  0  0  0  0
   -9.1810   14.8030  -34.8550 C   0  0  0  0  0  0  0  0  0  0  0  0
   -8.6990   11.1710  -34.0830 N   0  0  0  0  0  0  0  0  0  0  0  0
   -7.2420   12.6600  -34.9610 O   0  0  0  0  0  0  0  0  0  0  0  0
   -8.8720   15.0590  -33.3180 C   0  0  0  0  0  0  0  0  0  0  0  0
   -9.0100   14.2010  -32.4750 O   0  0  0  0  0  0  0  0  0  0  0  0
   -8.3700   16.4840  -32.8990 C   0  0  1  0  0  0  0  0  0  0  0  0
   -8.9490   16.7850  -31.6390 N   0  0  0  0  0  0  0  0  0  0  0  0
   -6.8180   16.5090  -32.7420 C   0  0  0  0  0  0  0  0  0  0  0  0
   -9.9620   17.8050  -31.4360 C   0  0  0  0  0  0  0  0  0  0  0  0
   -6.0760   16.0030  -34.0320 C   0  0  0  0  0  0  0  0  0  0  0  0
   -6.4180   17.9810  -32.4960 C   0  0  0  0  0  0  0  0  0  0  0  0
  -10.4440   17.9520  -29.9660 C   0  0  0  0  0  0  0  0  0  0  0  0
  -10.3840   18.4690  -32.3160 O   0  0  0  0  0  0  0  0  0  0  0  0
  -11.4110   18.8010  -29.4820 C   0  0  0  0  0  0  0  0  0  0  0  0
   -9.9480   17.2570  -28.9540 N   0  0  0  0  0  0  0  0  0  0  0  0
  -11.4910   18.5870  -28.1420 C   0  0  0  0  0  0  0  0  0  0  0  0
  -10.5980   17.6410  -27.8030 O   0  0  0  0  0  0  0  0  0  0  0  0
  -12.4230   19.2850  -27.1830 C   0  0  0  0  0  0  0  0  0  0  0  0
  2  1  1  6
  2  3  1  0
  2  4  1  0
  5  3  1  0
  3  6  2  0
  7  4  1  0
  7  8  2  0
  7  9  1  0
  9 10  1  1
  9 11  1  0
 10 12  1  0
 11 13  1  0
 11 14  1  0
 15 12  1  0
 12 16  2  0
 15 17  1  0
 15 18  2  0
 17 19  2  0
 20 18  1  0
 19 21  1  0
 19 20  1  0
A    2
 C04
A    3
 C47
A    4
 C02
A    6
 O48
A    7
 C01
A    8
 O03
A    9
 C57
A   10
 N58
A   11
 C78
A   12
 C59
A   13
 C81
A   14
 C82
A   15
 C1 
A   16
 O60
A   17
 C2 
A   18
 N5 
A   19
 C3 
A   20
 O4 
A   21
 C4 
M  END
>  <XChem_code>  (529) 
AG7§11

>  <Occupancy>  (529) 
[1.0, 1.0, 1.0, 1.0, 1.0, 1.0, 1.0, 1.0, 1.0, 1.0, 1.0, 1.0, 1.0, 1.0, 1.0, 1.0, 1.0, 1.0, 1.0, 1.0, 1.0, 1.0, 1.0, 1.0, 1.0, 1.0, 1.0, 1.0, 1.0, 1.0, 1.0, 1.0, 1.0, 1.0, 1.0, 1.0, 1.0, 1.0, 1.0, 1.0, 1.0, 1.0, 1.0]

>  <TempFactor>  (529) 
[11.58, 15.03, 11.83, 16.25, 16.92, 12.34, 10.54, 20.22, 18.19, 14.53, 16.52, 20.55, 23.87, 20.72, 31.66, 32.21, 24.48, 11.55, 13.92, 10.24, 11.44, 10.75, 11.87, 10.52, 48.42, 14.67, 18.9, 51.51, 20.99, 12.24, 12.71, 37.77, 32.69, 13.62, 12.02, 16.3, 16.59, 14.61, 20.42, 22.35, 13.24, 10.96, 27.55]

>  <accession>  (529) 
5HXF_A

>  <description>  (529) 
Chain A, 3C protease [Enterovirus A71]

>  <evalue>  (529) 
1.33118e-69

>  <pdb_code>  (529) 
5HXF

>  <chain>  (529) 
A

>  <ligands>  (529) 
[{'chain_id': 'A', 'author_residue_number': 201, 'author_insertion_code': '', 'chem_comp_id': 'AG7', 'alternate_conformers': 0, 'entity_id': 2, 'struct_asym_id': 'B', 'residue_number': 1, 'chem_comp_name': '4-{2-(4-FLUORO-BENZYL)-6-METHYL-5-[(5-METHYL-ISOXAZOLE-3-CARBONYL)-AMINO]-4-OXO-HEPTANOYLAMINO}-5-(2-OXO-PYRROLIDIN-3-YL)-PENTANOIC ACID ETHYL ESTER', 'weight': 600.678, 'carbohydrate_polymer': False, 'branch_name': ''}, {'chain_id': 'A', 'author_residue_number': 202, 'author_insertion_code': '', 'chem_comp_id': 'SO4', 'alternate_conformers': 0, 'entity_id': 3, 'struct_asym_id': 'C', 'residue_number': 1, 'chem_comp_name': 'SULFATE ION', 'weight': 96.063, 'carbohydrate_polymer': False, 'branch_name': ''}, {'chain_id': 'A', 'author_residue_number': 203, 'author_insertion_code': '', 'chem_comp_id': 'SO4', 'alternate_conformers': 0, 'entity_id': 3, 'struct_asym_id': 'D', 'residue_number': 1, 'chem_comp_name': 'SULFATE ION', 'weight': 96.063, 'carbohydrate_polymer': False, 'branch_name': ''}]

>  <ligand_codes>  (529) 
['AG7', 'SO4', 'SO4']

>  <cofactor_codes>  (529) 
[]

>  <has_cofactor>  (529) 
False

>  <covalent>  (529) 
False

>  <base_name>  (529) 
5HXF

>  <lig_resn>  (529) 
AG7

>  <lig_resi>  (529) 
201

>  <lig_chain>  (529) 
A

>  <lig_segi>  (529) 
B

>  <lig_alt>  (529) 


>  <polymer_chain>  (529) 
A

>  <single_smiles>  (529) 
CCOC(=O)CC[C@H](C[C@@H]1CCNC1=O)NC(=O)[C@@H](CC(=O)[C@@H](NC(=O)c2cc(C)on2)C(C)C)Cc3ccc(F)cc3

$$$$
AG7P11S28
     RDKit          3D

 28 28  0  0  0  0  0  0  0  0999 V2000
   -7.5780   10.0040  -32.2880 C   0  0  0  0  0  0  0  0  0  0  0  0
   -7.4890   10.3990  -33.7670 C   0  0  2  0  0  0  0  0  0  0  0  0
   -8.6990   11.1710  -34.0830 N   0  0  0  0  0  0  0  0  0  0  0  0
   -7.1540    9.1680  -34.5770 C   0  0  0  0  0  0  0  0  0  0  0  0
   -8.3810   12.4340  -34.7380 C   0  0  0  0  0  0  0  0  0  0  0  0
   -7.7230    9.1470  -35.9980 C   0  0  0  0  0  0  0  0  0  0  0  0
   -9.5290   13.3210  -35.1020 C   0  0  1  0  0  0  0  0  0  0  0  0
   -7.2420   12.6600  -34.9610 O   0  0  0  0  0  0  0  0  0  0  0  0
   -6.3230    9.0840  -36.5380 C   0  0  0  0  0  0  0  0  0  0  0  0
   -9.1810   14.8030  -34.8550 C   0  0  0  0  0  0  0  0  0  0  0  0
   -9.8470   13.1350  -36.6200 C   0  0  0  0  0  0  0  0  0  0  0  0
   -5.9850    9.6770  -37.7640 O   0  0  0  0  0  0  0  0  0  0  0  0
   -5.5070    8.5210  -35.8520 O   0  0  0  0  0  0  0  0  0  0  0  0
   -8.8720   15.0590  -33.3180 C   0  0  0  0  0  0  0  0  0  0  0  0
  -11.3050   13.7450  -36.8440 C   0  0  0  0  0  0  0  0  0  0  0  0
   -5.1320    8.8350  -38.5250 C   0  0  0  0  0  0  0  0  0  0  0  0
   -8.3700   16.4840  -32.8990 C   0  0  0  0  0  0  0  0  0  0  0  0
   -9.0100   14.2010  -32.4750 O   0  0  0  0  0  0  0  0  0  0  0  0
  -11.4560   14.8940  -37.6190 C   0  0  0  0  0  0  0  0  0  0  0  0
  -12.4130   13.1380  -36.2460 C   0  0  0  0  0  0  0  0  0  0  0  0
   -5.9370    8.4030  -39.7220 C   0  0  0  0  0  0  0  0  0  0  0  0
   -6.8180   16.5090  -32.7420 C   0  0  0  0  0  0  0  0  0  0  0  0
  -12.7230   15.4330  -37.8170 C   0  0  0  0  0  0  0  0  0  0  0  0
  -13.6950   13.6860  -36.4410 C   0  0  0  0  0  0  0  0  0  0  0  0
   -6.0760   16.0030  -34.0320 C   0  0  0  0  0  0  0  0  0  0  0  0
   -6.4180   17.9810  -32.4960 C   0  0  0  0  0  0  0  0  0  0  0  0
  -13.8400   14.8240  -37.2230 C   0  0  0  0  0  0  0  0  0  0  0  0
  -15.0840   15.3590  -37.4180 F   0  0  0  0  0  0  0  0  0  0  0  0
  2  1  1  1
  3  2  1  0
  2  4  1  0
  3  5  1  0
  4  6  1  0
  7  5  1  0
  5  8  2  0
  6  9  1  0
  7 10  1  6
  7 11  1  0
  9 12  1  0
  9 13  2  0
 14 10  1  0
 11 15  1  0
 12 16  1  0
 14 17  1  0
 14 18  2  0
 15 19  2  0
 15 20  1  0
 16 21  1  0
 17 22  1  6
 19 23  1  0
 24 20  2  0
 22 25  1  0
 22 26  1  0
 23 27  2  0
 27 24  1  0
 27 28  1  0
A    2
 C13
A    3
 N12
A    4
 C19
A    5
 C47
A    6
 C20
A    7
 C04
A    8
 O48
A    9
 C21
A   10
 C02
A   11
 C05
A   12
 O22
A   13
 O23
A   14
 C01
A   15
 C06
A   16
 C50
A   18
 O03
A   19
 C07
A   20
 C11
A   21
 C53
A   22
 C78
A   23
 C08
A   24
 C10
A   25
 C81
A   26
 C82
A   27
 C09
A   28
 F1 
M  END
>  <XChem_code>  (530) 
AG7§11

>  <Occupancy>  (530) 
[1.0, 1.0, 1.0, 1.0, 1.0, 1.0, 1.0, 1.0, 1.0, 1.0, 1.0, 1.0, 1.0, 1.0, 1.0, 1.0, 1.0, 1.0, 1.0, 1.0, 1.0, 1.0, 1.0, 1.0, 1.0, 1.0, 1.0, 1.0, 1.0, 1.0, 1.0, 1.0, 1.0, 1.0, 1.0, 1.0, 1.0, 1.0, 1.0, 1.0, 1.0, 1.0, 1.0]

>  <TempFactor>  (530) 
[11.58, 15.03, 11.83, 16.25, 16.92, 12.34, 10.54, 20.22, 18.19, 14.53, 16.52, 20.55, 23.87, 20.72, 31.66, 32.21, 24.48, 11.55, 13.92, 10.24, 11.44, 10.75, 11.87, 10.52, 48.42, 14.67, 18.9, 51.51, 20.99, 12.24, 12.71, 37.77, 32.69, 13.62, 12.02, 16.3, 16.59, 14.61, 20.42, 22.35, 13.24, 10.96, 27.55]

>  <accession>  (530) 
5HXF_A

>  <description>  (530) 
Chain A, 3C protease [Enterovirus A71]

>  <evalue>  (530) 
1.33118e-69

>  <pdb_code>  (530) 
5HXF

>  <chain>  (530) 
A

>  <ligands>  (530) 
[{'chain_id': 'A', 'author_residue_number': 201, 'author_insertion_code': '', 'chem_comp_id': 'AG7', 'alternate_conformers': 0, 'entity_id': 2, 'struct_asym_id': 'B', 'residue_number': 1, 'chem_comp_name': '4-{2-(4-FLUORO-BENZYL)-6-METHYL-5-[(5-METHYL-ISOXAZOLE-3-CARBONYL)-AMINO]-4-OXO-HEPTANOYLAMINO}-5-(2-OXO-PYRROLIDIN-3-YL)-PENTANOIC ACID ETHYL ESTER', 'weight': 600.678, 'carbohydrate_polymer': False, 'branch_name': ''}, {'chain_id': 'A', 'author_residue_number': 202, 'author_insertion_code': '', 'chem_comp_id': 'SO4', 'alternate_conformers': 0, 'entity_id': 3, 'struct_asym_id': 'C', 'residue_number': 1, 'chem_comp_name': 'SULFATE ION', 'weight': 96.063, 'carbohydrate_polymer': False, 'branch_name': ''}, {'chain_id': 'A', 'author_residue_number': 203, 'author_insertion_code': '', 'chem_comp_id': 'SO4', 'alternate_conformers': 0, 'entity_id': 3, 'struct_asym_id': 'D', 'residue_number': 1, 'chem_comp_name': 'SULFATE ION', 'weight': 96.063, 'carbohydrate_polymer': False, 'branch_name': ''}]

>  <ligand_codes>  (530) 
['AG7', 'SO4', 'SO4']

>  <cofactor_codes>  (530) 
[]

>  <has_cofactor>  (530) 
False

>  <covalent>  (530) 
False

>  <base_name>  (530) 
5HXF

>  <lig_resn>  (530) 
AG7

>  <lig_resi>  (530) 
201

>  <lig_chain>  (530) 
A

>  <lig_segi>  (530) 
B

>  <lig_alt>  (530) 


>  <polymer_chain>  (530) 
A

>  <single_smiles>  (530) 
CCOC(=O)CC[C@H](C[C@@H]1CCNC1=O)NC(=O)[C@@H](CC(=O)[C@@H](NC(=O)c2cc(C)on2)C(C)C)Cc3ccc(F)cc3

$$$$
AG7P11S29
     RDKit          3D

 27 27  0  0  0  0  0  0  0  0999 V2000
   -9.8470   13.1350  -36.6200 C   0  0  0  0  0  0  0  0  0  0  0  0
   -9.5290   13.3210  -35.1020 C   0  0  2  0  0  0  0  0  0  0  0  0
   -9.1810   14.8030  -34.8550 C   0  0  0  0  0  0  0  0  0  0  0  0
   -8.3810   12.4340  -34.7380 C   0  0  0  0  0  0  0  0  0  0  0  0
   -8.8720   15.0590  -33.3180 C   0  0  0  0  0  0  0  0  0  0  0  0
   -8.6990   11.1710  -34.0830 N   0  0  0  0  0  0  0  0  0  0  0  0
   -7.2420   12.6600  -34.9610 O   0  0  0  0  0  0  0  0  0  0  0  0
   -8.3700   16.4840  -32.8990 C   0  0  0  0  0  0  0  0  0  0  0  0
   -9.0100   14.2010  -32.4750 O   0  0  0  0  0  0  0  0  0  0  0  0
   -7.4890   10.3990  -33.7670 C   0  0  1  0  0  0  0  0  0  0  0  0
   -6.8180   16.5090  -32.7420 C   0  0  0  0  0  0  0  0  0  0  0  0
   -7.5780   10.0040  -32.2880 C   0  0  0  0  0  0  0  0  0  0  0  0
   -7.1540    9.1680  -34.5770 C   0  0  0  0  0  0  0  0  0  0  0  0
   -6.0760   16.0030  -34.0320 C   0  0  0  0  0  0  0  0  0  0  0  0
   -6.4180   17.9810  -32.4960 C   0  0  0  0  0  0  0  0  0  0  0  0
   -7.0990   11.3020  -31.5750 C   0  0  1  0  0  0  0  0  0  0  0  0
   -7.7230    9.1470  -35.9980 C   0  0  0  0  0  0  0  0  0  0  0  0
   -7.0230   11.0800  -29.9920 C   0  0  0  0  0  0  0  0  0  0  0  0
   -5.8440   11.7210  -31.9680 C   0  0  0  0  0  0  0  0  0  0  0  0
   -6.3230    9.0840  -36.5380 C   0  0  0  0  0  0  0  0  0  0  0  0
   -6.0040   11.8370  -29.5430 N   0  0  0  0  0  0  0  0  0  0  0  0
   -7.7390   10.4060  -29.3120 O   0  0  0  0  0  0  0  0  0  0  0  0
   -5.3380   12.5560  -30.7120 C   0  0  0  0  0  0  0  0  0  0  0  0
   -5.9850    9.6770  -37.7640 O   0  0  0  0  0  0  0  0  0  0  0  0
   -5.5070    8.5210  -35.8520 O   0  0  0  0  0  0  0  0  0  0  0  0
   -5.1320    8.8350  -38.5250 C   0  0  0  0  0  0  0  0  0  0  0  0
   -5.9370    8.4030  -39.7220 C   0  0  0  0  0  0  0  0  0  0  0  0
  2  1  1  6
  2  3  1  0
  2  4  1  0
  5  3  1  0
  6  4  1  0
  4  7  2  0
  5  8  1  0
  5  9  2  0
  6 10  1  0
  8 11  1  6
 10 12  1  1
 10 13  1  0
 11 14  1  0
 11 15  1  0
 16 12  1  6
 13 17  1  0
 16 18  1  0
 16 19  1  0
 17 20  1  0
 18 21  1  0
 18 22  2  0
 23 19  1  0
 20 24  1  0
 20 25  2  0
 21 23  1  0
 24 26  1  0
 26 27  1  0
A    2
 C04
A    3
 C02
A    4
 C47
A    5
 C01
A    6
 N12
A    7
 O48
A    9
 O03
A   10
 C13
A   11
 C78
A   12
 C14
A   13
 C19
A   14
 C81
A   15
 C82
A   16
 C15
A   17
 C20
A   18
 C16
A   19
 C84
A   20
 C21
A   21
 N17
A   22
 O18
A   23
 C83
A   24
 O22
A   25
 O23
A   26
 C50
A   27
 C53
M  END
>  <XChem_code>  (531) 
AG7§11

>  <Occupancy>  (531) 
[1.0, 1.0, 1.0, 1.0, 1.0, 1.0, 1.0, 1.0, 1.0, 1.0, 1.0, 1.0, 1.0, 1.0, 1.0, 1.0, 1.0, 1.0, 1.0, 1.0, 1.0, 1.0, 1.0, 1.0, 1.0, 1.0, 1.0, 1.0, 1.0, 1.0, 1.0, 1.0, 1.0, 1.0, 1.0, 1.0, 1.0, 1.0, 1.0, 1.0, 1.0, 1.0, 1.0]

>  <TempFactor>  (531) 
[11.58, 15.03, 11.83, 16.25, 16.92, 12.34, 10.54, 20.22, 18.19, 14.53, 16.52, 20.55, 23.87, 20.72, 31.66, 32.21, 24.48, 11.55, 13.92, 10.24, 11.44, 10.75, 11.87, 10.52, 48.42, 14.67, 18.9, 51.51, 20.99, 12.24, 12.71, 37.77, 32.69, 13.62, 12.02, 16.3, 16.59, 14.61, 20.42, 22.35, 13.24, 10.96, 27.55]

>  <accession>  (531) 
5HXF_A

>  <description>  (531) 
Chain A, 3C protease [Enterovirus A71]

>  <evalue>  (531) 
1.33118e-69

>  <pdb_code>  (531) 
5HXF

>  <chain>  (531) 
A

>  <ligands>  (531) 
[{'chain_id': 'A', 'author_residue_number': 201, 'author_insertion_code': '', 'chem_comp_id': 'AG7', 'alternate_conformers': 0, 'entity_id': 2, 'struct_asym_id': 'B', 'residue_number': 1, 'chem_comp_name': '4-{2-(4-FLUORO-BENZYL)-6-METHYL-5-[(5-METHYL-ISOXAZOLE-3-CARBONYL)-AMINO]-4-OXO-HEPTANOYLAMINO}-5-(2-OXO-PYRROLIDIN-3-YL)-PENTANOIC ACID ETHYL ESTER', 'weight': 600.678, 'carbohydrate_polymer': False, 'branch_name': ''}, {'chain_id': 'A', 'author_residue_number': 202, 'author_insertion_code': '', 'chem_comp_id': 'SO4', 'alternate_conformers': 0, 'entity_id': 3, 'struct_asym_id': 'C', 'residue_number': 1, 'chem_comp_name': 'SULFATE ION', 'weight': 96.063, 'carbohydrate_polymer': False, 'branch_name': ''}, {'chain_id': 'A', 'author_residue_number': 203, 'author_insertion_code': '', 'chem_comp_id': 'SO4', 'alternate_conformers': 0, 'entity_id': 3, 'struct_asym_id': 'D', 'residue_number': 1, 'chem_comp_name': 'SULFATE ION', 'weight': 96.063, 'carbohydrate_polymer': False, 'branch_name': ''}]

>  <ligand_codes>  (531) 
['AG7', 'SO4', 'SO4']

>  <cofactor_codes>  (531) 
[]

>  <has_cofactor>  (531) 
False

>  <covalent>  (531) 
False

>  <base_name>  (531) 
5HXF

>  <lig_resn>  (531) 
AG7

>  <lig_resi>  (531) 
201

>  <lig_chain>  (531) 
A

>  <lig_segi>  (531) 
B

>  <lig_alt>  (531) 


>  <polymer_chain>  (531) 
A

>  <single_smiles>  (531) 
CCOC(=O)CC[C@H](C[C@@H]1CCNC1=O)NC(=O)[C@@H](CC(=O)[C@@H](NC(=O)c2cc(C)on2)C(C)C)Cc3ccc(F)cc3

$$$$
AG7P11S30
     RDKit          3D

 11 10  0  0  0  0  0  0  0  0999 V2000
   -9.8470   13.1350  -36.6200 C   0  0  0  0  0  0  0  0  0  0  0  0
   -9.5290   13.3210  -35.1020 C   0  0  2  0  0  0  0  0  0  0  0  0
   -9.1810   14.8030  -34.8550 C   0  0  0  0  0  0  0  0  0  0  0  0
   -8.3810   12.4340  -34.7380 C   0  0  0  0  0  0  0  0  0  0  0  0
   -8.8720   15.0590  -33.3180 C   0  0  0  0  0  0  0  0  0  0  0  0
   -7.2420   12.6600  -34.9610 O   0  0  0  0  0  0  0  0  0  0  0  0
   -8.3700   16.4840  -32.8990 C   0  0  0  0  0  0  0  0  0  0  0  0
   -9.0100   14.2010  -32.4750 O   0  0  0  0  0  0  0  0  0  0  0  0
   -6.8180   16.5090  -32.7420 C   0  0  0  0  0  0  0  0  0  0  0  0
   -6.0760   16.0030  -34.0320 C   0  0  0  0  0  0  0  0  0  0  0  0
   -6.4180   17.9810  -32.4960 C   0  0  0  0  0  0  0  0  0  0  0  0
  2  1  1  6
  2  3  1  0
  2  4  1  0
  5  3  1  0
  4  6  2  0
  5  7  1  0
  5  8  2  0
  7  9  1  6
  9 10  1  0
  9 11  1  0
A    2
 C04
A    3
 C02
A    5
 C01
A    6
 O48
A    8
 O03
A    9
 C78
A   10
 C81
A   11
 C82
M  END
>  <XChem_code>  (532) 
AG7§11

>  <Occupancy>  (532) 
[1.0, 1.0, 1.0, 1.0, 1.0, 1.0, 1.0, 1.0, 1.0, 1.0, 1.0, 1.0, 1.0, 1.0, 1.0, 1.0, 1.0, 1.0, 1.0, 1.0, 1.0, 1.0, 1.0, 1.0, 1.0, 1.0, 1.0, 1.0, 1.0, 1.0, 1.0, 1.0, 1.0, 1.0, 1.0, 1.0, 1.0, 1.0, 1.0, 1.0, 1.0, 1.0, 1.0]

>  <TempFactor>  (532) 
[11.58, 15.03, 11.83, 16.25, 16.92, 12.34, 10.54, 20.22, 18.19, 14.53, 16.52, 20.55, 23.87, 20.72, 31.66, 32.21, 24.48, 11.55, 13.92, 10.24, 11.44, 10.75, 11.87, 10.52, 48.42, 14.67, 18.9, 51.51, 20.99, 12.24, 12.71, 37.77, 32.69, 13.62, 12.02, 16.3, 16.59, 14.61, 20.42, 22.35, 13.24, 10.96, 27.55]

>  <accession>  (532) 
5HXF_A

>  <description>  (532) 
Chain A, 3C protease [Enterovirus A71]

>  <evalue>  (532) 
1.33118e-69

>  <pdb_code>  (532) 
5HXF

>  <chain>  (532) 
A

>  <ligands>  (532) 
[{'chain_id': 'A', 'author_residue_number': 201, 'author_insertion_code': '', 'chem_comp_id': 'AG7', 'alternate_conformers': 0, 'entity_id': 2, 'struct_asym_id': 'B', 'residue_number': 1, 'chem_comp_name': '4-{2-(4-FLUORO-BENZYL)-6-METHYL-5-[(5-METHYL-ISOXAZOLE-3-CARBONYL)-AMINO]-4-OXO-HEPTANOYLAMINO}-5-(2-OXO-PYRROLIDIN-3-YL)-PENTANOIC ACID ETHYL ESTER', 'weight': 600.678, 'carbohydrate_polymer': False, 'branch_name': ''}, {'chain_id': 'A', 'author_residue_number': 202, 'author_insertion_code': '', 'chem_comp_id': 'SO4', 'alternate_conformers': 0, 'entity_id': 3, 'struct_asym_id': 'C', 'residue_number': 1, 'chem_comp_name': 'SULFATE ION', 'weight': 96.063, 'carbohydrate_polymer': False, 'branch_name': ''}, {'chain_id': 'A', 'author_residue_number': 203, 'author_insertion_code': '', 'chem_comp_id': 'SO4', 'alternate_conformers': 0, 'entity_id': 3, 'struct_asym_id': 'D', 'residue_number': 1, 'chem_comp_name': 'SULFATE ION', 'weight': 96.063, 'carbohydrate_polymer': False, 'branch_name': ''}]

>  <ligand_codes>  (532) 
['AG7', 'SO4', 'SO4']

>  <cofactor_codes>  (532) 
[]

>  <has_cofactor>  (532) 
False

>  <covalent>  (532) 
False

>  <base_name>  (532) 
5HXF

>  <lig_resn>  (532) 
AG7

>  <lig_resi>  (532) 
201

>  <lig_chain>  (532) 
A

>  <lig_segi>  (532) 
B

>  <lig_alt>  (532) 


>  <polymer_chain>  (532) 
A

>  <single_smiles>  (532) 
CCOC(=O)CC[C@H](C[C@@H]1CCNC1=O)NC(=O)[C@@H](CC(=O)[C@@H](NC(=O)c2cc(C)on2)C(C)C)Cc3ccc(F)cc3

$$$$
AG7P11S31
     RDKit          3D

 13 12  0  0  0  0  0  0  0  0999 V2000
   -9.8470   13.1350  -36.6200 C   0  0  0  0  0  0  0  0  0  0  0  0
   -9.5290   13.3210  -35.1020 C   0  0  1  0  0  0  0  0  0  0  0  0
   -8.3810   12.4340  -34.7380 C   0  0  0  0  0  0  0  0  0  0  0  0
   -9.1810   14.8030  -34.8550 C   0  0  0  0  0  0  0  0  0  0  0  0
   -8.6990   11.1710  -34.0830 N   0  0  0  0  0  0  0  0  0  0  0  0
   -7.2420   12.6600  -34.9610 O   0  0  0  0  0  0  0  0  0  0  0  0
   -8.8720   15.0590  -33.3180 C   0  0  0  0  0  0  0  0  0  0  0  0
   -8.3700   16.4840  -32.8990 C   0  0  1  0  0  0  0  0  0  0  0  0
   -9.0100   14.2010  -32.4750 O   0  0  0  0  0  0  0  0  0  0  0  0
   -8.9490   16.7850  -31.6390 N   0  0  0  0  0  0  0  0  0  0  0  0
   -6.8180   16.5090  -32.7420 C   0  0  0  0  0  0  0  0  0  0  0  0
   -6.0760   16.0030  -34.0320 C   0  0  0  0  0  0  0  0  0  0  0  0
   -6.4180   17.9810  -32.4960 C   0  0  0  0  0  0  0  0  0  0  0  0
  2  1  1  6
  2  3  1  0
  2  4  1  0
  5  3  1  0
  3  6  2  0
  7  4  1  0
  7  8  1  0
  7  9  2  0
  8 10  1  1
  8 11  1  0
 11 12  1  0
 11 13  1  0
A    2
 C04
A    3
 C47
A    4
 C02
A    6
 O48
A    7
 C01
A    8
 C57
A    9
 O03
A   11
 C78
A   12
 C81
A   13
 C82
M  END
>  <XChem_code>  (533) 
AG7§11

>  <Occupancy>  (533) 
[1.0, 1.0, 1.0, 1.0, 1.0, 1.0, 1.0, 1.0, 1.0, 1.0, 1.0, 1.0, 1.0, 1.0, 1.0, 1.0, 1.0, 1.0, 1.0, 1.0, 1.0, 1.0, 1.0, 1.0, 1.0, 1.0, 1.0, 1.0, 1.0, 1.0, 1.0, 1.0, 1.0, 1.0, 1.0, 1.0, 1.0, 1.0, 1.0, 1.0, 1.0, 1.0, 1.0]

>  <TempFactor>  (533) 
[11.58, 15.03, 11.83, 16.25, 16.92, 12.34, 10.54, 20.22, 18.19, 14.53, 16.52, 20.55, 23.87, 20.72, 31.66, 32.21, 24.48, 11.55, 13.92, 10.24, 11.44, 10.75, 11.87, 10.52, 48.42, 14.67, 18.9, 51.51, 20.99, 12.24, 12.71, 37.77, 32.69, 13.62, 12.02, 16.3, 16.59, 14.61, 20.42, 22.35, 13.24, 10.96, 27.55]

>  <accession>  (533) 
5HXF_A

>  <description>  (533) 
Chain A, 3C protease [Enterovirus A71]

>  <evalue>  (533) 
1.33118e-69

>  <pdb_code>  (533) 
5HXF

>  <chain>  (533) 
A

>  <ligands>  (533) 
[{'chain_id': 'A', 'author_residue_number': 201, 'author_insertion_code': '', 'chem_comp_id': 'AG7', 'alternate_conformers': 0, 'entity_id': 2, 'struct_asym_id': 'B', 'residue_number': 1, 'chem_comp_name': '4-{2-(4-FLUORO-BENZYL)-6-METHYL-5-[(5-METHYL-ISOXAZOLE-3-CARBONYL)-AMINO]-4-OXO-HEPTANOYLAMINO}-5-(2-OXO-PYRROLIDIN-3-YL)-PENTANOIC ACID ETHYL ESTER', 'weight': 600.678, 'carbohydrate_polymer': False, 'branch_name': ''}, {'chain_id': 'A', 'author_residue_number': 202, 'author_insertion_code': '', 'chem_comp_id': 'SO4', 'alternate_conformers': 0, 'entity_id': 3, 'struct_asym_id': 'C', 'residue_number': 1, 'chem_comp_name': 'SULFATE ION', 'weight': 96.063, 'carbohydrate_polymer': False, 'branch_name': ''}, {'chain_id': 'A', 'author_residue_number': 203, 'author_insertion_code': '', 'chem_comp_id': 'SO4', 'alternate_conformers': 0, 'entity_id': 3, 'struct_asym_id': 'D', 'residue_number': 1, 'chem_comp_name': 'SULFATE ION', 'weight': 96.063, 'carbohydrate_polymer': False, 'branch_name': ''}]

>  <ligand_codes>  (533) 
['AG7', 'SO4', 'SO4']

>  <cofactor_codes>  (533) 
[]

>  <has_cofactor>  (533) 
False

>  <covalent>  (533) 
False

>  <base_name>  (533) 
5HXF

>  <lig_resn>  (533) 
AG7

>  <lig_resi>  (533) 
201

>  <lig_chain>  (533) 
A

>  <lig_segi>  (533) 
B

>  <lig_alt>  (533) 


>  <polymer_chain>  (533) 
A

>  <single_smiles>  (533) 
CCOC(=O)CC[C@H](C[C@@H]1CCNC1=O)NC(=O)[C@@H](CC(=O)[C@@H](NC(=O)c2cc(C)on2)C(C)C)Cc3ccc(F)cc3

$$$$
AG7P11S32
     RDKit          3D

 12 11  0  0  0  0  0  0  0  0999 V2000
   -9.8470   13.1350  -36.6200 C   0  0  0  0  0  0  0  0  0  0  0  0
   -9.5290   13.3210  -35.1020 C   0  0  2  0  0  0  0  0  0  0  0  0
   -9.1810   14.8030  -34.8550 C   0  0  0  0  0  0  0  0  0  0  0  0
   -8.3810   12.4340  -34.7380 C   0  0  0  0  0  0  0  0  0  0  0  0
   -8.8720   15.0590  -33.3180 C   0  0  0  0  0  0  0  0  0  0  0  0
   -8.6990   11.1710  -34.0830 N   0  0  0  0  0  0  0  0  0  0  0  0
   -7.2420   12.6600  -34.9610 O   0  0  0  0  0  0  0  0  0  0  0  0
   -8.3700   16.4840  -32.8990 C   0  0  0  0  0  0  0  0  0  0  0  0
   -9.0100   14.2010  -32.4750 O   0  0  0  0  0  0  0  0  0  0  0  0
   -6.8180   16.5090  -32.7420 C   0  0  0  0  0  0  0  0  0  0  0  0
   -6.0760   16.0030  -34.0320 C   0  0  0  0  0  0  0  0  0  0  0  0
   -6.4180   17.9810  -32.4960 C   0  0  0  0  0  0  0  0  0  0  0  0
  2  1  1  6
  2  3  1  0
  2  4  1  0
  5  3  1  0
  6  4  1  0
  4  7  2  0
  5  8  1  0
  5  9  2  0
  8 10  1  6
 10 11  1  0
 10 12  1  0
A    2
 C04
A    3
 C02
A    4
 C47
A    5
 C01
A    7
 O48
A    9
 O03
A   10
 C78
A   11
 C81
A   12
 C82
M  END
>  <XChem_code>  (534) 
AG7§11

>  <Occupancy>  (534) 
[1.0, 1.0, 1.0, 1.0, 1.0, 1.0, 1.0, 1.0, 1.0, 1.0, 1.0, 1.0, 1.0, 1.0, 1.0, 1.0, 1.0, 1.0, 1.0, 1.0, 1.0, 1.0, 1.0, 1.0, 1.0, 1.0, 1.0, 1.0, 1.0, 1.0, 1.0, 1.0, 1.0, 1.0, 1.0, 1.0, 1.0, 1.0, 1.0, 1.0, 1.0, 1.0, 1.0]

>  <TempFactor>  (534) 
[11.58, 15.03, 11.83, 16.25, 16.92, 12.34, 10.54, 20.22, 18.19, 14.53, 16.52, 20.55, 23.87, 20.72, 31.66, 32.21, 24.48, 11.55, 13.92, 10.24, 11.44, 10.75, 11.87, 10.52, 48.42, 14.67, 18.9, 51.51, 20.99, 12.24, 12.71, 37.77, 32.69, 13.62, 12.02, 16.3, 16.59, 14.61, 20.42, 22.35, 13.24, 10.96, 27.55]

>  <accession>  (534) 
5HXF_A

>  <description>  (534) 
Chain A, 3C protease [Enterovirus A71]

>  <evalue>  (534) 
1.33118e-69

>  <pdb_code>  (534) 
5HXF

>  <chain>  (534) 
A

>  <ligands>  (534) 
[{'chain_id': 'A', 'author_residue_number': 201, 'author_insertion_code': '', 'chem_comp_id': 'AG7', 'alternate_conformers': 0, 'entity_id': 2, 'struct_asym_id': 'B', 'residue_number': 1, 'chem_comp_name': '4-{2-(4-FLUORO-BENZYL)-6-METHYL-5-[(5-METHYL-ISOXAZOLE-3-CARBONYL)-AMINO]-4-OXO-HEPTANOYLAMINO}-5-(2-OXO-PYRROLIDIN-3-YL)-PENTANOIC ACID ETHYL ESTER', 'weight': 600.678, 'carbohydrate_polymer': False, 'branch_name': ''}, {'chain_id': 'A', 'author_residue_number': 202, 'author_insertion_code': '', 'chem_comp_id': 'SO4', 'alternate_conformers': 0, 'entity_id': 3, 'struct_asym_id': 'C', 'residue_number': 1, 'chem_comp_name': 'SULFATE ION', 'weight': 96.063, 'carbohydrate_polymer': False, 'branch_name': ''}, {'chain_id': 'A', 'author_residue_number': 203, 'author_insertion_code': '', 'chem_comp_id': 'SO4', 'alternate_conformers': 0, 'entity_id': 3, 'struct_asym_id': 'D', 'residue_number': 1, 'chem_comp_name': 'SULFATE ION', 'weight': 96.063, 'carbohydrate_polymer': False, 'branch_name': ''}]

>  <ligand_codes>  (534) 
['AG7', 'SO4', 'SO4']

>  <cofactor_codes>  (534) 
[]

>  <has_cofactor>  (534) 
False

>  <covalent>  (534) 
False

>  <base_name>  (534) 
5HXF

>  <lig_resn>  (534) 
AG7

>  <lig_resi>  (534) 
201

>  <lig_chain>  (534) 
A

>  <lig_segi>  (534) 
B

>  <lig_alt>  (534) 


>  <polymer_chain>  (534) 
A

>  <single_smiles>  (534) 
CCOC(=O)CC[C@H](C[C@@H]1CCNC1=O)NC(=O)[C@@H](CC(=O)[C@@H](NC(=O)c2cc(C)on2)C(C)C)Cc3ccc(F)cc3

$$$$
AG7P11S33
     RDKit          3D

 31 31  0  0  0  0  0  0  0  0999 V2000
   -7.5780   10.0040  -32.2880 C   0  0  0  0  0  0  0  0  0  0  0  0
   -7.4890   10.3990  -33.7670 C   0  0  2  0  0  0  0  0  0  0  0  0
   -8.6990   11.1710  -34.0830 N   0  0  0  0  0  0  0  0  0  0  0  0
   -7.1540    9.1680  -34.5770 C   0  0  0  0  0  0  0  0  0  0  0  0
   -8.3810   12.4340  -34.7380 C   0  0  0  0  0  0  0  0  0  0  0  0
   -7.7230    9.1470  -35.9980 C   0  0  0  0  0  0  0  0  0  0  0  0
   -9.5290   13.3210  -35.1020 C   0  0  1  0  0  0  0  0  0  0  0  0
   -7.2420   12.6600  -34.9610 O   0  0  0  0  0  0  0  0  0  0  0  0
   -6.3230    9.0840  -36.5380 C   0  0  0  0  0  0  0  0  0  0  0  0
   -9.1810   14.8030  -34.8550 C   0  0  0  0  0  0  0  0  0  0  0  0
   -9.8470   13.1350  -36.6200 C   0  0  0  0  0  0  0  0  0  0  0  0
   -5.9850    9.6770  -37.7640 O   0  0  0  0  0  0  0  0  0  0  0  0
   -5.5070    8.5210  -35.8520 O   0  0  0  0  0  0  0  0  0  0  0  0
   -8.8720   15.0590  -33.3180 C   0  0  0  0  0  0  0  0  0  0  0  0
  -11.3050   13.7450  -36.8440 C   0  0  0  0  0  0  0  0  0  0  0  0
   -5.1320    8.8350  -38.5250 C   0  0  0  0  0  0  0  0  0  0  0  0
   -8.3700   16.4840  -32.8990 C   0  0  1  0  0  0  0  0  0  0  0  0
   -9.0100   14.2010  -32.4750 O   0  0  0  0  0  0  0  0  0  0  0  0
  -11.4560   14.8940  -37.6190 C   0  0  0  0  0  0  0  0  0  0  0  0
  -12.4130   13.1380  -36.2460 C   0  0  0  0  0  0  0  0  0  0  0  0
   -5.9370    8.4030  -39.7220 C   0  0  0  0  0  0  0  0  0  0  0  0
   -8.9490   16.7850  -31.6390 N   0  0  0  0  0  0  0  0  0  0  0  0
   -6.8180   16.5090  -32.7420 C   0  0  0  0  0  0  0  0  0  0  0  0
  -12.7230   15.4330  -37.8170 C   0  0  0  0  0  0  0  0  0  0  0  0
  -13.6950   13.6860  -36.4410 C   0  0  0  0  0  0  0  0  0  0  0  0
   -9.9620   17.8050  -31.4360 C   0  0  0  0  0  0  0  0  0  0  0  0
   -6.0760   16.0030  -34.0320 C   0  0  0  0  0  0  0  0  0  0  0  0
   -6.4180   17.9810  -32.4960 C   0  0  0  0  0  0  0  0  0  0  0  0
  -13.8400   14.8240  -37.2230 C   0  0  0  0  0  0  0  0  0  0  0  0
  -10.3840   18.4690  -32.3160 O   0  0  0  0  0  0  0  0  0  0  0  0
  -15.0840   15.3590  -37.4180 F   0  0  0  0  0  0  0  0  0  0  0  0
  2  1  1  1
  3  2  1  0
  2  4  1  0
  3  5  1  0
  4  6  1  0
  7  5  1  0
  5  8  2  0
  6  9  1  0
  7 10  1  6
  7 11  1  0
  9 12  1  0
  9 13  2  0
 14 10  1  0
 11 15  1  0
 12 16  1  0
 14 17  1  0
 14 18  2  0
 15 19  2  0
 15 20  1  0
 16 21  1  0
 17 22  1  1
 17 23  1  0
 19 24  1  0
 25 20  2  0
 22 26  1  0
 23 27  1  0
 23 28  1  0
 24 29  2  0
 29 25  1  0
 26 30  2  0
 29 31  1  0
A    2
 C13
A    3
 N12
A    4
 C19
A    5
 C47
A    6
 C20
A    7
 C04
A    8
 O48
A    9
 C21
A   10
 C02
A   11
 C05
A   12
 O22
A   13
 O23
A   14
 C01
A   15
 C06
A   16
 C50
A   17
 C57
A   18
 O03
A   19
 C07
A   20
 C11
A   21
 C53
A   22
 N58
A   23
 C78
A   24
 C08
A   25
 C10
A   27
 C81
A   28
 C82
A   29
 C09
A   30
 O60
A   31
 F1 
M  END
>  <XChem_code>  (535) 
AG7§11

>  <Occupancy>  (535) 
[1.0, 1.0, 1.0, 1.0, 1.0, 1.0, 1.0, 1.0, 1.0, 1.0, 1.0, 1.0, 1.0, 1.0, 1.0, 1.0, 1.0, 1.0, 1.0, 1.0, 1.0, 1.0, 1.0, 1.0, 1.0, 1.0, 1.0, 1.0, 1.0, 1.0, 1.0, 1.0, 1.0, 1.0, 1.0, 1.0, 1.0, 1.0, 1.0, 1.0, 1.0, 1.0, 1.0]

>  <TempFactor>  (535) 
[11.58, 15.03, 11.83, 16.25, 16.92, 12.34, 10.54, 20.22, 18.19, 14.53, 16.52, 20.55, 23.87, 20.72, 31.66, 32.21, 24.48, 11.55, 13.92, 10.24, 11.44, 10.75, 11.87, 10.52, 48.42, 14.67, 18.9, 51.51, 20.99, 12.24, 12.71, 37.77, 32.69, 13.62, 12.02, 16.3, 16.59, 14.61, 20.42, 22.35, 13.24, 10.96, 27.55]

>  <accession>  (535) 
5HXF_A

>  <description>  (535) 
Chain A, 3C protease [Enterovirus A71]

>  <evalue>  (535) 
1.33118e-69

>  <pdb_code>  (535) 
5HXF

>  <chain>  (535) 
A

>  <ligands>  (535) 
[{'chain_id': 'A', 'author_residue_number': 201, 'author_insertion_code': '', 'chem_comp_id': 'AG7', 'alternate_conformers': 0, 'entity_id': 2, 'struct_asym_id': 'B', 'residue_number': 1, 'chem_comp_name': '4-{2-(4-FLUORO-BENZYL)-6-METHYL-5-[(5-METHYL-ISOXAZOLE-3-CARBONYL)-AMINO]-4-OXO-HEPTANOYLAMINO}-5-(2-OXO-PYRROLIDIN-3-YL)-PENTANOIC ACID ETHYL ESTER', 'weight': 600.678, 'carbohydrate_polymer': False, 'branch_name': ''}, {'chain_id': 'A', 'author_residue_number': 202, 'author_insertion_code': '', 'chem_comp_id': 'SO4', 'alternate_conformers': 0, 'entity_id': 3, 'struct_asym_id': 'C', 'residue_number': 1, 'chem_comp_name': 'SULFATE ION', 'weight': 96.063, 'carbohydrate_polymer': False, 'branch_name': ''}, {'chain_id': 'A', 'author_residue_number': 203, 'author_insertion_code': '', 'chem_comp_id': 'SO4', 'alternate_conformers': 0, 'entity_id': 3, 'struct_asym_id': 'D', 'residue_number': 1, 'chem_comp_name': 'SULFATE ION', 'weight': 96.063, 'carbohydrate_polymer': False, 'branch_name': ''}]

>  <ligand_codes>  (535) 
['AG7', 'SO4', 'SO4']

>  <cofactor_codes>  (535) 
[]

>  <has_cofactor>  (535) 
False

>  <covalent>  (535) 
False

>  <base_name>  (535) 
5HXF

>  <lig_resn>  (535) 
AG7

>  <lig_resi>  (535) 
201

>  <lig_chain>  (535) 
A

>  <lig_segi>  (535) 
B

>  <lig_alt>  (535) 


>  <polymer_chain>  (535) 
A

>  <single_smiles>  (535) 
CCOC(=O)CC[C@H](C[C@@H]1CCNC1=O)NC(=O)[C@@H](CC(=O)[C@@H](NC(=O)c2cc(C)on2)C(C)C)Cc3ccc(F)cc3

$$$$
AG7P11S34
     RDKit          3D

 30 30  0  0  0  0  0  0  0  0999 V2000
   -9.8470   13.1350  -36.6200 C   0  0  0  0  0  0  0  0  0  0  0  0
   -9.5290   13.3210  -35.1020 C   0  0  2  0  0  0  0  0  0  0  0  0
   -9.1810   14.8030  -34.8550 C   0  0  0  0  0  0  0  0  0  0  0  0
   -8.3810   12.4340  -34.7380 C   0  0  0  0  0  0  0  0  0  0  0  0
   -8.8720   15.0590  -33.3180 C   0  0  0  0  0  0  0  0  0  0  0  0
   -8.6990   11.1710  -34.0830 N   0  0  0  0  0  0  0  0  0  0  0  0
   -7.2420   12.6600  -34.9610 O   0  0  0  0  0  0  0  0  0  0  0  0
   -8.3700   16.4840  -32.8990 C   0  0  1  0  0  0  0  0  0  0  0  0
   -9.0100   14.2010  -32.4750 O   0  0  0  0  0  0  0  0  0  0  0  0
   -7.4890   10.3990  -33.7670 C   0  0  1  0  0  0  0  0  0  0  0  0
   -8.9490   16.7850  -31.6390 N   0  0  0  0  0  0  0  0  0  0  0  0
   -6.8180   16.5090  -32.7420 C   0  0  0  0  0  0  0  0  0  0  0  0
   -7.5780   10.0040  -32.2880 C   0  0  0  0  0  0  0  0  0  0  0  0
   -7.1540    9.1680  -34.5770 C   0  0  0  0  0  0  0  0  0  0  0  0
   -9.9620   17.8050  -31.4360 C   0  0  0  0  0  0  0  0  0  0  0  0
   -6.0760   16.0030  -34.0320 C   0  0  0  0  0  0  0  0  0  0  0  0
   -6.4180   17.9810  -32.4960 C   0  0  0  0  0  0  0  0  0  0  0  0
   -7.0990   11.3020  -31.5750 C   0  0  1  0  0  0  0  0  0  0  0  0
   -7.7230    9.1470  -35.9980 C   0  0  0  0  0  0  0  0  0  0  0  0
  -10.3840   18.4690  -32.3160 O   0  0  0  0  0  0  0  0  0  0  0  0
   -7.0230   11.0800  -29.9920 C   0  0  0  0  0  0  0  0  0  0  0  0
   -5.8440   11.7210  -31.9680 C   0  0  0  0  0  0  0  0  0  0  0  0
   -6.3230    9.0840  -36.5380 C   0  0  0  0  0  0  0  0  0  0  0  0
   -6.0040   11.8370  -29.5430 N   0  0  0  0  0  0  0  0  0  0  0  0
   -7.7390   10.4060  -29.3120 O   0  0  0  0  0  0  0  0  0  0  0  0
   -5.3380   12.5560  -30.7120 C   0  0  0  0  0  0  0  0  0  0  0  0
   -5.9850    9.6770  -37.7640 O   0  0  0  0  0  0  0  0  0  0  0  0
   -5.5070    8.5210  -35.8520 O   0  0  0  0  0  0  0  0  0  0  0  0
   -5.1320    8.8350  -38.5250 C   0  0  0  0  0  0  0  0  0  0  0  0
   -5.9370    8.4030  -39.7220 C   0  0  0  0  0  0  0  0  0  0  0  0
  2  1  1  6
  2  3  1  0
  2  4  1  0
  5  3  1  0
  6  4  1  0
  4  7  2  0
  5  8  1  0
  5  9  2  0
  6 10  1  0
  8 11  1  1
  8 12  1  0
 10 13  1  1
 10 14  1  0
 11 15  1  0
 12 16  1  0
 12 17  1  0
 18 13  1  6
 14 19  1  0
 15 20  2  0
 18 21  1  0
 18 22  1  0
 19 23  1  0
 21 24  1  0
 21 25  2  0
 26 22  1  0
 23 27  1  0
 23 28  2  0
 24 26  1  0
 27 29  1  0
 29 30  1  0
A    2
 C04
A    3
 C02
A    4
 C47
A    5
 C01
A    6
 N12
A    7
 O48
A    8
 C57
A    9
 O03
A   10
 C13
A   11
 N58
A   12
 C78
A   13
 C14
A   14
 C19
A   16
 C81
A   17
 C82
A   18
 C15
A   19
 C20
A   20
 O60
A   21
 C16
A   22
 C84
A   23
 C21
A   24
 N17
A   25
 O18
A   26
 C83
A   27
 O22
A   28
 O23
A   29
 C50
A   30
 C53
M  END
>  <XChem_code>  (536) 
AG7§11

>  <Occupancy>  (536) 
[1.0, 1.0, 1.0, 1.0, 1.0, 1.0, 1.0, 1.0, 1.0, 1.0, 1.0, 1.0, 1.0, 1.0, 1.0, 1.0, 1.0, 1.0, 1.0, 1.0, 1.0, 1.0, 1.0, 1.0, 1.0, 1.0, 1.0, 1.0, 1.0, 1.0, 1.0, 1.0, 1.0, 1.0, 1.0, 1.0, 1.0, 1.0, 1.0, 1.0, 1.0, 1.0, 1.0]

>  <TempFactor>  (536) 
[11.58, 15.03, 11.83, 16.25, 16.92, 12.34, 10.54, 20.22, 18.19, 14.53, 16.52, 20.55, 23.87, 20.72, 31.66, 32.21, 24.48, 11.55, 13.92, 10.24, 11.44, 10.75, 11.87, 10.52, 48.42, 14.67, 18.9, 51.51, 20.99, 12.24, 12.71, 37.77, 32.69, 13.62, 12.02, 16.3, 16.59, 14.61, 20.42, 22.35, 13.24, 10.96, 27.55]

>  <accession>  (536) 
5HXF_A

>  <description>  (536) 
Chain A, 3C protease [Enterovirus A71]

>  <evalue>  (536) 
1.33118e-69

>  <pdb_code>  (536) 
5HXF

>  <chain>  (536) 
A

>  <ligands>  (536) 
[{'chain_id': 'A', 'author_residue_number': 201, 'author_insertion_code': '', 'chem_comp_id': 'AG7', 'alternate_conformers': 0, 'entity_id': 2, 'struct_asym_id': 'B', 'residue_number': 1, 'chem_comp_name': '4-{2-(4-FLUORO-BENZYL)-6-METHYL-5-[(5-METHYL-ISOXAZOLE-3-CARBONYL)-AMINO]-4-OXO-HEPTANOYLAMINO}-5-(2-OXO-PYRROLIDIN-3-YL)-PENTANOIC ACID ETHYL ESTER', 'weight': 600.678, 'carbohydrate_polymer': False, 'branch_name': ''}, {'chain_id': 'A', 'author_residue_number': 202, 'author_insertion_code': '', 'chem_comp_id': 'SO4', 'alternate_conformers': 0, 'entity_id': 3, 'struct_asym_id': 'C', 'residue_number': 1, 'chem_comp_name': 'SULFATE ION', 'weight': 96.063, 'carbohydrate_polymer': False, 'branch_name': ''}, {'chain_id': 'A', 'author_residue_number': 203, 'author_insertion_code': '', 'chem_comp_id': 'SO4', 'alternate_conformers': 0, 'entity_id': 3, 'struct_asym_id': 'D', 'residue_number': 1, 'chem_comp_name': 'SULFATE ION', 'weight': 96.063, 'carbohydrate_polymer': False, 'branch_name': ''}]

>  <ligand_codes>  (536) 
['AG7', 'SO4', 'SO4']

>  <cofactor_codes>  (536) 
[]

>  <has_cofactor>  (536) 
False

>  <covalent>  (536) 
False

>  <base_name>  (536) 
5HXF

>  <lig_resn>  (536) 
AG7

>  <lig_resi>  (536) 
201

>  <lig_chain>  (536) 
A

>  <lig_segi>  (536) 
B

>  <lig_alt>  (536) 


>  <polymer_chain>  (536) 
A

>  <single_smiles>  (536) 
CCOC(=O)CC[C@H](C[C@@H]1CCNC1=O)NC(=O)[C@@H](CC(=O)[C@@H](NC(=O)c2cc(C)on2)C(C)C)Cc3ccc(F)cc3

$$$$
AG7P11S35
     RDKit          3D

 14 13  0  0  0  0  0  0  0  0999 V2000
   -9.8470   13.1350  -36.6200 C   0  0  0  0  0  0  0  0  0  0  0  0
   -9.5290   13.3210  -35.1020 C   0  0  2  0  0  0  0  0  0  0  0  0
   -9.1810   14.8030  -34.8550 C   0  0  0  0  0  0  0  0  0  0  0  0
   -8.3810   12.4340  -34.7380 C   0  0  0  0  0  0  0  0  0  0  0  0
   -8.8720   15.0590  -33.3180 C   0  0  0  0  0  0  0  0  0  0  0  0
   -7.2420   12.6600  -34.9610 O   0  0  0  0  0  0  0  0  0  0  0  0
   -8.3700   16.4840  -32.8990 C   0  0  1  0  0  0  0  0  0  0  0  0
   -9.0100   14.2010  -32.4750 O   0  0  0  0  0  0  0  0  0  0  0  0
   -8.9490   16.7850  -31.6390 N   0  0  0  0  0  0  0  0  0  0  0  0
   -6.8180   16.5090  -32.7420 C   0  0  0  0  0  0  0  0  0  0  0  0
   -9.9620   17.8050  -31.4360 C   0  0  0  0  0  0  0  0  0  0  0  0
   -6.0760   16.0030  -34.0320 C   0  0  0  0  0  0  0  0  0  0  0  0
   -6.4180   17.9810  -32.4960 C   0  0  0  0  0  0  0  0  0  0  0  0
  -10.3840   18.4690  -32.3160 O   0  0  0  0  0  0  0  0  0  0  0  0
  2  1  1  6
  2  3  1  0
  2  4  1  0
  5  3  1  0
  4  6  2  0
  5  7  1  0
  5  8  2  0
  7  9  1  1
  7 10  1  0
  9 11  1  0
 10 12  1  0
 10 13  1  0
 11 14  2  0
A    2
 C04
A    3
 C02
A    5
 C01
A    6
 O48
A    7
 C57
A    8
 O03
A    9
 N58
A   10
 C78
A   12
 C81
A   13
 C82
A   14
 O60
M  END
>  <XChem_code>  (537) 
AG7§11

>  <Occupancy>  (537) 
[1.0, 1.0, 1.0, 1.0, 1.0, 1.0, 1.0, 1.0, 1.0, 1.0, 1.0, 1.0, 1.0, 1.0, 1.0, 1.0, 1.0, 1.0, 1.0, 1.0, 1.0, 1.0, 1.0, 1.0, 1.0, 1.0, 1.0, 1.0, 1.0, 1.0, 1.0, 1.0, 1.0, 1.0, 1.0, 1.0, 1.0, 1.0, 1.0, 1.0, 1.0, 1.0, 1.0]

>  <TempFactor>  (537) 
[11.58, 15.03, 11.83, 16.25, 16.92, 12.34, 10.54, 20.22, 18.19, 14.53, 16.52, 20.55, 23.87, 20.72, 31.66, 32.21, 24.48, 11.55, 13.92, 10.24, 11.44, 10.75, 11.87, 10.52, 48.42, 14.67, 18.9, 51.51, 20.99, 12.24, 12.71, 37.77, 32.69, 13.62, 12.02, 16.3, 16.59, 14.61, 20.42, 22.35, 13.24, 10.96, 27.55]

>  <accession>  (537) 
5HXF_A

>  <description>  (537) 
Chain A, 3C protease [Enterovirus A71]

>  <evalue>  (537) 
1.33118e-69

>  <pdb_code>  (537) 
5HXF

>  <chain>  (537) 
A

>  <ligands>  (537) 
[{'chain_id': 'A', 'author_residue_number': 201, 'author_insertion_code': '', 'chem_comp_id': 'AG7', 'alternate_conformers': 0, 'entity_id': 2, 'struct_asym_id': 'B', 'residue_number': 1, 'chem_comp_name': '4-{2-(4-FLUORO-BENZYL)-6-METHYL-5-[(5-METHYL-ISOXAZOLE-3-CARBONYL)-AMINO]-4-OXO-HEPTANOYLAMINO}-5-(2-OXO-PYRROLIDIN-3-YL)-PENTANOIC ACID ETHYL ESTER', 'weight': 600.678, 'carbohydrate_polymer': False, 'branch_name': ''}, {'chain_id': 'A', 'author_residue_number': 202, 'author_insertion_code': '', 'chem_comp_id': 'SO4', 'alternate_conformers': 0, 'entity_id': 3, 'struct_asym_id': 'C', 'residue_number': 1, 'chem_comp_name': 'SULFATE ION', 'weight': 96.063, 'carbohydrate_polymer': False, 'branch_name': ''}, {'chain_id': 'A', 'author_residue_number': 203, 'author_insertion_code': '', 'chem_comp_id': 'SO4', 'alternate_conformers': 0, 'entity_id': 3, 'struct_asym_id': 'D', 'residue_number': 1, 'chem_comp_name': 'SULFATE ION', 'weight': 96.063, 'carbohydrate_polymer': False, 'branch_name': ''}]

>  <ligand_codes>  (537) 
['AG7', 'SO4', 'SO4']

>  <cofactor_codes>  (537) 
[]

>  <has_cofactor>  (537) 
False

>  <covalent>  (537) 
False

>  <base_name>  (537) 
5HXF

>  <lig_resn>  (537) 
AG7

>  <lig_resi>  (537) 
201

>  <lig_chain>  (537) 
A

>  <lig_segi>  (537) 
B

>  <lig_alt>  (537) 


>  <polymer_chain>  (537) 
A

>  <single_smiles>  (537) 
CCOC(=O)CC[C@H](C[C@@H]1CCNC1=O)NC(=O)[C@@H](CC(=O)[C@@H](NC(=O)c2cc(C)on2)C(C)C)Cc3ccc(F)cc3

$$$$
AG7P11S36
     RDKit          3D

 15 14  0  0  0  0  0  0  0  0999 V2000
   -9.8470   13.1350  -36.6200 C   0  0  0  0  0  0  0  0  0  0  0  0
   -9.5290   13.3210  -35.1020 C   0  0  2  0  0  0  0  0  0  0  0  0
   -9.1810   14.8030  -34.8550 C   0  0  0  0  0  0  0  0  0  0  0  0
   -8.3810   12.4340  -34.7380 C   0  0  0  0  0  0  0  0  0  0  0  0
   -8.8720   15.0590  -33.3180 C   0  0  0  0  0  0  0  0  0  0  0  0
   -8.6990   11.1710  -34.0830 N   0  0  0  0  0  0  0  0  0  0  0  0
   -7.2420   12.6600  -34.9610 O   0  0  0  0  0  0  0  0  0  0  0  0
   -8.3700   16.4840  -32.8990 C   0  0  1  0  0  0  0  0  0  0  0  0
   -9.0100   14.2010  -32.4750 O   0  0  0  0  0  0  0  0  0  0  0  0
   -8.9490   16.7850  -31.6390 N   0  0  0  0  0  0  0  0  0  0  0  0
   -6.8180   16.5090  -32.7420 C   0  0  0  0  0  0  0  0  0  0  0  0
   -9.9620   17.8050  -31.4360 C   0  0  0  0  0  0  0  0  0  0  0  0
   -6.0760   16.0030  -34.0320 C   0  0  0  0  0  0  0  0  0  0  0  0
   -6.4180   17.9810  -32.4960 C   0  0  0  0  0  0  0  0  0  0  0  0
  -10.3840   18.4690  -32.3160 O   0  0  0  0  0  0  0  0  0  0  0  0
  2  1  1  6
  2  3  1  0
  2  4  1  0
  5  3  1  0
  6  4  1  0
  4  7  2  0
  5  8  1  0
  5  9  2  0
  8 10  1  1
  8 11  1  0
 10 12  1  0
 11 13  1  0
 11 14  1  0
 12 15  2  0
A    2
 C04
A    3
 C02
A    4
 C47
A    5
 C01
A    7
 O48
A    8
 C57
A    9
 O03
A   10
 N58
A   11
 C78
A   13
 C81
A   14
 C82
A   15
 O60
M  END
>  <XChem_code>  (538) 
AG7§11

>  <Occupancy>  (538) 
[1.0, 1.0, 1.0, 1.0, 1.0, 1.0, 1.0, 1.0, 1.0, 1.0, 1.0, 1.0, 1.0, 1.0, 1.0, 1.0, 1.0, 1.0, 1.0, 1.0, 1.0, 1.0, 1.0, 1.0, 1.0, 1.0, 1.0, 1.0, 1.0, 1.0, 1.0, 1.0, 1.0, 1.0, 1.0, 1.0, 1.0, 1.0, 1.0, 1.0, 1.0, 1.0, 1.0]

>  <TempFactor>  (538) 
[11.58, 15.03, 11.83, 16.25, 16.92, 12.34, 10.54, 20.22, 18.19, 14.53, 16.52, 20.55, 23.87, 20.72, 31.66, 32.21, 24.48, 11.55, 13.92, 10.24, 11.44, 10.75, 11.87, 10.52, 48.42, 14.67, 18.9, 51.51, 20.99, 12.24, 12.71, 37.77, 32.69, 13.62, 12.02, 16.3, 16.59, 14.61, 20.42, 22.35, 13.24, 10.96, 27.55]

>  <accession>  (538) 
5HXF_A

>  <description>  (538) 
Chain A, 3C protease [Enterovirus A71]

>  <evalue>  (538) 
1.33118e-69

>  <pdb_code>  (538) 
5HXF

>  <chain>  (538) 
A

>  <ligands>  (538) 
[{'chain_id': 'A', 'author_residue_number': 201, 'author_insertion_code': '', 'chem_comp_id': 'AG7', 'alternate_conformers': 0, 'entity_id': 2, 'struct_asym_id': 'B', 'residue_number': 1, 'chem_comp_name': '4-{2-(4-FLUORO-BENZYL)-6-METHYL-5-[(5-METHYL-ISOXAZOLE-3-CARBONYL)-AMINO]-4-OXO-HEPTANOYLAMINO}-5-(2-OXO-PYRROLIDIN-3-YL)-PENTANOIC ACID ETHYL ESTER', 'weight': 600.678, 'carbohydrate_polymer': False, 'branch_name': ''}, {'chain_id': 'A', 'author_residue_number': 202, 'author_insertion_code': '', 'chem_comp_id': 'SO4', 'alternate_conformers': 0, 'entity_id': 3, 'struct_asym_id': 'C', 'residue_number': 1, 'chem_comp_name': 'SULFATE ION', 'weight': 96.063, 'carbohydrate_polymer': False, 'branch_name': ''}, {'chain_id': 'A', 'author_residue_number': 203, 'author_insertion_code': '', 'chem_comp_id': 'SO4', 'alternate_conformers': 0, 'entity_id': 3, 'struct_asym_id': 'D', 'residue_number': 1, 'chem_comp_name': 'SULFATE ION', 'weight': 96.063, 'carbohydrate_polymer': False, 'branch_name': ''}]

>  <ligand_codes>  (538) 
['AG7', 'SO4', 'SO4']

>  <cofactor_codes>  (538) 
[]

>  <has_cofactor>  (538) 
False

>  <covalent>  (538) 
False

>  <base_name>  (538) 
5HXF

>  <lig_resn>  (538) 
AG7

>  <lig_resi>  (538) 
201

>  <lig_chain>  (538) 
A

>  <lig_segi>  (538) 
B

>  <lig_alt>  (538) 


>  <polymer_chain>  (538) 
A

>  <single_smiles>  (538) 
CCOC(=O)CC[C@H](C[C@@H]1CCNC1=O)NC(=O)[C@@H](CC(=O)[C@@H](NC(=O)c2cc(C)on2)C(C)C)Cc3ccc(F)cc3

$$$$
AG7P11S37
     RDKit          3D

 30 30  0  0  0  0  0  0  0  0999 V2000
   -9.8470   13.1350  -36.6200 C   0  0  0  0  0  0  0  0  0  0  0  0
   -9.5290   13.3210  -35.1020 C   0  0  1  0  0  0  0  0  0  0  0  0
   -8.3810   12.4340  -34.7380 C   0  0  0  0  0  0  0  0  0  0  0  0
   -9.1810   14.8030  -34.8550 C   0  0  0  0  0  0  0  0  0  0  0  0
   -8.6990   11.1710  -34.0830 N   0  0  0  0  0  0  0  0  0  0  0  0
   -7.2420   12.6600  -34.9610 O   0  0  0  0  0  0  0  0  0  0  0  0
   -8.8720   15.0590  -33.3180 C   0  0  0  0  0  0  0  0  0  0  0  0
   -7.4890   10.3990  -33.7670 C   0  0  1  0  0  0  0  0  0  0  0  0
   -9.0100   14.2010  -32.4750 O   0  0  0  0  0  0  0  0  0  0  0  0
   -8.3700   16.4840  -32.8990 C   0  0  1  0  0  0  0  0  0  0  0  0
   -7.5780   10.0040  -32.2880 C   0  0  0  0  0  0  0  0  0  0  0  0
   -7.1540    9.1680  -34.5770 C   0  0  0  0  0  0  0  0  0  0  0  0
   -8.9490   16.7850  -31.6390 N   0  0  0  0  0  0  0  0  0  0  0  0
   -6.8180   16.5090  -32.7420 C   0  0  0  0  0  0  0  0  0  0  0  0
   -7.7230    9.1470  -35.9980 C   0  0  0  0  0  0  0  0  0  0  0  0
   -9.9620   17.8050  -31.4360 C   0  0  0  0  0  0  0  0  0  0  0  0
   -6.0760   16.0030  -34.0320 C   0  0  0  0  0  0  0  0  0  0  0  0
   -6.4180   17.9810  -32.4960 C   0  0  0  0  0  0  0  0  0  0  0  0
   -6.3230    9.0840  -36.5380 C   0  0  0  0  0  0  0  0  0  0  0  0
  -10.4440   17.9520  -29.9660 C   0  0  0  0  0  0  0  0  0  0  0  0
  -10.3840   18.4690  -32.3160 O   0  0  0  0  0  0  0  0  0  0  0  0
   -5.9850    9.6770  -37.7640 O   0  0  0  0  0  0  0  0  0  0  0  0
   -5.5070    8.5210  -35.8520 O   0  0  0  0  0  0  0  0  0  0  0  0
  -11.4110   18.8010  -29.4820 C   0  0  0  0  0  0  0  0  0  0  0  0
   -9.9480   17.2570  -28.9540 N   0  0  0  0  0  0  0  0  0  0  0  0
   -5.1320    8.8350  -38.5250 C   0  0  0  0  0  0  0  0  0  0  0  0
  -11.4910   18.5870  -28.1420 C   0  0  0  0  0  0  0  0  0  0  0  0
  -10.5980   17.6410  -27.8030 O   0  0  0  0  0  0  0  0  0  0  0  0
   -5.9370    8.4030  -39.7220 C   0  0  0  0  0  0  0  0  0  0  0  0
  -12.4230   19.2850  -27.1830 C   0  0  0  0  0  0  0  0  0  0  0  0
  2  1  1  6
  2  3  1  0
  2  4  1  0
  5  3  1  0
  3  6  2  0
  7  4  1  0
  5  8  1  0
  7  9  2  0
  7 10  1  0
  8 11  1  1
  8 12  1  0
 10 13  1  1
 10 14  1  0
 12 15  1  0
 13 16  1  0
 14 17  1  0
 14 18  1  0
 15 19  1  0
 20 16  1  0
 16 21  2  0
 19 22  1  0
 19 23  2  0
 20 24  1  0
 20 25  2  0
 22 26  1  0
 24 27  2  0
 28 25  1  0
 26 29  1  0
 27 30  1  0
 27 28  1  0
A    2
 C04
A    3
 C47
A    4
 C02
A    5
 N12
A    6
 O48
A    7
 C01
A    8
 C13
A    9
 O03
A   10
 C57
A   12
 C19
A   13
 N58
A   14
 C78
A   15
 C20
A   16
 C59
A   17
 C81
A   18
 C82
A   19
 C21
A   20
 C1 
A   21
 O60
A   22
 O22
A   23
 O23
A   24
 C2 
A   25
 N5 
A   26
 C50
A   27
 C3 
A   28
 O4 
A   29
 C53
A   30
 C4 
M  END
>  <XChem_code>  (539) 
AG7§11

>  <Occupancy>  (539) 
[1.0, 1.0, 1.0, 1.0, 1.0, 1.0, 1.0, 1.0, 1.0, 1.0, 1.0, 1.0, 1.0, 1.0, 1.0, 1.0, 1.0, 1.0, 1.0, 1.0, 1.0, 1.0, 1.0, 1.0, 1.0, 1.0, 1.0, 1.0, 1.0, 1.0, 1.0, 1.0, 1.0, 1.0, 1.0, 1.0, 1.0, 1.0, 1.0, 1.0, 1.0, 1.0, 1.0]

>  <TempFactor>  (539) 
[11.58, 15.03, 11.83, 16.25, 16.92, 12.34, 10.54, 20.22, 18.19, 14.53, 16.52, 20.55, 23.87, 20.72, 31.66, 32.21, 24.48, 11.55, 13.92, 10.24, 11.44, 10.75, 11.87, 10.52, 48.42, 14.67, 18.9, 51.51, 20.99, 12.24, 12.71, 37.77, 32.69, 13.62, 12.02, 16.3, 16.59, 14.61, 20.42, 22.35, 13.24, 10.96, 27.55]

>  <accession>  (539) 
5HXF_A

>  <description>  (539) 
Chain A, 3C protease [Enterovirus A71]

>  <evalue>  (539) 
1.33118e-69

>  <pdb_code>  (539) 
5HXF

>  <chain>  (539) 
A

>  <ligands>  (539) 
[{'chain_id': 'A', 'author_residue_number': 201, 'author_insertion_code': '', 'chem_comp_id': 'AG7', 'alternate_conformers': 0, 'entity_id': 2, 'struct_asym_id': 'B', 'residue_number': 1, 'chem_comp_name': '4-{2-(4-FLUORO-BENZYL)-6-METHYL-5-[(5-METHYL-ISOXAZOLE-3-CARBONYL)-AMINO]-4-OXO-HEPTANOYLAMINO}-5-(2-OXO-PYRROLIDIN-3-YL)-PENTANOIC ACID ETHYL ESTER', 'weight': 600.678, 'carbohydrate_polymer': False, 'branch_name': ''}, {'chain_id': 'A', 'author_residue_number': 202, 'author_insertion_code': '', 'chem_comp_id': 'SO4', 'alternate_conformers': 0, 'entity_id': 3, 'struct_asym_id': 'C', 'residue_number': 1, 'chem_comp_name': 'SULFATE ION', 'weight': 96.063, 'carbohydrate_polymer': False, 'branch_name': ''}, {'chain_id': 'A', 'author_residue_number': 203, 'author_insertion_code': '', 'chem_comp_id': 'SO4', 'alternate_conformers': 0, 'entity_id': 3, 'struct_asym_id': 'D', 'residue_number': 1, 'chem_comp_name': 'SULFATE ION', 'weight': 96.063, 'carbohydrate_polymer': False, 'branch_name': ''}]

>  <ligand_codes>  (539) 
['AG7', 'SO4', 'SO4']

>  <cofactor_codes>  (539) 
[]

>  <has_cofactor>  (539) 
False

>  <covalent>  (539) 
False

>  <base_name>  (539) 
5HXF

>  <lig_resn>  (539) 
AG7

>  <lig_resi>  (539) 
201

>  <lig_chain>  (539) 
A

>  <lig_segi>  (539) 
B

>  <lig_alt>  (539) 


>  <polymer_chain>  (539) 
A

>  <single_smiles>  (539) 
CCOC(=O)CC[C@H](C[C@@H]1CCNC1=O)NC(=O)[C@@H](CC(=O)[C@@H](NC(=O)c2cc(C)on2)C(C)C)Cc3ccc(F)cc3

$$$$
AG7P11S38
     RDKit          3D

 22 21  0  0  0  0  0  0  0  0999 V2000
   -9.8470   13.1350  -36.6200 C   0  0  0  0  0  0  0  0  0  0  0  0
   -9.5290   13.3210  -35.1020 C   0  0  1  0  0  0  0  0  0  0  0  0
   -8.3810   12.4340  -34.7380 C   0  0  0  0  0  0  0  0  0  0  0  0
   -9.1810   14.8030  -34.8550 C   0  0  0  0  0  0  0  0  0  0  0  0
   -8.6990   11.1710  -34.0830 N   0  0  0  0  0  0  0  0  0  0  0  0
   -7.2420   12.6600  -34.9610 O   0  0  0  0  0  0  0  0  0  0  0  0
   -8.8720   15.0590  -33.3180 C   0  0  0  0  0  0  0  0  0  0  0  0
   -7.4890   10.3990  -33.7670 C   0  0  1  0  0  0  0  0  0  0  0  0
   -8.3700   16.4840  -32.8990 C   0  0  1  0  0  0  0  0  0  0  0  0
   -9.0100   14.2010  -32.4750 O   0  0  0  0  0  0  0  0  0  0  0  0
   -7.5780   10.0040  -32.2880 C   0  0  0  0  0  0  0  0  0  0  0  0
   -7.1540    9.1680  -34.5770 C   0  0  0  0  0  0  0  0  0  0  0  0
   -8.9490   16.7850  -31.6390 N   0  0  0  0  0  0  0  0  0  0  0  0
   -6.8180   16.5090  -32.7420 C   0  0  0  0  0  0  0  0  0  0  0  0
   -7.7230    9.1470  -35.9980 C   0  0  0  0  0  0  0  0  0  0  0  0
   -6.0760   16.0030  -34.0320 C   0  0  0  0  0  0  0  0  0  0  0  0
   -6.4180   17.9810  -32.4960 C   0  0  0  0  0  0  0  0  0  0  0  0
   -6.3230    9.0840  -36.5380 C   0  0  0  0  0  0  0  0  0  0  0  0
   -5.9850    9.6770  -37.7640 O   0  0  0  0  0  0  0  0  0  0  0  0
   -5.5070    8.5210  -35.8520 O   0  0  0  0  0  0  0  0  0  0  0  0
   -5.1320    8.8350  -38.5250 C   0  0  0  0  0  0  0  0  0  0  0  0
   -5.9370    8.4030  -39.7220 C   0  0  0  0  0  0  0  0  0  0  0  0
  2  1  1  6
  2  3  1  0
  2  4  1  0
  5  3  1  0
  3  6  2  0
  7  4  1  0
  5  8  1  0
  7  9  1  0
  7 10  2  0
  8 11  1  1
  8 12  1  0
  9 13  1  1
  9 14  1  0
 12 15  1  0
 14 16  1  0
 14 17  1  0
 15 18  1  0
 18 19  1  0
 18 20  2  0
 19 21  1  0
 21 22  1  0
A    2
 C04
A    3
 C47
A    4
 C02
A    5
 N12
A    6
 O48
A    7
 C01
A    8
 C13
A    9
 C57
A   10
 O03
A   12
 C19
A   14
 C78
A   15
 C20
A   16
 C81
A   17
 C82
A   18
 C21
A   19
 O22
A   20
 O23
A   21
 C50
A   22
 C53
M  END
>  <XChem_code>  (540) 
AG7§11

>  <Occupancy>  (540) 
[1.0, 1.0, 1.0, 1.0, 1.0, 1.0, 1.0, 1.0, 1.0, 1.0, 1.0, 1.0, 1.0, 1.0, 1.0, 1.0, 1.0, 1.0, 1.0, 1.0, 1.0, 1.0, 1.0, 1.0, 1.0, 1.0, 1.0, 1.0, 1.0, 1.0, 1.0, 1.0, 1.0, 1.0, 1.0, 1.0, 1.0, 1.0, 1.0, 1.0, 1.0, 1.0, 1.0]

>  <TempFactor>  (540) 
[11.58, 15.03, 11.83, 16.25, 16.92, 12.34, 10.54, 20.22, 18.19, 14.53, 16.52, 20.55, 23.87, 20.72, 31.66, 32.21, 24.48, 11.55, 13.92, 10.24, 11.44, 10.75, 11.87, 10.52, 48.42, 14.67, 18.9, 51.51, 20.99, 12.24, 12.71, 37.77, 32.69, 13.62, 12.02, 16.3, 16.59, 14.61, 20.42, 22.35, 13.24, 10.96, 27.55]

>  <accession>  (540) 
5HXF_A

>  <description>  (540) 
Chain A, 3C protease [Enterovirus A71]

>  <evalue>  (540) 
1.33118e-69

>  <pdb_code>  (540) 
5HXF

>  <chain>  (540) 
A

>  <ligands>  (540) 
[{'chain_id': 'A', 'author_residue_number': 201, 'author_insertion_code': '', 'chem_comp_id': 'AG7', 'alternate_conformers': 0, 'entity_id': 2, 'struct_asym_id': 'B', 'residue_number': 1, 'chem_comp_name': '4-{2-(4-FLUORO-BENZYL)-6-METHYL-5-[(5-METHYL-ISOXAZOLE-3-CARBONYL)-AMINO]-4-OXO-HEPTANOYLAMINO}-5-(2-OXO-PYRROLIDIN-3-YL)-PENTANOIC ACID ETHYL ESTER', 'weight': 600.678, 'carbohydrate_polymer': False, 'branch_name': ''}, {'chain_id': 'A', 'author_residue_number': 202, 'author_insertion_code': '', 'chem_comp_id': 'SO4', 'alternate_conformers': 0, 'entity_id': 3, 'struct_asym_id': 'C', 'residue_number': 1, 'chem_comp_name': 'SULFATE ION', 'weight': 96.063, 'carbohydrate_polymer': False, 'branch_name': ''}, {'chain_id': 'A', 'author_residue_number': 203, 'author_insertion_code': '', 'chem_comp_id': 'SO4', 'alternate_conformers': 0, 'entity_id': 3, 'struct_asym_id': 'D', 'residue_number': 1, 'chem_comp_name': 'SULFATE ION', 'weight': 96.063, 'carbohydrate_polymer': False, 'branch_name': ''}]

>  <ligand_codes>  (540) 
['AG7', 'SO4', 'SO4']

>  <cofactor_codes>  (540) 
[]

>  <has_cofactor>  (540) 
False

>  <covalent>  (540) 
False

>  <base_name>  (540) 
5HXF

>  <lig_resn>  (540) 
AG7

>  <lig_resi>  (540) 
201

>  <lig_chain>  (540) 
A

>  <lig_segi>  (540) 
B

>  <lig_alt>  (540) 


>  <polymer_chain>  (540) 
A

>  <single_smiles>  (540) 
CCOC(=O)CC[C@H](C[C@@H]1CCNC1=O)NC(=O)[C@@H](CC(=O)[C@@H](NC(=O)c2cc(C)on2)C(C)C)Cc3ccc(F)cc3

$$$$
AG7P11S39
     RDKit          3D

 21 20  0  0  0  0  0  0  0  0999 V2000
   -9.8470   13.1350  -36.6200 C   0  0  0  0  0  0  0  0  0  0  0  0
   -9.5290   13.3210  -35.1020 C   0  0  1  0  0  0  0  0  0  0  0  0
   -8.3810   12.4340  -34.7380 C   0  0  0  0  0  0  0  0  0  0  0  0
   -9.1810   14.8030  -34.8550 C   0  0  0  0  0  0  0  0  0  0  0  0
   -8.6990   11.1710  -34.0830 N   0  0  0  0  0  0  0  0  0  0  0  0
   -7.2420   12.6600  -34.9610 O   0  0  0  0  0  0  0  0  0  0  0  0
   -8.8720   15.0590  -33.3180 C   0  0  0  0  0  0  0  0  0  0  0  0
   -7.4890   10.3990  -33.7670 C   0  0  1  0  0  0  0  0  0  0  0  0
   -8.3700   16.4840  -32.8990 C   0  0  0  0  0  0  0  0  0  0  0  0
   -9.0100   14.2010  -32.4750 O   0  0  0  0  0  0  0  0  0  0  0  0
   -7.5780   10.0040  -32.2880 C   0  0  0  0  0  0  0  0  0  0  0  0
   -7.1540    9.1680  -34.5770 C   0  0  0  0  0  0  0  0  0  0  0  0
   -6.8180   16.5090  -32.7420 C   0  0  0  0  0  0  0  0  0  0  0  0
   -7.7230    9.1470  -35.9980 C   0  0  0  0  0  0  0  0  0  0  0  0
   -6.0760   16.0030  -34.0320 C   0  0  0  0  0  0  0  0  0  0  0  0
   -6.4180   17.9810  -32.4960 C   0  0  0  0  0  0  0  0  0  0  0  0
   -6.3230    9.0840  -36.5380 C   0  0  0  0  0  0  0  0  0  0  0  0
   -5.9850    9.6770  -37.7640 O   0  0  0  0  0  0  0  0  0  0  0  0
   -5.5070    8.5210  -35.8520 O   0  0  0  0  0  0  0  0  0  0  0  0
   -5.1320    8.8350  -38.5250 C   0  0  0  0  0  0  0  0  0  0  0  0
   -5.9370    8.4030  -39.7220 C   0  0  0  0  0  0  0  0  0  0  0  0
  2  1  1  6
  2  3  1  0
  2  4  1  0
  5  3  1  0
  3  6  2  0
  7  4  1  0
  5  8  1  0
  7  9  1  0
  7 10  2  0
  8 11  1  1
  8 12  1  0
  9 13  1  6
 12 14  1  0
 13 15  1  0
 13 16  1  0
 14 17  1  0
 17 18  1  0
 17 19  2  0
 18 20  1  0
 20 21  1  0
A    2
 C04
A    3
 C47
A    4
 C02
A    5
 N12
A    6
 O48
A    7
 C01
A    8
 C13
A   10
 O03
A   12
 C19
A   13
 C78
A   14
 C20
A   15
 C81
A   16
 C82
A   17
 C21
A   18
 O22
A   19
 O23
A   20
 C50
A   21
 C53
M  END
>  <XChem_code>  (541) 
AG7§11

>  <Occupancy>  (541) 
[1.0, 1.0, 1.0, 1.0, 1.0, 1.0, 1.0, 1.0, 1.0, 1.0, 1.0, 1.0, 1.0, 1.0, 1.0, 1.0, 1.0, 1.0, 1.0, 1.0, 1.0, 1.0, 1.0, 1.0, 1.0, 1.0, 1.0, 1.0, 1.0, 1.0, 1.0, 1.0, 1.0, 1.0, 1.0, 1.0, 1.0, 1.0, 1.0, 1.0, 1.0, 1.0, 1.0]

>  <TempFactor>  (541) 
[11.58, 15.03, 11.83, 16.25, 16.92, 12.34, 10.54, 20.22, 18.19, 14.53, 16.52, 20.55, 23.87, 20.72, 31.66, 32.21, 24.48, 11.55, 13.92, 10.24, 11.44, 10.75, 11.87, 10.52, 48.42, 14.67, 18.9, 51.51, 20.99, 12.24, 12.71, 37.77, 32.69, 13.62, 12.02, 16.3, 16.59, 14.61, 20.42, 22.35, 13.24, 10.96, 27.55]

>  <accession>  (541) 
5HXF_A

>  <description>  (541) 
Chain A, 3C protease [Enterovirus A71]

>  <evalue>  (541) 
1.33118e-69

>  <pdb_code>  (541) 
5HXF

>  <chain>  (541) 
A

>  <ligands>  (541) 
[{'chain_id': 'A', 'author_residue_number': 201, 'author_insertion_code': '', 'chem_comp_id': 'AG7', 'alternate_conformers': 0, 'entity_id': 2, 'struct_asym_id': 'B', 'residue_number': 1, 'chem_comp_name': '4-{2-(4-FLUORO-BENZYL)-6-METHYL-5-[(5-METHYL-ISOXAZOLE-3-CARBONYL)-AMINO]-4-OXO-HEPTANOYLAMINO}-5-(2-OXO-PYRROLIDIN-3-YL)-PENTANOIC ACID ETHYL ESTER', 'weight': 600.678, 'carbohydrate_polymer': False, 'branch_name': ''}, {'chain_id': 'A', 'author_residue_number': 202, 'author_insertion_code': '', 'chem_comp_id': 'SO4', 'alternate_conformers': 0, 'entity_id': 3, 'struct_asym_id': 'C', 'residue_number': 1, 'chem_comp_name': 'SULFATE ION', 'weight': 96.063, 'carbohydrate_polymer': False, 'branch_name': ''}, {'chain_id': 'A', 'author_residue_number': 203, 'author_insertion_code': '', 'chem_comp_id': 'SO4', 'alternate_conformers': 0, 'entity_id': 3, 'struct_asym_id': 'D', 'residue_number': 1, 'chem_comp_name': 'SULFATE ION', 'weight': 96.063, 'carbohydrate_polymer': False, 'branch_name': ''}]

>  <ligand_codes>  (541) 
['AG7', 'SO4', 'SO4']

>  <cofactor_codes>  (541) 
[]

>  <has_cofactor>  (541) 
False

>  <covalent>  (541) 
False

>  <base_name>  (541) 
5HXF

>  <lig_resn>  (541) 
AG7

>  <lig_resi>  (541) 
201

>  <lig_chain>  (541) 
A

>  <lig_segi>  (541) 
B

>  <lig_alt>  (541) 


>  <polymer_chain>  (541) 
A

>  <single_smiles>  (541) 
CCOC(=O)CC[C@H](C[C@@H]1CCNC1=O)NC(=O)[C@@H](CC(=O)[C@@H](NC(=O)c2cc(C)on2)C(C)C)Cc3ccc(F)cc3

$$$$
AG7P11S40
     RDKit          3D

 24 23  0  0  0  0  0  0  0  0999 V2000
   -9.8470   13.1350  -36.6200 C   0  0  0  0  0  0  0  0  0  0  0  0
   -9.5290   13.3210  -35.1020 C   0  0  1  0  0  0  0  0  0  0  0  0
   -8.3810   12.4340  -34.7380 C   0  0  0  0  0  0  0  0  0  0  0  0
   -9.1810   14.8030  -34.8550 C   0  0  0  0  0  0  0  0  0  0  0  0
   -8.6990   11.1710  -34.0830 N   0  0  0  0  0  0  0  0  0  0  0  0
   -7.2420   12.6600  -34.9610 O   0  0  0  0  0  0  0  0  0  0  0  0
   -8.8720   15.0590  -33.3180 C   0  0  0  0  0  0  0  0  0  0  0  0
   -7.4890   10.3990  -33.7670 C   0  0  1  0  0  0  0  0  0  0  0  0
   -8.3700   16.4840  -32.8990 C   0  0  1  0  0  0  0  0  0  0  0  0
   -9.0100   14.2010  -32.4750 O   0  0  0  0  0  0  0  0  0  0  0  0
   -7.5780   10.0040  -32.2880 C   0  0  0  0  0  0  0  0  0  0  0  0
   -7.1540    9.1680  -34.5770 C   0  0  0  0  0  0  0  0  0  0  0  0
   -8.9490   16.7850  -31.6390 N   0  0  0  0  0  0  0  0  0  0  0  0
   -6.8180   16.5090  -32.7420 C   0  0  0  0  0  0  0  0  0  0  0  0
   -7.7230    9.1470  -35.9980 C   0  0  0  0  0  0  0  0  0  0  0  0
   -9.9620   17.8050  -31.4360 C   0  0  0  0  0  0  0  0  0  0  0  0
   -6.0760   16.0030  -34.0320 C   0  0  0  0  0  0  0  0  0  0  0  0
   -6.4180   17.9810  -32.4960 C   0  0  0  0  0  0  0  0  0  0  0  0
   -6.3230    9.0840  -36.5380 C   0  0  0  0  0  0  0  0  0  0  0  0
  -10.3840   18.4690  -32.3160 O   0  0  0  0  0  0  0  0  0  0  0  0
   -5.9850    9.6770  -37.7640 O   0  0  0  0  0  0  0  0  0  0  0  0
   -5.5070    8.5210  -35.8520 O   0  0  0  0  0  0  0  0  0  0  0  0
   -5.1320    8.8350  -38.5250 C   0  0  0  0  0  0  0  0  0  0  0  0
   -5.9370    8.4030  -39.7220 C   0  0  0  0  0  0  0  0  0  0  0  0
  2  1  1  6
  2  3  1  0
  2  4  1  0
  5  3  1  0
  3  6  2  0
  7  4  1  0
  5  8  1  0
  7  9  1  0
  7 10  2  0
  8 11  1  1
  8 12  1  0
  9 13  1  1
  9 14  1  0
 12 15  1  0
 13 16  1  0
 14 17  1  0
 14 18  1  0
 15 19  1  0
 16 20  2  0
 19 21  1  0
 19 22  2  0
 21 23  1  0
 23 24  1  0
A    2
 C04
A    3
 C47
A    4
 C02
A    5
 N12
A    6
 O48
A    7
 C01
A    8
 C13
A    9
 C57
A   10
 O03
A   12
 C19
A   13
 N58
A   14
 C78
A   15
 C20
A   17
 C81
A   18
 C82
A   19
 C21
A   20
 O60
A   21
 O22
A   22
 O23
A   23
 C50
A   24
 C53
M  END
>  <XChem_code>  (542) 
AG7§11

>  <Occupancy>  (542) 
[1.0, 1.0, 1.0, 1.0, 1.0, 1.0, 1.0, 1.0, 1.0, 1.0, 1.0, 1.0, 1.0, 1.0, 1.0, 1.0, 1.0, 1.0, 1.0, 1.0, 1.0, 1.0, 1.0, 1.0, 1.0, 1.0, 1.0, 1.0, 1.0, 1.0, 1.0, 1.0, 1.0, 1.0, 1.0, 1.0, 1.0, 1.0, 1.0, 1.0, 1.0, 1.0, 1.0]

>  <TempFactor>  (542) 
[11.58, 15.03, 11.83, 16.25, 16.92, 12.34, 10.54, 20.22, 18.19, 14.53, 16.52, 20.55, 23.87, 20.72, 31.66, 32.21, 24.48, 11.55, 13.92, 10.24, 11.44, 10.75, 11.87, 10.52, 48.42, 14.67, 18.9, 51.51, 20.99, 12.24, 12.71, 37.77, 32.69, 13.62, 12.02, 16.3, 16.59, 14.61, 20.42, 22.35, 13.24, 10.96, 27.55]

>  <accession>  (542) 
5HXF_A

>  <description>  (542) 
Chain A, 3C protease [Enterovirus A71]

>  <evalue>  (542) 
1.33118e-69

>  <pdb_code>  (542) 
5HXF

>  <chain>  (542) 
A

>  <ligands>  (542) 
[{'chain_id': 'A', 'author_residue_number': 201, 'author_insertion_code': '', 'chem_comp_id': 'AG7', 'alternate_conformers': 0, 'entity_id': 2, 'struct_asym_id': 'B', 'residue_number': 1, 'chem_comp_name': '4-{2-(4-FLUORO-BENZYL)-6-METHYL-5-[(5-METHYL-ISOXAZOLE-3-CARBONYL)-AMINO]-4-OXO-HEPTANOYLAMINO}-5-(2-OXO-PYRROLIDIN-3-YL)-PENTANOIC ACID ETHYL ESTER', 'weight': 600.678, 'carbohydrate_polymer': False, 'branch_name': ''}, {'chain_id': 'A', 'author_residue_number': 202, 'author_insertion_code': '', 'chem_comp_id': 'SO4', 'alternate_conformers': 0, 'entity_id': 3, 'struct_asym_id': 'C', 'residue_number': 1, 'chem_comp_name': 'SULFATE ION', 'weight': 96.063, 'carbohydrate_polymer': False, 'branch_name': ''}, {'chain_id': 'A', 'author_residue_number': 203, 'author_insertion_code': '', 'chem_comp_id': 'SO4', 'alternate_conformers': 0, 'entity_id': 3, 'struct_asym_id': 'D', 'residue_number': 1, 'chem_comp_name': 'SULFATE ION', 'weight': 96.063, 'carbohydrate_polymer': False, 'branch_name': ''}]

>  <ligand_codes>  (542) 
['AG7', 'SO4', 'SO4']

>  <cofactor_codes>  (542) 
[]

>  <has_cofactor>  (542) 
False

>  <covalent>  (542) 
False

>  <base_name>  (542) 
5HXF

>  <lig_resn>  (542) 
AG7

>  <lig_resi>  (542) 
201

>  <lig_chain>  (542) 
A

>  <lig_segi>  (542) 
B

>  <lig_alt>  (542) 


>  <polymer_chain>  (542) 
A

>  <single_smiles>  (542) 
CCOC(=O)CC[C@H](C[C@@H]1CCNC1=O)NC(=O)[C@@H](CC(=O)[C@@H](NC(=O)c2cc(C)on2)C(C)C)Cc3ccc(F)cc3

$$$$
FHRP1
     RDKit          3D

 34 37  0  0  0  0  0  0  0  0999 V2000
   -8.8740   14.1120  -32.4470 O   0  0  0  0  0  0  0  0  0  0  0  0
   -8.8010   14.8950  -33.4010 C   0  0  0  0  0  0  0  0  0  0  0  0
   -8.1570   16.2030  -33.2710 C   0  0  0  0  0  0  0  0  0  0  0  0
   -8.0490   17.2730  -34.1240 C   0  0  0  0  0  0  0  0  0  0  0  0
   -7.2790   18.2580  -33.4560 C   0  0  0  0  0  0  0  0  0  0  0  0
   -6.8210   19.5470  -33.7830 C   0  0  0  0  0  0  0  0  0  0  0  0
   -6.0720   20.2410  -32.8640 C   0  0  0  0  0  0  0  0  0  0  0  0
   -5.7460   19.6920  -31.6270 C   0  0  0  0  0  0  0  0  0  0  0  0
   -6.1770   18.4360  -31.2640 C   0  0  0  0  0  0  0  0  0  0  0  0
   -6.9430   17.7290  -32.1870 C   0  0  0  0  0  0  0  0  0  0  0  0
   -7.4890   16.4770  -32.1010 N   0  0  0  0  0  0  0  0  0  0  0  0
   -9.2450   14.5580  -34.6270 N   0  0  0  0  0  0  0  0  0  0  0  0
   -9.7320   13.2190  -34.8780 C   0  0  1  0  0  0  0  0  0  0  0  0
  -10.3440   13.1100  -36.2770 C   0  0  0  0  0  0  0  0  0  0  0  0
  -11.6180   13.9040  -36.4220 C   0  0  0  0  0  0  0  0  0  0  0  0
  -12.7470   13.5850  -35.6890 C   0  0  0  0  0  0  0  0  0  0  0  0
  -13.9180   14.3150  -35.8260 C   0  0  0  0  0  0  0  0  0  0  0  0
  -13.9760   15.3680  -36.7080 C   0  0  0  0  0  0  0  0  0  0  0  0
  -12.8650   15.6960  -37.4450 C   0  0  0  0  0  0  0  0  0  0  0  0
  -11.6930   14.9670  -37.3080 C   0  0  0  0  0  0  0  0  0  0  0  0
   -8.5900   12.2250  -34.7110 C   0  0  0  0  0  0  0  0  0  0  0  0
   -8.9070   11.0690  -34.1230 N   0  0  0  0  0  0  0  0  0  0  0  0
   -7.9330   10.0300  -33.8370 C   0  0  1  0  0  0  0  0  0  0  0  0
   -7.6710    9.8790  -32.3370 C   0  0  0  0  0  0  0  0  0  0  0  0
   -7.0900   11.1330  -31.6650 C   0  0  2  0  0  0  0  0  0  0  0  0
   -5.7320   11.6370  -32.1410 C   0  0  0  0  0  0  0  0  0  0  0  0
   -5.1740   12.3620  -30.9250 C   0  0  0  0  0  0  0  0  0  0  0  0
   -5.7790   11.6220  -29.8190 N   0  0  0  0  0  0  0  0  0  0  0  0
   -6.8730   10.9530  -30.1760 C   0  0  0  0  0  0  0  0  0  0  0  0
   -7.6010   10.2890  -29.4180 O   0  0  0  0  0  0  0  0  0  0  0  0
   -8.3950    8.7250  -34.5150 C   0  0  0  0  0  0  0  0  0  0  0  0
   -8.2950    8.6890  -35.7580 O   0  0  0  0  0  0  0  0  0  0  0  0
   -7.4610   12.4990  -35.1080 O   0  0  0  0  0  0  0  0  0  0  0  0
   -9.9400    8.2440  -33.7820 R   0  0  0  0  0  0  0  0  0  0  0  0
  1  2  2  0
  2  3  1  0
  2 12  1  0
  3 11  1  0
  3  4  2  0
  4  5  1  0
  5  6  2  0
  5 10  1  0
  6  7  1  0
  7  8  2  0
  8  9  1  0
  9 10  2  0
 10 11  1  0
 12 13  1  0
 13 14  1  6
 13 21  1  0
 14 15  1  0
 15 16  1  0
 15 20  1  0
 16 17  1  0
 17 18  1  0
 18 19  1  0
 19 20  1  0
 21 22  1  0
 21 33  2  0
 22 23  1  0
 23 31  1  0
 23 24  1  1
 25 24  1  6
 25 26  1  0
 25 29  1  0
 26 27  1  0
 27 28  1  0
 28 29  1  0
 29 30  2  0
 31 32  2  0
 31 34  1  0
V   34 *
A    1
 O01
A    2
 C02
A    3
 C03
A    4
 C04
A    5
 C05
A    6
 C06
A    7
 C07
A    8
 C08
A    9
 C09
A   10
 C10
A   11
 N11
A   12
 N12
A   13
 C13
A   14
 C14
A   15
 C15
A   16
 C16
A   17
 C17
A   18
 C18
A   19
 C19
A   20
 C20
A   21
 C21
A   22
 N22
A   23
 C23
A   24
 C24
A   25
 C25
A   26
 C26
A   27
 C27
A   28
 N28
A   29
 C29
A   30
 O30
A   31
 C31
A   32
 O32
A   33
 O33
A   34
 X  
M  END
>  <XChem_code>  (543) 
FHR§1

>  <Occupancy>  (543) 
[1.0, 1.0, 1.0, 1.0, 1.0, 1.0, 1.0, 1.0, 1.0, 1.0, 1.0, 1.0, 1.0, 1.0, 1.0, 1.0, 1.0, 1.0, 1.0, 1.0, 1.0, 1.0, 1.0, 1.0, 1.0, 1.0, 1.0, 1.0, 1.0, 1.0, 1.0, 1.0, 1.0, 1.0]

>  <TempFactor>  (543) 
[12.8, 12.28, 12.67, 12.86, 13.41, 14.29, 15.58, 14.39, 13.97, 13.17, 13.23, 12.4, 11.86, 13.21, 13.36, 14.53, 14.53, 16.76, 17.82, 15.62, 11.61, 11.88, 12.06, 12.52, 13.0, 13.86, 15.8, 14.81, 13.31, 13.03, 12.29, 12.97, 13.13, 12.32]

>  <accession>  (543) 
7DNC_A

>  <description>  (543) 
Chain A, 3C protease [Enterovirus A71]

>  <evalue>  (543) 
1.3314799999999999e-69

>  <pdb_code>  (543) 
7DNC

>  <chain>  (543) 
A

>  <ligands>  (543) 
[{'chain_id': 'A', 'author_residue_number': 201, 'author_insertion_code': '', 'chem_comp_id': 'FHR', 'alternate_conformers': 0, 'entity_id': 2, 'struct_asym_id': 'B', 'residue_number': 1, 'chem_comp_name': '~{N}-[(2~{S})-3-cyclohexyl-1-oxidanylidene-1-[[(2~{S})-1-oxidanylidene-3-[(3~{S})-2-oxidanylidenepyrrolidin-3-yl]propan-2-yl]amino]propan-2-yl]-1~{H}-indole-2-carboxamide', 'weight': 452.546, 'carbohydrate_polymer': False, 'branch_name': ''}]

>  <ligand_codes>  (543) 
['FHR']

>  <cofactor_codes>  (543) 
[]

>  <has_cofactor>  (543) 
False

>  <covalent>  (543) 
True

>  <base_name>  (543) 
7DNC

>  <lig_resn>  (543) 
FHR

>  <lig_resi>  (543) 
201

>  <lig_chain>  (543) 
A

>  <lig_segi>  (543) 
B

>  <lig_alt>  (543) 


>  <polymer_chain>  (543) 
A

>  <single_smiles>  (543) 
O=C[C@H](C[C@@H]1CCNC1=O)NC(=O)[C@H](CC2CCCCC2)NC(=O)c3[nH]c4ccccc4c3

$$$$
FHRP1S1
     RDKit          3D

 11 12  0  0  0  0  0  0  0  0999 V2000
   -8.8010   14.8950  -33.4010 C   0  0  0  0  0  0  0  0  0  0  0  0
   -8.8740   14.1120  -32.4470 O   0  0  0  0  0  0  0  0  0  0  0  0
   -8.1570   16.2030  -33.2710 C   0  0  0  0  0  0  0  0  0  0  0  0
   -7.4890   16.4770  -32.1010 N   0  0  0  0  0  0  0  0  0  0  0  0
   -8.0490   17.2730  -34.1240 C   0  0  0  0  0  0  0  0  0  0  0  0
   -6.9430   17.7290  -32.1870 C   0  0  0  0  0  0  0  0  0  0  0  0
   -7.2790   18.2580  -33.4560 C   0  0  0  0  0  0  0  0  0  0  0  0
   -6.1770   18.4360  -31.2640 C   0  0  0  0  0  0  0  0  0  0  0  0
   -6.8210   19.5470  -33.7830 C   0  0  0  0  0  0  0  0  0  0  0  0
   -5.7460   19.6920  -31.6270 C   0  0  0  0  0  0  0  0  0  0  0  0
   -6.0720   20.2410  -32.8640 C   0  0  0  0  0  0  0  0  0  0  0  0
  2  1  2  0
  1  3  1  0
  3  4  1  0
  3  5  2  0
  6  4  1  0
  5  7  1  0
  7  6  2  0
  8  6  1  0
  7  9  1  0
 10  8  2  0
  9 11  2  0
 11 10  1  0
A    2
 O01
A    3
 C03
A    4
 N11
A    5
 C04
A    6
 C10
A    7
 C05
A    8
 C09
A    9
 C06
A   10
 C08
A   11
 C07
M  END
>  <XChem_code>  (544) 
FHR§1

>  <Occupancy>  (544) 
[1.0, 1.0, 1.0, 1.0, 1.0, 1.0, 1.0, 1.0, 1.0, 1.0, 1.0, 1.0, 1.0, 1.0, 1.0, 1.0, 1.0, 1.0, 1.0, 1.0, 1.0, 1.0, 1.0, 1.0, 1.0, 1.0, 1.0, 1.0, 1.0, 1.0, 1.0, 1.0, 1.0, 1.0]

>  <TempFactor>  (544) 
[12.8, 12.28, 12.67, 12.86, 13.41, 14.29, 15.58, 14.39, 13.97, 13.17, 13.23, 12.4, 11.86, 13.21, 13.36, 14.53, 14.53, 16.76, 17.82, 15.62, 11.61, 11.88, 12.06, 12.52, 13.0, 13.86, 15.8, 14.81, 13.31, 13.03, 12.29, 12.97, 13.13, 12.32]

>  <accession>  (544) 
7DNC_A

>  <description>  (544) 
Chain A, 3C protease [Enterovirus A71]

>  <evalue>  (544) 
1.3314799999999999e-69

>  <pdb_code>  (544) 
7DNC

>  <chain>  (544) 
A

>  <ligands>  (544) 
[{'chain_id': 'A', 'author_residue_number': 201, 'author_insertion_code': '', 'chem_comp_id': 'FHR', 'alternate_conformers': 0, 'entity_id': 2, 'struct_asym_id': 'B', 'residue_number': 1, 'chem_comp_name': '~{N}-[(2~{S})-3-cyclohexyl-1-oxidanylidene-1-[[(2~{S})-1-oxidanylidene-3-[(3~{S})-2-oxidanylidenepyrrolidin-3-yl]propan-2-yl]amino]propan-2-yl]-1~{H}-indole-2-carboxamide', 'weight': 452.546, 'carbohydrate_polymer': False, 'branch_name': ''}]

>  <ligand_codes>  (544) 
['FHR']

>  <cofactor_codes>  (544) 
[]

>  <has_cofactor>  (544) 
False

>  <covalent>  (544) 
True

>  <base_name>  (544) 
7DNC

>  <lig_resn>  (544) 
FHR

>  <lig_resi>  (544) 
201

>  <lig_chain>  (544) 
A

>  <lig_segi>  (544) 
B

>  <lig_alt>  (544) 


>  <polymer_chain>  (544) 
A

>  <single_smiles>  (544) 
O=C[C@H](C[C@@H]1CCNC1=O)NC(=O)[C@H](CC2CCCCC2)NC(=O)c3[nH]c4ccccc4c3

$$$$
FHRP1S2
     RDKit          3D

 23 24  0  0  0  0  0  0  0  0999 V2000
   -9.2450   14.5580  -34.6270 N   0  0  0  0  0  0  0  0  0  0  0  0
   -9.7320   13.2190  -34.8780 C   0  0  1  0  0  0  0  0  0  0  0  0
  -10.3440   13.1100  -36.2770 C   0  0  0  0  0  0  0  0  0  0  0  0
   -8.5900   12.2250  -34.7110 C   0  0  0  0  0  0  0  0  0  0  0  0
  -11.6180   13.9040  -36.4220 C   0  0  0  0  0  0  0  0  0  0  0  0
   -8.9070   11.0690  -34.1230 N   0  0  0  0  0  0  0  0  0  0  0  0
   -7.4610   12.4990  -35.1080 O   0  0  0  0  0  0  0  0  0  0  0  0
  -12.7470   13.5850  -35.6890 C   0  0  0  0  0  0  0  0  0  0  0  0
  -11.6930   14.9670  -37.3080 C   0  0  0  0  0  0  0  0  0  0  0  0
   -7.9330   10.0300  -33.8370 C   0  0  2  0  0  0  0  0  0  0  0  0
  -13.9180   14.3150  -35.8260 C   0  0  0  0  0  0  0  0  0  0  0  0
  -12.8650   15.6960  -37.4450 C   0  0  0  0  0  0  0  0  0  0  0  0
   -8.3950    8.7250  -34.5150 C   0  0  0  0  0  0  0  0  0  0  0  0
   -7.6710    9.8790  -32.3370 C   0  0  0  0  0  0  0  0  0  0  0  0
  -13.9760   15.3680  -36.7080 C   0  0  0  0  0  0  0  0  0  0  0  0
   -8.2950    8.6890  -35.7580 O   0  0  0  0  0  0  0  0  0  0  0  0
   -9.9400    8.2440  -33.7820 R   0  0  0  0  0  0  0  0  0  0  0  0
   -7.0900   11.1330  -31.6650 C   0  0  2  0  0  0  0  0  0  0  0  0
   -5.7320   11.6370  -32.1410 C   0  0  0  0  0  0  0  0  0  0  0  0
   -6.8730   10.9530  -30.1760 C   0  0  0  0  0  0  0  0  0  0  0  0
   -5.1740   12.3620  -30.9250 C   0  0  0  0  0  0  0  0  0  0  0  0
   -5.7790   11.6220  -29.8190 N   0  0  0  0  0  0  0  0  0  0  0  0
   -7.6010   10.2890  -29.4180 O   0  0  0  0  0  0  0  0  0  0  0  0
  2  1  1  6
  2  3  1  0
  2  4  1  0
  3  5  1  0
  4  6  1  0
  4  7  2  0
  5  8  1  0
  5  9  1  0
  6 10  1  0
  8 11  1  0
 12  9  1  0
 10 13  1  0
 10 14  1  1
 11 15  1  0
 15 12  1  0
 13 16  2  0
 13 17  1  0
 18 14  1  6
 18 19  1  0
 18 20  1  0
 19 21  1  0
 22 20  1  0
 20 23  2  0
 21 22  1  0
V   17 *
A    2
 C13
A    3
 C14
A    4
 C21
A    5
 C15
A    6
 N22
A    7
 O33
A    8
 C16
A    9
 C20
A   10
 C23
A   11
 C17
A   12
 C19
A   13
 C31
A   14
 C24
A   15
 C18
A   16
 O32
A   17
 X  
A   18
 C25
A   19
 C26
A   20
 C29
A   21
 C27
A   22
 N28
A   23
 O30
M  END
>  <XChem_code>  (545) 
FHR§1

>  <Occupancy>  (545) 
[1.0, 1.0, 1.0, 1.0, 1.0, 1.0, 1.0, 1.0, 1.0, 1.0, 1.0, 1.0, 1.0, 1.0, 1.0, 1.0, 1.0, 1.0, 1.0, 1.0, 1.0, 1.0, 1.0, 1.0, 1.0, 1.0, 1.0, 1.0, 1.0, 1.0, 1.0, 1.0, 1.0, 1.0]

>  <TempFactor>  (545) 
[12.8, 12.28, 12.67, 12.86, 13.41, 14.29, 15.58, 14.39, 13.97, 13.17, 13.23, 12.4, 11.86, 13.21, 13.36, 14.53, 14.53, 16.76, 17.82, 15.62, 11.61, 11.88, 12.06, 12.52, 13.0, 13.86, 15.8, 14.81, 13.31, 13.03, 12.29, 12.97, 13.13, 12.32]

>  <accession>  (545) 
7DNC_A

>  <description>  (545) 
Chain A, 3C protease [Enterovirus A71]

>  <evalue>  (545) 
1.3314799999999999e-69

>  <pdb_code>  (545) 
7DNC

>  <chain>  (545) 
A

>  <ligands>  (545) 
[{'chain_id': 'A', 'author_residue_number': 201, 'author_insertion_code': '', 'chem_comp_id': 'FHR', 'alternate_conformers': 0, 'entity_id': 2, 'struct_asym_id': 'B', 'residue_number': 1, 'chem_comp_name': '~{N}-[(2~{S})-3-cyclohexyl-1-oxidanylidene-1-[[(2~{S})-1-oxidanylidene-3-[(3~{S})-2-oxidanylidenepyrrolidin-3-yl]propan-2-yl]amino]propan-2-yl]-1~{H}-indole-2-carboxamide', 'weight': 452.546, 'carbohydrate_polymer': False, 'branch_name': ''}]

>  <ligand_codes>  (545) 
['FHR']

>  <cofactor_codes>  (545) 
[]

>  <has_cofactor>  (545) 
False

>  <covalent>  (545) 
True

>  <base_name>  (545) 
7DNC

>  <lig_resn>  (545) 
FHR

>  <lig_resi>  (545) 
201

>  <lig_chain>  (545) 
A

>  <lig_segi>  (545) 
B

>  <lig_alt>  (545) 


>  <polymer_chain>  (545) 
A

>  <single_smiles>  (545) 
O=C[C@H](C[C@@H]1CCNC1=O)NC(=O)[C@H](CC2CCCCC2)NC(=O)c3[nH]c4ccccc4c3

$$$$
FHRP1S3
     RDKit          3D

 12 12  0  0  0  0  0  0  0  0999 V2000
   -8.9070   11.0690  -34.1230 N   0  0  0  0  0  0  0  0  0  0  0  0
   -7.9330   10.0300  -33.8370 C   0  0  2  0  0  0  0  0  0  0  0  0
   -8.3950    8.7250  -34.5150 C   0  0  0  0  0  0  0  0  0  0  0  0
   -7.6710    9.8790  -32.3370 C   0  0  0  0  0  0  0  0  0  0  0  0
   -8.2950    8.6890  -35.7580 O   0  0  0  0  0  0  0  0  0  0  0  0
   -9.9400    8.2440  -33.7820 R   0  0  0  0  0  0  0  0  0  0  0  0
   -7.0900   11.1330  -31.6650 C   0  0  2  0  0  0  0  0  0  0  0  0
   -5.7320   11.6370  -32.1410 C   0  0  0  0  0  0  0  0  0  0  0  0
   -6.8730   10.9530  -30.1760 C   0  0  0  0  0  0  0  0  0  0  0  0
   -5.1740   12.3620  -30.9250 C   0  0  0  0  0  0  0  0  0  0  0  0
   -5.7790   11.6220  -29.8190 N   0  0  0  0  0  0  0  0  0  0  0  0
   -7.6010   10.2890  -29.4180 O   0  0  0  0  0  0  0  0  0  0  0  0
  2  1  1  1
  2  3  1  0
  2  4  1  0
  3  5  2  0
  3  6  1  0
  7  4  1  6
  7  8  1  0
  7  9  1  0
  8 10  1  0
 11  9  1  0
  9 12  2  0
 10 11  1  0
V    6 *
A    2
 C23
A    3
 C31
A    4
 C24
A    5
 O32
A    6
 X  
A    7
 C25
A    8
 C26
A    9
 C29
A   10
 C27
A   11
 N28
A   12
 O30
M  END
>  <XChem_code>  (546) 
FHR§1

>  <Occupancy>  (546) 
[1.0, 1.0, 1.0, 1.0, 1.0, 1.0, 1.0, 1.0, 1.0, 1.0, 1.0, 1.0, 1.0, 1.0, 1.0, 1.0, 1.0, 1.0, 1.0, 1.0, 1.0, 1.0, 1.0, 1.0, 1.0, 1.0, 1.0, 1.0, 1.0, 1.0, 1.0, 1.0, 1.0, 1.0]

>  <TempFactor>  (546) 
[12.8, 12.28, 12.67, 12.86, 13.41, 14.29, 15.58, 14.39, 13.97, 13.17, 13.23, 12.4, 11.86, 13.21, 13.36, 14.53, 14.53, 16.76, 17.82, 15.62, 11.61, 11.88, 12.06, 12.52, 13.0, 13.86, 15.8, 14.81, 13.31, 13.03, 12.29, 12.97, 13.13, 12.32]

>  <accession>  (546) 
7DNC_A

>  <description>  (546) 
Chain A, 3C protease [Enterovirus A71]

>  <evalue>  (546) 
1.3314799999999999e-69

>  <pdb_code>  (546) 
7DNC

>  <chain>  (546) 
A

>  <ligands>  (546) 
[{'chain_id': 'A', 'author_residue_number': 201, 'author_insertion_code': '', 'chem_comp_id': 'FHR', 'alternate_conformers': 0, 'entity_id': 2, 'struct_asym_id': 'B', 'residue_number': 1, 'chem_comp_name': '~{N}-[(2~{S})-3-cyclohexyl-1-oxidanylidene-1-[[(2~{S})-1-oxidanylidene-3-[(3~{S})-2-oxidanylidenepyrrolidin-3-yl]propan-2-yl]amino]propan-2-yl]-1~{H}-indole-2-carboxamide', 'weight': 452.546, 'carbohydrate_polymer': False, 'branch_name': ''}]

>  <ligand_codes>  (546) 
['FHR']

>  <cofactor_codes>  (546) 
[]

>  <has_cofactor>  (546) 
False

>  <covalent>  (546) 
True

>  <base_name>  (546) 
7DNC

>  <lig_resn>  (546) 
FHR

>  <lig_resi>  (546) 
201

>  <lig_chain>  (546) 
A

>  <lig_segi>  (546) 
B

>  <lig_alt>  (546) 


>  <polymer_chain>  (546) 
A

>  <single_smiles>  (546) 
O=C[C@H](C[C@@H]1CCNC1=O)NC(=O)[C@H](CC2CCCCC2)NC(=O)c3[nH]c4ccccc4c3

$$$$
FHRP1S4
     RDKit          3D

 22 24  0  0  0  0  0  0  0  0999 V2000
   -8.5900   12.2250  -34.7110 C   0  0  0  0  0  0  0  0  0  0  0  0
   -9.7320   13.2190  -34.8780 C   0  0  1  0  0  0  0  0  0  0  0  0
   -7.4610   12.4990  -35.1080 O   0  0  0  0  0  0  0  0  0  0  0  0
   -9.2450   14.5580  -34.6270 N   0  0  0  0  0  0  0  0  0  0  0  0
  -10.3440   13.1100  -36.2770 C   0  0  0  0  0  0  0  0  0  0  0  0
   -8.8010   14.8950  -33.4010 C   0  0  0  0  0  0  0  0  0  0  0  0
  -11.6180   13.9040  -36.4220 C   0  0  0  0  0  0  0  0  0  0  0  0
   -8.8740   14.1120  -32.4470 O   0  0  0  0  0  0  0  0  0  0  0  0
   -8.1570   16.2030  -33.2710 C   0  0  0  0  0  0  0  0  0  0  0  0
  -12.7470   13.5850  -35.6890 C   0  0  0  0  0  0  0  0  0  0  0  0
  -11.6930   14.9670  -37.3080 C   0  0  0  0  0  0  0  0  0  0  0  0
   -7.4890   16.4770  -32.1010 N   0  0  0  0  0  0  0  0  0  0  0  0
   -8.0490   17.2730  -34.1240 C   0  0  0  0  0  0  0  0  0  0  0  0
  -13.9180   14.3150  -35.8260 C   0  0  0  0  0  0  0  0  0  0  0  0
  -12.8650   15.6960  -37.4450 C   0  0  0  0  0  0  0  0  0  0  0  0
   -6.9430   17.7290  -32.1870 C   0  0  0  0  0  0  0  0  0  0  0  0
   -7.2790   18.2580  -33.4560 C   0  0  0  0  0  0  0  0  0  0  0  0
  -13.9760   15.3680  -36.7080 C   0  0  0  0  0  0  0  0  0  0  0  0
   -6.1770   18.4360  -31.2640 C   0  0  0  0  0  0  0  0  0  0  0  0
   -6.8210   19.5470  -33.7830 C   0  0  0  0  0  0  0  0  0  0  0  0
   -5.7460   19.6920  -31.6270 C   0  0  0  0  0  0  0  0  0  0  0  0
   -6.0720   20.2410  -32.8640 C   0  0  0  0  0  0  0  0  0  0  0  0
  2  1  1  0
  1  3  2  0
  4  2  1  0
  2  5  1  6
  6  4  1  0
  5  7  1  0
  8  6  2  0
  6  9  1  0
  7 10  1  0
  7 11  1  0
  9 12  1  0
  9 13  2  0
 10 14  1  0
 15 11  1  0
 16 12  1  0
 13 17  1  0
 14 18  1  0
 18 15  1  0
 17 16  2  0
 19 16  1  0
 17 20  1  0
 21 19  2  0
 20 22  2  0
 22 21  1  0
A    2
 C13
A    3
 O33
A    4
 N12
A    5
 C14
A    6
 C02
A    7
 C15
A    8
 O01
A    9
 C03
A   10
 C16
A   11
 C20
A   12
 N11
A   13
 C04
A   14
 C17
A   15
 C19
A   16
 C10
A   17
 C05
A   18
 C18
A   19
 C09
A   20
 C06
A   21
 C08
A   22
 C07
M  END
>  <XChem_code>  (547) 
FHR§1

>  <Occupancy>  (547) 
[1.0, 1.0, 1.0, 1.0, 1.0, 1.0, 1.0, 1.0, 1.0, 1.0, 1.0, 1.0, 1.0, 1.0, 1.0, 1.0, 1.0, 1.0, 1.0, 1.0, 1.0, 1.0, 1.0, 1.0, 1.0, 1.0, 1.0, 1.0, 1.0, 1.0, 1.0, 1.0, 1.0, 1.0]

>  <TempFactor>  (547) 
[12.8, 12.28, 12.67, 12.86, 13.41, 14.29, 15.58, 14.39, 13.97, 13.17, 13.23, 12.4, 11.86, 13.21, 13.36, 14.53, 14.53, 16.76, 17.82, 15.62, 11.61, 11.88, 12.06, 12.52, 13.0, 13.86, 15.8, 14.81, 13.31, 13.03, 12.29, 12.97, 13.13, 12.32]

>  <accession>  (547) 
7DNC_A

>  <description>  (547) 
Chain A, 3C protease [Enterovirus A71]

>  <evalue>  (547) 
1.3314799999999999e-69

>  <pdb_code>  (547) 
7DNC

>  <chain>  (547) 
A

>  <ligands>  (547) 
[{'chain_id': 'A', 'author_residue_number': 201, 'author_insertion_code': '', 'chem_comp_id': 'FHR', 'alternate_conformers': 0, 'entity_id': 2, 'struct_asym_id': 'B', 'residue_number': 1, 'chem_comp_name': '~{N}-[(2~{S})-3-cyclohexyl-1-oxidanylidene-1-[[(2~{S})-1-oxidanylidene-3-[(3~{S})-2-oxidanylidenepyrrolidin-3-yl]propan-2-yl]amino]propan-2-yl]-1~{H}-indole-2-carboxamide', 'weight': 452.546, 'carbohydrate_polymer': False, 'branch_name': ''}]

>  <ligand_codes>  (547) 
['FHR']

>  <cofactor_codes>  (547) 
[]

>  <has_cofactor>  (547) 
False

>  <covalent>  (547) 
True

>  <base_name>  (547) 
7DNC

>  <lig_resn>  (547) 
FHR

>  <lig_resi>  (547) 
201

>  <lig_chain>  (547) 
A

>  <lig_segi>  (547) 
B

>  <lig_alt>  (547) 


>  <polymer_chain>  (547) 
A

>  <single_smiles>  (547) 
O=C[C@H](C[C@@H]1CCNC1=O)NC(=O)[C@H](CC2CCCCC2)NC(=O)c3[nH]c4ccccc4c3

$$$$
FHRP1S5
     RDKit          3D

 11 11  0  0  0  0  0  0  0  0999 V2000
   -8.5900   12.2250  -34.7110 C   0  0  0  0  0  0  0  0  0  0  0  0
   -9.7320   13.2190  -34.8780 C   0  0  1  0  0  0  0  0  0  0  0  0
   -7.4610   12.4990  -35.1080 O   0  0  0  0  0  0  0  0  0  0  0  0
   -9.2450   14.5580  -34.6270 N   0  0  0  0  0  0  0  0  0  0  0  0
  -10.3440   13.1100  -36.2770 C   0  0  0  0  0  0  0  0  0  0  0  0
  -11.6180   13.9040  -36.4220 C   0  0  0  0  0  0  0  0  0  0  0  0
  -12.7470   13.5850  -35.6890 C   0  0  0  0  0  0  0  0  0  0  0  0
  -11.6930   14.9670  -37.3080 C   0  0  0  0  0  0  0  0  0  0  0  0
  -13.9180   14.3150  -35.8260 C   0  0  0  0  0  0  0  0  0  0  0  0
  -12.8650   15.6960  -37.4450 C   0  0  0  0  0  0  0  0  0  0  0  0
  -13.9760   15.3680  -36.7080 C   0  0  0  0  0  0  0  0  0  0  0  0
  2  1  1  0
  1  3  2  0
  2  4  1  6
  2  5  1  0
  5  6  1  0
  6  7  1  0
  6  8  1  0
  7  9  1  0
 10  8  1  0
  9 11  1  0
 11 10  1  0
A    2
 C13
A    3
 O33
A    5
 C14
A    6
 C15
A    7
 C16
A    8
 C20
A    9
 C17
A   10
 C19
A   11
 C18
M  END
>  <XChem_code>  (548) 
FHR§1

>  <Occupancy>  (548) 
[1.0, 1.0, 1.0, 1.0, 1.0, 1.0, 1.0, 1.0, 1.0, 1.0, 1.0, 1.0, 1.0, 1.0, 1.0, 1.0, 1.0, 1.0, 1.0, 1.0, 1.0, 1.0, 1.0, 1.0, 1.0, 1.0, 1.0, 1.0, 1.0, 1.0, 1.0, 1.0, 1.0, 1.0]

>  <TempFactor>  (548) 
[12.8, 12.28, 12.67, 12.86, 13.41, 14.29, 15.58, 14.39, 13.97, 13.17, 13.23, 12.4, 11.86, 13.21, 13.36, 14.53, 14.53, 16.76, 17.82, 15.62, 11.61, 11.88, 12.06, 12.52, 13.0, 13.86, 15.8, 14.81, 13.31, 13.03, 12.29, 12.97, 13.13, 12.32]

>  <accession>  (548) 
7DNC_A

>  <description>  (548) 
Chain A, 3C protease [Enterovirus A71]

>  <evalue>  (548) 
1.3314799999999999e-69

>  <pdb_code>  (548) 
7DNC

>  <chain>  (548) 
A

>  <ligands>  (548) 
[{'chain_id': 'A', 'author_residue_number': 201, 'author_insertion_code': '', 'chem_comp_id': 'FHR', 'alternate_conformers': 0, 'entity_id': 2, 'struct_asym_id': 'B', 'residue_number': 1, 'chem_comp_name': '~{N}-[(2~{S})-3-cyclohexyl-1-oxidanylidene-1-[[(2~{S})-1-oxidanylidene-3-[(3~{S})-2-oxidanylidenepyrrolidin-3-yl]propan-2-yl]amino]propan-2-yl]-1~{H}-indole-2-carboxamide', 'weight': 452.546, 'carbohydrate_polymer': False, 'branch_name': ''}]

>  <ligand_codes>  (548) 
['FHR']

>  <cofactor_codes>  (548) 
[]

>  <has_cofactor>  (548) 
False

>  <covalent>  (548) 
True

>  <base_name>  (548) 
7DNC

>  <lig_resn>  (548) 
FHR

>  <lig_resi>  (548) 
201

>  <lig_chain>  (548) 
A

>  <lig_segi>  (548) 
B

>  <lig_alt>  (548) 


>  <polymer_chain>  (548) 
A

>  <single_smiles>  (548) 
O=C[C@H](C[C@@H]1CCNC1=O)NC(=O)[C@H](CC2CCCCC2)NC(=O)c3[nH]c4ccccc4c3

$$$$
FHRP1S6
     RDKit          3D

 12 13  0  0  0  0  0  0  0  0999 V2000
   -9.2450   14.5580  -34.6270 N   0  0  0  0  0  0  0  0  0  0  0  0
   -8.8010   14.8950  -33.4010 C   0  0  0  0  0  0  0  0  0  0  0  0
   -8.8740   14.1120  -32.4470 O   0  0  0  0  0  0  0  0  0  0  0  0
   -8.1570   16.2030  -33.2710 C   0  0  0  0  0  0  0  0  0  0  0  0
   -7.4890   16.4770  -32.1010 N   0  0  0  0  0  0  0  0  0  0  0  0
   -8.0490   17.2730  -34.1240 C   0  0  0  0  0  0  0  0  0  0  0  0
   -6.9430   17.7290  -32.1870 C   0  0  0  0  0  0  0  0  0  0  0  0
   -7.2790   18.2580  -33.4560 C   0  0  0  0  0  0  0  0  0  0  0  0
   -6.1770   18.4360  -31.2640 C   0  0  0  0  0  0  0  0  0  0  0  0
   -6.8210   19.5470  -33.7830 C   0  0  0  0  0  0  0  0  0  0  0  0
   -5.7460   19.6920  -31.6270 C   0  0  0  0  0  0  0  0  0  0  0  0
   -6.0720   20.2410  -32.8640 C   0  0  0  0  0  0  0  0  0  0  0  0
  2  1  1  0
  3  2  2  0
  2  4  1  0
  4  5  1  0
  4  6  2  0
  7  5  1  0
  6  8  1  0
  8  7  2  0
  9  7  1  0
  8 10  1  0
 11  9  2  0
 10 12  2  0
 12 11  1  0
A    2
 C02
A    3
 O01
A    4
 C03
A    5
 N11
A    6
 C04
A    7
 C10
A    8
 C05
A    9
 C09
A   10
 C06
A   11
 C08
A   12
 C07
M  END
>  <XChem_code>  (549) 
FHR§1

>  <Occupancy>  (549) 
[1.0, 1.0, 1.0, 1.0, 1.0, 1.0, 1.0, 1.0, 1.0, 1.0, 1.0, 1.0, 1.0, 1.0, 1.0, 1.0, 1.0, 1.0, 1.0, 1.0, 1.0, 1.0, 1.0, 1.0, 1.0, 1.0, 1.0, 1.0, 1.0, 1.0, 1.0, 1.0, 1.0, 1.0]

>  <TempFactor>  (549) 
[12.8, 12.28, 12.67, 12.86, 13.41, 14.29, 15.58, 14.39, 13.97, 13.17, 13.23, 12.4, 11.86, 13.21, 13.36, 14.53, 14.53, 16.76, 17.82, 15.62, 11.61, 11.88, 12.06, 12.52, 13.0, 13.86, 15.8, 14.81, 13.31, 13.03, 12.29, 12.97, 13.13, 12.32]

>  <accession>  (549) 
7DNC_A

>  <description>  (549) 
Chain A, 3C protease [Enterovirus A71]

>  <evalue>  (549) 
1.3314799999999999e-69

>  <pdb_code>  (549) 
7DNC

>  <chain>  (549) 
A

>  <ligands>  (549) 
[{'chain_id': 'A', 'author_residue_number': 201, 'author_insertion_code': '', 'chem_comp_id': 'FHR', 'alternate_conformers': 0, 'entity_id': 2, 'struct_asym_id': 'B', 'residue_number': 1, 'chem_comp_name': '~{N}-[(2~{S})-3-cyclohexyl-1-oxidanylidene-1-[[(2~{S})-1-oxidanylidene-3-[(3~{S})-2-oxidanylidenepyrrolidin-3-yl]propan-2-yl]amino]propan-2-yl]-1~{H}-indole-2-carboxamide', 'weight': 452.546, 'carbohydrate_polymer': False, 'branch_name': ''}]

>  <ligand_codes>  (549) 
['FHR']

>  <cofactor_codes>  (549) 
[]

>  <has_cofactor>  (549) 
False

>  <covalent>  (549) 
True

>  <base_name>  (549) 
7DNC

>  <lig_resn>  (549) 
FHR

>  <lig_resi>  (549) 
201

>  <lig_chain>  (549) 
A

>  <lig_segi>  (549) 
B

>  <lig_alt>  (549) 


>  <polymer_chain>  (549) 
A

>  <single_smiles>  (549) 
O=C[C@H](C[C@@H]1CCNC1=O)NC(=O)[C@H](CC2CCCCC2)NC(=O)c3[nH]c4ccccc4c3

$$$$
FHRP1S7
     RDKit          3D

 22 23  0  0  0  0  0  0  0  0999 V2000
   -9.7320   13.2190  -34.8780 C   0  0  0  0  0  0  0  0  0  0  0  0
  -10.3440   13.1100  -36.2770 C   0  0  0  0  0  0  0  0  0  0  0  0
   -8.5900   12.2250  -34.7110 C   0  0  0  0  0  0  0  0  0  0  0  0
  -11.6180   13.9040  -36.4220 C   0  0  0  0  0  0  0  0  0  0  0  0
   -8.9070   11.0690  -34.1230 N   0  0  0  0  0  0  0  0  0  0  0  0
   -7.4610   12.4990  -35.1080 O   0  0  0  0  0  0  0  0  0  0  0  0
  -12.7470   13.5850  -35.6890 C   0  0  0  0  0  0  0  0  0  0  0  0
  -11.6930   14.9670  -37.3080 C   0  0  0  0  0  0  0  0  0  0  0  0
   -7.9330   10.0300  -33.8370 C   0  0  2  0  0  0  0  0  0  0  0  0
  -13.9180   14.3150  -35.8260 C   0  0  0  0  0  0  0  0  0  0  0  0
  -12.8650   15.6960  -37.4450 C   0  0  0  0  0  0  0  0  0  0  0  0
   -8.3950    8.7250  -34.5150 C   0  0  0  0  0  0  0  0  0  0  0  0
   -7.6710    9.8790  -32.3370 C   0  0  0  0  0  0  0  0  0  0  0  0
  -13.9760   15.3680  -36.7080 C   0  0  0  0  0  0  0  0  0  0  0  0
   -8.2950    8.6890  -35.7580 O   0  0  0  0  0  0  0  0  0  0  0  0
   -9.9400    8.2440  -33.7820 R   0  0  0  0  0  0  0  0  0  0  0  0
   -7.0900   11.1330  -31.6650 C   0  0  2  0  0  0  0  0  0  0  0  0
   -5.7320   11.6370  -32.1410 C   0  0  0  0  0  0  0  0  0  0  0  0
   -6.8730   10.9530  -30.1760 C   0  0  0  0  0  0  0  0  0  0  0  0
   -5.1740   12.3620  -30.9250 C   0  0  0  0  0  0  0  0  0  0  0  0
   -5.7790   11.6220  -29.8190 N   0  0  0  0  0  0  0  0  0  0  0  0
   -7.6010   10.2890  -29.4180 O   0  0  0  0  0  0  0  0  0  0  0  0
  1  2  1  6
  1  3  1  0
  2  4  1  0
  3  5  1  0
  3  6  2  0
  4  7  1  0
  4  8  1  0
  5  9  1  0
  7 10  1  0
 11  8  1  0
  9 12  1  0
  9 13  1  1
 10 14  1  0
 14 11  1  0
 12 15  2  0
 12 16  1  0
 17 13  1  6
 17 18  1  0
 17 19  1  0
 18 20  1  0
 21 19  1  0
 19 22  2  0
 20 21  1  0
V   16 *
A    2
 C14
A    3
 C21
A    4
 C15
A    5
 N22
A    6
 O33
A    7
 C16
A    8
 C20
A    9
 C23
A   10
 C17
A   11
 C19
A   12
 C31
A   13
 C24
A   14
 C18
A   15
 O32
A   16
 X  
A   17
 C25
A   18
 C26
A   19
 C29
A   20
 C27
A   21
 N28
A   22
 O30
M  END
>  <XChem_code>  (550) 
FHR§1

>  <Occupancy>  (550) 
[1.0, 1.0, 1.0, 1.0, 1.0, 1.0, 1.0, 1.0, 1.0, 1.0, 1.0, 1.0, 1.0, 1.0, 1.0, 1.0, 1.0, 1.0, 1.0, 1.0, 1.0, 1.0, 1.0, 1.0, 1.0, 1.0, 1.0, 1.0, 1.0, 1.0, 1.0, 1.0, 1.0, 1.0]

>  <TempFactor>  (550) 
[12.8, 12.28, 12.67, 12.86, 13.41, 14.29, 15.58, 14.39, 13.97, 13.17, 13.23, 12.4, 11.86, 13.21, 13.36, 14.53, 14.53, 16.76, 17.82, 15.62, 11.61, 11.88, 12.06, 12.52, 13.0, 13.86, 15.8, 14.81, 13.31, 13.03, 12.29, 12.97, 13.13, 12.32]

>  <accession>  (550) 
7DNC_A

>  <description>  (550) 
Chain A, 3C protease [Enterovirus A71]

>  <evalue>  (550) 
1.3314799999999999e-69

>  <pdb_code>  (550) 
7DNC

>  <chain>  (550) 
A

>  <ligands>  (550) 
[{'chain_id': 'A', 'author_residue_number': 201, 'author_insertion_code': '', 'chem_comp_id': 'FHR', 'alternate_conformers': 0, 'entity_id': 2, 'struct_asym_id': 'B', 'residue_number': 1, 'chem_comp_name': '~{N}-[(2~{S})-3-cyclohexyl-1-oxidanylidene-1-[[(2~{S})-1-oxidanylidene-3-[(3~{S})-2-oxidanylidenepyrrolidin-3-yl]propan-2-yl]amino]propan-2-yl]-1~{H}-indole-2-carboxamide', 'weight': 452.546, 'carbohydrate_polymer': False, 'branch_name': ''}]

>  <ligand_codes>  (550) 
['FHR']

>  <cofactor_codes>  (550) 
[]

>  <has_cofactor>  (550) 
False

>  <covalent>  (550) 
True

>  <base_name>  (550) 
7DNC

>  <lig_resn>  (550) 
FHR

>  <lig_resi>  (550) 
201

>  <lig_chain>  (550) 
A

>  <lig_segi>  (550) 
B

>  <lig_alt>  (550) 


>  <polymer_chain>  (550) 
A

>  <single_smiles>  (550) 
O=C[C@H](C[C@@H]1CCNC1=O)NC(=O)[C@H](CC2CCCCC2)NC(=O)c3[nH]c4ccccc4c3

$$$$
FHRP1S8
     RDKit          3D

 11 11  0  0  0  0  0  0  0  0999 V2000
   -7.9330   10.0300  -33.8370 C   0  0  0  0  0  0  0  0  0  0  0  0
   -8.3950    8.7250  -34.5150 C   0  0  0  0  0  0  0  0  0  0  0  0
   -7.6710    9.8790  -32.3370 C   0  0  0  0  0  0  0  0  0  0  0  0
   -8.2950    8.6890  -35.7580 O   0  0  0  0  0  0  0  0  0  0  0  0
   -9.9400    8.2440  -33.7820 R   0  0  0  0  0  0  0  0  0  0  0  0
   -7.0900   11.1330  -31.6650 C   0  0  2  0  0  0  0  0  0  0  0  0
   -5.7320   11.6370  -32.1410 C   0  0  0  0  0  0  0  0  0  0  0  0
   -6.8730   10.9530  -30.1760 C   0  0  0  0  0  0  0  0  0  0  0  0
   -5.1740   12.3620  -30.9250 C   0  0  0  0  0  0  0  0  0  0  0  0
   -5.7790   11.6220  -29.8190 N   0  0  0  0  0  0  0  0  0  0  0  0
   -7.6010   10.2890  -29.4180 O   0  0  0  0  0  0  0  0  0  0  0  0
  1  2  1  0
  1  3  1  6
  2  4  2  0
  2  5  1  0
  6  3  1  6
  6  7  1  0
  6  8  1  0
  7  9  1  0
 10  8  1  0
  8 11  2  0
  9 10  1  0
V    5 *
A    2
 C31
A    3
 C24
A    4
 O32
A    5
 X  
A    6
 C25
A    7
 C26
A    8
 C29
A    9
 C27
A   10
 N28
A   11
 O30
M  END
>  <XChem_code>  (551) 
FHR§1

>  <Occupancy>  (551) 
[1.0, 1.0, 1.0, 1.0, 1.0, 1.0, 1.0, 1.0, 1.0, 1.0, 1.0, 1.0, 1.0, 1.0, 1.0, 1.0, 1.0, 1.0, 1.0, 1.0, 1.0, 1.0, 1.0, 1.0, 1.0, 1.0, 1.0, 1.0, 1.0, 1.0, 1.0, 1.0, 1.0, 1.0]

>  <TempFactor>  (551) 
[12.8, 12.28, 12.67, 12.86, 13.41, 14.29, 15.58, 14.39, 13.97, 13.17, 13.23, 12.4, 11.86, 13.21, 13.36, 14.53, 14.53, 16.76, 17.82, 15.62, 11.61, 11.88, 12.06, 12.52, 13.0, 13.86, 15.8, 14.81, 13.31, 13.03, 12.29, 12.97, 13.13, 12.32]

>  <accession>  (551) 
7DNC_A

>  <description>  (551) 
Chain A, 3C protease [Enterovirus A71]

>  <evalue>  (551) 
1.3314799999999999e-69

>  <pdb_code>  (551) 
7DNC

>  <chain>  (551) 
A

>  <ligands>  (551) 
[{'chain_id': 'A', 'author_residue_number': 201, 'author_insertion_code': '', 'chem_comp_id': 'FHR', 'alternate_conformers': 0, 'entity_id': 2, 'struct_asym_id': 'B', 'residue_number': 1, 'chem_comp_name': '~{N}-[(2~{S})-3-cyclohexyl-1-oxidanylidene-1-[[(2~{S})-1-oxidanylidene-3-[(3~{S})-2-oxidanylidenepyrrolidin-3-yl]propan-2-yl]amino]propan-2-yl]-1~{H}-indole-2-carboxamide', 'weight': 452.546, 'carbohydrate_polymer': False, 'branch_name': ''}]

>  <ligand_codes>  (551) 
['FHR']

>  <cofactor_codes>  (551) 
[]

>  <has_cofactor>  (551) 
False

>  <covalent>  (551) 
True

>  <base_name>  (551) 
7DNC

>  <lig_resn>  (551) 
FHR

>  <lig_resi>  (551) 
201

>  <lig_chain>  (551) 
A

>  <lig_segi>  (551) 
B

>  <lig_alt>  (551) 


>  <polymer_chain>  (551) 
A

>  <single_smiles>  (551) 
O=C[C@H](C[C@@H]1CCNC1=O)NC(=O)[C@H](CC2CCCCC2)NC(=O)c3[nH]c4ccccc4c3

$$$$
FHRP1S9
     RDKit          3D

 23 25  0  0  0  0  0  0  0  0999 V2000
   -8.9070   11.0690  -34.1230 N   0  0  0  0  0  0  0  0  0  0  0  0
   -8.5900   12.2250  -34.7110 C   0  0  0  0  0  0  0  0  0  0  0  0
   -9.7320   13.2190  -34.8780 C   0  0  1  0  0  0  0  0  0  0  0  0
   -7.4610   12.4990  -35.1080 O   0  0  0  0  0  0  0  0  0  0  0  0
   -9.2450   14.5580  -34.6270 N   0  0  0  0  0  0  0  0  0  0  0  0
  -10.3440   13.1100  -36.2770 C   0  0  0  0  0  0  0  0  0  0  0  0
   -8.8010   14.8950  -33.4010 C   0  0  0  0  0  0  0  0  0  0  0  0
  -11.6180   13.9040  -36.4220 C   0  0  0  0  0  0  0  0  0  0  0  0
   -8.8740   14.1120  -32.4470 O   0  0  0  0  0  0  0  0  0  0  0  0
   -8.1570   16.2030  -33.2710 C   0  0  0  0  0  0  0  0  0  0  0  0
  -12.7470   13.5850  -35.6890 C   0  0  0  0  0  0  0  0  0  0  0  0
  -11.6930   14.9670  -37.3080 C   0  0  0  0  0  0  0  0  0  0  0  0
   -7.4890   16.4770  -32.1010 N   0  0  0  0  0  0  0  0  0  0  0  0
   -8.0490   17.2730  -34.1240 C   0  0  0  0  0  0  0  0  0  0  0  0
  -13.9180   14.3150  -35.8260 C   0  0  0  0  0  0  0  0  0  0  0  0
  -12.8650   15.6960  -37.4450 C   0  0  0  0  0  0  0  0  0  0  0  0
   -6.9430   17.7290  -32.1870 C   0  0  0  0  0  0  0  0  0  0  0  0
   -7.2790   18.2580  -33.4560 C   0  0  0  0  0  0  0  0  0  0  0  0
  -13.9760   15.3680  -36.7080 C   0  0  0  0  0  0  0  0  0  0  0  0
   -6.1770   18.4360  -31.2640 C   0  0  0  0  0  0  0  0  0  0  0  0
   -6.8210   19.5470  -33.7830 C   0  0  0  0  0  0  0  0  0  0  0  0
   -5.7460   19.6920  -31.6270 C   0  0  0  0  0  0  0  0  0  0  0  0
   -6.0720   20.2410  -32.8640 C   0  0  0  0  0  0  0  0  0  0  0  0
  2  1  1  0
  3  2  1  0
  2  4  2  0
  5  3  1  0
  3  6  1  6
  7  5  1  0
  6  8  1  0
  9  7  2  0
  7 10  1  0
  8 11  1  0
  8 12  1  0
 10 13  1  0
 10 14  2  0
 11 15  1  0
 16 12  1  0
 17 13  1  0
 14 18  1  0
 15 19  1  0
 19 16  1  0
 18 17  2  0
 20 17  1  0
 18 21  1  0
 22 20  2  0
 21 23  2  0
 23 22  1  0
A    2
 C21
A    3
 C13
A    4
 O33
A    5
 N12
A    6
 C14
A    7
 C02
A    8
 C15
A    9
 O01
A   10
 C03
A   11
 C16
A   12
 C20
A   13
 N11
A   14
 C04
A   15
 C17
A   16
 C19
A   17
 C10
A   18
 C05
A   19
 C18
A   20
 C09
A   21
 C06
A   22
 C08
A   23
 C07
M  END
>  <XChem_code>  (552) 
FHR§1

>  <Occupancy>  (552) 
[1.0, 1.0, 1.0, 1.0, 1.0, 1.0, 1.0, 1.0, 1.0, 1.0, 1.0, 1.0, 1.0, 1.0, 1.0, 1.0, 1.0, 1.0, 1.0, 1.0, 1.0, 1.0, 1.0, 1.0, 1.0, 1.0, 1.0, 1.0, 1.0, 1.0, 1.0, 1.0, 1.0, 1.0]

>  <TempFactor>  (552) 
[12.8, 12.28, 12.67, 12.86, 13.41, 14.29, 15.58, 14.39, 13.97, 13.17, 13.23, 12.4, 11.86, 13.21, 13.36, 14.53, 14.53, 16.76, 17.82, 15.62, 11.61, 11.88, 12.06, 12.52, 13.0, 13.86, 15.8, 14.81, 13.31, 13.03, 12.29, 12.97, 13.13, 12.32]

>  <accession>  (552) 
7DNC_A

>  <description>  (552) 
Chain A, 3C protease [Enterovirus A71]

>  <evalue>  (552) 
1.3314799999999999e-69

>  <pdb_code>  (552) 
7DNC

>  <chain>  (552) 
A

>  <ligands>  (552) 
[{'chain_id': 'A', 'author_residue_number': 201, 'author_insertion_code': '', 'chem_comp_id': 'FHR', 'alternate_conformers': 0, 'entity_id': 2, 'struct_asym_id': 'B', 'residue_number': 1, 'chem_comp_name': '~{N}-[(2~{S})-3-cyclohexyl-1-oxidanylidene-1-[[(2~{S})-1-oxidanylidene-3-[(3~{S})-2-oxidanylidenepyrrolidin-3-yl]propan-2-yl]amino]propan-2-yl]-1~{H}-indole-2-carboxamide', 'weight': 452.546, 'carbohydrate_polymer': False, 'branch_name': ''}]

>  <ligand_codes>  (552) 
['FHR']

>  <cofactor_codes>  (552) 
[]

>  <has_cofactor>  (552) 
False

>  <covalent>  (552) 
True

>  <base_name>  (552) 
7DNC

>  <lig_resn>  (552) 
FHR

>  <lig_resi>  (552) 
201

>  <lig_chain>  (552) 
A

>  <lig_segi>  (552) 
B

>  <lig_alt>  (552) 


>  <polymer_chain>  (552) 
A

>  <single_smiles>  (552) 
O=C[C@H](C[C@@H]1CCNC1=O)NC(=O)[C@H](CC2CCCCC2)NC(=O)c3[nH]c4ccccc4c3

$$$$
FHRP1S10
     RDKit          3D

 12 12  0  0  0  0  0  0  0  0999 V2000
   -8.9070   11.0690  -34.1230 N   0  0  0  0  0  0  0  0  0  0  0  0
   -8.5900   12.2250  -34.7110 C   0  0  0  0  0  0  0  0  0  0  0  0
   -9.7320   13.2190  -34.8780 C   0  0  1  0  0  0  0  0  0  0  0  0
   -7.4610   12.4990  -35.1080 O   0  0  0  0  0  0  0  0  0  0  0  0
   -9.2450   14.5580  -34.6270 N   0  0  0  0  0  0  0  0  0  0  0  0
  -10.3440   13.1100  -36.2770 C   0  0  0  0  0  0  0  0  0  0  0  0
  -11.6180   13.9040  -36.4220 C   0  0  0  0  0  0  0  0  0  0  0  0
  -12.7470   13.5850  -35.6890 C   0  0  0  0  0  0  0  0  0  0  0  0
  -11.6930   14.9670  -37.3080 C   0  0  0  0  0  0  0  0  0  0  0  0
  -13.9180   14.3150  -35.8260 C   0  0  0  0  0  0  0  0  0  0  0  0
  -12.8650   15.6960  -37.4450 C   0  0  0  0  0  0  0  0  0  0  0  0
  -13.9760   15.3680  -36.7080 C   0  0  0  0  0  0  0  0  0  0  0  0
  2  1  1  0
  3  2  1  0
  2  4  2  0
  3  5  1  6
  3  6  1  0
  6  7  1  0
  7  8  1  0
  7  9  1  0
  8 10  1  0
 11  9  1  0
 10 12  1  0
 12 11  1  0
A    2
 C21
A    3
 C13
A    4
 O33
A    6
 C14
A    7
 C15
A    8
 C16
A    9
 C20
A   10
 C17
A   11
 C19
A   12
 C18
M  END
>  <XChem_code>  (553) 
FHR§1

>  <Occupancy>  (553) 
[1.0, 1.0, 1.0, 1.0, 1.0, 1.0, 1.0, 1.0, 1.0, 1.0, 1.0, 1.0, 1.0, 1.0, 1.0, 1.0, 1.0, 1.0, 1.0, 1.0, 1.0, 1.0, 1.0, 1.0, 1.0, 1.0, 1.0, 1.0, 1.0, 1.0, 1.0, 1.0, 1.0, 1.0]

>  <TempFactor>  (553) 
[12.8, 12.28, 12.67, 12.86, 13.41, 14.29, 15.58, 14.39, 13.97, 13.17, 13.23, 12.4, 11.86, 13.21, 13.36, 14.53, 14.53, 16.76, 17.82, 15.62, 11.61, 11.88, 12.06, 12.52, 13.0, 13.86, 15.8, 14.81, 13.31, 13.03, 12.29, 12.97, 13.13, 12.32]

>  <accession>  (553) 
7DNC_A

>  <description>  (553) 
Chain A, 3C protease [Enterovirus A71]

>  <evalue>  (553) 
1.3314799999999999e-69

>  <pdb_code>  (553) 
7DNC

>  <chain>  (553) 
A

>  <ligands>  (553) 
[{'chain_id': 'A', 'author_residue_number': 201, 'author_insertion_code': '', 'chem_comp_id': 'FHR', 'alternate_conformers': 0, 'entity_id': 2, 'struct_asym_id': 'B', 'residue_number': 1, 'chem_comp_name': '~{N}-[(2~{S})-3-cyclohexyl-1-oxidanylidene-1-[[(2~{S})-1-oxidanylidene-3-[(3~{S})-2-oxidanylidenepyrrolidin-3-yl]propan-2-yl]amino]propan-2-yl]-1~{H}-indole-2-carboxamide', 'weight': 452.546, 'carbohydrate_polymer': False, 'branch_name': ''}]

>  <ligand_codes>  (553) 
['FHR']

>  <cofactor_codes>  (553) 
[]

>  <has_cofactor>  (553) 
False

>  <covalent>  (553) 
True

>  <base_name>  (553) 
7DNC

>  <lig_resn>  (553) 
FHR

>  <lig_resi>  (553) 
201

>  <lig_chain>  (553) 
A

>  <lig_segi>  (553) 
B

>  <lig_alt>  (553) 


>  <polymer_chain>  (553) 
A

>  <single_smiles>  (553) 
O=C[C@H](C[C@@H]1CCNC1=O)NC(=O)[C@H](CC2CCCCC2)NC(=O)c3[nH]c4ccccc4c3

$$$$
FHRP1S11
     RDKit          3D

 10 10  0  0  0  0  0  0  0  0999 V2000
   -9.7320   13.2190  -34.8780 C   0  0  0  0  0  0  0  0  0  0  0  0
   -8.5900   12.2250  -34.7110 C   0  0  0  0  0  0  0  0  0  0  0  0
  -10.3440   13.1100  -36.2770 C   0  0  0  0  0  0  0  0  0  0  0  0
   -7.4610   12.4990  -35.1080 O   0  0  0  0  0  0  0  0  0  0  0  0
  -11.6180   13.9040  -36.4220 C   0  0  0  0  0  0  0  0  0  0  0  0
  -12.7470   13.5850  -35.6890 C   0  0  0  0  0  0  0  0  0  0  0  0
  -11.6930   14.9670  -37.3080 C   0  0  0  0  0  0  0  0  0  0  0  0
  -13.9180   14.3150  -35.8260 C   0  0  0  0  0  0  0  0  0  0  0  0
  -12.8650   15.6960  -37.4450 C   0  0  0  0  0  0  0  0  0  0  0  0
  -13.9760   15.3680  -36.7080 C   0  0  0  0  0  0  0  0  0  0  0  0
  1  2  1  0
  1  3  1  6
  2  4  2  0
  3  5  1  0
  5  6  1  0
  5  7  1  0
  6  8  1  0
  9  7  1  0
  8 10  1  0
 10  9  1  0
A    3
 C14
A    4
 O33
A    5
 C15
A    6
 C16
A    7
 C20
A    8
 C17
A    9
 C19
A   10
 C18
M  END
>  <XChem_code>  (554) 
FHR§1

>  <Occupancy>  (554) 
[1.0, 1.0, 1.0, 1.0, 1.0, 1.0, 1.0, 1.0, 1.0, 1.0, 1.0, 1.0, 1.0, 1.0, 1.0, 1.0, 1.0, 1.0, 1.0, 1.0, 1.0, 1.0, 1.0, 1.0, 1.0, 1.0, 1.0, 1.0, 1.0, 1.0, 1.0, 1.0, 1.0, 1.0]

>  <TempFactor>  (554) 
[12.8, 12.28, 12.67, 12.86, 13.41, 14.29, 15.58, 14.39, 13.97, 13.17, 13.23, 12.4, 11.86, 13.21, 13.36, 14.53, 14.53, 16.76, 17.82, 15.62, 11.61, 11.88, 12.06, 12.52, 13.0, 13.86, 15.8, 14.81, 13.31, 13.03, 12.29, 12.97, 13.13, 12.32]

>  <accession>  (554) 
7DNC_A

>  <description>  (554) 
Chain A, 3C protease [Enterovirus A71]

>  <evalue>  (554) 
1.3314799999999999e-69

>  <pdb_code>  (554) 
7DNC

>  <chain>  (554) 
A

>  <ligands>  (554) 
[{'chain_id': 'A', 'author_residue_number': 201, 'author_insertion_code': '', 'chem_comp_id': 'FHR', 'alternate_conformers': 0, 'entity_id': 2, 'struct_asym_id': 'B', 'residue_number': 1, 'chem_comp_name': '~{N}-[(2~{S})-3-cyclohexyl-1-oxidanylidene-1-[[(2~{S})-1-oxidanylidene-3-[(3~{S})-2-oxidanylidenepyrrolidin-3-yl]propan-2-yl]amino]propan-2-yl]-1~{H}-indole-2-carboxamide', 'weight': 452.546, 'carbohydrate_polymer': False, 'branch_name': ''}]

>  <ligand_codes>  (554) 
['FHR']

>  <cofactor_codes>  (554) 
[]

>  <has_cofactor>  (554) 
False

>  <covalent>  (554) 
True

>  <base_name>  (554) 
7DNC

>  <lig_resn>  (554) 
FHR

>  <lig_resi>  (554) 
201

>  <lig_chain>  (554) 
A

>  <lig_segi>  (554) 
B

>  <lig_alt>  (554) 


>  <polymer_chain>  (554) 
A

>  <single_smiles>  (554) 
O=C[C@H](C[C@@H]1CCNC1=O)NC(=O)[C@H](CC2CCCCC2)NC(=O)c3[nH]c4ccccc4c3

$$$$
FHRP1S12
     RDKit          3D

 11 11  0  0  0  0  0  0  0  0999 V2000
   -8.9070   11.0690  -34.1230 N   0  0  0  0  0  0  0  0  0  0  0  0
   -8.5900   12.2250  -34.7110 C   0  0  0  0  0  0  0  0  0  0  0  0
   -9.7320   13.2190  -34.8780 C   0  0  0  0  0  0  0  0  0  0  0  0
   -7.4610   12.4990  -35.1080 O   0  0  0  0  0  0  0  0  0  0  0  0
  -10.3440   13.1100  -36.2770 C   0  0  0  0  0  0  0  0  0  0  0  0
  -11.6180   13.9040  -36.4220 C   0  0  0  0  0  0  0  0  0  0  0  0
  -12.7470   13.5850  -35.6890 C   0  0  0  0  0  0  0  0  0  0  0  0
  -11.6930   14.9670  -37.3080 C   0  0  0  0  0  0  0  0  0  0  0  0
  -13.9180   14.3150  -35.8260 C   0  0  0  0  0  0  0  0  0  0  0  0
  -12.8650   15.6960  -37.4450 C   0  0  0  0  0  0  0  0  0  0  0  0
  -13.9760   15.3680  -36.7080 C   0  0  0  0  0  0  0  0  0  0  0  0
  2  1  1  0
  3  2  1  0
  2  4  2  0
  3  5  1  6
  5  6  1  0
  6  7  1  0
  6  8  1  0
  7  9  1  0
 10  8  1  0
  9 11  1  0
 11 10  1  0
A    2
 C21
A    4
 O33
A    5
 C14
A    6
 C15
A    7
 C16
A    8
 C20
A    9
 C17
A   10
 C19
A   11
 C18
M  END
>  <XChem_code>  (555) 
FHR§1

>  <Occupancy>  (555) 
[1.0, 1.0, 1.0, 1.0, 1.0, 1.0, 1.0, 1.0, 1.0, 1.0, 1.0, 1.0, 1.0, 1.0, 1.0, 1.0, 1.0, 1.0, 1.0, 1.0, 1.0, 1.0, 1.0, 1.0, 1.0, 1.0, 1.0, 1.0, 1.0, 1.0, 1.0, 1.0, 1.0, 1.0]

>  <TempFactor>  (555) 
[12.8, 12.28, 12.67, 12.86, 13.41, 14.29, 15.58, 14.39, 13.97, 13.17, 13.23, 12.4, 11.86, 13.21, 13.36, 14.53, 14.53, 16.76, 17.82, 15.62, 11.61, 11.88, 12.06, 12.52, 13.0, 13.86, 15.8, 14.81, 13.31, 13.03, 12.29, 12.97, 13.13, 12.32]

>  <accession>  (555) 
7DNC_A

>  <description>  (555) 
Chain A, 3C protease [Enterovirus A71]

>  <evalue>  (555) 
1.3314799999999999e-69

>  <pdb_code>  (555) 
7DNC

>  <chain>  (555) 
A

>  <ligands>  (555) 
[{'chain_id': 'A', 'author_residue_number': 201, 'author_insertion_code': '', 'chem_comp_id': 'FHR', 'alternate_conformers': 0, 'entity_id': 2, 'struct_asym_id': 'B', 'residue_number': 1, 'chem_comp_name': '~{N}-[(2~{S})-3-cyclohexyl-1-oxidanylidene-1-[[(2~{S})-1-oxidanylidene-3-[(3~{S})-2-oxidanylidenepyrrolidin-3-yl]propan-2-yl]amino]propan-2-yl]-1~{H}-indole-2-carboxamide', 'weight': 452.546, 'carbohydrate_polymer': False, 'branch_name': ''}]

>  <ligand_codes>  (555) 
['FHR']

>  <cofactor_codes>  (555) 
[]

>  <has_cofactor>  (555) 
False

>  <covalent>  (555) 
True

>  <base_name>  (555) 
7DNC

>  <lig_resn>  (555) 
FHR

>  <lig_resi>  (555) 
201

>  <lig_chain>  (555) 
A

>  <lig_segi>  (555) 
B

>  <lig_alt>  (555) 


>  <polymer_chain>  (555) 
A

>  <single_smiles>  (555) 
O=C[C@H](C[C@@H]1CCNC1=O)NC(=O)[C@H](CC2CCCCC2)NC(=O)c3[nH]c4ccccc4c3

$$$$
FHRP1S13
     RDKit          3D

  9 10  0  0  0  0  0  0  0  0999 V2000
   -8.1570   16.2030  -33.2710 C   0  0  0  0  0  0  0  0  0  0  0  0
   -7.4890   16.4770  -32.1010 N   0  0  0  0  0  0  0  0  0  0  0  0
   -8.0490   17.2730  -34.1240 C   0  0  0  0  0  0  0  0  0  0  0  0
   -6.9430   17.7290  -32.1870 C   0  0  0  0  0  0  0  0  0  0  0  0
   -7.2790   18.2580  -33.4560 C   0  0  0  0  0  0  0  0  0  0  0  0
   -6.1770   18.4360  -31.2640 C   0  0  0  0  0  0  0  0  0  0  0  0
   -6.8210   19.5470  -33.7830 C   0  0  0  0  0  0  0  0  0  0  0  0
   -5.7460   19.6920  -31.6270 C   0  0  0  0  0  0  0  0  0  0  0  0
   -6.0720   20.2410  -32.8640 C   0  0  0  0  0  0  0  0  0  0  0  0
  1  2  1  0
  1  3  2  0
  4  2  1  0
  3  5  1  0
  5  4  2  0
  6  4  1  0
  5  7  1  0
  8  6  2  0
  7  9  2  0
  9  8  1  0
A    2
 N11
A    3
 C04
A    4
 C10
A    5
 C05
A    6
 C09
A    7
 C06
A    8
 C08
A    9
 C07
M  END
>  <XChem_code>  (556) 
FHR§1

>  <Occupancy>  (556) 
[1.0, 1.0, 1.0, 1.0, 1.0, 1.0, 1.0, 1.0, 1.0, 1.0, 1.0, 1.0, 1.0, 1.0, 1.0, 1.0, 1.0, 1.0, 1.0, 1.0, 1.0, 1.0, 1.0, 1.0, 1.0, 1.0, 1.0, 1.0, 1.0, 1.0, 1.0, 1.0, 1.0, 1.0]

>  <TempFactor>  (556) 
[12.8, 12.28, 12.67, 12.86, 13.41, 14.29, 15.58, 14.39, 13.97, 13.17, 13.23, 12.4, 11.86, 13.21, 13.36, 14.53, 14.53, 16.76, 17.82, 15.62, 11.61, 11.88, 12.06, 12.52, 13.0, 13.86, 15.8, 14.81, 13.31, 13.03, 12.29, 12.97, 13.13, 12.32]

>  <accession>  (556) 
7DNC_A

>  <description>  (556) 
Chain A, 3C protease [Enterovirus A71]

>  <evalue>  (556) 
1.3314799999999999e-69

>  <pdb_code>  (556) 
7DNC

>  <chain>  (556) 
A

>  <ligands>  (556) 
[{'chain_id': 'A', 'author_residue_number': 201, 'author_insertion_code': '', 'chem_comp_id': 'FHR', 'alternate_conformers': 0, 'entity_id': 2, 'struct_asym_id': 'B', 'residue_number': 1, 'chem_comp_name': '~{N}-[(2~{S})-3-cyclohexyl-1-oxidanylidene-1-[[(2~{S})-1-oxidanylidene-3-[(3~{S})-2-oxidanylidenepyrrolidin-3-yl]propan-2-yl]amino]propan-2-yl]-1~{H}-indole-2-carboxamide', 'weight': 452.546, 'carbohydrate_polymer': False, 'branch_name': ''}]

>  <ligand_codes>  (556) 
['FHR']

>  <cofactor_codes>  (556) 
[]

>  <has_cofactor>  (556) 
False

>  <covalent>  (556) 
True

>  <base_name>  (556) 
7DNC

>  <lig_resn>  (556) 
FHR

>  <lig_resi>  (556) 
201

>  <lig_chain>  (556) 
A

>  <lig_segi>  (556) 
B

>  <lig_alt>  (556) 


>  <polymer_chain>  (556) 
A

>  <single_smiles>  (556) 
O=C[C@H](C[C@@H]1CCNC1=O)NC(=O)[C@H](CC2CCCCC2)NC(=O)c3[nH]c4ccccc4c3

$$$$
FHRP1S14
     RDKit          3D

 25 26  0  0  0  0  0  0  0  0999 V2000
   -8.8010   14.8950  -33.4010 C   0  0  0  0  0  0  0  0  0  0  0  0
   -8.8740   14.1120  -32.4470 O   0  0  0  0  0  0  0  0  0  0  0  0
   -9.2450   14.5580  -34.6270 N   0  0  0  0  0  0  0  0  0  0  0  0
   -9.7320   13.2190  -34.8780 C   0  0  1  0  0  0  0  0  0  0  0  0
  -10.3440   13.1100  -36.2770 C   0  0  0  0  0  0  0  0  0  0  0  0
   -8.5900   12.2250  -34.7110 C   0  0  0  0  0  0  0  0  0  0  0  0
  -11.6180   13.9040  -36.4220 C   0  0  0  0  0  0  0  0  0  0  0  0
   -8.9070   11.0690  -34.1230 N   0  0  0  0  0  0  0  0  0  0  0  0
   -7.4610   12.4990  -35.1080 O   0  0  0  0  0  0  0  0  0  0  0  0
  -12.7470   13.5850  -35.6890 C   0  0  0  0  0  0  0  0  0  0  0  0
  -11.6930   14.9670  -37.3080 C   0  0  0  0  0  0  0  0  0  0  0  0
   -7.9330   10.0300  -33.8370 C   0  0  2  0  0  0  0  0  0  0  0  0
  -13.9180   14.3150  -35.8260 C   0  0  0  0  0  0  0  0  0  0  0  0
  -12.8650   15.6960  -37.4450 C   0  0  0  0  0  0  0  0  0  0  0  0
   -8.3950    8.7250  -34.5150 C   0  0  0  0  0  0  0  0  0  0  0  0
   -7.6710    9.8790  -32.3370 C   0  0  0  0  0  0  0  0  0  0  0  0
  -13.9760   15.3680  -36.7080 C   0  0  0  0  0  0  0  0  0  0  0  0
   -8.2950    8.6890  -35.7580 O   0  0  0  0  0  0  0  0  0  0  0  0
   -9.9400    8.2440  -33.7820 R   0  0  0  0  0  0  0  0  0  0  0  0
   -7.0900   11.1330  -31.6650 C   0  0  2  0  0  0  0  0  0  0  0  0
   -5.7320   11.6370  -32.1410 C   0  0  0  0  0  0  0  0  0  0  0  0
   -6.8730   10.9530  -30.1760 C   0  0  0  0  0  0  0  0  0  0  0  0
   -5.1740   12.3620  -30.9250 C   0  0  0  0  0  0  0  0  0  0  0  0
   -5.7790   11.6220  -29.8190 N   0  0  0  0  0  0  0  0  0  0  0  0
   -7.6010   10.2890  -29.4180 O   0  0  0  0  0  0  0  0  0  0  0  0
  2  1  2  0
  1  3  1  0
  3  4  1  0
  4  5  1  6
  4  6  1  0
  5  7  1  0
  6  8  1  0
  6  9  2  0
  7 10  1  0
  7 11  1  0
  8 12  1  0
 10 13  1  0
 14 11  1  0
 12 15  1  0
 12 16  1  1
 13 17  1  0
 17 14  1  0
 15 18  2  0
 15 19  1  0
 20 16  1  6
 20 21  1  0
 20 22  1  0
 21 23  1  0
 24 22  1  0
 22 25  2  0
 23 24  1  0
V   19 *
A    2
 O01
A    3
 N12
A    4
 C13
A    5
 C14
A    6
 C21
A    7
 C15
A    8
 N22
A    9
 O33
A   10
 C16
A   11
 C20
A   12
 C23
A   13
 C17
A   14
 C19
A   15
 C31
A   16
 C24
A   17
 C18
A   18
 O32
A   19
 X  
A   20
 C25
A   21
 C26
A   22
 C29
A   23
 C27
A   24
 N28
A   25
 O30
M  END
>  <XChem_code>  (557) 
FHR§1

>  <Occupancy>  (557) 
[1.0, 1.0, 1.0, 1.0, 1.0, 1.0, 1.0, 1.0, 1.0, 1.0, 1.0, 1.0, 1.0, 1.0, 1.0, 1.0, 1.0, 1.0, 1.0, 1.0, 1.0, 1.0, 1.0, 1.0, 1.0, 1.0, 1.0, 1.0, 1.0, 1.0, 1.0, 1.0, 1.0, 1.0]

>  <TempFactor>  (557) 
[12.8, 12.28, 12.67, 12.86, 13.41, 14.29, 15.58, 14.39, 13.97, 13.17, 13.23, 12.4, 11.86, 13.21, 13.36, 14.53, 14.53, 16.76, 17.82, 15.62, 11.61, 11.88, 12.06, 12.52, 13.0, 13.86, 15.8, 14.81, 13.31, 13.03, 12.29, 12.97, 13.13, 12.32]

>  <accession>  (557) 
7DNC_A

>  <description>  (557) 
Chain A, 3C protease [Enterovirus A71]

>  <evalue>  (557) 
1.3314799999999999e-69

>  <pdb_code>  (557) 
7DNC

>  <chain>  (557) 
A

>  <ligands>  (557) 
[{'chain_id': 'A', 'author_residue_number': 201, 'author_insertion_code': '', 'chem_comp_id': 'FHR', 'alternate_conformers': 0, 'entity_id': 2, 'struct_asym_id': 'B', 'residue_number': 1, 'chem_comp_name': '~{N}-[(2~{S})-3-cyclohexyl-1-oxidanylidene-1-[[(2~{S})-1-oxidanylidene-3-[(3~{S})-2-oxidanylidenepyrrolidin-3-yl]propan-2-yl]amino]propan-2-yl]-1~{H}-indole-2-carboxamide', 'weight': 452.546, 'carbohydrate_polymer': False, 'branch_name': ''}]

>  <ligand_codes>  (557) 
['FHR']

>  <cofactor_codes>  (557) 
[]

>  <has_cofactor>  (557) 
False

>  <covalent>  (557) 
True

>  <base_name>  (557) 
7DNC

>  <lig_resn>  (557) 
FHR

>  <lig_resi>  (557) 
201

>  <lig_chain>  (557) 
A

>  <lig_segi>  (557) 
B

>  <lig_alt>  (557) 


>  <polymer_chain>  (557) 
A

>  <single_smiles>  (557) 
O=C[C@H](C[C@@H]1CCNC1=O)NC(=O)[C@H](CC2CCCCC2)NC(=O)c3[nH]c4ccccc4c3

$$$$
FHRP1S15
     RDKit          3D

 13 13  0  0  0  0  0  0  0  0999 V2000
   -8.8010   14.8950  -33.4010 C   0  0  0  0  0  0  0  0  0  0  0  0
   -9.2450   14.5580  -34.6270 N   0  0  0  0  0  0  0  0  0  0  0  0
   -8.8740   14.1120  -32.4470 O   0  0  0  0  0  0  0  0  0  0  0  0
   -9.7320   13.2190  -34.8780 C   0  0  2  0  0  0  0  0  0  0  0  0
   -8.5900   12.2250  -34.7110 C   0  0  0  0  0  0  0  0  0  0  0  0
  -10.3440   13.1100  -36.2770 C   0  0  0  0  0  0  0  0  0  0  0  0
   -7.4610   12.4990  -35.1080 O   0  0  0  0  0  0  0  0  0  0  0  0
  -11.6180   13.9040  -36.4220 C   0  0  0  0  0  0  0  0  0  0  0  0
  -12.7470   13.5850  -35.6890 C   0  0  0  0  0  0  0  0  0  0  0  0
  -11.6930   14.9670  -37.3080 C   0  0  0  0  0  0  0  0  0  0  0  0
  -13.9180   14.3150  -35.8260 C   0  0  0  0  0  0  0  0  0  0  0  0
  -12.8650   15.6960  -37.4450 C   0  0  0  0  0  0  0  0  0  0  0  0
  -13.9760   15.3680  -36.7080 C   0  0  0  0  0  0  0  0  0  0  0  0
  1  2  1  0
  3  1  2  0
  2  4  1  0
  4  5  1  0
  4  6  1  6
  5  7  2  0
  6  8  1  0
  8  9  1  0
  8 10  1  0
  9 11  1  0
 12 10  1  0
 11 13  1  0
 13 12  1  0
A    2
 N12
A    3
 O01
A    4
 C13
A    6
 C14
A    7
 O33
A    8
 C15
A    9
 C16
A   10
 C20
A   11
 C17
A   12
 C19
A   13
 C18
M  END
>  <XChem_code>  (558) 
FHR§1

>  <Occupancy>  (558) 
[1.0, 1.0, 1.0, 1.0, 1.0, 1.0, 1.0, 1.0, 1.0, 1.0, 1.0, 1.0, 1.0, 1.0, 1.0, 1.0, 1.0, 1.0, 1.0, 1.0, 1.0, 1.0, 1.0, 1.0, 1.0, 1.0, 1.0, 1.0, 1.0, 1.0, 1.0, 1.0, 1.0, 1.0]

>  <TempFactor>  (558) 
[12.8, 12.28, 12.67, 12.86, 13.41, 14.29, 15.58, 14.39, 13.97, 13.17, 13.23, 12.4, 11.86, 13.21, 13.36, 14.53, 14.53, 16.76, 17.82, 15.62, 11.61, 11.88, 12.06, 12.52, 13.0, 13.86, 15.8, 14.81, 13.31, 13.03, 12.29, 12.97, 13.13, 12.32]

>  <accession>  (558) 
7DNC_A

>  <description>  (558) 
Chain A, 3C protease [Enterovirus A71]

>  <evalue>  (558) 
1.3314799999999999e-69

>  <pdb_code>  (558) 
7DNC

>  <chain>  (558) 
A

>  <ligands>  (558) 
[{'chain_id': 'A', 'author_residue_number': 201, 'author_insertion_code': '', 'chem_comp_id': 'FHR', 'alternate_conformers': 0, 'entity_id': 2, 'struct_asym_id': 'B', 'residue_number': 1, 'chem_comp_name': '~{N}-[(2~{S})-3-cyclohexyl-1-oxidanylidene-1-[[(2~{S})-1-oxidanylidene-3-[(3~{S})-2-oxidanylidenepyrrolidin-3-yl]propan-2-yl]amino]propan-2-yl]-1~{H}-indole-2-carboxamide', 'weight': 452.546, 'carbohydrate_polymer': False, 'branch_name': ''}]

>  <ligand_codes>  (558) 
['FHR']

>  <cofactor_codes>  (558) 
[]

>  <has_cofactor>  (558) 
False

>  <covalent>  (558) 
True

>  <base_name>  (558) 
7DNC

>  <lig_resn>  (558) 
FHR

>  <lig_resi>  (558) 
201

>  <lig_chain>  (558) 
A

>  <lig_segi>  (558) 
B

>  <lig_alt>  (558) 


>  <polymer_chain>  (558) 
A

>  <single_smiles>  (558) 
O=C[C@H](C[C@@H]1CCNC1=O)NC(=O)[C@H](CC2CCCCC2)NC(=O)c3[nH]c4ccccc4c3

$$$$
FHRP1S16
     RDKit          3D

 14 14  0  0  0  0  0  0  0  0999 V2000
   -8.8010   14.8950  -33.4010 C   0  0  0  0  0  0  0  0  0  0  0  0
   -9.2450   14.5580  -34.6270 N   0  0  0  0  0  0  0  0  0  0  0  0
   -8.8740   14.1120  -32.4470 O   0  0  0  0  0  0  0  0  0  0  0  0
   -9.7320   13.2190  -34.8780 C   0  0  2  0  0  0  0  0  0  0  0  0
   -8.5900   12.2250  -34.7110 C   0  0  0  0  0  0  0  0  0  0  0  0
  -10.3440   13.1100  -36.2770 C   0  0  0  0  0  0  0  0  0  0  0  0
   -8.9070   11.0690  -34.1230 N   0  0  0  0  0  0  0  0  0  0  0  0
   -7.4610   12.4990  -35.1080 O   0  0  0  0  0  0  0  0  0  0  0  0
  -11.6180   13.9040  -36.4220 C   0  0  0  0  0  0  0  0  0  0  0  0
  -12.7470   13.5850  -35.6890 C   0  0  0  0  0  0  0  0  0  0  0  0
  -11.6930   14.9670  -37.3080 C   0  0  0  0  0  0  0  0  0  0  0  0
  -13.9180   14.3150  -35.8260 C   0  0  0  0  0  0  0  0  0  0  0  0
  -12.8650   15.6960  -37.4450 C   0  0  0  0  0  0  0  0  0  0  0  0
  -13.9760   15.3680  -36.7080 C   0  0  0  0  0  0  0  0  0  0  0  0
  1  2  1  0
  3  1  2  0
  2  4  1  0
  4  5  1  0
  4  6  1  6
  5  7  1  0
  5  8  2  0
  6  9  1  0
  9 10  1  0
  9 11  1  0
 10 12  1  0
 13 11  1  0
 12 14  1  0
 14 13  1  0
A    2
 N12
A    3
 O01
A    4
 C13
A    5
 C21
A    6
 C14
A    8
 O33
A    9
 C15
A   10
 C16
A   11
 C20
A   12
 C17
A   13
 C19
A   14
 C18
M  END
>  <XChem_code>  (559) 
FHR§1

>  <Occupancy>  (559) 
[1.0, 1.0, 1.0, 1.0, 1.0, 1.0, 1.0, 1.0, 1.0, 1.0, 1.0, 1.0, 1.0, 1.0, 1.0, 1.0, 1.0, 1.0, 1.0, 1.0, 1.0, 1.0, 1.0, 1.0, 1.0, 1.0, 1.0, 1.0, 1.0, 1.0, 1.0, 1.0, 1.0, 1.0]

>  <TempFactor>  (559) 
[12.8, 12.28, 12.67, 12.86, 13.41, 14.29, 15.58, 14.39, 13.97, 13.17, 13.23, 12.4, 11.86, 13.21, 13.36, 14.53, 14.53, 16.76, 17.82, 15.62, 11.61, 11.88, 12.06, 12.52, 13.0, 13.86, 15.8, 14.81, 13.31, 13.03, 12.29, 12.97, 13.13, 12.32]

>  <accession>  (559) 
7DNC_A

>  <description>  (559) 
Chain A, 3C protease [Enterovirus A71]

>  <evalue>  (559) 
1.3314799999999999e-69

>  <pdb_code>  (559) 
7DNC

>  <chain>  (559) 
A

>  <ligands>  (559) 
[{'chain_id': 'A', 'author_residue_number': 201, 'author_insertion_code': '', 'chem_comp_id': 'FHR', 'alternate_conformers': 0, 'entity_id': 2, 'struct_asym_id': 'B', 'residue_number': 1, 'chem_comp_name': '~{N}-[(2~{S})-3-cyclohexyl-1-oxidanylidene-1-[[(2~{S})-1-oxidanylidene-3-[(3~{S})-2-oxidanylidenepyrrolidin-3-yl]propan-2-yl]amino]propan-2-yl]-1~{H}-indole-2-carboxamide', 'weight': 452.546, 'carbohydrate_polymer': False, 'branch_name': ''}]

>  <ligand_codes>  (559) 
['FHR']

>  <cofactor_codes>  (559) 
[]

>  <has_cofactor>  (559) 
False

>  <covalent>  (559) 
True

>  <base_name>  (559) 
7DNC

>  <lig_resn>  (559) 
FHR

>  <lig_resi>  (559) 
201

>  <lig_chain>  (559) 
A

>  <lig_segi>  (559) 
B

>  <lig_alt>  (559) 


>  <polymer_chain>  (559) 
A

>  <single_smiles>  (559) 
O=C[C@H](C[C@@H]1CCNC1=O)NC(=O)[C@H](CC2CCCCC2)NC(=O)c3[nH]c4ccccc4c3

$$$$
FHRP1S17
     RDKit          3D

  6  6  0  0  0  0  0  0  0  0999 V2000
  -11.6180   13.9040  -36.4220 C   0  0  0  0  0  0  0  0  0  0  0  0
  -12.7470   13.5850  -35.6890 C   0  0  0  0  0  0  0  0  0  0  0  0
  -11.6930   14.9670  -37.3080 C   0  0  0  0  0  0  0  0  0  0  0  0
  -13.9180   14.3150  -35.8260 C   0  0  0  0  0  0  0  0  0  0  0  0
  -12.8650   15.6960  -37.4450 C   0  0  0  0  0  0  0  0  0  0  0  0
  -13.9760   15.3680  -36.7080 C   0  0  0  0  0  0  0  0  0  0  0  0
  1  2  1  0
  1  3  1  0
  2  4  1  0
  5  3  1  0
  4  6  1  0
  6  5  1  0
A    2
 C16
A    3
 C20
A    4
 C17
A    5
 C19
A    6
 C18
M  END
>  <XChem_code>  (560) 
FHR§1

>  <Occupancy>  (560) 
[1.0, 1.0, 1.0, 1.0, 1.0, 1.0, 1.0, 1.0, 1.0, 1.0, 1.0, 1.0, 1.0, 1.0, 1.0, 1.0, 1.0, 1.0, 1.0, 1.0, 1.0, 1.0, 1.0, 1.0, 1.0, 1.0, 1.0, 1.0, 1.0, 1.0, 1.0, 1.0, 1.0, 1.0]

>  <TempFactor>  (560) 
[12.8, 12.28, 12.67, 12.86, 13.41, 14.29, 15.58, 14.39, 13.97, 13.17, 13.23, 12.4, 11.86, 13.21, 13.36, 14.53, 14.53, 16.76, 17.82, 15.62, 11.61, 11.88, 12.06, 12.52, 13.0, 13.86, 15.8, 14.81, 13.31, 13.03, 12.29, 12.97, 13.13, 12.32]

>  <accession>  (560) 
7DNC_A

>  <description>  (560) 
Chain A, 3C protease [Enterovirus A71]

>  <evalue>  (560) 
1.3314799999999999e-69

>  <pdb_code>  (560) 
7DNC

>  <chain>  (560) 
A

>  <ligands>  (560) 
[{'chain_id': 'A', 'author_residue_number': 201, 'author_insertion_code': '', 'chem_comp_id': 'FHR', 'alternate_conformers': 0, 'entity_id': 2, 'struct_asym_id': 'B', 'residue_number': 1, 'chem_comp_name': '~{N}-[(2~{S})-3-cyclohexyl-1-oxidanylidene-1-[[(2~{S})-1-oxidanylidene-3-[(3~{S})-2-oxidanylidenepyrrolidin-3-yl]propan-2-yl]amino]propan-2-yl]-1~{H}-indole-2-carboxamide', 'weight': 452.546, 'carbohydrate_polymer': False, 'branch_name': ''}]

>  <ligand_codes>  (560) 
['FHR']

>  <cofactor_codes>  (560) 
[]

>  <has_cofactor>  (560) 
False

>  <covalent>  (560) 
True

>  <base_name>  (560) 
7DNC

>  <lig_resn>  (560) 
FHR

>  <lig_resi>  (560) 
201

>  <lig_chain>  (560) 
A

>  <lig_segi>  (560) 
B

>  <lig_alt>  (560) 


>  <polymer_chain>  (560) 
A

>  <single_smiles>  (560) 
O=C[C@H](C[C@@H]1CCNC1=O)NC(=O)[C@H](CC2CCCCC2)NC(=O)c3[nH]c4ccccc4c3

$$$$
FHRP1S18
     RDKit          3D

 28 30  0  0  0  0  0  0  0  0999 V2000
  -10.3440   13.1100  -36.2770 C   0  0  0  0  0  0  0  0  0  0  0  0
   -9.7320   13.2190  -34.8780 C   0  0  2  0  0  0  0  0  0  0  0  0
   -9.2450   14.5580  -34.6270 N   0  0  0  0  0  0  0  0  0  0  0  0
   -8.5900   12.2250  -34.7110 C   0  0  0  0  0  0  0  0  0  0  0  0
   -8.8010   14.8950  -33.4010 C   0  0  0  0  0  0  0  0  0  0  0  0
   -8.9070   11.0690  -34.1230 N   0  0  0  0  0  0  0  0  0  0  0  0
   -7.4610   12.4990  -35.1080 O   0  0  0  0  0  0  0  0  0  0  0  0
   -8.8740   14.1120  -32.4470 O   0  0  0  0  0  0  0  0  0  0  0  0
   -8.1570   16.2030  -33.2710 C   0  0  0  0  0  0  0  0  0  0  0  0
   -7.9330   10.0300  -33.8370 C   0  0  2  0  0  0  0  0  0  0  0  0
   -7.4890   16.4770  -32.1010 N   0  0  0  0  0  0  0  0  0  0  0  0
   -8.0490   17.2730  -34.1240 C   0  0  0  0  0  0  0  0  0  0  0  0
   -8.3950    8.7250  -34.5150 C   0  0  0  0  0  0  0  0  0  0  0  0
   -7.6710    9.8790  -32.3370 C   0  0  0  0  0  0  0  0  0  0  0  0
   -6.9430   17.7290  -32.1870 C   0  0  0  0  0  0  0  0  0  0  0  0
   -7.2790   18.2580  -33.4560 C   0  0  0  0  0  0  0  0  0  0  0  0
   -8.2950    8.6890  -35.7580 O   0  0  0  0  0  0  0  0  0  0  0  0
   -9.9400    8.2440  -33.7820 R   0  0  0  0  0  0  0  0  0  0  0  0
   -7.0900   11.1330  -31.6650 C   0  0  2  0  0  0  0  0  0  0  0  0
   -6.1770   18.4360  -31.2640 C   0  0  0  0  0  0  0  0  0  0  0  0
   -6.8210   19.5470  -33.7830 C   0  0  0  0  0  0  0  0  0  0  0  0
   -5.7320   11.6370  -32.1410 C   0  0  0  0  0  0  0  0  0  0  0  0
   -6.8730   10.9530  -30.1760 C   0  0  0  0  0  0  0  0  0  0  0  0
   -5.7460   19.6920  -31.6270 C   0  0  0  0  0  0  0  0  0  0  0  0
   -6.0720   20.2410  -32.8640 C   0  0  0  0  0  0  0  0  0  0  0  0
   -5.1740   12.3620  -30.9250 C   0  0  0  0  0  0  0  0  0  0  0  0
   -5.7790   11.6220  -29.8190 N   0  0  0  0  0  0  0  0  0  0  0  0
   -7.6010   10.2890  -29.4180 O   0  0  0  0  0  0  0  0  0  0  0  0
  2  1  1  6
  3  2  1  0
  2  4  1  0
  5  3  1  0
  4  6  1  0
  4  7  2  0
  8  5  2  0
  5  9  1  0
  6 10  1  0
  9 11  1  0
  9 12  2  0
 10 13  1  0
 10 14  1  1
 15 11  1  0
 12 16  1  0
 13 17  2  0
 13 18  1  0
 19 14  1  6
 16 15  2  0
 20 15  1  0
 16 21  1  0
 19 22  1  0
 19 23  1  0
 24 20  2  0
 21 25  2  0
 22 26  1  0
 27 23  1  0
 23 28  2  0
 25 24  1  0
 26 27  1  0
V   18 *
A    2
 C13
A    3
 N12
A    4
 C21
A    5
 C02
A    6
 N22
A    7
 O33
A    8
 O01
A    9
 C03
A   10
 C23
A   11
 N11
A   12
 C04
A   13
 C31
A   14
 C24
A   15
 C10
A   16
 C05
A   17
 O32
A   18
 X  
A   19
 C25
A   20
 C09
A   21
 C06
A   22
 C26
A   23
 C29
A   24
 C08
A   25
 C07
A   26
 C27
A   27
 N28
A   28
 O30
M  END
>  <XChem_code>  (561) 
FHR§1

>  <Occupancy>  (561) 
[1.0, 1.0, 1.0, 1.0, 1.0, 1.0, 1.0, 1.0, 1.0, 1.0, 1.0, 1.0, 1.0, 1.0, 1.0, 1.0, 1.0, 1.0, 1.0, 1.0, 1.0, 1.0, 1.0, 1.0, 1.0, 1.0, 1.0, 1.0, 1.0, 1.0, 1.0, 1.0, 1.0, 1.0]

>  <TempFactor>  (561) 
[12.8, 12.28, 12.67, 12.86, 13.41, 14.29, 15.58, 14.39, 13.97, 13.17, 13.23, 12.4, 11.86, 13.21, 13.36, 14.53, 14.53, 16.76, 17.82, 15.62, 11.61, 11.88, 12.06, 12.52, 13.0, 13.86, 15.8, 14.81, 13.31, 13.03, 12.29, 12.97, 13.13, 12.32]

>  <accession>  (561) 
7DNC_A

>  <description>  (561) 
Chain A, 3C protease [Enterovirus A71]

>  <evalue>  (561) 
1.3314799999999999e-69

>  <pdb_code>  (561) 
7DNC

>  <chain>  (561) 
A

>  <ligands>  (561) 
[{'chain_id': 'A', 'author_residue_number': 201, 'author_insertion_code': '', 'chem_comp_id': 'FHR', 'alternate_conformers': 0, 'entity_id': 2, 'struct_asym_id': 'B', 'residue_number': 1, 'chem_comp_name': '~{N}-[(2~{S})-3-cyclohexyl-1-oxidanylidene-1-[[(2~{S})-1-oxidanylidene-3-[(3~{S})-2-oxidanylidenepyrrolidin-3-yl]propan-2-yl]amino]propan-2-yl]-1~{H}-indole-2-carboxamide', 'weight': 452.546, 'carbohydrate_polymer': False, 'branch_name': ''}]

>  <ligand_codes>  (561) 
['FHR']

>  <cofactor_codes>  (561) 
[]

>  <has_cofactor>  (561) 
False

>  <covalent>  (561) 
True

>  <base_name>  (561) 
7DNC

>  <lig_resn>  (561) 
FHR

>  <lig_resi>  (561) 
201

>  <lig_chain>  (561) 
A

>  <lig_segi>  (561) 
B

>  <lig_alt>  (561) 


>  <polymer_chain>  (561) 
A

>  <single_smiles>  (561) 
O=C[C@H](C[C@@H]1CCNC1=O)NC(=O)[C@H](CC2CCCCC2)NC(=O)c3[nH]c4ccccc4c3

$$$$
FHRP1S19
     RDKit          3D

  6  6  0  0  0  0  0  0  0  0999 V2000
   -7.0900   11.1330  -31.6650 C   0  0  0  0  0  0  0  0  0  0  0  0
   -5.7320   11.6370  -32.1410 C   0  0  0  0  0  0  0  0  0  0  0  0
   -6.8730   10.9530  -30.1760 C   0  0  0  0  0  0  0  0  0  0  0  0
   -5.1740   12.3620  -30.9250 C   0  0  0  0  0  0  0  0  0  0  0  0
   -5.7790   11.6220  -29.8190 N   0  0  0  0  0  0  0  0  0  0  0  0
   -7.6010   10.2890  -29.4180 O   0  0  0  0  0  0  0  0  0  0  0  0
  1  2  1  1
  1  3  1  0
  2  4  1  0
  5  3  1  0
  3  6  2  0
  4  5  1  0
A    2
 C26
A    3
 C29
A    4
 C27
A    5
 N28
A    6
 O30
M  END
>  <XChem_code>  (562) 
FHR§1

>  <Occupancy>  (562) 
[1.0, 1.0, 1.0, 1.0, 1.0, 1.0, 1.0, 1.0, 1.0, 1.0, 1.0, 1.0, 1.0, 1.0, 1.0, 1.0, 1.0, 1.0, 1.0, 1.0, 1.0, 1.0, 1.0, 1.0, 1.0, 1.0, 1.0, 1.0, 1.0, 1.0, 1.0, 1.0, 1.0, 1.0]

>  <TempFactor>  (562) 
[12.8, 12.28, 12.67, 12.86, 13.41, 14.29, 15.58, 14.39, 13.97, 13.17, 13.23, 12.4, 11.86, 13.21, 13.36, 14.53, 14.53, 16.76, 17.82, 15.62, 11.61, 11.88, 12.06, 12.52, 13.0, 13.86, 15.8, 14.81, 13.31, 13.03, 12.29, 12.97, 13.13, 12.32]

>  <accession>  (562) 
7DNC_A

>  <description>  (562) 
Chain A, 3C protease [Enterovirus A71]

>  <evalue>  (562) 
1.3314799999999999e-69

>  <pdb_code>  (562) 
7DNC

>  <chain>  (562) 
A

>  <ligands>  (562) 
[{'chain_id': 'A', 'author_residue_number': 201, 'author_insertion_code': '', 'chem_comp_id': 'FHR', 'alternate_conformers': 0, 'entity_id': 2, 'struct_asym_id': 'B', 'residue_number': 1, 'chem_comp_name': '~{N}-[(2~{S})-3-cyclohexyl-1-oxidanylidene-1-[[(2~{S})-1-oxidanylidene-3-[(3~{S})-2-oxidanylidenepyrrolidin-3-yl]propan-2-yl]amino]propan-2-yl]-1~{H}-indole-2-carboxamide', 'weight': 452.546, 'carbohydrate_polymer': False, 'branch_name': ''}]

>  <ligand_codes>  (562) 
['FHR']

>  <cofactor_codes>  (562) 
[]

>  <has_cofactor>  (562) 
False

>  <covalent>  (562) 
True

>  <base_name>  (562) 
7DNC

>  <lig_resn>  (562) 
FHR

>  <lig_resi>  (562) 
201

>  <lig_chain>  (562) 
A

>  <lig_segi>  (562) 
B

>  <lig_alt>  (562) 


>  <polymer_chain>  (562) 
A

>  <single_smiles>  (562) 
O=C[C@H](C[C@@H]1CCNC1=O)NC(=O)[C@H](CC2CCCCC2)NC(=O)c3[nH]c4ccccc4c3

$$$$
FHRP1S20
     RDKit          3D

 28 30  0  0  0  0  0  0  0  0999 V2000
   -7.6710    9.8790  -32.3370 C   0  0  0  0  0  0  0  0  0  0  0  0
   -7.9330   10.0300  -33.8370 C   0  0  2  0  0  0  0  0  0  0  0  0
   -8.9070   11.0690  -34.1230 N   0  0  0  0  0  0  0  0  0  0  0  0
   -8.3950    8.7250  -34.5150 C   0  0  0  0  0  0  0  0  0  0  0  0
   -8.5900   12.2250  -34.7110 C   0  0  0  0  0  0  0  0  0  0  0  0
   -8.2950    8.6890  -35.7580 O   0  0  0  0  0  0  0  0  0  0  0  0
   -9.9400    8.2440  -33.7820 R   0  0  0  0  0  0  0  0  0  0  0  0
   -9.7320   13.2190  -34.8780 C   0  0  1  0  0  0  0  0  0  0  0  0
   -7.4610   12.4990  -35.1080 O   0  0  0  0  0  0  0  0  0  0  0  0
   -9.2450   14.5580  -34.6270 N   0  0  0  0  0  0  0  0  0  0  0  0
  -10.3440   13.1100  -36.2770 C   0  0  0  0  0  0  0  0  0  0  0  0
   -8.8010   14.8950  -33.4010 C   0  0  0  0  0  0  0  0  0  0  0  0
  -11.6180   13.9040  -36.4220 C   0  0  0  0  0  0  0  0  0  0  0  0
   -8.8740   14.1120  -32.4470 O   0  0  0  0  0  0  0  0  0  0  0  0
   -8.1570   16.2030  -33.2710 C   0  0  0  0  0  0  0  0  0  0  0  0
  -12.7470   13.5850  -35.6890 C   0  0  0  0  0  0  0  0  0  0  0  0
  -11.6930   14.9670  -37.3080 C   0  0  0  0  0  0  0  0  0  0  0  0
   -7.4890   16.4770  -32.1010 N   0  0  0  0  0  0  0  0  0  0  0  0
   -8.0490   17.2730  -34.1240 C   0  0  0  0  0  0  0  0  0  0  0  0
  -13.9180   14.3150  -35.8260 C   0  0  0  0  0  0  0  0  0  0  0  0
  -12.8650   15.6960  -37.4450 C   0  0  0  0  0  0  0  0  0  0  0  0
   -6.9430   17.7290  -32.1870 C   0  0  0  0  0  0  0  0  0  0  0  0
   -7.2790   18.2580  -33.4560 C   0  0  0  0  0  0  0  0  0  0  0  0
  -13.9760   15.3680  -36.7080 C   0  0  0  0  0  0  0  0  0  0  0  0
   -6.1770   18.4360  -31.2640 C   0  0  0  0  0  0  0  0  0  0  0  0
   -6.8210   19.5470  -33.7830 C   0  0  0  0  0  0  0  0  0  0  0  0
   -5.7460   19.6920  -31.6270 C   0  0  0  0  0  0  0  0  0  0  0  0
   -6.0720   20.2410  -32.8640 C   0  0  0  0  0  0  0  0  0  0  0  0
  2  1  1  1
  3  2  1  0
  2  4  1  0
  5  3  1  0
  4  6  2  0
  4  7  1  0
  8  5  1  0
  5  9  2  0
 10  8  1  0
  8 11  1  6
 12 10  1  0
 11 13  1  0
 14 12  2  0
 12 15  1  0
 13 16  1  0
 13 17  1  0
 15 18  1  0
 15 19  2  0
 16 20  1  0
 21 17  1  0
 22 18  1  0
 19 23  1  0
 20 24  1  0
 24 21  1  0
 23 22  2  0
 25 22  1  0
 23 26  1  0
 27 25  2  0
 26 28  2  0
 28 27  1  0
V    7 *
A    2
 C23
A    3
 N22
A    4
 C31
A    5
 C21
A    6
 O32
A    7
 X  
A    8
 C13
A    9
 O33
A   10
 N12
A   11
 C14
A   12
 C02
A   13
 C15
A   14
 O01
A   15
 C03
A   16
 C16
A   17
 C20
A   18
 N11
A   19
 C04
A   20
 C17
A   21
 C19
A   22
 C10
A   23
 C05
A   24
 C18
A   25
 C09
A   26
 C06
A   27
 C08
A   28
 C07
M  END
>  <XChem_code>  (563) 
FHR§1

>  <Occupancy>  (563) 
[1.0, 1.0, 1.0, 1.0, 1.0, 1.0, 1.0, 1.0, 1.0, 1.0, 1.0, 1.0, 1.0, 1.0, 1.0, 1.0, 1.0, 1.0, 1.0, 1.0, 1.0, 1.0, 1.0, 1.0, 1.0, 1.0, 1.0, 1.0, 1.0, 1.0, 1.0, 1.0, 1.0, 1.0]

>  <TempFactor>  (563) 
[12.8, 12.28, 12.67, 12.86, 13.41, 14.29, 15.58, 14.39, 13.97, 13.17, 13.23, 12.4, 11.86, 13.21, 13.36, 14.53, 14.53, 16.76, 17.82, 15.62, 11.61, 11.88, 12.06, 12.52, 13.0, 13.86, 15.8, 14.81, 13.31, 13.03, 12.29, 12.97, 13.13, 12.32]

>  <accession>  (563) 
7DNC_A

>  <description>  (563) 
Chain A, 3C protease [Enterovirus A71]

>  <evalue>  (563) 
1.3314799999999999e-69

>  <pdb_code>  (563) 
7DNC

>  <chain>  (563) 
A

>  <ligands>  (563) 
[{'chain_id': 'A', 'author_residue_number': 201, 'author_insertion_code': '', 'chem_comp_id': 'FHR', 'alternate_conformers': 0, 'entity_id': 2, 'struct_asym_id': 'B', 'residue_number': 1, 'chem_comp_name': '~{N}-[(2~{S})-3-cyclohexyl-1-oxidanylidene-1-[[(2~{S})-1-oxidanylidene-3-[(3~{S})-2-oxidanylidenepyrrolidin-3-yl]propan-2-yl]amino]propan-2-yl]-1~{H}-indole-2-carboxamide', 'weight': 452.546, 'carbohydrate_polymer': False, 'branch_name': ''}]

>  <ligand_codes>  (563) 
['FHR']

>  <cofactor_codes>  (563) 
[]

>  <has_cofactor>  (563) 
False

>  <covalent>  (563) 
True

>  <base_name>  (563) 
7DNC

>  <lig_resn>  (563) 
FHR

>  <lig_resi>  (563) 
201

>  <lig_chain>  (563) 
A

>  <lig_segi>  (563) 
B

>  <lig_alt>  (563) 


>  <polymer_chain>  (563) 
A

>  <single_smiles>  (563) 
O=C[C@H](C[C@@H]1CCNC1=O)NC(=O)[C@H](CC2CCCCC2)NC(=O)c3[nH]c4ccccc4c3

$$$$
FHRP1S21
     RDKit          3D

 17 17  0  0  0  0  0  0  0  0999 V2000
  -10.3440   13.1100  -36.2770 C   0  0  0  0  0  0  0  0  0  0  0  0
   -9.7320   13.2190  -34.8780 C   0  0  2  0  0  0  0  0  0  0  0  0
   -9.2450   14.5580  -34.6270 N   0  0  0  0  0  0  0  0  0  0  0  0
   -8.5900   12.2250  -34.7110 C   0  0  0  0  0  0  0  0  0  0  0  0
   -8.9070   11.0690  -34.1230 N   0  0  0  0  0  0  0  0  0  0  0  0
   -7.4610   12.4990  -35.1080 O   0  0  0  0  0  0  0  0  0  0  0  0
   -7.9330   10.0300  -33.8370 C   0  0  2  0  0  0  0  0  0  0  0  0
   -8.3950    8.7250  -34.5150 C   0  0  0  0  0  0  0  0  0  0  0  0
   -7.6710    9.8790  -32.3370 C   0  0  0  0  0  0  0  0  0  0  0  0
   -8.2950    8.6890  -35.7580 O   0  0  0  0  0  0  0  0  0  0  0  0
   -9.9400    8.2440  -33.7820 R   0  0  0  0  0  0  0  0  0  0  0  0
   -7.0900   11.1330  -31.6650 C   0  0  2  0  0  0  0  0  0  0  0  0
   -5.7320   11.6370  -32.1410 C   0  0  0  0  0  0  0  0  0  0  0  0
   -6.8730   10.9530  -30.1760 C   0  0  0  0  0  0  0  0  0  0  0  0
   -5.1740   12.3620  -30.9250 C   0  0  0  0  0  0  0  0  0  0  0  0
   -5.7790   11.6220  -29.8190 N   0  0  0  0  0  0  0  0  0  0  0  0
   -7.6010   10.2890  -29.4180 O   0  0  0  0  0  0  0  0  0  0  0  0
  2  1  1  6
  3  2  1  0
  2  4  1  0
  4  5  1  0
  4  6  2  0
  5  7  1  0
  7  8  1  0
  7  9  1  1
  8 10  2  0
  8 11  1  0
 12  9  1  6
 12 13  1  0
 12 14  1  0
 13 15  1  0
 16 14  1  0
 14 17  2  0
 15 16  1  0
V   11 *
A    2
 C13
A    4
 C21
A    5
 N22
A    6
 O33
A    7
 C23
A    8
 C31
A    9
 C24
A   10
 O32
A   11
 X  
A   12
 C25
A   13
 C26
A   14
 C29
A   15
 C27
A   16
 N28
A   17
 O30
M  END
>  <XChem_code>  (564) 
FHR§1

>  <Occupancy>  (564) 
[1.0, 1.0, 1.0, 1.0, 1.0, 1.0, 1.0, 1.0, 1.0, 1.0, 1.0, 1.0, 1.0, 1.0, 1.0, 1.0, 1.0, 1.0, 1.0, 1.0, 1.0, 1.0, 1.0, 1.0, 1.0, 1.0, 1.0, 1.0, 1.0, 1.0, 1.0, 1.0, 1.0, 1.0]

>  <TempFactor>  (564) 
[12.8, 12.28, 12.67, 12.86, 13.41, 14.29, 15.58, 14.39, 13.97, 13.17, 13.23, 12.4, 11.86, 13.21, 13.36, 14.53, 14.53, 16.76, 17.82, 15.62, 11.61, 11.88, 12.06, 12.52, 13.0, 13.86, 15.8, 14.81, 13.31, 13.03, 12.29, 12.97, 13.13, 12.32]

>  <accession>  (564) 
7DNC_A

>  <description>  (564) 
Chain A, 3C protease [Enterovirus A71]

>  <evalue>  (564) 
1.3314799999999999e-69

>  <pdb_code>  (564) 
7DNC

>  <chain>  (564) 
A

>  <ligands>  (564) 
[{'chain_id': 'A', 'author_residue_number': 201, 'author_insertion_code': '', 'chem_comp_id': 'FHR', 'alternate_conformers': 0, 'entity_id': 2, 'struct_asym_id': 'B', 'residue_number': 1, 'chem_comp_name': '~{N}-[(2~{S})-3-cyclohexyl-1-oxidanylidene-1-[[(2~{S})-1-oxidanylidene-3-[(3~{S})-2-oxidanylidenepyrrolidin-3-yl]propan-2-yl]amino]propan-2-yl]-1~{H}-indole-2-carboxamide', 'weight': 452.546, 'carbohydrate_polymer': False, 'branch_name': ''}]

>  <ligand_codes>  (564) 
['FHR']

>  <cofactor_codes>  (564) 
[]

>  <has_cofactor>  (564) 
False

>  <covalent>  (564) 
True

>  <base_name>  (564) 
7DNC

>  <lig_resn>  (564) 
FHR

>  <lig_resi>  (564) 
201

>  <lig_chain>  (564) 
A

>  <lig_segi>  (564) 
B

>  <lig_alt>  (564) 


>  <polymer_chain>  (564) 
A

>  <single_smiles>  (564) 
O=C[C@H](C[C@@H]1CCNC1=O)NC(=O)[C@H](CC2CCCCC2)NC(=O)c3[nH]c4ccccc4c3

$$$$
FHRP1S22
     RDKit          3D

 17 17  0  0  0  0  0  0  0  0999 V2000
   -7.6710    9.8790  -32.3370 C   0  0  0  0  0  0  0  0  0  0  0  0
   -7.9330   10.0300  -33.8370 C   0  0  2  0  0  0  0  0  0  0  0  0
   -8.9070   11.0690  -34.1230 N   0  0  0  0  0  0  0  0  0  0  0  0
   -8.3950    8.7250  -34.5150 C   0  0  0  0  0  0  0  0  0  0  0  0
   -8.5900   12.2250  -34.7110 C   0  0  0  0  0  0  0  0  0  0  0  0
   -8.2950    8.6890  -35.7580 O   0  0  0  0  0  0  0  0  0  0  0  0
   -9.9400    8.2440  -33.7820 R   0  0  0  0  0  0  0  0  0  0  0  0
   -9.7320   13.2190  -34.8780 C   0  0  1  0  0  0  0  0  0  0  0  0
   -7.4610   12.4990  -35.1080 O   0  0  0  0  0  0  0  0  0  0  0  0
   -9.2450   14.5580  -34.6270 N   0  0  0  0  0  0  0  0  0  0  0  0
  -10.3440   13.1100  -36.2770 C   0  0  0  0  0  0  0  0  0  0  0  0
  -11.6180   13.9040  -36.4220 C   0  0  0  0  0  0  0  0  0  0  0  0
  -12.7470   13.5850  -35.6890 C   0  0  0  0  0  0  0  0  0  0  0  0
  -11.6930   14.9670  -37.3080 C   0  0  0  0  0  0  0  0  0  0  0  0
  -13.9180   14.3150  -35.8260 C   0  0  0  0  0  0  0  0  0  0  0  0
  -12.8650   15.6960  -37.4450 C   0  0  0  0  0  0  0  0  0  0  0  0
  -13.9760   15.3680  -36.7080 C   0  0  0  0  0  0  0  0  0  0  0  0
  2  1  1  1
  3  2  1  0
  2  4  1  0
  5  3  1  0
  4  6  2  0
  4  7  1  0
  8  5  1  0
  5  9  2  0
  8 10  1  6
  8 11  1  0
 11 12  1  0
 12 13  1  0
 12 14  1  0
 13 15  1  0
 16 14  1  0
 15 17  1  0
 17 16  1  0
V    7 *
A    2
 C23
A    3
 N22
A    4
 C31
A    5
 C21
A    6
 O32
A    7
 X  
A    8
 C13
A    9
 O33
A   11
 C14
A   12
 C15
A   13
 C16
A   14
 C20
A   15
 C17
A   16
 C19
A   17
 C18
M  END
>  <XChem_code>  (565) 
FHR§1

>  <Occupancy>  (565) 
[1.0, 1.0, 1.0, 1.0, 1.0, 1.0, 1.0, 1.0, 1.0, 1.0, 1.0, 1.0, 1.0, 1.0, 1.0, 1.0, 1.0, 1.0, 1.0, 1.0, 1.0, 1.0, 1.0, 1.0, 1.0, 1.0, 1.0, 1.0, 1.0, 1.0, 1.0, 1.0, 1.0, 1.0]

>  <TempFactor>  (565) 
[12.8, 12.28, 12.67, 12.86, 13.41, 14.29, 15.58, 14.39, 13.97, 13.17, 13.23, 12.4, 11.86, 13.21, 13.36, 14.53, 14.53, 16.76, 17.82, 15.62, 11.61, 11.88, 12.06, 12.52, 13.0, 13.86, 15.8, 14.81, 13.31, 13.03, 12.29, 12.97, 13.13, 12.32]

>  <accession>  (565) 
7DNC_A

>  <description>  (565) 
Chain A, 3C protease [Enterovirus A71]

>  <evalue>  (565) 
1.3314799999999999e-69

>  <pdb_code>  (565) 
7DNC

>  <chain>  (565) 
A

>  <ligands>  (565) 
[{'chain_id': 'A', 'author_residue_number': 201, 'author_insertion_code': '', 'chem_comp_id': 'FHR', 'alternate_conformers': 0, 'entity_id': 2, 'struct_asym_id': 'B', 'residue_number': 1, 'chem_comp_name': '~{N}-[(2~{S})-3-cyclohexyl-1-oxidanylidene-1-[[(2~{S})-1-oxidanylidene-3-[(3~{S})-2-oxidanylidenepyrrolidin-3-yl]propan-2-yl]amino]propan-2-yl]-1~{H}-indole-2-carboxamide', 'weight': 452.546, 'carbohydrate_polymer': False, 'branch_name': ''}]

>  <ligand_codes>  (565) 
['FHR']

>  <cofactor_codes>  (565) 
[]

>  <has_cofactor>  (565) 
False

>  <covalent>  (565) 
True

>  <base_name>  (565) 
7DNC

>  <lig_resn>  (565) 
FHR

>  <lig_resi>  (565) 
201

>  <lig_chain>  (565) 
A

>  <lig_segi>  (565) 
B

>  <lig_alt>  (565) 


>  <polymer_chain>  (565) 
A

>  <single_smiles>  (565) 
O=C[C@H](C[C@@H]1CCNC1=O)NC(=O)[C@H](CC2CCCCC2)NC(=O)c3[nH]c4ccccc4c3

$$$$
FHRP1S23
     RDKit          3D

  6  5  0  0  0  0  0  0  0  0999 V2000
   -7.6710    9.8790  -32.3370 C   0  0  0  0  0  0  0  0  0  0  0  0
   -7.9330   10.0300  -33.8370 C   0  0  2  0  0  0  0  0  0  0  0  0
   -8.9070   11.0690  -34.1230 N   0  0  0  0  0  0  0  0  0  0  0  0
   -8.3950    8.7250  -34.5150 C   0  0  0  0  0  0  0  0  0  0  0  0
   -8.2950    8.6890  -35.7580 O   0  0  0  0  0  0  0  0  0  0  0  0
   -9.9400    8.2440  -33.7820 R   0  0  0  0  0  0  0  0  0  0  0  0
  2  1  1  1
  3  2  1  0
  2  4  1  0
  4  5  2  0
  4  6  1  0
V    6 *
A    2
 C23
A    4
 C31
A    5
 O32
A    6
 X  
M  END
>  <XChem_code>  (566) 
FHR§1

>  <Occupancy>  (566) 
[1.0, 1.0, 1.0, 1.0, 1.0, 1.0, 1.0, 1.0, 1.0, 1.0, 1.0, 1.0, 1.0, 1.0, 1.0, 1.0, 1.0, 1.0, 1.0, 1.0, 1.0, 1.0, 1.0, 1.0, 1.0, 1.0, 1.0, 1.0, 1.0, 1.0, 1.0, 1.0, 1.0, 1.0]

>  <TempFactor>  (566) 
[12.8, 12.28, 12.67, 12.86, 13.41, 14.29, 15.58, 14.39, 13.97, 13.17, 13.23, 12.4, 11.86, 13.21, 13.36, 14.53, 14.53, 16.76, 17.82, 15.62, 11.61, 11.88, 12.06, 12.52, 13.0, 13.86, 15.8, 14.81, 13.31, 13.03, 12.29, 12.97, 13.13, 12.32]

>  <accession>  (566) 
7DNC_A

>  <description>  (566) 
Chain A, 3C protease [Enterovirus A71]

>  <evalue>  (566) 
1.3314799999999999e-69

>  <pdb_code>  (566) 
7DNC

>  <chain>  (566) 
A

>  <ligands>  (566) 
[{'chain_id': 'A', 'author_residue_number': 201, 'author_insertion_code': '', 'chem_comp_id': 'FHR', 'alternate_conformers': 0, 'entity_id': 2, 'struct_asym_id': 'B', 'residue_number': 1, 'chem_comp_name': '~{N}-[(2~{S})-3-cyclohexyl-1-oxidanylidene-1-[[(2~{S})-1-oxidanylidene-3-[(3~{S})-2-oxidanylidenepyrrolidin-3-yl]propan-2-yl]amino]propan-2-yl]-1~{H}-indole-2-carboxamide', 'weight': 452.546, 'carbohydrate_polymer': False, 'branch_name': ''}]

>  <ligand_codes>  (566) 
['FHR']

>  <cofactor_codes>  (566) 
[]

>  <has_cofactor>  (566) 
False

>  <covalent>  (566) 
True

>  <base_name>  (566) 
7DNC

>  <lig_resn>  (566) 
FHR

>  <lig_resi>  (566) 
201

>  <lig_chain>  (566) 
A

>  <lig_segi>  (566) 
B

>  <lig_alt>  (566) 


>  <polymer_chain>  (566) 
A

>  <single_smiles>  (566) 
O=C[C@H](C[C@@H]1CCNC1=O)NC(=O)[C@H](CC2CCCCC2)NC(=O)c3[nH]c4ccccc4c3

$$$$
FHRP1S24
     RDKit          3D

 16 17  0  0  0  0  0  0  0  0999 V2000
  -10.3440   13.1100  -36.2770 C   0  0  0  0  0  0  0  0  0  0  0  0
   -9.7320   13.2190  -34.8780 C   0  0  1  0  0  0  0  0  0  0  0  0
   -8.5900   12.2250  -34.7110 C   0  0  0  0  0  0  0  0  0  0  0  0
   -9.2450   14.5580  -34.6270 N   0  0  0  0  0  0  0  0  0  0  0  0
   -7.4610   12.4990  -35.1080 O   0  0  0  0  0  0  0  0  0  0  0  0
   -8.8010   14.8950  -33.4010 C   0  0  0  0  0  0  0  0  0  0  0  0
   -8.8740   14.1120  -32.4470 O   0  0  0  0  0  0  0  0  0  0  0  0
   -8.1570   16.2030  -33.2710 C   0  0  0  0  0  0  0  0  0  0  0  0
   -7.4890   16.4770  -32.1010 N   0  0  0  0  0  0  0  0  0  0  0  0
   -8.0490   17.2730  -34.1240 C   0  0  0  0  0  0  0  0  0  0  0  0
   -6.9430   17.7290  -32.1870 C   0  0  0  0  0  0  0  0  0  0  0  0
   -7.2790   18.2580  -33.4560 C   0  0  0  0  0  0  0  0  0  0  0  0
   -6.1770   18.4360  -31.2640 C   0  0  0  0  0  0  0  0  0  0  0  0
   -6.8210   19.5470  -33.7830 C   0  0  0  0  0  0  0  0  0  0  0  0
   -5.7460   19.6920  -31.6270 C   0  0  0  0  0  0  0  0  0  0  0  0
   -6.0720   20.2410  -32.8640 C   0  0  0  0  0  0  0  0  0  0  0  0
  2  1  1  6
  2  3  1  0
  4  2  1  0
  3  5  2  0
  6  4  1  0
  7  6  2  0
  6  8  1  0
  8  9  1  0
  8 10  2  0
 11  9  1  0
 10 12  1  0
 12 11  2  0
 13 11  1  0
 12 14  1  0
 15 13  2  0
 14 16  2  0
 16 15  1  0
A    2
 C13
A    4
 N12
A    5
 O33
A    6
 C02
A    7
 O01
A    8
 C03
A    9
 N11
A   10
 C04
A   11
 C10
A   12
 C05
A   13
 C09
A   14
 C06
A   15
 C08
A   16
 C07
M  END
>  <XChem_code>  (567) 
FHR§1

>  <Occupancy>  (567) 
[1.0, 1.0, 1.0, 1.0, 1.0, 1.0, 1.0, 1.0, 1.0, 1.0, 1.0, 1.0, 1.0, 1.0, 1.0, 1.0, 1.0, 1.0, 1.0, 1.0, 1.0, 1.0, 1.0, 1.0, 1.0, 1.0, 1.0, 1.0, 1.0, 1.0, 1.0, 1.0, 1.0, 1.0]

>  <TempFactor>  (567) 
[12.8, 12.28, 12.67, 12.86, 13.41, 14.29, 15.58, 14.39, 13.97, 13.17, 13.23, 12.4, 11.86, 13.21, 13.36, 14.53, 14.53, 16.76, 17.82, 15.62, 11.61, 11.88, 12.06, 12.52, 13.0, 13.86, 15.8, 14.81, 13.31, 13.03, 12.29, 12.97, 13.13, 12.32]

>  <accession>  (567) 
7DNC_A

>  <description>  (567) 
Chain A, 3C protease [Enterovirus A71]

>  <evalue>  (567) 
1.3314799999999999e-69

>  <pdb_code>  (567) 
7DNC

>  <chain>  (567) 
A

>  <ligands>  (567) 
[{'chain_id': 'A', 'author_residue_number': 201, 'author_insertion_code': '', 'chem_comp_id': 'FHR', 'alternate_conformers': 0, 'entity_id': 2, 'struct_asym_id': 'B', 'residue_number': 1, 'chem_comp_name': '~{N}-[(2~{S})-3-cyclohexyl-1-oxidanylidene-1-[[(2~{S})-1-oxidanylidene-3-[(3~{S})-2-oxidanylidenepyrrolidin-3-yl]propan-2-yl]amino]propan-2-yl]-1~{H}-indole-2-carboxamide', 'weight': 452.546, 'carbohydrate_polymer': False, 'branch_name': ''}]

>  <ligand_codes>  (567) 
['FHR']

>  <cofactor_codes>  (567) 
[]

>  <has_cofactor>  (567) 
False

>  <covalent>  (567) 
True

>  <base_name>  (567) 
7DNC

>  <lig_resn>  (567) 
FHR

>  <lig_resi>  (567) 
201

>  <lig_chain>  (567) 
A

>  <lig_segi>  (567) 
B

>  <lig_alt>  (567) 


>  <polymer_chain>  (567) 
A

>  <single_smiles>  (567) 
O=C[C@H](C[C@@H]1CCNC1=O)NC(=O)[C@H](CC2CCCCC2)NC(=O)c3[nH]c4ccccc4c3

$$$$
FHRP1S25
     RDKit          3D

  5  4  0  0  0  0  0  0  0  0999 V2000
  -10.3440   13.1100  -36.2770 C   0  0  0  0  0  0  0  0  0  0  0  0
   -9.7320   13.2190  -34.8780 C   0  0  1  0  0  0  0  0  0  0  0  0
   -8.5900   12.2250  -34.7110 C   0  0  0  0  0  0  0  0  0  0  0  0
   -9.2450   14.5580  -34.6270 N   0  0  0  0  0  0  0  0  0  0  0  0
   -7.4610   12.4990  -35.1080 O   0  0  0  0  0  0  0  0  0  0  0  0
  2  1  1  6
  2  3  1  0
  4  2  1  0
  3  5  2  0
A    2
 C13
A    5
 O33
M  END
>  <XChem_code>  (568) 
FHR§1

>  <Occupancy>  (568) 
[1.0, 1.0, 1.0, 1.0, 1.0, 1.0, 1.0, 1.0, 1.0, 1.0, 1.0, 1.0, 1.0, 1.0, 1.0, 1.0, 1.0, 1.0, 1.0, 1.0, 1.0, 1.0, 1.0, 1.0, 1.0, 1.0, 1.0, 1.0, 1.0, 1.0, 1.0, 1.0, 1.0, 1.0]

>  <TempFactor>  (568) 
[12.8, 12.28, 12.67, 12.86, 13.41, 14.29, 15.58, 14.39, 13.97, 13.17, 13.23, 12.4, 11.86, 13.21, 13.36, 14.53, 14.53, 16.76, 17.82, 15.62, 11.61, 11.88, 12.06, 12.52, 13.0, 13.86, 15.8, 14.81, 13.31, 13.03, 12.29, 12.97, 13.13, 12.32]

>  <accession>  (568) 
7DNC_A

>  <description>  (568) 
Chain A, 3C protease [Enterovirus A71]

>  <evalue>  (568) 
1.3314799999999999e-69

>  <pdb_code>  (568) 
7DNC

>  <chain>  (568) 
A

>  <ligands>  (568) 
[{'chain_id': 'A', 'author_residue_number': 201, 'author_insertion_code': '', 'chem_comp_id': 'FHR', 'alternate_conformers': 0, 'entity_id': 2, 'struct_asym_id': 'B', 'residue_number': 1, 'chem_comp_name': '~{N}-[(2~{S})-3-cyclohexyl-1-oxidanylidene-1-[[(2~{S})-1-oxidanylidene-3-[(3~{S})-2-oxidanylidenepyrrolidin-3-yl]propan-2-yl]amino]propan-2-yl]-1~{H}-indole-2-carboxamide', 'weight': 452.546, 'carbohydrate_polymer': False, 'branch_name': ''}]

>  <ligand_codes>  (568) 
['FHR']

>  <cofactor_codes>  (568) 
[]

>  <has_cofactor>  (568) 
False

>  <covalent>  (568) 
True

>  <base_name>  (568) 
7DNC

>  <lig_resn>  (568) 
FHR

>  <lig_resi>  (568) 
201

>  <lig_chain>  (568) 
A

>  <lig_segi>  (568) 
B

>  <lig_alt>  (568) 


>  <polymer_chain>  (568) 
A

>  <single_smiles>  (568) 
O=C[C@H](C[C@@H]1CCNC1=O)NC(=O)[C@H](CC2CCCCC2)NC(=O)c3[nH]c4ccccc4c3

$$$$
FHRP1S26
     RDKit          3D

 16 16  0  0  0  0  0  0  0  0999 V2000
  -10.3440   13.1100  -36.2770 C   0  0  0  0  0  0  0  0  0  0  0  0
   -9.7320   13.2190  -34.8780 C   0  0  0  0  0  0  0  0  0  0  0  0
   -8.5900   12.2250  -34.7110 C   0  0  0  0  0  0  0  0  0  0  0  0
   -8.9070   11.0690  -34.1230 N   0  0  0  0  0  0  0  0  0  0  0  0
   -7.4610   12.4990  -35.1080 O   0  0  0  0  0  0  0  0  0  0  0  0
   -7.9330   10.0300  -33.8370 C   0  0  2  0  0  0  0  0  0  0  0  0
   -8.3950    8.7250  -34.5150 C   0  0  0  0  0  0  0  0  0  0  0  0
   -7.6710    9.8790  -32.3370 C   0  0  0  0  0  0  0  0  0  0  0  0
   -8.2950    8.6890  -35.7580 O   0  0  0  0  0  0  0  0  0  0  0  0
   -9.9400    8.2440  -33.7820 R   0  0  0  0  0  0  0  0  0  0  0  0
   -7.0900   11.1330  -31.6650 C   0  0  2  0  0  0  0  0  0  0  0  0
   -5.7320   11.6370  -32.1410 C   0  0  0  0  0  0  0  0  0  0  0  0
   -6.8730   10.9530  -30.1760 C   0  0  0  0  0  0  0  0  0  0  0  0
   -5.1740   12.3620  -30.9250 C   0  0  0  0  0  0  0  0  0  0  0  0
   -5.7790   11.6220  -29.8190 N   0  0  0  0  0  0  0  0  0  0  0  0
   -7.6010   10.2890  -29.4180 O   0  0  0  0  0  0  0  0  0  0  0  0
  2  1  1  6
  2  3  1  0
  3  4  1  0
  3  5  2  0
  4  6  1  0
  6  7  1  0
  6  8  1  1
  7  9  2  0
  7 10  1  0
 11  8  1  6
 11 12  1  0
 11 13  1  0
 12 14  1  0
 15 13  1  0
 13 16  2  0
 14 15  1  0
V   10 *
A    3
 C21
A    4
 N22
A    5
 O33
A    6
 C23
A    7
 C31
A    8
 C24
A    9
 O32
A   10
 X  
A   11
 C25
A   12
 C26
A   13
 C29
A   14
 C27
A   15
 N28
A   16
 O30
M  END
>  <XChem_code>  (569) 
FHR§1

>  <Occupancy>  (569) 
[1.0, 1.0, 1.0, 1.0, 1.0, 1.0, 1.0, 1.0, 1.0, 1.0, 1.0, 1.0, 1.0, 1.0, 1.0, 1.0, 1.0, 1.0, 1.0, 1.0, 1.0, 1.0, 1.0, 1.0, 1.0, 1.0, 1.0, 1.0, 1.0, 1.0, 1.0, 1.0, 1.0, 1.0]

>  <TempFactor>  (569) 
[12.8, 12.28, 12.67, 12.86, 13.41, 14.29, 15.58, 14.39, 13.97, 13.17, 13.23, 12.4, 11.86, 13.21, 13.36, 14.53, 14.53, 16.76, 17.82, 15.62, 11.61, 11.88, 12.06, 12.52, 13.0, 13.86, 15.8, 14.81, 13.31, 13.03, 12.29, 12.97, 13.13, 12.32]

>  <accession>  (569) 
7DNC_A

>  <description>  (569) 
Chain A, 3C protease [Enterovirus A71]

>  <evalue>  (569) 
1.3314799999999999e-69

>  <pdb_code>  (569) 
7DNC

>  <chain>  (569) 
A

>  <ligands>  (569) 
[{'chain_id': 'A', 'author_residue_number': 201, 'author_insertion_code': '', 'chem_comp_id': 'FHR', 'alternate_conformers': 0, 'entity_id': 2, 'struct_asym_id': 'B', 'residue_number': 1, 'chem_comp_name': '~{N}-[(2~{S})-3-cyclohexyl-1-oxidanylidene-1-[[(2~{S})-1-oxidanylidene-3-[(3~{S})-2-oxidanylidenepyrrolidin-3-yl]propan-2-yl]amino]propan-2-yl]-1~{H}-indole-2-carboxamide', 'weight': 452.546, 'carbohydrate_polymer': False, 'branch_name': ''}]

>  <ligand_codes>  (569) 
['FHR']

>  <cofactor_codes>  (569) 
[]

>  <has_cofactor>  (569) 
False

>  <covalent>  (569) 
True

>  <base_name>  (569) 
7DNC

>  <lig_resn>  (569) 
FHR

>  <lig_resi>  (569) 
201

>  <lig_chain>  (569) 
A

>  <lig_segi>  (569) 
B

>  <lig_alt>  (569) 


>  <polymer_chain>  (569) 
A

>  <single_smiles>  (569) 
O=C[C@H](C[C@@H]1CCNC1=O)NC(=O)[C@H](CC2CCCCC2)NC(=O)c3[nH]c4ccccc4c3

$$$$
FHRP1S27
     RDKit          3D

 16 16  0  0  0  0  0  0  0  0999 V2000
   -7.6710    9.8790  -32.3370 C   0  0  0  0  0  0  0  0  0  0  0  0
   -7.9330   10.0300  -33.8370 C   0  0  2  0  0  0  0  0  0  0  0  0
   -8.9070   11.0690  -34.1230 N   0  0  0  0  0  0  0  0  0  0  0  0
   -8.3950    8.7250  -34.5150 C   0  0  0  0  0  0  0  0  0  0  0  0
   -8.5900   12.2250  -34.7110 C   0  0  0  0  0  0  0  0  0  0  0  0
   -8.2950    8.6890  -35.7580 O   0  0  0  0  0  0  0  0  0  0  0  0
   -9.9400    8.2440  -33.7820 R   0  0  0  0  0  0  0  0  0  0  0  0
   -9.7320   13.2190  -34.8780 C   0  0  0  0  0  0  0  0  0  0  0  0
   -7.4610   12.4990  -35.1080 O   0  0  0  0  0  0  0  0  0  0  0  0
  -10.3440   13.1100  -36.2770 C   0  0  0  0  0  0  0  0  0  0  0  0
  -11.6180   13.9040  -36.4220 C   0  0  0  0  0  0  0  0  0  0  0  0
  -12.7470   13.5850  -35.6890 C   0  0  0  0  0  0  0  0  0  0  0  0
  -11.6930   14.9670  -37.3080 C   0  0  0  0  0  0  0  0  0  0  0  0
  -13.9180   14.3150  -35.8260 C   0  0  0  0  0  0  0  0  0  0  0  0
  -12.8650   15.6960  -37.4450 C   0  0  0  0  0  0  0  0  0  0  0  0
  -13.9760   15.3680  -36.7080 C   0  0  0  0  0  0  0  0  0  0  0  0
  2  1  1  1
  3  2  1  0
  2  4  1  0
  5  3  1  0
  4  6  2  0
  4  7  1  0
  8  5  1  0
  5  9  2  0
  8 10  1  6
 10 11  1  0
 11 12  1  0
 11 13  1  0
 12 14  1  0
 15 13  1  0
 14 16  1  0
 16 15  1  0
V    7 *
A    2
 C23
A    3
 N22
A    4
 C31
A    5
 C21
A    6
 O32
A    7
 X  
A    9
 O33
A   10
 C14
A   11
 C15
A   12
 C16
A   13
 C20
A   14
 C17
A   15
 C19
A   16
 C18
M  END
>  <XChem_code>  (570) 
FHR§1

>  <Occupancy>  (570) 
[1.0, 1.0, 1.0, 1.0, 1.0, 1.0, 1.0, 1.0, 1.0, 1.0, 1.0, 1.0, 1.0, 1.0, 1.0, 1.0, 1.0, 1.0, 1.0, 1.0, 1.0, 1.0, 1.0, 1.0, 1.0, 1.0, 1.0, 1.0, 1.0, 1.0, 1.0, 1.0, 1.0, 1.0]

>  <TempFactor>  (570) 
[12.8, 12.28, 12.67, 12.86, 13.41, 14.29, 15.58, 14.39, 13.97, 13.17, 13.23, 12.4, 11.86, 13.21, 13.36, 14.53, 14.53, 16.76, 17.82, 15.62, 11.61, 11.88, 12.06, 12.52, 13.0, 13.86, 15.8, 14.81, 13.31, 13.03, 12.29, 12.97, 13.13, 12.32]

>  <accession>  (570) 
7DNC_A

>  <description>  (570) 
Chain A, 3C protease [Enterovirus A71]

>  <evalue>  (570) 
1.3314799999999999e-69

>  <pdb_code>  (570) 
7DNC

>  <chain>  (570) 
A

>  <ligands>  (570) 
[{'chain_id': 'A', 'author_residue_number': 201, 'author_insertion_code': '', 'chem_comp_id': 'FHR', 'alternate_conformers': 0, 'entity_id': 2, 'struct_asym_id': 'B', 'residue_number': 1, 'chem_comp_name': '~{N}-[(2~{S})-3-cyclohexyl-1-oxidanylidene-1-[[(2~{S})-1-oxidanylidene-3-[(3~{S})-2-oxidanylidenepyrrolidin-3-yl]propan-2-yl]amino]propan-2-yl]-1~{H}-indole-2-carboxamide', 'weight': 452.546, 'carbohydrate_polymer': False, 'branch_name': ''}]

>  <ligand_codes>  (570) 
['FHR']

>  <cofactor_codes>  (570) 
[]

>  <has_cofactor>  (570) 
False

>  <covalent>  (570) 
True

>  <base_name>  (570) 
7DNC

>  <lig_resn>  (570) 
FHR

>  <lig_resi>  (570) 
201

>  <lig_chain>  (570) 
A

>  <lig_segi>  (570) 
B

>  <lig_alt>  (570) 


>  <polymer_chain>  (570) 
A

>  <single_smiles>  (570) 
O=C[C@H](C[C@@H]1CCNC1=O)NC(=O)[C@H](CC2CCCCC2)NC(=O)c3[nH]c4ccccc4c3

$$$$
FHRP1S28
     RDKit          3D

  5  4  0  0  0  0  0  0  0  0999 V2000
   -7.6710    9.8790  -32.3370 C   0  0  0  0  0  0  0  0  0  0  0  0
   -7.9330   10.0300  -33.8370 C   0  0  0  0  0  0  0  0  0  0  0  0
   -8.3950    8.7250  -34.5150 C   0  0  0  0  0  0  0  0  0  0  0  0
   -8.2950    8.6890  -35.7580 O   0  0  0  0  0  0  0  0  0  0  0  0
   -9.9400    8.2440  -33.7820 R   0  0  0  0  0  0  0  0  0  0  0  0
  2  1  1  6
  2  3  1  0
  3  4  2  0
  3  5  1  0
V    5 *
A    3
 C31
A    4
 O32
A    5
 X  
M  END
>  <XChem_code>  (571) 
FHR§1

>  <Occupancy>  (571) 
[1.0, 1.0, 1.0, 1.0, 1.0, 1.0, 1.0, 1.0, 1.0, 1.0, 1.0, 1.0, 1.0, 1.0, 1.0, 1.0, 1.0, 1.0, 1.0, 1.0, 1.0, 1.0, 1.0, 1.0, 1.0, 1.0, 1.0, 1.0, 1.0, 1.0, 1.0, 1.0, 1.0, 1.0]

>  <TempFactor>  (571) 
[12.8, 12.28, 12.67, 12.86, 13.41, 14.29, 15.58, 14.39, 13.97, 13.17, 13.23, 12.4, 11.86, 13.21, 13.36, 14.53, 14.53, 16.76, 17.82, 15.62, 11.61, 11.88, 12.06, 12.52, 13.0, 13.86, 15.8, 14.81, 13.31, 13.03, 12.29, 12.97, 13.13, 12.32]

>  <accession>  (571) 
7DNC_A

>  <description>  (571) 
Chain A, 3C protease [Enterovirus A71]

>  <evalue>  (571) 
1.3314799999999999e-69

>  <pdb_code>  (571) 
7DNC

>  <chain>  (571) 
A

>  <ligands>  (571) 
[{'chain_id': 'A', 'author_residue_number': 201, 'author_insertion_code': '', 'chem_comp_id': 'FHR', 'alternate_conformers': 0, 'entity_id': 2, 'struct_asym_id': 'B', 'residue_number': 1, 'chem_comp_name': '~{N}-[(2~{S})-3-cyclohexyl-1-oxidanylidene-1-[[(2~{S})-1-oxidanylidene-3-[(3~{S})-2-oxidanylidenepyrrolidin-3-yl]propan-2-yl]amino]propan-2-yl]-1~{H}-indole-2-carboxamide', 'weight': 452.546, 'carbohydrate_polymer': False, 'branch_name': ''}]

>  <ligand_codes>  (571) 
['FHR']

>  <cofactor_codes>  (571) 
[]

>  <has_cofactor>  (571) 
False

>  <covalent>  (571) 
True

>  <base_name>  (571) 
7DNC

>  <lig_resn>  (571) 
FHR

>  <lig_resi>  (571) 
201

>  <lig_chain>  (571) 
A

>  <lig_segi>  (571) 
B

>  <lig_alt>  (571) 


>  <polymer_chain>  (571) 
A

>  <single_smiles>  (571) 
O=C[C@H](C[C@@H]1CCNC1=O)NC(=O)[C@H](CC2CCCCC2)NC(=O)c3[nH]c4ccccc4c3

$$$$
FHRP1S29
     RDKit          3D

 17 18  0  0  0  0  0  0  0  0999 V2000
  -10.3440   13.1100  -36.2770 C   0  0  0  0  0  0  0  0  0  0  0  0
   -9.7320   13.2190  -34.8780 C   0  0  1  0  0  0  0  0  0  0  0  0
   -8.5900   12.2250  -34.7110 C   0  0  0  0  0  0  0  0  0  0  0  0
   -9.2450   14.5580  -34.6270 N   0  0  0  0  0  0  0  0  0  0  0  0
   -8.9070   11.0690  -34.1230 N   0  0  0  0  0  0  0  0  0  0  0  0
   -7.4610   12.4990  -35.1080 O   0  0  0  0  0  0  0  0  0  0  0  0
   -8.8010   14.8950  -33.4010 C   0  0  0  0  0  0  0  0  0  0  0  0
   -8.8740   14.1120  -32.4470 O   0  0  0  0  0  0  0  0  0  0  0  0
   -8.1570   16.2030  -33.2710 C   0  0  0  0  0  0  0  0  0  0  0  0
   -7.4890   16.4770  -32.1010 N   0  0  0  0  0  0  0  0  0  0  0  0
   -8.0490   17.2730  -34.1240 C   0  0  0  0  0  0  0  0  0  0  0  0
   -6.9430   17.7290  -32.1870 C   0  0  0  0  0  0  0  0  0  0  0  0
   -7.2790   18.2580  -33.4560 C   0  0  0  0  0  0  0  0  0  0  0  0
   -6.1770   18.4360  -31.2640 C   0  0  0  0  0  0  0  0  0  0  0  0
   -6.8210   19.5470  -33.7830 C   0  0  0  0  0  0  0  0  0  0  0  0
   -5.7460   19.6920  -31.6270 C   0  0  0  0  0  0  0  0  0  0  0  0
   -6.0720   20.2410  -32.8640 C   0  0  0  0  0  0  0  0  0  0  0  0
  2  1  1  6
  2  3  1  0
  4  2  1  0
  3  5  1  0
  3  6  2  0
  7  4  1  0
  8  7  2  0
  7  9  1  0
  9 10  1  0
  9 11  2  0
 12 10  1  0
 11 13  1  0
 13 12  2  0
 14 12  1  0
 13 15  1  0
 16 14  2  0
 15 17  2  0
 17 16  1  0
A    2
 C13
A    3
 C21
A    4
 N12
A    6
 O33
A    7
 C02
A    8
 O01
A    9
 C03
A   10
 N11
A   11
 C04
A   12
 C10
A   13
 C05
A   14
 C09
A   15
 C06
A   16
 C08
A   17
 C07
M  END
>  <XChem_code>  (572) 
FHR§1

>  <Occupancy>  (572) 
[1.0, 1.0, 1.0, 1.0, 1.0, 1.0, 1.0, 1.0, 1.0, 1.0, 1.0, 1.0, 1.0, 1.0, 1.0, 1.0, 1.0, 1.0, 1.0, 1.0, 1.0, 1.0, 1.0, 1.0, 1.0, 1.0, 1.0, 1.0, 1.0, 1.0, 1.0, 1.0, 1.0, 1.0]

>  <TempFactor>  (572) 
[12.8, 12.28, 12.67, 12.86, 13.41, 14.29, 15.58, 14.39, 13.97, 13.17, 13.23, 12.4, 11.86, 13.21, 13.36, 14.53, 14.53, 16.76, 17.82, 15.62, 11.61, 11.88, 12.06, 12.52, 13.0, 13.86, 15.8, 14.81, 13.31, 13.03, 12.29, 12.97, 13.13, 12.32]

>  <accession>  (572) 
7DNC_A

>  <description>  (572) 
Chain A, 3C protease [Enterovirus A71]

>  <evalue>  (572) 
1.3314799999999999e-69

>  <pdb_code>  (572) 
7DNC

>  <chain>  (572) 
A

>  <ligands>  (572) 
[{'chain_id': 'A', 'author_residue_number': 201, 'author_insertion_code': '', 'chem_comp_id': 'FHR', 'alternate_conformers': 0, 'entity_id': 2, 'struct_asym_id': 'B', 'residue_number': 1, 'chem_comp_name': '~{N}-[(2~{S})-3-cyclohexyl-1-oxidanylidene-1-[[(2~{S})-1-oxidanylidene-3-[(3~{S})-2-oxidanylidenepyrrolidin-3-yl]propan-2-yl]amino]propan-2-yl]-1~{H}-indole-2-carboxamide', 'weight': 452.546, 'carbohydrate_polymer': False, 'branch_name': ''}]

>  <ligand_codes>  (572) 
['FHR']

>  <cofactor_codes>  (572) 
[]

>  <has_cofactor>  (572) 
False

>  <covalent>  (572) 
True

>  <base_name>  (572) 
7DNC

>  <lig_resn>  (572) 
FHR

>  <lig_resi>  (572) 
201

>  <lig_chain>  (572) 
A

>  <lig_segi>  (572) 
B

>  <lig_alt>  (572) 


>  <polymer_chain>  (572) 
A

>  <single_smiles>  (572) 
O=C[C@H](C[C@@H]1CCNC1=O)NC(=O)[C@H](CC2CCCCC2)NC(=O)c3[nH]c4ccccc4c3

$$$$
FHRP1S30
     RDKit          3D

  6  5  0  0  0  0  0  0  0  0999 V2000
  -10.3440   13.1100  -36.2770 C   0  0  0  0  0  0  0  0  0  0  0  0
   -9.7320   13.2190  -34.8780 C   0  0  1  0  0  0  0  0  0  0  0  0
   -8.5900   12.2250  -34.7110 C   0  0  0  0  0  0  0  0  0  0  0  0
   -9.2450   14.5580  -34.6270 N   0  0  0  0  0  0  0  0  0  0  0  0
   -8.9070   11.0690  -34.1230 N   0  0  0  0  0  0  0  0  0  0  0  0
   -7.4610   12.4990  -35.1080 O   0  0  0  0  0  0  0  0  0  0  0  0
  2  1  1  6
  2  3  1  0
  4  2  1  0
  3  5  1  0
  3  6  2  0
A    2
 C13
A    3
 C21
A    6
 O33
M  END
>  <XChem_code>  (573) 
FHR§1

>  <Occupancy>  (573) 
[1.0, 1.0, 1.0, 1.0, 1.0, 1.0, 1.0, 1.0, 1.0, 1.0, 1.0, 1.0, 1.0, 1.0, 1.0, 1.0, 1.0, 1.0, 1.0, 1.0, 1.0, 1.0, 1.0, 1.0, 1.0, 1.0, 1.0, 1.0, 1.0, 1.0, 1.0, 1.0, 1.0, 1.0]

>  <TempFactor>  (573) 
[12.8, 12.28, 12.67, 12.86, 13.41, 14.29, 15.58, 14.39, 13.97, 13.17, 13.23, 12.4, 11.86, 13.21, 13.36, 14.53, 14.53, 16.76, 17.82, 15.62, 11.61, 11.88, 12.06, 12.52, 13.0, 13.86, 15.8, 14.81, 13.31, 13.03, 12.29, 12.97, 13.13, 12.32]

>  <accession>  (573) 
7DNC_A

>  <description>  (573) 
Chain A, 3C protease [Enterovirus A71]

>  <evalue>  (573) 
1.3314799999999999e-69

>  <pdb_code>  (573) 
7DNC

>  <chain>  (573) 
A

>  <ligands>  (573) 
[{'chain_id': 'A', 'author_residue_number': 201, 'author_insertion_code': '', 'chem_comp_id': 'FHR', 'alternate_conformers': 0, 'entity_id': 2, 'struct_asym_id': 'B', 'residue_number': 1, 'chem_comp_name': '~{N}-[(2~{S})-3-cyclohexyl-1-oxidanylidene-1-[[(2~{S})-1-oxidanylidene-3-[(3~{S})-2-oxidanylidenepyrrolidin-3-yl]propan-2-yl]amino]propan-2-yl]-1~{H}-indole-2-carboxamide', 'weight': 452.546, 'carbohydrate_polymer': False, 'branch_name': ''}]

>  <ligand_codes>  (573) 
['FHR']

>  <cofactor_codes>  (573) 
[]

>  <has_cofactor>  (573) 
False

>  <covalent>  (573) 
True

>  <base_name>  (573) 
7DNC

>  <lig_resn>  (573) 
FHR

>  <lig_resi>  (573) 
201

>  <lig_chain>  (573) 
A

>  <lig_segi>  (573) 
B

>  <lig_alt>  (573) 


>  <polymer_chain>  (573) 
A

>  <single_smiles>  (573) 
O=C[C@H](C[C@@H]1CCNC1=O)NC(=O)[C@H](CC2CCCCC2)NC(=O)c3[nH]c4ccccc4c3

$$$$
FHRP1S31
     RDKit          3D

  4  3  0  0  0  0  0  0  0  0999 V2000
  -10.3440   13.1100  -36.2770 C   0  0  0  0  0  0  0  0  0  0  0  0
   -9.7320   13.2190  -34.8780 C   0  0  0  0  0  0  0  0  0  0  0  0
   -8.5900   12.2250  -34.7110 C   0  0  0  0  0  0  0  0  0  0  0  0
   -7.4610   12.4990  -35.1080 O   0  0  0  0  0  0  0  0  0  0  0  0
  2  1  1  6
  2  3  1  0
  3  4  2  0
A    4
 O33
M  END
>  <XChem_code>  (574) 
FHR§1

>  <Occupancy>  (574) 
[1.0, 1.0, 1.0, 1.0, 1.0, 1.0, 1.0, 1.0, 1.0, 1.0, 1.0, 1.0, 1.0, 1.0, 1.0, 1.0, 1.0, 1.0, 1.0, 1.0, 1.0, 1.0, 1.0, 1.0, 1.0, 1.0, 1.0, 1.0, 1.0, 1.0, 1.0, 1.0, 1.0, 1.0]

>  <TempFactor>  (574) 
[12.8, 12.28, 12.67, 12.86, 13.41, 14.29, 15.58, 14.39, 13.97, 13.17, 13.23, 12.4, 11.86, 13.21, 13.36, 14.53, 14.53, 16.76, 17.82, 15.62, 11.61, 11.88, 12.06, 12.52, 13.0, 13.86, 15.8, 14.81, 13.31, 13.03, 12.29, 12.97, 13.13, 12.32]

>  <accession>  (574) 
7DNC_A

>  <description>  (574) 
Chain A, 3C protease [Enterovirus A71]

>  <evalue>  (574) 
1.3314799999999999e-69

>  <pdb_code>  (574) 
7DNC

>  <chain>  (574) 
A

>  <ligands>  (574) 
[{'chain_id': 'A', 'author_residue_number': 201, 'author_insertion_code': '', 'chem_comp_id': 'FHR', 'alternate_conformers': 0, 'entity_id': 2, 'struct_asym_id': 'B', 'residue_number': 1, 'chem_comp_name': '~{N}-[(2~{S})-3-cyclohexyl-1-oxidanylidene-1-[[(2~{S})-1-oxidanylidene-3-[(3~{S})-2-oxidanylidenepyrrolidin-3-yl]propan-2-yl]amino]propan-2-yl]-1~{H}-indole-2-carboxamide', 'weight': 452.546, 'carbohydrate_polymer': False, 'branch_name': ''}]

>  <ligand_codes>  (574) 
['FHR']

>  <cofactor_codes>  (574) 
[]

>  <has_cofactor>  (574) 
False

>  <covalent>  (574) 
True

>  <base_name>  (574) 
7DNC

>  <lig_resn>  (574) 
FHR

>  <lig_resi>  (574) 
201

>  <lig_chain>  (574) 
A

>  <lig_segi>  (574) 
B

>  <lig_alt>  (574) 


>  <polymer_chain>  (574) 
A

>  <single_smiles>  (574) 
O=C[C@H](C[C@@H]1CCNC1=O)NC(=O)[C@H](CC2CCCCC2)NC(=O)c3[nH]c4ccccc4c3

$$$$
FHRP1S32
     RDKit          3D

  5  4  0  0  0  0  0  0  0  0999 V2000
  -10.3440   13.1100  -36.2770 C   0  0  0  0  0  0  0  0  0  0  0  0
   -9.7320   13.2190  -34.8780 C   0  0  0  0  0  0  0  0  0  0  0  0
   -8.5900   12.2250  -34.7110 C   0  0  0  0  0  0  0  0  0  0  0  0
   -8.9070   11.0690  -34.1230 N   0  0  0  0  0  0  0  0  0  0  0  0
   -7.4610   12.4990  -35.1080 O   0  0  0  0  0  0  0  0  0  0  0  0
  2  1  1  6
  2  3  1  0
  3  4  1  0
  3  5  2  0
A    3
 C21
A    5
 O33
M  END
>  <XChem_code>  (575) 
FHR§1

>  <Occupancy>  (575) 
[1.0, 1.0, 1.0, 1.0, 1.0, 1.0, 1.0, 1.0, 1.0, 1.0, 1.0, 1.0, 1.0, 1.0, 1.0, 1.0, 1.0, 1.0, 1.0, 1.0, 1.0, 1.0, 1.0, 1.0, 1.0, 1.0, 1.0, 1.0, 1.0, 1.0, 1.0, 1.0, 1.0, 1.0]

>  <TempFactor>  (575) 
[12.8, 12.28, 12.67, 12.86, 13.41, 14.29, 15.58, 14.39, 13.97, 13.17, 13.23, 12.4, 11.86, 13.21, 13.36, 14.53, 14.53, 16.76, 17.82, 15.62, 11.61, 11.88, 12.06, 12.52, 13.0, 13.86, 15.8, 14.81, 13.31, 13.03, 12.29, 12.97, 13.13, 12.32]

>  <accession>  (575) 
7DNC_A

>  <description>  (575) 
Chain A, 3C protease [Enterovirus A71]

>  <evalue>  (575) 
1.3314799999999999e-69

>  <pdb_code>  (575) 
7DNC

>  <chain>  (575) 
A

>  <ligands>  (575) 
[{'chain_id': 'A', 'author_residue_number': 201, 'author_insertion_code': '', 'chem_comp_id': 'FHR', 'alternate_conformers': 0, 'entity_id': 2, 'struct_asym_id': 'B', 'residue_number': 1, 'chem_comp_name': '~{N}-[(2~{S})-3-cyclohexyl-1-oxidanylidene-1-[[(2~{S})-1-oxidanylidene-3-[(3~{S})-2-oxidanylidenepyrrolidin-3-yl]propan-2-yl]amino]propan-2-yl]-1~{H}-indole-2-carboxamide', 'weight': 452.546, 'carbohydrate_polymer': False, 'branch_name': ''}]

>  <ligand_codes>  (575) 
['FHR']

>  <cofactor_codes>  (575) 
[]

>  <has_cofactor>  (575) 
False

>  <covalent>  (575) 
True

>  <base_name>  (575) 
7DNC

>  <lig_resn>  (575) 
FHR

>  <lig_resi>  (575) 
201

>  <lig_chain>  (575) 
A

>  <lig_segi>  (575) 
B

>  <lig_alt>  (575) 


>  <polymer_chain>  (575) 
A

>  <single_smiles>  (575) 
O=C[C@H](C[C@@H]1CCNC1=O)NC(=O)[C@H](CC2CCCCC2)NC(=O)c3[nH]c4ccccc4c3

$$$$
FHRP1S33
     RDKit          3D

 19 19  0  0  0  0  0  0  0  0999 V2000
  -10.3440   13.1100  -36.2770 C   0  0  0  0  0  0  0  0  0  0  0  0
   -9.7320   13.2190  -34.8780 C   0  0  2  0  0  0  0  0  0  0  0  0
   -9.2450   14.5580  -34.6270 N   0  0  0  0  0  0  0  0  0  0  0  0
   -8.5900   12.2250  -34.7110 C   0  0  0  0  0  0  0  0  0  0  0  0
   -8.8010   14.8950  -33.4010 C   0  0  0  0  0  0  0  0  0  0  0  0
   -8.9070   11.0690  -34.1230 N   0  0  0  0  0  0  0  0  0  0  0  0
   -7.4610   12.4990  -35.1080 O   0  0  0  0  0  0  0  0  0  0  0  0
   -8.8740   14.1120  -32.4470 O   0  0  0  0  0  0  0  0  0  0  0  0
   -7.9330   10.0300  -33.8370 C   0  0  2  0  0  0  0  0  0  0  0  0
   -8.3950    8.7250  -34.5150 C   0  0  0  0  0  0  0  0  0  0  0  0
   -7.6710    9.8790  -32.3370 C   0  0  0  0  0  0  0  0  0  0  0  0
   -8.2950    8.6890  -35.7580 O   0  0  0  0  0  0  0  0  0  0  0  0
   -9.9400    8.2440  -33.7820 R   0  0  0  0  0  0  0  0  0  0  0  0
   -7.0900   11.1330  -31.6650 C   0  0  2  0  0  0  0  0  0  0  0  0
   -5.7320   11.6370  -32.1410 C   0  0  0  0  0  0  0  0  0  0  0  0
   -6.8730   10.9530  -30.1760 C   0  0  0  0  0  0  0  0  0  0  0  0
   -5.1740   12.3620  -30.9250 C   0  0  0  0  0  0  0  0  0  0  0  0
   -5.7790   11.6220  -29.8190 N   0  0  0  0  0  0  0  0  0  0  0  0
   -7.6010   10.2890  -29.4180 O   0  0  0  0  0  0  0  0  0  0  0  0
  2  1  1  6
  3  2  1  0
  2  4  1  0
  5  3  1  0
  4  6  1  0
  4  7  2  0
  8  5  2  0
  6  9  1  0
  9 10  1  0
  9 11  1  1
 10 12  2  0
 10 13  1  0
 14 11  1  6
 14 15  1  0
 14 16  1  0
 15 17  1  0
 18 16  1  0
 16 19  2  0
 17 18  1  0
V   13 *
A    2
 C13
A    3
 N12
A    4
 C21
A    6
 N22
A    7
 O33
A    8
 O01
A    9
 C23
A   10
 C31
A   11
 C24
A   12
 O32
A   13
 X  
A   14
 C25
A   15
 C26
A   16
 C29
A   17
 C27
A   18
 N28
A   19
 O30
M  END
>  <XChem_code>  (576) 
FHR§1

>  <Occupancy>  (576) 
[1.0, 1.0, 1.0, 1.0, 1.0, 1.0, 1.0, 1.0, 1.0, 1.0, 1.0, 1.0, 1.0, 1.0, 1.0, 1.0, 1.0, 1.0, 1.0, 1.0, 1.0, 1.0, 1.0, 1.0, 1.0, 1.0, 1.0, 1.0, 1.0, 1.0, 1.0, 1.0, 1.0, 1.0]

>  <TempFactor>  (576) 
[12.8, 12.28, 12.67, 12.86, 13.41, 14.29, 15.58, 14.39, 13.97, 13.17, 13.23, 12.4, 11.86, 13.21, 13.36, 14.53, 14.53, 16.76, 17.82, 15.62, 11.61, 11.88, 12.06, 12.52, 13.0, 13.86, 15.8, 14.81, 13.31, 13.03, 12.29, 12.97, 13.13, 12.32]

>  <accession>  (576) 
7DNC_A

>  <description>  (576) 
Chain A, 3C protease [Enterovirus A71]

>  <evalue>  (576) 
1.3314799999999999e-69

>  <pdb_code>  (576) 
7DNC

>  <chain>  (576) 
A

>  <ligands>  (576) 
[{'chain_id': 'A', 'author_residue_number': 201, 'author_insertion_code': '', 'chem_comp_id': 'FHR', 'alternate_conformers': 0, 'entity_id': 2, 'struct_asym_id': 'B', 'residue_number': 1, 'chem_comp_name': '~{N}-[(2~{S})-3-cyclohexyl-1-oxidanylidene-1-[[(2~{S})-1-oxidanylidene-3-[(3~{S})-2-oxidanylidenepyrrolidin-3-yl]propan-2-yl]amino]propan-2-yl]-1~{H}-indole-2-carboxamide', 'weight': 452.546, 'carbohydrate_polymer': False, 'branch_name': ''}]

>  <ligand_codes>  (576) 
['FHR']

>  <cofactor_codes>  (576) 
[]

>  <has_cofactor>  (576) 
False

>  <covalent>  (576) 
True

>  <base_name>  (576) 
7DNC

>  <lig_resn>  (576) 
FHR

>  <lig_resi>  (576) 
201

>  <lig_chain>  (576) 
A

>  <lig_segi>  (576) 
B

>  <lig_alt>  (576) 


>  <polymer_chain>  (576) 
A

>  <single_smiles>  (576) 
O=C[C@H](C[C@@H]1CCNC1=O)NC(=O)[C@H](CC2CCCCC2)NC(=O)c3[nH]c4ccccc4c3

$$$$
FHRP1S34
     RDKit          3D

 19 19  0  0  0  0  0  0  0  0999 V2000
   -7.6710    9.8790  -32.3370 C   0  0  0  0  0  0  0  0  0  0  0  0
   -7.9330   10.0300  -33.8370 C   0  0  2  0  0  0  0  0  0  0  0  0
   -8.9070   11.0690  -34.1230 N   0  0  0  0  0  0  0  0  0  0  0  0
   -8.3950    8.7250  -34.5150 C   0  0  0  0  0  0  0  0  0  0  0  0
   -8.5900   12.2250  -34.7110 C   0  0  0  0  0  0  0  0  0  0  0  0
   -8.2950    8.6890  -35.7580 O   0  0  0  0  0  0  0  0  0  0  0  0
   -9.9400    8.2440  -33.7820 R   0  0  0  0  0  0  0  0  0  0  0  0
   -9.7320   13.2190  -34.8780 C   0  0  1  0  0  0  0  0  0  0  0  0
   -7.4610   12.4990  -35.1080 O   0  0  0  0  0  0  0  0  0  0  0  0
   -9.2450   14.5580  -34.6270 N   0  0  0  0  0  0  0  0  0  0  0  0
  -10.3440   13.1100  -36.2770 C   0  0  0  0  0  0  0  0  0  0  0  0
   -8.8010   14.8950  -33.4010 C   0  0  0  0  0  0  0  0  0  0  0  0
  -11.6180   13.9040  -36.4220 C   0  0  0  0  0  0  0  0  0  0  0  0
   -8.8740   14.1120  -32.4470 O   0  0  0  0  0  0  0  0  0  0  0  0
  -12.7470   13.5850  -35.6890 C   0  0  0  0  0  0  0  0  0  0  0  0
  -11.6930   14.9670  -37.3080 C   0  0  0  0  0  0  0  0  0  0  0  0
  -13.9180   14.3150  -35.8260 C   0  0  0  0  0  0  0  0  0  0  0  0
  -12.8650   15.6960  -37.4450 C   0  0  0  0  0  0  0  0  0  0  0  0
  -13.9760   15.3680  -36.7080 C   0  0  0  0  0  0  0  0  0  0  0  0
  2  1  1  1
  3  2  1  0
  2  4  1  0
  5  3  1  0
  4  6  2  0
  4  7  1  0
  8  5  1  0
  5  9  2  0
 10  8  1  0
  8 11  1  6
 12 10  1  0
 11 13  1  0
 14 12  2  0
 13 15  1  0
 13 16  1  0
 15 17  1  0
 18 16  1  0
 17 19  1  0
 19 18  1  0
V    7 *
A    2
 C23
A    3
 N22
A    4
 C31
A    5
 C21
A    6
 O32
A    7
 X  
A    8
 C13
A    9
 O33
A   10
 N12
A   11
 C14
A   13
 C15
A   14
 O01
A   15
 C16
A   16
 C20
A   17
 C17
A   18
 C19
A   19
 C18
M  END
>  <XChem_code>  (577) 
FHR§1

>  <Occupancy>  (577) 
[1.0, 1.0, 1.0, 1.0, 1.0, 1.0, 1.0, 1.0, 1.0, 1.0, 1.0, 1.0, 1.0, 1.0, 1.0, 1.0, 1.0, 1.0, 1.0, 1.0, 1.0, 1.0, 1.0, 1.0, 1.0, 1.0, 1.0, 1.0, 1.0, 1.0, 1.0, 1.0, 1.0, 1.0]

>  <TempFactor>  (577) 
[12.8, 12.28, 12.67, 12.86, 13.41, 14.29, 15.58, 14.39, 13.97, 13.17, 13.23, 12.4, 11.86, 13.21, 13.36, 14.53, 14.53, 16.76, 17.82, 15.62, 11.61, 11.88, 12.06, 12.52, 13.0, 13.86, 15.8, 14.81, 13.31, 13.03, 12.29, 12.97, 13.13, 12.32]

>  <accession>  (577) 
7DNC_A

>  <description>  (577) 
Chain A, 3C protease [Enterovirus A71]

>  <evalue>  (577) 
1.3314799999999999e-69

>  <pdb_code>  (577) 
7DNC

>  <chain>  (577) 
A

>  <ligands>  (577) 
[{'chain_id': 'A', 'author_residue_number': 201, 'author_insertion_code': '', 'chem_comp_id': 'FHR', 'alternate_conformers': 0, 'entity_id': 2, 'struct_asym_id': 'B', 'residue_number': 1, 'chem_comp_name': '~{N}-[(2~{S})-3-cyclohexyl-1-oxidanylidene-1-[[(2~{S})-1-oxidanylidene-3-[(3~{S})-2-oxidanylidenepyrrolidin-3-yl]propan-2-yl]amino]propan-2-yl]-1~{H}-indole-2-carboxamide', 'weight': 452.546, 'carbohydrate_polymer': False, 'branch_name': ''}]

>  <ligand_codes>  (577) 
['FHR']

>  <cofactor_codes>  (577) 
[]

>  <has_cofactor>  (577) 
False

>  <covalent>  (577) 
True

>  <base_name>  (577) 
7DNC

>  <lig_resn>  (577) 
FHR

>  <lig_resi>  (577) 
201

>  <lig_chain>  (577) 
A

>  <lig_segi>  (577) 
B

>  <lig_alt>  (577) 


>  <polymer_chain>  (577) 
A

>  <single_smiles>  (577) 
O=C[C@H](C[C@@H]1CCNC1=O)NC(=O)[C@H](CC2CCCCC2)NC(=O)c3[nH]c4ccccc4c3

$$$$
FHRP1S35
     RDKit          3D

  7  6  0  0  0  0  0  0  0  0999 V2000
  -10.3440   13.1100  -36.2770 C   0  0  0  0  0  0  0  0  0  0  0  0
   -9.7320   13.2190  -34.8780 C   0  0  2  0  0  0  0  0  0  0  0  0
   -9.2450   14.5580  -34.6270 N   0  0  0  0  0  0  0  0  0  0  0  0
   -8.5900   12.2250  -34.7110 C   0  0  0  0  0  0  0  0  0  0  0  0
   -8.8010   14.8950  -33.4010 C   0  0  0  0  0  0  0  0  0  0  0  0
   -7.4610   12.4990  -35.1080 O   0  0  0  0  0  0  0  0  0  0  0  0
   -8.8740   14.1120  -32.4470 O   0  0  0  0  0  0  0  0  0  0  0  0
  2  1  1  6
  3  2  1  0
  2  4  1  0
  5  3  1  0
  4  6  2  0
  7  5  2  0
A    2
 C13
A    3
 N12
A    6
 O33
A    7
 O01
M  END
>  <XChem_code>  (578) 
FHR§1

>  <Occupancy>  (578) 
[1.0, 1.0, 1.0, 1.0, 1.0, 1.0, 1.0, 1.0, 1.0, 1.0, 1.0, 1.0, 1.0, 1.0, 1.0, 1.0, 1.0, 1.0, 1.0, 1.0, 1.0, 1.0, 1.0, 1.0, 1.0, 1.0, 1.0, 1.0, 1.0, 1.0, 1.0, 1.0, 1.0, 1.0]

>  <TempFactor>  (578) 
[12.8, 12.28, 12.67, 12.86, 13.41, 14.29, 15.58, 14.39, 13.97, 13.17, 13.23, 12.4, 11.86, 13.21, 13.36, 14.53, 14.53, 16.76, 17.82, 15.62, 11.61, 11.88, 12.06, 12.52, 13.0, 13.86, 15.8, 14.81, 13.31, 13.03, 12.29, 12.97, 13.13, 12.32]

>  <accession>  (578) 
7DNC_A

>  <description>  (578) 
Chain A, 3C protease [Enterovirus A71]

>  <evalue>  (578) 
1.3314799999999999e-69

>  <pdb_code>  (578) 
7DNC

>  <chain>  (578) 
A

>  <ligands>  (578) 
[{'chain_id': 'A', 'author_residue_number': 201, 'author_insertion_code': '', 'chem_comp_id': 'FHR', 'alternate_conformers': 0, 'entity_id': 2, 'struct_asym_id': 'B', 'residue_number': 1, 'chem_comp_name': '~{N}-[(2~{S})-3-cyclohexyl-1-oxidanylidene-1-[[(2~{S})-1-oxidanylidene-3-[(3~{S})-2-oxidanylidenepyrrolidin-3-yl]propan-2-yl]amino]propan-2-yl]-1~{H}-indole-2-carboxamide', 'weight': 452.546, 'carbohydrate_polymer': False, 'branch_name': ''}]

>  <ligand_codes>  (578) 
['FHR']

>  <cofactor_codes>  (578) 
[]

>  <has_cofactor>  (578) 
False

>  <covalent>  (578) 
True

>  <base_name>  (578) 
7DNC

>  <lig_resn>  (578) 
FHR

>  <lig_resi>  (578) 
201

>  <lig_chain>  (578) 
A

>  <lig_segi>  (578) 
B

>  <lig_alt>  (578) 


>  <polymer_chain>  (578) 
A

>  <single_smiles>  (578) 
O=C[C@H](C[C@@H]1CCNC1=O)NC(=O)[C@H](CC2CCCCC2)NC(=O)c3[nH]c4ccccc4c3

$$$$
FHRP1S36
     RDKit          3D

  8  7  0  0  0  0  0  0  0  0999 V2000
  -10.3440   13.1100  -36.2770 C   0  0  0  0  0  0  0  0  0  0  0  0
   -9.7320   13.2190  -34.8780 C   0  0  2  0  0  0  0  0  0  0  0  0
   -9.2450   14.5580  -34.6270 N   0  0  0  0  0  0  0  0  0  0  0  0
   -8.5900   12.2250  -34.7110 C   0  0  0  0  0  0  0  0  0  0  0  0
   -8.8010   14.8950  -33.4010 C   0  0  0  0  0  0  0  0  0  0  0  0
   -8.9070   11.0690  -34.1230 N   0  0  0  0  0  0  0  0  0  0  0  0
   -7.4610   12.4990  -35.1080 O   0  0  0  0  0  0  0  0  0  0  0  0
   -8.8740   14.1120  -32.4470 O   0  0  0  0  0  0  0  0  0  0  0  0
  2  1  1  6
  3  2  1  0
  2  4  1  0
  5  3  1  0
  4  6  1  0
  4  7  2  0
  8  5  2  0
A    2
 C13
A    3
 N12
A    4
 C21
A    7
 O33
A    8
 O01
M  END
>  <XChem_code>  (579) 
FHR§1

>  <Occupancy>  (579) 
[1.0, 1.0, 1.0, 1.0, 1.0, 1.0, 1.0, 1.0, 1.0, 1.0, 1.0, 1.0, 1.0, 1.0, 1.0, 1.0, 1.0, 1.0, 1.0, 1.0, 1.0, 1.0, 1.0, 1.0, 1.0, 1.0, 1.0, 1.0, 1.0, 1.0, 1.0, 1.0, 1.0, 1.0]

>  <TempFactor>  (579) 
[12.8, 12.28, 12.67, 12.86, 13.41, 14.29, 15.58, 14.39, 13.97, 13.17, 13.23, 12.4, 11.86, 13.21, 13.36, 14.53, 14.53, 16.76, 17.82, 15.62, 11.61, 11.88, 12.06, 12.52, 13.0, 13.86, 15.8, 14.81, 13.31, 13.03, 12.29, 12.97, 13.13, 12.32]

>  <accession>  (579) 
7DNC_A

>  <description>  (579) 
Chain A, 3C protease [Enterovirus A71]

>  <evalue>  (579) 
1.3314799999999999e-69

>  <pdb_code>  (579) 
7DNC

>  <chain>  (579) 
A

>  <ligands>  (579) 
[{'chain_id': 'A', 'author_residue_number': 201, 'author_insertion_code': '', 'chem_comp_id': 'FHR', 'alternate_conformers': 0, 'entity_id': 2, 'struct_asym_id': 'B', 'residue_number': 1, 'chem_comp_name': '~{N}-[(2~{S})-3-cyclohexyl-1-oxidanylidene-1-[[(2~{S})-1-oxidanylidene-3-[(3~{S})-2-oxidanylidenepyrrolidin-3-yl]propan-2-yl]amino]propan-2-yl]-1~{H}-indole-2-carboxamide', 'weight': 452.546, 'carbohydrate_polymer': False, 'branch_name': ''}]

>  <ligand_codes>  (579) 
['FHR']

>  <cofactor_codes>  (579) 
[]

>  <has_cofactor>  (579) 
False

>  <covalent>  (579) 
True

>  <base_name>  (579) 
7DNC

>  <lig_resn>  (579) 
FHR

>  <lig_resi>  (579) 
201

>  <lig_chain>  (579) 
A

>  <lig_segi>  (579) 
B

>  <lig_alt>  (579) 


>  <polymer_chain>  (579) 
A

>  <single_smiles>  (579) 
O=C[C@H](C[C@@H]1CCNC1=O)NC(=O)[C@H](CC2CCCCC2)NC(=O)c3[nH]c4ccccc4c3

$$$$
FHRP1S37
     RDKit          3D

 22 23  0  0  0  0  0  0  0  0999 V2000
   -7.6710    9.8790  -32.3370 C   0  0  0  0  0  0  0  0  0  0  0  0
   -7.9330   10.0300  -33.8370 C   0  0  2  0  0  0  0  0  0  0  0  0
   -8.9070   11.0690  -34.1230 N   0  0  0  0  0  0  0  0  0  0  0  0
   -8.3950    8.7250  -34.5150 C   0  0  0  0  0  0  0  0  0  0  0  0
   -8.5900   12.2250  -34.7110 C   0  0  0  0  0  0  0  0  0  0  0  0
   -8.2950    8.6890  -35.7580 O   0  0  0  0  0  0  0  0  0  0  0  0
   -9.9400    8.2440  -33.7820 R   0  0  0  0  0  0  0  0  0  0  0  0
   -9.7320   13.2190  -34.8780 C   0  0  2  0  0  0  0  0  0  0  0  0
   -7.4610   12.4990  -35.1080 O   0  0  0  0  0  0  0  0  0  0  0  0
  -10.3440   13.1100  -36.2770 C   0  0  0  0  0  0  0  0  0  0  0  0
   -9.2450   14.5580  -34.6270 N   0  0  0  0  0  0  0  0  0  0  0  0
   -8.8010   14.8950  -33.4010 C   0  0  0  0  0  0  0  0  0  0  0  0
   -8.8740   14.1120  -32.4470 O   0  0  0  0  0  0  0  0  0  0  0  0
   -8.1570   16.2030  -33.2710 C   0  0  0  0  0  0  0  0  0  0  0  0
   -7.4890   16.4770  -32.1010 N   0  0  0  0  0  0  0  0  0  0  0  0
   -8.0490   17.2730  -34.1240 C   0  0  0  0  0  0  0  0  0  0  0  0
   -6.9430   17.7290  -32.1870 C   0  0  0  0  0  0  0  0  0  0  0  0
   -7.2790   18.2580  -33.4560 C   0  0  0  0  0  0  0  0  0  0  0  0
   -6.1770   18.4360  -31.2640 C   0  0  0  0  0  0  0  0  0  0  0  0
   -6.8210   19.5470  -33.7830 C   0  0  0  0  0  0  0  0  0  0  0  0
   -5.7460   19.6920  -31.6270 C   0  0  0  0  0  0  0  0  0  0  0  0
   -6.0720   20.2410  -32.8640 C   0  0  0  0  0  0  0  0  0  0  0  0
  2  1  1  1
  3  2  1  0
  2  4  1  0
  5  3  1  0
  4  6  2  0
  4  7  1  0
  8  5  1  0
  5  9  2  0
  8 10  1  6
 11  8  1  0
 12 11  1  0
 13 12  2  0
 12 14  1  0
 14 15  1  0
 14 16  2  0
 17 15  1  0
 16 18  1  0
 18 17  2  0
 19 17  1  0
 18 20  1  0
 21 19  2  0
 20 22  2  0
 22 21  1  0
V    7 *
A    2
 C23
A    3
 N22
A    4
 C31
A    5
 C21
A    6
 O32
A    7
 X  
A    8
 C13
A    9
 O33
A   11
 N12
A   12
 C02
A   13
 O01
A   14
 C03
A   15
 N11
A   16
 C04
A   17
 C10
A   18
 C05
A   19
 C09
A   20
 C06
A   21
 C08
A   22
 C07
M  END
>  <XChem_code>  (580) 
FHR§1

>  <Occupancy>  (580) 
[1.0, 1.0, 1.0, 1.0, 1.0, 1.0, 1.0, 1.0, 1.0, 1.0, 1.0, 1.0, 1.0, 1.0, 1.0, 1.0, 1.0, 1.0, 1.0, 1.0, 1.0, 1.0, 1.0, 1.0, 1.0, 1.0, 1.0, 1.0, 1.0, 1.0, 1.0, 1.0, 1.0, 1.0]

>  <TempFactor>  (580) 
[12.8, 12.28, 12.67, 12.86, 13.41, 14.29, 15.58, 14.39, 13.97, 13.17, 13.23, 12.4, 11.86, 13.21, 13.36, 14.53, 14.53, 16.76, 17.82, 15.62, 11.61, 11.88, 12.06, 12.52, 13.0, 13.86, 15.8, 14.81, 13.31, 13.03, 12.29, 12.97, 13.13, 12.32]

>  <accession>  (580) 
7DNC_A

>  <description>  (580) 
Chain A, 3C protease [Enterovirus A71]

>  <evalue>  (580) 
1.3314799999999999e-69

>  <pdb_code>  (580) 
7DNC

>  <chain>  (580) 
A

>  <ligands>  (580) 
[{'chain_id': 'A', 'author_residue_number': 201, 'author_insertion_code': '', 'chem_comp_id': 'FHR', 'alternate_conformers': 0, 'entity_id': 2, 'struct_asym_id': 'B', 'residue_number': 1, 'chem_comp_name': '~{N}-[(2~{S})-3-cyclohexyl-1-oxidanylidene-1-[[(2~{S})-1-oxidanylidene-3-[(3~{S})-2-oxidanylidenepyrrolidin-3-yl]propan-2-yl]amino]propan-2-yl]-1~{H}-indole-2-carboxamide', 'weight': 452.546, 'carbohydrate_polymer': False, 'branch_name': ''}]

>  <ligand_codes>  (580) 
['FHR']

>  <cofactor_codes>  (580) 
[]

>  <has_cofactor>  (580) 
False

>  <covalent>  (580) 
True

>  <base_name>  (580) 
7DNC

>  <lig_resn>  (580) 
FHR

>  <lig_resi>  (580) 
201

>  <lig_chain>  (580) 
A

>  <lig_segi>  (580) 
B

>  <lig_alt>  (580) 


>  <polymer_chain>  (580) 
A

>  <single_smiles>  (580) 
O=C[C@H](C[C@@H]1CCNC1=O)NC(=O)[C@H](CC2CCCCC2)NC(=O)c3[nH]c4ccccc4c3

$$$$
FHRP1S38
     RDKit          3D

 11 10  0  0  0  0  0  0  0  0999 V2000
   -7.6710    9.8790  -32.3370 C   0  0  0  0  0  0  0  0  0  0  0  0
   -7.9330   10.0300  -33.8370 C   0  0  2  0  0  0  0  0  0  0  0  0
   -8.9070   11.0690  -34.1230 N   0  0  0  0  0  0  0  0  0  0  0  0
   -8.3950    8.7250  -34.5150 C   0  0  0  0  0  0  0  0  0  0  0  0
   -8.5900   12.2250  -34.7110 C   0  0  0  0  0  0  0  0  0  0  0  0
   -8.2950    8.6890  -35.7580 O   0  0  0  0  0  0  0  0  0  0  0  0
   -9.9400    8.2440  -33.7820 R   0  0  0  0  0  0  0  0  0  0  0  0
   -9.7320   13.2190  -34.8780 C   0  0  2  0  0  0  0  0  0  0  0  0
   -7.4610   12.4990  -35.1080 O   0  0  0  0  0  0  0  0  0  0  0  0
  -10.3440   13.1100  -36.2770 C   0  0  0  0  0  0  0  0  0  0  0  0
   -9.2450   14.5580  -34.6270 N   0  0  0  0  0  0  0  0  0  0  0  0
  2  1  1  1
  3  2  1  0
  2  4  1  0
  5  3  1  0
  4  6  2  0
  4  7  1  0
  8  5  1  0
  5  9  2  0
  8 10  1  6
 11  8  1  0
V    7 *
A    2
 C23
A    3
 N22
A    4
 C31
A    5
 C21
A    6
 O32
A    7
 X  
A    8
 C13
A    9
 O33
M  END
>  <XChem_code>  (581) 
FHR§1

>  <Occupancy>  (581) 
[1.0, 1.0, 1.0, 1.0, 1.0, 1.0, 1.0, 1.0, 1.0, 1.0, 1.0, 1.0, 1.0, 1.0, 1.0, 1.0, 1.0, 1.0, 1.0, 1.0, 1.0, 1.0, 1.0, 1.0, 1.0, 1.0, 1.0, 1.0, 1.0, 1.0, 1.0, 1.0, 1.0, 1.0]

>  <TempFactor>  (581) 
[12.8, 12.28, 12.67, 12.86, 13.41, 14.29, 15.58, 14.39, 13.97, 13.17, 13.23, 12.4, 11.86, 13.21, 13.36, 14.53, 14.53, 16.76, 17.82, 15.62, 11.61, 11.88, 12.06, 12.52, 13.0, 13.86, 15.8, 14.81, 13.31, 13.03, 12.29, 12.97, 13.13, 12.32]

>  <accession>  (581) 
7DNC_A

>  <description>  (581) 
Chain A, 3C protease [Enterovirus A71]

>  <evalue>  (581) 
1.3314799999999999e-69

>  <pdb_code>  (581) 
7DNC

>  <chain>  (581) 
A

>  <ligands>  (581) 
[{'chain_id': 'A', 'author_residue_number': 201, 'author_insertion_code': '', 'chem_comp_id': 'FHR', 'alternate_conformers': 0, 'entity_id': 2, 'struct_asym_id': 'B', 'residue_number': 1, 'chem_comp_name': '~{N}-[(2~{S})-3-cyclohexyl-1-oxidanylidene-1-[[(2~{S})-1-oxidanylidene-3-[(3~{S})-2-oxidanylidenepyrrolidin-3-yl]propan-2-yl]amino]propan-2-yl]-1~{H}-indole-2-carboxamide', 'weight': 452.546, 'carbohydrate_polymer': False, 'branch_name': ''}]

>  <ligand_codes>  (581) 
['FHR']

>  <cofactor_codes>  (581) 
[]

>  <has_cofactor>  (581) 
False

>  <covalent>  (581) 
True

>  <base_name>  (581) 
7DNC

>  <lig_resn>  (581) 
FHR

>  <lig_resi>  (581) 
201

>  <lig_chain>  (581) 
A

>  <lig_segi>  (581) 
B

>  <lig_alt>  (581) 


>  <polymer_chain>  (581) 
A

>  <single_smiles>  (581) 
O=C[C@H](C[C@@H]1CCNC1=O)NC(=O)[C@H](CC2CCCCC2)NC(=O)c3[nH]c4ccccc4c3

$$$$
FHRP1S39
     RDKit          3D

 10  9  0  0  0  0  0  0  0  0999 V2000
   -7.6710    9.8790  -32.3370 C   0  0  0  0  0  0  0  0  0  0  0  0
   -7.9330   10.0300  -33.8370 C   0  0  2  0  0  0  0  0  0  0  0  0
   -8.9070   11.0690  -34.1230 N   0  0  0  0  0  0  0  0  0  0  0  0
   -8.3950    8.7250  -34.5150 C   0  0  0  0  0  0  0  0  0  0  0  0
   -8.5900   12.2250  -34.7110 C   0  0  0  0  0  0  0  0  0  0  0  0
   -8.2950    8.6890  -35.7580 O   0  0  0  0  0  0  0  0  0  0  0  0
   -9.9400    8.2440  -33.7820 R   0  0  0  0  0  0  0  0  0  0  0  0
   -9.7320   13.2190  -34.8780 C   0  0  0  0  0  0  0  0  0  0  0  0
   -7.4610   12.4990  -35.1080 O   0  0  0  0  0  0  0  0  0  0  0  0
  -10.3440   13.1100  -36.2770 C   0  0  0  0  0  0  0  0  0  0  0  0
  2  1  1  1
  3  2  1  0
  2  4  1  0
  5  3  1  0
  4  6  2  0
  4  7  1  0
  8  5  1  0
  5  9  2  0
  8 10  1  6
V    7 *
A    2
 C23
A    3
 N22
A    4
 C31
A    5
 C21
A    6
 O32
A    7
 X  
A    9
 O33
M  END
>  <XChem_code>  (582) 
FHR§1

>  <Occupancy>  (582) 
[1.0, 1.0, 1.0, 1.0, 1.0, 1.0, 1.0, 1.0, 1.0, 1.0, 1.0, 1.0, 1.0, 1.0, 1.0, 1.0, 1.0, 1.0, 1.0, 1.0, 1.0, 1.0, 1.0, 1.0, 1.0, 1.0, 1.0, 1.0, 1.0, 1.0, 1.0, 1.0, 1.0, 1.0]

>  <TempFactor>  (582) 
[12.8, 12.28, 12.67, 12.86, 13.41, 14.29, 15.58, 14.39, 13.97, 13.17, 13.23, 12.4, 11.86, 13.21, 13.36, 14.53, 14.53, 16.76, 17.82, 15.62, 11.61, 11.88, 12.06, 12.52, 13.0, 13.86, 15.8, 14.81, 13.31, 13.03, 12.29, 12.97, 13.13, 12.32]

>  <accession>  (582) 
7DNC_A

>  <description>  (582) 
Chain A, 3C protease [Enterovirus A71]

>  <evalue>  (582) 
1.3314799999999999e-69

>  <pdb_code>  (582) 
7DNC

>  <chain>  (582) 
A

>  <ligands>  (582) 
[{'chain_id': 'A', 'author_residue_number': 201, 'author_insertion_code': '', 'chem_comp_id': 'FHR', 'alternate_conformers': 0, 'entity_id': 2, 'struct_asym_id': 'B', 'residue_number': 1, 'chem_comp_name': '~{N}-[(2~{S})-3-cyclohexyl-1-oxidanylidene-1-[[(2~{S})-1-oxidanylidene-3-[(3~{S})-2-oxidanylidenepyrrolidin-3-yl]propan-2-yl]amino]propan-2-yl]-1~{H}-indole-2-carboxamide', 'weight': 452.546, 'carbohydrate_polymer': False, 'branch_name': ''}]

>  <ligand_codes>  (582) 
['FHR']

>  <cofactor_codes>  (582) 
[]

>  <has_cofactor>  (582) 
False

>  <covalent>  (582) 
True

>  <base_name>  (582) 
7DNC

>  <lig_resn>  (582) 
FHR

>  <lig_resi>  (582) 
201

>  <lig_chain>  (582) 
A

>  <lig_segi>  (582) 
B

>  <lig_alt>  (582) 


>  <polymer_chain>  (582) 
A

>  <single_smiles>  (582) 
O=C[C@H](C[C@@H]1CCNC1=O)NC(=O)[C@H](CC2CCCCC2)NC(=O)c3[nH]c4ccccc4c3

$$$$
FHRP1S40
     RDKit          3D

 13 12  0  0  0  0  0  0  0  0999 V2000
   -7.6710    9.8790  -32.3370 C   0  0  0  0  0  0  0  0  0  0  0  0
   -7.9330   10.0300  -33.8370 C   0  0  2  0  0  0  0  0  0  0  0  0
   -8.9070   11.0690  -34.1230 N   0  0  0  0  0  0  0  0  0  0  0  0
   -8.3950    8.7250  -34.5150 C   0  0  0  0  0  0  0  0  0  0  0  0
   -8.5900   12.2250  -34.7110 C   0  0  0  0  0  0  0  0  0  0  0  0
   -8.2950    8.6890  -35.7580 O   0  0  0  0  0  0  0  0  0  0  0  0
   -9.9400    8.2440  -33.7820 R   0  0  0  0  0  0  0  0  0  0  0  0
   -9.7320   13.2190  -34.8780 C   0  0  2  0  0  0  0  0  0  0  0  0
   -7.4610   12.4990  -35.1080 O   0  0  0  0  0  0  0  0  0  0  0  0
  -10.3440   13.1100  -36.2770 C   0  0  0  0  0  0  0  0  0  0  0  0
   -9.2450   14.5580  -34.6270 N   0  0  0  0  0  0  0  0  0  0  0  0
   -8.8010   14.8950  -33.4010 C   0  0  0  0  0  0  0  0  0  0  0  0
   -8.8740   14.1120  -32.4470 O   0  0  0  0  0  0  0  0  0  0  0  0
  2  1  1  1
  3  2  1  0
  2  4  1  0
  5  3  1  0
  4  6  2  0
  4  7  1  0
  8  5  1  0
  5  9  2  0
  8 10  1  6
 11  8  1  0
 12 11  1  0
 13 12  2  0
V    7 *
A    2
 C23
A    3
 N22
A    4
 C31
A    5
 C21
A    6
 O32
A    7
 X  
A    8
 C13
A    9
 O33
A   11
 N12
A   13
 O01
M  END
>  <XChem_code>  (583) 
FHR§1

>  <Occupancy>  (583) 
[1.0, 1.0, 1.0, 1.0, 1.0, 1.0, 1.0, 1.0, 1.0, 1.0, 1.0, 1.0, 1.0, 1.0, 1.0, 1.0, 1.0, 1.0, 1.0, 1.0, 1.0, 1.0, 1.0, 1.0, 1.0, 1.0, 1.0, 1.0, 1.0, 1.0, 1.0, 1.0, 1.0, 1.0]

>  <TempFactor>  (583) 
[12.8, 12.28, 12.67, 12.86, 13.41, 14.29, 15.58, 14.39, 13.97, 13.17, 13.23, 12.4, 11.86, 13.21, 13.36, 14.53, 14.53, 16.76, 17.82, 15.62, 11.61, 11.88, 12.06, 12.52, 13.0, 13.86, 15.8, 14.81, 13.31, 13.03, 12.29, 12.97, 13.13, 12.32]

>  <accession>  (583) 
7DNC_A

>  <description>  (583) 
Chain A, 3C protease [Enterovirus A71]

>  <evalue>  (583) 
1.3314799999999999e-69

>  <pdb_code>  (583) 
7DNC

>  <chain>  (583) 
A

>  <ligands>  (583) 
[{'chain_id': 'A', 'author_residue_number': 201, 'author_insertion_code': '', 'chem_comp_id': 'FHR', 'alternate_conformers': 0, 'entity_id': 2, 'struct_asym_id': 'B', 'residue_number': 1, 'chem_comp_name': '~{N}-[(2~{S})-3-cyclohexyl-1-oxidanylidene-1-[[(2~{S})-1-oxidanylidene-3-[(3~{S})-2-oxidanylidenepyrrolidin-3-yl]propan-2-yl]amino]propan-2-yl]-1~{H}-indole-2-carboxamide', 'weight': 452.546, 'carbohydrate_polymer': False, 'branch_name': ''}]

>  <ligand_codes>  (583) 
['FHR']

>  <cofactor_codes>  (583) 
[]

>  <has_cofactor>  (583) 
False

>  <covalent>  (583) 
True

>  <base_name>  (583) 
7DNC

>  <lig_resn>  (583) 
FHR

>  <lig_resi>  (583) 
201

>  <lig_chain>  (583) 
A

>  <lig_segi>  (583) 
B

>  <lig_alt>  (583) 


>  <polymer_chain>  (583) 
A

>  <single_smiles>  (583) 
O=C[C@H](C[C@@H]1CCNC1=O)NC(=O)[C@H](CC2CCCCC2)NC(=O)c3[nH]c4ccccc4c3

$$$$
I70P2
     RDKit          3D

 40 42  0  0  0  0  0  0  0  0999 V2000
   -6.7240    7.5570  -34.8770 C   0  0  0  0  0  0  0  0  0  0  0  0
   -6.3550    7.0790  -36.1900 N   0  0  0  0  0  0  0  0  0  0  0  0
   -6.1940    7.0820  -33.8870 O   0  0  0  0  0  0  0  0  0  0  0  0
  -11.1620   17.0450  -29.9270 C   0  0  0  0  0  0  0  0  0  0  0  0
   -7.7790    8.6510  -34.8260 C   0  0  2  0  0  0  0  0  0  0  0  0
   -9.7590   17.0040  -30.3830 N   0  0  0  0  0  0  0  0  0  0  0  0
   -9.3350   16.7390  -31.6320 C   0  0  0  0  0  0  0  0  0  0  0  0
   -8.0200    9.1050  -36.1750 O   0  0  0  0  0  0  0  0  0  0  0  0
   -8.0120   16.5180  -31.7410 N   0  0  0  0  0  0  0  0  0  0  0  0
   -7.4390   15.9640  -32.9440 C   0  0  2  0  0  0  0  0  0  0  0  0
   -8.1630   14.6430  -33.1990 C   0  0  0  0  0  0  0  0  0  0  0  0
   -8.5470   15.4100  -35.5660 C   0  0  0  0  0  0  0  0  0  0  0  0
   -8.5930   14.4450  -34.4520 N   0  0  0  0  0  0  0  0  0  0  0  0
   -9.0890   13.1220  -34.8270 C   0  0  2  0  0  0  0  0  0  0  0  0
   -7.9540   12.1060  -34.7500 C   0  0  2  0  0  0  0  0  0  0  0  0
   -9.2540   14.6710  -36.7020 C   0  0  2  0  0  0  0  0  0  0  0  0
   -8.3060   10.9400  -34.2130 N   0  0  0  0  0  0  0  0  0  0  0  0
   -7.3450    9.8640  -33.9670 C   0  0  1  0  0  0  0  0  0  0  0  0
  -10.6930   14.2350  -36.5490 C   0  0  0  0  0  0  0  0  0  0  0  0
   -7.2620    9.6380  -32.4590 C   0  0  0  0  0  0  0  0  0  0  0  0
   -6.5460   10.7690  -31.7170 C   0  0  2  0  0  0  0  0  0  0  0  0
   -5.1080   11.0020  -32.1640 C   0  0  0  0  0  0  0  0  0  0  0  0
   -4.3360   11.3780  -30.9010 C   0  0  0  0  0  0  0  0  0  0  0  0
  -11.5310   14.7790  -35.4150 C   0  0  0  0  0  0  0  0  0  0  0  0
   -5.2360   10.9640  -29.8330 N   0  0  0  0  0  0  0  0  0  0  0  0
   -6.4130   10.4980  -30.2370 C   0  0  0  0  0  0  0  0  0  0  0  0
  -11.5090   14.0530  -37.8150 C   0  0  0  0  0  0  0  0  0  0  0  0
   -5.2670   15.5850  -34.2610 C   0  0  0  0  0  0  0  0  0  0  0  0
   -7.2810    9.9600  -29.5060 O   0  0  0  0  0  0  0  0  0  0  0  0
  -11.7910   15.6780  -30.1870 C   0  0  0  0  0  0  0  0  0  0  0  0
  -11.0840   17.3350  -28.4360 C   0  0  0  0  0  0  0  0  0  0  0  0
  -11.9540   18.1520  -30.6230 C   0  0  0  0  0  0  0  0  0  0  0  0
  -10.0780   16.7320  -32.6140 O   0  0  0  0  0  0  0  0  0  0  0  0
   -5.8860   15.9050  -32.8920 C   0  0  0  0  0  0  0  0  0  0  0  0
   -5.3590   17.2790  -32.4720 C   0  0  0  0  0  0  0  0  0  0  0  0
   -5.4200   14.8480  -31.8910 C   0  0  0  0  0  0  0  0  0  0  0  0
   -8.3310   13.7970  -32.3050 O   0  0  0  0  0  0  0  0  0  0  0  0
   -9.5800   13.2630  -36.2440 C   0  0  2  0  0  0  0  0  0  0  0  0
   -6.7960   12.4060  -35.0600 O   0  0  0  0  0  0  0  0  0  0  0  0
   -9.3380    8.0100  -34.0010 R   0  0  0  0  0  0  0  0  0  0  0  0
  1  2  1  0
  1  3  1  0
  1  5  1  0
  4  6  1  0
  4 30  1  0
  4 31  1  0
  4 32  1  0
  5  8  1  0
  5 18  1  0
  5 40  1  1
  6  7  1  0
  7  9  1  0
  7 33  1  0
 10  9  1  1
 10 11  1  0
 10 34  1  0
 11 13  1  0
 11 37  1  0
 12 13  1  0
 16 12  1  1
 14 13  1  6
 14 15  1  0
 38 14  1  0
 15 17  1  0
 15 39  1  1
 16 19  1  0
 16 38  1  0
 17 18  1  0
 18 20  1  1
 19 24  1  0
 19 27  1  0
 38 19  1  1
 21 20  1  6
 21 22  1  0
 21 26  1  0
 22 23  1  0
 23 25  1  0
 25 26  1  0
 26 29  1  0
 34 28  1  0
 34 35  1  0
 34 36  1  0
V   40 *
A    1
 C1 
A    2
 N2 
A    3
 O5 
A    4
 C7 
A    5
 C8 
A    6
 N8 
A    7
 C9 
A    8
 O9 
A    9
 N10
A   10
 C11
A   11
 C12
A   12
 C13
A   13
 N13
A   14
 C14
A   15
 C15
A   16
 C16
A   17
 N16
A   18
 C17
A   19
 C18
A   20
 C19
A   21
 C20
A   22
 C21
A   23
 C22
A   24
 C23
A   25
 N23
A   26
 C24
A   27
 C25
A   28
 C26
A   29
 O26
A   30
 C27
A   31
 C28
A   32
 C29
A   33
 O29
A   34
 C30
A   35
 C31
A   36
 C32
A   37
 O33
A   38
 C34
A   39
 O38
A   40
 X  
M  END
>  <XChem_code>  (584) 
I70§2

>  <Occupancy>  (584) 
[1.0, 1.0, 1.0, 1.0, 1.0, 1.0, 1.0, 1.0, 1.0, 1.0, 1.0, 1.0, 1.0, 1.0, 1.0, 1.0, 1.0, 1.0, 1.0, 1.0, 1.0, 1.0, 1.0, 1.0, 1.0, 1.0, 1.0, 1.0, 1.0, 1.0, 1.0, 1.0, 1.0, 1.0, 1.0, 1.0, 1.0, 1.0, 1.0, 1.0]

>  <TempFactor>  (584) 
[39.88, 47.74, 47.6, 43.34, 41.2, 42.74, 42.84, 38.8, 38.28, 38.23, 36.42, 38.13, 35.96, 39.12, 39.61, 36.63, 35.46, 36.02, 40.94, 36.31, 36.8, 36.42, 33.49, 36.18, 34.36, 34.04, 41.73, 36.81, 34.52, 42.38, 42.33, 41.2, 40.48, 37.29, 39.85, 36.54, 36.22, 35.85, 36.77, 46.54]

>  <accession>  (584) 
7QUB_AAA

>  <description>  (584) 
Chain AAA, Protease 3C [Enterovirus A71]

>  <evalue>  (584) 
7.0500000000000002e-68

>  <pdb_code>  (584) 
7QUB

>  <chain>  (584) 
AAA

>  <ligands>  (584) 
[{'chain_id': 'AAA', 'author_residue_number': 201, 'author_insertion_code': '', 'chem_comp_id': 'I70', 'alternate_conformers': 0, 'entity_id': 2, 'struct_asym_id': 'B', 'residue_number': 1, 'chem_comp_name': '(1R,2S,5S)-N-{(2S,3R)-4-amino-3-hydroxy-4-oxo-1-[(3S)-2-oxopyrrolidin-3-yl]butan-2-yl}-3-[N-(tert-butylcarbamoyl)-3-methyl-L-valyl]-6,6-dimethyl-3-azabicyclo[3.1.0]hexane-2-carboxamide', 'weight': 550.691, 'carbohydrate_polymer': False, 'branch_name': ''}, {'chain_id': 'AAA', 'author_residue_number': 202, 'author_insertion_code': '', 'chem_comp_id': 'NA', 'alternate_conformers': 0, 'entity_id': 3, 'struct_asym_id': 'C', 'residue_number': 1, 'chem_comp_name': 'SODIUM ION', 'weight': 22.99, 'carbohydrate_polymer': False, 'branch_name': ''}]

>  <ligand_codes>  (584) 
['I70', 'NA']

>  <cofactor_codes>  (584) 
[]

>  <has_cofactor>  (584) 
False

>  <covalent>  (584) 
True

>  <base_name>  (584) 
7QUB

>  <lig_resn>  (584) 
I70

>  <lig_resi>  (584) 
201

>  <lig_chain>  (584) 
AAA

>  <lig_segi>  (584) 
B

>  <lig_alt>  (584) 


>  <polymer_chain>  (584) 
A

>  <single_smiles>  (584) 
CC(C)(C)NC(=O)N[C@H](C(=O)N1C[C@H]2[C@@H]([C@H]1C(=O)N[C@@H](C[C@@H]3CCNC3=O)[C@@H](O)C(N)=O)C2(C)C)C(C)(C)C

$$$$
I70P2S1
     RDKit          3D

  4  3  0  0  0  0  0  0  0  0999 V2000
  -11.1620   17.0450  -29.9270 C   0  0  0  0  0  0  0  0  0  0  0  0
  -11.7910   15.6780  -30.1870 C   0  0  0  0  0  0  0  0  0  0  0  0
  -11.0840   17.3350  -28.4360 C   0  0  0  0  0  0  0  0  0  0  0  0
  -11.9540   18.1520  -30.6230 C   0  0  0  0  0  0  0  0  0  0  0  0
  1  2  1  0
  1  3  1  0
  1  4  1  0
A    2
 C27
A    3
 C28
A    4
 C29
M  END
>  <XChem_code>  (585) 
I70§2

>  <Occupancy>  (585) 
[1.0, 1.0, 1.0, 1.0, 1.0, 1.0, 1.0, 1.0, 1.0, 1.0, 1.0, 1.0, 1.0, 1.0, 1.0, 1.0, 1.0, 1.0, 1.0, 1.0, 1.0, 1.0, 1.0, 1.0, 1.0, 1.0, 1.0, 1.0, 1.0, 1.0, 1.0, 1.0, 1.0, 1.0, 1.0, 1.0, 1.0, 1.0, 1.0, 1.0]

>  <TempFactor>  (585) 
[39.88, 47.74, 47.6, 43.34, 41.2, 42.74, 42.84, 38.8, 38.28, 38.23, 36.42, 38.13, 35.96, 39.12, 39.61, 36.63, 35.46, 36.02, 40.94, 36.31, 36.8, 36.42, 33.49, 36.18, 34.36, 34.04, 41.73, 36.81, 34.52, 42.38, 42.33, 41.2, 40.48, 37.29, 39.85, 36.54, 36.22, 35.85, 36.77, 46.54]

>  <accession>  (585) 
7QUB_AAA

>  <description>  (585) 
Chain AAA, Protease 3C [Enterovirus A71]

>  <evalue>  (585) 
7.0500000000000002e-68

>  <pdb_code>  (585) 
7QUB

>  <chain>  (585) 
AAA

>  <ligands>  (585) 
[{'chain_id': 'AAA', 'author_residue_number': 201, 'author_insertion_code': '', 'chem_comp_id': 'I70', 'alternate_conformers': 0, 'entity_id': 2, 'struct_asym_id': 'B', 'residue_number': 1, 'chem_comp_name': '(1R,2S,5S)-N-{(2S,3R)-4-amino-3-hydroxy-4-oxo-1-[(3S)-2-oxopyrrolidin-3-yl]butan-2-yl}-3-[N-(tert-butylcarbamoyl)-3-methyl-L-valyl]-6,6-dimethyl-3-azabicyclo[3.1.0]hexane-2-carboxamide', 'weight': 550.691, 'carbohydrate_polymer': False, 'branch_name': ''}, {'chain_id': 'AAA', 'author_residue_number': 202, 'author_insertion_code': '', 'chem_comp_id': 'NA', 'alternate_conformers': 0, 'entity_id': 3, 'struct_asym_id': 'C', 'residue_number': 1, 'chem_comp_name': 'SODIUM ION', 'weight': 22.99, 'carbohydrate_polymer': False, 'branch_name': ''}]

>  <ligand_codes>  (585) 
['I70', 'NA']

>  <cofactor_codes>  (585) 
[]

>  <has_cofactor>  (585) 
False

>  <covalent>  (585) 
True

>  <base_name>  (585) 
7QUB

>  <lig_resn>  (585) 
I70

>  <lig_resi>  (585) 
201

>  <lig_chain>  (585) 
AAA

>  <lig_segi>  (585) 
B

>  <lig_alt>  (585) 


>  <polymer_chain>  (585) 
A

>  <single_smiles>  (585) 
CC(C)(C)NC(=O)N[C@H](C(=O)N1C[C@H]2[C@@H]([C@H]1C(=O)N[C@@H](C[C@@H]3CCNC3=O)[C@@H](O)C(N)=O)C2(C)C)C(C)(C)C

$$$$
I70P2S2
     RDKit          3D

 36 38  0  0  0  0  0  0  0  0999 V2000
   -9.7590   17.0040  -30.3830 N   0  0  0  0  0  0  0  0  0  0  0  0
   -9.3350   16.7390  -31.6320 C   0  0  0  0  0  0  0  0  0  0  0  0
   -8.0120   16.5180  -31.7410 N   0  0  0  0  0  0  0  0  0  0  0  0
  -10.0780   16.7320  -32.6140 O   0  0  0  0  0  0  0  0  0  0  0  0
   -7.4390   15.9640  -32.9440 C   0  0  2  0  0  0  0  0  0  0  0  0
   -8.1630   14.6430  -33.1990 C   0  0  0  0  0  0  0  0  0  0  0  0
   -5.8860   15.9050  -32.8920 C   0  0  0  0  0  0  0  0  0  0  0  0
   -8.5930   14.4450  -34.4520 N   0  0  0  0  0  0  0  0  0  0  0  0
   -8.3310   13.7970  -32.3050 O   0  0  0  0  0  0  0  0  0  0  0  0
   -5.2670   15.5850  -34.2610 C   0  0  0  0  0  0  0  0  0  0  0  0
   -5.3590   17.2790  -32.4720 C   0  0  0  0  0  0  0  0  0  0  0  0
   -5.4200   14.8480  -31.8910 C   0  0  0  0  0  0  0  0  0  0  0  0
   -8.5470   15.4100  -35.5660 C   0  0  0  0  0  0  0  0  0  0  0  0
   -9.0890   13.1220  -34.8270 C   0  0  2  0  0  0  0  0  0  0  0  0
   -9.2540   14.6710  -36.7020 C   0  0  1  0  0  0  0  0  0  0  0  0
   -7.9540   12.1060  -34.7500 C   0  0  2  0  0  0  0  0  0  0  0  0
   -9.5800   13.2630  -36.2440 C   0  0  2  0  0  0  0  0  0  0  0  0
  -10.6930   14.2350  -36.5490 C   0  0  0  0  0  0  0  0  0  0  0  0
   -8.3060   10.9400  -34.2130 N   0  0  0  0  0  0  0  0  0  0  0  0
   -6.7960   12.4060  -35.0600 O   0  0  0  0  0  0  0  0  0  0  0  0
  -11.5310   14.7790  -35.4150 C   0  0  0  0  0  0  0  0  0  0  0  0
  -11.5090   14.0530  -37.8150 C   0  0  0  0  0  0  0  0  0  0  0  0
   -7.3450    9.8640  -33.9670 C   0  0  2  0  0  0  0  0  0  0  0  0
   -7.7790    8.6510  -34.8260 C   0  0  2  0  0  0  0  0  0  0  0  0
   -7.2620    9.6380  -32.4590 C   0  0  0  0  0  0  0  0  0  0  0  0
   -6.7240    7.5570  -34.8770 C   0  0  0  0  0  0  0  0  0  0  0  0
   -8.0200    9.1050  -36.1750 O   0  0  0  0  0  0  0  0  0  0  0  0
   -9.3380    8.0100  -34.0010 R   0  0  0  0  0  0  0  0  0  0  0  0
   -6.5460   10.7690  -31.7170 C   0  0  2  0  0  0  0  0  0  0  0  0
   -6.3550    7.0790  -36.1900 N   0  0  0  0  0  0  0  0  0  0  0  0
   -6.1940    7.0820  -33.8870 O   0  0  0  0  0  0  0  0  0  0  0  0
   -5.1080   11.0020  -32.1640 C   0  0  0  0  0  0  0  0  0  0  0  0
   -6.4130   10.4980  -30.2370 C   0  0  0  0  0  0  0  0  0  0  0  0
   -4.3360   11.3780  -30.9010 C   0  0  0  0  0  0  0  0  0  0  0  0
   -5.2360   10.9640  -29.8330 N   0  0  0  0  0  0  0  0  0  0  0  0
   -7.2810    9.9600  -29.5060 O   0  0  0  0  0  0  0  0  0  0  0  0
  1  2  1  0
  2  3  1  0
  2  4  1  0
  5  3  1  1
  5  6  1  0
  5  7  1  0
  6  8  1  0
  6  9  1  0
  7 10  1  0
  7 11  1  0
  7 12  1  0
 13  8  1  0
 14  8  1  6
 15 13  1  1
 14 16  1  0
 17 14  1  0
 15 18  1  0
 15 17  1  0
 16 19  1  0
 16 20  1  1
 17 18  1  1
 18 21  1  0
 18 22  1  0
 19 23  1  0
 24 23  1  0
 23 25  1  1
 26 24  1  0
 24 27  1  0
 24 28  1  1
 29 25  1  6
 26 30  1  0
 26 31  1  0
 29 32  1  0
 29 33  1  0
 32 34  1  0
 35 33  1  0
 33 36  1  0
 34 35  1  0
V   28 *
A    2
 C9 
A    3
 N10
A    4
 O29
A    5
 C11
A    6
 C12
A    7
 C30
A    8
 N13
A    9
 O33
A   10
 C26
A   11
 C31
A   12
 C32
A   13
 C13
A   14
 C14
A   15
 C16
A   16
 C15
A   17
 C34
A   18
 C18
A   19
 N16
A   20
 O38
A   21
 C23
A   22
 C25
A   23
 C17
A   24
 C8 
A   25
 C19
A   26
 C1 
A   27
 O9 
A   28
 X  
A   29
 C20
A   30
 N2 
A   31
 O5 
A   32
 C21
A   33
 C24
A   34
 C22
A   35
 N23
A   36
 O26
M  END
>  <XChem_code>  (586) 
I70§2

>  <Occupancy>  (586) 
[1.0, 1.0, 1.0, 1.0, 1.0, 1.0, 1.0, 1.0, 1.0, 1.0, 1.0, 1.0, 1.0, 1.0, 1.0, 1.0, 1.0, 1.0, 1.0, 1.0, 1.0, 1.0, 1.0, 1.0, 1.0, 1.0, 1.0, 1.0, 1.0, 1.0, 1.0, 1.0, 1.0, 1.0, 1.0, 1.0, 1.0, 1.0, 1.0, 1.0]

>  <TempFactor>  (586) 
[39.88, 47.74, 47.6, 43.34, 41.2, 42.74, 42.84, 38.8, 38.28, 38.23, 36.42, 38.13, 35.96, 39.12, 39.61, 36.63, 35.46, 36.02, 40.94, 36.31, 36.8, 36.42, 33.49, 36.18, 34.36, 34.04, 41.73, 36.81, 34.52, 42.38, 42.33, 41.2, 40.48, 37.29, 39.85, 36.54, 36.22, 35.85, 36.77, 46.54]

>  <accession>  (586) 
7QUB_AAA

>  <description>  (586) 
Chain AAA, Protease 3C [Enterovirus A71]

>  <evalue>  (586) 
7.0500000000000002e-68

>  <pdb_code>  (586) 
7QUB

>  <chain>  (586) 
AAA

>  <ligands>  (586) 
[{'chain_id': 'AAA', 'author_residue_number': 201, 'author_insertion_code': '', 'chem_comp_id': 'I70', 'alternate_conformers': 0, 'entity_id': 2, 'struct_asym_id': 'B', 'residue_number': 1, 'chem_comp_name': '(1R,2S,5S)-N-{(2S,3R)-4-amino-3-hydroxy-4-oxo-1-[(3S)-2-oxopyrrolidin-3-yl]butan-2-yl}-3-[N-(tert-butylcarbamoyl)-3-methyl-L-valyl]-6,6-dimethyl-3-azabicyclo[3.1.0]hexane-2-carboxamide', 'weight': 550.691, 'carbohydrate_polymer': False, 'branch_name': ''}, {'chain_id': 'AAA', 'author_residue_number': 202, 'author_insertion_code': '', 'chem_comp_id': 'NA', 'alternate_conformers': 0, 'entity_id': 3, 'struct_asym_id': 'C', 'residue_number': 1, 'chem_comp_name': 'SODIUM ION', 'weight': 22.99, 'carbohydrate_polymer': False, 'branch_name': ''}]

>  <ligand_codes>  (586) 
['I70', 'NA']

>  <cofactor_codes>  (586) 
[]

>  <has_cofactor>  (586) 
False

>  <covalent>  (586) 
True

>  <base_name>  (586) 
7QUB

>  <lig_resn>  (586) 
I70

>  <lig_resi>  (586) 
201

>  <lig_chain>  (586) 
AAA

>  <lig_segi>  (586) 
B

>  <lig_alt>  (586) 


>  <polymer_chain>  (586) 
A

>  <single_smiles>  (586) 
CC(C)(C)NC(=O)N[C@H](C(=O)N1C[C@H]2[C@@H]([C@H]1C(=O)N[C@@H](C[C@@H]3CCNC3=O)[C@@H](O)C(N)=O)C2(C)C)C(C)(C)C

$$$$
I70P2S3
     RDKit          3D

  8  7  0  0  0  0  0  0  0  0999 V2000
   -8.0120   16.5180  -31.7410 N   0  0  0  0  0  0  0  0  0  0  0  0
   -9.3350   16.7390  -31.6320 C   0  0  0  0  0  0  0  0  0  0  0  0
   -9.7590   17.0040  -30.3830 N   0  0  0  0  0  0  0  0  0  0  0  0
  -10.0780   16.7320  -32.6140 O   0  0  0  0  0  0  0  0  0  0  0  0
  -11.1620   17.0450  -29.9270 C   0  0  0  0  0  0  0  0  0  0  0  0
  -11.7910   15.6780  -30.1870 C   0  0  0  0  0  0  0  0  0  0  0  0
  -11.0840   17.3350  -28.4360 C   0  0  0  0  0  0  0  0  0  0  0  0
  -11.9540   18.1520  -30.6230 C   0  0  0  0  0  0  0  0  0  0  0  0
  2  1  1  0
  3  2  1  0
  2  4  1  0
  5  3  1  0
  5  6  1  0
  5  7  1  0
  5  8  1  0
A    2
 C9 
A    3
 N8 
A    4
 O29
A    5
 C7 
A    6
 C27
A    7
 C28
A    8
 C29
M  END
>  <XChem_code>  (587) 
I70§2

>  <Occupancy>  (587) 
[1.0, 1.0, 1.0, 1.0, 1.0, 1.0, 1.0, 1.0, 1.0, 1.0, 1.0, 1.0, 1.0, 1.0, 1.0, 1.0, 1.0, 1.0, 1.0, 1.0, 1.0, 1.0, 1.0, 1.0, 1.0, 1.0, 1.0, 1.0, 1.0, 1.0, 1.0, 1.0, 1.0, 1.0, 1.0, 1.0, 1.0, 1.0, 1.0, 1.0]

>  <TempFactor>  (587) 
[39.88, 47.74, 47.6, 43.34, 41.2, 42.74, 42.84, 38.8, 38.28, 38.23, 36.42, 38.13, 35.96, 39.12, 39.61, 36.63, 35.46, 36.02, 40.94, 36.31, 36.8, 36.42, 33.49, 36.18, 34.36, 34.04, 41.73, 36.81, 34.52, 42.38, 42.33, 41.2, 40.48, 37.29, 39.85, 36.54, 36.22, 35.85, 36.77, 46.54]

>  <accession>  (587) 
7QUB_AAA

>  <description>  (587) 
Chain AAA, Protease 3C [Enterovirus A71]

>  <evalue>  (587) 
7.0500000000000002e-68

>  <pdb_code>  (587) 
7QUB

>  <chain>  (587) 
AAA

>  <ligands>  (587) 
[{'chain_id': 'AAA', 'author_residue_number': 201, 'author_insertion_code': '', 'chem_comp_id': 'I70', 'alternate_conformers': 0, 'entity_id': 2, 'struct_asym_id': 'B', 'residue_number': 1, 'chem_comp_name': '(1R,2S,5S)-N-{(2S,3R)-4-amino-3-hydroxy-4-oxo-1-[(3S)-2-oxopyrrolidin-3-yl]butan-2-yl}-3-[N-(tert-butylcarbamoyl)-3-methyl-L-valyl]-6,6-dimethyl-3-azabicyclo[3.1.0]hexane-2-carboxamide', 'weight': 550.691, 'carbohydrate_polymer': False, 'branch_name': ''}, {'chain_id': 'AAA', 'author_residue_number': 202, 'author_insertion_code': '', 'chem_comp_id': 'NA', 'alternate_conformers': 0, 'entity_id': 3, 'struct_asym_id': 'C', 'residue_number': 1, 'chem_comp_name': 'SODIUM ION', 'weight': 22.99, 'carbohydrate_polymer': False, 'branch_name': ''}]

>  <ligand_codes>  (587) 
['I70', 'NA']

>  <cofactor_codes>  (587) 
[]

>  <has_cofactor>  (587) 
False

>  <covalent>  (587) 
True

>  <base_name>  (587) 
7QUB

>  <lig_resn>  (587) 
I70

>  <lig_resi>  (587) 
201

>  <lig_chain>  (587) 
AAA

>  <lig_segi>  (587) 
B

>  <lig_alt>  (587) 


>  <polymer_chain>  (587) 
A

>  <single_smiles>  (587) 
CC(C)(C)NC(=O)N[C@H](C(=O)N1C[C@H]2[C@@H]([C@H]1C(=O)N[C@@H](C[C@@H]3CCNC3=O)[C@@H](O)C(N)=O)C2(C)C)C(C)(C)C

$$$$
I70P2S4
     RDKit          3D

 32 34  0  0  0  0  0  0  0  0999 V2000
   -7.4390   15.9640  -32.9440 C   0  0  0  0  0  0  0  0  0  0  0  0
   -8.1630   14.6430  -33.1990 C   0  0  0  0  0  0  0  0  0  0  0  0
   -5.8860   15.9050  -32.8920 C   0  0  0  0  0  0  0  0  0  0  0  0
   -8.5930   14.4450  -34.4520 N   0  0  0  0  0  0  0  0  0  0  0  0
   -8.3310   13.7970  -32.3050 O   0  0  0  0  0  0  0  0  0  0  0  0
   -5.2670   15.5850  -34.2610 C   0  0  0  0  0  0  0  0  0  0  0  0
   -5.3590   17.2790  -32.4720 C   0  0  0  0  0  0  0  0  0  0  0  0
   -5.4200   14.8480  -31.8910 C   0  0  0  0  0  0  0  0  0  0  0  0
   -8.5470   15.4100  -35.5660 C   0  0  0  0  0  0  0  0  0  0  0  0
   -9.0890   13.1220  -34.8270 C   0  0  2  0  0  0  0  0  0  0  0  0
   -9.2540   14.6710  -36.7020 C   0  0  1  0  0  0  0  0  0  0  0  0
   -7.9540   12.1060  -34.7500 C   0  0  2  0  0  0  0  0  0  0  0  0
   -9.5800   13.2630  -36.2440 C   0  0  2  0  0  0  0  0  0  0  0  0
  -10.6930   14.2350  -36.5490 C   0  0  0  0  0  0  0  0  0  0  0  0
   -8.3060   10.9400  -34.2130 N   0  0  0  0  0  0  0  0  0  0  0  0
   -6.7960   12.4060  -35.0600 O   0  0  0  0  0  0  0  0  0  0  0  0
  -11.5310   14.7790  -35.4150 C   0  0  0  0  0  0  0  0  0  0  0  0
  -11.5090   14.0530  -37.8150 C   0  0  0  0  0  0  0  0  0  0  0  0
   -7.3450    9.8640  -33.9670 C   0  0  2  0  0  0  0  0  0  0  0  0
   -7.7790    8.6510  -34.8260 C   0  0  2  0  0  0  0  0  0  0  0  0
   -7.2620    9.6380  -32.4590 C   0  0  0  0  0  0  0  0  0  0  0  0
   -6.7240    7.5570  -34.8770 C   0  0  0  0  0  0  0  0  0  0  0  0
   -8.0200    9.1050  -36.1750 O   0  0  0  0  0  0  0  0  0  0  0  0
   -9.3380    8.0100  -34.0010 R   0  0  0  0  0  0  0  0  0  0  0  0
   -6.5460   10.7690  -31.7170 C   0  0  2  0  0  0  0  0  0  0  0  0
   -6.3550    7.0790  -36.1900 N   0  0  0  0  0  0  0  0  0  0  0  0
   -6.1940    7.0820  -33.8870 O   0  0  0  0  0  0  0  0  0  0  0  0
   -5.1080   11.0020  -32.1640 C   0  0  0  0  0  0  0  0  0  0  0  0
   -6.4130   10.4980  -30.2370 C   0  0  0  0  0  0  0  0  0  0  0  0
   -4.3360   11.3780  -30.9010 C   0  0  0  0  0  0  0  0  0  0  0  0
   -5.2360   10.9640  -29.8330 N   0  0  0  0  0  0  0  0  0  0  0  0
   -7.2810    9.9600  -29.5060 O   0  0  0  0  0  0  0  0  0  0  0  0
  1  2  1  1
  1  3  1  0
  2  4  1  0
  2  5  1  0
  3  6  1  0
  3  7  1  0
  3  8  1  0
  9  4  1  0
 10  4  1  6
 11  9  1  1
 10 12  1  0
 13 10  1  0
 11 14  1  0
 11 13  1  0
 12 15  1  0
 12 16  1  1
 13 14  1  1
 14 17  1  0
 14 18  1  0
 15 19  1  0
 20 19  1  0
 19 21  1  1
 22 20  1  0
 20 23  1  0
 20 24  1  1
 25 21  1  6
 22 26  1  0
 22 27  1  0
 25 28  1  0
 25 29  1  0
 28 30  1  0
 31 29  1  0
 29 32  1  0
 30 31  1  0
V   24 *
A    2
 C12
A    3
 C30
A    4
 N13
A    5
 O33
A    6
 C26
A    7
 C31
A    8
 C32
A    9
 C13
A   10
 C14
A   11
 C16
A   12
 C15
A   13
 C34
A   14
 C18
A   15
 N16
A   16
 O38
A   17
 C23
A   18
 C25
A   19
 C17
A   20
 C8 
A   21
 C19
A   22
 C1 
A   23
 O9 
A   24
 X  
A   25
 C20
A   26
 N2 
A   27
 O5 
A   28
 C21
A   29
 C24
A   30
 C22
A   31
 N23
A   32
 O26
M  END
>  <XChem_code>  (588) 
I70§2

>  <Occupancy>  (588) 
[1.0, 1.0, 1.0, 1.0, 1.0, 1.0, 1.0, 1.0, 1.0, 1.0, 1.0, 1.0, 1.0, 1.0, 1.0, 1.0, 1.0, 1.0, 1.0, 1.0, 1.0, 1.0, 1.0, 1.0, 1.0, 1.0, 1.0, 1.0, 1.0, 1.0, 1.0, 1.0, 1.0, 1.0, 1.0, 1.0, 1.0, 1.0, 1.0, 1.0]

>  <TempFactor>  (588) 
[39.88, 47.74, 47.6, 43.34, 41.2, 42.74, 42.84, 38.8, 38.28, 38.23, 36.42, 38.13, 35.96, 39.12, 39.61, 36.63, 35.46, 36.02, 40.94, 36.31, 36.8, 36.42, 33.49, 36.18, 34.36, 34.04, 41.73, 36.81, 34.52, 42.38, 42.33, 41.2, 40.48, 37.29, 39.85, 36.54, 36.22, 35.85, 36.77, 46.54]

>  <accession>  (588) 
7QUB_AAA

>  <description>  (588) 
Chain AAA, Protease 3C [Enterovirus A71]

>  <evalue>  (588) 
7.0500000000000002e-68

>  <pdb_code>  (588) 
7QUB

>  <chain>  (588) 
AAA

>  <ligands>  (588) 
[{'chain_id': 'AAA', 'author_residue_number': 201, 'author_insertion_code': '', 'chem_comp_id': 'I70', 'alternate_conformers': 0, 'entity_id': 2, 'struct_asym_id': 'B', 'residue_number': 1, 'chem_comp_name': '(1R,2S,5S)-N-{(2S,3R)-4-amino-3-hydroxy-4-oxo-1-[(3S)-2-oxopyrrolidin-3-yl]butan-2-yl}-3-[N-(tert-butylcarbamoyl)-3-methyl-L-valyl]-6,6-dimethyl-3-azabicyclo[3.1.0]hexane-2-carboxamide', 'weight': 550.691, 'carbohydrate_polymer': False, 'branch_name': ''}, {'chain_id': 'AAA', 'author_residue_number': 202, 'author_insertion_code': '', 'chem_comp_id': 'NA', 'alternate_conformers': 0, 'entity_id': 3, 'struct_asym_id': 'C', 'residue_number': 1, 'chem_comp_name': 'SODIUM ION', 'weight': 22.99, 'carbohydrate_polymer': False, 'branch_name': ''}]

>  <ligand_codes>  (588) 
['I70', 'NA']

>  <cofactor_codes>  (588) 
[]

>  <has_cofactor>  (588) 
False

>  <covalent>  (588) 
True

>  <base_name>  (588) 
7QUB

>  <lig_resn>  (588) 
I70

>  <lig_resi>  (588) 
201

>  <lig_chain>  (588) 
AAA

>  <lig_segi>  (588) 
B

>  <lig_alt>  (588) 


>  <polymer_chain>  (588) 
A

>  <single_smiles>  (588) 
CC(C)(C)NC(=O)N[C@H](C(=O)N1C[C@H]2[C@@H]([C@H]1C(=O)N[C@@H](C[C@@H]3CCNC3=O)[C@@H](O)C(N)=O)C2(C)C)C(C)(C)C

$$$$
I70P2S5
     RDKit          3D

 15 14  0  0  0  0  0  0  0  0999 V2000
   -8.1630   14.6430  -33.1990 C   0  0  0  0  0  0  0  0  0  0  0  0
   -7.4390   15.9640  -32.9440 C   0  0  1  0  0  0  0  0  0  0  0  0
   -8.3310   13.7970  -32.3050 O   0  0  0  0  0  0  0  0  0  0  0  0
   -8.0120   16.5180  -31.7410 N   0  0  0  0  0  0  0  0  0  0  0  0
   -5.8860   15.9050  -32.8920 C   0  0  0  0  0  0  0  0  0  0  0  0
   -9.3350   16.7390  -31.6320 C   0  0  0  0  0  0  0  0  0  0  0  0
   -5.2670   15.5850  -34.2610 C   0  0  0  0  0  0  0  0  0  0  0  0
   -5.3590   17.2790  -32.4720 C   0  0  0  0  0  0  0  0  0  0  0  0
   -5.4200   14.8480  -31.8910 C   0  0  0  0  0  0  0  0  0  0  0  0
   -9.7590   17.0040  -30.3830 N   0  0  0  0  0  0  0  0  0  0  0  0
  -10.0780   16.7320  -32.6140 O   0  0  0  0  0  0  0  0  0  0  0  0
  -11.1620   17.0450  -29.9270 C   0  0  0  0  0  0  0  0  0  0  0  0
  -11.7910   15.6780  -30.1870 C   0  0  0  0  0  0  0  0  0  0  0  0
  -11.0840   17.3350  -28.4360 C   0  0  0  0  0  0  0  0  0  0  0  0
  -11.9540   18.1520  -30.6230 C   0  0  0  0  0  0  0  0  0  0  0  0
  2  1  1  1
  1  3  1  0
  2  4  1  0
  2  5  1  0
  6  4  1  0
  5  7  1  0
  5  8  1  0
  5  9  1  0
 10  6  1  0
  6 11  1  0
 12 10  1  0
 12 13  1  0
 12 14  1  0
 12 15  1  0
A    2
 C11
A    3
 O33
A    4
 N10
A    5
 C30
A    6
 C9 
A    7
 C26
A    8
 C31
A    9
 C32
A   10
 N8 
A   11
 O29
A   12
 C7 
A   13
 C27
A   14
 C28
A   15
 C29
M  END
>  <XChem_code>  (589) 
I70§2

>  <Occupancy>  (589) 
[1.0, 1.0, 1.0, 1.0, 1.0, 1.0, 1.0, 1.0, 1.0, 1.0, 1.0, 1.0, 1.0, 1.0, 1.0, 1.0, 1.0, 1.0, 1.0, 1.0, 1.0, 1.0, 1.0, 1.0, 1.0, 1.0, 1.0, 1.0, 1.0, 1.0, 1.0, 1.0, 1.0, 1.0, 1.0, 1.0, 1.0, 1.0, 1.0, 1.0]

>  <TempFactor>  (589) 
[39.88, 47.74, 47.6, 43.34, 41.2, 42.74, 42.84, 38.8, 38.28, 38.23, 36.42, 38.13, 35.96, 39.12, 39.61, 36.63, 35.46, 36.02, 40.94, 36.31, 36.8, 36.42, 33.49, 36.18, 34.36, 34.04, 41.73, 36.81, 34.52, 42.38, 42.33, 41.2, 40.48, 37.29, 39.85, 36.54, 36.22, 35.85, 36.77, 46.54]

>  <accession>  (589) 
7QUB_AAA

>  <description>  (589) 
Chain AAA, Protease 3C [Enterovirus A71]

>  <evalue>  (589) 
7.0500000000000002e-68

>  <pdb_code>  (589) 
7QUB

>  <chain>  (589) 
AAA

>  <ligands>  (589) 
[{'chain_id': 'AAA', 'author_residue_number': 201, 'author_insertion_code': '', 'chem_comp_id': 'I70', 'alternate_conformers': 0, 'entity_id': 2, 'struct_asym_id': 'B', 'residue_number': 1, 'chem_comp_name': '(1R,2S,5S)-N-{(2S,3R)-4-amino-3-hydroxy-4-oxo-1-[(3S)-2-oxopyrrolidin-3-yl]butan-2-yl}-3-[N-(tert-butylcarbamoyl)-3-methyl-L-valyl]-6,6-dimethyl-3-azabicyclo[3.1.0]hexane-2-carboxamide', 'weight': 550.691, 'carbohydrate_polymer': False, 'branch_name': ''}, {'chain_id': 'AAA', 'author_residue_number': 202, 'author_insertion_code': '', 'chem_comp_id': 'NA', 'alternate_conformers': 0, 'entity_id': 3, 'struct_asym_id': 'C', 'residue_number': 1, 'chem_comp_name': 'SODIUM ION', 'weight': 22.99, 'carbohydrate_polymer': False, 'branch_name': ''}]

>  <ligand_codes>  (589) 
['I70', 'NA']

>  <cofactor_codes>  (589) 
[]

>  <has_cofactor>  (589) 
False

>  <covalent>  (589) 
True

>  <base_name>  (589) 
7QUB

>  <lig_resn>  (589) 
I70

>  <lig_resi>  (589) 
201

>  <lig_chain>  (589) 
AAA

>  <lig_segi>  (589) 
B

>  <lig_alt>  (589) 


>  <polymer_chain>  (589) 
A

>  <single_smiles>  (589) 
CC(C)(C)NC(=O)N[C@H](C(=O)N1C[C@H]2[C@@H]([C@H]1C(=O)N[C@@H](C[C@@H]3CCNC3=O)[C@@H](O)C(N)=O)C2(C)C)C(C)(C)C

$$$$
I70P2S6
     RDKit          3D

 25 27  0  0  0  0  0  0  0  0999 V2000
   -8.5930   14.4450  -34.4520 N   0  0  0  0  0  0  0  0  0  0  0  0
   -8.5470   15.4100  -35.5660 C   0  0  0  0  0  0  0  0  0  0  0  0
   -9.0890   13.1220  -34.8270 C   0  0  2  0  0  0  0  0  0  0  0  0
   -9.2540   14.6710  -36.7020 C   0  0  1  0  0  0  0  0  0  0  0  0
   -7.9540   12.1060  -34.7500 C   0  0  2  0  0  0  0  0  0  0  0  0
   -9.5800   13.2630  -36.2440 C   0  0  2  0  0  0  0  0  0  0  0  0
  -10.6930   14.2350  -36.5490 C   0  0  0  0  0  0  0  0  0  0  0  0
   -8.3060   10.9400  -34.2130 N   0  0  0  0  0  0  0  0  0  0  0  0
   -6.7960   12.4060  -35.0600 O   0  0  0  0  0  0  0  0  0  0  0  0
  -11.5310   14.7790  -35.4150 C   0  0  0  0  0  0  0  0  0  0  0  0
  -11.5090   14.0530  -37.8150 C   0  0  0  0  0  0  0  0  0  0  0  0
   -7.3450    9.8640  -33.9670 C   0  0  2  0  0  0  0  0  0  0  0  0
   -7.7790    8.6510  -34.8260 C   0  0  2  0  0  0  0  0  0  0  0  0
   -7.2620    9.6380  -32.4590 C   0  0  0  0  0  0  0  0  0  0  0  0
   -6.7240    7.5570  -34.8770 C   0  0  0  0  0  0  0  0  0  0  0  0
   -8.0200    9.1050  -36.1750 O   0  0  0  0  0  0  0  0  0  0  0  0
   -9.3380    8.0100  -34.0010 R   0  0  0  0  0  0  0  0  0  0  0  0
   -6.5460   10.7690  -31.7170 C   0  0  2  0  0  0  0  0  0  0  0  0
   -6.3550    7.0790  -36.1900 N   0  0  0  0  0  0  0  0  0  0  0  0
   -6.1940    7.0820  -33.8870 O   0  0  0  0  0  0  0  0  0  0  0  0
   -5.1080   11.0020  -32.1640 C   0  0  0  0  0  0  0  0  0  0  0  0
   -6.4130   10.4980  -30.2370 C   0  0  0  0  0  0  0  0  0  0  0  0
   -4.3360   11.3780  -30.9010 C   0  0  0  0  0  0  0  0  0  0  0  0
   -5.2360   10.9640  -29.8330 N   0  0  0  0  0  0  0  0  0  0  0  0
   -7.2810    9.9600  -29.5060 O   0  0  0  0  0  0  0  0  0  0  0  0
  2  1  1  0
  3  1  1  6
  4  2  1  1
  3  5  1  0
  6  3  1  0
  4  7  1  0
  4  6  1  0
  5  8  1  0
  5  9  1  1
  6  7  1  1
  7 10  1  0
  7 11  1  0
  8 12  1  0
 13 12  1  0
 12 14  1  1
 15 13  1  0
 13 16  1  0
 13 17  1  1
 18 14  1  6
 15 19  1  0
 15 20  1  0
 18 21  1  0
 18 22  1  0
 21 23  1  0
 24 22  1  0
 22 25  1  0
 23 24  1  0
V   17 *
A    2
 C13
A    3
 C14
A    4
 C16
A    5
 C15
A    6
 C34
A    7
 C18
A    8
 N16
A    9
 O38
A   10
 C23
A   11
 C25
A   12
 C17
A   13
 C8 
A   14
 C19
A   15
 C1 
A   16
 O9 
A   17
 X  
A   18
 C20
A   19
 N2 
A   20
 O5 
A   21
 C21
A   22
 C24
A   23
 C22
A   24
 N23
A   25
 O26
M  END
>  <XChem_code>  (590) 
I70§2

>  <Occupancy>  (590) 
[1.0, 1.0, 1.0, 1.0, 1.0, 1.0, 1.0, 1.0, 1.0, 1.0, 1.0, 1.0, 1.0, 1.0, 1.0, 1.0, 1.0, 1.0, 1.0, 1.0, 1.0, 1.0, 1.0, 1.0, 1.0, 1.0, 1.0, 1.0, 1.0, 1.0, 1.0, 1.0, 1.0, 1.0, 1.0, 1.0, 1.0, 1.0, 1.0, 1.0]

>  <TempFactor>  (590) 
[39.88, 47.74, 47.6, 43.34, 41.2, 42.74, 42.84, 38.8, 38.28, 38.23, 36.42, 38.13, 35.96, 39.12, 39.61, 36.63, 35.46, 36.02, 40.94, 36.31, 36.8, 36.42, 33.49, 36.18, 34.36, 34.04, 41.73, 36.81, 34.52, 42.38, 42.33, 41.2, 40.48, 37.29, 39.85, 36.54, 36.22, 35.85, 36.77, 46.54]

>  <accession>  (590) 
7QUB_AAA

>  <description>  (590) 
Chain AAA, Protease 3C [Enterovirus A71]

>  <evalue>  (590) 
7.0500000000000002e-68

>  <pdb_code>  (590) 
7QUB

>  <chain>  (590) 
AAA

>  <ligands>  (590) 
[{'chain_id': 'AAA', 'author_residue_number': 201, 'author_insertion_code': '', 'chem_comp_id': 'I70', 'alternate_conformers': 0, 'entity_id': 2, 'struct_asym_id': 'B', 'residue_number': 1, 'chem_comp_name': '(1R,2S,5S)-N-{(2S,3R)-4-amino-3-hydroxy-4-oxo-1-[(3S)-2-oxopyrrolidin-3-yl]butan-2-yl}-3-[N-(tert-butylcarbamoyl)-3-methyl-L-valyl]-6,6-dimethyl-3-azabicyclo[3.1.0]hexane-2-carboxamide', 'weight': 550.691, 'carbohydrate_polymer': False, 'branch_name': ''}, {'chain_id': 'AAA', 'author_residue_number': 202, 'author_insertion_code': '', 'chem_comp_id': 'NA', 'alternate_conformers': 0, 'entity_id': 3, 'struct_asym_id': 'C', 'residue_number': 1, 'chem_comp_name': 'SODIUM ION', 'weight': 22.99, 'carbohydrate_polymer': False, 'branch_name': ''}]

>  <ligand_codes>  (590) 
['I70', 'NA']

>  <cofactor_codes>  (590) 
[]

>  <has_cofactor>  (590) 
False

>  <covalent>  (590) 
True

>  <base_name>  (590) 
7QUB

>  <lig_resn>  (590) 
I70

>  <lig_resi>  (590) 
201

>  <lig_chain>  (590) 
AAA

>  <lig_segi>  (590) 
B

>  <lig_alt>  (590) 


>  <polymer_chain>  (590) 
A

>  <single_smiles>  (590) 
CC(C)(C)NC(=O)N[C@H](C(=O)N1C[C@H]2[C@@H]([C@H]1C(=O)N[C@@H](C[C@@H]3CCNC3=O)[C@@H](O)C(N)=O)C2(C)C)C(C)(C)C

$$$$
I70P2S7
     RDKit          3D

 15 15  0  0  0  0  0  0  0  0999 V2000
   -8.3060   10.9400  -34.2130 N   0  0  0  0  0  0  0  0  0  0  0  0
   -7.3450    9.8640  -33.9670 C   0  0  2  0  0  0  0  0  0  0  0  0
   -7.7790    8.6510  -34.8260 C   0  0  2  0  0  0  0  0  0  0  0  0
   -7.2620    9.6380  -32.4590 C   0  0  0  0  0  0  0  0  0  0  0  0
   -6.7240    7.5570  -34.8770 C   0  0  0  0  0  0  0  0  0  0  0  0
   -8.0200    9.1050  -36.1750 O   0  0  0  0  0  0  0  0  0  0  0  0
   -9.3380    8.0100  -34.0010 R   0  0  0  0  0  0  0  0  0  0  0  0
   -6.5460   10.7690  -31.7170 C   0  0  2  0  0  0  0  0  0  0  0  0
   -6.3550    7.0790  -36.1900 N   0  0  0  0  0  0  0  0  0  0  0  0
   -6.1940    7.0820  -33.8870 O   0  0  0  0  0  0  0  0  0  0  0  0
   -5.1080   11.0020  -32.1640 C   0  0  0  0  0  0  0  0  0  0  0  0
   -6.4130   10.4980  -30.2370 C   0  0  0  0  0  0  0  0  0  0  0  0
   -4.3360   11.3780  -30.9010 C   0  0  0  0  0  0  0  0  0  0  0  0
   -5.2360   10.9640  -29.8330 N   0  0  0  0  0  0  0  0  0  0  0  0
   -7.2810    9.9600  -29.5060 O   0  0  0  0  0  0  0  0  0  0  0  0
  2  1  1  1
  3  2  1  0
  2  4  1  0
  5  3  1  0
  3  6  1  0
  3  7  1  1
  8  4  1  6
  5  9  1  0
  5 10  1  0
  8 11  1  0
  8 12  1  0
 11 13  1  0
 14 12  1  0
 12 15  1  0
 13 14  1  0
V    7 *
A    2
 C17
A    3
 C8 
A    4
 C19
A    5
 C1 
A    6
 O9 
A    7
 X  
A    8
 C20
A    9
 N2 
A   10
 O5 
A   11
 C21
A   12
 C24
A   13
 C22
A   14
 N23
A   15
 O26
M  END
>  <XChem_code>  (591) 
I70§2

>  <Occupancy>  (591) 
[1.0, 1.0, 1.0, 1.0, 1.0, 1.0, 1.0, 1.0, 1.0, 1.0, 1.0, 1.0, 1.0, 1.0, 1.0, 1.0, 1.0, 1.0, 1.0, 1.0, 1.0, 1.0, 1.0, 1.0, 1.0, 1.0, 1.0, 1.0, 1.0, 1.0, 1.0, 1.0, 1.0, 1.0, 1.0, 1.0, 1.0, 1.0, 1.0, 1.0]

>  <TempFactor>  (591) 
[39.88, 47.74, 47.6, 43.34, 41.2, 42.74, 42.84, 38.8, 38.28, 38.23, 36.42, 38.13, 35.96, 39.12, 39.61, 36.63, 35.46, 36.02, 40.94, 36.31, 36.8, 36.42, 33.49, 36.18, 34.36, 34.04, 41.73, 36.81, 34.52, 42.38, 42.33, 41.2, 40.48, 37.29, 39.85, 36.54, 36.22, 35.85, 36.77, 46.54]

>  <accession>  (591) 
7QUB_AAA

>  <description>  (591) 
Chain AAA, Protease 3C [Enterovirus A71]

>  <evalue>  (591) 
7.0500000000000002e-68

>  <pdb_code>  (591) 
7QUB

>  <chain>  (591) 
AAA

>  <ligands>  (591) 
[{'chain_id': 'AAA', 'author_residue_number': 201, 'author_insertion_code': '', 'chem_comp_id': 'I70', 'alternate_conformers': 0, 'entity_id': 2, 'struct_asym_id': 'B', 'residue_number': 1, 'chem_comp_name': '(1R,2S,5S)-N-{(2S,3R)-4-amino-3-hydroxy-4-oxo-1-[(3S)-2-oxopyrrolidin-3-yl]butan-2-yl}-3-[N-(tert-butylcarbamoyl)-3-methyl-L-valyl]-6,6-dimethyl-3-azabicyclo[3.1.0]hexane-2-carboxamide', 'weight': 550.691, 'carbohydrate_polymer': False, 'branch_name': ''}, {'chain_id': 'AAA', 'author_residue_number': 202, 'author_insertion_code': '', 'chem_comp_id': 'NA', 'alternate_conformers': 0, 'entity_id': 3, 'struct_asym_id': 'C', 'residue_number': 1, 'chem_comp_name': 'SODIUM ION', 'weight': 22.99, 'carbohydrate_polymer': False, 'branch_name': ''}]

>  <ligand_codes>  (591) 
['I70', 'NA']

>  <cofactor_codes>  (591) 
[]

>  <has_cofactor>  (591) 
False

>  <covalent>  (591) 
True

>  <base_name>  (591) 
7QUB

>  <lig_resn>  (591) 
I70

>  <lig_resi>  (591) 
201

>  <lig_chain>  (591) 
AAA

>  <lig_segi>  (591) 
B

>  <lig_alt>  (591) 


>  <polymer_chain>  (591) 
A

>  <single_smiles>  (591) 
CC(C)(C)NC(=O)N[C@H](C(=O)N1C[C@H]2[C@@H]([C@H]1C(=O)N[C@@H](C[C@@H]3CCNC3=O)[C@@H](O)C(N)=O)C2(C)C)C(C)(C)C

$$$$
I70P2S8
     RDKit          3D

 25 26  0  0  0  0  0  0  0  0999 V2000
   -7.9540   12.1060  -34.7500 C   0  0  0  0  0  0  0  0  0  0  0  0
   -9.0890   13.1220  -34.8270 C   0  0  1  0  0  0  0  0  0  0  0  0
   -6.7960   12.4060  -35.0600 O   0  0  0  0  0  0  0  0  0  0  0  0
   -8.5930   14.4450  -34.4520 N   0  0  0  0  0  0  0  0  0  0  0  0
   -9.5800   13.2630  -36.2440 C   0  0  2  0  0  0  0  0  0  0  0  0
   -8.1630   14.6430  -33.1990 C   0  0  0  0  0  0  0  0  0  0  0  0
   -8.5470   15.4100  -35.5660 C   0  0  0  0  0  0  0  0  0  0  0  0
   -9.2540   14.6710  -36.7020 C   0  0  2  0  0  0  0  0  0  0  0  0
  -10.6930   14.2350  -36.5490 C   0  0  0  0  0  0  0  0  0  0  0  0
   -7.4390   15.9640  -32.9440 C   0  0  1  0  0  0  0  0  0  0  0  0
   -8.3310   13.7970  -32.3050 O   0  0  0  0  0  0  0  0  0  0  0  0
  -11.5310   14.7790  -35.4150 C   0  0  0  0  0  0  0  0  0  0  0  0
  -11.5090   14.0530  -37.8150 C   0  0  0  0  0  0  0  0  0  0  0  0
   -8.0120   16.5180  -31.7410 N   0  0  0  0  0  0  0  0  0  0  0  0
   -5.8860   15.9050  -32.8920 C   0  0  0  0  0  0  0  0  0  0  0  0
   -9.3350   16.7390  -31.6320 C   0  0  0  0  0  0  0  0  0  0  0  0
   -5.2670   15.5850  -34.2610 C   0  0  0  0  0  0  0  0  0  0  0  0
   -5.3590   17.2790  -32.4720 C   0  0  0  0  0  0  0  0  0  0  0  0
   -5.4200   14.8480  -31.8910 C   0  0  0  0  0  0  0  0  0  0  0  0
   -9.7590   17.0040  -30.3830 N   0  0  0  0  0  0  0  0  0  0  0  0
  -10.0780   16.7320  -32.6140 O   0  0  0  0  0  0  0  0  0  0  0  0
  -11.1620   17.0450  -29.9270 C   0  0  0  0  0  0  0  0  0  0  0  0
  -11.7910   15.6780  -30.1870 C   0  0  0  0  0  0  0  0  0  0  0  0
  -11.0840   17.3350  -28.4360 C   0  0  0  0  0  0  0  0  0  0  0  0
  -11.9540   18.1520  -30.6230 C   0  0  0  0  0  0  0  0  0  0  0  0
  2  1  1  0
  1  3  1  1
  2  4  1  6
  5  2  1  0
  6  4  1  0
  7  4  1  0
  8  5  1  0
  5  9  1  1
 10  6  1  0
  6 11  1  0
  8  7  1  1
  8  9  1  0
  9 12  1  0
  9 13  1  0
 10 14  1  1
 10 15  1  0
 16 14  1  0
 15 17  1  0
 15 18  1  0
 15 19  1  0
 20 16  1  0
 16 21  1  0
 22 20  1  0
 22 23  1  0
 22 24  1  0
 22 25  1  0
A    2
 C14
A    3
 O38
A    4
 N13
A    5
 C34
A    6
 C12
A    7
 C13
A    8
 C16
A    9
 C18
A   10
 C11
A   11
 O33
A   12
 C23
A   13
 C25
A   14
 N10
A   15
 C30
A   16
 C9 
A   17
 C26
A   18
 C31
A   19
 C32
A   20
 N8 
A   21
 O29
A   22
 C7 
A   23
 C27
A   24
 C28
A   25
 C29
M  END
>  <XChem_code>  (592) 
I70§2

>  <Occupancy>  (592) 
[1.0, 1.0, 1.0, 1.0, 1.0, 1.0, 1.0, 1.0, 1.0, 1.0, 1.0, 1.0, 1.0, 1.0, 1.0, 1.0, 1.0, 1.0, 1.0, 1.0, 1.0, 1.0, 1.0, 1.0, 1.0, 1.0, 1.0, 1.0, 1.0, 1.0, 1.0, 1.0, 1.0, 1.0, 1.0, 1.0, 1.0, 1.0, 1.0, 1.0]

>  <TempFactor>  (592) 
[39.88, 47.74, 47.6, 43.34, 41.2, 42.74, 42.84, 38.8, 38.28, 38.23, 36.42, 38.13, 35.96, 39.12, 39.61, 36.63, 35.46, 36.02, 40.94, 36.31, 36.8, 36.42, 33.49, 36.18, 34.36, 34.04, 41.73, 36.81, 34.52, 42.38, 42.33, 41.2, 40.48, 37.29, 39.85, 36.54, 36.22, 35.85, 36.77, 46.54]

>  <accession>  (592) 
7QUB_AAA

>  <description>  (592) 
Chain AAA, Protease 3C [Enterovirus A71]

>  <evalue>  (592) 
7.0500000000000002e-68

>  <pdb_code>  (592) 
7QUB

>  <chain>  (592) 
AAA

>  <ligands>  (592) 
[{'chain_id': 'AAA', 'author_residue_number': 201, 'author_insertion_code': '', 'chem_comp_id': 'I70', 'alternate_conformers': 0, 'entity_id': 2, 'struct_asym_id': 'B', 'residue_number': 1, 'chem_comp_name': '(1R,2S,5S)-N-{(2S,3R)-4-amino-3-hydroxy-4-oxo-1-[(3S)-2-oxopyrrolidin-3-yl]butan-2-yl}-3-[N-(tert-butylcarbamoyl)-3-methyl-L-valyl]-6,6-dimethyl-3-azabicyclo[3.1.0]hexane-2-carboxamide', 'weight': 550.691, 'carbohydrate_polymer': False, 'branch_name': ''}, {'chain_id': 'AAA', 'author_residue_number': 202, 'author_insertion_code': '', 'chem_comp_id': 'NA', 'alternate_conformers': 0, 'entity_id': 3, 'struct_asym_id': 'C', 'residue_number': 1, 'chem_comp_name': 'SODIUM ION', 'weight': 22.99, 'carbohydrate_polymer': False, 'branch_name': ''}]

>  <ligand_codes>  (592) 
['I70', 'NA']

>  <cofactor_codes>  (592) 
[]

>  <has_cofactor>  (592) 
False

>  <covalent>  (592) 
True

>  <base_name>  (592) 
7QUB

>  <lig_resn>  (592) 
I70

>  <lig_resi>  (592) 
201

>  <lig_chain>  (592) 
AAA

>  <lig_segi>  (592) 
B

>  <lig_alt>  (592) 


>  <polymer_chain>  (592) 
A

>  <single_smiles>  (592) 
CC(C)(C)NC(=O)N[C@H](C(=O)N1C[C@H]2[C@@H]([C@H]1C(=O)N[C@@H](C[C@@H]3CCNC3=O)[C@@H](O)C(N)=O)C2(C)C)C(C)(C)C

$$$$
I70P2S9
     RDKit          3D

 14 14  0  0  0  0  0  0  0  0999 V2000
   -7.3450    9.8640  -33.9670 C   0  0  0  0  0  0  0  0  0  0  0  0
   -7.7790    8.6510  -34.8260 C   0  0  2  0  0  0  0  0  0  0  0  0
   -7.2620    9.6380  -32.4590 C   0  0  0  0  0  0  0  0  0  0  0  0
   -6.7240    7.5570  -34.8770 C   0  0  0  0  0  0  0  0  0  0  0  0
   -8.0200    9.1050  -36.1750 O   0  0  0  0  0  0  0  0  0  0  0  0
   -9.3380    8.0100  -34.0010 R   0  0  0  0  0  0  0  0  0  0  0  0
   -6.5460   10.7690  -31.7170 C   0  0  2  0  0  0  0  0  0  0  0  0
   -6.3550    7.0790  -36.1900 N   0  0  0  0  0  0  0  0  0  0  0  0
   -6.1940    7.0820  -33.8870 O   0  0  0  0  0  0  0  0  0  0  0  0
   -5.1080   11.0020  -32.1640 C   0  0  0  0  0  0  0  0  0  0  0  0
   -6.4130   10.4980  -30.2370 C   0  0  0  0  0  0  0  0  0  0  0  0
   -4.3360   11.3780  -30.9010 C   0  0  0  0  0  0  0  0  0  0  0  0
   -5.2360   10.9640  -29.8330 N   0  0  0  0  0  0  0  0  0  0  0  0
   -7.2810    9.9600  -29.5060 O   0  0  0  0  0  0  0  0  0  0  0  0
  2  1  1  0
  1  3  1  6
  4  2  1  0
  2  5  1  0
  2  6  1  1
  7  3  1  6
  4  8  1  0
  4  9  1  0
  7 10  1  0
  7 11  1  0
 10 12  1  0
 13 11  1  0
 11 14  1  0
 12 13  1  0
V    6 *
A    2
 C8 
A    3
 C19
A    4
 C1 
A    5
 O9 
A    6
 X  
A    7
 C20
A    8
 N2 
A    9
 O5 
A   10
 C21
A   11
 C24
A   12
 C22
A   13
 N23
A   14
 O26
M  END
>  <XChem_code>  (593) 
I70§2

>  <Occupancy>  (593) 
[1.0, 1.0, 1.0, 1.0, 1.0, 1.0, 1.0, 1.0, 1.0, 1.0, 1.0, 1.0, 1.0, 1.0, 1.0, 1.0, 1.0, 1.0, 1.0, 1.0, 1.0, 1.0, 1.0, 1.0, 1.0, 1.0, 1.0, 1.0, 1.0, 1.0, 1.0, 1.0, 1.0, 1.0, 1.0, 1.0, 1.0, 1.0, 1.0, 1.0]

>  <TempFactor>  (593) 
[39.88, 47.74, 47.6, 43.34, 41.2, 42.74, 42.84, 38.8, 38.28, 38.23, 36.42, 38.13, 35.96, 39.12, 39.61, 36.63, 35.46, 36.02, 40.94, 36.31, 36.8, 36.42, 33.49, 36.18, 34.36, 34.04, 41.73, 36.81, 34.52, 42.38, 42.33, 41.2, 40.48, 37.29, 39.85, 36.54, 36.22, 35.85, 36.77, 46.54]

>  <accession>  (593) 
7QUB_AAA

>  <description>  (593) 
Chain AAA, Protease 3C [Enterovirus A71]

>  <evalue>  (593) 
7.0500000000000002e-68

>  <pdb_code>  (593) 
7QUB

>  <chain>  (593) 
AAA

>  <ligands>  (593) 
[{'chain_id': 'AAA', 'author_residue_number': 201, 'author_insertion_code': '', 'chem_comp_id': 'I70', 'alternate_conformers': 0, 'entity_id': 2, 'struct_asym_id': 'B', 'residue_number': 1, 'chem_comp_name': '(1R,2S,5S)-N-{(2S,3R)-4-amino-3-hydroxy-4-oxo-1-[(3S)-2-oxopyrrolidin-3-yl]butan-2-yl}-3-[N-(tert-butylcarbamoyl)-3-methyl-L-valyl]-6,6-dimethyl-3-azabicyclo[3.1.0]hexane-2-carboxamide', 'weight': 550.691, 'carbohydrate_polymer': False, 'branch_name': ''}, {'chain_id': 'AAA', 'author_residue_number': 202, 'author_insertion_code': '', 'chem_comp_id': 'NA', 'alternate_conformers': 0, 'entity_id': 3, 'struct_asym_id': 'C', 'residue_number': 1, 'chem_comp_name': 'SODIUM ION', 'weight': 22.99, 'carbohydrate_polymer': False, 'branch_name': ''}]

>  <ligand_codes>  (593) 
['I70', 'NA']

>  <cofactor_codes>  (593) 
[]

>  <has_cofactor>  (593) 
False

>  <covalent>  (593) 
True

>  <base_name>  (593) 
7QUB

>  <lig_resn>  (593) 
I70

>  <lig_resi>  (593) 
201

>  <lig_chain>  (593) 
AAA

>  <lig_segi>  (593) 
B

>  <lig_alt>  (593) 


>  <polymer_chain>  (593) 
A

>  <single_smiles>  (593) 
CC(C)(C)NC(=O)N[C@H](C(=O)N1C[C@H]2[C@@H]([C@H]1C(=O)N[C@@H](C[C@@H]3CCNC3=O)[C@@H](O)C(N)=O)C2(C)C)C(C)(C)C

$$$$
I70P2S10
     RDKit          3D

 26 27  0  0  0  0  0  0  0  0999 V2000
   -8.3060   10.9400  -34.2130 N   0  0  0  0  0  0  0  0  0  0  0  0
   -7.9540   12.1060  -34.7500 C   0  0  1  0  0  0  0  0  0  0  0  0
   -9.0890   13.1220  -34.8270 C   0  0  1  0  0  0  0  0  0  0  0  0
   -6.7960   12.4060  -35.0600 O   0  0  0  0  0  0  0  0  0  0  0  0
   -8.5930   14.4450  -34.4520 N   0  0  0  0  0  0  0  0  0  0  0  0
   -9.5800   13.2630  -36.2440 C   0  0  2  0  0  0  0  0  0  0  0  0
   -8.1630   14.6430  -33.1990 C   0  0  0  0  0  0  0  0  0  0  0  0
   -8.5470   15.4100  -35.5660 C   0  0  0  0  0  0  0  0  0  0  0  0
   -9.2540   14.6710  -36.7020 C   0  0  2  0  0  0  0  0  0  0  0  0
  -10.6930   14.2350  -36.5490 C   0  0  0  0  0  0  0  0  0  0  0  0
   -7.4390   15.9640  -32.9440 C   0  0  1  0  0  0  0  0  0  0  0  0
   -8.3310   13.7970  -32.3050 O   0  0  0  0  0  0  0  0  0  0  0  0
  -11.5310   14.7790  -35.4150 C   0  0  0  0  0  0  0  0  0  0  0  0
  -11.5090   14.0530  -37.8150 C   0  0  0  0  0  0  0  0  0  0  0  0
   -8.0120   16.5180  -31.7410 N   0  0  0  0  0  0  0  0  0  0  0  0
   -5.8860   15.9050  -32.8920 C   0  0  0  0  0  0  0  0  0  0  0  0
   -9.3350   16.7390  -31.6320 C   0  0  0  0  0  0  0  0  0  0  0  0
   -5.2670   15.5850  -34.2610 C   0  0  0  0  0  0  0  0  0  0  0  0
   -5.3590   17.2790  -32.4720 C   0  0  0  0  0  0  0  0  0  0  0  0
   -5.4200   14.8480  -31.8910 C   0  0  0  0  0  0  0  0  0  0  0  0
   -9.7590   17.0040  -30.3830 N   0  0  0  0  0  0  0  0  0  0  0  0
  -10.0780   16.7320  -32.6140 O   0  0  0  0  0  0  0  0  0  0  0  0
  -11.1620   17.0450  -29.9270 C   0  0  0  0  0  0  0  0  0  0  0  0
  -11.7910   15.6780  -30.1870 C   0  0  0  0  0  0  0  0  0  0  0  0
  -11.0840   17.3350  -28.4360 C   0  0  0  0  0  0  0  0  0  0  0  0
  -11.9540   18.1520  -30.6230 C   0  0  0  0  0  0  0  0  0  0  0  0
  2  1  1  1
  3  2  1  0
  2  4  1  0
  3  5  1  6
  6  3  1  0
  7  5  1  0
  8  5  1  0
  9  6  1  0
  6 10  1  1
 11  7  1  0
  7 12  1  0
  9  8  1  1
  9 10  1  0
 10 13  1  0
 10 14  1  0
 11 15  1  1
 11 16  1  0
 17 15  1  0
 16 18  1  0
 16 19  1  0
 16 20  1  0
 21 17  1  0
 17 22  1  0
 23 21  1  0
 23 24  1  0
 23 25  1  0
 23 26  1  0
A    2
 C15
A    3
 C14
A    4
 O38
A    5
 N13
A    6
 C34
A    7
 C12
A    8
 C13
A    9
 C16
A   10
 C18
A   11
 C11
A   12
 O33
A   13
 C23
A   14
 C25
A   15
 N10
A   16
 C30
A   17
 C9 
A   18
 C26
A   19
 C31
A   20
 C32
A   21
 N8 
A   22
 O29
A   23
 C7 
A   24
 C27
A   25
 C28
A   26
 C29
M  END
>  <XChem_code>  (594) 
I70§2

>  <Occupancy>  (594) 
[1.0, 1.0, 1.0, 1.0, 1.0, 1.0, 1.0, 1.0, 1.0, 1.0, 1.0, 1.0, 1.0, 1.0, 1.0, 1.0, 1.0, 1.0, 1.0, 1.0, 1.0, 1.0, 1.0, 1.0, 1.0, 1.0, 1.0, 1.0, 1.0, 1.0, 1.0, 1.0, 1.0, 1.0, 1.0, 1.0, 1.0, 1.0, 1.0, 1.0]

>  <TempFactor>  (594) 
[39.88, 47.74, 47.6, 43.34, 41.2, 42.74, 42.84, 38.8, 38.28, 38.23, 36.42, 38.13, 35.96, 39.12, 39.61, 36.63, 35.46, 36.02, 40.94, 36.31, 36.8, 36.42, 33.49, 36.18, 34.36, 34.04, 41.73, 36.81, 34.52, 42.38, 42.33, 41.2, 40.48, 37.29, 39.85, 36.54, 36.22, 35.85, 36.77, 46.54]

>  <accession>  (594) 
7QUB_AAA

>  <description>  (594) 
Chain AAA, Protease 3C [Enterovirus A71]

>  <evalue>  (594) 
7.0500000000000002e-68

>  <pdb_code>  (594) 
7QUB

>  <chain>  (594) 
AAA

>  <ligands>  (594) 
[{'chain_id': 'AAA', 'author_residue_number': 201, 'author_insertion_code': '', 'chem_comp_id': 'I70', 'alternate_conformers': 0, 'entity_id': 2, 'struct_asym_id': 'B', 'residue_number': 1, 'chem_comp_name': '(1R,2S,5S)-N-{(2S,3R)-4-amino-3-hydroxy-4-oxo-1-[(3S)-2-oxopyrrolidin-3-yl]butan-2-yl}-3-[N-(tert-butylcarbamoyl)-3-methyl-L-valyl]-6,6-dimethyl-3-azabicyclo[3.1.0]hexane-2-carboxamide', 'weight': 550.691, 'carbohydrate_polymer': False, 'branch_name': ''}, {'chain_id': 'AAA', 'author_residue_number': 202, 'author_insertion_code': '', 'chem_comp_id': 'NA', 'alternate_conformers': 0, 'entity_id': 3, 'struct_asym_id': 'C', 'residue_number': 1, 'chem_comp_name': 'SODIUM ION', 'weight': 22.99, 'carbohydrate_polymer': False, 'branch_name': ''}]

>  <ligand_codes>  (594) 
['I70', 'NA']

>  <cofactor_codes>  (594) 
[]

>  <has_cofactor>  (594) 
False

>  <covalent>  (594) 
True

>  <base_name>  (594) 
7QUB

>  <lig_resn>  (594) 
I70

>  <lig_resi>  (594) 
201

>  <lig_chain>  (594) 
AAA

>  <lig_segi>  (594) 
B

>  <lig_alt>  (594) 


>  <polymer_chain>  (594) 
A

>  <single_smiles>  (594) 
CC(C)(C)NC(=O)N[C@H](C(=O)N1C[C@H]2[C@@H]([C@H]1C(=O)N[C@@H](C[C@@H]3CCNC3=O)[C@@H](O)C(N)=O)C2(C)C)C(C)(C)C

$$$$
I70P2S11
     RDKit          3D

  4  3  0  0  0  0  0  0  0  0999 V2000
   -8.0120   16.5180  -31.7410 N   0  0  0  0  0  0  0  0  0  0  0  0
   -9.3350   16.7390  -31.6320 C   0  0  0  0  0  0  0  0  0  0  0  0
   -9.7590   17.0040  -30.3830 N   0  0  0  0  0  0  0  0  0  0  0  0
  -10.0780   16.7320  -32.6140 O   0  0  0  0  0  0  0  0  0  0  0  0
  2  1  1  0
  3  2  1  0
  2  4  1  0
A    2
 C9 
A    4
 O29
M  END
>  <XChem_code>  (595) 
I70§2

>  <Occupancy>  (595) 
[1.0, 1.0, 1.0, 1.0, 1.0, 1.0, 1.0, 1.0, 1.0, 1.0, 1.0, 1.0, 1.0, 1.0, 1.0, 1.0, 1.0, 1.0, 1.0, 1.0, 1.0, 1.0, 1.0, 1.0, 1.0, 1.0, 1.0, 1.0, 1.0, 1.0, 1.0, 1.0, 1.0, 1.0, 1.0, 1.0, 1.0, 1.0, 1.0, 1.0]

>  <TempFactor>  (595) 
[39.88, 47.74, 47.6, 43.34, 41.2, 42.74, 42.84, 38.8, 38.28, 38.23, 36.42, 38.13, 35.96, 39.12, 39.61, 36.63, 35.46, 36.02, 40.94, 36.31, 36.8, 36.42, 33.49, 36.18, 34.36, 34.04, 41.73, 36.81, 34.52, 42.38, 42.33, 41.2, 40.48, 37.29, 39.85, 36.54, 36.22, 35.85, 36.77, 46.54]

>  <accession>  (595) 
7QUB_AAA

>  <description>  (595) 
Chain AAA, Protease 3C [Enterovirus A71]

>  <evalue>  (595) 
7.0500000000000002e-68

>  <pdb_code>  (595) 
7QUB

>  <chain>  (595) 
AAA

>  <ligands>  (595) 
[{'chain_id': 'AAA', 'author_residue_number': 201, 'author_insertion_code': '', 'chem_comp_id': 'I70', 'alternate_conformers': 0, 'entity_id': 2, 'struct_asym_id': 'B', 'residue_number': 1, 'chem_comp_name': '(1R,2S,5S)-N-{(2S,3R)-4-amino-3-hydroxy-4-oxo-1-[(3S)-2-oxopyrrolidin-3-yl]butan-2-yl}-3-[N-(tert-butylcarbamoyl)-3-methyl-L-valyl]-6,6-dimethyl-3-azabicyclo[3.1.0]hexane-2-carboxamide', 'weight': 550.691, 'carbohydrate_polymer': False, 'branch_name': ''}, {'chain_id': 'AAA', 'author_residue_number': 202, 'author_insertion_code': '', 'chem_comp_id': 'NA', 'alternate_conformers': 0, 'entity_id': 3, 'struct_asym_id': 'C', 'residue_number': 1, 'chem_comp_name': 'SODIUM ION', 'weight': 22.99, 'carbohydrate_polymer': False, 'branch_name': ''}]

>  <ligand_codes>  (595) 
['I70', 'NA']

>  <cofactor_codes>  (595) 
[]

>  <has_cofactor>  (595) 
False

>  <covalent>  (595) 
True

>  <base_name>  (595) 
7QUB

>  <lig_resn>  (595) 
I70

>  <lig_resi>  (595) 
201

>  <lig_chain>  (595) 
AAA

>  <lig_segi>  (595) 
B

>  <lig_alt>  (595) 


>  <polymer_chain>  (595) 
A

>  <single_smiles>  (595) 
CC(C)(C)NC(=O)N[C@H](C(=O)N1C[C@H]2[C@@H]([C@H]1C(=O)N[C@@H](C[C@@H]3CCNC3=O)[C@@H](O)C(N)=O)C2(C)C)C(C)(C)C

$$$$
I70P2S12
     RDKit          3D

 11 10  0  0  0  0  0  0  0  0999 V2000
   -8.1630   14.6430  -33.1990 C   0  0  0  0  0  0  0  0  0  0  0  0
   -7.4390   15.9640  -32.9440 C   0  0  1  0  0  0  0  0  0  0  0  0
   -8.3310   13.7970  -32.3050 O   0  0  0  0  0  0  0  0  0  0  0  0
   -8.0120   16.5180  -31.7410 N   0  0  0  0  0  0  0  0  0  0  0  0
   -5.8860   15.9050  -32.8920 C   0  0  0  0  0  0  0  0  0  0  0  0
   -9.3350   16.7390  -31.6320 C   0  0  0  0  0  0  0  0  0  0  0  0
   -5.2670   15.5850  -34.2610 C   0  0  0  0  0  0  0  0  0  0  0  0
   -5.3590   17.2790  -32.4720 C   0  0  0  0  0  0  0  0  0  0  0  0
   -5.4200   14.8480  -31.8910 C   0  0  0  0  0  0  0  0  0  0  0  0
   -9.7590   17.0040  -30.3830 N   0  0  0  0  0  0  0  0  0  0  0  0
  -10.0780   16.7320  -32.6140 O   0  0  0  0  0  0  0  0  0  0  0  0
  2  1  1  1
  1  3  1  0
  2  4  1  0
  2  5  1  0
  6  4  1  0
  5  7  1  0
  5  8  1  0
  5  9  1  0
 10  6  1  0
  6 11  1  0
A    2
 C11
A    3
 O33
A    4
 N10
A    5
 C30
A    6
 C9 
A    7
 C26
A    8
 C31
A    9
 C32
A   11
 O29
M  END
>  <XChem_code>  (596) 
I70§2

>  <Occupancy>  (596) 
[1.0, 1.0, 1.0, 1.0, 1.0, 1.0, 1.0, 1.0, 1.0, 1.0, 1.0, 1.0, 1.0, 1.0, 1.0, 1.0, 1.0, 1.0, 1.0, 1.0, 1.0, 1.0, 1.0, 1.0, 1.0, 1.0, 1.0, 1.0, 1.0, 1.0, 1.0, 1.0, 1.0, 1.0, 1.0, 1.0, 1.0, 1.0, 1.0, 1.0]

>  <TempFactor>  (596) 
[39.88, 47.74, 47.6, 43.34, 41.2, 42.74, 42.84, 38.8, 38.28, 38.23, 36.42, 38.13, 35.96, 39.12, 39.61, 36.63, 35.46, 36.02, 40.94, 36.31, 36.8, 36.42, 33.49, 36.18, 34.36, 34.04, 41.73, 36.81, 34.52, 42.38, 42.33, 41.2, 40.48, 37.29, 39.85, 36.54, 36.22, 35.85, 36.77, 46.54]

>  <accession>  (596) 
7QUB_AAA

>  <description>  (596) 
Chain AAA, Protease 3C [Enterovirus A71]

>  <evalue>  (596) 
7.0500000000000002e-68

>  <pdb_code>  (596) 
7QUB

>  <chain>  (596) 
AAA

>  <ligands>  (596) 
[{'chain_id': 'AAA', 'author_residue_number': 201, 'author_insertion_code': '', 'chem_comp_id': 'I70', 'alternate_conformers': 0, 'entity_id': 2, 'struct_asym_id': 'B', 'residue_number': 1, 'chem_comp_name': '(1R,2S,5S)-N-{(2S,3R)-4-amino-3-hydroxy-4-oxo-1-[(3S)-2-oxopyrrolidin-3-yl]butan-2-yl}-3-[N-(tert-butylcarbamoyl)-3-methyl-L-valyl]-6,6-dimethyl-3-azabicyclo[3.1.0]hexane-2-carboxamide', 'weight': 550.691, 'carbohydrate_polymer': False, 'branch_name': ''}, {'chain_id': 'AAA', 'author_residue_number': 202, 'author_insertion_code': '', 'chem_comp_id': 'NA', 'alternate_conformers': 0, 'entity_id': 3, 'struct_asym_id': 'C', 'residue_number': 1, 'chem_comp_name': 'SODIUM ION', 'weight': 22.99, 'carbohydrate_polymer': False, 'branch_name': ''}]

>  <ligand_codes>  (596) 
['I70', 'NA']

>  <cofactor_codes>  (596) 
[]

>  <has_cofactor>  (596) 
False

>  <covalent>  (596) 
True

>  <base_name>  (596) 
7QUB

>  <lig_resn>  (596) 
I70

>  <lig_resi>  (596) 
201

>  <lig_chain>  (596) 
AAA

>  <lig_segi>  (596) 
B

>  <lig_alt>  (596) 


>  <polymer_chain>  (596) 
A

>  <single_smiles>  (596) 
CC(C)(C)NC(=O)N[C@H](C(=O)N1C[C@H]2[C@@H]([C@H]1C(=O)N[C@@H](C[C@@H]3CCNC3=O)[C@@H](O)C(N)=O)C2(C)C)C(C)(C)C

$$$$
I70P2S13
     RDKit          3D

 21 22  0  0  0  0  0  0  0  0999 V2000
   -7.9540   12.1060  -34.7500 C   0  0  0  0  0  0  0  0  0  0  0  0
   -9.0890   13.1220  -34.8270 C   0  0  1  0  0  0  0  0  0  0  0  0
   -6.7960   12.4060  -35.0600 O   0  0  0  0  0  0  0  0  0  0  0  0
   -8.5930   14.4450  -34.4520 N   0  0  0  0  0  0  0  0  0  0  0  0
   -9.5800   13.2630  -36.2440 C   0  0  2  0  0  0  0  0  0  0  0  0
   -8.1630   14.6430  -33.1990 C   0  0  0  0  0  0  0  0  0  0  0  0
   -8.5470   15.4100  -35.5660 C   0  0  0  0  0  0  0  0  0  0  0  0
   -9.2540   14.6710  -36.7020 C   0  0  2  0  0  0  0  0  0  0  0  0
  -10.6930   14.2350  -36.5490 C   0  0  0  0  0  0  0  0  0  0  0  0
   -7.4390   15.9640  -32.9440 C   0  0  1  0  0  0  0  0  0  0  0  0
   -8.3310   13.7970  -32.3050 O   0  0  0  0  0  0  0  0  0  0  0  0
  -11.5310   14.7790  -35.4150 C   0  0  0  0  0  0  0  0  0  0  0  0
  -11.5090   14.0530  -37.8150 C   0  0  0  0  0  0  0  0  0  0  0  0
   -8.0120   16.5180  -31.7410 N   0  0  0  0  0  0  0  0  0  0  0  0
   -5.8860   15.9050  -32.8920 C   0  0  0  0  0  0  0  0  0  0  0  0
   -9.3350   16.7390  -31.6320 C   0  0  0  0  0  0  0  0  0  0  0  0
   -5.2670   15.5850  -34.2610 C   0  0  0  0  0  0  0  0  0  0  0  0
   -5.3590   17.2790  -32.4720 C   0  0  0  0  0  0  0  0  0  0  0  0
   -5.4200   14.8480  -31.8910 C   0  0  0  0  0  0  0  0  0  0  0  0
   -9.7590   17.0040  -30.3830 N   0  0  0  0  0  0  0  0  0  0  0  0
  -10.0780   16.7320  -32.6140 O   0  0  0  0  0  0  0  0  0  0  0  0
  2  1  1  0
  1  3  1  1
  2  4  1  6
  5  2  1  0
  6  4  1  0
  7  4  1  0
  8  5  1  0
  5  9  1  1
 10  6  1  0
  6 11  1  0
  8  7  1  1
  8  9  1  0
  9 12  1  0
  9 13  1  0
 10 14  1  1
 10 15  1  0
 16 14  1  0
 15 17  1  0
 15 18  1  0
 15 19  1  0
 20 16  1  0
 16 21  1  0
A    2
 C14
A    3
 O38
A    4
 N13
A    5
 C34
A    6
 C12
A    7
 C13
A    8
 C16
A    9
 C18
A   10
 C11
A   11
 O33
A   12
 C23
A   13
 C25
A   14
 N10
A   15
 C30
A   16
 C9 
A   17
 C26
A   18
 C31
A   19
 C32
A   21
 O29
M  END
>  <XChem_code>  (597) 
I70§2

>  <Occupancy>  (597) 
[1.0, 1.0, 1.0, 1.0, 1.0, 1.0, 1.0, 1.0, 1.0, 1.0, 1.0, 1.0, 1.0, 1.0, 1.0, 1.0, 1.0, 1.0, 1.0, 1.0, 1.0, 1.0, 1.0, 1.0, 1.0, 1.0, 1.0, 1.0, 1.0, 1.0, 1.0, 1.0, 1.0, 1.0, 1.0, 1.0, 1.0, 1.0, 1.0, 1.0]

>  <TempFactor>  (597) 
[39.88, 47.74, 47.6, 43.34, 41.2, 42.74, 42.84, 38.8, 38.28, 38.23, 36.42, 38.13, 35.96, 39.12, 39.61, 36.63, 35.46, 36.02, 40.94, 36.31, 36.8, 36.42, 33.49, 36.18, 34.36, 34.04, 41.73, 36.81, 34.52, 42.38, 42.33, 41.2, 40.48, 37.29, 39.85, 36.54, 36.22, 35.85, 36.77, 46.54]

>  <accession>  (597) 
7QUB_AAA

>  <description>  (597) 
Chain AAA, Protease 3C [Enterovirus A71]

>  <evalue>  (597) 
7.0500000000000002e-68

>  <pdb_code>  (597) 
7QUB

>  <chain>  (597) 
AAA

>  <ligands>  (597) 
[{'chain_id': 'AAA', 'author_residue_number': 201, 'author_insertion_code': '', 'chem_comp_id': 'I70', 'alternate_conformers': 0, 'entity_id': 2, 'struct_asym_id': 'B', 'residue_number': 1, 'chem_comp_name': '(1R,2S,5S)-N-{(2S,3R)-4-amino-3-hydroxy-4-oxo-1-[(3S)-2-oxopyrrolidin-3-yl]butan-2-yl}-3-[N-(tert-butylcarbamoyl)-3-methyl-L-valyl]-6,6-dimethyl-3-azabicyclo[3.1.0]hexane-2-carboxamide', 'weight': 550.691, 'carbohydrate_polymer': False, 'branch_name': ''}, {'chain_id': 'AAA', 'author_residue_number': 202, 'author_insertion_code': '', 'chem_comp_id': 'NA', 'alternate_conformers': 0, 'entity_id': 3, 'struct_asym_id': 'C', 'residue_number': 1, 'chem_comp_name': 'SODIUM ION', 'weight': 22.99, 'carbohydrate_polymer': False, 'branch_name': ''}]

>  <ligand_codes>  (597) 
['I70', 'NA']

>  <cofactor_codes>  (597) 
[]

>  <has_cofactor>  (597) 
False

>  <covalent>  (597) 
True

>  <base_name>  (597) 
7QUB

>  <lig_resn>  (597) 
I70

>  <lig_resi>  (597) 
201

>  <lig_chain>  (597) 
AAA

>  <lig_segi>  (597) 
B

>  <lig_alt>  (597) 


>  <polymer_chain>  (597) 
A

>  <single_smiles>  (597) 
CC(C)(C)NC(=O)N[C@H](C(=O)N1C[C@H]2[C@@H]([C@H]1C(=O)N[C@@H](C[C@@H]3CCNC3=O)[C@@H](O)C(N)=O)C2(C)C)C(C)(C)C

$$$$
I70P2S14
     RDKit          3D

 22 23  0  0  0  0  0  0  0  0999 V2000
   -8.3060   10.9400  -34.2130 N   0  0  0  0  0  0  0  0  0  0  0  0
   -7.9540   12.1060  -34.7500 C   0  0  1  0  0  0  0  0  0  0  0  0
   -9.0890   13.1220  -34.8270 C   0  0  1  0  0  0  0  0  0  0  0  0
   -6.7960   12.4060  -35.0600 O   0  0  0  0  0  0  0  0  0  0  0  0
   -8.5930   14.4450  -34.4520 N   0  0  0  0  0  0  0  0  0  0  0  0
   -9.5800   13.2630  -36.2440 C   0  0  2  0  0  0  0  0  0  0  0  0
   -8.1630   14.6430  -33.1990 C   0  0  0  0  0  0  0  0  0  0  0  0
   -8.5470   15.4100  -35.5660 C   0  0  0  0  0  0  0  0  0  0  0  0
   -9.2540   14.6710  -36.7020 C   0  0  2  0  0  0  0  0  0  0  0  0
  -10.6930   14.2350  -36.5490 C   0  0  0  0  0  0  0  0  0  0  0  0
   -7.4390   15.9640  -32.9440 C   0  0  1  0  0  0  0  0  0  0  0  0
   -8.3310   13.7970  -32.3050 O   0  0  0  0  0  0  0  0  0  0  0  0
  -11.5310   14.7790  -35.4150 C   0  0  0  0  0  0  0  0  0  0  0  0
  -11.5090   14.0530  -37.8150 C   0  0  0  0  0  0  0  0  0  0  0  0
   -8.0120   16.5180  -31.7410 N   0  0  0  0  0  0  0  0  0  0  0  0
   -5.8860   15.9050  -32.8920 C   0  0  0  0  0  0  0  0  0  0  0  0
   -9.3350   16.7390  -31.6320 C   0  0  0  0  0  0  0  0  0  0  0  0
   -5.2670   15.5850  -34.2610 C   0  0  0  0  0  0  0  0  0  0  0  0
   -5.3590   17.2790  -32.4720 C   0  0  0  0  0  0  0  0  0  0  0  0
   -5.4200   14.8480  -31.8910 C   0  0  0  0  0  0  0  0  0  0  0  0
   -9.7590   17.0040  -30.3830 N   0  0  0  0  0  0  0  0  0  0  0  0
  -10.0780   16.7320  -32.6140 O   0  0  0  0  0  0  0  0  0  0  0  0
  2  1  1  1
  3  2  1  0
  2  4  1  0
  3  5  1  6
  6  3  1  0
  7  5  1  0
  8  5  1  0
  9  6  1  0
  6 10  1  1
 11  7  1  0
  7 12  1  0
  9  8  1  1
  9 10  1  0
 10 13  1  0
 10 14  1  0
 11 15  1  1
 11 16  1  0
 17 15  1  0
 16 18  1  0
 16 19  1  0
 16 20  1  0
 21 17  1  0
 17 22  1  0
A    2
 C15
A    3
 C14
A    4
 O38
A    5
 N13
A    6
 C34
A    7
 C12
A    8
 C13
A    9
 C16
A   10
 C18
A   11
 C11
A   12
 O33
A   13
 C23
A   14
 C25
A   15
 N10
A   16
 C30
A   17
 C9 
A   18
 C26
A   19
 C31
A   20
 C32
A   22
 O29
M  END
>  <XChem_code>  (598) 
I70§2

>  <Occupancy>  (598) 
[1.0, 1.0, 1.0, 1.0, 1.0, 1.0, 1.0, 1.0, 1.0, 1.0, 1.0, 1.0, 1.0, 1.0, 1.0, 1.0, 1.0, 1.0, 1.0, 1.0, 1.0, 1.0, 1.0, 1.0, 1.0, 1.0, 1.0, 1.0, 1.0, 1.0, 1.0, 1.0, 1.0, 1.0, 1.0, 1.0, 1.0, 1.0, 1.0, 1.0]

>  <TempFactor>  (598) 
[39.88, 47.74, 47.6, 43.34, 41.2, 42.74, 42.84, 38.8, 38.28, 38.23, 36.42, 38.13, 35.96, 39.12, 39.61, 36.63, 35.46, 36.02, 40.94, 36.31, 36.8, 36.42, 33.49, 36.18, 34.36, 34.04, 41.73, 36.81, 34.52, 42.38, 42.33, 41.2, 40.48, 37.29, 39.85, 36.54, 36.22, 35.85, 36.77, 46.54]

>  <accession>  (598) 
7QUB_AAA

>  <description>  (598) 
Chain AAA, Protease 3C [Enterovirus A71]

>  <evalue>  (598) 
7.0500000000000002e-68

>  <pdb_code>  (598) 
7QUB

>  <chain>  (598) 
AAA

>  <ligands>  (598) 
[{'chain_id': 'AAA', 'author_residue_number': 201, 'author_insertion_code': '', 'chem_comp_id': 'I70', 'alternate_conformers': 0, 'entity_id': 2, 'struct_asym_id': 'B', 'residue_number': 1, 'chem_comp_name': '(1R,2S,5S)-N-{(2S,3R)-4-amino-3-hydroxy-4-oxo-1-[(3S)-2-oxopyrrolidin-3-yl]butan-2-yl}-3-[N-(tert-butylcarbamoyl)-3-methyl-L-valyl]-6,6-dimethyl-3-azabicyclo[3.1.0]hexane-2-carboxamide', 'weight': 550.691, 'carbohydrate_polymer': False, 'branch_name': ''}, {'chain_id': 'AAA', 'author_residue_number': 202, 'author_insertion_code': '', 'chem_comp_id': 'NA', 'alternate_conformers': 0, 'entity_id': 3, 'struct_asym_id': 'C', 'residue_number': 1, 'chem_comp_name': 'SODIUM ION', 'weight': 22.99, 'carbohydrate_polymer': False, 'branch_name': ''}]

>  <ligand_codes>  (598) 
['I70', 'NA']

>  <cofactor_codes>  (598) 
[]

>  <has_cofactor>  (598) 
False

>  <covalent>  (598) 
True

>  <base_name>  (598) 
7QUB

>  <lig_resn>  (598) 
I70

>  <lig_resi>  (598) 
201

>  <lig_chain>  (598) 
AAA

>  <lig_segi>  (598) 
B

>  <lig_alt>  (598) 


>  <polymer_chain>  (598) 
A

>  <single_smiles>  (598) 
CC(C)(C)NC(=O)N[C@H](C(=O)N1C[C@H]2[C@@H]([C@H]1C(=O)N[C@@H](C[C@@H]3CCNC3=O)[C@@H](O)C(N)=O)C2(C)C)C(C)(C)C

$$$$
I70P2S15
     RDKit          3D

  7  6  0  0  0  0  0  0  0  0999 V2000
   -8.1630   14.6430  -33.1990 C   0  0  0  0  0  0  0  0  0  0  0  0
   -7.4390   15.9640  -32.9440 C   0  0  0  0  0  0  0  0  0  0  0  0
   -8.3310   13.7970  -32.3050 O   0  0  0  0  0  0  0  0  0  0  0  0
   -5.8860   15.9050  -32.8920 C   0  0  0  0  0  0  0  0  0  0  0  0
   -5.2670   15.5850  -34.2610 C   0  0  0  0  0  0  0  0  0  0  0  0
   -5.3590   17.2790  -32.4720 C   0  0  0  0  0  0  0  0  0  0  0  0
   -5.4200   14.8480  -31.8910 C   0  0  0  0  0  0  0  0  0  0  0  0
  2  1  1  1
  1  3  1  0
  2  4  1  0
  4  5  1  0
  4  6  1  0
  4  7  1  0
A    3
 O33
A    4
 C30
A    5
 C26
A    6
 C31
A    7
 C32
M  END
>  <XChem_code>  (599) 
I70§2

>  <Occupancy>  (599) 
[1.0, 1.0, 1.0, 1.0, 1.0, 1.0, 1.0, 1.0, 1.0, 1.0, 1.0, 1.0, 1.0, 1.0, 1.0, 1.0, 1.0, 1.0, 1.0, 1.0, 1.0, 1.0, 1.0, 1.0, 1.0, 1.0, 1.0, 1.0, 1.0, 1.0, 1.0, 1.0, 1.0, 1.0, 1.0, 1.0, 1.0, 1.0, 1.0, 1.0]

>  <TempFactor>  (599) 
[39.88, 47.74, 47.6, 43.34, 41.2, 42.74, 42.84, 38.8, 38.28, 38.23, 36.42, 38.13, 35.96, 39.12, 39.61, 36.63, 35.46, 36.02, 40.94, 36.31, 36.8, 36.42, 33.49, 36.18, 34.36, 34.04, 41.73, 36.81, 34.52, 42.38, 42.33, 41.2, 40.48, 37.29, 39.85, 36.54, 36.22, 35.85, 36.77, 46.54]

>  <accession>  (599) 
7QUB_AAA

>  <description>  (599) 
Chain AAA, Protease 3C [Enterovirus A71]

>  <evalue>  (599) 
7.0500000000000002e-68

>  <pdb_code>  (599) 
7QUB

>  <chain>  (599) 
AAA

>  <ligands>  (599) 
[{'chain_id': 'AAA', 'author_residue_number': 201, 'author_insertion_code': '', 'chem_comp_id': 'I70', 'alternate_conformers': 0, 'entity_id': 2, 'struct_asym_id': 'B', 'residue_number': 1, 'chem_comp_name': '(1R,2S,5S)-N-{(2S,3R)-4-amino-3-hydroxy-4-oxo-1-[(3S)-2-oxopyrrolidin-3-yl]butan-2-yl}-3-[N-(tert-butylcarbamoyl)-3-methyl-L-valyl]-6,6-dimethyl-3-azabicyclo[3.1.0]hexane-2-carboxamide', 'weight': 550.691, 'carbohydrate_polymer': False, 'branch_name': ''}, {'chain_id': 'AAA', 'author_residue_number': 202, 'author_insertion_code': '', 'chem_comp_id': 'NA', 'alternate_conformers': 0, 'entity_id': 3, 'struct_asym_id': 'C', 'residue_number': 1, 'chem_comp_name': 'SODIUM ION', 'weight': 22.99, 'carbohydrate_polymer': False, 'branch_name': ''}]

>  <ligand_codes>  (599) 
['I70', 'NA']

>  <cofactor_codes>  (599) 
[]

>  <has_cofactor>  (599) 
False

>  <covalent>  (599) 
True

>  <base_name>  (599) 
7QUB

>  <lig_resn>  (599) 
I70

>  <lig_resi>  (599) 
201

>  <lig_chain>  (599) 
AAA

>  <lig_segi>  (599) 
B

>  <lig_alt>  (599) 


>  <polymer_chain>  (599) 
A

>  <single_smiles>  (599) 
CC(C)(C)NC(=O)N[C@H](C(=O)N1C[C@H]2[C@@H]([C@H]1C(=O)N[C@@H](C[C@@H]3CCNC3=O)[C@@H](O)C(N)=O)C2(C)C)C(C)(C)C

$$$$
I70P2S16
     RDKit          3D

 17 18  0  0  0  0  0  0  0  0999 V2000
   -7.9540   12.1060  -34.7500 C   0  0  0  0  0  0  0  0  0  0  0  0
   -9.0890   13.1220  -34.8270 C   0  0  1  0  0  0  0  0  0  0  0  0
   -6.7960   12.4060  -35.0600 O   0  0  0  0  0  0  0  0  0  0  0  0
   -8.5930   14.4450  -34.4520 N   0  0  0  0  0  0  0  0  0  0  0  0
   -9.5800   13.2630  -36.2440 C   0  0  2  0  0  0  0  0  0  0  0  0
   -8.1630   14.6430  -33.1990 C   0  0  0  0  0  0  0  0  0  0  0  0
   -8.5470   15.4100  -35.5660 C   0  0  0  0  0  0  0  0  0  0  0  0
   -9.2540   14.6710  -36.7020 C   0  0  2  0  0  0  0  0  0  0  0  0
  -10.6930   14.2350  -36.5490 C   0  0  0  0  0  0  0  0  0  0  0  0
   -7.4390   15.9640  -32.9440 C   0  0  0  0  0  0  0  0  0  0  0  0
   -8.3310   13.7970  -32.3050 O   0  0  0  0  0  0  0  0  0  0  0  0
  -11.5310   14.7790  -35.4150 C   0  0  0  0  0  0  0  0  0  0  0  0
  -11.5090   14.0530  -37.8150 C   0  0  0  0  0  0  0  0  0  0  0  0
   -5.8860   15.9050  -32.8920 C   0  0  0  0  0  0  0  0  0  0  0  0
   -5.2670   15.5850  -34.2610 C   0  0  0  0  0  0  0  0  0  0  0  0
   -5.3590   17.2790  -32.4720 C   0  0  0  0  0  0  0  0  0  0  0  0
   -5.4200   14.8480  -31.8910 C   0  0  0  0  0  0  0  0  0  0  0  0
  2  1  1  0
  1  3  1  1
  2  4  1  6
  5  2  1  0
  6  4  1  0
  7  4  1  0
  8  5  1  0
  5  9  1  1
 10  6  1  1
  6 11  1  0
  8  7  1  1
  8  9  1  0
  9 12  1  0
  9 13  1  0
 10 14  1  0
 14 15  1  0
 14 16  1  0
 14 17  1  0
A    2
 C14
A    3
 O38
A    4
 N13
A    5
 C34
A    6
 C12
A    7
 C13
A    8
 C16
A    9
 C18
A   11
 O33
A   12
 C23
A   13
 C25
A   14
 C30
A   15
 C26
A   16
 C31
A   17
 C32
M  END
>  <XChem_code>  (600) 
I70§2

>  <Occupancy>  (600) 
[1.0, 1.0, 1.0, 1.0, 1.0, 1.0, 1.0, 1.0, 1.0, 1.0, 1.0, 1.0, 1.0, 1.0, 1.0, 1.0, 1.0, 1.0, 1.0, 1.0, 1.0, 1.0, 1.0, 1.0, 1.0, 1.0, 1.0, 1.0, 1.0, 1.0, 1.0, 1.0, 1.0, 1.0, 1.0, 1.0, 1.0, 1.0, 1.0, 1.0]

>  <TempFactor>  (600) 
[39.88, 47.74, 47.6, 43.34, 41.2, 42.74, 42.84, 38.8, 38.28, 38.23, 36.42, 38.13, 35.96, 39.12, 39.61, 36.63, 35.46, 36.02, 40.94, 36.31, 36.8, 36.42, 33.49, 36.18, 34.36, 34.04, 41.73, 36.81, 34.52, 42.38, 42.33, 41.2, 40.48, 37.29, 39.85, 36.54, 36.22, 35.85, 36.77, 46.54]

>  <accession>  (600) 
7QUB_AAA

>  <description>  (600) 
Chain AAA, Protease 3C [Enterovirus A71]

>  <evalue>  (600) 
7.0500000000000002e-68

>  <pdb_code>  (600) 
7QUB

>  <chain>  (600) 
AAA

>  <ligands>  (600) 
[{'chain_id': 'AAA', 'author_residue_number': 201, 'author_insertion_code': '', 'chem_comp_id': 'I70', 'alternate_conformers': 0, 'entity_id': 2, 'struct_asym_id': 'B', 'residue_number': 1, 'chem_comp_name': '(1R,2S,5S)-N-{(2S,3R)-4-amino-3-hydroxy-4-oxo-1-[(3S)-2-oxopyrrolidin-3-yl]butan-2-yl}-3-[N-(tert-butylcarbamoyl)-3-methyl-L-valyl]-6,6-dimethyl-3-azabicyclo[3.1.0]hexane-2-carboxamide', 'weight': 550.691, 'carbohydrate_polymer': False, 'branch_name': ''}, {'chain_id': 'AAA', 'author_residue_number': 202, 'author_insertion_code': '', 'chem_comp_id': 'NA', 'alternate_conformers': 0, 'entity_id': 3, 'struct_asym_id': 'C', 'residue_number': 1, 'chem_comp_name': 'SODIUM ION', 'weight': 22.99, 'carbohydrate_polymer': False, 'branch_name': ''}]

>  <ligand_codes>  (600) 
['I70', 'NA']

>  <cofactor_codes>  (600) 
[]

>  <has_cofactor>  (600) 
False

>  <covalent>  (600) 
True

>  <base_name>  (600) 
7QUB

>  <lig_resn>  (600) 
I70

>  <lig_resi>  (600) 
201

>  <lig_chain>  (600) 
AAA

>  <lig_segi>  (600) 
B

>  <lig_alt>  (600) 


>  <polymer_chain>  (600) 
A

>  <single_smiles>  (600) 
CC(C)(C)NC(=O)N[C@H](C(=O)N1C[C@H]2[C@@H]([C@H]1C(=O)N[C@@H](C[C@@H]3CCNC3=O)[C@@H](O)C(N)=O)C2(C)C)C(C)(C)C

$$$$
I70P2S17
     RDKit          3D

 18 19  0  0  0  0  0  0  0  0999 V2000
   -8.3060   10.9400  -34.2130 N   0  0  0  0  0  0  0  0  0  0  0  0
   -7.9540   12.1060  -34.7500 C   0  0  1  0  0  0  0  0  0  0  0  0
   -9.0890   13.1220  -34.8270 C   0  0  1  0  0  0  0  0  0  0  0  0
   -6.7960   12.4060  -35.0600 O   0  0  0  0  0  0  0  0  0  0  0  0
   -8.5930   14.4450  -34.4520 N   0  0  0  0  0  0  0  0  0  0  0  0
   -9.5800   13.2630  -36.2440 C   0  0  2  0  0  0  0  0  0  0  0  0
   -8.1630   14.6430  -33.1990 C   0  0  0  0  0  0  0  0  0  0  0  0
   -8.5470   15.4100  -35.5660 C   0  0  0  0  0  0  0  0  0  0  0  0
   -9.2540   14.6710  -36.7020 C   0  0  2  0  0  0  0  0  0  0  0  0
  -10.6930   14.2350  -36.5490 C   0  0  0  0  0  0  0  0  0  0  0  0
   -7.4390   15.9640  -32.9440 C   0  0  0  0  0  0  0  0  0  0  0  0
   -8.3310   13.7970  -32.3050 O   0  0  0  0  0  0  0  0  0  0  0  0
  -11.5310   14.7790  -35.4150 C   0  0  0  0  0  0  0  0  0  0  0  0
  -11.5090   14.0530  -37.8150 C   0  0  0  0  0  0  0  0  0  0  0  0
   -5.8860   15.9050  -32.8920 C   0  0  0  0  0  0  0  0  0  0  0  0
   -5.2670   15.5850  -34.2610 C   0  0  0  0  0  0  0  0  0  0  0  0
   -5.3590   17.2790  -32.4720 C   0  0  0  0  0  0  0  0  0  0  0  0
   -5.4200   14.8480  -31.8910 C   0  0  0  0  0  0  0  0  0  0  0  0
  2  1  1  1
  3  2  1  0
  2  4  1  0
  3  5  1  6
  6  3  1  0
  7  5  1  0
  8  5  1  0
  9  6  1  0
  6 10  1  1
 11  7  1  1
  7 12  1  0
  9  8  1  1
  9 10  1  0
 10 13  1  0
 10 14  1  0
 11 15  1  0
 15 16  1  0
 15 17  1  0
 15 18  1  0
A    2
 C15
A    3
 C14
A    4
 O38
A    5
 N13
A    6
 C34
A    7
 C12
A    8
 C13
A    9
 C16
A   10
 C18
A   12
 O33
A   13
 C23
A   14
 C25
A   15
 C30
A   16
 C26
A   17
 C31
A   18
 C32
M  END
>  <XChem_code>  (601) 
I70§2

>  <Occupancy>  (601) 
[1.0, 1.0, 1.0, 1.0, 1.0, 1.0, 1.0, 1.0, 1.0, 1.0, 1.0, 1.0, 1.0, 1.0, 1.0, 1.0, 1.0, 1.0, 1.0, 1.0, 1.0, 1.0, 1.0, 1.0, 1.0, 1.0, 1.0, 1.0, 1.0, 1.0, 1.0, 1.0, 1.0, 1.0, 1.0, 1.0, 1.0, 1.0, 1.0, 1.0]

>  <TempFactor>  (601) 
[39.88, 47.74, 47.6, 43.34, 41.2, 42.74, 42.84, 38.8, 38.28, 38.23, 36.42, 38.13, 35.96, 39.12, 39.61, 36.63, 35.46, 36.02, 40.94, 36.31, 36.8, 36.42, 33.49, 36.18, 34.36, 34.04, 41.73, 36.81, 34.52, 42.38, 42.33, 41.2, 40.48, 37.29, 39.85, 36.54, 36.22, 35.85, 36.77, 46.54]

>  <accession>  (601) 
7QUB_AAA

>  <description>  (601) 
Chain AAA, Protease 3C [Enterovirus A71]

>  <evalue>  (601) 
7.0500000000000002e-68

>  <pdb_code>  (601) 
7QUB

>  <chain>  (601) 
AAA

>  <ligands>  (601) 
[{'chain_id': 'AAA', 'author_residue_number': 201, 'author_insertion_code': '', 'chem_comp_id': 'I70', 'alternate_conformers': 0, 'entity_id': 2, 'struct_asym_id': 'B', 'residue_number': 1, 'chem_comp_name': '(1R,2S,5S)-N-{(2S,3R)-4-amino-3-hydroxy-4-oxo-1-[(3S)-2-oxopyrrolidin-3-yl]butan-2-yl}-3-[N-(tert-butylcarbamoyl)-3-methyl-L-valyl]-6,6-dimethyl-3-azabicyclo[3.1.0]hexane-2-carboxamide', 'weight': 550.691, 'carbohydrate_polymer': False, 'branch_name': ''}, {'chain_id': 'AAA', 'author_residue_number': 202, 'author_insertion_code': '', 'chem_comp_id': 'NA', 'alternate_conformers': 0, 'entity_id': 3, 'struct_asym_id': 'C', 'residue_number': 1, 'chem_comp_name': 'SODIUM ION', 'weight': 22.99, 'carbohydrate_polymer': False, 'branch_name': ''}]

>  <ligand_codes>  (601) 
['I70', 'NA']

>  <cofactor_codes>  (601) 
[]

>  <has_cofactor>  (601) 
False

>  <covalent>  (601) 
True

>  <base_name>  (601) 
7QUB

>  <lig_resn>  (601) 
I70

>  <lig_resi>  (601) 
201

>  <lig_chain>  (601) 
AAA

>  <lig_segi>  (601) 
B

>  <lig_alt>  (601) 


>  <polymer_chain>  (601) 
A

>  <single_smiles>  (601) 
CC(C)(C)NC(=O)N[C@H](C(=O)N1C[C@H]2[C@@H]([C@H]1C(=O)N[C@@H](C[C@@H]3CCNC3=O)[C@@H](O)C(N)=O)C2(C)C)C(C)(C)C

$$$$
I70P2S18
     RDKit          3D

 10 11  0  0  0  0  0  0  0  0999 V2000
   -7.9540   12.1060  -34.7500 C   0  0  0  0  0  0  0  0  0  0  0  0
   -9.0890   13.1220  -34.8270 C   0  0  1  0  0  0  0  0  0  0  0  0
   -6.7960   12.4060  -35.0600 O   0  0  0  0  0  0  0  0  0  0  0  0
   -8.5930   14.4450  -34.4520 N   0  0  0  0  0  0  0  0  0  0  0  0
   -9.5800   13.2630  -36.2440 C   0  0  2  0  0  0  0  0  0  0  0  0
   -8.5470   15.4100  -35.5660 C   0  0  0  0  0  0  0  0  0  0  0  0
   -9.2540   14.6710  -36.7020 C   0  0  2  0  0  0  0  0  0  0  0  0
  -10.6930   14.2350  -36.5490 C   0  0  0  0  0  0  0  0  0  0  0  0
  -11.5310   14.7790  -35.4150 C   0  0  0  0  0  0  0  0  0  0  0  0
  -11.5090   14.0530  -37.8150 C   0  0  0  0  0  0  0  0  0  0  0  0
  2  1  1  0
  1  3  1  1
  2  4  1  6
  5  2  1  0
  6  4  1  0
  7  5  1  0
  5  8  1  1
  7  6  1  1
  7  8  1  0
  8  9  1  0
  8 10  1  0
A    2
 C14
A    3
 O38
A    5
 C34
A    6
 C13
A    7
 C16
A    8
 C18
A    9
 C23
A   10
 C25
M  END
>  <XChem_code>  (602) 
I70§2

>  <Occupancy>  (602) 
[1.0, 1.0, 1.0, 1.0, 1.0, 1.0, 1.0, 1.0, 1.0, 1.0, 1.0, 1.0, 1.0, 1.0, 1.0, 1.0, 1.0, 1.0, 1.0, 1.0, 1.0, 1.0, 1.0, 1.0, 1.0, 1.0, 1.0, 1.0, 1.0, 1.0, 1.0, 1.0, 1.0, 1.0, 1.0, 1.0, 1.0, 1.0, 1.0, 1.0]

>  <TempFactor>  (602) 
[39.88, 47.74, 47.6, 43.34, 41.2, 42.74, 42.84, 38.8, 38.28, 38.23, 36.42, 38.13, 35.96, 39.12, 39.61, 36.63, 35.46, 36.02, 40.94, 36.31, 36.8, 36.42, 33.49, 36.18, 34.36, 34.04, 41.73, 36.81, 34.52, 42.38, 42.33, 41.2, 40.48, 37.29, 39.85, 36.54, 36.22, 35.85, 36.77, 46.54]

>  <accession>  (602) 
7QUB_AAA

>  <description>  (602) 
Chain AAA, Protease 3C [Enterovirus A71]

>  <evalue>  (602) 
7.0500000000000002e-68

>  <pdb_code>  (602) 
7QUB

>  <chain>  (602) 
AAA

>  <ligands>  (602) 
[{'chain_id': 'AAA', 'author_residue_number': 201, 'author_insertion_code': '', 'chem_comp_id': 'I70', 'alternate_conformers': 0, 'entity_id': 2, 'struct_asym_id': 'B', 'residue_number': 1, 'chem_comp_name': '(1R,2S,5S)-N-{(2S,3R)-4-amino-3-hydroxy-4-oxo-1-[(3S)-2-oxopyrrolidin-3-yl]butan-2-yl}-3-[N-(tert-butylcarbamoyl)-3-methyl-L-valyl]-6,6-dimethyl-3-azabicyclo[3.1.0]hexane-2-carboxamide', 'weight': 550.691, 'carbohydrate_polymer': False, 'branch_name': ''}, {'chain_id': 'AAA', 'author_residue_number': 202, 'author_insertion_code': '', 'chem_comp_id': 'NA', 'alternate_conformers': 0, 'entity_id': 3, 'struct_asym_id': 'C', 'residue_number': 1, 'chem_comp_name': 'SODIUM ION', 'weight': 22.99, 'carbohydrate_polymer': False, 'branch_name': ''}]

>  <ligand_codes>  (602) 
['I70', 'NA']

>  <cofactor_codes>  (602) 
[]

>  <has_cofactor>  (602) 
False

>  <covalent>  (602) 
True

>  <base_name>  (602) 
7QUB

>  <lig_resn>  (602) 
I70

>  <lig_resi>  (602) 
201

>  <lig_chain>  (602) 
AAA

>  <lig_segi>  (602) 
B

>  <lig_alt>  (602) 


>  <polymer_chain>  (602) 
A

>  <single_smiles>  (602) 
CC(C)(C)NC(=O)N[C@H](C(=O)N1C[C@H]2[C@@H]([C@H]1C(=O)N[C@@H](C[C@@H]3CCNC3=O)[C@@H](O)C(N)=O)C2(C)C)C(C)(C)C

$$$$
I70P2S19
     RDKit          3D

 11 12  0  0  0  0  0  0  0  0999 V2000
   -8.3060   10.9400  -34.2130 N   0  0  0  0  0  0  0  0  0  0  0  0
   -7.9540   12.1060  -34.7500 C   0  0  1  0  0  0  0  0  0  0  0  0
   -9.0890   13.1220  -34.8270 C   0  0  1  0  0  0  0  0  0  0  0  0
   -6.7960   12.4060  -35.0600 O   0  0  0  0  0  0  0  0  0  0  0  0
   -8.5930   14.4450  -34.4520 N   0  0  0  0  0  0  0  0  0  0  0  0
   -9.5800   13.2630  -36.2440 C   0  0  2  0  0  0  0  0  0  0  0  0
   -8.5470   15.4100  -35.5660 C   0  0  0  0  0  0  0  0  0  0  0  0
   -9.2540   14.6710  -36.7020 C   0  0  2  0  0  0  0  0  0  0  0  0
  -10.6930   14.2350  -36.5490 C   0  0  0  0  0  0  0  0  0  0  0  0
  -11.5310   14.7790  -35.4150 C   0  0  0  0  0  0  0  0  0  0  0  0
  -11.5090   14.0530  -37.8150 C   0  0  0  0  0  0  0  0  0  0  0  0
  2  1  1  1
  3  2  1  0
  2  4  1  0
  3  5  1  6
  6  3  1  0
  7  5  1  0
  8  6  1  0
  6  9  1  1
  8  7  1  1
  8  9  1  0
  9 10  1  0
  9 11  1  0
A    2
 C15
A    3
 C14
A    4
 O38
A    6
 C34
A    7
 C13
A    8
 C16
A    9
 C18
A   10
 C23
A   11
 C25
M  END
>  <XChem_code>  (603) 
I70§2

>  <Occupancy>  (603) 
[1.0, 1.0, 1.0, 1.0, 1.0, 1.0, 1.0, 1.0, 1.0, 1.0, 1.0, 1.0, 1.0, 1.0, 1.0, 1.0, 1.0, 1.0, 1.0, 1.0, 1.0, 1.0, 1.0, 1.0, 1.0, 1.0, 1.0, 1.0, 1.0, 1.0, 1.0, 1.0, 1.0, 1.0, 1.0, 1.0, 1.0, 1.0, 1.0, 1.0]

>  <TempFactor>  (603) 
[39.88, 47.74, 47.6, 43.34, 41.2, 42.74, 42.84, 38.8, 38.28, 38.23, 36.42, 38.13, 35.96, 39.12, 39.61, 36.63, 35.46, 36.02, 40.94, 36.31, 36.8, 36.42, 33.49, 36.18, 34.36, 34.04, 41.73, 36.81, 34.52, 42.38, 42.33, 41.2, 40.48, 37.29, 39.85, 36.54, 36.22, 35.85, 36.77, 46.54]

>  <accession>  (603) 
7QUB_AAA

>  <description>  (603) 
Chain AAA, Protease 3C [Enterovirus A71]

>  <evalue>  (603) 
7.0500000000000002e-68

>  <pdb_code>  (603) 
7QUB

>  <chain>  (603) 
AAA

>  <ligands>  (603) 
[{'chain_id': 'AAA', 'author_residue_number': 201, 'author_insertion_code': '', 'chem_comp_id': 'I70', 'alternate_conformers': 0, 'entity_id': 2, 'struct_asym_id': 'B', 'residue_number': 1, 'chem_comp_name': '(1R,2S,5S)-N-{(2S,3R)-4-amino-3-hydroxy-4-oxo-1-[(3S)-2-oxopyrrolidin-3-yl]butan-2-yl}-3-[N-(tert-butylcarbamoyl)-3-methyl-L-valyl]-6,6-dimethyl-3-azabicyclo[3.1.0]hexane-2-carboxamide', 'weight': 550.691, 'carbohydrate_polymer': False, 'branch_name': ''}, {'chain_id': 'AAA', 'author_residue_number': 202, 'author_insertion_code': '', 'chem_comp_id': 'NA', 'alternate_conformers': 0, 'entity_id': 3, 'struct_asym_id': 'C', 'residue_number': 1, 'chem_comp_name': 'SODIUM ION', 'weight': 22.99, 'carbohydrate_polymer': False, 'branch_name': ''}]

>  <ligand_codes>  (603) 
['I70', 'NA']

>  <cofactor_codes>  (603) 
[]

>  <has_cofactor>  (603) 
False

>  <covalent>  (603) 
True

>  <base_name>  (603) 
7QUB

>  <lig_resn>  (603) 
I70

>  <lig_resi>  (603) 
201

>  <lig_chain>  (603) 
AAA

>  <lig_segi>  (603) 
B

>  <lig_alt>  (603) 


>  <polymer_chain>  (603) 
A

>  <single_smiles>  (603) 
CC(C)(C)NC(=O)N[C@H](C(=O)N1C[C@H]2[C@@H]([C@H]1C(=O)N[C@@H](C[C@@H]3CCNC3=O)[C@@H](O)C(N)=O)C2(C)C)C(C)(C)C

$$$$
I70P2S20
     RDKit          3D

 17 17  0  0  0  0  0  0  0  0999 V2000
   -7.9540   12.1060  -34.7500 C   0  0  0  0  0  0  0  0  0  0  0  0
   -8.3060   10.9400  -34.2130 N   0  0  0  0  0  0  0  0  0  0  0  0
   -6.7960   12.4060  -35.0600 O   0  0  0  0  0  0  0  0  0  0  0  0
   -7.3450    9.8640  -33.9670 C   0  0  2  0  0  0  0  0  0  0  0  0
   -7.7790    8.6510  -34.8260 C   0  0  2  0  0  0  0  0  0  0  0  0
   -7.2620    9.6380  -32.4590 C   0  0  0  0  0  0  0  0  0  0  0  0
   -6.7240    7.5570  -34.8770 C   0  0  0  0  0  0  0  0  0  0  0  0
   -8.0200    9.1050  -36.1750 O   0  0  0  0  0  0  0  0  0  0  0  0
   -9.3380    8.0100  -34.0010 R   0  0  0  0  0  0  0  0  0  0  0  0
   -6.5460   10.7690  -31.7170 C   0  0  2  0  0  0  0  0  0  0  0  0
   -6.3550    7.0790  -36.1900 N   0  0  0  0  0  0  0  0  0  0  0  0
   -6.1940    7.0820  -33.8870 O   0  0  0  0  0  0  0  0  0  0  0  0
   -5.1080   11.0020  -32.1640 C   0  0  0  0  0  0  0  0  0  0  0  0
   -6.4130   10.4980  -30.2370 C   0  0  0  0  0  0  0  0  0  0  0  0
   -4.3360   11.3780  -30.9010 C   0  0  0  0  0  0  0  0  0  0  0  0
   -5.2360   10.9640  -29.8330 N   0  0  0  0  0  0  0  0  0  0  0  0
   -7.2810    9.9600  -29.5060 O   0  0  0  0  0  0  0  0  0  0  0  0
  1  2  1  0
  1  3  1  6
  2  4  1  0
  5  4  1  0
  4  6  1  1
  7  5  1  0
  5  8  1  0
  5  9  1  1
 10  6  1  6
  7 11  1  0
  7 12  1  0
 10 13  1  0
 10 14  1  0
 13 15  1  0
 16 14  1  0
 14 17  1  0
 15 16  1  0
V    9 *
A    2
 N16
A    3
 O38
A    4
 C17
A    5
 C8 
A    6
 C19
A    7
 C1 
A    8
 O9 
A    9
 X  
A   10
 C20
A   11
 N2 
A   12
 O5 
A   13
 C21
A   14
 C24
A   15
 C22
A   16
 N23
A   17
 O26
M  END
>  <XChem_code>  (604) 
I70§2

>  <Occupancy>  (604) 
[1.0, 1.0, 1.0, 1.0, 1.0, 1.0, 1.0, 1.0, 1.0, 1.0, 1.0, 1.0, 1.0, 1.0, 1.0, 1.0, 1.0, 1.0, 1.0, 1.0, 1.0, 1.0, 1.0, 1.0, 1.0, 1.0, 1.0, 1.0, 1.0, 1.0, 1.0, 1.0, 1.0, 1.0, 1.0, 1.0, 1.0, 1.0, 1.0, 1.0]

>  <TempFactor>  (604) 
[39.88, 47.74, 47.6, 43.34, 41.2, 42.74, 42.84, 38.8, 38.28, 38.23, 36.42, 38.13, 35.96, 39.12, 39.61, 36.63, 35.46, 36.02, 40.94, 36.31, 36.8, 36.42, 33.49, 36.18, 34.36, 34.04, 41.73, 36.81, 34.52, 42.38, 42.33, 41.2, 40.48, 37.29, 39.85, 36.54, 36.22, 35.85, 36.77, 46.54]

>  <accession>  (604) 
7QUB_AAA

>  <description>  (604) 
Chain AAA, Protease 3C [Enterovirus A71]

>  <evalue>  (604) 
7.0500000000000002e-68

>  <pdb_code>  (604) 
7QUB

>  <chain>  (604) 
AAA

>  <ligands>  (604) 
[{'chain_id': 'AAA', 'author_residue_number': 201, 'author_insertion_code': '', 'chem_comp_id': 'I70', 'alternate_conformers': 0, 'entity_id': 2, 'struct_asym_id': 'B', 'residue_number': 1, 'chem_comp_name': '(1R,2S,5S)-N-{(2S,3R)-4-amino-3-hydroxy-4-oxo-1-[(3S)-2-oxopyrrolidin-3-yl]butan-2-yl}-3-[N-(tert-butylcarbamoyl)-3-methyl-L-valyl]-6,6-dimethyl-3-azabicyclo[3.1.0]hexane-2-carboxamide', 'weight': 550.691, 'carbohydrate_polymer': False, 'branch_name': ''}, {'chain_id': 'AAA', 'author_residue_number': 202, 'author_insertion_code': '', 'chem_comp_id': 'NA', 'alternate_conformers': 0, 'entity_id': 3, 'struct_asym_id': 'C', 'residue_number': 1, 'chem_comp_name': 'SODIUM ION', 'weight': 22.99, 'carbohydrate_polymer': False, 'branch_name': ''}]

>  <ligand_codes>  (604) 
['I70', 'NA']

>  <cofactor_codes>  (604) 
[]

>  <has_cofactor>  (604) 
False

>  <covalent>  (604) 
True

>  <base_name>  (604) 
7QUB

>  <lig_resn>  (604) 
I70

>  <lig_resi>  (604) 
201

>  <lig_chain>  (604) 
AAA

>  <lig_segi>  (604) 
B

>  <lig_alt>  (604) 


>  <polymer_chain>  (604) 
A

>  <single_smiles>  (604) 
CC(C)(C)NC(=O)N[C@H](C(=O)N1C[C@H]2[C@@H]([C@H]1C(=O)N[C@@H](C[C@@H]3CCNC3=O)[C@@H](O)C(N)=O)C2(C)C)C(C)(C)C

$$$$
I70P2S21
     RDKit          3D

 23 24  0  0  0  0  0  0  0  0999 V2000
   -9.0890   13.1220  -34.8270 C   0  0  0  0  0  0  0  0  0  0  0  0
   -8.5930   14.4450  -34.4520 N   0  0  0  0  0  0  0  0  0  0  0  0
   -9.5800   13.2630  -36.2440 C   0  0  2  0  0  0  0  0  0  0  0  0
   -8.1630   14.6430  -33.1990 C   0  0  0  0  0  0  0  0  0  0  0  0
   -8.5470   15.4100  -35.5660 C   0  0  0  0  0  0  0  0  0  0  0  0
   -9.2540   14.6710  -36.7020 C   0  0  2  0  0  0  0  0  0  0  0  0
  -10.6930   14.2350  -36.5490 C   0  0  0  0  0  0  0  0  0  0  0  0
   -7.4390   15.9640  -32.9440 C   0  0  1  0  0  0  0  0  0  0  0  0
   -8.3310   13.7970  -32.3050 O   0  0  0  0  0  0  0  0  0  0  0  0
  -11.5310   14.7790  -35.4150 C   0  0  0  0  0  0  0  0  0  0  0  0
  -11.5090   14.0530  -37.8150 C   0  0  0  0  0  0  0  0  0  0  0  0
   -8.0120   16.5180  -31.7410 N   0  0  0  0  0  0  0  0  0  0  0  0
   -5.8860   15.9050  -32.8920 C   0  0  0  0  0  0  0  0  0  0  0  0
   -9.3350   16.7390  -31.6320 C   0  0  0  0  0  0  0  0  0  0  0  0
   -5.2670   15.5850  -34.2610 C   0  0  0  0  0  0  0  0  0  0  0  0
   -5.3590   17.2790  -32.4720 C   0  0  0  0  0  0  0  0  0  0  0  0
   -5.4200   14.8480  -31.8910 C   0  0  0  0  0  0  0  0  0  0  0  0
   -9.7590   17.0040  -30.3830 N   0  0  0  0  0  0  0  0  0  0  0  0
  -10.0780   16.7320  -32.6140 O   0  0  0  0  0  0  0  0  0  0  0  0
  -11.1620   17.0450  -29.9270 C   0  0  0  0  0  0  0  0  0  0  0  0
  -11.7910   15.6780  -30.1870 C   0  0  0  0  0  0  0  0  0  0  0  0
  -11.0840   17.3350  -28.4360 C   0  0  0  0  0  0  0  0  0  0  0  0
  -11.9540   18.1520  -30.6230 C   0  0  0  0  0  0  0  0  0  0  0  0
  1  2  1  6
  3  1  1  0
  4  2  1  0
  5  2  1  0
  6  3  1  0
  3  7  1  1
  8  4  1  0
  4  9  1  0
  6  5  1  1
  6  7  1  0
  7 10  1  0
  7 11  1  0
  8 12  1  1
  8 13  1  0
 14 12  1  0
 13 15  1  0
 13 16  1  0
 13 17  1  0
 18 14  1  0
 14 19  1  0
 20 18  1  0
 20 21  1  0
 20 22  1  0
 20 23  1  0
A    2
 N13
A    3
 C34
A    4
 C12
A    5
 C13
A    6
 C16
A    7
 C18
A    8
 C11
A    9
 O33
A   10
 C23
A   11
 C25
A   12
 N10
A   13
 C30
A   14
 C9 
A   15
 C26
A   16
 C31
A   17
 C32
A   18
 N8 
A   19
 O29
A   20
 C7 
A   21
 C27
A   22
 C28
A   23
 C29
M  END
>  <XChem_code>  (605) 
I70§2

>  <Occupancy>  (605) 
[1.0, 1.0, 1.0, 1.0, 1.0, 1.0, 1.0, 1.0, 1.0, 1.0, 1.0, 1.0, 1.0, 1.0, 1.0, 1.0, 1.0, 1.0, 1.0, 1.0, 1.0, 1.0, 1.0, 1.0, 1.0, 1.0, 1.0, 1.0, 1.0, 1.0, 1.0, 1.0, 1.0, 1.0, 1.0, 1.0, 1.0, 1.0, 1.0, 1.0]

>  <TempFactor>  (605) 
[39.88, 47.74, 47.6, 43.34, 41.2, 42.74, 42.84, 38.8, 38.28, 38.23, 36.42, 38.13, 35.96, 39.12, 39.61, 36.63, 35.46, 36.02, 40.94, 36.31, 36.8, 36.42, 33.49, 36.18, 34.36, 34.04, 41.73, 36.81, 34.52, 42.38, 42.33, 41.2, 40.48, 37.29, 39.85, 36.54, 36.22, 35.85, 36.77, 46.54]

>  <accession>  (605) 
7QUB_AAA

>  <description>  (605) 
Chain AAA, Protease 3C [Enterovirus A71]

>  <evalue>  (605) 
7.0500000000000002e-68

>  <pdb_code>  (605) 
7QUB

>  <chain>  (605) 
AAA

>  <ligands>  (605) 
[{'chain_id': 'AAA', 'author_residue_number': 201, 'author_insertion_code': '', 'chem_comp_id': 'I70', 'alternate_conformers': 0, 'entity_id': 2, 'struct_asym_id': 'B', 'residue_number': 1, 'chem_comp_name': '(1R,2S,5S)-N-{(2S,3R)-4-amino-3-hydroxy-4-oxo-1-[(3S)-2-oxopyrrolidin-3-yl]butan-2-yl}-3-[N-(tert-butylcarbamoyl)-3-methyl-L-valyl]-6,6-dimethyl-3-azabicyclo[3.1.0]hexane-2-carboxamide', 'weight': 550.691, 'carbohydrate_polymer': False, 'branch_name': ''}, {'chain_id': 'AAA', 'author_residue_number': 202, 'author_insertion_code': '', 'chem_comp_id': 'NA', 'alternate_conformers': 0, 'entity_id': 3, 'struct_asym_id': 'C', 'residue_number': 1, 'chem_comp_name': 'SODIUM ION', 'weight': 22.99, 'carbohydrate_polymer': False, 'branch_name': ''}]

>  <ligand_codes>  (605) 
['I70', 'NA']

>  <cofactor_codes>  (605) 
[]

>  <has_cofactor>  (605) 
False

>  <covalent>  (605) 
True

>  <base_name>  (605) 
7QUB

>  <lig_resn>  (605) 
I70

>  <lig_resi>  (605) 
201

>  <lig_chain>  (605) 
AAA

>  <lig_segi>  (605) 
B

>  <lig_alt>  (605) 


>  <polymer_chain>  (605) 
A

>  <single_smiles>  (605) 
CC(C)(C)NC(=O)N[C@H](C(=O)N1C[C@H]2[C@@H]([C@H]1C(=O)N[C@@H](C[C@@H]3CCNC3=O)[C@@H](O)C(N)=O)C2(C)C)C(C)(C)C

$$$$
I70P2S22
     RDKit          3D

  6  6  0  0  0  0  0  0  0  0999 V2000
   -6.5460   10.7690  -31.7170 C   0  0  0  0  0  0  0  0  0  0  0  0
   -5.1080   11.0020  -32.1640 C   0  0  0  0  0  0  0  0  0  0  0  0
   -6.4130   10.4980  -30.2370 C   0  0  0  0  0  0  0  0  0  0  0  0
   -4.3360   11.3780  -30.9010 C   0  0  0  0  0  0  0  0  0  0  0  0
   -5.2360   10.9640  -29.8330 N   0  0  0  0  0  0  0  0  0  0  0  0
   -7.2810    9.9600  -29.5060 O   0  0  0  0  0  0  0  0  0  0  0  0
  1  2  1  1
  1  3  1  0
  2  4  1  0
  5  3  1  0
  3  6  1  0
  4  5  1  0
A    2
 C21
A    3
 C24
A    4
 C22
A    5
 N23
A    6
 O26
M  END
>  <XChem_code>  (606) 
I70§2

>  <Occupancy>  (606) 
[1.0, 1.0, 1.0, 1.0, 1.0, 1.0, 1.0, 1.0, 1.0, 1.0, 1.0, 1.0, 1.0, 1.0, 1.0, 1.0, 1.0, 1.0, 1.0, 1.0, 1.0, 1.0, 1.0, 1.0, 1.0, 1.0, 1.0, 1.0, 1.0, 1.0, 1.0, 1.0, 1.0, 1.0, 1.0, 1.0, 1.0, 1.0, 1.0, 1.0]

>  <TempFactor>  (606) 
[39.88, 47.74, 47.6, 43.34, 41.2, 42.74, 42.84, 38.8, 38.28, 38.23, 36.42, 38.13, 35.96, 39.12, 39.61, 36.63, 35.46, 36.02, 40.94, 36.31, 36.8, 36.42, 33.49, 36.18, 34.36, 34.04, 41.73, 36.81, 34.52, 42.38, 42.33, 41.2, 40.48, 37.29, 39.85, 36.54, 36.22, 35.85, 36.77, 46.54]

>  <accession>  (606) 
7QUB_AAA

>  <description>  (606) 
Chain AAA, Protease 3C [Enterovirus A71]

>  <evalue>  (606) 
7.0500000000000002e-68

>  <pdb_code>  (606) 
7QUB

>  <chain>  (606) 
AAA

>  <ligands>  (606) 
[{'chain_id': 'AAA', 'author_residue_number': 201, 'author_insertion_code': '', 'chem_comp_id': 'I70', 'alternate_conformers': 0, 'entity_id': 2, 'struct_asym_id': 'B', 'residue_number': 1, 'chem_comp_name': '(1R,2S,5S)-N-{(2S,3R)-4-amino-3-hydroxy-4-oxo-1-[(3S)-2-oxopyrrolidin-3-yl]butan-2-yl}-3-[N-(tert-butylcarbamoyl)-3-methyl-L-valyl]-6,6-dimethyl-3-azabicyclo[3.1.0]hexane-2-carboxamide', 'weight': 550.691, 'carbohydrate_polymer': False, 'branch_name': ''}, {'chain_id': 'AAA', 'author_residue_number': 202, 'author_insertion_code': '', 'chem_comp_id': 'NA', 'alternate_conformers': 0, 'entity_id': 3, 'struct_asym_id': 'C', 'residue_number': 1, 'chem_comp_name': 'SODIUM ION', 'weight': 22.99, 'carbohydrate_polymer': False, 'branch_name': ''}]

>  <ligand_codes>  (606) 
['I70', 'NA']

>  <cofactor_codes>  (606) 
[]

>  <has_cofactor>  (606) 
False

>  <covalent>  (606) 
True

>  <base_name>  (606) 
7QUB

>  <lig_resn>  (606) 
I70

>  <lig_resi>  (606) 
201

>  <lig_chain>  (606) 
AAA

>  <lig_segi>  (606) 
B

>  <lig_alt>  (606) 


>  <polymer_chain>  (606) 
A

>  <single_smiles>  (606) 
CC(C)(C)NC(=O)N[C@H](C(=O)N1C[C@H]2[C@@H]([C@H]1C(=O)N[C@@H](C[C@@H]3CCNC3=O)[C@@H](O)C(N)=O)C2(C)C)C(C)(C)C

$$$$
I70P2S23
     RDKit          3D

 34 35  0  0  0  0  0  0  0  0999 V2000
   -7.2620    9.6380  -32.4590 C   0  0  0  0  0  0  0  0  0  0  0  0
   -7.3450    9.8640  -33.9670 C   0  0  1  0  0  0  0  0  0  0  0  0
   -7.7790    8.6510  -34.8260 C   0  0  2  0  0  0  0  0  0  0  0  0
   -8.3060   10.9400  -34.2130 N   0  0  0  0  0  0  0  0  0  0  0  0
   -6.7240    7.5570  -34.8770 C   0  0  0  0  0  0  0  0  0  0  0  0
   -8.0200    9.1050  -36.1750 O   0  0  0  0  0  0  0  0  0  0  0  0
   -9.3380    8.0100  -34.0010 R   0  0  0  0  0  0  0  0  0  0  0  0
   -7.9540   12.1060  -34.7500 C   0  0  1  0  0  0  0  0  0  0  0  0
   -6.3550    7.0790  -36.1900 N   0  0  0  0  0  0  0  0  0  0  0  0
   -6.1940    7.0820  -33.8870 O   0  0  0  0  0  0  0  0  0  0  0  0
   -9.0890   13.1220  -34.8270 C   0  0  1  0  0  0  0  0  0  0  0  0
   -6.7960   12.4060  -35.0600 O   0  0  0  0  0  0  0  0  0  0  0  0
   -8.5930   14.4450  -34.4520 N   0  0  0  0  0  0  0  0  0  0  0  0
   -9.5800   13.2630  -36.2440 C   0  0  2  0  0  0  0  0  0  0  0  0
   -8.1630   14.6430  -33.1990 C   0  0  0  0  0  0  0  0  0  0  0  0
   -8.5470   15.4100  -35.5660 C   0  0  0  0  0  0  0  0  0  0  0  0
   -9.2540   14.6710  -36.7020 C   0  0  2  0  0  0  0  0  0  0  0  0
  -10.6930   14.2350  -36.5490 C   0  0  0  0  0  0  0  0  0  0  0  0
   -7.4390   15.9640  -32.9440 C   0  0  1  0  0  0  0  0  0  0  0  0
   -8.3310   13.7970  -32.3050 O   0  0  0  0  0  0  0  0  0  0  0  0
  -11.5310   14.7790  -35.4150 C   0  0  0  0  0  0  0  0  0  0  0  0
  -11.5090   14.0530  -37.8150 C   0  0  0  0  0  0  0  0  0  0  0  0
   -8.0120   16.5180  -31.7410 N   0  0  0  0  0  0  0  0  0  0  0  0
   -5.8860   15.9050  -32.8920 C   0  0  0  0  0  0  0  0  0  0  0  0
   -9.3350   16.7390  -31.6320 C   0  0  0  0  0  0  0  0  0  0  0  0
   -5.2670   15.5850  -34.2610 C   0  0  0  0  0  0  0  0  0  0  0  0
   -5.3590   17.2790  -32.4720 C   0  0  0  0  0  0  0  0  0  0  0  0
   -5.4200   14.8480  -31.8910 C   0  0  0  0  0  0  0  0  0  0  0  0
   -9.7590   17.0040  -30.3830 N   0  0  0  0  0  0  0  0  0  0  0  0
  -10.0780   16.7320  -32.6140 O   0  0  0  0  0  0  0  0  0  0  0  0
  -11.1620   17.0450  -29.9270 C   0  0  0  0  0  0  0  0  0  0  0  0
  -11.7910   15.6780  -30.1870 C   0  0  0  0  0  0  0  0  0  0  0  0
  -11.0840   17.3350  -28.4360 C   0  0  0  0  0  0  0  0  0  0  0  0
  -11.9540   18.1520  -30.6230 C   0  0  0  0  0  0  0  0  0  0  0  0
  2  1  1  1
  3  2  1  0
  4  2  1  0
  5  3  1  0
  3  6  1  0
  3  7  1  1
  8  4  1  0
  5  9  1  0
  5 10  1  0
 11  8  1  0
  8 12  1  1
 11 13  1  6
 14 11  1  0
 15 13  1  0
 16 13  1  0
 17 14  1  0
 14 18  1  1
 19 15  1  0
 15 20  1  0
 17 16  1  1
 17 18  1  0
 18 21  1  0
 18 22  1  0
 19 23  1  1
 19 24  1  0
 25 23  1  0
 24 26  1  0
 24 27  1  0
 24 28  1  0
 29 25  1  0
 25 30  1  0
 31 29  1  0
 31 32  1  0
 31 33  1  0
 31 34  1  0
V    7 *
A    2
 C17
A    3
 C8 
A    4
 N16
A    5
 C1 
A    6
 O9 
A    7
 X  
A    8
 C15
A    9
 N2 
A   10
 O5 
A   11
 C14
A   12
 O38
A   13
 N13
A   14
 C34
A   15
 C12
A   16
 C13
A   17
 C16
A   18
 C18
A   19
 C11
A   20
 O33
A   21
 C23
A   22
 C25
A   23
 N10
A   24
 C30
A   25
 C9 
A   26
 C26
A   27
 C31
A   28
 C32
A   29
 N8 
A   30
 O29
A   31
 C7 
A   32
 C27
A   33
 C28
A   34
 C29
M  END
>  <XChem_code>  (607) 
I70§2

>  <Occupancy>  (607) 
[1.0, 1.0, 1.0, 1.0, 1.0, 1.0, 1.0, 1.0, 1.0, 1.0, 1.0, 1.0, 1.0, 1.0, 1.0, 1.0, 1.0, 1.0, 1.0, 1.0, 1.0, 1.0, 1.0, 1.0, 1.0, 1.0, 1.0, 1.0, 1.0, 1.0, 1.0, 1.0, 1.0, 1.0, 1.0, 1.0, 1.0, 1.0, 1.0, 1.0]

>  <TempFactor>  (607) 
[39.88, 47.74, 47.6, 43.34, 41.2, 42.74, 42.84, 38.8, 38.28, 38.23, 36.42, 38.13, 35.96, 39.12, 39.61, 36.63, 35.46, 36.02, 40.94, 36.31, 36.8, 36.42, 33.49, 36.18, 34.36, 34.04, 41.73, 36.81, 34.52, 42.38, 42.33, 41.2, 40.48, 37.29, 39.85, 36.54, 36.22, 35.85, 36.77, 46.54]

>  <accession>  (607) 
7QUB_AAA

>  <description>  (607) 
Chain AAA, Protease 3C [Enterovirus A71]

>  <evalue>  (607) 
7.0500000000000002e-68

>  <pdb_code>  (607) 
7QUB

>  <chain>  (607) 
AAA

>  <ligands>  (607) 
[{'chain_id': 'AAA', 'author_residue_number': 201, 'author_insertion_code': '', 'chem_comp_id': 'I70', 'alternate_conformers': 0, 'entity_id': 2, 'struct_asym_id': 'B', 'residue_number': 1, 'chem_comp_name': '(1R,2S,5S)-N-{(2S,3R)-4-amino-3-hydroxy-4-oxo-1-[(3S)-2-oxopyrrolidin-3-yl]butan-2-yl}-3-[N-(tert-butylcarbamoyl)-3-methyl-L-valyl]-6,6-dimethyl-3-azabicyclo[3.1.0]hexane-2-carboxamide', 'weight': 550.691, 'carbohydrate_polymer': False, 'branch_name': ''}, {'chain_id': 'AAA', 'author_residue_number': 202, 'author_insertion_code': '', 'chem_comp_id': 'NA', 'alternate_conformers': 0, 'entity_id': 3, 'struct_asym_id': 'C', 'residue_number': 1, 'chem_comp_name': 'SODIUM ION', 'weight': 22.99, 'carbohydrate_polymer': False, 'branch_name': ''}]

>  <ligand_codes>  (607) 
['I70', 'NA']

>  <cofactor_codes>  (607) 
[]

>  <has_cofactor>  (607) 
False

>  <covalent>  (607) 
True

>  <base_name>  (607) 
7QUB

>  <lig_resn>  (607) 
I70

>  <lig_resi>  (607) 
201

>  <lig_chain>  (607) 
AAA

>  <lig_segi>  (607) 
B

>  <lig_alt>  (607) 


>  <polymer_chain>  (607) 
A

>  <single_smiles>  (607) 
CC(C)(C)NC(=O)N[C@H](C(=O)N1C[C@H]2[C@@H]([C@H]1C(=O)N[C@@H](C[C@@H]3CCNC3=O)[C@@H](O)C(N)=O)C2(C)C)C(C)(C)C

$$$$
I70P2S24
     RDKit          3D

 19 20  0  0  0  0  0  0  0  0999 V2000
   -9.0890   13.1220  -34.8270 C   0  0  0  0  0  0  0  0  0  0  0  0
   -8.5930   14.4450  -34.4520 N   0  0  0  0  0  0  0  0  0  0  0  0
   -9.5800   13.2630  -36.2440 C   0  0  2  0  0  0  0  0  0  0  0  0
   -8.1630   14.6430  -33.1990 C   0  0  0  0  0  0  0  0  0  0  0  0
   -8.5470   15.4100  -35.5660 C   0  0  0  0  0  0  0  0  0  0  0  0
   -9.2540   14.6710  -36.7020 C   0  0  2  0  0  0  0  0  0  0  0  0
  -10.6930   14.2350  -36.5490 C   0  0  0  0  0  0  0  0  0  0  0  0
   -7.4390   15.9640  -32.9440 C   0  0  1  0  0  0  0  0  0  0  0  0
   -8.3310   13.7970  -32.3050 O   0  0  0  0  0  0  0  0  0  0  0  0
  -11.5310   14.7790  -35.4150 C   0  0  0  0  0  0  0  0  0  0  0  0
  -11.5090   14.0530  -37.8150 C   0  0  0  0  0  0  0  0  0  0  0  0
   -8.0120   16.5180  -31.7410 N   0  0  0  0  0  0  0  0  0  0  0  0
   -5.8860   15.9050  -32.8920 C   0  0  0  0  0  0  0  0  0  0  0  0
   -9.3350   16.7390  -31.6320 C   0  0  0  0  0  0  0  0  0  0  0  0
   -5.2670   15.5850  -34.2610 C   0  0  0  0  0  0  0  0  0  0  0  0
   -5.3590   17.2790  -32.4720 C   0  0  0  0  0  0  0  0  0  0  0  0
   -5.4200   14.8480  -31.8910 C   0  0  0  0  0  0  0  0  0  0  0  0
   -9.7590   17.0040  -30.3830 N   0  0  0  0  0  0  0  0  0  0  0  0
  -10.0780   16.7320  -32.6140 O   0  0  0  0  0  0  0  0  0  0  0  0
  1  2  1  6
  3  1  1  0
  4  2  1  0
  5  2  1  0
  6  3  1  0
  3  7  1  1
  8  4  1  0
  4  9  1  0
  6  5  1  1
  6  7  1  0
  7 10  1  0
  7 11  1  0
  8 12  1  1
  8 13  1  0
 14 12  1  0
 13 15  1  0
 13 16  1  0
 13 17  1  0
 18 14  1  0
 14 19  1  0
A    2
 N13
A    3
 C34
A    4
 C12
A    5
 C13
A    6
 C16
A    7
 C18
A    8
 C11
A    9
 O33
A   10
 C23
A   11
 C25
A   12
 N10
A   13
 C30
A   14
 C9 
A   15
 C26
A   16
 C31
A   17
 C32
A   19
 O29
M  END
>  <XChem_code>  (608) 
I70§2

>  <Occupancy>  (608) 
[1.0, 1.0, 1.0, 1.0, 1.0, 1.0, 1.0, 1.0, 1.0, 1.0, 1.0, 1.0, 1.0, 1.0, 1.0, 1.0, 1.0, 1.0, 1.0, 1.0, 1.0, 1.0, 1.0, 1.0, 1.0, 1.0, 1.0, 1.0, 1.0, 1.0, 1.0, 1.0, 1.0, 1.0, 1.0, 1.0, 1.0, 1.0, 1.0, 1.0]

>  <TempFactor>  (608) 
[39.88, 47.74, 47.6, 43.34, 41.2, 42.74, 42.84, 38.8, 38.28, 38.23, 36.42, 38.13, 35.96, 39.12, 39.61, 36.63, 35.46, 36.02, 40.94, 36.31, 36.8, 36.42, 33.49, 36.18, 34.36, 34.04, 41.73, 36.81, 34.52, 42.38, 42.33, 41.2, 40.48, 37.29, 39.85, 36.54, 36.22, 35.85, 36.77, 46.54]

>  <accession>  (608) 
7QUB_AAA

>  <description>  (608) 
Chain AAA, Protease 3C [Enterovirus A71]

>  <evalue>  (608) 
7.0500000000000002e-68

>  <pdb_code>  (608) 
7QUB

>  <chain>  (608) 
AAA

>  <ligands>  (608) 
[{'chain_id': 'AAA', 'author_residue_number': 201, 'author_insertion_code': '', 'chem_comp_id': 'I70', 'alternate_conformers': 0, 'entity_id': 2, 'struct_asym_id': 'B', 'residue_number': 1, 'chem_comp_name': '(1R,2S,5S)-N-{(2S,3R)-4-amino-3-hydroxy-4-oxo-1-[(3S)-2-oxopyrrolidin-3-yl]butan-2-yl}-3-[N-(tert-butylcarbamoyl)-3-methyl-L-valyl]-6,6-dimethyl-3-azabicyclo[3.1.0]hexane-2-carboxamide', 'weight': 550.691, 'carbohydrate_polymer': False, 'branch_name': ''}, {'chain_id': 'AAA', 'author_residue_number': 202, 'author_insertion_code': '', 'chem_comp_id': 'NA', 'alternate_conformers': 0, 'entity_id': 3, 'struct_asym_id': 'C', 'residue_number': 1, 'chem_comp_name': 'SODIUM ION', 'weight': 22.99, 'carbohydrate_polymer': False, 'branch_name': ''}]

>  <ligand_codes>  (608) 
['I70', 'NA']

>  <cofactor_codes>  (608) 
[]

>  <has_cofactor>  (608) 
False

>  <covalent>  (608) 
True

>  <base_name>  (608) 
7QUB

>  <lig_resn>  (608) 
I70

>  <lig_resi>  (608) 
201

>  <lig_chain>  (608) 
AAA

>  <lig_segi>  (608) 
B

>  <lig_alt>  (608) 


>  <polymer_chain>  (608) 
A

>  <single_smiles>  (608) 
CC(C)(C)NC(=O)N[C@H](C(=O)N1C[C@H]2[C@@H]([C@H]1C(=O)N[C@@H](C[C@@H]3CCNC3=O)[C@@H](O)C(N)=O)C2(C)C)C(C)(C)C

$$$$
I70P2S25
     RDKit          3D

 30 31  0  0  0  0  0  0  0  0999 V2000
   -7.2620    9.6380  -32.4590 C   0  0  0  0  0  0  0  0  0  0  0  0
   -7.3450    9.8640  -33.9670 C   0  0  2  0  0  0  0  0  0  0  0  0
   -8.3060   10.9400  -34.2130 N   0  0  0  0  0  0  0  0  0  0  0  0
   -7.7790    8.6510  -34.8260 C   0  0  2  0  0  0  0  0  0  0  0  0
   -7.9540   12.1060  -34.7500 C   0  0  1  0  0  0  0  0  0  0  0  0
   -6.7240    7.5570  -34.8770 C   0  0  0  0  0  0  0  0  0  0  0  0
   -8.0200    9.1050  -36.1750 O   0  0  0  0  0  0  0  0  0  0  0  0
   -9.3380    8.0100  -34.0010 R   0  0  0  0  0  0  0  0  0  0  0  0
   -9.0890   13.1220  -34.8270 C   0  0  1  0  0  0  0  0  0  0  0  0
   -6.7960   12.4060  -35.0600 O   0  0  0  0  0  0  0  0  0  0  0  0
   -6.3550    7.0790  -36.1900 N   0  0  0  0  0  0  0  0  0  0  0  0
   -6.1940    7.0820  -33.8870 O   0  0  0  0  0  0  0  0  0  0  0  0
   -8.5930   14.4450  -34.4520 N   0  0  0  0  0  0  0  0  0  0  0  0
   -9.5800   13.2630  -36.2440 C   0  0  2  0  0  0  0  0  0  0  0  0
   -8.1630   14.6430  -33.1990 C   0  0  0  0  0  0  0  0  0  0  0  0
   -8.5470   15.4100  -35.5660 C   0  0  0  0  0  0  0  0  0  0  0  0
   -9.2540   14.6710  -36.7020 C   0  0  2  0  0  0  0  0  0  0  0  0
  -10.6930   14.2350  -36.5490 C   0  0  0  0  0  0  0  0  0  0  0  0
   -7.4390   15.9640  -32.9440 C   0  0  1  0  0  0  0  0  0  0  0  0
   -8.3310   13.7970  -32.3050 O   0  0  0  0  0  0  0  0  0  0  0  0
  -11.5310   14.7790  -35.4150 C   0  0  0  0  0  0  0  0  0  0  0  0
  -11.5090   14.0530  -37.8150 C   0  0  0  0  0  0  0  0  0  0  0  0
   -8.0120   16.5180  -31.7410 N   0  0  0  0  0  0  0  0  0  0  0  0
   -5.8860   15.9050  -32.8920 C   0  0  0  0  0  0  0  0  0  0  0  0
   -9.3350   16.7390  -31.6320 C   0  0  0  0  0  0  0  0  0  0  0  0
   -5.2670   15.5850  -34.2610 C   0  0  0  0  0  0  0  0  0  0  0  0
   -5.3590   17.2790  -32.4720 C   0  0  0  0  0  0  0  0  0  0  0  0
   -5.4200   14.8480  -31.8910 C   0  0  0  0  0  0  0  0  0  0  0  0
   -9.7590   17.0040  -30.3830 N   0  0  0  0  0  0  0  0  0  0  0  0
  -10.0780   16.7320  -32.6140 O   0  0  0  0  0  0  0  0  0  0  0  0
  2  1  1  1
  3  2  1  0
  4  2  1  0
  5  3  1  0
  6  4  1  0
  4  7  1  0
  4  8  1  1
  9  5  1  0
  5 10  1  1
  6 11  1  0
  6 12  1  0
  9 13  1  6
 14  9  1  0
 15 13  1  0
 16 13  1  0
 17 14  1  0
 14 18  1  1
 19 15  1  0
 15 20  1  0
 17 16  1  1
 17 18  1  0
 18 21  1  0
 18 22  1  0
 19 23  1  1
 19 24  1  0
 25 23  1  0
 24 26  1  0
 24 27  1  0
 24 28  1  0
 29 25  1  0
 25 30  1  0
V    8 *
A    2
 C17
A    3
 N16
A    4
 C8 
A    5
 C15
A    6
 C1 
A    7
 O9 
A    8
 X  
A    9
 C14
A   10
 O38
A   11
 N2 
A   12
 O5 
A   13
 N13
A   14
 C34
A   15
 C12
A   16
 C13
A   17
 C16
A   18
 C18
A   19
 C11
A   20
 O33
A   21
 C23
A   22
 C25
A   23
 N10
A   24
 C30
A   25
 C9 
A   26
 C26
A   27
 C31
A   28
 C32
A   30
 O29
M  END
>  <XChem_code>  (609) 
I70§2

>  <Occupancy>  (609) 
[1.0, 1.0, 1.0, 1.0, 1.0, 1.0, 1.0, 1.0, 1.0, 1.0, 1.0, 1.0, 1.0, 1.0, 1.0, 1.0, 1.0, 1.0, 1.0, 1.0, 1.0, 1.0, 1.0, 1.0, 1.0, 1.0, 1.0, 1.0, 1.0, 1.0, 1.0, 1.0, 1.0, 1.0, 1.0, 1.0, 1.0, 1.0, 1.0, 1.0]

>  <TempFactor>  (609) 
[39.88, 47.74, 47.6, 43.34, 41.2, 42.74, 42.84, 38.8, 38.28, 38.23, 36.42, 38.13, 35.96, 39.12, 39.61, 36.63, 35.46, 36.02, 40.94, 36.31, 36.8, 36.42, 33.49, 36.18, 34.36, 34.04, 41.73, 36.81, 34.52, 42.38, 42.33, 41.2, 40.48, 37.29, 39.85, 36.54, 36.22, 35.85, 36.77, 46.54]

>  <accession>  (609) 
7QUB_AAA

>  <description>  (609) 
Chain AAA, Protease 3C [Enterovirus A71]

>  <evalue>  (609) 
7.0500000000000002e-68

>  <pdb_code>  (609) 
7QUB

>  <chain>  (609) 
AAA

>  <ligands>  (609) 
[{'chain_id': 'AAA', 'author_residue_number': 201, 'author_insertion_code': '', 'chem_comp_id': 'I70', 'alternate_conformers': 0, 'entity_id': 2, 'struct_asym_id': 'B', 'residue_number': 1, 'chem_comp_name': '(1R,2S,5S)-N-{(2S,3R)-4-amino-3-hydroxy-4-oxo-1-[(3S)-2-oxopyrrolidin-3-yl]butan-2-yl}-3-[N-(tert-butylcarbamoyl)-3-methyl-L-valyl]-6,6-dimethyl-3-azabicyclo[3.1.0]hexane-2-carboxamide', 'weight': 550.691, 'carbohydrate_polymer': False, 'branch_name': ''}, {'chain_id': 'AAA', 'author_residue_number': 202, 'author_insertion_code': '', 'chem_comp_id': 'NA', 'alternate_conformers': 0, 'entity_id': 3, 'struct_asym_id': 'C', 'residue_number': 1, 'chem_comp_name': 'SODIUM ION', 'weight': 22.99, 'carbohydrate_polymer': False, 'branch_name': ''}]

>  <ligand_codes>  (609) 
['I70', 'NA']

>  <cofactor_codes>  (609) 
[]

>  <has_cofactor>  (609) 
False

>  <covalent>  (609) 
True

>  <base_name>  (609) 
7QUB

>  <lig_resn>  (609) 
I70

>  <lig_resi>  (609) 
201

>  <lig_chain>  (609) 
AAA

>  <lig_segi>  (609) 
B

>  <lig_alt>  (609) 


>  <polymer_chain>  (609) 
A

>  <single_smiles>  (609) 
CC(C)(C)NC(=O)N[C@H](C(=O)N1C[C@H]2[C@@H]([C@H]1C(=O)N[C@@H](C[C@@H]3CCNC3=O)[C@@H](O)C(N)=O)C2(C)C)C(C)(C)C

$$$$
I70P2S26
     RDKit          3D

 15 16  0  0  0  0  0  0  0  0999 V2000
   -9.0890   13.1220  -34.8270 C   0  0  0  0  0  0  0  0  0  0  0  0
   -8.5930   14.4450  -34.4520 N   0  0  0  0  0  0  0  0  0  0  0  0
   -9.5800   13.2630  -36.2440 C   0  0  2  0  0  0  0  0  0  0  0  0
   -8.1630   14.6430  -33.1990 C   0  0  0  0  0  0  0  0  0  0  0  0
   -8.5470   15.4100  -35.5660 C   0  0  0  0  0  0  0  0  0  0  0  0
   -9.2540   14.6710  -36.7020 C   0  0  2  0  0  0  0  0  0  0  0  0
  -10.6930   14.2350  -36.5490 C   0  0  0  0  0  0  0  0  0  0  0  0
   -7.4390   15.9640  -32.9440 C   0  0  0  0  0  0  0  0  0  0  0  0
   -8.3310   13.7970  -32.3050 O   0  0  0  0  0  0  0  0  0  0  0  0
  -11.5310   14.7790  -35.4150 C   0  0  0  0  0  0  0  0  0  0  0  0
  -11.5090   14.0530  -37.8150 C   0  0  0  0  0  0  0  0  0  0  0  0
   -5.8860   15.9050  -32.8920 C   0  0  0  0  0  0  0  0  0  0  0  0
   -5.2670   15.5850  -34.2610 C   0  0  0  0  0  0  0  0  0  0  0  0
   -5.3590   17.2790  -32.4720 C   0  0  0  0  0  0  0  0  0  0  0  0
   -5.4200   14.8480  -31.8910 C   0  0  0  0  0  0  0  0  0  0  0  0
  1  2  1  6
  3  1  1  0
  4  2  1  0
  5  2  1  0
  6  3  1  0
  3  7  1  1
  8  4  1  1
  4  9  1  0
  6  5  1  1
  6  7  1  0
  7 10  1  0
  7 11  1  0
  8 12  1  0
 12 13  1  0
 12 14  1  0
 12 15  1  0
A    2
 N13
A    3
 C34
A    4
 C12
A    5
 C13
A    6
 C16
A    7
 C18
A    9
 O33
A   10
 C23
A   11
 C25
A   12
 C30
A   13
 C26
A   14
 C31
A   15
 C32
M  END
>  <XChem_code>  (610) 
I70§2

>  <Occupancy>  (610) 
[1.0, 1.0, 1.0, 1.0, 1.0, 1.0, 1.0, 1.0, 1.0, 1.0, 1.0, 1.0, 1.0, 1.0, 1.0, 1.0, 1.0, 1.0, 1.0, 1.0, 1.0, 1.0, 1.0, 1.0, 1.0, 1.0, 1.0, 1.0, 1.0, 1.0, 1.0, 1.0, 1.0, 1.0, 1.0, 1.0, 1.0, 1.0, 1.0, 1.0]

>  <TempFactor>  (610) 
[39.88, 47.74, 47.6, 43.34, 41.2, 42.74, 42.84, 38.8, 38.28, 38.23, 36.42, 38.13, 35.96, 39.12, 39.61, 36.63, 35.46, 36.02, 40.94, 36.31, 36.8, 36.42, 33.49, 36.18, 34.36, 34.04, 41.73, 36.81, 34.52, 42.38, 42.33, 41.2, 40.48, 37.29, 39.85, 36.54, 36.22, 35.85, 36.77, 46.54]

>  <accession>  (610) 
7QUB_AAA

>  <description>  (610) 
Chain AAA, Protease 3C [Enterovirus A71]

>  <evalue>  (610) 
7.0500000000000002e-68

>  <pdb_code>  (610) 
7QUB

>  <chain>  (610) 
AAA

>  <ligands>  (610) 
[{'chain_id': 'AAA', 'author_residue_number': 201, 'author_insertion_code': '', 'chem_comp_id': 'I70', 'alternate_conformers': 0, 'entity_id': 2, 'struct_asym_id': 'B', 'residue_number': 1, 'chem_comp_name': '(1R,2S,5S)-N-{(2S,3R)-4-amino-3-hydroxy-4-oxo-1-[(3S)-2-oxopyrrolidin-3-yl]butan-2-yl}-3-[N-(tert-butylcarbamoyl)-3-methyl-L-valyl]-6,6-dimethyl-3-azabicyclo[3.1.0]hexane-2-carboxamide', 'weight': 550.691, 'carbohydrate_polymer': False, 'branch_name': ''}, {'chain_id': 'AAA', 'author_residue_number': 202, 'author_insertion_code': '', 'chem_comp_id': 'NA', 'alternate_conformers': 0, 'entity_id': 3, 'struct_asym_id': 'C', 'residue_number': 1, 'chem_comp_name': 'SODIUM ION', 'weight': 22.99, 'carbohydrate_polymer': False, 'branch_name': ''}]

>  <ligand_codes>  (610) 
['I70', 'NA']

>  <cofactor_codes>  (610) 
[]

>  <has_cofactor>  (610) 
False

>  <covalent>  (610) 
True

>  <base_name>  (610) 
7QUB

>  <lig_resn>  (610) 
I70

>  <lig_resi>  (610) 
201

>  <lig_chain>  (610) 
AAA

>  <lig_segi>  (610) 
B

>  <lig_alt>  (610) 


>  <polymer_chain>  (610) 
A

>  <single_smiles>  (610) 
CC(C)(C)NC(=O)N[C@H](C(=O)N1C[C@H]2[C@@H]([C@H]1C(=O)N[C@@H](C[C@@H]3CCNC3=O)[C@@H](O)C(N)=O)C2(C)C)C(C)(C)C

$$$$
I70P2S27
     RDKit          3D

 26 27  0  0  0  0  0  0  0  0999 V2000
   -7.2620    9.6380  -32.4590 C   0  0  0  0  0  0  0  0  0  0  0  0
   -7.3450    9.8640  -33.9670 C   0  0  2  0  0  0  0  0  0  0  0  0
   -8.3060   10.9400  -34.2130 N   0  0  0  0  0  0  0  0  0  0  0  0
   -7.7790    8.6510  -34.8260 C   0  0  2  0  0  0  0  0  0  0  0  0
   -7.9540   12.1060  -34.7500 C   0  0  1  0  0  0  0  0  0  0  0  0
   -6.7240    7.5570  -34.8770 C   0  0  0  0  0  0  0  0  0  0  0  0
   -8.0200    9.1050  -36.1750 O   0  0  0  0  0  0  0  0  0  0  0  0
   -9.3380    8.0100  -34.0010 R   0  0  0  0  0  0  0  0  0  0  0  0
   -9.0890   13.1220  -34.8270 C   0  0  1  0  0  0  0  0  0  0  0  0
   -6.7960   12.4060  -35.0600 O   0  0  0  0  0  0  0  0  0  0  0  0
   -6.3550    7.0790  -36.1900 N   0  0  0  0  0  0  0  0  0  0  0  0
   -6.1940    7.0820  -33.8870 O   0  0  0  0  0  0  0  0  0  0  0  0
   -8.5930   14.4450  -34.4520 N   0  0  0  0  0  0  0  0  0  0  0  0
   -9.5800   13.2630  -36.2440 C   0  0  2  0  0  0  0  0  0  0  0  0
   -8.1630   14.6430  -33.1990 C   0  0  0  0  0  0  0  0  0  0  0  0
   -8.5470   15.4100  -35.5660 C   0  0  0  0  0  0  0  0  0  0  0  0
   -9.2540   14.6710  -36.7020 C   0  0  2  0  0  0  0  0  0  0  0  0
  -10.6930   14.2350  -36.5490 C   0  0  0  0  0  0  0  0  0  0  0  0
   -7.4390   15.9640  -32.9440 C   0  0  0  0  0  0  0  0  0  0  0  0
   -8.3310   13.7970  -32.3050 O   0  0  0  0  0  0  0  0  0  0  0  0
  -11.5310   14.7790  -35.4150 C   0  0  0  0  0  0  0  0  0  0  0  0
  -11.5090   14.0530  -37.8150 C   0  0  0  0  0  0  0  0  0  0  0  0
   -5.8860   15.9050  -32.8920 C   0  0  0  0  0  0  0  0  0  0  0  0
   -5.2670   15.5850  -34.2610 C   0  0  0  0  0  0  0  0  0  0  0  0
   -5.3590   17.2790  -32.4720 C   0  0  0  0  0  0  0  0  0  0  0  0
   -5.4200   14.8480  -31.8910 C   0  0  0  0  0  0  0  0  0  0  0  0
  2  1  1  1
  3  2  1  0
  4  2  1  0
  5  3  1  0
  6  4  1  0
  4  7  1  0
  4  8  1  1
  9  5  1  0
  5 10  1  1
  6 11  1  0
  6 12  1  0
  9 13  1  6
 14  9  1  0
 15 13  1  0
 16 13  1  0
 17 14  1  0
 14 18  1  1
 19 15  1  1
 15 20  1  0
 17 16  1  1
 17 18  1  0
 18 21  1  0
 18 22  1  0
 19 23  1  0
 23 24  1  0
 23 25  1  0
 23 26  1  0
V    8 *
A    2
 C17
A    3
 N16
A    4
 C8 
A    5
 C15
A    6
 C1 
A    7
 O9 
A    8
 X  
A    9
 C14
A   10
 O38
A   11
 N2 
A   12
 O5 
A   13
 N13
A   14
 C34
A   15
 C12
A   16
 C13
A   17
 C16
A   18
 C18
A   20
 O33
A   21
 C23
A   22
 C25
A   23
 C30
A   24
 C26
A   25
 C31
A   26
 C32
M  END
>  <XChem_code>  (611) 
I70§2

>  <Occupancy>  (611) 
[1.0, 1.0, 1.0, 1.0, 1.0, 1.0, 1.0, 1.0, 1.0, 1.0, 1.0, 1.0, 1.0, 1.0, 1.0, 1.0, 1.0, 1.0, 1.0, 1.0, 1.0, 1.0, 1.0, 1.0, 1.0, 1.0, 1.0, 1.0, 1.0, 1.0, 1.0, 1.0, 1.0, 1.0, 1.0, 1.0, 1.0, 1.0, 1.0, 1.0]

>  <TempFactor>  (611) 
[39.88, 47.74, 47.6, 43.34, 41.2, 42.74, 42.84, 38.8, 38.28, 38.23, 36.42, 38.13, 35.96, 39.12, 39.61, 36.63, 35.46, 36.02, 40.94, 36.31, 36.8, 36.42, 33.49, 36.18, 34.36, 34.04, 41.73, 36.81, 34.52, 42.38, 42.33, 41.2, 40.48, 37.29, 39.85, 36.54, 36.22, 35.85, 36.77, 46.54]

>  <accession>  (611) 
7QUB_AAA

>  <description>  (611) 
Chain AAA, Protease 3C [Enterovirus A71]

>  <evalue>  (611) 
7.0500000000000002e-68

>  <pdb_code>  (611) 
7QUB

>  <chain>  (611) 
AAA

>  <ligands>  (611) 
[{'chain_id': 'AAA', 'author_residue_number': 201, 'author_insertion_code': '', 'chem_comp_id': 'I70', 'alternate_conformers': 0, 'entity_id': 2, 'struct_asym_id': 'B', 'residue_number': 1, 'chem_comp_name': '(1R,2S,5S)-N-{(2S,3R)-4-amino-3-hydroxy-4-oxo-1-[(3S)-2-oxopyrrolidin-3-yl]butan-2-yl}-3-[N-(tert-butylcarbamoyl)-3-methyl-L-valyl]-6,6-dimethyl-3-azabicyclo[3.1.0]hexane-2-carboxamide', 'weight': 550.691, 'carbohydrate_polymer': False, 'branch_name': ''}, {'chain_id': 'AAA', 'author_residue_number': 202, 'author_insertion_code': '', 'chem_comp_id': 'NA', 'alternate_conformers': 0, 'entity_id': 3, 'struct_asym_id': 'C', 'residue_number': 1, 'chem_comp_name': 'SODIUM ION', 'weight': 22.99, 'carbohydrate_polymer': False, 'branch_name': ''}]

>  <ligand_codes>  (611) 
['I70', 'NA']

>  <cofactor_codes>  (611) 
[]

>  <has_cofactor>  (611) 
False

>  <covalent>  (611) 
True

>  <base_name>  (611) 
7QUB

>  <lig_resn>  (611) 
I70

>  <lig_resi>  (611) 
201

>  <lig_chain>  (611) 
AAA

>  <lig_segi>  (611) 
B

>  <lig_alt>  (611) 


>  <polymer_chain>  (611) 
A

>  <single_smiles>  (611) 
CC(C)(C)NC(=O)N[C@H](C(=O)N1C[C@H]2[C@@H]([C@H]1C(=O)N[C@@H](C[C@@H]3CCNC3=O)[C@@H](O)C(N)=O)C2(C)C)C(C)(C)C

$$$$
I70P2S28
     RDKit          3D

  8  9  0  0  0  0  0  0  0  0999 V2000
   -9.0890   13.1220  -34.8270 C   0  0  0  0  0  0  0  0  0  0  0  0
   -8.5930   14.4450  -34.4520 N   0  0  0  0  0  0  0  0  0  0  0  0
   -9.5800   13.2630  -36.2440 C   0  0  2  0  0  0  0  0  0  0  0  0
   -8.5470   15.4100  -35.5660 C   0  0  0  0  0  0  0  0  0  0  0  0
   -9.2540   14.6710  -36.7020 C   0  0  2  0  0  0  0  0  0  0  0  0
  -10.6930   14.2350  -36.5490 C   0  0  0  0  0  0  0  0  0  0  0  0
  -11.5310   14.7790  -35.4150 C   0  0  0  0  0  0  0  0  0  0  0  0
  -11.5090   14.0530  -37.8150 C   0  0  0  0  0  0  0  0  0  0  0  0
  1  2  1  6
  3  1  1  0
  4  2  1  0
  5  3  1  0
  3  6  1  1
  5  4  1  1
  5  6  1  0
  6  7  1  0
  6  8  1  0
A    3
 C34
A    4
 C13
A    5
 C16
A    6
 C18
A    7
 C23
A    8
 C25
M  END
>  <XChem_code>  (612) 
I70§2

>  <Occupancy>  (612) 
[1.0, 1.0, 1.0, 1.0, 1.0, 1.0, 1.0, 1.0, 1.0, 1.0, 1.0, 1.0, 1.0, 1.0, 1.0, 1.0, 1.0, 1.0, 1.0, 1.0, 1.0, 1.0, 1.0, 1.0, 1.0, 1.0, 1.0, 1.0, 1.0, 1.0, 1.0, 1.0, 1.0, 1.0, 1.0, 1.0, 1.0, 1.0, 1.0, 1.0]

>  <TempFactor>  (612) 
[39.88, 47.74, 47.6, 43.34, 41.2, 42.74, 42.84, 38.8, 38.28, 38.23, 36.42, 38.13, 35.96, 39.12, 39.61, 36.63, 35.46, 36.02, 40.94, 36.31, 36.8, 36.42, 33.49, 36.18, 34.36, 34.04, 41.73, 36.81, 34.52, 42.38, 42.33, 41.2, 40.48, 37.29, 39.85, 36.54, 36.22, 35.85, 36.77, 46.54]

>  <accession>  (612) 
7QUB_AAA

>  <description>  (612) 
Chain AAA, Protease 3C [Enterovirus A71]

>  <evalue>  (612) 
7.0500000000000002e-68

>  <pdb_code>  (612) 
7QUB

>  <chain>  (612) 
AAA

>  <ligands>  (612) 
[{'chain_id': 'AAA', 'author_residue_number': 201, 'author_insertion_code': '', 'chem_comp_id': 'I70', 'alternate_conformers': 0, 'entity_id': 2, 'struct_asym_id': 'B', 'residue_number': 1, 'chem_comp_name': '(1R,2S,5S)-N-{(2S,3R)-4-amino-3-hydroxy-4-oxo-1-[(3S)-2-oxopyrrolidin-3-yl]butan-2-yl}-3-[N-(tert-butylcarbamoyl)-3-methyl-L-valyl]-6,6-dimethyl-3-azabicyclo[3.1.0]hexane-2-carboxamide', 'weight': 550.691, 'carbohydrate_polymer': False, 'branch_name': ''}, {'chain_id': 'AAA', 'author_residue_number': 202, 'author_insertion_code': '', 'chem_comp_id': 'NA', 'alternate_conformers': 0, 'entity_id': 3, 'struct_asym_id': 'C', 'residue_number': 1, 'chem_comp_name': 'SODIUM ION', 'weight': 22.99, 'carbohydrate_polymer': False, 'branch_name': ''}]

>  <ligand_codes>  (612) 
['I70', 'NA']

>  <cofactor_codes>  (612) 
[]

>  <has_cofactor>  (612) 
False

>  <covalent>  (612) 
True

>  <base_name>  (612) 
7QUB

>  <lig_resn>  (612) 
I70

>  <lig_resi>  (612) 
201

>  <lig_chain>  (612) 
AAA

>  <lig_segi>  (612) 
B

>  <lig_alt>  (612) 


>  <polymer_chain>  (612) 
A

>  <single_smiles>  (612) 
CC(C)(C)NC(=O)N[C@H](C(=O)N1C[C@H]2[C@@H]([C@H]1C(=O)N[C@@H](C[C@@H]3CCNC3=O)[C@@H](O)C(N)=O)C2(C)C)C(C)(C)C

$$$$
I70P2S29
     RDKit          3D

 19 20  0  0  0  0  0  0  0  0999 V2000
   -7.2620    9.6380  -32.4590 C   0  0  0  0  0  0  0  0  0  0  0  0
   -7.3450    9.8640  -33.9670 C   0  0  2  0  0  0  0  0  0  0  0  0
   -8.3060   10.9400  -34.2130 N   0  0  0  0  0  0  0  0  0  0  0  0
   -7.7790    8.6510  -34.8260 C   0  0  2  0  0  0  0  0  0  0  0  0
   -7.9540   12.1060  -34.7500 C   0  0  1  0  0  0  0  0  0  0  0  0
   -6.7240    7.5570  -34.8770 C   0  0  0  0  0  0  0  0  0  0  0  0
   -8.0200    9.1050  -36.1750 O   0  0  0  0  0  0  0  0  0  0  0  0
   -9.3380    8.0100  -34.0010 R   0  0  0  0  0  0  0  0  0  0  0  0
   -9.0890   13.1220  -34.8270 C   0  0  1  0  0  0  0  0  0  0  0  0
   -6.7960   12.4060  -35.0600 O   0  0  0  0  0  0  0  0  0  0  0  0
   -6.3550    7.0790  -36.1900 N   0  0  0  0  0  0  0  0  0  0  0  0
   -6.1940    7.0820  -33.8870 O   0  0  0  0  0  0  0  0  0  0  0  0
   -8.5930   14.4450  -34.4520 N   0  0  0  0  0  0  0  0  0  0  0  0
   -9.5800   13.2630  -36.2440 C   0  0  2  0  0  0  0  0  0  0  0  0
   -8.5470   15.4100  -35.5660 C   0  0  0  0  0  0  0  0  0  0  0  0
   -9.2540   14.6710  -36.7020 C   0  0  2  0  0  0  0  0  0  0  0  0
  -10.6930   14.2350  -36.5490 C   0  0  0  0  0  0  0  0  0  0  0  0
  -11.5310   14.7790  -35.4150 C   0  0  0  0  0  0  0  0  0  0  0  0
  -11.5090   14.0530  -37.8150 C   0  0  0  0  0  0  0  0  0  0  0  0
  2  1  1  1
  3  2  1  0
  4  2  1  0
  5  3  1  0
  6  4  1  0
  4  7  1  0
  4  8  1  1
  9  5  1  0
  5 10  1  1
  6 11  1  0
  6 12  1  0
  9 13  1  6
 14  9  1  0
 15 13  1  0
 16 14  1  0
 14 17  1  1
 16 15  1  1
 16 17  1  0
 17 18  1  0
 17 19  1  0
V    8 *
A    2
 C17
A    3
 N16
A    4
 C8 
A    5
 C15
A    6
 C1 
A    7
 O9 
A    8
 X  
A    9
 C14
A   10
 O38
A   11
 N2 
A   12
 O5 
A   14
 C34
A   15
 C13
A   16
 C16
A   17
 C18
A   18
 C23
A   19
 C25
M  END
>  <XChem_code>  (613) 
I70§2

>  <Occupancy>  (613) 
[1.0, 1.0, 1.0, 1.0, 1.0, 1.0, 1.0, 1.0, 1.0, 1.0, 1.0, 1.0, 1.0, 1.0, 1.0, 1.0, 1.0, 1.0, 1.0, 1.0, 1.0, 1.0, 1.0, 1.0, 1.0, 1.0, 1.0, 1.0, 1.0, 1.0, 1.0, 1.0, 1.0, 1.0, 1.0, 1.0, 1.0, 1.0, 1.0, 1.0]

>  <TempFactor>  (613) 
[39.88, 47.74, 47.6, 43.34, 41.2, 42.74, 42.84, 38.8, 38.28, 38.23, 36.42, 38.13, 35.96, 39.12, 39.61, 36.63, 35.46, 36.02, 40.94, 36.31, 36.8, 36.42, 33.49, 36.18, 34.36, 34.04, 41.73, 36.81, 34.52, 42.38, 42.33, 41.2, 40.48, 37.29, 39.85, 36.54, 36.22, 35.85, 36.77, 46.54]

>  <accession>  (613) 
7QUB_AAA

>  <description>  (613) 
Chain AAA, Protease 3C [Enterovirus A71]

>  <evalue>  (613) 
7.0500000000000002e-68

>  <pdb_code>  (613) 
7QUB

>  <chain>  (613) 
AAA

>  <ligands>  (613) 
[{'chain_id': 'AAA', 'author_residue_number': 201, 'author_insertion_code': '', 'chem_comp_id': 'I70', 'alternate_conformers': 0, 'entity_id': 2, 'struct_asym_id': 'B', 'residue_number': 1, 'chem_comp_name': '(1R,2S,5S)-N-{(2S,3R)-4-amino-3-hydroxy-4-oxo-1-[(3S)-2-oxopyrrolidin-3-yl]butan-2-yl}-3-[N-(tert-butylcarbamoyl)-3-methyl-L-valyl]-6,6-dimethyl-3-azabicyclo[3.1.0]hexane-2-carboxamide', 'weight': 550.691, 'carbohydrate_polymer': False, 'branch_name': ''}, {'chain_id': 'AAA', 'author_residue_number': 202, 'author_insertion_code': '', 'chem_comp_id': 'NA', 'alternate_conformers': 0, 'entity_id': 3, 'struct_asym_id': 'C', 'residue_number': 1, 'chem_comp_name': 'SODIUM ION', 'weight': 22.99, 'carbohydrate_polymer': False, 'branch_name': ''}]

>  <ligand_codes>  (613) 
['I70', 'NA']

>  <cofactor_codes>  (613) 
[]

>  <has_cofactor>  (613) 
False

>  <covalent>  (613) 
True

>  <base_name>  (613) 
7QUB

>  <lig_resn>  (613) 
I70

>  <lig_resi>  (613) 
201

>  <lig_chain>  (613) 
AAA

>  <lig_segi>  (613) 
B

>  <lig_alt>  (613) 


>  <polymer_chain>  (613) 
A

>  <single_smiles>  (613) 
CC(C)(C)NC(=O)N[C@H](C(=O)N1C[C@H]2[C@@H]([C@H]1C(=O)N[C@@H](C[C@@H]3CCNC3=O)[C@@H](O)C(N)=O)C2(C)C)C(C)(C)C

$$$$
I70P2S30
     RDKit          3D

  9  8  0  0  0  0  0  0  0  0999 V2000
   -7.2620    9.6380  -32.4590 C   0  0  0  0  0  0  0  0  0  0  0  0
   -7.3450    9.8640  -33.9670 C   0  0  2  0  0  0  0  0  0  0  0  0
   -8.3060   10.9400  -34.2130 N   0  0  0  0  0  0  0  0  0  0  0  0
   -7.7790    8.6510  -34.8260 C   0  0  2  0  0  0  0  0  0  0  0  0
   -6.7240    7.5570  -34.8770 C   0  0  0  0  0  0  0  0  0  0  0  0
   -8.0200    9.1050  -36.1750 O   0  0  0  0  0  0  0  0  0  0  0  0
   -9.3380    8.0100  -34.0010 R   0  0  0  0  0  0  0  0  0  0  0  0
   -6.3550    7.0790  -36.1900 N   0  0  0  0  0  0  0  0  0  0  0  0
   -6.1940    7.0820  -33.8870 O   0  0  0  0  0  0  0  0  0  0  0  0
  2  1  1  1
  3  2  1  0
  4  2  1  0
  5  4  1  0
  4  6  1  0
  4  7  1  1
  5  8  1  0
  5  9  1  0
V    7 *
A    2
 C17
A    4
 C8 
A    5
 C1 
A    6
 O9 
A    7
 X  
A    8
 N2 
A    9
 O5 
M  END
>  <XChem_code>  (614) 
I70§2

>  <Occupancy>  (614) 
[1.0, 1.0, 1.0, 1.0, 1.0, 1.0, 1.0, 1.0, 1.0, 1.0, 1.0, 1.0, 1.0, 1.0, 1.0, 1.0, 1.0, 1.0, 1.0, 1.0, 1.0, 1.0, 1.0, 1.0, 1.0, 1.0, 1.0, 1.0, 1.0, 1.0, 1.0, 1.0, 1.0, 1.0, 1.0, 1.0, 1.0, 1.0, 1.0, 1.0]

>  <TempFactor>  (614) 
[39.88, 47.74, 47.6, 43.34, 41.2, 42.74, 42.84, 38.8, 38.28, 38.23, 36.42, 38.13, 35.96, 39.12, 39.61, 36.63, 35.46, 36.02, 40.94, 36.31, 36.8, 36.42, 33.49, 36.18, 34.36, 34.04, 41.73, 36.81, 34.52, 42.38, 42.33, 41.2, 40.48, 37.29, 39.85, 36.54, 36.22, 35.85, 36.77, 46.54]

>  <accession>  (614) 
7QUB_AAA

>  <description>  (614) 
Chain AAA, Protease 3C [Enterovirus A71]

>  <evalue>  (614) 
7.0500000000000002e-68

>  <pdb_code>  (614) 
7QUB

>  <chain>  (614) 
AAA

>  <ligands>  (614) 
[{'chain_id': 'AAA', 'author_residue_number': 201, 'author_insertion_code': '', 'chem_comp_id': 'I70', 'alternate_conformers': 0, 'entity_id': 2, 'struct_asym_id': 'B', 'residue_number': 1, 'chem_comp_name': '(1R,2S,5S)-N-{(2S,3R)-4-amino-3-hydroxy-4-oxo-1-[(3S)-2-oxopyrrolidin-3-yl]butan-2-yl}-3-[N-(tert-butylcarbamoyl)-3-methyl-L-valyl]-6,6-dimethyl-3-azabicyclo[3.1.0]hexane-2-carboxamide', 'weight': 550.691, 'carbohydrate_polymer': False, 'branch_name': ''}, {'chain_id': 'AAA', 'author_residue_number': 202, 'author_insertion_code': '', 'chem_comp_id': 'NA', 'alternate_conformers': 0, 'entity_id': 3, 'struct_asym_id': 'C', 'residue_number': 1, 'chem_comp_name': 'SODIUM ION', 'weight': 22.99, 'carbohydrate_polymer': False, 'branch_name': ''}]

>  <ligand_codes>  (614) 
['I70', 'NA']

>  <cofactor_codes>  (614) 
[]

>  <has_cofactor>  (614) 
False

>  <covalent>  (614) 
True

>  <base_name>  (614) 
7QUB

>  <lig_resn>  (614) 
I70

>  <lig_resi>  (614) 
201

>  <lig_chain>  (614) 
AAA

>  <lig_segi>  (614) 
B

>  <lig_alt>  (614) 


>  <polymer_chain>  (614) 
A

>  <single_smiles>  (614) 
CC(C)(C)NC(=O)N[C@H](C(=O)N1C[C@H]2[C@@H]([C@H]1C(=O)N[C@@H](C[C@@H]3CCNC3=O)[C@@H](O)C(N)=O)C2(C)C)C(C)(C)C

$$$$
I70P2S31
     RDKit          3D

  8  7  0  0  0  0  0  0  0  0999 V2000
   -7.2620    9.6380  -32.4590 C   0  0  0  0  0  0  0  0  0  0  0  0
   -7.3450    9.8640  -33.9670 C   0  0  0  0  0  0  0  0  0  0  0  0
   -7.7790    8.6510  -34.8260 C   0  0  2  0  0  0  0  0  0  0  0  0
   -6.7240    7.5570  -34.8770 C   0  0  0  0  0  0  0  0  0  0  0  0
   -8.0200    9.1050  -36.1750 O   0  0  0  0  0  0  0  0  0  0  0  0
   -9.3380    8.0100  -34.0010 R   0  0  0  0  0  0  0  0  0  0  0  0
   -6.3550    7.0790  -36.1900 N   0  0  0  0  0  0  0  0  0  0  0  0
   -6.1940    7.0820  -33.8870 O   0  0  0  0  0  0  0  0  0  0  0  0
  2  1  1  6
  3  2  1  0
  4  3  1  0
  3  5  1  0
  3  6  1  1
  4  7  1  0
  4  8  1  0
V    6 *
A    3
 C8 
A    4
 C1 
A    5
 O9 
A    6
 X  
A    7
 N2 
A    8
 O5 
M  END
>  <XChem_code>  (615) 
I70§2

>  <Occupancy>  (615) 
[1.0, 1.0, 1.0, 1.0, 1.0, 1.0, 1.0, 1.0, 1.0, 1.0, 1.0, 1.0, 1.0, 1.0, 1.0, 1.0, 1.0, 1.0, 1.0, 1.0, 1.0, 1.0, 1.0, 1.0, 1.0, 1.0, 1.0, 1.0, 1.0, 1.0, 1.0, 1.0, 1.0, 1.0, 1.0, 1.0, 1.0, 1.0, 1.0, 1.0]

>  <TempFactor>  (615) 
[39.88, 47.74, 47.6, 43.34, 41.2, 42.74, 42.84, 38.8, 38.28, 38.23, 36.42, 38.13, 35.96, 39.12, 39.61, 36.63, 35.46, 36.02, 40.94, 36.31, 36.8, 36.42, 33.49, 36.18, 34.36, 34.04, 41.73, 36.81, 34.52, 42.38, 42.33, 41.2, 40.48, 37.29, 39.85, 36.54, 36.22, 35.85, 36.77, 46.54]

>  <accession>  (615) 
7QUB_AAA

>  <description>  (615) 
Chain AAA, Protease 3C [Enterovirus A71]

>  <evalue>  (615) 
7.0500000000000002e-68

>  <pdb_code>  (615) 
7QUB

>  <chain>  (615) 
AAA

>  <ligands>  (615) 
[{'chain_id': 'AAA', 'author_residue_number': 201, 'author_insertion_code': '', 'chem_comp_id': 'I70', 'alternate_conformers': 0, 'entity_id': 2, 'struct_asym_id': 'B', 'residue_number': 1, 'chem_comp_name': '(1R,2S,5S)-N-{(2S,3R)-4-amino-3-hydroxy-4-oxo-1-[(3S)-2-oxopyrrolidin-3-yl]butan-2-yl}-3-[N-(tert-butylcarbamoyl)-3-methyl-L-valyl]-6,6-dimethyl-3-azabicyclo[3.1.0]hexane-2-carboxamide', 'weight': 550.691, 'carbohydrate_polymer': False, 'branch_name': ''}, {'chain_id': 'AAA', 'author_residue_number': 202, 'author_insertion_code': '', 'chem_comp_id': 'NA', 'alternate_conformers': 0, 'entity_id': 3, 'struct_asym_id': 'C', 'residue_number': 1, 'chem_comp_name': 'SODIUM ION', 'weight': 22.99, 'carbohydrate_polymer': False, 'branch_name': ''}]

>  <ligand_codes>  (615) 
['I70', 'NA']

>  <cofactor_codes>  (615) 
[]

>  <has_cofactor>  (615) 
False

>  <covalent>  (615) 
True

>  <base_name>  (615) 
7QUB

>  <lig_resn>  (615) 
I70

>  <lig_resi>  (615) 
201

>  <lig_chain>  (615) 
AAA

>  <lig_segi>  (615) 
B

>  <lig_alt>  (615) 


>  <polymer_chain>  (615) 
A

>  <single_smiles>  (615) 
CC(C)(C)NC(=O)N[C@H](C(=O)N1C[C@H]2[C@@H]([C@H]1C(=O)N[C@@H](C[C@@H]3CCNC3=O)[C@@H](O)C(N)=O)C2(C)C)C(C)(C)C

$$$$
I70P2S32
     RDKit          3D

 11 10  0  0  0  0  0  0  0  0999 V2000
   -7.2620    9.6380  -32.4590 C   0  0  0  0  0  0  0  0  0  0  0  0
   -7.3450    9.8640  -33.9670 C   0  0  2  0  0  0  0  0  0  0  0  0
   -8.3060   10.9400  -34.2130 N   0  0  0  0  0  0  0  0  0  0  0  0
   -7.7790    8.6510  -34.8260 C   0  0  2  0  0  0  0  0  0  0  0  0
   -7.9540   12.1060  -34.7500 C   0  0  0  0  0  0  0  0  0  0  0  0
   -6.7240    7.5570  -34.8770 C   0  0  0  0  0  0  0  0  0  0  0  0
   -8.0200    9.1050  -36.1750 O   0  0  0  0  0  0  0  0  0  0  0  0
   -9.3380    8.0100  -34.0010 R   0  0  0  0  0  0  0  0  0  0  0  0
   -6.7960   12.4060  -35.0600 O   0  0  0  0  0  0  0  0  0  0  0  0
   -6.3550    7.0790  -36.1900 N   0  0  0  0  0  0  0  0  0  0  0  0
   -6.1940    7.0820  -33.8870 O   0  0  0  0  0  0  0  0  0  0  0  0
  2  1  1  1
  3  2  1  0
  4  2  1  0
  5  3  1  0
  6  4  1  0
  4  7  1  0
  4  8  1  1
  5  9  1  6
  6 10  1  0
  6 11  1  0
V    8 *
A    2
 C17
A    3
 N16
A    4
 C8 
A    6
 C1 
A    7
 O9 
A    8
 X  
A    9
 O38
A   10
 N2 
A   11
 O5 
M  END
>  <XChem_code>  (616) 
I70§2

>  <Occupancy>  (616) 
[1.0, 1.0, 1.0, 1.0, 1.0, 1.0, 1.0, 1.0, 1.0, 1.0, 1.0, 1.0, 1.0, 1.0, 1.0, 1.0, 1.0, 1.0, 1.0, 1.0, 1.0, 1.0, 1.0, 1.0, 1.0, 1.0, 1.0, 1.0, 1.0, 1.0, 1.0, 1.0, 1.0, 1.0, 1.0, 1.0, 1.0, 1.0, 1.0, 1.0]

>  <TempFactor>  (616) 
[39.88, 47.74, 47.6, 43.34, 41.2, 42.74, 42.84, 38.8, 38.28, 38.23, 36.42, 38.13, 35.96, 39.12, 39.61, 36.63, 35.46, 36.02, 40.94, 36.31, 36.8, 36.42, 33.49, 36.18, 34.36, 34.04, 41.73, 36.81, 34.52, 42.38, 42.33, 41.2, 40.48, 37.29, 39.85, 36.54, 36.22, 35.85, 36.77, 46.54]

>  <accession>  (616) 
7QUB_AAA

>  <description>  (616) 
Chain AAA, Protease 3C [Enterovirus A71]

>  <evalue>  (616) 
7.0500000000000002e-68

>  <pdb_code>  (616) 
7QUB

>  <chain>  (616) 
AAA

>  <ligands>  (616) 
[{'chain_id': 'AAA', 'author_residue_number': 201, 'author_insertion_code': '', 'chem_comp_id': 'I70', 'alternate_conformers': 0, 'entity_id': 2, 'struct_asym_id': 'B', 'residue_number': 1, 'chem_comp_name': '(1R,2S,5S)-N-{(2S,3R)-4-amino-3-hydroxy-4-oxo-1-[(3S)-2-oxopyrrolidin-3-yl]butan-2-yl}-3-[N-(tert-butylcarbamoyl)-3-methyl-L-valyl]-6,6-dimethyl-3-azabicyclo[3.1.0]hexane-2-carboxamide', 'weight': 550.691, 'carbohydrate_polymer': False, 'branch_name': ''}, {'chain_id': 'AAA', 'author_residue_number': 202, 'author_insertion_code': '', 'chem_comp_id': 'NA', 'alternate_conformers': 0, 'entity_id': 3, 'struct_asym_id': 'C', 'residue_number': 1, 'chem_comp_name': 'SODIUM ION', 'weight': 22.99, 'carbohydrate_polymer': False, 'branch_name': ''}]

>  <ligand_codes>  (616) 
['I70', 'NA']

>  <cofactor_codes>  (616) 
[]

>  <has_cofactor>  (616) 
False

>  <covalent>  (616) 
True

>  <base_name>  (616) 
7QUB

>  <lig_resn>  (616) 
I70

>  <lig_resi>  (616) 
201

>  <lig_chain>  (616) 
AAA

>  <lig_segi>  (616) 
B

>  <lig_alt>  (616) 


>  <polymer_chain>  (616) 
A

>  <single_smiles>  (616) 
CC(C)(C)NC(=O)N[C@H](C(=O)N1C[C@H]2[C@@H]([C@H]1C(=O)N[C@@H](C[C@@H]3CCNC3=O)[C@@H](O)C(N)=O)C2(C)C)C(C)(C)C

$$$$
AG7P12
     RDKit          3D

 38 39  0  0  0  0  0  0  0  0999 V2000
   -8.5670   14.4320  -33.7110 C   0  0  0  0  0  0  0  0  0  0  0  0
   -8.9960   18.0230  -30.7400 C   0  0  0  0  0  0  0  0  0  0  0  0
   -8.6930   13.9260  -35.1370 C   0  0  0  0  0  0  0  0  0  0  0  0
   -8.6070   13.7560  -32.7230 O   0  0  0  0  0  0  0  0  0  0  0  0
   -9.3130   12.5410  -35.2750 C   0  0  1  0  0  0  0  0  0  0  0  0
   -9.7000   12.4750  -36.7420 C   0  0  0  0  0  0  0  0  0  0  0  0
  -11.0210   13.2200  -36.9910 C   0  0  0  0  0  0  0  0  0  0  0  0
  -12.1300   12.9450  -36.2050 C   0  0  0  0  0  0  0  0  0  0  0  0
  -13.3220   13.6160  -36.4240 C   0  0  0  0  0  0  0  0  0  0  0  0
  -13.4160   14.5720  -37.4290 C   0  0  0  0  0  0  0  0  0  0  0  0
  -12.3090   14.8520  -38.2170 C   0  0  0  0  0  0  0  0  0  0  0  0
  -11.1130   14.1790  -37.9990 C   0  0  0  0  0  0  0  0  0  0  0  0
   -8.4720   10.3790  -34.0520 N   0  0  0  0  0  0  0  0  0  0  0  0
   -7.3030    9.5660  -33.6750 C   0  0  1  0  0  0  0  0  0  0  0  0
   -7.3990    9.4630  -32.1610 C   0  0  0  0  0  0  0  0  0  0  0  0
   -6.9980   10.8370  -31.5010 C   0  0  1  0  0  0  0  0  0  0  0  0
   -6.7450   10.5870  -29.9270 C   0  0  0  0  0  0  0  0  0  0  0  0
   -5.7030   11.3120  -29.5520 N   0  0  0  0  0  0  0  0  0  0  0  0
   -7.3960    9.8790  -29.2360 O   0  0  0  0  0  0  0  0  0  0  0  0
   -7.0890    8.1890  -34.3170 C   0  0  0  0  0  0  0  0  0  0  0  0
   -7.6300    8.1640  -35.7550 C   0  0  0  0  0  0  0  0  0  0  0  0
   -6.3370    8.3890  -36.5060 C   0  0  0  0  0  0  0  0  0  0  0  0
   -6.2970    9.1800  -37.6510 O   0  0  0  0  0  0  0  0  0  0  0  0
   -5.3570    7.9030  -36.0570 O   0  0  0  0  0  0  0  0  0  0  0  0
   -8.2170   11.5620  -34.8560 C   0  0  0  0  0  0  0  0  0  0  0  0
   -7.1000   11.7820  -35.1800 O   0  0  0  0  0  0  0  0  0  0  0  0
   -4.9980    9.2960  -38.1470 C   0  0  0  0  0  0  0  0  0  0  0  0
   -5.0760    9.8510  -39.5680 C   0  0  0  0  0  0  0  0  0  0  0  0
   -8.3750   15.9370  -33.7070 C   0  0  1  0  0  0  0  0  0  0  0  0
   -8.4690   16.4220  -32.3850 N   0  0  0  0  0  0  0  0  0  0  0  0
   -9.0480   17.7050  -32.1870 C   0  0  0  0  0  0  0  0  0  0  0  0
   -9.4860   18.4290  -33.0250 O   0  0  0  0  0  0  0  0  0  0  0  0
   -6.9790   16.3080  -34.2120 C   0  0  0  0  0  0  0  0  0  0  0  0
   -6.7970   17.8160  -34.4290 C   0  0  0  0  0  0  0  0  0  0  0  0
   -5.9310   15.7820  -33.2260 C   0  0  0  0  0  0  0  0  0  0  0  0
   -5.1560   12.0710  -30.7490 C   0  0  0  0  0  0  0  0  0  0  0  0
   -5.8480   11.3340  -31.9880 C   0  0  0  0  0  0  0  0  0  0  0  0
  -14.5980   15.2330  -37.6340 F   0  0  0  0  0  0  0  0  0  0  0  0
  1  3  1  0
  1  4  1  0
  1 29  1  0
  2 31  1  0
  5  3  1  6
  5  6  1  0
  5 25  1  0
  6  7  1  0
  7  8  1  0
  7 12  1  0
  8  9  1  0
  9 10  1  0
 10 11  1  0
 10 38  1  0
 11 12  1  0
 13 14  1  0
 13 25  1  0
 14 15  1  1
 14 20  1  0
 16 15  1  6
 16 17  1  0
 16 37  1  0
 17 18  1  0
 17 19  1  0
 18 36  1  0
 20 21  1  0
 21 22  1  0
 22 23  1  0
 22 24  1  0
 23 27  1  0
 25 26  1  0
 27 28  1  0
 29 30  1  1
 29 33  1  0
 30 31  1  0
 31 32  1  0
 33 34  1  0
 33 35  1  0
 36 37  1  0
A    1
 C01
A    2
 C1 
A    3
 C02
A    4
 O03
A    5
 C04
A    6
 C05
A    7
 C06
A    8
 C07
A    9
 C08
A   10
 C09
A   11
 C10
A   12
 C11
A   13
 N12
A   14
 C13
A   15
 C14
A   16
 C15
A   17
 C16
A   18
 N17
A   19
 O18
A   20
 C19
A   21
 C20
A   22
 C21
A   23
 O22
A   24
 O23
A   25
 C47
A   26
 O48
A   27
 C50
A   28
 C53
A   29
 C57
A   30
 N58
A   31
 C59
A   32
 O60
A   33
 C78
A   34
 C81
A   35
 C82
A   36
 C83
A   37
 C84
A   38
 F1 
M  END
>  <XChem_code>  (617) 
AG7§12

>  <Occupancy>  (617) 
[1.0, 1.0, 1.0, 1.0, 1.0, 1.0, 1.0, 1.0, 1.0, 1.0, 1.0, 1.0, 1.0, 1.0, 1.0, 1.0, 1.0, 1.0, 1.0, 1.0, 1.0, 1.0, 1.0, 1.0, 1.0, 1.0, 1.0, 1.0, 1.0, 1.0, 1.0, 1.0, 1.0, 1.0, 1.0, 1.0, 1.0, 1.0]

>  <TempFactor>  (617) 
[56.87, 76.17, 55.13, 39.03, 48.62, 52.58, 47.89, 46.71, 48.3, 47.91, 49.6, 49.69, 42.73, 41.63, 39.08, 34.68, 26.06, 30.82, 26.95, 46.9, 46.82, 50.79, 56.24, 49.99, 47.58, 46.28, 59.41, 58.23, 62.42, 63.63, 73.33, 77.2, 64.57, 66.68, 74.14, 34.72, 36.83, 48.64]

>  <accession>  (617) 
6KU8_A

>  <description>  (617) 
Chain A, Genome polyprotein [Rhinovirus C]

>  <evalue>  (617) 
6.1081299999999999e-61

>  <pdb_code>  (617) 
6KU8

>  <chain>  (617) 
A

>  <ligands>  (617) 
[{'chain_id': 'A', 'author_residue_number': 501, 'author_insertion_code': '', 'chem_comp_id': 'AG7', 'alternate_conformers': 0, 'entity_id': 2, 'struct_asym_id': 'B', 'residue_number': 1, 'chem_comp_name': '4-{2-(4-FLUORO-BENZYL)-6-METHYL-5-[(5-METHYL-ISOXAZOLE-3-CARBONYL)-AMINO]-4-OXO-HEPTANOYLAMINO}-5-(2-OXO-PYRROLIDIN-3-YL)-PENTANOIC ACID ETHYL ESTER', 'weight': 600.678, 'carbohydrate_polymer': False, 'branch_name': ''}]

>  <ligand_codes>  (617) 
['AG7']

>  <cofactor_codes>  (617) 
[]

>  <has_cofactor>  (617) 
False

>  <covalent>  (617) 
False

>  <base_name>  (617) 
6KU8

>  <lig_resn>  (617) 
AG7

>  <lig_resi>  (617) 
501

>  <lig_chain>  (617) 
A

>  <lig_segi>  (617) 
B

>  <lig_alt>  (617) 


>  <polymer_chain>  (617) 
A

>  <single_smiles>  (617) 
CCOC(=O)CC[C@H](C[C@@H]1CCNC1=O)NC(=O)[C@@H](CC(=O)[C@@H](NC(=O)c2cc(C)on2)C(C)C)Cc3ccc(F)cc3

$$$$
AG7P12S1
     RDKit          3D

 15 15  0  0  0  0  0  0  0  0999 V2000
   -7.3030    9.5660  -33.6750 C   0  0  0  0  0  0  0  0  0  0  0  0
   -7.3990    9.4630  -32.1610 C   0  0  0  0  0  0  0  0  0  0  0  0
   -7.0890    8.1890  -34.3170 C   0  0  0  0  0  0  0  0  0  0  0  0
   -6.9980   10.8370  -31.5010 C   0  0  1  0  0  0  0  0  0  0  0  0
   -7.6300    8.1640  -35.7550 C   0  0  0  0  0  0  0  0  0  0  0  0
   -6.7450   10.5870  -29.9270 C   0  0  0  0  0  0  0  0  0  0  0  0
   -5.8480   11.3340  -31.9880 C   0  0  0  0  0  0  0  0  0  0  0  0
   -6.3370    8.3890  -36.5060 C   0  0  0  0  0  0  0  0  0  0  0  0
   -5.7030   11.3120  -29.5520 N   0  0  0  0  0  0  0  0  0  0  0  0
   -7.3960    9.8790  -29.2360 O   0  0  0  0  0  0  0  0  0  0  0  0
   -5.1560   12.0710  -30.7490 C   0  0  0  0  0  0  0  0  0  0  0  0
   -6.2970    9.1800  -37.6510 O   0  0  0  0  0  0  0  0  0  0  0  0
   -5.3570    7.9030  -36.0570 O   0  0  0  0  0  0  0  0  0  0  0  0
   -4.9980    9.2960  -38.1470 C   0  0  0  0  0  0  0  0  0  0  0  0
   -5.0760    9.8510  -39.5680 C   0  0  0  0  0  0  0  0  0  0  0  0
  1  2  1  6
  1  3  1  0
  4  2  1  6
  3  5  1  0
  4  6  1  0
  4  7  1  0
  5  8  1  0
  6  9  1  0
  6 10  1  0
 11  7  1  0
  8 12  1  0
  8 13  1  0
  9 11  1  0
 12 14  1  0
 14 15  1  0
A    2
 C14
A    3
 C19
A    4
 C15
A    5
 C20
A    6
 C16
A    7
 C84
A    8
 C21
A    9
 N17
A   10
 O18
A   11
 C83
A   12
 O22
A   13
 O23
A   14
 C50
A   15
 C53
M  END
>  <XChem_code>  (618) 
AG7§12

>  <Occupancy>  (618) 
[1.0, 1.0, 1.0, 1.0, 1.0, 1.0, 1.0, 1.0, 1.0, 1.0, 1.0, 1.0, 1.0, 1.0, 1.0, 1.0, 1.0, 1.0, 1.0, 1.0, 1.0, 1.0, 1.0, 1.0, 1.0, 1.0, 1.0, 1.0, 1.0, 1.0, 1.0, 1.0, 1.0, 1.0, 1.0, 1.0, 1.0, 1.0]

>  <TempFactor>  (618) 
[56.87, 76.17, 55.13, 39.03, 48.62, 52.58, 47.89, 46.71, 48.3, 47.91, 49.6, 49.69, 42.73, 41.63, 39.08, 34.68, 26.06, 30.82, 26.95, 46.9, 46.82, 50.79, 56.24, 49.99, 47.58, 46.28, 59.41, 58.23, 62.42, 63.63, 73.33, 77.2, 64.57, 66.68, 74.14, 34.72, 36.83, 48.64]

>  <accession>  (618) 
6KU8_A

>  <description>  (618) 
Chain A, Genome polyprotein [Rhinovirus C]

>  <evalue>  (618) 
6.1081299999999999e-61

>  <pdb_code>  (618) 
6KU8

>  <chain>  (618) 
A

>  <ligands>  (618) 
[{'chain_id': 'A', 'author_residue_number': 501, 'author_insertion_code': '', 'chem_comp_id': 'AG7', 'alternate_conformers': 0, 'entity_id': 2, 'struct_asym_id': 'B', 'residue_number': 1, 'chem_comp_name': '4-{2-(4-FLUORO-BENZYL)-6-METHYL-5-[(5-METHYL-ISOXAZOLE-3-CARBONYL)-AMINO]-4-OXO-HEPTANOYLAMINO}-5-(2-OXO-PYRROLIDIN-3-YL)-PENTANOIC ACID ETHYL ESTER', 'weight': 600.678, 'carbohydrate_polymer': False, 'branch_name': ''}]

>  <ligand_codes>  (618) 
['AG7']

>  <cofactor_codes>  (618) 
[]

>  <has_cofactor>  (618) 
False

>  <covalent>  (618) 
False

>  <base_name>  (618) 
6KU8

>  <lig_resn>  (618) 
AG7

>  <lig_resi>  (618) 
501

>  <lig_chain>  (618) 
A

>  <lig_segi>  (618) 
B

>  <lig_alt>  (618) 


>  <polymer_chain>  (618) 
A

>  <single_smiles>  (618) 
CCOC(=O)CC[C@H](C[C@@H]1CCNC1=O)NC(=O)[C@@H](CC(=O)[C@@H](NC(=O)c2cc(C)on2)C(C)C)Cc3ccc(F)cc3

$$$$
AG7P12S2
     RDKit          3D

 23 23  0  0  0  0  0  0  0  0999 V2000
   -8.4720   10.3790  -34.0520 N   0  0  0  0  0  0  0  0  0  0  0  0
   -8.2170   11.5620  -34.8560 C   0  0  0  0  0  0  0  0  0  0  0  0
   -9.3130   12.5410  -35.2750 C   0  0  1  0  0  0  0  0  0  0  0  0
   -7.1000   11.7820  -35.1800 O   0  0  0  0  0  0  0  0  0  0  0  0
   -8.6930   13.9260  -35.1370 C   0  0  0  0  0  0  0  0  0  0  0  0
   -9.7000   12.4750  -36.7420 C   0  0  0  0  0  0  0  0  0  0  0  0
   -8.5670   14.4320  -33.7110 C   0  0  0  0  0  0  0  0  0  0  0  0
  -11.0210   13.2200  -36.9910 C   0  0  0  0  0  0  0  0  0  0  0  0
   -8.6070   13.7560  -32.7230 O   0  0  0  0  0  0  0  0  0  0  0  0
   -8.3750   15.9370  -33.7070 C   0  0  1  0  0  0  0  0  0  0  0  0
  -12.1300   12.9450  -36.2050 C   0  0  0  0  0  0  0  0  0  0  0  0
  -11.1130   14.1790  -37.9990 C   0  0  0  0  0  0  0  0  0  0  0  0
   -8.4690   16.4220  -32.3850 N   0  0  0  0  0  0  0  0  0  0  0  0
   -6.9790   16.3080  -34.2120 C   0  0  0  0  0  0  0  0  0  0  0  0
  -13.3220   13.6160  -36.4240 C   0  0  0  0  0  0  0  0  0  0  0  0
  -12.3090   14.8520  -38.2170 C   0  0  0  0  0  0  0  0  0  0  0  0
   -9.0480   17.7050  -32.1870 C   0  0  0  0  0  0  0  0  0  0  0  0
   -6.7970   17.8160  -34.4290 C   0  0  0  0  0  0  0  0  0  0  0  0
   -5.9310   15.7820  -33.2260 C   0  0  0  0  0  0  0  0  0  0  0  0
  -13.4160   14.5720  -37.4290 C   0  0  0  0  0  0  0  0  0  0  0  0
   -8.9960   18.0230  -30.7400 C   0  0  0  0  0  0  0  0  0  0  0  0
   -9.4860   18.4290  -33.0250 O   0  0  0  0  0  0  0  0  0  0  0  0
  -14.5980   15.2330  -37.6340 F   0  0  0  0  0  0  0  0  0  0  0  0
  1  2  1  0
  3  2  1  0
  2  4  1  0
  3  5  1  6
  3  6  1  0
  7  5  1  0
  6  8  1  0
  7  9  1  0
  7 10  1  0
  8 11  1  0
  8 12  1  0
 10 13  1  1
 10 14  1  0
 11 15  1  0
 16 12  1  0
 13 17  1  0
 14 18  1  0
 14 19  1  0
 15 20  1  0
 20 16  1  0
 21 17  1  0
 17 22  1  0
 20 23  1  0
A    2
 C47
A    3
 C04
A    4
 O48
A    5
 C02
A    6
 C05
A    7
 C01
A    8
 C06
A    9
 O03
A   10
 C57
A   11
 C07
A   12
 C11
A   13
 N58
A   14
 C78
A   15
 C08
A   16
 C10
A   17
 C59
A   18
 C81
A   19
 C82
A   20
 C09
A   21
 C1 
A   22
 O60
A   23
 F1 
M  END
>  <XChem_code>  (619) 
AG7§12

>  <Occupancy>  (619) 
[1.0, 1.0, 1.0, 1.0, 1.0, 1.0, 1.0, 1.0, 1.0, 1.0, 1.0, 1.0, 1.0, 1.0, 1.0, 1.0, 1.0, 1.0, 1.0, 1.0, 1.0, 1.0, 1.0, 1.0, 1.0, 1.0, 1.0, 1.0, 1.0, 1.0, 1.0, 1.0, 1.0, 1.0, 1.0, 1.0, 1.0, 1.0]

>  <TempFactor>  (619) 
[56.87, 76.17, 55.13, 39.03, 48.62, 52.58, 47.89, 46.71, 48.3, 47.91, 49.6, 49.69, 42.73, 41.63, 39.08, 34.68, 26.06, 30.82, 26.95, 46.9, 46.82, 50.79, 56.24, 49.99, 47.58, 46.28, 59.41, 58.23, 62.42, 63.63, 73.33, 77.2, 64.57, 66.68, 74.14, 34.72, 36.83, 48.64]

>  <accession>  (619) 
6KU8_A

>  <description>  (619) 
Chain A, Genome polyprotein [Rhinovirus C]

>  <evalue>  (619) 
6.1081299999999999e-61

>  <pdb_code>  (619) 
6KU8

>  <chain>  (619) 
A

>  <ligands>  (619) 
[{'chain_id': 'A', 'author_residue_number': 501, 'author_insertion_code': '', 'chem_comp_id': 'AG7', 'alternate_conformers': 0, 'entity_id': 2, 'struct_asym_id': 'B', 'residue_number': 1, 'chem_comp_name': '4-{2-(4-FLUORO-BENZYL)-6-METHYL-5-[(5-METHYL-ISOXAZOLE-3-CARBONYL)-AMINO]-4-OXO-HEPTANOYLAMINO}-5-(2-OXO-PYRROLIDIN-3-YL)-PENTANOIC ACID ETHYL ESTER', 'weight': 600.678, 'carbohydrate_polymer': False, 'branch_name': ''}]

>  <ligand_codes>  (619) 
['AG7']

>  <cofactor_codes>  (619) 
[]

>  <has_cofactor>  (619) 
False

>  <covalent>  (619) 
False

>  <base_name>  (619) 
6KU8

>  <lig_resn>  (619) 
AG7

>  <lig_resi>  (619) 
501

>  <lig_chain>  (619) 
A

>  <lig_segi>  (619) 
B

>  <lig_alt>  (619) 


>  <polymer_chain>  (619) 
A

>  <single_smiles>  (619) 
CCOC(=O)CC[C@H](C[C@@H]1CCNC1=O)NC(=O)[C@@H](CC(=O)[C@@H](NC(=O)c2cc(C)on2)C(C)C)Cc3ccc(F)cc3

$$$$
AG7P12S3
     RDKit          3D

 16 16  0  0  0  0  0  0  0  0999 V2000
   -8.4720   10.3790  -34.0520 N   0  0  0  0  0  0  0  0  0  0  0  0
   -7.3030    9.5660  -33.6750 C   0  0  1  0  0  0  0  0  0  0  0  0
   -7.3990    9.4630  -32.1610 C   0  0  0  0  0  0  0  0  0  0  0  0
   -7.0890    8.1890  -34.3170 C   0  0  0  0  0  0  0  0  0  0  0  0
   -6.9980   10.8370  -31.5010 C   0  0  1  0  0  0  0  0  0  0  0  0
   -7.6300    8.1640  -35.7550 C   0  0  0  0  0  0  0  0  0  0  0  0
   -6.7450   10.5870  -29.9270 C   0  0  0  0  0  0  0  0  0  0  0  0
   -5.8480   11.3340  -31.9880 C   0  0  0  0  0  0  0  0  0  0  0  0
   -6.3370    8.3890  -36.5060 C   0  0  0  0  0  0  0  0  0  0  0  0
   -5.7030   11.3120  -29.5520 N   0  0  0  0  0  0  0  0  0  0  0  0
   -7.3960    9.8790  -29.2360 O   0  0  0  0  0  0  0  0  0  0  0  0
   -5.1560   12.0710  -30.7490 C   0  0  0  0  0  0  0  0  0  0  0  0
   -6.2970    9.1800  -37.6510 O   0  0  0  0  0  0  0  0  0  0  0  0
   -5.3570    7.9030  -36.0570 O   0  0  0  0  0  0  0  0  0  0  0  0
   -4.9980    9.2960  -38.1470 C   0  0  0  0  0  0  0  0  0  0  0  0
   -5.0760    9.8510  -39.5680 C   0  0  0  0  0  0  0  0  0  0  0  0
  2  1  1  6
  2  3  1  0
  2  4  1  0
  5  3  1  6
  4  6  1  0
  5  7  1  0
  5  8  1  0
  6  9  1  0
  7 10  1  0
  7 11  1  0
 12  8  1  0
  9 13  1  0
  9 14  1  0
 10 12  1  0
 13 15  1  0
 15 16  1  0
A    2
 C13
A    3
 C14
A    4
 C19
A    5
 C15
A    6
 C20
A    7
 C16
A    8
 C84
A    9
 C21
A   10
 N17
A   11
 O18
A   12
 C83
A   13
 O22
A   14
 O23
A   15
 C50
A   16
 C53
M  END
>  <XChem_code>  (620) 
AG7§12

>  <Occupancy>  (620) 
[1.0, 1.0, 1.0, 1.0, 1.0, 1.0, 1.0, 1.0, 1.0, 1.0, 1.0, 1.0, 1.0, 1.0, 1.0, 1.0, 1.0, 1.0, 1.0, 1.0, 1.0, 1.0, 1.0, 1.0, 1.0, 1.0, 1.0, 1.0, 1.0, 1.0, 1.0, 1.0, 1.0, 1.0, 1.0, 1.0, 1.0, 1.0]

>  <TempFactor>  (620) 
[56.87, 76.17, 55.13, 39.03, 48.62, 52.58, 47.89, 46.71, 48.3, 47.91, 49.6, 49.69, 42.73, 41.63, 39.08, 34.68, 26.06, 30.82, 26.95, 46.9, 46.82, 50.79, 56.24, 49.99, 47.58, 46.28, 59.41, 58.23, 62.42, 63.63, 73.33, 77.2, 64.57, 66.68, 74.14, 34.72, 36.83, 48.64]

>  <accession>  (620) 
6KU8_A

>  <description>  (620) 
Chain A, Genome polyprotein [Rhinovirus C]

>  <evalue>  (620) 
6.1081299999999999e-61

>  <pdb_code>  (620) 
6KU8

>  <chain>  (620) 
A

>  <ligands>  (620) 
[{'chain_id': 'A', 'author_residue_number': 501, 'author_insertion_code': '', 'chem_comp_id': 'AG7', 'alternate_conformers': 0, 'entity_id': 2, 'struct_asym_id': 'B', 'residue_number': 1, 'chem_comp_name': '4-{2-(4-FLUORO-BENZYL)-6-METHYL-5-[(5-METHYL-ISOXAZOLE-3-CARBONYL)-AMINO]-4-OXO-HEPTANOYLAMINO}-5-(2-OXO-PYRROLIDIN-3-YL)-PENTANOIC ACID ETHYL ESTER', 'weight': 600.678, 'carbohydrate_polymer': False, 'branch_name': ''}]

>  <ligand_codes>  (620) 
['AG7']

>  <cofactor_codes>  (620) 
[]

>  <has_cofactor>  (620) 
False

>  <covalent>  (620) 
False

>  <base_name>  (620) 
6KU8

>  <lig_resn>  (620) 
AG7

>  <lig_resi>  (620) 
501

>  <lig_chain>  (620) 
A

>  <lig_segi>  (620) 
B

>  <lig_alt>  (620) 


>  <polymer_chain>  (620) 
A

>  <single_smiles>  (620) 
CCOC(=O)CC[C@H](C[C@@H]1CCNC1=O)NC(=O)[C@@H](CC(=O)[C@@H](NC(=O)c2cc(C)on2)C(C)C)Cc3ccc(F)cc3

$$$$
AG7P12S4
     RDKit          3D

 22 22  0  0  0  0  0  0  0  0999 V2000
   -8.2170   11.5620  -34.8560 C   0  0  0  0  0  0  0  0  0  0  0  0
   -9.3130   12.5410  -35.2750 C   0  0  1  0  0  0  0  0  0  0  0  0
   -7.1000   11.7820  -35.1800 O   0  0  0  0  0  0  0  0  0  0  0  0
   -8.6930   13.9260  -35.1370 C   0  0  0  0  0  0  0  0  0  0  0  0
   -9.7000   12.4750  -36.7420 C   0  0  0  0  0  0  0  0  0  0  0  0
   -8.5670   14.4320  -33.7110 C   0  0  0  0  0  0  0  0  0  0  0  0
  -11.0210   13.2200  -36.9910 C   0  0  0  0  0  0  0  0  0  0  0  0
   -8.6070   13.7560  -32.7230 O   0  0  0  0  0  0  0  0  0  0  0  0
   -8.3750   15.9370  -33.7070 C   0  0  1  0  0  0  0  0  0  0  0  0
  -12.1300   12.9450  -36.2050 C   0  0  0  0  0  0  0  0  0  0  0  0
  -11.1130   14.1790  -37.9990 C   0  0  0  0  0  0  0  0  0  0  0  0
   -8.4690   16.4220  -32.3850 N   0  0  0  0  0  0  0  0  0  0  0  0
   -6.9790   16.3080  -34.2120 C   0  0  0  0  0  0  0  0  0  0  0  0
  -13.3220   13.6160  -36.4240 C   0  0  0  0  0  0  0  0  0  0  0  0
  -12.3090   14.8520  -38.2170 C   0  0  0  0  0  0  0  0  0  0  0  0
   -9.0480   17.7050  -32.1870 C   0  0  0  0  0  0  0  0  0  0  0  0
   -6.7970   17.8160  -34.4290 C   0  0  0  0  0  0  0  0  0  0  0  0
   -5.9310   15.7820  -33.2260 C   0  0  0  0  0  0  0  0  0  0  0  0
  -13.4160   14.5720  -37.4290 C   0  0  0  0  0  0  0  0  0  0  0  0
   -8.9960   18.0230  -30.7400 C   0  0  0  0  0  0  0  0  0  0  0  0
   -9.4860   18.4290  -33.0250 O   0  0  0  0  0  0  0  0  0  0  0  0
  -14.5980   15.2330  -37.6340 F   0  0  0  0  0  0  0  0  0  0  0  0
  2  1  1  6
  1  3  1  0
  2  4  1  0
  2  5  1  0
  6  4  1  0
  5  7  1  0
  6  8  1  0
  6  9  1  0
  7 10  1  0
  7 11  1  0
  9 12  1  1
  9 13  1  0
 10 14  1  0
 15 11  1  0
 12 16  1  0
 13 17  1  0
 13 18  1  0
 14 19  1  0
 19 15  1  0
 20 16  1  0
 16 21  1  0
 19 22  1  0
A    2
 C04
A    3
 O48
A    4
 C02
A    5
 C05
A    6
 C01
A    7
 C06
A    8
 O03
A    9
 C57
A   10
 C07
A   11
 C11
A   12
 N58
A   13
 C78
A   14
 C08
A   15
 C10
A   16
 C59
A   17
 C81
A   18
 C82
A   19
 C09
A   20
 C1 
A   21
 O60
A   22
 F1 
M  END
>  <XChem_code>  (621) 
AG7§12

>  <Occupancy>  (621) 
[1.0, 1.0, 1.0, 1.0, 1.0, 1.0, 1.0, 1.0, 1.0, 1.0, 1.0, 1.0, 1.0, 1.0, 1.0, 1.0, 1.0, 1.0, 1.0, 1.0, 1.0, 1.0, 1.0, 1.0, 1.0, 1.0, 1.0, 1.0, 1.0, 1.0, 1.0, 1.0, 1.0, 1.0, 1.0, 1.0, 1.0, 1.0]

>  <TempFactor>  (621) 
[56.87, 76.17, 55.13, 39.03, 48.62, 52.58, 47.89, 46.71, 48.3, 47.91, 49.6, 49.69, 42.73, 41.63, 39.08, 34.68, 26.06, 30.82, 26.95, 46.9, 46.82, 50.79, 56.24, 49.99, 47.58, 46.28, 59.41, 58.23, 62.42, 63.63, 73.33, 77.2, 64.57, 66.68, 74.14, 34.72, 36.83, 48.64]

>  <accession>  (621) 
6KU8_A

>  <description>  (621) 
Chain A, Genome polyprotein [Rhinovirus C]

>  <evalue>  (621) 
6.1081299999999999e-61

>  <pdb_code>  (621) 
6KU8

>  <chain>  (621) 
A

>  <ligands>  (621) 
[{'chain_id': 'A', 'author_residue_number': 501, 'author_insertion_code': '', 'chem_comp_id': 'AG7', 'alternate_conformers': 0, 'entity_id': 2, 'struct_asym_id': 'B', 'residue_number': 1, 'chem_comp_name': '4-{2-(4-FLUORO-BENZYL)-6-METHYL-5-[(5-METHYL-ISOXAZOLE-3-CARBONYL)-AMINO]-4-OXO-HEPTANOYLAMINO}-5-(2-OXO-PYRROLIDIN-3-YL)-PENTANOIC ACID ETHYL ESTER', 'weight': 600.678, 'carbohydrate_polymer': False, 'branch_name': ''}]

>  <ligand_codes>  (621) 
['AG7']

>  <cofactor_codes>  (621) 
[]

>  <has_cofactor>  (621) 
False

>  <covalent>  (621) 
False

>  <base_name>  (621) 
6KU8

>  <lig_resn>  (621) 
AG7

>  <lig_resi>  (621) 
501

>  <lig_chain>  (621) 
A

>  <lig_segi>  (621) 
B

>  <lig_alt>  (621) 


>  <polymer_chain>  (621) 
A

>  <single_smiles>  (621) 
CCOC(=O)CC[C@H](C[C@@H]1CCNC1=O)NC(=O)[C@@H](CC(=O)[C@@H](NC(=O)c2cc(C)on2)C(C)C)Cc3ccc(F)cc3

$$$$
AG7P12S5
     RDKit          3D

  4  3  0  0  0  0  0  0  0  0999 V2000
   -8.4690   16.4220  -32.3850 N   0  0  0  0  0  0  0  0  0  0  0  0
   -9.0480   17.7050  -32.1870 C   0  0  0  0  0  0  0  0  0  0  0  0
   -8.9960   18.0230  -30.7400 C   0  0  0  0  0  0  0  0  0  0  0  0
   -9.4860   18.4290  -33.0250 O   0  0  0  0  0  0  0  0  0  0  0  0
  1  2  1  0
  3  2  1  0
  2  4  1  0
A    2
 C59
A    3
 C1 
A    4
 O60
M  END
>  <XChem_code>  (622) 
AG7§12

>  <Occupancy>  (622) 
[1.0, 1.0, 1.0, 1.0, 1.0, 1.0, 1.0, 1.0, 1.0, 1.0, 1.0, 1.0, 1.0, 1.0, 1.0, 1.0, 1.0, 1.0, 1.0, 1.0, 1.0, 1.0, 1.0, 1.0, 1.0, 1.0, 1.0, 1.0, 1.0, 1.0, 1.0, 1.0, 1.0, 1.0, 1.0, 1.0, 1.0, 1.0]

>  <TempFactor>  (622) 
[56.87, 76.17, 55.13, 39.03, 48.62, 52.58, 47.89, 46.71, 48.3, 47.91, 49.6, 49.69, 42.73, 41.63, 39.08, 34.68, 26.06, 30.82, 26.95, 46.9, 46.82, 50.79, 56.24, 49.99, 47.58, 46.28, 59.41, 58.23, 62.42, 63.63, 73.33, 77.2, 64.57, 66.68, 74.14, 34.72, 36.83, 48.64]

>  <accession>  (622) 
6KU8_A

>  <description>  (622) 
Chain A, Genome polyprotein [Rhinovirus C]

>  <evalue>  (622) 
6.1081299999999999e-61

>  <pdb_code>  (622) 
6KU8

>  <chain>  (622) 
A

>  <ligands>  (622) 
[{'chain_id': 'A', 'author_residue_number': 501, 'author_insertion_code': '', 'chem_comp_id': 'AG7', 'alternate_conformers': 0, 'entity_id': 2, 'struct_asym_id': 'B', 'residue_number': 1, 'chem_comp_name': '4-{2-(4-FLUORO-BENZYL)-6-METHYL-5-[(5-METHYL-ISOXAZOLE-3-CARBONYL)-AMINO]-4-OXO-HEPTANOYLAMINO}-5-(2-OXO-PYRROLIDIN-3-YL)-PENTANOIC ACID ETHYL ESTER', 'weight': 600.678, 'carbohydrate_polymer': False, 'branch_name': ''}]

>  <ligand_codes>  (622) 
['AG7']

>  <cofactor_codes>  (622) 
[]

>  <has_cofactor>  (622) 
False

>  <covalent>  (622) 
False

>  <base_name>  (622) 
6KU8

>  <lig_resn>  (622) 
AG7

>  <lig_resi>  (622) 
501

>  <lig_chain>  (622) 
A

>  <lig_segi>  (622) 
B

>  <lig_alt>  (622) 


>  <polymer_chain>  (622) 
A

>  <single_smiles>  (622) 
CCOC(=O)CC[C@H](C[C@@H]1CCNC1=O)NC(=O)[C@@H](CC(=O)[C@@H](NC(=O)c2cc(C)on2)C(C)C)Cc3ccc(F)cc3

$$$$
AG7P12S6
     RDKit          3D

 34 35  0  0  0  0  0  0  0  0999 V2000
   -8.3750   15.9370  -33.7070 C   0  0  0  0  0  0  0  0  0  0  0  0
   -8.5670   14.4320  -33.7110 C   0  0  0  0  0  0  0  0  0  0  0  0
   -6.9790   16.3080  -34.2120 C   0  0  0  0  0  0  0  0  0  0  0  0
   -8.6930   13.9260  -35.1370 C   0  0  0  0  0  0  0  0  0  0  0  0
   -8.6070   13.7560  -32.7230 O   0  0  0  0  0  0  0  0  0  0  0  0
   -6.7970   17.8160  -34.4290 C   0  0  0  0  0  0  0  0  0  0  0  0
   -5.9310   15.7820  -33.2260 C   0  0  0  0  0  0  0  0  0  0  0  0
   -9.3130   12.5410  -35.2750 C   0  0  1  0  0  0  0  0  0  0  0  0
   -9.7000   12.4750  -36.7420 C   0  0  0  0  0  0  0  0  0  0  0  0
   -8.2170   11.5620  -34.8560 C   0  0  0  0  0  0  0  0  0  0  0  0
  -11.0210   13.2200  -36.9910 C   0  0  0  0  0  0  0  0  0  0  0  0
   -8.4720   10.3790  -34.0520 N   0  0  0  0  0  0  0  0  0  0  0  0
   -7.1000   11.7820  -35.1800 O   0  0  0  0  0  0  0  0  0  0  0  0
  -12.1300   12.9450  -36.2050 C   0  0  0  0  0  0  0  0  0  0  0  0
  -11.1130   14.1790  -37.9990 C   0  0  0  0  0  0  0  0  0  0  0  0
   -7.3030    9.5660  -33.6750 C   0  0  1  0  0  0  0  0  0  0  0  0
  -13.3220   13.6160  -36.4240 C   0  0  0  0  0  0  0  0  0  0  0  0
  -12.3090   14.8520  -38.2170 C   0  0  0  0  0  0  0  0  0  0  0  0
   -7.3990    9.4630  -32.1610 C   0  0  0  0  0  0  0  0  0  0  0  0
   -7.0890    8.1890  -34.3170 C   0  0  0  0  0  0  0  0  0  0  0  0
  -13.4160   14.5720  -37.4290 C   0  0  0  0  0  0  0  0  0  0  0  0
   -6.9980   10.8370  -31.5010 C   0  0  1  0  0  0  0  0  0  0  0  0
   -7.6300    8.1640  -35.7550 C   0  0  0  0  0  0  0  0  0  0  0  0
  -14.5980   15.2330  -37.6340 F   0  0  0  0  0  0  0  0  0  0  0  0
   -6.7450   10.5870  -29.9270 C   0  0  0  0  0  0  0  0  0  0  0  0
   -5.8480   11.3340  -31.9880 C   0  0  0  0  0  0  0  0  0  0  0  0
   -6.3370    8.3890  -36.5060 C   0  0  0  0  0  0  0  0  0  0  0  0
   -5.7030   11.3120  -29.5520 N   0  0  0  0  0  0  0  0  0  0  0  0
   -7.3960    9.8790  -29.2360 O   0  0  0  0  0  0  0  0  0  0  0  0
   -5.1560   12.0710  -30.7490 C   0  0  0  0  0  0  0  0  0  0  0  0
   -6.2970    9.1800  -37.6510 O   0  0  0  0  0  0  0  0  0  0  0  0
   -5.3570    7.9030  -36.0570 O   0  0  0  0  0  0  0  0  0  0  0  0
   -4.9980    9.2960  -38.1470 C   0  0  0  0  0  0  0  0  0  0  0  0
   -5.0760    9.8510  -39.5680 C   0  0  0  0  0  0  0  0  0  0  0  0
  1  2  1  1
  1  3  1  0
  2  4  1  0
  2  5  1  0
  3  6  1  0
  3  7  1  0
  8  4  1  6
  8  9  1  0
  8 10  1  0
  9 11  1  0
 12 10  1  0
 10 13  1  0
 11 14  1  0
 11 15  1  0
 12 16  1  0
 14 17  1  0
 18 15  1  0
 16 19  1  1
 16 20  1  0
 17 21  1  0
 21 18  1  0
 22 19  1  6
 20 23  1  0
 21 24  1  0
 22 25  1  0
 22 26  1  0
 23 27  1  0
 25 28  1  0
 25 29  1  0
 30 26  1  0
 27 31  1  0
 27 32  1  0
 28 30  1  0
 31 33  1  0
 33 34  1  0
A    2
 C01
A    3
 C78
A    4
 C02
A    5
 O03
A    6
 C81
A    7
 C82
A    8
 C04
A    9
 C05
A   10
 C47
A   11
 C06
A   12
 N12
A   13
 O48
A   14
 C07
A   15
 C11
A   16
 C13
A   17
 C08
A   18
 C10
A   19
 C14
A   20
 C19
A   21
 C09
A   22
 C15
A   23
 C20
A   24
 F1 
A   25
 C16
A   26
 C84
A   27
 C21
A   28
 N17
A   29
 O18
A   30
 C83
A   31
 O22
A   32
 O23
A   33
 C50
A   34
 C53
M  END
>  <XChem_code>  (623) 
AG7§12

>  <Occupancy>  (623) 
[1.0, 1.0, 1.0, 1.0, 1.0, 1.0, 1.0, 1.0, 1.0, 1.0, 1.0, 1.0, 1.0, 1.0, 1.0, 1.0, 1.0, 1.0, 1.0, 1.0, 1.0, 1.0, 1.0, 1.0, 1.0, 1.0, 1.0, 1.0, 1.0, 1.0, 1.0, 1.0, 1.0, 1.0, 1.0, 1.0, 1.0, 1.0]

>  <TempFactor>  (623) 
[56.87, 76.17, 55.13, 39.03, 48.62, 52.58, 47.89, 46.71, 48.3, 47.91, 49.6, 49.69, 42.73, 41.63, 39.08, 34.68, 26.06, 30.82, 26.95, 46.9, 46.82, 50.79, 56.24, 49.99, 47.58, 46.28, 59.41, 58.23, 62.42, 63.63, 73.33, 77.2, 64.57, 66.68, 74.14, 34.72, 36.83, 48.64]

>  <accession>  (623) 
6KU8_A

>  <description>  (623) 
Chain A, Genome polyprotein [Rhinovirus C]

>  <evalue>  (623) 
6.1081299999999999e-61

>  <pdb_code>  (623) 
6KU8

>  <chain>  (623) 
A

>  <ligands>  (623) 
[{'chain_id': 'A', 'author_residue_number': 501, 'author_insertion_code': '', 'chem_comp_id': 'AG7', 'alternate_conformers': 0, 'entity_id': 2, 'struct_asym_id': 'B', 'residue_number': 1, 'chem_comp_name': '4-{2-(4-FLUORO-BENZYL)-6-METHYL-5-[(5-METHYL-ISOXAZOLE-3-CARBONYL)-AMINO]-4-OXO-HEPTANOYLAMINO}-5-(2-OXO-PYRROLIDIN-3-YL)-PENTANOIC ACID ETHYL ESTER', 'weight': 600.678, 'carbohydrate_polymer': False, 'branch_name': ''}]

>  <ligand_codes>  (623) 
['AG7']

>  <cofactor_codes>  (623) 
[]

>  <has_cofactor>  (623) 
False

>  <covalent>  (623) 
False

>  <base_name>  (623) 
6KU8

>  <lig_resn>  (623) 
AG7

>  <lig_resi>  (623) 
501

>  <lig_chain>  (623) 
A

>  <lig_segi>  (623) 
B

>  <lig_alt>  (623) 


>  <polymer_chain>  (623) 
A

>  <single_smiles>  (623) 
CCOC(=O)CC[C@H](C[C@@H]1CCNC1=O)NC(=O)[C@@H](CC(=O)[C@@H](NC(=O)c2cc(C)on2)C(C)C)Cc3ccc(F)cc3

$$$$
AG7P12S7
     RDKit          3D

 19 19  0  0  0  0  0  0  0  0999 V2000
   -8.3750   15.9370  -33.7070 C   0  0  0  0  0  0  0  0  0  0  0  0
   -8.5670   14.4320  -33.7110 C   0  0  0  0  0  0  0  0  0  0  0  0
   -6.9790   16.3080  -34.2120 C   0  0  0  0  0  0  0  0  0  0  0  0
   -8.6930   13.9260  -35.1370 C   0  0  0  0  0  0  0  0  0  0  0  0
   -8.6070   13.7560  -32.7230 O   0  0  0  0  0  0  0  0  0  0  0  0
   -6.7970   17.8160  -34.4290 C   0  0  0  0  0  0  0  0  0  0  0  0
   -5.9310   15.7820  -33.2260 C   0  0  0  0  0  0  0  0  0  0  0  0
   -9.3130   12.5410  -35.2750 C   0  0  2  0  0  0  0  0  0  0  0  0
   -8.2170   11.5620  -34.8560 C   0  0  0  0  0  0  0  0  0  0  0  0
   -9.7000   12.4750  -36.7420 C   0  0  0  0  0  0  0  0  0  0  0  0
   -8.4720   10.3790  -34.0520 N   0  0  0  0  0  0  0  0  0  0  0  0
   -7.1000   11.7820  -35.1800 O   0  0  0  0  0  0  0  0  0  0  0  0
  -11.0210   13.2200  -36.9910 C   0  0  0  0  0  0  0  0  0  0  0  0
  -12.1300   12.9450  -36.2050 C   0  0  0  0  0  0  0  0  0  0  0  0
  -11.1130   14.1790  -37.9990 C   0  0  0  0  0  0  0  0  0  0  0  0
  -13.3220   13.6160  -36.4240 C   0  0  0  0  0  0  0  0  0  0  0  0
  -12.3090   14.8520  -38.2170 C   0  0  0  0  0  0  0  0  0  0  0  0
  -13.4160   14.5720  -37.4290 C   0  0  0  0  0  0  0  0  0  0  0  0
  -14.5980   15.2330  -37.6340 F   0  0  0  0  0  0  0  0  0  0  0  0
  1  2  1  1
  1  3  1  0
  2  4  1  0
  2  5  1  0
  3  6  1  0
  3  7  1  0
  8  4  1  6
  8  9  1  0
  8 10  1  0
 11  9  1  0
  9 12  1  0
 10 13  1  0
 13 14  1  0
 13 15  1  0
 14 16  1  0
 17 15  1  0
 16 18  1  0
 18 17  1  0
 18 19  1  0
A    2
 C01
A    3
 C78
A    4
 C02
A    5
 O03
A    6
 C81
A    7
 C82
A    8
 C04
A    9
 C47
A   10
 C05
A   12
 O48
A   13
 C06
A   14
 C07
A   15
 C11
A   16
 C08
A   17
 C10
A   18
 C09
A   19
 F1 
M  END
>  <XChem_code>  (624) 
AG7§12

>  <Occupancy>  (624) 
[1.0, 1.0, 1.0, 1.0, 1.0, 1.0, 1.0, 1.0, 1.0, 1.0, 1.0, 1.0, 1.0, 1.0, 1.0, 1.0, 1.0, 1.0, 1.0, 1.0, 1.0, 1.0, 1.0, 1.0, 1.0, 1.0, 1.0, 1.0, 1.0, 1.0, 1.0, 1.0, 1.0, 1.0, 1.0, 1.0, 1.0, 1.0]

>  <TempFactor>  (624) 
[56.87, 76.17, 55.13, 39.03, 48.62, 52.58, 47.89, 46.71, 48.3, 47.91, 49.6, 49.69, 42.73, 41.63, 39.08, 34.68, 26.06, 30.82, 26.95, 46.9, 46.82, 50.79, 56.24, 49.99, 47.58, 46.28, 59.41, 58.23, 62.42, 63.63, 73.33, 77.2, 64.57, 66.68, 74.14, 34.72, 36.83, 48.64]

>  <accession>  (624) 
6KU8_A

>  <description>  (624) 
Chain A, Genome polyprotein [Rhinovirus C]

>  <evalue>  (624) 
6.1081299999999999e-61

>  <pdb_code>  (624) 
6KU8

>  <chain>  (624) 
A

>  <ligands>  (624) 
[{'chain_id': 'A', 'author_residue_number': 501, 'author_insertion_code': '', 'chem_comp_id': 'AG7', 'alternate_conformers': 0, 'entity_id': 2, 'struct_asym_id': 'B', 'residue_number': 1, 'chem_comp_name': '4-{2-(4-FLUORO-BENZYL)-6-METHYL-5-[(5-METHYL-ISOXAZOLE-3-CARBONYL)-AMINO]-4-OXO-HEPTANOYLAMINO}-5-(2-OXO-PYRROLIDIN-3-YL)-PENTANOIC ACID ETHYL ESTER', 'weight': 600.678, 'carbohydrate_polymer': False, 'branch_name': ''}]

>  <ligand_codes>  (624) 
['AG7']

>  <cofactor_codes>  (624) 
[]

>  <has_cofactor>  (624) 
False

>  <covalent>  (624) 
False

>  <base_name>  (624) 
6KU8

>  <lig_resn>  (624) 
AG7

>  <lig_resi>  (624) 
501

>  <lig_chain>  (624) 
A

>  <lig_segi>  (624) 
B

>  <lig_alt>  (624) 


>  <polymer_chain>  (624) 
A

>  <single_smiles>  (624) 
CCOC(=O)CC[C@H](C[C@@H]1CCNC1=O)NC(=O)[C@@H](CC(=O)[C@@H](NC(=O)c2cc(C)on2)C(C)C)Cc3ccc(F)cc3

$$$$
AG7P12S8
     RDKit          3D

 18 18  0  0  0  0  0  0  0  0999 V2000
   -8.3750   15.9370  -33.7070 C   0  0  0  0  0  0  0  0  0  0  0  0
   -8.5670   14.4320  -33.7110 C   0  0  0  0  0  0  0  0  0  0  0  0
   -6.9790   16.3080  -34.2120 C   0  0  0  0  0  0  0  0  0  0  0  0
   -8.6930   13.9260  -35.1370 C   0  0  0  0  0  0  0  0  0  0  0  0
   -8.6070   13.7560  -32.7230 O   0  0  0  0  0  0  0  0  0  0  0  0
   -6.7970   17.8160  -34.4290 C   0  0  0  0  0  0  0  0  0  0  0  0
   -5.9310   15.7820  -33.2260 C   0  0  0  0  0  0  0  0  0  0  0  0
   -9.3130   12.5410  -35.2750 C   0  0  2  0  0  0  0  0  0  0  0  0
   -8.2170   11.5620  -34.8560 C   0  0  0  0  0  0  0  0  0  0  0  0
   -9.7000   12.4750  -36.7420 C   0  0  0  0  0  0  0  0  0  0  0  0
   -7.1000   11.7820  -35.1800 O   0  0  0  0  0  0  0  0  0  0  0  0
  -11.0210   13.2200  -36.9910 C   0  0  0  0  0  0  0  0  0  0  0  0
  -12.1300   12.9450  -36.2050 C   0  0  0  0  0  0  0  0  0  0  0  0
  -11.1130   14.1790  -37.9990 C   0  0  0  0  0  0  0  0  0  0  0  0
  -13.3220   13.6160  -36.4240 C   0  0  0  0  0  0  0  0  0  0  0  0
  -12.3090   14.8520  -38.2170 C   0  0  0  0  0  0  0  0  0  0  0  0
  -13.4160   14.5720  -37.4290 C   0  0  0  0  0  0  0  0  0  0  0  0
  -14.5980   15.2330  -37.6340 F   0  0  0  0  0  0  0  0  0  0  0  0
  1  2  1  1
  1  3  1  0
  2  4  1  0
  2  5  1  0
  3  6  1  0
  3  7  1  0
  8  4  1  6
  8  9  1  0
  8 10  1  0
  9 11  1  0
 10 12  1  0
 12 13  1  0
 12 14  1  0
 13 15  1  0
 16 14  1  0
 15 17  1  0
 17 16  1  0
 17 18  1  0
A    2
 C01
A    3
 C78
A    4
 C02
A    5
 O03
A    6
 C81
A    7
 C82
A    8
 C04
A   10
 C05
A   11
 O48
A   12
 C06
A   13
 C07
A   14
 C11
A   15
 C08
A   16
 C10
A   17
 C09
A   18
 F1 
M  END
>  <XChem_code>  (625) 
AG7§12

>  <Occupancy>  (625) 
[1.0, 1.0, 1.0, 1.0, 1.0, 1.0, 1.0, 1.0, 1.0, 1.0, 1.0, 1.0, 1.0, 1.0, 1.0, 1.0, 1.0, 1.0, 1.0, 1.0, 1.0, 1.0, 1.0, 1.0, 1.0, 1.0, 1.0, 1.0, 1.0, 1.0, 1.0, 1.0, 1.0, 1.0, 1.0, 1.0, 1.0, 1.0]

>  <TempFactor>  (625) 
[56.87, 76.17, 55.13, 39.03, 48.62, 52.58, 47.89, 46.71, 48.3, 47.91, 49.6, 49.69, 42.73, 41.63, 39.08, 34.68, 26.06, 30.82, 26.95, 46.9, 46.82, 50.79, 56.24, 49.99, 47.58, 46.28, 59.41, 58.23, 62.42, 63.63, 73.33, 77.2, 64.57, 66.68, 74.14, 34.72, 36.83, 48.64]

>  <accession>  (625) 
6KU8_A

>  <description>  (625) 
Chain A, Genome polyprotein [Rhinovirus C]

>  <evalue>  (625) 
6.1081299999999999e-61

>  <pdb_code>  (625) 
6KU8

>  <chain>  (625) 
A

>  <ligands>  (625) 
[{'chain_id': 'A', 'author_residue_number': 501, 'author_insertion_code': '', 'chem_comp_id': 'AG7', 'alternate_conformers': 0, 'entity_id': 2, 'struct_asym_id': 'B', 'residue_number': 1, 'chem_comp_name': '4-{2-(4-FLUORO-BENZYL)-6-METHYL-5-[(5-METHYL-ISOXAZOLE-3-CARBONYL)-AMINO]-4-OXO-HEPTANOYLAMINO}-5-(2-OXO-PYRROLIDIN-3-YL)-PENTANOIC ACID ETHYL ESTER', 'weight': 600.678, 'carbohydrate_polymer': False, 'branch_name': ''}]

>  <ligand_codes>  (625) 
['AG7']

>  <cofactor_codes>  (625) 
[]

>  <has_cofactor>  (625) 
False

>  <covalent>  (625) 
False

>  <base_name>  (625) 
6KU8

>  <lig_resn>  (625) 
AG7

>  <lig_resi>  (625) 
501

>  <lig_chain>  (625) 
A

>  <lig_segi>  (625) 
B

>  <lig_alt>  (625) 


>  <polymer_chain>  (625) 
A

>  <single_smiles>  (625) 
CCOC(=O)CC[C@H](C[C@@H]1CCNC1=O)NC(=O)[C@@H](CC(=O)[C@@H](NC(=O)c2cc(C)on2)C(C)C)Cc3ccc(F)cc3

$$$$
AG7P12S9
     RDKit          3D

  7  7  0  0  0  0  0  0  0  0999 V2000
  -11.0210   13.2200  -36.9910 C   0  0  0  0  0  0  0  0  0  0  0  0
  -12.1300   12.9450  -36.2050 C   0  0  0  0  0  0  0  0  0  0  0  0
  -11.1130   14.1790  -37.9990 C   0  0  0  0  0  0  0  0  0  0  0  0
  -13.3220   13.6160  -36.4240 C   0  0  0  0  0  0  0  0  0  0  0  0
  -12.3090   14.8520  -38.2170 C   0  0  0  0  0  0  0  0  0  0  0  0
  -13.4160   14.5720  -37.4290 C   0  0  0  0  0  0  0  0  0  0  0  0
  -14.5980   15.2330  -37.6340 F   0  0  0  0  0  0  0  0  0  0  0  0
  1  2  1  0
  1  3  1  0
  2  4  1  0
  5  3  1  0
  4  6  1  0
  6  5  1  0
  6  7  1  0
A    2
 C07
A    3
 C11
A    4
 C08
A    5
 C10
A    6
 C09
A    7
 F1 
M  END
>  <XChem_code>  (626) 
AG7§12

>  <Occupancy>  (626) 
[1.0, 1.0, 1.0, 1.0, 1.0, 1.0, 1.0, 1.0, 1.0, 1.0, 1.0, 1.0, 1.0, 1.0, 1.0, 1.0, 1.0, 1.0, 1.0, 1.0, 1.0, 1.0, 1.0, 1.0, 1.0, 1.0, 1.0, 1.0, 1.0, 1.0, 1.0, 1.0, 1.0, 1.0, 1.0, 1.0, 1.0, 1.0]

>  <TempFactor>  (626) 
[56.87, 76.17, 55.13, 39.03, 48.62, 52.58, 47.89, 46.71, 48.3, 47.91, 49.6, 49.69, 42.73, 41.63, 39.08, 34.68, 26.06, 30.82, 26.95, 46.9, 46.82, 50.79, 56.24, 49.99, 47.58, 46.28, 59.41, 58.23, 62.42, 63.63, 73.33, 77.2, 64.57, 66.68, 74.14, 34.72, 36.83, 48.64]

>  <accession>  (626) 
6KU8_A

>  <description>  (626) 
Chain A, Genome polyprotein [Rhinovirus C]

>  <evalue>  (626) 
6.1081299999999999e-61

>  <pdb_code>  (626) 
6KU8

>  <chain>  (626) 
A

>  <ligands>  (626) 
[{'chain_id': 'A', 'author_residue_number': 501, 'author_insertion_code': '', 'chem_comp_id': 'AG7', 'alternate_conformers': 0, 'entity_id': 2, 'struct_asym_id': 'B', 'residue_number': 1, 'chem_comp_name': '4-{2-(4-FLUORO-BENZYL)-6-METHYL-5-[(5-METHYL-ISOXAZOLE-3-CARBONYL)-AMINO]-4-OXO-HEPTANOYLAMINO}-5-(2-OXO-PYRROLIDIN-3-YL)-PENTANOIC ACID ETHYL ESTER', 'weight': 600.678, 'carbohydrate_polymer': False, 'branch_name': ''}]

>  <ligand_codes>  (626) 
['AG7']

>  <cofactor_codes>  (626) 
[]

>  <has_cofactor>  (626) 
False

>  <covalent>  (626) 
False

>  <base_name>  (626) 
6KU8

>  <lig_resn>  (626) 
AG7

>  <lig_resi>  (626) 
501

>  <lig_chain>  (626) 
A

>  <lig_segi>  (626) 
B

>  <lig_alt>  (626) 


>  <polymer_chain>  (626) 
A

>  <single_smiles>  (626) 
CCOC(=O)CC[C@H](C[C@@H]1CCNC1=O)NC(=O)[C@@H](CC(=O)[C@@H](NC(=O)c2cc(C)on2)C(C)C)Cc3ccc(F)cc3

$$$$
AG7P12S10
     RDKit          3D

 31 31  0  0  0  0  0  0  0  0999 V2000
   -9.7000   12.4750  -36.7420 C   0  0  0  0  0  0  0  0  0  0  0  0
   -9.3130   12.5410  -35.2750 C   0  0  2  0  0  0  0  0  0  0  0  0
   -8.6930   13.9260  -35.1370 C   0  0  0  0  0  0  0  0  0  0  0  0
   -8.2170   11.5620  -34.8560 C   0  0  0  0  0  0  0  0  0  0  0  0
   -8.5670   14.4320  -33.7110 C   0  0  0  0  0  0  0  0  0  0  0  0
   -8.4720   10.3790  -34.0520 N   0  0  0  0  0  0  0  0  0  0  0  0
   -7.1000   11.7820  -35.1800 O   0  0  0  0  0  0  0  0  0  0  0  0
   -8.6070   13.7560  -32.7230 O   0  0  0  0  0  0  0  0  0  0  0  0
   -8.3750   15.9370  -33.7070 C   0  0  1  0  0  0  0  0  0  0  0  0
   -7.3030    9.5660  -33.6750 C   0  0  1  0  0  0  0  0  0  0  0  0
   -8.4690   16.4220  -32.3850 N   0  0  0  0  0  0  0  0  0  0  0  0
   -6.9790   16.3080  -34.2120 C   0  0  0  0  0  0  0  0  0  0  0  0
   -7.3990    9.4630  -32.1610 C   0  0  0  0  0  0  0  0  0  0  0  0
   -7.0890    8.1890  -34.3170 C   0  0  0  0  0  0  0  0  0  0  0  0
   -9.0480   17.7050  -32.1870 C   0  0  0  0  0  0  0  0  0  0  0  0
   -6.7970   17.8160  -34.4290 C   0  0  0  0  0  0  0  0  0  0  0  0
   -5.9310   15.7820  -33.2260 C   0  0  0  0  0  0  0  0  0  0  0  0
   -6.9980   10.8370  -31.5010 C   0  0  1  0  0  0  0  0  0  0  0  0
   -7.6300    8.1640  -35.7550 C   0  0  0  0  0  0  0  0  0  0  0  0
   -8.9960   18.0230  -30.7400 C   0  0  0  0  0  0  0  0  0  0  0  0
   -9.4860   18.4290  -33.0250 O   0  0  0  0  0  0  0  0  0  0  0  0
   -6.7450   10.5870  -29.9270 C   0  0  0  0  0  0  0  0  0  0  0  0
   -5.8480   11.3340  -31.9880 C   0  0  0  0  0  0  0  0  0  0  0  0
   -6.3370    8.3890  -36.5060 C   0  0  0  0  0  0  0  0  0  0  0  0
   -5.7030   11.3120  -29.5520 N   0  0  0  0  0  0  0  0  0  0  0  0
   -7.3960    9.8790  -29.2360 O   0  0  0  0  0  0  0  0  0  0  0  0
   -5.1560   12.0710  -30.7490 C   0  0  0  0  0  0  0  0  0  0  0  0
   -6.2970    9.1800  -37.6510 O   0  0  0  0  0  0  0  0  0  0  0  0
   -5.3570    7.9030  -36.0570 O   0  0  0  0  0  0  0  0  0  0  0  0
   -4.9980    9.2960  -38.1470 C   0  0  0  0  0  0  0  0  0  0  0  0
   -5.0760    9.8510  -39.5680 C   0  0  0  0  0  0  0  0  0  0  0  0
  2  1  1  6
  2  3  1  0
  2  4  1  0
  5  3  1  0
  6  4  1  0
  4  7  1  0
  5  8  1  0
  5  9  1  0
  6 10  1  0
  9 11  1  1
  9 12  1  0
 10 13  1  1
 10 14  1  0
 11 15  1  0
 12 16  1  0
 12 17  1  0
 18 13  1  6
 14 19  1  0
 20 15  1  0
 15 21  1  0
 18 22  1  0
 18 23  1  0
 19 24  1  0
 22 25  1  0
 22 26  1  0
 27 23  1  0
 24 28  1  0
 24 29  1  0
 25 27  1  0
 28 30  1  0
 30 31  1  0
A    2
 C04
A    3
 C02
A    4
 C47
A    5
 C01
A    6
 N12
A    7
 O48
A    8
 O03
A    9
 C57
A   10
 C13
A   11
 N58
A   12
 C78
A   13
 C14
A   14
 C19
A   15
 C59
A   16
 C81
A   17
 C82
A   18
 C15
A   19
 C20
A   20
 C1 
A   21
 O60
A   22
 C16
A   23
 C84
A   24
 C21
A   25
 N17
A   26
 O18
A   27
 C83
A   28
 O22
A   29
 O23
A   30
 C50
A   31
 C53
M  END
>  <XChem_code>  (627) 
AG7§12

>  <Occupancy>  (627) 
[1.0, 1.0, 1.0, 1.0, 1.0, 1.0, 1.0, 1.0, 1.0, 1.0, 1.0, 1.0, 1.0, 1.0, 1.0, 1.0, 1.0, 1.0, 1.0, 1.0, 1.0, 1.0, 1.0, 1.0, 1.0, 1.0, 1.0, 1.0, 1.0, 1.0, 1.0, 1.0, 1.0, 1.0, 1.0, 1.0, 1.0, 1.0]

>  <TempFactor>  (627) 
[56.87, 76.17, 55.13, 39.03, 48.62, 52.58, 47.89, 46.71, 48.3, 47.91, 49.6, 49.69, 42.73, 41.63, 39.08, 34.68, 26.06, 30.82, 26.95, 46.9, 46.82, 50.79, 56.24, 49.99, 47.58, 46.28, 59.41, 58.23, 62.42, 63.63, 73.33, 77.2, 64.57, 66.68, 74.14, 34.72, 36.83, 48.64]

>  <accession>  (627) 
6KU8_A

>  <description>  (627) 
Chain A, Genome polyprotein [Rhinovirus C]

>  <evalue>  (627) 
6.1081299999999999e-61

>  <pdb_code>  (627) 
6KU8

>  <chain>  (627) 
A

>  <ligands>  (627) 
[{'chain_id': 'A', 'author_residue_number': 501, 'author_insertion_code': '', 'chem_comp_id': 'AG7', 'alternate_conformers': 0, 'entity_id': 2, 'struct_asym_id': 'B', 'residue_number': 1, 'chem_comp_name': '4-{2-(4-FLUORO-BENZYL)-6-METHYL-5-[(5-METHYL-ISOXAZOLE-3-CARBONYL)-AMINO]-4-OXO-HEPTANOYLAMINO}-5-(2-OXO-PYRROLIDIN-3-YL)-PENTANOIC ACID ETHYL ESTER', 'weight': 600.678, 'carbohydrate_polymer': False, 'branch_name': ''}]

>  <ligand_codes>  (627) 
['AG7']

>  <cofactor_codes>  (627) 
[]

>  <has_cofactor>  (627) 
False

>  <covalent>  (627) 
False

>  <base_name>  (627) 
6KU8

>  <lig_resn>  (627) 
AG7

>  <lig_resi>  (627) 
501

>  <lig_chain>  (627) 
A

>  <lig_segi>  (627) 
B

>  <lig_alt>  (627) 


>  <polymer_chain>  (627) 
A

>  <single_smiles>  (627) 
CCOC(=O)CC[C@H](C[C@@H]1CCNC1=O)NC(=O)[C@@H](CC(=O)[C@@H](NC(=O)c2cc(C)on2)C(C)C)Cc3ccc(F)cc3

$$$$
AG7P12S11
     RDKit          3D

  6  6  0  0  0  0  0  0  0  0999 V2000
   -6.9980   10.8370  -31.5010 C   0  0  0  0  0  0  0  0  0  0  0  0
   -6.7450   10.5870  -29.9270 C   0  0  0  0  0  0  0  0  0  0  0  0
   -5.8480   11.3340  -31.9880 C   0  0  0  0  0  0  0  0  0  0  0  0
   -5.7030   11.3120  -29.5520 N   0  0  0  0  0  0  0  0  0  0  0  0
   -7.3960    9.8790  -29.2360 O   0  0  0  0  0  0  0  0  0  0  0  0
   -5.1560   12.0710  -30.7490 C   0  0  0  0  0  0  0  0  0  0  0  0
  1  2  1  0
  1  3  1  1
  2  4  1  0
  2  5  1  0
  6  3  1  0
  4  6  1  0
A    2
 C16
A    3
 C84
A    4
 N17
A    5
 O18
A    6
 C83
M  END
>  <XChem_code>  (628) 
AG7§12

>  <Occupancy>  (628) 
[1.0, 1.0, 1.0, 1.0, 1.0, 1.0, 1.0, 1.0, 1.0, 1.0, 1.0, 1.0, 1.0, 1.0, 1.0, 1.0, 1.0, 1.0, 1.0, 1.0, 1.0, 1.0, 1.0, 1.0, 1.0, 1.0, 1.0, 1.0, 1.0, 1.0, 1.0, 1.0, 1.0, 1.0, 1.0, 1.0, 1.0, 1.0]

>  <TempFactor>  (628) 
[56.87, 76.17, 55.13, 39.03, 48.62, 52.58, 47.89, 46.71, 48.3, 47.91, 49.6, 49.69, 42.73, 41.63, 39.08, 34.68, 26.06, 30.82, 26.95, 46.9, 46.82, 50.79, 56.24, 49.99, 47.58, 46.28, 59.41, 58.23, 62.42, 63.63, 73.33, 77.2, 64.57, 66.68, 74.14, 34.72, 36.83, 48.64]

>  <accession>  (628) 
6KU8_A

>  <description>  (628) 
Chain A, Genome polyprotein [Rhinovirus C]

>  <evalue>  (628) 
6.1081299999999999e-61

>  <pdb_code>  (628) 
6KU8

>  <chain>  (628) 
A

>  <ligands>  (628) 
[{'chain_id': 'A', 'author_residue_number': 501, 'author_insertion_code': '', 'chem_comp_id': 'AG7', 'alternate_conformers': 0, 'entity_id': 2, 'struct_asym_id': 'B', 'residue_number': 1, 'chem_comp_name': '4-{2-(4-FLUORO-BENZYL)-6-METHYL-5-[(5-METHYL-ISOXAZOLE-3-CARBONYL)-AMINO]-4-OXO-HEPTANOYLAMINO}-5-(2-OXO-PYRROLIDIN-3-YL)-PENTANOIC ACID ETHYL ESTER', 'weight': 600.678, 'carbohydrate_polymer': False, 'branch_name': ''}]

>  <ligand_codes>  (628) 
['AG7']

>  <cofactor_codes>  (628) 
[]

>  <has_cofactor>  (628) 
False

>  <covalent>  (628) 
False

>  <base_name>  (628) 
6KU8

>  <lig_resn>  (628) 
AG7

>  <lig_resi>  (628) 
501

>  <lig_chain>  (628) 
A

>  <lig_segi>  (628) 
B

>  <lig_alt>  (628) 


>  <polymer_chain>  (628) 
A

>  <single_smiles>  (628) 
CCOC(=O)CC[C@H](C[C@@H]1CCNC1=O)NC(=O)[C@@H](CC(=O)[C@@H](NC(=O)c2cc(C)on2)C(C)C)Cc3ccc(F)cc3

$$$$
AG7P12S12
     RDKit          3D

 32 32  0  0  0  0  0  0  0  0999 V2000
   -7.3990    9.4630  -32.1610 C   0  0  0  0  0  0  0  0  0  0  0  0
   -7.3030    9.5660  -33.6750 C   0  0  2  0  0  0  0  0  0  0  0  0
   -8.4720   10.3790  -34.0520 N   0  0  0  0  0  0  0  0  0  0  0  0
   -7.0890    8.1890  -34.3170 C   0  0  0  0  0  0  0  0  0  0  0  0
   -8.2170   11.5620  -34.8560 C   0  0  0  0  0  0  0  0  0  0  0  0
   -7.6300    8.1640  -35.7550 C   0  0  0  0  0  0  0  0  0  0  0  0
   -9.3130   12.5410  -35.2750 C   0  0  1  0  0  0  0  0  0  0  0  0
   -7.1000   11.7820  -35.1800 O   0  0  0  0  0  0  0  0  0  0  0  0
   -6.3370    8.3890  -36.5060 C   0  0  0  0  0  0  0  0  0  0  0  0
   -8.6930   13.9260  -35.1370 C   0  0  0  0  0  0  0  0  0  0  0  0
   -9.7000   12.4750  -36.7420 C   0  0  0  0  0  0  0  0  0  0  0  0
   -6.2970    9.1800  -37.6510 O   0  0  0  0  0  0  0  0  0  0  0  0
   -5.3570    7.9030  -36.0570 O   0  0  0  0  0  0  0  0  0  0  0  0
   -8.5670   14.4320  -33.7110 C   0  0  0  0  0  0  0  0  0  0  0  0
  -11.0210   13.2200  -36.9910 C   0  0  0  0  0  0  0  0  0  0  0  0
   -4.9980    9.2960  -38.1470 C   0  0  0  0  0  0  0  0  0  0  0  0
   -8.6070   13.7560  -32.7230 O   0  0  0  0  0  0  0  0  0  0  0  0
   -8.3750   15.9370  -33.7070 C   0  0  1  0  0  0  0  0  0  0  0  0
  -12.1300   12.9450  -36.2050 C   0  0  0  0  0  0  0  0  0  0  0  0
  -11.1130   14.1790  -37.9990 C   0  0  0  0  0  0  0  0  0  0  0  0
   -5.0760    9.8510  -39.5680 C   0  0  0  0  0  0  0  0  0  0  0  0
   -8.4690   16.4220  -32.3850 N   0  0  0  0  0  0  0  0  0  0  0  0
   -6.9790   16.3080  -34.2120 C   0  0  0  0  0  0  0  0  0  0  0  0
  -13.3220   13.6160  -36.4240 C   0  0  0  0  0  0  0  0  0  0  0  0
  -12.3090   14.8520  -38.2170 C   0  0  0  0  0  0  0  0  0  0  0  0
   -9.0480   17.7050  -32.1870 C   0  0  0  0  0  0  0  0  0  0  0  0
   -6.7970   17.8160  -34.4290 C   0  0  0  0  0  0  0  0  0  0  0  0
   -5.9310   15.7820  -33.2260 C   0  0  0  0  0  0  0  0  0  0  0  0
  -13.4160   14.5720  -37.4290 C   0  0  0  0  0  0  0  0  0  0  0  0
   -8.9960   18.0230  -30.7400 C   0  0  0  0  0  0  0  0  0  0  0  0
   -9.4860   18.4290  -33.0250 O   0  0  0  0  0  0  0  0  0  0  0  0
  -14.5980   15.2330  -37.6340 F   0  0  0  0  0  0  0  0  0  0  0  0
  2  1  1  1
  3  2  1  0
  2  4  1  0
  3  5  1  0
  4  6  1  0
  7  5  1  0
  5  8  1  0
  6  9  1  0
  7 10  1  6
  7 11  1  0
  9 12  1  0
  9 13  1  0
 14 10  1  0
 11 15  1  0
 12 16  1  0
 14 17  1  0
 14 18  1  0
 15 19  1  0
 15 20  1  0
 16 21  1  0
 18 22  1  1
 18 23  1  0
 19 24  1  0
 25 20  1  0
 22 26  1  0
 23 27  1  0
 23 28  1  0
 24 29  1  0
 29 25  1  0
 30 26  1  0
 26 31  1  0
 29 32  1  0
A    2
 C13
A    3
 N12
A    4
 C19
A    5
 C47
A    6
 C20
A    7
 C04
A    8
 O48
A    9
 C21
A   10
 C02
A   11
 C05
A   12
 O22
A   13
 O23
A   14
 C01
A   15
 C06
A   16
 C50
A   17
 O03
A   18
 C57
A   19
 C07
A   20
 C11
A   21
 C53
A   22
 N58
A   23
 C78
A   24
 C08
A   25
 C10
A   26
 C59
A   27
 C81
A   28
 C82
A   29
 C09
A   30
 C1 
A   31
 O60
A   32
 F1 
M  END
>  <XChem_code>  (629) 
AG7§12

>  <Occupancy>  (629) 
[1.0, 1.0, 1.0, 1.0, 1.0, 1.0, 1.0, 1.0, 1.0, 1.0, 1.0, 1.0, 1.0, 1.0, 1.0, 1.0, 1.0, 1.0, 1.0, 1.0, 1.0, 1.0, 1.0, 1.0, 1.0, 1.0, 1.0, 1.0, 1.0, 1.0, 1.0, 1.0, 1.0, 1.0, 1.0, 1.0, 1.0, 1.0]

>  <TempFactor>  (629) 
[56.87, 76.17, 55.13, 39.03, 48.62, 52.58, 47.89, 46.71, 48.3, 47.91, 49.6, 49.69, 42.73, 41.63, 39.08, 34.68, 26.06, 30.82, 26.95, 46.9, 46.82, 50.79, 56.24, 49.99, 47.58, 46.28, 59.41, 58.23, 62.42, 63.63, 73.33, 77.2, 64.57, 66.68, 74.14, 34.72, 36.83, 48.64]

>  <accession>  (629) 
6KU8_A

>  <description>  (629) 
Chain A, Genome polyprotein [Rhinovirus C]

>  <evalue>  (629) 
6.1081299999999999e-61

>  <pdb_code>  (629) 
6KU8

>  <chain>  (629) 
A

>  <ligands>  (629) 
[{'chain_id': 'A', 'author_residue_number': 501, 'author_insertion_code': '', 'chem_comp_id': 'AG7', 'alternate_conformers': 0, 'entity_id': 2, 'struct_asym_id': 'B', 'residue_number': 1, 'chem_comp_name': '4-{2-(4-FLUORO-BENZYL)-6-METHYL-5-[(5-METHYL-ISOXAZOLE-3-CARBONYL)-AMINO]-4-OXO-HEPTANOYLAMINO}-5-(2-OXO-PYRROLIDIN-3-YL)-PENTANOIC ACID ETHYL ESTER', 'weight': 600.678, 'carbohydrate_polymer': False, 'branch_name': ''}]

>  <ligand_codes>  (629) 
['AG7']

>  <cofactor_codes>  (629) 
[]

>  <has_cofactor>  (629) 
False

>  <covalent>  (629) 
False

>  <base_name>  (629) 
6KU8

>  <lig_resn>  (629) 
AG7

>  <lig_resi>  (629) 
501

>  <lig_chain>  (629) 
A

>  <lig_segi>  (629) 
B

>  <lig_alt>  (629) 


>  <polymer_chain>  (629) 
A

>  <single_smiles>  (629) 
CCOC(=O)CC[C@H](C[C@@H]1CCNC1=O)NC(=O)[C@@H](CC(=O)[C@@H](NC(=O)c2cc(C)on2)C(C)C)Cc3ccc(F)cc3

$$$$
AG7P12S13
     RDKit          3D

  9  8  0  0  0  0  0  0  0  0999 V2000
   -7.3990    9.4630  -32.1610 C   0  0  0  0  0  0  0  0  0  0  0  0
   -7.3030    9.5660  -33.6750 C   0  0  0  0  0  0  0  0  0  0  0  0
   -7.0890    8.1890  -34.3170 C   0  0  0  0  0  0  0  0  0  0  0  0
   -7.6300    8.1640  -35.7550 C   0  0  0  0  0  0  0  0  0  0  0  0
   -6.3370    8.3890  -36.5060 C   0  0  0  0  0  0  0  0  0  0  0  0
   -6.2970    9.1800  -37.6510 O   0  0  0  0  0  0  0  0  0  0  0  0
   -5.3570    7.9030  -36.0570 O   0  0  0  0  0  0  0  0  0  0  0  0
   -4.9980    9.2960  -38.1470 C   0  0  0  0  0  0  0  0  0  0  0  0
   -5.0760    9.8510  -39.5680 C   0  0  0  0  0  0  0  0  0  0  0  0
  2  1  1  6
  2  3  1  0
  3  4  1  0
  4  5  1  0
  5  6  1  0
  5  7  1  0
  6  8  1  0
  8  9  1  0
A    3
 C19
A    4
 C20
A    5
 C21
A    6
 O22
A    7
 O23
A    8
 C50
A    9
 C53
M  END
>  <XChem_code>  (630) 
AG7§12

>  <Occupancy>  (630) 
[1.0, 1.0, 1.0, 1.0, 1.0, 1.0, 1.0, 1.0, 1.0, 1.0, 1.0, 1.0, 1.0, 1.0, 1.0, 1.0, 1.0, 1.0, 1.0, 1.0, 1.0, 1.0, 1.0, 1.0, 1.0, 1.0, 1.0, 1.0, 1.0, 1.0, 1.0, 1.0, 1.0, 1.0, 1.0, 1.0, 1.0, 1.0]

>  <TempFactor>  (630) 
[56.87, 76.17, 55.13, 39.03, 48.62, 52.58, 47.89, 46.71, 48.3, 47.91, 49.6, 49.69, 42.73, 41.63, 39.08, 34.68, 26.06, 30.82, 26.95, 46.9, 46.82, 50.79, 56.24, 49.99, 47.58, 46.28, 59.41, 58.23, 62.42, 63.63, 73.33, 77.2, 64.57, 66.68, 74.14, 34.72, 36.83, 48.64]

>  <accession>  (630) 
6KU8_A

>  <description>  (630) 
Chain A, Genome polyprotein [Rhinovirus C]

>  <evalue>  (630) 
6.1081299999999999e-61

>  <pdb_code>  (630) 
6KU8

>  <chain>  (630) 
A

>  <ligands>  (630) 
[{'chain_id': 'A', 'author_residue_number': 501, 'author_insertion_code': '', 'chem_comp_id': 'AG7', 'alternate_conformers': 0, 'entity_id': 2, 'struct_asym_id': 'B', 'residue_number': 1, 'chem_comp_name': '4-{2-(4-FLUORO-BENZYL)-6-METHYL-5-[(5-METHYL-ISOXAZOLE-3-CARBONYL)-AMINO]-4-OXO-HEPTANOYLAMINO}-5-(2-OXO-PYRROLIDIN-3-YL)-PENTANOIC ACID ETHYL ESTER', 'weight': 600.678, 'carbohydrate_polymer': False, 'branch_name': ''}]

>  <ligand_codes>  (630) 
['AG7']

>  <cofactor_codes>  (630) 
[]

>  <has_cofactor>  (630) 
False

>  <covalent>  (630) 
False

>  <base_name>  (630) 
6KU8

>  <lig_resn>  (630) 
AG7

>  <lig_resi>  (630) 
501

>  <lig_chain>  (630) 
A

>  <lig_segi>  (630) 
B

>  <lig_alt>  (630) 


>  <polymer_chain>  (630) 
A

>  <single_smiles>  (630) 
CCOC(=O)CC[C@H](C[C@@H]1CCNC1=O)NC(=O)[C@@H](CC(=O)[C@@H](NC(=O)c2cc(C)on2)C(C)C)Cc3ccc(F)cc3

$$$$
AG7P12S14
     RDKit          3D

 16 15  0  0  0  0  0  0  0  0999 V2000
   -9.7000   12.4750  -36.7420 C   0  0  0  0  0  0  0  0  0  0  0  0
   -9.3130   12.5410  -35.2750 C   0  0  1  0  0  0  0  0  0  0  0  0
   -8.2170   11.5620  -34.8560 C   0  0  0  0  0  0  0  0  0  0  0  0
   -8.6930   13.9260  -35.1370 C   0  0  0  0  0  0  0  0  0  0  0  0
   -8.4720   10.3790  -34.0520 N   0  0  0  0  0  0  0  0  0  0  0  0
   -7.1000   11.7820  -35.1800 O   0  0  0  0  0  0  0  0  0  0  0  0
   -8.5670   14.4320  -33.7110 C   0  0  0  0  0  0  0  0  0  0  0  0
   -8.6070   13.7560  -32.7230 O   0  0  0  0  0  0  0  0  0  0  0  0
   -8.3750   15.9370  -33.7070 C   0  0  1  0  0  0  0  0  0  0  0  0
   -8.4690   16.4220  -32.3850 N   0  0  0  0  0  0  0  0  0  0  0  0
   -6.9790   16.3080  -34.2120 C   0  0  0  0  0  0  0  0  0  0  0  0
   -9.0480   17.7050  -32.1870 C   0  0  0  0  0  0  0  0  0  0  0  0
   -6.7970   17.8160  -34.4290 C   0  0  0  0  0  0  0  0  0  0  0  0
   -5.9310   15.7820  -33.2260 C   0  0  0  0  0  0  0  0  0  0  0  0
   -8.9960   18.0230  -30.7400 C   0  0  0  0  0  0  0  0  0  0  0  0
   -9.4860   18.4290  -33.0250 O   0  0  0  0  0  0  0  0  0  0  0  0
  2  1  1  6
  2  3  1  0
  2  4  1  0
  5  3  1  0
  3  6  1  0
  7  4  1  0
  7  8  1  0
  7  9  1  0
  9 10  1  1
  9 11  1  0
 10 12  1  0
 11 13  1  0
 11 14  1  0
 15 12  1  0
 12 16  1  0
A    2
 C04
A    3
 C47
A    4
 C02
A    6
 O48
A    7
 C01
A    8
 O03
A    9
 C57
A   10
 N58
A   11
 C78
A   12
 C59
A   13
 C81
A   14
 C82
A   15
 C1 
A   16
 O60
M  END
>  <XChem_code>  (631) 
AG7§12

>  <Occupancy>  (631) 
[1.0, 1.0, 1.0, 1.0, 1.0, 1.0, 1.0, 1.0, 1.0, 1.0, 1.0, 1.0, 1.0, 1.0, 1.0, 1.0, 1.0, 1.0, 1.0, 1.0, 1.0, 1.0, 1.0, 1.0, 1.0, 1.0, 1.0, 1.0, 1.0, 1.0, 1.0, 1.0, 1.0, 1.0, 1.0, 1.0, 1.0, 1.0]

>  <TempFactor>  (631) 
[56.87, 76.17, 55.13, 39.03, 48.62, 52.58, 47.89, 46.71, 48.3, 47.91, 49.6, 49.69, 42.73, 41.63, 39.08, 34.68, 26.06, 30.82, 26.95, 46.9, 46.82, 50.79, 56.24, 49.99, 47.58, 46.28, 59.41, 58.23, 62.42, 63.63, 73.33, 77.2, 64.57, 66.68, 74.14, 34.72, 36.83, 48.64]

>  <accession>  (631) 
6KU8_A

>  <description>  (631) 
Chain A, Genome polyprotein [Rhinovirus C]

>  <evalue>  (631) 
6.1081299999999999e-61

>  <pdb_code>  (631) 
6KU8

>  <chain>  (631) 
A

>  <ligands>  (631) 
[{'chain_id': 'A', 'author_residue_number': 501, 'author_insertion_code': '', 'chem_comp_id': 'AG7', 'alternate_conformers': 0, 'entity_id': 2, 'struct_asym_id': 'B', 'residue_number': 1, 'chem_comp_name': '4-{2-(4-FLUORO-BENZYL)-6-METHYL-5-[(5-METHYL-ISOXAZOLE-3-CARBONYL)-AMINO]-4-OXO-HEPTANOYLAMINO}-5-(2-OXO-PYRROLIDIN-3-YL)-PENTANOIC ACID ETHYL ESTER', 'weight': 600.678, 'carbohydrate_polymer': False, 'branch_name': ''}]

>  <ligand_codes>  (631) 
['AG7']

>  <cofactor_codes>  (631) 
[]

>  <has_cofactor>  (631) 
False

>  <covalent>  (631) 
False

>  <base_name>  (631) 
6KU8

>  <lig_resn>  (631) 
AG7

>  <lig_resi>  (631) 
501

>  <lig_chain>  (631) 
A

>  <lig_segi>  (631) 
B

>  <lig_alt>  (631) 


>  <polymer_chain>  (631) 
A

>  <single_smiles>  (631) 
CCOC(=O)CC[C@H](C[C@@H]1CCNC1=O)NC(=O)[C@@H](CC(=O)[C@@H](NC(=O)c2cc(C)on2)C(C)C)Cc3ccc(F)cc3

$$$$
AG7P12S15
     RDKit          3D

 10  9  0  0  0  0  0  0  0  0999 V2000
   -7.3990    9.4630  -32.1610 C   0  0  0  0  0  0  0  0  0  0  0  0
   -7.3030    9.5660  -33.6750 C   0  0  2  0  0  0  0  0  0  0  0  0
   -8.4720   10.3790  -34.0520 N   0  0  0  0  0  0  0  0  0  0  0  0
   -7.0890    8.1890  -34.3170 C   0  0  0  0  0  0  0  0  0  0  0  0
   -7.6300    8.1640  -35.7550 C   0  0  0  0  0  0  0  0  0  0  0  0
   -6.3370    8.3890  -36.5060 C   0  0  0  0  0  0  0  0  0  0  0  0
   -6.2970    9.1800  -37.6510 O   0  0  0  0  0  0  0  0  0  0  0  0
   -5.3570    7.9030  -36.0570 O   0  0  0  0  0  0  0  0  0  0  0  0
   -4.9980    9.2960  -38.1470 C   0  0  0  0  0  0  0  0  0  0  0  0
   -5.0760    9.8510  -39.5680 C   0  0  0  0  0  0  0  0  0  0  0  0
  2  1  1  1
  3  2  1  0
  2  4  1  0
  4  5  1  0
  5  6  1  0
  6  7  1  0
  6  8  1  0
  7  9  1  0
  9 10  1  0
A    2
 C13
A    4
 C19
A    5
 C20
A    6
 C21
A    7
 O22
A    8
 O23
A    9
 C50
A   10
 C53
M  END
>  <XChem_code>  (632) 
AG7§12

>  <Occupancy>  (632) 
[1.0, 1.0, 1.0, 1.0, 1.0, 1.0, 1.0, 1.0, 1.0, 1.0, 1.0, 1.0, 1.0, 1.0, 1.0, 1.0, 1.0, 1.0, 1.0, 1.0, 1.0, 1.0, 1.0, 1.0, 1.0, 1.0, 1.0, 1.0, 1.0, 1.0, 1.0, 1.0, 1.0, 1.0, 1.0, 1.0, 1.0, 1.0]

>  <TempFactor>  (632) 
[56.87, 76.17, 55.13, 39.03, 48.62, 52.58, 47.89, 46.71, 48.3, 47.91, 49.6, 49.69, 42.73, 41.63, 39.08, 34.68, 26.06, 30.82, 26.95, 46.9, 46.82, 50.79, 56.24, 49.99, 47.58, 46.28, 59.41, 58.23, 62.42, 63.63, 73.33, 77.2, 64.57, 66.68, 74.14, 34.72, 36.83, 48.64]

>  <accession>  (632) 
6KU8_A

>  <description>  (632) 
Chain A, Genome polyprotein [Rhinovirus C]

>  <evalue>  (632) 
6.1081299999999999e-61

>  <pdb_code>  (632) 
6KU8

>  <chain>  (632) 
A

>  <ligands>  (632) 
[{'chain_id': 'A', 'author_residue_number': 501, 'author_insertion_code': '', 'chem_comp_id': 'AG7', 'alternate_conformers': 0, 'entity_id': 2, 'struct_asym_id': 'B', 'residue_number': 1, 'chem_comp_name': '4-{2-(4-FLUORO-BENZYL)-6-METHYL-5-[(5-METHYL-ISOXAZOLE-3-CARBONYL)-AMINO]-4-OXO-HEPTANOYLAMINO}-5-(2-OXO-PYRROLIDIN-3-YL)-PENTANOIC ACID ETHYL ESTER', 'weight': 600.678, 'carbohydrate_polymer': False, 'branch_name': ''}]

>  <ligand_codes>  (632) 
['AG7']

>  <cofactor_codes>  (632) 
[]

>  <has_cofactor>  (632) 
False

>  <covalent>  (632) 
False

>  <base_name>  (632) 
6KU8

>  <lig_resn>  (632) 
AG7

>  <lig_resi>  (632) 
501

>  <lig_chain>  (632) 
A

>  <lig_segi>  (632) 
B

>  <lig_alt>  (632) 


>  <polymer_chain>  (632) 
A

>  <single_smiles>  (632) 
CCOC(=O)CC[C@H](C[C@@H]1CCNC1=O)NC(=O)[C@@H](CC(=O)[C@@H](NC(=O)c2cc(C)on2)C(C)C)Cc3ccc(F)cc3

$$$$
AG7P12S16
     RDKit          3D

 15 14  0  0  0  0  0  0  0  0999 V2000
   -9.7000   12.4750  -36.7420 C   0  0  0  0  0  0  0  0  0  0  0  0
   -9.3130   12.5410  -35.2750 C   0  0  1  0  0  0  0  0  0  0  0  0
   -8.2170   11.5620  -34.8560 C   0  0  0  0  0  0  0  0  0  0  0  0
   -8.6930   13.9260  -35.1370 C   0  0  0  0  0  0  0  0  0  0  0  0
   -7.1000   11.7820  -35.1800 O   0  0  0  0  0  0  0  0  0  0  0  0
   -8.5670   14.4320  -33.7110 C   0  0  0  0  0  0  0  0  0  0  0  0
   -8.6070   13.7560  -32.7230 O   0  0  0  0  0  0  0  0  0  0  0  0
   -8.3750   15.9370  -33.7070 C   0  0  1  0  0  0  0  0  0  0  0  0
   -8.4690   16.4220  -32.3850 N   0  0  0  0  0  0  0  0  0  0  0  0
   -6.9790   16.3080  -34.2120 C   0  0  0  0  0  0  0  0  0  0  0  0
   -9.0480   17.7050  -32.1870 C   0  0  0  0  0  0  0  0  0  0  0  0
   -6.7970   17.8160  -34.4290 C   0  0  0  0  0  0  0  0  0  0  0  0
   -5.9310   15.7820  -33.2260 C   0  0  0  0  0  0  0  0  0  0  0  0
   -8.9960   18.0230  -30.7400 C   0  0  0  0  0  0  0  0  0  0  0  0
   -9.4860   18.4290  -33.0250 O   0  0  0  0  0  0  0  0  0  0  0  0
  2  1  1  6
  2  3  1  0
  2  4  1  0
  3  5  1  0
  6  4  1  0
  6  7  1  0
  6  8  1  0
  8  9  1  1
  8 10  1  0
  9 11  1  0
 10 12  1  0
 10 13  1  0
 14 11  1  0
 11 15  1  0
A    2
 C04
A    4
 C02
A    5
 O48
A    6
 C01
A    7
 O03
A    8
 C57
A    9
 N58
A   10
 C78
A   11
 C59
A   12
 C81
A   13
 C82
A   14
 C1 
A   15
 O60
M  END
>  <XChem_code>  (633) 
AG7§12

>  <Occupancy>  (633) 
[1.0, 1.0, 1.0, 1.0, 1.0, 1.0, 1.0, 1.0, 1.0, 1.0, 1.0, 1.0, 1.0, 1.0, 1.0, 1.0, 1.0, 1.0, 1.0, 1.0, 1.0, 1.0, 1.0, 1.0, 1.0, 1.0, 1.0, 1.0, 1.0, 1.0, 1.0, 1.0, 1.0, 1.0, 1.0, 1.0, 1.0, 1.0]

>  <TempFactor>  (633) 
[56.87, 76.17, 55.13, 39.03, 48.62, 52.58, 47.89, 46.71, 48.3, 47.91, 49.6, 49.69, 42.73, 41.63, 39.08, 34.68, 26.06, 30.82, 26.95, 46.9, 46.82, 50.79, 56.24, 49.99, 47.58, 46.28, 59.41, 58.23, 62.42, 63.63, 73.33, 77.2, 64.57, 66.68, 74.14, 34.72, 36.83, 48.64]

>  <accession>  (633) 
6KU8_A

>  <description>  (633) 
Chain A, Genome polyprotein [Rhinovirus C]

>  <evalue>  (633) 
6.1081299999999999e-61

>  <pdb_code>  (633) 
6KU8

>  <chain>  (633) 
A

>  <ligands>  (633) 
[{'chain_id': 'A', 'author_residue_number': 501, 'author_insertion_code': '', 'chem_comp_id': 'AG7', 'alternate_conformers': 0, 'entity_id': 2, 'struct_asym_id': 'B', 'residue_number': 1, 'chem_comp_name': '4-{2-(4-FLUORO-BENZYL)-6-METHYL-5-[(5-METHYL-ISOXAZOLE-3-CARBONYL)-AMINO]-4-OXO-HEPTANOYLAMINO}-5-(2-OXO-PYRROLIDIN-3-YL)-PENTANOIC ACID ETHYL ESTER', 'weight': 600.678, 'carbohydrate_polymer': False, 'branch_name': ''}]

>  <ligand_codes>  (633) 
['AG7']

>  <cofactor_codes>  (633) 
[]

>  <has_cofactor>  (633) 
False

>  <covalent>  (633) 
False

>  <base_name>  (633) 
6KU8

>  <lig_resn>  (633) 
AG7

>  <lig_resi>  (633) 
501

>  <lig_chain>  (633) 
A

>  <lig_segi>  (633) 
B

>  <lig_alt>  (633) 


>  <polymer_chain>  (633) 
A

>  <single_smiles>  (633) 
CCOC(=O)CC[C@H](C[C@@H]1CCNC1=O)NC(=O)[C@@H](CC(=O)[C@@H](NC(=O)c2cc(C)on2)C(C)C)Cc3ccc(F)cc3

$$$$
AG7P12S17
     RDKit          3D

 27 27  0  0  0  0  0  0  0  0999 V2000
   -9.7000   12.4750  -36.7420 C   0  0  0  0  0  0  0  0  0  0  0  0
   -9.3130   12.5410  -35.2750 C   0  0  2  0  0  0  0  0  0  0  0  0
   -8.6930   13.9260  -35.1370 C   0  0  0  0  0  0  0  0  0  0  0  0
   -8.2170   11.5620  -34.8560 C   0  0  0  0  0  0  0  0  0  0  0  0
   -8.5670   14.4320  -33.7110 C   0  0  0  0  0  0  0  0  0  0  0  0
   -8.4720   10.3790  -34.0520 N   0  0  0  0  0  0  0  0  0  0  0  0
   -7.1000   11.7820  -35.1800 O   0  0  0  0  0  0  0  0  0  0  0  0
   -8.3750   15.9370  -33.7070 C   0  0  0  0  0  0  0  0  0  0  0  0
   -8.6070   13.7560  -32.7230 O   0  0  0  0  0  0  0  0  0  0  0  0
   -7.3030    9.5660  -33.6750 C   0  0  1  0  0  0  0  0  0  0  0  0
   -6.9790   16.3080  -34.2120 C   0  0  0  0  0  0  0  0  0  0  0  0
   -7.3990    9.4630  -32.1610 C   0  0  0  0  0  0  0  0  0  0  0  0
   -7.0890    8.1890  -34.3170 C   0  0  0  0  0  0  0  0  0  0  0  0
   -6.7970   17.8160  -34.4290 C   0  0  0  0  0  0  0  0  0  0  0  0
   -5.9310   15.7820  -33.2260 C   0  0  0  0  0  0  0  0  0  0  0  0
   -6.9980   10.8370  -31.5010 C   0  0  1  0  0  0  0  0  0  0  0  0
   -7.6300    8.1640  -35.7550 C   0  0  0  0  0  0  0  0  0  0  0  0
   -6.7450   10.5870  -29.9270 C   0  0  0  0  0  0  0  0  0  0  0  0
   -5.8480   11.3340  -31.9880 C   0  0  0  0  0  0  0  0  0  0  0  0
   -6.3370    8.3890  -36.5060 C   0  0  0  0  0  0  0  0  0  0  0  0
   -5.7030   11.3120  -29.5520 N   0  0  0  0  0  0  0  0  0  0  0  0
   -7.3960    9.8790  -29.2360 O   0  0  0  0  0  0  0  0  0  0  0  0
   -5.1560   12.0710  -30.7490 C   0  0  0  0  0  0  0  0  0  0  0  0
   -6.2970    9.1800  -37.6510 O   0  0  0  0  0  0  0  0  0  0  0  0
   -5.3570    7.9030  -36.0570 O   0  0  0  0  0  0  0  0  0  0  0  0
   -4.9980    9.2960  -38.1470 C   0  0  0  0  0  0  0  0  0  0  0  0
   -5.0760    9.8510  -39.5680 C   0  0  0  0  0  0  0  0  0  0  0  0
  2  1  1  6
  2  3  1  0
  2  4  1  0
  5  3  1  0
  6  4  1  0
  4  7  1  0
  8  5  1  1
  5  9  1  0
  6 10  1  0
  8 11  1  0
 10 12  1  1
 10 13  1  0
 11 14  1  0
 11 15  1  0
 16 12  1  6
 13 17  1  0
 16 18  1  0
 16 19  1  0
 17 20  1  0
 18 21  1  0
 18 22  1  0
 23 19  1  0
 20 24  1  0
 20 25  1  0
 21 23  1  0
 24 26  1  0
 26 27  1  0
A    2
 C04
A    3
 C02
A    4
 C47
A    5
 C01
A    6
 N12
A    7
 O48
A    9
 O03
A   10
 C13
A   11
 C78
A   12
 C14
A   13
 C19
A   14
 C81
A   15
 C82
A   16
 C15
A   17
 C20
A   18
 C16
A   19
 C84
A   20
 C21
A   21
 N17
A   22
 O18
A   23
 C83
A   24
 O22
A   25
 O23
A   26
 C50
A   27
 C53
M  END
>  <XChem_code>  (634) 
AG7§12

>  <Occupancy>  (634) 
[1.0, 1.0, 1.0, 1.0, 1.0, 1.0, 1.0, 1.0, 1.0, 1.0, 1.0, 1.0, 1.0, 1.0, 1.0, 1.0, 1.0, 1.0, 1.0, 1.0, 1.0, 1.0, 1.0, 1.0, 1.0, 1.0, 1.0, 1.0, 1.0, 1.0, 1.0, 1.0, 1.0, 1.0, 1.0, 1.0, 1.0, 1.0]

>  <TempFactor>  (634) 
[56.87, 76.17, 55.13, 39.03, 48.62, 52.58, 47.89, 46.71, 48.3, 47.91, 49.6, 49.69, 42.73, 41.63, 39.08, 34.68, 26.06, 30.82, 26.95, 46.9, 46.82, 50.79, 56.24, 49.99, 47.58, 46.28, 59.41, 58.23, 62.42, 63.63, 73.33, 77.2, 64.57, 66.68, 74.14, 34.72, 36.83, 48.64]

>  <accession>  (634) 
6KU8_A

>  <description>  (634) 
Chain A, Genome polyprotein [Rhinovirus C]

>  <evalue>  (634) 
6.1081299999999999e-61

>  <pdb_code>  (634) 
6KU8

>  <chain>  (634) 
A

>  <ligands>  (634) 
[{'chain_id': 'A', 'author_residue_number': 501, 'author_insertion_code': '', 'chem_comp_id': 'AG7', 'alternate_conformers': 0, 'entity_id': 2, 'struct_asym_id': 'B', 'residue_number': 1, 'chem_comp_name': '4-{2-(4-FLUORO-BENZYL)-6-METHYL-5-[(5-METHYL-ISOXAZOLE-3-CARBONYL)-AMINO]-4-OXO-HEPTANOYLAMINO}-5-(2-OXO-PYRROLIDIN-3-YL)-PENTANOIC ACID ETHYL ESTER', 'weight': 600.678, 'carbohydrate_polymer': False, 'branch_name': ''}]

>  <ligand_codes>  (634) 
['AG7']

>  <cofactor_codes>  (634) 
[]

>  <has_cofactor>  (634) 
False

>  <covalent>  (634) 
False

>  <base_name>  (634) 
6KU8

>  <lig_resn>  (634) 
AG7

>  <lig_resi>  (634) 
501

>  <lig_chain>  (634) 
A

>  <lig_segi>  (634) 
B

>  <lig_alt>  (634) 


>  <polymer_chain>  (634) 
A

>  <single_smiles>  (634) 
CCOC(=O)CC[C@H](C[C@@H]1CCNC1=O)NC(=O)[C@@H](CC(=O)[C@@H](NC(=O)c2cc(C)on2)C(C)C)Cc3ccc(F)cc3

$$$$
AG7P12S18
     RDKit          3D

 28 28  0  0  0  0  0  0  0  0999 V2000
   -7.3990    9.4630  -32.1610 C   0  0  0  0  0  0  0  0  0  0  0  0
   -7.3030    9.5660  -33.6750 C   0  0  2  0  0  0  0  0  0  0  0  0
   -8.4720   10.3790  -34.0520 N   0  0  0  0  0  0  0  0  0  0  0  0
   -7.0890    8.1890  -34.3170 C   0  0  0  0  0  0  0  0  0  0  0  0
   -8.2170   11.5620  -34.8560 C   0  0  0  0  0  0  0  0  0  0  0  0
   -7.6300    8.1640  -35.7550 C   0  0  0  0  0  0  0  0  0  0  0  0
   -9.3130   12.5410  -35.2750 C   0  0  1  0  0  0  0  0  0  0  0  0
   -7.1000   11.7820  -35.1800 O   0  0  0  0  0  0  0  0  0  0  0  0
   -6.3370    8.3890  -36.5060 C   0  0  0  0  0  0  0  0  0  0  0  0
   -8.6930   13.9260  -35.1370 C   0  0  0  0  0  0  0  0  0  0  0  0
   -9.7000   12.4750  -36.7420 C   0  0  0  0  0  0  0  0  0  0  0  0
   -6.2970    9.1800  -37.6510 O   0  0  0  0  0  0  0  0  0  0  0  0
   -5.3570    7.9030  -36.0570 O   0  0  0  0  0  0  0  0  0  0  0  0
   -8.5670   14.4320  -33.7110 C   0  0  0  0  0  0  0  0  0  0  0  0
  -11.0210   13.2200  -36.9910 C   0  0  0  0  0  0  0  0  0  0  0  0
   -4.9980    9.2960  -38.1470 C   0  0  0  0  0  0  0  0  0  0  0  0
   -8.3750   15.9370  -33.7070 C   0  0  0  0  0  0  0  0  0  0  0  0
   -8.6070   13.7560  -32.7230 O   0  0  0  0  0  0  0  0  0  0  0  0
  -12.1300   12.9450  -36.2050 C   0  0  0  0  0  0  0  0  0  0  0  0
  -11.1130   14.1790  -37.9990 C   0  0  0  0  0  0  0  0  0  0  0  0
   -5.0760    9.8510  -39.5680 C   0  0  0  0  0  0  0  0  0  0  0  0
   -6.9790   16.3080  -34.2120 C   0  0  0  0  0  0  0  0  0  0  0  0
  -13.3220   13.6160  -36.4240 C   0  0  0  0  0  0  0  0  0  0  0  0
  -12.3090   14.8520  -38.2170 C   0  0  0  0  0  0  0  0  0  0  0  0
   -6.7970   17.8160  -34.4290 C   0  0  0  0  0  0  0  0  0  0  0  0
   -5.9310   15.7820  -33.2260 C   0  0  0  0  0  0  0  0  0  0  0  0
  -13.4160   14.5720  -37.4290 C   0  0  0  0  0  0  0  0  0  0  0  0
  -14.5980   15.2330  -37.6340 F   0  0  0  0  0  0  0  0  0  0  0  0
  2  1  1  1
  3  2  1  0
  2  4  1  0
  3  5  1  0
  4  6  1  0
  7  5  1  0
  5  8  1  0
  6  9  1  0
  7 10  1  6
  7 11  1  0
  9 12  1  0
  9 13  1  0
 14 10  1  0
 11 15  1  0
 12 16  1  0
 17 14  1  1
 14 18  1  0
 15 19  1  0
 15 20  1  0
 16 21  1  0
 17 22  1  0
 19 23  1  0
 24 20  1  0
 22 25  1  0
 22 26  1  0
 23 27  1  0
 27 24  1  0
 27 28  1  0
A    2
 C13
A    3
 N12
A    4
 C19
A    5
 C47
A    6
 C20
A    7
 C04
A    8
 O48
A    9
 C21
A   10
 C02
A   11
 C05
A   12
 O22
A   13
 O23
A   14
 C01
A   15
 C06
A   16
 C50
A   18
 O03
A   19
 C07
A   20
 C11
A   21
 C53
A   22
 C78
A   23
 C08
A   24
 C10
A   25
 C81
A   26
 C82
A   27
 C09
A   28
 F1 
M  END
>  <XChem_code>  (635) 
AG7§12

>  <Occupancy>  (635) 
[1.0, 1.0, 1.0, 1.0, 1.0, 1.0, 1.0, 1.0, 1.0, 1.0, 1.0, 1.0, 1.0, 1.0, 1.0, 1.0, 1.0, 1.0, 1.0, 1.0, 1.0, 1.0, 1.0, 1.0, 1.0, 1.0, 1.0, 1.0, 1.0, 1.0, 1.0, 1.0, 1.0, 1.0, 1.0, 1.0, 1.0, 1.0]

>  <TempFactor>  (635) 
[56.87, 76.17, 55.13, 39.03, 48.62, 52.58, 47.89, 46.71, 48.3, 47.91, 49.6, 49.69, 42.73, 41.63, 39.08, 34.68, 26.06, 30.82, 26.95, 46.9, 46.82, 50.79, 56.24, 49.99, 47.58, 46.28, 59.41, 58.23, 62.42, 63.63, 73.33, 77.2, 64.57, 66.68, 74.14, 34.72, 36.83, 48.64]

>  <accession>  (635) 
6KU8_A

>  <description>  (635) 
Chain A, Genome polyprotein [Rhinovirus C]

>  <evalue>  (635) 
6.1081299999999999e-61

>  <pdb_code>  (635) 
6KU8

>  <chain>  (635) 
A

>  <ligands>  (635) 
[{'chain_id': 'A', 'author_residue_number': 501, 'author_insertion_code': '', 'chem_comp_id': 'AG7', 'alternate_conformers': 0, 'entity_id': 2, 'struct_asym_id': 'B', 'residue_number': 1, 'chem_comp_name': '4-{2-(4-FLUORO-BENZYL)-6-METHYL-5-[(5-METHYL-ISOXAZOLE-3-CARBONYL)-AMINO]-4-OXO-HEPTANOYLAMINO}-5-(2-OXO-PYRROLIDIN-3-YL)-PENTANOIC ACID ETHYL ESTER', 'weight': 600.678, 'carbohydrate_polymer': False, 'branch_name': ''}]

>  <ligand_codes>  (635) 
['AG7']

>  <cofactor_codes>  (635) 
[]

>  <has_cofactor>  (635) 
False

>  <covalent>  (635) 
False

>  <base_name>  (635) 
6KU8

>  <lig_resn>  (635) 
AG7

>  <lig_resi>  (635) 
501

>  <lig_chain>  (635) 
A

>  <lig_segi>  (635) 
B

>  <lig_alt>  (635) 


>  <polymer_chain>  (635) 
A

>  <single_smiles>  (635) 
CCOC(=O)CC[C@H](C[C@@H]1CCNC1=O)NC(=O)[C@@H](CC(=O)[C@@H](NC(=O)c2cc(C)on2)C(C)C)Cc3ccc(F)cc3

$$$$
AG7P12S19
     RDKit          3D

 12 11  0  0  0  0  0  0  0  0999 V2000
   -9.7000   12.4750  -36.7420 C   0  0  0  0  0  0  0  0  0  0  0  0
   -9.3130   12.5410  -35.2750 C   0  0  2  0  0  0  0  0  0  0  0  0
   -8.6930   13.9260  -35.1370 C   0  0  0  0  0  0  0  0  0  0  0  0
   -8.2170   11.5620  -34.8560 C   0  0  0  0  0  0  0  0  0  0  0  0
   -8.5670   14.4320  -33.7110 C   0  0  0  0  0  0  0  0  0  0  0  0
   -8.4720   10.3790  -34.0520 N   0  0  0  0  0  0  0  0  0  0  0  0
   -7.1000   11.7820  -35.1800 O   0  0  0  0  0  0  0  0  0  0  0  0
   -8.3750   15.9370  -33.7070 C   0  0  0  0  0  0  0  0  0  0  0  0
   -8.6070   13.7560  -32.7230 O   0  0  0  0  0  0  0  0  0  0  0  0
   -6.9790   16.3080  -34.2120 C   0  0  0  0  0  0  0  0  0  0  0  0
   -6.7970   17.8160  -34.4290 C   0  0  0  0  0  0  0  0  0  0  0  0
   -5.9310   15.7820  -33.2260 C   0  0  0  0  0  0  0  0  0  0  0  0
  2  1  1  6
  2  3  1  0
  2  4  1  0
  5  3  1  0
  6  4  1  0
  4  7  1  0
  8  5  1  1
  5  9  1  0
  8 10  1  0
 10 11  1  0
 10 12  1  0
A    2
 C04
A    3
 C02
A    4
 C47
A    5
 C01
A    7
 O48
A    9
 O03
A   10
 C78
A   11
 C81
A   12
 C82
M  END
>  <XChem_code>  (636) 
AG7§12

>  <Occupancy>  (636) 
[1.0, 1.0, 1.0, 1.0, 1.0, 1.0, 1.0, 1.0, 1.0, 1.0, 1.0, 1.0, 1.0, 1.0, 1.0, 1.0, 1.0, 1.0, 1.0, 1.0, 1.0, 1.0, 1.0, 1.0, 1.0, 1.0, 1.0, 1.0, 1.0, 1.0, 1.0, 1.0, 1.0, 1.0, 1.0, 1.0, 1.0, 1.0]

>  <TempFactor>  (636) 
[56.87, 76.17, 55.13, 39.03, 48.62, 52.58, 47.89, 46.71, 48.3, 47.91, 49.6, 49.69, 42.73, 41.63, 39.08, 34.68, 26.06, 30.82, 26.95, 46.9, 46.82, 50.79, 56.24, 49.99, 47.58, 46.28, 59.41, 58.23, 62.42, 63.63, 73.33, 77.2, 64.57, 66.68, 74.14, 34.72, 36.83, 48.64]

>  <accession>  (636) 
6KU8_A

>  <description>  (636) 
Chain A, Genome polyprotein [Rhinovirus C]

>  <evalue>  (636) 
6.1081299999999999e-61

>  <pdb_code>  (636) 
6KU8

>  <chain>  (636) 
A

>  <ligands>  (636) 
[{'chain_id': 'A', 'author_residue_number': 501, 'author_insertion_code': '', 'chem_comp_id': 'AG7', 'alternate_conformers': 0, 'entity_id': 2, 'struct_asym_id': 'B', 'residue_number': 1, 'chem_comp_name': '4-{2-(4-FLUORO-BENZYL)-6-METHYL-5-[(5-METHYL-ISOXAZOLE-3-CARBONYL)-AMINO]-4-OXO-HEPTANOYLAMINO}-5-(2-OXO-PYRROLIDIN-3-YL)-PENTANOIC ACID ETHYL ESTER', 'weight': 600.678, 'carbohydrate_polymer': False, 'branch_name': ''}]

>  <ligand_codes>  (636) 
['AG7']

>  <cofactor_codes>  (636) 
[]

>  <has_cofactor>  (636) 
False

>  <covalent>  (636) 
False

>  <base_name>  (636) 
6KU8

>  <lig_resn>  (636) 
AG7

>  <lig_resi>  (636) 
501

>  <lig_chain>  (636) 
A

>  <lig_segi>  (636) 
B

>  <lig_alt>  (636) 


>  <polymer_chain>  (636) 
A

>  <single_smiles>  (636) 
CCOC(=O)CC[C@H](C[C@@H]1CCNC1=O)NC(=O)[C@@H](CC(=O)[C@@H](NC(=O)c2cc(C)on2)C(C)C)Cc3ccc(F)cc3

$$$$
AG7P12S20
     RDKit          3D

 11 10  0  0  0  0  0  0  0  0999 V2000
   -9.7000   12.4750  -36.7420 C   0  0  0  0  0  0  0  0  0  0  0  0
   -9.3130   12.5410  -35.2750 C   0  0  2  0  0  0  0  0  0  0  0  0
   -8.6930   13.9260  -35.1370 C   0  0  0  0  0  0  0  0  0  0  0  0
   -8.2170   11.5620  -34.8560 C   0  0  0  0  0  0  0  0  0  0  0  0
   -8.5670   14.4320  -33.7110 C   0  0  0  0  0  0  0  0  0  0  0  0
   -7.1000   11.7820  -35.1800 O   0  0  0  0  0  0  0  0  0  0  0  0
   -8.3750   15.9370  -33.7070 C   0  0  0  0  0  0  0  0  0  0  0  0
   -8.6070   13.7560  -32.7230 O   0  0  0  0  0  0  0  0  0  0  0  0
   -6.9790   16.3080  -34.2120 C   0  0  0  0  0  0  0  0  0  0  0  0
   -6.7970   17.8160  -34.4290 C   0  0  0  0  0  0  0  0  0  0  0  0
   -5.9310   15.7820  -33.2260 C   0  0  0  0  0  0  0  0  0  0  0  0
  2  1  1  6
  2  3  1  0
  2  4  1  0
  5  3  1  0
  4  6  1  0
  7  5  1  1
  5  8  1  0
  7  9  1  0
  9 10  1  0
  9 11  1  0
A    2
 C04
A    3
 C02
A    5
 C01
A    6
 O48
A    8
 O03
A    9
 C78
A   10
 C81
A   11
 C82
M  END
>  <XChem_code>  (637) 
AG7§12

>  <Occupancy>  (637) 
[1.0, 1.0, 1.0, 1.0, 1.0, 1.0, 1.0, 1.0, 1.0, 1.0, 1.0, 1.0, 1.0, 1.0, 1.0, 1.0, 1.0, 1.0, 1.0, 1.0, 1.0, 1.0, 1.0, 1.0, 1.0, 1.0, 1.0, 1.0, 1.0, 1.0, 1.0, 1.0, 1.0, 1.0, 1.0, 1.0, 1.0, 1.0]

>  <TempFactor>  (637) 
[56.87, 76.17, 55.13, 39.03, 48.62, 52.58, 47.89, 46.71, 48.3, 47.91, 49.6, 49.69, 42.73, 41.63, 39.08, 34.68, 26.06, 30.82, 26.95, 46.9, 46.82, 50.79, 56.24, 49.99, 47.58, 46.28, 59.41, 58.23, 62.42, 63.63, 73.33, 77.2, 64.57, 66.68, 74.14, 34.72, 36.83, 48.64]

>  <accession>  (637) 
6KU8_A

>  <description>  (637) 
Chain A, Genome polyprotein [Rhinovirus C]

>  <evalue>  (637) 
6.1081299999999999e-61

>  <pdb_code>  (637) 
6KU8

>  <chain>  (637) 
A

>  <ligands>  (637) 
[{'chain_id': 'A', 'author_residue_number': 501, 'author_insertion_code': '', 'chem_comp_id': 'AG7', 'alternate_conformers': 0, 'entity_id': 2, 'struct_asym_id': 'B', 'residue_number': 1, 'chem_comp_name': '4-{2-(4-FLUORO-BENZYL)-6-METHYL-5-[(5-METHYL-ISOXAZOLE-3-CARBONYL)-AMINO]-4-OXO-HEPTANOYLAMINO}-5-(2-OXO-PYRROLIDIN-3-YL)-PENTANOIC ACID ETHYL ESTER', 'weight': 600.678, 'carbohydrate_polymer': False, 'branch_name': ''}]

>  <ligand_codes>  (637) 
['AG7']

>  <cofactor_codes>  (637) 
[]

>  <has_cofactor>  (637) 
False

>  <covalent>  (637) 
False

>  <base_name>  (637) 
6KU8

>  <lig_resn>  (637) 
AG7

>  <lig_resi>  (637) 
501

>  <lig_chain>  (637) 
A

>  <lig_segi>  (637) 
B

>  <lig_alt>  (637) 


>  <polymer_chain>  (637) 
A

>  <single_smiles>  (637) 
CCOC(=O)CC[C@H](C[C@@H]1CCNC1=O)NC(=O)[C@@H](CC(=O)[C@@H](NC(=O)c2cc(C)on2)C(C)C)Cc3ccc(F)cc3

$$$$
AG7P12S21
     RDKit          3D

 25 24  0  0  0  0  0  0  0  0999 V2000
   -7.3990    9.4630  -32.1610 C   0  0  0  0  0  0  0  0  0  0  0  0
   -7.3030    9.5660  -33.6750 C   0  0  2  0  0  0  0  0  0  0  0  0
   -8.4720   10.3790  -34.0520 N   0  0  0  0  0  0  0  0  0  0  0  0
   -7.0890    8.1890  -34.3170 C   0  0  0  0  0  0  0  0  0  0  0  0
   -8.2170   11.5620  -34.8560 C   0  0  0  0  0  0  0  0  0  0  0  0
   -7.6300    8.1640  -35.7550 C   0  0  0  0  0  0  0  0  0  0  0  0
   -9.3130   12.5410  -35.2750 C   0  0  2  0  0  0  0  0  0  0  0  0
   -7.1000   11.7820  -35.1800 O   0  0  0  0  0  0  0  0  0  0  0  0
   -6.3370    8.3890  -36.5060 C   0  0  0  0  0  0  0  0  0  0  0  0
   -9.7000   12.4750  -36.7420 C   0  0  0  0  0  0  0  0  0  0  0  0
   -8.6930   13.9260  -35.1370 C   0  0  0  0  0  0  0  0  0  0  0  0
   -6.2970    9.1800  -37.6510 O   0  0  0  0  0  0  0  0  0  0  0  0
   -5.3570    7.9030  -36.0570 O   0  0  0  0  0  0  0  0  0  0  0  0
   -8.5670   14.4320  -33.7110 C   0  0  0  0  0  0  0  0  0  0  0  0
   -4.9980    9.2960  -38.1470 C   0  0  0  0  0  0  0  0  0  0  0  0
   -8.6070   13.7560  -32.7230 O   0  0  0  0  0  0  0  0  0  0  0  0
   -8.3750   15.9370  -33.7070 C   0  0  1  0  0  0  0  0  0  0  0  0
   -5.0760    9.8510  -39.5680 C   0  0  0  0  0  0  0  0  0  0  0  0
   -8.4690   16.4220  -32.3850 N   0  0  0  0  0  0  0  0  0  0  0  0
   -6.9790   16.3080  -34.2120 C   0  0  0  0  0  0  0  0  0  0  0  0
   -9.0480   17.7050  -32.1870 C   0  0  0  0  0  0  0  0  0  0  0  0
   -6.7970   17.8160  -34.4290 C   0  0  0  0  0  0  0  0  0  0  0  0
   -5.9310   15.7820  -33.2260 C   0  0  0  0  0  0  0  0  0  0  0  0
   -8.9960   18.0230  -30.7400 C   0  0  0  0  0  0  0  0  0  0  0  0
   -9.4860   18.4290  -33.0250 O   0  0  0  0  0  0  0  0  0  0  0  0
  2  1  1  1
  3  2  1  0
  2  4  1  0
  3  5  1  0
  4  6  1  0
  7  5  1  0
  5  8  1  0
  6  9  1  0
  7 10  1  6
  7 11  1  0
  9 12  1  0
  9 13  1  0
 14 11  1  0
 12 15  1  0
 14 16  1  0
 14 17  1  0
 15 18  1  0
 17 19  1  1
 17 20  1  0
 19 21  1  0
 20 22  1  0
 20 23  1  0
 24 21  1  0
 21 25  1  0
A    2
 C13
A    3
 N12
A    4
 C19
A    5
 C47
A    6
 C20
A    7
 C04
A    8
 O48
A    9
 C21
A   11
 C02
A   12
 O22
A   13
 O23
A   14
 C01
A   15
 C50
A   16
 O03
A   17
 C57
A   18
 C53
A   19
 N58
A   20
 C78
A   21
 C59
A   22
 C81
A   23
 C82
A   24
 C1 
A   25
 O60
M  END
>  <XChem_code>  (638) 
AG7§12

>  <Occupancy>  (638) 
[1.0, 1.0, 1.0, 1.0, 1.0, 1.0, 1.0, 1.0, 1.0, 1.0, 1.0, 1.0, 1.0, 1.0, 1.0, 1.0, 1.0, 1.0, 1.0, 1.0, 1.0, 1.0, 1.0, 1.0, 1.0, 1.0, 1.0, 1.0, 1.0, 1.0, 1.0, 1.0, 1.0, 1.0, 1.0, 1.0, 1.0, 1.0]

>  <TempFactor>  (638) 
[56.87, 76.17, 55.13, 39.03, 48.62, 52.58, 47.89, 46.71, 48.3, 47.91, 49.6, 49.69, 42.73, 41.63, 39.08, 34.68, 26.06, 30.82, 26.95, 46.9, 46.82, 50.79, 56.24, 49.99, 47.58, 46.28, 59.41, 58.23, 62.42, 63.63, 73.33, 77.2, 64.57, 66.68, 74.14, 34.72, 36.83, 48.64]

>  <accession>  (638) 
6KU8_A

>  <description>  (638) 
Chain A, Genome polyprotein [Rhinovirus C]

>  <evalue>  (638) 
6.1081299999999999e-61

>  <pdb_code>  (638) 
6KU8

>  <chain>  (638) 
A

>  <ligands>  (638) 
[{'chain_id': 'A', 'author_residue_number': 501, 'author_insertion_code': '', 'chem_comp_id': 'AG7', 'alternate_conformers': 0, 'entity_id': 2, 'struct_asym_id': 'B', 'residue_number': 1, 'chem_comp_name': '4-{2-(4-FLUORO-BENZYL)-6-METHYL-5-[(5-METHYL-ISOXAZOLE-3-CARBONYL)-AMINO]-4-OXO-HEPTANOYLAMINO}-5-(2-OXO-PYRROLIDIN-3-YL)-PENTANOIC ACID ETHYL ESTER', 'weight': 600.678, 'carbohydrate_polymer': False, 'branch_name': ''}]

>  <ligand_codes>  (638) 
['AG7']

>  <cofactor_codes>  (638) 
[]

>  <has_cofactor>  (638) 
False

>  <covalent>  (638) 
False

>  <base_name>  (638) 
6KU8

>  <lig_resn>  (638) 
AG7

>  <lig_resi>  (638) 
501

>  <lig_chain>  (638) 
A

>  <lig_segi>  (638) 
B

>  <lig_alt>  (638) 


>  <polymer_chain>  (638) 
A

>  <single_smiles>  (638) 
CCOC(=O)CC[C@H](C[C@@H]1CCNC1=O)NC(=O)[C@@H](CC(=O)[C@@H](NC(=O)c2cc(C)on2)C(C)C)Cc3ccc(F)cc3

$$$$
AG7P12S22
     RDKit          3D

 21 20  0  0  0  0  0  0  0  0999 V2000
   -7.3990    9.4630  -32.1610 C   0  0  0  0  0  0  0  0  0  0  0  0
   -7.3030    9.5660  -33.6750 C   0  0  2  0  0  0  0  0  0  0  0  0
   -8.4720   10.3790  -34.0520 N   0  0  0  0  0  0  0  0  0  0  0  0
   -7.0890    8.1890  -34.3170 C   0  0  0  0  0  0  0  0  0  0  0  0
   -8.2170   11.5620  -34.8560 C   0  0  0  0  0  0  0  0  0  0  0  0
   -7.6300    8.1640  -35.7550 C   0  0  0  0  0  0  0  0  0  0  0  0
   -9.3130   12.5410  -35.2750 C   0  0  2  0  0  0  0  0  0  0  0  0
   -7.1000   11.7820  -35.1800 O   0  0  0  0  0  0  0  0  0  0  0  0
   -6.3370    8.3890  -36.5060 C   0  0  0  0  0  0  0  0  0  0  0  0
   -9.7000   12.4750  -36.7420 C   0  0  0  0  0  0  0  0  0  0  0  0
   -8.6930   13.9260  -35.1370 C   0  0  0  0  0  0  0  0  0  0  0  0
   -6.2970    9.1800  -37.6510 O   0  0  0  0  0  0  0  0  0  0  0  0
   -5.3570    7.9030  -36.0570 O   0  0  0  0  0  0  0  0  0  0  0  0
   -8.5670   14.4320  -33.7110 C   0  0  0  0  0  0  0  0  0  0  0  0
   -4.9980    9.2960  -38.1470 C   0  0  0  0  0  0  0  0  0  0  0  0
   -8.3750   15.9370  -33.7070 C   0  0  0  0  0  0  0  0  0  0  0  0
   -8.6070   13.7560  -32.7230 O   0  0  0  0  0  0  0  0  0  0  0  0
   -5.0760    9.8510  -39.5680 C   0  0  0  0  0  0  0  0  0  0  0  0
   -6.9790   16.3080  -34.2120 C   0  0  0  0  0  0  0  0  0  0  0  0
   -6.7970   17.8160  -34.4290 C   0  0  0  0  0  0  0  0  0  0  0  0
   -5.9310   15.7820  -33.2260 C   0  0  0  0  0  0  0  0  0  0  0  0
  2  1  1  1
  3  2  1  0
  2  4  1  0
  3  5  1  0
  4  6  1  0
  7  5  1  0
  5  8  1  0
  6  9  1  0
  7 10  1  6
  7 11  1  0
  9 12  1  0
  9 13  1  0
 14 11  1  0
 12 15  1  0
 16 14  1  1
 14 17  1  0
 15 18  1  0
 16 19  1  0
 19 20  1  0
 19 21  1  0
A    2
 C13
A    3
 N12
A    4
 C19
A    5
 C47
A    6
 C20
A    7
 C04
A    8
 O48
A    9
 C21
A   11
 C02
A   12
 O22
A   13
 O23
A   14
 C01
A   15
 C50
A   17
 O03
A   18
 C53
A   19
 C78
A   20
 C81
A   21
 C82
M  END
>  <XChem_code>  (639) 
AG7§12

>  <Occupancy>  (639) 
[1.0, 1.0, 1.0, 1.0, 1.0, 1.0, 1.0, 1.0, 1.0, 1.0, 1.0, 1.0, 1.0, 1.0, 1.0, 1.0, 1.0, 1.0, 1.0, 1.0, 1.0, 1.0, 1.0, 1.0, 1.0, 1.0, 1.0, 1.0, 1.0, 1.0, 1.0, 1.0, 1.0, 1.0, 1.0, 1.0, 1.0, 1.0]

>  <TempFactor>  (639) 
[56.87, 76.17, 55.13, 39.03, 48.62, 52.58, 47.89, 46.71, 48.3, 47.91, 49.6, 49.69, 42.73, 41.63, 39.08, 34.68, 26.06, 30.82, 26.95, 46.9, 46.82, 50.79, 56.24, 49.99, 47.58, 46.28, 59.41, 58.23, 62.42, 63.63, 73.33, 77.2, 64.57, 66.68, 74.14, 34.72, 36.83, 48.64]

>  <accession>  (639) 
6KU8_A

>  <description>  (639) 
Chain A, Genome polyprotein [Rhinovirus C]

>  <evalue>  (639) 
6.1081299999999999e-61

>  <pdb_code>  (639) 
6KU8

>  <chain>  (639) 
A

>  <ligands>  (639) 
[{'chain_id': 'A', 'author_residue_number': 501, 'author_insertion_code': '', 'chem_comp_id': 'AG7', 'alternate_conformers': 0, 'entity_id': 2, 'struct_asym_id': 'B', 'residue_number': 1, 'chem_comp_name': '4-{2-(4-FLUORO-BENZYL)-6-METHYL-5-[(5-METHYL-ISOXAZOLE-3-CARBONYL)-AMINO]-4-OXO-HEPTANOYLAMINO}-5-(2-OXO-PYRROLIDIN-3-YL)-PENTANOIC ACID ETHYL ESTER', 'weight': 600.678, 'carbohydrate_polymer': False, 'branch_name': ''}]

>  <ligand_codes>  (639) 
['AG7']

>  <cofactor_codes>  (639) 
[]

>  <has_cofactor>  (639) 
False

>  <covalent>  (639) 
False

>  <base_name>  (639) 
6KU8

>  <lig_resn>  (639) 
AG7

>  <lig_resi>  (639) 
501

>  <lig_chain>  (639) 
A

>  <lig_segi>  (639) 
B

>  <lig_alt>  (639) 


>  <polymer_chain>  (639) 
A

>  <single_smiles>  (639) 
CCOC(=O)CC[C@H](C[C@@H]1CCNC1=O)NC(=O)[C@@H](CC(=O)[C@@H](NC(=O)c2cc(C)on2)C(C)C)Cc3ccc(F)cc3

$$$$
AG7P14
     RDKit          3D

 44 46  0  0  0  0  0  0  0  0999 V2000
   -8.5080   14.9300  -33.3220 C   0  0  0  0  0  0  0  0  0  0  0  0
  -10.0180   17.8700  -29.8390 C   0  0  0  0  0  0  0  0  0  0  0  0
   -9.0470   14.7330  -34.7430 C   0  0  0  0  0  0  0  0  0  0  0  0
  -10.9400   18.9000  -29.3490 C   0  0  0  0  0  0  0  0  0  0  0  0
  -11.0910   18.5810  -27.9530 C   0  0  0  0  0  0  0  0  0  0  0  0
   -8.8050   14.1230  -32.4480 O   0  0  0  0  0  0  0  0  0  0  0  0
   -8.8530   13.2790  -35.2310 C   0  0  1  0  0  0  0  0  0  0  0  0
  -11.9400   19.3230  -26.9590 C   0  0  0  0  0  0  0  0  0  0  0  0
  -10.3500   17.5030  -27.7220 O   0  0  0  0  0  0  0  0  0  0  0  0
   -9.1730   12.9400  -36.6820 C   0  0  0  0  0  0  0  0  0  0  0  0
   -9.7280   17.0810  -28.8080 N   0  0  0  0  0  0  0  0  0  0  0  0
  -10.3460   13.7680  -37.1900 C   0  0  0  0  0  0  0  0  0  0  0  0
  -11.6330   13.4790  -36.7590 C   0  0  0  0  0  0  0  0  0  0  0  0
  -12.7160   14.2140  -37.2600 C   0  0  0  0  0  0  0  0  0  0  0  0
  -12.4920   15.2320  -38.1910 C   0  0  0  0  0  0  0  0  0  0  0  0
  -11.2050   15.5220  -38.6290 C   0  0  0  0  0  0  0  0  0  0  0  0
  -10.1200   14.7840  -38.1310 C   0  0  0  0  0  0  0  0  0  0  0  0
   -8.5060   11.1100  -33.8920 N   0  0  0  0  0  0  0  0  0  0  0  0
   -7.7300    9.9240  -33.4360 C   0  0  1  0  0  0  0  0  0  0  0  0
   -7.3190    9.7870  -31.9670 C   0  0  0  0  0  0  0  0  0  0  0  0
   -6.9490   11.1100  -31.3440 C   0  0  1  0  0  0  0  0  0  0  0  0
   -6.8820   10.9740  -29.8610 C   0  0  0  0  0  0  0  0  0  0  0  0
   -5.7440   11.6850  -29.4030 N   0  0  0  0  0  0  0  0  0  0  0  0
   -7.6250   10.3230  -29.1430 O   0  0  0  0  0  0  0  0  0  0  0  0
   -7.7770    8.6160  -34.2440 C   0  0  2  0  0  0  0  0  0  0  0  0
   -7.7810    8.8240  -35.7420 C   0  0  0  0  0  0  0  0  0  0  0  0
   -6.3340    8.9960  -36.1790 C   0  0  0  0  0  0  0  0  0  0  0  0
   -6.0510    9.6750  -37.2240 O   0  0  0  0  0  0  0  0  0  0  0  0
   -5.4140    8.5070  -35.4860 O   0  0  0  0  0  0  0  0  0  0  0  0
   -7.9150   12.2780  -34.5490 C   0  0  0  0  0  0  0  0  0  0  0  0
   -6.7310   12.3310  -34.8040 O   0  0  0  0  0  0  0  0  0  0  0  0
   -4.7230    9.9930  -37.5080 C   0  0  0  0  0  0  0  0  0  0  0  0
   -4.6910   10.8400  -38.7540 C   0  0  0  0  0  0  0  0  0  0  0  0
   -8.1450   16.3840  -32.9140 C   0  0  1  0  0  0  0  0  0  0  0  0
   -8.5860   16.6350  -31.5420 N   0  0  0  0  0  0  0  0  0  0  0  0
   -9.5070   17.7220  -31.2510 C   0  0  0  0  0  0  0  0  0  0  0  0
   -9.9070   18.4670  -32.1230 O   0  0  0  0  0  0  0  0  0  0  0  0
   -6.6630   16.7160  -33.0960 C   0  0  0  0  0  0  0  0  0  0  0  0
   -6.3990   18.1350  -32.6670 C   0  0  0  0  0  0  0  0  0  0  0  0
   -5.8390   15.7750  -32.2840 C   0  0  0  0  0  0  0  0  0  0  0  0
   -5.1300   12.3330  -30.5440 C   0  0  0  0  0  0  0  0  0  0  0  0
   -5.5910   11.5700  -31.7670 C   0  0  0  0  0  0  0  0  0  0  0  0
   -9.7150    8.3890  -33.9240 R   0  0  0  0  0  0  0  0  0  0  0  0
  -13.5350   15.9120  -38.6740 F   0  0  0  0  0  0  0  0  0  0  0  0
  1  3  1  0
  1  6  2  0
  1 34  1  0
  2  4  1  0
  2 11  2  0
  2 36  1  0
  7  3  1  6
  4  5  2  0
  5  8  1  0
  5  9  1  0
  7 10  1  0
  7 30  1  0
  9 11  1  0
 10 12  1  0
 12 13  2  0
 12 17  1  0
 13 14  1  0
 14 15  2  0
 15 16  1  0
 15 44  1  0
 16 17  2  0
 18 19  1  0
 18 30  1  0
 19 20  1  1
 19 25  1  0
 21 20  1  6
 21 22  1  0
 21 42  1  0
 22 23  1  0
 22 24  2  0
 23 41  1  0
 25 26  1  0
 25 43  1  1
 26 27  1  0
 27 28  1  0
 27 29  2  0
 28 32  1  0
 30 31  2  0
 32 33  1  0
 34 35  1  1
 34 38  1  0
 35 36  1  0
 36 37  2  0
 38 39  1  0
 38 40  1  0
 41 42  1  0
V   43 *
A    1
 C01
A    2
 C1 
A    3
 C02
A    4
 C2 
A    5
 C3 
A    6
 O03
A    7
 C04
A    8
 C4 
A    9
 O4 
A   10
 C05
A   11
 N5 
A   12
 C06
A   13
 C07
A   14
 C08
A   15
 C09
A   16
 C10
A   17
 C11
A   18
 N12
A   19
 C13
A   20
 C14
A   21
 C15
A   22
 C16
A   23
 N17
A   24
 O18
A   25
 C19
A   26
 C20
A   27
 C21
A   28
 O22
A   29
 O23
A   30
 C47
A   31
 O48
A   32
 C50
A   33
 C53
A   34
 C57
A   35
 N58
A   36
 C59
A   37
 O60
A   38
 C78
A   39
 C81
A   40
 C82
A   41
 C83
A   42
 C84
A   43
 X  
A   44
 F1 
M  END
>  <XChem_code>  (640) 
AG7§14

>  <Occupancy>  (640) 
[1.0, 1.0, 1.0, 1.0, 1.0, 1.0, 1.0, 1.0, 1.0, 1.0, 1.0, 1.0, 1.0, 1.0, 1.0, 1.0, 1.0, 1.0, 1.0, 1.0, 1.0, 1.0, 1.0, 1.0, 1.0, 1.0, 1.0, 1.0, 1.0, 1.0, 1.0, 1.0, 1.0, 1.0, 1.0, 1.0, 1.0, 1.0, 1.0, 1.0, 1.0, 1.0, 1.0, 1.0]

>  <TempFactor>  (640) 
[18.65, 18.72, 21.92, 17.65, 24.86, 15.28, 18.72, 30.43, 27.21, 19.54, 23.37, 32.17, 36.23, 46.57, 43.77, 41.12, 38.94, 15.18, 15.28, 13.93, 16.17, 15.35, 15.96, 15.01, 19.51, 19.89, 20.9, 31.74, 18.14, 17.75, 18.83, 41.08, 57.06, 15.9, 16.12, 18.19, 20.0, 16.9, 18.42, 18.16, 18.76, 20.9, 15.53, 47.08]

>  <accession>  (640) 
3QZQ_A

>  <description>  (640) 
Chain A, 3C protein [Enterovirus A71]

>  <evalue>  (640) 
7.17784e-59

>  <pdb_code>  (640) 
3QZQ

>  <chain>  (640) 
A

>  <ligands>  (640) 
[{'chain_id': 'A', 'author_residue_number': 501, 'author_insertion_code': '', 'chem_comp_id': 'AG7', 'alternate_conformers': 0, 'entity_id': 2, 'struct_asym_id': 'E', 'residue_number': 1, 'chem_comp_name': '4-{2-(4-FLUORO-BENZYL)-6-METHYL-5-[(5-METHYL-ISOXAZOLE-3-CARBONYL)-AMINO]-4-OXO-HEPTANOYLAMINO}-5-(2-OXO-PYRROLIDIN-3-YL)-PENTANOIC ACID ETHYL ESTER', 'weight': 600.678, 'carbohydrate_polymer': False, 'branch_name': ''}, {'chain_id': 'B', 'author_residue_number': 501, 'author_insertion_code': '', 'chem_comp_id': 'AG7', 'alternate_conformers': 0, 'entity_id': 2, 'struct_asym_id': 'F', 'residue_number': 1, 'chem_comp_name': '4-{2-(4-FLUORO-BENZYL)-6-METHYL-5-[(5-METHYL-ISOXAZOLE-3-CARBONYL)-AMINO]-4-OXO-HEPTANOYLAMINO}-5-(2-OXO-PYRROLIDIN-3-YL)-PENTANOIC ACID ETHYL ESTER', 'weight': 600.678, 'carbohydrate_polymer': False, 'branch_name': ''}, {'chain_id': 'C', 'author_residue_number': 501, 'author_insertion_code': '', 'chem_comp_id': 'AG7', 'alternate_conformers': 0, 'entity_id': 2, 'struct_asym_id': 'G', 'residue_number': 1, 'chem_comp_name': '4-{2-(4-FLUORO-BENZYL)-6-METHYL-5-[(5-METHYL-ISOXAZOLE-3-CARBONYL)-AMINO]-4-OXO-HEPTANOYLAMINO}-5-(2-OXO-PYRROLIDIN-3-YL)-PENTANOIC ACID ETHYL ESTER', 'weight': 600.678, 'carbohydrate_polymer': False, 'branch_name': ''}, {'chain_id': 'D', 'author_residue_number': 501, 'author_insertion_code': '', 'chem_comp_id': 'AG7', 'alternate_conformers': 0, 'entity_id': 2, 'struct_asym_id': 'H', 'residue_number': 1, 'chem_comp_name': '4-{2-(4-FLUORO-BENZYL)-6-METHYL-5-[(5-METHYL-ISOXAZOLE-3-CARBONYL)-AMINO]-4-OXO-HEPTANOYLAMINO}-5-(2-OXO-PYRROLIDIN-3-YL)-PENTANOIC ACID ETHYL ESTER', 'weight': 600.678, 'carbohydrate_polymer': False, 'branch_name': ''}]

>  <ligand_codes>  (640) 
['AG7', 'AG7', 'AG7', 'AG7']

>  <cofactor_codes>  (640) 
[]

>  <has_cofactor>  (640) 
False

>  <covalent>  (640) 
True

>  <base_name>  (640) 
3QZQ

>  <lig_resn>  (640) 
AG7

>  <lig_resi>  (640) 
501

>  <lig_chain>  (640) 
A

>  <lig_segi>  (640) 
E

>  <lig_alt>  (640) 


>  <polymer_chain>  (640) 
A

>  <single_smiles>  (640) 
CCOC(=O)CC[C@H](C[C@@H]1CCNC1=O)NC(=O)[C@@H](CC(=O)[C@@H](NC(=O)c2cc(C)on2)C(C)C)Cc3ccc(F)cc3

$$$$
AG7P14S1
     RDKit          3D

 17 17  0  0  0  0  0  0  0  0999 V2000
   -8.5060   11.1100  -33.8920 N   0  0  0  0  0  0  0  0  0  0  0  0
   -7.7300    9.9240  -33.4360 C   0  0  1  0  0  0  0  0  0  0  0  0
   -7.3190    9.7870  -31.9670 C   0  0  0  0  0  0  0  0  0  0  0  0
   -7.7770    8.6160  -34.2440 C   0  0  2  0  0  0  0  0  0  0  0  0
   -6.9490   11.1100  -31.3440 C   0  0  1  0  0  0  0  0  0  0  0  0
   -7.7810    8.8240  -35.7420 C   0  0  0  0  0  0  0  0  0  0  0  0
   -9.7150    8.3890  -33.9240 R   0  0  0  0  0  0  0  0  0  0  0  0
   -6.8820   10.9740  -29.8610 C   0  0  0  0  0  0  0  0  0  0  0  0
   -5.5910   11.5700  -31.7670 C   0  0  0  0  0  0  0  0  0  0  0  0
   -6.3340    8.9960  -36.1790 C   0  0  0  0  0  0  0  0  0  0  0  0
   -5.7440   11.6850  -29.4030 N   0  0  0  0  0  0  0  0  0  0  0  0
   -7.6250   10.3230  -29.1430 O   0  0  0  0  0  0  0  0  0  0  0  0
   -5.1300   12.3330  -30.5440 C   0  0  0  0  0  0  0  0  0  0  0  0
   -6.0510    9.6750  -37.2240 O   0  0  0  0  0  0  0  0  0  0  0  0
   -5.4140    8.5070  -35.4860 O   0  0  0  0  0  0  0  0  0  0  0  0
   -4.7230    9.9930  -37.5080 C   0  0  0  0  0  0  0  0  0  0  0  0
   -4.6910   10.8400  -38.7540 C   0  0  0  0  0  0  0  0  0  0  0  0
  2  1  1  1
  2  3  1  0
  2  4  1  0
  5  3  1  6
  4  6  1  0
  4  7  1  1
  5  8  1  0
  5  9  1  0
  6 10  1  0
  8 11  1  0
  8 12  2  0
 13  9  1  0
 10 14  1  0
 10 15  2  0
 11 13  1  0
 14 16  1  0
 16 17  1  0
V    7 *
A    2
 C13
A    3
 C14
A    4
 C19
A    5
 C15
A    6
 C20
A    7
 X  
A    8
 C16
A    9
 C84
A   10
 C21
A   11
 N17
A   12
 O18
A   13
 C83
A   14
 O22
A   15
 O23
A   16
 C50
A   17
 C53
M  END
>  <XChem_code>  (641) 
AG7§14

>  <Occupancy>  (641) 
[1.0, 1.0, 1.0, 1.0, 1.0, 1.0, 1.0, 1.0, 1.0, 1.0, 1.0, 1.0, 1.0, 1.0, 1.0, 1.0, 1.0, 1.0, 1.0, 1.0, 1.0, 1.0, 1.0, 1.0, 1.0, 1.0, 1.0, 1.0, 1.0, 1.0, 1.0, 1.0, 1.0, 1.0, 1.0, 1.0, 1.0, 1.0, 1.0, 1.0, 1.0, 1.0, 1.0, 1.0]

>  <TempFactor>  (641) 
[18.65, 18.72, 21.92, 17.65, 24.86, 15.28, 18.72, 30.43, 27.21, 19.54, 23.37, 32.17, 36.23, 46.57, 43.77, 41.12, 38.94, 15.18, 15.28, 13.93, 16.17, 15.35, 15.96, 15.01, 19.51, 19.89, 20.9, 31.74, 18.14, 17.75, 18.83, 41.08, 57.06, 15.9, 16.12, 18.19, 20.0, 16.9, 18.42, 18.16, 18.76, 20.9, 15.53, 47.08]

>  <accession>  (641) 
3QZQ_A

>  <description>  (641) 
Chain A, 3C protein [Enterovirus A71]

>  <evalue>  (641) 
7.17784e-59

>  <pdb_code>  (641) 
3QZQ

>  <chain>  (641) 
A

>  <ligands>  (641) 
[{'chain_id': 'A', 'author_residue_number': 501, 'author_insertion_code': '', 'chem_comp_id': 'AG7', 'alternate_conformers': 0, 'entity_id': 2, 'struct_asym_id': 'E', 'residue_number': 1, 'chem_comp_name': '4-{2-(4-FLUORO-BENZYL)-6-METHYL-5-[(5-METHYL-ISOXAZOLE-3-CARBONYL)-AMINO]-4-OXO-HEPTANOYLAMINO}-5-(2-OXO-PYRROLIDIN-3-YL)-PENTANOIC ACID ETHYL ESTER', 'weight': 600.678, 'carbohydrate_polymer': False, 'branch_name': ''}, {'chain_id': 'B', 'author_residue_number': 501, 'author_insertion_code': '', 'chem_comp_id': 'AG7', 'alternate_conformers': 0, 'entity_id': 2, 'struct_asym_id': 'F', 'residue_number': 1, 'chem_comp_name': '4-{2-(4-FLUORO-BENZYL)-6-METHYL-5-[(5-METHYL-ISOXAZOLE-3-CARBONYL)-AMINO]-4-OXO-HEPTANOYLAMINO}-5-(2-OXO-PYRROLIDIN-3-YL)-PENTANOIC ACID ETHYL ESTER', 'weight': 600.678, 'carbohydrate_polymer': False, 'branch_name': ''}, {'chain_id': 'C', 'author_residue_number': 501, 'author_insertion_code': '', 'chem_comp_id': 'AG7', 'alternate_conformers': 0, 'entity_id': 2, 'struct_asym_id': 'G', 'residue_number': 1, 'chem_comp_name': '4-{2-(4-FLUORO-BENZYL)-6-METHYL-5-[(5-METHYL-ISOXAZOLE-3-CARBONYL)-AMINO]-4-OXO-HEPTANOYLAMINO}-5-(2-OXO-PYRROLIDIN-3-YL)-PENTANOIC ACID ETHYL ESTER', 'weight': 600.678, 'carbohydrate_polymer': False, 'branch_name': ''}, {'chain_id': 'D', 'author_residue_number': 501, 'author_insertion_code': '', 'chem_comp_id': 'AG7', 'alternate_conformers': 0, 'entity_id': 2, 'struct_asym_id': 'H', 'residue_number': 1, 'chem_comp_name': '4-{2-(4-FLUORO-BENZYL)-6-METHYL-5-[(5-METHYL-ISOXAZOLE-3-CARBONYL)-AMINO]-4-OXO-HEPTANOYLAMINO}-5-(2-OXO-PYRROLIDIN-3-YL)-PENTANOIC ACID ETHYL ESTER', 'weight': 600.678, 'carbohydrate_polymer': False, 'branch_name': ''}]

>  <ligand_codes>  (641) 
['AG7', 'AG7', 'AG7', 'AG7']

>  <cofactor_codes>  (641) 
[]

>  <has_cofactor>  (641) 
False

>  <covalent>  (641) 
True

>  <base_name>  (641) 
3QZQ

>  <lig_resn>  (641) 
AG7

>  <lig_resi>  (641) 
501

>  <lig_chain>  (641) 
A

>  <lig_segi>  (641) 
E

>  <lig_alt>  (641) 


>  <polymer_chain>  (641) 
A

>  <single_smiles>  (641) 
CCOC(=O)CC[C@H](C[C@@H]1CCNC1=O)NC(=O)[C@@H](CC(=O)[C@@H](NC(=O)c2cc(C)on2)C(C)C)Cc3ccc(F)cc3

$$$$
AG7P14S2
     RDKit          3D

 27 28  0  0  0  0  0  0  0  0999 V2000
   -7.9150   12.2780  -34.5490 C   0  0  0  0  0  0  0  0  0  0  0  0
   -8.8530   13.2790  -35.2310 C   0  0  1  0  0  0  0  0  0  0  0  0
   -6.7310   12.3310  -34.8040 O   0  0  0  0  0  0  0  0  0  0  0  0
   -9.0470   14.7330  -34.7430 C   0  0  0  0  0  0  0  0  0  0  0  0
   -9.1730   12.9400  -36.6820 C   0  0  0  0  0  0  0  0  0  0  0  0
   -8.5080   14.9300  -33.3220 C   0  0  0  0  0  0  0  0  0  0  0  0
  -10.3460   13.7680  -37.1900 C   0  0  0  0  0  0  0  0  0  0  0  0
   -8.8050   14.1230  -32.4480 O   0  0  0  0  0  0  0  0  0  0  0  0
   -8.1450   16.3840  -32.9140 C   0  0  1  0  0  0  0  0  0  0  0  0
  -11.6330   13.4790  -36.7590 C   0  0  0  0  0  0  0  0  0  0  0  0
  -10.1200   14.7840  -38.1310 C   0  0  0  0  0  0  0  0  0  0  0  0
   -8.5860   16.6350  -31.5420 N   0  0  0  0  0  0  0  0  0  0  0  0
   -6.6630   16.7160  -33.0960 C   0  0  0  0  0  0  0  0  0  0  0  0
  -12.7160   14.2140  -37.2600 C   0  0  0  0  0  0  0  0  0  0  0  0
  -11.2050   15.5220  -38.6290 C   0  0  0  0  0  0  0  0  0  0  0  0
   -9.5070   17.7220  -31.2510 C   0  0  0  0  0  0  0  0  0  0  0  0
   -6.3990   18.1350  -32.6670 C   0  0  0  0  0  0  0  0  0  0  0  0
   -5.8390   15.7750  -32.2840 C   0  0  0  0  0  0  0  0  0  0  0  0
  -12.4920   15.2320  -38.1910 C   0  0  0  0  0  0  0  0  0  0  0  0
  -10.0180   17.8700  -29.8390 C   0  0  0  0  0  0  0  0  0  0  0  0
   -9.9070   18.4670  -32.1230 O   0  0  0  0  0  0  0  0  0  0  0  0
  -13.5350   15.9120  -38.6740 F   0  0  0  0  0  0  0  0  0  0  0  0
  -10.9400   18.9000  -29.3490 C   0  0  0  0  0  0  0  0  0  0  0  0
   -9.7280   17.0810  -28.8080 N   0  0  0  0  0  0  0  0  0  0  0  0
  -11.0910   18.5810  -27.9530 C   0  0  0  0  0  0  0  0  0  0  0  0
  -10.3500   17.5030  -27.7220 O   0  0  0  0  0  0  0  0  0  0  0  0
  -11.9400   19.3230  -26.9590 C   0  0  0  0  0  0  0  0  0  0  0  0
  2  1  1  0
  1  3  2  0
  2  4  1  6
  2  5  1  0
  6  4  1  0
  5  7  1  0
  6  8  2  0
  6  9  1  0
  7 10  2  0
  7 11  1  0
  9 12  1  1
  9 13  1  0
 10 14  1  0
 15 11  2  0
 12 16  1  0
 13 17  1  0
 13 18  1  0
 14 19  2  0
 19 15  1  0
 20 16  1  0
 16 21  2  0
 19 22  1  0
 20 23  1  0
 20 24  2  0
 23 25  2  0
 26 24  1  0
 25 27  1  0
 25 26  1  0
A    2
 C04
A    3
 O48
A    4
 C02
A    5
 C05
A    6
 C01
A    7
 C06
A    8
 O03
A    9
 C57
A   10
 C07
A   11
 C11
A   12
 N58
A   13
 C78
A   14
 C08
A   15
 C10
A   16
 C59
A   17
 C81
A   18
 C82
A   19
 C09
A   20
 C1 
A   21
 O60
A   22
 F1 
A   23
 C2 
A   24
 N5 
A   25
 C3 
A   26
 O4 
A   27
 C4 
M  END
>  <XChem_code>  (642) 
AG7§14

>  <Occupancy>  (642) 
[1.0, 1.0, 1.0, 1.0, 1.0, 1.0, 1.0, 1.0, 1.0, 1.0, 1.0, 1.0, 1.0, 1.0, 1.0, 1.0, 1.0, 1.0, 1.0, 1.0, 1.0, 1.0, 1.0, 1.0, 1.0, 1.0, 1.0, 1.0, 1.0, 1.0, 1.0, 1.0, 1.0, 1.0, 1.0, 1.0, 1.0, 1.0, 1.0, 1.0, 1.0, 1.0, 1.0, 1.0]

>  <TempFactor>  (642) 
[18.65, 18.72, 21.92, 17.65, 24.86, 15.28, 18.72, 30.43, 27.21, 19.54, 23.37, 32.17, 36.23, 46.57, 43.77, 41.12, 38.94, 15.18, 15.28, 13.93, 16.17, 15.35, 15.96, 15.01, 19.51, 19.89, 20.9, 31.74, 18.14, 17.75, 18.83, 41.08, 57.06, 15.9, 16.12, 18.19, 20.0, 16.9, 18.42, 18.16, 18.76, 20.9, 15.53, 47.08]

>  <accession>  (642) 
3QZQ_A

>  <description>  (642) 
Chain A, 3C protein [Enterovirus A71]

>  <evalue>  (642) 
7.17784e-59

>  <pdb_code>  (642) 
3QZQ

>  <chain>  (642) 
A

>  <ligands>  (642) 
[{'chain_id': 'A', 'author_residue_number': 501, 'author_insertion_code': '', 'chem_comp_id': 'AG7', 'alternate_conformers': 0, 'entity_id': 2, 'struct_asym_id': 'E', 'residue_number': 1, 'chem_comp_name': '4-{2-(4-FLUORO-BENZYL)-6-METHYL-5-[(5-METHYL-ISOXAZOLE-3-CARBONYL)-AMINO]-4-OXO-HEPTANOYLAMINO}-5-(2-OXO-PYRROLIDIN-3-YL)-PENTANOIC ACID ETHYL ESTER', 'weight': 600.678, 'carbohydrate_polymer': False, 'branch_name': ''}, {'chain_id': 'B', 'author_residue_number': 501, 'author_insertion_code': '', 'chem_comp_id': 'AG7', 'alternate_conformers': 0, 'entity_id': 2, 'struct_asym_id': 'F', 'residue_number': 1, 'chem_comp_name': '4-{2-(4-FLUORO-BENZYL)-6-METHYL-5-[(5-METHYL-ISOXAZOLE-3-CARBONYL)-AMINO]-4-OXO-HEPTANOYLAMINO}-5-(2-OXO-PYRROLIDIN-3-YL)-PENTANOIC ACID ETHYL ESTER', 'weight': 600.678, 'carbohydrate_polymer': False, 'branch_name': ''}, {'chain_id': 'C', 'author_residue_number': 501, 'author_insertion_code': '', 'chem_comp_id': 'AG7', 'alternate_conformers': 0, 'entity_id': 2, 'struct_asym_id': 'G', 'residue_number': 1, 'chem_comp_name': '4-{2-(4-FLUORO-BENZYL)-6-METHYL-5-[(5-METHYL-ISOXAZOLE-3-CARBONYL)-AMINO]-4-OXO-HEPTANOYLAMINO}-5-(2-OXO-PYRROLIDIN-3-YL)-PENTANOIC ACID ETHYL ESTER', 'weight': 600.678, 'carbohydrate_polymer': False, 'branch_name': ''}, {'chain_id': 'D', 'author_residue_number': 501, 'author_insertion_code': '', 'chem_comp_id': 'AG7', 'alternate_conformers': 0, 'entity_id': 2, 'struct_asym_id': 'H', 'residue_number': 1, 'chem_comp_name': '4-{2-(4-FLUORO-BENZYL)-6-METHYL-5-[(5-METHYL-ISOXAZOLE-3-CARBONYL)-AMINO]-4-OXO-HEPTANOYLAMINO}-5-(2-OXO-PYRROLIDIN-3-YL)-PENTANOIC ACID ETHYL ESTER', 'weight': 600.678, 'carbohydrate_polymer': False, 'branch_name': ''}]

>  <ligand_codes>  (642) 
['AG7', 'AG7', 'AG7', 'AG7']

>  <cofactor_codes>  (642) 
[]

>  <has_cofactor>  (642) 
False

>  <covalent>  (642) 
True

>  <base_name>  (642) 
3QZQ

>  <lig_resn>  (642) 
AG7

>  <lig_resi>  (642) 
501

>  <lig_chain>  (642) 
A

>  <lig_segi>  (642) 
E

>  <lig_alt>  (642) 


>  <polymer_chain>  (642) 
A

>  <single_smiles>  (642) 
CCOC(=O)CC[C@H](C[C@@H]1CCNC1=O)NC(=O)[C@@H](CC(=O)[C@@H](NC(=O)c2cc(C)on2)C(C)C)Cc3ccc(F)cc3

$$$$
AG7P14S3
     RDKit          3D

  8  8  0  0  0  0  0  0  0  0999 V2000
   -9.5070   17.7220  -31.2510 C   0  0  0  0  0  0  0  0  0  0  0  0
  -10.0180   17.8700  -29.8390 C   0  0  0  0  0  0  0  0  0  0  0  0
   -9.9070   18.4670  -32.1230 O   0  0  0  0  0  0  0  0  0  0  0  0
  -10.9400   18.9000  -29.3490 C   0  0  0  0  0  0  0  0  0  0  0  0
   -9.7280   17.0810  -28.8080 N   0  0  0  0  0  0  0  0  0  0  0  0
  -11.0910   18.5810  -27.9530 C   0  0  0  0  0  0  0  0  0  0  0  0
  -10.3500   17.5030  -27.7220 O   0  0  0  0  0  0  0  0  0  0  0  0
  -11.9400   19.3230  -26.9590 C   0  0  0  0  0  0  0  0  0  0  0  0
  2  1  1  0
  1  3  2  0
  2  4  1  0
  2  5  2  0
  4  6  2  0
  7  5  1  0
  6  8  1  0
  6  7  1  0
A    2
 C1 
A    3
 O60
A    4
 C2 
A    5
 N5 
A    6
 C3 
A    7
 O4 
A    8
 C4 
M  END
>  <XChem_code>  (643) 
AG7§14

>  <Occupancy>  (643) 
[1.0, 1.0, 1.0, 1.0, 1.0, 1.0, 1.0, 1.0, 1.0, 1.0, 1.0, 1.0, 1.0, 1.0, 1.0, 1.0, 1.0, 1.0, 1.0, 1.0, 1.0, 1.0, 1.0, 1.0, 1.0, 1.0, 1.0, 1.0, 1.0, 1.0, 1.0, 1.0, 1.0, 1.0, 1.0, 1.0, 1.0, 1.0, 1.0, 1.0, 1.0, 1.0, 1.0, 1.0]

>  <TempFactor>  (643) 
[18.65, 18.72, 21.92, 17.65, 24.86, 15.28, 18.72, 30.43, 27.21, 19.54, 23.37, 32.17, 36.23, 46.57, 43.77, 41.12, 38.94, 15.18, 15.28, 13.93, 16.17, 15.35, 15.96, 15.01, 19.51, 19.89, 20.9, 31.74, 18.14, 17.75, 18.83, 41.08, 57.06, 15.9, 16.12, 18.19, 20.0, 16.9, 18.42, 18.16, 18.76, 20.9, 15.53, 47.08]

>  <accession>  (643) 
3QZQ_A

>  <description>  (643) 
Chain A, 3C protein [Enterovirus A71]

>  <evalue>  (643) 
7.17784e-59

>  <pdb_code>  (643) 
3QZQ

>  <chain>  (643) 
A

>  <ligands>  (643) 
[{'chain_id': 'A', 'author_residue_number': 501, 'author_insertion_code': '', 'chem_comp_id': 'AG7', 'alternate_conformers': 0, 'entity_id': 2, 'struct_asym_id': 'E', 'residue_number': 1, 'chem_comp_name': '4-{2-(4-FLUORO-BENZYL)-6-METHYL-5-[(5-METHYL-ISOXAZOLE-3-CARBONYL)-AMINO]-4-OXO-HEPTANOYLAMINO}-5-(2-OXO-PYRROLIDIN-3-YL)-PENTANOIC ACID ETHYL ESTER', 'weight': 600.678, 'carbohydrate_polymer': False, 'branch_name': ''}, {'chain_id': 'B', 'author_residue_number': 501, 'author_insertion_code': '', 'chem_comp_id': 'AG7', 'alternate_conformers': 0, 'entity_id': 2, 'struct_asym_id': 'F', 'residue_number': 1, 'chem_comp_name': '4-{2-(4-FLUORO-BENZYL)-6-METHYL-5-[(5-METHYL-ISOXAZOLE-3-CARBONYL)-AMINO]-4-OXO-HEPTANOYLAMINO}-5-(2-OXO-PYRROLIDIN-3-YL)-PENTANOIC ACID ETHYL ESTER', 'weight': 600.678, 'carbohydrate_polymer': False, 'branch_name': ''}, {'chain_id': 'C', 'author_residue_number': 501, 'author_insertion_code': '', 'chem_comp_id': 'AG7', 'alternate_conformers': 0, 'entity_id': 2, 'struct_asym_id': 'G', 'residue_number': 1, 'chem_comp_name': '4-{2-(4-FLUORO-BENZYL)-6-METHYL-5-[(5-METHYL-ISOXAZOLE-3-CARBONYL)-AMINO]-4-OXO-HEPTANOYLAMINO}-5-(2-OXO-PYRROLIDIN-3-YL)-PENTANOIC ACID ETHYL ESTER', 'weight': 600.678, 'carbohydrate_polymer': False, 'branch_name': ''}, {'chain_id': 'D', 'author_residue_number': 501, 'author_insertion_code': '', 'chem_comp_id': 'AG7', 'alternate_conformers': 0, 'entity_id': 2, 'struct_asym_id': 'H', 'residue_number': 1, 'chem_comp_name': '4-{2-(4-FLUORO-BENZYL)-6-METHYL-5-[(5-METHYL-ISOXAZOLE-3-CARBONYL)-AMINO]-4-OXO-HEPTANOYLAMINO}-5-(2-OXO-PYRROLIDIN-3-YL)-PENTANOIC ACID ETHYL ESTER', 'weight': 600.678, 'carbohydrate_polymer': False, 'branch_name': ''}]

>  <ligand_codes>  (643) 
['AG7', 'AG7', 'AG7', 'AG7']

>  <cofactor_codes>  (643) 
[]

>  <has_cofactor>  (643) 
False

>  <covalent>  (643) 
True

>  <base_name>  (643) 
3QZQ

>  <lig_resn>  (643) 
AG7

>  <lig_resi>  (643) 
501

>  <lig_chain>  (643) 
A

>  <lig_segi>  (643) 
E

>  <lig_alt>  (643) 


>  <polymer_chain>  (643) 
A

>  <single_smiles>  (643) 
CCOC(=O)CC[C@H](C[C@@H]1CCNC1=O)NC(=O)[C@@H](CC(=O)[C@@H](NC(=O)c2cc(C)on2)C(C)C)Cc3ccc(F)cc3

$$$$
AG7P14S4
     RDKit          3D

 36 37  0  0  0  0  0  0  0  0999 V2000
   -8.5860   16.6350  -31.5420 N   0  0  0  0  0  0  0  0  0  0  0  0
   -8.1450   16.3840  -32.9140 C   0  0  2  0  0  0  0  0  0  0  0  0
   -8.5080   14.9300  -33.3220 C   0  0  0  0  0  0  0  0  0  0  0  0
   -6.6630   16.7160  -33.0960 C   0  0  0  0  0  0  0  0  0  0  0  0
   -9.0470   14.7330  -34.7430 C   0  0  0  0  0  0  0  0  0  0  0  0
   -8.8050   14.1230  -32.4480 O   0  0  0  0  0  0  0  0  0  0  0  0
   -6.3990   18.1350  -32.6670 C   0  0  0  0  0  0  0  0  0  0  0  0
   -5.8390   15.7750  -32.2840 C   0  0  0  0  0  0  0  0  0  0  0  0
   -8.8530   13.2790  -35.2310 C   0  0  1  0  0  0  0  0  0  0  0  0
   -9.1730   12.9400  -36.6820 C   0  0  0  0  0  0  0  0  0  0  0  0
   -7.9150   12.2780  -34.5490 C   0  0  0  0  0  0  0  0  0  0  0  0
  -10.3460   13.7680  -37.1900 C   0  0  0  0  0  0  0  0  0  0  0  0
   -8.5060   11.1100  -33.8920 N   0  0  0  0  0  0  0  0  0  0  0  0
   -6.7310   12.3310  -34.8040 O   0  0  0  0  0  0  0  0  0  0  0  0
  -11.6330   13.4790  -36.7590 C   0  0  0  0  0  0  0  0  0  0  0  0
  -10.1200   14.7840  -38.1310 C   0  0  0  0  0  0  0  0  0  0  0  0
   -7.7300    9.9240  -33.4360 C   0  0  1  0  0  0  0  0  0  0  0  0
  -12.7160   14.2140  -37.2600 C   0  0  0  0  0  0  0  0  0  0  0  0
  -11.2050   15.5220  -38.6290 C   0  0  0  0  0  0  0  0  0  0  0  0
   -7.3190    9.7870  -31.9670 C   0  0  0  0  0  0  0  0  0  0  0  0
   -7.7770    8.6160  -34.2440 C   0  0  2  0  0  0  0  0  0  0  0  0
  -12.4920   15.2320  -38.1910 C   0  0  0  0  0  0  0  0  0  0  0  0
   -6.9490   11.1100  -31.3440 C   0  0  1  0  0  0  0  0  0  0  0  0
   -7.7810    8.8240  -35.7420 C   0  0  0  0  0  0  0  0  0  0  0  0
   -9.7150    8.3890  -33.9240 R   0  0  0  0  0  0  0  0  0  0  0  0
  -13.5350   15.9120  -38.6740 F   0  0  0  0  0  0  0  0  0  0  0  0
   -6.8820   10.9740  -29.8610 C   0  0  0  0  0  0  0  0  0  0  0  0
   -5.5910   11.5700  -31.7670 C   0  0  0  0  0  0  0  0  0  0  0  0
   -6.3340    8.9960  -36.1790 C   0  0  0  0  0  0  0  0  0  0  0  0
   -5.7440   11.6850  -29.4030 N   0  0  0  0  0  0  0  0  0  0  0  0
   -7.6250   10.3230  -29.1430 O   0  0  0  0  0  0  0  0  0  0  0  0
   -5.1300   12.3330  -30.5440 C   0  0  0  0  0  0  0  0  0  0  0  0
   -6.0510    9.6750  -37.2240 O   0  0  0  0  0  0  0  0  0  0  0  0
   -5.4140    8.5070  -35.4860 O   0  0  0  0  0  0  0  0  0  0  0  0
   -4.7230    9.9930  -37.5080 C   0  0  0  0  0  0  0  0  0  0  0  0
   -4.6910   10.8400  -38.7540 C   0  0  0  0  0  0  0  0  0  0  0  0
  2  1  1  1
  3  2  1  0
  2  4  1  0
  3  5  1  0
  3  6  2  0
  4  7  1  0
  4  8  1  0
  9  5  1  6
  9 10  1  0
  9 11  1  0
 10 12  1  0
 13 11  1  0
 11 14  2  0
 12 15  2  0
 12 16  1  0
 13 17  1  0
 15 18  1  0
 19 16  2  0
 17 20  1  1
 17 21  1  0
 18 22  2  0
 22 19  1  0
 23 20  1  6
 21 24  1  0
 21 25  1  1
 22 26  1  0
 23 27  1  0
 23 28  1  0
 24 29  1  0
 27 30  1  0
 27 31  2  0
 32 28  1  0
 29 33  1  0
 29 34  2  0
 30 32  1  0
 33 35  1  0
 35 36  1  0
V   25 *
A    2
 C57
A    3
 C01
A    4
 C78
A    5
 C02
A    6
 O03
A    7
 C81
A    8
 C82
A    9
 C04
A   10
 C05
A   11
 C47
A   12
 C06
A   13
 N12
A   14
 O48
A   15
 C07
A   16
 C11
A   17
 C13
A   18
 C08
A   19
 C10
A   20
 C14
A   21
 C19
A   22
 C09
A   23
 C15
A   24
 C20
A   25
 X  
A   26
 F1 
A   27
 C16
A   28
 C84
A   29
 C21
A   30
 N17
A   31
 O18
A   32
 C83
A   33
 O22
A   34
 O23
A   35
 C50
A   36
 C53
M  END
>  <XChem_code>  (644) 
AG7§14

>  <Occupancy>  (644) 
[1.0, 1.0, 1.0, 1.0, 1.0, 1.0, 1.0, 1.0, 1.0, 1.0, 1.0, 1.0, 1.0, 1.0, 1.0, 1.0, 1.0, 1.0, 1.0, 1.0, 1.0, 1.0, 1.0, 1.0, 1.0, 1.0, 1.0, 1.0, 1.0, 1.0, 1.0, 1.0, 1.0, 1.0, 1.0, 1.0, 1.0, 1.0, 1.0, 1.0, 1.0, 1.0, 1.0, 1.0]

>  <TempFactor>  (644) 
[18.65, 18.72, 21.92, 17.65, 24.86, 15.28, 18.72, 30.43, 27.21, 19.54, 23.37, 32.17, 36.23, 46.57, 43.77, 41.12, 38.94, 15.18, 15.28, 13.93, 16.17, 15.35, 15.96, 15.01, 19.51, 19.89, 20.9, 31.74, 18.14, 17.75, 18.83, 41.08, 57.06, 15.9, 16.12, 18.19, 20.0, 16.9, 18.42, 18.16, 18.76, 20.9, 15.53, 47.08]

>  <accession>  (644) 
3QZQ_A

>  <description>  (644) 
Chain A, 3C protein [Enterovirus A71]

>  <evalue>  (644) 
7.17784e-59

>  <pdb_code>  (644) 
3QZQ

>  <chain>  (644) 
A

>  <ligands>  (644) 
[{'chain_id': 'A', 'author_residue_number': 501, 'author_insertion_code': '', 'chem_comp_id': 'AG7', 'alternate_conformers': 0, 'entity_id': 2, 'struct_asym_id': 'E', 'residue_number': 1, 'chem_comp_name': '4-{2-(4-FLUORO-BENZYL)-6-METHYL-5-[(5-METHYL-ISOXAZOLE-3-CARBONYL)-AMINO]-4-OXO-HEPTANOYLAMINO}-5-(2-OXO-PYRROLIDIN-3-YL)-PENTANOIC ACID ETHYL ESTER', 'weight': 600.678, 'carbohydrate_polymer': False, 'branch_name': ''}, {'chain_id': 'B', 'author_residue_number': 501, 'author_insertion_code': '', 'chem_comp_id': 'AG7', 'alternate_conformers': 0, 'entity_id': 2, 'struct_asym_id': 'F', 'residue_number': 1, 'chem_comp_name': '4-{2-(4-FLUORO-BENZYL)-6-METHYL-5-[(5-METHYL-ISOXAZOLE-3-CARBONYL)-AMINO]-4-OXO-HEPTANOYLAMINO}-5-(2-OXO-PYRROLIDIN-3-YL)-PENTANOIC ACID ETHYL ESTER', 'weight': 600.678, 'carbohydrate_polymer': False, 'branch_name': ''}, {'chain_id': 'C', 'author_residue_number': 501, 'author_insertion_code': '', 'chem_comp_id': 'AG7', 'alternate_conformers': 0, 'entity_id': 2, 'struct_asym_id': 'G', 'residue_number': 1, 'chem_comp_name': '4-{2-(4-FLUORO-BENZYL)-6-METHYL-5-[(5-METHYL-ISOXAZOLE-3-CARBONYL)-AMINO]-4-OXO-HEPTANOYLAMINO}-5-(2-OXO-PYRROLIDIN-3-YL)-PENTANOIC ACID ETHYL ESTER', 'weight': 600.678, 'carbohydrate_polymer': False, 'branch_name': ''}, {'chain_id': 'D', 'author_residue_number': 501, 'author_insertion_code': '', 'chem_comp_id': 'AG7', 'alternate_conformers': 0, 'entity_id': 2, 'struct_asym_id': 'H', 'residue_number': 1, 'chem_comp_name': '4-{2-(4-FLUORO-BENZYL)-6-METHYL-5-[(5-METHYL-ISOXAZOLE-3-CARBONYL)-AMINO]-4-OXO-HEPTANOYLAMINO}-5-(2-OXO-PYRROLIDIN-3-YL)-PENTANOIC ACID ETHYL ESTER', 'weight': 600.678, 'carbohydrate_polymer': False, 'branch_name': ''}]

>  <ligand_codes>  (644) 
['AG7', 'AG7', 'AG7', 'AG7']

>  <cofactor_codes>  (644) 
[]

>  <has_cofactor>  (644) 
False

>  <covalent>  (644) 
True

>  <base_name>  (644) 
3QZQ

>  <lig_resn>  (644) 
AG7

>  <lig_resi>  (644) 
501

>  <lig_chain>  (644) 
A

>  <lig_segi>  (644) 
E

>  <lig_alt>  (644) 


>  <polymer_chain>  (644) 
A

>  <single_smiles>  (644) 
CCOC(=O)CC[C@H](C[C@@H]1CCNC1=O)NC(=O)[C@@H](CC(=O)[C@@H](NC(=O)c2cc(C)on2)C(C)C)Cc3ccc(F)cc3

$$$$
AG7P14S5
     RDKit          3D

 19 19  0  0  0  0  0  0  0  0999 V2000
   -8.5860   16.6350  -31.5420 N   0  0  0  0  0  0  0  0  0  0  0  0
   -8.1450   16.3840  -32.9140 C   0  0  2  0  0  0  0  0  0  0  0  0
   -8.5080   14.9300  -33.3220 C   0  0  0  0  0  0  0  0  0  0  0  0
   -6.6630   16.7160  -33.0960 C   0  0  0  0  0  0  0  0  0  0  0  0
   -9.0470   14.7330  -34.7430 C   0  0  0  0  0  0  0  0  0  0  0  0
   -8.8050   14.1230  -32.4480 O   0  0  0  0  0  0  0  0  0  0  0  0
   -6.3990   18.1350  -32.6670 C   0  0  0  0  0  0  0  0  0  0  0  0
   -5.8390   15.7750  -32.2840 C   0  0  0  0  0  0  0  0  0  0  0  0
   -8.8530   13.2790  -35.2310 C   0  0  2  0  0  0  0  0  0  0  0  0
   -7.9150   12.2780  -34.5490 C   0  0  0  0  0  0  0  0  0  0  0  0
   -9.1730   12.9400  -36.6820 C   0  0  0  0  0  0  0  0  0  0  0  0
   -6.7310   12.3310  -34.8040 O   0  0  0  0  0  0  0  0  0  0  0  0
  -10.3460   13.7680  -37.1900 C   0  0  0  0  0  0  0  0  0  0  0  0
  -11.6330   13.4790  -36.7590 C   0  0  0  0  0  0  0  0  0  0  0  0
  -10.1200   14.7840  -38.1310 C   0  0  0  0  0  0  0  0  0  0  0  0
  -12.7160   14.2140  -37.2600 C   0  0  0  0  0  0  0  0  0  0  0  0
  -11.2050   15.5220  -38.6290 C   0  0  0  0  0  0  0  0  0  0  0  0
  -12.4920   15.2320  -38.1910 C   0  0  0  0  0  0  0  0  0  0  0  0
  -13.5350   15.9120  -38.6740 F   0  0  0  0  0  0  0  0  0  0  0  0
  2  1  1  1
  3  2  1  0
  2  4  1  0
  3  5  1  0
  3  6  2  0
  4  7  1  0
  4  8  1  0
  9  5  1  6
  9 10  1  0
  9 11  1  0
 10 12  2  0
 11 13  1  0
 13 14  2  0
 13 15  1  0
 14 16  1  0
 17 15  2  0
 16 18  2  0
 18 17  1  0
 18 19  1  0
A    2
 C57
A    3
 C01
A    4
 C78
A    5
 C02
A    6
 O03
A    7
 C81
A    8
 C82
A    9
 C04
A   11
 C05
A   12
 O48
A   13
 C06
A   14
 C07
A   15
 C11
A   16
 C08
A   17
 C10
A   18
 C09
A   19
 F1 
M  END
>  <XChem_code>  (645) 
AG7§14

>  <Occupancy>  (645) 
[1.0, 1.0, 1.0, 1.0, 1.0, 1.0, 1.0, 1.0, 1.0, 1.0, 1.0, 1.0, 1.0, 1.0, 1.0, 1.0, 1.0, 1.0, 1.0, 1.0, 1.0, 1.0, 1.0, 1.0, 1.0, 1.0, 1.0, 1.0, 1.0, 1.0, 1.0, 1.0, 1.0, 1.0, 1.0, 1.0, 1.0, 1.0, 1.0, 1.0, 1.0, 1.0, 1.0, 1.0]

>  <TempFactor>  (645) 
[18.65, 18.72, 21.92, 17.65, 24.86, 15.28, 18.72, 30.43, 27.21, 19.54, 23.37, 32.17, 36.23, 46.57, 43.77, 41.12, 38.94, 15.18, 15.28, 13.93, 16.17, 15.35, 15.96, 15.01, 19.51, 19.89, 20.9, 31.74, 18.14, 17.75, 18.83, 41.08, 57.06, 15.9, 16.12, 18.19, 20.0, 16.9, 18.42, 18.16, 18.76, 20.9, 15.53, 47.08]

>  <accession>  (645) 
3QZQ_A

>  <description>  (645) 
Chain A, 3C protein [Enterovirus A71]

>  <evalue>  (645) 
7.17784e-59

>  <pdb_code>  (645) 
3QZQ

>  <chain>  (645) 
A

>  <ligands>  (645) 
[{'chain_id': 'A', 'author_residue_number': 501, 'author_insertion_code': '', 'chem_comp_id': 'AG7', 'alternate_conformers': 0, 'entity_id': 2, 'struct_asym_id': 'E', 'residue_number': 1, 'chem_comp_name': '4-{2-(4-FLUORO-BENZYL)-6-METHYL-5-[(5-METHYL-ISOXAZOLE-3-CARBONYL)-AMINO]-4-OXO-HEPTANOYLAMINO}-5-(2-OXO-PYRROLIDIN-3-YL)-PENTANOIC ACID ETHYL ESTER', 'weight': 600.678, 'carbohydrate_polymer': False, 'branch_name': ''}, {'chain_id': 'B', 'author_residue_number': 501, 'author_insertion_code': '', 'chem_comp_id': 'AG7', 'alternate_conformers': 0, 'entity_id': 2, 'struct_asym_id': 'F', 'residue_number': 1, 'chem_comp_name': '4-{2-(4-FLUORO-BENZYL)-6-METHYL-5-[(5-METHYL-ISOXAZOLE-3-CARBONYL)-AMINO]-4-OXO-HEPTANOYLAMINO}-5-(2-OXO-PYRROLIDIN-3-YL)-PENTANOIC ACID ETHYL ESTER', 'weight': 600.678, 'carbohydrate_polymer': False, 'branch_name': ''}, {'chain_id': 'C', 'author_residue_number': 501, 'author_insertion_code': '', 'chem_comp_id': 'AG7', 'alternate_conformers': 0, 'entity_id': 2, 'struct_asym_id': 'G', 'residue_number': 1, 'chem_comp_name': '4-{2-(4-FLUORO-BENZYL)-6-METHYL-5-[(5-METHYL-ISOXAZOLE-3-CARBONYL)-AMINO]-4-OXO-HEPTANOYLAMINO}-5-(2-OXO-PYRROLIDIN-3-YL)-PENTANOIC ACID ETHYL ESTER', 'weight': 600.678, 'carbohydrate_polymer': False, 'branch_name': ''}, {'chain_id': 'D', 'author_residue_number': 501, 'author_insertion_code': '', 'chem_comp_id': 'AG7', 'alternate_conformers': 0, 'entity_id': 2, 'struct_asym_id': 'H', 'residue_number': 1, 'chem_comp_name': '4-{2-(4-FLUORO-BENZYL)-6-METHYL-5-[(5-METHYL-ISOXAZOLE-3-CARBONYL)-AMINO]-4-OXO-HEPTANOYLAMINO}-5-(2-OXO-PYRROLIDIN-3-YL)-PENTANOIC ACID ETHYL ESTER', 'weight': 600.678, 'carbohydrate_polymer': False, 'branch_name': ''}]

>  <ligand_codes>  (645) 
['AG7', 'AG7', 'AG7', 'AG7']

>  <cofactor_codes>  (645) 
[]

>  <has_cofactor>  (645) 
False

>  <covalent>  (645) 
True

>  <base_name>  (645) 
3QZQ

>  <lig_resn>  (645) 
AG7

>  <lig_resi>  (645) 
501

>  <lig_chain>  (645) 
A

>  <lig_segi>  (645) 
E

>  <lig_alt>  (645) 


>  <polymer_chain>  (645) 
A

>  <single_smiles>  (645) 
CCOC(=O)CC[C@H](C[C@@H]1CCNC1=O)NC(=O)[C@@H](CC(=O)[C@@H](NC(=O)c2cc(C)on2)C(C)C)Cc3ccc(F)cc3

$$$$
AG7P14S6
     RDKit          3D

 16 16  0  0  0  0  0  0  0  0999 V2000
   -7.7300    9.9240  -33.4360 C   0  0  0  0  0  0  0  0  0  0  0  0
   -7.3190    9.7870  -31.9670 C   0  0  0  0  0  0  0  0  0  0  0  0
   -7.7770    8.6160  -34.2440 C   0  0  2  0  0  0  0  0  0  0  0  0
   -6.9490   11.1100  -31.3440 C   0  0  1  0  0  0  0  0  0  0  0  0
   -7.7810    8.8240  -35.7420 C   0  0  0  0  0  0  0  0  0  0  0  0
   -9.7150    8.3890  -33.9240 R   0  0  0  0  0  0  0  0  0  0  0  0
   -6.8820   10.9740  -29.8610 C   0  0  0  0  0  0  0  0  0  0  0  0
   -5.5910   11.5700  -31.7670 C   0  0  0  0  0  0  0  0  0  0  0  0
   -6.3340    8.9960  -36.1790 C   0  0  0  0  0  0  0  0  0  0  0  0
   -5.7440   11.6850  -29.4030 N   0  0  0  0  0  0  0  0  0  0  0  0
   -7.6250   10.3230  -29.1430 O   0  0  0  0  0  0  0  0  0  0  0  0
   -5.1300   12.3330  -30.5440 C   0  0  0  0  0  0  0  0  0  0  0  0
   -6.0510    9.6750  -37.2240 O   0  0  0  0  0  0  0  0  0  0  0  0
   -5.4140    8.5070  -35.4860 O   0  0  0  0  0  0  0  0  0  0  0  0
   -4.7230    9.9930  -37.5080 C   0  0  0  0  0  0  0  0  0  0  0  0
   -4.6910   10.8400  -38.7540 C   0  0  0  0  0  0  0  0  0  0  0  0
  1  2  1  6
  1  3  1  0
  4  2  1  6
  3  5  1  0
  3  6  1  1
  4  7  1  0
  4  8  1  0
  5  9  1  0
  7 10  1  0
  7 11  2  0
 12  8  1  0
  9 13  1  0
  9 14  2  0
 10 12  1  0
 13 15  1  0
 15 16  1  0
V    6 *
A    2
 C14
A    3
 C19
A    4
 C15
A    5
 C20
A    6
 X  
A    7
 C16
A    8
 C84
A    9
 C21
A   10
 N17
A   11
 O18
A   12
 C83
A   13
 O22
A   14
 O23
A   15
 C50
A   16
 C53
M  END
>  <XChem_code>  (646) 
AG7§14

>  <Occupancy>  (646) 
[1.0, 1.0, 1.0, 1.0, 1.0, 1.0, 1.0, 1.0, 1.0, 1.0, 1.0, 1.0, 1.0, 1.0, 1.0, 1.0, 1.0, 1.0, 1.0, 1.0, 1.0, 1.0, 1.0, 1.0, 1.0, 1.0, 1.0, 1.0, 1.0, 1.0, 1.0, 1.0, 1.0, 1.0, 1.0, 1.0, 1.0, 1.0, 1.0, 1.0, 1.0, 1.0, 1.0, 1.0]

>  <TempFactor>  (646) 
[18.65, 18.72, 21.92, 17.65, 24.86, 15.28, 18.72, 30.43, 27.21, 19.54, 23.37, 32.17, 36.23, 46.57, 43.77, 41.12, 38.94, 15.18, 15.28, 13.93, 16.17, 15.35, 15.96, 15.01, 19.51, 19.89, 20.9, 31.74, 18.14, 17.75, 18.83, 41.08, 57.06, 15.9, 16.12, 18.19, 20.0, 16.9, 18.42, 18.16, 18.76, 20.9, 15.53, 47.08]

>  <accession>  (646) 
3QZQ_A

>  <description>  (646) 
Chain A, 3C protein [Enterovirus A71]

>  <evalue>  (646) 
7.17784e-59

>  <pdb_code>  (646) 
3QZQ

>  <chain>  (646) 
A

>  <ligands>  (646) 
[{'chain_id': 'A', 'author_residue_number': 501, 'author_insertion_code': '', 'chem_comp_id': 'AG7', 'alternate_conformers': 0, 'entity_id': 2, 'struct_asym_id': 'E', 'residue_number': 1, 'chem_comp_name': '4-{2-(4-FLUORO-BENZYL)-6-METHYL-5-[(5-METHYL-ISOXAZOLE-3-CARBONYL)-AMINO]-4-OXO-HEPTANOYLAMINO}-5-(2-OXO-PYRROLIDIN-3-YL)-PENTANOIC ACID ETHYL ESTER', 'weight': 600.678, 'carbohydrate_polymer': False, 'branch_name': ''}, {'chain_id': 'B', 'author_residue_number': 501, 'author_insertion_code': '', 'chem_comp_id': 'AG7', 'alternate_conformers': 0, 'entity_id': 2, 'struct_asym_id': 'F', 'residue_number': 1, 'chem_comp_name': '4-{2-(4-FLUORO-BENZYL)-6-METHYL-5-[(5-METHYL-ISOXAZOLE-3-CARBONYL)-AMINO]-4-OXO-HEPTANOYLAMINO}-5-(2-OXO-PYRROLIDIN-3-YL)-PENTANOIC ACID ETHYL ESTER', 'weight': 600.678, 'carbohydrate_polymer': False, 'branch_name': ''}, {'chain_id': 'C', 'author_residue_number': 501, 'author_insertion_code': '', 'chem_comp_id': 'AG7', 'alternate_conformers': 0, 'entity_id': 2, 'struct_asym_id': 'G', 'residue_number': 1, 'chem_comp_name': '4-{2-(4-FLUORO-BENZYL)-6-METHYL-5-[(5-METHYL-ISOXAZOLE-3-CARBONYL)-AMINO]-4-OXO-HEPTANOYLAMINO}-5-(2-OXO-PYRROLIDIN-3-YL)-PENTANOIC ACID ETHYL ESTER', 'weight': 600.678, 'carbohydrate_polymer': False, 'branch_name': ''}, {'chain_id': 'D', 'author_residue_number': 501, 'author_insertion_code': '', 'chem_comp_id': 'AG7', 'alternate_conformers': 0, 'entity_id': 2, 'struct_asym_id': 'H', 'residue_number': 1, 'chem_comp_name': '4-{2-(4-FLUORO-BENZYL)-6-METHYL-5-[(5-METHYL-ISOXAZOLE-3-CARBONYL)-AMINO]-4-OXO-HEPTANOYLAMINO}-5-(2-OXO-PYRROLIDIN-3-YL)-PENTANOIC ACID ETHYL ESTER', 'weight': 600.678, 'carbohydrate_polymer': False, 'branch_name': ''}]

>  <ligand_codes>  (646) 
['AG7', 'AG7', 'AG7', 'AG7']

>  <cofactor_codes>  (646) 
[]

>  <has_cofactor>  (646) 
False

>  <covalent>  (646) 
True

>  <base_name>  (646) 
3QZQ

>  <lig_resn>  (646) 
AG7

>  <lig_resi>  (646) 
501

>  <lig_chain>  (646) 
A

>  <lig_segi>  (646) 
E

>  <lig_alt>  (646) 


>  <polymer_chain>  (646) 
A

>  <single_smiles>  (646) 
CCOC(=O)CC[C@H](C[C@@H]1CCNC1=O)NC(=O)[C@@H](CC(=O)[C@@H](NC(=O)c2cc(C)on2)C(C)C)Cc3ccc(F)cc3

$$$$
AG7P14S7
     RDKit          3D

 28 29  0  0  0  0  0  0  0  0999 V2000
   -8.5060   11.1100  -33.8920 N   0  0  0  0  0  0  0  0  0  0  0  0
   -7.9150   12.2780  -34.5490 C   0  0  0  0  0  0  0  0  0  0  0  0
   -8.8530   13.2790  -35.2310 C   0  0  1  0  0  0  0  0  0  0  0  0
   -6.7310   12.3310  -34.8040 O   0  0  0  0  0  0  0  0  0  0  0  0
   -9.0470   14.7330  -34.7430 C   0  0  0  0  0  0  0  0  0  0  0  0
   -9.1730   12.9400  -36.6820 C   0  0  0  0  0  0  0  0  0  0  0  0
   -8.5080   14.9300  -33.3220 C   0  0  0  0  0  0  0  0  0  0  0  0
  -10.3460   13.7680  -37.1900 C   0  0  0  0  0  0  0  0  0  0  0  0
   -8.8050   14.1230  -32.4480 O   0  0  0  0  0  0  0  0  0  0  0  0
   -8.1450   16.3840  -32.9140 C   0  0  1  0  0  0  0  0  0  0  0  0
  -11.6330   13.4790  -36.7590 C   0  0  0  0  0  0  0  0  0  0  0  0
  -10.1200   14.7840  -38.1310 C   0  0  0  0  0  0  0  0  0  0  0  0
   -8.5860   16.6350  -31.5420 N   0  0  0  0  0  0  0  0  0  0  0  0
   -6.6630   16.7160  -33.0960 C   0  0  0  0  0  0  0  0  0  0  0  0
  -12.7160   14.2140  -37.2600 C   0  0  0  0  0  0  0  0  0  0  0  0
  -11.2050   15.5220  -38.6290 C   0  0  0  0  0  0  0  0  0  0  0  0
   -9.5070   17.7220  -31.2510 C   0  0  0  0  0  0  0  0  0  0  0  0
   -6.3990   18.1350  -32.6670 C   0  0  0  0  0  0  0  0  0  0  0  0
   -5.8390   15.7750  -32.2840 C   0  0  0  0  0  0  0  0  0  0  0  0
  -12.4920   15.2320  -38.1910 C   0  0  0  0  0  0  0  0  0  0  0  0
  -10.0180   17.8700  -29.8390 C   0  0  0  0  0  0  0  0  0  0  0  0
   -9.9070   18.4670  -32.1230 O   0  0  0  0  0  0  0  0  0  0  0  0
  -13.5350   15.9120  -38.6740 F   0  0  0  0  0  0  0  0  0  0  0  0
  -10.9400   18.9000  -29.3490 C   0  0  0  0  0  0  0  0  0  0  0  0
   -9.7280   17.0810  -28.8080 N   0  0  0  0  0  0  0  0  0  0  0  0
  -11.0910   18.5810  -27.9530 C   0  0  0  0  0  0  0  0  0  0  0  0
  -10.3500   17.5030  -27.7220 O   0  0  0  0  0  0  0  0  0  0  0  0
  -11.9400   19.3230  -26.9590 C   0  0  0  0  0  0  0  0  0  0  0  0
  1  2  1  0
  3  2  1  0
  2  4  2  0
  3  5  1  6
  3  6  1  0
  7  5  1  0
  6  8  1  0
  7  9  2  0
  7 10  1  0
  8 11  2  0
  8 12  1  0
 10 13  1  1
 10 14  1  0
 11 15  1  0
 16 12  2  0
 13 17  1  0
 14 18  1  0
 14 19  1  0
 15 20  2  0
 20 16  1  0
 21 17  1  0
 17 22  2  0
 20 23  1  0
 21 24  1  0
 21 25  2  0
 24 26  2  0
 27 25  1  0
 26 28  1  0
 26 27  1  0
A    2
 C47
A    3
 C04
A    4
 O48
A    5
 C02
A    6
 C05
A    7
 C01
A    8
 C06
A    9
 O03
A   10
 C57
A   11
 C07
A   12
 C11
A   13
 N58
A   14
 C78
A   15
 C08
A   16
 C10
A   17
 C59
A   18
 C81
A   19
 C82
A   20
 C09
A   21
 C1 
A   22
 O60
A   23
 F1 
A   24
 C2 
A   25
 N5 
A   26
 C3 
A   27
 O4 
A   28
 C4 
M  END
>  <XChem_code>  (647) 
AG7§14

>  <Occupancy>  (647) 
[1.0, 1.0, 1.0, 1.0, 1.0, 1.0, 1.0, 1.0, 1.0, 1.0, 1.0, 1.0, 1.0, 1.0, 1.0, 1.0, 1.0, 1.0, 1.0, 1.0, 1.0, 1.0, 1.0, 1.0, 1.0, 1.0, 1.0, 1.0, 1.0, 1.0, 1.0, 1.0, 1.0, 1.0, 1.0, 1.0, 1.0, 1.0, 1.0, 1.0, 1.0, 1.0, 1.0, 1.0]

>  <TempFactor>  (647) 
[18.65, 18.72, 21.92, 17.65, 24.86, 15.28, 18.72, 30.43, 27.21, 19.54, 23.37, 32.17, 36.23, 46.57, 43.77, 41.12, 38.94, 15.18, 15.28, 13.93, 16.17, 15.35, 15.96, 15.01, 19.51, 19.89, 20.9, 31.74, 18.14, 17.75, 18.83, 41.08, 57.06, 15.9, 16.12, 18.19, 20.0, 16.9, 18.42, 18.16, 18.76, 20.9, 15.53, 47.08]

>  <accession>  (647) 
3QZQ_A

>  <description>  (647) 
Chain A, 3C protein [Enterovirus A71]

>  <evalue>  (647) 
7.17784e-59

>  <pdb_code>  (647) 
3QZQ

>  <chain>  (647) 
A

>  <ligands>  (647) 
[{'chain_id': 'A', 'author_residue_number': 501, 'author_insertion_code': '', 'chem_comp_id': 'AG7', 'alternate_conformers': 0, 'entity_id': 2, 'struct_asym_id': 'E', 'residue_number': 1, 'chem_comp_name': '4-{2-(4-FLUORO-BENZYL)-6-METHYL-5-[(5-METHYL-ISOXAZOLE-3-CARBONYL)-AMINO]-4-OXO-HEPTANOYLAMINO}-5-(2-OXO-PYRROLIDIN-3-YL)-PENTANOIC ACID ETHYL ESTER', 'weight': 600.678, 'carbohydrate_polymer': False, 'branch_name': ''}, {'chain_id': 'B', 'author_residue_number': 501, 'author_insertion_code': '', 'chem_comp_id': 'AG7', 'alternate_conformers': 0, 'entity_id': 2, 'struct_asym_id': 'F', 'residue_number': 1, 'chem_comp_name': '4-{2-(4-FLUORO-BENZYL)-6-METHYL-5-[(5-METHYL-ISOXAZOLE-3-CARBONYL)-AMINO]-4-OXO-HEPTANOYLAMINO}-5-(2-OXO-PYRROLIDIN-3-YL)-PENTANOIC ACID ETHYL ESTER', 'weight': 600.678, 'carbohydrate_polymer': False, 'branch_name': ''}, {'chain_id': 'C', 'author_residue_number': 501, 'author_insertion_code': '', 'chem_comp_id': 'AG7', 'alternate_conformers': 0, 'entity_id': 2, 'struct_asym_id': 'G', 'residue_number': 1, 'chem_comp_name': '4-{2-(4-FLUORO-BENZYL)-6-METHYL-5-[(5-METHYL-ISOXAZOLE-3-CARBONYL)-AMINO]-4-OXO-HEPTANOYLAMINO}-5-(2-OXO-PYRROLIDIN-3-YL)-PENTANOIC ACID ETHYL ESTER', 'weight': 600.678, 'carbohydrate_polymer': False, 'branch_name': ''}, {'chain_id': 'D', 'author_residue_number': 501, 'author_insertion_code': '', 'chem_comp_id': 'AG7', 'alternate_conformers': 0, 'entity_id': 2, 'struct_asym_id': 'H', 'residue_number': 1, 'chem_comp_name': '4-{2-(4-FLUORO-BENZYL)-6-METHYL-5-[(5-METHYL-ISOXAZOLE-3-CARBONYL)-AMINO]-4-OXO-HEPTANOYLAMINO}-5-(2-OXO-PYRROLIDIN-3-YL)-PENTANOIC ACID ETHYL ESTER', 'weight': 600.678, 'carbohydrate_polymer': False, 'branch_name': ''}]

>  <ligand_codes>  (647) 
['AG7', 'AG7', 'AG7', 'AG7']

>  <cofactor_codes>  (647) 
[]

>  <has_cofactor>  (647) 
False

>  <covalent>  (647) 
True

>  <base_name>  (647) 
3QZQ

>  <lig_resn>  (647) 
AG7

>  <lig_resi>  (647) 
501

>  <lig_chain>  (647) 
A

>  <lig_segi>  (647) 
E

>  <lig_alt>  (647) 


>  <polymer_chain>  (647) 
A

>  <single_smiles>  (647) 
CCOC(=O)CC[C@H](C[C@@H]1CCNC1=O)NC(=O)[C@@H](CC(=O)[C@@H](NC(=O)c2cc(C)on2)C(C)C)Cc3ccc(F)cc3

$$$$
AG7P14S8
     RDKit          3D

  9  9  0  0  0  0  0  0  0  0999 V2000
   -8.5860   16.6350  -31.5420 N   0  0  0  0  0  0  0  0  0  0  0  0
   -9.5070   17.7220  -31.2510 C   0  0  0  0  0  0  0  0  0  0  0  0
  -10.0180   17.8700  -29.8390 C   0  0  0  0  0  0  0  0  0  0  0  0
   -9.9070   18.4670  -32.1230 O   0  0  0  0  0  0  0  0  0  0  0  0
  -10.9400   18.9000  -29.3490 C   0  0  0  0  0  0  0  0  0  0  0  0
   -9.7280   17.0810  -28.8080 N   0  0  0  0  0  0  0  0  0  0  0  0
  -11.0910   18.5810  -27.9530 C   0  0  0  0  0  0  0  0  0  0  0  0
  -10.3500   17.5030  -27.7220 O   0  0  0  0  0  0  0  0  0  0  0  0
  -11.9400   19.3230  -26.9590 C   0  0  0  0  0  0  0  0  0  0  0  0
  1  2  1  0
  3  2  1  0
  2  4  2  0
  3  5  1  0
  3  6  2  0
  5  7  2  0
  8  6  1  0
  7  9  1  0
  7  8  1  0
A    2
 C59
A    3
 C1 
A    4
 O60
A    5
 C2 
A    6
 N5 
A    7
 C3 
A    8
 O4 
A    9
 C4 
M  END
>  <XChem_code>  (648) 
AG7§14

>  <Occupancy>  (648) 
[1.0, 1.0, 1.0, 1.0, 1.0, 1.0, 1.0, 1.0, 1.0, 1.0, 1.0, 1.0, 1.0, 1.0, 1.0, 1.0, 1.0, 1.0, 1.0, 1.0, 1.0, 1.0, 1.0, 1.0, 1.0, 1.0, 1.0, 1.0, 1.0, 1.0, 1.0, 1.0, 1.0, 1.0, 1.0, 1.0, 1.0, 1.0, 1.0, 1.0, 1.0, 1.0, 1.0, 1.0]

>  <TempFactor>  (648) 
[18.65, 18.72, 21.92, 17.65, 24.86, 15.28, 18.72, 30.43, 27.21, 19.54, 23.37, 32.17, 36.23, 46.57, 43.77, 41.12, 38.94, 15.18, 15.28, 13.93, 16.17, 15.35, 15.96, 15.01, 19.51, 19.89, 20.9, 31.74, 18.14, 17.75, 18.83, 41.08, 57.06, 15.9, 16.12, 18.19, 20.0, 16.9, 18.42, 18.16, 18.76, 20.9, 15.53, 47.08]

>  <accession>  (648) 
3QZQ_A

>  <description>  (648) 
Chain A, 3C protein [Enterovirus A71]

>  <evalue>  (648) 
7.17784e-59

>  <pdb_code>  (648) 
3QZQ

>  <chain>  (648) 
A

>  <ligands>  (648) 
[{'chain_id': 'A', 'author_residue_number': 501, 'author_insertion_code': '', 'chem_comp_id': 'AG7', 'alternate_conformers': 0, 'entity_id': 2, 'struct_asym_id': 'E', 'residue_number': 1, 'chem_comp_name': '4-{2-(4-FLUORO-BENZYL)-6-METHYL-5-[(5-METHYL-ISOXAZOLE-3-CARBONYL)-AMINO]-4-OXO-HEPTANOYLAMINO}-5-(2-OXO-PYRROLIDIN-3-YL)-PENTANOIC ACID ETHYL ESTER', 'weight': 600.678, 'carbohydrate_polymer': False, 'branch_name': ''}, {'chain_id': 'B', 'author_residue_number': 501, 'author_insertion_code': '', 'chem_comp_id': 'AG7', 'alternate_conformers': 0, 'entity_id': 2, 'struct_asym_id': 'F', 'residue_number': 1, 'chem_comp_name': '4-{2-(4-FLUORO-BENZYL)-6-METHYL-5-[(5-METHYL-ISOXAZOLE-3-CARBONYL)-AMINO]-4-OXO-HEPTANOYLAMINO}-5-(2-OXO-PYRROLIDIN-3-YL)-PENTANOIC ACID ETHYL ESTER', 'weight': 600.678, 'carbohydrate_polymer': False, 'branch_name': ''}, {'chain_id': 'C', 'author_residue_number': 501, 'author_insertion_code': '', 'chem_comp_id': 'AG7', 'alternate_conformers': 0, 'entity_id': 2, 'struct_asym_id': 'G', 'residue_number': 1, 'chem_comp_name': '4-{2-(4-FLUORO-BENZYL)-6-METHYL-5-[(5-METHYL-ISOXAZOLE-3-CARBONYL)-AMINO]-4-OXO-HEPTANOYLAMINO}-5-(2-OXO-PYRROLIDIN-3-YL)-PENTANOIC ACID ETHYL ESTER', 'weight': 600.678, 'carbohydrate_polymer': False, 'branch_name': ''}, {'chain_id': 'D', 'author_residue_number': 501, 'author_insertion_code': '', 'chem_comp_id': 'AG7', 'alternate_conformers': 0, 'entity_id': 2, 'struct_asym_id': 'H', 'residue_number': 1, 'chem_comp_name': '4-{2-(4-FLUORO-BENZYL)-6-METHYL-5-[(5-METHYL-ISOXAZOLE-3-CARBONYL)-AMINO]-4-OXO-HEPTANOYLAMINO}-5-(2-OXO-PYRROLIDIN-3-YL)-PENTANOIC ACID ETHYL ESTER', 'weight': 600.678, 'carbohydrate_polymer': False, 'branch_name': ''}]

>  <ligand_codes>  (648) 
['AG7', 'AG7', 'AG7', 'AG7']

>  <cofactor_codes>  (648) 
[]

>  <has_cofactor>  (648) 
False

>  <covalent>  (648) 
True

>  <base_name>  (648) 
3QZQ

>  <lig_resn>  (648) 
AG7

>  <lig_resi>  (648) 
501

>  <lig_chain>  (648) 
A

>  <lig_segi>  (648) 
E

>  <lig_alt>  (648) 


>  <polymer_chain>  (648) 
A

>  <single_smiles>  (648) 
CCOC(=O)CC[C@H](C[C@@H]1CCNC1=O)NC(=O)[C@@H](CC(=O)[C@@H](NC(=O)c2cc(C)on2)C(C)C)Cc3ccc(F)cc3

$$$$
AG7P14S9
     RDKit          3D

 35 36  0  0  0  0  0  0  0  0999 V2000
   -8.1450   16.3840  -32.9140 C   0  0  0  0  0  0  0  0  0  0  0  0
   -8.5080   14.9300  -33.3220 C   0  0  0  0  0  0  0  0  0  0  0  0
   -6.6630   16.7160  -33.0960 C   0  0  0  0  0  0  0  0  0  0  0  0
   -9.0470   14.7330  -34.7430 C   0  0  0  0  0  0  0  0  0  0  0  0
   -8.8050   14.1230  -32.4480 O   0  0  0  0  0  0  0  0  0  0  0  0
   -6.3990   18.1350  -32.6670 C   0  0  0  0  0  0  0  0  0  0  0  0
   -5.8390   15.7750  -32.2840 C   0  0  0  0  0  0  0  0  0  0  0  0
   -8.8530   13.2790  -35.2310 C   0  0  1  0  0  0  0  0  0  0  0  0
   -9.1730   12.9400  -36.6820 C   0  0  0  0  0  0  0  0  0  0  0  0
   -7.9150   12.2780  -34.5490 C   0  0  0  0  0  0  0  0  0  0  0  0
  -10.3460   13.7680  -37.1900 C   0  0  0  0  0  0  0  0  0  0  0  0
   -8.5060   11.1100  -33.8920 N   0  0  0  0  0  0  0  0  0  0  0  0
   -6.7310   12.3310  -34.8040 O   0  0  0  0  0  0  0  0  0  0  0  0
  -11.6330   13.4790  -36.7590 C   0  0  0  0  0  0  0  0  0  0  0  0
  -10.1200   14.7840  -38.1310 C   0  0  0  0  0  0  0  0  0  0  0  0
   -7.7300    9.9240  -33.4360 C   0  0  1  0  0  0  0  0  0  0  0  0
  -12.7160   14.2140  -37.2600 C   0  0  0  0  0  0  0  0  0  0  0  0
  -11.2050   15.5220  -38.6290 C   0  0  0  0  0  0  0  0  0  0  0  0
   -7.3190    9.7870  -31.9670 C   0  0  0  0  0  0  0  0  0  0  0  0
   -7.7770    8.6160  -34.2440 C   0  0  2  0  0  0  0  0  0  0  0  0
  -12.4920   15.2320  -38.1910 C   0  0  0  0  0  0  0  0  0  0  0  0
   -6.9490   11.1100  -31.3440 C   0  0  1  0  0  0  0  0  0  0  0  0
   -7.7810    8.8240  -35.7420 C   0  0  0  0  0  0  0  0  0  0  0  0
   -9.7150    8.3890  -33.9240 R   0  0  0  0  0  0  0  0  0  0  0  0
  -13.5350   15.9120  -38.6740 F   0  0  0  0  0  0  0  0  0  0  0  0
   -6.8820   10.9740  -29.8610 C   0  0  0  0  0  0  0  0  0  0  0  0
   -5.5910   11.5700  -31.7670 C   0  0  0  0  0  0  0  0  0  0  0  0
   -6.3340    8.9960  -36.1790 C   0  0  0  0  0  0  0  0  0  0  0  0
   -5.7440   11.6850  -29.4030 N   0  0  0  0  0  0  0  0  0  0  0  0
   -7.6250   10.3230  -29.1430 O   0  0  0  0  0  0  0  0  0  0  0  0
   -5.1300   12.3330  -30.5440 C   0  0  0  0  0  0  0  0  0  0  0  0
   -6.0510    9.6750  -37.2240 O   0  0  0  0  0  0  0  0  0  0  0  0
   -5.4140    8.5070  -35.4860 O   0  0  0  0  0  0  0  0  0  0  0  0
   -4.7230    9.9930  -37.5080 C   0  0  0  0  0  0  0  0  0  0  0  0
   -4.6910   10.8400  -38.7540 C   0  0  0  0  0  0  0  0  0  0  0  0
  2  1  1  0
  1  3  1  6
  2  4  1  0
  2  5  2  0
  3  6  1  0
  3  7  1  0
  8  4  1  6
  8  9  1  0
  8 10  1  0
  9 11  1  0
 12 10  1  0
 10 13  2  0
 11 14  2  0
 11 15  1  0
 12 16  1  0
 14 17  1  0
 18 15  2  0
 16 19  1  1
 16 20  1  0
 17 21  2  0
 21 18  1  0
 22 19  1  6
 20 23  1  0
 20 24  1  1
 21 25  1  0
 22 26  1  0
 22 27  1  0
 23 28  1  0
 26 29  1  0
 26 30  2  0
 31 27  1  0
 28 32  1  0
 28 33  2  0
 29 31  1  0
 32 34  1  0
 34 35  1  0
V   24 *
A    2
 C01
A    3
 C78
A    4
 C02
A    5
 O03
A    6
 C81
A    7
 C82
A    8
 C04
A    9
 C05
A   10
 C47
A   11
 C06
A   12
 N12
A   13
 O48
A   14
 C07
A   15
 C11
A   16
 C13
A   17
 C08
A   18
 C10
A   19
 C14
A   20
 C19
A   21
 C09
A   22
 C15
A   23
 C20
A   24
 X  
A   25
 F1 
A   26
 C16
A   27
 C84
A   28
 C21
A   29
 N17
A   30
 O18
A   31
 C83
A   32
 O22
A   33
 O23
A   34
 C50
A   35
 C53
M  END
>  <XChem_code>  (649) 
AG7§14

>  <Occupancy>  (649) 
[1.0, 1.0, 1.0, 1.0, 1.0, 1.0, 1.0, 1.0, 1.0, 1.0, 1.0, 1.0, 1.0, 1.0, 1.0, 1.0, 1.0, 1.0, 1.0, 1.0, 1.0, 1.0, 1.0, 1.0, 1.0, 1.0, 1.0, 1.0, 1.0, 1.0, 1.0, 1.0, 1.0, 1.0, 1.0, 1.0, 1.0, 1.0, 1.0, 1.0, 1.0, 1.0, 1.0, 1.0]

>  <TempFactor>  (649) 
[18.65, 18.72, 21.92, 17.65, 24.86, 15.28, 18.72, 30.43, 27.21, 19.54, 23.37, 32.17, 36.23, 46.57, 43.77, 41.12, 38.94, 15.18, 15.28, 13.93, 16.17, 15.35, 15.96, 15.01, 19.51, 19.89, 20.9, 31.74, 18.14, 17.75, 18.83, 41.08, 57.06, 15.9, 16.12, 18.19, 20.0, 16.9, 18.42, 18.16, 18.76, 20.9, 15.53, 47.08]

>  <accession>  (649) 
3QZQ_A

>  <description>  (649) 
Chain A, 3C protein [Enterovirus A71]

>  <evalue>  (649) 
7.17784e-59

>  <pdb_code>  (649) 
3QZQ

>  <chain>  (649) 
A

>  <ligands>  (649) 
[{'chain_id': 'A', 'author_residue_number': 501, 'author_insertion_code': '', 'chem_comp_id': 'AG7', 'alternate_conformers': 0, 'entity_id': 2, 'struct_asym_id': 'E', 'residue_number': 1, 'chem_comp_name': '4-{2-(4-FLUORO-BENZYL)-6-METHYL-5-[(5-METHYL-ISOXAZOLE-3-CARBONYL)-AMINO]-4-OXO-HEPTANOYLAMINO}-5-(2-OXO-PYRROLIDIN-3-YL)-PENTANOIC ACID ETHYL ESTER', 'weight': 600.678, 'carbohydrate_polymer': False, 'branch_name': ''}, {'chain_id': 'B', 'author_residue_number': 501, 'author_insertion_code': '', 'chem_comp_id': 'AG7', 'alternate_conformers': 0, 'entity_id': 2, 'struct_asym_id': 'F', 'residue_number': 1, 'chem_comp_name': '4-{2-(4-FLUORO-BENZYL)-6-METHYL-5-[(5-METHYL-ISOXAZOLE-3-CARBONYL)-AMINO]-4-OXO-HEPTANOYLAMINO}-5-(2-OXO-PYRROLIDIN-3-YL)-PENTANOIC ACID ETHYL ESTER', 'weight': 600.678, 'carbohydrate_polymer': False, 'branch_name': ''}, {'chain_id': 'C', 'author_residue_number': 501, 'author_insertion_code': '', 'chem_comp_id': 'AG7', 'alternate_conformers': 0, 'entity_id': 2, 'struct_asym_id': 'G', 'residue_number': 1, 'chem_comp_name': '4-{2-(4-FLUORO-BENZYL)-6-METHYL-5-[(5-METHYL-ISOXAZOLE-3-CARBONYL)-AMINO]-4-OXO-HEPTANOYLAMINO}-5-(2-OXO-PYRROLIDIN-3-YL)-PENTANOIC ACID ETHYL ESTER', 'weight': 600.678, 'carbohydrate_polymer': False, 'branch_name': ''}, {'chain_id': 'D', 'author_residue_number': 501, 'author_insertion_code': '', 'chem_comp_id': 'AG7', 'alternate_conformers': 0, 'entity_id': 2, 'struct_asym_id': 'H', 'residue_number': 1, 'chem_comp_name': '4-{2-(4-FLUORO-BENZYL)-6-METHYL-5-[(5-METHYL-ISOXAZOLE-3-CARBONYL)-AMINO]-4-OXO-HEPTANOYLAMINO}-5-(2-OXO-PYRROLIDIN-3-YL)-PENTANOIC ACID ETHYL ESTER', 'weight': 600.678, 'carbohydrate_polymer': False, 'branch_name': ''}]

>  <ligand_codes>  (649) 
['AG7', 'AG7', 'AG7', 'AG7']

>  <cofactor_codes>  (649) 
[]

>  <has_cofactor>  (649) 
False

>  <covalent>  (649) 
True

>  <base_name>  (649) 
3QZQ

>  <lig_resn>  (649) 
AG7

>  <lig_resi>  (649) 
501

>  <lig_chain>  (649) 
A

>  <lig_segi>  (649) 
E

>  <lig_alt>  (649) 


>  <polymer_chain>  (649) 
A

>  <single_smiles>  (649) 
CCOC(=O)CC[C@H](C[C@@H]1CCNC1=O)NC(=O)[C@@H](CC(=O)[C@@H](NC(=O)c2cc(C)on2)C(C)C)Cc3ccc(F)cc3

$$$$
AG7P14S10
     RDKit          3D

 18 18  0  0  0  0  0  0  0  0999 V2000
   -8.1450   16.3840  -32.9140 C   0  0  0  0  0  0  0  0  0  0  0  0
   -8.5080   14.9300  -33.3220 C   0  0  0  0  0  0  0  0  0  0  0  0
   -6.6630   16.7160  -33.0960 C   0  0  0  0  0  0  0  0  0  0  0  0
   -9.0470   14.7330  -34.7430 C   0  0  0  0  0  0  0  0  0  0  0  0
   -8.8050   14.1230  -32.4480 O   0  0  0  0  0  0  0  0  0  0  0  0
   -6.3990   18.1350  -32.6670 C   0  0  0  0  0  0  0  0  0  0  0  0
   -5.8390   15.7750  -32.2840 C   0  0  0  0  0  0  0  0  0  0  0  0
   -8.8530   13.2790  -35.2310 C   0  0  2  0  0  0  0  0  0  0  0  0
   -7.9150   12.2780  -34.5490 C   0  0  0  0  0  0  0  0  0  0  0  0
   -9.1730   12.9400  -36.6820 C   0  0  0  0  0  0  0  0  0  0  0  0
   -6.7310   12.3310  -34.8040 O   0  0  0  0  0  0  0  0  0  0  0  0
  -10.3460   13.7680  -37.1900 C   0  0  0  0  0  0  0  0  0  0  0  0
  -11.6330   13.4790  -36.7590 C   0  0  0  0  0  0  0  0  0  0  0  0
  -10.1200   14.7840  -38.1310 C   0  0  0  0  0  0  0  0  0  0  0  0
  -12.7160   14.2140  -37.2600 C   0  0  0  0  0  0  0  0  0  0  0  0
  -11.2050   15.5220  -38.6290 C   0  0  0  0  0  0  0  0  0  0  0  0
  -12.4920   15.2320  -38.1910 C   0  0  0  0  0  0  0  0  0  0  0  0
  -13.5350   15.9120  -38.6740 F   0  0  0  0  0  0  0  0  0  0  0  0
  2  1  1  0
  1  3  1  6
  2  4  1  0
  2  5  2  0
  3  6  1  0
  3  7  1  0
  8  4  1  6
  8  9  1  0
  8 10  1  0
  9 11  2  0
 10 12  1  0
 12 13  2  0
 12 14  1  0
 13 15  1  0
 16 14  2  0
 15 17  2  0
 17 16  1  0
 17 18  1  0
A    2
 C01
A    3
 C78
A    4
 C02
A    5
 O03
A    6
 C81
A    7
 C82
A    8
 C04
A   10
 C05
A   11
 O48
A   12
 C06
A   13
 C07
A   14
 C11
A   15
 C08
A   16
 C10
A   17
 C09
A   18
 F1 
M  END
>  <XChem_code>  (650) 
AG7§14

>  <Occupancy>  (650) 
[1.0, 1.0, 1.0, 1.0, 1.0, 1.0, 1.0, 1.0, 1.0, 1.0, 1.0, 1.0, 1.0, 1.0, 1.0, 1.0, 1.0, 1.0, 1.0, 1.0, 1.0, 1.0, 1.0, 1.0, 1.0, 1.0, 1.0, 1.0, 1.0, 1.0, 1.0, 1.0, 1.0, 1.0, 1.0, 1.0, 1.0, 1.0, 1.0, 1.0, 1.0, 1.0, 1.0, 1.0]

>  <TempFactor>  (650) 
[18.65, 18.72, 21.92, 17.65, 24.86, 15.28, 18.72, 30.43, 27.21, 19.54, 23.37, 32.17, 36.23, 46.57, 43.77, 41.12, 38.94, 15.18, 15.28, 13.93, 16.17, 15.35, 15.96, 15.01, 19.51, 19.89, 20.9, 31.74, 18.14, 17.75, 18.83, 41.08, 57.06, 15.9, 16.12, 18.19, 20.0, 16.9, 18.42, 18.16, 18.76, 20.9, 15.53, 47.08]

>  <accession>  (650) 
3QZQ_A

>  <description>  (650) 
Chain A, 3C protein [Enterovirus A71]

>  <evalue>  (650) 
7.17784e-59

>  <pdb_code>  (650) 
3QZQ

>  <chain>  (650) 
A

>  <ligands>  (650) 
[{'chain_id': 'A', 'author_residue_number': 501, 'author_insertion_code': '', 'chem_comp_id': 'AG7', 'alternate_conformers': 0, 'entity_id': 2, 'struct_asym_id': 'E', 'residue_number': 1, 'chem_comp_name': '4-{2-(4-FLUORO-BENZYL)-6-METHYL-5-[(5-METHYL-ISOXAZOLE-3-CARBONYL)-AMINO]-4-OXO-HEPTANOYLAMINO}-5-(2-OXO-PYRROLIDIN-3-YL)-PENTANOIC ACID ETHYL ESTER', 'weight': 600.678, 'carbohydrate_polymer': False, 'branch_name': ''}, {'chain_id': 'B', 'author_residue_number': 501, 'author_insertion_code': '', 'chem_comp_id': 'AG7', 'alternate_conformers': 0, 'entity_id': 2, 'struct_asym_id': 'F', 'residue_number': 1, 'chem_comp_name': '4-{2-(4-FLUORO-BENZYL)-6-METHYL-5-[(5-METHYL-ISOXAZOLE-3-CARBONYL)-AMINO]-4-OXO-HEPTANOYLAMINO}-5-(2-OXO-PYRROLIDIN-3-YL)-PENTANOIC ACID ETHYL ESTER', 'weight': 600.678, 'carbohydrate_polymer': False, 'branch_name': ''}, {'chain_id': 'C', 'author_residue_number': 501, 'author_insertion_code': '', 'chem_comp_id': 'AG7', 'alternate_conformers': 0, 'entity_id': 2, 'struct_asym_id': 'G', 'residue_number': 1, 'chem_comp_name': '4-{2-(4-FLUORO-BENZYL)-6-METHYL-5-[(5-METHYL-ISOXAZOLE-3-CARBONYL)-AMINO]-4-OXO-HEPTANOYLAMINO}-5-(2-OXO-PYRROLIDIN-3-YL)-PENTANOIC ACID ETHYL ESTER', 'weight': 600.678, 'carbohydrate_polymer': False, 'branch_name': ''}, {'chain_id': 'D', 'author_residue_number': 501, 'author_insertion_code': '', 'chem_comp_id': 'AG7', 'alternate_conformers': 0, 'entity_id': 2, 'struct_asym_id': 'H', 'residue_number': 1, 'chem_comp_name': '4-{2-(4-FLUORO-BENZYL)-6-METHYL-5-[(5-METHYL-ISOXAZOLE-3-CARBONYL)-AMINO]-4-OXO-HEPTANOYLAMINO}-5-(2-OXO-PYRROLIDIN-3-YL)-PENTANOIC ACID ETHYL ESTER', 'weight': 600.678, 'carbohydrate_polymer': False, 'branch_name': ''}]

>  <ligand_codes>  (650) 
['AG7', 'AG7', 'AG7', 'AG7']

>  <cofactor_codes>  (650) 
[]

>  <has_cofactor>  (650) 
False

>  <covalent>  (650) 
True

>  <base_name>  (650) 
3QZQ

>  <lig_resn>  (650) 
AG7

>  <lig_resi>  (650) 
501

>  <lig_chain>  (650) 
A

>  <lig_segi>  (650) 
E

>  <lig_alt>  (650) 


>  <polymer_chain>  (650) 
A

>  <single_smiles>  (650) 
CCOC(=O)CC[C@H](C[C@@H]1CCNC1=O)NC(=O)[C@@H](CC(=O)[C@@H](NC(=O)c2cc(C)on2)C(C)C)Cc3ccc(F)cc3

$$$$
AG7P14S11
     RDKit          3D

 20 20  0  0  0  0  0  0  0  0999 V2000
   -8.5060   11.1100  -33.8920 N   0  0  0  0  0  0  0  0  0  0  0  0
   -7.9150   12.2780  -34.5490 C   0  0  0  0  0  0  0  0  0  0  0  0
   -8.8530   13.2790  -35.2310 C   0  0  1  0  0  0  0  0  0  0  0  0
   -6.7310   12.3310  -34.8040 O   0  0  0  0  0  0  0  0  0  0  0  0
   -9.0470   14.7330  -34.7430 C   0  0  0  0  0  0  0  0  0  0  0  0
   -9.1730   12.9400  -36.6820 C   0  0  0  0  0  0  0  0  0  0  0  0
   -8.5080   14.9300  -33.3220 C   0  0  0  0  0  0  0  0  0  0  0  0
  -10.3460   13.7680  -37.1900 C   0  0  0  0  0  0  0  0  0  0  0  0
   -8.1450   16.3840  -32.9140 C   0  0  1  0  0  0  0  0  0  0  0  0
   -8.8050   14.1230  -32.4480 O   0  0  0  0  0  0  0  0  0  0  0  0
  -11.6330   13.4790  -36.7590 C   0  0  0  0  0  0  0  0  0  0  0  0
  -10.1200   14.7840  -38.1310 C   0  0  0  0  0  0  0  0  0  0  0  0
   -8.5860   16.6350  -31.5420 N   0  0  0  0  0  0  0  0  0  0  0  0
   -6.6630   16.7160  -33.0960 C   0  0  0  0  0  0  0  0  0  0  0  0
  -12.7160   14.2140  -37.2600 C   0  0  0  0  0  0  0  0  0  0  0  0
  -11.2050   15.5220  -38.6290 C   0  0  0  0  0  0  0  0  0  0  0  0
   -6.3990   18.1350  -32.6670 C   0  0  0  0  0  0  0  0  0  0  0  0
   -5.8390   15.7750  -32.2840 C   0  0  0  0  0  0  0  0  0  0  0  0
  -12.4920   15.2320  -38.1910 C   0  0  0  0  0  0  0  0  0  0  0  0
  -13.5350   15.9120  -38.6740 F   0  0  0  0  0  0  0  0  0  0  0  0
  1  2  1  0
  3  2  1  0
  2  4  2  0
  3  5  1  6
  3  6  1  0
  7  5  1  0
  6  8  1  0
  7  9  1  0
  7 10  2  0
  8 11  2  0
  8 12  1  0
  9 13  1  1
  9 14  1  0
 11 15  1  0
 16 12  2  0
 14 17  1  0
 14 18  1  0
 15 19  2  0
 19 16  1  0
 19 20  1  0
A    2
 C47
A    3
 C04
A    4
 O48
A    5
 C02
A    6
 C05
A    7
 C01
A    8
 C06
A    9
 C57
A   10
 O03
A   11
 C07
A   12
 C11
A   14
 C78
A   15
 C08
A   16
 C10
A   17
 C81
A   18
 C82
A   19
 C09
A   20
 F1 
M  END
>  <XChem_code>  (651) 
AG7§14

>  <Occupancy>  (651) 
[1.0, 1.0, 1.0, 1.0, 1.0, 1.0, 1.0, 1.0, 1.0, 1.0, 1.0, 1.0, 1.0, 1.0, 1.0, 1.0, 1.0, 1.0, 1.0, 1.0, 1.0, 1.0, 1.0, 1.0, 1.0, 1.0, 1.0, 1.0, 1.0, 1.0, 1.0, 1.0, 1.0, 1.0, 1.0, 1.0, 1.0, 1.0, 1.0, 1.0, 1.0, 1.0, 1.0, 1.0]

>  <TempFactor>  (651) 
[18.65, 18.72, 21.92, 17.65, 24.86, 15.28, 18.72, 30.43, 27.21, 19.54, 23.37, 32.17, 36.23, 46.57, 43.77, 41.12, 38.94, 15.18, 15.28, 13.93, 16.17, 15.35, 15.96, 15.01, 19.51, 19.89, 20.9, 31.74, 18.14, 17.75, 18.83, 41.08, 57.06, 15.9, 16.12, 18.19, 20.0, 16.9, 18.42, 18.16, 18.76, 20.9, 15.53, 47.08]

>  <accession>  (651) 
3QZQ_A

>  <description>  (651) 
Chain A, 3C protein [Enterovirus A71]

>  <evalue>  (651) 
7.17784e-59

>  <pdb_code>  (651) 
3QZQ

>  <chain>  (651) 
A

>  <ligands>  (651) 
[{'chain_id': 'A', 'author_residue_number': 501, 'author_insertion_code': '', 'chem_comp_id': 'AG7', 'alternate_conformers': 0, 'entity_id': 2, 'struct_asym_id': 'E', 'residue_number': 1, 'chem_comp_name': '4-{2-(4-FLUORO-BENZYL)-6-METHYL-5-[(5-METHYL-ISOXAZOLE-3-CARBONYL)-AMINO]-4-OXO-HEPTANOYLAMINO}-5-(2-OXO-PYRROLIDIN-3-YL)-PENTANOIC ACID ETHYL ESTER', 'weight': 600.678, 'carbohydrate_polymer': False, 'branch_name': ''}, {'chain_id': 'B', 'author_residue_number': 501, 'author_insertion_code': '', 'chem_comp_id': 'AG7', 'alternate_conformers': 0, 'entity_id': 2, 'struct_asym_id': 'F', 'residue_number': 1, 'chem_comp_name': '4-{2-(4-FLUORO-BENZYL)-6-METHYL-5-[(5-METHYL-ISOXAZOLE-3-CARBONYL)-AMINO]-4-OXO-HEPTANOYLAMINO}-5-(2-OXO-PYRROLIDIN-3-YL)-PENTANOIC ACID ETHYL ESTER', 'weight': 600.678, 'carbohydrate_polymer': False, 'branch_name': ''}, {'chain_id': 'C', 'author_residue_number': 501, 'author_insertion_code': '', 'chem_comp_id': 'AG7', 'alternate_conformers': 0, 'entity_id': 2, 'struct_asym_id': 'G', 'residue_number': 1, 'chem_comp_name': '4-{2-(4-FLUORO-BENZYL)-6-METHYL-5-[(5-METHYL-ISOXAZOLE-3-CARBONYL)-AMINO]-4-OXO-HEPTANOYLAMINO}-5-(2-OXO-PYRROLIDIN-3-YL)-PENTANOIC ACID ETHYL ESTER', 'weight': 600.678, 'carbohydrate_polymer': False, 'branch_name': ''}, {'chain_id': 'D', 'author_residue_number': 501, 'author_insertion_code': '', 'chem_comp_id': 'AG7', 'alternate_conformers': 0, 'entity_id': 2, 'struct_asym_id': 'H', 'residue_number': 1, 'chem_comp_name': '4-{2-(4-FLUORO-BENZYL)-6-METHYL-5-[(5-METHYL-ISOXAZOLE-3-CARBONYL)-AMINO]-4-OXO-HEPTANOYLAMINO}-5-(2-OXO-PYRROLIDIN-3-YL)-PENTANOIC ACID ETHYL ESTER', 'weight': 600.678, 'carbohydrate_polymer': False, 'branch_name': ''}]

>  <ligand_codes>  (651) 
['AG7', 'AG7', 'AG7', 'AG7']

>  <cofactor_codes>  (651) 
[]

>  <has_cofactor>  (651) 
False

>  <covalent>  (651) 
True

>  <base_name>  (651) 
3QZQ

>  <lig_resn>  (651) 
AG7

>  <lig_resi>  (651) 
501

>  <lig_chain>  (651) 
A

>  <lig_segi>  (651) 
E

>  <lig_alt>  (651) 


>  <polymer_chain>  (651) 
A

>  <single_smiles>  (651) 
CCOC(=O)CC[C@H](C[C@@H]1CCNC1=O)NC(=O)[C@@H](CC(=O)[C@@H](NC(=O)c2cc(C)on2)C(C)C)Cc3ccc(F)cc3

$$$$
AG7P14S12
     RDKit          3D

 19 19  0  0  0  0  0  0  0  0999 V2000
   -8.1450   16.3840  -32.9140 C   0  0  0  0  0  0  0  0  0  0  0  0
   -8.5080   14.9300  -33.3220 C   0  0  0  0  0  0  0  0  0  0  0  0
   -6.6630   16.7160  -33.0960 C   0  0  0  0  0  0  0  0  0  0  0  0
   -9.0470   14.7330  -34.7430 C   0  0  0  0  0  0  0  0  0  0  0  0
   -8.8050   14.1230  -32.4480 O   0  0  0  0  0  0  0  0  0  0  0  0
   -6.3990   18.1350  -32.6670 C   0  0  0  0  0  0  0  0  0  0  0  0
   -5.8390   15.7750  -32.2840 C   0  0  0  0  0  0  0  0  0  0  0  0
   -8.8530   13.2790  -35.2310 C   0  0  2  0  0  0  0  0  0  0  0  0
   -7.9150   12.2780  -34.5490 C   0  0  0  0  0  0  0  0  0  0  0  0
   -9.1730   12.9400  -36.6820 C   0  0  0  0  0  0  0  0  0  0  0  0
   -8.5060   11.1100  -33.8920 N   0  0  0  0  0  0  0  0  0  0  0  0
   -6.7310   12.3310  -34.8040 O   0  0  0  0  0  0  0  0  0  0  0  0
  -10.3460   13.7680  -37.1900 C   0  0  0  0  0  0  0  0  0  0  0  0
  -11.6330   13.4790  -36.7590 C   0  0  0  0  0  0  0  0  0  0  0  0
  -10.1200   14.7840  -38.1310 C   0  0  0  0  0  0  0  0  0  0  0  0
  -12.7160   14.2140  -37.2600 C   0  0  0  0  0  0  0  0  0  0  0  0
  -11.2050   15.5220  -38.6290 C   0  0  0  0  0  0  0  0  0  0  0  0
  -12.4920   15.2320  -38.1910 C   0  0  0  0  0  0  0  0  0  0  0  0
  -13.5350   15.9120  -38.6740 F   0  0  0  0  0  0  0  0  0  0  0  0
  2  1  1  0
  1  3  1  6
  2  4  1  0
  2  5  2  0
  3  6  1  0
  3  7  1  0
  8  4  1  6
  8  9  1  0
  8 10  1  0
 11  9  1  0
  9 12  2  0
 10 13  1  0
 13 14  2  0
 13 15  1  0
 14 16  1  0
 17 15  2  0
 16 18  2  0
 18 17  1  0
 18 19  1  0
A    2
 C01
A    3
 C78
A    4
 C02
A    5
 O03
A    6
 C81
A    7
 C82
A    8
 C04
A    9
 C47
A   10
 C05
A   12
 O48
A   13
 C06
A   14
 C07
A   15
 C11
A   16
 C08
A   17
 C10
A   18
 C09
A   19
 F1 
M  END
>  <XChem_code>  (652) 
AG7§14

>  <Occupancy>  (652) 
[1.0, 1.0, 1.0, 1.0, 1.0, 1.0, 1.0, 1.0, 1.0, 1.0, 1.0, 1.0, 1.0, 1.0, 1.0, 1.0, 1.0, 1.0, 1.0, 1.0, 1.0, 1.0, 1.0, 1.0, 1.0, 1.0, 1.0, 1.0, 1.0, 1.0, 1.0, 1.0, 1.0, 1.0, 1.0, 1.0, 1.0, 1.0, 1.0, 1.0, 1.0, 1.0, 1.0, 1.0]

>  <TempFactor>  (652) 
[18.65, 18.72, 21.92, 17.65, 24.86, 15.28, 18.72, 30.43, 27.21, 19.54, 23.37, 32.17, 36.23, 46.57, 43.77, 41.12, 38.94, 15.18, 15.28, 13.93, 16.17, 15.35, 15.96, 15.01, 19.51, 19.89, 20.9, 31.74, 18.14, 17.75, 18.83, 41.08, 57.06, 15.9, 16.12, 18.19, 20.0, 16.9, 18.42, 18.16, 18.76, 20.9, 15.53, 47.08]

>  <accession>  (652) 
3QZQ_A

>  <description>  (652) 
Chain A, 3C protein [Enterovirus A71]

>  <evalue>  (652) 
7.17784e-59

>  <pdb_code>  (652) 
3QZQ

>  <chain>  (652) 
A

>  <ligands>  (652) 
[{'chain_id': 'A', 'author_residue_number': 501, 'author_insertion_code': '', 'chem_comp_id': 'AG7', 'alternate_conformers': 0, 'entity_id': 2, 'struct_asym_id': 'E', 'residue_number': 1, 'chem_comp_name': '4-{2-(4-FLUORO-BENZYL)-6-METHYL-5-[(5-METHYL-ISOXAZOLE-3-CARBONYL)-AMINO]-4-OXO-HEPTANOYLAMINO}-5-(2-OXO-PYRROLIDIN-3-YL)-PENTANOIC ACID ETHYL ESTER', 'weight': 600.678, 'carbohydrate_polymer': False, 'branch_name': ''}, {'chain_id': 'B', 'author_residue_number': 501, 'author_insertion_code': '', 'chem_comp_id': 'AG7', 'alternate_conformers': 0, 'entity_id': 2, 'struct_asym_id': 'F', 'residue_number': 1, 'chem_comp_name': '4-{2-(4-FLUORO-BENZYL)-6-METHYL-5-[(5-METHYL-ISOXAZOLE-3-CARBONYL)-AMINO]-4-OXO-HEPTANOYLAMINO}-5-(2-OXO-PYRROLIDIN-3-YL)-PENTANOIC ACID ETHYL ESTER', 'weight': 600.678, 'carbohydrate_polymer': False, 'branch_name': ''}, {'chain_id': 'C', 'author_residue_number': 501, 'author_insertion_code': '', 'chem_comp_id': 'AG7', 'alternate_conformers': 0, 'entity_id': 2, 'struct_asym_id': 'G', 'residue_number': 1, 'chem_comp_name': '4-{2-(4-FLUORO-BENZYL)-6-METHYL-5-[(5-METHYL-ISOXAZOLE-3-CARBONYL)-AMINO]-4-OXO-HEPTANOYLAMINO}-5-(2-OXO-PYRROLIDIN-3-YL)-PENTANOIC ACID ETHYL ESTER', 'weight': 600.678, 'carbohydrate_polymer': False, 'branch_name': ''}, {'chain_id': 'D', 'author_residue_number': 501, 'author_insertion_code': '', 'chem_comp_id': 'AG7', 'alternate_conformers': 0, 'entity_id': 2, 'struct_asym_id': 'H', 'residue_number': 1, 'chem_comp_name': '4-{2-(4-FLUORO-BENZYL)-6-METHYL-5-[(5-METHYL-ISOXAZOLE-3-CARBONYL)-AMINO]-4-OXO-HEPTANOYLAMINO}-5-(2-OXO-PYRROLIDIN-3-YL)-PENTANOIC ACID ETHYL ESTER', 'weight': 600.678, 'carbohydrate_polymer': False, 'branch_name': ''}]

>  <ligand_codes>  (652) 
['AG7', 'AG7', 'AG7', 'AG7']

>  <cofactor_codes>  (652) 
[]

>  <has_cofactor>  (652) 
False

>  <covalent>  (652) 
True

>  <base_name>  (652) 
3QZQ

>  <lig_resn>  (652) 
AG7

>  <lig_resi>  (652) 
501

>  <lig_chain>  (652) 
A

>  <lig_segi>  (652) 
E

>  <lig_alt>  (652) 


>  <polymer_chain>  (652) 
A

>  <single_smiles>  (652) 
CCOC(=O)CC[C@H](C[C@@H]1CCNC1=O)NC(=O)[C@@H](CC(=O)[C@@H](NC(=O)c2cc(C)on2)C(C)C)Cc3ccc(F)cc3

$$$$
AG7P14S13
     RDKit          3D

  6  6  0  0  0  0  0  0  0  0999 V2000
  -10.0180   17.8700  -29.8390 C   0  0  0  0  0  0  0  0  0  0  0  0
  -10.9400   18.9000  -29.3490 C   0  0  0  0  0  0  0  0  0  0  0  0
   -9.7280   17.0810  -28.8080 N   0  0  0  0  0  0  0  0  0  0  0  0
  -11.0910   18.5810  -27.9530 C   0  0  0  0  0  0  0  0  0  0  0  0
  -10.3500   17.5030  -27.7220 O   0  0  0  0  0  0  0  0  0  0  0  0
  -11.9400   19.3230  -26.9590 C   0  0  0  0  0  0  0  0  0  0  0  0
  1  2  1  0
  1  3  2  0
  2  4  2  0
  5  3  1  0
  4  6  1  0
  4  5  1  0
A    2
 C2 
A    3
 N5 
A    4
 C3 
A    5
 O4 
A    6
 C4 
M  END
>  <XChem_code>  (653) 
AG7§14

>  <Occupancy>  (653) 
[1.0, 1.0, 1.0, 1.0, 1.0, 1.0, 1.0, 1.0, 1.0, 1.0, 1.0, 1.0, 1.0, 1.0, 1.0, 1.0, 1.0, 1.0, 1.0, 1.0, 1.0, 1.0, 1.0, 1.0, 1.0, 1.0, 1.0, 1.0, 1.0, 1.0, 1.0, 1.0, 1.0, 1.0, 1.0, 1.0, 1.0, 1.0, 1.0, 1.0, 1.0, 1.0, 1.0, 1.0]

>  <TempFactor>  (653) 
[18.65, 18.72, 21.92, 17.65, 24.86, 15.28, 18.72, 30.43, 27.21, 19.54, 23.37, 32.17, 36.23, 46.57, 43.77, 41.12, 38.94, 15.18, 15.28, 13.93, 16.17, 15.35, 15.96, 15.01, 19.51, 19.89, 20.9, 31.74, 18.14, 17.75, 18.83, 41.08, 57.06, 15.9, 16.12, 18.19, 20.0, 16.9, 18.42, 18.16, 18.76, 20.9, 15.53, 47.08]

>  <accession>  (653) 
3QZQ_A

>  <description>  (653) 
Chain A, 3C protein [Enterovirus A71]

>  <evalue>  (653) 
7.17784e-59

>  <pdb_code>  (653) 
3QZQ

>  <chain>  (653) 
A

>  <ligands>  (653) 
[{'chain_id': 'A', 'author_residue_number': 501, 'author_insertion_code': '', 'chem_comp_id': 'AG7', 'alternate_conformers': 0, 'entity_id': 2, 'struct_asym_id': 'E', 'residue_number': 1, 'chem_comp_name': '4-{2-(4-FLUORO-BENZYL)-6-METHYL-5-[(5-METHYL-ISOXAZOLE-3-CARBONYL)-AMINO]-4-OXO-HEPTANOYLAMINO}-5-(2-OXO-PYRROLIDIN-3-YL)-PENTANOIC ACID ETHYL ESTER', 'weight': 600.678, 'carbohydrate_polymer': False, 'branch_name': ''}, {'chain_id': 'B', 'author_residue_number': 501, 'author_insertion_code': '', 'chem_comp_id': 'AG7', 'alternate_conformers': 0, 'entity_id': 2, 'struct_asym_id': 'F', 'residue_number': 1, 'chem_comp_name': '4-{2-(4-FLUORO-BENZYL)-6-METHYL-5-[(5-METHYL-ISOXAZOLE-3-CARBONYL)-AMINO]-4-OXO-HEPTANOYLAMINO}-5-(2-OXO-PYRROLIDIN-3-YL)-PENTANOIC ACID ETHYL ESTER', 'weight': 600.678, 'carbohydrate_polymer': False, 'branch_name': ''}, {'chain_id': 'C', 'author_residue_number': 501, 'author_insertion_code': '', 'chem_comp_id': 'AG7', 'alternate_conformers': 0, 'entity_id': 2, 'struct_asym_id': 'G', 'residue_number': 1, 'chem_comp_name': '4-{2-(4-FLUORO-BENZYL)-6-METHYL-5-[(5-METHYL-ISOXAZOLE-3-CARBONYL)-AMINO]-4-OXO-HEPTANOYLAMINO}-5-(2-OXO-PYRROLIDIN-3-YL)-PENTANOIC ACID ETHYL ESTER', 'weight': 600.678, 'carbohydrate_polymer': False, 'branch_name': ''}, {'chain_id': 'D', 'author_residue_number': 501, 'author_insertion_code': '', 'chem_comp_id': 'AG7', 'alternate_conformers': 0, 'entity_id': 2, 'struct_asym_id': 'H', 'residue_number': 1, 'chem_comp_name': '4-{2-(4-FLUORO-BENZYL)-6-METHYL-5-[(5-METHYL-ISOXAZOLE-3-CARBONYL)-AMINO]-4-OXO-HEPTANOYLAMINO}-5-(2-OXO-PYRROLIDIN-3-YL)-PENTANOIC ACID ETHYL ESTER', 'weight': 600.678, 'carbohydrate_polymer': False, 'branch_name': ''}]

>  <ligand_codes>  (653) 
['AG7', 'AG7', 'AG7', 'AG7']

>  <cofactor_codes>  (653) 
[]

>  <has_cofactor>  (653) 
False

>  <covalent>  (653) 
True

>  <base_name>  (653) 
3QZQ

>  <lig_resn>  (653) 
AG7

>  <lig_resi>  (653) 
501

>  <lig_chain>  (653) 
A

>  <lig_segi>  (653) 
E

>  <lig_alt>  (653) 


>  <polymer_chain>  (653) 
A

>  <single_smiles>  (653) 
CCOC(=O)CC[C@H](C[C@@H]1CCNC1=O)NC(=O)[C@@H](CC(=O)[C@@H](NC(=O)c2cc(C)on2)C(C)C)Cc3ccc(F)cc3

$$$$
AG7P14S14
     RDKit          3D

 38 39  0  0  0  0  0  0  0  0999 V2000
   -9.5070   17.7220  -31.2510 C   0  0  0  0  0  0  0  0  0  0  0  0
   -8.5860   16.6350  -31.5420 N   0  0  0  0  0  0  0  0  0  0  0  0
   -9.9070   18.4670  -32.1230 O   0  0  0  0  0  0  0  0  0  0  0  0
   -8.1450   16.3840  -32.9140 C   0  0  2  0  0  0  0  0  0  0  0  0
   -8.5080   14.9300  -33.3220 C   0  0  0  0  0  0  0  0  0  0  0  0
   -6.6630   16.7160  -33.0960 C   0  0  0  0  0  0  0  0  0  0  0  0
   -9.0470   14.7330  -34.7430 C   0  0  0  0  0  0  0  0  0  0  0  0
   -8.8050   14.1230  -32.4480 O   0  0  0  0  0  0  0  0  0  0  0  0
   -6.3990   18.1350  -32.6670 C   0  0  0  0  0  0  0  0  0  0  0  0
   -5.8390   15.7750  -32.2840 C   0  0  0  0  0  0  0  0  0  0  0  0
   -8.8530   13.2790  -35.2310 C   0  0  1  0  0  0  0  0  0  0  0  0
   -9.1730   12.9400  -36.6820 C   0  0  0  0  0  0  0  0  0  0  0  0
   -7.9150   12.2780  -34.5490 C   0  0  0  0  0  0  0  0  0  0  0  0
  -10.3460   13.7680  -37.1900 C   0  0  0  0  0  0  0  0  0  0  0  0
   -8.5060   11.1100  -33.8920 N   0  0  0  0  0  0  0  0  0  0  0  0
   -6.7310   12.3310  -34.8040 O   0  0  0  0  0  0  0  0  0  0  0  0
  -11.6330   13.4790  -36.7590 C   0  0  0  0  0  0  0  0  0  0  0  0
  -10.1200   14.7840  -38.1310 C   0  0  0  0  0  0  0  0  0  0  0  0
   -7.7300    9.9240  -33.4360 C   0  0  1  0  0  0  0  0  0  0  0  0
  -12.7160   14.2140  -37.2600 C   0  0  0  0  0  0  0  0  0  0  0  0
  -11.2050   15.5220  -38.6290 C   0  0  0  0  0  0  0  0  0  0  0  0
   -7.3190    9.7870  -31.9670 C   0  0  0  0  0  0  0  0  0  0  0  0
   -7.7770    8.6160  -34.2440 C   0  0  2  0  0  0  0  0  0  0  0  0
  -12.4920   15.2320  -38.1910 C   0  0  0  0  0  0  0  0  0  0  0  0
   -6.9490   11.1100  -31.3440 C   0  0  1  0  0  0  0  0  0  0  0  0
   -7.7810    8.8240  -35.7420 C   0  0  0  0  0  0  0  0  0  0  0  0
   -9.7150    8.3890  -33.9240 R   0  0  0  0  0  0  0  0  0  0  0  0
  -13.5350   15.9120  -38.6740 F   0  0  0  0  0  0  0  0  0  0  0  0
   -6.8820   10.9740  -29.8610 C   0  0  0  0  0  0  0  0  0  0  0  0
   -5.5910   11.5700  -31.7670 C   0  0  0  0  0  0  0  0  0  0  0  0
   -6.3340    8.9960  -36.1790 C   0  0  0  0  0  0  0  0  0  0  0  0
   -5.7440   11.6850  -29.4030 N   0  0  0  0  0  0  0  0  0  0  0  0
   -7.6250   10.3230  -29.1430 O   0  0  0  0  0  0  0  0  0  0  0  0
   -5.1300   12.3330  -30.5440 C   0  0  0  0  0  0  0  0  0  0  0  0
   -6.0510    9.6750  -37.2240 O   0  0  0  0  0  0  0  0  0  0  0  0
   -5.4140    8.5070  -35.4860 O   0  0  0  0  0  0  0  0  0  0  0  0
   -4.7230    9.9930  -37.5080 C   0  0  0  0  0  0  0  0  0  0  0  0
   -4.6910   10.8400  -38.7540 C   0  0  0  0  0  0  0  0  0  0  0  0
  2  1  1  0
  1  3  2  0
  4  2  1  1
  5  4  1  0
  4  6  1  0
  5  7  1  0
  5  8  2  0
  6  9  1  0
  6 10  1  0
 11  7  1  6
 11 12  1  0
 11 13  1  0
 12 14  1  0
 15 13  1  0
 13 16  2  0
 14 17  2  0
 14 18  1  0
 15 19  1  0
 17 20  1  0
 21 18  2  0
 19 22  1  1
 19 23  1  0
 20 24  2  0
 24 21  1  0
 25 22  1  6
 23 26  1  0
 23 27  1  1
 24 28  1  0
 25 29  1  0
 25 30  1  0
 26 31  1  0
 29 32  1  0
 29 33  2  0
 34 30  1  0
 31 35  1  0
 31 36  2  0
 32 34  1  0
 35 37  1  0
 37 38  1  0
V   27 *
A    2
 N58
A    3
 O60
A    4
 C57
A    5
 C01
A    6
 C78
A    7
 C02
A    8
 O03
A    9
 C81
A   10
 C82
A   11
 C04
A   12
 C05
A   13
 C47
A   14
 C06
A   15
 N12
A   16
 O48
A   17
 C07
A   18
 C11
A   19
 C13
A   20
 C08
A   21
 C10
A   22
 C14
A   23
 C19
A   24
 C09
A   25
 C15
A   26
 C20
A   27
 X  
A   28
 F1 
A   29
 C16
A   30
 C84
A   31
 C21
A   32
 N17
A   33
 O18
A   34
 C83
A   35
 O22
A   36
 O23
A   37
 C50
A   38
 C53
M  END
>  <XChem_code>  (654) 
AG7§14

>  <Occupancy>  (654) 
[1.0, 1.0, 1.0, 1.0, 1.0, 1.0, 1.0, 1.0, 1.0, 1.0, 1.0, 1.0, 1.0, 1.0, 1.0, 1.0, 1.0, 1.0, 1.0, 1.0, 1.0, 1.0, 1.0, 1.0, 1.0, 1.0, 1.0, 1.0, 1.0, 1.0, 1.0, 1.0, 1.0, 1.0, 1.0, 1.0, 1.0, 1.0, 1.0, 1.0, 1.0, 1.0, 1.0, 1.0]

>  <TempFactor>  (654) 
[18.65, 18.72, 21.92, 17.65, 24.86, 15.28, 18.72, 30.43, 27.21, 19.54, 23.37, 32.17, 36.23, 46.57, 43.77, 41.12, 38.94, 15.18, 15.28, 13.93, 16.17, 15.35, 15.96, 15.01, 19.51, 19.89, 20.9, 31.74, 18.14, 17.75, 18.83, 41.08, 57.06, 15.9, 16.12, 18.19, 20.0, 16.9, 18.42, 18.16, 18.76, 20.9, 15.53, 47.08]

>  <accession>  (654) 
3QZQ_A

>  <description>  (654) 
Chain A, 3C protein [Enterovirus A71]

>  <evalue>  (654) 
7.17784e-59

>  <pdb_code>  (654) 
3QZQ

>  <chain>  (654) 
A

>  <ligands>  (654) 
[{'chain_id': 'A', 'author_residue_number': 501, 'author_insertion_code': '', 'chem_comp_id': 'AG7', 'alternate_conformers': 0, 'entity_id': 2, 'struct_asym_id': 'E', 'residue_number': 1, 'chem_comp_name': '4-{2-(4-FLUORO-BENZYL)-6-METHYL-5-[(5-METHYL-ISOXAZOLE-3-CARBONYL)-AMINO]-4-OXO-HEPTANOYLAMINO}-5-(2-OXO-PYRROLIDIN-3-YL)-PENTANOIC ACID ETHYL ESTER', 'weight': 600.678, 'carbohydrate_polymer': False, 'branch_name': ''}, {'chain_id': 'B', 'author_residue_number': 501, 'author_insertion_code': '', 'chem_comp_id': 'AG7', 'alternate_conformers': 0, 'entity_id': 2, 'struct_asym_id': 'F', 'residue_number': 1, 'chem_comp_name': '4-{2-(4-FLUORO-BENZYL)-6-METHYL-5-[(5-METHYL-ISOXAZOLE-3-CARBONYL)-AMINO]-4-OXO-HEPTANOYLAMINO}-5-(2-OXO-PYRROLIDIN-3-YL)-PENTANOIC ACID ETHYL ESTER', 'weight': 600.678, 'carbohydrate_polymer': False, 'branch_name': ''}, {'chain_id': 'C', 'author_residue_number': 501, 'author_insertion_code': '', 'chem_comp_id': 'AG7', 'alternate_conformers': 0, 'entity_id': 2, 'struct_asym_id': 'G', 'residue_number': 1, 'chem_comp_name': '4-{2-(4-FLUORO-BENZYL)-6-METHYL-5-[(5-METHYL-ISOXAZOLE-3-CARBONYL)-AMINO]-4-OXO-HEPTANOYLAMINO}-5-(2-OXO-PYRROLIDIN-3-YL)-PENTANOIC ACID ETHYL ESTER', 'weight': 600.678, 'carbohydrate_polymer': False, 'branch_name': ''}, {'chain_id': 'D', 'author_residue_number': 501, 'author_insertion_code': '', 'chem_comp_id': 'AG7', 'alternate_conformers': 0, 'entity_id': 2, 'struct_asym_id': 'H', 'residue_number': 1, 'chem_comp_name': '4-{2-(4-FLUORO-BENZYL)-6-METHYL-5-[(5-METHYL-ISOXAZOLE-3-CARBONYL)-AMINO]-4-OXO-HEPTANOYLAMINO}-5-(2-OXO-PYRROLIDIN-3-YL)-PENTANOIC ACID ETHYL ESTER', 'weight': 600.678, 'carbohydrate_polymer': False, 'branch_name': ''}]

>  <ligand_codes>  (654) 
['AG7', 'AG7', 'AG7', 'AG7']

>  <cofactor_codes>  (654) 
[]

>  <has_cofactor>  (654) 
False

>  <covalent>  (654) 
True

>  <base_name>  (654) 
3QZQ

>  <lig_resn>  (654) 
AG7

>  <lig_resi>  (654) 
501

>  <lig_chain>  (654) 
A

>  <lig_segi>  (654) 
E

>  <lig_alt>  (654) 


>  <polymer_chain>  (654) 
A

>  <single_smiles>  (654) 
CCOC(=O)CC[C@H](C[C@@H]1CCNC1=O)NC(=O)[C@@H](CC(=O)[C@@H](NC(=O)c2cc(C)on2)C(C)C)Cc3ccc(F)cc3

$$$$
AG7P14S15
     RDKit          3D

 21 21  0  0  0  0  0  0  0  0999 V2000
   -9.5070   17.7220  -31.2510 C   0  0  0  0  0  0  0  0  0  0  0  0
   -8.5860   16.6350  -31.5420 N   0  0  0  0  0  0  0  0  0  0  0  0
   -9.9070   18.4670  -32.1230 O   0  0  0  0  0  0  0  0  0  0  0  0
   -8.1450   16.3840  -32.9140 C   0  0  2  0  0  0  0  0  0  0  0  0
   -8.5080   14.9300  -33.3220 C   0  0  0  0  0  0  0  0  0  0  0  0
   -6.6630   16.7160  -33.0960 C   0  0  0  0  0  0  0  0  0  0  0  0
   -9.0470   14.7330  -34.7430 C   0  0  0  0  0  0  0  0  0  0  0  0
   -8.8050   14.1230  -32.4480 O   0  0  0  0  0  0  0  0  0  0  0  0
   -6.3990   18.1350  -32.6670 C   0  0  0  0  0  0  0  0  0  0  0  0
   -5.8390   15.7750  -32.2840 C   0  0  0  0  0  0  0  0  0  0  0  0
   -8.8530   13.2790  -35.2310 C   0  0  2  0  0  0  0  0  0  0  0  0
   -7.9150   12.2780  -34.5490 C   0  0  0  0  0  0  0  0  0  0  0  0
   -9.1730   12.9400  -36.6820 C   0  0  0  0  0  0  0  0  0  0  0  0
   -6.7310   12.3310  -34.8040 O   0  0  0  0  0  0  0  0  0  0  0  0
  -10.3460   13.7680  -37.1900 C   0  0  0  0  0  0  0  0  0  0  0  0
  -11.6330   13.4790  -36.7590 C   0  0  0  0  0  0  0  0  0  0  0  0
  -10.1200   14.7840  -38.1310 C   0  0  0  0  0  0  0  0  0  0  0  0
  -12.7160   14.2140  -37.2600 C   0  0  0  0  0  0  0  0  0  0  0  0
  -11.2050   15.5220  -38.6290 C   0  0  0  0  0  0  0  0  0  0  0  0
  -12.4920   15.2320  -38.1910 C   0  0  0  0  0  0  0  0  0  0  0  0
  -13.5350   15.9120  -38.6740 F   0  0  0  0  0  0  0  0  0  0  0  0
  2  1  1  0
  1  3  2  0
  4  2  1  1
  5  4  1  0
  4  6  1  0
  5  7  1  0
  5  8  2  0
  6  9  1  0
  6 10  1  0
 11  7  1  6
 11 12  1  0
 11 13  1  0
 12 14  2  0
 13 15  1  0
 15 16  2  0
 15 17  1  0
 16 18  1  0
 19 17  2  0
 18 20  2  0
 20 19  1  0
 20 21  1  0
A    2
 N58
A    3
 O60
A    4
 C57
A    5
 C01
A    6
 C78
A    7
 C02
A    8
 O03
A    9
 C81
A   10
 C82
A   11
 C04
A   13
 C05
A   14
 O48
A   15
 C06
A   16
 C07
A   17
 C11
A   18
 C08
A   19
 C10
A   20
 C09
A   21
 F1 
M  END
>  <XChem_code>  (655) 
AG7§14

>  <Occupancy>  (655) 
[1.0, 1.0, 1.0, 1.0, 1.0, 1.0, 1.0, 1.0, 1.0, 1.0, 1.0, 1.0, 1.0, 1.0, 1.0, 1.0, 1.0, 1.0, 1.0, 1.0, 1.0, 1.0, 1.0, 1.0, 1.0, 1.0, 1.0, 1.0, 1.0, 1.0, 1.0, 1.0, 1.0, 1.0, 1.0, 1.0, 1.0, 1.0, 1.0, 1.0, 1.0, 1.0, 1.0, 1.0]

>  <TempFactor>  (655) 
[18.65, 18.72, 21.92, 17.65, 24.86, 15.28, 18.72, 30.43, 27.21, 19.54, 23.37, 32.17, 36.23, 46.57, 43.77, 41.12, 38.94, 15.18, 15.28, 13.93, 16.17, 15.35, 15.96, 15.01, 19.51, 19.89, 20.9, 31.74, 18.14, 17.75, 18.83, 41.08, 57.06, 15.9, 16.12, 18.19, 20.0, 16.9, 18.42, 18.16, 18.76, 20.9, 15.53, 47.08]

>  <accession>  (655) 
3QZQ_A

>  <description>  (655) 
Chain A, 3C protein [Enterovirus A71]

>  <evalue>  (655) 
7.17784e-59

>  <pdb_code>  (655) 
3QZQ

>  <chain>  (655) 
A

>  <ligands>  (655) 
[{'chain_id': 'A', 'author_residue_number': 501, 'author_insertion_code': '', 'chem_comp_id': 'AG7', 'alternate_conformers': 0, 'entity_id': 2, 'struct_asym_id': 'E', 'residue_number': 1, 'chem_comp_name': '4-{2-(4-FLUORO-BENZYL)-6-METHYL-5-[(5-METHYL-ISOXAZOLE-3-CARBONYL)-AMINO]-4-OXO-HEPTANOYLAMINO}-5-(2-OXO-PYRROLIDIN-3-YL)-PENTANOIC ACID ETHYL ESTER', 'weight': 600.678, 'carbohydrate_polymer': False, 'branch_name': ''}, {'chain_id': 'B', 'author_residue_number': 501, 'author_insertion_code': '', 'chem_comp_id': 'AG7', 'alternate_conformers': 0, 'entity_id': 2, 'struct_asym_id': 'F', 'residue_number': 1, 'chem_comp_name': '4-{2-(4-FLUORO-BENZYL)-6-METHYL-5-[(5-METHYL-ISOXAZOLE-3-CARBONYL)-AMINO]-4-OXO-HEPTANOYLAMINO}-5-(2-OXO-PYRROLIDIN-3-YL)-PENTANOIC ACID ETHYL ESTER', 'weight': 600.678, 'carbohydrate_polymer': False, 'branch_name': ''}, {'chain_id': 'C', 'author_residue_number': 501, 'author_insertion_code': '', 'chem_comp_id': 'AG7', 'alternate_conformers': 0, 'entity_id': 2, 'struct_asym_id': 'G', 'residue_number': 1, 'chem_comp_name': '4-{2-(4-FLUORO-BENZYL)-6-METHYL-5-[(5-METHYL-ISOXAZOLE-3-CARBONYL)-AMINO]-4-OXO-HEPTANOYLAMINO}-5-(2-OXO-PYRROLIDIN-3-YL)-PENTANOIC ACID ETHYL ESTER', 'weight': 600.678, 'carbohydrate_polymer': False, 'branch_name': ''}, {'chain_id': 'D', 'author_residue_number': 501, 'author_insertion_code': '', 'chem_comp_id': 'AG7', 'alternate_conformers': 0, 'entity_id': 2, 'struct_asym_id': 'H', 'residue_number': 1, 'chem_comp_name': '4-{2-(4-FLUORO-BENZYL)-6-METHYL-5-[(5-METHYL-ISOXAZOLE-3-CARBONYL)-AMINO]-4-OXO-HEPTANOYLAMINO}-5-(2-OXO-PYRROLIDIN-3-YL)-PENTANOIC ACID ETHYL ESTER', 'weight': 600.678, 'carbohydrate_polymer': False, 'branch_name': ''}]

>  <ligand_codes>  (655) 
['AG7', 'AG7', 'AG7', 'AG7']

>  <cofactor_codes>  (655) 
[]

>  <has_cofactor>  (655) 
False

>  <covalent>  (655) 
True

>  <base_name>  (655) 
3QZQ

>  <lig_resn>  (655) 
AG7

>  <lig_resi>  (655) 
501

>  <lig_chain>  (655) 
A

>  <lig_segi>  (655) 
E

>  <lig_alt>  (655) 


>  <polymer_chain>  (655) 
A

>  <single_smiles>  (655) 
CCOC(=O)CC[C@H](C[C@@H]1CCNC1=O)NC(=O)[C@@H](CC(=O)[C@@H](NC(=O)c2cc(C)on2)C(C)C)Cc3ccc(F)cc3

$$$$
AG7P14S16
     RDKit          3D

 22 22  0  0  0  0  0  0  0  0999 V2000
   -9.5070   17.7220  -31.2510 C   0  0  0  0  0  0  0  0  0  0  0  0
   -8.5860   16.6350  -31.5420 N   0  0  0  0  0  0  0  0  0  0  0  0
   -9.9070   18.4670  -32.1230 O   0  0  0  0  0  0  0  0  0  0  0  0
   -8.1450   16.3840  -32.9140 C   0  0  2  0  0  0  0  0  0  0  0  0
   -8.5080   14.9300  -33.3220 C   0  0  0  0  0  0  0  0  0  0  0  0
   -6.6630   16.7160  -33.0960 C   0  0  0  0  0  0  0  0  0  0  0  0
   -9.0470   14.7330  -34.7430 C   0  0  0  0  0  0  0  0  0  0  0  0
   -8.8050   14.1230  -32.4480 O   0  0  0  0  0  0  0  0  0  0  0  0
   -6.3990   18.1350  -32.6670 C   0  0  0  0  0  0  0  0  0  0  0  0
   -5.8390   15.7750  -32.2840 C   0  0  0  0  0  0  0  0  0  0  0  0
   -8.8530   13.2790  -35.2310 C   0  0  2  0  0  0  0  0  0  0  0  0
   -7.9150   12.2780  -34.5490 C   0  0  0  0  0  0  0  0  0  0  0  0
   -9.1730   12.9400  -36.6820 C   0  0  0  0  0  0  0  0  0  0  0  0
   -8.5060   11.1100  -33.8920 N   0  0  0  0  0  0  0  0  0  0  0  0
   -6.7310   12.3310  -34.8040 O   0  0  0  0  0  0  0  0  0  0  0  0
  -10.3460   13.7680  -37.1900 C   0  0  0  0  0  0  0  0  0  0  0  0
  -11.6330   13.4790  -36.7590 C   0  0  0  0  0  0  0  0  0  0  0  0
  -10.1200   14.7840  -38.1310 C   0  0  0  0  0  0  0  0  0  0  0  0
  -12.7160   14.2140  -37.2600 C   0  0  0  0  0  0  0  0  0  0  0  0
  -11.2050   15.5220  -38.6290 C   0  0  0  0  0  0  0  0  0  0  0  0
  -12.4920   15.2320  -38.1910 C   0  0  0  0  0  0  0  0  0  0  0  0
  -13.5350   15.9120  -38.6740 F   0  0  0  0  0  0  0  0  0  0  0  0
  2  1  1  0
  1  3  2  0
  4  2  1  1
  5  4  1  0
  4  6  1  0
  5  7  1  0
  5  8  2  0
  6  9  1  0
  6 10  1  0
 11  7  1  6
 11 12  1  0
 11 13  1  0
 14 12  1  0
 12 15  2  0
 13 16  1  0
 16 17  2  0
 16 18  1  0
 17 19  1  0
 20 18  2  0
 19 21  2  0
 21 20  1  0
 21 22  1  0
A    2
 N58
A    3
 O60
A    4
 C57
A    5
 C01
A    6
 C78
A    7
 C02
A    8
 O03
A    9
 C81
A   10
 C82
A   11
 C04
A   12
 C47
A   13
 C05
A   15
 O48
A   16
 C06
A   17
 C07
A   18
 C11
A   19
 C08
A   20
 C10
A   21
 C09
A   22
 F1 
M  END
>  <XChem_code>  (656) 
AG7§14

>  <Occupancy>  (656) 
[1.0, 1.0, 1.0, 1.0, 1.0, 1.0, 1.0, 1.0, 1.0, 1.0, 1.0, 1.0, 1.0, 1.0, 1.0, 1.0, 1.0, 1.0, 1.0, 1.0, 1.0, 1.0, 1.0, 1.0, 1.0, 1.0, 1.0, 1.0, 1.0, 1.0, 1.0, 1.0, 1.0, 1.0, 1.0, 1.0, 1.0, 1.0, 1.0, 1.0, 1.0, 1.0, 1.0, 1.0]

>  <TempFactor>  (656) 
[18.65, 18.72, 21.92, 17.65, 24.86, 15.28, 18.72, 30.43, 27.21, 19.54, 23.37, 32.17, 36.23, 46.57, 43.77, 41.12, 38.94, 15.18, 15.28, 13.93, 16.17, 15.35, 15.96, 15.01, 19.51, 19.89, 20.9, 31.74, 18.14, 17.75, 18.83, 41.08, 57.06, 15.9, 16.12, 18.19, 20.0, 16.9, 18.42, 18.16, 18.76, 20.9, 15.53, 47.08]

>  <accession>  (656) 
3QZQ_A

>  <description>  (656) 
Chain A, 3C protein [Enterovirus A71]

>  <evalue>  (656) 
7.17784e-59

>  <pdb_code>  (656) 
3QZQ

>  <chain>  (656) 
A

>  <ligands>  (656) 
[{'chain_id': 'A', 'author_residue_number': 501, 'author_insertion_code': '', 'chem_comp_id': 'AG7', 'alternate_conformers': 0, 'entity_id': 2, 'struct_asym_id': 'E', 'residue_number': 1, 'chem_comp_name': '4-{2-(4-FLUORO-BENZYL)-6-METHYL-5-[(5-METHYL-ISOXAZOLE-3-CARBONYL)-AMINO]-4-OXO-HEPTANOYLAMINO}-5-(2-OXO-PYRROLIDIN-3-YL)-PENTANOIC ACID ETHYL ESTER', 'weight': 600.678, 'carbohydrate_polymer': False, 'branch_name': ''}, {'chain_id': 'B', 'author_residue_number': 501, 'author_insertion_code': '', 'chem_comp_id': 'AG7', 'alternate_conformers': 0, 'entity_id': 2, 'struct_asym_id': 'F', 'residue_number': 1, 'chem_comp_name': '4-{2-(4-FLUORO-BENZYL)-6-METHYL-5-[(5-METHYL-ISOXAZOLE-3-CARBONYL)-AMINO]-4-OXO-HEPTANOYLAMINO}-5-(2-OXO-PYRROLIDIN-3-YL)-PENTANOIC ACID ETHYL ESTER', 'weight': 600.678, 'carbohydrate_polymer': False, 'branch_name': ''}, {'chain_id': 'C', 'author_residue_number': 501, 'author_insertion_code': '', 'chem_comp_id': 'AG7', 'alternate_conformers': 0, 'entity_id': 2, 'struct_asym_id': 'G', 'residue_number': 1, 'chem_comp_name': '4-{2-(4-FLUORO-BENZYL)-6-METHYL-5-[(5-METHYL-ISOXAZOLE-3-CARBONYL)-AMINO]-4-OXO-HEPTANOYLAMINO}-5-(2-OXO-PYRROLIDIN-3-YL)-PENTANOIC ACID ETHYL ESTER', 'weight': 600.678, 'carbohydrate_polymer': False, 'branch_name': ''}, {'chain_id': 'D', 'author_residue_number': 501, 'author_insertion_code': '', 'chem_comp_id': 'AG7', 'alternate_conformers': 0, 'entity_id': 2, 'struct_asym_id': 'H', 'residue_number': 1, 'chem_comp_name': '4-{2-(4-FLUORO-BENZYL)-6-METHYL-5-[(5-METHYL-ISOXAZOLE-3-CARBONYL)-AMINO]-4-OXO-HEPTANOYLAMINO}-5-(2-OXO-PYRROLIDIN-3-YL)-PENTANOIC ACID ETHYL ESTER', 'weight': 600.678, 'carbohydrate_polymer': False, 'branch_name': ''}]

>  <ligand_codes>  (656) 
['AG7', 'AG7', 'AG7', 'AG7']

>  <cofactor_codes>  (656) 
[]

>  <has_cofactor>  (656) 
False

>  <covalent>  (656) 
True

>  <base_name>  (656) 
3QZQ

>  <lig_resn>  (656) 
AG7

>  <lig_resi>  (656) 
501

>  <lig_chain>  (656) 
A

>  <lig_segi>  (656) 
E

>  <lig_alt>  (656) 


>  <polymer_chain>  (656) 
A

>  <single_smiles>  (656) 
CCOC(=O)CC[C@H](C[C@@H]1CCNC1=O)NC(=O)[C@@H](CC(=O)[C@@H](NC(=O)c2cc(C)on2)C(C)C)Cc3ccc(F)cc3

$$$$
AG7P14S17
     RDKit          3D

  6  6  0  0  0  0  0  0  0  0999 V2000
   -6.9490   11.1100  -31.3440 C   0  0  0  0  0  0  0  0  0  0  0  0
   -6.8820   10.9740  -29.8610 C   0  0  0  0  0  0  0  0  0  0  0  0
   -5.5910   11.5700  -31.7670 C   0  0  0  0  0  0  0  0  0  0  0  0
   -5.7440   11.6850  -29.4030 N   0  0  0  0  0  0  0  0  0  0  0  0
   -7.6250   10.3230  -29.1430 O   0  0  0  0  0  0  0  0  0  0  0  0
   -5.1300   12.3330  -30.5440 C   0  0  0  0  0  0  0  0  0  0  0  0
  1  2  1  0
  1  3  1  1
  2  4  1  0
  2  5  2  0
  6  3  1  0
  4  6  1  0
A    2
 C16
A    3
 C84
A    4
 N17
A    5
 O18
A    6
 C83
M  END
>  <XChem_code>  (657) 
AG7§14

>  <Occupancy>  (657) 
[1.0, 1.0, 1.0, 1.0, 1.0, 1.0, 1.0, 1.0, 1.0, 1.0, 1.0, 1.0, 1.0, 1.0, 1.0, 1.0, 1.0, 1.0, 1.0, 1.0, 1.0, 1.0, 1.0, 1.0, 1.0, 1.0, 1.0, 1.0, 1.0, 1.0, 1.0, 1.0, 1.0, 1.0, 1.0, 1.0, 1.0, 1.0, 1.0, 1.0, 1.0, 1.0, 1.0, 1.0]

>  <TempFactor>  (657) 
[18.65, 18.72, 21.92, 17.65, 24.86, 15.28, 18.72, 30.43, 27.21, 19.54, 23.37, 32.17, 36.23, 46.57, 43.77, 41.12, 38.94, 15.18, 15.28, 13.93, 16.17, 15.35, 15.96, 15.01, 19.51, 19.89, 20.9, 31.74, 18.14, 17.75, 18.83, 41.08, 57.06, 15.9, 16.12, 18.19, 20.0, 16.9, 18.42, 18.16, 18.76, 20.9, 15.53, 47.08]

>  <accession>  (657) 
3QZQ_A

>  <description>  (657) 
Chain A, 3C protein [Enterovirus A71]

>  <evalue>  (657) 
7.17784e-59

>  <pdb_code>  (657) 
3QZQ

>  <chain>  (657) 
A

>  <ligands>  (657) 
[{'chain_id': 'A', 'author_residue_number': 501, 'author_insertion_code': '', 'chem_comp_id': 'AG7', 'alternate_conformers': 0, 'entity_id': 2, 'struct_asym_id': 'E', 'residue_number': 1, 'chem_comp_name': '4-{2-(4-FLUORO-BENZYL)-6-METHYL-5-[(5-METHYL-ISOXAZOLE-3-CARBONYL)-AMINO]-4-OXO-HEPTANOYLAMINO}-5-(2-OXO-PYRROLIDIN-3-YL)-PENTANOIC ACID ETHYL ESTER', 'weight': 600.678, 'carbohydrate_polymer': False, 'branch_name': ''}, {'chain_id': 'B', 'author_residue_number': 501, 'author_insertion_code': '', 'chem_comp_id': 'AG7', 'alternate_conformers': 0, 'entity_id': 2, 'struct_asym_id': 'F', 'residue_number': 1, 'chem_comp_name': '4-{2-(4-FLUORO-BENZYL)-6-METHYL-5-[(5-METHYL-ISOXAZOLE-3-CARBONYL)-AMINO]-4-OXO-HEPTANOYLAMINO}-5-(2-OXO-PYRROLIDIN-3-YL)-PENTANOIC ACID ETHYL ESTER', 'weight': 600.678, 'carbohydrate_polymer': False, 'branch_name': ''}, {'chain_id': 'C', 'author_residue_number': 501, 'author_insertion_code': '', 'chem_comp_id': 'AG7', 'alternate_conformers': 0, 'entity_id': 2, 'struct_asym_id': 'G', 'residue_number': 1, 'chem_comp_name': '4-{2-(4-FLUORO-BENZYL)-6-METHYL-5-[(5-METHYL-ISOXAZOLE-3-CARBONYL)-AMINO]-4-OXO-HEPTANOYLAMINO}-5-(2-OXO-PYRROLIDIN-3-YL)-PENTANOIC ACID ETHYL ESTER', 'weight': 600.678, 'carbohydrate_polymer': False, 'branch_name': ''}, {'chain_id': 'D', 'author_residue_number': 501, 'author_insertion_code': '', 'chem_comp_id': 'AG7', 'alternate_conformers': 0, 'entity_id': 2, 'struct_asym_id': 'H', 'residue_number': 1, 'chem_comp_name': '4-{2-(4-FLUORO-BENZYL)-6-METHYL-5-[(5-METHYL-ISOXAZOLE-3-CARBONYL)-AMINO]-4-OXO-HEPTANOYLAMINO}-5-(2-OXO-PYRROLIDIN-3-YL)-PENTANOIC ACID ETHYL ESTER', 'weight': 600.678, 'carbohydrate_polymer': False, 'branch_name': ''}]

>  <ligand_codes>  (657) 
['AG7', 'AG7', 'AG7', 'AG7']

>  <cofactor_codes>  (657) 
[]

>  <has_cofactor>  (657) 
False

>  <covalent>  (657) 
True

>  <base_name>  (657) 
3QZQ

>  <lig_resn>  (657) 
AG7

>  <lig_resi>  (657) 
501

>  <lig_chain>  (657) 
A

>  <lig_segi>  (657) 
E

>  <lig_alt>  (657) 


>  <polymer_chain>  (657) 
A

>  <single_smiles>  (657) 
CCOC(=O)CC[C@H](C[C@@H]1CCNC1=O)NC(=O)[C@@H](CC(=O)[C@@H](NC(=O)c2cc(C)on2)C(C)C)Cc3ccc(F)cc3

$$$$
AG7P14S18
     RDKit          3D

 38 39  0  0  0  0  0  0  0  0999 V2000
   -7.3190    9.7870  -31.9670 C   0  0  0  0  0  0  0  0  0  0  0  0
   -7.7300    9.9240  -33.4360 C   0  0  2  0  0  0  0  0  0  0  0  0
   -8.5060   11.1100  -33.8920 N   0  0  0  0  0  0  0  0  0  0  0  0
   -7.7770    8.6160  -34.2440 C   0  0  2  0  0  0  0  0  0  0  0  0
   -7.9150   12.2780  -34.5490 C   0  0  0  0  0  0  0  0  0  0  0  0
   -7.7810    8.8240  -35.7420 C   0  0  0  0  0  0  0  0  0  0  0  0
   -9.7150    8.3890  -33.9240 R   0  0  0  0  0  0  0  0  0  0  0  0
   -8.8530   13.2790  -35.2310 C   0  0  1  0  0  0  0  0  0  0  0  0
   -6.7310   12.3310  -34.8040 O   0  0  0  0  0  0  0  0  0  0  0  0
   -6.3340    8.9960  -36.1790 C   0  0  0  0  0  0  0  0  0  0  0  0
   -9.0470   14.7330  -34.7430 C   0  0  0  0  0  0  0  0  0  0  0  0
   -9.1730   12.9400  -36.6820 C   0  0  0  0  0  0  0  0  0  0  0  0
   -6.0510    9.6750  -37.2240 O   0  0  0  0  0  0  0  0  0  0  0  0
   -5.4140    8.5070  -35.4860 O   0  0  0  0  0  0  0  0  0  0  0  0
   -8.5080   14.9300  -33.3220 C   0  0  0  0  0  0  0  0  0  0  0  0
  -10.3460   13.7680  -37.1900 C   0  0  0  0  0  0  0  0  0  0  0  0
   -4.7230    9.9930  -37.5080 C   0  0  0  0  0  0  0  0  0  0  0  0
   -8.8050   14.1230  -32.4480 O   0  0  0  0  0  0  0  0  0  0  0  0
   -8.1450   16.3840  -32.9140 C   0  0  1  0  0  0  0  0  0  0  0  0
  -11.6330   13.4790  -36.7590 C   0  0  0  0  0  0  0  0  0  0  0  0
  -10.1200   14.7840  -38.1310 C   0  0  0  0  0  0  0  0  0  0  0  0
   -4.6910   10.8400  -38.7540 C   0  0  0  0  0  0  0  0  0  0  0  0
   -8.5860   16.6350  -31.5420 N   0  0  0  0  0  0  0  0  0  0  0  0
   -6.6630   16.7160  -33.0960 C   0  0  0  0  0  0  0  0  0  0  0  0
  -12.7160   14.2140  -37.2600 C   0  0  0  0  0  0  0  0  0  0  0  0
  -11.2050   15.5220  -38.6290 C   0  0  0  0  0  0  0  0  0  0  0  0
   -9.5070   17.7220  -31.2510 C   0  0  0  0  0  0  0  0  0  0  0  0
   -6.3990   18.1350  -32.6670 C   0  0  0  0  0  0  0  0  0  0  0  0
   -5.8390   15.7750  -32.2840 C   0  0  0  0  0  0  0  0  0  0  0  0
  -12.4920   15.2320  -38.1910 C   0  0  0  0  0  0  0  0  0  0  0  0
  -10.0180   17.8700  -29.8390 C   0  0  0  0  0  0  0  0  0  0  0  0
   -9.9070   18.4670  -32.1230 O   0  0  0  0  0  0  0  0  0  0  0  0
  -13.5350   15.9120  -38.6740 F   0  0  0  0  0  0  0  0  0  0  0  0
  -10.9400   18.9000  -29.3490 C   0  0  0  0  0  0  0  0  0  0  0  0
   -9.7280   17.0810  -28.8080 N   0  0  0  0  0  0  0  0  0  0  0  0
  -11.0910   18.5810  -27.9530 C   0  0  0  0  0  0  0  0  0  0  0  0
  -10.3500   17.5030  -27.7220 O   0  0  0  0  0  0  0  0  0  0  0  0
  -11.9400   19.3230  -26.9590 C   0  0  0  0  0  0  0  0  0  0  0  0
  2  1  1  1
  3  2  1  0
  2  4  1  0
  3  5  1  0
  4  6  1  0
  4  7  1  1
  8  5  1  0
  5  9  2  0
  6 10  1  0
  8 11  1  6
  8 12  1  0
 10 13  1  0
 10 14  2  0
 15 11  1  0
 12 16  1  0
 13 17  1  0
 15 18  2  0
 15 19  1  0
 16 20  2  0
 16 21  1  0
 17 22  1  0
 19 23  1  1
 19 24  1  0
 20 25  1  0
 26 21  2  0
 23 27  1  0
 24 28  1  0
 24 29  1  0
 25 30  2  0
 30 26  1  0
 31 27  1  0
 27 32  2  0
 30 33  1  0
 31 34  1  0
 31 35  2  0
 34 36  2  0
 37 35  1  0
 36 38  1  0
 36 37  1  0
V    7 *
A    2
 C13
A    3
 N12
A    4
 C19
A    5
 C47
A    6
 C20
A    7
 X  
A    8
 C04
A    9
 O48
A   10
 C21
A   11
 C02
A   12
 C05
A   13
 O22
A   14
 O23
A   15
 C01
A   16
 C06
A   17
 C50
A   18
 O03
A   19
 C57
A   20
 C07
A   21
 C11
A   22
 C53
A   23
 N58
A   24
 C78
A   25
 C08
A   26
 C10
A   27
 C59
A   28
 C81
A   29
 C82
A   30
 C09
A   31
 C1 
A   32
 O60
A   33
 F1 
A   34
 C2 
A   35
 N5 
A   36
 C3 
A   37
 O4 
A   38
 C4 
M  END
>  <XChem_code>  (658) 
AG7§14

>  <Occupancy>  (658) 
[1.0, 1.0, 1.0, 1.0, 1.0, 1.0, 1.0, 1.0, 1.0, 1.0, 1.0, 1.0, 1.0, 1.0, 1.0, 1.0, 1.0, 1.0, 1.0, 1.0, 1.0, 1.0, 1.0, 1.0, 1.0, 1.0, 1.0, 1.0, 1.0, 1.0, 1.0, 1.0, 1.0, 1.0, 1.0, 1.0, 1.0, 1.0, 1.0, 1.0, 1.0, 1.0, 1.0, 1.0]

>  <TempFactor>  (658) 
[18.65, 18.72, 21.92, 17.65, 24.86, 15.28, 18.72, 30.43, 27.21, 19.54, 23.37, 32.17, 36.23, 46.57, 43.77, 41.12, 38.94, 15.18, 15.28, 13.93, 16.17, 15.35, 15.96, 15.01, 19.51, 19.89, 20.9, 31.74, 18.14, 17.75, 18.83, 41.08, 57.06, 15.9, 16.12, 18.19, 20.0, 16.9, 18.42, 18.16, 18.76, 20.9, 15.53, 47.08]

>  <accession>  (658) 
3QZQ_A

>  <description>  (658) 
Chain A, 3C protein [Enterovirus A71]

>  <evalue>  (658) 
7.17784e-59

>  <pdb_code>  (658) 
3QZQ

>  <chain>  (658) 
A

>  <ligands>  (658) 
[{'chain_id': 'A', 'author_residue_number': 501, 'author_insertion_code': '', 'chem_comp_id': 'AG7', 'alternate_conformers': 0, 'entity_id': 2, 'struct_asym_id': 'E', 'residue_number': 1, 'chem_comp_name': '4-{2-(4-FLUORO-BENZYL)-6-METHYL-5-[(5-METHYL-ISOXAZOLE-3-CARBONYL)-AMINO]-4-OXO-HEPTANOYLAMINO}-5-(2-OXO-PYRROLIDIN-3-YL)-PENTANOIC ACID ETHYL ESTER', 'weight': 600.678, 'carbohydrate_polymer': False, 'branch_name': ''}, {'chain_id': 'B', 'author_residue_number': 501, 'author_insertion_code': '', 'chem_comp_id': 'AG7', 'alternate_conformers': 0, 'entity_id': 2, 'struct_asym_id': 'F', 'residue_number': 1, 'chem_comp_name': '4-{2-(4-FLUORO-BENZYL)-6-METHYL-5-[(5-METHYL-ISOXAZOLE-3-CARBONYL)-AMINO]-4-OXO-HEPTANOYLAMINO}-5-(2-OXO-PYRROLIDIN-3-YL)-PENTANOIC ACID ETHYL ESTER', 'weight': 600.678, 'carbohydrate_polymer': False, 'branch_name': ''}, {'chain_id': 'C', 'author_residue_number': 501, 'author_insertion_code': '', 'chem_comp_id': 'AG7', 'alternate_conformers': 0, 'entity_id': 2, 'struct_asym_id': 'G', 'residue_number': 1, 'chem_comp_name': '4-{2-(4-FLUORO-BENZYL)-6-METHYL-5-[(5-METHYL-ISOXAZOLE-3-CARBONYL)-AMINO]-4-OXO-HEPTANOYLAMINO}-5-(2-OXO-PYRROLIDIN-3-YL)-PENTANOIC ACID ETHYL ESTER', 'weight': 600.678, 'carbohydrate_polymer': False, 'branch_name': ''}, {'chain_id': 'D', 'author_residue_number': 501, 'author_insertion_code': '', 'chem_comp_id': 'AG7', 'alternate_conformers': 0, 'entity_id': 2, 'struct_asym_id': 'H', 'residue_number': 1, 'chem_comp_name': '4-{2-(4-FLUORO-BENZYL)-6-METHYL-5-[(5-METHYL-ISOXAZOLE-3-CARBONYL)-AMINO]-4-OXO-HEPTANOYLAMINO}-5-(2-OXO-PYRROLIDIN-3-YL)-PENTANOIC ACID ETHYL ESTER', 'weight': 600.678, 'carbohydrate_polymer': False, 'branch_name': ''}]

>  <ligand_codes>  (658) 
['AG7', 'AG7', 'AG7', 'AG7']

>  <cofactor_codes>  (658) 
[]

>  <has_cofactor>  (658) 
False

>  <covalent>  (658) 
True

>  <base_name>  (658) 
3QZQ

>  <lig_resn>  (658) 
AG7

>  <lig_resi>  (658) 
501

>  <lig_chain>  (658) 
A

>  <lig_segi>  (658) 
E

>  <lig_alt>  (658) 


>  <polymer_chain>  (658) 
A

>  <single_smiles>  (658) 
CCOC(=O)CC[C@H](C[C@@H]1CCNC1=O)NC(=O)[C@@H](CC(=O)[C@@H](NC(=O)c2cc(C)on2)C(C)C)Cc3ccc(F)cc3

$$$$
AG7P14S19
     RDKit          3D

  7  7  0  0  0  0  0  0  0  0999 V2000
  -10.3460   13.7680  -37.1900 C   0  0  0  0  0  0  0  0  0  0  0  0
  -11.6330   13.4790  -36.7590 C   0  0  0  0  0  0  0  0  0  0  0  0
  -10.1200   14.7840  -38.1310 C   0  0  0  0  0  0  0  0  0  0  0  0
  -12.7160   14.2140  -37.2600 C   0  0  0  0  0  0  0  0  0  0  0  0
  -11.2050   15.5220  -38.6290 C   0  0  0  0  0  0  0  0  0  0  0  0
  -12.4920   15.2320  -38.1910 C   0  0  0  0  0  0  0  0  0  0  0  0
  -13.5350   15.9120  -38.6740 F   0  0  0  0  0  0  0  0  0  0  0  0
  1  2  2  0
  1  3  1  0
  2  4  1  0
  5  3  2  0
  4  6  2  0
  6  5  1  0
  6  7  1  0
A    2
 C07
A    3
 C11
A    4
 C08
A    5
 C10
A    6
 C09
A    7
 F1 
M  END
>  <XChem_code>  (659) 
AG7§14

>  <Occupancy>  (659) 
[1.0, 1.0, 1.0, 1.0, 1.0, 1.0, 1.0, 1.0, 1.0, 1.0, 1.0, 1.0, 1.0, 1.0, 1.0, 1.0, 1.0, 1.0, 1.0, 1.0, 1.0, 1.0, 1.0, 1.0, 1.0, 1.0, 1.0, 1.0, 1.0, 1.0, 1.0, 1.0, 1.0, 1.0, 1.0, 1.0, 1.0, 1.0, 1.0, 1.0, 1.0, 1.0, 1.0, 1.0]

>  <TempFactor>  (659) 
[18.65, 18.72, 21.92, 17.65, 24.86, 15.28, 18.72, 30.43, 27.21, 19.54, 23.37, 32.17, 36.23, 46.57, 43.77, 41.12, 38.94, 15.18, 15.28, 13.93, 16.17, 15.35, 15.96, 15.01, 19.51, 19.89, 20.9, 31.74, 18.14, 17.75, 18.83, 41.08, 57.06, 15.9, 16.12, 18.19, 20.0, 16.9, 18.42, 18.16, 18.76, 20.9, 15.53, 47.08]

>  <accession>  (659) 
3QZQ_A

>  <description>  (659) 
Chain A, 3C protein [Enterovirus A71]

>  <evalue>  (659) 
7.17784e-59

>  <pdb_code>  (659) 
3QZQ

>  <chain>  (659) 
A

>  <ligands>  (659) 
[{'chain_id': 'A', 'author_residue_number': 501, 'author_insertion_code': '', 'chem_comp_id': 'AG7', 'alternate_conformers': 0, 'entity_id': 2, 'struct_asym_id': 'E', 'residue_number': 1, 'chem_comp_name': '4-{2-(4-FLUORO-BENZYL)-6-METHYL-5-[(5-METHYL-ISOXAZOLE-3-CARBONYL)-AMINO]-4-OXO-HEPTANOYLAMINO}-5-(2-OXO-PYRROLIDIN-3-YL)-PENTANOIC ACID ETHYL ESTER', 'weight': 600.678, 'carbohydrate_polymer': False, 'branch_name': ''}, {'chain_id': 'B', 'author_residue_number': 501, 'author_insertion_code': '', 'chem_comp_id': 'AG7', 'alternate_conformers': 0, 'entity_id': 2, 'struct_asym_id': 'F', 'residue_number': 1, 'chem_comp_name': '4-{2-(4-FLUORO-BENZYL)-6-METHYL-5-[(5-METHYL-ISOXAZOLE-3-CARBONYL)-AMINO]-4-OXO-HEPTANOYLAMINO}-5-(2-OXO-PYRROLIDIN-3-YL)-PENTANOIC ACID ETHYL ESTER', 'weight': 600.678, 'carbohydrate_polymer': False, 'branch_name': ''}, {'chain_id': 'C', 'author_residue_number': 501, 'author_insertion_code': '', 'chem_comp_id': 'AG7', 'alternate_conformers': 0, 'entity_id': 2, 'struct_asym_id': 'G', 'residue_number': 1, 'chem_comp_name': '4-{2-(4-FLUORO-BENZYL)-6-METHYL-5-[(5-METHYL-ISOXAZOLE-3-CARBONYL)-AMINO]-4-OXO-HEPTANOYLAMINO}-5-(2-OXO-PYRROLIDIN-3-YL)-PENTANOIC ACID ETHYL ESTER', 'weight': 600.678, 'carbohydrate_polymer': False, 'branch_name': ''}, {'chain_id': 'D', 'author_residue_number': 501, 'author_insertion_code': '', 'chem_comp_id': 'AG7', 'alternate_conformers': 0, 'entity_id': 2, 'struct_asym_id': 'H', 'residue_number': 1, 'chem_comp_name': '4-{2-(4-FLUORO-BENZYL)-6-METHYL-5-[(5-METHYL-ISOXAZOLE-3-CARBONYL)-AMINO]-4-OXO-HEPTANOYLAMINO}-5-(2-OXO-PYRROLIDIN-3-YL)-PENTANOIC ACID ETHYL ESTER', 'weight': 600.678, 'carbohydrate_polymer': False, 'branch_name': ''}]

>  <ligand_codes>  (659) 
['AG7', 'AG7', 'AG7', 'AG7']

>  <cofactor_codes>  (659) 
[]

>  <has_cofactor>  (659) 
False

>  <covalent>  (659) 
True

>  <base_name>  (659) 
3QZQ

>  <lig_resn>  (659) 
AG7

>  <lig_resi>  (659) 
501

>  <lig_chain>  (659) 
A

>  <lig_segi>  (659) 
E

>  <lig_alt>  (659) 


>  <polymer_chain>  (659) 
A

>  <single_smiles>  (659) 
CCOC(=O)CC[C@H](C[C@@H]1CCNC1=O)NC(=O)[C@@H](CC(=O)[C@@H](NC(=O)c2cc(C)on2)C(C)C)Cc3ccc(F)cc3

$$$$
AG7P14S20
     RDKit          3D

 37 38  0  0  0  0  0  0  0  0999 V2000
   -9.1730   12.9400  -36.6820 C   0  0  0  0  0  0  0  0  0  0  0  0
   -8.8530   13.2790  -35.2310 C   0  0  2  0  0  0  0  0  0  0  0  0
   -9.0470   14.7330  -34.7430 C   0  0  0  0  0  0  0  0  0  0  0  0
   -7.9150   12.2780  -34.5490 C   0  0  0  0  0  0  0  0  0  0  0  0
   -8.5080   14.9300  -33.3220 C   0  0  0  0  0  0  0  0  0  0  0  0
   -8.5060   11.1100  -33.8920 N   0  0  0  0  0  0  0  0  0  0  0  0
   -6.7310   12.3310  -34.8040 O   0  0  0  0  0  0  0  0  0  0  0  0
   -8.8050   14.1230  -32.4480 O   0  0  0  0  0  0  0  0  0  0  0  0
   -8.1450   16.3840  -32.9140 C   0  0  1  0  0  0  0  0  0  0  0  0
   -7.7300    9.9240  -33.4360 C   0  0  1  0  0  0  0  0  0  0  0  0
   -8.5860   16.6350  -31.5420 N   0  0  0  0  0  0  0  0  0  0  0  0
   -6.6630   16.7160  -33.0960 C   0  0  0  0  0  0  0  0  0  0  0  0
   -7.3190    9.7870  -31.9670 C   0  0  0  0  0  0  0  0  0  0  0  0
   -7.7770    8.6160  -34.2440 C   0  0  2  0  0  0  0  0  0  0  0  0
   -9.5070   17.7220  -31.2510 C   0  0  0  0  0  0  0  0  0  0  0  0
   -6.3990   18.1350  -32.6670 C   0  0  0  0  0  0  0  0  0  0  0  0
   -5.8390   15.7750  -32.2840 C   0  0  0  0  0  0  0  0  0  0  0  0
   -6.9490   11.1100  -31.3440 C   0  0  1  0  0  0  0  0  0  0  0  0
   -7.7810    8.8240  -35.7420 C   0  0  0  0  0  0  0  0  0  0  0  0
   -9.7150    8.3890  -33.9240 R   0  0  0  0  0  0  0  0  0  0  0  0
  -10.0180   17.8700  -29.8390 C   0  0  0  0  0  0  0  0  0  0  0  0
   -9.9070   18.4670  -32.1230 O   0  0  0  0  0  0  0  0  0  0  0  0
   -6.8820   10.9740  -29.8610 C   0  0  0  0  0  0  0  0  0  0  0  0
   -5.5910   11.5700  -31.7670 C   0  0  0  0  0  0  0  0  0  0  0  0
   -6.3340    8.9960  -36.1790 C   0  0  0  0  0  0  0  0  0  0  0  0
  -10.9400   18.9000  -29.3490 C   0  0  0  0  0  0  0  0  0  0  0  0
   -9.7280   17.0810  -28.8080 N   0  0  0  0  0  0  0  0  0  0  0  0
   -5.7440   11.6850  -29.4030 N   0  0  0  0  0  0  0  0  0  0  0  0
   -7.6250   10.3230  -29.1430 O   0  0  0  0  0  0  0  0  0  0  0  0
   -5.1300   12.3330  -30.5440 C   0  0  0  0  0  0  0  0  0  0  0  0
   -6.0510    9.6750  -37.2240 O   0  0  0  0  0  0  0  0  0  0  0  0
   -5.4140    8.5070  -35.4860 O   0  0  0  0  0  0  0  0  0  0  0  0
  -11.0910   18.5810  -27.9530 C   0  0  0  0  0  0  0  0  0  0  0  0
  -10.3500   17.5030  -27.7220 O   0  0  0  0  0  0  0  0  0  0  0  0
   -4.7230    9.9930  -37.5080 C   0  0  0  0  0  0  0  0  0  0  0  0
  -11.9400   19.3230  -26.9590 C   0  0  0  0  0  0  0  0  0  0  0  0
   -4.6910   10.8400  -38.7540 C   0  0  0  0  0  0  0  0  0  0  0  0
  2  1  1  6
  2  3  1  0
  2  4  1  0
  5  3  1  0
  6  4  1  0
  4  7  2  0
  5  8  2  0
  5  9  1  0
  6 10  1  0
  9 11  1  1
  9 12  1  0
 10 13  1  1
 10 14  1  0
 11 15  1  0
 12 16  1  0
 12 17  1  0
 18 13  1  6
 14 19  1  0
 14 20  1  1
 21 15  1  0
 15 22  2  0
 18 23  1  0
 18 24  1  0
 19 25  1  0
 21 26  1  0
 21 27  2  0
 23 28  1  0
 23 29  2  0
 30 24  1  0
 25 31  1  0
 25 32  2  0
 26 33  2  0
 34 27  1  0
 28 30  1  0
 31 35  1  0
 33 36  1  0
 33 34  1  0
 35 37  1  0
V   20 *
A    2
 C04
A    3
 C02
A    4
 C47
A    5
 C01
A    6
 N12
A    7
 O48
A    8
 O03
A    9
 C57
A   10
 C13
A   11
 N58
A   12
 C78
A   13
 C14
A   14
 C19
A   15
 C59
A   16
 C81
A   17
 C82
A   18
 C15
A   19
 C20
A   20
 X  
A   21
 C1 
A   22
 O60
A   23
 C16
A   24
 C84
A   25
 C21
A   26
 C2 
A   27
 N5 
A   28
 N17
A   29
 O18
A   30
 C83
A   31
 O22
A   32
 O23
A   33
 C3 
A   34
 O4 
A   35
 C50
A   36
 C4 
A   37
 C53
M  END
>  <XChem_code>  (660) 
AG7§14

>  <Occupancy>  (660) 
[1.0, 1.0, 1.0, 1.0, 1.0, 1.0, 1.0, 1.0, 1.0, 1.0, 1.0, 1.0, 1.0, 1.0, 1.0, 1.0, 1.0, 1.0, 1.0, 1.0, 1.0, 1.0, 1.0, 1.0, 1.0, 1.0, 1.0, 1.0, 1.0, 1.0, 1.0, 1.0, 1.0, 1.0, 1.0, 1.0, 1.0, 1.0, 1.0, 1.0, 1.0, 1.0, 1.0, 1.0]

>  <TempFactor>  (660) 
[18.65, 18.72, 21.92, 17.65, 24.86, 15.28, 18.72, 30.43, 27.21, 19.54, 23.37, 32.17, 36.23, 46.57, 43.77, 41.12, 38.94, 15.18, 15.28, 13.93, 16.17, 15.35, 15.96, 15.01, 19.51, 19.89, 20.9, 31.74, 18.14, 17.75, 18.83, 41.08, 57.06, 15.9, 16.12, 18.19, 20.0, 16.9, 18.42, 18.16, 18.76, 20.9, 15.53, 47.08]

>  <accession>  (660) 
3QZQ_A

>  <description>  (660) 
Chain A, 3C protein [Enterovirus A71]

>  <evalue>  (660) 
7.17784e-59

>  <pdb_code>  (660) 
3QZQ

>  <chain>  (660) 
A

>  <ligands>  (660) 
[{'chain_id': 'A', 'author_residue_number': 501, 'author_insertion_code': '', 'chem_comp_id': 'AG7', 'alternate_conformers': 0, 'entity_id': 2, 'struct_asym_id': 'E', 'residue_number': 1, 'chem_comp_name': '4-{2-(4-FLUORO-BENZYL)-6-METHYL-5-[(5-METHYL-ISOXAZOLE-3-CARBONYL)-AMINO]-4-OXO-HEPTANOYLAMINO}-5-(2-OXO-PYRROLIDIN-3-YL)-PENTANOIC ACID ETHYL ESTER', 'weight': 600.678, 'carbohydrate_polymer': False, 'branch_name': ''}, {'chain_id': 'B', 'author_residue_number': 501, 'author_insertion_code': '', 'chem_comp_id': 'AG7', 'alternate_conformers': 0, 'entity_id': 2, 'struct_asym_id': 'F', 'residue_number': 1, 'chem_comp_name': '4-{2-(4-FLUORO-BENZYL)-6-METHYL-5-[(5-METHYL-ISOXAZOLE-3-CARBONYL)-AMINO]-4-OXO-HEPTANOYLAMINO}-5-(2-OXO-PYRROLIDIN-3-YL)-PENTANOIC ACID ETHYL ESTER', 'weight': 600.678, 'carbohydrate_polymer': False, 'branch_name': ''}, {'chain_id': 'C', 'author_residue_number': 501, 'author_insertion_code': '', 'chem_comp_id': 'AG7', 'alternate_conformers': 0, 'entity_id': 2, 'struct_asym_id': 'G', 'residue_number': 1, 'chem_comp_name': '4-{2-(4-FLUORO-BENZYL)-6-METHYL-5-[(5-METHYL-ISOXAZOLE-3-CARBONYL)-AMINO]-4-OXO-HEPTANOYLAMINO}-5-(2-OXO-PYRROLIDIN-3-YL)-PENTANOIC ACID ETHYL ESTER', 'weight': 600.678, 'carbohydrate_polymer': False, 'branch_name': ''}, {'chain_id': 'D', 'author_residue_number': 501, 'author_insertion_code': '', 'chem_comp_id': 'AG7', 'alternate_conformers': 0, 'entity_id': 2, 'struct_asym_id': 'H', 'residue_number': 1, 'chem_comp_name': '4-{2-(4-FLUORO-BENZYL)-6-METHYL-5-[(5-METHYL-ISOXAZOLE-3-CARBONYL)-AMINO]-4-OXO-HEPTANOYLAMINO}-5-(2-OXO-PYRROLIDIN-3-YL)-PENTANOIC ACID ETHYL ESTER', 'weight': 600.678, 'carbohydrate_polymer': False, 'branch_name': ''}]

>  <ligand_codes>  (660) 
['AG7', 'AG7', 'AG7', 'AG7']

>  <cofactor_codes>  (660) 
[]

>  <has_cofactor>  (660) 
False

>  <covalent>  (660) 
True

>  <base_name>  (660) 
3QZQ

>  <lig_resn>  (660) 
AG7

>  <lig_resi>  (660) 
501

>  <lig_chain>  (660) 
A

>  <lig_segi>  (660) 
E

>  <lig_alt>  (660) 


>  <polymer_chain>  (660) 
A

>  <single_smiles>  (660) 
CCOC(=O)CC[C@H](C[C@@H]1CCNC1=O)NC(=O)[C@@H](CC(=O)[C@@H](NC(=O)c2cc(C)on2)C(C)C)Cc3ccc(F)cc3

$$$$
AG7P14S21
     RDKit          3D

 11 10  0  0  0  0  0  0  0  0999 V2000
   -7.3190    9.7870  -31.9670 C   0  0  0  0  0  0  0  0  0  0  0  0
   -7.7300    9.9240  -33.4360 C   0  0  2  0  0  0  0  0  0  0  0  0
   -8.5060   11.1100  -33.8920 N   0  0  0  0  0  0  0  0  0  0  0  0
   -7.7770    8.6160  -34.2440 C   0  0  2  0  0  0  0  0  0  0  0  0
   -7.7810    8.8240  -35.7420 C   0  0  0  0  0  0  0  0  0  0  0  0
   -9.7150    8.3890  -33.9240 R   0  0  0  0  0  0  0  0  0  0  0  0
   -6.3340    8.9960  -36.1790 C   0  0  0  0  0  0  0  0  0  0  0  0
   -6.0510    9.6750  -37.2240 O   0  0  0  0  0  0  0  0  0  0  0  0
   -5.4140    8.5070  -35.4860 O   0  0  0  0  0  0  0  0  0  0  0  0
   -4.7230    9.9930  -37.5080 C   0  0  0  0  0  0  0  0  0  0  0  0
   -4.6910   10.8400  -38.7540 C   0  0  0  0  0  0  0  0  0  0  0  0
  2  1  1  1
  3  2  1  0
  2  4  1  0
  4  5  1  0
  4  6  1  1
  5  7  1  0
  7  8  1  0
  7  9  2  0
  8 10  1  0
 10 11  1  0
V    6 *
A    2
 C13
A    4
 C19
A    5
 C20
A    6
 X  
A    7
 C21
A    8
 O22
A    9
 O23
A   10
 C50
A   11
 C53
M  END
>  <XChem_code>  (661) 
AG7§14

>  <Occupancy>  (661) 
[1.0, 1.0, 1.0, 1.0, 1.0, 1.0, 1.0, 1.0, 1.0, 1.0, 1.0, 1.0, 1.0, 1.0, 1.0, 1.0, 1.0, 1.0, 1.0, 1.0, 1.0, 1.0, 1.0, 1.0, 1.0, 1.0, 1.0, 1.0, 1.0, 1.0, 1.0, 1.0, 1.0, 1.0, 1.0, 1.0, 1.0, 1.0, 1.0, 1.0, 1.0, 1.0, 1.0, 1.0]

>  <TempFactor>  (661) 
[18.65, 18.72, 21.92, 17.65, 24.86, 15.28, 18.72, 30.43, 27.21, 19.54, 23.37, 32.17, 36.23, 46.57, 43.77, 41.12, 38.94, 15.18, 15.28, 13.93, 16.17, 15.35, 15.96, 15.01, 19.51, 19.89, 20.9, 31.74, 18.14, 17.75, 18.83, 41.08, 57.06, 15.9, 16.12, 18.19, 20.0, 16.9, 18.42, 18.16, 18.76, 20.9, 15.53, 47.08]

>  <accession>  (661) 
3QZQ_A

>  <description>  (661) 
Chain A, 3C protein [Enterovirus A71]

>  <evalue>  (661) 
7.17784e-59

>  <pdb_code>  (661) 
3QZQ

>  <chain>  (661) 
A

>  <ligands>  (661) 
[{'chain_id': 'A', 'author_residue_number': 501, 'author_insertion_code': '', 'chem_comp_id': 'AG7', 'alternate_conformers': 0, 'entity_id': 2, 'struct_asym_id': 'E', 'residue_number': 1, 'chem_comp_name': '4-{2-(4-FLUORO-BENZYL)-6-METHYL-5-[(5-METHYL-ISOXAZOLE-3-CARBONYL)-AMINO]-4-OXO-HEPTANOYLAMINO}-5-(2-OXO-PYRROLIDIN-3-YL)-PENTANOIC ACID ETHYL ESTER', 'weight': 600.678, 'carbohydrate_polymer': False, 'branch_name': ''}, {'chain_id': 'B', 'author_residue_number': 501, 'author_insertion_code': '', 'chem_comp_id': 'AG7', 'alternate_conformers': 0, 'entity_id': 2, 'struct_asym_id': 'F', 'residue_number': 1, 'chem_comp_name': '4-{2-(4-FLUORO-BENZYL)-6-METHYL-5-[(5-METHYL-ISOXAZOLE-3-CARBONYL)-AMINO]-4-OXO-HEPTANOYLAMINO}-5-(2-OXO-PYRROLIDIN-3-YL)-PENTANOIC ACID ETHYL ESTER', 'weight': 600.678, 'carbohydrate_polymer': False, 'branch_name': ''}, {'chain_id': 'C', 'author_residue_number': 501, 'author_insertion_code': '', 'chem_comp_id': 'AG7', 'alternate_conformers': 0, 'entity_id': 2, 'struct_asym_id': 'G', 'residue_number': 1, 'chem_comp_name': '4-{2-(4-FLUORO-BENZYL)-6-METHYL-5-[(5-METHYL-ISOXAZOLE-3-CARBONYL)-AMINO]-4-OXO-HEPTANOYLAMINO}-5-(2-OXO-PYRROLIDIN-3-YL)-PENTANOIC ACID ETHYL ESTER', 'weight': 600.678, 'carbohydrate_polymer': False, 'branch_name': ''}, {'chain_id': 'D', 'author_residue_number': 501, 'author_insertion_code': '', 'chem_comp_id': 'AG7', 'alternate_conformers': 0, 'entity_id': 2, 'struct_asym_id': 'H', 'residue_number': 1, 'chem_comp_name': '4-{2-(4-FLUORO-BENZYL)-6-METHYL-5-[(5-METHYL-ISOXAZOLE-3-CARBONYL)-AMINO]-4-OXO-HEPTANOYLAMINO}-5-(2-OXO-PYRROLIDIN-3-YL)-PENTANOIC ACID ETHYL ESTER', 'weight': 600.678, 'carbohydrate_polymer': False, 'branch_name': ''}]

>  <ligand_codes>  (661) 
['AG7', 'AG7', 'AG7', 'AG7']

>  <cofactor_codes>  (661) 
[]

>  <has_cofactor>  (661) 
False

>  <covalent>  (661) 
True

>  <base_name>  (661) 
3QZQ

>  <lig_resn>  (661) 
AG7

>  <lig_resi>  (661) 
501

>  <lig_chain>  (661) 
A

>  <lig_segi>  (661) 
E

>  <lig_alt>  (661) 


>  <polymer_chain>  (661) 
A

>  <single_smiles>  (661) 
CCOC(=O)CC[C@H](C[C@@H]1CCNC1=O)NC(=O)[C@@H](CC(=O)[C@@H](NC(=O)c2cc(C)on2)C(C)C)Cc3ccc(F)cc3

$$$$
AG7P14S22
     RDKit          3D

 20 20  0  0  0  0  0  0  0  0999 V2000
   -9.1730   12.9400  -36.6820 C   0  0  0  0  0  0  0  0  0  0  0  0
   -8.8530   13.2790  -35.2310 C   0  0  1  0  0  0  0  0  0  0  0  0
   -7.9150   12.2780  -34.5490 C   0  0  0  0  0  0  0  0  0  0  0  0
   -9.0470   14.7330  -34.7430 C   0  0  0  0  0  0  0  0  0  0  0  0
   -6.7310   12.3310  -34.8040 O   0  0  0  0  0  0  0  0  0  0  0  0
   -8.5080   14.9300  -33.3220 C   0  0  0  0  0  0  0  0  0  0  0  0
   -8.8050   14.1230  -32.4480 O   0  0  0  0  0  0  0  0  0  0  0  0
   -8.1450   16.3840  -32.9140 C   0  0  1  0  0  0  0  0  0  0  0  0
   -8.5860   16.6350  -31.5420 N   0  0  0  0  0  0  0  0  0  0  0  0
   -6.6630   16.7160  -33.0960 C   0  0  0  0  0  0  0  0  0  0  0  0
   -9.5070   17.7220  -31.2510 C   0  0  0  0  0  0  0  0  0  0  0  0
   -6.3990   18.1350  -32.6670 C   0  0  0  0  0  0  0  0  0  0  0  0
   -5.8390   15.7750  -32.2840 C   0  0  0  0  0  0  0  0  0  0  0  0
  -10.0180   17.8700  -29.8390 C   0  0  0  0  0  0  0  0  0  0  0  0
   -9.9070   18.4670  -32.1230 O   0  0  0  0  0  0  0  0  0  0  0  0
  -10.9400   18.9000  -29.3490 C   0  0  0  0  0  0  0  0  0  0  0  0
   -9.7280   17.0810  -28.8080 N   0  0  0  0  0  0  0  0  0  0  0  0
  -11.0910   18.5810  -27.9530 C   0  0  0  0  0  0  0  0  0  0  0  0
  -10.3500   17.5030  -27.7220 O   0  0  0  0  0  0  0  0  0  0  0  0
  -11.9400   19.3230  -26.9590 C   0  0  0  0  0  0  0  0  0  0  0  0
  2  1  1  6
  2  3  1  0
  2  4  1  0
  3  5  2  0
  6  4  1  0
  6  7  2  0
  6  8  1  0
  8  9  1  1
  8 10  1  0
  9 11  1  0
 10 12  1  0
 10 13  1  0
 14 11  1  0
 11 15  2  0
 14 16  1  0
 14 17  2  0
 16 18  2  0
 19 17  1  0
 18 20  1  0
 18 19  1  0
A    2
 C04
A    4
 C02
A    5
 O48
A    6
 C01
A    7
 O03
A    8
 C57
A    9
 N58
A   10
 C78
A   11
 C59
A   12
 C81
A   13
 C82
A   14
 C1 
A   15
 O60
A   16
 C2 
A   17
 N5 
A   18
 C3 
A   19
 O4 
A   20
 C4 
M  END
>  <XChem_code>  (662) 
AG7§14

>  <Occupancy>  (662) 
[1.0, 1.0, 1.0, 1.0, 1.0, 1.0, 1.0, 1.0, 1.0, 1.0, 1.0, 1.0, 1.0, 1.0, 1.0, 1.0, 1.0, 1.0, 1.0, 1.0, 1.0, 1.0, 1.0, 1.0, 1.0, 1.0, 1.0, 1.0, 1.0, 1.0, 1.0, 1.0, 1.0, 1.0, 1.0, 1.0, 1.0, 1.0, 1.0, 1.0, 1.0, 1.0, 1.0, 1.0]

>  <TempFactor>  (662) 
[18.65, 18.72, 21.92, 17.65, 24.86, 15.28, 18.72, 30.43, 27.21, 19.54, 23.37, 32.17, 36.23, 46.57, 43.77, 41.12, 38.94, 15.18, 15.28, 13.93, 16.17, 15.35, 15.96, 15.01, 19.51, 19.89, 20.9, 31.74, 18.14, 17.75, 18.83, 41.08, 57.06, 15.9, 16.12, 18.19, 20.0, 16.9, 18.42, 18.16, 18.76, 20.9, 15.53, 47.08]

>  <accession>  (662) 
3QZQ_A

>  <description>  (662) 
Chain A, 3C protein [Enterovirus A71]

>  <evalue>  (662) 
7.17784e-59

>  <pdb_code>  (662) 
3QZQ

>  <chain>  (662) 
A

>  <ligands>  (662) 
[{'chain_id': 'A', 'author_residue_number': 501, 'author_insertion_code': '', 'chem_comp_id': 'AG7', 'alternate_conformers': 0, 'entity_id': 2, 'struct_asym_id': 'E', 'residue_number': 1, 'chem_comp_name': '4-{2-(4-FLUORO-BENZYL)-6-METHYL-5-[(5-METHYL-ISOXAZOLE-3-CARBONYL)-AMINO]-4-OXO-HEPTANOYLAMINO}-5-(2-OXO-PYRROLIDIN-3-YL)-PENTANOIC ACID ETHYL ESTER', 'weight': 600.678, 'carbohydrate_polymer': False, 'branch_name': ''}, {'chain_id': 'B', 'author_residue_number': 501, 'author_insertion_code': '', 'chem_comp_id': 'AG7', 'alternate_conformers': 0, 'entity_id': 2, 'struct_asym_id': 'F', 'residue_number': 1, 'chem_comp_name': '4-{2-(4-FLUORO-BENZYL)-6-METHYL-5-[(5-METHYL-ISOXAZOLE-3-CARBONYL)-AMINO]-4-OXO-HEPTANOYLAMINO}-5-(2-OXO-PYRROLIDIN-3-YL)-PENTANOIC ACID ETHYL ESTER', 'weight': 600.678, 'carbohydrate_polymer': False, 'branch_name': ''}, {'chain_id': 'C', 'author_residue_number': 501, 'author_insertion_code': '', 'chem_comp_id': 'AG7', 'alternate_conformers': 0, 'entity_id': 2, 'struct_asym_id': 'G', 'residue_number': 1, 'chem_comp_name': '4-{2-(4-FLUORO-BENZYL)-6-METHYL-5-[(5-METHYL-ISOXAZOLE-3-CARBONYL)-AMINO]-4-OXO-HEPTANOYLAMINO}-5-(2-OXO-PYRROLIDIN-3-YL)-PENTANOIC ACID ETHYL ESTER', 'weight': 600.678, 'carbohydrate_polymer': False, 'branch_name': ''}, {'chain_id': 'D', 'author_residue_number': 501, 'author_insertion_code': '', 'chem_comp_id': 'AG7', 'alternate_conformers': 0, 'entity_id': 2, 'struct_asym_id': 'H', 'residue_number': 1, 'chem_comp_name': '4-{2-(4-FLUORO-BENZYL)-6-METHYL-5-[(5-METHYL-ISOXAZOLE-3-CARBONYL)-AMINO]-4-OXO-HEPTANOYLAMINO}-5-(2-OXO-PYRROLIDIN-3-YL)-PENTANOIC ACID ETHYL ESTER', 'weight': 600.678, 'carbohydrate_polymer': False, 'branch_name': ''}]

>  <ligand_codes>  (662) 
['AG7', 'AG7', 'AG7', 'AG7']

>  <cofactor_codes>  (662) 
[]

>  <has_cofactor>  (662) 
False

>  <covalent>  (662) 
True

>  <base_name>  (662) 
3QZQ

>  <lig_resn>  (662) 
AG7

>  <lig_resi>  (662) 
501

>  <lig_chain>  (662) 
A

>  <lig_segi>  (662) 
E

>  <lig_alt>  (662) 


>  <polymer_chain>  (662) 
A

>  <single_smiles>  (662) 
CCOC(=O)CC[C@H](C[C@@H]1CCNC1=O)NC(=O)[C@@H](CC(=O)[C@@H](NC(=O)c2cc(C)on2)C(C)C)Cc3ccc(F)cc3

$$$$
AG7P14S23
     RDKit          3D

 30 30  0  0  0  0  0  0  0  0999 V2000
   -7.3190    9.7870  -31.9670 C   0  0  0  0  0  0  0  0  0  0  0  0
   -7.7300    9.9240  -33.4360 C   0  0  2  0  0  0  0  0  0  0  0  0
   -8.5060   11.1100  -33.8920 N   0  0  0  0  0  0  0  0  0  0  0  0
   -7.7770    8.6160  -34.2440 C   0  0  2  0  0  0  0  0  0  0  0  0
   -7.9150   12.2780  -34.5490 C   0  0  0  0  0  0  0  0  0  0  0  0
   -7.7810    8.8240  -35.7420 C   0  0  0  0  0  0  0  0  0  0  0  0
   -9.7150    8.3890  -33.9240 R   0  0  0  0  0  0  0  0  0  0  0  0
   -8.8530   13.2790  -35.2310 C   0  0  1  0  0  0  0  0  0  0  0  0
   -6.7310   12.3310  -34.8040 O   0  0  0  0  0  0  0  0  0  0  0  0
   -6.3340    8.9960  -36.1790 C   0  0  0  0  0  0  0  0  0  0  0  0
   -9.0470   14.7330  -34.7430 C   0  0  0  0  0  0  0  0  0  0  0  0
   -9.1730   12.9400  -36.6820 C   0  0  0  0  0  0  0  0  0  0  0  0
   -6.0510    9.6750  -37.2240 O   0  0  0  0  0  0  0  0  0  0  0  0
   -5.4140    8.5070  -35.4860 O   0  0  0  0  0  0  0  0  0  0  0  0
   -8.5080   14.9300  -33.3220 C   0  0  0  0  0  0  0  0  0  0  0  0
  -10.3460   13.7680  -37.1900 C   0  0  0  0  0  0  0  0  0  0  0  0
   -4.7230    9.9930  -37.5080 C   0  0  0  0  0  0  0  0  0  0  0  0
   -8.1450   16.3840  -32.9140 C   0  0  1  0  0  0  0  0  0  0  0  0
   -8.8050   14.1230  -32.4480 O   0  0  0  0  0  0  0  0  0  0  0  0
  -11.6330   13.4790  -36.7590 C   0  0  0  0  0  0  0  0  0  0  0  0
  -10.1200   14.7840  -38.1310 C   0  0  0  0  0  0  0  0  0  0  0  0
   -4.6910   10.8400  -38.7540 C   0  0  0  0  0  0  0  0  0  0  0  0
   -8.5860   16.6350  -31.5420 N   0  0  0  0  0  0  0  0  0  0  0  0
   -6.6630   16.7160  -33.0960 C   0  0  0  0  0  0  0  0  0  0  0  0
  -12.7160   14.2140  -37.2600 C   0  0  0  0  0  0  0  0  0  0  0  0
  -11.2050   15.5220  -38.6290 C   0  0  0  0  0  0  0  0  0  0  0  0
   -6.3990   18.1350  -32.6670 C   0  0  0  0  0  0  0  0  0  0  0  0
   -5.8390   15.7750  -32.2840 C   0  0  0  0  0  0  0  0  0  0  0  0
  -12.4920   15.2320  -38.1910 C   0  0  0  0  0  0  0  0  0  0  0  0
  -13.5350   15.9120  -38.6740 F   0  0  0  0  0  0  0  0  0  0  0  0
  2  1  1  1
  3  2  1  0
  2  4  1  0
  3  5  1  0
  4  6  1  0
  4  7  1  1
  8  5  1  0
  5  9  2  0
  6 10  1  0
  8 11  1  6
  8 12  1  0
 10 13  1  0
 10 14  2  0
 15 11  1  0
 12 16  1  0
 13 17  1  0
 15 18  1  0
 15 19  2  0
 16 20  2  0
 16 21  1  0
 17 22  1  0
 18 23  1  1
 18 24  1  0
 20 25  1  0
 26 21  2  0
 24 27  1  0
 24 28  1  0
 25 29  2  0
 29 26  1  0
 29 30  1  0
V    7 *
A    2
 C13
A    3
 N12
A    4
 C19
A    5
 C47
A    6
 C20
A    7
 X  
A    8
 C04
A    9
 O48
A   10
 C21
A   11
 C02
A   12
 C05
A   13
 O22
A   14
 O23
A   15
 C01
A   16
 C06
A   17
 C50
A   18
 C57
A   19
 O03
A   20
 C07
A   21
 C11
A   22
 C53
A   24
 C78
A   25
 C08
A   26
 C10
A   27
 C81
A   28
 C82
A   29
 C09
A   30
 F1 
M  END
>  <XChem_code>  (663) 
AG7§14

>  <Occupancy>  (663) 
[1.0, 1.0, 1.0, 1.0, 1.0, 1.0, 1.0, 1.0, 1.0, 1.0, 1.0, 1.0, 1.0, 1.0, 1.0, 1.0, 1.0, 1.0, 1.0, 1.0, 1.0, 1.0, 1.0, 1.0, 1.0, 1.0, 1.0, 1.0, 1.0, 1.0, 1.0, 1.0, 1.0, 1.0, 1.0, 1.0, 1.0, 1.0, 1.0, 1.0, 1.0, 1.0, 1.0, 1.0]

>  <TempFactor>  (663) 
[18.65, 18.72, 21.92, 17.65, 24.86, 15.28, 18.72, 30.43, 27.21, 19.54, 23.37, 32.17, 36.23, 46.57, 43.77, 41.12, 38.94, 15.18, 15.28, 13.93, 16.17, 15.35, 15.96, 15.01, 19.51, 19.89, 20.9, 31.74, 18.14, 17.75, 18.83, 41.08, 57.06, 15.9, 16.12, 18.19, 20.0, 16.9, 18.42, 18.16, 18.76, 20.9, 15.53, 47.08]

>  <accession>  (663) 
3QZQ_A

>  <description>  (663) 
Chain A, 3C protein [Enterovirus A71]

>  <evalue>  (663) 
7.17784e-59

>  <pdb_code>  (663) 
3QZQ

>  <chain>  (663) 
A

>  <ligands>  (663) 
[{'chain_id': 'A', 'author_residue_number': 501, 'author_insertion_code': '', 'chem_comp_id': 'AG7', 'alternate_conformers': 0, 'entity_id': 2, 'struct_asym_id': 'E', 'residue_number': 1, 'chem_comp_name': '4-{2-(4-FLUORO-BENZYL)-6-METHYL-5-[(5-METHYL-ISOXAZOLE-3-CARBONYL)-AMINO]-4-OXO-HEPTANOYLAMINO}-5-(2-OXO-PYRROLIDIN-3-YL)-PENTANOIC ACID ETHYL ESTER', 'weight': 600.678, 'carbohydrate_polymer': False, 'branch_name': ''}, {'chain_id': 'B', 'author_residue_number': 501, 'author_insertion_code': '', 'chem_comp_id': 'AG7', 'alternate_conformers': 0, 'entity_id': 2, 'struct_asym_id': 'F', 'residue_number': 1, 'chem_comp_name': '4-{2-(4-FLUORO-BENZYL)-6-METHYL-5-[(5-METHYL-ISOXAZOLE-3-CARBONYL)-AMINO]-4-OXO-HEPTANOYLAMINO}-5-(2-OXO-PYRROLIDIN-3-YL)-PENTANOIC ACID ETHYL ESTER', 'weight': 600.678, 'carbohydrate_polymer': False, 'branch_name': ''}, {'chain_id': 'C', 'author_residue_number': 501, 'author_insertion_code': '', 'chem_comp_id': 'AG7', 'alternate_conformers': 0, 'entity_id': 2, 'struct_asym_id': 'G', 'residue_number': 1, 'chem_comp_name': '4-{2-(4-FLUORO-BENZYL)-6-METHYL-5-[(5-METHYL-ISOXAZOLE-3-CARBONYL)-AMINO]-4-OXO-HEPTANOYLAMINO}-5-(2-OXO-PYRROLIDIN-3-YL)-PENTANOIC ACID ETHYL ESTER', 'weight': 600.678, 'carbohydrate_polymer': False, 'branch_name': ''}, {'chain_id': 'D', 'author_residue_number': 501, 'author_insertion_code': '', 'chem_comp_id': 'AG7', 'alternate_conformers': 0, 'entity_id': 2, 'struct_asym_id': 'H', 'residue_number': 1, 'chem_comp_name': '4-{2-(4-FLUORO-BENZYL)-6-METHYL-5-[(5-METHYL-ISOXAZOLE-3-CARBONYL)-AMINO]-4-OXO-HEPTANOYLAMINO}-5-(2-OXO-PYRROLIDIN-3-YL)-PENTANOIC ACID ETHYL ESTER', 'weight': 600.678, 'carbohydrate_polymer': False, 'branch_name': ''}]

>  <ligand_codes>  (663) 
['AG7', 'AG7', 'AG7', 'AG7']

>  <cofactor_codes>  (663) 
[]

>  <has_cofactor>  (663) 
False

>  <covalent>  (663) 
True

>  <base_name>  (663) 
3QZQ

>  <lig_resn>  (663) 
AG7

>  <lig_resi>  (663) 
501

>  <lig_chain>  (663) 
A

>  <lig_segi>  (663) 
E

>  <lig_alt>  (663) 


>  <polymer_chain>  (663) 
A

>  <single_smiles>  (663) 
CCOC(=O)CC[C@H](C[C@@H]1CCNC1=O)NC(=O)[C@@H](CC(=O)[C@@H](NC(=O)c2cc(C)on2)C(C)C)Cc3ccc(F)cc3

$$$$
AG7P14S24
     RDKit          3D

 29 29  0  0  0  0  0  0  0  0999 V2000
   -9.1730   12.9400  -36.6820 C   0  0  0  0  0  0  0  0  0  0  0  0
   -8.8530   13.2790  -35.2310 C   0  0  2  0  0  0  0  0  0  0  0  0
   -9.0470   14.7330  -34.7430 C   0  0  0  0  0  0  0  0  0  0  0  0
   -7.9150   12.2780  -34.5490 C   0  0  0  0  0  0  0  0  0  0  0  0
   -8.5080   14.9300  -33.3220 C   0  0  0  0  0  0  0  0  0  0  0  0
   -8.5060   11.1100  -33.8920 N   0  0  0  0  0  0  0  0  0  0  0  0
   -6.7310   12.3310  -34.8040 O   0  0  0  0  0  0  0  0  0  0  0  0
   -8.1450   16.3840  -32.9140 C   0  0  1  0  0  0  0  0  0  0  0  0
   -8.8050   14.1230  -32.4480 O   0  0  0  0  0  0  0  0  0  0  0  0
   -7.7300    9.9240  -33.4360 C   0  0  1  0  0  0  0  0  0  0  0  0
   -8.5860   16.6350  -31.5420 N   0  0  0  0  0  0  0  0  0  0  0  0
   -6.6630   16.7160  -33.0960 C   0  0  0  0  0  0  0  0  0  0  0  0
   -7.3190    9.7870  -31.9670 C   0  0  0  0  0  0  0  0  0  0  0  0
   -7.7770    8.6160  -34.2440 C   0  0  2  0  0  0  0  0  0  0  0  0
   -6.3990   18.1350  -32.6670 C   0  0  0  0  0  0  0  0  0  0  0  0
   -5.8390   15.7750  -32.2840 C   0  0  0  0  0  0  0  0  0  0  0  0
   -6.9490   11.1100  -31.3440 C   0  0  1  0  0  0  0  0  0  0  0  0
   -7.7810    8.8240  -35.7420 C   0  0  0  0  0  0  0  0  0  0  0  0
   -9.7150    8.3890  -33.9240 R   0  0  0  0  0  0  0  0  0  0  0  0
   -6.8820   10.9740  -29.8610 C   0  0  0  0  0  0  0  0  0  0  0  0
   -5.5910   11.5700  -31.7670 C   0  0  0  0  0  0  0  0  0  0  0  0
   -6.3340    8.9960  -36.1790 C   0  0  0  0  0  0  0  0  0  0  0  0
   -5.7440   11.6850  -29.4030 N   0  0  0  0  0  0  0  0  0  0  0  0
   -7.6250   10.3230  -29.1430 O   0  0  0  0  0  0  0  0  0  0  0  0
   -5.1300   12.3330  -30.5440 C   0  0  0  0  0  0  0  0  0  0  0  0
   -6.0510    9.6750  -37.2240 O   0  0  0  0  0  0  0  0  0  0  0  0
   -5.4140    8.5070  -35.4860 O   0  0  0  0  0  0  0  0  0  0  0  0
   -4.7230    9.9930  -37.5080 C   0  0  0  0  0  0  0  0  0  0  0  0
   -4.6910   10.8400  -38.7540 C   0  0  0  0  0  0  0  0  0  0  0  0
  2  1  1  6
  2  3  1  0
  2  4  1  0
  5  3  1  0
  6  4  1  0
  4  7  2  0
  5  8  1  0
  5  9  2  0
  6 10  1  0
  8 11  1  1
  8 12  1  0
 10 13  1  1
 10 14  1  0
 12 15  1  0
 12 16  1  0
 17 13  1  6
 14 18  1  0
 14 19  1  1
 17 20  1  0
 17 21  1  0
 18 22  1  0
 20 23  1  0
 20 24  2  0
 25 21  1  0
 22 26  1  0
 22 27  2  0
 23 25  1  0
 26 28  1  0
 28 29  1  0
V   19 *
A    2
 C04
A    3
 C02
A    4
 C47
A    5
 C01
A    6
 N12
A    7
 O48
A    8
 C57
A    9
 O03
A   10
 C13
A   12
 C78
A   13
 C14
A   14
 C19
A   15
 C81
A   16
 C82
A   17
 C15
A   18
 C20
A   19
 X  
A   20
 C16
A   21
 C84
A   22
 C21
A   23
 N17
A   24
 O18
A   25
 C83
A   26
 O22
A   27
 O23
A   28
 C50
A   29
 C53
M  END
>  <XChem_code>  (664) 
AG7§14

>  <Occupancy>  (664) 
[1.0, 1.0, 1.0, 1.0, 1.0, 1.0, 1.0, 1.0, 1.0, 1.0, 1.0, 1.0, 1.0, 1.0, 1.0, 1.0, 1.0, 1.0, 1.0, 1.0, 1.0, 1.0, 1.0, 1.0, 1.0, 1.0, 1.0, 1.0, 1.0, 1.0, 1.0, 1.0, 1.0, 1.0, 1.0, 1.0, 1.0, 1.0, 1.0, 1.0, 1.0, 1.0, 1.0, 1.0]

>  <TempFactor>  (664) 
[18.65, 18.72, 21.92, 17.65, 24.86, 15.28, 18.72, 30.43, 27.21, 19.54, 23.37, 32.17, 36.23, 46.57, 43.77, 41.12, 38.94, 15.18, 15.28, 13.93, 16.17, 15.35, 15.96, 15.01, 19.51, 19.89, 20.9, 31.74, 18.14, 17.75, 18.83, 41.08, 57.06, 15.9, 16.12, 18.19, 20.0, 16.9, 18.42, 18.16, 18.76, 20.9, 15.53, 47.08]

>  <accession>  (664) 
3QZQ_A

>  <description>  (664) 
Chain A, 3C protein [Enterovirus A71]

>  <evalue>  (664) 
7.17784e-59

>  <pdb_code>  (664) 
3QZQ

>  <chain>  (664) 
A

>  <ligands>  (664) 
[{'chain_id': 'A', 'author_residue_number': 501, 'author_insertion_code': '', 'chem_comp_id': 'AG7', 'alternate_conformers': 0, 'entity_id': 2, 'struct_asym_id': 'E', 'residue_number': 1, 'chem_comp_name': '4-{2-(4-FLUORO-BENZYL)-6-METHYL-5-[(5-METHYL-ISOXAZOLE-3-CARBONYL)-AMINO]-4-OXO-HEPTANOYLAMINO}-5-(2-OXO-PYRROLIDIN-3-YL)-PENTANOIC ACID ETHYL ESTER', 'weight': 600.678, 'carbohydrate_polymer': False, 'branch_name': ''}, {'chain_id': 'B', 'author_residue_number': 501, 'author_insertion_code': '', 'chem_comp_id': 'AG7', 'alternate_conformers': 0, 'entity_id': 2, 'struct_asym_id': 'F', 'residue_number': 1, 'chem_comp_name': '4-{2-(4-FLUORO-BENZYL)-6-METHYL-5-[(5-METHYL-ISOXAZOLE-3-CARBONYL)-AMINO]-4-OXO-HEPTANOYLAMINO}-5-(2-OXO-PYRROLIDIN-3-YL)-PENTANOIC ACID ETHYL ESTER', 'weight': 600.678, 'carbohydrate_polymer': False, 'branch_name': ''}, {'chain_id': 'C', 'author_residue_number': 501, 'author_insertion_code': '', 'chem_comp_id': 'AG7', 'alternate_conformers': 0, 'entity_id': 2, 'struct_asym_id': 'G', 'residue_number': 1, 'chem_comp_name': '4-{2-(4-FLUORO-BENZYL)-6-METHYL-5-[(5-METHYL-ISOXAZOLE-3-CARBONYL)-AMINO]-4-OXO-HEPTANOYLAMINO}-5-(2-OXO-PYRROLIDIN-3-YL)-PENTANOIC ACID ETHYL ESTER', 'weight': 600.678, 'carbohydrate_polymer': False, 'branch_name': ''}, {'chain_id': 'D', 'author_residue_number': 501, 'author_insertion_code': '', 'chem_comp_id': 'AG7', 'alternate_conformers': 0, 'entity_id': 2, 'struct_asym_id': 'H', 'residue_number': 1, 'chem_comp_name': '4-{2-(4-FLUORO-BENZYL)-6-METHYL-5-[(5-METHYL-ISOXAZOLE-3-CARBONYL)-AMINO]-4-OXO-HEPTANOYLAMINO}-5-(2-OXO-PYRROLIDIN-3-YL)-PENTANOIC ACID ETHYL ESTER', 'weight': 600.678, 'carbohydrate_polymer': False, 'branch_name': ''}]

>  <ligand_codes>  (664) 
['AG7', 'AG7', 'AG7', 'AG7']

>  <cofactor_codes>  (664) 
[]

>  <has_cofactor>  (664) 
False

>  <covalent>  (664) 
True

>  <base_name>  (664) 
3QZQ

>  <lig_resn>  (664) 
AG7

>  <lig_resi>  (664) 
501

>  <lig_chain>  (664) 
A

>  <lig_segi>  (664) 
E

>  <lig_alt>  (664) 


>  <polymer_chain>  (664) 
A

>  <single_smiles>  (664) 
CCOC(=O)CC[C@H](C[C@@H]1CCNC1=O)NC(=O)[C@@H](CC(=O)[C@@H](NC(=O)c2cc(C)on2)C(C)C)Cc3ccc(F)cc3

$$$$
AG7P14S25
     RDKit          3D

 12 11  0  0  0  0  0  0  0  0999 V2000
   -9.1730   12.9400  -36.6820 C   0  0  0  0  0  0  0  0  0  0  0  0
   -8.8530   13.2790  -35.2310 C   0  0  2  0  0  0  0  0  0  0  0  0
   -9.0470   14.7330  -34.7430 C   0  0  0  0  0  0  0  0  0  0  0  0
   -7.9150   12.2780  -34.5490 C   0  0  0  0  0  0  0  0  0  0  0  0
   -8.5080   14.9300  -33.3220 C   0  0  0  0  0  0  0  0  0  0  0  0
   -6.7310   12.3310  -34.8040 O   0  0  0  0  0  0  0  0  0  0  0  0
   -8.1450   16.3840  -32.9140 C   0  0  1  0  0  0  0  0  0  0  0  0
   -8.8050   14.1230  -32.4480 O   0  0  0  0  0  0  0  0  0  0  0  0
   -8.5860   16.6350  -31.5420 N   0  0  0  0  0  0  0  0  0  0  0  0
   -6.6630   16.7160  -33.0960 C   0  0  0  0  0  0  0  0  0  0  0  0
   -6.3990   18.1350  -32.6670 C   0  0  0  0  0  0  0  0  0  0  0  0
   -5.8390   15.7750  -32.2840 C   0  0  0  0  0  0  0  0  0  0  0  0
  2  1  1  6
  2  3  1  0
  2  4  1  0
  5  3  1  0
  4  6  2  0
  5  7  1  0
  5  8  2  0
  7  9  1  1
  7 10  1  0
 10 11  1  0
 10 12  1  0
A    2
 C04
A    3
 C02
A    5
 C01
A    6
 O48
A    7
 C57
A    8
 O03
A   10
 C78
A   11
 C81
A   12
 C82
M  END
>  <XChem_code>  (665) 
AG7§14

>  <Occupancy>  (665) 
[1.0, 1.0, 1.0, 1.0, 1.0, 1.0, 1.0, 1.0, 1.0, 1.0, 1.0, 1.0, 1.0, 1.0, 1.0, 1.0, 1.0, 1.0, 1.0, 1.0, 1.0, 1.0, 1.0, 1.0, 1.0, 1.0, 1.0, 1.0, 1.0, 1.0, 1.0, 1.0, 1.0, 1.0, 1.0, 1.0, 1.0, 1.0, 1.0, 1.0, 1.0, 1.0, 1.0, 1.0]

>  <TempFactor>  (665) 
[18.65, 18.72, 21.92, 17.65, 24.86, 15.28, 18.72, 30.43, 27.21, 19.54, 23.37, 32.17, 36.23, 46.57, 43.77, 41.12, 38.94, 15.18, 15.28, 13.93, 16.17, 15.35, 15.96, 15.01, 19.51, 19.89, 20.9, 31.74, 18.14, 17.75, 18.83, 41.08, 57.06, 15.9, 16.12, 18.19, 20.0, 16.9, 18.42, 18.16, 18.76, 20.9, 15.53, 47.08]

>  <accession>  (665) 
3QZQ_A

>  <description>  (665) 
Chain A, 3C protein [Enterovirus A71]

>  <evalue>  (665) 
7.17784e-59

>  <pdb_code>  (665) 
3QZQ

>  <chain>  (665) 
A

>  <ligands>  (665) 
[{'chain_id': 'A', 'author_residue_number': 501, 'author_insertion_code': '', 'chem_comp_id': 'AG7', 'alternate_conformers': 0, 'entity_id': 2, 'struct_asym_id': 'E', 'residue_number': 1, 'chem_comp_name': '4-{2-(4-FLUORO-BENZYL)-6-METHYL-5-[(5-METHYL-ISOXAZOLE-3-CARBONYL)-AMINO]-4-OXO-HEPTANOYLAMINO}-5-(2-OXO-PYRROLIDIN-3-YL)-PENTANOIC ACID ETHYL ESTER', 'weight': 600.678, 'carbohydrate_polymer': False, 'branch_name': ''}, {'chain_id': 'B', 'author_residue_number': 501, 'author_insertion_code': '', 'chem_comp_id': 'AG7', 'alternate_conformers': 0, 'entity_id': 2, 'struct_asym_id': 'F', 'residue_number': 1, 'chem_comp_name': '4-{2-(4-FLUORO-BENZYL)-6-METHYL-5-[(5-METHYL-ISOXAZOLE-3-CARBONYL)-AMINO]-4-OXO-HEPTANOYLAMINO}-5-(2-OXO-PYRROLIDIN-3-YL)-PENTANOIC ACID ETHYL ESTER', 'weight': 600.678, 'carbohydrate_polymer': False, 'branch_name': ''}, {'chain_id': 'C', 'author_residue_number': 501, 'author_insertion_code': '', 'chem_comp_id': 'AG7', 'alternate_conformers': 0, 'entity_id': 2, 'struct_asym_id': 'G', 'residue_number': 1, 'chem_comp_name': '4-{2-(4-FLUORO-BENZYL)-6-METHYL-5-[(5-METHYL-ISOXAZOLE-3-CARBONYL)-AMINO]-4-OXO-HEPTANOYLAMINO}-5-(2-OXO-PYRROLIDIN-3-YL)-PENTANOIC ACID ETHYL ESTER', 'weight': 600.678, 'carbohydrate_polymer': False, 'branch_name': ''}, {'chain_id': 'D', 'author_residue_number': 501, 'author_insertion_code': '', 'chem_comp_id': 'AG7', 'alternate_conformers': 0, 'entity_id': 2, 'struct_asym_id': 'H', 'residue_number': 1, 'chem_comp_name': '4-{2-(4-FLUORO-BENZYL)-6-METHYL-5-[(5-METHYL-ISOXAZOLE-3-CARBONYL)-AMINO]-4-OXO-HEPTANOYLAMINO}-5-(2-OXO-PYRROLIDIN-3-YL)-PENTANOIC ACID ETHYL ESTER', 'weight': 600.678, 'carbohydrate_polymer': False, 'branch_name': ''}]

>  <ligand_codes>  (665) 
['AG7', 'AG7', 'AG7', 'AG7']

>  <cofactor_codes>  (665) 
[]

>  <has_cofactor>  (665) 
False

>  <covalent>  (665) 
True

>  <base_name>  (665) 
3QZQ

>  <lig_resn>  (665) 
AG7

>  <lig_resi>  (665) 
501

>  <lig_chain>  (665) 
A

>  <lig_segi>  (665) 
E

>  <lig_alt>  (665) 


>  <polymer_chain>  (665) 
A

>  <single_smiles>  (665) 
CCOC(=O)CC[C@H](C[C@@H]1CCNC1=O)NC(=O)[C@@H](CC(=O)[C@@H](NC(=O)c2cc(C)on2)C(C)C)Cc3ccc(F)cc3

$$$$
AG7P14S26
     RDKit          3D

 10  9  0  0  0  0  0  0  0  0999 V2000
   -7.3190    9.7870  -31.9670 C   0  0  0  0  0  0  0  0  0  0  0  0
   -7.7300    9.9240  -33.4360 C   0  0  0  0  0  0  0  0  0  0  0  0
   -7.7770    8.6160  -34.2440 C   0  0  2  0  0  0  0  0  0  0  0  0
   -7.7810    8.8240  -35.7420 C   0  0  0  0  0  0  0  0  0  0  0  0
   -9.7150    8.3890  -33.9240 R   0  0  0  0  0  0  0  0  0  0  0  0
   -6.3340    8.9960  -36.1790 C   0  0  0  0  0  0  0  0  0  0  0  0
   -6.0510    9.6750  -37.2240 O   0  0  0  0  0  0  0  0  0  0  0  0
   -5.4140    8.5070  -35.4860 O   0  0  0  0  0  0  0  0  0  0  0  0
   -4.7230    9.9930  -37.5080 C   0  0  0  0  0  0  0  0  0  0  0  0
   -4.6910   10.8400  -38.7540 C   0  0  0  0  0  0  0  0  0  0  0  0
  2  1  1  6
  2  3  1  0
  3  4  1  0
  3  5  1  1
  4  6  1  0
  6  7  1  0
  6  8  2  0
  7  9  1  0
  9 10  1  0
V    5 *
A    3
 C19
A    4
 C20
A    5
 X  
A    6
 C21
A    7
 O22
A    8
 O23
A    9
 C50
A   10
 C53
M  END
>  <XChem_code>  (666) 
AG7§14

>  <Occupancy>  (666) 
[1.0, 1.0, 1.0, 1.0, 1.0, 1.0, 1.0, 1.0, 1.0, 1.0, 1.0, 1.0, 1.0, 1.0, 1.0, 1.0, 1.0, 1.0, 1.0, 1.0, 1.0, 1.0, 1.0, 1.0, 1.0, 1.0, 1.0, 1.0, 1.0, 1.0, 1.0, 1.0, 1.0, 1.0, 1.0, 1.0, 1.0, 1.0, 1.0, 1.0, 1.0, 1.0, 1.0, 1.0]

>  <TempFactor>  (666) 
[18.65, 18.72, 21.92, 17.65, 24.86, 15.28, 18.72, 30.43, 27.21, 19.54, 23.37, 32.17, 36.23, 46.57, 43.77, 41.12, 38.94, 15.18, 15.28, 13.93, 16.17, 15.35, 15.96, 15.01, 19.51, 19.89, 20.9, 31.74, 18.14, 17.75, 18.83, 41.08, 57.06, 15.9, 16.12, 18.19, 20.0, 16.9, 18.42, 18.16, 18.76, 20.9, 15.53, 47.08]

>  <accession>  (666) 
3QZQ_A

>  <description>  (666) 
Chain A, 3C protein [Enterovirus A71]

>  <evalue>  (666) 
7.17784e-59

>  <pdb_code>  (666) 
3QZQ

>  <chain>  (666) 
A

>  <ligands>  (666) 
[{'chain_id': 'A', 'author_residue_number': 501, 'author_insertion_code': '', 'chem_comp_id': 'AG7', 'alternate_conformers': 0, 'entity_id': 2, 'struct_asym_id': 'E', 'residue_number': 1, 'chem_comp_name': '4-{2-(4-FLUORO-BENZYL)-6-METHYL-5-[(5-METHYL-ISOXAZOLE-3-CARBONYL)-AMINO]-4-OXO-HEPTANOYLAMINO}-5-(2-OXO-PYRROLIDIN-3-YL)-PENTANOIC ACID ETHYL ESTER', 'weight': 600.678, 'carbohydrate_polymer': False, 'branch_name': ''}, {'chain_id': 'B', 'author_residue_number': 501, 'author_insertion_code': '', 'chem_comp_id': 'AG7', 'alternate_conformers': 0, 'entity_id': 2, 'struct_asym_id': 'F', 'residue_number': 1, 'chem_comp_name': '4-{2-(4-FLUORO-BENZYL)-6-METHYL-5-[(5-METHYL-ISOXAZOLE-3-CARBONYL)-AMINO]-4-OXO-HEPTANOYLAMINO}-5-(2-OXO-PYRROLIDIN-3-YL)-PENTANOIC ACID ETHYL ESTER', 'weight': 600.678, 'carbohydrate_polymer': False, 'branch_name': ''}, {'chain_id': 'C', 'author_residue_number': 501, 'author_insertion_code': '', 'chem_comp_id': 'AG7', 'alternate_conformers': 0, 'entity_id': 2, 'struct_asym_id': 'G', 'residue_number': 1, 'chem_comp_name': '4-{2-(4-FLUORO-BENZYL)-6-METHYL-5-[(5-METHYL-ISOXAZOLE-3-CARBONYL)-AMINO]-4-OXO-HEPTANOYLAMINO}-5-(2-OXO-PYRROLIDIN-3-YL)-PENTANOIC ACID ETHYL ESTER', 'weight': 600.678, 'carbohydrate_polymer': False, 'branch_name': ''}, {'chain_id': 'D', 'author_residue_number': 501, 'author_insertion_code': '', 'chem_comp_id': 'AG7', 'alternate_conformers': 0, 'entity_id': 2, 'struct_asym_id': 'H', 'residue_number': 1, 'chem_comp_name': '4-{2-(4-FLUORO-BENZYL)-6-METHYL-5-[(5-METHYL-ISOXAZOLE-3-CARBONYL)-AMINO]-4-OXO-HEPTANOYLAMINO}-5-(2-OXO-PYRROLIDIN-3-YL)-PENTANOIC ACID ETHYL ESTER', 'weight': 600.678, 'carbohydrate_polymer': False, 'branch_name': ''}]

>  <ligand_codes>  (666) 
['AG7', 'AG7', 'AG7', 'AG7']

>  <cofactor_codes>  (666) 
[]

>  <has_cofactor>  (666) 
False

>  <covalent>  (666) 
True

>  <base_name>  (666) 
3QZQ

>  <lig_resn>  (666) 
AG7

>  <lig_resi>  (666) 
501

>  <lig_chain>  (666) 
A

>  <lig_segi>  (666) 
E

>  <lig_alt>  (666) 


>  <polymer_chain>  (666) 
A

>  <single_smiles>  (666) 
CCOC(=O)CC[C@H](C[C@@H]1CCNC1=O)NC(=O)[C@@H](CC(=O)[C@@H](NC(=O)c2cc(C)on2)C(C)C)Cc3ccc(F)cc3

$$$$
AG7P14S27
     RDKit          3D

 21 21  0  0  0  0  0  0  0  0999 V2000
   -9.1730   12.9400  -36.6820 C   0  0  0  0  0  0  0  0  0  0  0  0
   -8.8530   13.2790  -35.2310 C   0  0  1  0  0  0  0  0  0  0  0  0
   -7.9150   12.2780  -34.5490 C   0  0  0  0  0  0  0  0  0  0  0  0
   -9.0470   14.7330  -34.7430 C   0  0  0  0  0  0  0  0  0  0  0  0
   -8.5060   11.1100  -33.8920 N   0  0  0  0  0  0  0  0  0  0  0  0
   -6.7310   12.3310  -34.8040 O   0  0  0  0  0  0  0  0  0  0  0  0
   -8.5080   14.9300  -33.3220 C   0  0  0  0  0  0  0  0  0  0  0  0
   -8.8050   14.1230  -32.4480 O   0  0  0  0  0  0  0  0  0  0  0  0
   -8.1450   16.3840  -32.9140 C   0  0  1  0  0  0  0  0  0  0  0  0
   -8.5860   16.6350  -31.5420 N   0  0  0  0  0  0  0  0  0  0  0  0
   -6.6630   16.7160  -33.0960 C   0  0  0  0  0  0  0  0  0  0  0  0
   -9.5070   17.7220  -31.2510 C   0  0  0  0  0  0  0  0  0  0  0  0
   -6.3990   18.1350  -32.6670 C   0  0  0  0  0  0  0  0  0  0  0  0
   -5.8390   15.7750  -32.2840 C   0  0  0  0  0  0  0  0  0  0  0  0
  -10.0180   17.8700  -29.8390 C   0  0  0  0  0  0  0  0  0  0  0  0
   -9.9070   18.4670  -32.1230 O   0  0  0  0  0  0  0  0  0  0  0  0
  -10.9400   18.9000  -29.3490 C   0  0  0  0  0  0  0  0  0  0  0  0
   -9.7280   17.0810  -28.8080 N   0  0  0  0  0  0  0  0  0  0  0  0
  -11.0910   18.5810  -27.9530 C   0  0  0  0  0  0  0  0  0  0  0  0
  -10.3500   17.5030  -27.7220 O   0  0  0  0  0  0  0  0  0  0  0  0
  -11.9400   19.3230  -26.9590 C   0  0  0  0  0  0  0  0  0  0  0  0
  2  1  1  6
  2  3  1  0
  2  4  1  0
  5  3  1  0
  3  6  2  0
  7  4  1  0
  7  8  2  0
  7  9  1  0
  9 10  1  1
  9 11  1  0
 10 12  1  0
 11 13  1  0
 11 14  1  0
 15 12  1  0
 12 16  2  0
 15 17  1  0
 15 18  2  0
 17 19  2  0
 20 18  1  0
 19 21  1  0
 19 20  1  0
A    2
 C04
A    3
 C47
A    4
 C02
A    6
 O48
A    7
 C01
A    8
 O03
A    9
 C57
A   10
 N58
A   11
 C78
A   12
 C59
A   13
 C81
A   14
 C82
A   15
 C1 
A   16
 O60
A   17
 C2 
A   18
 N5 
A   19
 C3 
A   20
 O4 
A   21
 C4 
M  END
>  <XChem_code>  (667) 
AG7§14

>  <Occupancy>  (667) 
[1.0, 1.0, 1.0, 1.0, 1.0, 1.0, 1.0, 1.0, 1.0, 1.0, 1.0, 1.0, 1.0, 1.0, 1.0, 1.0, 1.0, 1.0, 1.0, 1.0, 1.0, 1.0, 1.0, 1.0, 1.0, 1.0, 1.0, 1.0, 1.0, 1.0, 1.0, 1.0, 1.0, 1.0, 1.0, 1.0, 1.0, 1.0, 1.0, 1.0, 1.0, 1.0, 1.0, 1.0]

>  <TempFactor>  (667) 
[18.65, 18.72, 21.92, 17.65, 24.86, 15.28, 18.72, 30.43, 27.21, 19.54, 23.37, 32.17, 36.23, 46.57, 43.77, 41.12, 38.94, 15.18, 15.28, 13.93, 16.17, 15.35, 15.96, 15.01, 19.51, 19.89, 20.9, 31.74, 18.14, 17.75, 18.83, 41.08, 57.06, 15.9, 16.12, 18.19, 20.0, 16.9, 18.42, 18.16, 18.76, 20.9, 15.53, 47.08]

>  <accession>  (667) 
3QZQ_A

>  <description>  (667) 
Chain A, 3C protein [Enterovirus A71]

>  <evalue>  (667) 
7.17784e-59

>  <pdb_code>  (667) 
3QZQ

>  <chain>  (667) 
A

>  <ligands>  (667) 
[{'chain_id': 'A', 'author_residue_number': 501, 'author_insertion_code': '', 'chem_comp_id': 'AG7', 'alternate_conformers': 0, 'entity_id': 2, 'struct_asym_id': 'E', 'residue_number': 1, 'chem_comp_name': '4-{2-(4-FLUORO-BENZYL)-6-METHYL-5-[(5-METHYL-ISOXAZOLE-3-CARBONYL)-AMINO]-4-OXO-HEPTANOYLAMINO}-5-(2-OXO-PYRROLIDIN-3-YL)-PENTANOIC ACID ETHYL ESTER', 'weight': 600.678, 'carbohydrate_polymer': False, 'branch_name': ''}, {'chain_id': 'B', 'author_residue_number': 501, 'author_insertion_code': '', 'chem_comp_id': 'AG7', 'alternate_conformers': 0, 'entity_id': 2, 'struct_asym_id': 'F', 'residue_number': 1, 'chem_comp_name': '4-{2-(4-FLUORO-BENZYL)-6-METHYL-5-[(5-METHYL-ISOXAZOLE-3-CARBONYL)-AMINO]-4-OXO-HEPTANOYLAMINO}-5-(2-OXO-PYRROLIDIN-3-YL)-PENTANOIC ACID ETHYL ESTER', 'weight': 600.678, 'carbohydrate_polymer': False, 'branch_name': ''}, {'chain_id': 'C', 'author_residue_number': 501, 'author_insertion_code': '', 'chem_comp_id': 'AG7', 'alternate_conformers': 0, 'entity_id': 2, 'struct_asym_id': 'G', 'residue_number': 1, 'chem_comp_name': '4-{2-(4-FLUORO-BENZYL)-6-METHYL-5-[(5-METHYL-ISOXAZOLE-3-CARBONYL)-AMINO]-4-OXO-HEPTANOYLAMINO}-5-(2-OXO-PYRROLIDIN-3-YL)-PENTANOIC ACID ETHYL ESTER', 'weight': 600.678, 'carbohydrate_polymer': False, 'branch_name': ''}, {'chain_id': 'D', 'author_residue_number': 501, 'author_insertion_code': '', 'chem_comp_id': 'AG7', 'alternate_conformers': 0, 'entity_id': 2, 'struct_asym_id': 'H', 'residue_number': 1, 'chem_comp_name': '4-{2-(4-FLUORO-BENZYL)-6-METHYL-5-[(5-METHYL-ISOXAZOLE-3-CARBONYL)-AMINO]-4-OXO-HEPTANOYLAMINO}-5-(2-OXO-PYRROLIDIN-3-YL)-PENTANOIC ACID ETHYL ESTER', 'weight': 600.678, 'carbohydrate_polymer': False, 'branch_name': ''}]

>  <ligand_codes>  (667) 
['AG7', 'AG7', 'AG7', 'AG7']

>  <cofactor_codes>  (667) 
[]

>  <has_cofactor>  (667) 
False

>  <covalent>  (667) 
True

>  <base_name>  (667) 
3QZQ

>  <lig_resn>  (667) 
AG7

>  <lig_resi>  (667) 
501

>  <lig_chain>  (667) 
A

>  <lig_segi>  (667) 
E

>  <lig_alt>  (667) 


>  <polymer_chain>  (667) 
A

>  <single_smiles>  (667) 
CCOC(=O)CC[C@H](C[C@@H]1CCNC1=O)NC(=O)[C@@H](CC(=O)[C@@H](NC(=O)c2cc(C)on2)C(C)C)Cc3ccc(F)cc3

$$$$
AG7P14S28
     RDKit          3D

 29 29  0  0  0  0  0  0  0  0999 V2000
   -7.3190    9.7870  -31.9670 C   0  0  0  0  0  0  0  0  0  0  0  0
   -7.7300    9.9240  -33.4360 C   0  0  2  0  0  0  0  0  0  0  0  0
   -8.5060   11.1100  -33.8920 N   0  0  0  0  0  0  0  0  0  0  0  0
   -7.7770    8.6160  -34.2440 C   0  0  2  0  0  0  0  0  0  0  0  0
   -7.9150   12.2780  -34.5490 C   0  0  0  0  0  0  0  0  0  0  0  0
   -7.7810    8.8240  -35.7420 C   0  0  0  0  0  0  0  0  0  0  0  0
   -9.7150    8.3890  -33.9240 R   0  0  0  0  0  0  0  0  0  0  0  0
   -8.8530   13.2790  -35.2310 C   0  0  1  0  0  0  0  0  0  0  0  0
   -6.7310   12.3310  -34.8040 O   0  0  0  0  0  0  0  0  0  0  0  0
   -6.3340    8.9960  -36.1790 C   0  0  0  0  0  0  0  0  0  0  0  0
   -9.0470   14.7330  -34.7430 C   0  0  0  0  0  0  0  0  0  0  0  0
   -9.1730   12.9400  -36.6820 C   0  0  0  0  0  0  0  0  0  0  0  0
   -6.0510    9.6750  -37.2240 O   0  0  0  0  0  0  0  0  0  0  0  0
   -5.4140    8.5070  -35.4860 O   0  0  0  0  0  0  0  0  0  0  0  0
   -8.5080   14.9300  -33.3220 C   0  0  0  0  0  0  0  0  0  0  0  0
  -10.3460   13.7680  -37.1900 C   0  0  0  0  0  0  0  0  0  0  0  0
   -4.7230    9.9930  -37.5080 C   0  0  0  0  0  0  0  0  0  0  0  0
   -8.1450   16.3840  -32.9140 C   0  0  0  0  0  0  0  0  0  0  0  0
   -8.8050   14.1230  -32.4480 O   0  0  0  0  0  0  0  0  0  0  0  0
  -11.6330   13.4790  -36.7590 C   0  0  0  0  0  0  0  0  0  0  0  0
  -10.1200   14.7840  -38.1310 C   0  0  0  0  0  0  0  0  0  0  0  0
   -4.6910   10.8400  -38.7540 C   0  0  0  0  0  0  0  0  0  0  0  0
   -6.6630   16.7160  -33.0960 C   0  0  0  0  0  0  0  0  0  0  0  0
  -12.7160   14.2140  -37.2600 C   0  0  0  0  0  0  0  0  0  0  0  0
  -11.2050   15.5220  -38.6290 C   0  0  0  0  0  0  0  0  0  0  0  0
   -6.3990   18.1350  -32.6670 C   0  0  0  0  0  0  0  0  0  0  0  0
   -5.8390   15.7750  -32.2840 C   0  0  0  0  0  0  0  0  0  0  0  0
  -12.4920   15.2320  -38.1910 C   0  0  0  0  0  0  0  0  0  0  0  0
  -13.5350   15.9120  -38.6740 F   0  0  0  0  0  0  0  0  0  0  0  0
  2  1  1  1
  3  2  1  0
  2  4  1  0
  3  5  1  0
  4  6  1  0
  4  7  1  1
  8  5  1  0
  5  9  2  0
  6 10  1  0
  8 11  1  6
  8 12  1  0
 10 13  1  0
 10 14  2  0
 15 11  1  0
 12 16  1  0
 13 17  1  0
 15 18  1  0
 15 19  2  0
 16 20  2  0
 16 21  1  0
 17 22  1  0
 18 23  1  6
 20 24  1  0
 25 21  2  0
 23 26  1  0
 23 27  1  0
 24 28  2  0
 28 25  1  0
 28 29  1  0
V    7 *
A    2
 C13
A    3
 N12
A    4
 C19
A    5
 C47
A    6
 C20
A    7
 X  
A    8
 C04
A    9
 O48
A   10
 C21
A   11
 C02
A   12
 C05
A   13
 O22
A   14
 O23
A   15
 C01
A   16
 C06
A   17
 C50
A   19
 O03
A   20
 C07
A   21
 C11
A   22
 C53
A   23
 C78
A   24
 C08
A   25
 C10
A   26
 C81
A   27
 C82
A   28
 C09
A   29
 F1 
M  END
>  <XChem_code>  (668) 
AG7§14

>  <Occupancy>  (668) 
[1.0, 1.0, 1.0, 1.0, 1.0, 1.0, 1.0, 1.0, 1.0, 1.0, 1.0, 1.0, 1.0, 1.0, 1.0, 1.0, 1.0, 1.0, 1.0, 1.0, 1.0, 1.0, 1.0, 1.0, 1.0, 1.0, 1.0, 1.0, 1.0, 1.0, 1.0, 1.0, 1.0, 1.0, 1.0, 1.0, 1.0, 1.0, 1.0, 1.0, 1.0, 1.0, 1.0, 1.0]

>  <TempFactor>  (668) 
[18.65, 18.72, 21.92, 17.65, 24.86, 15.28, 18.72, 30.43, 27.21, 19.54, 23.37, 32.17, 36.23, 46.57, 43.77, 41.12, 38.94, 15.18, 15.28, 13.93, 16.17, 15.35, 15.96, 15.01, 19.51, 19.89, 20.9, 31.74, 18.14, 17.75, 18.83, 41.08, 57.06, 15.9, 16.12, 18.19, 20.0, 16.9, 18.42, 18.16, 18.76, 20.9, 15.53, 47.08]

>  <accession>  (668) 
3QZQ_A

>  <description>  (668) 
Chain A, 3C protein [Enterovirus A71]

>  <evalue>  (668) 
7.17784e-59

>  <pdb_code>  (668) 
3QZQ

>  <chain>  (668) 
A

>  <ligands>  (668) 
[{'chain_id': 'A', 'author_residue_number': 501, 'author_insertion_code': '', 'chem_comp_id': 'AG7', 'alternate_conformers': 0, 'entity_id': 2, 'struct_asym_id': 'E', 'residue_number': 1, 'chem_comp_name': '4-{2-(4-FLUORO-BENZYL)-6-METHYL-5-[(5-METHYL-ISOXAZOLE-3-CARBONYL)-AMINO]-4-OXO-HEPTANOYLAMINO}-5-(2-OXO-PYRROLIDIN-3-YL)-PENTANOIC ACID ETHYL ESTER', 'weight': 600.678, 'carbohydrate_polymer': False, 'branch_name': ''}, {'chain_id': 'B', 'author_residue_number': 501, 'author_insertion_code': '', 'chem_comp_id': 'AG7', 'alternate_conformers': 0, 'entity_id': 2, 'struct_asym_id': 'F', 'residue_number': 1, 'chem_comp_name': '4-{2-(4-FLUORO-BENZYL)-6-METHYL-5-[(5-METHYL-ISOXAZOLE-3-CARBONYL)-AMINO]-4-OXO-HEPTANOYLAMINO}-5-(2-OXO-PYRROLIDIN-3-YL)-PENTANOIC ACID ETHYL ESTER', 'weight': 600.678, 'carbohydrate_polymer': False, 'branch_name': ''}, {'chain_id': 'C', 'author_residue_number': 501, 'author_insertion_code': '', 'chem_comp_id': 'AG7', 'alternate_conformers': 0, 'entity_id': 2, 'struct_asym_id': 'G', 'residue_number': 1, 'chem_comp_name': '4-{2-(4-FLUORO-BENZYL)-6-METHYL-5-[(5-METHYL-ISOXAZOLE-3-CARBONYL)-AMINO]-4-OXO-HEPTANOYLAMINO}-5-(2-OXO-PYRROLIDIN-3-YL)-PENTANOIC ACID ETHYL ESTER', 'weight': 600.678, 'carbohydrate_polymer': False, 'branch_name': ''}, {'chain_id': 'D', 'author_residue_number': 501, 'author_insertion_code': '', 'chem_comp_id': 'AG7', 'alternate_conformers': 0, 'entity_id': 2, 'struct_asym_id': 'H', 'residue_number': 1, 'chem_comp_name': '4-{2-(4-FLUORO-BENZYL)-6-METHYL-5-[(5-METHYL-ISOXAZOLE-3-CARBONYL)-AMINO]-4-OXO-HEPTANOYLAMINO}-5-(2-OXO-PYRROLIDIN-3-YL)-PENTANOIC ACID ETHYL ESTER', 'weight': 600.678, 'carbohydrate_polymer': False, 'branch_name': ''}]

>  <ligand_codes>  (668) 
['AG7', 'AG7', 'AG7', 'AG7']

>  <cofactor_codes>  (668) 
[]

>  <has_cofactor>  (668) 
False

>  <covalent>  (668) 
True

>  <base_name>  (668) 
3QZQ

>  <lig_resn>  (668) 
AG7

>  <lig_resi>  (668) 
501

>  <lig_chain>  (668) 
A

>  <lig_segi>  (668) 
E

>  <lig_alt>  (668) 


>  <polymer_chain>  (668) 
A

>  <single_smiles>  (668) 
CCOC(=O)CC[C@H](C[C@@H]1CCNC1=O)NC(=O)[C@@H](CC(=O)[C@@H](NC(=O)c2cc(C)on2)C(C)C)Cc3ccc(F)cc3

$$$$
AG7P14S29
     RDKit          3D

 28 28  0  0  0  0  0  0  0  0999 V2000
   -9.1730   12.9400  -36.6820 C   0  0  0  0  0  0  0  0  0  0  0  0
   -8.8530   13.2790  -35.2310 C   0  0  2  0  0  0  0  0  0  0  0  0
   -9.0470   14.7330  -34.7430 C   0  0  0  0  0  0  0  0  0  0  0  0
   -7.9150   12.2780  -34.5490 C   0  0  0  0  0  0  0  0  0  0  0  0
   -8.5080   14.9300  -33.3220 C   0  0  0  0  0  0  0  0  0  0  0  0
   -8.5060   11.1100  -33.8920 N   0  0  0  0  0  0  0  0  0  0  0  0
   -6.7310   12.3310  -34.8040 O   0  0  0  0  0  0  0  0  0  0  0  0
   -8.1450   16.3840  -32.9140 C   0  0  0  0  0  0  0  0  0  0  0  0
   -8.8050   14.1230  -32.4480 O   0  0  0  0  0  0  0  0  0  0  0  0
   -7.7300    9.9240  -33.4360 C   0  0  1  0  0  0  0  0  0  0  0  0
   -6.6630   16.7160  -33.0960 C   0  0  0  0  0  0  0  0  0  0  0  0
   -7.3190    9.7870  -31.9670 C   0  0  0  0  0  0  0  0  0  0  0  0
   -7.7770    8.6160  -34.2440 C   0  0  2  0  0  0  0  0  0  0  0  0
   -6.3990   18.1350  -32.6670 C   0  0  0  0  0  0  0  0  0  0  0  0
   -5.8390   15.7750  -32.2840 C   0  0  0  0  0  0  0  0  0  0  0  0
   -6.9490   11.1100  -31.3440 C   0  0  1  0  0  0  0  0  0  0  0  0
   -7.7810    8.8240  -35.7420 C   0  0  0  0  0  0  0  0  0  0  0  0
   -9.7150    8.3890  -33.9240 R   0  0  0  0  0  0  0  0  0  0  0  0
   -6.8820   10.9740  -29.8610 C   0  0  0  0  0  0  0  0  0  0  0  0
   -5.5910   11.5700  -31.7670 C   0  0  0  0  0  0  0  0  0  0  0  0
   -6.3340    8.9960  -36.1790 C   0  0  0  0  0  0  0  0  0  0  0  0
   -5.7440   11.6850  -29.4030 N   0  0  0  0  0  0  0  0  0  0  0  0
   -7.6250   10.3230  -29.1430 O   0  0  0  0  0  0  0  0  0  0  0  0
   -5.1300   12.3330  -30.5440 C   0  0  0  0  0  0  0  0  0  0  0  0
   -6.0510    9.6750  -37.2240 O   0  0  0  0  0  0  0  0  0  0  0  0
   -5.4140    8.5070  -35.4860 O   0  0  0  0  0  0  0  0  0  0  0  0
   -4.7230    9.9930  -37.5080 C   0  0  0  0  0  0  0  0  0  0  0  0
   -4.6910   10.8400  -38.7540 C   0  0  0  0  0  0  0  0  0  0  0  0
  2  1  1  6
  2  3  1  0
  2  4  1  0
  5  3  1  0
  6  4  1  0
  4  7  2  0
  5  8  1  0
  5  9  2  0
  6 10  1  0
  8 11  1  6
 10 12  1  1
 10 13  1  0
 11 14  1  0
 11 15  1  0
 16 12  1  6
 13 17  1  0
 13 18  1  1
 16 19  1  0
 16 20  1  0
 17 21  1  0
 19 22  1  0
 19 23  2  0
 24 20  1  0
 21 25  1  0
 21 26  2  0
 22 24  1  0
 25 27  1  0
 27 28  1  0
V   18 *
A    2
 C04
A    3
 C02
A    4
 C47
A    5
 C01
A    6
 N12
A    7
 O48
A    9
 O03
A   10
 C13
A   11
 C78
A   12
 C14
A   13
 C19
A   14
 C81
A   15
 C82
A   16
 C15
A   17
 C20
A   18
 X  
A   19
 C16
A   20
 C84
A   21
 C21
A   22
 N17
A   23
 O18
A   24
 C83
A   25
 O22
A   26
 O23
A   27
 C50
A   28
 C53
M  END
>  <XChem_code>  (669) 
AG7§14

>  <Occupancy>  (669) 
[1.0, 1.0, 1.0, 1.0, 1.0, 1.0, 1.0, 1.0, 1.0, 1.0, 1.0, 1.0, 1.0, 1.0, 1.0, 1.0, 1.0, 1.0, 1.0, 1.0, 1.0, 1.0, 1.0, 1.0, 1.0, 1.0, 1.0, 1.0, 1.0, 1.0, 1.0, 1.0, 1.0, 1.0, 1.0, 1.0, 1.0, 1.0, 1.0, 1.0, 1.0, 1.0, 1.0, 1.0]

>  <TempFactor>  (669) 
[18.65, 18.72, 21.92, 17.65, 24.86, 15.28, 18.72, 30.43, 27.21, 19.54, 23.37, 32.17, 36.23, 46.57, 43.77, 41.12, 38.94, 15.18, 15.28, 13.93, 16.17, 15.35, 15.96, 15.01, 19.51, 19.89, 20.9, 31.74, 18.14, 17.75, 18.83, 41.08, 57.06, 15.9, 16.12, 18.19, 20.0, 16.9, 18.42, 18.16, 18.76, 20.9, 15.53, 47.08]

>  <accession>  (669) 
3QZQ_A

>  <description>  (669) 
Chain A, 3C protein [Enterovirus A71]

>  <evalue>  (669) 
7.17784e-59

>  <pdb_code>  (669) 
3QZQ

>  <chain>  (669) 
A

>  <ligands>  (669) 
[{'chain_id': 'A', 'author_residue_number': 501, 'author_insertion_code': '', 'chem_comp_id': 'AG7', 'alternate_conformers': 0, 'entity_id': 2, 'struct_asym_id': 'E', 'residue_number': 1, 'chem_comp_name': '4-{2-(4-FLUORO-BENZYL)-6-METHYL-5-[(5-METHYL-ISOXAZOLE-3-CARBONYL)-AMINO]-4-OXO-HEPTANOYLAMINO}-5-(2-OXO-PYRROLIDIN-3-YL)-PENTANOIC ACID ETHYL ESTER', 'weight': 600.678, 'carbohydrate_polymer': False, 'branch_name': ''}, {'chain_id': 'B', 'author_residue_number': 501, 'author_insertion_code': '', 'chem_comp_id': 'AG7', 'alternate_conformers': 0, 'entity_id': 2, 'struct_asym_id': 'F', 'residue_number': 1, 'chem_comp_name': '4-{2-(4-FLUORO-BENZYL)-6-METHYL-5-[(5-METHYL-ISOXAZOLE-3-CARBONYL)-AMINO]-4-OXO-HEPTANOYLAMINO}-5-(2-OXO-PYRROLIDIN-3-YL)-PENTANOIC ACID ETHYL ESTER', 'weight': 600.678, 'carbohydrate_polymer': False, 'branch_name': ''}, {'chain_id': 'C', 'author_residue_number': 501, 'author_insertion_code': '', 'chem_comp_id': 'AG7', 'alternate_conformers': 0, 'entity_id': 2, 'struct_asym_id': 'G', 'residue_number': 1, 'chem_comp_name': '4-{2-(4-FLUORO-BENZYL)-6-METHYL-5-[(5-METHYL-ISOXAZOLE-3-CARBONYL)-AMINO]-4-OXO-HEPTANOYLAMINO}-5-(2-OXO-PYRROLIDIN-3-YL)-PENTANOIC ACID ETHYL ESTER', 'weight': 600.678, 'carbohydrate_polymer': False, 'branch_name': ''}, {'chain_id': 'D', 'author_residue_number': 501, 'author_insertion_code': '', 'chem_comp_id': 'AG7', 'alternate_conformers': 0, 'entity_id': 2, 'struct_asym_id': 'H', 'residue_number': 1, 'chem_comp_name': '4-{2-(4-FLUORO-BENZYL)-6-METHYL-5-[(5-METHYL-ISOXAZOLE-3-CARBONYL)-AMINO]-4-OXO-HEPTANOYLAMINO}-5-(2-OXO-PYRROLIDIN-3-YL)-PENTANOIC ACID ETHYL ESTER', 'weight': 600.678, 'carbohydrate_polymer': False, 'branch_name': ''}]

>  <ligand_codes>  (669) 
['AG7', 'AG7', 'AG7', 'AG7']

>  <cofactor_codes>  (669) 
[]

>  <has_cofactor>  (669) 
False

>  <covalent>  (669) 
True

>  <base_name>  (669) 
3QZQ

>  <lig_resn>  (669) 
AG7

>  <lig_resi>  (669) 
501

>  <lig_chain>  (669) 
A

>  <lig_segi>  (669) 
E

>  <lig_alt>  (669) 


>  <polymer_chain>  (669) 
A

>  <single_smiles>  (669) 
CCOC(=O)CC[C@H](C[C@@H]1CCNC1=O)NC(=O)[C@@H](CC(=O)[C@@H](NC(=O)c2cc(C)on2)C(C)C)Cc3ccc(F)cc3

$$$$
AG7P14S30
     RDKit          3D

 11 10  0  0  0  0  0  0  0  0999 V2000
   -9.1730   12.9400  -36.6820 C   0  0  0  0  0  0  0  0  0  0  0  0
   -8.8530   13.2790  -35.2310 C   0  0  2  0  0  0  0  0  0  0  0  0
   -9.0470   14.7330  -34.7430 C   0  0  0  0  0  0  0  0  0  0  0  0
   -7.9150   12.2780  -34.5490 C   0  0  0  0  0  0  0  0  0  0  0  0
   -8.5080   14.9300  -33.3220 C   0  0  0  0  0  0  0  0  0  0  0  0
   -6.7310   12.3310  -34.8040 O   0  0  0  0  0  0  0  0  0  0  0  0
   -8.1450   16.3840  -32.9140 C   0  0  0  0  0  0  0  0  0  0  0  0
   -8.8050   14.1230  -32.4480 O   0  0  0  0  0  0  0  0  0  0  0  0
   -6.6630   16.7160  -33.0960 C   0  0  0  0  0  0  0  0  0  0  0  0
   -6.3990   18.1350  -32.6670 C   0  0  0  0  0  0  0  0  0  0  0  0
   -5.8390   15.7750  -32.2840 C   0  0  0  0  0  0  0  0  0  0  0  0
  2  1  1  6
  2  3  1  0
  2  4  1  0
  5  3  1  0
  4  6  2  0
  5  7  1  0
  5  8  2  0
  7  9  1  6
  9 10  1  0
  9 11  1  0
A    2
 C04
A    3
 C02
A    5
 C01
A    6
 O48
A    8
 O03
A    9
 C78
A   10
 C81
A   11
 C82
M  END
>  <XChem_code>  (670) 
AG7§14

>  <Occupancy>  (670) 
[1.0, 1.0, 1.0, 1.0, 1.0, 1.0, 1.0, 1.0, 1.0, 1.0, 1.0, 1.0, 1.0, 1.0, 1.0, 1.0, 1.0, 1.0, 1.0, 1.0, 1.0, 1.0, 1.0, 1.0, 1.0, 1.0, 1.0, 1.0, 1.0, 1.0, 1.0, 1.0, 1.0, 1.0, 1.0, 1.0, 1.0, 1.0, 1.0, 1.0, 1.0, 1.0, 1.0, 1.0]

>  <TempFactor>  (670) 
[18.65, 18.72, 21.92, 17.65, 24.86, 15.28, 18.72, 30.43, 27.21, 19.54, 23.37, 32.17, 36.23, 46.57, 43.77, 41.12, 38.94, 15.18, 15.28, 13.93, 16.17, 15.35, 15.96, 15.01, 19.51, 19.89, 20.9, 31.74, 18.14, 17.75, 18.83, 41.08, 57.06, 15.9, 16.12, 18.19, 20.0, 16.9, 18.42, 18.16, 18.76, 20.9, 15.53, 47.08]

>  <accession>  (670) 
3QZQ_A

>  <description>  (670) 
Chain A, 3C protein [Enterovirus A71]

>  <evalue>  (670) 
7.17784e-59

>  <pdb_code>  (670) 
3QZQ

>  <chain>  (670) 
A

>  <ligands>  (670) 
[{'chain_id': 'A', 'author_residue_number': 501, 'author_insertion_code': '', 'chem_comp_id': 'AG7', 'alternate_conformers': 0, 'entity_id': 2, 'struct_asym_id': 'E', 'residue_number': 1, 'chem_comp_name': '4-{2-(4-FLUORO-BENZYL)-6-METHYL-5-[(5-METHYL-ISOXAZOLE-3-CARBONYL)-AMINO]-4-OXO-HEPTANOYLAMINO}-5-(2-OXO-PYRROLIDIN-3-YL)-PENTANOIC ACID ETHYL ESTER', 'weight': 600.678, 'carbohydrate_polymer': False, 'branch_name': ''}, {'chain_id': 'B', 'author_residue_number': 501, 'author_insertion_code': '', 'chem_comp_id': 'AG7', 'alternate_conformers': 0, 'entity_id': 2, 'struct_asym_id': 'F', 'residue_number': 1, 'chem_comp_name': '4-{2-(4-FLUORO-BENZYL)-6-METHYL-5-[(5-METHYL-ISOXAZOLE-3-CARBONYL)-AMINO]-4-OXO-HEPTANOYLAMINO}-5-(2-OXO-PYRROLIDIN-3-YL)-PENTANOIC ACID ETHYL ESTER', 'weight': 600.678, 'carbohydrate_polymer': False, 'branch_name': ''}, {'chain_id': 'C', 'author_residue_number': 501, 'author_insertion_code': '', 'chem_comp_id': 'AG7', 'alternate_conformers': 0, 'entity_id': 2, 'struct_asym_id': 'G', 'residue_number': 1, 'chem_comp_name': '4-{2-(4-FLUORO-BENZYL)-6-METHYL-5-[(5-METHYL-ISOXAZOLE-3-CARBONYL)-AMINO]-4-OXO-HEPTANOYLAMINO}-5-(2-OXO-PYRROLIDIN-3-YL)-PENTANOIC ACID ETHYL ESTER', 'weight': 600.678, 'carbohydrate_polymer': False, 'branch_name': ''}, {'chain_id': 'D', 'author_residue_number': 501, 'author_insertion_code': '', 'chem_comp_id': 'AG7', 'alternate_conformers': 0, 'entity_id': 2, 'struct_asym_id': 'H', 'residue_number': 1, 'chem_comp_name': '4-{2-(4-FLUORO-BENZYL)-6-METHYL-5-[(5-METHYL-ISOXAZOLE-3-CARBONYL)-AMINO]-4-OXO-HEPTANOYLAMINO}-5-(2-OXO-PYRROLIDIN-3-YL)-PENTANOIC ACID ETHYL ESTER', 'weight': 600.678, 'carbohydrate_polymer': False, 'branch_name': ''}]

>  <ligand_codes>  (670) 
['AG7', 'AG7', 'AG7', 'AG7']

>  <cofactor_codes>  (670) 
[]

>  <has_cofactor>  (670) 
False

>  <covalent>  (670) 
True

>  <base_name>  (670) 
3QZQ

>  <lig_resn>  (670) 
AG7

>  <lig_resi>  (670) 
501

>  <lig_chain>  (670) 
A

>  <lig_segi>  (670) 
E

>  <lig_alt>  (670) 


>  <polymer_chain>  (670) 
A

>  <single_smiles>  (670) 
CCOC(=O)CC[C@H](C[C@@H]1CCNC1=O)NC(=O)[C@@H](CC(=O)[C@@H](NC(=O)c2cc(C)on2)C(C)C)Cc3ccc(F)cc3

$$$$
AG7P14S31
     RDKit          3D

 13 12  0  0  0  0  0  0  0  0999 V2000
   -9.1730   12.9400  -36.6820 C   0  0  0  0  0  0  0  0  0  0  0  0
   -8.8530   13.2790  -35.2310 C   0  0  1  0  0  0  0  0  0  0  0  0
   -7.9150   12.2780  -34.5490 C   0  0  0  0  0  0  0  0  0  0  0  0
   -9.0470   14.7330  -34.7430 C   0  0  0  0  0  0  0  0  0  0  0  0
   -8.5060   11.1100  -33.8920 N   0  0  0  0  0  0  0  0  0  0  0  0
   -6.7310   12.3310  -34.8040 O   0  0  0  0  0  0  0  0  0  0  0  0
   -8.5080   14.9300  -33.3220 C   0  0  0  0  0  0  0  0  0  0  0  0
   -8.1450   16.3840  -32.9140 C   0  0  1  0  0  0  0  0  0  0  0  0
   -8.8050   14.1230  -32.4480 O   0  0  0  0  0  0  0  0  0  0  0  0
   -8.5860   16.6350  -31.5420 N   0  0  0  0  0  0  0  0  0  0  0  0
   -6.6630   16.7160  -33.0960 C   0  0  0  0  0  0  0  0  0  0  0  0
   -6.3990   18.1350  -32.6670 C   0  0  0  0  0  0  0  0  0  0  0  0
   -5.8390   15.7750  -32.2840 C   0  0  0  0  0  0  0  0  0  0  0  0
  2  1  1  6
  2  3  1  0
  2  4  1  0
  5  3  1  0
  3  6  2  0
  7  4  1  0
  7  8  1  0
  7  9  2  0
  8 10  1  1
  8 11  1  0
 11 12  1  0
 11 13  1  0
A    2
 C04
A    3
 C47
A    4
 C02
A    6
 O48
A    7
 C01
A    8
 C57
A    9
 O03
A   11
 C78
A   12
 C81
A   13
 C82
M  END
>  <XChem_code>  (671) 
AG7§14

>  <Occupancy>  (671) 
[1.0, 1.0, 1.0, 1.0, 1.0, 1.0, 1.0, 1.0, 1.0, 1.0, 1.0, 1.0, 1.0, 1.0, 1.0, 1.0, 1.0, 1.0, 1.0, 1.0, 1.0, 1.0, 1.0, 1.0, 1.0, 1.0, 1.0, 1.0, 1.0, 1.0, 1.0, 1.0, 1.0, 1.0, 1.0, 1.0, 1.0, 1.0, 1.0, 1.0, 1.0, 1.0, 1.0, 1.0]

>  <TempFactor>  (671) 
[18.65, 18.72, 21.92, 17.65, 24.86, 15.28, 18.72, 30.43, 27.21, 19.54, 23.37, 32.17, 36.23, 46.57, 43.77, 41.12, 38.94, 15.18, 15.28, 13.93, 16.17, 15.35, 15.96, 15.01, 19.51, 19.89, 20.9, 31.74, 18.14, 17.75, 18.83, 41.08, 57.06, 15.9, 16.12, 18.19, 20.0, 16.9, 18.42, 18.16, 18.76, 20.9, 15.53, 47.08]

>  <accession>  (671) 
3QZQ_A

>  <description>  (671) 
Chain A, 3C protein [Enterovirus A71]

>  <evalue>  (671) 
7.17784e-59

>  <pdb_code>  (671) 
3QZQ

>  <chain>  (671) 
A

>  <ligands>  (671) 
[{'chain_id': 'A', 'author_residue_number': 501, 'author_insertion_code': '', 'chem_comp_id': 'AG7', 'alternate_conformers': 0, 'entity_id': 2, 'struct_asym_id': 'E', 'residue_number': 1, 'chem_comp_name': '4-{2-(4-FLUORO-BENZYL)-6-METHYL-5-[(5-METHYL-ISOXAZOLE-3-CARBONYL)-AMINO]-4-OXO-HEPTANOYLAMINO}-5-(2-OXO-PYRROLIDIN-3-YL)-PENTANOIC ACID ETHYL ESTER', 'weight': 600.678, 'carbohydrate_polymer': False, 'branch_name': ''}, {'chain_id': 'B', 'author_residue_number': 501, 'author_insertion_code': '', 'chem_comp_id': 'AG7', 'alternate_conformers': 0, 'entity_id': 2, 'struct_asym_id': 'F', 'residue_number': 1, 'chem_comp_name': '4-{2-(4-FLUORO-BENZYL)-6-METHYL-5-[(5-METHYL-ISOXAZOLE-3-CARBONYL)-AMINO]-4-OXO-HEPTANOYLAMINO}-5-(2-OXO-PYRROLIDIN-3-YL)-PENTANOIC ACID ETHYL ESTER', 'weight': 600.678, 'carbohydrate_polymer': False, 'branch_name': ''}, {'chain_id': 'C', 'author_residue_number': 501, 'author_insertion_code': '', 'chem_comp_id': 'AG7', 'alternate_conformers': 0, 'entity_id': 2, 'struct_asym_id': 'G', 'residue_number': 1, 'chem_comp_name': '4-{2-(4-FLUORO-BENZYL)-6-METHYL-5-[(5-METHYL-ISOXAZOLE-3-CARBONYL)-AMINO]-4-OXO-HEPTANOYLAMINO}-5-(2-OXO-PYRROLIDIN-3-YL)-PENTANOIC ACID ETHYL ESTER', 'weight': 600.678, 'carbohydrate_polymer': False, 'branch_name': ''}, {'chain_id': 'D', 'author_residue_number': 501, 'author_insertion_code': '', 'chem_comp_id': 'AG7', 'alternate_conformers': 0, 'entity_id': 2, 'struct_asym_id': 'H', 'residue_number': 1, 'chem_comp_name': '4-{2-(4-FLUORO-BENZYL)-6-METHYL-5-[(5-METHYL-ISOXAZOLE-3-CARBONYL)-AMINO]-4-OXO-HEPTANOYLAMINO}-5-(2-OXO-PYRROLIDIN-3-YL)-PENTANOIC ACID ETHYL ESTER', 'weight': 600.678, 'carbohydrate_polymer': False, 'branch_name': ''}]

>  <ligand_codes>  (671) 
['AG7', 'AG7', 'AG7', 'AG7']

>  <cofactor_codes>  (671) 
[]

>  <has_cofactor>  (671) 
False

>  <covalent>  (671) 
True

>  <base_name>  (671) 
3QZQ

>  <lig_resn>  (671) 
AG7

>  <lig_resi>  (671) 
501

>  <lig_chain>  (671) 
A

>  <lig_segi>  (671) 
E

>  <lig_alt>  (671) 


>  <polymer_chain>  (671) 
A

>  <single_smiles>  (671) 
CCOC(=O)CC[C@H](C[C@@H]1CCNC1=O)NC(=O)[C@@H](CC(=O)[C@@H](NC(=O)c2cc(C)on2)C(C)C)Cc3ccc(F)cc3

$$$$
AG7P14S32
     RDKit          3D

 12 11  0  0  0  0  0  0  0  0999 V2000
   -9.1730   12.9400  -36.6820 C   0  0  0  0  0  0  0  0  0  0  0  0
   -8.8530   13.2790  -35.2310 C   0  0  2  0  0  0  0  0  0  0  0  0
   -9.0470   14.7330  -34.7430 C   0  0  0  0  0  0  0  0  0  0  0  0
   -7.9150   12.2780  -34.5490 C   0  0  0  0  0  0  0  0  0  0  0  0
   -8.5080   14.9300  -33.3220 C   0  0  0  0  0  0  0  0  0  0  0  0
   -8.5060   11.1100  -33.8920 N   0  0  0  0  0  0  0  0  0  0  0  0
   -6.7310   12.3310  -34.8040 O   0  0  0  0  0  0  0  0  0  0  0  0
   -8.1450   16.3840  -32.9140 C   0  0  0  0  0  0  0  0  0  0  0  0
   -8.8050   14.1230  -32.4480 O   0  0  0  0  0  0  0  0  0  0  0  0
   -6.6630   16.7160  -33.0960 C   0  0  0  0  0  0  0  0  0  0  0  0
   -6.3990   18.1350  -32.6670 C   0  0  0  0  0  0  0  0  0  0  0  0
   -5.8390   15.7750  -32.2840 C   0  0  0  0  0  0  0  0  0  0  0  0
  2  1  1  6
  2  3  1  0
  2  4  1  0
  5  3  1  0
  6  4  1  0
  4  7  2  0
  5  8  1  0
  5  9  2  0
  8 10  1  6
 10 11  1  0
 10 12  1  0
A    2
 C04
A    3
 C02
A    4
 C47
A    5
 C01
A    7
 O48
A    9
 O03
A   10
 C78
A   11
 C81
A   12
 C82
M  END
>  <XChem_code>  (672) 
AG7§14

>  <Occupancy>  (672) 
[1.0, 1.0, 1.0, 1.0, 1.0, 1.0, 1.0, 1.0, 1.0, 1.0, 1.0, 1.0, 1.0, 1.0, 1.0, 1.0, 1.0, 1.0, 1.0, 1.0, 1.0, 1.0, 1.0, 1.0, 1.0, 1.0, 1.0, 1.0, 1.0, 1.0, 1.0, 1.0, 1.0, 1.0, 1.0, 1.0, 1.0, 1.0, 1.0, 1.0, 1.0, 1.0, 1.0, 1.0]

>  <TempFactor>  (672) 
[18.65, 18.72, 21.92, 17.65, 24.86, 15.28, 18.72, 30.43, 27.21, 19.54, 23.37, 32.17, 36.23, 46.57, 43.77, 41.12, 38.94, 15.18, 15.28, 13.93, 16.17, 15.35, 15.96, 15.01, 19.51, 19.89, 20.9, 31.74, 18.14, 17.75, 18.83, 41.08, 57.06, 15.9, 16.12, 18.19, 20.0, 16.9, 18.42, 18.16, 18.76, 20.9, 15.53, 47.08]

>  <accession>  (672) 
3QZQ_A

>  <description>  (672) 
Chain A, 3C protein [Enterovirus A71]

>  <evalue>  (672) 
7.17784e-59

>  <pdb_code>  (672) 
3QZQ

>  <chain>  (672) 
A

>  <ligands>  (672) 
[{'chain_id': 'A', 'author_residue_number': 501, 'author_insertion_code': '', 'chem_comp_id': 'AG7', 'alternate_conformers': 0, 'entity_id': 2, 'struct_asym_id': 'E', 'residue_number': 1, 'chem_comp_name': '4-{2-(4-FLUORO-BENZYL)-6-METHYL-5-[(5-METHYL-ISOXAZOLE-3-CARBONYL)-AMINO]-4-OXO-HEPTANOYLAMINO}-5-(2-OXO-PYRROLIDIN-3-YL)-PENTANOIC ACID ETHYL ESTER', 'weight': 600.678, 'carbohydrate_polymer': False, 'branch_name': ''}, {'chain_id': 'B', 'author_residue_number': 501, 'author_insertion_code': '', 'chem_comp_id': 'AG7', 'alternate_conformers': 0, 'entity_id': 2, 'struct_asym_id': 'F', 'residue_number': 1, 'chem_comp_name': '4-{2-(4-FLUORO-BENZYL)-6-METHYL-5-[(5-METHYL-ISOXAZOLE-3-CARBONYL)-AMINO]-4-OXO-HEPTANOYLAMINO}-5-(2-OXO-PYRROLIDIN-3-YL)-PENTANOIC ACID ETHYL ESTER', 'weight': 600.678, 'carbohydrate_polymer': False, 'branch_name': ''}, {'chain_id': 'C', 'author_residue_number': 501, 'author_insertion_code': '', 'chem_comp_id': 'AG7', 'alternate_conformers': 0, 'entity_id': 2, 'struct_asym_id': 'G', 'residue_number': 1, 'chem_comp_name': '4-{2-(4-FLUORO-BENZYL)-6-METHYL-5-[(5-METHYL-ISOXAZOLE-3-CARBONYL)-AMINO]-4-OXO-HEPTANOYLAMINO}-5-(2-OXO-PYRROLIDIN-3-YL)-PENTANOIC ACID ETHYL ESTER', 'weight': 600.678, 'carbohydrate_polymer': False, 'branch_name': ''}, {'chain_id': 'D', 'author_residue_number': 501, 'author_insertion_code': '', 'chem_comp_id': 'AG7', 'alternate_conformers': 0, 'entity_id': 2, 'struct_asym_id': 'H', 'residue_number': 1, 'chem_comp_name': '4-{2-(4-FLUORO-BENZYL)-6-METHYL-5-[(5-METHYL-ISOXAZOLE-3-CARBONYL)-AMINO]-4-OXO-HEPTANOYLAMINO}-5-(2-OXO-PYRROLIDIN-3-YL)-PENTANOIC ACID ETHYL ESTER', 'weight': 600.678, 'carbohydrate_polymer': False, 'branch_name': ''}]

>  <ligand_codes>  (672) 
['AG7', 'AG7', 'AG7', 'AG7']

>  <cofactor_codes>  (672) 
[]

>  <has_cofactor>  (672) 
False

>  <covalent>  (672) 
True

>  <base_name>  (672) 
3QZQ

>  <lig_resn>  (672) 
AG7

>  <lig_resi>  (672) 
501

>  <lig_chain>  (672) 
A

>  <lig_segi>  (672) 
E

>  <lig_alt>  (672) 


>  <polymer_chain>  (672) 
A

>  <single_smiles>  (672) 
CCOC(=O)CC[C@H](C[C@@H]1CCNC1=O)NC(=O)[C@@H](CC(=O)[C@@H](NC(=O)c2cc(C)on2)C(C)C)Cc3ccc(F)cc3

$$$$
AG7P14S33
     RDKit          3D

 32 32  0  0  0  0  0  0  0  0999 V2000
   -7.3190    9.7870  -31.9670 C   0  0  0  0  0  0  0  0  0  0  0  0
   -7.7300    9.9240  -33.4360 C   0  0  2  0  0  0  0  0  0  0  0  0
   -8.5060   11.1100  -33.8920 N   0  0  0  0  0  0  0  0  0  0  0  0
   -7.7770    8.6160  -34.2440 C   0  0  2  0  0  0  0  0  0  0  0  0
   -7.9150   12.2780  -34.5490 C   0  0  0  0  0  0  0  0  0  0  0  0
   -7.7810    8.8240  -35.7420 C   0  0  0  0  0  0  0  0  0  0  0  0
   -9.7150    8.3890  -33.9240 R   0  0  0  0  0  0  0  0  0  0  0  0
   -8.8530   13.2790  -35.2310 C   0  0  1  0  0  0  0  0  0  0  0  0
   -6.7310   12.3310  -34.8040 O   0  0  0  0  0  0  0  0  0  0  0  0
   -6.3340    8.9960  -36.1790 C   0  0  0  0  0  0  0  0  0  0  0  0
   -9.0470   14.7330  -34.7430 C   0  0  0  0  0  0  0  0  0  0  0  0
   -9.1730   12.9400  -36.6820 C   0  0  0  0  0  0  0  0  0  0  0  0
   -6.0510    9.6750  -37.2240 O   0  0  0  0  0  0  0  0  0  0  0  0
   -5.4140    8.5070  -35.4860 O   0  0  0  0  0  0  0  0  0  0  0  0
   -8.5080   14.9300  -33.3220 C   0  0  0  0  0  0  0  0  0  0  0  0
  -10.3460   13.7680  -37.1900 C   0  0  0  0  0  0  0  0  0  0  0  0
   -4.7230    9.9930  -37.5080 C   0  0  0  0  0  0  0  0  0  0  0  0
   -8.1450   16.3840  -32.9140 C   0  0  1  0  0  0  0  0  0  0  0  0
   -8.8050   14.1230  -32.4480 O   0  0  0  0  0  0  0  0  0  0  0  0
  -11.6330   13.4790  -36.7590 C   0  0  0  0  0  0  0  0  0  0  0  0
  -10.1200   14.7840  -38.1310 C   0  0  0  0  0  0  0  0  0  0  0  0
   -4.6910   10.8400  -38.7540 C   0  0  0  0  0  0  0  0  0  0  0  0
   -8.5860   16.6350  -31.5420 N   0  0  0  0  0  0  0  0  0  0  0  0
   -6.6630   16.7160  -33.0960 C   0  0  0  0  0  0  0  0  0  0  0  0
  -12.7160   14.2140  -37.2600 C   0  0  0  0  0  0  0  0  0  0  0  0
  -11.2050   15.5220  -38.6290 C   0  0  0  0  0  0  0  0  0  0  0  0
   -9.5070   17.7220  -31.2510 C   0  0  0  0  0  0  0  0  0  0  0  0
   -6.3990   18.1350  -32.6670 C   0  0  0  0  0  0  0  0  0  0  0  0
   -5.8390   15.7750  -32.2840 C   0  0  0  0  0  0  0  0  0  0  0  0
  -12.4920   15.2320  -38.1910 C   0  0  0  0  0  0  0  0  0  0  0  0
   -9.9070   18.4670  -32.1230 O   0  0  0  0  0  0  0  0  0  0  0  0
  -13.5350   15.9120  -38.6740 F   0  0  0  0  0  0  0  0  0  0  0  0
  2  1  1  1
  3  2  1  0
  2  4  1  0
  3  5  1  0
  4  6  1  0
  4  7  1  1
  8  5  1  0
  5  9  2  0
  6 10  1  0
  8 11  1  6
  8 12  1  0
 10 13  1  0
 10 14  2  0
 15 11  1  0
 12 16  1  0
 13 17  1  0
 15 18  1  0
 15 19  2  0
 16 20  2  0
 16 21  1  0
 17 22  1  0
 18 23  1  1
 18 24  1  0
 20 25  1  0
 26 21  2  0
 23 27  1  0
 24 28  1  0
 24 29  1  0
 25 30  2  0
 30 26  1  0
 27 31  2  0
 30 32  1  0
V    7 *
A    2
 C13
A    3
 N12
A    4
 C19
A    5
 C47
A    6
 C20
A    7
 X  
A    8
 C04
A    9
 O48
A   10
 C21
A   11
 C02
A   12
 C05
A   13
 O22
A   14
 O23
A   15
 C01
A   16
 C06
A   17
 C50
A   18
 C57
A   19
 O03
A   20
 C07
A   21
 C11
A   22
 C53
A   23
 N58
A   24
 C78
A   25
 C08
A   26
 C10
A   28
 C81
A   29
 C82
A   30
 C09
A   31
 O60
A   32
 F1 
M  END
>  <XChem_code>  (673) 
AG7§14

>  <Occupancy>  (673) 
[1.0, 1.0, 1.0, 1.0, 1.0, 1.0, 1.0, 1.0, 1.0, 1.0, 1.0, 1.0, 1.0, 1.0, 1.0, 1.0, 1.0, 1.0, 1.0, 1.0, 1.0, 1.0, 1.0, 1.0, 1.0, 1.0, 1.0, 1.0, 1.0, 1.0, 1.0, 1.0, 1.0, 1.0, 1.0, 1.0, 1.0, 1.0, 1.0, 1.0, 1.0, 1.0, 1.0, 1.0]

>  <TempFactor>  (673) 
[18.65, 18.72, 21.92, 17.65, 24.86, 15.28, 18.72, 30.43, 27.21, 19.54, 23.37, 32.17, 36.23, 46.57, 43.77, 41.12, 38.94, 15.18, 15.28, 13.93, 16.17, 15.35, 15.96, 15.01, 19.51, 19.89, 20.9, 31.74, 18.14, 17.75, 18.83, 41.08, 57.06, 15.9, 16.12, 18.19, 20.0, 16.9, 18.42, 18.16, 18.76, 20.9, 15.53, 47.08]

>  <accession>  (673) 
3QZQ_A

>  <description>  (673) 
Chain A, 3C protein [Enterovirus A71]

>  <evalue>  (673) 
7.17784e-59

>  <pdb_code>  (673) 
3QZQ

>  <chain>  (673) 
A

>  <ligands>  (673) 
[{'chain_id': 'A', 'author_residue_number': 501, 'author_insertion_code': '', 'chem_comp_id': 'AG7', 'alternate_conformers': 0, 'entity_id': 2, 'struct_asym_id': 'E', 'residue_number': 1, 'chem_comp_name': '4-{2-(4-FLUORO-BENZYL)-6-METHYL-5-[(5-METHYL-ISOXAZOLE-3-CARBONYL)-AMINO]-4-OXO-HEPTANOYLAMINO}-5-(2-OXO-PYRROLIDIN-3-YL)-PENTANOIC ACID ETHYL ESTER', 'weight': 600.678, 'carbohydrate_polymer': False, 'branch_name': ''}, {'chain_id': 'B', 'author_residue_number': 501, 'author_insertion_code': '', 'chem_comp_id': 'AG7', 'alternate_conformers': 0, 'entity_id': 2, 'struct_asym_id': 'F', 'residue_number': 1, 'chem_comp_name': '4-{2-(4-FLUORO-BENZYL)-6-METHYL-5-[(5-METHYL-ISOXAZOLE-3-CARBONYL)-AMINO]-4-OXO-HEPTANOYLAMINO}-5-(2-OXO-PYRROLIDIN-3-YL)-PENTANOIC ACID ETHYL ESTER', 'weight': 600.678, 'carbohydrate_polymer': False, 'branch_name': ''}, {'chain_id': 'C', 'author_residue_number': 501, 'author_insertion_code': '', 'chem_comp_id': 'AG7', 'alternate_conformers': 0, 'entity_id': 2, 'struct_asym_id': 'G', 'residue_number': 1, 'chem_comp_name': '4-{2-(4-FLUORO-BENZYL)-6-METHYL-5-[(5-METHYL-ISOXAZOLE-3-CARBONYL)-AMINO]-4-OXO-HEPTANOYLAMINO}-5-(2-OXO-PYRROLIDIN-3-YL)-PENTANOIC ACID ETHYL ESTER', 'weight': 600.678, 'carbohydrate_polymer': False, 'branch_name': ''}, {'chain_id': 'D', 'author_residue_number': 501, 'author_insertion_code': '', 'chem_comp_id': 'AG7', 'alternate_conformers': 0, 'entity_id': 2, 'struct_asym_id': 'H', 'residue_number': 1, 'chem_comp_name': '4-{2-(4-FLUORO-BENZYL)-6-METHYL-5-[(5-METHYL-ISOXAZOLE-3-CARBONYL)-AMINO]-4-OXO-HEPTANOYLAMINO}-5-(2-OXO-PYRROLIDIN-3-YL)-PENTANOIC ACID ETHYL ESTER', 'weight': 600.678, 'carbohydrate_polymer': False, 'branch_name': ''}]

>  <ligand_codes>  (673) 
['AG7', 'AG7', 'AG7', 'AG7']

>  <cofactor_codes>  (673) 
[]

>  <has_cofactor>  (673) 
False

>  <covalent>  (673) 
True

>  <base_name>  (673) 
3QZQ

>  <lig_resn>  (673) 
AG7

>  <lig_resi>  (673) 
501

>  <lig_chain>  (673) 
A

>  <lig_segi>  (673) 
E

>  <lig_alt>  (673) 


>  <polymer_chain>  (673) 
A

>  <single_smiles>  (673) 
CCOC(=O)CC[C@H](C[C@@H]1CCNC1=O)NC(=O)[C@@H](CC(=O)[C@@H](NC(=O)c2cc(C)on2)C(C)C)Cc3ccc(F)cc3

$$$$
AG7P14S34
     RDKit          3D

 31 31  0  0  0  0  0  0  0  0999 V2000
   -9.1730   12.9400  -36.6820 C   0  0  0  0  0  0  0  0  0  0  0  0
   -8.8530   13.2790  -35.2310 C   0  0  2  0  0  0  0  0  0  0  0  0
   -9.0470   14.7330  -34.7430 C   0  0  0  0  0  0  0  0  0  0  0  0
   -7.9150   12.2780  -34.5490 C   0  0  0  0  0  0  0  0  0  0  0  0
   -8.5080   14.9300  -33.3220 C   0  0  0  0  0  0  0  0  0  0  0  0
   -8.5060   11.1100  -33.8920 N   0  0  0  0  0  0  0  0  0  0  0  0
   -6.7310   12.3310  -34.8040 O   0  0  0  0  0  0  0  0  0  0  0  0
   -8.1450   16.3840  -32.9140 C   0  0  1  0  0  0  0  0  0  0  0  0
   -8.8050   14.1230  -32.4480 O   0  0  0  0  0  0  0  0  0  0  0  0
   -7.7300    9.9240  -33.4360 C   0  0  1  0  0  0  0  0  0  0  0  0
   -8.5860   16.6350  -31.5420 N   0  0  0  0  0  0  0  0  0  0  0  0
   -6.6630   16.7160  -33.0960 C   0  0  0  0  0  0  0  0  0  0  0  0
   -7.3190    9.7870  -31.9670 C   0  0  0  0  0  0  0  0  0  0  0  0
   -7.7770    8.6160  -34.2440 C   0  0  2  0  0  0  0  0  0  0  0  0
   -9.5070   17.7220  -31.2510 C   0  0  0  0  0  0  0  0  0  0  0  0
   -6.3990   18.1350  -32.6670 C   0  0  0  0  0  0  0  0  0  0  0  0
   -5.8390   15.7750  -32.2840 C   0  0  0  0  0  0  0  0  0  0  0  0
   -6.9490   11.1100  -31.3440 C   0  0  1  0  0  0  0  0  0  0  0  0
   -7.7810    8.8240  -35.7420 C   0  0  0  0  0  0  0  0  0  0  0  0
   -9.7150    8.3890  -33.9240 R   0  0  0  0  0  0  0  0  0  0  0  0
   -9.9070   18.4670  -32.1230 O   0  0  0  0  0  0  0  0  0  0  0  0
   -6.8820   10.9740  -29.8610 C   0  0  0  0  0  0  0  0  0  0  0  0
   -5.5910   11.5700  -31.7670 C   0  0  0  0  0  0  0  0  0  0  0  0
   -6.3340    8.9960  -36.1790 C   0  0  0  0  0  0  0  0  0  0  0  0
   -5.7440   11.6850  -29.4030 N   0  0  0  0  0  0  0  0  0  0  0  0
   -7.6250   10.3230  -29.1430 O   0  0  0  0  0  0  0  0  0  0  0  0
   -5.1300   12.3330  -30.5440 C   0  0  0  0  0  0  0  0  0  0  0  0
   -6.0510    9.6750  -37.2240 O   0  0  0  0  0  0  0  0  0  0  0  0
   -5.4140    8.5070  -35.4860 O   0  0  0  0  0  0  0  0  0  0  0  0
   -4.7230    9.9930  -37.5080 C   0  0  0  0  0  0  0  0  0  0  0  0
   -4.6910   10.8400  -38.7540 C   0  0  0  0  0  0  0  0  0  0  0  0
  2  1  1  6
  2  3  1  0
  2  4  1  0
  5  3  1  0
  6  4  1  0
  4  7  2  0
  5  8  1  0
  5  9  2  0
  6 10  1  0
  8 11  1  1
  8 12  1  0
 10 13  1  1
 10 14  1  0
 11 15  1  0
 12 16  1  0
 12 17  1  0
 18 13  1  6
 14 19  1  0
 14 20  1  1
 15 21  2  0
 18 22  1  0
 18 23  1  0
 19 24  1  0
 22 25  1  0
 22 26  2  0
 27 23  1  0
 24 28  1  0
 24 29  2  0
 25 27  1  0
 28 30  1  0
 30 31  1  0
V   20 *
A    2
 C04
A    3
 C02
A    4
 C47
A    5
 C01
A    6
 N12
A    7
 O48
A    8
 C57
A    9
 O03
A   10
 C13
A   11
 N58
A   12
 C78
A   13
 C14
A   14
 C19
A   16
 C81
A   17
 C82
A   18
 C15
A   19
 C20
A   20
 X  
A   21
 O60
A   22
 C16
A   23
 C84
A   24
 C21
A   25
 N17
A   26
 O18
A   27
 C83
A   28
 O22
A   29
 O23
A   30
 C50
A   31
 C53
M  END
>  <XChem_code>  (674) 
AG7§14

>  <Occupancy>  (674) 
[1.0, 1.0, 1.0, 1.0, 1.0, 1.0, 1.0, 1.0, 1.0, 1.0, 1.0, 1.0, 1.0, 1.0, 1.0, 1.0, 1.0, 1.0, 1.0, 1.0, 1.0, 1.0, 1.0, 1.0, 1.0, 1.0, 1.0, 1.0, 1.0, 1.0, 1.0, 1.0, 1.0, 1.0, 1.0, 1.0, 1.0, 1.0, 1.0, 1.0, 1.0, 1.0, 1.0, 1.0]

>  <TempFactor>  (674) 
[18.65, 18.72, 21.92, 17.65, 24.86, 15.28, 18.72, 30.43, 27.21, 19.54, 23.37, 32.17, 36.23, 46.57, 43.77, 41.12, 38.94, 15.18, 15.28, 13.93, 16.17, 15.35, 15.96, 15.01, 19.51, 19.89, 20.9, 31.74, 18.14, 17.75, 18.83, 41.08, 57.06, 15.9, 16.12, 18.19, 20.0, 16.9, 18.42, 18.16, 18.76, 20.9, 15.53, 47.08]

>  <accession>  (674) 
3QZQ_A

>  <description>  (674) 
Chain A, 3C protein [Enterovirus A71]

>  <evalue>  (674) 
7.17784e-59

>  <pdb_code>  (674) 
3QZQ

>  <chain>  (674) 
A

>  <ligands>  (674) 
[{'chain_id': 'A', 'author_residue_number': 501, 'author_insertion_code': '', 'chem_comp_id': 'AG7', 'alternate_conformers': 0, 'entity_id': 2, 'struct_asym_id': 'E', 'residue_number': 1, 'chem_comp_name': '4-{2-(4-FLUORO-BENZYL)-6-METHYL-5-[(5-METHYL-ISOXAZOLE-3-CARBONYL)-AMINO]-4-OXO-HEPTANOYLAMINO}-5-(2-OXO-PYRROLIDIN-3-YL)-PENTANOIC ACID ETHYL ESTER', 'weight': 600.678, 'carbohydrate_polymer': False, 'branch_name': ''}, {'chain_id': 'B', 'author_residue_number': 501, 'author_insertion_code': '', 'chem_comp_id': 'AG7', 'alternate_conformers': 0, 'entity_id': 2, 'struct_asym_id': 'F', 'residue_number': 1, 'chem_comp_name': '4-{2-(4-FLUORO-BENZYL)-6-METHYL-5-[(5-METHYL-ISOXAZOLE-3-CARBONYL)-AMINO]-4-OXO-HEPTANOYLAMINO}-5-(2-OXO-PYRROLIDIN-3-YL)-PENTANOIC ACID ETHYL ESTER', 'weight': 600.678, 'carbohydrate_polymer': False, 'branch_name': ''}, {'chain_id': 'C', 'author_residue_number': 501, 'author_insertion_code': '', 'chem_comp_id': 'AG7', 'alternate_conformers': 0, 'entity_id': 2, 'struct_asym_id': 'G', 'residue_number': 1, 'chem_comp_name': '4-{2-(4-FLUORO-BENZYL)-6-METHYL-5-[(5-METHYL-ISOXAZOLE-3-CARBONYL)-AMINO]-4-OXO-HEPTANOYLAMINO}-5-(2-OXO-PYRROLIDIN-3-YL)-PENTANOIC ACID ETHYL ESTER', 'weight': 600.678, 'carbohydrate_polymer': False, 'branch_name': ''}, {'chain_id': 'D', 'author_residue_number': 501, 'author_insertion_code': '', 'chem_comp_id': 'AG7', 'alternate_conformers': 0, 'entity_id': 2, 'struct_asym_id': 'H', 'residue_number': 1, 'chem_comp_name': '4-{2-(4-FLUORO-BENZYL)-6-METHYL-5-[(5-METHYL-ISOXAZOLE-3-CARBONYL)-AMINO]-4-OXO-HEPTANOYLAMINO}-5-(2-OXO-PYRROLIDIN-3-YL)-PENTANOIC ACID ETHYL ESTER', 'weight': 600.678, 'carbohydrate_polymer': False, 'branch_name': ''}]

>  <ligand_codes>  (674) 
['AG7', 'AG7', 'AG7', 'AG7']

>  <cofactor_codes>  (674) 
[]

>  <has_cofactor>  (674) 
False

>  <covalent>  (674) 
True

>  <base_name>  (674) 
3QZQ

>  <lig_resn>  (674) 
AG7

>  <lig_resi>  (674) 
501

>  <lig_chain>  (674) 
A

>  <lig_segi>  (674) 
E

>  <lig_alt>  (674) 


>  <polymer_chain>  (674) 
A

>  <single_smiles>  (674) 
CCOC(=O)CC[C@H](C[C@@H]1CCNC1=O)NC(=O)[C@@H](CC(=O)[C@@H](NC(=O)c2cc(C)on2)C(C)C)Cc3ccc(F)cc3

$$$$
AG7P14S35
     RDKit          3D

 14 13  0  0  0  0  0  0  0  0999 V2000
   -9.1730   12.9400  -36.6820 C   0  0  0  0  0  0  0  0  0  0  0  0
   -8.8530   13.2790  -35.2310 C   0  0  2  0  0  0  0  0  0  0  0  0
   -9.0470   14.7330  -34.7430 C   0  0  0  0  0  0  0  0  0  0  0  0
   -7.9150   12.2780  -34.5490 C   0  0  0  0  0  0  0  0  0  0  0  0
   -8.5080   14.9300  -33.3220 C   0  0  0  0  0  0  0  0  0  0  0  0
   -6.7310   12.3310  -34.8040 O   0  0  0  0  0  0  0  0  0  0  0  0
   -8.1450   16.3840  -32.9140 C   0  0  1  0  0  0  0  0  0  0  0  0
   -8.8050   14.1230  -32.4480 O   0  0  0  0  0  0  0  0  0  0  0  0
   -8.5860   16.6350  -31.5420 N   0  0  0  0  0  0  0  0  0  0  0  0
   -6.6630   16.7160  -33.0960 C   0  0  0  0  0  0  0  0  0  0  0  0
   -9.5070   17.7220  -31.2510 C   0  0  0  0  0  0  0  0  0  0  0  0
   -6.3990   18.1350  -32.6670 C   0  0  0  0  0  0  0  0  0  0  0  0
   -5.8390   15.7750  -32.2840 C   0  0  0  0  0  0  0  0  0  0  0  0
   -9.9070   18.4670  -32.1230 O   0  0  0  0  0  0  0  0  0  0  0  0
  2  1  1  6
  2  3  1  0
  2  4  1  0
  5  3  1  0
  4  6  2  0
  5  7  1  0
  5  8  2  0
  7  9  1  1
  7 10  1  0
  9 11  1  0
 10 12  1  0
 10 13  1  0
 11 14  2  0
A    2
 C04
A    3
 C02
A    5
 C01
A    6
 O48
A    7
 C57
A    8
 O03
A    9
 N58
A   10
 C78
A   12
 C81
A   13
 C82
A   14
 O60
M  END
>  <XChem_code>  (675) 
AG7§14

>  <Occupancy>  (675) 
[1.0, 1.0, 1.0, 1.0, 1.0, 1.0, 1.0, 1.0, 1.0, 1.0, 1.0, 1.0, 1.0, 1.0, 1.0, 1.0, 1.0, 1.0, 1.0, 1.0, 1.0, 1.0, 1.0, 1.0, 1.0, 1.0, 1.0, 1.0, 1.0, 1.0, 1.0, 1.0, 1.0, 1.0, 1.0, 1.0, 1.0, 1.0, 1.0, 1.0, 1.0, 1.0, 1.0, 1.0]

>  <TempFactor>  (675) 
[18.65, 18.72, 21.92, 17.65, 24.86, 15.28, 18.72, 30.43, 27.21, 19.54, 23.37, 32.17, 36.23, 46.57, 43.77, 41.12, 38.94, 15.18, 15.28, 13.93, 16.17, 15.35, 15.96, 15.01, 19.51, 19.89, 20.9, 31.74, 18.14, 17.75, 18.83, 41.08, 57.06, 15.9, 16.12, 18.19, 20.0, 16.9, 18.42, 18.16, 18.76, 20.9, 15.53, 47.08]

>  <accession>  (675) 
3QZQ_A

>  <description>  (675) 
Chain A, 3C protein [Enterovirus A71]

>  <evalue>  (675) 
7.17784e-59

>  <pdb_code>  (675) 
3QZQ

>  <chain>  (675) 
A

>  <ligands>  (675) 
[{'chain_id': 'A', 'author_residue_number': 501, 'author_insertion_code': '', 'chem_comp_id': 'AG7', 'alternate_conformers': 0, 'entity_id': 2, 'struct_asym_id': 'E', 'residue_number': 1, 'chem_comp_name': '4-{2-(4-FLUORO-BENZYL)-6-METHYL-5-[(5-METHYL-ISOXAZOLE-3-CARBONYL)-AMINO]-4-OXO-HEPTANOYLAMINO}-5-(2-OXO-PYRROLIDIN-3-YL)-PENTANOIC ACID ETHYL ESTER', 'weight': 600.678, 'carbohydrate_polymer': False, 'branch_name': ''}, {'chain_id': 'B', 'author_residue_number': 501, 'author_insertion_code': '', 'chem_comp_id': 'AG7', 'alternate_conformers': 0, 'entity_id': 2, 'struct_asym_id': 'F', 'residue_number': 1, 'chem_comp_name': '4-{2-(4-FLUORO-BENZYL)-6-METHYL-5-[(5-METHYL-ISOXAZOLE-3-CARBONYL)-AMINO]-4-OXO-HEPTANOYLAMINO}-5-(2-OXO-PYRROLIDIN-3-YL)-PENTANOIC ACID ETHYL ESTER', 'weight': 600.678, 'carbohydrate_polymer': False, 'branch_name': ''}, {'chain_id': 'C', 'author_residue_number': 501, 'author_insertion_code': '', 'chem_comp_id': 'AG7', 'alternate_conformers': 0, 'entity_id': 2, 'struct_asym_id': 'G', 'residue_number': 1, 'chem_comp_name': '4-{2-(4-FLUORO-BENZYL)-6-METHYL-5-[(5-METHYL-ISOXAZOLE-3-CARBONYL)-AMINO]-4-OXO-HEPTANOYLAMINO}-5-(2-OXO-PYRROLIDIN-3-YL)-PENTANOIC ACID ETHYL ESTER', 'weight': 600.678, 'carbohydrate_polymer': False, 'branch_name': ''}, {'chain_id': 'D', 'author_residue_number': 501, 'author_insertion_code': '', 'chem_comp_id': 'AG7', 'alternate_conformers': 0, 'entity_id': 2, 'struct_asym_id': 'H', 'residue_number': 1, 'chem_comp_name': '4-{2-(4-FLUORO-BENZYL)-6-METHYL-5-[(5-METHYL-ISOXAZOLE-3-CARBONYL)-AMINO]-4-OXO-HEPTANOYLAMINO}-5-(2-OXO-PYRROLIDIN-3-YL)-PENTANOIC ACID ETHYL ESTER', 'weight': 600.678, 'carbohydrate_polymer': False, 'branch_name': ''}]

>  <ligand_codes>  (675) 
['AG7', 'AG7', 'AG7', 'AG7']

>  <cofactor_codes>  (675) 
[]

>  <has_cofactor>  (675) 
False

>  <covalent>  (675) 
True

>  <base_name>  (675) 
3QZQ

>  <lig_resn>  (675) 
AG7

>  <lig_resi>  (675) 
501

>  <lig_chain>  (675) 
A

>  <lig_segi>  (675) 
E

>  <lig_alt>  (675) 


>  <polymer_chain>  (675) 
A

>  <single_smiles>  (675) 
CCOC(=O)CC[C@H](C[C@@H]1CCNC1=O)NC(=O)[C@@H](CC(=O)[C@@H](NC(=O)c2cc(C)on2)C(C)C)Cc3ccc(F)cc3

$$$$
AG7P14S36
     RDKit          3D

 15 14  0  0  0  0  0  0  0  0999 V2000
   -9.1730   12.9400  -36.6820 C   0  0  0  0  0  0  0  0  0  0  0  0
   -8.8530   13.2790  -35.2310 C   0  0  2  0  0  0  0  0  0  0  0  0
   -9.0470   14.7330  -34.7430 C   0  0  0  0  0  0  0  0  0  0  0  0
   -7.9150   12.2780  -34.5490 C   0  0  0  0  0  0  0  0  0  0  0  0
   -8.5080   14.9300  -33.3220 C   0  0  0  0  0  0  0  0  0  0  0  0
   -8.5060   11.1100  -33.8920 N   0  0  0  0  0  0  0  0  0  0  0  0
   -6.7310   12.3310  -34.8040 O   0  0  0  0  0  0  0  0  0  0  0  0
   -8.1450   16.3840  -32.9140 C   0  0  1  0  0  0  0  0  0  0  0  0
   -8.8050   14.1230  -32.4480 O   0  0  0  0  0  0  0  0  0  0  0  0
   -8.5860   16.6350  -31.5420 N   0  0  0  0  0  0  0  0  0  0  0  0
   -6.6630   16.7160  -33.0960 C   0  0  0  0  0  0  0  0  0  0  0  0
   -9.5070   17.7220  -31.2510 C   0  0  0  0  0  0  0  0  0  0  0  0
   -6.3990   18.1350  -32.6670 C   0  0  0  0  0  0  0  0  0  0  0  0
   -5.8390   15.7750  -32.2840 C   0  0  0  0  0  0  0  0  0  0  0  0
   -9.9070   18.4670  -32.1230 O   0  0  0  0  0  0  0  0  0  0  0  0
  2  1  1  6
  2  3  1  0
  2  4  1  0
  5  3  1  0
  6  4  1  0
  4  7  2  0
  5  8  1  0
  5  9  2  0
  8 10  1  1
  8 11  1  0
 10 12  1  0
 11 13  1  0
 11 14  1  0
 12 15  2  0
A    2
 C04
A    3
 C02
A    4
 C47
A    5
 C01
A    7
 O48
A    8
 C57
A    9
 O03
A   10
 N58
A   11
 C78
A   13
 C81
A   14
 C82
A   15
 O60
M  END
>  <XChem_code>  (676) 
AG7§14

>  <Occupancy>  (676) 
[1.0, 1.0, 1.0, 1.0, 1.0, 1.0, 1.0, 1.0, 1.0, 1.0, 1.0, 1.0, 1.0, 1.0, 1.0, 1.0, 1.0, 1.0, 1.0, 1.0, 1.0, 1.0, 1.0, 1.0, 1.0, 1.0, 1.0, 1.0, 1.0, 1.0, 1.0, 1.0, 1.0, 1.0, 1.0, 1.0, 1.0, 1.0, 1.0, 1.0, 1.0, 1.0, 1.0, 1.0]

>  <TempFactor>  (676) 
[18.65, 18.72, 21.92, 17.65, 24.86, 15.28, 18.72, 30.43, 27.21, 19.54, 23.37, 32.17, 36.23, 46.57, 43.77, 41.12, 38.94, 15.18, 15.28, 13.93, 16.17, 15.35, 15.96, 15.01, 19.51, 19.89, 20.9, 31.74, 18.14, 17.75, 18.83, 41.08, 57.06, 15.9, 16.12, 18.19, 20.0, 16.9, 18.42, 18.16, 18.76, 20.9, 15.53, 47.08]

>  <accession>  (676) 
3QZQ_A

>  <description>  (676) 
Chain A, 3C protein [Enterovirus A71]

>  <evalue>  (676) 
7.17784e-59

>  <pdb_code>  (676) 
3QZQ

>  <chain>  (676) 
A

>  <ligands>  (676) 
[{'chain_id': 'A', 'author_residue_number': 501, 'author_insertion_code': '', 'chem_comp_id': 'AG7', 'alternate_conformers': 0, 'entity_id': 2, 'struct_asym_id': 'E', 'residue_number': 1, 'chem_comp_name': '4-{2-(4-FLUORO-BENZYL)-6-METHYL-5-[(5-METHYL-ISOXAZOLE-3-CARBONYL)-AMINO]-4-OXO-HEPTANOYLAMINO}-5-(2-OXO-PYRROLIDIN-3-YL)-PENTANOIC ACID ETHYL ESTER', 'weight': 600.678, 'carbohydrate_polymer': False, 'branch_name': ''}, {'chain_id': 'B', 'author_residue_number': 501, 'author_insertion_code': '', 'chem_comp_id': 'AG7', 'alternate_conformers': 0, 'entity_id': 2, 'struct_asym_id': 'F', 'residue_number': 1, 'chem_comp_name': '4-{2-(4-FLUORO-BENZYL)-6-METHYL-5-[(5-METHYL-ISOXAZOLE-3-CARBONYL)-AMINO]-4-OXO-HEPTANOYLAMINO}-5-(2-OXO-PYRROLIDIN-3-YL)-PENTANOIC ACID ETHYL ESTER', 'weight': 600.678, 'carbohydrate_polymer': False, 'branch_name': ''}, {'chain_id': 'C', 'author_residue_number': 501, 'author_insertion_code': '', 'chem_comp_id': 'AG7', 'alternate_conformers': 0, 'entity_id': 2, 'struct_asym_id': 'G', 'residue_number': 1, 'chem_comp_name': '4-{2-(4-FLUORO-BENZYL)-6-METHYL-5-[(5-METHYL-ISOXAZOLE-3-CARBONYL)-AMINO]-4-OXO-HEPTANOYLAMINO}-5-(2-OXO-PYRROLIDIN-3-YL)-PENTANOIC ACID ETHYL ESTER', 'weight': 600.678, 'carbohydrate_polymer': False, 'branch_name': ''}, {'chain_id': 'D', 'author_residue_number': 501, 'author_insertion_code': '', 'chem_comp_id': 'AG7', 'alternate_conformers': 0, 'entity_id': 2, 'struct_asym_id': 'H', 'residue_number': 1, 'chem_comp_name': '4-{2-(4-FLUORO-BENZYL)-6-METHYL-5-[(5-METHYL-ISOXAZOLE-3-CARBONYL)-AMINO]-4-OXO-HEPTANOYLAMINO}-5-(2-OXO-PYRROLIDIN-3-YL)-PENTANOIC ACID ETHYL ESTER', 'weight': 600.678, 'carbohydrate_polymer': False, 'branch_name': ''}]

>  <ligand_codes>  (676) 
['AG7', 'AG7', 'AG7', 'AG7']

>  <cofactor_codes>  (676) 
[]

>  <has_cofactor>  (676) 
False

>  <covalent>  (676) 
True

>  <base_name>  (676) 
3QZQ

>  <lig_resn>  (676) 
AG7

>  <lig_resi>  (676) 
501

>  <lig_chain>  (676) 
A

>  <lig_segi>  (676) 
E

>  <lig_alt>  (676) 


>  <polymer_chain>  (676) 
A

>  <single_smiles>  (676) 
CCOC(=O)CC[C@H](C[C@@H]1CCNC1=O)NC(=O)[C@@H](CC(=O)[C@@H](NC(=O)c2cc(C)on2)C(C)C)Cc3ccc(F)cc3

$$$$
AG7P14S37
     RDKit          3D

 31 31  0  0  0  0  0  0  0  0999 V2000
   -9.1730   12.9400  -36.6820 C   0  0  0  0  0  0  0  0  0  0  0  0
   -8.8530   13.2790  -35.2310 C   0  0  1  0  0  0  0  0  0  0  0  0
   -7.9150   12.2780  -34.5490 C   0  0  0  0  0  0  0  0  0  0  0  0
   -9.0470   14.7330  -34.7430 C   0  0  0  0  0  0  0  0  0  0  0  0
   -8.5060   11.1100  -33.8920 N   0  0  0  0  0  0  0  0  0  0  0  0
   -6.7310   12.3310  -34.8040 O   0  0  0  0  0  0  0  0  0  0  0  0
   -8.5080   14.9300  -33.3220 C   0  0  0  0  0  0  0  0  0  0  0  0
   -7.7300    9.9240  -33.4360 C   0  0  1  0  0  0  0  0  0  0  0  0
   -8.8050   14.1230  -32.4480 O   0  0  0  0  0  0  0  0  0  0  0  0
   -8.1450   16.3840  -32.9140 C   0  0  1  0  0  0  0  0  0  0  0  0
   -7.3190    9.7870  -31.9670 C   0  0  0  0  0  0  0  0  0  0  0  0
   -7.7770    8.6160  -34.2440 C   0  0  2  0  0  0  0  0  0  0  0  0
   -8.5860   16.6350  -31.5420 N   0  0  0  0  0  0  0  0  0  0  0  0
   -6.6630   16.7160  -33.0960 C   0  0  0  0  0  0  0  0  0  0  0  0
   -7.7810    8.8240  -35.7420 C   0  0  0  0  0  0  0  0  0  0  0  0
   -9.7150    8.3890  -33.9240 R   0  0  0  0  0  0  0  0  0  0  0  0
   -9.5070   17.7220  -31.2510 C   0  0  0  0  0  0  0  0  0  0  0  0
   -6.3990   18.1350  -32.6670 C   0  0  0  0  0  0  0  0  0  0  0  0
   -5.8390   15.7750  -32.2840 C   0  0  0  0  0  0  0  0  0  0  0  0
   -6.3340    8.9960  -36.1790 C   0  0  0  0  0  0  0  0  0  0  0  0
  -10.0180   17.8700  -29.8390 C   0  0  0  0  0  0  0  0  0  0  0  0
   -9.9070   18.4670  -32.1230 O   0  0  0  0  0  0  0  0  0  0  0  0
   -6.0510    9.6750  -37.2240 O   0  0  0  0  0  0  0  0  0  0  0  0
   -5.4140    8.5070  -35.4860 O   0  0  0  0  0  0  0  0  0  0  0  0
  -10.9400   18.9000  -29.3490 C   0  0  0  0  0  0  0  0  0  0  0  0
   -9.7280   17.0810  -28.8080 N   0  0  0  0  0  0  0  0  0  0  0  0
   -4.7230    9.9930  -37.5080 C   0  0  0  0  0  0  0  0  0  0  0  0
  -11.0910   18.5810  -27.9530 C   0  0  0  0  0  0  0  0  0  0  0  0
  -10.3500   17.5030  -27.7220 O   0  0  0  0  0  0  0  0  0  0  0  0
   -4.6910   10.8400  -38.7540 C   0  0  0  0  0  0  0  0  0  0  0  0
  -11.9400   19.3230  -26.9590 C   0  0  0  0  0  0  0  0  0  0  0  0
  2  1  1  6
  2  3  1  0
  2  4  1  0
  5  3  1  0
  3  6  2  0
  7  4  1  0
  5  8  1  0
  7  9  2  0
  7 10  1  0
  8 11  1  1
  8 12  1  0
 10 13  1  1
 10 14  1  0
 12 15  1  0
 12 16  1  1
 13 17  1  0
 14 18  1  0
 14 19  1  0
 15 20  1  0
 21 17  1  0
 17 22  2  0
 20 23  1  0
 20 24  2  0
 21 25  1  0
 21 26  2  0
 23 27  1  0
 25 28  2  0
 29 26  1  0
 27 30  1  0
 28 31  1  0
 28 29  1  0
V   16 *
A    2
 C04
A    3
 C47
A    4
 C02
A    5
 N12
A    6
 O48
A    7
 C01
A    8
 C13
A    9
 O03
A   10
 C57
A   12
 C19
A   13
 N58
A   14
 C78
A   15
 C20
A   16
 X  
A   17
 C59
A   18
 C81
A   19
 C82
A   20
 C21
A   21
 C1 
A   22
 O60
A   23
 O22
A   24
 O23
A   25
 C2 
A   26
 N5 
A   27
 C50
A   28
 C3 
A   29
 O4 
A   30
 C53
A   31
 C4 
M  END
>  <XChem_code>  (677) 
AG7§14

>  <Occupancy>  (677) 
[1.0, 1.0, 1.0, 1.0, 1.0, 1.0, 1.0, 1.0, 1.0, 1.0, 1.0, 1.0, 1.0, 1.0, 1.0, 1.0, 1.0, 1.0, 1.0, 1.0, 1.0, 1.0, 1.0, 1.0, 1.0, 1.0, 1.0, 1.0, 1.0, 1.0, 1.0, 1.0, 1.0, 1.0, 1.0, 1.0, 1.0, 1.0, 1.0, 1.0, 1.0, 1.0, 1.0, 1.0]

>  <TempFactor>  (677) 
[18.65, 18.72, 21.92, 17.65, 24.86, 15.28, 18.72, 30.43, 27.21, 19.54, 23.37, 32.17, 36.23, 46.57, 43.77, 41.12, 38.94, 15.18, 15.28, 13.93, 16.17, 15.35, 15.96, 15.01, 19.51, 19.89, 20.9, 31.74, 18.14, 17.75, 18.83, 41.08, 57.06, 15.9, 16.12, 18.19, 20.0, 16.9, 18.42, 18.16, 18.76, 20.9, 15.53, 47.08]

>  <accession>  (677) 
3QZQ_A

>  <description>  (677) 
Chain A, 3C protein [Enterovirus A71]

>  <evalue>  (677) 
7.17784e-59

>  <pdb_code>  (677) 
3QZQ

>  <chain>  (677) 
A

>  <ligands>  (677) 
[{'chain_id': 'A', 'author_residue_number': 501, 'author_insertion_code': '', 'chem_comp_id': 'AG7', 'alternate_conformers': 0, 'entity_id': 2, 'struct_asym_id': 'E', 'residue_number': 1, 'chem_comp_name': '4-{2-(4-FLUORO-BENZYL)-6-METHYL-5-[(5-METHYL-ISOXAZOLE-3-CARBONYL)-AMINO]-4-OXO-HEPTANOYLAMINO}-5-(2-OXO-PYRROLIDIN-3-YL)-PENTANOIC ACID ETHYL ESTER', 'weight': 600.678, 'carbohydrate_polymer': False, 'branch_name': ''}, {'chain_id': 'B', 'author_residue_number': 501, 'author_insertion_code': '', 'chem_comp_id': 'AG7', 'alternate_conformers': 0, 'entity_id': 2, 'struct_asym_id': 'F', 'residue_number': 1, 'chem_comp_name': '4-{2-(4-FLUORO-BENZYL)-6-METHYL-5-[(5-METHYL-ISOXAZOLE-3-CARBONYL)-AMINO]-4-OXO-HEPTANOYLAMINO}-5-(2-OXO-PYRROLIDIN-3-YL)-PENTANOIC ACID ETHYL ESTER', 'weight': 600.678, 'carbohydrate_polymer': False, 'branch_name': ''}, {'chain_id': 'C', 'author_residue_number': 501, 'author_insertion_code': '', 'chem_comp_id': 'AG7', 'alternate_conformers': 0, 'entity_id': 2, 'struct_asym_id': 'G', 'residue_number': 1, 'chem_comp_name': '4-{2-(4-FLUORO-BENZYL)-6-METHYL-5-[(5-METHYL-ISOXAZOLE-3-CARBONYL)-AMINO]-4-OXO-HEPTANOYLAMINO}-5-(2-OXO-PYRROLIDIN-3-YL)-PENTANOIC ACID ETHYL ESTER', 'weight': 600.678, 'carbohydrate_polymer': False, 'branch_name': ''}, {'chain_id': 'D', 'author_residue_number': 501, 'author_insertion_code': '', 'chem_comp_id': 'AG7', 'alternate_conformers': 0, 'entity_id': 2, 'struct_asym_id': 'H', 'residue_number': 1, 'chem_comp_name': '4-{2-(4-FLUORO-BENZYL)-6-METHYL-5-[(5-METHYL-ISOXAZOLE-3-CARBONYL)-AMINO]-4-OXO-HEPTANOYLAMINO}-5-(2-OXO-PYRROLIDIN-3-YL)-PENTANOIC ACID ETHYL ESTER', 'weight': 600.678, 'carbohydrate_polymer': False, 'branch_name': ''}]

>  <ligand_codes>  (677) 
['AG7', 'AG7', 'AG7', 'AG7']

>  <cofactor_codes>  (677) 
[]

>  <has_cofactor>  (677) 
False

>  <covalent>  (677) 
True

>  <base_name>  (677) 
3QZQ

>  <lig_resn>  (677) 
AG7

>  <lig_resi>  (677) 
501

>  <lig_chain>  (677) 
A

>  <lig_segi>  (677) 
E

>  <lig_alt>  (677) 


>  <polymer_chain>  (677) 
A

>  <single_smiles>  (677) 
CCOC(=O)CC[C@H](C[C@@H]1CCNC1=O)NC(=O)[C@@H](CC(=O)[C@@H](NC(=O)c2cc(C)on2)C(C)C)Cc3ccc(F)cc3

$$$$
AG7P14S38
     RDKit          3D

 23 22  0  0  0  0  0  0  0  0999 V2000
   -9.1730   12.9400  -36.6820 C   0  0  0  0  0  0  0  0  0  0  0  0
   -8.8530   13.2790  -35.2310 C   0  0  1  0  0  0  0  0  0  0  0  0
   -7.9150   12.2780  -34.5490 C   0  0  0  0  0  0  0  0  0  0  0  0
   -9.0470   14.7330  -34.7430 C   0  0  0  0  0  0  0  0  0  0  0  0
   -8.5060   11.1100  -33.8920 N   0  0  0  0  0  0  0  0  0  0  0  0
   -6.7310   12.3310  -34.8040 O   0  0  0  0  0  0  0  0  0  0  0  0
   -8.5080   14.9300  -33.3220 C   0  0  0  0  0  0  0  0  0  0  0  0
   -7.7300    9.9240  -33.4360 C   0  0  1  0  0  0  0  0  0  0  0  0
   -8.1450   16.3840  -32.9140 C   0  0  1  0  0  0  0  0  0  0  0  0
   -8.8050   14.1230  -32.4480 O   0  0  0  0  0  0  0  0  0  0  0  0
   -7.3190    9.7870  -31.9670 C   0  0  0  0  0  0  0  0  0  0  0  0
   -7.7770    8.6160  -34.2440 C   0  0  2  0  0  0  0  0  0  0  0  0
   -8.5860   16.6350  -31.5420 N   0  0  0  0  0  0  0  0  0  0  0  0
   -6.6630   16.7160  -33.0960 C   0  0  0  0  0  0  0  0  0  0  0  0
   -7.7810    8.8240  -35.7420 C   0  0  0  0  0  0  0  0  0  0  0  0
   -9.7150    8.3890  -33.9240 R   0  0  0  0  0  0  0  0  0  0  0  0
   -6.3990   18.1350  -32.6670 C   0  0  0  0  0  0  0  0  0  0  0  0
   -5.8390   15.7750  -32.2840 C   0  0  0  0  0  0  0  0  0  0  0  0
   -6.3340    8.9960  -36.1790 C   0  0  0  0  0  0  0  0  0  0  0  0
   -6.0510    9.6750  -37.2240 O   0  0  0  0  0  0  0  0  0  0  0  0
   -5.4140    8.5070  -35.4860 O   0  0  0  0  0  0  0  0  0  0  0  0
   -4.7230    9.9930  -37.5080 C   0  0  0  0  0  0  0  0  0  0  0  0
   -4.6910   10.8400  -38.7540 C   0  0  0  0  0  0  0  0  0  0  0  0
  2  1  1  6
  2  3  1  0
  2  4  1  0
  5  3  1  0
  3  6  2  0
  7  4  1  0
  5  8  1  0
  7  9  1  0
  7 10  2  0
  8 11  1  1
  8 12  1  0
  9 13  1  1
  9 14  1  0
 12 15  1  0
 12 16  1  1
 14 17  1  0
 14 18  1  0
 15 19  1  0
 19 20  1  0
 19 21  2  0
 20 22  1  0
 22 23  1  0
V   16 *
A    2
 C04
A    3
 C47
A    4
 C02
A    5
 N12
A    6
 O48
A    7
 C01
A    8
 C13
A    9
 C57
A   10
 O03
A   12
 C19
A   14
 C78
A   15
 C20
A   16
 X  
A   17
 C81
A   18
 C82
A   19
 C21
A   20
 O22
A   21
 O23
A   22
 C50
A   23
 C53
M  END
>  <XChem_code>  (678) 
AG7§14

>  <Occupancy>  (678) 
[1.0, 1.0, 1.0, 1.0, 1.0, 1.0, 1.0, 1.0, 1.0, 1.0, 1.0, 1.0, 1.0, 1.0, 1.0, 1.0, 1.0, 1.0, 1.0, 1.0, 1.0, 1.0, 1.0, 1.0, 1.0, 1.0, 1.0, 1.0, 1.0, 1.0, 1.0, 1.0, 1.0, 1.0, 1.0, 1.0, 1.0, 1.0, 1.0, 1.0, 1.0, 1.0, 1.0, 1.0]

>  <TempFactor>  (678) 
[18.65, 18.72, 21.92, 17.65, 24.86, 15.28, 18.72, 30.43, 27.21, 19.54, 23.37, 32.17, 36.23, 46.57, 43.77, 41.12, 38.94, 15.18, 15.28, 13.93, 16.17, 15.35, 15.96, 15.01, 19.51, 19.89, 20.9, 31.74, 18.14, 17.75, 18.83, 41.08, 57.06, 15.9, 16.12, 18.19, 20.0, 16.9, 18.42, 18.16, 18.76, 20.9, 15.53, 47.08]

>  <accession>  (678) 
3QZQ_A

>  <description>  (678) 
Chain A, 3C protein [Enterovirus A71]

>  <evalue>  (678) 
7.17784e-59

>  <pdb_code>  (678) 
3QZQ

>  <chain>  (678) 
A

>  <ligands>  (678) 
[{'chain_id': 'A', 'author_residue_number': 501, 'author_insertion_code': '', 'chem_comp_id': 'AG7', 'alternate_conformers': 0, 'entity_id': 2, 'struct_asym_id': 'E', 'residue_number': 1, 'chem_comp_name': '4-{2-(4-FLUORO-BENZYL)-6-METHYL-5-[(5-METHYL-ISOXAZOLE-3-CARBONYL)-AMINO]-4-OXO-HEPTANOYLAMINO}-5-(2-OXO-PYRROLIDIN-3-YL)-PENTANOIC ACID ETHYL ESTER', 'weight': 600.678, 'carbohydrate_polymer': False, 'branch_name': ''}, {'chain_id': 'B', 'author_residue_number': 501, 'author_insertion_code': '', 'chem_comp_id': 'AG7', 'alternate_conformers': 0, 'entity_id': 2, 'struct_asym_id': 'F', 'residue_number': 1, 'chem_comp_name': '4-{2-(4-FLUORO-BENZYL)-6-METHYL-5-[(5-METHYL-ISOXAZOLE-3-CARBONYL)-AMINO]-4-OXO-HEPTANOYLAMINO}-5-(2-OXO-PYRROLIDIN-3-YL)-PENTANOIC ACID ETHYL ESTER', 'weight': 600.678, 'carbohydrate_polymer': False, 'branch_name': ''}, {'chain_id': 'C', 'author_residue_number': 501, 'author_insertion_code': '', 'chem_comp_id': 'AG7', 'alternate_conformers': 0, 'entity_id': 2, 'struct_asym_id': 'G', 'residue_number': 1, 'chem_comp_name': '4-{2-(4-FLUORO-BENZYL)-6-METHYL-5-[(5-METHYL-ISOXAZOLE-3-CARBONYL)-AMINO]-4-OXO-HEPTANOYLAMINO}-5-(2-OXO-PYRROLIDIN-3-YL)-PENTANOIC ACID ETHYL ESTER', 'weight': 600.678, 'carbohydrate_polymer': False, 'branch_name': ''}, {'chain_id': 'D', 'author_residue_number': 501, 'author_insertion_code': '', 'chem_comp_id': 'AG7', 'alternate_conformers': 0, 'entity_id': 2, 'struct_asym_id': 'H', 'residue_number': 1, 'chem_comp_name': '4-{2-(4-FLUORO-BENZYL)-6-METHYL-5-[(5-METHYL-ISOXAZOLE-3-CARBONYL)-AMINO]-4-OXO-HEPTANOYLAMINO}-5-(2-OXO-PYRROLIDIN-3-YL)-PENTANOIC ACID ETHYL ESTER', 'weight': 600.678, 'carbohydrate_polymer': False, 'branch_name': ''}]

>  <ligand_codes>  (678) 
['AG7', 'AG7', 'AG7', 'AG7']

>  <cofactor_codes>  (678) 
[]

>  <has_cofactor>  (678) 
False

>  <covalent>  (678) 
True

>  <base_name>  (678) 
3QZQ

>  <lig_resn>  (678) 
AG7

>  <lig_resi>  (678) 
501

>  <lig_chain>  (678) 
A

>  <lig_segi>  (678) 
E

>  <lig_alt>  (678) 


>  <polymer_chain>  (678) 
A

>  <single_smiles>  (678) 
CCOC(=O)CC[C@H](C[C@@H]1CCNC1=O)NC(=O)[C@@H](CC(=O)[C@@H](NC(=O)c2cc(C)on2)C(C)C)Cc3ccc(F)cc3

$$$$
AG7P14S39
     RDKit          3D

 22 21  0  0  0  0  0  0  0  0999 V2000
   -9.1730   12.9400  -36.6820 C   0  0  0  0  0  0  0  0  0  0  0  0
   -8.8530   13.2790  -35.2310 C   0  0  1  0  0  0  0  0  0  0  0  0
   -7.9150   12.2780  -34.5490 C   0  0  0  0  0  0  0  0  0  0  0  0
   -9.0470   14.7330  -34.7430 C   0  0  0  0  0  0  0  0  0  0  0  0
   -8.5060   11.1100  -33.8920 N   0  0  0  0  0  0  0  0  0  0  0  0
   -6.7310   12.3310  -34.8040 O   0  0  0  0  0  0  0  0  0  0  0  0
   -8.5080   14.9300  -33.3220 C   0  0  0  0  0  0  0  0  0  0  0  0
   -7.7300    9.9240  -33.4360 C   0  0  1  0  0  0  0  0  0  0  0  0
   -8.1450   16.3840  -32.9140 C   0  0  0  0  0  0  0  0  0  0  0  0
   -8.8050   14.1230  -32.4480 O   0  0  0  0  0  0  0  0  0  0  0  0
   -7.3190    9.7870  -31.9670 C   0  0  0  0  0  0  0  0  0  0  0  0
   -7.7770    8.6160  -34.2440 C   0  0  2  0  0  0  0  0  0  0  0  0
   -6.6630   16.7160  -33.0960 C   0  0  0  0  0  0  0  0  0  0  0  0
   -7.7810    8.8240  -35.7420 C   0  0  0  0  0  0  0  0  0  0  0  0
   -9.7150    8.3890  -33.9240 R   0  0  0  0  0  0  0  0  0  0  0  0
   -6.3990   18.1350  -32.6670 C   0  0  0  0  0  0  0  0  0  0  0  0
   -5.8390   15.7750  -32.2840 C   0  0  0  0  0  0  0  0  0  0  0  0
   -6.3340    8.9960  -36.1790 C   0  0  0  0  0  0  0  0  0  0  0  0
   -6.0510    9.6750  -37.2240 O   0  0  0  0  0  0  0  0  0  0  0  0
   -5.4140    8.5070  -35.4860 O   0  0  0  0  0  0  0  0  0  0  0  0
   -4.7230    9.9930  -37.5080 C   0  0  0  0  0  0  0  0  0  0  0  0
   -4.6910   10.8400  -38.7540 C   0  0  0  0  0  0  0  0  0  0  0  0
  2  1  1  6
  2  3  1  0
  2  4  1  0
  5  3  1  0
  3  6  2  0
  7  4  1  0
  5  8  1  0
  7  9  1  0
  7 10  2  0
  8 11  1  1
  8 12  1  0
  9 13  1  6
 12 14  1  0
 12 15  1  1
 13 16  1  0
 13 17  1  0
 14 18  1  0
 18 19  1  0
 18 20  2  0
 19 21  1  0
 21 22  1  0
V   15 *
A    2
 C04
A    3
 C47
A    4
 C02
A    5
 N12
A    6
 O48
A    7
 C01
A    8
 C13
A   10
 O03
A   12
 C19
A   13
 C78
A   14
 C20
A   15
 X  
A   16
 C81
A   17
 C82
A   18
 C21
A   19
 O22
A   20
 O23
A   21
 C50
A   22
 C53
M  END
>  <XChem_code>  (679) 
AG7§14

>  <Occupancy>  (679) 
[1.0, 1.0, 1.0, 1.0, 1.0, 1.0, 1.0, 1.0, 1.0, 1.0, 1.0, 1.0, 1.0, 1.0, 1.0, 1.0, 1.0, 1.0, 1.0, 1.0, 1.0, 1.0, 1.0, 1.0, 1.0, 1.0, 1.0, 1.0, 1.0, 1.0, 1.0, 1.0, 1.0, 1.0, 1.0, 1.0, 1.0, 1.0, 1.0, 1.0, 1.0, 1.0, 1.0, 1.0]

>  <TempFactor>  (679) 
[18.65, 18.72, 21.92, 17.65, 24.86, 15.28, 18.72, 30.43, 27.21, 19.54, 23.37, 32.17, 36.23, 46.57, 43.77, 41.12, 38.94, 15.18, 15.28, 13.93, 16.17, 15.35, 15.96, 15.01, 19.51, 19.89, 20.9, 31.74, 18.14, 17.75, 18.83, 41.08, 57.06, 15.9, 16.12, 18.19, 20.0, 16.9, 18.42, 18.16, 18.76, 20.9, 15.53, 47.08]

>  <accession>  (679) 
3QZQ_A

>  <description>  (679) 
Chain A, 3C protein [Enterovirus A71]

>  <evalue>  (679) 
7.17784e-59

>  <pdb_code>  (679) 
3QZQ

>  <chain>  (679) 
A

>  <ligands>  (679) 
[{'chain_id': 'A', 'author_residue_number': 501, 'author_insertion_code': '', 'chem_comp_id': 'AG7', 'alternate_conformers': 0, 'entity_id': 2, 'struct_asym_id': 'E', 'residue_number': 1, 'chem_comp_name': '4-{2-(4-FLUORO-BENZYL)-6-METHYL-5-[(5-METHYL-ISOXAZOLE-3-CARBONYL)-AMINO]-4-OXO-HEPTANOYLAMINO}-5-(2-OXO-PYRROLIDIN-3-YL)-PENTANOIC ACID ETHYL ESTER', 'weight': 600.678, 'carbohydrate_polymer': False, 'branch_name': ''}, {'chain_id': 'B', 'author_residue_number': 501, 'author_insertion_code': '', 'chem_comp_id': 'AG7', 'alternate_conformers': 0, 'entity_id': 2, 'struct_asym_id': 'F', 'residue_number': 1, 'chem_comp_name': '4-{2-(4-FLUORO-BENZYL)-6-METHYL-5-[(5-METHYL-ISOXAZOLE-3-CARBONYL)-AMINO]-4-OXO-HEPTANOYLAMINO}-5-(2-OXO-PYRROLIDIN-3-YL)-PENTANOIC ACID ETHYL ESTER', 'weight': 600.678, 'carbohydrate_polymer': False, 'branch_name': ''}, {'chain_id': 'C', 'author_residue_number': 501, 'author_insertion_code': '', 'chem_comp_id': 'AG7', 'alternate_conformers': 0, 'entity_id': 2, 'struct_asym_id': 'G', 'residue_number': 1, 'chem_comp_name': '4-{2-(4-FLUORO-BENZYL)-6-METHYL-5-[(5-METHYL-ISOXAZOLE-3-CARBONYL)-AMINO]-4-OXO-HEPTANOYLAMINO}-5-(2-OXO-PYRROLIDIN-3-YL)-PENTANOIC ACID ETHYL ESTER', 'weight': 600.678, 'carbohydrate_polymer': False, 'branch_name': ''}, {'chain_id': 'D', 'author_residue_number': 501, 'author_insertion_code': '', 'chem_comp_id': 'AG7', 'alternate_conformers': 0, 'entity_id': 2, 'struct_asym_id': 'H', 'residue_number': 1, 'chem_comp_name': '4-{2-(4-FLUORO-BENZYL)-6-METHYL-5-[(5-METHYL-ISOXAZOLE-3-CARBONYL)-AMINO]-4-OXO-HEPTANOYLAMINO}-5-(2-OXO-PYRROLIDIN-3-YL)-PENTANOIC ACID ETHYL ESTER', 'weight': 600.678, 'carbohydrate_polymer': False, 'branch_name': ''}]

>  <ligand_codes>  (679) 
['AG7', 'AG7', 'AG7', 'AG7']

>  <cofactor_codes>  (679) 
[]

>  <has_cofactor>  (679) 
False

>  <covalent>  (679) 
True

>  <base_name>  (679) 
3QZQ

>  <lig_resn>  (679) 
AG7

>  <lig_resi>  (679) 
501

>  <lig_chain>  (679) 
A

>  <lig_segi>  (679) 
E

>  <lig_alt>  (679) 


>  <polymer_chain>  (679) 
A

>  <single_smiles>  (679) 
CCOC(=O)CC[C@H](C[C@@H]1CCNC1=O)NC(=O)[C@@H](CC(=O)[C@@H](NC(=O)c2cc(C)on2)C(C)C)Cc3ccc(F)cc3

$$$$
AG7P14S40
     RDKit          3D

 25 24  0  0  0  0  0  0  0  0999 V2000
   -9.1730   12.9400  -36.6820 C   0  0  0  0  0  0  0  0  0  0  0  0
   -8.8530   13.2790  -35.2310 C   0  0  1  0  0  0  0  0  0  0  0  0
   -7.9150   12.2780  -34.5490 C   0  0  0  0  0  0  0  0  0  0  0  0
   -9.0470   14.7330  -34.7430 C   0  0  0  0  0  0  0  0  0  0  0  0
   -8.5060   11.1100  -33.8920 N   0  0  0  0  0  0  0  0  0  0  0  0
   -6.7310   12.3310  -34.8040 O   0  0  0  0  0  0  0  0  0  0  0  0
   -8.5080   14.9300  -33.3220 C   0  0  0  0  0  0  0  0  0  0  0  0
   -7.7300    9.9240  -33.4360 C   0  0  1  0  0  0  0  0  0  0  0  0
   -8.1450   16.3840  -32.9140 C   0  0  1  0  0  0  0  0  0  0  0  0
   -8.8050   14.1230  -32.4480 O   0  0  0  0  0  0  0  0  0  0  0  0
   -7.3190    9.7870  -31.9670 C   0  0  0  0  0  0  0  0  0  0  0  0
   -7.7770    8.6160  -34.2440 C   0  0  2  0  0  0  0  0  0  0  0  0
   -8.5860   16.6350  -31.5420 N   0  0  0  0  0  0  0  0  0  0  0  0
   -6.6630   16.7160  -33.0960 C   0  0  0  0  0  0  0  0  0  0  0  0
   -7.7810    8.8240  -35.7420 C   0  0  0  0  0  0  0  0  0  0  0  0
   -9.7150    8.3890  -33.9240 R   0  0  0  0  0  0  0  0  0  0  0  0
   -9.5070   17.7220  -31.2510 C   0  0  0  0  0  0  0  0  0  0  0  0
   -6.3990   18.1350  -32.6670 C   0  0  0  0  0  0  0  0  0  0  0  0
   -5.8390   15.7750  -32.2840 C   0  0  0  0  0  0  0  0  0  0  0  0
   -6.3340    8.9960  -36.1790 C   0  0  0  0  0  0  0  0  0  0  0  0
   -9.9070   18.4670  -32.1230 O   0  0  0  0  0  0  0  0  0  0  0  0
   -6.0510    9.6750  -37.2240 O   0  0  0  0  0  0  0  0  0  0  0  0
   -5.4140    8.5070  -35.4860 O   0  0  0  0  0  0  0  0  0  0  0  0
   -4.7230    9.9930  -37.5080 C   0  0  0  0  0  0  0  0  0  0  0  0
   -4.6910   10.8400  -38.7540 C   0  0  0  0  0  0  0  0  0  0  0  0
  2  1  1  6
  2  3  1  0
  2  4  1  0
  5  3  1  0
  3  6  2  0
  7  4  1  0
  5  8  1  0
  7  9  1  0
  7 10  2  0
  8 11  1  1
  8 12  1  0
  9 13  1  1
  9 14  1  0
 12 15  1  0
 12 16  1  1
 13 17  1  0
 14 18  1  0
 14 19  1  0
 15 20  1  0
 17 21  2  0
 20 22  1  0
 20 23  2  0
 22 24  1  0
 24 25  1  0
V   16 *
A    2
 C04
A    3
 C47
A    4
 C02
A    5
 N12
A    6
 O48
A    7
 C01
A    8
 C13
A    9
 C57
A   10
 O03
A   12
 C19
A   13
 N58
A   14
 C78
A   15
 C20
A   16
 X  
A   18
 C81
A   19
 C82
A   20
 C21
A   21
 O60
A   22
 O22
A   23
 O23
A   24
 C50
A   25
 C53
M  END
>  <XChem_code>  (680) 
AG7§14

>  <Occupancy>  (680) 
[1.0, 1.0, 1.0, 1.0, 1.0, 1.0, 1.0, 1.0, 1.0, 1.0, 1.0, 1.0, 1.0, 1.0, 1.0, 1.0, 1.0, 1.0, 1.0, 1.0, 1.0, 1.0, 1.0, 1.0, 1.0, 1.0, 1.0, 1.0, 1.0, 1.0, 1.0, 1.0, 1.0, 1.0, 1.0, 1.0, 1.0, 1.0, 1.0, 1.0, 1.0, 1.0, 1.0, 1.0]

>  <TempFactor>  (680) 
[18.65, 18.72, 21.92, 17.65, 24.86, 15.28, 18.72, 30.43, 27.21, 19.54, 23.37, 32.17, 36.23, 46.57, 43.77, 41.12, 38.94, 15.18, 15.28, 13.93, 16.17, 15.35, 15.96, 15.01, 19.51, 19.89, 20.9, 31.74, 18.14, 17.75, 18.83, 41.08, 57.06, 15.9, 16.12, 18.19, 20.0, 16.9, 18.42, 18.16, 18.76, 20.9, 15.53, 47.08]

>  <accession>  (680) 
3QZQ_A

>  <description>  (680) 
Chain A, 3C protein [Enterovirus A71]

>  <evalue>  (680) 
7.17784e-59

>  <pdb_code>  (680) 
3QZQ

>  <chain>  (680) 
A

>  <ligands>  (680) 
[{'chain_id': 'A', 'author_residue_number': 501, 'author_insertion_code': '', 'chem_comp_id': 'AG7', 'alternate_conformers': 0, 'entity_id': 2, 'struct_asym_id': 'E', 'residue_number': 1, 'chem_comp_name': '4-{2-(4-FLUORO-BENZYL)-6-METHYL-5-[(5-METHYL-ISOXAZOLE-3-CARBONYL)-AMINO]-4-OXO-HEPTANOYLAMINO}-5-(2-OXO-PYRROLIDIN-3-YL)-PENTANOIC ACID ETHYL ESTER', 'weight': 600.678, 'carbohydrate_polymer': False, 'branch_name': ''}, {'chain_id': 'B', 'author_residue_number': 501, 'author_insertion_code': '', 'chem_comp_id': 'AG7', 'alternate_conformers': 0, 'entity_id': 2, 'struct_asym_id': 'F', 'residue_number': 1, 'chem_comp_name': '4-{2-(4-FLUORO-BENZYL)-6-METHYL-5-[(5-METHYL-ISOXAZOLE-3-CARBONYL)-AMINO]-4-OXO-HEPTANOYLAMINO}-5-(2-OXO-PYRROLIDIN-3-YL)-PENTANOIC ACID ETHYL ESTER', 'weight': 600.678, 'carbohydrate_polymer': False, 'branch_name': ''}, {'chain_id': 'C', 'author_residue_number': 501, 'author_insertion_code': '', 'chem_comp_id': 'AG7', 'alternate_conformers': 0, 'entity_id': 2, 'struct_asym_id': 'G', 'residue_number': 1, 'chem_comp_name': '4-{2-(4-FLUORO-BENZYL)-6-METHYL-5-[(5-METHYL-ISOXAZOLE-3-CARBONYL)-AMINO]-4-OXO-HEPTANOYLAMINO}-5-(2-OXO-PYRROLIDIN-3-YL)-PENTANOIC ACID ETHYL ESTER', 'weight': 600.678, 'carbohydrate_polymer': False, 'branch_name': ''}, {'chain_id': 'D', 'author_residue_number': 501, 'author_insertion_code': '', 'chem_comp_id': 'AG7', 'alternate_conformers': 0, 'entity_id': 2, 'struct_asym_id': 'H', 'residue_number': 1, 'chem_comp_name': '4-{2-(4-FLUORO-BENZYL)-6-METHYL-5-[(5-METHYL-ISOXAZOLE-3-CARBONYL)-AMINO]-4-OXO-HEPTANOYLAMINO}-5-(2-OXO-PYRROLIDIN-3-YL)-PENTANOIC ACID ETHYL ESTER', 'weight': 600.678, 'carbohydrate_polymer': False, 'branch_name': ''}]

>  <ligand_codes>  (680) 
['AG7', 'AG7', 'AG7', 'AG7']

>  <cofactor_codes>  (680) 
[]

>  <has_cofactor>  (680) 
False

>  <covalent>  (680) 
True

>  <base_name>  (680) 
3QZQ

>  <lig_resn>  (680) 
AG7

>  <lig_resi>  (680) 
501

>  <lig_chain>  (680) 
A

>  <lig_segi>  (680) 
E

>  <lig_alt>  (680) 


>  <polymer_chain>  (680) 
A

>  <single_smiles>  (680) 
CCOC(=O)CC[C@H](C[C@@H]1CCNC1=O)NC(=O)[C@@H](CC(=O)[C@@H](NC(=O)c2cc(C)on2)C(C)C)Cc3ccc(F)cc3

$$$$
AG7P17
     RDKit          3D

 43 45  0  0  0  0  0  0  0  0999 V2000
   -8.8710   15.0620  -33.3170 C   0  0  0  0  0  0  0  0  0  0  0  0
  -10.4440   17.9550  -29.9640 C   0  0  0  0  0  0  0  0  0  0  0  0
   -9.1800   14.8060  -34.8540 C   0  0  0  0  0  0  0  0  0  0  0  0
  -11.4110   18.8030  -29.4810 C   0  0  0  0  0  0  0  0  0  0  0  0
  -11.4910   18.5900  -28.1400 C   0  0  0  0  0  0  0  0  0  0  0  0
   -9.0090   14.2040  -32.4740 O   0  0  0  0  0  0  0  0  0  0  0  0
   -9.5280   13.3240  -35.1010 C   0  0  1  0  0  0  0  0  0  0  0  0
  -12.4230   19.2880  -27.1820 C   0  0  0  0  0  0  0  0  0  0  0  0
  -10.5980   17.6430  -27.8020 O   0  0  0  0  0  0  0  0  0  0  0  0
   -9.8460   13.1390  -36.6190 C   0  0  0  0  0  0  0  0  0  0  0  0
   -9.9470   17.2590  -28.9530 N   0  0  0  0  0  0  0  0  0  0  0  0
  -11.3040   13.7480  -36.8430 C   0  0  0  0  0  0  0  0  0  0  0  0
  -11.4550   14.8980  -37.6180 C   0  0  0  0  0  0  0  0  0  0  0  0
  -12.7210   15.4360  -37.8160 C   0  0  0  0  0  0  0  0  0  0  0  0
  -13.8390   14.8280  -37.2230 C   0  0  0  0  0  0  0  0  0  0  0  0
  -13.6940   13.6900  -36.4410 C   0  0  0  0  0  0  0  0  0  0  0  0
  -12.4120   13.1420  -36.2450 C   0  0  0  0  0  0  0  0  0  0  0  0
   -8.6980   11.1750  -34.0820 N   0  0  0  0  0  0  0  0  0  0  0  0
   -7.4890   10.4020  -33.7670 C   0  0  1  0  0  0  0  0  0  0  0  0
   -7.5780   10.0070  -32.2880 C   0  0  0  0  0  0  0  0  0  0  0  0
   -7.0980   11.3050  -31.5740 C   0  0  1  0  0  0  0  0  0  0  0  0
   -7.0220   11.0820  -29.9910 C   0  0  0  0  0  0  0  0  0  0  0  0
   -6.0040   11.8390  -29.5420 N   0  0  0  0  0  0  0  0  0  0  0  0
   -7.7390   10.4090  -29.3110 O   0  0  0  0  0  0  0  0  0  0  0  0
   -7.1530    9.1720  -34.5770 C   0  0  0  0  0  0  0  0  0  0  0  0
   -7.7220    9.1500  -35.9970 C   0  0  0  0  0  0  0  0  0  0  0  0
   -6.3220    9.0870  -36.5370 C   0  0  0  0  0  0  0  0  0  0  0  0
   -5.9840    9.6800  -37.7630 O   0  0  0  0  0  0  0  0  0  0  0  0
   -5.5050    8.5250  -35.8520 O   0  0  0  0  0  0  0  0  0  0  0  0
   -8.3800   12.4380  -34.7380 C   0  0  0  0  0  0  0  0  0  0  0  0
   -7.2410   12.6640  -34.9600 O   0  0  0  0  0  0  0  0  0  0  0  0
   -5.1310    8.8390  -38.5240 C   0  0  0  0  0  0  0  0  0  0  0  0
   -5.9360    8.4070  -39.7210 C   0  0  0  0  0  0  0  0  0  0  0  0
   -8.3700   16.4870  -32.8980 C   0  0  1  0  0  0  0  0  0  0  0  0
   -8.9480   16.7880  -31.6380 N   0  0  0  0  0  0  0  0  0  0  0  0
   -9.9620   17.8080  -31.4350 C   0  0  0  0  0  0  0  0  0  0  0  0
  -10.3830   18.4720  -32.3140 O   0  0  0  0  0  0  0  0  0  0  0  0
   -6.8170   16.5120  -32.7400 C   0  0  0  0  0  0  0  0  0  0  0  0
   -6.0760   16.0060  -34.0310 C   0  0  0  0  0  0  0  0  0  0  0  0
   -6.4170   17.9840  -32.4950 C   0  0  0  0  0  0  0  0  0  0  0  0
   -5.3380   12.5590  -30.7110 C   0  0  0  0  0  0  0  0  0  0  0  0
   -5.8430   11.7240  -31.9670 C   0  0  0  0  0  0  0  0  0  0  0  0
  -15.0820   15.3630  -37.4180 F   0  0  0  0  0  0  0  0  0  0  0  0
  1  3  1  0
  1  6  2  0
  1 34  1  0
  2  4  1  0
  2 11  2  0
  2 36  1  0
  7  3  1  6
  4  5  2  0
  5  8  1  0
  5  9  1  0
  7 10  1  0
  7 30  1  0
  9 11  1  0
 10 12  1  0
 12 13  2  0
 12 17  1  0
 13 14  1  0
 14 15  2  0
 15 16  1  0
 15 43  1  0
 16 17  2  0
 18 19  1  0
 18 30  1  0
 19 20  1  1
 19 25  1  0
 21 20  1  6
 21 22  1  0
 21 42  1  0
 22 23  1  0
 22 24  2  0
 23 41  1  0
 25 26  1  0
 26 27  1  0
 27 28  1  0
 27 29  2  0
 28 32  1  0
 30 31  2  0
 32 33  1  0
 34 35  1  1
 34 38  1  0
 35 36  1  0
 36 37  2  0
 38 39  1  0
 38 40  1  0
 41 42  1  0
A    1
 C01
A    2
 C1 
A    3
 C02
A    4
 C2 
A    5
 C3 
A    6
 O03
A    7
 C04
A    8
 C4 
A    9
 O4 
A   10
 C05
A   11
 N5 
A   12
 C06
A   13
 C07
A   14
 C08
A   15
 C09
A   16
 C10
A   17
 C11
A   18
 N12
A   19
 C13
A   20
 C14
A   21
 C15
A   22
 C16
A   23
 N17
A   24
 O18
A   25
 C19
A   26
 C20
A   27
 C21
A   28
 O22
A   29
 O23
A   30
 C47
A   31
 O48
A   32
 C50
A   33
 C53
A   34
 C57
A   35
 N58
A   36
 C59
A   37
 O60
A   38
 C78
A   39
 C81
A   40
 C82
A   41
 C83
A   42
 C84
A   43
 F1 
M  END
>  <XChem_code>  (681) 
AG7§17

>  <Occupancy>  (681) 
[1.0, 1.0, 1.0, 1.0, 1.0, 1.0, 1.0, 1.0, 1.0, 1.0, 1.0, 1.0, 1.0, 1.0, 1.0, 1.0, 1.0, 1.0, 1.0, 1.0, 1.0, 1.0, 1.0, 1.0, 1.0, 1.0, 1.0, 1.0, 1.0, 1.0, 1.0, 1.0, 1.0, 1.0, 1.0, 1.0, 1.0, 1.0, 1.0, 1.0, 1.0, 1.0, 1.0]

>  <TempFactor>  (681) 
[11.58, 15.03, 11.83, 16.25, 16.92, 12.34, 10.54, 20.22, 18.19, 14.53, 16.52, 20.55, 23.87, 20.72, 31.66, 32.21, 24.48, 11.55, 13.92, 10.24, 11.44, 10.75, 11.87, 10.52, 48.42, 14.67, 18.9, 51.51, 20.99, 12.24, 12.71, 37.77, 32.69, 13.62, 12.02, 16.3, 16.59, 14.61, 20.42, 22.35, 13.24, 10.96, 27.55]

>  <accession>  (681) 
5WQ2_A

>  <description>  (681) 
Chain A, 3C protein [Enterovirus A71]

>  <evalue>  (681) 
1.45212e-58

>  <pdb_code>  (681) 
5WQ2

>  <chain>  (681) 
A

>  <ligands>  (681) 
[{'chain_id': 'A', 'author_residue_number': 301, 'author_insertion_code': '', 'chem_comp_id': 'AG7', 'alternate_conformers': 0, 'entity_id': 2, 'struct_asym_id': 'B', 'residue_number': 1, 'chem_comp_name': '4-{2-(4-FLUORO-BENZYL)-6-METHYL-5-[(5-METHYL-ISOXAZOLE-3-CARBONYL)-AMINO]-4-OXO-HEPTANOYLAMINO}-5-(2-OXO-PYRROLIDIN-3-YL)-PENTANOIC ACID ETHYL ESTER', 'weight': 600.678, 'carbohydrate_polymer': False, 'branch_name': ''}, {'chain_id': 'A', 'author_residue_number': 302, 'author_insertion_code': '', 'chem_comp_id': 'SO4', 'alternate_conformers': 0, 'entity_id': 3, 'struct_asym_id': 'C', 'residue_number': 1, 'chem_comp_name': 'SULFATE ION', 'weight': 96.063, 'carbohydrate_polymer': False, 'branch_name': ''}, {'chain_id': 'A', 'author_residue_number': 303, 'author_insertion_code': '', 'chem_comp_id': 'SO4', 'alternate_conformers': 0, 'entity_id': 3, 'struct_asym_id': 'D', 'residue_number': 1, 'chem_comp_name': 'SULFATE ION', 'weight': 96.063, 'carbohydrate_polymer': False, 'branch_name': ''}]

>  <ligand_codes>  (681) 
['AG7', 'SO4', 'SO4']

>  <cofactor_codes>  (681) 
[]

>  <has_cofactor>  (681) 
False

>  <covalent>  (681) 
False

>  <base_name>  (681) 
5WQ2

>  <lig_resn>  (681) 
AG7

>  <lig_resi>  (681) 
301

>  <lig_chain>  (681) 
A

>  <lig_segi>  (681) 
B

>  <lig_alt>  (681) 


>  <polymer_chain>  (681) 
A

>  <single_smiles>  (681) 
CCOC(=O)CC[C@H](C[C@@H]1CCNC1=O)NC(=O)[C@@H](CC(=O)[C@@H](NC(=O)c2cc(C)on2)C(C)C)Cc3ccc(F)cc3

$$$$
AG7P17S1
     RDKit          3D

 16 16  0  0  0  0  0  0  0  0999 V2000
   -8.6980   11.1750  -34.0820 N   0  0  0  0  0  0  0  0  0  0  0  0
   -7.4890   10.4020  -33.7670 C   0  0  1  0  0  0  0  0  0  0  0  0
   -7.5780   10.0070  -32.2880 C   0  0  0  0  0  0  0  0  0  0  0  0
   -7.1530    9.1720  -34.5770 C   0  0  0  0  0  0  0  0  0  0  0  0
   -7.0980   11.3050  -31.5740 C   0  0  1  0  0  0  0  0  0  0  0  0
   -7.7220    9.1500  -35.9970 C   0  0  0  0  0  0  0  0  0  0  0  0
   -7.0220   11.0820  -29.9910 C   0  0  0  0  0  0  0  0  0  0  0  0
   -5.8430   11.7240  -31.9670 C   0  0  0  0  0  0  0  0  0  0  0  0
   -6.3220    9.0870  -36.5370 C   0  0  0  0  0  0  0  0  0  0  0  0
   -6.0040   11.8390  -29.5420 N   0  0  0  0  0  0  0  0  0  0  0  0
   -7.7390   10.4090  -29.3110 O   0  0  0  0  0  0  0  0  0  0  0  0
   -5.3380   12.5590  -30.7110 C   0  0  0  0  0  0  0  0  0  0  0  0
   -5.9840    9.6800  -37.7630 O   0  0  0  0  0  0  0  0  0  0  0  0
   -5.5050    8.5250  -35.8520 O   0  0  0  0  0  0  0  0  0  0  0  0
   -5.1310    8.8390  -38.5240 C   0  0  0  0  0  0  0  0  0  0  0  0
   -5.9360    8.4070  -39.7210 C   0  0  0  0  0  0  0  0  0  0  0  0
  2  1  1  6
  2  3  1  0
  2  4  1  0
  5  3  1  6
  4  6  1  0
  5  7  1  0
  5  8  1  0
  6  9  1  0
  7 10  1  0
  7 11  2  0
 12  8  1  0
  9 13  1  0
  9 14  2  0
 10 12  1  0
 13 15  1  0
 15 16  1  0
A    2
 C13
A    3
 C14
A    4
 C19
A    5
 C15
A    6
 C20
A    7
 C16
A    8
 C84
A    9
 C21
A   10
 N17
A   11
 O18
A   12
 C83
A   13
 O22
A   14
 O23
A   15
 C50
A   16
 C53
M  END
>  <XChem_code>  (682) 
AG7§17

>  <Occupancy>  (682) 
[1.0, 1.0, 1.0, 1.0, 1.0, 1.0, 1.0, 1.0, 1.0, 1.0, 1.0, 1.0, 1.0, 1.0, 1.0, 1.0, 1.0, 1.0, 1.0, 1.0, 1.0, 1.0, 1.0, 1.0, 1.0, 1.0, 1.0, 1.0, 1.0, 1.0, 1.0, 1.0, 1.0, 1.0, 1.0, 1.0, 1.0, 1.0, 1.0, 1.0, 1.0, 1.0, 1.0]

>  <TempFactor>  (682) 
[11.58, 15.03, 11.83, 16.25, 16.92, 12.34, 10.54, 20.22, 18.19, 14.53, 16.52, 20.55, 23.87, 20.72, 31.66, 32.21, 24.48, 11.55, 13.92, 10.24, 11.44, 10.75, 11.87, 10.52, 48.42, 14.67, 18.9, 51.51, 20.99, 12.24, 12.71, 37.77, 32.69, 13.62, 12.02, 16.3, 16.59, 14.61, 20.42, 22.35, 13.24, 10.96, 27.55]

>  <accession>  (682) 
5WQ2_A

>  <description>  (682) 
Chain A, 3C protein [Enterovirus A71]

>  <evalue>  (682) 
1.45212e-58

>  <pdb_code>  (682) 
5WQ2

>  <chain>  (682) 
A

>  <ligands>  (682) 
[{'chain_id': 'A', 'author_residue_number': 301, 'author_insertion_code': '', 'chem_comp_id': 'AG7', 'alternate_conformers': 0, 'entity_id': 2, 'struct_asym_id': 'B', 'residue_number': 1, 'chem_comp_name': '4-{2-(4-FLUORO-BENZYL)-6-METHYL-5-[(5-METHYL-ISOXAZOLE-3-CARBONYL)-AMINO]-4-OXO-HEPTANOYLAMINO}-5-(2-OXO-PYRROLIDIN-3-YL)-PENTANOIC ACID ETHYL ESTER', 'weight': 600.678, 'carbohydrate_polymer': False, 'branch_name': ''}, {'chain_id': 'A', 'author_residue_number': 302, 'author_insertion_code': '', 'chem_comp_id': 'SO4', 'alternate_conformers': 0, 'entity_id': 3, 'struct_asym_id': 'C', 'residue_number': 1, 'chem_comp_name': 'SULFATE ION', 'weight': 96.063, 'carbohydrate_polymer': False, 'branch_name': ''}, {'chain_id': 'A', 'author_residue_number': 303, 'author_insertion_code': '', 'chem_comp_id': 'SO4', 'alternate_conformers': 0, 'entity_id': 3, 'struct_asym_id': 'D', 'residue_number': 1, 'chem_comp_name': 'SULFATE ION', 'weight': 96.063, 'carbohydrate_polymer': False, 'branch_name': ''}]

>  <ligand_codes>  (682) 
['AG7', 'SO4', 'SO4']

>  <cofactor_codes>  (682) 
[]

>  <has_cofactor>  (682) 
False

>  <covalent>  (682) 
False

>  <base_name>  (682) 
5WQ2

>  <lig_resn>  (682) 
AG7

>  <lig_resi>  (682) 
301

>  <lig_chain>  (682) 
A

>  <lig_segi>  (682) 
B

>  <lig_alt>  (682) 


>  <polymer_chain>  (682) 
A

>  <single_smiles>  (682) 
CCOC(=O)CC[C@H](C[C@@H]1CCNC1=O)NC(=O)[C@@H](CC(=O)[C@@H](NC(=O)c2cc(C)on2)C(C)C)Cc3ccc(F)cc3

$$$$
AG7P17S2
     RDKit          3D

 27 28  0  0  0  0  0  0  0  0999 V2000
   -8.3800   12.4380  -34.7380 C   0  0  0  0  0  0  0  0  0  0  0  0
   -9.5280   13.3240  -35.1010 C   0  0  1  0  0  0  0  0  0  0  0  0
   -7.2410   12.6640  -34.9600 O   0  0  0  0  0  0  0  0  0  0  0  0
   -9.1800   14.8060  -34.8540 C   0  0  0  0  0  0  0  0  0  0  0  0
   -9.8460   13.1390  -36.6190 C   0  0  0  0  0  0  0  0  0  0  0  0
   -8.8710   15.0620  -33.3170 C   0  0  0  0  0  0  0  0  0  0  0  0
  -11.3040   13.7480  -36.8430 C   0  0  0  0  0  0  0  0  0  0  0  0
   -9.0090   14.2040  -32.4740 O   0  0  0  0  0  0  0  0  0  0  0  0
   -8.3700   16.4870  -32.8980 C   0  0  1  0  0  0  0  0  0  0  0  0
  -11.4550   14.8980  -37.6180 C   0  0  0  0  0  0  0  0  0  0  0  0
  -12.4120   13.1420  -36.2450 C   0  0  0  0  0  0  0  0  0  0  0  0
   -8.9480   16.7880  -31.6380 N   0  0  0  0  0  0  0  0  0  0  0  0
   -6.8170   16.5120  -32.7400 C   0  0  0  0  0  0  0  0  0  0  0  0
  -12.7210   15.4360  -37.8160 C   0  0  0  0  0  0  0  0  0  0  0  0
  -13.6940   13.6900  -36.4410 C   0  0  0  0  0  0  0  0  0  0  0  0
   -9.9620   17.8080  -31.4350 C   0  0  0  0  0  0  0  0  0  0  0  0
   -6.0760   16.0060  -34.0310 C   0  0  0  0  0  0  0  0  0  0  0  0
   -6.4170   17.9840  -32.4950 C   0  0  0  0  0  0  0  0  0  0  0  0
  -13.8390   14.8280  -37.2230 C   0  0  0  0  0  0  0  0  0  0  0  0
  -10.4440   17.9550  -29.9640 C   0  0  0  0  0  0  0  0  0  0  0  0
  -10.3830   18.4720  -32.3140 O   0  0  0  0  0  0  0  0  0  0  0  0
  -15.0820   15.3630  -37.4180 F   0  0  0  0  0  0  0  0  0  0  0  0
  -11.4110   18.8030  -29.4810 C   0  0  0  0  0  0  0  0  0  0  0  0
   -9.9470   17.2590  -28.9530 N   0  0  0  0  0  0  0  0  0  0  0  0
  -11.4910   18.5900  -28.1400 C   0  0  0  0  0  0  0  0  0  0  0  0
  -10.5980   17.6430  -27.8020 O   0  0  0  0  0  0  0  0  0  0  0  0
  -12.4230   19.2880  -27.1820 C   0  0  0  0  0  0  0  0  0  0  0  0
  2  1  1  0
  1  3  2  0
  2  4  1  6
  2  5  1  0
  6  4  1  0
  5  7  1  0
  6  8  2  0
  6  9  1  0
  7 10  2  0
  7 11  1  0
  9 12  1  1
  9 13  1  0
 10 14  1  0
 15 11  2  0
 12 16  1  0
 13 17  1  0
 13 18  1  0
 14 19  2  0
 19 15  1  0
 20 16  1  0
 16 21  2  0
 19 22  1  0
 20 23  1  0
 20 24  2  0
 23 25  2  0
 26 24  1  0
 25 27  1  0
 25 26  1  0
A    2
 C04
A    3
 O48
A    4
 C02
A    5
 C05
A    6
 C01
A    7
 C06
A    8
 O03
A    9
 C57
A   10
 C07
A   11
 C11
A   12
 N58
A   13
 C78
A   14
 C08
A   15
 C10
A   16
 C59
A   17
 C81
A   18
 C82
A   19
 C09
A   20
 C1 
A   21
 O60
A   22
 F1 
A   23
 C2 
A   24
 N5 
A   25
 C3 
A   26
 O4 
A   27
 C4 
M  END
>  <XChem_code>  (683) 
AG7§17

>  <Occupancy>  (683) 
[1.0, 1.0, 1.0, 1.0, 1.0, 1.0, 1.0, 1.0, 1.0, 1.0, 1.0, 1.0, 1.0, 1.0, 1.0, 1.0, 1.0, 1.0, 1.0, 1.0, 1.0, 1.0, 1.0, 1.0, 1.0, 1.0, 1.0, 1.0, 1.0, 1.0, 1.0, 1.0, 1.0, 1.0, 1.0, 1.0, 1.0, 1.0, 1.0, 1.0, 1.0, 1.0, 1.0]

>  <TempFactor>  (683) 
[11.58, 15.03, 11.83, 16.25, 16.92, 12.34, 10.54, 20.22, 18.19, 14.53, 16.52, 20.55, 23.87, 20.72, 31.66, 32.21, 24.48, 11.55, 13.92, 10.24, 11.44, 10.75, 11.87, 10.52, 48.42, 14.67, 18.9, 51.51, 20.99, 12.24, 12.71, 37.77, 32.69, 13.62, 12.02, 16.3, 16.59, 14.61, 20.42, 22.35, 13.24, 10.96, 27.55]

>  <accession>  (683) 
5WQ2_A

>  <description>  (683) 
Chain A, 3C protein [Enterovirus A71]

>  <evalue>  (683) 
1.45212e-58

>  <pdb_code>  (683) 
5WQ2

>  <chain>  (683) 
A

>  <ligands>  (683) 
[{'chain_id': 'A', 'author_residue_number': 301, 'author_insertion_code': '', 'chem_comp_id': 'AG7', 'alternate_conformers': 0, 'entity_id': 2, 'struct_asym_id': 'B', 'residue_number': 1, 'chem_comp_name': '4-{2-(4-FLUORO-BENZYL)-6-METHYL-5-[(5-METHYL-ISOXAZOLE-3-CARBONYL)-AMINO]-4-OXO-HEPTANOYLAMINO}-5-(2-OXO-PYRROLIDIN-3-YL)-PENTANOIC ACID ETHYL ESTER', 'weight': 600.678, 'carbohydrate_polymer': False, 'branch_name': ''}, {'chain_id': 'A', 'author_residue_number': 302, 'author_insertion_code': '', 'chem_comp_id': 'SO4', 'alternate_conformers': 0, 'entity_id': 3, 'struct_asym_id': 'C', 'residue_number': 1, 'chem_comp_name': 'SULFATE ION', 'weight': 96.063, 'carbohydrate_polymer': False, 'branch_name': ''}, {'chain_id': 'A', 'author_residue_number': 303, 'author_insertion_code': '', 'chem_comp_id': 'SO4', 'alternate_conformers': 0, 'entity_id': 3, 'struct_asym_id': 'D', 'residue_number': 1, 'chem_comp_name': 'SULFATE ION', 'weight': 96.063, 'carbohydrate_polymer': False, 'branch_name': ''}]

>  <ligand_codes>  (683) 
['AG7', 'SO4', 'SO4']

>  <cofactor_codes>  (683) 
[]

>  <has_cofactor>  (683) 
False

>  <covalent>  (683) 
False

>  <base_name>  (683) 
5WQ2

>  <lig_resn>  (683) 
AG7

>  <lig_resi>  (683) 
301

>  <lig_chain>  (683) 
A

>  <lig_segi>  (683) 
B

>  <lig_alt>  (683) 


>  <polymer_chain>  (683) 
A

>  <single_smiles>  (683) 
CCOC(=O)CC[C@H](C[C@@H]1CCNC1=O)NC(=O)[C@@H](CC(=O)[C@@H](NC(=O)c2cc(C)on2)C(C)C)Cc3ccc(F)cc3

$$$$
AG7P17S3
     RDKit          3D

  8  8  0  0  0  0  0  0  0  0999 V2000
   -9.9620   17.8080  -31.4350 C   0  0  0  0  0  0  0  0  0  0  0  0
  -10.4440   17.9550  -29.9640 C   0  0  0  0  0  0  0  0  0  0  0  0
  -10.3830   18.4720  -32.3140 O   0  0  0  0  0  0  0  0  0  0  0  0
  -11.4110   18.8030  -29.4810 C   0  0  0  0  0  0  0  0  0  0  0  0
   -9.9470   17.2590  -28.9530 N   0  0  0  0  0  0  0  0  0  0  0  0
  -11.4910   18.5900  -28.1400 C   0  0  0  0  0  0  0  0  0  0  0  0
  -10.5980   17.6430  -27.8020 O   0  0  0  0  0  0  0  0  0  0  0  0
  -12.4230   19.2880  -27.1820 C   0  0  0  0  0  0  0  0  0  0  0  0
  2  1  1  0
  1  3  2  0
  2  4  1  0
  2  5  2  0
  4  6  2  0
  7  5  1  0
  6  8  1  0
  6  7  1  0
A    2
 C1 
A    3
 O60
A    4
 C2 
A    5
 N5 
A    6
 C3 
A    7
 O4 
A    8
 C4 
M  END
>  <XChem_code>  (684) 
AG7§17

>  <Occupancy>  (684) 
[1.0, 1.0, 1.0, 1.0, 1.0, 1.0, 1.0, 1.0, 1.0, 1.0, 1.0, 1.0, 1.0, 1.0, 1.0, 1.0, 1.0, 1.0, 1.0, 1.0, 1.0, 1.0, 1.0, 1.0, 1.0, 1.0, 1.0, 1.0, 1.0, 1.0, 1.0, 1.0, 1.0, 1.0, 1.0, 1.0, 1.0, 1.0, 1.0, 1.0, 1.0, 1.0, 1.0]

>  <TempFactor>  (684) 
[11.58, 15.03, 11.83, 16.25, 16.92, 12.34, 10.54, 20.22, 18.19, 14.53, 16.52, 20.55, 23.87, 20.72, 31.66, 32.21, 24.48, 11.55, 13.92, 10.24, 11.44, 10.75, 11.87, 10.52, 48.42, 14.67, 18.9, 51.51, 20.99, 12.24, 12.71, 37.77, 32.69, 13.62, 12.02, 16.3, 16.59, 14.61, 20.42, 22.35, 13.24, 10.96, 27.55]

>  <accession>  (684) 
5WQ2_A

>  <description>  (684) 
Chain A, 3C protein [Enterovirus A71]

>  <evalue>  (684) 
1.45212e-58

>  <pdb_code>  (684) 
5WQ2

>  <chain>  (684) 
A

>  <ligands>  (684) 
[{'chain_id': 'A', 'author_residue_number': 301, 'author_insertion_code': '', 'chem_comp_id': 'AG7', 'alternate_conformers': 0, 'entity_id': 2, 'struct_asym_id': 'B', 'residue_number': 1, 'chem_comp_name': '4-{2-(4-FLUORO-BENZYL)-6-METHYL-5-[(5-METHYL-ISOXAZOLE-3-CARBONYL)-AMINO]-4-OXO-HEPTANOYLAMINO}-5-(2-OXO-PYRROLIDIN-3-YL)-PENTANOIC ACID ETHYL ESTER', 'weight': 600.678, 'carbohydrate_polymer': False, 'branch_name': ''}, {'chain_id': 'A', 'author_residue_number': 302, 'author_insertion_code': '', 'chem_comp_id': 'SO4', 'alternate_conformers': 0, 'entity_id': 3, 'struct_asym_id': 'C', 'residue_number': 1, 'chem_comp_name': 'SULFATE ION', 'weight': 96.063, 'carbohydrate_polymer': False, 'branch_name': ''}, {'chain_id': 'A', 'author_residue_number': 303, 'author_insertion_code': '', 'chem_comp_id': 'SO4', 'alternate_conformers': 0, 'entity_id': 3, 'struct_asym_id': 'D', 'residue_number': 1, 'chem_comp_name': 'SULFATE ION', 'weight': 96.063, 'carbohydrate_polymer': False, 'branch_name': ''}]

>  <ligand_codes>  (684) 
['AG7', 'SO4', 'SO4']

>  <cofactor_codes>  (684) 
[]

>  <has_cofactor>  (684) 
False

>  <covalent>  (684) 
False

>  <base_name>  (684) 
5WQ2

>  <lig_resn>  (684) 
AG7

>  <lig_resi>  (684) 
301

>  <lig_chain>  (684) 
A

>  <lig_segi>  (684) 
B

>  <lig_alt>  (684) 


>  <polymer_chain>  (684) 
A

>  <single_smiles>  (684) 
CCOC(=O)CC[C@H](C[C@@H]1CCNC1=O)NC(=O)[C@@H](CC(=O)[C@@H](NC(=O)c2cc(C)on2)C(C)C)Cc3ccc(F)cc3

$$$$
AG7P17S4
     RDKit          3D

 35 36  0  0  0  0  0  0  0  0999 V2000
   -8.9480   16.7880  -31.6380 N   0  0  0  0  0  0  0  0  0  0  0  0
   -8.3700   16.4870  -32.8980 C   0  0  2  0  0  0  0  0  0  0  0  0
   -8.8710   15.0620  -33.3170 C   0  0  0  0  0  0  0  0  0  0  0  0
   -6.8170   16.5120  -32.7400 C   0  0  0  0  0  0  0  0  0  0  0  0
   -9.1800   14.8060  -34.8540 C   0  0  0  0  0  0  0  0  0  0  0  0
   -9.0090   14.2040  -32.4740 O   0  0  0  0  0  0  0  0  0  0  0  0
   -6.0760   16.0060  -34.0310 C   0  0  0  0  0  0  0  0  0  0  0  0
   -6.4170   17.9840  -32.4950 C   0  0  0  0  0  0  0  0  0  0  0  0
   -9.5280   13.3240  -35.1010 C   0  0  1  0  0  0  0  0  0  0  0  0
   -9.8460   13.1390  -36.6190 C   0  0  0  0  0  0  0  0  0  0  0  0
   -8.3800   12.4380  -34.7380 C   0  0  0  0  0  0  0  0  0  0  0  0
  -11.3040   13.7480  -36.8430 C   0  0  0  0  0  0  0  0  0  0  0  0
   -8.6980   11.1750  -34.0820 N   0  0  0  0  0  0  0  0  0  0  0  0
   -7.2410   12.6640  -34.9600 O   0  0  0  0  0  0  0  0  0  0  0  0
  -11.4550   14.8980  -37.6180 C   0  0  0  0  0  0  0  0  0  0  0  0
  -12.4120   13.1420  -36.2450 C   0  0  0  0  0  0  0  0  0  0  0  0
   -7.4890   10.4020  -33.7670 C   0  0  1  0  0  0  0  0  0  0  0  0
  -12.7210   15.4360  -37.8160 C   0  0  0  0  0  0  0  0  0  0  0  0
  -13.6940   13.6900  -36.4410 C   0  0  0  0  0  0  0  0  0  0  0  0
   -7.5780   10.0070  -32.2880 C   0  0  0  0  0  0  0  0  0  0  0  0
   -7.1530    9.1720  -34.5770 C   0  0  0  0  0  0  0  0  0  0  0  0
  -13.8390   14.8280  -37.2230 C   0  0  0  0  0  0  0  0  0  0  0  0
   -7.0980   11.3050  -31.5740 C   0  0  1  0  0  0  0  0  0  0  0  0
   -7.7220    9.1500  -35.9970 C   0  0  0  0  0  0  0  0  0  0  0  0
  -15.0820   15.3630  -37.4180 F   0  0  0  0  0  0  0  0  0  0  0  0
   -7.0220   11.0820  -29.9910 C   0  0  0  0  0  0  0  0  0  0  0  0
   -5.8430   11.7240  -31.9670 C   0  0  0  0  0  0  0  0  0  0  0  0
   -6.3220    9.0870  -36.5370 C   0  0  0  0  0  0  0  0  0  0  0  0
   -6.0040   11.8390  -29.5420 N   0  0  0  0  0  0  0  0  0  0  0  0
   -7.7390   10.4090  -29.3110 O   0  0  0  0  0  0  0  0  0  0  0  0
   -5.3380   12.5590  -30.7110 C   0  0  0  0  0  0  0  0  0  0  0  0
   -5.9840    9.6800  -37.7630 O   0  0  0  0  0  0  0  0  0  0  0  0
   -5.5050    8.5250  -35.8520 O   0  0  0  0  0  0  0  0  0  0  0  0
   -5.1310    8.8390  -38.5240 C   0  0  0  0  0  0  0  0  0  0  0  0
   -5.9360    8.4070  -39.7210 C   0  0  0  0  0  0  0  0  0  0  0  0
  2  1  1  1
  3  2  1  0
  2  4  1  0
  3  5  1  0
  3  6  2  0
  4  7  1  0
  4  8  1  0
  9  5  1  6
  9 10  1  0
  9 11  1  0
 10 12  1  0
 13 11  1  0
 11 14  2  0
 12 15  2  0
 12 16  1  0
 13 17  1  0
 15 18  1  0
 19 16  2  0
 17 20  1  1
 17 21  1  0
 18 22  2  0
 22 19  1  0
 23 20  1  6
 21 24  1  0
 22 25  1  0
 23 26  1  0
 23 27  1  0
 24 28  1  0
 26 29  1  0
 26 30  2  0
 31 27  1  0
 28 32  1  0
 28 33  2  0
 29 31  1  0
 32 34  1  0
 34 35  1  0
A    2
 C57
A    3
 C01
A    4
 C78
A    5
 C02
A    6
 O03
A    7
 C81
A    8
 C82
A    9
 C04
A   10
 C05
A   11
 C47
A   12
 C06
A   13
 N12
A   14
 O48
A   15
 C07
A   16
 C11
A   17
 C13
A   18
 C08
A   19
 C10
A   20
 C14
A   21
 C19
A   22
 C09
A   23
 C15
A   24
 C20
A   25
 F1 
A   26
 C16
A   27
 C84
A   28
 C21
A   29
 N17
A   30
 O18
A   31
 C83
A   32
 O22
A   33
 O23
A   34
 C50
A   35
 C53
M  END
>  <XChem_code>  (685) 
AG7§17

>  <Occupancy>  (685) 
[1.0, 1.0, 1.0, 1.0, 1.0, 1.0, 1.0, 1.0, 1.0, 1.0, 1.0, 1.0, 1.0, 1.0, 1.0, 1.0, 1.0, 1.0, 1.0, 1.0, 1.0, 1.0, 1.0, 1.0, 1.0, 1.0, 1.0, 1.0, 1.0, 1.0, 1.0, 1.0, 1.0, 1.0, 1.0, 1.0, 1.0, 1.0, 1.0, 1.0, 1.0, 1.0, 1.0]

>  <TempFactor>  (685) 
[11.58, 15.03, 11.83, 16.25, 16.92, 12.34, 10.54, 20.22, 18.19, 14.53, 16.52, 20.55, 23.87, 20.72, 31.66, 32.21, 24.48, 11.55, 13.92, 10.24, 11.44, 10.75, 11.87, 10.52, 48.42, 14.67, 18.9, 51.51, 20.99, 12.24, 12.71, 37.77, 32.69, 13.62, 12.02, 16.3, 16.59, 14.61, 20.42, 22.35, 13.24, 10.96, 27.55]

>  <accession>  (685) 
5WQ2_A

>  <description>  (685) 
Chain A, 3C protein [Enterovirus A71]

>  <evalue>  (685) 
1.45212e-58

>  <pdb_code>  (685) 
5WQ2

>  <chain>  (685) 
A

>  <ligands>  (685) 
[{'chain_id': 'A', 'author_residue_number': 301, 'author_insertion_code': '', 'chem_comp_id': 'AG7', 'alternate_conformers': 0, 'entity_id': 2, 'struct_asym_id': 'B', 'residue_number': 1, 'chem_comp_name': '4-{2-(4-FLUORO-BENZYL)-6-METHYL-5-[(5-METHYL-ISOXAZOLE-3-CARBONYL)-AMINO]-4-OXO-HEPTANOYLAMINO}-5-(2-OXO-PYRROLIDIN-3-YL)-PENTANOIC ACID ETHYL ESTER', 'weight': 600.678, 'carbohydrate_polymer': False, 'branch_name': ''}, {'chain_id': 'A', 'author_residue_number': 302, 'author_insertion_code': '', 'chem_comp_id': 'SO4', 'alternate_conformers': 0, 'entity_id': 3, 'struct_asym_id': 'C', 'residue_number': 1, 'chem_comp_name': 'SULFATE ION', 'weight': 96.063, 'carbohydrate_polymer': False, 'branch_name': ''}, {'chain_id': 'A', 'author_residue_number': 303, 'author_insertion_code': '', 'chem_comp_id': 'SO4', 'alternate_conformers': 0, 'entity_id': 3, 'struct_asym_id': 'D', 'residue_number': 1, 'chem_comp_name': 'SULFATE ION', 'weight': 96.063, 'carbohydrate_polymer': False, 'branch_name': ''}]

>  <ligand_codes>  (685) 
['AG7', 'SO4', 'SO4']

>  <cofactor_codes>  (685) 
[]

>  <has_cofactor>  (685) 
False

>  <covalent>  (685) 
False

>  <base_name>  (685) 
5WQ2

>  <lig_resn>  (685) 
AG7

>  <lig_resi>  (685) 
301

>  <lig_chain>  (685) 
A

>  <lig_segi>  (685) 
B

>  <lig_alt>  (685) 


>  <polymer_chain>  (685) 
A

>  <single_smiles>  (685) 
CCOC(=O)CC[C@H](C[C@@H]1CCNC1=O)NC(=O)[C@@H](CC(=O)[C@@H](NC(=O)c2cc(C)on2)C(C)C)Cc3ccc(F)cc3

$$$$
AG7P17S5
     RDKit          3D

 19 19  0  0  0  0  0  0  0  0999 V2000
   -8.9480   16.7880  -31.6380 N   0  0  0  0  0  0  0  0  0  0  0  0
   -8.3700   16.4870  -32.8980 C   0  0  2  0  0  0  0  0  0  0  0  0
   -8.8710   15.0620  -33.3170 C   0  0  0  0  0  0  0  0  0  0  0  0
   -6.8170   16.5120  -32.7400 C   0  0  0  0  0  0  0  0  0  0  0  0
   -9.1800   14.8060  -34.8540 C   0  0  0  0  0  0  0  0  0  0  0  0
   -9.0090   14.2040  -32.4740 O   0  0  0  0  0  0  0  0  0  0  0  0
   -6.0760   16.0060  -34.0310 C   0  0  0  0  0  0  0  0  0  0  0  0
   -6.4170   17.9840  -32.4950 C   0  0  0  0  0  0  0  0  0  0  0  0
   -9.5280   13.3240  -35.1010 C   0  0  2  0  0  0  0  0  0  0  0  0
   -8.3800   12.4380  -34.7380 C   0  0  0  0  0  0  0  0  0  0  0  0
   -9.8460   13.1390  -36.6190 C   0  0  0  0  0  0  0  0  0  0  0  0
   -7.2410   12.6640  -34.9600 O   0  0  0  0  0  0  0  0  0  0  0  0
  -11.3040   13.7480  -36.8430 C   0  0  0  0  0  0  0  0  0  0  0  0
  -11.4550   14.8980  -37.6180 C   0  0  0  0  0  0  0  0  0  0  0  0
  -12.4120   13.1420  -36.2450 C   0  0  0  0  0  0  0  0  0  0  0  0
  -12.7210   15.4360  -37.8160 C   0  0  0  0  0  0  0  0  0  0  0  0
  -13.6940   13.6900  -36.4410 C   0  0  0  0  0  0  0  0  0  0  0  0
  -13.8390   14.8280  -37.2230 C   0  0  0  0  0  0  0  0  0  0  0  0
  -15.0820   15.3630  -37.4180 F   0  0  0  0  0  0  0  0  0  0  0  0
  2  1  1  1
  3  2  1  0
  2  4  1  0
  3  5  1  0
  3  6  2  0
  4  7  1  0
  4  8  1  0
  9  5  1  6
  9 10  1  0
  9 11  1  0
 10 12  2  0
 11 13  1  0
 13 14  2  0
 13 15  1  0
 14 16  1  0
 17 15  2  0
 16 18  2  0
 18 17  1  0
 18 19  1  0
A    2
 C57
A    3
 C01
A    4
 C78
A    5
 C02
A    6
 O03
A    7
 C81
A    8
 C82
A    9
 C04
A   11
 C05
A   12
 O48
A   13
 C06
A   14
 C07
A   15
 C11
A   16
 C08
A   17
 C10
A   18
 C09
A   19
 F1 
M  END
>  <XChem_code>  (686) 
AG7§17

>  <Occupancy>  (686) 
[1.0, 1.0, 1.0, 1.0, 1.0, 1.0, 1.0, 1.0, 1.0, 1.0, 1.0, 1.0, 1.0, 1.0, 1.0, 1.0, 1.0, 1.0, 1.0, 1.0, 1.0, 1.0, 1.0, 1.0, 1.0, 1.0, 1.0, 1.0, 1.0, 1.0, 1.0, 1.0, 1.0, 1.0, 1.0, 1.0, 1.0, 1.0, 1.0, 1.0, 1.0, 1.0, 1.0]

>  <TempFactor>  (686) 
[11.58, 15.03, 11.83, 16.25, 16.92, 12.34, 10.54, 20.22, 18.19, 14.53, 16.52, 20.55, 23.87, 20.72, 31.66, 32.21, 24.48, 11.55, 13.92, 10.24, 11.44, 10.75, 11.87, 10.52, 48.42, 14.67, 18.9, 51.51, 20.99, 12.24, 12.71, 37.77, 32.69, 13.62, 12.02, 16.3, 16.59, 14.61, 20.42, 22.35, 13.24, 10.96, 27.55]

>  <accession>  (686) 
5WQ2_A

>  <description>  (686) 
Chain A, 3C protein [Enterovirus A71]

>  <evalue>  (686) 
1.45212e-58

>  <pdb_code>  (686) 
5WQ2

>  <chain>  (686) 
A

>  <ligands>  (686) 
[{'chain_id': 'A', 'author_residue_number': 301, 'author_insertion_code': '', 'chem_comp_id': 'AG7', 'alternate_conformers': 0, 'entity_id': 2, 'struct_asym_id': 'B', 'residue_number': 1, 'chem_comp_name': '4-{2-(4-FLUORO-BENZYL)-6-METHYL-5-[(5-METHYL-ISOXAZOLE-3-CARBONYL)-AMINO]-4-OXO-HEPTANOYLAMINO}-5-(2-OXO-PYRROLIDIN-3-YL)-PENTANOIC ACID ETHYL ESTER', 'weight': 600.678, 'carbohydrate_polymer': False, 'branch_name': ''}, {'chain_id': 'A', 'author_residue_number': 302, 'author_insertion_code': '', 'chem_comp_id': 'SO4', 'alternate_conformers': 0, 'entity_id': 3, 'struct_asym_id': 'C', 'residue_number': 1, 'chem_comp_name': 'SULFATE ION', 'weight': 96.063, 'carbohydrate_polymer': False, 'branch_name': ''}, {'chain_id': 'A', 'author_residue_number': 303, 'author_insertion_code': '', 'chem_comp_id': 'SO4', 'alternate_conformers': 0, 'entity_id': 3, 'struct_asym_id': 'D', 'residue_number': 1, 'chem_comp_name': 'SULFATE ION', 'weight': 96.063, 'carbohydrate_polymer': False, 'branch_name': ''}]

>  <ligand_codes>  (686) 
['AG7', 'SO4', 'SO4']

>  <cofactor_codes>  (686) 
[]

>  <has_cofactor>  (686) 
False

>  <covalent>  (686) 
False

>  <base_name>  (686) 
5WQ2

>  <lig_resn>  (686) 
AG7

>  <lig_resi>  (686) 
301

>  <lig_chain>  (686) 
A

>  <lig_segi>  (686) 
B

>  <lig_alt>  (686) 


>  <polymer_chain>  (686) 
A

>  <single_smiles>  (686) 
CCOC(=O)CC[C@H](C[C@@H]1CCNC1=O)NC(=O)[C@@H](CC(=O)[C@@H](NC(=O)c2cc(C)on2)C(C)C)Cc3ccc(F)cc3

$$$$
AG7P17S6
     RDKit          3D

 15 15  0  0  0  0  0  0  0  0999 V2000
   -7.4890   10.4020  -33.7670 C   0  0  0  0  0  0  0  0  0  0  0  0
   -7.5780   10.0070  -32.2880 C   0  0  0  0  0  0  0  0  0  0  0  0
   -7.1530    9.1720  -34.5770 C   0  0  0  0  0  0  0  0  0  0  0  0
   -7.0980   11.3050  -31.5740 C   0  0  1  0  0  0  0  0  0  0  0  0
   -7.7220    9.1500  -35.9970 C   0  0  0  0  0  0  0  0  0  0  0  0
   -7.0220   11.0820  -29.9910 C   0  0  0  0  0  0  0  0  0  0  0  0
   -5.8430   11.7240  -31.9670 C   0  0  0  0  0  0  0  0  0  0  0  0
   -6.3220    9.0870  -36.5370 C   0  0  0  0  0  0  0  0  0  0  0  0
   -6.0040   11.8390  -29.5420 N   0  0  0  0  0  0  0  0  0  0  0  0
   -7.7390   10.4090  -29.3110 O   0  0  0  0  0  0  0  0  0  0  0  0
   -5.3380   12.5590  -30.7110 C   0  0  0  0  0  0  0  0  0  0  0  0
   -5.9840    9.6800  -37.7630 O   0  0  0  0  0  0  0  0  0  0  0  0
   -5.5050    8.5250  -35.8520 O   0  0  0  0  0  0  0  0  0  0  0  0
   -5.1310    8.8390  -38.5240 C   0  0  0  0  0  0  0  0  0  0  0  0
   -5.9360    8.4070  -39.7210 C   0  0  0  0  0  0  0  0  0  0  0  0
  1  2  1  6
  1  3  1  0
  4  2  1  6
  3  5  1  0
  4  6  1  0
  4  7  1  0
  5  8  1  0
  6  9  1  0
  6 10  2  0
 11  7  1  0
  8 12  1  0
  8 13  2  0
  9 11  1  0
 12 14  1  0
 14 15  1  0
A    2
 C14
A    3
 C19
A    4
 C15
A    5
 C20
A    6
 C16
A    7
 C84
A    8
 C21
A    9
 N17
A   10
 O18
A   11
 C83
A   12
 O22
A   13
 O23
A   14
 C50
A   15
 C53
M  END
>  <XChem_code>  (687) 
AG7§17

>  <Occupancy>  (687) 
[1.0, 1.0, 1.0, 1.0, 1.0, 1.0, 1.0, 1.0, 1.0, 1.0, 1.0, 1.0, 1.0, 1.0, 1.0, 1.0, 1.0, 1.0, 1.0, 1.0, 1.0, 1.0, 1.0, 1.0, 1.0, 1.0, 1.0, 1.0, 1.0, 1.0, 1.0, 1.0, 1.0, 1.0, 1.0, 1.0, 1.0, 1.0, 1.0, 1.0, 1.0, 1.0, 1.0]

>  <TempFactor>  (687) 
[11.58, 15.03, 11.83, 16.25, 16.92, 12.34, 10.54, 20.22, 18.19, 14.53, 16.52, 20.55, 23.87, 20.72, 31.66, 32.21, 24.48, 11.55, 13.92, 10.24, 11.44, 10.75, 11.87, 10.52, 48.42, 14.67, 18.9, 51.51, 20.99, 12.24, 12.71, 37.77, 32.69, 13.62, 12.02, 16.3, 16.59, 14.61, 20.42, 22.35, 13.24, 10.96, 27.55]

>  <accession>  (687) 
5WQ2_A

>  <description>  (687) 
Chain A, 3C protein [Enterovirus A71]

>  <evalue>  (687) 
1.45212e-58

>  <pdb_code>  (687) 
5WQ2

>  <chain>  (687) 
A

>  <ligands>  (687) 
[{'chain_id': 'A', 'author_residue_number': 301, 'author_insertion_code': '', 'chem_comp_id': 'AG7', 'alternate_conformers': 0, 'entity_id': 2, 'struct_asym_id': 'B', 'residue_number': 1, 'chem_comp_name': '4-{2-(4-FLUORO-BENZYL)-6-METHYL-5-[(5-METHYL-ISOXAZOLE-3-CARBONYL)-AMINO]-4-OXO-HEPTANOYLAMINO}-5-(2-OXO-PYRROLIDIN-3-YL)-PENTANOIC ACID ETHYL ESTER', 'weight': 600.678, 'carbohydrate_polymer': False, 'branch_name': ''}, {'chain_id': 'A', 'author_residue_number': 302, 'author_insertion_code': '', 'chem_comp_id': 'SO4', 'alternate_conformers': 0, 'entity_id': 3, 'struct_asym_id': 'C', 'residue_number': 1, 'chem_comp_name': 'SULFATE ION', 'weight': 96.063, 'carbohydrate_polymer': False, 'branch_name': ''}, {'chain_id': 'A', 'author_residue_number': 303, 'author_insertion_code': '', 'chem_comp_id': 'SO4', 'alternate_conformers': 0, 'entity_id': 3, 'struct_asym_id': 'D', 'residue_number': 1, 'chem_comp_name': 'SULFATE ION', 'weight': 96.063, 'carbohydrate_polymer': False, 'branch_name': ''}]

>  <ligand_codes>  (687) 
['AG7', 'SO4', 'SO4']

>  <cofactor_codes>  (687) 
[]

>  <has_cofactor>  (687) 
False

>  <covalent>  (687) 
False

>  <base_name>  (687) 
5WQ2

>  <lig_resn>  (687) 
AG7

>  <lig_resi>  (687) 
301

>  <lig_chain>  (687) 
A

>  <lig_segi>  (687) 
B

>  <lig_alt>  (687) 


>  <polymer_chain>  (687) 
A

>  <single_smiles>  (687) 
CCOC(=O)CC[C@H](C[C@@H]1CCNC1=O)NC(=O)[C@@H](CC(=O)[C@@H](NC(=O)c2cc(C)on2)C(C)C)Cc3ccc(F)cc3

$$$$
AG7P17S7
     RDKit          3D

 28 29  0  0  0  0  0  0  0  0999 V2000
   -8.6980   11.1750  -34.0820 N   0  0  0  0  0  0  0  0  0  0  0  0
   -8.3800   12.4380  -34.7380 C   0  0  0  0  0  0  0  0  0  0  0  0
   -9.5280   13.3240  -35.1010 C   0  0  1  0  0  0  0  0  0  0  0  0
   -7.2410   12.6640  -34.9600 O   0  0  0  0  0  0  0  0  0  0  0  0
   -9.1800   14.8060  -34.8540 C   0  0  0  0  0  0  0  0  0  0  0  0
   -9.8460   13.1390  -36.6190 C   0  0  0  0  0  0  0  0  0  0  0  0
   -8.8710   15.0620  -33.3170 C   0  0  0  0  0  0  0  0  0  0  0  0
  -11.3040   13.7480  -36.8430 C   0  0  0  0  0  0  0  0  0  0  0  0
   -9.0090   14.2040  -32.4740 O   0  0  0  0  0  0  0  0  0  0  0  0
   -8.3700   16.4870  -32.8980 C   0  0  1  0  0  0  0  0  0  0  0  0
  -11.4550   14.8980  -37.6180 C   0  0  0  0  0  0  0  0  0  0  0  0
  -12.4120   13.1420  -36.2450 C   0  0  0  0  0  0  0  0  0  0  0  0
   -8.9480   16.7880  -31.6380 N   0  0  0  0  0  0  0  0  0  0  0  0
   -6.8170   16.5120  -32.7400 C   0  0  0  0  0  0  0  0  0  0  0  0
  -12.7210   15.4360  -37.8160 C   0  0  0  0  0  0  0  0  0  0  0  0
  -13.6940   13.6900  -36.4410 C   0  0  0  0  0  0  0  0  0  0  0  0
   -9.9620   17.8080  -31.4350 C   0  0  0  0  0  0  0  0  0  0  0  0
   -6.0760   16.0060  -34.0310 C   0  0  0  0  0  0  0  0  0  0  0  0
   -6.4170   17.9840  -32.4950 C   0  0  0  0  0  0  0  0  0  0  0  0
  -13.8390   14.8280  -37.2230 C   0  0  0  0  0  0  0  0  0  0  0  0
  -10.4440   17.9550  -29.9640 C   0  0  0  0  0  0  0  0  0  0  0  0
  -10.3830   18.4720  -32.3140 O   0  0  0  0  0  0  0  0  0  0  0  0
  -15.0820   15.3630  -37.4180 F   0  0  0  0  0  0  0  0  0  0  0  0
  -11.4110   18.8030  -29.4810 C   0  0  0  0  0  0  0  0  0  0  0  0
   -9.9470   17.2590  -28.9530 N   0  0  0  0  0  0  0  0  0  0  0  0
  -11.4910   18.5900  -28.1400 C   0  0  0  0  0  0  0  0  0  0  0  0
  -10.5980   17.6430  -27.8020 O   0  0  0  0  0  0  0  0  0  0  0  0
  -12.4230   19.2880  -27.1820 C   0  0  0  0  0  0  0  0  0  0  0  0
  1  2  1  0
  3  2  1  0
  2  4  2  0
  3  5  1  6
  3  6  1  0
  7  5  1  0
  6  8  1  0
  7  9  2  0
  7 10  1  0
  8 11  2  0
  8 12  1  0
 10 13  1  1
 10 14  1  0
 11 15  1  0
 16 12  2  0
 13 17  1  0
 14 18  1  0
 14 19  1  0
 15 20  2  0
 20 16  1  0
 21 17  1  0
 17 22  2  0
 20 23  1  0
 21 24  1  0
 21 25  2  0
 24 26  2  0
 27 25  1  0
 26 28  1  0
 26 27  1  0
A    2
 C47
A    3
 C04
A    4
 O48
A    5
 C02
A    6
 C05
A    7
 C01
A    8
 C06
A    9
 O03
A   10
 C57
A   11
 C07
A   12
 C11
A   13
 N58
A   14
 C78
A   15
 C08
A   16
 C10
A   17
 C59
A   18
 C81
A   19
 C82
A   20
 C09
A   21
 C1 
A   22
 O60
A   23
 F1 
A   24
 C2 
A   25
 N5 
A   26
 C3 
A   27
 O4 
A   28
 C4 
M  END
>  <XChem_code>  (688) 
AG7§17

>  <Occupancy>  (688) 
[1.0, 1.0, 1.0, 1.0, 1.0, 1.0, 1.0, 1.0, 1.0, 1.0, 1.0, 1.0, 1.0, 1.0, 1.0, 1.0, 1.0, 1.0, 1.0, 1.0, 1.0, 1.0, 1.0, 1.0, 1.0, 1.0, 1.0, 1.0, 1.0, 1.0, 1.0, 1.0, 1.0, 1.0, 1.0, 1.0, 1.0, 1.0, 1.0, 1.0, 1.0, 1.0, 1.0]

>  <TempFactor>  (688) 
[11.58, 15.03, 11.83, 16.25, 16.92, 12.34, 10.54, 20.22, 18.19, 14.53, 16.52, 20.55, 23.87, 20.72, 31.66, 32.21, 24.48, 11.55, 13.92, 10.24, 11.44, 10.75, 11.87, 10.52, 48.42, 14.67, 18.9, 51.51, 20.99, 12.24, 12.71, 37.77, 32.69, 13.62, 12.02, 16.3, 16.59, 14.61, 20.42, 22.35, 13.24, 10.96, 27.55]

>  <accession>  (688) 
5WQ2_A

>  <description>  (688) 
Chain A, 3C protein [Enterovirus A71]

>  <evalue>  (688) 
1.45212e-58

>  <pdb_code>  (688) 
5WQ2

>  <chain>  (688) 
A

>  <ligands>  (688) 
[{'chain_id': 'A', 'author_residue_number': 301, 'author_insertion_code': '', 'chem_comp_id': 'AG7', 'alternate_conformers': 0, 'entity_id': 2, 'struct_asym_id': 'B', 'residue_number': 1, 'chem_comp_name': '4-{2-(4-FLUORO-BENZYL)-6-METHYL-5-[(5-METHYL-ISOXAZOLE-3-CARBONYL)-AMINO]-4-OXO-HEPTANOYLAMINO}-5-(2-OXO-PYRROLIDIN-3-YL)-PENTANOIC ACID ETHYL ESTER', 'weight': 600.678, 'carbohydrate_polymer': False, 'branch_name': ''}, {'chain_id': 'A', 'author_residue_number': 302, 'author_insertion_code': '', 'chem_comp_id': 'SO4', 'alternate_conformers': 0, 'entity_id': 3, 'struct_asym_id': 'C', 'residue_number': 1, 'chem_comp_name': 'SULFATE ION', 'weight': 96.063, 'carbohydrate_polymer': False, 'branch_name': ''}, {'chain_id': 'A', 'author_residue_number': 303, 'author_insertion_code': '', 'chem_comp_id': 'SO4', 'alternate_conformers': 0, 'entity_id': 3, 'struct_asym_id': 'D', 'residue_number': 1, 'chem_comp_name': 'SULFATE ION', 'weight': 96.063, 'carbohydrate_polymer': False, 'branch_name': ''}]

>  <ligand_codes>  (688) 
['AG7', 'SO4', 'SO4']

>  <cofactor_codes>  (688) 
[]

>  <has_cofactor>  (688) 
False

>  <covalent>  (688) 
False

>  <base_name>  (688) 
5WQ2

>  <lig_resn>  (688) 
AG7

>  <lig_resi>  (688) 
301

>  <lig_chain>  (688) 
A

>  <lig_segi>  (688) 
B

>  <lig_alt>  (688) 


>  <polymer_chain>  (688) 
A

>  <single_smiles>  (688) 
CCOC(=O)CC[C@H](C[C@@H]1CCNC1=O)NC(=O)[C@@H](CC(=O)[C@@H](NC(=O)c2cc(C)on2)C(C)C)Cc3ccc(F)cc3

$$$$
AG7P17S8
     RDKit          3D

  9  9  0  0  0  0  0  0  0  0999 V2000
   -8.9480   16.7880  -31.6380 N   0  0  0  0  0  0  0  0  0  0  0  0
   -9.9620   17.8080  -31.4350 C   0  0  0  0  0  0  0  0  0  0  0  0
  -10.4440   17.9550  -29.9640 C   0  0  0  0  0  0  0  0  0  0  0  0
  -10.3830   18.4720  -32.3140 O   0  0  0  0  0  0  0  0  0  0  0  0
  -11.4110   18.8030  -29.4810 C   0  0  0  0  0  0  0  0  0  0  0  0
   -9.9470   17.2590  -28.9530 N   0  0  0  0  0  0  0  0  0  0  0  0
  -11.4910   18.5900  -28.1400 C   0  0  0  0  0  0  0  0  0  0  0  0
  -10.5980   17.6430  -27.8020 O   0  0  0  0  0  0  0  0  0  0  0  0
  -12.4230   19.2880  -27.1820 C   0  0  0  0  0  0  0  0  0  0  0  0
  1  2  1  0
  3  2  1  0
  2  4  2  0
  3  5  1  0
  3  6  2  0
  5  7  2  0
  8  6  1  0
  7  9  1  0
  7  8  1  0
A    2
 C59
A    3
 C1 
A    4
 O60
A    5
 C2 
A    6
 N5 
A    7
 C3 
A    8
 O4 
A    9
 C4 
M  END
>  <XChem_code>  (689) 
AG7§17

>  <Occupancy>  (689) 
[1.0, 1.0, 1.0, 1.0, 1.0, 1.0, 1.0, 1.0, 1.0, 1.0, 1.0, 1.0, 1.0, 1.0, 1.0, 1.0, 1.0, 1.0, 1.0, 1.0, 1.0, 1.0, 1.0, 1.0, 1.0, 1.0, 1.0, 1.0, 1.0, 1.0, 1.0, 1.0, 1.0, 1.0, 1.0, 1.0, 1.0, 1.0, 1.0, 1.0, 1.0, 1.0, 1.0]

>  <TempFactor>  (689) 
[11.58, 15.03, 11.83, 16.25, 16.92, 12.34, 10.54, 20.22, 18.19, 14.53, 16.52, 20.55, 23.87, 20.72, 31.66, 32.21, 24.48, 11.55, 13.92, 10.24, 11.44, 10.75, 11.87, 10.52, 48.42, 14.67, 18.9, 51.51, 20.99, 12.24, 12.71, 37.77, 32.69, 13.62, 12.02, 16.3, 16.59, 14.61, 20.42, 22.35, 13.24, 10.96, 27.55]

>  <accession>  (689) 
5WQ2_A

>  <description>  (689) 
Chain A, 3C protein [Enterovirus A71]

>  <evalue>  (689) 
1.45212e-58

>  <pdb_code>  (689) 
5WQ2

>  <chain>  (689) 
A

>  <ligands>  (689) 
[{'chain_id': 'A', 'author_residue_number': 301, 'author_insertion_code': '', 'chem_comp_id': 'AG7', 'alternate_conformers': 0, 'entity_id': 2, 'struct_asym_id': 'B', 'residue_number': 1, 'chem_comp_name': '4-{2-(4-FLUORO-BENZYL)-6-METHYL-5-[(5-METHYL-ISOXAZOLE-3-CARBONYL)-AMINO]-4-OXO-HEPTANOYLAMINO}-5-(2-OXO-PYRROLIDIN-3-YL)-PENTANOIC ACID ETHYL ESTER', 'weight': 600.678, 'carbohydrate_polymer': False, 'branch_name': ''}, {'chain_id': 'A', 'author_residue_number': 302, 'author_insertion_code': '', 'chem_comp_id': 'SO4', 'alternate_conformers': 0, 'entity_id': 3, 'struct_asym_id': 'C', 'residue_number': 1, 'chem_comp_name': 'SULFATE ION', 'weight': 96.063, 'carbohydrate_polymer': False, 'branch_name': ''}, {'chain_id': 'A', 'author_residue_number': 303, 'author_insertion_code': '', 'chem_comp_id': 'SO4', 'alternate_conformers': 0, 'entity_id': 3, 'struct_asym_id': 'D', 'residue_number': 1, 'chem_comp_name': 'SULFATE ION', 'weight': 96.063, 'carbohydrate_polymer': False, 'branch_name': ''}]

>  <ligand_codes>  (689) 
['AG7', 'SO4', 'SO4']

>  <cofactor_codes>  (689) 
[]

>  <has_cofactor>  (689) 
False

>  <covalent>  (689) 
False

>  <base_name>  (689) 
5WQ2

>  <lig_resn>  (689) 
AG7

>  <lig_resi>  (689) 
301

>  <lig_chain>  (689) 
A

>  <lig_segi>  (689) 
B

>  <lig_alt>  (689) 


>  <polymer_chain>  (689) 
A

>  <single_smiles>  (689) 
CCOC(=O)CC[C@H](C[C@@H]1CCNC1=O)NC(=O)[C@@H](CC(=O)[C@@H](NC(=O)c2cc(C)on2)C(C)C)Cc3ccc(F)cc3

$$$$
AG7P17S9
     RDKit          3D

 34 35  0  0  0  0  0  0  0  0999 V2000
   -8.3700   16.4870  -32.8980 C   0  0  0  0  0  0  0  0  0  0  0  0
   -8.8710   15.0620  -33.3170 C   0  0  0  0  0  0  0  0  0  0  0  0
   -6.8170   16.5120  -32.7400 C   0  0  0  0  0  0  0  0  0  0  0  0
   -9.1800   14.8060  -34.8540 C   0  0  0  0  0  0  0  0  0  0  0  0
   -9.0090   14.2040  -32.4740 O   0  0  0  0  0  0  0  0  0  0  0  0
   -6.0760   16.0060  -34.0310 C   0  0  0  0  0  0  0  0  0  0  0  0
   -6.4170   17.9840  -32.4950 C   0  0  0  0  0  0  0  0  0  0  0  0
   -9.5280   13.3240  -35.1010 C   0  0  1  0  0  0  0  0  0  0  0  0
   -9.8460   13.1390  -36.6190 C   0  0  0  0  0  0  0  0  0  0  0  0
   -8.3800   12.4380  -34.7380 C   0  0  0  0  0  0  0  0  0  0  0  0
  -11.3040   13.7480  -36.8430 C   0  0  0  0  0  0  0  0  0  0  0  0
   -8.6980   11.1750  -34.0820 N   0  0  0  0  0  0  0  0  0  0  0  0
   -7.2410   12.6640  -34.9600 O   0  0  0  0  0  0  0  0  0  0  0  0
  -11.4550   14.8980  -37.6180 C   0  0  0  0  0  0  0  0  0  0  0  0
  -12.4120   13.1420  -36.2450 C   0  0  0  0  0  0  0  0  0  0  0  0
   -7.4890   10.4020  -33.7670 C   0  0  1  0  0  0  0  0  0  0  0  0
  -12.7210   15.4360  -37.8160 C   0  0  0  0  0  0  0  0  0  0  0  0
  -13.6940   13.6900  -36.4410 C   0  0  0  0  0  0  0  0  0  0  0  0
   -7.5780   10.0070  -32.2880 C   0  0  0  0  0  0  0  0  0  0  0  0
   -7.1530    9.1720  -34.5770 C   0  0  0  0  0  0  0  0  0  0  0  0
  -13.8390   14.8280  -37.2230 C   0  0  0  0  0  0  0  0  0  0  0  0
   -7.0980   11.3050  -31.5740 C   0  0  1  0  0  0  0  0  0  0  0  0
   -7.7220    9.1500  -35.9970 C   0  0  0  0  0  0  0  0  0  0  0  0
  -15.0820   15.3630  -37.4180 F   0  0  0  0  0  0  0  0  0  0  0  0
   -7.0220   11.0820  -29.9910 C   0  0  0  0  0  0  0  0  0  0  0  0
   -5.8430   11.7240  -31.9670 C   0  0  0  0  0  0  0  0  0  0  0  0
   -6.3220    9.0870  -36.5370 C   0  0  0  0  0  0  0  0  0  0  0  0
   -6.0040   11.8390  -29.5420 N   0  0  0  0  0  0  0  0  0  0  0  0
   -7.7390   10.4090  -29.3110 O   0  0  0  0  0  0  0  0  0  0  0  0
   -5.3380   12.5590  -30.7110 C   0  0  0  0  0  0  0  0  0  0  0  0
   -5.9840    9.6800  -37.7630 O   0  0  0  0  0  0  0  0  0  0  0  0
   -5.5050    8.5250  -35.8520 O   0  0  0  0  0  0  0  0  0  0  0  0
   -5.1310    8.8390  -38.5240 C   0  0  0  0  0  0  0  0  0  0  0  0
   -5.9360    8.4070  -39.7210 C   0  0  0  0  0  0  0  0  0  0  0  0
  2  1  1  0
  1  3  1  6
  2  4  1  0
  2  5  2  0
  3  6  1  0
  3  7  1  0
  8  4  1  6
  8  9  1  0
  8 10  1  0
  9 11  1  0
 12 10  1  0
 10 13  2  0
 11 14  2  0
 11 15  1  0
 12 16  1  0
 14 17  1  0
 18 15  2  0
 16 19  1  1
 16 20  1  0
 17 21  2  0
 21 18  1  0
 22 19  1  6
 20 23  1  0
 21 24  1  0
 22 25  1  0
 22 26  1  0
 23 27  1  0
 25 28  1  0
 25 29  2  0
 30 26  1  0
 27 31  1  0
 27 32  2  0
 28 30  1  0
 31 33  1  0
 33 34  1  0
A    2
 C01
A    3
 C78
A    4
 C02
A    5
 O03
A    6
 C81
A    7
 C82
A    8
 C04
A    9
 C05
A   10
 C47
A   11
 C06
A   12
 N12
A   13
 O48
A   14
 C07
A   15
 C11
A   16
 C13
A   17
 C08
A   18
 C10
A   19
 C14
A   20
 C19
A   21
 C09
A   22
 C15
A   23
 C20
A   24
 F1 
A   25
 C16
A   26
 C84
A   27
 C21
A   28
 N17
A   29
 O18
A   30
 C83
A   31
 O22
A   32
 O23
A   33
 C50
A   34
 C53
M  END
>  <XChem_code>  (690) 
AG7§17

>  <Occupancy>  (690) 
[1.0, 1.0, 1.0, 1.0, 1.0, 1.0, 1.0, 1.0, 1.0, 1.0, 1.0, 1.0, 1.0, 1.0, 1.0, 1.0, 1.0, 1.0, 1.0, 1.0, 1.0, 1.0, 1.0, 1.0, 1.0, 1.0, 1.0, 1.0, 1.0, 1.0, 1.0, 1.0, 1.0, 1.0, 1.0, 1.0, 1.0, 1.0, 1.0, 1.0, 1.0, 1.0, 1.0]

>  <TempFactor>  (690) 
[11.58, 15.03, 11.83, 16.25, 16.92, 12.34, 10.54, 20.22, 18.19, 14.53, 16.52, 20.55, 23.87, 20.72, 31.66, 32.21, 24.48, 11.55, 13.92, 10.24, 11.44, 10.75, 11.87, 10.52, 48.42, 14.67, 18.9, 51.51, 20.99, 12.24, 12.71, 37.77, 32.69, 13.62, 12.02, 16.3, 16.59, 14.61, 20.42, 22.35, 13.24, 10.96, 27.55]

>  <accession>  (690) 
5WQ2_A

>  <description>  (690) 
Chain A, 3C protein [Enterovirus A71]

>  <evalue>  (690) 
1.45212e-58

>  <pdb_code>  (690) 
5WQ2

>  <chain>  (690) 
A

>  <ligands>  (690) 
[{'chain_id': 'A', 'author_residue_number': 301, 'author_insertion_code': '', 'chem_comp_id': 'AG7', 'alternate_conformers': 0, 'entity_id': 2, 'struct_asym_id': 'B', 'residue_number': 1, 'chem_comp_name': '4-{2-(4-FLUORO-BENZYL)-6-METHYL-5-[(5-METHYL-ISOXAZOLE-3-CARBONYL)-AMINO]-4-OXO-HEPTANOYLAMINO}-5-(2-OXO-PYRROLIDIN-3-YL)-PENTANOIC ACID ETHYL ESTER', 'weight': 600.678, 'carbohydrate_polymer': False, 'branch_name': ''}, {'chain_id': 'A', 'author_residue_number': 302, 'author_insertion_code': '', 'chem_comp_id': 'SO4', 'alternate_conformers': 0, 'entity_id': 3, 'struct_asym_id': 'C', 'residue_number': 1, 'chem_comp_name': 'SULFATE ION', 'weight': 96.063, 'carbohydrate_polymer': False, 'branch_name': ''}, {'chain_id': 'A', 'author_residue_number': 303, 'author_insertion_code': '', 'chem_comp_id': 'SO4', 'alternate_conformers': 0, 'entity_id': 3, 'struct_asym_id': 'D', 'residue_number': 1, 'chem_comp_name': 'SULFATE ION', 'weight': 96.063, 'carbohydrate_polymer': False, 'branch_name': ''}]

>  <ligand_codes>  (690) 
['AG7', 'SO4', 'SO4']

>  <cofactor_codes>  (690) 
[]

>  <has_cofactor>  (690) 
False

>  <covalent>  (690) 
False

>  <base_name>  (690) 
5WQ2

>  <lig_resn>  (690) 
AG7

>  <lig_resi>  (690) 
301

>  <lig_chain>  (690) 
A

>  <lig_segi>  (690) 
B

>  <lig_alt>  (690) 


>  <polymer_chain>  (690) 
A

>  <single_smiles>  (690) 
CCOC(=O)CC[C@H](C[C@@H]1CCNC1=O)NC(=O)[C@@H](CC(=O)[C@@H](NC(=O)c2cc(C)on2)C(C)C)Cc3ccc(F)cc3

$$$$
AG7P17S10
     RDKit          3D

 18 18  0  0  0  0  0  0  0  0999 V2000
   -8.3700   16.4870  -32.8980 C   0  0  0  0  0  0  0  0  0  0  0  0
   -8.8710   15.0620  -33.3170 C   0  0  0  0  0  0  0  0  0  0  0  0
   -6.8170   16.5120  -32.7400 C   0  0  0  0  0  0  0  0  0  0  0  0
   -9.1800   14.8060  -34.8540 C   0  0  0  0  0  0  0  0  0  0  0  0
   -9.0090   14.2040  -32.4740 O   0  0  0  0  0  0  0  0  0  0  0  0
   -6.0760   16.0060  -34.0310 C   0  0  0  0  0  0  0  0  0  0  0  0
   -6.4170   17.9840  -32.4950 C   0  0  0  0  0  0  0  0  0  0  0  0
   -9.5280   13.3240  -35.1010 C   0  0  2  0  0  0  0  0  0  0  0  0
   -8.3800   12.4380  -34.7380 C   0  0  0  0  0  0  0  0  0  0  0  0
   -9.8460   13.1390  -36.6190 C   0  0  0  0  0  0  0  0  0  0  0  0
   -7.2410   12.6640  -34.9600 O   0  0  0  0  0  0  0  0  0  0  0  0
  -11.3040   13.7480  -36.8430 C   0  0  0  0  0  0  0  0  0  0  0  0
  -11.4550   14.8980  -37.6180 C   0  0  0  0  0  0  0  0  0  0  0  0
  -12.4120   13.1420  -36.2450 C   0  0  0  0  0  0  0  0  0  0  0  0
  -12.7210   15.4360  -37.8160 C   0  0  0  0  0  0  0  0  0  0  0  0
  -13.6940   13.6900  -36.4410 C   0  0  0  0  0  0  0  0  0  0  0  0
  -13.8390   14.8280  -37.2230 C   0  0  0  0  0  0  0  0  0  0  0  0
  -15.0820   15.3630  -37.4180 F   0  0  0  0  0  0  0  0  0  0  0  0
  2  1  1  0
  1  3  1  6
  2  4  1  0
  2  5  2  0
  3  6  1  0
  3  7  1  0
  8  4  1  6
  8  9  1  0
  8 10  1  0
  9 11  2  0
 10 12  1  0
 12 13  2  0
 12 14  1  0
 13 15  1  0
 16 14  2  0
 15 17  2  0
 17 16  1  0
 17 18  1  0
A    2
 C01
A    3
 C78
A    4
 C02
A    5
 O03
A    6
 C81
A    7
 C82
A    8
 C04
A   10
 C05
A   11
 O48
A   12
 C06
A   13
 C07
A   14
 C11
A   15
 C08
A   16
 C10
A   17
 C09
A   18
 F1 
M  END
>  <XChem_code>  (691) 
AG7§17

>  <Occupancy>  (691) 
[1.0, 1.0, 1.0, 1.0, 1.0, 1.0, 1.0, 1.0, 1.0, 1.0, 1.0, 1.0, 1.0, 1.0, 1.0, 1.0, 1.0, 1.0, 1.0, 1.0, 1.0, 1.0, 1.0, 1.0, 1.0, 1.0, 1.0, 1.0, 1.0, 1.0, 1.0, 1.0, 1.0, 1.0, 1.0, 1.0, 1.0, 1.0, 1.0, 1.0, 1.0, 1.0, 1.0]

>  <TempFactor>  (691) 
[11.58, 15.03, 11.83, 16.25, 16.92, 12.34, 10.54, 20.22, 18.19, 14.53, 16.52, 20.55, 23.87, 20.72, 31.66, 32.21, 24.48, 11.55, 13.92, 10.24, 11.44, 10.75, 11.87, 10.52, 48.42, 14.67, 18.9, 51.51, 20.99, 12.24, 12.71, 37.77, 32.69, 13.62, 12.02, 16.3, 16.59, 14.61, 20.42, 22.35, 13.24, 10.96, 27.55]

>  <accession>  (691) 
5WQ2_A

>  <description>  (691) 
Chain A, 3C protein [Enterovirus A71]

>  <evalue>  (691) 
1.45212e-58

>  <pdb_code>  (691) 
5WQ2

>  <chain>  (691) 
A

>  <ligands>  (691) 
[{'chain_id': 'A', 'author_residue_number': 301, 'author_insertion_code': '', 'chem_comp_id': 'AG7', 'alternate_conformers': 0, 'entity_id': 2, 'struct_asym_id': 'B', 'residue_number': 1, 'chem_comp_name': '4-{2-(4-FLUORO-BENZYL)-6-METHYL-5-[(5-METHYL-ISOXAZOLE-3-CARBONYL)-AMINO]-4-OXO-HEPTANOYLAMINO}-5-(2-OXO-PYRROLIDIN-3-YL)-PENTANOIC ACID ETHYL ESTER', 'weight': 600.678, 'carbohydrate_polymer': False, 'branch_name': ''}, {'chain_id': 'A', 'author_residue_number': 302, 'author_insertion_code': '', 'chem_comp_id': 'SO4', 'alternate_conformers': 0, 'entity_id': 3, 'struct_asym_id': 'C', 'residue_number': 1, 'chem_comp_name': 'SULFATE ION', 'weight': 96.063, 'carbohydrate_polymer': False, 'branch_name': ''}, {'chain_id': 'A', 'author_residue_number': 303, 'author_insertion_code': '', 'chem_comp_id': 'SO4', 'alternate_conformers': 0, 'entity_id': 3, 'struct_asym_id': 'D', 'residue_number': 1, 'chem_comp_name': 'SULFATE ION', 'weight': 96.063, 'carbohydrate_polymer': False, 'branch_name': ''}]

>  <ligand_codes>  (691) 
['AG7', 'SO4', 'SO4']

>  <cofactor_codes>  (691) 
[]

>  <has_cofactor>  (691) 
False

>  <covalent>  (691) 
False

>  <base_name>  (691) 
5WQ2

>  <lig_resn>  (691) 
AG7

>  <lig_resi>  (691) 
301

>  <lig_chain>  (691) 
A

>  <lig_segi>  (691) 
B

>  <lig_alt>  (691) 


>  <polymer_chain>  (691) 
A

>  <single_smiles>  (691) 
CCOC(=O)CC[C@H](C[C@@H]1CCNC1=O)NC(=O)[C@@H](CC(=O)[C@@H](NC(=O)c2cc(C)on2)C(C)C)Cc3ccc(F)cc3

$$$$
AG7P17S11
     RDKit          3D

 20 20  0  0  0  0  0  0  0  0999 V2000
   -8.6980   11.1750  -34.0820 N   0  0  0  0  0  0  0  0  0  0  0  0
   -8.3800   12.4380  -34.7380 C   0  0  0  0  0  0  0  0  0  0  0  0
   -9.5280   13.3240  -35.1010 C   0  0  1  0  0  0  0  0  0  0  0  0
   -7.2410   12.6640  -34.9600 O   0  0  0  0  0  0  0  0  0  0  0  0
   -9.1800   14.8060  -34.8540 C   0  0  0  0  0  0  0  0  0  0  0  0
   -9.8460   13.1390  -36.6190 C   0  0  0  0  0  0  0  0  0  0  0  0
   -8.8710   15.0620  -33.3170 C   0  0  0  0  0  0  0  0  0  0  0  0
  -11.3040   13.7480  -36.8430 C   0  0  0  0  0  0  0  0  0  0  0  0
   -8.3700   16.4870  -32.8980 C   0  0  1  0  0  0  0  0  0  0  0  0
   -9.0090   14.2040  -32.4740 O   0  0  0  0  0  0  0  0  0  0  0  0
  -11.4550   14.8980  -37.6180 C   0  0  0  0  0  0  0  0  0  0  0  0
  -12.4120   13.1420  -36.2450 C   0  0  0  0  0  0  0  0  0  0  0  0
   -8.9480   16.7880  -31.6380 N   0  0  0  0  0  0  0  0  0  0  0  0
   -6.8170   16.5120  -32.7400 C   0  0  0  0  0  0  0  0  0  0  0  0
  -12.7210   15.4360  -37.8160 C   0  0  0  0  0  0  0  0  0  0  0  0
  -13.6940   13.6900  -36.4410 C   0  0  0  0  0  0  0  0  0  0  0  0
   -6.0760   16.0060  -34.0310 C   0  0  0  0  0  0  0  0  0  0  0  0
   -6.4170   17.9840  -32.4950 C   0  0  0  0  0  0  0  0  0  0  0  0
  -13.8390   14.8280  -37.2230 C   0  0  0  0  0  0  0  0  0  0  0  0
  -15.0820   15.3630  -37.4180 F   0  0  0  0  0  0  0  0  0  0  0  0
  1  2  1  0
  3  2  1  0
  2  4  2  0
  3  5  1  6
  3  6  1  0
  7  5  1  0
  6  8  1  0
  7  9  1  0
  7 10  2  0
  8 11  2  0
  8 12  1  0
  9 13  1  1
  9 14  1  0
 11 15  1  0
 16 12  2  0
 14 17  1  0
 14 18  1  0
 15 19  2  0
 19 16  1  0
 19 20  1  0
A    2
 C47
A    3
 C04
A    4
 O48
A    5
 C02
A    6
 C05
A    7
 C01
A    8
 C06
A    9
 C57
A   10
 O03
A   11
 C07
A   12
 C11
A   14
 C78
A   15
 C08
A   16
 C10
A   17
 C81
A   18
 C82
A   19
 C09
A   20
 F1 
M  END
>  <XChem_code>  (692) 
AG7§17

>  <Occupancy>  (692) 
[1.0, 1.0, 1.0, 1.0, 1.0, 1.0, 1.0, 1.0, 1.0, 1.0, 1.0, 1.0, 1.0, 1.0, 1.0, 1.0, 1.0, 1.0, 1.0, 1.0, 1.0, 1.0, 1.0, 1.0, 1.0, 1.0, 1.0, 1.0, 1.0, 1.0, 1.0, 1.0, 1.0, 1.0, 1.0, 1.0, 1.0, 1.0, 1.0, 1.0, 1.0, 1.0, 1.0]

>  <TempFactor>  (692) 
[11.58, 15.03, 11.83, 16.25, 16.92, 12.34, 10.54, 20.22, 18.19, 14.53, 16.52, 20.55, 23.87, 20.72, 31.66, 32.21, 24.48, 11.55, 13.92, 10.24, 11.44, 10.75, 11.87, 10.52, 48.42, 14.67, 18.9, 51.51, 20.99, 12.24, 12.71, 37.77, 32.69, 13.62, 12.02, 16.3, 16.59, 14.61, 20.42, 22.35, 13.24, 10.96, 27.55]

>  <accession>  (692) 
5WQ2_A

>  <description>  (692) 
Chain A, 3C protein [Enterovirus A71]

>  <evalue>  (692) 
1.45212e-58

>  <pdb_code>  (692) 
5WQ2

>  <chain>  (692) 
A

>  <ligands>  (692) 
[{'chain_id': 'A', 'author_residue_number': 301, 'author_insertion_code': '', 'chem_comp_id': 'AG7', 'alternate_conformers': 0, 'entity_id': 2, 'struct_asym_id': 'B', 'residue_number': 1, 'chem_comp_name': '4-{2-(4-FLUORO-BENZYL)-6-METHYL-5-[(5-METHYL-ISOXAZOLE-3-CARBONYL)-AMINO]-4-OXO-HEPTANOYLAMINO}-5-(2-OXO-PYRROLIDIN-3-YL)-PENTANOIC ACID ETHYL ESTER', 'weight': 600.678, 'carbohydrate_polymer': False, 'branch_name': ''}, {'chain_id': 'A', 'author_residue_number': 302, 'author_insertion_code': '', 'chem_comp_id': 'SO4', 'alternate_conformers': 0, 'entity_id': 3, 'struct_asym_id': 'C', 'residue_number': 1, 'chem_comp_name': 'SULFATE ION', 'weight': 96.063, 'carbohydrate_polymer': False, 'branch_name': ''}, {'chain_id': 'A', 'author_residue_number': 303, 'author_insertion_code': '', 'chem_comp_id': 'SO4', 'alternate_conformers': 0, 'entity_id': 3, 'struct_asym_id': 'D', 'residue_number': 1, 'chem_comp_name': 'SULFATE ION', 'weight': 96.063, 'carbohydrate_polymer': False, 'branch_name': ''}]

>  <ligand_codes>  (692) 
['AG7', 'SO4', 'SO4']

>  <cofactor_codes>  (692) 
[]

>  <has_cofactor>  (692) 
False

>  <covalent>  (692) 
False

>  <base_name>  (692) 
5WQ2

>  <lig_resn>  (692) 
AG7

>  <lig_resi>  (692) 
301

>  <lig_chain>  (692) 
A

>  <lig_segi>  (692) 
B

>  <lig_alt>  (692) 


>  <polymer_chain>  (692) 
A

>  <single_smiles>  (692) 
CCOC(=O)CC[C@H](C[C@@H]1CCNC1=O)NC(=O)[C@@H](CC(=O)[C@@H](NC(=O)c2cc(C)on2)C(C)C)Cc3ccc(F)cc3

$$$$
AG7P17S12
     RDKit          3D

 19 19  0  0  0  0  0  0  0  0999 V2000
   -8.3700   16.4870  -32.8980 C   0  0  0  0  0  0  0  0  0  0  0  0
   -8.8710   15.0620  -33.3170 C   0  0  0  0  0  0  0  0  0  0  0  0
   -6.8170   16.5120  -32.7400 C   0  0  0  0  0  0  0  0  0  0  0  0
   -9.1800   14.8060  -34.8540 C   0  0  0  0  0  0  0  0  0  0  0  0
   -9.0090   14.2040  -32.4740 O   0  0  0  0  0  0  0  0  0  0  0  0
   -6.0760   16.0060  -34.0310 C   0  0  0  0  0  0  0  0  0  0  0  0
   -6.4170   17.9840  -32.4950 C   0  0  0  0  0  0  0  0  0  0  0  0
   -9.5280   13.3240  -35.1010 C   0  0  2  0  0  0  0  0  0  0  0  0
   -8.3800   12.4380  -34.7380 C   0  0  0  0  0  0  0  0  0  0  0  0
   -9.8460   13.1390  -36.6190 C   0  0  0  0  0  0  0  0  0  0  0  0
   -8.6980   11.1750  -34.0820 N   0  0  0  0  0  0  0  0  0  0  0  0
   -7.2410   12.6640  -34.9600 O   0  0  0  0  0  0  0  0  0  0  0  0
  -11.3040   13.7480  -36.8430 C   0  0  0  0  0  0  0  0  0  0  0  0
  -11.4550   14.8980  -37.6180 C   0  0  0  0  0  0  0  0  0  0  0  0
  -12.4120   13.1420  -36.2450 C   0  0  0  0  0  0  0  0  0  0  0  0
  -12.7210   15.4360  -37.8160 C   0  0  0  0  0  0  0  0  0  0  0  0
  -13.6940   13.6900  -36.4410 C   0  0  0  0  0  0  0  0  0  0  0  0
  -13.8390   14.8280  -37.2230 C   0  0  0  0  0  0  0  0  0  0  0  0
  -15.0820   15.3630  -37.4180 F   0  0  0  0  0  0  0  0  0  0  0  0
  2  1  1  0
  1  3  1  6
  2  4  1  0
  2  5  2  0
  3  6  1  0
  3  7  1  0
  8  4  1  6
  8  9  1  0
  8 10  1  0
 11  9  1  0
  9 12  2  0
 10 13  1  0
 13 14  2  0
 13 15  1  0
 14 16  1  0
 17 15  2  0
 16 18  2  0
 18 17  1  0
 18 19  1  0
A    2
 C01
A    3
 C78
A    4
 C02
A    5
 O03
A    6
 C81
A    7
 C82
A    8
 C04
A    9
 C47
A   10
 C05
A   12
 O48
A   13
 C06
A   14
 C07
A   15
 C11
A   16
 C08
A   17
 C10
A   18
 C09
A   19
 F1 
M  END
>  <XChem_code>  (693) 
AG7§17

>  <Occupancy>  (693) 
[1.0, 1.0, 1.0, 1.0, 1.0, 1.0, 1.0, 1.0, 1.0, 1.0, 1.0, 1.0, 1.0, 1.0, 1.0, 1.0, 1.0, 1.0, 1.0, 1.0, 1.0, 1.0, 1.0, 1.0, 1.0, 1.0, 1.0, 1.0, 1.0, 1.0, 1.0, 1.0, 1.0, 1.0, 1.0, 1.0, 1.0, 1.0, 1.0, 1.0, 1.0, 1.0, 1.0]

>  <TempFactor>  (693) 
[11.58, 15.03, 11.83, 16.25, 16.92, 12.34, 10.54, 20.22, 18.19, 14.53, 16.52, 20.55, 23.87, 20.72, 31.66, 32.21, 24.48, 11.55, 13.92, 10.24, 11.44, 10.75, 11.87, 10.52, 48.42, 14.67, 18.9, 51.51, 20.99, 12.24, 12.71, 37.77, 32.69, 13.62, 12.02, 16.3, 16.59, 14.61, 20.42, 22.35, 13.24, 10.96, 27.55]

>  <accession>  (693) 
5WQ2_A

>  <description>  (693) 
Chain A, 3C protein [Enterovirus A71]

>  <evalue>  (693) 
1.45212e-58

>  <pdb_code>  (693) 
5WQ2

>  <chain>  (693) 
A

>  <ligands>  (693) 
[{'chain_id': 'A', 'author_residue_number': 301, 'author_insertion_code': '', 'chem_comp_id': 'AG7', 'alternate_conformers': 0, 'entity_id': 2, 'struct_asym_id': 'B', 'residue_number': 1, 'chem_comp_name': '4-{2-(4-FLUORO-BENZYL)-6-METHYL-5-[(5-METHYL-ISOXAZOLE-3-CARBONYL)-AMINO]-4-OXO-HEPTANOYLAMINO}-5-(2-OXO-PYRROLIDIN-3-YL)-PENTANOIC ACID ETHYL ESTER', 'weight': 600.678, 'carbohydrate_polymer': False, 'branch_name': ''}, {'chain_id': 'A', 'author_residue_number': 302, 'author_insertion_code': '', 'chem_comp_id': 'SO4', 'alternate_conformers': 0, 'entity_id': 3, 'struct_asym_id': 'C', 'residue_number': 1, 'chem_comp_name': 'SULFATE ION', 'weight': 96.063, 'carbohydrate_polymer': False, 'branch_name': ''}, {'chain_id': 'A', 'author_residue_number': 303, 'author_insertion_code': '', 'chem_comp_id': 'SO4', 'alternate_conformers': 0, 'entity_id': 3, 'struct_asym_id': 'D', 'residue_number': 1, 'chem_comp_name': 'SULFATE ION', 'weight': 96.063, 'carbohydrate_polymer': False, 'branch_name': ''}]

>  <ligand_codes>  (693) 
['AG7', 'SO4', 'SO4']

>  <cofactor_codes>  (693) 
[]

>  <has_cofactor>  (693) 
False

>  <covalent>  (693) 
False

>  <base_name>  (693) 
5WQ2

>  <lig_resn>  (693) 
AG7

>  <lig_resi>  (693) 
301

>  <lig_chain>  (693) 
A

>  <lig_segi>  (693) 
B

>  <lig_alt>  (693) 


>  <polymer_chain>  (693) 
A

>  <single_smiles>  (693) 
CCOC(=O)CC[C@H](C[C@@H]1CCNC1=O)NC(=O)[C@@H](CC(=O)[C@@H](NC(=O)c2cc(C)on2)C(C)C)Cc3ccc(F)cc3

$$$$
AG7P17S13
     RDKit          3D

  6  6  0  0  0  0  0  0  0  0999 V2000
  -10.4440   17.9550  -29.9640 C   0  0  0  0  0  0  0  0  0  0  0  0
  -11.4110   18.8030  -29.4810 C   0  0  0  0  0  0  0  0  0  0  0  0
   -9.9470   17.2590  -28.9530 N   0  0  0  0  0  0  0  0  0  0  0  0
  -11.4910   18.5900  -28.1400 C   0  0  0  0  0  0  0  0  0  0  0  0
  -10.5980   17.6430  -27.8020 O   0  0  0  0  0  0  0  0  0  0  0  0
  -12.4230   19.2880  -27.1820 C   0  0  0  0  0  0  0  0  0  0  0  0
  1  2  1  0
  1  3  2  0
  2  4  2  0
  5  3  1  0
  4  6  1  0
  4  5  1  0
A    2
 C2 
A    3
 N5 
A    4
 C3 
A    5
 O4 
A    6
 C4 
M  END
>  <XChem_code>  (694) 
AG7§17

>  <Occupancy>  (694) 
[1.0, 1.0, 1.0, 1.0, 1.0, 1.0, 1.0, 1.0, 1.0, 1.0, 1.0, 1.0, 1.0, 1.0, 1.0, 1.0, 1.0, 1.0, 1.0, 1.0, 1.0, 1.0, 1.0, 1.0, 1.0, 1.0, 1.0, 1.0, 1.0, 1.0, 1.0, 1.0, 1.0, 1.0, 1.0, 1.0, 1.0, 1.0, 1.0, 1.0, 1.0, 1.0, 1.0]

>  <TempFactor>  (694) 
[11.58, 15.03, 11.83, 16.25, 16.92, 12.34, 10.54, 20.22, 18.19, 14.53, 16.52, 20.55, 23.87, 20.72, 31.66, 32.21, 24.48, 11.55, 13.92, 10.24, 11.44, 10.75, 11.87, 10.52, 48.42, 14.67, 18.9, 51.51, 20.99, 12.24, 12.71, 37.77, 32.69, 13.62, 12.02, 16.3, 16.59, 14.61, 20.42, 22.35, 13.24, 10.96, 27.55]

>  <accession>  (694) 
5WQ2_A

>  <description>  (694) 
Chain A, 3C protein [Enterovirus A71]

>  <evalue>  (694) 
1.45212e-58

>  <pdb_code>  (694) 
5WQ2

>  <chain>  (694) 
A

>  <ligands>  (694) 
[{'chain_id': 'A', 'author_residue_number': 301, 'author_insertion_code': '', 'chem_comp_id': 'AG7', 'alternate_conformers': 0, 'entity_id': 2, 'struct_asym_id': 'B', 'residue_number': 1, 'chem_comp_name': '4-{2-(4-FLUORO-BENZYL)-6-METHYL-5-[(5-METHYL-ISOXAZOLE-3-CARBONYL)-AMINO]-4-OXO-HEPTANOYLAMINO}-5-(2-OXO-PYRROLIDIN-3-YL)-PENTANOIC ACID ETHYL ESTER', 'weight': 600.678, 'carbohydrate_polymer': False, 'branch_name': ''}, {'chain_id': 'A', 'author_residue_number': 302, 'author_insertion_code': '', 'chem_comp_id': 'SO4', 'alternate_conformers': 0, 'entity_id': 3, 'struct_asym_id': 'C', 'residue_number': 1, 'chem_comp_name': 'SULFATE ION', 'weight': 96.063, 'carbohydrate_polymer': False, 'branch_name': ''}, {'chain_id': 'A', 'author_residue_number': 303, 'author_insertion_code': '', 'chem_comp_id': 'SO4', 'alternate_conformers': 0, 'entity_id': 3, 'struct_asym_id': 'D', 'residue_number': 1, 'chem_comp_name': 'SULFATE ION', 'weight': 96.063, 'carbohydrate_polymer': False, 'branch_name': ''}]

>  <ligand_codes>  (694) 
['AG7', 'SO4', 'SO4']

>  <cofactor_codes>  (694) 
[]

>  <has_cofactor>  (694) 
False

>  <covalent>  (694) 
False

>  <base_name>  (694) 
5WQ2

>  <lig_resn>  (694) 
AG7

>  <lig_resi>  (694) 
301

>  <lig_chain>  (694) 
A

>  <lig_segi>  (694) 
B

>  <lig_alt>  (694) 


>  <polymer_chain>  (694) 
A

>  <single_smiles>  (694) 
CCOC(=O)CC[C@H](C[C@@H]1CCNC1=O)NC(=O)[C@@H](CC(=O)[C@@H](NC(=O)c2cc(C)on2)C(C)C)Cc3ccc(F)cc3

$$$$
AG7P17S14
     RDKit          3D

 37 38  0  0  0  0  0  0  0  0999 V2000
   -9.9620   17.8080  -31.4350 C   0  0  0  0  0  0  0  0  0  0  0  0
   -8.9480   16.7880  -31.6380 N   0  0  0  0  0  0  0  0  0  0  0  0
  -10.3830   18.4720  -32.3140 O   0  0  0  0  0  0  0  0  0  0  0  0
   -8.3700   16.4870  -32.8980 C   0  0  2  0  0  0  0  0  0  0  0  0
   -8.8710   15.0620  -33.3170 C   0  0  0  0  0  0  0  0  0  0  0  0
   -6.8170   16.5120  -32.7400 C   0  0  0  0  0  0  0  0  0  0  0  0
   -9.1800   14.8060  -34.8540 C   0  0  0  0  0  0  0  0  0  0  0  0
   -9.0090   14.2040  -32.4740 O   0  0  0  0  0  0  0  0  0  0  0  0
   -6.0760   16.0060  -34.0310 C   0  0  0  0  0  0  0  0  0  0  0  0
   -6.4170   17.9840  -32.4950 C   0  0  0  0  0  0  0  0  0  0  0  0
   -9.5280   13.3240  -35.1010 C   0  0  1  0  0  0  0  0  0  0  0  0
   -9.8460   13.1390  -36.6190 C   0  0  0  0  0  0  0  0  0  0  0  0
   -8.3800   12.4380  -34.7380 C   0  0  0  0  0  0  0  0  0  0  0  0
  -11.3040   13.7480  -36.8430 C   0  0  0  0  0  0  0  0  0  0  0  0
   -8.6980   11.1750  -34.0820 N   0  0  0  0  0  0  0  0  0  0  0  0
   -7.2410   12.6640  -34.9600 O   0  0  0  0  0  0  0  0  0  0  0  0
  -11.4550   14.8980  -37.6180 C   0  0  0  0  0  0  0  0  0  0  0  0
  -12.4120   13.1420  -36.2450 C   0  0  0  0  0  0  0  0  0  0  0  0
   -7.4890   10.4020  -33.7670 C   0  0  1  0  0  0  0  0  0  0  0  0
  -12.7210   15.4360  -37.8160 C   0  0  0  0  0  0  0  0  0  0  0  0
  -13.6940   13.6900  -36.4410 C   0  0  0  0  0  0  0  0  0  0  0  0
   -7.5780   10.0070  -32.2880 C   0  0  0  0  0  0  0  0  0  0  0  0
   -7.1530    9.1720  -34.5770 C   0  0  0  0  0  0  0  0  0  0  0  0
  -13.8390   14.8280  -37.2230 C   0  0  0  0  0  0  0  0  0  0  0  0
   -7.0980   11.3050  -31.5740 C   0  0  1  0  0  0  0  0  0  0  0  0
   -7.7220    9.1500  -35.9970 C   0  0  0  0  0  0  0  0  0  0  0  0
  -15.0820   15.3630  -37.4180 F   0  0  0  0  0  0  0  0  0  0  0  0
   -7.0220   11.0820  -29.9910 C   0  0  0  0  0  0  0  0  0  0  0  0
   -5.8430   11.7240  -31.9670 C   0  0  0  0  0  0  0  0  0  0  0  0
   -6.3220    9.0870  -36.5370 C   0  0  0  0  0  0  0  0  0  0  0  0
   -6.0040   11.8390  -29.5420 N   0  0  0  0  0  0  0  0  0  0  0  0
   -7.7390   10.4090  -29.3110 O   0  0  0  0  0  0  0  0  0  0  0  0
   -5.3380   12.5590  -30.7110 C   0  0  0  0  0  0  0  0  0  0  0  0
   -5.9840    9.6800  -37.7630 O   0  0  0  0  0  0  0  0  0  0  0  0
   -5.5050    8.5250  -35.8520 O   0  0  0  0  0  0  0  0  0  0  0  0
   -5.1310    8.8390  -38.5240 C   0  0  0  0  0  0  0  0  0  0  0  0
   -5.9360    8.4070  -39.7210 C   0  0  0  0  0  0  0  0  0  0  0  0
  2  1  1  0
  1  3  2  0
  4  2  1  1
  5  4  1  0
  4  6  1  0
  5  7  1  0
  5  8  2  0
  6  9  1  0
  6 10  1  0
 11  7  1  6
 11 12  1  0
 11 13  1  0
 12 14  1  0
 15 13  1  0
 13 16  2  0
 14 17  2  0
 14 18  1  0
 15 19  1  0
 17 20  1  0
 21 18  2  0
 19 22  1  1
 19 23  1  0
 20 24  2  0
 24 21  1  0
 25 22  1  6
 23 26  1  0
 24 27  1  0
 25 28  1  0
 25 29  1  0
 26 30  1  0
 28 31  1  0
 28 32  2  0
 33 29  1  0
 30 34  1  0
 30 35  2  0
 31 33  1  0
 34 36  1  0
 36 37  1  0
A    2
 N58
A    3
 O60
A    4
 C57
A    5
 C01
A    6
 C78
A    7
 C02
A    8
 O03
A    9
 C81
A   10
 C82
A   11
 C04
A   12
 C05
A   13
 C47
A   14
 C06
A   15
 N12
A   16
 O48
A   17
 C07
A   18
 C11
A   19
 C13
A   20
 C08
A   21
 C10
A   22
 C14
A   23
 C19
A   24
 C09
A   25
 C15
A   26
 C20
A   27
 F1 
A   28
 C16
A   29
 C84
A   30
 C21
A   31
 N17
A   32
 O18
A   33
 C83
A   34
 O22
A   35
 O23
A   36
 C50
A   37
 C53
M  END
>  <XChem_code>  (695) 
AG7§17

>  <Occupancy>  (695) 
[1.0, 1.0, 1.0, 1.0, 1.0, 1.0, 1.0, 1.0, 1.0, 1.0, 1.0, 1.0, 1.0, 1.0, 1.0, 1.0, 1.0, 1.0, 1.0, 1.0, 1.0, 1.0, 1.0, 1.0, 1.0, 1.0, 1.0, 1.0, 1.0, 1.0, 1.0, 1.0, 1.0, 1.0, 1.0, 1.0, 1.0, 1.0, 1.0, 1.0, 1.0, 1.0, 1.0]

>  <TempFactor>  (695) 
[11.58, 15.03, 11.83, 16.25, 16.92, 12.34, 10.54, 20.22, 18.19, 14.53, 16.52, 20.55, 23.87, 20.72, 31.66, 32.21, 24.48, 11.55, 13.92, 10.24, 11.44, 10.75, 11.87, 10.52, 48.42, 14.67, 18.9, 51.51, 20.99, 12.24, 12.71, 37.77, 32.69, 13.62, 12.02, 16.3, 16.59, 14.61, 20.42, 22.35, 13.24, 10.96, 27.55]

>  <accession>  (695) 
5WQ2_A

>  <description>  (695) 
Chain A, 3C protein [Enterovirus A71]

>  <evalue>  (695) 
1.45212e-58

>  <pdb_code>  (695) 
5WQ2

>  <chain>  (695) 
A

>  <ligands>  (695) 
[{'chain_id': 'A', 'author_residue_number': 301, 'author_insertion_code': '', 'chem_comp_id': 'AG7', 'alternate_conformers': 0, 'entity_id': 2, 'struct_asym_id': 'B', 'residue_number': 1, 'chem_comp_name': '4-{2-(4-FLUORO-BENZYL)-6-METHYL-5-[(5-METHYL-ISOXAZOLE-3-CARBONYL)-AMINO]-4-OXO-HEPTANOYLAMINO}-5-(2-OXO-PYRROLIDIN-3-YL)-PENTANOIC ACID ETHYL ESTER', 'weight': 600.678, 'carbohydrate_polymer': False, 'branch_name': ''}, {'chain_id': 'A', 'author_residue_number': 302, 'author_insertion_code': '', 'chem_comp_id': 'SO4', 'alternate_conformers': 0, 'entity_id': 3, 'struct_asym_id': 'C', 'residue_number': 1, 'chem_comp_name': 'SULFATE ION', 'weight': 96.063, 'carbohydrate_polymer': False, 'branch_name': ''}, {'chain_id': 'A', 'author_residue_number': 303, 'author_insertion_code': '', 'chem_comp_id': 'SO4', 'alternate_conformers': 0, 'entity_id': 3, 'struct_asym_id': 'D', 'residue_number': 1, 'chem_comp_name': 'SULFATE ION', 'weight': 96.063, 'carbohydrate_polymer': False, 'branch_name': ''}]

>  <ligand_codes>  (695) 
['AG7', 'SO4', 'SO4']

>  <cofactor_codes>  (695) 
[]

>  <has_cofactor>  (695) 
False

>  <covalent>  (695) 
False

>  <base_name>  (695) 
5WQ2

>  <lig_resn>  (695) 
AG7

>  <lig_resi>  (695) 
301

>  <lig_chain>  (695) 
A

>  <lig_segi>  (695) 
B

>  <lig_alt>  (695) 


>  <polymer_chain>  (695) 
A

>  <single_smiles>  (695) 
CCOC(=O)CC[C@H](C[C@@H]1CCNC1=O)NC(=O)[C@@H](CC(=O)[C@@H](NC(=O)c2cc(C)on2)C(C)C)Cc3ccc(F)cc3

$$$$
AG7P17S15
     RDKit          3D

 21 21  0  0  0  0  0  0  0  0999 V2000
   -9.9620   17.8080  -31.4350 C   0  0  0  0  0  0  0  0  0  0  0  0
   -8.9480   16.7880  -31.6380 N   0  0  0  0  0  0  0  0  0  0  0  0
  -10.3830   18.4720  -32.3140 O   0  0  0  0  0  0  0  0  0  0  0  0
   -8.3700   16.4870  -32.8980 C   0  0  2  0  0  0  0  0  0  0  0  0
   -8.8710   15.0620  -33.3170 C   0  0  0  0  0  0  0  0  0  0  0  0
   -6.8170   16.5120  -32.7400 C   0  0  0  0  0  0  0  0  0  0  0  0
   -9.1800   14.8060  -34.8540 C   0  0  0  0  0  0  0  0  0  0  0  0
   -9.0090   14.2040  -32.4740 O   0  0  0  0  0  0  0  0  0  0  0  0
   -6.0760   16.0060  -34.0310 C   0  0  0  0  0  0  0  0  0  0  0  0
   -6.4170   17.9840  -32.4950 C   0  0  0  0  0  0  0  0  0  0  0  0
   -9.5280   13.3240  -35.1010 C   0  0  2  0  0  0  0  0  0  0  0  0
   -8.3800   12.4380  -34.7380 C   0  0  0  0  0  0  0  0  0  0  0  0
   -9.8460   13.1390  -36.6190 C   0  0  0  0  0  0  0  0  0  0  0  0
   -7.2410   12.6640  -34.9600 O   0  0  0  0  0  0  0  0  0  0  0  0
  -11.3040   13.7480  -36.8430 C   0  0  0  0  0  0  0  0  0  0  0  0
  -11.4550   14.8980  -37.6180 C   0  0  0  0  0  0  0  0  0  0  0  0
  -12.4120   13.1420  -36.2450 C   0  0  0  0  0  0  0  0  0  0  0  0
  -12.7210   15.4360  -37.8160 C   0  0  0  0  0  0  0  0  0  0  0  0
  -13.6940   13.6900  -36.4410 C   0  0  0  0  0  0  0  0  0  0  0  0
  -13.8390   14.8280  -37.2230 C   0  0  0  0  0  0  0  0  0  0  0  0
  -15.0820   15.3630  -37.4180 F   0  0  0  0  0  0  0  0  0  0  0  0
  2  1  1  0
  1  3  2  0
  4  2  1  1
  5  4  1  0
  4  6  1  0
  5  7  1  0
  5  8  2  0
  6  9  1  0
  6 10  1  0
 11  7  1  6
 11 12  1  0
 11 13  1  0
 12 14  2  0
 13 15  1  0
 15 16  2  0
 15 17  1  0
 16 18  1  0
 19 17  2  0
 18 20  2  0
 20 19  1  0
 20 21  1  0
A    2
 N58
A    3
 O60
A    4
 C57
A    5
 C01
A    6
 C78
A    7
 C02
A    8
 O03
A    9
 C81
A   10
 C82
A   11
 C04
A   13
 C05
A   14
 O48
A   15
 C06
A   16
 C07
A   17
 C11
A   18
 C08
A   19
 C10
A   20
 C09
A   21
 F1 
M  END
>  <XChem_code>  (696) 
AG7§17

>  <Occupancy>  (696) 
[1.0, 1.0, 1.0, 1.0, 1.0, 1.0, 1.0, 1.0, 1.0, 1.0, 1.0, 1.0, 1.0, 1.0, 1.0, 1.0, 1.0, 1.0, 1.0, 1.0, 1.0, 1.0, 1.0, 1.0, 1.0, 1.0, 1.0, 1.0, 1.0, 1.0, 1.0, 1.0, 1.0, 1.0, 1.0, 1.0, 1.0, 1.0, 1.0, 1.0, 1.0, 1.0, 1.0]

>  <TempFactor>  (696) 
[11.58, 15.03, 11.83, 16.25, 16.92, 12.34, 10.54, 20.22, 18.19, 14.53, 16.52, 20.55, 23.87, 20.72, 31.66, 32.21, 24.48, 11.55, 13.92, 10.24, 11.44, 10.75, 11.87, 10.52, 48.42, 14.67, 18.9, 51.51, 20.99, 12.24, 12.71, 37.77, 32.69, 13.62, 12.02, 16.3, 16.59, 14.61, 20.42, 22.35, 13.24, 10.96, 27.55]

>  <accession>  (696) 
5WQ2_A

>  <description>  (696) 
Chain A, 3C protein [Enterovirus A71]

>  <evalue>  (696) 
1.45212e-58

>  <pdb_code>  (696) 
5WQ2

>  <chain>  (696) 
A

>  <ligands>  (696) 
[{'chain_id': 'A', 'author_residue_number': 301, 'author_insertion_code': '', 'chem_comp_id': 'AG7', 'alternate_conformers': 0, 'entity_id': 2, 'struct_asym_id': 'B', 'residue_number': 1, 'chem_comp_name': '4-{2-(4-FLUORO-BENZYL)-6-METHYL-5-[(5-METHYL-ISOXAZOLE-3-CARBONYL)-AMINO]-4-OXO-HEPTANOYLAMINO}-5-(2-OXO-PYRROLIDIN-3-YL)-PENTANOIC ACID ETHYL ESTER', 'weight': 600.678, 'carbohydrate_polymer': False, 'branch_name': ''}, {'chain_id': 'A', 'author_residue_number': 302, 'author_insertion_code': '', 'chem_comp_id': 'SO4', 'alternate_conformers': 0, 'entity_id': 3, 'struct_asym_id': 'C', 'residue_number': 1, 'chem_comp_name': 'SULFATE ION', 'weight': 96.063, 'carbohydrate_polymer': False, 'branch_name': ''}, {'chain_id': 'A', 'author_residue_number': 303, 'author_insertion_code': '', 'chem_comp_id': 'SO4', 'alternate_conformers': 0, 'entity_id': 3, 'struct_asym_id': 'D', 'residue_number': 1, 'chem_comp_name': 'SULFATE ION', 'weight': 96.063, 'carbohydrate_polymer': False, 'branch_name': ''}]

>  <ligand_codes>  (696) 
['AG7', 'SO4', 'SO4']

>  <cofactor_codes>  (696) 
[]

>  <has_cofactor>  (696) 
False

>  <covalent>  (696) 
False

>  <base_name>  (696) 
5WQ2

>  <lig_resn>  (696) 
AG7

>  <lig_resi>  (696) 
301

>  <lig_chain>  (696) 
A

>  <lig_segi>  (696) 
B

>  <lig_alt>  (696) 


>  <polymer_chain>  (696) 
A

>  <single_smiles>  (696) 
CCOC(=O)CC[C@H](C[C@@H]1CCNC1=O)NC(=O)[C@@H](CC(=O)[C@@H](NC(=O)c2cc(C)on2)C(C)C)Cc3ccc(F)cc3

$$$$
AG7P17S16
     RDKit          3D

 22 22  0  0  0  0  0  0  0  0999 V2000
   -9.9620   17.8080  -31.4350 C   0  0  0  0  0  0  0  0  0  0  0  0
   -8.9480   16.7880  -31.6380 N   0  0  0  0  0  0  0  0  0  0  0  0
  -10.3830   18.4720  -32.3140 O   0  0  0  0  0  0  0  0  0  0  0  0
   -8.3700   16.4870  -32.8980 C   0  0  2  0  0  0  0  0  0  0  0  0
   -8.8710   15.0620  -33.3170 C   0  0  0  0  0  0  0  0  0  0  0  0
   -6.8170   16.5120  -32.7400 C   0  0  0  0  0  0  0  0  0  0  0  0
   -9.1800   14.8060  -34.8540 C   0  0  0  0  0  0  0  0  0  0  0  0
   -9.0090   14.2040  -32.4740 O   0  0  0  0  0  0  0  0  0  0  0  0
   -6.0760   16.0060  -34.0310 C   0  0  0  0  0  0  0  0  0  0  0  0
   -6.4170   17.9840  -32.4950 C   0  0  0  0  0  0  0  0  0  0  0  0
   -9.5280   13.3240  -35.1010 C   0  0  2  0  0  0  0  0  0  0  0  0
   -8.3800   12.4380  -34.7380 C   0  0  0  0  0  0  0  0  0  0  0  0
   -9.8460   13.1390  -36.6190 C   0  0  0  0  0  0  0  0  0  0  0  0
   -8.6980   11.1750  -34.0820 N   0  0  0  0  0  0  0  0  0  0  0  0
   -7.2410   12.6640  -34.9600 O   0  0  0  0  0  0  0  0  0  0  0  0
  -11.3040   13.7480  -36.8430 C   0  0  0  0  0  0  0  0  0  0  0  0
  -11.4550   14.8980  -37.6180 C   0  0  0  0  0  0  0  0  0  0  0  0
  -12.4120   13.1420  -36.2450 C   0  0  0  0  0  0  0  0  0  0  0  0
  -12.7210   15.4360  -37.8160 C   0  0  0  0  0  0  0  0  0  0  0  0
  -13.6940   13.6900  -36.4410 C   0  0  0  0  0  0  0  0  0  0  0  0
  -13.8390   14.8280  -37.2230 C   0  0  0  0  0  0  0  0  0  0  0  0
  -15.0820   15.3630  -37.4180 F   0  0  0  0  0  0  0  0  0  0  0  0
  2  1  1  0
  1  3  2  0
  4  2  1  1
  5  4  1  0
  4  6  1  0
  5  7  1  0
  5  8  2  0
  6  9  1  0
  6 10  1  0
 11  7  1  6
 11 12  1  0
 11 13  1  0
 14 12  1  0
 12 15  2  0
 13 16  1  0
 16 17  2  0
 16 18  1  0
 17 19  1  0
 20 18  2  0
 19 21  2  0
 21 20  1  0
 21 22  1  0
A    2
 N58
A    3
 O60
A    4
 C57
A    5
 C01
A    6
 C78
A    7
 C02
A    8
 O03
A    9
 C81
A   10
 C82
A   11
 C04
A   12
 C47
A   13
 C05
A   15
 O48
A   16
 C06
A   17
 C07
A   18
 C11
A   19
 C08
A   20
 C10
A   21
 C09
A   22
 F1 
M  END
>  <XChem_code>  (697) 
AG7§17

>  <Occupancy>  (697) 
[1.0, 1.0, 1.0, 1.0, 1.0, 1.0, 1.0, 1.0, 1.0, 1.0, 1.0, 1.0, 1.0, 1.0, 1.0, 1.0, 1.0, 1.0, 1.0, 1.0, 1.0, 1.0, 1.0, 1.0, 1.0, 1.0, 1.0, 1.0, 1.0, 1.0, 1.0, 1.0, 1.0, 1.0, 1.0, 1.0, 1.0, 1.0, 1.0, 1.0, 1.0, 1.0, 1.0]

>  <TempFactor>  (697) 
[11.58, 15.03, 11.83, 16.25, 16.92, 12.34, 10.54, 20.22, 18.19, 14.53, 16.52, 20.55, 23.87, 20.72, 31.66, 32.21, 24.48, 11.55, 13.92, 10.24, 11.44, 10.75, 11.87, 10.52, 48.42, 14.67, 18.9, 51.51, 20.99, 12.24, 12.71, 37.77, 32.69, 13.62, 12.02, 16.3, 16.59, 14.61, 20.42, 22.35, 13.24, 10.96, 27.55]

>  <accession>  (697) 
5WQ2_A

>  <description>  (697) 
Chain A, 3C protein [Enterovirus A71]

>  <evalue>  (697) 
1.45212e-58

>  <pdb_code>  (697) 
5WQ2

>  <chain>  (697) 
A

>  <ligands>  (697) 
[{'chain_id': 'A', 'author_residue_number': 301, 'author_insertion_code': '', 'chem_comp_id': 'AG7', 'alternate_conformers': 0, 'entity_id': 2, 'struct_asym_id': 'B', 'residue_number': 1, 'chem_comp_name': '4-{2-(4-FLUORO-BENZYL)-6-METHYL-5-[(5-METHYL-ISOXAZOLE-3-CARBONYL)-AMINO]-4-OXO-HEPTANOYLAMINO}-5-(2-OXO-PYRROLIDIN-3-YL)-PENTANOIC ACID ETHYL ESTER', 'weight': 600.678, 'carbohydrate_polymer': False, 'branch_name': ''}, {'chain_id': 'A', 'author_residue_number': 302, 'author_insertion_code': '', 'chem_comp_id': 'SO4', 'alternate_conformers': 0, 'entity_id': 3, 'struct_asym_id': 'C', 'residue_number': 1, 'chem_comp_name': 'SULFATE ION', 'weight': 96.063, 'carbohydrate_polymer': False, 'branch_name': ''}, {'chain_id': 'A', 'author_residue_number': 303, 'author_insertion_code': '', 'chem_comp_id': 'SO4', 'alternate_conformers': 0, 'entity_id': 3, 'struct_asym_id': 'D', 'residue_number': 1, 'chem_comp_name': 'SULFATE ION', 'weight': 96.063, 'carbohydrate_polymer': False, 'branch_name': ''}]

>  <ligand_codes>  (697) 
['AG7', 'SO4', 'SO4']

>  <cofactor_codes>  (697) 
[]

>  <has_cofactor>  (697) 
False

>  <covalent>  (697) 
False

>  <base_name>  (697) 
5WQ2

>  <lig_resn>  (697) 
AG7

>  <lig_resi>  (697) 
301

>  <lig_chain>  (697) 
A

>  <lig_segi>  (697) 
B

>  <lig_alt>  (697) 


>  <polymer_chain>  (697) 
A

>  <single_smiles>  (697) 
CCOC(=O)CC[C@H](C[C@@H]1CCNC1=O)NC(=O)[C@@H](CC(=O)[C@@H](NC(=O)c2cc(C)on2)C(C)C)Cc3ccc(F)cc3

$$$$
AG7P17S17
     RDKit          3D

  6  6  0  0  0  0  0  0  0  0999 V2000
   -7.0980   11.3050  -31.5740 C   0  0  0  0  0  0  0  0  0  0  0  0
   -7.0220   11.0820  -29.9910 C   0  0  0  0  0  0  0  0  0  0  0  0
   -5.8430   11.7240  -31.9670 C   0  0  0  0  0  0  0  0  0  0  0  0
   -6.0040   11.8390  -29.5420 N   0  0  0  0  0  0  0  0  0  0  0  0
   -7.7390   10.4090  -29.3110 O   0  0  0  0  0  0  0  0  0  0  0  0
   -5.3380   12.5590  -30.7110 C   0  0  0  0  0  0  0  0  0  0  0  0
  1  2  1  0
  1  3  1  1
  2  4  1  0
  2  5  2  0
  6  3  1  0
  4  6  1  0
A    2
 C16
A    3
 C84
A    4
 N17
A    5
 O18
A    6
 C83
M  END
>  <XChem_code>  (698) 
AG7§17

>  <Occupancy>  (698) 
[1.0, 1.0, 1.0, 1.0, 1.0, 1.0, 1.0, 1.0, 1.0, 1.0, 1.0, 1.0, 1.0, 1.0, 1.0, 1.0, 1.0, 1.0, 1.0, 1.0, 1.0, 1.0, 1.0, 1.0, 1.0, 1.0, 1.0, 1.0, 1.0, 1.0, 1.0, 1.0, 1.0, 1.0, 1.0, 1.0, 1.0, 1.0, 1.0, 1.0, 1.0, 1.0, 1.0]

>  <TempFactor>  (698) 
[11.58, 15.03, 11.83, 16.25, 16.92, 12.34, 10.54, 20.22, 18.19, 14.53, 16.52, 20.55, 23.87, 20.72, 31.66, 32.21, 24.48, 11.55, 13.92, 10.24, 11.44, 10.75, 11.87, 10.52, 48.42, 14.67, 18.9, 51.51, 20.99, 12.24, 12.71, 37.77, 32.69, 13.62, 12.02, 16.3, 16.59, 14.61, 20.42, 22.35, 13.24, 10.96, 27.55]

>  <accession>  (698) 
5WQ2_A

>  <description>  (698) 
Chain A, 3C protein [Enterovirus A71]

>  <evalue>  (698) 
1.45212e-58

>  <pdb_code>  (698) 
5WQ2

>  <chain>  (698) 
A

>  <ligands>  (698) 
[{'chain_id': 'A', 'author_residue_number': 301, 'author_insertion_code': '', 'chem_comp_id': 'AG7', 'alternate_conformers': 0, 'entity_id': 2, 'struct_asym_id': 'B', 'residue_number': 1, 'chem_comp_name': '4-{2-(4-FLUORO-BENZYL)-6-METHYL-5-[(5-METHYL-ISOXAZOLE-3-CARBONYL)-AMINO]-4-OXO-HEPTANOYLAMINO}-5-(2-OXO-PYRROLIDIN-3-YL)-PENTANOIC ACID ETHYL ESTER', 'weight': 600.678, 'carbohydrate_polymer': False, 'branch_name': ''}, {'chain_id': 'A', 'author_residue_number': 302, 'author_insertion_code': '', 'chem_comp_id': 'SO4', 'alternate_conformers': 0, 'entity_id': 3, 'struct_asym_id': 'C', 'residue_number': 1, 'chem_comp_name': 'SULFATE ION', 'weight': 96.063, 'carbohydrate_polymer': False, 'branch_name': ''}, {'chain_id': 'A', 'author_residue_number': 303, 'author_insertion_code': '', 'chem_comp_id': 'SO4', 'alternate_conformers': 0, 'entity_id': 3, 'struct_asym_id': 'D', 'residue_number': 1, 'chem_comp_name': 'SULFATE ION', 'weight': 96.063, 'carbohydrate_polymer': False, 'branch_name': ''}]

>  <ligand_codes>  (698) 
['AG7', 'SO4', 'SO4']

>  <cofactor_codes>  (698) 
[]

>  <has_cofactor>  (698) 
False

>  <covalent>  (698) 
False

>  <base_name>  (698) 
5WQ2

>  <lig_resn>  (698) 
AG7

>  <lig_resi>  (698) 
301

>  <lig_chain>  (698) 
A

>  <lig_segi>  (698) 
B

>  <lig_alt>  (698) 


>  <polymer_chain>  (698) 
A

>  <single_smiles>  (698) 
CCOC(=O)CC[C@H](C[C@@H]1CCNC1=O)NC(=O)[C@@H](CC(=O)[C@@H](NC(=O)c2cc(C)on2)C(C)C)Cc3ccc(F)cc3

$$$$
AG7P17S18
     RDKit          3D

 37 38  0  0  0  0  0  0  0  0999 V2000
   -7.5780   10.0070  -32.2880 C   0  0  0  0  0  0  0  0  0  0  0  0
   -7.4890   10.4020  -33.7670 C   0  0  2  0  0  0  0  0  0  0  0  0
   -8.6980   11.1750  -34.0820 N   0  0  0  0  0  0  0  0  0  0  0  0
   -7.1530    9.1720  -34.5770 C   0  0  0  0  0  0  0  0  0  0  0  0
   -8.3800   12.4380  -34.7380 C   0  0  0  0  0  0  0  0  0  0  0  0
   -7.7220    9.1500  -35.9970 C   0  0  0  0  0  0  0  0  0  0  0  0
   -9.5280   13.3240  -35.1010 C   0  0  1  0  0  0  0  0  0  0  0  0
   -7.2410   12.6640  -34.9600 O   0  0  0  0  0  0  0  0  0  0  0  0
   -6.3220    9.0870  -36.5370 C   0  0  0  0  0  0  0  0  0  0  0  0
   -9.1800   14.8060  -34.8540 C   0  0  0  0  0  0  0  0  0  0  0  0
   -9.8460   13.1390  -36.6190 C   0  0  0  0  0  0  0  0  0  0  0  0
   -5.9840    9.6800  -37.7630 O   0  0  0  0  0  0  0  0  0  0  0  0
   -5.5050    8.5250  -35.8520 O   0  0  0  0  0  0  0  0  0  0  0  0
   -8.8710   15.0620  -33.3170 C   0  0  0  0  0  0  0  0  0  0  0  0
  -11.3040   13.7480  -36.8430 C   0  0  0  0  0  0  0  0  0  0  0  0
   -5.1310    8.8390  -38.5240 C   0  0  0  0  0  0  0  0  0  0  0  0
   -9.0090   14.2040  -32.4740 O   0  0  0  0  0  0  0  0  0  0  0  0
   -8.3700   16.4870  -32.8980 C   0  0  1  0  0  0  0  0  0  0  0  0
  -11.4550   14.8980  -37.6180 C   0  0  0  0  0  0  0  0  0  0  0  0
  -12.4120   13.1420  -36.2450 C   0  0  0  0  0  0  0  0  0  0  0  0
   -5.9360    8.4070  -39.7210 C   0  0  0  0  0  0  0  0  0  0  0  0
   -8.9480   16.7880  -31.6380 N   0  0  0  0  0  0  0  0  0  0  0  0
   -6.8170   16.5120  -32.7400 C   0  0  0  0  0  0  0  0  0  0  0  0
  -12.7210   15.4360  -37.8160 C   0  0  0  0  0  0  0  0  0  0  0  0
  -13.6940   13.6900  -36.4410 C   0  0  0  0  0  0  0  0  0  0  0  0
   -9.9620   17.8080  -31.4350 C   0  0  0  0  0  0  0  0  0  0  0  0
   -6.0760   16.0060  -34.0310 C   0  0  0  0  0  0  0  0  0  0  0  0
   -6.4170   17.9840  -32.4950 C   0  0  0  0  0  0  0  0  0  0  0  0
  -13.8390   14.8280  -37.2230 C   0  0  0  0  0  0  0  0  0  0  0  0
  -10.4440   17.9550  -29.9640 C   0  0  0  0  0  0  0  0  0  0  0  0
  -10.3830   18.4720  -32.3140 O   0  0  0  0  0  0  0  0  0  0  0  0
  -15.0820   15.3630  -37.4180 F   0  0  0  0  0  0  0  0  0  0  0  0
  -11.4110   18.8030  -29.4810 C   0  0  0  0  0  0  0  0  0  0  0  0
   -9.9470   17.2590  -28.9530 N   0  0  0  0  0  0  0  0  0  0  0  0
  -11.4910   18.5900  -28.1400 C   0  0  0  0  0  0  0  0  0  0  0  0
  -10.5980   17.6430  -27.8020 O   0  0  0  0  0  0  0  0  0  0  0  0
  -12.4230   19.2880  -27.1820 C   0  0  0  0  0  0  0  0  0  0  0  0
  2  1  1  1
  3  2  1  0
  2  4  1  0
  3  5  1  0
  4  6  1  0
  7  5  1  0
  5  8  2  0
  6  9  1  0
  7 10  1  6
  7 11  1  0
  9 12  1  0
  9 13  2  0
 14 10  1  0
 11 15  1  0
 12 16  1  0
 14 17  2  0
 14 18  1  0
 15 19  2  0
 15 20  1  0
 16 21  1  0
 18 22  1  1
 18 23  1  0
 19 24  1  0
 25 20  2  0
 22 26  1  0
 23 27  1  0
 23 28  1  0
 24 29  2  0
 29 25  1  0
 30 26  1  0
 26 31  2  0
 29 32  1  0
 30 33  1  0
 30 34  2  0
 33 35  2  0
 36 34  1  0
 35 37  1  0
 35 36  1  0
A    2
 C13
A    3
 N12
A    4
 C19
A    5
 C47
A    6
 C20
A    7
 C04
A    8
 O48
A    9
 C21
A   10
 C02
A   11
 C05
A   12
 O22
A   13
 O23
A   14
 C01
A   15
 C06
A   16
 C50
A   17
 O03
A   18
 C57
A   19
 C07
A   20
 C11
A   21
 C53
A   22
 N58
A   23
 C78
A   24
 C08
A   25
 C10
A   26
 C59
A   27
 C81
A   28
 C82
A   29
 C09
A   30
 C1 
A   31
 O60
A   32
 F1 
A   33
 C2 
A   34
 N5 
A   35
 C3 
A   36
 O4 
A   37
 C4 
M  END
>  <XChem_code>  (699) 
AG7§17

>  <Occupancy>  (699) 
[1.0, 1.0, 1.0, 1.0, 1.0, 1.0, 1.0, 1.0, 1.0, 1.0, 1.0, 1.0, 1.0, 1.0, 1.0, 1.0, 1.0, 1.0, 1.0, 1.0, 1.0, 1.0, 1.0, 1.0, 1.0, 1.0, 1.0, 1.0, 1.0, 1.0, 1.0, 1.0, 1.0, 1.0, 1.0, 1.0, 1.0, 1.0, 1.0, 1.0, 1.0, 1.0, 1.0]

>  <TempFactor>  (699) 
[11.58, 15.03, 11.83, 16.25, 16.92, 12.34, 10.54, 20.22, 18.19, 14.53, 16.52, 20.55, 23.87, 20.72, 31.66, 32.21, 24.48, 11.55, 13.92, 10.24, 11.44, 10.75, 11.87, 10.52, 48.42, 14.67, 18.9, 51.51, 20.99, 12.24, 12.71, 37.77, 32.69, 13.62, 12.02, 16.3, 16.59, 14.61, 20.42, 22.35, 13.24, 10.96, 27.55]

>  <accession>  (699) 
5WQ2_A

>  <description>  (699) 
Chain A, 3C protein [Enterovirus A71]

>  <evalue>  (699) 
1.45212e-58

>  <pdb_code>  (699) 
5WQ2

>  <chain>  (699) 
A

>  <ligands>  (699) 
[{'chain_id': 'A', 'author_residue_number': 301, 'author_insertion_code': '', 'chem_comp_id': 'AG7', 'alternate_conformers': 0, 'entity_id': 2, 'struct_asym_id': 'B', 'residue_number': 1, 'chem_comp_name': '4-{2-(4-FLUORO-BENZYL)-6-METHYL-5-[(5-METHYL-ISOXAZOLE-3-CARBONYL)-AMINO]-4-OXO-HEPTANOYLAMINO}-5-(2-OXO-PYRROLIDIN-3-YL)-PENTANOIC ACID ETHYL ESTER', 'weight': 600.678, 'carbohydrate_polymer': False, 'branch_name': ''}, {'chain_id': 'A', 'author_residue_number': 302, 'author_insertion_code': '', 'chem_comp_id': 'SO4', 'alternate_conformers': 0, 'entity_id': 3, 'struct_asym_id': 'C', 'residue_number': 1, 'chem_comp_name': 'SULFATE ION', 'weight': 96.063, 'carbohydrate_polymer': False, 'branch_name': ''}, {'chain_id': 'A', 'author_residue_number': 303, 'author_insertion_code': '', 'chem_comp_id': 'SO4', 'alternate_conformers': 0, 'entity_id': 3, 'struct_asym_id': 'D', 'residue_number': 1, 'chem_comp_name': 'SULFATE ION', 'weight': 96.063, 'carbohydrate_polymer': False, 'branch_name': ''}]

>  <ligand_codes>  (699) 
['AG7', 'SO4', 'SO4']

>  <cofactor_codes>  (699) 
[]

>  <has_cofactor>  (699) 
False

>  <covalent>  (699) 
False

>  <base_name>  (699) 
5WQ2

>  <lig_resn>  (699) 
AG7

>  <lig_resi>  (699) 
301

>  <lig_chain>  (699) 
A

>  <lig_segi>  (699) 
B

>  <lig_alt>  (699) 


>  <polymer_chain>  (699) 
A

>  <single_smiles>  (699) 
CCOC(=O)CC[C@H](C[C@@H]1CCNC1=O)NC(=O)[C@@H](CC(=O)[C@@H](NC(=O)c2cc(C)on2)C(C)C)Cc3ccc(F)cc3

$$$$
AG7P17S19
     RDKit          3D

  7  7  0  0  0  0  0  0  0  0999 V2000
  -11.3040   13.7480  -36.8430 C   0  0  0  0  0  0  0  0  0  0  0  0
  -11.4550   14.8980  -37.6180 C   0  0  0  0  0  0  0  0  0  0  0  0
  -12.4120   13.1420  -36.2450 C   0  0  0  0  0  0  0  0  0  0  0  0
  -12.7210   15.4360  -37.8160 C   0  0  0  0  0  0  0  0  0  0  0  0
  -13.6940   13.6900  -36.4410 C   0  0  0  0  0  0  0  0  0  0  0  0
  -13.8390   14.8280  -37.2230 C   0  0  0  0  0  0  0  0  0  0  0  0
  -15.0820   15.3630  -37.4180 F   0  0  0  0  0  0  0  0  0  0  0  0
  1  2  2  0
  1  3  1  0
  2  4  1  0
  5  3  2  0
  4  6  2  0
  6  5  1  0
  6  7  1  0
A    2
 C07
A    3
 C11
A    4
 C08
A    5
 C10
A    6
 C09
A    7
 F1 
M  END
>  <XChem_code>  (700) 
AG7§17

>  <Occupancy>  (700) 
[1.0, 1.0, 1.0, 1.0, 1.0, 1.0, 1.0, 1.0, 1.0, 1.0, 1.0, 1.0, 1.0, 1.0, 1.0, 1.0, 1.0, 1.0, 1.0, 1.0, 1.0, 1.0, 1.0, 1.0, 1.0, 1.0, 1.0, 1.0, 1.0, 1.0, 1.0, 1.0, 1.0, 1.0, 1.0, 1.0, 1.0, 1.0, 1.0, 1.0, 1.0, 1.0, 1.0]

>  <TempFactor>  (700) 
[11.58, 15.03, 11.83, 16.25, 16.92, 12.34, 10.54, 20.22, 18.19, 14.53, 16.52, 20.55, 23.87, 20.72, 31.66, 32.21, 24.48, 11.55, 13.92, 10.24, 11.44, 10.75, 11.87, 10.52, 48.42, 14.67, 18.9, 51.51, 20.99, 12.24, 12.71, 37.77, 32.69, 13.62, 12.02, 16.3, 16.59, 14.61, 20.42, 22.35, 13.24, 10.96, 27.55]

>  <accession>  (700) 
5WQ2_A

>  <description>  (700) 
Chain A, 3C protein [Enterovirus A71]

>  <evalue>  (700) 
1.45212e-58

>  <pdb_code>  (700) 
5WQ2

>  <chain>  (700) 
A

>  <ligands>  (700) 
[{'chain_id': 'A', 'author_residue_number': 301, 'author_insertion_code': '', 'chem_comp_id': 'AG7', 'alternate_conformers': 0, 'entity_id': 2, 'struct_asym_id': 'B', 'residue_number': 1, 'chem_comp_name': '4-{2-(4-FLUORO-BENZYL)-6-METHYL-5-[(5-METHYL-ISOXAZOLE-3-CARBONYL)-AMINO]-4-OXO-HEPTANOYLAMINO}-5-(2-OXO-PYRROLIDIN-3-YL)-PENTANOIC ACID ETHYL ESTER', 'weight': 600.678, 'carbohydrate_polymer': False, 'branch_name': ''}, {'chain_id': 'A', 'author_residue_number': 302, 'author_insertion_code': '', 'chem_comp_id': 'SO4', 'alternate_conformers': 0, 'entity_id': 3, 'struct_asym_id': 'C', 'residue_number': 1, 'chem_comp_name': 'SULFATE ION', 'weight': 96.063, 'carbohydrate_polymer': False, 'branch_name': ''}, {'chain_id': 'A', 'author_residue_number': 303, 'author_insertion_code': '', 'chem_comp_id': 'SO4', 'alternate_conformers': 0, 'entity_id': 3, 'struct_asym_id': 'D', 'residue_number': 1, 'chem_comp_name': 'SULFATE ION', 'weight': 96.063, 'carbohydrate_polymer': False, 'branch_name': ''}]

>  <ligand_codes>  (700) 
['AG7', 'SO4', 'SO4']

>  <cofactor_codes>  (700) 
[]

>  <has_cofactor>  (700) 
False

>  <covalent>  (700) 
False

>  <base_name>  (700) 
5WQ2

>  <lig_resn>  (700) 
AG7

>  <lig_resi>  (700) 
301

>  <lig_chain>  (700) 
A

>  <lig_segi>  (700) 
B

>  <lig_alt>  (700) 


>  <polymer_chain>  (700) 
A

>  <single_smiles>  (700) 
CCOC(=O)CC[C@H](C[C@@H]1CCNC1=O)NC(=O)[C@@H](CC(=O)[C@@H](NC(=O)c2cc(C)on2)C(C)C)Cc3ccc(F)cc3

$$$$
AG7P17S20
     RDKit          3D

 36 37  0  0  0  0  0  0  0  0999 V2000
   -9.8460   13.1390  -36.6190 C   0  0  0  0  0  0  0  0  0  0  0  0
   -9.5280   13.3240  -35.1010 C   0  0  2  0  0  0  0  0  0  0  0  0
   -9.1800   14.8060  -34.8540 C   0  0  0  0  0  0  0  0  0  0  0  0
   -8.3800   12.4380  -34.7380 C   0  0  0  0  0  0  0  0  0  0  0  0
   -8.8710   15.0620  -33.3170 C   0  0  0  0  0  0  0  0  0  0  0  0
   -8.6980   11.1750  -34.0820 N   0  0  0  0  0  0  0  0  0  0  0  0
   -7.2410   12.6640  -34.9600 O   0  0  0  0  0  0  0  0  0  0  0  0
   -9.0090   14.2040  -32.4740 O   0  0  0  0  0  0  0  0  0  0  0  0
   -8.3700   16.4870  -32.8980 C   0  0  1  0  0  0  0  0  0  0  0  0
   -7.4890   10.4020  -33.7670 C   0  0  1  0  0  0  0  0  0  0  0  0
   -8.9480   16.7880  -31.6380 N   0  0  0  0  0  0  0  0  0  0  0  0
   -6.8170   16.5120  -32.7400 C   0  0  0  0  0  0  0  0  0  0  0  0
   -7.5780   10.0070  -32.2880 C   0  0  0  0  0  0  0  0  0  0  0  0
   -7.1530    9.1720  -34.5770 C   0  0  0  0  0  0  0  0  0  0  0  0
   -9.9620   17.8080  -31.4350 C   0  0  0  0  0  0  0  0  0  0  0  0
   -6.0760   16.0060  -34.0310 C   0  0  0  0  0  0  0  0  0  0  0  0
   -6.4170   17.9840  -32.4950 C   0  0  0  0  0  0  0  0  0  0  0  0
   -7.0980   11.3050  -31.5740 C   0  0  1  0  0  0  0  0  0  0  0  0
   -7.7220    9.1500  -35.9970 C   0  0  0  0  0  0  0  0  0  0  0  0
  -10.4440   17.9550  -29.9640 C   0  0  0  0  0  0  0  0  0  0  0  0
  -10.3830   18.4720  -32.3140 O   0  0  0  0  0  0  0  0  0  0  0  0
   -7.0220   11.0820  -29.9910 C   0  0  0  0  0  0  0  0  0  0  0  0
   -5.8430   11.7240  -31.9670 C   0  0  0  0  0  0  0  0  0  0  0  0
   -6.3220    9.0870  -36.5370 C   0  0  0  0  0  0  0  0  0  0  0  0
  -11.4110   18.8030  -29.4810 C   0  0  0  0  0  0  0  0  0  0  0  0
   -9.9470   17.2590  -28.9530 N   0  0  0  0  0  0  0  0  0  0  0  0
   -6.0040   11.8390  -29.5420 N   0  0  0  0  0  0  0  0  0  0  0  0
   -7.7390   10.4090  -29.3110 O   0  0  0  0  0  0  0  0  0  0  0  0
   -5.3380   12.5590  -30.7110 C   0  0  0  0  0  0  0  0  0  0  0  0
   -5.9840    9.6800  -37.7630 O   0  0  0  0  0  0  0  0  0  0  0  0
   -5.5050    8.5250  -35.8520 O   0  0  0  0  0  0  0  0  0  0  0  0
  -11.4910   18.5900  -28.1400 C   0  0  0  0  0  0  0  0  0  0  0  0
  -10.5980   17.6430  -27.8020 O   0  0  0  0  0  0  0  0  0  0  0  0
   -5.1310    8.8390  -38.5240 C   0  0  0  0  0  0  0  0  0  0  0  0
  -12.4230   19.2880  -27.1820 C   0  0  0  0  0  0  0  0  0  0  0  0
   -5.9360    8.4070  -39.7210 C   0  0  0  0  0  0  0  0  0  0  0  0
  2  1  1  6
  2  3  1  0
  2  4  1  0
  5  3  1  0
  6  4  1  0
  4  7  2  0
  5  8  2  0
  5  9  1  0
  6 10  1  0
  9 11  1  1
  9 12  1  0
 10 13  1  1
 10 14  1  0
 11 15  1  0
 12 16  1  0
 12 17  1  0
 18 13  1  6
 14 19  1  0
 20 15  1  0
 15 21  2  0
 18 22  1  0
 18 23  1  0
 19 24  1  0
 20 25  1  0
 20 26  2  0
 22 27  1  0
 22 28  2  0
 29 23  1  0
 24 30  1  0
 24 31  2  0
 25 32  2  0
 33 26  1  0
 27 29  1  0
 30 34  1  0
 32 35  1  0
 32 33  1  0
 34 36  1  0
A    2
 C04
A    3
 C02
A    4
 C47
A    5
 C01
A    6
 N12
A    7
 O48
A    8
 O03
A    9
 C57
A   10
 C13
A   11
 N58
A   12
 C78
A   13
 C14
A   14
 C19
A   15
 C59
A   16
 C81
A   17
 C82
A   18
 C15
A   19
 C20
A   20
 C1 
A   21
 O60
A   22
 C16
A   23
 C84
A   24
 C21
A   25
 C2 
A   26
 N5 
A   27
 N17
A   28
 O18
A   29
 C83
A   30
 O22
A   31
 O23
A   32
 C3 
A   33
 O4 
A   34
 C50
A   35
 C4 
A   36
 C53
M  END
>  <XChem_code>  (701) 
AG7§17

>  <Occupancy>  (701) 
[1.0, 1.0, 1.0, 1.0, 1.0, 1.0, 1.0, 1.0, 1.0, 1.0, 1.0, 1.0, 1.0, 1.0, 1.0, 1.0, 1.0, 1.0, 1.0, 1.0, 1.0, 1.0, 1.0, 1.0, 1.0, 1.0, 1.0, 1.0, 1.0, 1.0, 1.0, 1.0, 1.0, 1.0, 1.0, 1.0, 1.0, 1.0, 1.0, 1.0, 1.0, 1.0, 1.0]

>  <TempFactor>  (701) 
[11.58, 15.03, 11.83, 16.25, 16.92, 12.34, 10.54, 20.22, 18.19, 14.53, 16.52, 20.55, 23.87, 20.72, 31.66, 32.21, 24.48, 11.55, 13.92, 10.24, 11.44, 10.75, 11.87, 10.52, 48.42, 14.67, 18.9, 51.51, 20.99, 12.24, 12.71, 37.77, 32.69, 13.62, 12.02, 16.3, 16.59, 14.61, 20.42, 22.35, 13.24, 10.96, 27.55]

>  <accession>  (701) 
5WQ2_A

>  <description>  (701) 
Chain A, 3C protein [Enterovirus A71]

>  <evalue>  (701) 
1.45212e-58

>  <pdb_code>  (701) 
5WQ2

>  <chain>  (701) 
A

>  <ligands>  (701) 
[{'chain_id': 'A', 'author_residue_number': 301, 'author_insertion_code': '', 'chem_comp_id': 'AG7', 'alternate_conformers': 0, 'entity_id': 2, 'struct_asym_id': 'B', 'residue_number': 1, 'chem_comp_name': '4-{2-(4-FLUORO-BENZYL)-6-METHYL-5-[(5-METHYL-ISOXAZOLE-3-CARBONYL)-AMINO]-4-OXO-HEPTANOYLAMINO}-5-(2-OXO-PYRROLIDIN-3-YL)-PENTANOIC ACID ETHYL ESTER', 'weight': 600.678, 'carbohydrate_polymer': False, 'branch_name': ''}, {'chain_id': 'A', 'author_residue_number': 302, 'author_insertion_code': '', 'chem_comp_id': 'SO4', 'alternate_conformers': 0, 'entity_id': 3, 'struct_asym_id': 'C', 'residue_number': 1, 'chem_comp_name': 'SULFATE ION', 'weight': 96.063, 'carbohydrate_polymer': False, 'branch_name': ''}, {'chain_id': 'A', 'author_residue_number': 303, 'author_insertion_code': '', 'chem_comp_id': 'SO4', 'alternate_conformers': 0, 'entity_id': 3, 'struct_asym_id': 'D', 'residue_number': 1, 'chem_comp_name': 'SULFATE ION', 'weight': 96.063, 'carbohydrate_polymer': False, 'branch_name': ''}]

>  <ligand_codes>  (701) 
['AG7', 'SO4', 'SO4']

>  <cofactor_codes>  (701) 
[]

>  <has_cofactor>  (701) 
False

>  <covalent>  (701) 
False

>  <base_name>  (701) 
5WQ2

>  <lig_resn>  (701) 
AG7

>  <lig_resi>  (701) 
301

>  <lig_chain>  (701) 
A

>  <lig_segi>  (701) 
B

>  <lig_alt>  (701) 


>  <polymer_chain>  (701) 
A

>  <single_smiles>  (701) 
CCOC(=O)CC[C@H](C[C@@H]1CCNC1=O)NC(=O)[C@@H](CC(=O)[C@@H](NC(=O)c2cc(C)on2)C(C)C)Cc3ccc(F)cc3

$$$$
AG7P17S21
     RDKit          3D

 10  9  0  0  0  0  0  0  0  0999 V2000
   -7.5780   10.0070  -32.2880 C   0  0  0  0  0  0  0  0  0  0  0  0
   -7.4890   10.4020  -33.7670 C   0  0  2  0  0  0  0  0  0  0  0  0
   -8.6980   11.1750  -34.0820 N   0  0  0  0  0  0  0  0  0  0  0  0
   -7.1530    9.1720  -34.5770 C   0  0  0  0  0  0  0  0  0  0  0  0
   -7.7220    9.1500  -35.9970 C   0  0  0  0  0  0  0  0  0  0  0  0
   -6.3220    9.0870  -36.5370 C   0  0  0  0  0  0  0  0  0  0  0  0
   -5.9840    9.6800  -37.7630 O   0  0  0  0  0  0  0  0  0  0  0  0
   -5.5050    8.5250  -35.8520 O   0  0  0  0  0  0  0  0  0  0  0  0
   -5.1310    8.8390  -38.5240 C   0  0  0  0  0  0  0  0  0  0  0  0
   -5.9360    8.4070  -39.7210 C   0  0  0  0  0  0  0  0  0  0  0  0
  2  1  1  1
  3  2  1  0
  2  4  1  0
  4  5  1  0
  5  6  1  0
  6  7  1  0
  6  8  2  0
  7  9  1  0
  9 10  1  0
A    2
 C13
A    4
 C19
A    5
 C20
A    6
 C21
A    7
 O22
A    8
 O23
A    9
 C50
A   10
 C53
M  END
>  <XChem_code>  (702) 
AG7§17

>  <Occupancy>  (702) 
[1.0, 1.0, 1.0, 1.0, 1.0, 1.0, 1.0, 1.0, 1.0, 1.0, 1.0, 1.0, 1.0, 1.0, 1.0, 1.0, 1.0, 1.0, 1.0, 1.0, 1.0, 1.0, 1.0, 1.0, 1.0, 1.0, 1.0, 1.0, 1.0, 1.0, 1.0, 1.0, 1.0, 1.0, 1.0, 1.0, 1.0, 1.0, 1.0, 1.0, 1.0, 1.0, 1.0]

>  <TempFactor>  (702) 
[11.58, 15.03, 11.83, 16.25, 16.92, 12.34, 10.54, 20.22, 18.19, 14.53, 16.52, 20.55, 23.87, 20.72, 31.66, 32.21, 24.48, 11.55, 13.92, 10.24, 11.44, 10.75, 11.87, 10.52, 48.42, 14.67, 18.9, 51.51, 20.99, 12.24, 12.71, 37.77, 32.69, 13.62, 12.02, 16.3, 16.59, 14.61, 20.42, 22.35, 13.24, 10.96, 27.55]

>  <accession>  (702) 
5WQ2_A

>  <description>  (702) 
Chain A, 3C protein [Enterovirus A71]

>  <evalue>  (702) 
1.45212e-58

>  <pdb_code>  (702) 
5WQ2

>  <chain>  (702) 
A

>  <ligands>  (702) 
[{'chain_id': 'A', 'author_residue_number': 301, 'author_insertion_code': '', 'chem_comp_id': 'AG7', 'alternate_conformers': 0, 'entity_id': 2, 'struct_asym_id': 'B', 'residue_number': 1, 'chem_comp_name': '4-{2-(4-FLUORO-BENZYL)-6-METHYL-5-[(5-METHYL-ISOXAZOLE-3-CARBONYL)-AMINO]-4-OXO-HEPTANOYLAMINO}-5-(2-OXO-PYRROLIDIN-3-YL)-PENTANOIC ACID ETHYL ESTER', 'weight': 600.678, 'carbohydrate_polymer': False, 'branch_name': ''}, {'chain_id': 'A', 'author_residue_number': 302, 'author_insertion_code': '', 'chem_comp_id': 'SO4', 'alternate_conformers': 0, 'entity_id': 3, 'struct_asym_id': 'C', 'residue_number': 1, 'chem_comp_name': 'SULFATE ION', 'weight': 96.063, 'carbohydrate_polymer': False, 'branch_name': ''}, {'chain_id': 'A', 'author_residue_number': 303, 'author_insertion_code': '', 'chem_comp_id': 'SO4', 'alternate_conformers': 0, 'entity_id': 3, 'struct_asym_id': 'D', 'residue_number': 1, 'chem_comp_name': 'SULFATE ION', 'weight': 96.063, 'carbohydrate_polymer': False, 'branch_name': ''}]

>  <ligand_codes>  (702) 
['AG7', 'SO4', 'SO4']

>  <cofactor_codes>  (702) 
[]

>  <has_cofactor>  (702) 
False

>  <covalent>  (702) 
False

>  <base_name>  (702) 
5WQ2

>  <lig_resn>  (702) 
AG7

>  <lig_resi>  (702) 
301

>  <lig_chain>  (702) 
A

>  <lig_segi>  (702) 
B

>  <lig_alt>  (702) 


>  <polymer_chain>  (702) 
A

>  <single_smiles>  (702) 
CCOC(=O)CC[C@H](C[C@@H]1CCNC1=O)NC(=O)[C@@H](CC(=O)[C@@H](NC(=O)c2cc(C)on2)C(C)C)Cc3ccc(F)cc3

$$$$
AG7P17S22
     RDKit          3D

 20 20  0  0  0  0  0  0  0  0999 V2000
   -9.8460   13.1390  -36.6190 C   0  0  0  0  0  0  0  0  0  0  0  0
   -9.5280   13.3240  -35.1010 C   0  0  1  0  0  0  0  0  0  0  0  0
   -8.3800   12.4380  -34.7380 C   0  0  0  0  0  0  0  0  0  0  0  0
   -9.1800   14.8060  -34.8540 C   0  0  0  0  0  0  0  0  0  0  0  0
   -7.2410   12.6640  -34.9600 O   0  0  0  0  0  0  0  0  0  0  0  0
   -8.8710   15.0620  -33.3170 C   0  0  0  0  0  0  0  0  0  0  0  0
   -9.0090   14.2040  -32.4740 O   0  0  0  0  0  0  0  0  0  0  0  0
   -8.3700   16.4870  -32.8980 C   0  0  1  0  0  0  0  0  0  0  0  0
   -8.9480   16.7880  -31.6380 N   0  0  0  0  0  0  0  0  0  0  0  0
   -6.8170   16.5120  -32.7400 C   0  0  0  0  0  0  0  0  0  0  0  0
   -9.9620   17.8080  -31.4350 C   0  0  0  0  0  0  0  0  0  0  0  0
   -6.0760   16.0060  -34.0310 C   0  0  0  0  0  0  0  0  0  0  0  0
   -6.4170   17.9840  -32.4950 C   0  0  0  0  0  0  0  0  0  0  0  0
  -10.4440   17.9550  -29.9640 C   0  0  0  0  0  0  0  0  0  0  0  0
  -10.3830   18.4720  -32.3140 O   0  0  0  0  0  0  0  0  0  0  0  0
  -11.4110   18.8030  -29.4810 C   0  0  0  0  0  0  0  0  0  0  0  0
   -9.9470   17.2590  -28.9530 N   0  0  0  0  0  0  0  0  0  0  0  0
  -11.4910   18.5900  -28.1400 C   0  0  0  0  0  0  0  0  0  0  0  0
  -10.5980   17.6430  -27.8020 O   0  0  0  0  0  0  0  0  0  0  0  0
  -12.4230   19.2880  -27.1820 C   0  0  0  0  0  0  0  0  0  0  0  0
  2  1  1  6
  2  3  1  0
  2  4  1  0
  3  5  2  0
  6  4  1  0
  6  7  2  0
  6  8  1  0
  8  9  1  1
  8 10  1  0
  9 11  1  0
 10 12  1  0
 10 13  1  0
 14 11  1  0
 11 15  2  0
 14 16  1  0
 14 17  2  0
 16 18  2  0
 19 17  1  0
 18 20  1  0
 18 19  1  0
A    2
 C04
A    4
 C02
A    5
 O48
A    6
 C01
A    7
 O03
A    8
 C57
A    9
 N58
A   10
 C78
A   11
 C59
A   12
 C81
A   13
 C82
A   14
 C1 
A   15
 O60
A   16
 C2 
A   17
 N5 
A   18
 C3 
A   19
 O4 
A   20
 C4 
M  END
>  <XChem_code>  (703) 
AG7§17

>  <Occupancy>  (703) 
[1.0, 1.0, 1.0, 1.0, 1.0, 1.0, 1.0, 1.0, 1.0, 1.0, 1.0, 1.0, 1.0, 1.0, 1.0, 1.0, 1.0, 1.0, 1.0, 1.0, 1.0, 1.0, 1.0, 1.0, 1.0, 1.0, 1.0, 1.0, 1.0, 1.0, 1.0, 1.0, 1.0, 1.0, 1.0, 1.0, 1.0, 1.0, 1.0, 1.0, 1.0, 1.0, 1.0]

>  <TempFactor>  (703) 
[11.58, 15.03, 11.83, 16.25, 16.92, 12.34, 10.54, 20.22, 18.19, 14.53, 16.52, 20.55, 23.87, 20.72, 31.66, 32.21, 24.48, 11.55, 13.92, 10.24, 11.44, 10.75, 11.87, 10.52, 48.42, 14.67, 18.9, 51.51, 20.99, 12.24, 12.71, 37.77, 32.69, 13.62, 12.02, 16.3, 16.59, 14.61, 20.42, 22.35, 13.24, 10.96, 27.55]

>  <accession>  (703) 
5WQ2_A

>  <description>  (703) 
Chain A, 3C protein [Enterovirus A71]

>  <evalue>  (703) 
1.45212e-58

>  <pdb_code>  (703) 
5WQ2

>  <chain>  (703) 
A

>  <ligands>  (703) 
[{'chain_id': 'A', 'author_residue_number': 301, 'author_insertion_code': '', 'chem_comp_id': 'AG7', 'alternate_conformers': 0, 'entity_id': 2, 'struct_asym_id': 'B', 'residue_number': 1, 'chem_comp_name': '4-{2-(4-FLUORO-BENZYL)-6-METHYL-5-[(5-METHYL-ISOXAZOLE-3-CARBONYL)-AMINO]-4-OXO-HEPTANOYLAMINO}-5-(2-OXO-PYRROLIDIN-3-YL)-PENTANOIC ACID ETHYL ESTER', 'weight': 600.678, 'carbohydrate_polymer': False, 'branch_name': ''}, {'chain_id': 'A', 'author_residue_number': 302, 'author_insertion_code': '', 'chem_comp_id': 'SO4', 'alternate_conformers': 0, 'entity_id': 3, 'struct_asym_id': 'C', 'residue_number': 1, 'chem_comp_name': 'SULFATE ION', 'weight': 96.063, 'carbohydrate_polymer': False, 'branch_name': ''}, {'chain_id': 'A', 'author_residue_number': 303, 'author_insertion_code': '', 'chem_comp_id': 'SO4', 'alternate_conformers': 0, 'entity_id': 3, 'struct_asym_id': 'D', 'residue_number': 1, 'chem_comp_name': 'SULFATE ION', 'weight': 96.063, 'carbohydrate_polymer': False, 'branch_name': ''}]

>  <ligand_codes>  (703) 
['AG7', 'SO4', 'SO4']

>  <cofactor_codes>  (703) 
[]

>  <has_cofactor>  (703) 
False

>  <covalent>  (703) 
False

>  <base_name>  (703) 
5WQ2

>  <lig_resn>  (703) 
AG7

>  <lig_resi>  (703) 
301

>  <lig_chain>  (703) 
A

>  <lig_segi>  (703) 
B

>  <lig_alt>  (703) 


>  <polymer_chain>  (703) 
A

>  <single_smiles>  (703) 
CCOC(=O)CC[C@H](C[C@@H]1CCNC1=O)NC(=O)[C@@H](CC(=O)[C@@H](NC(=O)c2cc(C)on2)C(C)C)Cc3ccc(F)cc3

$$$$
AG7P17S23
     RDKit          3D

 29 29  0  0  0  0  0  0  0  0999 V2000
   -7.5780   10.0070  -32.2880 C   0  0  0  0  0  0  0  0  0  0  0  0
   -7.4890   10.4020  -33.7670 C   0  0  2  0  0  0  0  0  0  0  0  0
   -8.6980   11.1750  -34.0820 N   0  0  0  0  0  0  0  0  0  0  0  0
   -7.1530    9.1720  -34.5770 C   0  0  0  0  0  0  0  0  0  0  0  0
   -8.3800   12.4380  -34.7380 C   0  0  0  0  0  0  0  0  0  0  0  0
   -7.7220    9.1500  -35.9970 C   0  0  0  0  0  0  0  0  0  0  0  0
   -9.5280   13.3240  -35.1010 C   0  0  1  0  0  0  0  0  0  0  0  0
   -7.2410   12.6640  -34.9600 O   0  0  0  0  0  0  0  0  0  0  0  0
   -6.3220    9.0870  -36.5370 C   0  0  0  0  0  0  0  0  0  0  0  0
   -9.1800   14.8060  -34.8540 C   0  0  0  0  0  0  0  0  0  0  0  0
   -9.8460   13.1390  -36.6190 C   0  0  0  0  0  0  0  0  0  0  0  0
   -5.9840    9.6800  -37.7630 O   0  0  0  0  0  0  0  0  0  0  0  0
   -5.5050    8.5250  -35.8520 O   0  0  0  0  0  0  0  0  0  0  0  0
   -8.8710   15.0620  -33.3170 C   0  0  0  0  0  0  0  0  0  0  0  0
  -11.3040   13.7480  -36.8430 C   0  0  0  0  0  0  0  0  0  0  0  0
   -5.1310    8.8390  -38.5240 C   0  0  0  0  0  0  0  0  0  0  0  0
   -8.3700   16.4870  -32.8980 C   0  0  1  0  0  0  0  0  0  0  0  0
   -9.0090   14.2040  -32.4740 O   0  0  0  0  0  0  0  0  0  0  0  0
  -11.4550   14.8980  -37.6180 C   0  0  0  0  0  0  0  0  0  0  0  0
  -12.4120   13.1420  -36.2450 C   0  0  0  0  0  0  0  0  0  0  0  0
   -5.9360    8.4070  -39.7210 C   0  0  0  0  0  0  0  0  0  0  0  0
   -8.9480   16.7880  -31.6380 N   0  0  0  0  0  0  0  0  0  0  0  0
   -6.8170   16.5120  -32.7400 C   0  0  0  0  0  0  0  0  0  0  0  0
  -12.7210   15.4360  -37.8160 C   0  0  0  0  0  0  0  0  0  0  0  0
  -13.6940   13.6900  -36.4410 C   0  0  0  0  0  0  0  0  0  0  0  0
   -6.0760   16.0060  -34.0310 C   0  0  0  0  0  0  0  0  0  0  0  0
   -6.4170   17.9840  -32.4950 C   0  0  0  0  0  0  0  0  0  0  0  0
  -13.8390   14.8280  -37.2230 C   0  0  0  0  0  0  0  0  0  0  0  0
  -15.0820   15.3630  -37.4180 F   0  0  0  0  0  0  0  0  0  0  0  0
  2  1  1  1
  3  2  1  0
  2  4  1  0
  3  5  1  0
  4  6  1  0
  7  5  1  0
  5  8  2  0
  6  9  1  0
  7 10  1  6
  7 11  1  0
  9 12  1  0
  9 13  2  0
 14 10  1  0
 11 15  1  0
 12 16  1  0
 14 17  1  0
 14 18  2  0
 15 19  2  0
 15 20  1  0
 16 21  1  0
 17 22  1  1
 17 23  1  0
 19 24  1  0
 25 20  2  0
 23 26  1  0
 23 27  1  0
 24 28  2  0
 28 25  1  0
 28 29  1  0
A    2
 C13
A    3
 N12
A    4
 C19
A    5
 C47
A    6
 C20
A    7
 C04
A    8
 O48
A    9
 C21
A   10
 C02
A   11
 C05
A   12
 O22
A   13
 O23
A   14
 C01
A   15
 C06
A   16
 C50
A   17
 C57
A   18
 O03
A   19
 C07
A   20
 C11
A   21
 C53
A   23
 C78
A   24
 C08
A   25
 C10
A   26
 C81
A   27
 C82
A   28
 C09
A   29
 F1 
M  END
>  <XChem_code>  (704) 
AG7§17

>  <Occupancy>  (704) 
[1.0, 1.0, 1.0, 1.0, 1.0, 1.0, 1.0, 1.0, 1.0, 1.0, 1.0, 1.0, 1.0, 1.0, 1.0, 1.0, 1.0, 1.0, 1.0, 1.0, 1.0, 1.0, 1.0, 1.0, 1.0, 1.0, 1.0, 1.0, 1.0, 1.0, 1.0, 1.0, 1.0, 1.0, 1.0, 1.0, 1.0, 1.0, 1.0, 1.0, 1.0, 1.0, 1.0]

>  <TempFactor>  (704) 
[11.58, 15.03, 11.83, 16.25, 16.92, 12.34, 10.54, 20.22, 18.19, 14.53, 16.52, 20.55, 23.87, 20.72, 31.66, 32.21, 24.48, 11.55, 13.92, 10.24, 11.44, 10.75, 11.87, 10.52, 48.42, 14.67, 18.9, 51.51, 20.99, 12.24, 12.71, 37.77, 32.69, 13.62, 12.02, 16.3, 16.59, 14.61, 20.42, 22.35, 13.24, 10.96, 27.55]

>  <accession>  (704) 
5WQ2_A

>  <description>  (704) 
Chain A, 3C protein [Enterovirus A71]

>  <evalue>  (704) 
1.45212e-58

>  <pdb_code>  (704) 
5WQ2

>  <chain>  (704) 
A

>  <ligands>  (704) 
[{'chain_id': 'A', 'author_residue_number': 301, 'author_insertion_code': '', 'chem_comp_id': 'AG7', 'alternate_conformers': 0, 'entity_id': 2, 'struct_asym_id': 'B', 'residue_number': 1, 'chem_comp_name': '4-{2-(4-FLUORO-BENZYL)-6-METHYL-5-[(5-METHYL-ISOXAZOLE-3-CARBONYL)-AMINO]-4-OXO-HEPTANOYLAMINO}-5-(2-OXO-PYRROLIDIN-3-YL)-PENTANOIC ACID ETHYL ESTER', 'weight': 600.678, 'carbohydrate_polymer': False, 'branch_name': ''}, {'chain_id': 'A', 'author_residue_number': 302, 'author_insertion_code': '', 'chem_comp_id': 'SO4', 'alternate_conformers': 0, 'entity_id': 3, 'struct_asym_id': 'C', 'residue_number': 1, 'chem_comp_name': 'SULFATE ION', 'weight': 96.063, 'carbohydrate_polymer': False, 'branch_name': ''}, {'chain_id': 'A', 'author_residue_number': 303, 'author_insertion_code': '', 'chem_comp_id': 'SO4', 'alternate_conformers': 0, 'entity_id': 3, 'struct_asym_id': 'D', 'residue_number': 1, 'chem_comp_name': 'SULFATE ION', 'weight': 96.063, 'carbohydrate_polymer': False, 'branch_name': ''}]

>  <ligand_codes>  (704) 
['AG7', 'SO4', 'SO4']

>  <cofactor_codes>  (704) 
[]

>  <has_cofactor>  (704) 
False

>  <covalent>  (704) 
False

>  <base_name>  (704) 
5WQ2

>  <lig_resn>  (704) 
AG7

>  <lig_resi>  (704) 
301

>  <lig_chain>  (704) 
A

>  <lig_segi>  (704) 
B

>  <lig_alt>  (704) 


>  <polymer_chain>  (704) 
A

>  <single_smiles>  (704) 
CCOC(=O)CC[C@H](C[C@@H]1CCNC1=O)NC(=O)[C@@H](CC(=O)[C@@H](NC(=O)c2cc(C)on2)C(C)C)Cc3ccc(F)cc3

$$$$
AG7P17S24
     RDKit          3D

 28 28  0  0  0  0  0  0  0  0999 V2000
   -9.8460   13.1390  -36.6190 C   0  0  0  0  0  0  0  0  0  0  0  0
   -9.5280   13.3240  -35.1010 C   0  0  2  0  0  0  0  0  0  0  0  0
   -9.1800   14.8060  -34.8540 C   0  0  0  0  0  0  0  0  0  0  0  0
   -8.3800   12.4380  -34.7380 C   0  0  0  0  0  0  0  0  0  0  0  0
   -8.8710   15.0620  -33.3170 C   0  0  0  0  0  0  0  0  0  0  0  0
   -8.6980   11.1750  -34.0820 N   0  0  0  0  0  0  0  0  0  0  0  0
   -7.2410   12.6640  -34.9600 O   0  0  0  0  0  0  0  0  0  0  0  0
   -8.3700   16.4870  -32.8980 C   0  0  1  0  0  0  0  0  0  0  0  0
   -9.0090   14.2040  -32.4740 O   0  0  0  0  0  0  0  0  0  0  0  0
   -7.4890   10.4020  -33.7670 C   0  0  1  0  0  0  0  0  0  0  0  0
   -8.9480   16.7880  -31.6380 N   0  0  0  0  0  0  0  0  0  0  0  0
   -6.8170   16.5120  -32.7400 C   0  0  0  0  0  0  0  0  0  0  0  0
   -7.5780   10.0070  -32.2880 C   0  0  0  0  0  0  0  0  0  0  0  0
   -7.1530    9.1720  -34.5770 C   0  0  0  0  0  0  0  0  0  0  0  0
   -6.0760   16.0060  -34.0310 C   0  0  0  0  0  0  0  0  0  0  0  0
   -6.4170   17.9840  -32.4950 C   0  0  0  0  0  0  0  0  0  0  0  0
   -7.0980   11.3050  -31.5740 C   0  0  1  0  0  0  0  0  0  0  0  0
   -7.7220    9.1500  -35.9970 C   0  0  0  0  0  0  0  0  0  0  0  0
   -7.0220   11.0820  -29.9910 C   0  0  0  0  0  0  0  0  0  0  0  0
   -5.8430   11.7240  -31.9670 C   0  0  0  0  0  0  0  0  0  0  0  0
   -6.3220    9.0870  -36.5370 C   0  0  0  0  0  0  0  0  0  0  0  0
   -6.0040   11.8390  -29.5420 N   0  0  0  0  0  0  0  0  0  0  0  0
   -7.7390   10.4090  -29.3110 O   0  0  0  0  0  0  0  0  0  0  0  0
   -5.3380   12.5590  -30.7110 C   0  0  0  0  0  0  0  0  0  0  0  0
   -5.9840    9.6800  -37.7630 O   0  0  0  0  0  0  0  0  0  0  0  0
   -5.5050    8.5250  -35.8520 O   0  0  0  0  0  0  0  0  0  0  0  0
   -5.1310    8.8390  -38.5240 C   0  0  0  0  0  0  0  0  0  0  0  0
   -5.9360    8.4070  -39.7210 C   0  0  0  0  0  0  0  0  0  0  0  0
  2  1  1  6
  2  3  1  0
  2  4  1  0
  5  3  1  0
  6  4  1  0
  4  7  2  0
  5  8  1  0
  5  9  2  0
  6 10  1  0
  8 11  1  1
  8 12  1  0
 10 13  1  1
 10 14  1  0
 12 15  1  0
 12 16  1  0
 17 13  1  6
 14 18  1  0
 17 19  1  0
 17 20  1  0
 18 21  1  0
 19 22  1  0
 19 23  2  0
 24 20  1  0
 21 25  1  0
 21 26  2  0
 22 24  1  0
 25 27  1  0
 27 28  1  0
A    2
 C04
A    3
 C02
A    4
 C47
A    5
 C01
A    6
 N12
A    7
 O48
A    8
 C57
A    9
 O03
A   10
 C13
A   12
 C78
A   13
 C14
A   14
 C19
A   15
 C81
A   16
 C82
A   17
 C15
A   18
 C20
A   19
 C16
A   20
 C84
A   21
 C21
A   22
 N17
A   23
 O18
A   24
 C83
A   25
 O22
A   26
 O23
A   27
 C50
A   28
 C53
M  END
>  <XChem_code>  (705) 
AG7§17

>  <Occupancy>  (705) 
[1.0, 1.0, 1.0, 1.0, 1.0, 1.0, 1.0, 1.0, 1.0, 1.0, 1.0, 1.0, 1.0, 1.0, 1.0, 1.0, 1.0, 1.0, 1.0, 1.0, 1.0, 1.0, 1.0, 1.0, 1.0, 1.0, 1.0, 1.0, 1.0, 1.0, 1.0, 1.0, 1.0, 1.0, 1.0, 1.0, 1.0, 1.0, 1.0, 1.0, 1.0, 1.0, 1.0]

>  <TempFactor>  (705) 
[11.58, 15.03, 11.83, 16.25, 16.92, 12.34, 10.54, 20.22, 18.19, 14.53, 16.52, 20.55, 23.87, 20.72, 31.66, 32.21, 24.48, 11.55, 13.92, 10.24, 11.44, 10.75, 11.87, 10.52, 48.42, 14.67, 18.9, 51.51, 20.99, 12.24, 12.71, 37.77, 32.69, 13.62, 12.02, 16.3, 16.59, 14.61, 20.42, 22.35, 13.24, 10.96, 27.55]

>  <accession>  (705) 
5WQ2_A

>  <description>  (705) 
Chain A, 3C protein [Enterovirus A71]

>  <evalue>  (705) 
1.45212e-58

>  <pdb_code>  (705) 
5WQ2

>  <chain>  (705) 
A

>  <ligands>  (705) 
[{'chain_id': 'A', 'author_residue_number': 301, 'author_insertion_code': '', 'chem_comp_id': 'AG7', 'alternate_conformers': 0, 'entity_id': 2, 'struct_asym_id': 'B', 'residue_number': 1, 'chem_comp_name': '4-{2-(4-FLUORO-BENZYL)-6-METHYL-5-[(5-METHYL-ISOXAZOLE-3-CARBONYL)-AMINO]-4-OXO-HEPTANOYLAMINO}-5-(2-OXO-PYRROLIDIN-3-YL)-PENTANOIC ACID ETHYL ESTER', 'weight': 600.678, 'carbohydrate_polymer': False, 'branch_name': ''}, {'chain_id': 'A', 'author_residue_number': 302, 'author_insertion_code': '', 'chem_comp_id': 'SO4', 'alternate_conformers': 0, 'entity_id': 3, 'struct_asym_id': 'C', 'residue_number': 1, 'chem_comp_name': 'SULFATE ION', 'weight': 96.063, 'carbohydrate_polymer': False, 'branch_name': ''}, {'chain_id': 'A', 'author_residue_number': 303, 'author_insertion_code': '', 'chem_comp_id': 'SO4', 'alternate_conformers': 0, 'entity_id': 3, 'struct_asym_id': 'D', 'residue_number': 1, 'chem_comp_name': 'SULFATE ION', 'weight': 96.063, 'carbohydrate_polymer': False, 'branch_name': ''}]

>  <ligand_codes>  (705) 
['AG7', 'SO4', 'SO4']

>  <cofactor_codes>  (705) 
[]

>  <has_cofactor>  (705) 
False

>  <covalent>  (705) 
False

>  <base_name>  (705) 
5WQ2

>  <lig_resn>  (705) 
AG7

>  <lig_resi>  (705) 
301

>  <lig_chain>  (705) 
A

>  <lig_segi>  (705) 
B

>  <lig_alt>  (705) 


>  <polymer_chain>  (705) 
A

>  <single_smiles>  (705) 
CCOC(=O)CC[C@H](C[C@@H]1CCNC1=O)NC(=O)[C@@H](CC(=O)[C@@H](NC(=O)c2cc(C)on2)C(C)C)Cc3ccc(F)cc3

$$$$
AG7P17S25
     RDKit          3D

 12 11  0  0  0  0  0  0  0  0999 V2000
   -9.8460   13.1390  -36.6190 C   0  0  0  0  0  0  0  0  0  0  0  0
   -9.5280   13.3240  -35.1010 C   0  0  2  0  0  0  0  0  0  0  0  0
   -9.1800   14.8060  -34.8540 C   0  0  0  0  0  0  0  0  0  0  0  0
   -8.3800   12.4380  -34.7380 C   0  0  0  0  0  0  0  0  0  0  0  0
   -8.8710   15.0620  -33.3170 C   0  0  0  0  0  0  0  0  0  0  0  0
   -7.2410   12.6640  -34.9600 O   0  0  0  0  0  0  0  0  0  0  0  0
   -8.3700   16.4870  -32.8980 C   0  0  1  0  0  0  0  0  0  0  0  0
   -9.0090   14.2040  -32.4740 O   0  0  0  0  0  0  0  0  0  0  0  0
   -8.9480   16.7880  -31.6380 N   0  0  0  0  0  0  0  0  0  0  0  0
   -6.8170   16.5120  -32.7400 C   0  0  0  0  0  0  0  0  0  0  0  0
   -6.0760   16.0060  -34.0310 C   0  0  0  0  0  0  0  0  0  0  0  0
   -6.4170   17.9840  -32.4950 C   0  0  0  0  0  0  0  0  0  0  0  0
  2  1  1  6
  2  3  1  0
  2  4  1  0
  5  3  1  0
  4  6  2  0
  5  7  1  0
  5  8  2  0
  7  9  1  1
  7 10  1  0
 10 11  1  0
 10 12  1  0
A    2
 C04
A    3
 C02
A    5
 C01
A    6
 O48
A    7
 C57
A    8
 O03
A   10
 C78
A   11
 C81
A   12
 C82
M  END
>  <XChem_code>  (706) 
AG7§17

>  <Occupancy>  (706) 
[1.0, 1.0, 1.0, 1.0, 1.0, 1.0, 1.0, 1.0, 1.0, 1.0, 1.0, 1.0, 1.0, 1.0, 1.0, 1.0, 1.0, 1.0, 1.0, 1.0, 1.0, 1.0, 1.0, 1.0, 1.0, 1.0, 1.0, 1.0, 1.0, 1.0, 1.0, 1.0, 1.0, 1.0, 1.0, 1.0, 1.0, 1.0, 1.0, 1.0, 1.0, 1.0, 1.0]

>  <TempFactor>  (706) 
[11.58, 15.03, 11.83, 16.25, 16.92, 12.34, 10.54, 20.22, 18.19, 14.53, 16.52, 20.55, 23.87, 20.72, 31.66, 32.21, 24.48, 11.55, 13.92, 10.24, 11.44, 10.75, 11.87, 10.52, 48.42, 14.67, 18.9, 51.51, 20.99, 12.24, 12.71, 37.77, 32.69, 13.62, 12.02, 16.3, 16.59, 14.61, 20.42, 22.35, 13.24, 10.96, 27.55]

>  <accession>  (706) 
5WQ2_A

>  <description>  (706) 
Chain A, 3C protein [Enterovirus A71]

>  <evalue>  (706) 
1.45212e-58

>  <pdb_code>  (706) 
5WQ2

>  <chain>  (706) 
A

>  <ligands>  (706) 
[{'chain_id': 'A', 'author_residue_number': 301, 'author_insertion_code': '', 'chem_comp_id': 'AG7', 'alternate_conformers': 0, 'entity_id': 2, 'struct_asym_id': 'B', 'residue_number': 1, 'chem_comp_name': '4-{2-(4-FLUORO-BENZYL)-6-METHYL-5-[(5-METHYL-ISOXAZOLE-3-CARBONYL)-AMINO]-4-OXO-HEPTANOYLAMINO}-5-(2-OXO-PYRROLIDIN-3-YL)-PENTANOIC ACID ETHYL ESTER', 'weight': 600.678, 'carbohydrate_polymer': False, 'branch_name': ''}, {'chain_id': 'A', 'author_residue_number': 302, 'author_insertion_code': '', 'chem_comp_id': 'SO4', 'alternate_conformers': 0, 'entity_id': 3, 'struct_asym_id': 'C', 'residue_number': 1, 'chem_comp_name': 'SULFATE ION', 'weight': 96.063, 'carbohydrate_polymer': False, 'branch_name': ''}, {'chain_id': 'A', 'author_residue_number': 303, 'author_insertion_code': '', 'chem_comp_id': 'SO4', 'alternate_conformers': 0, 'entity_id': 3, 'struct_asym_id': 'D', 'residue_number': 1, 'chem_comp_name': 'SULFATE ION', 'weight': 96.063, 'carbohydrate_polymer': False, 'branch_name': ''}]

>  <ligand_codes>  (706) 
['AG7', 'SO4', 'SO4']

>  <cofactor_codes>  (706) 
[]

>  <has_cofactor>  (706) 
False

>  <covalent>  (706) 
False

>  <base_name>  (706) 
5WQ2

>  <lig_resn>  (706) 
AG7

>  <lig_resi>  (706) 
301

>  <lig_chain>  (706) 
A

>  <lig_segi>  (706) 
B

>  <lig_alt>  (706) 


>  <polymer_chain>  (706) 
A

>  <single_smiles>  (706) 
CCOC(=O)CC[C@H](C[C@@H]1CCNC1=O)NC(=O)[C@@H](CC(=O)[C@@H](NC(=O)c2cc(C)on2)C(C)C)Cc3ccc(F)cc3

$$$$
AG7P17S26
     RDKit          3D

  9  8  0  0  0  0  0  0  0  0999 V2000
   -7.5780   10.0070  -32.2880 C   0  0  0  0  0  0  0  0  0  0  0  0
   -7.4890   10.4020  -33.7670 C   0  0  0  0  0  0  0  0  0  0  0  0
   -7.1530    9.1720  -34.5770 C   0  0  0  0  0  0  0  0  0  0  0  0
   -7.7220    9.1500  -35.9970 C   0  0  0  0  0  0  0  0  0  0  0  0
   -6.3220    9.0870  -36.5370 C   0  0  0  0  0  0  0  0  0  0  0  0
   -5.9840    9.6800  -37.7630 O   0  0  0  0  0  0  0  0  0  0  0  0
   -5.5050    8.5250  -35.8520 O   0  0  0  0  0  0  0  0  0  0  0  0
   -5.1310    8.8390  -38.5240 C   0  0  0  0  0  0  0  0  0  0  0  0
   -5.9360    8.4070  -39.7210 C   0  0  0  0  0  0  0  0  0  0  0  0
  2  1  1  6
  2  3  1  0
  3  4  1  0
  4  5  1  0
  5  6  1  0
  5  7  2  0
  6  8  1  0
  8  9  1  0
A    3
 C19
A    4
 C20
A    5
 C21
A    6
 O22
A    7
 O23
A    8
 C50
A    9
 C53
M  END
>  <XChem_code>  (707) 
AG7§17

>  <Occupancy>  (707) 
[1.0, 1.0, 1.0, 1.0, 1.0, 1.0, 1.0, 1.0, 1.0, 1.0, 1.0, 1.0, 1.0, 1.0, 1.0, 1.0, 1.0, 1.0, 1.0, 1.0, 1.0, 1.0, 1.0, 1.0, 1.0, 1.0, 1.0, 1.0, 1.0, 1.0, 1.0, 1.0, 1.0, 1.0, 1.0, 1.0, 1.0, 1.0, 1.0, 1.0, 1.0, 1.0, 1.0]

>  <TempFactor>  (707) 
[11.58, 15.03, 11.83, 16.25, 16.92, 12.34, 10.54, 20.22, 18.19, 14.53, 16.52, 20.55, 23.87, 20.72, 31.66, 32.21, 24.48, 11.55, 13.92, 10.24, 11.44, 10.75, 11.87, 10.52, 48.42, 14.67, 18.9, 51.51, 20.99, 12.24, 12.71, 37.77, 32.69, 13.62, 12.02, 16.3, 16.59, 14.61, 20.42, 22.35, 13.24, 10.96, 27.55]

>  <accession>  (707) 
5WQ2_A

>  <description>  (707) 
Chain A, 3C protein [Enterovirus A71]

>  <evalue>  (707) 
1.45212e-58

>  <pdb_code>  (707) 
5WQ2

>  <chain>  (707) 
A

>  <ligands>  (707) 
[{'chain_id': 'A', 'author_residue_number': 301, 'author_insertion_code': '', 'chem_comp_id': 'AG7', 'alternate_conformers': 0, 'entity_id': 2, 'struct_asym_id': 'B', 'residue_number': 1, 'chem_comp_name': '4-{2-(4-FLUORO-BENZYL)-6-METHYL-5-[(5-METHYL-ISOXAZOLE-3-CARBONYL)-AMINO]-4-OXO-HEPTANOYLAMINO}-5-(2-OXO-PYRROLIDIN-3-YL)-PENTANOIC ACID ETHYL ESTER', 'weight': 600.678, 'carbohydrate_polymer': False, 'branch_name': ''}, {'chain_id': 'A', 'author_residue_number': 302, 'author_insertion_code': '', 'chem_comp_id': 'SO4', 'alternate_conformers': 0, 'entity_id': 3, 'struct_asym_id': 'C', 'residue_number': 1, 'chem_comp_name': 'SULFATE ION', 'weight': 96.063, 'carbohydrate_polymer': False, 'branch_name': ''}, {'chain_id': 'A', 'author_residue_number': 303, 'author_insertion_code': '', 'chem_comp_id': 'SO4', 'alternate_conformers': 0, 'entity_id': 3, 'struct_asym_id': 'D', 'residue_number': 1, 'chem_comp_name': 'SULFATE ION', 'weight': 96.063, 'carbohydrate_polymer': False, 'branch_name': ''}]

>  <ligand_codes>  (707) 
['AG7', 'SO4', 'SO4']

>  <cofactor_codes>  (707) 
[]

>  <has_cofactor>  (707) 
False

>  <covalent>  (707) 
False

>  <base_name>  (707) 
5WQ2

>  <lig_resn>  (707) 
AG7

>  <lig_resi>  (707) 
301

>  <lig_chain>  (707) 
A

>  <lig_segi>  (707) 
B

>  <lig_alt>  (707) 


>  <polymer_chain>  (707) 
A

>  <single_smiles>  (707) 
CCOC(=O)CC[C@H](C[C@@H]1CCNC1=O)NC(=O)[C@@H](CC(=O)[C@@H](NC(=O)c2cc(C)on2)C(C)C)Cc3ccc(F)cc3

$$$$
AG7P17S27
     RDKit          3D

 21 21  0  0  0  0  0  0  0  0999 V2000
   -9.8460   13.1390  -36.6190 C   0  0  0  0  0  0  0  0  0  0  0  0
   -9.5280   13.3240  -35.1010 C   0  0  1  0  0  0  0  0  0  0  0  0
   -8.3800   12.4380  -34.7380 C   0  0  0  0  0  0  0  0  0  0  0  0
   -9.1800   14.8060  -34.8540 C   0  0  0  0  0  0  0  0  0  0  0  0
   -8.6980   11.1750  -34.0820 N   0  0  0  0  0  0  0  0  0  0  0  0
   -7.2410   12.6640  -34.9600 O   0  0  0  0  0  0  0  0  0  0  0  0
   -8.8710   15.0620  -33.3170 C   0  0  0  0  0  0  0  0  0  0  0  0
   -9.0090   14.2040  -32.4740 O   0  0  0  0  0  0  0  0  0  0  0  0
   -8.3700   16.4870  -32.8980 C   0  0  1  0  0  0  0  0  0  0  0  0
   -8.9480   16.7880  -31.6380 N   0  0  0  0  0  0  0  0  0  0  0  0
   -6.8170   16.5120  -32.7400 C   0  0  0  0  0  0  0  0  0  0  0  0
   -9.9620   17.8080  -31.4350 C   0  0  0  0  0  0  0  0  0  0  0  0
   -6.0760   16.0060  -34.0310 C   0  0  0  0  0  0  0  0  0  0  0  0
   -6.4170   17.9840  -32.4950 C   0  0  0  0  0  0  0  0  0  0  0  0
  -10.4440   17.9550  -29.9640 C   0  0  0  0  0  0  0  0  0  0  0  0
  -10.3830   18.4720  -32.3140 O   0  0  0  0  0  0  0  0  0  0  0  0
  -11.4110   18.8030  -29.4810 C   0  0  0  0  0  0  0  0  0  0  0  0
   -9.9470   17.2590  -28.9530 N   0  0  0  0  0  0  0  0  0  0  0  0
  -11.4910   18.5900  -28.1400 C   0  0  0  0  0  0  0  0  0  0  0  0
  -10.5980   17.6430  -27.8020 O   0  0  0  0  0  0  0  0  0  0  0  0
  -12.4230   19.2880  -27.1820 C   0  0  0  0  0  0  0  0  0  0  0  0
  2  1  1  6
  2  3  1  0
  2  4  1  0
  5  3  1  0
  3  6  2  0
  7  4  1  0
  7  8  2  0
  7  9  1  0
  9 10  1  1
  9 11  1  0
 10 12  1  0
 11 13  1  0
 11 14  1  0
 15 12  1  0
 12 16  2  0
 15 17  1  0
 15 18  2  0
 17 19  2  0
 20 18  1  0
 19 21  1  0
 19 20  1  0
A    2
 C04
A    3
 C47
A    4
 C02
A    6
 O48
A    7
 C01
A    8
 O03
A    9
 C57
A   10
 N58
A   11
 C78
A   12
 C59
A   13
 C81
A   14
 C82
A   15
 C1 
A   16
 O60
A   17
 C2 
A   18
 N5 
A   19
 C3 
A   20
 O4 
A   21
 C4 
M  END
>  <XChem_code>  (708) 
AG7§17

>  <Occupancy>  (708) 
[1.0, 1.0, 1.0, 1.0, 1.0, 1.0, 1.0, 1.0, 1.0, 1.0, 1.0, 1.0, 1.0, 1.0, 1.0, 1.0, 1.0, 1.0, 1.0, 1.0, 1.0, 1.0, 1.0, 1.0, 1.0, 1.0, 1.0, 1.0, 1.0, 1.0, 1.0, 1.0, 1.0, 1.0, 1.0, 1.0, 1.0, 1.0, 1.0, 1.0, 1.0, 1.0, 1.0]

>  <TempFactor>  (708) 
[11.58, 15.03, 11.83, 16.25, 16.92, 12.34, 10.54, 20.22, 18.19, 14.53, 16.52, 20.55, 23.87, 20.72, 31.66, 32.21, 24.48, 11.55, 13.92, 10.24, 11.44, 10.75, 11.87, 10.52, 48.42, 14.67, 18.9, 51.51, 20.99, 12.24, 12.71, 37.77, 32.69, 13.62, 12.02, 16.3, 16.59, 14.61, 20.42, 22.35, 13.24, 10.96, 27.55]

>  <accession>  (708) 
5WQ2_A

>  <description>  (708) 
Chain A, 3C protein [Enterovirus A71]

>  <evalue>  (708) 
1.45212e-58

>  <pdb_code>  (708) 
5WQ2

>  <chain>  (708) 
A

>  <ligands>  (708) 
[{'chain_id': 'A', 'author_residue_number': 301, 'author_insertion_code': '', 'chem_comp_id': 'AG7', 'alternate_conformers': 0, 'entity_id': 2, 'struct_asym_id': 'B', 'residue_number': 1, 'chem_comp_name': '4-{2-(4-FLUORO-BENZYL)-6-METHYL-5-[(5-METHYL-ISOXAZOLE-3-CARBONYL)-AMINO]-4-OXO-HEPTANOYLAMINO}-5-(2-OXO-PYRROLIDIN-3-YL)-PENTANOIC ACID ETHYL ESTER', 'weight': 600.678, 'carbohydrate_polymer': False, 'branch_name': ''}, {'chain_id': 'A', 'author_residue_number': 302, 'author_insertion_code': '', 'chem_comp_id': 'SO4', 'alternate_conformers': 0, 'entity_id': 3, 'struct_asym_id': 'C', 'residue_number': 1, 'chem_comp_name': 'SULFATE ION', 'weight': 96.063, 'carbohydrate_polymer': False, 'branch_name': ''}, {'chain_id': 'A', 'author_residue_number': 303, 'author_insertion_code': '', 'chem_comp_id': 'SO4', 'alternate_conformers': 0, 'entity_id': 3, 'struct_asym_id': 'D', 'residue_number': 1, 'chem_comp_name': 'SULFATE ION', 'weight': 96.063, 'carbohydrate_polymer': False, 'branch_name': ''}]

>  <ligand_codes>  (708) 
['AG7', 'SO4', 'SO4']

>  <cofactor_codes>  (708) 
[]

>  <has_cofactor>  (708) 
False

>  <covalent>  (708) 
False

>  <base_name>  (708) 
5WQ2

>  <lig_resn>  (708) 
AG7

>  <lig_resi>  (708) 
301

>  <lig_chain>  (708) 
A

>  <lig_segi>  (708) 
B

>  <lig_alt>  (708) 


>  <polymer_chain>  (708) 
A

>  <single_smiles>  (708) 
CCOC(=O)CC[C@H](C[C@@H]1CCNC1=O)NC(=O)[C@@H](CC(=O)[C@@H](NC(=O)c2cc(C)on2)C(C)C)Cc3ccc(F)cc3

$$$$
AG7P17S28
     RDKit          3D

 28 28  0  0  0  0  0  0  0  0999 V2000
   -7.5780   10.0070  -32.2880 C   0  0  0  0  0  0  0  0  0  0  0  0
   -7.4890   10.4020  -33.7670 C   0  0  2  0  0  0  0  0  0  0  0  0
   -8.6980   11.1750  -34.0820 N   0  0  0  0  0  0  0  0  0  0  0  0
   -7.1530    9.1720  -34.5770 C   0  0  0  0  0  0  0  0  0  0  0  0
   -8.3800   12.4380  -34.7380 C   0  0  0  0  0  0  0  0  0  0  0  0
   -7.7220    9.1500  -35.9970 C   0  0  0  0  0  0  0  0  0  0  0  0
   -9.5280   13.3240  -35.1010 C   0  0  1  0  0  0  0  0  0  0  0  0
   -7.2410   12.6640  -34.9600 O   0  0  0  0  0  0  0  0  0  0  0  0
   -6.3220    9.0870  -36.5370 C   0  0  0  0  0  0  0  0  0  0  0  0
   -9.1800   14.8060  -34.8540 C   0  0  0  0  0  0  0  0  0  0  0  0
   -9.8460   13.1390  -36.6190 C   0  0  0  0  0  0  0  0  0  0  0  0
   -5.9840    9.6800  -37.7630 O   0  0  0  0  0  0  0  0  0  0  0  0
   -5.5050    8.5250  -35.8520 O   0  0  0  0  0  0  0  0  0  0  0  0
   -8.8710   15.0620  -33.3170 C   0  0  0  0  0  0  0  0  0  0  0  0
  -11.3040   13.7480  -36.8430 C   0  0  0  0  0  0  0  0  0  0  0  0
   -5.1310    8.8390  -38.5240 C   0  0  0  0  0  0  0  0  0  0  0  0
   -8.3700   16.4870  -32.8980 C   0  0  0  0  0  0  0  0  0  0  0  0
   -9.0090   14.2040  -32.4740 O   0  0  0  0  0  0  0  0  0  0  0  0
  -11.4550   14.8980  -37.6180 C   0  0  0  0  0  0  0  0  0  0  0  0
  -12.4120   13.1420  -36.2450 C   0  0  0  0  0  0  0  0  0  0  0  0
   -5.9360    8.4070  -39.7210 C   0  0  0  0  0  0  0  0  0  0  0  0
   -6.8170   16.5120  -32.7400 C   0  0  0  0  0  0  0  0  0  0  0  0
  -12.7210   15.4360  -37.8160 C   0  0  0  0  0  0  0  0  0  0  0  0
  -13.6940   13.6900  -36.4410 C   0  0  0  0  0  0  0  0  0  0  0  0
   -6.0760   16.0060  -34.0310 C   0  0  0  0  0  0  0  0  0  0  0  0
   -6.4170   17.9840  -32.4950 C   0  0  0  0  0  0  0  0  0  0  0  0
  -13.8390   14.8280  -37.2230 C   0  0  0  0  0  0  0  0  0  0  0  0
  -15.0820   15.3630  -37.4180 F   0  0  0  0  0  0  0  0  0  0  0  0
  2  1  1  1
  3  2  1  0
  2  4  1  0
  3  5  1  0
  4  6  1  0
  7  5  1  0
  5  8  2  0
  6  9  1  0
  7 10  1  6
  7 11  1  0
  9 12  1  0
  9 13  2  0
 14 10  1  0
 11 15  1  0
 12 16  1  0
 14 17  1  0
 14 18  2  0
 15 19  2  0
 15 20  1  0
 16 21  1  0
 17 22  1  6
 19 23  1  0
 24 20  2  0
 22 25  1  0
 22 26  1  0
 23 27  2  0
 27 24  1  0
 27 28  1  0
A    2
 C13
A    3
 N12
A    4
 C19
A    5
 C47
A    6
 C20
A    7
 C04
A    8
 O48
A    9
 C21
A   10
 C02
A   11
 C05
A   12
 O22
A   13
 O23
A   14
 C01
A   15
 C06
A   16
 C50
A   18
 O03
A   19
 C07
A   20
 C11
A   21
 C53
A   22
 C78
A   23
 C08
A   24
 C10
A   25
 C81
A   26
 C82
A   27
 C09
A   28
 F1 
M  END
>  <XChem_code>  (709) 
AG7§17

>  <Occupancy>  (709) 
[1.0, 1.0, 1.0, 1.0, 1.0, 1.0, 1.0, 1.0, 1.0, 1.0, 1.0, 1.0, 1.0, 1.0, 1.0, 1.0, 1.0, 1.0, 1.0, 1.0, 1.0, 1.0, 1.0, 1.0, 1.0, 1.0, 1.0, 1.0, 1.0, 1.0, 1.0, 1.0, 1.0, 1.0, 1.0, 1.0, 1.0, 1.0, 1.0, 1.0, 1.0, 1.0, 1.0]

>  <TempFactor>  (709) 
[11.58, 15.03, 11.83, 16.25, 16.92, 12.34, 10.54, 20.22, 18.19, 14.53, 16.52, 20.55, 23.87, 20.72, 31.66, 32.21, 24.48, 11.55, 13.92, 10.24, 11.44, 10.75, 11.87, 10.52, 48.42, 14.67, 18.9, 51.51, 20.99, 12.24, 12.71, 37.77, 32.69, 13.62, 12.02, 16.3, 16.59, 14.61, 20.42, 22.35, 13.24, 10.96, 27.55]

>  <accession>  (709) 
5WQ2_A

>  <description>  (709) 
Chain A, 3C protein [Enterovirus A71]

>  <evalue>  (709) 
1.45212e-58

>  <pdb_code>  (709) 
5WQ2

>  <chain>  (709) 
A

>  <ligands>  (709) 
[{'chain_id': 'A', 'author_residue_number': 301, 'author_insertion_code': '', 'chem_comp_id': 'AG7', 'alternate_conformers': 0, 'entity_id': 2, 'struct_asym_id': 'B', 'residue_number': 1, 'chem_comp_name': '4-{2-(4-FLUORO-BENZYL)-6-METHYL-5-[(5-METHYL-ISOXAZOLE-3-CARBONYL)-AMINO]-4-OXO-HEPTANOYLAMINO}-5-(2-OXO-PYRROLIDIN-3-YL)-PENTANOIC ACID ETHYL ESTER', 'weight': 600.678, 'carbohydrate_polymer': False, 'branch_name': ''}, {'chain_id': 'A', 'author_residue_number': 302, 'author_insertion_code': '', 'chem_comp_id': 'SO4', 'alternate_conformers': 0, 'entity_id': 3, 'struct_asym_id': 'C', 'residue_number': 1, 'chem_comp_name': 'SULFATE ION', 'weight': 96.063, 'carbohydrate_polymer': False, 'branch_name': ''}, {'chain_id': 'A', 'author_residue_number': 303, 'author_insertion_code': '', 'chem_comp_id': 'SO4', 'alternate_conformers': 0, 'entity_id': 3, 'struct_asym_id': 'D', 'residue_number': 1, 'chem_comp_name': 'SULFATE ION', 'weight': 96.063, 'carbohydrate_polymer': False, 'branch_name': ''}]

>  <ligand_codes>  (709) 
['AG7', 'SO4', 'SO4']

>  <cofactor_codes>  (709) 
[]

>  <has_cofactor>  (709) 
False

>  <covalent>  (709) 
False

>  <base_name>  (709) 
5WQ2

>  <lig_resn>  (709) 
AG7

>  <lig_resi>  (709) 
301

>  <lig_chain>  (709) 
A

>  <lig_segi>  (709) 
B

>  <lig_alt>  (709) 


>  <polymer_chain>  (709) 
A

>  <single_smiles>  (709) 
CCOC(=O)CC[C@H](C[C@@H]1CCNC1=O)NC(=O)[C@@H](CC(=O)[C@@H](NC(=O)c2cc(C)on2)C(C)C)Cc3ccc(F)cc3

$$$$
AG7P17S29
     RDKit          3D

 27 27  0  0  0  0  0  0  0  0999 V2000
   -9.8460   13.1390  -36.6190 C   0  0  0  0  0  0  0  0  0  0  0  0
   -9.5280   13.3240  -35.1010 C   0  0  2  0  0  0  0  0  0  0  0  0
   -9.1800   14.8060  -34.8540 C   0  0  0  0  0  0  0  0  0  0  0  0
   -8.3800   12.4380  -34.7380 C   0  0  0  0  0  0  0  0  0  0  0  0
   -8.8710   15.0620  -33.3170 C   0  0  0  0  0  0  0  0  0  0  0  0
   -8.6980   11.1750  -34.0820 N   0  0  0  0  0  0  0  0  0  0  0  0
   -7.2410   12.6640  -34.9600 O   0  0  0  0  0  0  0  0  0  0  0  0
   -8.3700   16.4870  -32.8980 C   0  0  0  0  0  0  0  0  0  0  0  0
   -9.0090   14.2040  -32.4740 O   0  0  0  0  0  0  0  0  0  0  0  0
   -7.4890   10.4020  -33.7670 C   0  0  1  0  0  0  0  0  0  0  0  0
   -6.8170   16.5120  -32.7400 C   0  0  0  0  0  0  0  0  0  0  0  0
   -7.5780   10.0070  -32.2880 C   0  0  0  0  0  0  0  0  0  0  0  0
   -7.1530    9.1720  -34.5770 C   0  0  0  0  0  0  0  0  0  0  0  0
   -6.0760   16.0060  -34.0310 C   0  0  0  0  0  0  0  0  0  0  0  0
   -6.4170   17.9840  -32.4950 C   0  0  0  0  0  0  0  0  0  0  0  0
   -7.0980   11.3050  -31.5740 C   0  0  1  0  0  0  0  0  0  0  0  0
   -7.7220    9.1500  -35.9970 C   0  0  0  0  0  0  0  0  0  0  0  0
   -7.0220   11.0820  -29.9910 C   0  0  0  0  0  0  0  0  0  0  0  0
   -5.8430   11.7240  -31.9670 C   0  0  0  0  0  0  0  0  0  0  0  0
   -6.3220    9.0870  -36.5370 C   0  0  0  0  0  0  0  0  0  0  0  0
   -6.0040   11.8390  -29.5420 N   0  0  0  0  0  0  0  0  0  0  0  0
   -7.7390   10.4090  -29.3110 O   0  0  0  0  0  0  0  0  0  0  0  0
   -5.3380   12.5590  -30.7110 C   0  0  0  0  0  0  0  0  0  0  0  0
   -5.9840    9.6800  -37.7630 O   0  0  0  0  0  0  0  0  0  0  0  0
   -5.5050    8.5250  -35.8520 O   0  0  0  0  0  0  0  0  0  0  0  0
   -5.1310    8.8390  -38.5240 C   0  0  0  0  0  0  0  0  0  0  0  0
   -5.9360    8.4070  -39.7210 C   0  0  0  0  0  0  0  0  0  0  0  0
  2  1  1  6
  2  3  1  0
  2  4  1  0
  5  3  1  0
  6  4  1  0
  4  7  2  0
  5  8  1  0
  5  9  2  0
  6 10  1  0
  8 11  1  6
 10 12  1  1
 10 13  1  0
 11 14  1  0
 11 15  1  0
 16 12  1  6
 13 17  1  0
 16 18  1  0
 16 19  1  0
 17 20  1  0
 18 21  1  0
 18 22  2  0
 23 19  1  0
 20 24  1  0
 20 25  2  0
 21 23  1  0
 24 26  1  0
 26 27  1  0
A    2
 C04
A    3
 C02
A    4
 C47
A    5
 C01
A    6
 N12
A    7
 O48
A    9
 O03
A   10
 C13
A   11
 C78
A   12
 C14
A   13
 C19
A   14
 C81
A   15
 C82
A   16
 C15
A   17
 C20
A   18
 C16
A   19
 C84
A   20
 C21
A   21
 N17
A   22
 O18
A   23
 C83
A   24
 O22
A   25
 O23
A   26
 C50
A   27
 C53
M  END
>  <XChem_code>  (710) 
AG7§17

>  <Occupancy>  (710) 
[1.0, 1.0, 1.0, 1.0, 1.0, 1.0, 1.0, 1.0, 1.0, 1.0, 1.0, 1.0, 1.0, 1.0, 1.0, 1.0, 1.0, 1.0, 1.0, 1.0, 1.0, 1.0, 1.0, 1.0, 1.0, 1.0, 1.0, 1.0, 1.0, 1.0, 1.0, 1.0, 1.0, 1.0, 1.0, 1.0, 1.0, 1.0, 1.0, 1.0, 1.0, 1.0, 1.0]

>  <TempFactor>  (710) 
[11.58, 15.03, 11.83, 16.25, 16.92, 12.34, 10.54, 20.22, 18.19, 14.53, 16.52, 20.55, 23.87, 20.72, 31.66, 32.21, 24.48, 11.55, 13.92, 10.24, 11.44, 10.75, 11.87, 10.52, 48.42, 14.67, 18.9, 51.51, 20.99, 12.24, 12.71, 37.77, 32.69, 13.62, 12.02, 16.3, 16.59, 14.61, 20.42, 22.35, 13.24, 10.96, 27.55]

>  <accession>  (710) 
5WQ2_A

>  <description>  (710) 
Chain A, 3C protein [Enterovirus A71]

>  <evalue>  (710) 
1.45212e-58

>  <pdb_code>  (710) 
5WQ2

>  <chain>  (710) 
A

>  <ligands>  (710) 
[{'chain_id': 'A', 'author_residue_number': 301, 'author_insertion_code': '', 'chem_comp_id': 'AG7', 'alternate_conformers': 0, 'entity_id': 2, 'struct_asym_id': 'B', 'residue_number': 1, 'chem_comp_name': '4-{2-(4-FLUORO-BENZYL)-6-METHYL-5-[(5-METHYL-ISOXAZOLE-3-CARBONYL)-AMINO]-4-OXO-HEPTANOYLAMINO}-5-(2-OXO-PYRROLIDIN-3-YL)-PENTANOIC ACID ETHYL ESTER', 'weight': 600.678, 'carbohydrate_polymer': False, 'branch_name': ''}, {'chain_id': 'A', 'author_residue_number': 302, 'author_insertion_code': '', 'chem_comp_id': 'SO4', 'alternate_conformers': 0, 'entity_id': 3, 'struct_asym_id': 'C', 'residue_number': 1, 'chem_comp_name': 'SULFATE ION', 'weight': 96.063, 'carbohydrate_polymer': False, 'branch_name': ''}, {'chain_id': 'A', 'author_residue_number': 303, 'author_insertion_code': '', 'chem_comp_id': 'SO4', 'alternate_conformers': 0, 'entity_id': 3, 'struct_asym_id': 'D', 'residue_number': 1, 'chem_comp_name': 'SULFATE ION', 'weight': 96.063, 'carbohydrate_polymer': False, 'branch_name': ''}]

>  <ligand_codes>  (710) 
['AG7', 'SO4', 'SO4']

>  <cofactor_codes>  (710) 
[]

>  <has_cofactor>  (710) 
False

>  <covalent>  (710) 
False

>  <base_name>  (710) 
5WQ2

>  <lig_resn>  (710) 
AG7

>  <lig_resi>  (710) 
301

>  <lig_chain>  (710) 
A

>  <lig_segi>  (710) 
B

>  <lig_alt>  (710) 


>  <polymer_chain>  (710) 
A

>  <single_smiles>  (710) 
CCOC(=O)CC[C@H](C[C@@H]1CCNC1=O)NC(=O)[C@@H](CC(=O)[C@@H](NC(=O)c2cc(C)on2)C(C)C)Cc3ccc(F)cc3

$$$$
AG7P17S30
     RDKit          3D

 11 10  0  0  0  0  0  0  0  0999 V2000
   -9.8460   13.1390  -36.6190 C   0  0  0  0  0  0  0  0  0  0  0  0
   -9.5280   13.3240  -35.1010 C   0  0  2  0  0  0  0  0  0  0  0  0
   -9.1800   14.8060  -34.8540 C   0  0  0  0  0  0  0  0  0  0  0  0
   -8.3800   12.4380  -34.7380 C   0  0  0  0  0  0  0  0  0  0  0  0
   -8.8710   15.0620  -33.3170 C   0  0  0  0  0  0  0  0  0  0  0  0
   -7.2410   12.6640  -34.9600 O   0  0  0  0  0  0  0  0  0  0  0  0
   -8.3700   16.4870  -32.8980 C   0  0  0  0  0  0  0  0  0  0  0  0
   -9.0090   14.2040  -32.4740 O   0  0  0  0  0  0  0  0  0  0  0  0
   -6.8170   16.5120  -32.7400 C   0  0  0  0  0  0  0  0  0  0  0  0
   -6.0760   16.0060  -34.0310 C   0  0  0  0  0  0  0  0  0  0  0  0
   -6.4170   17.9840  -32.4950 C   0  0  0  0  0  0  0  0  0  0  0  0
  2  1  1  6
  2  3  1  0
  2  4  1  0
  5  3  1  0
  4  6  2  0
  5  7  1  0
  5  8  2  0
  7  9  1  6
  9 10  1  0
  9 11  1  0
A    2
 C04
A    3
 C02
A    5
 C01
A    6
 O48
A    8
 O03
A    9
 C78
A   10
 C81
A   11
 C82
M  END
>  <XChem_code>  (711) 
AG7§17

>  <Occupancy>  (711) 
[1.0, 1.0, 1.0, 1.0, 1.0, 1.0, 1.0, 1.0, 1.0, 1.0, 1.0, 1.0, 1.0, 1.0, 1.0, 1.0, 1.0, 1.0, 1.0, 1.0, 1.0, 1.0, 1.0, 1.0, 1.0, 1.0, 1.0, 1.0, 1.0, 1.0, 1.0, 1.0, 1.0, 1.0, 1.0, 1.0, 1.0, 1.0, 1.0, 1.0, 1.0, 1.0, 1.0]

>  <TempFactor>  (711) 
[11.58, 15.03, 11.83, 16.25, 16.92, 12.34, 10.54, 20.22, 18.19, 14.53, 16.52, 20.55, 23.87, 20.72, 31.66, 32.21, 24.48, 11.55, 13.92, 10.24, 11.44, 10.75, 11.87, 10.52, 48.42, 14.67, 18.9, 51.51, 20.99, 12.24, 12.71, 37.77, 32.69, 13.62, 12.02, 16.3, 16.59, 14.61, 20.42, 22.35, 13.24, 10.96, 27.55]

>  <accession>  (711) 
5WQ2_A

>  <description>  (711) 
Chain A, 3C protein [Enterovirus A71]

>  <evalue>  (711) 
1.45212e-58

>  <pdb_code>  (711) 
5WQ2

>  <chain>  (711) 
A

>  <ligands>  (711) 
[{'chain_id': 'A', 'author_residue_number': 301, 'author_insertion_code': '', 'chem_comp_id': 'AG7', 'alternate_conformers': 0, 'entity_id': 2, 'struct_asym_id': 'B', 'residue_number': 1, 'chem_comp_name': '4-{2-(4-FLUORO-BENZYL)-6-METHYL-5-[(5-METHYL-ISOXAZOLE-3-CARBONYL)-AMINO]-4-OXO-HEPTANOYLAMINO}-5-(2-OXO-PYRROLIDIN-3-YL)-PENTANOIC ACID ETHYL ESTER', 'weight': 600.678, 'carbohydrate_polymer': False, 'branch_name': ''}, {'chain_id': 'A', 'author_residue_number': 302, 'author_insertion_code': '', 'chem_comp_id': 'SO4', 'alternate_conformers': 0, 'entity_id': 3, 'struct_asym_id': 'C', 'residue_number': 1, 'chem_comp_name': 'SULFATE ION', 'weight': 96.063, 'carbohydrate_polymer': False, 'branch_name': ''}, {'chain_id': 'A', 'author_residue_number': 303, 'author_insertion_code': '', 'chem_comp_id': 'SO4', 'alternate_conformers': 0, 'entity_id': 3, 'struct_asym_id': 'D', 'residue_number': 1, 'chem_comp_name': 'SULFATE ION', 'weight': 96.063, 'carbohydrate_polymer': False, 'branch_name': ''}]

>  <ligand_codes>  (711) 
['AG7', 'SO4', 'SO4']

>  <cofactor_codes>  (711) 
[]

>  <has_cofactor>  (711) 
False

>  <covalent>  (711) 
False

>  <base_name>  (711) 
5WQ2

>  <lig_resn>  (711) 
AG7

>  <lig_resi>  (711) 
301

>  <lig_chain>  (711) 
A

>  <lig_segi>  (711) 
B

>  <lig_alt>  (711) 


>  <polymer_chain>  (711) 
A

>  <single_smiles>  (711) 
CCOC(=O)CC[C@H](C[C@@H]1CCNC1=O)NC(=O)[C@@H](CC(=O)[C@@H](NC(=O)c2cc(C)on2)C(C)C)Cc3ccc(F)cc3

$$$$
AG7P17S31
     RDKit          3D

 13 12  0  0  0  0  0  0  0  0999 V2000
   -9.8460   13.1390  -36.6190 C   0  0  0  0  0  0  0  0  0  0  0  0
   -9.5280   13.3240  -35.1010 C   0  0  1  0  0  0  0  0  0  0  0  0
   -8.3800   12.4380  -34.7380 C   0  0  0  0  0  0  0  0  0  0  0  0
   -9.1800   14.8060  -34.8540 C   0  0  0  0  0  0  0  0  0  0  0  0
   -8.6980   11.1750  -34.0820 N   0  0  0  0  0  0  0  0  0  0  0  0
   -7.2410   12.6640  -34.9600 O   0  0  0  0  0  0  0  0  0  0  0  0
   -8.8710   15.0620  -33.3170 C   0  0  0  0  0  0  0  0  0  0  0  0
   -8.3700   16.4870  -32.8980 C   0  0  1  0  0  0  0  0  0  0  0  0
   -9.0090   14.2040  -32.4740 O   0  0  0  0  0  0  0  0  0  0  0  0
   -8.9480   16.7880  -31.6380 N   0  0  0  0  0  0  0  0  0  0  0  0
   -6.8170   16.5120  -32.7400 C   0  0  0  0  0  0  0  0  0  0  0  0
   -6.0760   16.0060  -34.0310 C   0  0  0  0  0  0  0  0  0  0  0  0
   -6.4170   17.9840  -32.4950 C   0  0  0  0  0  0  0  0  0  0  0  0
  2  1  1  6
  2  3  1  0
  2  4  1  0
  5  3  1  0
  3  6  2  0
  7  4  1  0
  7  8  1  0
  7  9  2  0
  8 10  1  1
  8 11  1  0
 11 12  1  0
 11 13  1  0
A    2
 C04
A    3
 C47
A    4
 C02
A    6
 O48
A    7
 C01
A    8
 C57
A    9
 O03
A   11
 C78
A   12
 C81
A   13
 C82
M  END
>  <XChem_code>  (712) 
AG7§17

>  <Occupancy>  (712) 
[1.0, 1.0, 1.0, 1.0, 1.0, 1.0, 1.0, 1.0, 1.0, 1.0, 1.0, 1.0, 1.0, 1.0, 1.0, 1.0, 1.0, 1.0, 1.0, 1.0, 1.0, 1.0, 1.0, 1.0, 1.0, 1.0, 1.0, 1.0, 1.0, 1.0, 1.0, 1.0, 1.0, 1.0, 1.0, 1.0, 1.0, 1.0, 1.0, 1.0, 1.0, 1.0, 1.0]

>  <TempFactor>  (712) 
[11.58, 15.03, 11.83, 16.25, 16.92, 12.34, 10.54, 20.22, 18.19, 14.53, 16.52, 20.55, 23.87, 20.72, 31.66, 32.21, 24.48, 11.55, 13.92, 10.24, 11.44, 10.75, 11.87, 10.52, 48.42, 14.67, 18.9, 51.51, 20.99, 12.24, 12.71, 37.77, 32.69, 13.62, 12.02, 16.3, 16.59, 14.61, 20.42, 22.35, 13.24, 10.96, 27.55]

>  <accession>  (712) 
5WQ2_A

>  <description>  (712) 
Chain A, 3C protein [Enterovirus A71]

>  <evalue>  (712) 
1.45212e-58

>  <pdb_code>  (712) 
5WQ2

>  <chain>  (712) 
A

>  <ligands>  (712) 
[{'chain_id': 'A', 'author_residue_number': 301, 'author_insertion_code': '', 'chem_comp_id': 'AG7', 'alternate_conformers': 0, 'entity_id': 2, 'struct_asym_id': 'B', 'residue_number': 1, 'chem_comp_name': '4-{2-(4-FLUORO-BENZYL)-6-METHYL-5-[(5-METHYL-ISOXAZOLE-3-CARBONYL)-AMINO]-4-OXO-HEPTANOYLAMINO}-5-(2-OXO-PYRROLIDIN-3-YL)-PENTANOIC ACID ETHYL ESTER', 'weight': 600.678, 'carbohydrate_polymer': False, 'branch_name': ''}, {'chain_id': 'A', 'author_residue_number': 302, 'author_insertion_code': '', 'chem_comp_id': 'SO4', 'alternate_conformers': 0, 'entity_id': 3, 'struct_asym_id': 'C', 'residue_number': 1, 'chem_comp_name': 'SULFATE ION', 'weight': 96.063, 'carbohydrate_polymer': False, 'branch_name': ''}, {'chain_id': 'A', 'author_residue_number': 303, 'author_insertion_code': '', 'chem_comp_id': 'SO4', 'alternate_conformers': 0, 'entity_id': 3, 'struct_asym_id': 'D', 'residue_number': 1, 'chem_comp_name': 'SULFATE ION', 'weight': 96.063, 'carbohydrate_polymer': False, 'branch_name': ''}]

>  <ligand_codes>  (712) 
['AG7', 'SO4', 'SO4']

>  <cofactor_codes>  (712) 
[]

>  <has_cofactor>  (712) 
False

>  <covalent>  (712) 
False

>  <base_name>  (712) 
5WQ2

>  <lig_resn>  (712) 
AG7

>  <lig_resi>  (712) 
301

>  <lig_chain>  (712) 
A

>  <lig_segi>  (712) 
B

>  <lig_alt>  (712) 


>  <polymer_chain>  (712) 
A

>  <single_smiles>  (712) 
CCOC(=O)CC[C@H](C[C@@H]1CCNC1=O)NC(=O)[C@@H](CC(=O)[C@@H](NC(=O)c2cc(C)on2)C(C)C)Cc3ccc(F)cc3

$$$$
AG7P17S32
     RDKit          3D

 12 11  0  0  0  0  0  0  0  0999 V2000
   -9.8460   13.1390  -36.6190 C   0  0  0  0  0  0  0  0  0  0  0  0
   -9.5280   13.3240  -35.1010 C   0  0  2  0  0  0  0  0  0  0  0  0
   -9.1800   14.8060  -34.8540 C   0  0  0  0  0  0  0  0  0  0  0  0
   -8.3800   12.4380  -34.7380 C   0  0  0  0  0  0  0  0  0  0  0  0
   -8.8710   15.0620  -33.3170 C   0  0  0  0  0  0  0  0  0  0  0  0
   -8.6980   11.1750  -34.0820 N   0  0  0  0  0  0  0  0  0  0  0  0
   -7.2410   12.6640  -34.9600 O   0  0  0  0  0  0  0  0  0  0  0  0
   -8.3700   16.4870  -32.8980 C   0  0  0  0  0  0  0  0  0  0  0  0
   -9.0090   14.2040  -32.4740 O   0  0  0  0  0  0  0  0  0  0  0  0
   -6.8170   16.5120  -32.7400 C   0  0  0  0  0  0  0  0  0  0  0  0
   -6.0760   16.0060  -34.0310 C   0  0  0  0  0  0  0  0  0  0  0  0
   -6.4170   17.9840  -32.4950 C   0  0  0  0  0  0  0  0  0  0  0  0
  2  1  1  6
  2  3  1  0
  2  4  1  0
  5  3  1  0
  6  4  1  0
  4  7  2  0
  5  8  1  0
  5  9  2  0
  8 10  1  6
 10 11  1  0
 10 12  1  0
A    2
 C04
A    3
 C02
A    4
 C47
A    5
 C01
A    7
 O48
A    9
 O03
A   10
 C78
A   11
 C81
A   12
 C82
M  END
>  <XChem_code>  (713) 
AG7§17

>  <Occupancy>  (713) 
[1.0, 1.0, 1.0, 1.0, 1.0, 1.0, 1.0, 1.0, 1.0, 1.0, 1.0, 1.0, 1.0, 1.0, 1.0, 1.0, 1.0, 1.0, 1.0, 1.0, 1.0, 1.0, 1.0, 1.0, 1.0, 1.0, 1.0, 1.0, 1.0, 1.0, 1.0, 1.0, 1.0, 1.0, 1.0, 1.0, 1.0, 1.0, 1.0, 1.0, 1.0, 1.0, 1.0]

>  <TempFactor>  (713) 
[11.58, 15.03, 11.83, 16.25, 16.92, 12.34, 10.54, 20.22, 18.19, 14.53, 16.52, 20.55, 23.87, 20.72, 31.66, 32.21, 24.48, 11.55, 13.92, 10.24, 11.44, 10.75, 11.87, 10.52, 48.42, 14.67, 18.9, 51.51, 20.99, 12.24, 12.71, 37.77, 32.69, 13.62, 12.02, 16.3, 16.59, 14.61, 20.42, 22.35, 13.24, 10.96, 27.55]

>  <accession>  (713) 
5WQ2_A

>  <description>  (713) 
Chain A, 3C protein [Enterovirus A71]

>  <evalue>  (713) 
1.45212e-58

>  <pdb_code>  (713) 
5WQ2

>  <chain>  (713) 
A

>  <ligands>  (713) 
[{'chain_id': 'A', 'author_residue_number': 301, 'author_insertion_code': '', 'chem_comp_id': 'AG7', 'alternate_conformers': 0, 'entity_id': 2, 'struct_asym_id': 'B', 'residue_number': 1, 'chem_comp_name': '4-{2-(4-FLUORO-BENZYL)-6-METHYL-5-[(5-METHYL-ISOXAZOLE-3-CARBONYL)-AMINO]-4-OXO-HEPTANOYLAMINO}-5-(2-OXO-PYRROLIDIN-3-YL)-PENTANOIC ACID ETHYL ESTER', 'weight': 600.678, 'carbohydrate_polymer': False, 'branch_name': ''}, {'chain_id': 'A', 'author_residue_number': 302, 'author_insertion_code': '', 'chem_comp_id': 'SO4', 'alternate_conformers': 0, 'entity_id': 3, 'struct_asym_id': 'C', 'residue_number': 1, 'chem_comp_name': 'SULFATE ION', 'weight': 96.063, 'carbohydrate_polymer': False, 'branch_name': ''}, {'chain_id': 'A', 'author_residue_number': 303, 'author_insertion_code': '', 'chem_comp_id': 'SO4', 'alternate_conformers': 0, 'entity_id': 3, 'struct_asym_id': 'D', 'residue_number': 1, 'chem_comp_name': 'SULFATE ION', 'weight': 96.063, 'carbohydrate_polymer': False, 'branch_name': ''}]

>  <ligand_codes>  (713) 
['AG7', 'SO4', 'SO4']

>  <cofactor_codes>  (713) 
[]

>  <has_cofactor>  (713) 
False

>  <covalent>  (713) 
False

>  <base_name>  (713) 
5WQ2

>  <lig_resn>  (713) 
AG7

>  <lig_resi>  (713) 
301

>  <lig_chain>  (713) 
A

>  <lig_segi>  (713) 
B

>  <lig_alt>  (713) 


>  <polymer_chain>  (713) 
A

>  <single_smiles>  (713) 
CCOC(=O)CC[C@H](C[C@@H]1CCNC1=O)NC(=O)[C@@H](CC(=O)[C@@H](NC(=O)c2cc(C)on2)C(C)C)Cc3ccc(F)cc3

$$$$
AG7P17S33
     RDKit          3D

 31 31  0  0  0  0  0  0  0  0999 V2000
   -7.5780   10.0070  -32.2880 C   0  0  0  0  0  0  0  0  0  0  0  0
   -7.4890   10.4020  -33.7670 C   0  0  2  0  0  0  0  0  0  0  0  0
   -8.6980   11.1750  -34.0820 N   0  0  0  0  0  0  0  0  0  0  0  0
   -7.1530    9.1720  -34.5770 C   0  0  0  0  0  0  0  0  0  0  0  0
   -8.3800   12.4380  -34.7380 C   0  0  0  0  0  0  0  0  0  0  0  0
   -7.7220    9.1500  -35.9970 C   0  0  0  0  0  0  0  0  0  0  0  0
   -9.5280   13.3240  -35.1010 C   0  0  1  0  0  0  0  0  0  0  0  0
   -7.2410   12.6640  -34.9600 O   0  0  0  0  0  0  0  0  0  0  0  0
   -6.3220    9.0870  -36.5370 C   0  0  0  0  0  0  0  0  0  0  0  0
   -9.1800   14.8060  -34.8540 C   0  0  0  0  0  0  0  0  0  0  0  0
   -9.8460   13.1390  -36.6190 C   0  0  0  0  0  0  0  0  0  0  0  0
   -5.9840    9.6800  -37.7630 O   0  0  0  0  0  0  0  0  0  0  0  0
   -5.5050    8.5250  -35.8520 O   0  0  0  0  0  0  0  0  0  0  0  0
   -8.8710   15.0620  -33.3170 C   0  0  0  0  0  0  0  0  0  0  0  0
  -11.3040   13.7480  -36.8430 C   0  0  0  0  0  0  0  0  0  0  0  0
   -5.1310    8.8390  -38.5240 C   0  0  0  0  0  0  0  0  0  0  0  0
   -8.3700   16.4870  -32.8980 C   0  0  1  0  0  0  0  0  0  0  0  0
   -9.0090   14.2040  -32.4740 O   0  0  0  0  0  0  0  0  0  0  0  0
  -11.4550   14.8980  -37.6180 C   0  0  0  0  0  0  0  0  0  0  0  0
  -12.4120   13.1420  -36.2450 C   0  0  0  0  0  0  0  0  0  0  0  0
   -5.9360    8.4070  -39.7210 C   0  0  0  0  0  0  0  0  0  0  0  0
   -8.9480   16.7880  -31.6380 N   0  0  0  0  0  0  0  0  0  0  0  0
   -6.8170   16.5120  -32.7400 C   0  0  0  0  0  0  0  0  0  0  0  0
  -12.7210   15.4360  -37.8160 C   0  0  0  0  0  0  0  0  0  0  0  0
  -13.6940   13.6900  -36.4410 C   0  0  0  0  0  0  0  0  0  0  0  0
   -9.9620   17.8080  -31.4350 C   0  0  0  0  0  0  0  0  0  0  0  0
   -6.0760   16.0060  -34.0310 C   0  0  0  0  0  0  0  0  0  0  0  0
   -6.4170   17.9840  -32.4950 C   0  0  0  0  0  0  0  0  0  0  0  0
  -13.8390   14.8280  -37.2230 C   0  0  0  0  0  0  0  0  0  0  0  0
  -10.3830   18.4720  -32.3140 O   0  0  0  0  0  0  0  0  0  0  0  0
  -15.0820   15.3630  -37.4180 F   0  0  0  0  0  0  0  0  0  0  0  0
  2  1  1  1
  3  2  1  0
  2  4  1  0
  3  5  1  0
  4  6  1  0
  7  5  1  0
  5  8  2  0
  6  9  1  0
  7 10  1  6
  7 11  1  0
  9 12  1  0
  9 13  2  0
 14 10  1  0
 11 15  1  0
 12 16  1  0
 14 17  1  0
 14 18  2  0
 15 19  2  0
 15 20  1  0
 16 21  1  0
 17 22  1  1
 17 23  1  0
 19 24  1  0
 25 20  2  0
 22 26  1  0
 23 27  1  0
 23 28  1  0
 24 29  2  0
 29 25  1  0
 26 30  2  0
 29 31  1  0
A    2
 C13
A    3
 N12
A    4
 C19
A    5
 C47
A    6
 C20
A    7
 C04
A    8
 O48
A    9
 C21
A   10
 C02
A   11
 C05
A   12
 O22
A   13
 O23
A   14
 C01
A   15
 C06
A   16
 C50
A   17
 C57
A   18
 O03
A   19
 C07
A   20
 C11
A   21
 C53
A   22
 N58
A   23
 C78
A   24
 C08
A   25
 C10
A   27
 C81
A   28
 C82
A   29
 C09
A   30
 O60
A   31
 F1 
M  END
>  <XChem_code>  (714) 
AG7§17

>  <Occupancy>  (714) 
[1.0, 1.0, 1.0, 1.0, 1.0, 1.0, 1.0, 1.0, 1.0, 1.0, 1.0, 1.0, 1.0, 1.0, 1.0, 1.0, 1.0, 1.0, 1.0, 1.0, 1.0, 1.0, 1.0, 1.0, 1.0, 1.0, 1.0, 1.0, 1.0, 1.0, 1.0, 1.0, 1.0, 1.0, 1.0, 1.0, 1.0, 1.0, 1.0, 1.0, 1.0, 1.0, 1.0]

>  <TempFactor>  (714) 
[11.58, 15.03, 11.83, 16.25, 16.92, 12.34, 10.54, 20.22, 18.19, 14.53, 16.52, 20.55, 23.87, 20.72, 31.66, 32.21, 24.48, 11.55, 13.92, 10.24, 11.44, 10.75, 11.87, 10.52, 48.42, 14.67, 18.9, 51.51, 20.99, 12.24, 12.71, 37.77, 32.69, 13.62, 12.02, 16.3, 16.59, 14.61, 20.42, 22.35, 13.24, 10.96, 27.55]

>  <accession>  (714) 
5WQ2_A

>  <description>  (714) 
Chain A, 3C protein [Enterovirus A71]

>  <evalue>  (714) 
1.45212e-58

>  <pdb_code>  (714) 
5WQ2

>  <chain>  (714) 
A

>  <ligands>  (714) 
[{'chain_id': 'A', 'author_residue_number': 301, 'author_insertion_code': '', 'chem_comp_id': 'AG7', 'alternate_conformers': 0, 'entity_id': 2, 'struct_asym_id': 'B', 'residue_number': 1, 'chem_comp_name': '4-{2-(4-FLUORO-BENZYL)-6-METHYL-5-[(5-METHYL-ISOXAZOLE-3-CARBONYL)-AMINO]-4-OXO-HEPTANOYLAMINO}-5-(2-OXO-PYRROLIDIN-3-YL)-PENTANOIC ACID ETHYL ESTER', 'weight': 600.678, 'carbohydrate_polymer': False, 'branch_name': ''}, {'chain_id': 'A', 'author_residue_number': 302, 'author_insertion_code': '', 'chem_comp_id': 'SO4', 'alternate_conformers': 0, 'entity_id': 3, 'struct_asym_id': 'C', 'residue_number': 1, 'chem_comp_name': 'SULFATE ION', 'weight': 96.063, 'carbohydrate_polymer': False, 'branch_name': ''}, {'chain_id': 'A', 'author_residue_number': 303, 'author_insertion_code': '', 'chem_comp_id': 'SO4', 'alternate_conformers': 0, 'entity_id': 3, 'struct_asym_id': 'D', 'residue_number': 1, 'chem_comp_name': 'SULFATE ION', 'weight': 96.063, 'carbohydrate_polymer': False, 'branch_name': ''}]

>  <ligand_codes>  (714) 
['AG7', 'SO4', 'SO4']

>  <cofactor_codes>  (714) 
[]

>  <has_cofactor>  (714) 
False

>  <covalent>  (714) 
False

>  <base_name>  (714) 
5WQ2

>  <lig_resn>  (714) 
AG7

>  <lig_resi>  (714) 
301

>  <lig_chain>  (714) 
A

>  <lig_segi>  (714) 
B

>  <lig_alt>  (714) 


>  <polymer_chain>  (714) 
A

>  <single_smiles>  (714) 
CCOC(=O)CC[C@H](C[C@@H]1CCNC1=O)NC(=O)[C@@H](CC(=O)[C@@H](NC(=O)c2cc(C)on2)C(C)C)Cc3ccc(F)cc3

$$$$
AG7P17S34
     RDKit          3D

 30 30  0  0  0  0  0  0  0  0999 V2000
   -9.8460   13.1390  -36.6190 C   0  0  0  0  0  0  0  0  0  0  0  0
   -9.5280   13.3240  -35.1010 C   0  0  2  0  0  0  0  0  0  0  0  0
   -9.1800   14.8060  -34.8540 C   0  0  0  0  0  0  0  0  0  0  0  0
   -8.3800   12.4380  -34.7380 C   0  0  0  0  0  0  0  0  0  0  0  0
   -8.8710   15.0620  -33.3170 C   0  0  0  0  0  0  0  0  0  0  0  0
   -8.6980   11.1750  -34.0820 N   0  0  0  0  0  0  0  0  0  0  0  0
   -7.2410   12.6640  -34.9600 O   0  0  0  0  0  0  0  0  0  0  0  0
   -8.3700   16.4870  -32.8980 C   0  0  1  0  0  0  0  0  0  0  0  0
   -9.0090   14.2040  -32.4740 O   0  0  0  0  0  0  0  0  0  0  0  0
   -7.4890   10.4020  -33.7670 C   0  0  1  0  0  0  0  0  0  0  0  0
   -8.9480   16.7880  -31.6380 N   0  0  0  0  0  0  0  0  0  0  0  0
   -6.8170   16.5120  -32.7400 C   0  0  0  0  0  0  0  0  0  0  0  0
   -7.5780   10.0070  -32.2880 C   0  0  0  0  0  0  0  0  0  0  0  0
   -7.1530    9.1720  -34.5770 C   0  0  0  0  0  0  0  0  0  0  0  0
   -9.9620   17.8080  -31.4350 C   0  0  0  0  0  0  0  0  0  0  0  0
   -6.0760   16.0060  -34.0310 C   0  0  0  0  0  0  0  0  0  0  0  0
   -6.4170   17.9840  -32.4950 C   0  0  0  0  0  0  0  0  0  0  0  0
   -7.0980   11.3050  -31.5740 C   0  0  1  0  0  0  0  0  0  0  0  0
   -7.7220    9.1500  -35.9970 C   0  0  0  0  0  0  0  0  0  0  0  0
  -10.3830   18.4720  -32.3140 O   0  0  0  0  0  0  0  0  0  0  0  0
   -7.0220   11.0820  -29.9910 C   0  0  0  0  0  0  0  0  0  0  0  0
   -5.8430   11.7240  -31.9670 C   0  0  0  0  0  0  0  0  0  0  0  0
   -6.3220    9.0870  -36.5370 C   0  0  0  0  0  0  0  0  0  0  0  0
   -6.0040   11.8390  -29.5420 N   0  0  0  0  0  0  0  0  0  0  0  0
   -7.7390   10.4090  -29.3110 O   0  0  0  0  0  0  0  0  0  0  0  0
   -5.3380   12.5590  -30.7110 C   0  0  0  0  0  0  0  0  0  0  0  0
   -5.9840    9.6800  -37.7630 O   0  0  0  0  0  0  0  0  0  0  0  0
   -5.5050    8.5250  -35.8520 O   0  0  0  0  0  0  0  0  0  0  0  0
   -5.1310    8.8390  -38.5240 C   0  0  0  0  0  0  0  0  0  0  0  0
   -5.9360    8.4070  -39.7210 C   0  0  0  0  0  0  0  0  0  0  0  0
  2  1  1  6
  2  3  1  0
  2  4  1  0
  5  3  1  0
  6  4  1  0
  4  7  2  0
  5  8  1  0
  5  9  2  0
  6 10  1  0
  8 11  1  1
  8 12  1  0
 10 13  1  1
 10 14  1  0
 11 15  1  0
 12 16  1  0
 12 17  1  0
 18 13  1  6
 14 19  1  0
 15 20  2  0
 18 21  1  0
 18 22  1  0
 19 23  1  0
 21 24  1  0
 21 25  2  0
 26 22  1  0
 23 27  1  0
 23 28  2  0
 24 26  1  0
 27 29  1  0
 29 30  1  0
A    2
 C04
A    3
 C02
A    4
 C47
A    5
 C01
A    6
 N12
A    7
 O48
A    8
 C57
A    9
 O03
A   10
 C13
A   11
 N58
A   12
 C78
A   13
 C14
A   14
 C19
A   16
 C81
A   17
 C82
A   18
 C15
A   19
 C20
A   20
 O60
A   21
 C16
A   22
 C84
A   23
 C21
A   24
 N17
A   25
 O18
A   26
 C83
A   27
 O22
A   28
 O23
A   29
 C50
A   30
 C53
M  END
>  <XChem_code>  (715) 
AG7§17

>  <Occupancy>  (715) 
[1.0, 1.0, 1.0, 1.0, 1.0, 1.0, 1.0, 1.0, 1.0, 1.0, 1.0, 1.0, 1.0, 1.0, 1.0, 1.0, 1.0, 1.0, 1.0, 1.0, 1.0, 1.0, 1.0, 1.0, 1.0, 1.0, 1.0, 1.0, 1.0, 1.0, 1.0, 1.0, 1.0, 1.0, 1.0, 1.0, 1.0, 1.0, 1.0, 1.0, 1.0, 1.0, 1.0]

>  <TempFactor>  (715) 
[11.58, 15.03, 11.83, 16.25, 16.92, 12.34, 10.54, 20.22, 18.19, 14.53, 16.52, 20.55, 23.87, 20.72, 31.66, 32.21, 24.48, 11.55, 13.92, 10.24, 11.44, 10.75, 11.87, 10.52, 48.42, 14.67, 18.9, 51.51, 20.99, 12.24, 12.71, 37.77, 32.69, 13.62, 12.02, 16.3, 16.59, 14.61, 20.42, 22.35, 13.24, 10.96, 27.55]

>  <accession>  (715) 
5WQ2_A

>  <description>  (715) 
Chain A, 3C protein [Enterovirus A71]

>  <evalue>  (715) 
1.45212e-58

>  <pdb_code>  (715) 
5WQ2

>  <chain>  (715) 
A

>  <ligands>  (715) 
[{'chain_id': 'A', 'author_residue_number': 301, 'author_insertion_code': '', 'chem_comp_id': 'AG7', 'alternate_conformers': 0, 'entity_id': 2, 'struct_asym_id': 'B', 'residue_number': 1, 'chem_comp_name': '4-{2-(4-FLUORO-BENZYL)-6-METHYL-5-[(5-METHYL-ISOXAZOLE-3-CARBONYL)-AMINO]-4-OXO-HEPTANOYLAMINO}-5-(2-OXO-PYRROLIDIN-3-YL)-PENTANOIC ACID ETHYL ESTER', 'weight': 600.678, 'carbohydrate_polymer': False, 'branch_name': ''}, {'chain_id': 'A', 'author_residue_number': 302, 'author_insertion_code': '', 'chem_comp_id': 'SO4', 'alternate_conformers': 0, 'entity_id': 3, 'struct_asym_id': 'C', 'residue_number': 1, 'chem_comp_name': 'SULFATE ION', 'weight': 96.063, 'carbohydrate_polymer': False, 'branch_name': ''}, {'chain_id': 'A', 'author_residue_number': 303, 'author_insertion_code': '', 'chem_comp_id': 'SO4', 'alternate_conformers': 0, 'entity_id': 3, 'struct_asym_id': 'D', 'residue_number': 1, 'chem_comp_name': 'SULFATE ION', 'weight': 96.063, 'carbohydrate_polymer': False, 'branch_name': ''}]

>  <ligand_codes>  (715) 
['AG7', 'SO4', 'SO4']

>  <cofactor_codes>  (715) 
[]

>  <has_cofactor>  (715) 
False

>  <covalent>  (715) 
False

>  <base_name>  (715) 
5WQ2

>  <lig_resn>  (715) 
AG7

>  <lig_resi>  (715) 
301

>  <lig_chain>  (715) 
A

>  <lig_segi>  (715) 
B

>  <lig_alt>  (715) 


>  <polymer_chain>  (715) 
A

>  <single_smiles>  (715) 
CCOC(=O)CC[C@H](C[C@@H]1CCNC1=O)NC(=O)[C@@H](CC(=O)[C@@H](NC(=O)c2cc(C)on2)C(C)C)Cc3ccc(F)cc3

$$$$
AG7P17S35
     RDKit          3D

 14 13  0  0  0  0  0  0  0  0999 V2000
   -9.8460   13.1390  -36.6190 C   0  0  0  0  0  0  0  0  0  0  0  0
   -9.5280   13.3240  -35.1010 C   0  0  2  0  0  0  0  0  0  0  0  0
   -9.1800   14.8060  -34.8540 C   0  0  0  0  0  0  0  0  0  0  0  0
   -8.3800   12.4380  -34.7380 C   0  0  0  0  0  0  0  0  0  0  0  0
   -8.8710   15.0620  -33.3170 C   0  0  0  0  0  0  0  0  0  0  0  0
   -7.2410   12.6640  -34.9600 O   0  0  0  0  0  0  0  0  0  0  0  0
   -8.3700   16.4870  -32.8980 C   0  0  1  0  0  0  0  0  0  0  0  0
   -9.0090   14.2040  -32.4740 O   0  0  0  0  0  0  0  0  0  0  0  0
   -8.9480   16.7880  -31.6380 N   0  0  0  0  0  0  0  0  0  0  0  0
   -6.8170   16.5120  -32.7400 C   0  0  0  0  0  0  0  0  0  0  0  0
   -9.9620   17.8080  -31.4350 C   0  0  0  0  0  0  0  0  0  0  0  0
   -6.0760   16.0060  -34.0310 C   0  0  0  0  0  0  0  0  0  0  0  0
   -6.4170   17.9840  -32.4950 C   0  0  0  0  0  0  0  0  0  0  0  0
  -10.3830   18.4720  -32.3140 O   0  0  0  0  0  0  0  0  0  0  0  0
  2  1  1  6
  2  3  1  0
  2  4  1  0
  5  3  1  0
  4  6  2  0
  5  7  1  0
  5  8  2  0
  7  9  1  1
  7 10  1  0
  9 11  1  0
 10 12  1  0
 10 13  1  0
 11 14  2  0
A    2
 C04
A    3
 C02
A    5
 C01
A    6
 O48
A    7
 C57
A    8
 O03
A    9
 N58
A   10
 C78
A   12
 C81
A   13
 C82
A   14
 O60
M  END
>  <XChem_code>  (716) 
AG7§17

>  <Occupancy>  (716) 
[1.0, 1.0, 1.0, 1.0, 1.0, 1.0, 1.0, 1.0, 1.0, 1.0, 1.0, 1.0, 1.0, 1.0, 1.0, 1.0, 1.0, 1.0, 1.0, 1.0, 1.0, 1.0, 1.0, 1.0, 1.0, 1.0, 1.0, 1.0, 1.0, 1.0, 1.0, 1.0, 1.0, 1.0, 1.0, 1.0, 1.0, 1.0, 1.0, 1.0, 1.0, 1.0, 1.0]

>  <TempFactor>  (716) 
[11.58, 15.03, 11.83, 16.25, 16.92, 12.34, 10.54, 20.22, 18.19, 14.53, 16.52, 20.55, 23.87, 20.72, 31.66, 32.21, 24.48, 11.55, 13.92, 10.24, 11.44, 10.75, 11.87, 10.52, 48.42, 14.67, 18.9, 51.51, 20.99, 12.24, 12.71, 37.77, 32.69, 13.62, 12.02, 16.3, 16.59, 14.61, 20.42, 22.35, 13.24, 10.96, 27.55]

>  <accession>  (716) 
5WQ2_A

>  <description>  (716) 
Chain A, 3C protein [Enterovirus A71]

>  <evalue>  (716) 
1.45212e-58

>  <pdb_code>  (716) 
5WQ2

>  <chain>  (716) 
A

>  <ligands>  (716) 
[{'chain_id': 'A', 'author_residue_number': 301, 'author_insertion_code': '', 'chem_comp_id': 'AG7', 'alternate_conformers': 0, 'entity_id': 2, 'struct_asym_id': 'B', 'residue_number': 1, 'chem_comp_name': '4-{2-(4-FLUORO-BENZYL)-6-METHYL-5-[(5-METHYL-ISOXAZOLE-3-CARBONYL)-AMINO]-4-OXO-HEPTANOYLAMINO}-5-(2-OXO-PYRROLIDIN-3-YL)-PENTANOIC ACID ETHYL ESTER', 'weight': 600.678, 'carbohydrate_polymer': False, 'branch_name': ''}, {'chain_id': 'A', 'author_residue_number': 302, 'author_insertion_code': '', 'chem_comp_id': 'SO4', 'alternate_conformers': 0, 'entity_id': 3, 'struct_asym_id': 'C', 'residue_number': 1, 'chem_comp_name': 'SULFATE ION', 'weight': 96.063, 'carbohydrate_polymer': False, 'branch_name': ''}, {'chain_id': 'A', 'author_residue_number': 303, 'author_insertion_code': '', 'chem_comp_id': 'SO4', 'alternate_conformers': 0, 'entity_id': 3, 'struct_asym_id': 'D', 'residue_number': 1, 'chem_comp_name': 'SULFATE ION', 'weight': 96.063, 'carbohydrate_polymer': False, 'branch_name': ''}]

>  <ligand_codes>  (716) 
['AG7', 'SO4', 'SO4']

>  <cofactor_codes>  (716) 
[]

>  <has_cofactor>  (716) 
False

>  <covalent>  (716) 
False

>  <base_name>  (716) 
5WQ2

>  <lig_resn>  (716) 
AG7

>  <lig_resi>  (716) 
301

>  <lig_chain>  (716) 
A

>  <lig_segi>  (716) 
B

>  <lig_alt>  (716) 


>  <polymer_chain>  (716) 
A

>  <single_smiles>  (716) 
CCOC(=O)CC[C@H](C[C@@H]1CCNC1=O)NC(=O)[C@@H](CC(=O)[C@@H](NC(=O)c2cc(C)on2)C(C)C)Cc3ccc(F)cc3

$$$$
AG7P17S36
     RDKit          3D

 15 14  0  0  0  0  0  0  0  0999 V2000
   -9.8460   13.1390  -36.6190 C   0  0  0  0  0  0  0  0  0  0  0  0
   -9.5280   13.3240  -35.1010 C   0  0  2  0  0  0  0  0  0  0  0  0
   -9.1800   14.8060  -34.8540 C   0  0  0  0  0  0  0  0  0  0  0  0
   -8.3800   12.4380  -34.7380 C   0  0  0  0  0  0  0  0  0  0  0  0
   -8.8710   15.0620  -33.3170 C   0  0  0  0  0  0  0  0  0  0  0  0
   -8.6980   11.1750  -34.0820 N   0  0  0  0  0  0  0  0  0  0  0  0
   -7.2410   12.6640  -34.9600 O   0  0  0  0  0  0  0  0  0  0  0  0
   -8.3700   16.4870  -32.8980 C   0  0  1  0  0  0  0  0  0  0  0  0
   -9.0090   14.2040  -32.4740 O   0  0  0  0  0  0  0  0  0  0  0  0
   -8.9480   16.7880  -31.6380 N   0  0  0  0  0  0  0  0  0  0  0  0
   -6.8170   16.5120  -32.7400 C   0  0  0  0  0  0  0  0  0  0  0  0
   -9.9620   17.8080  -31.4350 C   0  0  0  0  0  0  0  0  0  0  0  0
   -6.0760   16.0060  -34.0310 C   0  0  0  0  0  0  0  0  0  0  0  0
   -6.4170   17.9840  -32.4950 C   0  0  0  0  0  0  0  0  0  0  0  0
  -10.3830   18.4720  -32.3140 O   0  0  0  0  0  0  0  0  0  0  0  0
  2  1  1  6
  2  3  1  0
  2  4  1  0
  5  3  1  0
  6  4  1  0
  4  7  2  0
  5  8  1  0
  5  9  2  0
  8 10  1  1
  8 11  1  0
 10 12  1  0
 11 13  1  0
 11 14  1  0
 12 15  2  0
A    2
 C04
A    3
 C02
A    4
 C47
A    5
 C01
A    7
 O48
A    8
 C57
A    9
 O03
A   10
 N58
A   11
 C78
A   13
 C81
A   14
 C82
A   15
 O60
M  END
>  <XChem_code>  (717) 
AG7§17

>  <Occupancy>  (717) 
[1.0, 1.0, 1.0, 1.0, 1.0, 1.0, 1.0, 1.0, 1.0, 1.0, 1.0, 1.0, 1.0, 1.0, 1.0, 1.0, 1.0, 1.0, 1.0, 1.0, 1.0, 1.0, 1.0, 1.0, 1.0, 1.0, 1.0, 1.0, 1.0, 1.0, 1.0, 1.0, 1.0, 1.0, 1.0, 1.0, 1.0, 1.0, 1.0, 1.0, 1.0, 1.0, 1.0]

>  <TempFactor>  (717) 
[11.58, 15.03, 11.83, 16.25, 16.92, 12.34, 10.54, 20.22, 18.19, 14.53, 16.52, 20.55, 23.87, 20.72, 31.66, 32.21, 24.48, 11.55, 13.92, 10.24, 11.44, 10.75, 11.87, 10.52, 48.42, 14.67, 18.9, 51.51, 20.99, 12.24, 12.71, 37.77, 32.69, 13.62, 12.02, 16.3, 16.59, 14.61, 20.42, 22.35, 13.24, 10.96, 27.55]

>  <accession>  (717) 
5WQ2_A

>  <description>  (717) 
Chain A, 3C protein [Enterovirus A71]

>  <evalue>  (717) 
1.45212e-58

>  <pdb_code>  (717) 
5WQ2

>  <chain>  (717) 
A

>  <ligands>  (717) 
[{'chain_id': 'A', 'author_residue_number': 301, 'author_insertion_code': '', 'chem_comp_id': 'AG7', 'alternate_conformers': 0, 'entity_id': 2, 'struct_asym_id': 'B', 'residue_number': 1, 'chem_comp_name': '4-{2-(4-FLUORO-BENZYL)-6-METHYL-5-[(5-METHYL-ISOXAZOLE-3-CARBONYL)-AMINO]-4-OXO-HEPTANOYLAMINO}-5-(2-OXO-PYRROLIDIN-3-YL)-PENTANOIC ACID ETHYL ESTER', 'weight': 600.678, 'carbohydrate_polymer': False, 'branch_name': ''}, {'chain_id': 'A', 'author_residue_number': 302, 'author_insertion_code': '', 'chem_comp_id': 'SO4', 'alternate_conformers': 0, 'entity_id': 3, 'struct_asym_id': 'C', 'residue_number': 1, 'chem_comp_name': 'SULFATE ION', 'weight': 96.063, 'carbohydrate_polymer': False, 'branch_name': ''}, {'chain_id': 'A', 'author_residue_number': 303, 'author_insertion_code': '', 'chem_comp_id': 'SO4', 'alternate_conformers': 0, 'entity_id': 3, 'struct_asym_id': 'D', 'residue_number': 1, 'chem_comp_name': 'SULFATE ION', 'weight': 96.063, 'carbohydrate_polymer': False, 'branch_name': ''}]

>  <ligand_codes>  (717) 
['AG7', 'SO4', 'SO4']

>  <cofactor_codes>  (717) 
[]

>  <has_cofactor>  (717) 
False

>  <covalent>  (717) 
False

>  <base_name>  (717) 
5WQ2

>  <lig_resn>  (717) 
AG7

>  <lig_resi>  (717) 
301

>  <lig_chain>  (717) 
A

>  <lig_segi>  (717) 
B

>  <lig_alt>  (717) 


>  <polymer_chain>  (717) 
A

>  <single_smiles>  (717) 
CCOC(=O)CC[C@H](C[C@@H]1CCNC1=O)NC(=O)[C@@H](CC(=O)[C@@H](NC(=O)c2cc(C)on2)C(C)C)Cc3ccc(F)cc3

$$$$
AG7P17S37
     RDKit          3D

 30 30  0  0  0  0  0  0  0  0999 V2000
   -9.8460   13.1390  -36.6190 C   0  0  0  0  0  0  0  0  0  0  0  0
   -9.5280   13.3240  -35.1010 C   0  0  1  0  0  0  0  0  0  0  0  0
   -8.3800   12.4380  -34.7380 C   0  0  0  0  0  0  0  0  0  0  0  0
   -9.1800   14.8060  -34.8540 C   0  0  0  0  0  0  0  0  0  0  0  0
   -8.6980   11.1750  -34.0820 N   0  0  0  0  0  0  0  0  0  0  0  0
   -7.2410   12.6640  -34.9600 O   0  0  0  0  0  0  0  0  0  0  0  0
   -8.8710   15.0620  -33.3170 C   0  0  0  0  0  0  0  0  0  0  0  0
   -7.4890   10.4020  -33.7670 C   0  0  1  0  0  0  0  0  0  0  0  0
   -9.0090   14.2040  -32.4740 O   0  0  0  0  0  0  0  0  0  0  0  0
   -8.3700   16.4870  -32.8980 C   0  0  1  0  0  0  0  0  0  0  0  0
   -7.5780   10.0070  -32.2880 C   0  0  0  0  0  0  0  0  0  0  0  0
   -7.1530    9.1720  -34.5770 C   0  0  0  0  0  0  0  0  0  0  0  0
   -8.9480   16.7880  -31.6380 N   0  0  0  0  0  0  0  0  0  0  0  0
   -6.8170   16.5120  -32.7400 C   0  0  0  0  0  0  0  0  0  0  0  0
   -7.7220    9.1500  -35.9970 C   0  0  0  0  0  0  0  0  0  0  0  0
   -9.9620   17.8080  -31.4350 C   0  0  0  0  0  0  0  0  0  0  0  0
   -6.0760   16.0060  -34.0310 C   0  0  0  0  0  0  0  0  0  0  0  0
   -6.4170   17.9840  -32.4950 C   0  0  0  0  0  0  0  0  0  0  0  0
   -6.3220    9.0870  -36.5370 C   0  0  0  0  0  0  0  0  0  0  0  0
  -10.4440   17.9550  -29.9640 C   0  0  0  0  0  0  0  0  0  0  0  0
  -10.3830   18.4720  -32.3140 O   0  0  0  0  0  0  0  0  0  0  0  0
   -5.9840    9.6800  -37.7630 O   0  0  0  0  0  0  0  0  0  0  0  0
   -5.5050    8.5250  -35.8520 O   0  0  0  0  0  0  0  0  0  0  0  0
  -11.4110   18.8030  -29.4810 C   0  0  0  0  0  0  0  0  0  0  0  0
   -9.9470   17.2590  -28.9530 N   0  0  0  0  0  0  0  0  0  0  0  0
   -5.1310    8.8390  -38.5240 C   0  0  0  0  0  0  0  0  0  0  0  0
  -11.4910   18.5900  -28.1400 C   0  0  0  0  0  0  0  0  0  0  0  0
  -10.5980   17.6430  -27.8020 O   0  0  0  0  0  0  0  0  0  0  0  0
   -5.9360    8.4070  -39.7210 C   0  0  0  0  0  0  0  0  0  0  0  0
  -12.4230   19.2880  -27.1820 C   0  0  0  0  0  0  0  0  0  0  0  0
  2  1  1  6
  2  3  1  0
  2  4  1  0
  5  3  1  0
  3  6  2  0
  7  4  1  0
  5  8  1  0
  7  9  2  0
  7 10  1  0
  8 11  1  1
  8 12  1  0
 10 13  1  1
 10 14  1  0
 12 15  1  0
 13 16  1  0
 14 17  1  0
 14 18  1  0
 15 19  1  0
 20 16  1  0
 16 21  2  0
 19 22  1  0
 19 23  2  0
 20 24  1  0
 20 25  2  0
 22 26  1  0
 24 27  2  0
 28 25  1  0
 26 29  1  0
 27 30  1  0
 27 28  1  0
A    2
 C04
A    3
 C47
A    4
 C02
A    5
 N12
A    6
 O48
A    7
 C01
A    8
 C13
A    9
 O03
A   10
 C57
A   12
 C19
A   13
 N58
A   14
 C78
A   15
 C20
A   16
 C59
A   17
 C81
A   18
 C82
A   19
 C21
A   20
 C1 
A   21
 O60
A   22
 O22
A   23
 O23
A   24
 C2 
A   25
 N5 
A   26
 C50
A   27
 C3 
A   28
 O4 
A   29
 C53
A   30
 C4 
M  END
>  <XChem_code>  (718) 
AG7§17

>  <Occupancy>  (718) 
[1.0, 1.0, 1.0, 1.0, 1.0, 1.0, 1.0, 1.0, 1.0, 1.0, 1.0, 1.0, 1.0, 1.0, 1.0, 1.0, 1.0, 1.0, 1.0, 1.0, 1.0, 1.0, 1.0, 1.0, 1.0, 1.0, 1.0, 1.0, 1.0, 1.0, 1.0, 1.0, 1.0, 1.0, 1.0, 1.0, 1.0, 1.0, 1.0, 1.0, 1.0, 1.0, 1.0]

>  <TempFactor>  (718) 
[11.58, 15.03, 11.83, 16.25, 16.92, 12.34, 10.54, 20.22, 18.19, 14.53, 16.52, 20.55, 23.87, 20.72, 31.66, 32.21, 24.48, 11.55, 13.92, 10.24, 11.44, 10.75, 11.87, 10.52, 48.42, 14.67, 18.9, 51.51, 20.99, 12.24, 12.71, 37.77, 32.69, 13.62, 12.02, 16.3, 16.59, 14.61, 20.42, 22.35, 13.24, 10.96, 27.55]

>  <accession>  (718) 
5WQ2_A

>  <description>  (718) 
Chain A, 3C protein [Enterovirus A71]

>  <evalue>  (718) 
1.45212e-58

>  <pdb_code>  (718) 
5WQ2

>  <chain>  (718) 
A

>  <ligands>  (718) 
[{'chain_id': 'A', 'author_residue_number': 301, 'author_insertion_code': '', 'chem_comp_id': 'AG7', 'alternate_conformers': 0, 'entity_id': 2, 'struct_asym_id': 'B', 'residue_number': 1, 'chem_comp_name': '4-{2-(4-FLUORO-BENZYL)-6-METHYL-5-[(5-METHYL-ISOXAZOLE-3-CARBONYL)-AMINO]-4-OXO-HEPTANOYLAMINO}-5-(2-OXO-PYRROLIDIN-3-YL)-PENTANOIC ACID ETHYL ESTER', 'weight': 600.678, 'carbohydrate_polymer': False, 'branch_name': ''}, {'chain_id': 'A', 'author_residue_number': 302, 'author_insertion_code': '', 'chem_comp_id': 'SO4', 'alternate_conformers': 0, 'entity_id': 3, 'struct_asym_id': 'C', 'residue_number': 1, 'chem_comp_name': 'SULFATE ION', 'weight': 96.063, 'carbohydrate_polymer': False, 'branch_name': ''}, {'chain_id': 'A', 'author_residue_number': 303, 'author_insertion_code': '', 'chem_comp_id': 'SO4', 'alternate_conformers': 0, 'entity_id': 3, 'struct_asym_id': 'D', 'residue_number': 1, 'chem_comp_name': 'SULFATE ION', 'weight': 96.063, 'carbohydrate_polymer': False, 'branch_name': ''}]

>  <ligand_codes>  (718) 
['AG7', 'SO4', 'SO4']

>  <cofactor_codes>  (718) 
[]

>  <has_cofactor>  (718) 
False

>  <covalent>  (718) 
False

>  <base_name>  (718) 
5WQ2

>  <lig_resn>  (718) 
AG7

>  <lig_resi>  (718) 
301

>  <lig_chain>  (718) 
A

>  <lig_segi>  (718) 
B

>  <lig_alt>  (718) 


>  <polymer_chain>  (718) 
A

>  <single_smiles>  (718) 
CCOC(=O)CC[C@H](C[C@@H]1CCNC1=O)NC(=O)[C@@H](CC(=O)[C@@H](NC(=O)c2cc(C)on2)C(C)C)Cc3ccc(F)cc3

$$$$
AG7P17S38
     RDKit          3D

 22 21  0  0  0  0  0  0  0  0999 V2000
   -9.8460   13.1390  -36.6190 C   0  0  0  0  0  0  0  0  0  0  0  0
   -9.5280   13.3240  -35.1010 C   0  0  1  0  0  0  0  0  0  0  0  0
   -8.3800   12.4380  -34.7380 C   0  0  0  0  0  0  0  0  0  0  0  0
   -9.1800   14.8060  -34.8540 C   0  0  0  0  0  0  0  0  0  0  0  0
   -8.6980   11.1750  -34.0820 N   0  0  0  0  0  0  0  0  0  0  0  0
   -7.2410   12.6640  -34.9600 O   0  0  0  0  0  0  0  0  0  0  0  0
   -8.8710   15.0620  -33.3170 C   0  0  0  0  0  0  0  0  0  0  0  0
   -7.4890   10.4020  -33.7670 C   0  0  1  0  0  0  0  0  0  0  0  0
   -8.3700   16.4870  -32.8980 C   0  0  1  0  0  0  0  0  0  0  0  0
   -9.0090   14.2040  -32.4740 O   0  0  0  0  0  0  0  0  0  0  0  0
   -7.5780   10.0070  -32.2880 C   0  0  0  0  0  0  0  0  0  0  0  0
   -7.1530    9.1720  -34.5770 C   0  0  0  0  0  0  0  0  0  0  0  0
   -8.9480   16.7880  -31.6380 N   0  0  0  0  0  0  0  0  0  0  0  0
   -6.8170   16.5120  -32.7400 C   0  0  0  0  0  0  0  0  0  0  0  0
   -7.7220    9.1500  -35.9970 C   0  0  0  0  0  0  0  0  0  0  0  0
   -6.0760   16.0060  -34.0310 C   0  0  0  0  0  0  0  0  0  0  0  0
   -6.4170   17.9840  -32.4950 C   0  0  0  0  0  0  0  0  0  0  0  0
   -6.3220    9.0870  -36.5370 C   0  0  0  0  0  0  0  0  0  0  0  0
   -5.9840    9.6800  -37.7630 O   0  0  0  0  0  0  0  0  0  0  0  0
   -5.5050    8.5250  -35.8520 O   0  0  0  0  0  0  0  0  0  0  0  0
   -5.1310    8.8390  -38.5240 C   0  0  0  0  0  0  0  0  0  0  0  0
   -5.9360    8.4070  -39.7210 C   0  0  0  0  0  0  0  0  0  0  0  0
  2  1  1  6
  2  3  1  0
  2  4  1  0
  5  3  1  0
  3  6  2  0
  7  4  1  0
  5  8  1  0
  7  9  1  0
  7 10  2  0
  8 11  1  1
  8 12  1  0
  9 13  1  1
  9 14  1  0
 12 15  1  0
 14 16  1  0
 14 17  1  0
 15 18  1  0
 18 19  1  0
 18 20  2  0
 19 21  1  0
 21 22  1  0
A    2
 C04
A    3
 C47
A    4
 C02
A    5
 N12
A    6
 O48
A    7
 C01
A    8
 C13
A    9
 C57
A   10
 O03
A   12
 C19
A   14
 C78
A   15
 C20
A   16
 C81
A   17
 C82
A   18
 C21
A   19
 O22
A   20
 O23
A   21
 C50
A   22
 C53
M  END
>  <XChem_code>  (719) 
AG7§17

>  <Occupancy>  (719) 
[1.0, 1.0, 1.0, 1.0, 1.0, 1.0, 1.0, 1.0, 1.0, 1.0, 1.0, 1.0, 1.0, 1.0, 1.0, 1.0, 1.0, 1.0, 1.0, 1.0, 1.0, 1.0, 1.0, 1.0, 1.0, 1.0, 1.0, 1.0, 1.0, 1.0, 1.0, 1.0, 1.0, 1.0, 1.0, 1.0, 1.0, 1.0, 1.0, 1.0, 1.0, 1.0, 1.0]

>  <TempFactor>  (719) 
[11.58, 15.03, 11.83, 16.25, 16.92, 12.34, 10.54, 20.22, 18.19, 14.53, 16.52, 20.55, 23.87, 20.72, 31.66, 32.21, 24.48, 11.55, 13.92, 10.24, 11.44, 10.75, 11.87, 10.52, 48.42, 14.67, 18.9, 51.51, 20.99, 12.24, 12.71, 37.77, 32.69, 13.62, 12.02, 16.3, 16.59, 14.61, 20.42, 22.35, 13.24, 10.96, 27.55]

>  <accession>  (719) 
5WQ2_A

>  <description>  (719) 
Chain A, 3C protein [Enterovirus A71]

>  <evalue>  (719) 
1.45212e-58

>  <pdb_code>  (719) 
5WQ2

>  <chain>  (719) 
A

>  <ligands>  (719) 
[{'chain_id': 'A', 'author_residue_number': 301, 'author_insertion_code': '', 'chem_comp_id': 'AG7', 'alternate_conformers': 0, 'entity_id': 2, 'struct_asym_id': 'B', 'residue_number': 1, 'chem_comp_name': '4-{2-(4-FLUORO-BENZYL)-6-METHYL-5-[(5-METHYL-ISOXAZOLE-3-CARBONYL)-AMINO]-4-OXO-HEPTANOYLAMINO}-5-(2-OXO-PYRROLIDIN-3-YL)-PENTANOIC ACID ETHYL ESTER', 'weight': 600.678, 'carbohydrate_polymer': False, 'branch_name': ''}, {'chain_id': 'A', 'author_residue_number': 302, 'author_insertion_code': '', 'chem_comp_id': 'SO4', 'alternate_conformers': 0, 'entity_id': 3, 'struct_asym_id': 'C', 'residue_number': 1, 'chem_comp_name': 'SULFATE ION', 'weight': 96.063, 'carbohydrate_polymer': False, 'branch_name': ''}, {'chain_id': 'A', 'author_residue_number': 303, 'author_insertion_code': '', 'chem_comp_id': 'SO4', 'alternate_conformers': 0, 'entity_id': 3, 'struct_asym_id': 'D', 'residue_number': 1, 'chem_comp_name': 'SULFATE ION', 'weight': 96.063, 'carbohydrate_polymer': False, 'branch_name': ''}]

>  <ligand_codes>  (719) 
['AG7', 'SO4', 'SO4']

>  <cofactor_codes>  (719) 
[]

>  <has_cofactor>  (719) 
False

>  <covalent>  (719) 
False

>  <base_name>  (719) 
5WQ2

>  <lig_resn>  (719) 
AG7

>  <lig_resi>  (719) 
301

>  <lig_chain>  (719) 
A

>  <lig_segi>  (719) 
B

>  <lig_alt>  (719) 


>  <polymer_chain>  (719) 
A

>  <single_smiles>  (719) 
CCOC(=O)CC[C@H](C[C@@H]1CCNC1=O)NC(=O)[C@@H](CC(=O)[C@@H](NC(=O)c2cc(C)on2)C(C)C)Cc3ccc(F)cc3

$$$$
AG7P17S39
     RDKit          3D

 21 20  0  0  0  0  0  0  0  0999 V2000
   -9.8460   13.1390  -36.6190 C   0  0  0  0  0  0  0  0  0  0  0  0
   -9.5280   13.3240  -35.1010 C   0  0  1  0  0  0  0  0  0  0  0  0
   -8.3800   12.4380  -34.7380 C   0  0  0  0  0  0  0  0  0  0  0  0
   -9.1800   14.8060  -34.8540 C   0  0  0  0  0  0  0  0  0  0  0  0
   -8.6980   11.1750  -34.0820 N   0  0  0  0  0  0  0  0  0  0  0  0
   -7.2410   12.6640  -34.9600 O   0  0  0  0  0  0  0  0  0  0  0  0
   -8.8710   15.0620  -33.3170 C   0  0  0  0  0  0  0  0  0  0  0  0
   -7.4890   10.4020  -33.7670 C   0  0  1  0  0  0  0  0  0  0  0  0
   -8.3700   16.4870  -32.8980 C   0  0  0  0  0  0  0  0  0  0  0  0
   -9.0090   14.2040  -32.4740 O   0  0  0  0  0  0  0  0  0  0  0  0
   -7.5780   10.0070  -32.2880 C   0  0  0  0  0  0  0  0  0  0  0  0
   -7.1530    9.1720  -34.5770 C   0  0  0  0  0  0  0  0  0  0  0  0
   -6.8170   16.5120  -32.7400 C   0  0  0  0  0  0  0  0  0  0  0  0
   -7.7220    9.1500  -35.9970 C   0  0  0  0  0  0  0  0  0  0  0  0
   -6.0760   16.0060  -34.0310 C   0  0  0  0  0  0  0  0  0  0  0  0
   -6.4170   17.9840  -32.4950 C   0  0  0  0  0  0  0  0  0  0  0  0
   -6.3220    9.0870  -36.5370 C   0  0  0  0  0  0  0  0  0  0  0  0
   -5.9840    9.6800  -37.7630 O   0  0  0  0  0  0  0  0  0  0  0  0
   -5.5050    8.5250  -35.8520 O   0  0  0  0  0  0  0  0  0  0  0  0
   -5.1310    8.8390  -38.5240 C   0  0  0  0  0  0  0  0  0  0  0  0
   -5.9360    8.4070  -39.7210 C   0  0  0  0  0  0  0  0  0  0  0  0
  2  1  1  6
  2  3  1  0
  2  4  1  0
  5  3  1  0
  3  6  2  0
  7  4  1  0
  5  8  1  0
  7  9  1  0
  7 10  2  0
  8 11  1  1
  8 12  1  0
  9 13  1  6
 12 14  1  0
 13 15  1  0
 13 16  1  0
 14 17  1  0
 17 18  1  0
 17 19  2  0
 18 20  1  0
 20 21  1  0
A    2
 C04
A    3
 C47
A    4
 C02
A    5
 N12
A    6
 O48
A    7
 C01
A    8
 C13
A   10
 O03
A   12
 C19
A   13
 C78
A   14
 C20
A   15
 C81
A   16
 C82
A   17
 C21
A   18
 O22
A   19
 O23
A   20
 C50
A   21
 C53
M  END
>  <XChem_code>  (720) 
AG7§17

>  <Occupancy>  (720) 
[1.0, 1.0, 1.0, 1.0, 1.0, 1.0, 1.0, 1.0, 1.0, 1.0, 1.0, 1.0, 1.0, 1.0, 1.0, 1.0, 1.0, 1.0, 1.0, 1.0, 1.0, 1.0, 1.0, 1.0, 1.0, 1.0, 1.0, 1.0, 1.0, 1.0, 1.0, 1.0, 1.0, 1.0, 1.0, 1.0, 1.0, 1.0, 1.0, 1.0, 1.0, 1.0, 1.0]

>  <TempFactor>  (720) 
[11.58, 15.03, 11.83, 16.25, 16.92, 12.34, 10.54, 20.22, 18.19, 14.53, 16.52, 20.55, 23.87, 20.72, 31.66, 32.21, 24.48, 11.55, 13.92, 10.24, 11.44, 10.75, 11.87, 10.52, 48.42, 14.67, 18.9, 51.51, 20.99, 12.24, 12.71, 37.77, 32.69, 13.62, 12.02, 16.3, 16.59, 14.61, 20.42, 22.35, 13.24, 10.96, 27.55]

>  <accession>  (720) 
5WQ2_A

>  <description>  (720) 
Chain A, 3C protein [Enterovirus A71]

>  <evalue>  (720) 
1.45212e-58

>  <pdb_code>  (720) 
5WQ2

>  <chain>  (720) 
A

>  <ligands>  (720) 
[{'chain_id': 'A', 'author_residue_number': 301, 'author_insertion_code': '', 'chem_comp_id': 'AG7', 'alternate_conformers': 0, 'entity_id': 2, 'struct_asym_id': 'B', 'residue_number': 1, 'chem_comp_name': '4-{2-(4-FLUORO-BENZYL)-6-METHYL-5-[(5-METHYL-ISOXAZOLE-3-CARBONYL)-AMINO]-4-OXO-HEPTANOYLAMINO}-5-(2-OXO-PYRROLIDIN-3-YL)-PENTANOIC ACID ETHYL ESTER', 'weight': 600.678, 'carbohydrate_polymer': False, 'branch_name': ''}, {'chain_id': 'A', 'author_residue_number': 302, 'author_insertion_code': '', 'chem_comp_id': 'SO4', 'alternate_conformers': 0, 'entity_id': 3, 'struct_asym_id': 'C', 'residue_number': 1, 'chem_comp_name': 'SULFATE ION', 'weight': 96.063, 'carbohydrate_polymer': False, 'branch_name': ''}, {'chain_id': 'A', 'author_residue_number': 303, 'author_insertion_code': '', 'chem_comp_id': 'SO4', 'alternate_conformers': 0, 'entity_id': 3, 'struct_asym_id': 'D', 'residue_number': 1, 'chem_comp_name': 'SULFATE ION', 'weight': 96.063, 'carbohydrate_polymer': False, 'branch_name': ''}]

>  <ligand_codes>  (720) 
['AG7', 'SO4', 'SO4']

>  <cofactor_codes>  (720) 
[]

>  <has_cofactor>  (720) 
False

>  <covalent>  (720) 
False

>  <base_name>  (720) 
5WQ2

>  <lig_resn>  (720) 
AG7

>  <lig_resi>  (720) 
301

>  <lig_chain>  (720) 
A

>  <lig_segi>  (720) 
B

>  <lig_alt>  (720) 


>  <polymer_chain>  (720) 
A

>  <single_smiles>  (720) 
CCOC(=O)CC[C@H](C[C@@H]1CCNC1=O)NC(=O)[C@@H](CC(=O)[C@@H](NC(=O)c2cc(C)on2)C(C)C)Cc3ccc(F)cc3

$$$$
AG7P17S40
     RDKit          3D

 24 23  0  0  0  0  0  0  0  0999 V2000
   -9.8460   13.1390  -36.6190 C   0  0  0  0  0  0  0  0  0  0  0  0
   -9.5280   13.3240  -35.1010 C   0  0  1  0  0  0  0  0  0  0  0  0
   -8.3800   12.4380  -34.7380 C   0  0  0  0  0  0  0  0  0  0  0  0
   -9.1800   14.8060  -34.8540 C   0  0  0  0  0  0  0  0  0  0  0  0
   -8.6980   11.1750  -34.0820 N   0  0  0  0  0  0  0  0  0  0  0  0
   -7.2410   12.6640  -34.9600 O   0  0  0  0  0  0  0  0  0  0  0  0
   -8.8710   15.0620  -33.3170 C   0  0  0  0  0  0  0  0  0  0  0  0
   -7.4890   10.4020  -33.7670 C   0  0  1  0  0  0  0  0  0  0  0  0
   -8.3700   16.4870  -32.8980 C   0  0  1  0  0  0  0  0  0  0  0  0
   -9.0090   14.2040  -32.4740 O   0  0  0  0  0  0  0  0  0  0  0  0
   -7.5780   10.0070  -32.2880 C   0  0  0  0  0  0  0  0  0  0  0  0
   -7.1530    9.1720  -34.5770 C   0  0  0  0  0  0  0  0  0  0  0  0
   -8.9480   16.7880  -31.6380 N   0  0  0  0  0  0  0  0  0  0  0  0
   -6.8170   16.5120  -32.7400 C   0  0  0  0  0  0  0  0  0  0  0  0
   -7.7220    9.1500  -35.9970 C   0  0  0  0  0  0  0  0  0  0  0  0
   -9.9620   17.8080  -31.4350 C   0  0  0  0  0  0  0  0  0  0  0  0
   -6.0760   16.0060  -34.0310 C   0  0  0  0  0  0  0  0  0  0  0  0
   -6.4170   17.9840  -32.4950 C   0  0  0  0  0  0  0  0  0  0  0  0
   -6.3220    9.0870  -36.5370 C   0  0  0  0  0  0  0  0  0  0  0  0
  -10.3830   18.4720  -32.3140 O   0  0  0  0  0  0  0  0  0  0  0  0
   -5.9840    9.6800  -37.7630 O   0  0  0  0  0  0  0  0  0  0  0  0
   -5.5050    8.5250  -35.8520 O   0  0  0  0  0  0  0  0  0  0  0  0
   -5.1310    8.8390  -38.5240 C   0  0  0  0  0  0  0  0  0  0  0  0
   -5.9360    8.4070  -39.7210 C   0  0  0  0  0  0  0  0  0  0  0  0
  2  1  1  6
  2  3  1  0
  2  4  1  0
  5  3  1  0
  3  6  2  0
  7  4  1  0
  5  8  1  0
  7  9  1  0
  7 10  2  0
  8 11  1  1
  8 12  1  0
  9 13  1  1
  9 14  1  0
 12 15  1  0
 13 16  1  0
 14 17  1  0
 14 18  1  0
 15 19  1  0
 16 20  2  0
 19 21  1  0
 19 22  2  0
 21 23  1  0
 23 24  1  0
A    2
 C04
A    3
 C47
A    4
 C02
A    5
 N12
A    6
 O48
A    7
 C01
A    8
 C13
A    9
 C57
A   10
 O03
A   12
 C19
A   13
 N58
A   14
 C78
A   15
 C20
A   17
 C81
A   18
 C82
A   19
 C21
A   20
 O60
A   21
 O22
A   22
 O23
A   23
 C50
A   24
 C53
M  END
>  <XChem_code>  (721) 
AG7§17

>  <Occupancy>  (721) 
[1.0, 1.0, 1.0, 1.0, 1.0, 1.0, 1.0, 1.0, 1.0, 1.0, 1.0, 1.0, 1.0, 1.0, 1.0, 1.0, 1.0, 1.0, 1.0, 1.0, 1.0, 1.0, 1.0, 1.0, 1.0, 1.0, 1.0, 1.0, 1.0, 1.0, 1.0, 1.0, 1.0, 1.0, 1.0, 1.0, 1.0, 1.0, 1.0, 1.0, 1.0, 1.0, 1.0]

>  <TempFactor>  (721) 
[11.58, 15.03, 11.83, 16.25, 16.92, 12.34, 10.54, 20.22, 18.19, 14.53, 16.52, 20.55, 23.87, 20.72, 31.66, 32.21, 24.48, 11.55, 13.92, 10.24, 11.44, 10.75, 11.87, 10.52, 48.42, 14.67, 18.9, 51.51, 20.99, 12.24, 12.71, 37.77, 32.69, 13.62, 12.02, 16.3, 16.59, 14.61, 20.42, 22.35, 13.24, 10.96, 27.55]

>  <accession>  (721) 
5WQ2_A

>  <description>  (721) 
Chain A, 3C protein [Enterovirus A71]

>  <evalue>  (721) 
1.45212e-58

>  <pdb_code>  (721) 
5WQ2

>  <chain>  (721) 
A

>  <ligands>  (721) 
[{'chain_id': 'A', 'author_residue_number': 301, 'author_insertion_code': '', 'chem_comp_id': 'AG7', 'alternate_conformers': 0, 'entity_id': 2, 'struct_asym_id': 'B', 'residue_number': 1, 'chem_comp_name': '4-{2-(4-FLUORO-BENZYL)-6-METHYL-5-[(5-METHYL-ISOXAZOLE-3-CARBONYL)-AMINO]-4-OXO-HEPTANOYLAMINO}-5-(2-OXO-PYRROLIDIN-3-YL)-PENTANOIC ACID ETHYL ESTER', 'weight': 600.678, 'carbohydrate_polymer': False, 'branch_name': ''}, {'chain_id': 'A', 'author_residue_number': 302, 'author_insertion_code': '', 'chem_comp_id': 'SO4', 'alternate_conformers': 0, 'entity_id': 3, 'struct_asym_id': 'C', 'residue_number': 1, 'chem_comp_name': 'SULFATE ION', 'weight': 96.063, 'carbohydrate_polymer': False, 'branch_name': ''}, {'chain_id': 'A', 'author_residue_number': 303, 'author_insertion_code': '', 'chem_comp_id': 'SO4', 'alternate_conformers': 0, 'entity_id': 3, 'struct_asym_id': 'D', 'residue_number': 1, 'chem_comp_name': 'SULFATE ION', 'weight': 96.063, 'carbohydrate_polymer': False, 'branch_name': ''}]

>  <ligand_codes>  (721) 
['AG7', 'SO4', 'SO4']

>  <cofactor_codes>  (721) 
[]

>  <has_cofactor>  (721) 
False

>  <covalent>  (721) 
False

>  <base_name>  (721) 
5WQ2

>  <lig_resn>  (721) 
AG7

>  <lig_resi>  (721) 
301

>  <lig_chain>  (721) 
A

>  <lig_segi>  (721) 
B

>  <lig_alt>  (721) 


>  <polymer_chain>  (721) 
A

>  <single_smiles>  (721) 
CCOC(=O)CC[C@H](C[C@@H]1CCNC1=O)NC(=O)[C@@H](CC(=O)[C@@H](NC(=O)c2cc(C)on2)C(C)C)Cc3ccc(F)cc3

$$$$
EDOP14
     RDKit          3D

  4  3  0  0  0  0  0  0  0  0999 V2000
   -3.5240    6.1840  -39.1480 C   0  0  0  0  0  0  0  0  0  0  0  0
   -3.0550    4.8290  -39.2730 O   0  0  0  0  0  0  0  0  0  0  0  0
   -5.0220    6.2950  -38.8410 C   0  0  0  0  0  0  0  0  0  0  0  0
   -5.3830    5.7350  -37.5790 O   0  0  0  0  0  0  0  0  0  0  0  0
  1  2  1  0
  1  3  1  0
  3  4  1  0
A    1
 C1 
A    2
 O1 
A    3
 C2 
A    4
 O2 
M  END
>  <XChem_code>  (722) 
EDO§14

>  <Occupancy>  (722) 
[1.0, 1.0, 1.0, 1.0]

>  <TempFactor>  (722) 
[20.0, 20.0, 20.0, 20.0]

>  <accession>  (722) 
3QZR_A

>  <description>  (722) 
Chain A, 3C protein [Enterovirus A71]

>  <evalue>  (722) 
1.4913000000000001e-58

>  <pdb_code>  (722) 
3QZR

>  <chain>  (722) 
A

>  <ligands>  (722) 
[{'chain_id': 'A', 'author_residue_number': 501, 'author_insertion_code': '', 'chem_comp_id': 'AG7', 'alternate_conformers': 0, 'entity_id': 2, 'struct_asym_id': 'C', 'residue_number': 1, 'chem_comp_name': '4-{2-(4-FLUORO-BENZYL)-6-METHYL-5-[(5-METHYL-ISOXAZOLE-3-CARBONYL)-AMINO]-4-OXO-HEPTANOYLAMINO}-5-(2-OXO-PYRROLIDIN-3-YL)-PENTANOIC ACID ETHYL ESTER', 'weight': 600.678, 'carbohydrate_polymer': False, 'branch_name': ''}, {'chain_id': 'B', 'author_residue_number': 501, 'author_insertion_code': '', 'chem_comp_id': 'AG7', 'alternate_conformers': 0, 'entity_id': 2, 'struct_asym_id': 'E', 'residue_number': 1, 'chem_comp_name': '4-{2-(4-FLUORO-BENZYL)-6-METHYL-5-[(5-METHYL-ISOXAZOLE-3-CARBONYL)-AMINO]-4-OXO-HEPTANOYLAMINO}-5-(2-OXO-PYRROLIDIN-3-YL)-PENTANOIC ACID ETHYL ESTER', 'weight': 600.678, 'carbohydrate_polymer': False, 'branch_name': ''}, {'chain_id': 'A', 'author_residue_number': 184, 'author_insertion_code': '', 'chem_comp_id': 'EDO', 'alternate_conformers': 0, 'entity_id': 3, 'struct_asym_id': 'D', 'residue_number': 1, 'chem_comp_name': '1,2-ETHANEDIOL', 'weight': 62.068, 'carbohydrate_polymer': False, 'branch_name': ''}, {'chain_id': 'B', 'author_residue_number': 184, 'author_insertion_code': '', 'chem_comp_id': 'EDO', 'alternate_conformers': 0, 'entity_id': 3, 'struct_asym_id': 'F', 'residue_number': 1, 'chem_comp_name': '1,2-ETHANEDIOL', 'weight': 62.068, 'carbohydrate_polymer': False, 'branch_name': ''}]

>  <ligand_codes>  (722) 
['AG7', 'AG7', 'EDO', 'EDO']

>  <cofactor_codes>  (722) 
[]

>  <has_cofactor>  (722) 
False

>  <covalent>  (722) 
False

>  <base_name>  (722) 
3QZR

>  <lig_resn>  (722) 
EDO

>  <lig_resi>  (722) 
184

>  <lig_chain>  (722) 
A

>  <lig_segi>  (722) 
D

>  <lig_alt>  (722) 


>  <polymer_chain>  (722) 
A

>  <single_smiles>  (722) 
OCCO

$$$$
AG7P19
     RDKit          3D

 44 46  0  0  0  0  0  0  0  0999 V2000
   -8.6230   14.9040  -33.3450 C   0  0  0  0  0  0  0  0  0  0  0  0
  -10.2350   17.7380  -29.9200 C   0  0  0  0  0  0  0  0  0  0  0  0
   -8.7610   14.6330  -34.8480 C   0  0  0  0  0  0  0  0  0  0  0  0
  -11.1830   18.7320  -29.4090 C   0  0  0  0  0  0  0  0  0  0  0  0
  -11.2610   18.5430  -28.1050 C   0  0  0  0  0  0  0  0  0  0  0  0
   -8.8100   14.0450  -32.5010 O   0  0  0  0  0  0  0  0  0  0  0  0
   -9.0610   13.1510  -35.1400 C   0  0  1  0  0  0  0  0  0  0  0  0
  -12.1530   19.2960  -27.1450 C   0  0  0  0  0  0  0  0  0  0  0  0
  -10.4800   17.4310  -27.8070 O   0  0  0  0  0  0  0  0  0  0  0  0
   -9.1160   12.8370  -36.6190 C   0  0  0  0  0  0  0  0  0  0  0  0
   -9.8640   16.9490  -28.9170 N   0  0  0  0  0  0  0  0  0  0  0  0
  -10.1920   13.6740  -37.2710 C   0  0  0  0  0  0  0  0  0  0  0  0
  -11.5030   13.4290  -37.0200 C   0  0  0  0  0  0  0  0  0  0  0  0
  -12.5530   14.2540  -37.7000 C   0  0  0  0  0  0  0  0  0  0  0  0
  -12.1760   15.2480  -38.5460 C   0  0  0  0  0  0  0  0  0  0  0  0
  -10.7360   15.4850  -38.8530 C   0  0  0  0  0  0  0  0  0  0  0  0
   -9.7790   14.7490  -38.2190 C   0  0  0  0  0  0  0  0  0  0  0  0
   -8.4740   11.0120  -33.9140 N   0  0  0  0  0  0  0  0  0  0  0  0
   -7.5070    9.9600  -33.5600 C   0  0  1  0  0  0  0  0  0  0  0  0
   -7.4170    9.7980  -32.0510 C   0  0  0  0  0  0  0  0  0  0  0  0
   -6.9710   11.0950  -31.3590 C   0  0  1  0  0  0  0  0  0  0  0  0
   -6.8990   10.8960  -29.8990 C   0  0  0  0  0  0  0  0  0  0  0  0
   -5.7720   11.6390  -29.4080 N   0  0  0  0  0  0  0  0  0  0  0  0
   -7.6530   10.2300  -29.2060 O   0  0  0  0  0  0  0  0  0  0  0  0
   -7.8680    8.6790  -34.3150 C   0  0  2  0  0  0  0  0  0  0  0  0
   -7.7390    8.7380  -35.8290 C   0  0  0  0  0  0  0  0  0  0  0  0
   -6.3020    9.0130  -36.2080 C   0  0  0  0  0  0  0  0  0  0  0  0
   -6.0500    9.8390  -37.1600 O   0  0  0  0  0  0  0  0  0  0  0  0
   -5.3750    8.4590  -35.5800 O   0  0  0  0  0  0  0  0  0  0  0  0
   -8.0020   12.2570  -34.5340 C   0  0  0  0  0  0  0  0  0  0  0  0
   -6.8200   12.4370  -34.7580 O   0  0  0  0  0  0  0  0  0  0  0  0
   -4.7460   10.1970  -37.4660 C   0  0  0  0  0  0  0  0  0  0  0  0
   -4.7740   11.5170  -38.2110 C   0  0  0  0  0  0  0  0  0  0  0  0
   -8.3200   16.3610  -32.9460 C   0  0  1  0  0  0  0  0  0  0  0  0
   -8.7210   16.6270  -31.5860 N   0  0  0  0  0  0  0  0  0  0  0  0
   -9.7810   17.5780  -31.3410 C   0  0  0  0  0  0  0  0  0  0  0  0
  -10.2100   18.2950  -32.2350 O   0  0  0  0  0  0  0  0  0  0  0  0
   -6.8620   16.7390  -33.1570 C   0  0  0  0  0  0  0  0  0  0  0  0
   -6.6030   18.1760  -32.7090 C   0  0  0  0  0  0  0  0  0  0  0  0
   -5.9650   15.7790  -32.4070 C   0  0  0  0  0  0  0  0  0  0  0  0
   -5.1520   12.3480  -30.5140 C   0  0  0  0  0  0  0  0  0  0  0  0
   -5.5910   11.5560  -31.7360 C   0  0  0  0  0  0  0  0  0  0  0  0
   -9.7020    8.3680  -33.9610 R   0  0  0  0  0  0  0  0  0  0  0  0
  -13.0940   15.9620  -39.1740 F   0  0  0  0  0  0  0  0  0  0  0  0
  1  3  1  0
  1  6  2  0
  1 34  1  0
  2  4  1  0
  2 11  2  0
  2 36  1  0
  7  3  1  6
  4  5  2  0
  5  8  1  0
  5  9  1  0
  7 10  1  0
  7 30  1  0
  9 11  1  0
 10 12  1  0
 12 13  2  0
 12 17  1  0
 13 14  1  0
 14 15  2  0
 15 16  1  0
 15 44  1  0
 16 17  2  0
 18 19  1  0
 18 30  1  0
 19 20  1  1
 19 25  1  0
 21 20  1  6
 21 22  1  0
 21 42  1  0
 22 23  1  0
 22 24  2  0
 23 41  1  0
 25 26  1  0
 25 43  1  6
 26 27  1  0
 27 28  1  0
 27 29  2  0
 28 32  1  0
 30 31  2  0
 32 33  1  0
 34 35  1  1
 34 38  1  0
 35 36  1  0
 36 37  2  0
 38 39  1  0
 38 40  1  0
 41 42  1  0
V   43 *
A    1
 C01
A    2
 C1 
A    3
 C02
A    4
 C2 
A    5
 C3 
A    6
 O03
A    7
 C04
A    8
 C4 
A    9
 O4 
A   10
 C05
A   11
 N5 
A   12
 C06
A   13
 C07
A   14
 C08
A   15
 C09
A   16
 C10
A   17
 C11
A   18
 N12
A   19
 C13
A   20
 C14
A   21
 C15
A   22
 C16
A   23
 N17
A   24
 O18
A   25
 C19
A   26
 C20
A   27
 C21
A   28
 O22
A   29
 O23
A   30
 C47
A   31
 O48
A   32
 C50
A   33
 C53
A   34
 C57
A   35
 N58
A   36
 C59
A   37
 O60
A   38
 C78
A   39
 C81
A   40
 C82
A   41
 C83
A   42
 C84
A   43
 X  
A   44
 F1 
M  END
>  <XChem_code>  (723) 
AG7§19

>  <Occupancy>  (723) 
[1.0, 1.0, 1.0, 1.0, 1.0, 1.0, 1.0, 0.81, 0.67, 1.0, 0.9, 1.0, 0.99, 0.82, 1.0, 0.97, 0.92, 1.0, 1.0, 1.0, 1.0, 1.0, 1.0, 1.0, 1.0, 1.0, 0.96, 0.94, 0.88, 1.0, 0.97, 0.96, 0.82, 1.0, 1.0, 1.0, 0.94, 1.0, 1.0, 1.0, 1.0, 1.0, 1.0, 0.57]

>  <TempFactor>  (723) 
[8.55, 14.09, 10.4, 16.23, 18.11, 8.39, 11.04, 21.62, 18.04, 14.04, 16.09, 16.2, 18.25, 20.07, 20.39, 19.45, 18.39, 8.91, 9.58, 9.49, 9.06, 8.98, 10.12, 8.25, 10.26, 13.73, 15.91, 18.52, 15.13, 10.09, 11.37, 22.17, 24.58, 9.1, 9.37, 11.23, 12.49, 10.87, 13.0, 11.61, 11.25, 10.85, 9.88, 22.44]

>  <accession>  (723) 
3QZR_A

>  <description>  (723) 
Chain A, 3C protein [Enterovirus A71]

>  <evalue>  (723) 
1.4913000000000001e-58

>  <pdb_code>  (723) 
3QZR

>  <chain>  (723) 
A

>  <ligands>  (723) 
[{'chain_id': 'A', 'author_residue_number': 501, 'author_insertion_code': '', 'chem_comp_id': 'AG7', 'alternate_conformers': 0, 'entity_id': 2, 'struct_asym_id': 'C', 'residue_number': 1, 'chem_comp_name': '4-{2-(4-FLUORO-BENZYL)-6-METHYL-5-[(5-METHYL-ISOXAZOLE-3-CARBONYL)-AMINO]-4-OXO-HEPTANOYLAMINO}-5-(2-OXO-PYRROLIDIN-3-YL)-PENTANOIC ACID ETHYL ESTER', 'weight': 600.678, 'carbohydrate_polymer': False, 'branch_name': ''}, {'chain_id': 'B', 'author_residue_number': 501, 'author_insertion_code': '', 'chem_comp_id': 'AG7', 'alternate_conformers': 0, 'entity_id': 2, 'struct_asym_id': 'E', 'residue_number': 1, 'chem_comp_name': '4-{2-(4-FLUORO-BENZYL)-6-METHYL-5-[(5-METHYL-ISOXAZOLE-3-CARBONYL)-AMINO]-4-OXO-HEPTANOYLAMINO}-5-(2-OXO-PYRROLIDIN-3-YL)-PENTANOIC ACID ETHYL ESTER', 'weight': 600.678, 'carbohydrate_polymer': False, 'branch_name': ''}, {'chain_id': 'A', 'author_residue_number': 184, 'author_insertion_code': '', 'chem_comp_id': 'EDO', 'alternate_conformers': 0, 'entity_id': 3, 'struct_asym_id': 'D', 'residue_number': 1, 'chem_comp_name': '1,2-ETHANEDIOL', 'weight': 62.068, 'carbohydrate_polymer': False, 'branch_name': ''}, {'chain_id': 'B', 'author_residue_number': 184, 'author_insertion_code': '', 'chem_comp_id': 'EDO', 'alternate_conformers': 0, 'entity_id': 3, 'struct_asym_id': 'F', 'residue_number': 1, 'chem_comp_name': '1,2-ETHANEDIOL', 'weight': 62.068, 'carbohydrate_polymer': False, 'branch_name': ''}]

>  <ligand_codes>  (723) 
['AG7', 'AG7', 'EDO', 'EDO']

>  <cofactor_codes>  (723) 
[]

>  <has_cofactor>  (723) 
False

>  <covalent>  (723) 
True

>  <base_name>  (723) 
3QZR

>  <lig_resn>  (723) 
AG7

>  <lig_resi>  (723) 
501

>  <lig_chain>  (723) 
A

>  <lig_segi>  (723) 
C

>  <lig_alt>  (723) 


>  <polymer_chain>  (723) 
A

>  <single_smiles>  (723) 
CCOC(=O)CC[C@H](C[C@@H]1CCNC1=O)NC(=O)[C@@H](CC(=O)[C@@H](NC(=O)c2cc(C)on2)C(C)C)Cc3ccc(F)cc3

$$$$
AG7P19S1
     RDKit          3D

 17 17  0  0  0  0  0  0  0  0999 V2000
   -8.4740   11.0120  -33.9140 N   0  0  0  0  0  0  0  0  0  0  0  0
   -7.5070    9.9600  -33.5600 C   0  0  1  0  0  0  0  0  0  0  0  0
   -7.4170    9.7980  -32.0510 C   0  0  0  0  0  0  0  0  0  0  0  0
   -7.8680    8.6790  -34.3150 C   0  0  2  0  0  0  0  0  0  0  0  0
   -6.9710   11.0950  -31.3590 C   0  0  1  0  0  0  0  0  0  0  0  0
   -7.7390    8.7380  -35.8290 C   0  0  0  0  0  0  0  0  0  0  0  0
   -9.7020    8.3680  -33.9610 R   0  0  0  0  0  0  0  0  0  0  0  0
   -6.8990   10.8960  -29.8990 C   0  0  0  0  0  0  0  0  0  0  0  0
   -5.5910   11.5560  -31.7360 C   0  0  0  0  0  0  0  0  0  0  0  0
   -6.3020    9.0130  -36.2080 C   0  0  0  0  0  0  0  0  0  0  0  0
   -5.7720   11.6390  -29.4080 N   0  0  0  0  0  0  0  0  0  0  0  0
   -7.6530   10.2300  -29.2060 O   0  0  0  0  0  0  0  0  0  0  0  0
   -5.1520   12.3480  -30.5140 C   0  0  0  0  0  0  0  0  0  0  0  0
   -6.0500    9.8390  -37.1600 O   0  0  0  0  0  0  0  0  0  0  0  0
   -5.3750    8.4590  -35.5800 O   0  0  0  0  0  0  0  0  0  0  0  0
   -4.7460   10.1970  -37.4660 C   0  0  0  0  0  0  0  0  0  0  0  0
   -4.7740   11.5170  -38.2110 C   0  0  0  0  0  0  0  0  0  0  0  0
  2  1  1  1
  2  3  1  0
  2  4  1  0
  5  3  1  6
  4  6  1  0
  4  7  1  6
  5  8  1  0
  5  9  1  0
  6 10  1  0
  8 11  1  0
  8 12  2  0
 13  9  1  0
 10 14  1  0
 10 15  2  0
 11 13  1  0
 14 16  1  0
 16 17  1  0
V    7 *
A    2
 C13
A    3
 C14
A    4
 C19
A    5
 C15
A    6
 C20
A    7
 X  
A    8
 C16
A    9
 C84
A   10
 C21
A   11
 N17
A   12
 O18
A   13
 C83
A   14
 O22
A   15
 O23
A   16
 C50
A   17
 C53
M  END
>  <XChem_code>  (724) 
AG7§19

>  <Occupancy>  (724) 
[1.0, 1.0, 1.0, 1.0, 1.0, 1.0, 1.0, 0.81, 0.67, 1.0, 0.9, 1.0, 0.99, 0.82, 1.0, 0.97, 0.92, 1.0, 1.0, 1.0, 1.0, 1.0, 1.0, 1.0, 1.0, 1.0, 0.96, 0.94, 0.88, 1.0, 0.97, 0.96, 0.82, 1.0, 1.0, 1.0, 0.94, 1.0, 1.0, 1.0, 1.0, 1.0, 1.0, 0.57]

>  <TempFactor>  (724) 
[8.55, 14.09, 10.4, 16.23, 18.11, 8.39, 11.04, 21.62, 18.04, 14.04, 16.09, 16.2, 18.25, 20.07, 20.39, 19.45, 18.39, 8.91, 9.58, 9.49, 9.06, 8.98, 10.12, 8.25, 10.26, 13.73, 15.91, 18.52, 15.13, 10.09, 11.37, 22.17, 24.58, 9.1, 9.37, 11.23, 12.49, 10.87, 13.0, 11.61, 11.25, 10.85, 9.88, 22.44]

>  <accession>  (724) 
3QZR_A

>  <description>  (724) 
Chain A, 3C protein [Enterovirus A71]

>  <evalue>  (724) 
1.4913000000000001e-58

>  <pdb_code>  (724) 
3QZR

>  <chain>  (724) 
A

>  <ligands>  (724) 
[{'chain_id': 'A', 'author_residue_number': 501, 'author_insertion_code': '', 'chem_comp_id': 'AG7', 'alternate_conformers': 0, 'entity_id': 2, 'struct_asym_id': 'C', 'residue_number': 1, 'chem_comp_name': '4-{2-(4-FLUORO-BENZYL)-6-METHYL-5-[(5-METHYL-ISOXAZOLE-3-CARBONYL)-AMINO]-4-OXO-HEPTANOYLAMINO}-5-(2-OXO-PYRROLIDIN-3-YL)-PENTANOIC ACID ETHYL ESTER', 'weight': 600.678, 'carbohydrate_polymer': False, 'branch_name': ''}, {'chain_id': 'B', 'author_residue_number': 501, 'author_insertion_code': '', 'chem_comp_id': 'AG7', 'alternate_conformers': 0, 'entity_id': 2, 'struct_asym_id': 'E', 'residue_number': 1, 'chem_comp_name': '4-{2-(4-FLUORO-BENZYL)-6-METHYL-5-[(5-METHYL-ISOXAZOLE-3-CARBONYL)-AMINO]-4-OXO-HEPTANOYLAMINO}-5-(2-OXO-PYRROLIDIN-3-YL)-PENTANOIC ACID ETHYL ESTER', 'weight': 600.678, 'carbohydrate_polymer': False, 'branch_name': ''}, {'chain_id': 'A', 'author_residue_number': 184, 'author_insertion_code': '', 'chem_comp_id': 'EDO', 'alternate_conformers': 0, 'entity_id': 3, 'struct_asym_id': 'D', 'residue_number': 1, 'chem_comp_name': '1,2-ETHANEDIOL', 'weight': 62.068, 'carbohydrate_polymer': False, 'branch_name': ''}, {'chain_id': 'B', 'author_residue_number': 184, 'author_insertion_code': '', 'chem_comp_id': 'EDO', 'alternate_conformers': 0, 'entity_id': 3, 'struct_asym_id': 'F', 'residue_number': 1, 'chem_comp_name': '1,2-ETHANEDIOL', 'weight': 62.068, 'carbohydrate_polymer': False, 'branch_name': ''}]

>  <ligand_codes>  (724) 
['AG7', 'AG7', 'EDO', 'EDO']

>  <cofactor_codes>  (724) 
[]

>  <has_cofactor>  (724) 
False

>  <covalent>  (724) 
True

>  <base_name>  (724) 
3QZR

>  <lig_resn>  (724) 
AG7

>  <lig_resi>  (724) 
501

>  <lig_chain>  (724) 
A

>  <lig_segi>  (724) 
C

>  <lig_alt>  (724) 


>  <polymer_chain>  (724) 
A

>  <single_smiles>  (724) 
CCOC(=O)CC[C@H](C[C@@H]1CCNC1=O)NC(=O)[C@@H](CC(=O)[C@@H](NC(=O)c2cc(C)on2)C(C)C)Cc3ccc(F)cc3

$$$$
AG7P19S2
     RDKit          3D

 27 28  0  0  0  0  0  0  0  0999 V2000
   -8.0020   12.2570  -34.5340 C   0  0  0  0  0  0  0  0  0  0  0  0
   -9.0610   13.1510  -35.1400 C   0  0  1  0  0  0  0  0  0  0  0  0
   -6.8200   12.4370  -34.7580 O   0  0  0  0  0  0  0  0  0  0  0  0
   -8.7610   14.6330  -34.8480 C   0  0  0  0  0  0  0  0  0  0  0  0
   -9.1160   12.8370  -36.6190 C   0  0  0  0  0  0  0  0  0  0  0  0
   -8.6230   14.9040  -33.3450 C   0  0  0  0  0  0  0  0  0  0  0  0
  -10.1920   13.6740  -37.2710 C   0  0  0  0  0  0  0  0  0  0  0  0
   -8.8100   14.0450  -32.5010 O   0  0  0  0  0  0  0  0  0  0  0  0
   -8.3200   16.3610  -32.9460 C   0  0  1  0  0  0  0  0  0  0  0  0
  -11.5030   13.4290  -37.0200 C   0  0  0  0  0  0  0  0  0  0  0  0
   -9.7790   14.7490  -38.2190 C   0  0  0  0  0  0  0  0  0  0  0  0
   -8.7210   16.6270  -31.5860 N   0  0  0  0  0  0  0  0  0  0  0  0
   -6.8620   16.7390  -33.1570 C   0  0  0  0  0  0  0  0  0  0  0  0
  -12.5530   14.2540  -37.7000 C   0  0  0  0  0  0  0  0  0  0  0  0
  -10.7360   15.4850  -38.8530 C   0  0  0  0  0  0  0  0  0  0  0  0
   -9.7810   17.5780  -31.3410 C   0  0  0  0  0  0  0  0  0  0  0  0
   -6.6030   18.1760  -32.7090 C   0  0  0  0  0  0  0  0  0  0  0  0
   -5.9650   15.7790  -32.4070 C   0  0  0  0  0  0  0  0  0  0  0  0
  -12.1760   15.2480  -38.5460 C   0  0  0  0  0  0  0  0  0  0  0  0
  -10.2350   17.7380  -29.9200 C   0  0  0  0  0  0  0  0  0  0  0  0
  -10.2100   18.2950  -32.2350 O   0  0  0  0  0  0  0  0  0  0  0  0
  -13.0940   15.9620  -39.1740 F   0  0  0  0  0  0  0  0  0  0  0  0
  -11.1830   18.7320  -29.4090 C   0  0  0  0  0  0  0  0  0  0  0  0
   -9.8640   16.9490  -28.9170 N   0  0  0  0  0  0  0  0  0  0  0  0
  -11.2610   18.5430  -28.1050 C   0  0  0  0  0  0  0  0  0  0  0  0
  -10.4800   17.4310  -27.8070 O   0  0  0  0  0  0  0  0  0  0  0  0
  -12.1530   19.2960  -27.1450 C   0  0  0  0  0  0  0  0  0  0  0  0
  2  1  1  0
  1  3  2  0
  2  4  1  6
  2  5  1  0
  6  4  1  0
  5  7  1  0
  6  8  2  0
  6  9  1  0
  7 10  2  0
  7 11  1  0
  9 12  1  1
  9 13  1  0
 10 14  1  0
 15 11  2  0
 12 16  1  0
 13 17  1  0
 13 18  1  0
 14 19  2  0
 19 15  1  0
 20 16  1  0
 16 21  2  0
 19 22  1  0
 20 23  1  0
 20 24  2  0
 23 25  2  0
 26 24  1  0
 25 27  1  0
 25 26  1  0
A    2
 C04
A    3
 O48
A    4
 C02
A    5
 C05
A    6
 C01
A    7
 C06
A    8
 O03
A    9
 C57
A   10
 C07
A   11
 C11
A   12
 N58
A   13
 C78
A   14
 C08
A   15
 C10
A   16
 C59
A   17
 C81
A   18
 C82
A   19
 C09
A   20
 C1 
A   21
 O60
A   22
 F1 
A   23
 C2 
A   24
 N5 
A   25
 C3 
A   26
 O4 
A   27
 C4 
M  END
>  <XChem_code>  (725) 
AG7§19

>  <Occupancy>  (725) 
[1.0, 1.0, 1.0, 1.0, 1.0, 1.0, 1.0, 0.81, 0.67, 1.0, 0.9, 1.0, 0.99, 0.82, 1.0, 0.97, 0.92, 1.0, 1.0, 1.0, 1.0, 1.0, 1.0, 1.0, 1.0, 1.0, 0.96, 0.94, 0.88, 1.0, 0.97, 0.96, 0.82, 1.0, 1.0, 1.0, 0.94, 1.0, 1.0, 1.0, 1.0, 1.0, 1.0, 0.57]

>  <TempFactor>  (725) 
[8.55, 14.09, 10.4, 16.23, 18.11, 8.39, 11.04, 21.62, 18.04, 14.04, 16.09, 16.2, 18.25, 20.07, 20.39, 19.45, 18.39, 8.91, 9.58, 9.49, 9.06, 8.98, 10.12, 8.25, 10.26, 13.73, 15.91, 18.52, 15.13, 10.09, 11.37, 22.17, 24.58, 9.1, 9.37, 11.23, 12.49, 10.87, 13.0, 11.61, 11.25, 10.85, 9.88, 22.44]

>  <accession>  (725) 
3QZR_A

>  <description>  (725) 
Chain A, 3C protein [Enterovirus A71]

>  <evalue>  (725) 
1.4913000000000001e-58

>  <pdb_code>  (725) 
3QZR

>  <chain>  (725) 
A

>  <ligands>  (725) 
[{'chain_id': 'A', 'author_residue_number': 501, 'author_insertion_code': '', 'chem_comp_id': 'AG7', 'alternate_conformers': 0, 'entity_id': 2, 'struct_asym_id': 'C', 'residue_number': 1, 'chem_comp_name': '4-{2-(4-FLUORO-BENZYL)-6-METHYL-5-[(5-METHYL-ISOXAZOLE-3-CARBONYL)-AMINO]-4-OXO-HEPTANOYLAMINO}-5-(2-OXO-PYRROLIDIN-3-YL)-PENTANOIC ACID ETHYL ESTER', 'weight': 600.678, 'carbohydrate_polymer': False, 'branch_name': ''}, {'chain_id': 'B', 'author_residue_number': 501, 'author_insertion_code': '', 'chem_comp_id': 'AG7', 'alternate_conformers': 0, 'entity_id': 2, 'struct_asym_id': 'E', 'residue_number': 1, 'chem_comp_name': '4-{2-(4-FLUORO-BENZYL)-6-METHYL-5-[(5-METHYL-ISOXAZOLE-3-CARBONYL)-AMINO]-4-OXO-HEPTANOYLAMINO}-5-(2-OXO-PYRROLIDIN-3-YL)-PENTANOIC ACID ETHYL ESTER', 'weight': 600.678, 'carbohydrate_polymer': False, 'branch_name': ''}, {'chain_id': 'A', 'author_residue_number': 184, 'author_insertion_code': '', 'chem_comp_id': 'EDO', 'alternate_conformers': 0, 'entity_id': 3, 'struct_asym_id': 'D', 'residue_number': 1, 'chem_comp_name': '1,2-ETHANEDIOL', 'weight': 62.068, 'carbohydrate_polymer': False, 'branch_name': ''}, {'chain_id': 'B', 'author_residue_number': 184, 'author_insertion_code': '', 'chem_comp_id': 'EDO', 'alternate_conformers': 0, 'entity_id': 3, 'struct_asym_id': 'F', 'residue_number': 1, 'chem_comp_name': '1,2-ETHANEDIOL', 'weight': 62.068, 'carbohydrate_polymer': False, 'branch_name': ''}]

>  <ligand_codes>  (725) 
['AG7', 'AG7', 'EDO', 'EDO']

>  <cofactor_codes>  (725) 
[]

>  <has_cofactor>  (725) 
False

>  <covalent>  (725) 
True

>  <base_name>  (725) 
3QZR

>  <lig_resn>  (725) 
AG7

>  <lig_resi>  (725) 
501

>  <lig_chain>  (725) 
A

>  <lig_segi>  (725) 
C

>  <lig_alt>  (725) 


>  <polymer_chain>  (725) 
A

>  <single_smiles>  (725) 
CCOC(=O)CC[C@H](C[C@@H]1CCNC1=O)NC(=O)[C@@H](CC(=O)[C@@H](NC(=O)c2cc(C)on2)C(C)C)Cc3ccc(F)cc3

$$$$
AG7P19S3
     RDKit          3D

  8  8  0  0  0  0  0  0  0  0999 V2000
   -9.7810   17.5780  -31.3410 C   0  0  0  0  0  0  0  0  0  0  0  0
  -10.2350   17.7380  -29.9200 C   0  0  0  0  0  0  0  0  0  0  0  0
  -10.2100   18.2950  -32.2350 O   0  0  0  0  0  0  0  0  0  0  0  0
  -11.1830   18.7320  -29.4090 C   0  0  0  0  0  0  0  0  0  0  0  0
   -9.8640   16.9490  -28.9170 N   0  0  0  0  0  0  0  0  0  0  0  0
  -11.2610   18.5430  -28.1050 C   0  0  0  0  0  0  0  0  0  0  0  0
  -10.4800   17.4310  -27.8070 O   0  0  0  0  0  0  0  0  0  0  0  0
  -12.1530   19.2960  -27.1450 C   0  0  0  0  0  0  0  0  0  0  0  0
  2  1  1  0
  1  3  2  0
  2  4  1  0
  2  5  2  0
  4  6  2  0
  7  5  1  0
  6  8  1  0
  6  7  1  0
A    2
 C1 
A    3
 O60
A    4
 C2 
A    5
 N5 
A    6
 C3 
A    7
 O4 
A    8
 C4 
M  END
>  <XChem_code>  (726) 
AG7§19

>  <Occupancy>  (726) 
[1.0, 1.0, 1.0, 1.0, 1.0, 1.0, 1.0, 0.81, 0.67, 1.0, 0.9, 1.0, 0.99, 0.82, 1.0, 0.97, 0.92, 1.0, 1.0, 1.0, 1.0, 1.0, 1.0, 1.0, 1.0, 1.0, 0.96, 0.94, 0.88, 1.0, 0.97, 0.96, 0.82, 1.0, 1.0, 1.0, 0.94, 1.0, 1.0, 1.0, 1.0, 1.0, 1.0, 0.57]

>  <TempFactor>  (726) 
[8.55, 14.09, 10.4, 16.23, 18.11, 8.39, 11.04, 21.62, 18.04, 14.04, 16.09, 16.2, 18.25, 20.07, 20.39, 19.45, 18.39, 8.91, 9.58, 9.49, 9.06, 8.98, 10.12, 8.25, 10.26, 13.73, 15.91, 18.52, 15.13, 10.09, 11.37, 22.17, 24.58, 9.1, 9.37, 11.23, 12.49, 10.87, 13.0, 11.61, 11.25, 10.85, 9.88, 22.44]

>  <accession>  (726) 
3QZR_A

>  <description>  (726) 
Chain A, 3C protein [Enterovirus A71]

>  <evalue>  (726) 
1.4913000000000001e-58

>  <pdb_code>  (726) 
3QZR

>  <chain>  (726) 
A

>  <ligands>  (726) 
[{'chain_id': 'A', 'author_residue_number': 501, 'author_insertion_code': '', 'chem_comp_id': 'AG7', 'alternate_conformers': 0, 'entity_id': 2, 'struct_asym_id': 'C', 'residue_number': 1, 'chem_comp_name': '4-{2-(4-FLUORO-BENZYL)-6-METHYL-5-[(5-METHYL-ISOXAZOLE-3-CARBONYL)-AMINO]-4-OXO-HEPTANOYLAMINO}-5-(2-OXO-PYRROLIDIN-3-YL)-PENTANOIC ACID ETHYL ESTER', 'weight': 600.678, 'carbohydrate_polymer': False, 'branch_name': ''}, {'chain_id': 'B', 'author_residue_number': 501, 'author_insertion_code': '', 'chem_comp_id': 'AG7', 'alternate_conformers': 0, 'entity_id': 2, 'struct_asym_id': 'E', 'residue_number': 1, 'chem_comp_name': '4-{2-(4-FLUORO-BENZYL)-6-METHYL-5-[(5-METHYL-ISOXAZOLE-3-CARBONYL)-AMINO]-4-OXO-HEPTANOYLAMINO}-5-(2-OXO-PYRROLIDIN-3-YL)-PENTANOIC ACID ETHYL ESTER', 'weight': 600.678, 'carbohydrate_polymer': False, 'branch_name': ''}, {'chain_id': 'A', 'author_residue_number': 184, 'author_insertion_code': '', 'chem_comp_id': 'EDO', 'alternate_conformers': 0, 'entity_id': 3, 'struct_asym_id': 'D', 'residue_number': 1, 'chem_comp_name': '1,2-ETHANEDIOL', 'weight': 62.068, 'carbohydrate_polymer': False, 'branch_name': ''}, {'chain_id': 'B', 'author_residue_number': 184, 'author_insertion_code': '', 'chem_comp_id': 'EDO', 'alternate_conformers': 0, 'entity_id': 3, 'struct_asym_id': 'F', 'residue_number': 1, 'chem_comp_name': '1,2-ETHANEDIOL', 'weight': 62.068, 'carbohydrate_polymer': False, 'branch_name': ''}]

>  <ligand_codes>  (726) 
['AG7', 'AG7', 'EDO', 'EDO']

>  <cofactor_codes>  (726) 
[]

>  <has_cofactor>  (726) 
False

>  <covalent>  (726) 
True

>  <base_name>  (726) 
3QZR

>  <lig_resn>  (726) 
AG7

>  <lig_resi>  (726) 
501

>  <lig_chain>  (726) 
A

>  <lig_segi>  (726) 
C

>  <lig_alt>  (726) 


>  <polymer_chain>  (726) 
A

>  <single_smiles>  (726) 
CCOC(=O)CC[C@H](C[C@@H]1CCNC1=O)NC(=O)[C@@H](CC(=O)[C@@H](NC(=O)c2cc(C)on2)C(C)C)Cc3ccc(F)cc3

$$$$
AG7P19S4
     RDKit          3D

 36 37  0  0  0  0  0  0  0  0999 V2000
   -8.7210   16.6270  -31.5860 N   0  0  0  0  0  0  0  0  0  0  0  0
   -8.3200   16.3610  -32.9460 C   0  0  2  0  0  0  0  0  0  0  0  0
   -8.6230   14.9040  -33.3450 C   0  0  0  0  0  0  0  0  0  0  0  0
   -6.8620   16.7390  -33.1570 C   0  0  0  0  0  0  0  0  0  0  0  0
   -8.7610   14.6330  -34.8480 C   0  0  0  0  0  0  0  0  0  0  0  0
   -8.8100   14.0450  -32.5010 O   0  0  0  0  0  0  0  0  0  0  0  0
   -6.6030   18.1760  -32.7090 C   0  0  0  0  0  0  0  0  0  0  0  0
   -5.9650   15.7790  -32.4070 C   0  0  0  0  0  0  0  0  0  0  0  0
   -9.0610   13.1510  -35.1400 C   0  0  1  0  0  0  0  0  0  0  0  0
   -9.1160   12.8370  -36.6190 C   0  0  0  0  0  0  0  0  0  0  0  0
   -8.0020   12.2570  -34.5340 C   0  0  0  0  0  0  0  0  0  0  0  0
  -10.1920   13.6740  -37.2710 C   0  0  0  0  0  0  0  0  0  0  0  0
   -8.4740   11.0120  -33.9140 N   0  0  0  0  0  0  0  0  0  0  0  0
   -6.8200   12.4370  -34.7580 O   0  0  0  0  0  0  0  0  0  0  0  0
  -11.5030   13.4290  -37.0200 C   0  0  0  0  0  0  0  0  0  0  0  0
   -9.7790   14.7490  -38.2190 C   0  0  0  0  0  0  0  0  0  0  0  0
   -7.5070    9.9600  -33.5600 C   0  0  1  0  0  0  0  0  0  0  0  0
  -12.5530   14.2540  -37.7000 C   0  0  0  0  0  0  0  0  0  0  0  0
  -10.7360   15.4850  -38.8530 C   0  0  0  0  0  0  0  0  0  0  0  0
   -7.4170    9.7980  -32.0510 C   0  0  0  0  0  0  0  0  0  0  0  0
   -7.8680    8.6790  -34.3150 C   0  0  2  0  0  0  0  0  0  0  0  0
  -12.1760   15.2480  -38.5460 C   0  0  0  0  0  0  0  0  0  0  0  0
   -6.9710   11.0950  -31.3590 C   0  0  1  0  0  0  0  0  0  0  0  0
   -7.7390    8.7380  -35.8290 C   0  0  0  0  0  0  0  0  0  0  0  0
   -9.7020    8.3680  -33.9610 R   0  0  0  0  0  0  0  0  0  0  0  0
  -13.0940   15.9620  -39.1740 F   0  0  0  0  0  0  0  0  0  0  0  0
   -6.8990   10.8960  -29.8990 C   0  0  0  0  0  0  0  0  0  0  0  0
   -5.5910   11.5560  -31.7360 C   0  0  0  0  0  0  0  0  0  0  0  0
   -6.3020    9.0130  -36.2080 C   0  0  0  0  0  0  0  0  0  0  0  0
   -5.7720   11.6390  -29.4080 N   0  0  0  0  0  0  0  0  0  0  0  0
   -7.6530   10.2300  -29.2060 O   0  0  0  0  0  0  0  0  0  0  0  0
   -5.1520   12.3480  -30.5140 C   0  0  0  0  0  0  0  0  0  0  0  0
   -6.0500    9.8390  -37.1600 O   0  0  0  0  0  0  0  0  0  0  0  0
   -5.3750    8.4590  -35.5800 O   0  0  0  0  0  0  0  0  0  0  0  0
   -4.7460   10.1970  -37.4660 C   0  0  0  0  0  0  0  0  0  0  0  0
   -4.7740   11.5170  -38.2110 C   0  0  0  0  0  0  0  0  0  0  0  0
  2  1  1  1
  3  2  1  0
  2  4  1  0
  3  5  1  0
  3  6  2  0
  4  7  1  0
  4  8  1  0
  9  5  1  6
  9 10  1  0
  9 11  1  0
 10 12  1  0
 13 11  1  0
 11 14  2  0
 12 15  2  0
 12 16  1  0
 13 17  1  0
 15 18  1  0
 19 16  2  0
 17 20  1  1
 17 21  1  0
 18 22  2  0
 22 19  1  0
 23 20  1  6
 21 24  1  0
 21 25  1  6
 22 26  1  0
 23 27  1  0
 23 28  1  0
 24 29  1  0
 27 30  1  0
 27 31  2  0
 32 28  1  0
 29 33  1  0
 29 34  2  0
 30 32  1  0
 33 35  1  0
 35 36  1  0
V   25 *
A    2
 C57
A    3
 C01
A    4
 C78
A    5
 C02
A    6
 O03
A    7
 C81
A    8
 C82
A    9
 C04
A   10
 C05
A   11
 C47
A   12
 C06
A   13
 N12
A   14
 O48
A   15
 C07
A   16
 C11
A   17
 C13
A   18
 C08
A   19
 C10
A   20
 C14
A   21
 C19
A   22
 C09
A   23
 C15
A   24
 C20
A   25
 X  
A   26
 F1 
A   27
 C16
A   28
 C84
A   29
 C21
A   30
 N17
A   31
 O18
A   32
 C83
A   33
 O22
A   34
 O23
A   35
 C50
A   36
 C53
M  END
>  <XChem_code>  (727) 
AG7§19

>  <Occupancy>  (727) 
[1.0, 1.0, 1.0, 1.0, 1.0, 1.0, 1.0, 0.81, 0.67, 1.0, 0.9, 1.0, 0.99, 0.82, 1.0, 0.97, 0.92, 1.0, 1.0, 1.0, 1.0, 1.0, 1.0, 1.0, 1.0, 1.0, 0.96, 0.94, 0.88, 1.0, 0.97, 0.96, 0.82, 1.0, 1.0, 1.0, 0.94, 1.0, 1.0, 1.0, 1.0, 1.0, 1.0, 0.57]

>  <TempFactor>  (727) 
[8.55, 14.09, 10.4, 16.23, 18.11, 8.39, 11.04, 21.62, 18.04, 14.04, 16.09, 16.2, 18.25, 20.07, 20.39, 19.45, 18.39, 8.91, 9.58, 9.49, 9.06, 8.98, 10.12, 8.25, 10.26, 13.73, 15.91, 18.52, 15.13, 10.09, 11.37, 22.17, 24.58, 9.1, 9.37, 11.23, 12.49, 10.87, 13.0, 11.61, 11.25, 10.85, 9.88, 22.44]

>  <accession>  (727) 
3QZR_A

>  <description>  (727) 
Chain A, 3C protein [Enterovirus A71]

>  <evalue>  (727) 
1.4913000000000001e-58

>  <pdb_code>  (727) 
3QZR

>  <chain>  (727) 
A

>  <ligands>  (727) 
[{'chain_id': 'A', 'author_residue_number': 501, 'author_insertion_code': '', 'chem_comp_id': 'AG7', 'alternate_conformers': 0, 'entity_id': 2, 'struct_asym_id': 'C', 'residue_number': 1, 'chem_comp_name': '4-{2-(4-FLUORO-BENZYL)-6-METHYL-5-[(5-METHYL-ISOXAZOLE-3-CARBONYL)-AMINO]-4-OXO-HEPTANOYLAMINO}-5-(2-OXO-PYRROLIDIN-3-YL)-PENTANOIC ACID ETHYL ESTER', 'weight': 600.678, 'carbohydrate_polymer': False, 'branch_name': ''}, {'chain_id': 'B', 'author_residue_number': 501, 'author_insertion_code': '', 'chem_comp_id': 'AG7', 'alternate_conformers': 0, 'entity_id': 2, 'struct_asym_id': 'E', 'residue_number': 1, 'chem_comp_name': '4-{2-(4-FLUORO-BENZYL)-6-METHYL-5-[(5-METHYL-ISOXAZOLE-3-CARBONYL)-AMINO]-4-OXO-HEPTANOYLAMINO}-5-(2-OXO-PYRROLIDIN-3-YL)-PENTANOIC ACID ETHYL ESTER', 'weight': 600.678, 'carbohydrate_polymer': False, 'branch_name': ''}, {'chain_id': 'A', 'author_residue_number': 184, 'author_insertion_code': '', 'chem_comp_id': 'EDO', 'alternate_conformers': 0, 'entity_id': 3, 'struct_asym_id': 'D', 'residue_number': 1, 'chem_comp_name': '1,2-ETHANEDIOL', 'weight': 62.068, 'carbohydrate_polymer': False, 'branch_name': ''}, {'chain_id': 'B', 'author_residue_number': 184, 'author_insertion_code': '', 'chem_comp_id': 'EDO', 'alternate_conformers': 0, 'entity_id': 3, 'struct_asym_id': 'F', 'residue_number': 1, 'chem_comp_name': '1,2-ETHANEDIOL', 'weight': 62.068, 'carbohydrate_polymer': False, 'branch_name': ''}]

>  <ligand_codes>  (727) 
['AG7', 'AG7', 'EDO', 'EDO']

>  <cofactor_codes>  (727) 
[]

>  <has_cofactor>  (727) 
False

>  <covalent>  (727) 
True

>  <base_name>  (727) 
3QZR

>  <lig_resn>  (727) 
AG7

>  <lig_resi>  (727) 
501

>  <lig_chain>  (727) 
A

>  <lig_segi>  (727) 
C

>  <lig_alt>  (727) 


>  <polymer_chain>  (727) 
A

>  <single_smiles>  (727) 
CCOC(=O)CC[C@H](C[C@@H]1CCNC1=O)NC(=O)[C@@H](CC(=O)[C@@H](NC(=O)c2cc(C)on2)C(C)C)Cc3ccc(F)cc3

$$$$
AG7P19S5
     RDKit          3D

 19 19  0  0  0  0  0  0  0  0999 V2000
   -8.7210   16.6270  -31.5860 N   0  0  0  0  0  0  0  0  0  0  0  0
   -8.3200   16.3610  -32.9460 C   0  0  2  0  0  0  0  0  0  0  0  0
   -8.6230   14.9040  -33.3450 C   0  0  0  0  0  0  0  0  0  0  0  0
   -6.8620   16.7390  -33.1570 C   0  0  0  0  0  0  0  0  0  0  0  0
   -8.7610   14.6330  -34.8480 C   0  0  0  0  0  0  0  0  0  0  0  0
   -8.8100   14.0450  -32.5010 O   0  0  0  0  0  0  0  0  0  0  0  0
   -6.6030   18.1760  -32.7090 C   0  0  0  0  0  0  0  0  0  0  0  0
   -5.9650   15.7790  -32.4070 C   0  0  0  0  0  0  0  0  0  0  0  0
   -9.0610   13.1510  -35.1400 C   0  0  2  0  0  0  0  0  0  0  0  0
   -8.0020   12.2570  -34.5340 C   0  0  0  0  0  0  0  0  0  0  0  0
   -9.1160   12.8370  -36.6190 C   0  0  0  0  0  0  0  0  0  0  0  0
   -6.8200   12.4370  -34.7580 O   0  0  0  0  0  0  0  0  0  0  0  0
  -10.1920   13.6740  -37.2710 C   0  0  0  0  0  0  0  0  0  0  0  0
  -11.5030   13.4290  -37.0200 C   0  0  0  0  0  0  0  0  0  0  0  0
   -9.7790   14.7490  -38.2190 C   0  0  0  0  0  0  0  0  0  0  0  0
  -12.5530   14.2540  -37.7000 C   0  0  0  0  0  0  0  0  0  0  0  0
  -10.7360   15.4850  -38.8530 C   0  0  0  0  0  0  0  0  0  0  0  0
  -12.1760   15.2480  -38.5460 C   0  0  0  0  0  0  0  0  0  0  0  0
  -13.0940   15.9620  -39.1740 F   0  0  0  0  0  0  0  0  0  0  0  0
  2  1  1  1
  3  2  1  0
  2  4  1  0
  3  5  1  0
  3  6  2  0
  4  7  1  0
  4  8  1  0
  9  5  1  6
  9 10  1  0
  9 11  1  0
 10 12  2  0
 11 13  1  0
 13 14  2  0
 13 15  1  0
 14 16  1  0
 17 15  2  0
 16 18  2  0
 18 17  1  0
 18 19  1  0
A    2
 C57
A    3
 C01
A    4
 C78
A    5
 C02
A    6
 O03
A    7
 C81
A    8
 C82
A    9
 C04
A   11
 C05
A   12
 O48
A   13
 C06
A   14
 C07
A   15
 C11
A   16
 C08
A   17
 C10
A   18
 C09
A   19
 F1 
M  END
>  <XChem_code>  (728) 
AG7§19

>  <Occupancy>  (728) 
[1.0, 1.0, 1.0, 1.0, 1.0, 1.0, 1.0, 0.81, 0.67, 1.0, 0.9, 1.0, 0.99, 0.82, 1.0, 0.97, 0.92, 1.0, 1.0, 1.0, 1.0, 1.0, 1.0, 1.0, 1.0, 1.0, 0.96, 0.94, 0.88, 1.0, 0.97, 0.96, 0.82, 1.0, 1.0, 1.0, 0.94, 1.0, 1.0, 1.0, 1.0, 1.0, 1.0, 0.57]

>  <TempFactor>  (728) 
[8.55, 14.09, 10.4, 16.23, 18.11, 8.39, 11.04, 21.62, 18.04, 14.04, 16.09, 16.2, 18.25, 20.07, 20.39, 19.45, 18.39, 8.91, 9.58, 9.49, 9.06, 8.98, 10.12, 8.25, 10.26, 13.73, 15.91, 18.52, 15.13, 10.09, 11.37, 22.17, 24.58, 9.1, 9.37, 11.23, 12.49, 10.87, 13.0, 11.61, 11.25, 10.85, 9.88, 22.44]

>  <accession>  (728) 
3QZR_A

>  <description>  (728) 
Chain A, 3C protein [Enterovirus A71]

>  <evalue>  (728) 
1.4913000000000001e-58

>  <pdb_code>  (728) 
3QZR

>  <chain>  (728) 
A

>  <ligands>  (728) 
[{'chain_id': 'A', 'author_residue_number': 501, 'author_insertion_code': '', 'chem_comp_id': 'AG7', 'alternate_conformers': 0, 'entity_id': 2, 'struct_asym_id': 'C', 'residue_number': 1, 'chem_comp_name': '4-{2-(4-FLUORO-BENZYL)-6-METHYL-5-[(5-METHYL-ISOXAZOLE-3-CARBONYL)-AMINO]-4-OXO-HEPTANOYLAMINO}-5-(2-OXO-PYRROLIDIN-3-YL)-PENTANOIC ACID ETHYL ESTER', 'weight': 600.678, 'carbohydrate_polymer': False, 'branch_name': ''}, {'chain_id': 'B', 'author_residue_number': 501, 'author_insertion_code': '', 'chem_comp_id': 'AG7', 'alternate_conformers': 0, 'entity_id': 2, 'struct_asym_id': 'E', 'residue_number': 1, 'chem_comp_name': '4-{2-(4-FLUORO-BENZYL)-6-METHYL-5-[(5-METHYL-ISOXAZOLE-3-CARBONYL)-AMINO]-4-OXO-HEPTANOYLAMINO}-5-(2-OXO-PYRROLIDIN-3-YL)-PENTANOIC ACID ETHYL ESTER', 'weight': 600.678, 'carbohydrate_polymer': False, 'branch_name': ''}, {'chain_id': 'A', 'author_residue_number': 184, 'author_insertion_code': '', 'chem_comp_id': 'EDO', 'alternate_conformers': 0, 'entity_id': 3, 'struct_asym_id': 'D', 'residue_number': 1, 'chem_comp_name': '1,2-ETHANEDIOL', 'weight': 62.068, 'carbohydrate_polymer': False, 'branch_name': ''}, {'chain_id': 'B', 'author_residue_number': 184, 'author_insertion_code': '', 'chem_comp_id': 'EDO', 'alternate_conformers': 0, 'entity_id': 3, 'struct_asym_id': 'F', 'residue_number': 1, 'chem_comp_name': '1,2-ETHANEDIOL', 'weight': 62.068, 'carbohydrate_polymer': False, 'branch_name': ''}]

>  <ligand_codes>  (728) 
['AG7', 'AG7', 'EDO', 'EDO']

>  <cofactor_codes>  (728) 
[]

>  <has_cofactor>  (728) 
False

>  <covalent>  (728) 
True

>  <base_name>  (728) 
3QZR

>  <lig_resn>  (728) 
AG7

>  <lig_resi>  (728) 
501

>  <lig_chain>  (728) 
A

>  <lig_segi>  (728) 
C

>  <lig_alt>  (728) 


>  <polymer_chain>  (728) 
A

>  <single_smiles>  (728) 
CCOC(=O)CC[C@H](C[C@@H]1CCNC1=O)NC(=O)[C@@H](CC(=O)[C@@H](NC(=O)c2cc(C)on2)C(C)C)Cc3ccc(F)cc3

$$$$
AG7P19S6
     RDKit          3D

 16 16  0  0  0  0  0  0  0  0999 V2000
   -7.5070    9.9600  -33.5600 C   0  0  0  0  0  0  0  0  0  0  0  0
   -7.4170    9.7980  -32.0510 C   0  0  0  0  0  0  0  0  0  0  0  0
   -7.8680    8.6790  -34.3150 C   0  0  2  0  0  0  0  0  0  0  0  0
   -6.9710   11.0950  -31.3590 C   0  0  1  0  0  0  0  0  0  0  0  0
   -7.7390    8.7380  -35.8290 C   0  0  0  0  0  0  0  0  0  0  0  0
   -9.7020    8.3680  -33.9610 R   0  0  0  0  0  0  0  0  0  0  0  0
   -6.8990   10.8960  -29.8990 C   0  0  0  0  0  0  0  0  0  0  0  0
   -5.5910   11.5560  -31.7360 C   0  0  0  0  0  0  0  0  0  0  0  0
   -6.3020    9.0130  -36.2080 C   0  0  0  0  0  0  0  0  0  0  0  0
   -5.7720   11.6390  -29.4080 N   0  0  0  0  0  0  0  0  0  0  0  0
   -7.6530   10.2300  -29.2060 O   0  0  0  0  0  0  0  0  0  0  0  0
   -5.1520   12.3480  -30.5140 C   0  0  0  0  0  0  0  0  0  0  0  0
   -6.0500    9.8390  -37.1600 O   0  0  0  0  0  0  0  0  0  0  0  0
   -5.3750    8.4590  -35.5800 O   0  0  0  0  0  0  0  0  0  0  0  0
   -4.7460   10.1970  -37.4660 C   0  0  0  0  0  0  0  0  0  0  0  0
   -4.7740   11.5170  -38.2110 C   0  0  0  0  0  0  0  0  0  0  0  0
  1  2  1  6
  1  3  1  0
  4  2  1  6
  3  5  1  0
  3  6  1  6
  4  7  1  0
  4  8  1  0
  5  9  1  0
  7 10  1  0
  7 11  2  0
 12  8  1  0
  9 13  1  0
  9 14  2  0
 10 12  1  0
 13 15  1  0
 15 16  1  0
V    6 *
A    2
 C14
A    3
 C19
A    4
 C15
A    5
 C20
A    6
 X  
A    7
 C16
A    8
 C84
A    9
 C21
A   10
 N17
A   11
 O18
A   12
 C83
A   13
 O22
A   14
 O23
A   15
 C50
A   16
 C53
M  END
>  <XChem_code>  (729) 
AG7§19

>  <Occupancy>  (729) 
[1.0, 1.0, 1.0, 1.0, 1.0, 1.0, 1.0, 0.81, 0.67, 1.0, 0.9, 1.0, 0.99, 0.82, 1.0, 0.97, 0.92, 1.0, 1.0, 1.0, 1.0, 1.0, 1.0, 1.0, 1.0, 1.0, 0.96, 0.94, 0.88, 1.0, 0.97, 0.96, 0.82, 1.0, 1.0, 1.0, 0.94, 1.0, 1.0, 1.0, 1.0, 1.0, 1.0, 0.57]

>  <TempFactor>  (729) 
[8.55, 14.09, 10.4, 16.23, 18.11, 8.39, 11.04, 21.62, 18.04, 14.04, 16.09, 16.2, 18.25, 20.07, 20.39, 19.45, 18.39, 8.91, 9.58, 9.49, 9.06, 8.98, 10.12, 8.25, 10.26, 13.73, 15.91, 18.52, 15.13, 10.09, 11.37, 22.17, 24.58, 9.1, 9.37, 11.23, 12.49, 10.87, 13.0, 11.61, 11.25, 10.85, 9.88, 22.44]

>  <accession>  (729) 
3QZR_A

>  <description>  (729) 
Chain A, 3C protein [Enterovirus A71]

>  <evalue>  (729) 
1.4913000000000001e-58

>  <pdb_code>  (729) 
3QZR

>  <chain>  (729) 
A

>  <ligands>  (729) 
[{'chain_id': 'A', 'author_residue_number': 501, 'author_insertion_code': '', 'chem_comp_id': 'AG7', 'alternate_conformers': 0, 'entity_id': 2, 'struct_asym_id': 'C', 'residue_number': 1, 'chem_comp_name': '4-{2-(4-FLUORO-BENZYL)-6-METHYL-5-[(5-METHYL-ISOXAZOLE-3-CARBONYL)-AMINO]-4-OXO-HEPTANOYLAMINO}-5-(2-OXO-PYRROLIDIN-3-YL)-PENTANOIC ACID ETHYL ESTER', 'weight': 600.678, 'carbohydrate_polymer': False, 'branch_name': ''}, {'chain_id': 'B', 'author_residue_number': 501, 'author_insertion_code': '', 'chem_comp_id': 'AG7', 'alternate_conformers': 0, 'entity_id': 2, 'struct_asym_id': 'E', 'residue_number': 1, 'chem_comp_name': '4-{2-(4-FLUORO-BENZYL)-6-METHYL-5-[(5-METHYL-ISOXAZOLE-3-CARBONYL)-AMINO]-4-OXO-HEPTANOYLAMINO}-5-(2-OXO-PYRROLIDIN-3-YL)-PENTANOIC ACID ETHYL ESTER', 'weight': 600.678, 'carbohydrate_polymer': False, 'branch_name': ''}, {'chain_id': 'A', 'author_residue_number': 184, 'author_insertion_code': '', 'chem_comp_id': 'EDO', 'alternate_conformers': 0, 'entity_id': 3, 'struct_asym_id': 'D', 'residue_number': 1, 'chem_comp_name': '1,2-ETHANEDIOL', 'weight': 62.068, 'carbohydrate_polymer': False, 'branch_name': ''}, {'chain_id': 'B', 'author_residue_number': 184, 'author_insertion_code': '', 'chem_comp_id': 'EDO', 'alternate_conformers': 0, 'entity_id': 3, 'struct_asym_id': 'F', 'residue_number': 1, 'chem_comp_name': '1,2-ETHANEDIOL', 'weight': 62.068, 'carbohydrate_polymer': False, 'branch_name': ''}]

>  <ligand_codes>  (729) 
['AG7', 'AG7', 'EDO', 'EDO']

>  <cofactor_codes>  (729) 
[]

>  <has_cofactor>  (729) 
False

>  <covalent>  (729) 
True

>  <base_name>  (729) 
3QZR

>  <lig_resn>  (729) 
AG7

>  <lig_resi>  (729) 
501

>  <lig_chain>  (729) 
A

>  <lig_segi>  (729) 
C

>  <lig_alt>  (729) 


>  <polymer_chain>  (729) 
A

>  <single_smiles>  (729) 
CCOC(=O)CC[C@H](C[C@@H]1CCNC1=O)NC(=O)[C@@H](CC(=O)[C@@H](NC(=O)c2cc(C)on2)C(C)C)Cc3ccc(F)cc3

$$$$
AG7P19S7
     RDKit          3D

 28 29  0  0  0  0  0  0  0  0999 V2000
   -8.4740   11.0120  -33.9140 N   0  0  0  0  0  0  0  0  0  0  0  0
   -8.0020   12.2570  -34.5340 C   0  0  0  0  0  0  0  0  0  0  0  0
   -9.0610   13.1510  -35.1400 C   0  0  1  0  0  0  0  0  0  0  0  0
   -6.8200   12.4370  -34.7580 O   0  0  0  0  0  0  0  0  0  0  0  0
   -8.7610   14.6330  -34.8480 C   0  0  0  0  0  0  0  0  0  0  0  0
   -9.1160   12.8370  -36.6190 C   0  0  0  0  0  0  0  0  0  0  0  0
   -8.6230   14.9040  -33.3450 C   0  0  0  0  0  0  0  0  0  0  0  0
  -10.1920   13.6740  -37.2710 C   0  0  0  0  0  0  0  0  0  0  0  0
   -8.8100   14.0450  -32.5010 O   0  0  0  0  0  0  0  0  0  0  0  0
   -8.3200   16.3610  -32.9460 C   0  0  1  0  0  0  0  0  0  0  0  0
  -11.5030   13.4290  -37.0200 C   0  0  0  0  0  0  0  0  0  0  0  0
   -9.7790   14.7490  -38.2190 C   0  0  0  0  0  0  0  0  0  0  0  0
   -8.7210   16.6270  -31.5860 N   0  0  0  0  0  0  0  0  0  0  0  0
   -6.8620   16.7390  -33.1570 C   0  0  0  0  0  0  0  0  0  0  0  0
  -12.5530   14.2540  -37.7000 C   0  0  0  0  0  0  0  0  0  0  0  0
  -10.7360   15.4850  -38.8530 C   0  0  0  0  0  0  0  0  0  0  0  0
   -9.7810   17.5780  -31.3410 C   0  0  0  0  0  0  0  0  0  0  0  0
   -6.6030   18.1760  -32.7090 C   0  0  0  0  0  0  0  0  0  0  0  0
   -5.9650   15.7790  -32.4070 C   0  0  0  0  0  0  0  0  0  0  0  0
  -12.1760   15.2480  -38.5460 C   0  0  0  0  0  0  0  0  0  0  0  0
  -10.2350   17.7380  -29.9200 C   0  0  0  0  0  0  0  0  0  0  0  0
  -10.2100   18.2950  -32.2350 O   0  0  0  0  0  0  0  0  0  0  0  0
  -13.0940   15.9620  -39.1740 F   0  0  0  0  0  0  0  0  0  0  0  0
  -11.1830   18.7320  -29.4090 C   0  0  0  0  0  0  0  0  0  0  0  0
   -9.8640   16.9490  -28.9170 N   0  0  0  0  0  0  0  0  0  0  0  0
  -11.2610   18.5430  -28.1050 C   0  0  0  0  0  0  0  0  0  0  0  0
  -10.4800   17.4310  -27.8070 O   0  0  0  0  0  0  0  0  0  0  0  0
  -12.1530   19.2960  -27.1450 C   0  0  0  0  0  0  0  0  0  0  0  0
  1  2  1  0
  3  2  1  0
  2  4  2  0
  3  5  1  6
  3  6  1  0
  7  5  1  0
  6  8  1  0
  7  9  2  0
  7 10  1  0
  8 11  2  0
  8 12  1  0
 10 13  1  1
 10 14  1  0
 11 15  1  0
 16 12  2  0
 13 17  1  0
 14 18  1  0
 14 19  1  0
 15 20  2  0
 20 16  1  0
 21 17  1  0
 17 22  2  0
 20 23  1  0
 21 24  1  0
 21 25  2  0
 24 26  2  0
 27 25  1  0
 26 28  1  0
 26 27  1  0
A    2
 C47
A    3
 C04
A    4
 O48
A    5
 C02
A    6
 C05
A    7
 C01
A    8
 C06
A    9
 O03
A   10
 C57
A   11
 C07
A   12
 C11
A   13
 N58
A   14
 C78
A   15
 C08
A   16
 C10
A   17
 C59
A   18
 C81
A   19
 C82
A   20
 C09
A   21
 C1 
A   22
 O60
A   23
 F1 
A   24
 C2 
A   25
 N5 
A   26
 C3 
A   27
 O4 
A   28
 C4 
M  END
>  <XChem_code>  (730) 
AG7§19

>  <Occupancy>  (730) 
[1.0, 1.0, 1.0, 1.0, 1.0, 1.0, 1.0, 0.81, 0.67, 1.0, 0.9, 1.0, 0.99, 0.82, 1.0, 0.97, 0.92, 1.0, 1.0, 1.0, 1.0, 1.0, 1.0, 1.0, 1.0, 1.0, 0.96, 0.94, 0.88, 1.0, 0.97, 0.96, 0.82, 1.0, 1.0, 1.0, 0.94, 1.0, 1.0, 1.0, 1.0, 1.0, 1.0, 0.57]

>  <TempFactor>  (730) 
[8.55, 14.09, 10.4, 16.23, 18.11, 8.39, 11.04, 21.62, 18.04, 14.04, 16.09, 16.2, 18.25, 20.07, 20.39, 19.45, 18.39, 8.91, 9.58, 9.49, 9.06, 8.98, 10.12, 8.25, 10.26, 13.73, 15.91, 18.52, 15.13, 10.09, 11.37, 22.17, 24.58, 9.1, 9.37, 11.23, 12.49, 10.87, 13.0, 11.61, 11.25, 10.85, 9.88, 22.44]

>  <accession>  (730) 
3QZR_A

>  <description>  (730) 
Chain A, 3C protein [Enterovirus A71]

>  <evalue>  (730) 
1.4913000000000001e-58

>  <pdb_code>  (730) 
3QZR

>  <chain>  (730) 
A

>  <ligands>  (730) 
[{'chain_id': 'A', 'author_residue_number': 501, 'author_insertion_code': '', 'chem_comp_id': 'AG7', 'alternate_conformers': 0, 'entity_id': 2, 'struct_asym_id': 'C', 'residue_number': 1, 'chem_comp_name': '4-{2-(4-FLUORO-BENZYL)-6-METHYL-5-[(5-METHYL-ISOXAZOLE-3-CARBONYL)-AMINO]-4-OXO-HEPTANOYLAMINO}-5-(2-OXO-PYRROLIDIN-3-YL)-PENTANOIC ACID ETHYL ESTER', 'weight': 600.678, 'carbohydrate_polymer': False, 'branch_name': ''}, {'chain_id': 'B', 'author_residue_number': 501, 'author_insertion_code': '', 'chem_comp_id': 'AG7', 'alternate_conformers': 0, 'entity_id': 2, 'struct_asym_id': 'E', 'residue_number': 1, 'chem_comp_name': '4-{2-(4-FLUORO-BENZYL)-6-METHYL-5-[(5-METHYL-ISOXAZOLE-3-CARBONYL)-AMINO]-4-OXO-HEPTANOYLAMINO}-5-(2-OXO-PYRROLIDIN-3-YL)-PENTANOIC ACID ETHYL ESTER', 'weight': 600.678, 'carbohydrate_polymer': False, 'branch_name': ''}, {'chain_id': 'A', 'author_residue_number': 184, 'author_insertion_code': '', 'chem_comp_id': 'EDO', 'alternate_conformers': 0, 'entity_id': 3, 'struct_asym_id': 'D', 'residue_number': 1, 'chem_comp_name': '1,2-ETHANEDIOL', 'weight': 62.068, 'carbohydrate_polymer': False, 'branch_name': ''}, {'chain_id': 'B', 'author_residue_number': 184, 'author_insertion_code': '', 'chem_comp_id': 'EDO', 'alternate_conformers': 0, 'entity_id': 3, 'struct_asym_id': 'F', 'residue_number': 1, 'chem_comp_name': '1,2-ETHANEDIOL', 'weight': 62.068, 'carbohydrate_polymer': False, 'branch_name': ''}]

>  <ligand_codes>  (730) 
['AG7', 'AG7', 'EDO', 'EDO']

>  <cofactor_codes>  (730) 
[]

>  <has_cofactor>  (730) 
False

>  <covalent>  (730) 
True

>  <base_name>  (730) 
3QZR

>  <lig_resn>  (730) 
AG7

>  <lig_resi>  (730) 
501

>  <lig_chain>  (730) 
A

>  <lig_segi>  (730) 
C

>  <lig_alt>  (730) 


>  <polymer_chain>  (730) 
A

>  <single_smiles>  (730) 
CCOC(=O)CC[C@H](C[C@@H]1CCNC1=O)NC(=O)[C@@H](CC(=O)[C@@H](NC(=O)c2cc(C)on2)C(C)C)Cc3ccc(F)cc3

$$$$
AG7P19S8
     RDKit          3D

  9  9  0  0  0  0  0  0  0  0999 V2000
   -8.7210   16.6270  -31.5860 N   0  0  0  0  0  0  0  0  0  0  0  0
   -9.7810   17.5780  -31.3410 C   0  0  0  0  0  0  0  0  0  0  0  0
  -10.2350   17.7380  -29.9200 C   0  0  0  0  0  0  0  0  0  0  0  0
  -10.2100   18.2950  -32.2350 O   0  0  0  0  0  0  0  0  0  0  0  0
  -11.1830   18.7320  -29.4090 C   0  0  0  0  0  0  0  0  0  0  0  0
   -9.8640   16.9490  -28.9170 N   0  0  0  0  0  0  0  0  0  0  0  0
  -11.2610   18.5430  -28.1050 C   0  0  0  0  0  0  0  0  0  0  0  0
  -10.4800   17.4310  -27.8070 O   0  0  0  0  0  0  0  0  0  0  0  0
  -12.1530   19.2960  -27.1450 C   0  0  0  0  0  0  0  0  0  0  0  0
  1  2  1  0
  3  2  1  0
  2  4  2  0
  3  5  1  0
  3  6  2  0
  5  7  2  0
  8  6  1  0
  7  9  1  0
  7  8  1  0
A    2
 C59
A    3
 C1 
A    4
 O60
A    5
 C2 
A    6
 N5 
A    7
 C3 
A    8
 O4 
A    9
 C4 
M  END
>  <XChem_code>  (731) 
AG7§19

>  <Occupancy>  (731) 
[1.0, 1.0, 1.0, 1.0, 1.0, 1.0, 1.0, 0.81, 0.67, 1.0, 0.9, 1.0, 0.99, 0.82, 1.0, 0.97, 0.92, 1.0, 1.0, 1.0, 1.0, 1.0, 1.0, 1.0, 1.0, 1.0, 0.96, 0.94, 0.88, 1.0, 0.97, 0.96, 0.82, 1.0, 1.0, 1.0, 0.94, 1.0, 1.0, 1.0, 1.0, 1.0, 1.0, 0.57]

>  <TempFactor>  (731) 
[8.55, 14.09, 10.4, 16.23, 18.11, 8.39, 11.04, 21.62, 18.04, 14.04, 16.09, 16.2, 18.25, 20.07, 20.39, 19.45, 18.39, 8.91, 9.58, 9.49, 9.06, 8.98, 10.12, 8.25, 10.26, 13.73, 15.91, 18.52, 15.13, 10.09, 11.37, 22.17, 24.58, 9.1, 9.37, 11.23, 12.49, 10.87, 13.0, 11.61, 11.25, 10.85, 9.88, 22.44]

>  <accession>  (731) 
3QZR_A

>  <description>  (731) 
Chain A, 3C protein [Enterovirus A71]

>  <evalue>  (731) 
1.4913000000000001e-58

>  <pdb_code>  (731) 
3QZR

>  <chain>  (731) 
A

>  <ligands>  (731) 
[{'chain_id': 'A', 'author_residue_number': 501, 'author_insertion_code': '', 'chem_comp_id': 'AG7', 'alternate_conformers': 0, 'entity_id': 2, 'struct_asym_id': 'C', 'residue_number': 1, 'chem_comp_name': '4-{2-(4-FLUORO-BENZYL)-6-METHYL-5-[(5-METHYL-ISOXAZOLE-3-CARBONYL)-AMINO]-4-OXO-HEPTANOYLAMINO}-5-(2-OXO-PYRROLIDIN-3-YL)-PENTANOIC ACID ETHYL ESTER', 'weight': 600.678, 'carbohydrate_polymer': False, 'branch_name': ''}, {'chain_id': 'B', 'author_residue_number': 501, 'author_insertion_code': '', 'chem_comp_id': 'AG7', 'alternate_conformers': 0, 'entity_id': 2, 'struct_asym_id': 'E', 'residue_number': 1, 'chem_comp_name': '4-{2-(4-FLUORO-BENZYL)-6-METHYL-5-[(5-METHYL-ISOXAZOLE-3-CARBONYL)-AMINO]-4-OXO-HEPTANOYLAMINO}-5-(2-OXO-PYRROLIDIN-3-YL)-PENTANOIC ACID ETHYL ESTER', 'weight': 600.678, 'carbohydrate_polymer': False, 'branch_name': ''}, {'chain_id': 'A', 'author_residue_number': 184, 'author_insertion_code': '', 'chem_comp_id': 'EDO', 'alternate_conformers': 0, 'entity_id': 3, 'struct_asym_id': 'D', 'residue_number': 1, 'chem_comp_name': '1,2-ETHANEDIOL', 'weight': 62.068, 'carbohydrate_polymer': False, 'branch_name': ''}, {'chain_id': 'B', 'author_residue_number': 184, 'author_insertion_code': '', 'chem_comp_id': 'EDO', 'alternate_conformers': 0, 'entity_id': 3, 'struct_asym_id': 'F', 'residue_number': 1, 'chem_comp_name': '1,2-ETHANEDIOL', 'weight': 62.068, 'carbohydrate_polymer': False, 'branch_name': ''}]

>  <ligand_codes>  (731) 
['AG7', 'AG7', 'EDO', 'EDO']

>  <cofactor_codes>  (731) 
[]

>  <has_cofactor>  (731) 
False

>  <covalent>  (731) 
True

>  <base_name>  (731) 
3QZR

>  <lig_resn>  (731) 
AG7

>  <lig_resi>  (731) 
501

>  <lig_chain>  (731) 
A

>  <lig_segi>  (731) 
C

>  <lig_alt>  (731) 


>  <polymer_chain>  (731) 
A

>  <single_smiles>  (731) 
CCOC(=O)CC[C@H](C[C@@H]1CCNC1=O)NC(=O)[C@@H](CC(=O)[C@@H](NC(=O)c2cc(C)on2)C(C)C)Cc3ccc(F)cc3

$$$$
AG7P19S9
     RDKit          3D

 35 36  0  0  0  0  0  0  0  0999 V2000
   -8.3200   16.3610  -32.9460 C   0  0  0  0  0  0  0  0  0  0  0  0
   -8.6230   14.9040  -33.3450 C   0  0  0  0  0  0  0  0  0  0  0  0
   -6.8620   16.7390  -33.1570 C   0  0  0  0  0  0  0  0  0  0  0  0
   -8.7610   14.6330  -34.8480 C   0  0  0  0  0  0  0  0  0  0  0  0
   -8.8100   14.0450  -32.5010 O   0  0  0  0  0  0  0  0  0  0  0  0
   -6.6030   18.1760  -32.7090 C   0  0  0  0  0  0  0  0  0  0  0  0
   -5.9650   15.7790  -32.4070 C   0  0  0  0  0  0  0  0  0  0  0  0
   -9.0610   13.1510  -35.1400 C   0  0  1  0  0  0  0  0  0  0  0  0
   -9.1160   12.8370  -36.6190 C   0  0  0  0  0  0  0  0  0  0  0  0
   -8.0020   12.2570  -34.5340 C   0  0  0  0  0  0  0  0  0  0  0  0
  -10.1920   13.6740  -37.2710 C   0  0  0  0  0  0  0  0  0  0  0  0
   -8.4740   11.0120  -33.9140 N   0  0  0  0  0  0  0  0  0  0  0  0
   -6.8200   12.4370  -34.7580 O   0  0  0  0  0  0  0  0  0  0  0  0
  -11.5030   13.4290  -37.0200 C   0  0  0  0  0  0  0  0  0  0  0  0
   -9.7790   14.7490  -38.2190 C   0  0  0  0  0  0  0  0  0  0  0  0
   -7.5070    9.9600  -33.5600 C   0  0  1  0  0  0  0  0  0  0  0  0
  -12.5530   14.2540  -37.7000 C   0  0  0  0  0  0  0  0  0  0  0  0
  -10.7360   15.4850  -38.8530 C   0  0  0  0  0  0  0  0  0  0  0  0
   -7.4170    9.7980  -32.0510 C   0  0  0  0  0  0  0  0  0  0  0  0
   -7.8680    8.6790  -34.3150 C   0  0  2  0  0  0  0  0  0  0  0  0
  -12.1760   15.2480  -38.5460 C   0  0  0  0  0  0  0  0  0  0  0  0
   -6.9710   11.0950  -31.3590 C   0  0  1  0  0  0  0  0  0  0  0  0
   -7.7390    8.7380  -35.8290 C   0  0  0  0  0  0  0  0  0  0  0  0
   -9.7020    8.3680  -33.9610 R   0  0  0  0  0  0  0  0  0  0  0  0
  -13.0940   15.9620  -39.1740 F   0  0  0  0  0  0  0  0  0  0  0  0
   -6.8990   10.8960  -29.8990 C   0  0  0  0  0  0  0  0  0  0  0  0
   -5.5910   11.5560  -31.7360 C   0  0  0  0  0  0  0  0  0  0  0  0
   -6.3020    9.0130  -36.2080 C   0  0  0  0  0  0  0  0  0  0  0  0
   -5.7720   11.6390  -29.4080 N   0  0  0  0  0  0  0  0  0  0  0  0
   -7.6530   10.2300  -29.2060 O   0  0  0  0  0  0  0  0  0  0  0  0
   -5.1520   12.3480  -30.5140 C   0  0  0  0  0  0  0  0  0  0  0  0
   -6.0500    9.8390  -37.1600 O   0  0  0  0  0  0  0  0  0  0  0  0
   -5.3750    8.4590  -35.5800 O   0  0  0  0  0  0  0  0  0  0  0  0
   -4.7460   10.1970  -37.4660 C   0  0  0  0  0  0  0  0  0  0  0  0
   -4.7740   11.5170  -38.2110 C   0  0  0  0  0  0  0  0  0  0  0  0
  2  1  1  0
  1  3  1  6
  2  4  1  0
  2  5  2  0
  3  6  1  0
  3  7  1  0
  8  4  1  6
  8  9  1  0
  8 10  1  0
  9 11  1  0
 12 10  1  0
 10 13  2  0
 11 14  2  0
 11 15  1  0
 12 16  1  0
 14 17  1  0
 18 15  2  0
 16 19  1  1
 16 20  1  0
 17 21  2  0
 21 18  1  0
 22 19  1  6
 20 23  1  0
 20 24  1  6
 21 25  1  0
 22 26  1  0
 22 27  1  0
 23 28  1  0
 26 29  1  0
 26 30  2  0
 31 27  1  0
 28 32  1  0
 28 33  2  0
 29 31  1  0
 32 34  1  0
 34 35  1  0
V   24 *
A    2
 C01
A    3
 C78
A    4
 C02
A    5
 O03
A    6
 C81
A    7
 C82
A    8
 C04
A    9
 C05
A   10
 C47
A   11
 C06
A   12
 N12
A   13
 O48
A   14
 C07
A   15
 C11
A   16
 C13
A   17
 C08
A   18
 C10
A   19
 C14
A   20
 C19
A   21
 C09
A   22
 C15
A   23
 C20
A   24
 X  
A   25
 F1 
A   26
 C16
A   27
 C84
A   28
 C21
A   29
 N17
A   30
 O18
A   31
 C83
A   32
 O22
A   33
 O23
A   34
 C50
A   35
 C53
M  END
>  <XChem_code>  (732) 
AG7§19

>  <Occupancy>  (732) 
[1.0, 1.0, 1.0, 1.0, 1.0, 1.0, 1.0, 0.81, 0.67, 1.0, 0.9, 1.0, 0.99, 0.82, 1.0, 0.97, 0.92, 1.0, 1.0, 1.0, 1.0, 1.0, 1.0, 1.0, 1.0, 1.0, 0.96, 0.94, 0.88, 1.0, 0.97, 0.96, 0.82, 1.0, 1.0, 1.0, 0.94, 1.0, 1.0, 1.0, 1.0, 1.0, 1.0, 0.57]

>  <TempFactor>  (732) 
[8.55, 14.09, 10.4, 16.23, 18.11, 8.39, 11.04, 21.62, 18.04, 14.04, 16.09, 16.2, 18.25, 20.07, 20.39, 19.45, 18.39, 8.91, 9.58, 9.49, 9.06, 8.98, 10.12, 8.25, 10.26, 13.73, 15.91, 18.52, 15.13, 10.09, 11.37, 22.17, 24.58, 9.1, 9.37, 11.23, 12.49, 10.87, 13.0, 11.61, 11.25, 10.85, 9.88, 22.44]

>  <accession>  (732) 
3QZR_A

>  <description>  (732) 
Chain A, 3C protein [Enterovirus A71]

>  <evalue>  (732) 
1.4913000000000001e-58

>  <pdb_code>  (732) 
3QZR

>  <chain>  (732) 
A

>  <ligands>  (732) 
[{'chain_id': 'A', 'author_residue_number': 501, 'author_insertion_code': '', 'chem_comp_id': 'AG7', 'alternate_conformers': 0, 'entity_id': 2, 'struct_asym_id': 'C', 'residue_number': 1, 'chem_comp_name': '4-{2-(4-FLUORO-BENZYL)-6-METHYL-5-[(5-METHYL-ISOXAZOLE-3-CARBONYL)-AMINO]-4-OXO-HEPTANOYLAMINO}-5-(2-OXO-PYRROLIDIN-3-YL)-PENTANOIC ACID ETHYL ESTER', 'weight': 600.678, 'carbohydrate_polymer': False, 'branch_name': ''}, {'chain_id': 'B', 'author_residue_number': 501, 'author_insertion_code': '', 'chem_comp_id': 'AG7', 'alternate_conformers': 0, 'entity_id': 2, 'struct_asym_id': 'E', 'residue_number': 1, 'chem_comp_name': '4-{2-(4-FLUORO-BENZYL)-6-METHYL-5-[(5-METHYL-ISOXAZOLE-3-CARBONYL)-AMINO]-4-OXO-HEPTANOYLAMINO}-5-(2-OXO-PYRROLIDIN-3-YL)-PENTANOIC ACID ETHYL ESTER', 'weight': 600.678, 'carbohydrate_polymer': False, 'branch_name': ''}, {'chain_id': 'A', 'author_residue_number': 184, 'author_insertion_code': '', 'chem_comp_id': 'EDO', 'alternate_conformers': 0, 'entity_id': 3, 'struct_asym_id': 'D', 'residue_number': 1, 'chem_comp_name': '1,2-ETHANEDIOL', 'weight': 62.068, 'carbohydrate_polymer': False, 'branch_name': ''}, {'chain_id': 'B', 'author_residue_number': 184, 'author_insertion_code': '', 'chem_comp_id': 'EDO', 'alternate_conformers': 0, 'entity_id': 3, 'struct_asym_id': 'F', 'residue_number': 1, 'chem_comp_name': '1,2-ETHANEDIOL', 'weight': 62.068, 'carbohydrate_polymer': False, 'branch_name': ''}]

>  <ligand_codes>  (732) 
['AG7', 'AG7', 'EDO', 'EDO']

>  <cofactor_codes>  (732) 
[]

>  <has_cofactor>  (732) 
False

>  <covalent>  (732) 
True

>  <base_name>  (732) 
3QZR

>  <lig_resn>  (732) 
AG7

>  <lig_resi>  (732) 
501

>  <lig_chain>  (732) 
A

>  <lig_segi>  (732) 
C

>  <lig_alt>  (732) 


>  <polymer_chain>  (732) 
A

>  <single_smiles>  (732) 
CCOC(=O)CC[C@H](C[C@@H]1CCNC1=O)NC(=O)[C@@H](CC(=O)[C@@H](NC(=O)c2cc(C)on2)C(C)C)Cc3ccc(F)cc3

$$$$
AG7P19S10
     RDKit          3D

 18 18  0  0  0  0  0  0  0  0999 V2000
   -8.3200   16.3610  -32.9460 C   0  0  0  0  0  0  0  0  0  0  0  0
   -8.6230   14.9040  -33.3450 C   0  0  0  0  0  0  0  0  0  0  0  0
   -6.8620   16.7390  -33.1570 C   0  0  0  0  0  0  0  0  0  0  0  0
   -8.7610   14.6330  -34.8480 C   0  0  0  0  0  0  0  0  0  0  0  0
   -8.8100   14.0450  -32.5010 O   0  0  0  0  0  0  0  0  0  0  0  0
   -6.6030   18.1760  -32.7090 C   0  0  0  0  0  0  0  0  0  0  0  0
   -5.9650   15.7790  -32.4070 C   0  0  0  0  0  0  0  0  0  0  0  0
   -9.0610   13.1510  -35.1400 C   0  0  2  0  0  0  0  0  0  0  0  0
   -8.0020   12.2570  -34.5340 C   0  0  0  0  0  0  0  0  0  0  0  0
   -9.1160   12.8370  -36.6190 C   0  0  0  0  0  0  0  0  0  0  0  0
   -6.8200   12.4370  -34.7580 O   0  0  0  0  0  0  0  0  0  0  0  0
  -10.1920   13.6740  -37.2710 C   0  0  0  0  0  0  0  0  0  0  0  0
  -11.5030   13.4290  -37.0200 C   0  0  0  0  0  0  0  0  0  0  0  0
   -9.7790   14.7490  -38.2190 C   0  0  0  0  0  0  0  0  0  0  0  0
  -12.5530   14.2540  -37.7000 C   0  0  0  0  0  0  0  0  0  0  0  0
  -10.7360   15.4850  -38.8530 C   0  0  0  0  0  0  0  0  0  0  0  0
  -12.1760   15.2480  -38.5460 C   0  0  0  0  0  0  0  0  0  0  0  0
  -13.0940   15.9620  -39.1740 F   0  0  0  0  0  0  0  0  0  0  0  0
  2  1  1  0
  1  3  1  6
  2  4  1  0
  2  5  2  0
  3  6  1  0
  3  7  1  0
  8  4  1  6
  8  9  1  0
  8 10  1  0
  9 11  2  0
 10 12  1  0
 12 13  2  0
 12 14  1  0
 13 15  1  0
 16 14  2  0
 15 17  2  0
 17 16  1  0
 17 18  1  0
A    2
 C01
A    3
 C78
A    4
 C02
A    5
 O03
A    6
 C81
A    7
 C82
A    8
 C04
A   10
 C05
A   11
 O48
A   12
 C06
A   13
 C07
A   14
 C11
A   15
 C08
A   16
 C10
A   17
 C09
A   18
 F1 
M  END
>  <XChem_code>  (733) 
AG7§19

>  <Occupancy>  (733) 
[1.0, 1.0, 1.0, 1.0, 1.0, 1.0, 1.0, 0.81, 0.67, 1.0, 0.9, 1.0, 0.99, 0.82, 1.0, 0.97, 0.92, 1.0, 1.0, 1.0, 1.0, 1.0, 1.0, 1.0, 1.0, 1.0, 0.96, 0.94, 0.88, 1.0, 0.97, 0.96, 0.82, 1.0, 1.0, 1.0, 0.94, 1.0, 1.0, 1.0, 1.0, 1.0, 1.0, 0.57]

>  <TempFactor>  (733) 
[8.55, 14.09, 10.4, 16.23, 18.11, 8.39, 11.04, 21.62, 18.04, 14.04, 16.09, 16.2, 18.25, 20.07, 20.39, 19.45, 18.39, 8.91, 9.58, 9.49, 9.06, 8.98, 10.12, 8.25, 10.26, 13.73, 15.91, 18.52, 15.13, 10.09, 11.37, 22.17, 24.58, 9.1, 9.37, 11.23, 12.49, 10.87, 13.0, 11.61, 11.25, 10.85, 9.88, 22.44]

>  <accession>  (733) 
3QZR_A

>  <description>  (733) 
Chain A, 3C protein [Enterovirus A71]

>  <evalue>  (733) 
1.4913000000000001e-58

>  <pdb_code>  (733) 
3QZR

>  <chain>  (733) 
A

>  <ligands>  (733) 
[{'chain_id': 'A', 'author_residue_number': 501, 'author_insertion_code': '', 'chem_comp_id': 'AG7', 'alternate_conformers': 0, 'entity_id': 2, 'struct_asym_id': 'C', 'residue_number': 1, 'chem_comp_name': '4-{2-(4-FLUORO-BENZYL)-6-METHYL-5-[(5-METHYL-ISOXAZOLE-3-CARBONYL)-AMINO]-4-OXO-HEPTANOYLAMINO}-5-(2-OXO-PYRROLIDIN-3-YL)-PENTANOIC ACID ETHYL ESTER', 'weight': 600.678, 'carbohydrate_polymer': False, 'branch_name': ''}, {'chain_id': 'B', 'author_residue_number': 501, 'author_insertion_code': '', 'chem_comp_id': 'AG7', 'alternate_conformers': 0, 'entity_id': 2, 'struct_asym_id': 'E', 'residue_number': 1, 'chem_comp_name': '4-{2-(4-FLUORO-BENZYL)-6-METHYL-5-[(5-METHYL-ISOXAZOLE-3-CARBONYL)-AMINO]-4-OXO-HEPTANOYLAMINO}-5-(2-OXO-PYRROLIDIN-3-YL)-PENTANOIC ACID ETHYL ESTER', 'weight': 600.678, 'carbohydrate_polymer': False, 'branch_name': ''}, {'chain_id': 'A', 'author_residue_number': 184, 'author_insertion_code': '', 'chem_comp_id': 'EDO', 'alternate_conformers': 0, 'entity_id': 3, 'struct_asym_id': 'D', 'residue_number': 1, 'chem_comp_name': '1,2-ETHANEDIOL', 'weight': 62.068, 'carbohydrate_polymer': False, 'branch_name': ''}, {'chain_id': 'B', 'author_residue_number': 184, 'author_insertion_code': '', 'chem_comp_id': 'EDO', 'alternate_conformers': 0, 'entity_id': 3, 'struct_asym_id': 'F', 'residue_number': 1, 'chem_comp_name': '1,2-ETHANEDIOL', 'weight': 62.068, 'carbohydrate_polymer': False, 'branch_name': ''}]

>  <ligand_codes>  (733) 
['AG7', 'AG7', 'EDO', 'EDO']

>  <cofactor_codes>  (733) 
[]

>  <has_cofactor>  (733) 
False

>  <covalent>  (733) 
True

>  <base_name>  (733) 
3QZR

>  <lig_resn>  (733) 
AG7

>  <lig_resi>  (733) 
501

>  <lig_chain>  (733) 
A

>  <lig_segi>  (733) 
C

>  <lig_alt>  (733) 


>  <polymer_chain>  (733) 
A

>  <single_smiles>  (733) 
CCOC(=O)CC[C@H](C[C@@H]1CCNC1=O)NC(=O)[C@@H](CC(=O)[C@@H](NC(=O)c2cc(C)on2)C(C)C)Cc3ccc(F)cc3

$$$$
AG7P19S11
     RDKit          3D

 20 20  0  0  0  0  0  0  0  0999 V2000
   -8.4740   11.0120  -33.9140 N   0  0  0  0  0  0  0  0  0  0  0  0
   -8.0020   12.2570  -34.5340 C   0  0  0  0  0  0  0  0  0  0  0  0
   -9.0610   13.1510  -35.1400 C   0  0  1  0  0  0  0  0  0  0  0  0
   -6.8200   12.4370  -34.7580 O   0  0  0  0  0  0  0  0  0  0  0  0
   -8.7610   14.6330  -34.8480 C   0  0  0  0  0  0  0  0  0  0  0  0
   -9.1160   12.8370  -36.6190 C   0  0  0  0  0  0  0  0  0  0  0  0
   -8.6230   14.9040  -33.3450 C   0  0  0  0  0  0  0  0  0  0  0  0
  -10.1920   13.6740  -37.2710 C   0  0  0  0  0  0  0  0  0  0  0  0
   -8.3200   16.3610  -32.9460 C   0  0  1  0  0  0  0  0  0  0  0  0
   -8.8100   14.0450  -32.5010 O   0  0  0  0  0  0  0  0  0  0  0  0
  -11.5030   13.4290  -37.0200 C   0  0  0  0  0  0  0  0  0  0  0  0
   -9.7790   14.7490  -38.2190 C   0  0  0  0  0  0  0  0  0  0  0  0
   -8.7210   16.6270  -31.5860 N   0  0  0  0  0  0  0  0  0  0  0  0
   -6.8620   16.7390  -33.1570 C   0  0  0  0  0  0  0  0  0  0  0  0
  -12.5530   14.2540  -37.7000 C   0  0  0  0  0  0  0  0  0  0  0  0
  -10.7360   15.4850  -38.8530 C   0  0  0  0  0  0  0  0  0  0  0  0
   -6.6030   18.1760  -32.7090 C   0  0  0  0  0  0  0  0  0  0  0  0
   -5.9650   15.7790  -32.4070 C   0  0  0  0  0  0  0  0  0  0  0  0
  -12.1760   15.2480  -38.5460 C   0  0  0  0  0  0  0  0  0  0  0  0
  -13.0940   15.9620  -39.1740 F   0  0  0  0  0  0  0  0  0  0  0  0
  1  2  1  0
  3  2  1  0
  2  4  2  0
  3  5  1  6
  3  6  1  0
  7  5  1  0
  6  8  1  0
  7  9  1  0
  7 10  2  0
  8 11  2  0
  8 12  1  0
  9 13  1  1
  9 14  1  0
 11 15  1  0
 16 12  2  0
 14 17  1  0
 14 18  1  0
 15 19  2  0
 19 16  1  0
 19 20  1  0
A    2
 C47
A    3
 C04
A    4
 O48
A    5
 C02
A    6
 C05
A    7
 C01
A    8
 C06
A    9
 C57
A   10
 O03
A   11
 C07
A   12
 C11
A   14
 C78
A   15
 C08
A   16
 C10
A   17
 C81
A   18
 C82
A   19
 C09
A   20
 F1 
M  END
>  <XChem_code>  (734) 
AG7§19

>  <Occupancy>  (734) 
[1.0, 1.0, 1.0, 1.0, 1.0, 1.0, 1.0, 0.81, 0.67, 1.0, 0.9, 1.0, 0.99, 0.82, 1.0, 0.97, 0.92, 1.0, 1.0, 1.0, 1.0, 1.0, 1.0, 1.0, 1.0, 1.0, 0.96, 0.94, 0.88, 1.0, 0.97, 0.96, 0.82, 1.0, 1.0, 1.0, 0.94, 1.0, 1.0, 1.0, 1.0, 1.0, 1.0, 0.57]

>  <TempFactor>  (734) 
[8.55, 14.09, 10.4, 16.23, 18.11, 8.39, 11.04, 21.62, 18.04, 14.04, 16.09, 16.2, 18.25, 20.07, 20.39, 19.45, 18.39, 8.91, 9.58, 9.49, 9.06, 8.98, 10.12, 8.25, 10.26, 13.73, 15.91, 18.52, 15.13, 10.09, 11.37, 22.17, 24.58, 9.1, 9.37, 11.23, 12.49, 10.87, 13.0, 11.61, 11.25, 10.85, 9.88, 22.44]

>  <accession>  (734) 
3QZR_A

>  <description>  (734) 
Chain A, 3C protein [Enterovirus A71]

>  <evalue>  (734) 
1.4913000000000001e-58

>  <pdb_code>  (734) 
3QZR

>  <chain>  (734) 
A

>  <ligands>  (734) 
[{'chain_id': 'A', 'author_residue_number': 501, 'author_insertion_code': '', 'chem_comp_id': 'AG7', 'alternate_conformers': 0, 'entity_id': 2, 'struct_asym_id': 'C', 'residue_number': 1, 'chem_comp_name': '4-{2-(4-FLUORO-BENZYL)-6-METHYL-5-[(5-METHYL-ISOXAZOLE-3-CARBONYL)-AMINO]-4-OXO-HEPTANOYLAMINO}-5-(2-OXO-PYRROLIDIN-3-YL)-PENTANOIC ACID ETHYL ESTER', 'weight': 600.678, 'carbohydrate_polymer': False, 'branch_name': ''}, {'chain_id': 'B', 'author_residue_number': 501, 'author_insertion_code': '', 'chem_comp_id': 'AG7', 'alternate_conformers': 0, 'entity_id': 2, 'struct_asym_id': 'E', 'residue_number': 1, 'chem_comp_name': '4-{2-(4-FLUORO-BENZYL)-6-METHYL-5-[(5-METHYL-ISOXAZOLE-3-CARBONYL)-AMINO]-4-OXO-HEPTANOYLAMINO}-5-(2-OXO-PYRROLIDIN-3-YL)-PENTANOIC ACID ETHYL ESTER', 'weight': 600.678, 'carbohydrate_polymer': False, 'branch_name': ''}, {'chain_id': 'A', 'author_residue_number': 184, 'author_insertion_code': '', 'chem_comp_id': 'EDO', 'alternate_conformers': 0, 'entity_id': 3, 'struct_asym_id': 'D', 'residue_number': 1, 'chem_comp_name': '1,2-ETHANEDIOL', 'weight': 62.068, 'carbohydrate_polymer': False, 'branch_name': ''}, {'chain_id': 'B', 'author_residue_number': 184, 'author_insertion_code': '', 'chem_comp_id': 'EDO', 'alternate_conformers': 0, 'entity_id': 3, 'struct_asym_id': 'F', 'residue_number': 1, 'chem_comp_name': '1,2-ETHANEDIOL', 'weight': 62.068, 'carbohydrate_polymer': False, 'branch_name': ''}]

>  <ligand_codes>  (734) 
['AG7', 'AG7', 'EDO', 'EDO']

>  <cofactor_codes>  (734) 
[]

>  <has_cofactor>  (734) 
False

>  <covalent>  (734) 
True

>  <base_name>  (734) 
3QZR

>  <lig_resn>  (734) 
AG7

>  <lig_resi>  (734) 
501

>  <lig_chain>  (734) 
A

>  <lig_segi>  (734) 
C

>  <lig_alt>  (734) 


>  <polymer_chain>  (734) 
A

>  <single_smiles>  (734) 
CCOC(=O)CC[C@H](C[C@@H]1CCNC1=O)NC(=O)[C@@H](CC(=O)[C@@H](NC(=O)c2cc(C)on2)C(C)C)Cc3ccc(F)cc3

$$$$
AG7P19S12
     RDKit          3D

 19 19  0  0  0  0  0  0  0  0999 V2000
   -8.3200   16.3610  -32.9460 C   0  0  0  0  0  0  0  0  0  0  0  0
   -8.6230   14.9040  -33.3450 C   0  0  0  0  0  0  0  0  0  0  0  0
   -6.8620   16.7390  -33.1570 C   0  0  0  0  0  0  0  0  0  0  0  0
   -8.7610   14.6330  -34.8480 C   0  0  0  0  0  0  0  0  0  0  0  0
   -8.8100   14.0450  -32.5010 O   0  0  0  0  0  0  0  0  0  0  0  0
   -6.6030   18.1760  -32.7090 C   0  0  0  0  0  0  0  0  0  0  0  0
   -5.9650   15.7790  -32.4070 C   0  0  0  0  0  0  0  0  0  0  0  0
   -9.0610   13.1510  -35.1400 C   0  0  2  0  0  0  0  0  0  0  0  0
   -8.0020   12.2570  -34.5340 C   0  0  0  0  0  0  0  0  0  0  0  0
   -9.1160   12.8370  -36.6190 C   0  0  0  0  0  0  0  0  0  0  0  0
   -8.4740   11.0120  -33.9140 N   0  0  0  0  0  0  0  0  0  0  0  0
   -6.8200   12.4370  -34.7580 O   0  0  0  0  0  0  0  0  0  0  0  0
  -10.1920   13.6740  -37.2710 C   0  0  0  0  0  0  0  0  0  0  0  0
  -11.5030   13.4290  -37.0200 C   0  0  0  0  0  0  0  0  0  0  0  0
   -9.7790   14.7490  -38.2190 C   0  0  0  0  0  0  0  0  0  0  0  0
  -12.5530   14.2540  -37.7000 C   0  0  0  0  0  0  0  0  0  0  0  0
  -10.7360   15.4850  -38.8530 C   0  0  0  0  0  0  0  0  0  0  0  0
  -12.1760   15.2480  -38.5460 C   0  0  0  0  0  0  0  0  0  0  0  0
  -13.0940   15.9620  -39.1740 F   0  0  0  0  0  0  0  0  0  0  0  0
  2  1  1  0
  1  3  1  6
  2  4  1  0
  2  5  2  0
  3  6  1  0
  3  7  1  0
  8  4  1  6
  8  9  1  0
  8 10  1  0
 11  9  1  0
  9 12  2  0
 10 13  1  0
 13 14  2  0
 13 15  1  0
 14 16  1  0
 17 15  2  0
 16 18  2  0
 18 17  1  0
 18 19  1  0
A    2
 C01
A    3
 C78
A    4
 C02
A    5
 O03
A    6
 C81
A    7
 C82
A    8
 C04
A    9
 C47
A   10
 C05
A   12
 O48
A   13
 C06
A   14
 C07
A   15
 C11
A   16
 C08
A   17
 C10
A   18
 C09
A   19
 F1 
M  END
>  <XChem_code>  (735) 
AG7§19

>  <Occupancy>  (735) 
[1.0, 1.0, 1.0, 1.0, 1.0, 1.0, 1.0, 0.81, 0.67, 1.0, 0.9, 1.0, 0.99, 0.82, 1.0, 0.97, 0.92, 1.0, 1.0, 1.0, 1.0, 1.0, 1.0, 1.0, 1.0, 1.0, 0.96, 0.94, 0.88, 1.0, 0.97, 0.96, 0.82, 1.0, 1.0, 1.0, 0.94, 1.0, 1.0, 1.0, 1.0, 1.0, 1.0, 0.57]

>  <TempFactor>  (735) 
[8.55, 14.09, 10.4, 16.23, 18.11, 8.39, 11.04, 21.62, 18.04, 14.04, 16.09, 16.2, 18.25, 20.07, 20.39, 19.45, 18.39, 8.91, 9.58, 9.49, 9.06, 8.98, 10.12, 8.25, 10.26, 13.73, 15.91, 18.52, 15.13, 10.09, 11.37, 22.17, 24.58, 9.1, 9.37, 11.23, 12.49, 10.87, 13.0, 11.61, 11.25, 10.85, 9.88, 22.44]

>  <accession>  (735) 
3QZR_A

>  <description>  (735) 
Chain A, 3C protein [Enterovirus A71]

>  <evalue>  (735) 
1.4913000000000001e-58

>  <pdb_code>  (735) 
3QZR

>  <chain>  (735) 
A

>  <ligands>  (735) 
[{'chain_id': 'A', 'author_residue_number': 501, 'author_insertion_code': '', 'chem_comp_id': 'AG7', 'alternate_conformers': 0, 'entity_id': 2, 'struct_asym_id': 'C', 'residue_number': 1, 'chem_comp_name': '4-{2-(4-FLUORO-BENZYL)-6-METHYL-5-[(5-METHYL-ISOXAZOLE-3-CARBONYL)-AMINO]-4-OXO-HEPTANOYLAMINO}-5-(2-OXO-PYRROLIDIN-3-YL)-PENTANOIC ACID ETHYL ESTER', 'weight': 600.678, 'carbohydrate_polymer': False, 'branch_name': ''}, {'chain_id': 'B', 'author_residue_number': 501, 'author_insertion_code': '', 'chem_comp_id': 'AG7', 'alternate_conformers': 0, 'entity_id': 2, 'struct_asym_id': 'E', 'residue_number': 1, 'chem_comp_name': '4-{2-(4-FLUORO-BENZYL)-6-METHYL-5-[(5-METHYL-ISOXAZOLE-3-CARBONYL)-AMINO]-4-OXO-HEPTANOYLAMINO}-5-(2-OXO-PYRROLIDIN-3-YL)-PENTANOIC ACID ETHYL ESTER', 'weight': 600.678, 'carbohydrate_polymer': False, 'branch_name': ''}, {'chain_id': 'A', 'author_residue_number': 184, 'author_insertion_code': '', 'chem_comp_id': 'EDO', 'alternate_conformers': 0, 'entity_id': 3, 'struct_asym_id': 'D', 'residue_number': 1, 'chem_comp_name': '1,2-ETHANEDIOL', 'weight': 62.068, 'carbohydrate_polymer': False, 'branch_name': ''}, {'chain_id': 'B', 'author_residue_number': 184, 'author_insertion_code': '', 'chem_comp_id': 'EDO', 'alternate_conformers': 0, 'entity_id': 3, 'struct_asym_id': 'F', 'residue_number': 1, 'chem_comp_name': '1,2-ETHANEDIOL', 'weight': 62.068, 'carbohydrate_polymer': False, 'branch_name': ''}]

>  <ligand_codes>  (735) 
['AG7', 'AG7', 'EDO', 'EDO']

>  <cofactor_codes>  (735) 
[]

>  <has_cofactor>  (735) 
False

>  <covalent>  (735) 
True

>  <base_name>  (735) 
3QZR

>  <lig_resn>  (735) 
AG7

>  <lig_resi>  (735) 
501

>  <lig_chain>  (735) 
A

>  <lig_segi>  (735) 
C

>  <lig_alt>  (735) 


>  <polymer_chain>  (735) 
A

>  <single_smiles>  (735) 
CCOC(=O)CC[C@H](C[C@@H]1CCNC1=O)NC(=O)[C@@H](CC(=O)[C@@H](NC(=O)c2cc(C)on2)C(C)C)Cc3ccc(F)cc3

$$$$
AG7P19S13
     RDKit          3D

  6  6  0  0  0  0  0  0  0  0999 V2000
  -10.2350   17.7380  -29.9200 C   0  0  0  0  0  0  0  0  0  0  0  0
  -11.1830   18.7320  -29.4090 C   0  0  0  0  0  0  0  0  0  0  0  0
   -9.8640   16.9490  -28.9170 N   0  0  0  0  0  0  0  0  0  0  0  0
  -11.2610   18.5430  -28.1050 C   0  0  0  0  0  0  0  0  0  0  0  0
  -10.4800   17.4310  -27.8070 O   0  0  0  0  0  0  0  0  0  0  0  0
  -12.1530   19.2960  -27.1450 C   0  0  0  0  0  0  0  0  0  0  0  0
  1  2  1  0
  1  3  2  0
  2  4  2  0
  5  3  1  0
  4  6  1  0
  4  5  1  0
A    2
 C2 
A    3
 N5 
A    4
 C3 
A    5
 O4 
A    6
 C4 
M  END
>  <XChem_code>  (736) 
AG7§19

>  <Occupancy>  (736) 
[1.0, 1.0, 1.0, 1.0, 1.0, 1.0, 1.0, 0.81, 0.67, 1.0, 0.9, 1.0, 0.99, 0.82, 1.0, 0.97, 0.92, 1.0, 1.0, 1.0, 1.0, 1.0, 1.0, 1.0, 1.0, 1.0, 0.96, 0.94, 0.88, 1.0, 0.97, 0.96, 0.82, 1.0, 1.0, 1.0, 0.94, 1.0, 1.0, 1.0, 1.0, 1.0, 1.0, 0.57]

>  <TempFactor>  (736) 
[8.55, 14.09, 10.4, 16.23, 18.11, 8.39, 11.04, 21.62, 18.04, 14.04, 16.09, 16.2, 18.25, 20.07, 20.39, 19.45, 18.39, 8.91, 9.58, 9.49, 9.06, 8.98, 10.12, 8.25, 10.26, 13.73, 15.91, 18.52, 15.13, 10.09, 11.37, 22.17, 24.58, 9.1, 9.37, 11.23, 12.49, 10.87, 13.0, 11.61, 11.25, 10.85, 9.88, 22.44]

>  <accession>  (736) 
3QZR_A

>  <description>  (736) 
Chain A, 3C protein [Enterovirus A71]

>  <evalue>  (736) 
1.4913000000000001e-58

>  <pdb_code>  (736) 
3QZR

>  <chain>  (736) 
A

>  <ligands>  (736) 
[{'chain_id': 'A', 'author_residue_number': 501, 'author_insertion_code': '', 'chem_comp_id': 'AG7', 'alternate_conformers': 0, 'entity_id': 2, 'struct_asym_id': 'C', 'residue_number': 1, 'chem_comp_name': '4-{2-(4-FLUORO-BENZYL)-6-METHYL-5-[(5-METHYL-ISOXAZOLE-3-CARBONYL)-AMINO]-4-OXO-HEPTANOYLAMINO}-5-(2-OXO-PYRROLIDIN-3-YL)-PENTANOIC ACID ETHYL ESTER', 'weight': 600.678, 'carbohydrate_polymer': False, 'branch_name': ''}, {'chain_id': 'B', 'author_residue_number': 501, 'author_insertion_code': '', 'chem_comp_id': 'AG7', 'alternate_conformers': 0, 'entity_id': 2, 'struct_asym_id': 'E', 'residue_number': 1, 'chem_comp_name': '4-{2-(4-FLUORO-BENZYL)-6-METHYL-5-[(5-METHYL-ISOXAZOLE-3-CARBONYL)-AMINO]-4-OXO-HEPTANOYLAMINO}-5-(2-OXO-PYRROLIDIN-3-YL)-PENTANOIC ACID ETHYL ESTER', 'weight': 600.678, 'carbohydrate_polymer': False, 'branch_name': ''}, {'chain_id': 'A', 'author_residue_number': 184, 'author_insertion_code': '', 'chem_comp_id': 'EDO', 'alternate_conformers': 0, 'entity_id': 3, 'struct_asym_id': 'D', 'residue_number': 1, 'chem_comp_name': '1,2-ETHANEDIOL', 'weight': 62.068, 'carbohydrate_polymer': False, 'branch_name': ''}, {'chain_id': 'B', 'author_residue_number': 184, 'author_insertion_code': '', 'chem_comp_id': 'EDO', 'alternate_conformers': 0, 'entity_id': 3, 'struct_asym_id': 'F', 'residue_number': 1, 'chem_comp_name': '1,2-ETHANEDIOL', 'weight': 62.068, 'carbohydrate_polymer': False, 'branch_name': ''}]

>  <ligand_codes>  (736) 
['AG7', 'AG7', 'EDO', 'EDO']

>  <cofactor_codes>  (736) 
[]

>  <has_cofactor>  (736) 
False

>  <covalent>  (736) 
True

>  <base_name>  (736) 
3QZR

>  <lig_resn>  (736) 
AG7

>  <lig_resi>  (736) 
501

>  <lig_chain>  (736) 
A

>  <lig_segi>  (736) 
C

>  <lig_alt>  (736) 


>  <polymer_chain>  (736) 
A

>  <single_smiles>  (736) 
CCOC(=O)CC[C@H](C[C@@H]1CCNC1=O)NC(=O)[C@@H](CC(=O)[C@@H](NC(=O)c2cc(C)on2)C(C)C)Cc3ccc(F)cc3

$$$$
AG7P19S14
     RDKit          3D

 38 39  0  0  0  0  0  0  0  0999 V2000
   -9.7810   17.5780  -31.3410 C   0  0  0  0  0  0  0  0  0  0  0  0
   -8.7210   16.6270  -31.5860 N   0  0  0  0  0  0  0  0  0  0  0  0
  -10.2100   18.2950  -32.2350 O   0  0  0  0  0  0  0  0  0  0  0  0
   -8.3200   16.3610  -32.9460 C   0  0  2  0  0  0  0  0  0  0  0  0
   -8.6230   14.9040  -33.3450 C   0  0  0  0  0  0  0  0  0  0  0  0
   -6.8620   16.7390  -33.1570 C   0  0  0  0  0  0  0  0  0  0  0  0
   -8.7610   14.6330  -34.8480 C   0  0  0  0  0  0  0  0  0  0  0  0
   -8.8100   14.0450  -32.5010 O   0  0  0  0  0  0  0  0  0  0  0  0
   -6.6030   18.1760  -32.7090 C   0  0  0  0  0  0  0  0  0  0  0  0
   -5.9650   15.7790  -32.4070 C   0  0  0  0  0  0  0  0  0  0  0  0
   -9.0610   13.1510  -35.1400 C   0  0  1  0  0  0  0  0  0  0  0  0
   -9.1160   12.8370  -36.6190 C   0  0  0  0  0  0  0  0  0  0  0  0
   -8.0020   12.2570  -34.5340 C   0  0  0  0  0  0  0  0  0  0  0  0
  -10.1920   13.6740  -37.2710 C   0  0  0  0  0  0  0  0  0  0  0  0
   -8.4740   11.0120  -33.9140 N   0  0  0  0  0  0  0  0  0  0  0  0
   -6.8200   12.4370  -34.7580 O   0  0  0  0  0  0  0  0  0  0  0  0
  -11.5030   13.4290  -37.0200 C   0  0  0  0  0  0  0  0  0  0  0  0
   -9.7790   14.7490  -38.2190 C   0  0  0  0  0  0  0  0  0  0  0  0
   -7.5070    9.9600  -33.5600 C   0  0  1  0  0  0  0  0  0  0  0  0
  -12.5530   14.2540  -37.7000 C   0  0  0  0  0  0  0  0  0  0  0  0
  -10.7360   15.4850  -38.8530 C   0  0  0  0  0  0  0  0  0  0  0  0
   -7.4170    9.7980  -32.0510 C   0  0  0  0  0  0  0  0  0  0  0  0
   -7.8680    8.6790  -34.3150 C   0  0  2  0  0  0  0  0  0  0  0  0
  -12.1760   15.2480  -38.5460 C   0  0  0  0  0  0  0  0  0  0  0  0
   -6.9710   11.0950  -31.3590 C   0  0  1  0  0  0  0  0  0  0  0  0
   -7.7390    8.7380  -35.8290 C   0  0  0  0  0  0  0  0  0  0  0  0
   -9.7020    8.3680  -33.9610 R   0  0  0  0  0  0  0  0  0  0  0  0
  -13.0940   15.9620  -39.1740 F   0  0  0  0  0  0  0  0  0  0  0  0
   -6.8990   10.8960  -29.8990 C   0  0  0  0  0  0  0  0  0  0  0  0
   -5.5910   11.5560  -31.7360 C   0  0  0  0  0  0  0  0  0  0  0  0
   -6.3020    9.0130  -36.2080 C   0  0  0  0  0  0  0  0  0  0  0  0
   -5.7720   11.6390  -29.4080 N   0  0  0  0  0  0  0  0  0  0  0  0
   -7.6530   10.2300  -29.2060 O   0  0  0  0  0  0  0  0  0  0  0  0
   -5.1520   12.3480  -30.5140 C   0  0  0  0  0  0  0  0  0  0  0  0
   -6.0500    9.8390  -37.1600 O   0  0  0  0  0  0  0  0  0  0  0  0
   -5.3750    8.4590  -35.5800 O   0  0  0  0  0  0  0  0  0  0  0  0
   -4.7460   10.1970  -37.4660 C   0  0  0  0  0  0  0  0  0  0  0  0
   -4.7740   11.5170  -38.2110 C   0  0  0  0  0  0  0  0  0  0  0  0
  2  1  1  0
  1  3  2  0
  4  2  1  1
  5  4  1  0
  4  6  1  0
  5  7  1  0
  5  8  2  0
  6  9  1  0
  6 10  1  0
 11  7  1  6
 11 12  1  0
 11 13  1  0
 12 14  1  0
 15 13  1  0
 13 16  2  0
 14 17  2  0
 14 18  1  0
 15 19  1  0
 17 20  1  0
 21 18  2  0
 19 22  1  1
 19 23  1  0
 20 24  2  0
 24 21  1  0
 25 22  1  6
 23 26  1  0
 23 27  1  6
 24 28  1  0
 25 29  1  0
 25 30  1  0
 26 31  1  0
 29 32  1  0
 29 33  2  0
 34 30  1  0
 31 35  1  0
 31 36  2  0
 32 34  1  0
 35 37  1  0
 37 38  1  0
V   27 *
A    2
 N58
A    3
 O60
A    4
 C57
A    5
 C01
A    6
 C78
A    7
 C02
A    8
 O03
A    9
 C81
A   10
 C82
A   11
 C04
A   12
 C05
A   13
 C47
A   14
 C06
A   15
 N12
A   16
 O48
A   17
 C07
A   18
 C11
A   19
 C13
A   20
 C08
A   21
 C10
A   22
 C14
A   23
 C19
A   24
 C09
A   25
 C15
A   26
 C20
A   27
 X  
A   28
 F1 
A   29
 C16
A   30
 C84
A   31
 C21
A   32
 N17
A   33
 O18
A   34
 C83
A   35
 O22
A   36
 O23
A   37
 C50
A   38
 C53
M  END
>  <XChem_code>  (737) 
AG7§19

>  <Occupancy>  (737) 
[1.0, 1.0, 1.0, 1.0, 1.0, 1.0, 1.0, 0.81, 0.67, 1.0, 0.9, 1.0, 0.99, 0.82, 1.0, 0.97, 0.92, 1.0, 1.0, 1.0, 1.0, 1.0, 1.0, 1.0, 1.0, 1.0, 0.96, 0.94, 0.88, 1.0, 0.97, 0.96, 0.82, 1.0, 1.0, 1.0, 0.94, 1.0, 1.0, 1.0, 1.0, 1.0, 1.0, 0.57]

>  <TempFactor>  (737) 
[8.55, 14.09, 10.4, 16.23, 18.11, 8.39, 11.04, 21.62, 18.04, 14.04, 16.09, 16.2, 18.25, 20.07, 20.39, 19.45, 18.39, 8.91, 9.58, 9.49, 9.06, 8.98, 10.12, 8.25, 10.26, 13.73, 15.91, 18.52, 15.13, 10.09, 11.37, 22.17, 24.58, 9.1, 9.37, 11.23, 12.49, 10.87, 13.0, 11.61, 11.25, 10.85, 9.88, 22.44]

>  <accession>  (737) 
3QZR_A

>  <description>  (737) 
Chain A, 3C protein [Enterovirus A71]

>  <evalue>  (737) 
1.4913000000000001e-58

>  <pdb_code>  (737) 
3QZR

>  <chain>  (737) 
A

>  <ligands>  (737) 
[{'chain_id': 'A', 'author_residue_number': 501, 'author_insertion_code': '', 'chem_comp_id': 'AG7', 'alternate_conformers': 0, 'entity_id': 2, 'struct_asym_id': 'C', 'residue_number': 1, 'chem_comp_name': '4-{2-(4-FLUORO-BENZYL)-6-METHYL-5-[(5-METHYL-ISOXAZOLE-3-CARBONYL)-AMINO]-4-OXO-HEPTANOYLAMINO}-5-(2-OXO-PYRROLIDIN-3-YL)-PENTANOIC ACID ETHYL ESTER', 'weight': 600.678, 'carbohydrate_polymer': False, 'branch_name': ''}, {'chain_id': 'B', 'author_residue_number': 501, 'author_insertion_code': '', 'chem_comp_id': 'AG7', 'alternate_conformers': 0, 'entity_id': 2, 'struct_asym_id': 'E', 'residue_number': 1, 'chem_comp_name': '4-{2-(4-FLUORO-BENZYL)-6-METHYL-5-[(5-METHYL-ISOXAZOLE-3-CARBONYL)-AMINO]-4-OXO-HEPTANOYLAMINO}-5-(2-OXO-PYRROLIDIN-3-YL)-PENTANOIC ACID ETHYL ESTER', 'weight': 600.678, 'carbohydrate_polymer': False, 'branch_name': ''}, {'chain_id': 'A', 'author_residue_number': 184, 'author_insertion_code': '', 'chem_comp_id': 'EDO', 'alternate_conformers': 0, 'entity_id': 3, 'struct_asym_id': 'D', 'residue_number': 1, 'chem_comp_name': '1,2-ETHANEDIOL', 'weight': 62.068, 'carbohydrate_polymer': False, 'branch_name': ''}, {'chain_id': 'B', 'author_residue_number': 184, 'author_insertion_code': '', 'chem_comp_id': 'EDO', 'alternate_conformers': 0, 'entity_id': 3, 'struct_asym_id': 'F', 'residue_number': 1, 'chem_comp_name': '1,2-ETHANEDIOL', 'weight': 62.068, 'carbohydrate_polymer': False, 'branch_name': ''}]

>  <ligand_codes>  (737) 
['AG7', 'AG7', 'EDO', 'EDO']

>  <cofactor_codes>  (737) 
[]

>  <has_cofactor>  (737) 
False

>  <covalent>  (737) 
True

>  <base_name>  (737) 
3QZR

>  <lig_resn>  (737) 
AG7

>  <lig_resi>  (737) 
501

>  <lig_chain>  (737) 
A

>  <lig_segi>  (737) 
C

>  <lig_alt>  (737) 


>  <polymer_chain>  (737) 
A

>  <single_smiles>  (737) 
CCOC(=O)CC[C@H](C[C@@H]1CCNC1=O)NC(=O)[C@@H](CC(=O)[C@@H](NC(=O)c2cc(C)on2)C(C)C)Cc3ccc(F)cc3

$$$$
AG7P19S15
     RDKit          3D

 21 21  0  0  0  0  0  0  0  0999 V2000
   -9.7810   17.5780  -31.3410 C   0  0  0  0  0  0  0  0  0  0  0  0
   -8.7210   16.6270  -31.5860 N   0  0  0  0  0  0  0  0  0  0  0  0
  -10.2100   18.2950  -32.2350 O   0  0  0  0  0  0  0  0  0  0  0  0
   -8.3200   16.3610  -32.9460 C   0  0  2  0  0  0  0  0  0  0  0  0
   -8.6230   14.9040  -33.3450 C   0  0  0  0  0  0  0  0  0  0  0  0
   -6.8620   16.7390  -33.1570 C   0  0  0  0  0  0  0  0  0  0  0  0
   -8.7610   14.6330  -34.8480 C   0  0  0  0  0  0  0  0  0  0  0  0
   -8.8100   14.0450  -32.5010 O   0  0  0  0  0  0  0  0  0  0  0  0
   -6.6030   18.1760  -32.7090 C   0  0  0  0  0  0  0  0  0  0  0  0
   -5.9650   15.7790  -32.4070 C   0  0  0  0  0  0  0  0  0  0  0  0
   -9.0610   13.1510  -35.1400 C   0  0  2  0  0  0  0  0  0  0  0  0
   -8.0020   12.2570  -34.5340 C   0  0  0  0  0  0  0  0  0  0  0  0
   -9.1160   12.8370  -36.6190 C   0  0  0  0  0  0  0  0  0  0  0  0
   -6.8200   12.4370  -34.7580 O   0  0  0  0  0  0  0  0  0  0  0  0
  -10.1920   13.6740  -37.2710 C   0  0  0  0  0  0  0  0  0  0  0  0
  -11.5030   13.4290  -37.0200 C   0  0  0  0  0  0  0  0  0  0  0  0
   -9.7790   14.7490  -38.2190 C   0  0  0  0  0  0  0  0  0  0  0  0
  -12.5530   14.2540  -37.7000 C   0  0  0  0  0  0  0  0  0  0  0  0
  -10.7360   15.4850  -38.8530 C   0  0  0  0  0  0  0  0  0  0  0  0
  -12.1760   15.2480  -38.5460 C   0  0  0  0  0  0  0  0  0  0  0  0
  -13.0940   15.9620  -39.1740 F   0  0  0  0  0  0  0  0  0  0  0  0
  2  1  1  0
  1  3  2  0
  4  2  1  1
  5  4  1  0
  4  6  1  0
  5  7  1  0
  5  8  2  0
  6  9  1  0
  6 10  1  0
 11  7  1  6
 11 12  1  0
 11 13  1  0
 12 14  2  0
 13 15  1  0
 15 16  2  0
 15 17  1  0
 16 18  1  0
 19 17  2  0
 18 20  2  0
 20 19  1  0
 20 21  1  0
A    2
 N58
A    3
 O60
A    4
 C57
A    5
 C01
A    6
 C78
A    7
 C02
A    8
 O03
A    9
 C81
A   10
 C82
A   11
 C04
A   13
 C05
A   14
 O48
A   15
 C06
A   16
 C07
A   17
 C11
A   18
 C08
A   19
 C10
A   20
 C09
A   21
 F1 
M  END
>  <XChem_code>  (738) 
AG7§19

>  <Occupancy>  (738) 
[1.0, 1.0, 1.0, 1.0, 1.0, 1.0, 1.0, 0.81, 0.67, 1.0, 0.9, 1.0, 0.99, 0.82, 1.0, 0.97, 0.92, 1.0, 1.0, 1.0, 1.0, 1.0, 1.0, 1.0, 1.0, 1.0, 0.96, 0.94, 0.88, 1.0, 0.97, 0.96, 0.82, 1.0, 1.0, 1.0, 0.94, 1.0, 1.0, 1.0, 1.0, 1.0, 1.0, 0.57]

>  <TempFactor>  (738) 
[8.55, 14.09, 10.4, 16.23, 18.11, 8.39, 11.04, 21.62, 18.04, 14.04, 16.09, 16.2, 18.25, 20.07, 20.39, 19.45, 18.39, 8.91, 9.58, 9.49, 9.06, 8.98, 10.12, 8.25, 10.26, 13.73, 15.91, 18.52, 15.13, 10.09, 11.37, 22.17, 24.58, 9.1, 9.37, 11.23, 12.49, 10.87, 13.0, 11.61, 11.25, 10.85, 9.88, 22.44]

>  <accession>  (738) 
3QZR_A

>  <description>  (738) 
Chain A, 3C protein [Enterovirus A71]

>  <evalue>  (738) 
1.4913000000000001e-58

>  <pdb_code>  (738) 
3QZR

>  <chain>  (738) 
A

>  <ligands>  (738) 
[{'chain_id': 'A', 'author_residue_number': 501, 'author_insertion_code': '', 'chem_comp_id': 'AG7', 'alternate_conformers': 0, 'entity_id': 2, 'struct_asym_id': 'C', 'residue_number': 1, 'chem_comp_name': '4-{2-(4-FLUORO-BENZYL)-6-METHYL-5-[(5-METHYL-ISOXAZOLE-3-CARBONYL)-AMINO]-4-OXO-HEPTANOYLAMINO}-5-(2-OXO-PYRROLIDIN-3-YL)-PENTANOIC ACID ETHYL ESTER', 'weight': 600.678, 'carbohydrate_polymer': False, 'branch_name': ''}, {'chain_id': 'B', 'author_residue_number': 501, 'author_insertion_code': '', 'chem_comp_id': 'AG7', 'alternate_conformers': 0, 'entity_id': 2, 'struct_asym_id': 'E', 'residue_number': 1, 'chem_comp_name': '4-{2-(4-FLUORO-BENZYL)-6-METHYL-5-[(5-METHYL-ISOXAZOLE-3-CARBONYL)-AMINO]-4-OXO-HEPTANOYLAMINO}-5-(2-OXO-PYRROLIDIN-3-YL)-PENTANOIC ACID ETHYL ESTER', 'weight': 600.678, 'carbohydrate_polymer': False, 'branch_name': ''}, {'chain_id': 'A', 'author_residue_number': 184, 'author_insertion_code': '', 'chem_comp_id': 'EDO', 'alternate_conformers': 0, 'entity_id': 3, 'struct_asym_id': 'D', 'residue_number': 1, 'chem_comp_name': '1,2-ETHANEDIOL', 'weight': 62.068, 'carbohydrate_polymer': False, 'branch_name': ''}, {'chain_id': 'B', 'author_residue_number': 184, 'author_insertion_code': '', 'chem_comp_id': 'EDO', 'alternate_conformers': 0, 'entity_id': 3, 'struct_asym_id': 'F', 'residue_number': 1, 'chem_comp_name': '1,2-ETHANEDIOL', 'weight': 62.068, 'carbohydrate_polymer': False, 'branch_name': ''}]

>  <ligand_codes>  (738) 
['AG7', 'AG7', 'EDO', 'EDO']

>  <cofactor_codes>  (738) 
[]

>  <has_cofactor>  (738) 
False

>  <covalent>  (738) 
True

>  <base_name>  (738) 
3QZR

>  <lig_resn>  (738) 
AG7

>  <lig_resi>  (738) 
501

>  <lig_chain>  (738) 
A

>  <lig_segi>  (738) 
C

>  <lig_alt>  (738) 


>  <polymer_chain>  (738) 
A

>  <single_smiles>  (738) 
CCOC(=O)CC[C@H](C[C@@H]1CCNC1=O)NC(=O)[C@@H](CC(=O)[C@@H](NC(=O)c2cc(C)on2)C(C)C)Cc3ccc(F)cc3

$$$$
AG7P19S16
     RDKit          3D

 22 22  0  0  0  0  0  0  0  0999 V2000
   -9.7810   17.5780  -31.3410 C   0  0  0  0  0  0  0  0  0  0  0  0
   -8.7210   16.6270  -31.5860 N   0  0  0  0  0  0  0  0  0  0  0  0
  -10.2100   18.2950  -32.2350 O   0  0  0  0  0  0  0  0  0  0  0  0
   -8.3200   16.3610  -32.9460 C   0  0  2  0  0  0  0  0  0  0  0  0
   -8.6230   14.9040  -33.3450 C   0  0  0  0  0  0  0  0  0  0  0  0
   -6.8620   16.7390  -33.1570 C   0  0  0  0  0  0  0  0  0  0  0  0
   -8.7610   14.6330  -34.8480 C   0  0  0  0  0  0  0  0  0  0  0  0
   -8.8100   14.0450  -32.5010 O   0  0  0  0  0  0  0  0  0  0  0  0
   -6.6030   18.1760  -32.7090 C   0  0  0  0  0  0  0  0  0  0  0  0
   -5.9650   15.7790  -32.4070 C   0  0  0  0  0  0  0  0  0  0  0  0
   -9.0610   13.1510  -35.1400 C   0  0  2  0  0  0  0  0  0  0  0  0
   -8.0020   12.2570  -34.5340 C   0  0  0  0  0  0  0  0  0  0  0  0
   -9.1160   12.8370  -36.6190 C   0  0  0  0  0  0  0  0  0  0  0  0
   -8.4740   11.0120  -33.9140 N   0  0  0  0  0  0  0  0  0  0  0  0
   -6.8200   12.4370  -34.7580 O   0  0  0  0  0  0  0  0  0  0  0  0
  -10.1920   13.6740  -37.2710 C   0  0  0  0  0  0  0  0  0  0  0  0
  -11.5030   13.4290  -37.0200 C   0  0  0  0  0  0  0  0  0  0  0  0
   -9.7790   14.7490  -38.2190 C   0  0  0  0  0  0  0  0  0  0  0  0
  -12.5530   14.2540  -37.7000 C   0  0  0  0  0  0  0  0  0  0  0  0
  -10.7360   15.4850  -38.8530 C   0  0  0  0  0  0  0  0  0  0  0  0
  -12.1760   15.2480  -38.5460 C   0  0  0  0  0  0  0  0  0  0  0  0
  -13.0940   15.9620  -39.1740 F   0  0  0  0  0  0  0  0  0  0  0  0
  2  1  1  0
  1  3  2  0
  4  2  1  1
  5  4  1  0
  4  6  1  0
  5  7  1  0
  5  8  2  0
  6  9  1  0
  6 10  1  0
 11  7  1  6
 11 12  1  0
 11 13  1  0
 14 12  1  0
 12 15  2  0
 13 16  1  0
 16 17  2  0
 16 18  1  0
 17 19  1  0
 20 18  2  0
 19 21  2  0
 21 20  1  0
 21 22  1  0
A    2
 N58
A    3
 O60
A    4
 C57
A    5
 C01
A    6
 C78
A    7
 C02
A    8
 O03
A    9
 C81
A   10
 C82
A   11
 C04
A   12
 C47
A   13
 C05
A   15
 O48
A   16
 C06
A   17
 C07
A   18
 C11
A   19
 C08
A   20
 C10
A   21
 C09
A   22
 F1 
M  END
>  <XChem_code>  (739) 
AG7§19

>  <Occupancy>  (739) 
[1.0, 1.0, 1.0, 1.0, 1.0, 1.0, 1.0, 0.81, 0.67, 1.0, 0.9, 1.0, 0.99, 0.82, 1.0, 0.97, 0.92, 1.0, 1.0, 1.0, 1.0, 1.0, 1.0, 1.0, 1.0, 1.0, 0.96, 0.94, 0.88, 1.0, 0.97, 0.96, 0.82, 1.0, 1.0, 1.0, 0.94, 1.0, 1.0, 1.0, 1.0, 1.0, 1.0, 0.57]

>  <TempFactor>  (739) 
[8.55, 14.09, 10.4, 16.23, 18.11, 8.39, 11.04, 21.62, 18.04, 14.04, 16.09, 16.2, 18.25, 20.07, 20.39, 19.45, 18.39, 8.91, 9.58, 9.49, 9.06, 8.98, 10.12, 8.25, 10.26, 13.73, 15.91, 18.52, 15.13, 10.09, 11.37, 22.17, 24.58, 9.1, 9.37, 11.23, 12.49, 10.87, 13.0, 11.61, 11.25, 10.85, 9.88, 22.44]

>  <accession>  (739) 
3QZR_A

>  <description>  (739) 
Chain A, 3C protein [Enterovirus A71]

>  <evalue>  (739) 
1.4913000000000001e-58

>  <pdb_code>  (739) 
3QZR

>  <chain>  (739) 
A

>  <ligands>  (739) 
[{'chain_id': 'A', 'author_residue_number': 501, 'author_insertion_code': '', 'chem_comp_id': 'AG7', 'alternate_conformers': 0, 'entity_id': 2, 'struct_asym_id': 'C', 'residue_number': 1, 'chem_comp_name': '4-{2-(4-FLUORO-BENZYL)-6-METHYL-5-[(5-METHYL-ISOXAZOLE-3-CARBONYL)-AMINO]-4-OXO-HEPTANOYLAMINO}-5-(2-OXO-PYRROLIDIN-3-YL)-PENTANOIC ACID ETHYL ESTER', 'weight': 600.678, 'carbohydrate_polymer': False, 'branch_name': ''}, {'chain_id': 'B', 'author_residue_number': 501, 'author_insertion_code': '', 'chem_comp_id': 'AG7', 'alternate_conformers': 0, 'entity_id': 2, 'struct_asym_id': 'E', 'residue_number': 1, 'chem_comp_name': '4-{2-(4-FLUORO-BENZYL)-6-METHYL-5-[(5-METHYL-ISOXAZOLE-3-CARBONYL)-AMINO]-4-OXO-HEPTANOYLAMINO}-5-(2-OXO-PYRROLIDIN-3-YL)-PENTANOIC ACID ETHYL ESTER', 'weight': 600.678, 'carbohydrate_polymer': False, 'branch_name': ''}, {'chain_id': 'A', 'author_residue_number': 184, 'author_insertion_code': '', 'chem_comp_id': 'EDO', 'alternate_conformers': 0, 'entity_id': 3, 'struct_asym_id': 'D', 'residue_number': 1, 'chem_comp_name': '1,2-ETHANEDIOL', 'weight': 62.068, 'carbohydrate_polymer': False, 'branch_name': ''}, {'chain_id': 'B', 'author_residue_number': 184, 'author_insertion_code': '', 'chem_comp_id': 'EDO', 'alternate_conformers': 0, 'entity_id': 3, 'struct_asym_id': 'F', 'residue_number': 1, 'chem_comp_name': '1,2-ETHANEDIOL', 'weight': 62.068, 'carbohydrate_polymer': False, 'branch_name': ''}]

>  <ligand_codes>  (739) 
['AG7', 'AG7', 'EDO', 'EDO']

>  <cofactor_codes>  (739) 
[]

>  <has_cofactor>  (739) 
False

>  <covalent>  (739) 
True

>  <base_name>  (739) 
3QZR

>  <lig_resn>  (739) 
AG7

>  <lig_resi>  (739) 
501

>  <lig_chain>  (739) 
A

>  <lig_segi>  (739) 
C

>  <lig_alt>  (739) 


>  <polymer_chain>  (739) 
A

>  <single_smiles>  (739) 
CCOC(=O)CC[C@H](C[C@@H]1CCNC1=O)NC(=O)[C@@H](CC(=O)[C@@H](NC(=O)c2cc(C)on2)C(C)C)Cc3ccc(F)cc3

$$$$
AG7P19S17
     RDKit          3D

  6  6  0  0  0  0  0  0  0  0999 V2000
   -6.9710   11.0950  -31.3590 C   0  0  0  0  0  0  0  0  0  0  0  0
   -6.8990   10.8960  -29.8990 C   0  0  0  0  0  0  0  0  0  0  0  0
   -5.5910   11.5560  -31.7360 C   0  0  0  0  0  0  0  0  0  0  0  0
   -5.7720   11.6390  -29.4080 N   0  0  0  0  0  0  0  0  0  0  0  0
   -7.6530   10.2300  -29.2060 O   0  0  0  0  0  0  0  0  0  0  0  0
   -5.1520   12.3480  -30.5140 C   0  0  0  0  0  0  0  0  0  0  0  0
  1  2  1  0
  1  3  1  1
  2  4  1  0
  2  5  2  0
  6  3  1  0
  4  6  1  0
A    2
 C16
A    3
 C84
A    4
 N17
A    5
 O18
A    6
 C83
M  END
>  <XChem_code>  (740) 
AG7§19

>  <Occupancy>  (740) 
[1.0, 1.0, 1.0, 1.0, 1.0, 1.0, 1.0, 0.81, 0.67, 1.0, 0.9, 1.0, 0.99, 0.82, 1.0, 0.97, 0.92, 1.0, 1.0, 1.0, 1.0, 1.0, 1.0, 1.0, 1.0, 1.0, 0.96, 0.94, 0.88, 1.0, 0.97, 0.96, 0.82, 1.0, 1.0, 1.0, 0.94, 1.0, 1.0, 1.0, 1.0, 1.0, 1.0, 0.57]

>  <TempFactor>  (740) 
[8.55, 14.09, 10.4, 16.23, 18.11, 8.39, 11.04, 21.62, 18.04, 14.04, 16.09, 16.2, 18.25, 20.07, 20.39, 19.45, 18.39, 8.91, 9.58, 9.49, 9.06, 8.98, 10.12, 8.25, 10.26, 13.73, 15.91, 18.52, 15.13, 10.09, 11.37, 22.17, 24.58, 9.1, 9.37, 11.23, 12.49, 10.87, 13.0, 11.61, 11.25, 10.85, 9.88, 22.44]

>  <accession>  (740) 
3QZR_A

>  <description>  (740) 
Chain A, 3C protein [Enterovirus A71]

>  <evalue>  (740) 
1.4913000000000001e-58

>  <pdb_code>  (740) 
3QZR

>  <chain>  (740) 
A

>  <ligands>  (740) 
[{'chain_id': 'A', 'author_residue_number': 501, 'author_insertion_code': '', 'chem_comp_id': 'AG7', 'alternate_conformers': 0, 'entity_id': 2, 'struct_asym_id': 'C', 'residue_number': 1, 'chem_comp_name': '4-{2-(4-FLUORO-BENZYL)-6-METHYL-5-[(5-METHYL-ISOXAZOLE-3-CARBONYL)-AMINO]-4-OXO-HEPTANOYLAMINO}-5-(2-OXO-PYRROLIDIN-3-YL)-PENTANOIC ACID ETHYL ESTER', 'weight': 600.678, 'carbohydrate_polymer': False, 'branch_name': ''}, {'chain_id': 'B', 'author_residue_number': 501, 'author_insertion_code': '', 'chem_comp_id': 'AG7', 'alternate_conformers': 0, 'entity_id': 2, 'struct_asym_id': 'E', 'residue_number': 1, 'chem_comp_name': '4-{2-(4-FLUORO-BENZYL)-6-METHYL-5-[(5-METHYL-ISOXAZOLE-3-CARBONYL)-AMINO]-4-OXO-HEPTANOYLAMINO}-5-(2-OXO-PYRROLIDIN-3-YL)-PENTANOIC ACID ETHYL ESTER', 'weight': 600.678, 'carbohydrate_polymer': False, 'branch_name': ''}, {'chain_id': 'A', 'author_residue_number': 184, 'author_insertion_code': '', 'chem_comp_id': 'EDO', 'alternate_conformers': 0, 'entity_id': 3, 'struct_asym_id': 'D', 'residue_number': 1, 'chem_comp_name': '1,2-ETHANEDIOL', 'weight': 62.068, 'carbohydrate_polymer': False, 'branch_name': ''}, {'chain_id': 'B', 'author_residue_number': 184, 'author_insertion_code': '', 'chem_comp_id': 'EDO', 'alternate_conformers': 0, 'entity_id': 3, 'struct_asym_id': 'F', 'residue_number': 1, 'chem_comp_name': '1,2-ETHANEDIOL', 'weight': 62.068, 'carbohydrate_polymer': False, 'branch_name': ''}]

>  <ligand_codes>  (740) 
['AG7', 'AG7', 'EDO', 'EDO']

>  <cofactor_codes>  (740) 
[]

>  <has_cofactor>  (740) 
False

>  <covalent>  (740) 
True

>  <base_name>  (740) 
3QZR

>  <lig_resn>  (740) 
AG7

>  <lig_resi>  (740) 
501

>  <lig_chain>  (740) 
A

>  <lig_segi>  (740) 
C

>  <lig_alt>  (740) 


>  <polymer_chain>  (740) 
A

>  <single_smiles>  (740) 
CCOC(=O)CC[C@H](C[C@@H]1CCNC1=O)NC(=O)[C@@H](CC(=O)[C@@H](NC(=O)c2cc(C)on2)C(C)C)Cc3ccc(F)cc3

$$$$
AG7P19S18
     RDKit          3D

 38 39  0  0  0  0  0  0  0  0999 V2000
   -7.4170    9.7980  -32.0510 C   0  0  0  0  0  0  0  0  0  0  0  0
   -7.5070    9.9600  -33.5600 C   0  0  2  0  0  0  0  0  0  0  0  0
   -8.4740   11.0120  -33.9140 N   0  0  0  0  0  0  0  0  0  0  0  0
   -7.8680    8.6790  -34.3150 C   0  0  2  0  0  0  0  0  0  0  0  0
   -8.0020   12.2570  -34.5340 C   0  0  0  0  0  0  0  0  0  0  0  0
   -7.7390    8.7380  -35.8290 C   0  0  0  0  0  0  0  0  0  0  0  0
   -9.7020    8.3680  -33.9610 R   0  0  0  0  0  0  0  0  0  0  0  0
   -9.0610   13.1510  -35.1400 C   0  0  1  0  0  0  0  0  0  0  0  0
   -6.8200   12.4370  -34.7580 O   0  0  0  0  0  0  0  0  0  0  0  0
   -6.3020    9.0130  -36.2080 C   0  0  0  0  0  0  0  0  0  0  0  0
   -8.7610   14.6330  -34.8480 C   0  0  0  0  0  0  0  0  0  0  0  0
   -9.1160   12.8370  -36.6190 C   0  0  0  0  0  0  0  0  0  0  0  0
   -6.0500    9.8390  -37.1600 O   0  0  0  0  0  0  0  0  0  0  0  0
   -5.3750    8.4590  -35.5800 O   0  0  0  0  0  0  0  0  0  0  0  0
   -8.6230   14.9040  -33.3450 C   0  0  0  0  0  0  0  0  0  0  0  0
  -10.1920   13.6740  -37.2710 C   0  0  0  0  0  0  0  0  0  0  0  0
   -4.7460   10.1970  -37.4660 C   0  0  0  0  0  0  0  0  0  0  0  0
   -8.8100   14.0450  -32.5010 O   0  0  0  0  0  0  0  0  0  0  0  0
   -8.3200   16.3610  -32.9460 C   0  0  1  0  0  0  0  0  0  0  0  0
  -11.5030   13.4290  -37.0200 C   0  0  0  0  0  0  0  0  0  0  0  0
   -9.7790   14.7490  -38.2190 C   0  0  0  0  0  0  0  0  0  0  0  0
   -4.7740   11.5170  -38.2110 C   0  0  0  0  0  0  0  0  0  0  0  0
   -8.7210   16.6270  -31.5860 N   0  0  0  0  0  0  0  0  0  0  0  0
   -6.8620   16.7390  -33.1570 C   0  0  0  0  0  0  0  0  0  0  0  0
  -12.5530   14.2540  -37.7000 C   0  0  0  0  0  0  0  0  0  0  0  0
  -10.7360   15.4850  -38.8530 C   0  0  0  0  0  0  0  0  0  0  0  0
   -9.7810   17.5780  -31.3410 C   0  0  0  0  0  0  0  0  0  0  0  0
   -6.6030   18.1760  -32.7090 C   0  0  0  0  0  0  0  0  0  0  0  0
   -5.9650   15.7790  -32.4070 C   0  0  0  0  0  0  0  0  0  0  0  0
  -12.1760   15.2480  -38.5460 C   0  0  0  0  0  0  0  0  0  0  0  0
  -10.2350   17.7380  -29.9200 C   0  0  0  0  0  0  0  0  0  0  0  0
  -10.2100   18.2950  -32.2350 O   0  0  0  0  0  0  0  0  0  0  0  0
  -13.0940   15.9620  -39.1740 F   0  0  0  0  0  0  0  0  0  0  0  0
  -11.1830   18.7320  -29.4090 C   0  0  0  0  0  0  0  0  0  0  0  0
   -9.8640   16.9490  -28.9170 N   0  0  0  0  0  0  0  0  0  0  0  0
  -11.2610   18.5430  -28.1050 C   0  0  0  0  0  0  0  0  0  0  0  0
  -10.4800   17.4310  -27.8070 O   0  0  0  0  0  0  0  0  0  0  0  0
  -12.1530   19.2960  -27.1450 C   0  0  0  0  0  0  0  0  0  0  0  0
  2  1  1  1
  3  2  1  0
  2  4  1  0
  3  5  1  0
  4  6  1  0
  4  7  1  6
  8  5  1  0
  5  9  2  0
  6 10  1  0
  8 11  1  6
  8 12  1  0
 10 13  1  0
 10 14  2  0
 15 11  1  0
 12 16  1  0
 13 17  1  0
 15 18  2  0
 15 19  1  0
 16 20  2  0
 16 21  1  0
 17 22  1  0
 19 23  1  1
 19 24  1  0
 20 25  1  0
 26 21  2  0
 23 27  1  0
 24 28  1  0
 24 29  1  0
 25 30  2  0
 30 26  1  0
 31 27  1  0
 27 32  2  0
 30 33  1  0
 31 34  1  0
 31 35  2  0
 34 36  2  0
 37 35  1  0
 36 38  1  0
 36 37  1  0
V    7 *
A    2
 C13
A    3
 N12
A    4
 C19
A    5
 C47
A    6
 C20
A    7
 X  
A    8
 C04
A    9
 O48
A   10
 C21
A   11
 C02
A   12
 C05
A   13
 O22
A   14
 O23
A   15
 C01
A   16
 C06
A   17
 C50
A   18
 O03
A   19
 C57
A   20
 C07
A   21
 C11
A   22
 C53
A   23
 N58
A   24
 C78
A   25
 C08
A   26
 C10
A   27
 C59
A   28
 C81
A   29
 C82
A   30
 C09
A   31
 C1 
A   32
 O60
A   33
 F1 
A   34
 C2 
A   35
 N5 
A   36
 C3 
A   37
 O4 
A   38
 C4 
M  END
>  <XChem_code>  (741) 
AG7§19

>  <Occupancy>  (741) 
[1.0, 1.0, 1.0, 1.0, 1.0, 1.0, 1.0, 0.81, 0.67, 1.0, 0.9, 1.0, 0.99, 0.82, 1.0, 0.97, 0.92, 1.0, 1.0, 1.0, 1.0, 1.0, 1.0, 1.0, 1.0, 1.0, 0.96, 0.94, 0.88, 1.0, 0.97, 0.96, 0.82, 1.0, 1.0, 1.0, 0.94, 1.0, 1.0, 1.0, 1.0, 1.0, 1.0, 0.57]

>  <TempFactor>  (741) 
[8.55, 14.09, 10.4, 16.23, 18.11, 8.39, 11.04, 21.62, 18.04, 14.04, 16.09, 16.2, 18.25, 20.07, 20.39, 19.45, 18.39, 8.91, 9.58, 9.49, 9.06, 8.98, 10.12, 8.25, 10.26, 13.73, 15.91, 18.52, 15.13, 10.09, 11.37, 22.17, 24.58, 9.1, 9.37, 11.23, 12.49, 10.87, 13.0, 11.61, 11.25, 10.85, 9.88, 22.44]

>  <accession>  (741) 
3QZR_A

>  <description>  (741) 
Chain A, 3C protein [Enterovirus A71]

>  <evalue>  (741) 
1.4913000000000001e-58

>  <pdb_code>  (741) 
3QZR

>  <chain>  (741) 
A

>  <ligands>  (741) 
[{'chain_id': 'A', 'author_residue_number': 501, 'author_insertion_code': '', 'chem_comp_id': 'AG7', 'alternate_conformers': 0, 'entity_id': 2, 'struct_asym_id': 'C', 'residue_number': 1, 'chem_comp_name': '4-{2-(4-FLUORO-BENZYL)-6-METHYL-5-[(5-METHYL-ISOXAZOLE-3-CARBONYL)-AMINO]-4-OXO-HEPTANOYLAMINO}-5-(2-OXO-PYRROLIDIN-3-YL)-PENTANOIC ACID ETHYL ESTER', 'weight': 600.678, 'carbohydrate_polymer': False, 'branch_name': ''}, {'chain_id': 'B', 'author_residue_number': 501, 'author_insertion_code': '', 'chem_comp_id': 'AG7', 'alternate_conformers': 0, 'entity_id': 2, 'struct_asym_id': 'E', 'residue_number': 1, 'chem_comp_name': '4-{2-(4-FLUORO-BENZYL)-6-METHYL-5-[(5-METHYL-ISOXAZOLE-3-CARBONYL)-AMINO]-4-OXO-HEPTANOYLAMINO}-5-(2-OXO-PYRROLIDIN-3-YL)-PENTANOIC ACID ETHYL ESTER', 'weight': 600.678, 'carbohydrate_polymer': False, 'branch_name': ''}, {'chain_id': 'A', 'author_residue_number': 184, 'author_insertion_code': '', 'chem_comp_id': 'EDO', 'alternate_conformers': 0, 'entity_id': 3, 'struct_asym_id': 'D', 'residue_number': 1, 'chem_comp_name': '1,2-ETHANEDIOL', 'weight': 62.068, 'carbohydrate_polymer': False, 'branch_name': ''}, {'chain_id': 'B', 'author_residue_number': 184, 'author_insertion_code': '', 'chem_comp_id': 'EDO', 'alternate_conformers': 0, 'entity_id': 3, 'struct_asym_id': 'F', 'residue_number': 1, 'chem_comp_name': '1,2-ETHANEDIOL', 'weight': 62.068, 'carbohydrate_polymer': False, 'branch_name': ''}]

>  <ligand_codes>  (741) 
['AG7', 'AG7', 'EDO', 'EDO']

>  <cofactor_codes>  (741) 
[]

>  <has_cofactor>  (741) 
False

>  <covalent>  (741) 
True

>  <base_name>  (741) 
3QZR

>  <lig_resn>  (741) 
AG7

>  <lig_resi>  (741) 
501

>  <lig_chain>  (741) 
A

>  <lig_segi>  (741) 
C

>  <lig_alt>  (741) 


>  <polymer_chain>  (741) 
A

>  <single_smiles>  (741) 
CCOC(=O)CC[C@H](C[C@@H]1CCNC1=O)NC(=O)[C@@H](CC(=O)[C@@H](NC(=O)c2cc(C)on2)C(C)C)Cc3ccc(F)cc3

$$$$
AG7P19S19
     RDKit          3D

  7  7  0  0  0  0  0  0  0  0999 V2000
  -10.1920   13.6740  -37.2710 C   0  0  0  0  0  0  0  0  0  0  0  0
  -11.5030   13.4290  -37.0200 C   0  0  0  0  0  0  0  0  0  0  0  0
   -9.7790   14.7490  -38.2190 C   0  0  0  0  0  0  0  0  0  0  0  0
  -12.5530   14.2540  -37.7000 C   0  0  0  0  0  0  0  0  0  0  0  0
  -10.7360   15.4850  -38.8530 C   0  0  0  0  0  0  0  0  0  0  0  0
  -12.1760   15.2480  -38.5460 C   0  0  0  0  0  0  0  0  0  0  0  0
  -13.0940   15.9620  -39.1740 F   0  0  0  0  0  0  0  0  0  0  0  0
  1  2  2  0
  1  3  1  0
  2  4  1  0
  5  3  2  0
  4  6  2  0
  6  5  1  0
  6  7  1  0
A    2
 C07
A    3
 C11
A    4
 C08
A    5
 C10
A    6
 C09
A    7
 F1 
M  END
>  <XChem_code>  (742) 
AG7§19

>  <Occupancy>  (742) 
[1.0, 1.0, 1.0, 1.0, 1.0, 1.0, 1.0, 0.81, 0.67, 1.0, 0.9, 1.0, 0.99, 0.82, 1.0, 0.97, 0.92, 1.0, 1.0, 1.0, 1.0, 1.0, 1.0, 1.0, 1.0, 1.0, 0.96, 0.94, 0.88, 1.0, 0.97, 0.96, 0.82, 1.0, 1.0, 1.0, 0.94, 1.0, 1.0, 1.0, 1.0, 1.0, 1.0, 0.57]

>  <TempFactor>  (742) 
[8.55, 14.09, 10.4, 16.23, 18.11, 8.39, 11.04, 21.62, 18.04, 14.04, 16.09, 16.2, 18.25, 20.07, 20.39, 19.45, 18.39, 8.91, 9.58, 9.49, 9.06, 8.98, 10.12, 8.25, 10.26, 13.73, 15.91, 18.52, 15.13, 10.09, 11.37, 22.17, 24.58, 9.1, 9.37, 11.23, 12.49, 10.87, 13.0, 11.61, 11.25, 10.85, 9.88, 22.44]

>  <accession>  (742) 
3QZR_A

>  <description>  (742) 
Chain A, 3C protein [Enterovirus A71]

>  <evalue>  (742) 
1.4913000000000001e-58

>  <pdb_code>  (742) 
3QZR

>  <chain>  (742) 
A

>  <ligands>  (742) 
[{'chain_id': 'A', 'author_residue_number': 501, 'author_insertion_code': '', 'chem_comp_id': 'AG7', 'alternate_conformers': 0, 'entity_id': 2, 'struct_asym_id': 'C', 'residue_number': 1, 'chem_comp_name': '4-{2-(4-FLUORO-BENZYL)-6-METHYL-5-[(5-METHYL-ISOXAZOLE-3-CARBONYL)-AMINO]-4-OXO-HEPTANOYLAMINO}-5-(2-OXO-PYRROLIDIN-3-YL)-PENTANOIC ACID ETHYL ESTER', 'weight': 600.678, 'carbohydrate_polymer': False, 'branch_name': ''}, {'chain_id': 'B', 'author_residue_number': 501, 'author_insertion_code': '', 'chem_comp_id': 'AG7', 'alternate_conformers': 0, 'entity_id': 2, 'struct_asym_id': 'E', 'residue_number': 1, 'chem_comp_name': '4-{2-(4-FLUORO-BENZYL)-6-METHYL-5-[(5-METHYL-ISOXAZOLE-3-CARBONYL)-AMINO]-4-OXO-HEPTANOYLAMINO}-5-(2-OXO-PYRROLIDIN-3-YL)-PENTANOIC ACID ETHYL ESTER', 'weight': 600.678, 'carbohydrate_polymer': False, 'branch_name': ''}, {'chain_id': 'A', 'author_residue_number': 184, 'author_insertion_code': '', 'chem_comp_id': 'EDO', 'alternate_conformers': 0, 'entity_id': 3, 'struct_asym_id': 'D', 'residue_number': 1, 'chem_comp_name': '1,2-ETHANEDIOL', 'weight': 62.068, 'carbohydrate_polymer': False, 'branch_name': ''}, {'chain_id': 'B', 'author_residue_number': 184, 'author_insertion_code': '', 'chem_comp_id': 'EDO', 'alternate_conformers': 0, 'entity_id': 3, 'struct_asym_id': 'F', 'residue_number': 1, 'chem_comp_name': '1,2-ETHANEDIOL', 'weight': 62.068, 'carbohydrate_polymer': False, 'branch_name': ''}]

>  <ligand_codes>  (742) 
['AG7', 'AG7', 'EDO', 'EDO']

>  <cofactor_codes>  (742) 
[]

>  <has_cofactor>  (742) 
False

>  <covalent>  (742) 
True

>  <base_name>  (742) 
3QZR

>  <lig_resn>  (742) 
AG7

>  <lig_resi>  (742) 
501

>  <lig_chain>  (742) 
A

>  <lig_segi>  (742) 
C

>  <lig_alt>  (742) 


>  <polymer_chain>  (742) 
A

>  <single_smiles>  (742) 
CCOC(=O)CC[C@H](C[C@@H]1CCNC1=O)NC(=O)[C@@H](CC(=O)[C@@H](NC(=O)c2cc(C)on2)C(C)C)Cc3ccc(F)cc3

$$$$
AG7P19S20
     RDKit          3D

 37 38  0  0  0  0  0  0  0  0999 V2000
   -9.1160   12.8370  -36.6190 C   0  0  0  0  0  0  0  0  0  0  0  0
   -9.0610   13.1510  -35.1400 C   0  0  2  0  0  0  0  0  0  0  0  0
   -8.7610   14.6330  -34.8480 C   0  0  0  0  0  0  0  0  0  0  0  0
   -8.0020   12.2570  -34.5340 C   0  0  0  0  0  0  0  0  0  0  0  0
   -8.6230   14.9040  -33.3450 C   0  0  0  0  0  0  0  0  0  0  0  0
   -8.4740   11.0120  -33.9140 N   0  0  0  0  0  0  0  0  0  0  0  0
   -6.8200   12.4370  -34.7580 O   0  0  0  0  0  0  0  0  0  0  0  0
   -8.8100   14.0450  -32.5010 O   0  0  0  0  0  0  0  0  0  0  0  0
   -8.3200   16.3610  -32.9460 C   0  0  1  0  0  0  0  0  0  0  0  0
   -7.5070    9.9600  -33.5600 C   0  0  1  0  0  0  0  0  0  0  0  0
   -8.7210   16.6270  -31.5860 N   0  0  0  0  0  0  0  0  0  0  0  0
   -6.8620   16.7390  -33.1570 C   0  0  0  0  0  0  0  0  0  0  0  0
   -7.4170    9.7980  -32.0510 C   0  0  0  0  0  0  0  0  0  0  0  0
   -7.8680    8.6790  -34.3150 C   0  0  2  0  0  0  0  0  0  0  0  0
   -9.7810   17.5780  -31.3410 C   0  0  0  0  0  0  0  0  0  0  0  0
   -6.6030   18.1760  -32.7090 C   0  0  0  0  0  0  0  0  0  0  0  0
   -5.9650   15.7790  -32.4070 C   0  0  0  0  0  0  0  0  0  0  0  0
   -6.9710   11.0950  -31.3590 C   0  0  1  0  0  0  0  0  0  0  0  0
   -7.7390    8.7380  -35.8290 C   0  0  0  0  0  0  0  0  0  0  0  0
   -9.7020    8.3680  -33.9610 R   0  0  0  0  0  0  0  0  0  0  0  0
  -10.2350   17.7380  -29.9200 C   0  0  0  0  0  0  0  0  0  0  0  0
  -10.2100   18.2950  -32.2350 O   0  0  0  0  0  0  0  0  0  0  0  0
   -6.8990   10.8960  -29.8990 C   0  0  0  0  0  0  0  0  0  0  0  0
   -5.5910   11.5560  -31.7360 C   0  0  0  0  0  0  0  0  0  0  0  0
   -6.3020    9.0130  -36.2080 C   0  0  0  0  0  0  0  0  0  0  0  0
  -11.1830   18.7320  -29.4090 C   0  0  0  0  0  0  0  0  0  0  0  0
   -9.8640   16.9490  -28.9170 N   0  0  0  0  0  0  0  0  0  0  0  0
   -5.7720   11.6390  -29.4080 N   0  0  0  0  0  0  0  0  0  0  0  0
   -7.6530   10.2300  -29.2060 O   0  0  0  0  0  0  0  0  0  0  0  0
   -5.1520   12.3480  -30.5140 C   0  0  0  0  0  0  0  0  0  0  0  0
   -6.0500    9.8390  -37.1600 O   0  0  0  0  0  0  0  0  0  0  0  0
   -5.3750    8.4590  -35.5800 O   0  0  0  0  0  0  0  0  0  0  0  0
  -11.2610   18.5430  -28.1050 C   0  0  0  0  0  0  0  0  0  0  0  0
  -10.4800   17.4310  -27.8070 O   0  0  0  0  0  0  0  0  0  0  0  0
   -4.7460   10.1970  -37.4660 C   0  0  0  0  0  0  0  0  0  0  0  0
  -12.1530   19.2960  -27.1450 C   0  0  0  0  0  0  0  0  0  0  0  0
   -4.7740   11.5170  -38.2110 C   0  0  0  0  0  0  0  0  0  0  0  0
  2  1  1  6
  2  3  1  0
  2  4  1  0
  5  3  1  0
  6  4  1  0
  4  7  2  0
  5  8  2  0
  5  9  1  0
  6 10  1  0
  9 11  1  1
  9 12  1  0
 10 13  1  1
 10 14  1  0
 11 15  1  0
 12 16  1  0
 12 17  1  0
 18 13  1  6
 14 19  1  0
 14 20  1  6
 21 15  1  0
 15 22  2  0
 18 23  1  0
 18 24  1  0
 19 25  1  0
 21 26  1  0
 21 27  2  0
 23 28  1  0
 23 29  2  0
 30 24  1  0
 25 31  1  0
 25 32  2  0
 26 33  2  0
 34 27  1  0
 28 30  1  0
 31 35  1  0
 33 36  1  0
 33 34  1  0
 35 37  1  0
V   20 *
A    2
 C04
A    3
 C02
A    4
 C47
A    5
 C01
A    6
 N12
A    7
 O48
A    8
 O03
A    9
 C57
A   10
 C13
A   11
 N58
A   12
 C78
A   13
 C14
A   14
 C19
A   15
 C59
A   16
 C81
A   17
 C82
A   18
 C15
A   19
 C20
A   20
 X  
A   21
 C1 
A   22
 O60
A   23
 C16
A   24
 C84
A   25
 C21
A   26
 C2 
A   27
 N5 
A   28
 N17
A   29
 O18
A   30
 C83
A   31
 O22
A   32
 O23
A   33
 C3 
A   34
 O4 
A   35
 C50
A   36
 C4 
A   37
 C53
M  END
>  <XChem_code>  (743) 
AG7§19

>  <Occupancy>  (743) 
[1.0, 1.0, 1.0, 1.0, 1.0, 1.0, 1.0, 0.81, 0.67, 1.0, 0.9, 1.0, 0.99, 0.82, 1.0, 0.97, 0.92, 1.0, 1.0, 1.0, 1.0, 1.0, 1.0, 1.0, 1.0, 1.0, 0.96, 0.94, 0.88, 1.0, 0.97, 0.96, 0.82, 1.0, 1.0, 1.0, 0.94, 1.0, 1.0, 1.0, 1.0, 1.0, 1.0, 0.57]

>  <TempFactor>  (743) 
[8.55, 14.09, 10.4, 16.23, 18.11, 8.39, 11.04, 21.62, 18.04, 14.04, 16.09, 16.2, 18.25, 20.07, 20.39, 19.45, 18.39, 8.91, 9.58, 9.49, 9.06, 8.98, 10.12, 8.25, 10.26, 13.73, 15.91, 18.52, 15.13, 10.09, 11.37, 22.17, 24.58, 9.1, 9.37, 11.23, 12.49, 10.87, 13.0, 11.61, 11.25, 10.85, 9.88, 22.44]

>  <accession>  (743) 
3QZR_A

>  <description>  (743) 
Chain A, 3C protein [Enterovirus A71]

>  <evalue>  (743) 
1.4913000000000001e-58

>  <pdb_code>  (743) 
3QZR

>  <chain>  (743) 
A

>  <ligands>  (743) 
[{'chain_id': 'A', 'author_residue_number': 501, 'author_insertion_code': '', 'chem_comp_id': 'AG7', 'alternate_conformers': 0, 'entity_id': 2, 'struct_asym_id': 'C', 'residue_number': 1, 'chem_comp_name': '4-{2-(4-FLUORO-BENZYL)-6-METHYL-5-[(5-METHYL-ISOXAZOLE-3-CARBONYL)-AMINO]-4-OXO-HEPTANOYLAMINO}-5-(2-OXO-PYRROLIDIN-3-YL)-PENTANOIC ACID ETHYL ESTER', 'weight': 600.678, 'carbohydrate_polymer': False, 'branch_name': ''}, {'chain_id': 'B', 'author_residue_number': 501, 'author_insertion_code': '', 'chem_comp_id': 'AG7', 'alternate_conformers': 0, 'entity_id': 2, 'struct_asym_id': 'E', 'residue_number': 1, 'chem_comp_name': '4-{2-(4-FLUORO-BENZYL)-6-METHYL-5-[(5-METHYL-ISOXAZOLE-3-CARBONYL)-AMINO]-4-OXO-HEPTANOYLAMINO}-5-(2-OXO-PYRROLIDIN-3-YL)-PENTANOIC ACID ETHYL ESTER', 'weight': 600.678, 'carbohydrate_polymer': False, 'branch_name': ''}, {'chain_id': 'A', 'author_residue_number': 184, 'author_insertion_code': '', 'chem_comp_id': 'EDO', 'alternate_conformers': 0, 'entity_id': 3, 'struct_asym_id': 'D', 'residue_number': 1, 'chem_comp_name': '1,2-ETHANEDIOL', 'weight': 62.068, 'carbohydrate_polymer': False, 'branch_name': ''}, {'chain_id': 'B', 'author_residue_number': 184, 'author_insertion_code': '', 'chem_comp_id': 'EDO', 'alternate_conformers': 0, 'entity_id': 3, 'struct_asym_id': 'F', 'residue_number': 1, 'chem_comp_name': '1,2-ETHANEDIOL', 'weight': 62.068, 'carbohydrate_polymer': False, 'branch_name': ''}]

>  <ligand_codes>  (743) 
['AG7', 'AG7', 'EDO', 'EDO']

>  <cofactor_codes>  (743) 
[]

>  <has_cofactor>  (743) 
False

>  <covalent>  (743) 
True

>  <base_name>  (743) 
3QZR

>  <lig_resn>  (743) 
AG7

>  <lig_resi>  (743) 
501

>  <lig_chain>  (743) 
A

>  <lig_segi>  (743) 
C

>  <lig_alt>  (743) 


>  <polymer_chain>  (743) 
A

>  <single_smiles>  (743) 
CCOC(=O)CC[C@H](C[C@@H]1CCNC1=O)NC(=O)[C@@H](CC(=O)[C@@H](NC(=O)c2cc(C)on2)C(C)C)Cc3ccc(F)cc3

$$$$
AG7P19S21
     RDKit          3D

 11 10  0  0  0  0  0  0  0  0999 V2000
   -7.4170    9.7980  -32.0510 C   0  0  0  0  0  0  0  0  0  0  0  0
   -7.5070    9.9600  -33.5600 C   0  0  2  0  0  0  0  0  0  0  0  0
   -8.4740   11.0120  -33.9140 N   0  0  0  0  0  0  0  0  0  0  0  0
   -7.8680    8.6790  -34.3150 C   0  0  2  0  0  0  0  0  0  0  0  0
   -7.7390    8.7380  -35.8290 C   0  0  0  0  0  0  0  0  0  0  0  0
   -9.7020    8.3680  -33.9610 R   0  0  0  0  0  0  0  0  0  0  0  0
   -6.3020    9.0130  -36.2080 C   0  0  0  0  0  0  0  0  0  0  0  0
   -6.0500    9.8390  -37.1600 O   0  0  0  0  0  0  0  0  0  0  0  0
   -5.3750    8.4590  -35.5800 O   0  0  0  0  0  0  0  0  0  0  0  0
   -4.7460   10.1970  -37.4660 C   0  0  0  0  0  0  0  0  0  0  0  0
   -4.7740   11.5170  -38.2110 C   0  0  0  0  0  0  0  0  0  0  0  0
  2  1  1  1
  3  2  1  0
  2  4  1  0
  4  5  1  0
  4  6  1  6
  5  7  1  0
  7  8  1  0
  7  9  2  0
  8 10  1  0
 10 11  1  0
V    6 *
A    2
 C13
A    4
 C19
A    5
 C20
A    6
 X  
A    7
 C21
A    8
 O22
A    9
 O23
A   10
 C50
A   11
 C53
M  END
>  <XChem_code>  (744) 
AG7§19

>  <Occupancy>  (744) 
[1.0, 1.0, 1.0, 1.0, 1.0, 1.0, 1.0, 0.81, 0.67, 1.0, 0.9, 1.0, 0.99, 0.82, 1.0, 0.97, 0.92, 1.0, 1.0, 1.0, 1.0, 1.0, 1.0, 1.0, 1.0, 1.0, 0.96, 0.94, 0.88, 1.0, 0.97, 0.96, 0.82, 1.0, 1.0, 1.0, 0.94, 1.0, 1.0, 1.0, 1.0, 1.0, 1.0, 0.57]

>  <TempFactor>  (744) 
[8.55, 14.09, 10.4, 16.23, 18.11, 8.39, 11.04, 21.62, 18.04, 14.04, 16.09, 16.2, 18.25, 20.07, 20.39, 19.45, 18.39, 8.91, 9.58, 9.49, 9.06, 8.98, 10.12, 8.25, 10.26, 13.73, 15.91, 18.52, 15.13, 10.09, 11.37, 22.17, 24.58, 9.1, 9.37, 11.23, 12.49, 10.87, 13.0, 11.61, 11.25, 10.85, 9.88, 22.44]

>  <accession>  (744) 
3QZR_A

>  <description>  (744) 
Chain A, 3C protein [Enterovirus A71]

>  <evalue>  (744) 
1.4913000000000001e-58

>  <pdb_code>  (744) 
3QZR

>  <chain>  (744) 
A

>  <ligands>  (744) 
[{'chain_id': 'A', 'author_residue_number': 501, 'author_insertion_code': '', 'chem_comp_id': 'AG7', 'alternate_conformers': 0, 'entity_id': 2, 'struct_asym_id': 'C', 'residue_number': 1, 'chem_comp_name': '4-{2-(4-FLUORO-BENZYL)-6-METHYL-5-[(5-METHYL-ISOXAZOLE-3-CARBONYL)-AMINO]-4-OXO-HEPTANOYLAMINO}-5-(2-OXO-PYRROLIDIN-3-YL)-PENTANOIC ACID ETHYL ESTER', 'weight': 600.678, 'carbohydrate_polymer': False, 'branch_name': ''}, {'chain_id': 'B', 'author_residue_number': 501, 'author_insertion_code': '', 'chem_comp_id': 'AG7', 'alternate_conformers': 0, 'entity_id': 2, 'struct_asym_id': 'E', 'residue_number': 1, 'chem_comp_name': '4-{2-(4-FLUORO-BENZYL)-6-METHYL-5-[(5-METHYL-ISOXAZOLE-3-CARBONYL)-AMINO]-4-OXO-HEPTANOYLAMINO}-5-(2-OXO-PYRROLIDIN-3-YL)-PENTANOIC ACID ETHYL ESTER', 'weight': 600.678, 'carbohydrate_polymer': False, 'branch_name': ''}, {'chain_id': 'A', 'author_residue_number': 184, 'author_insertion_code': '', 'chem_comp_id': 'EDO', 'alternate_conformers': 0, 'entity_id': 3, 'struct_asym_id': 'D', 'residue_number': 1, 'chem_comp_name': '1,2-ETHANEDIOL', 'weight': 62.068, 'carbohydrate_polymer': False, 'branch_name': ''}, {'chain_id': 'B', 'author_residue_number': 184, 'author_insertion_code': '', 'chem_comp_id': 'EDO', 'alternate_conformers': 0, 'entity_id': 3, 'struct_asym_id': 'F', 'residue_number': 1, 'chem_comp_name': '1,2-ETHANEDIOL', 'weight': 62.068, 'carbohydrate_polymer': False, 'branch_name': ''}]

>  <ligand_codes>  (744) 
['AG7', 'AG7', 'EDO', 'EDO']

>  <cofactor_codes>  (744) 
[]

>  <has_cofactor>  (744) 
False

>  <covalent>  (744) 
True

>  <base_name>  (744) 
3QZR

>  <lig_resn>  (744) 
AG7

>  <lig_resi>  (744) 
501

>  <lig_chain>  (744) 
A

>  <lig_segi>  (744) 
C

>  <lig_alt>  (744) 


>  <polymer_chain>  (744) 
A

>  <single_smiles>  (744) 
CCOC(=O)CC[C@H](C[C@@H]1CCNC1=O)NC(=O)[C@@H](CC(=O)[C@@H](NC(=O)c2cc(C)on2)C(C)C)Cc3ccc(F)cc3

$$$$
AG7P19S22
     RDKit          3D

 20 20  0  0  0  0  0  0  0  0999 V2000
   -9.1160   12.8370  -36.6190 C   0  0  0  0  0  0  0  0  0  0  0  0
   -9.0610   13.1510  -35.1400 C   0  0  1  0  0  0  0  0  0  0  0  0
   -8.0020   12.2570  -34.5340 C   0  0  0  0  0  0  0  0  0  0  0  0
   -8.7610   14.6330  -34.8480 C   0  0  0  0  0  0  0  0  0  0  0  0
   -6.8200   12.4370  -34.7580 O   0  0  0  0  0  0  0  0  0  0  0  0
   -8.6230   14.9040  -33.3450 C   0  0  0  0  0  0  0  0  0  0  0  0
   -8.8100   14.0450  -32.5010 O   0  0  0  0  0  0  0  0  0  0  0  0
   -8.3200   16.3610  -32.9460 C   0  0  1  0  0  0  0  0  0  0  0  0
   -8.7210   16.6270  -31.5860 N   0  0  0  0  0  0  0  0  0  0  0  0
   -6.8620   16.7390  -33.1570 C   0  0  0  0  0  0  0  0  0  0  0  0
   -9.7810   17.5780  -31.3410 C   0  0  0  0  0  0  0  0  0  0  0  0
   -6.6030   18.1760  -32.7090 C   0  0  0  0  0  0  0  0  0  0  0  0
   -5.9650   15.7790  -32.4070 C   0  0  0  0  0  0  0  0  0  0  0  0
  -10.2350   17.7380  -29.9200 C   0  0  0  0  0  0  0  0  0  0  0  0
  -10.2100   18.2950  -32.2350 O   0  0  0  0  0  0  0  0  0  0  0  0
  -11.1830   18.7320  -29.4090 C   0  0  0  0  0  0  0  0  0  0  0  0
   -9.8640   16.9490  -28.9170 N   0  0  0  0  0  0  0  0  0  0  0  0
  -11.2610   18.5430  -28.1050 C   0  0  0  0  0  0  0  0  0  0  0  0
  -10.4800   17.4310  -27.8070 O   0  0  0  0  0  0  0  0  0  0  0  0
  -12.1530   19.2960  -27.1450 C   0  0  0  0  0  0  0  0  0  0  0  0
  2  1  1  6
  2  3  1  0
  2  4  1  0
  3  5  2  0
  6  4  1  0
  6  7  2  0
  6  8  1  0
  8  9  1  1
  8 10  1  0
  9 11  1  0
 10 12  1  0
 10 13  1  0
 14 11  1  0
 11 15  2  0
 14 16  1  0
 14 17  2  0
 16 18  2  0
 19 17  1  0
 18 20  1  0
 18 19  1  0
A    2
 C04
A    4
 C02
A    5
 O48
A    6
 C01
A    7
 O03
A    8
 C57
A    9
 N58
A   10
 C78
A   11
 C59
A   12
 C81
A   13
 C82
A   14
 C1 
A   15
 O60
A   16
 C2 
A   17
 N5 
A   18
 C3 
A   19
 O4 
A   20
 C4 
M  END
>  <XChem_code>  (745) 
AG7§19

>  <Occupancy>  (745) 
[1.0, 1.0, 1.0, 1.0, 1.0, 1.0, 1.0, 0.81, 0.67, 1.0, 0.9, 1.0, 0.99, 0.82, 1.0, 0.97, 0.92, 1.0, 1.0, 1.0, 1.0, 1.0, 1.0, 1.0, 1.0, 1.0, 0.96, 0.94, 0.88, 1.0, 0.97, 0.96, 0.82, 1.0, 1.0, 1.0, 0.94, 1.0, 1.0, 1.0, 1.0, 1.0, 1.0, 0.57]

>  <TempFactor>  (745) 
[8.55, 14.09, 10.4, 16.23, 18.11, 8.39, 11.04, 21.62, 18.04, 14.04, 16.09, 16.2, 18.25, 20.07, 20.39, 19.45, 18.39, 8.91, 9.58, 9.49, 9.06, 8.98, 10.12, 8.25, 10.26, 13.73, 15.91, 18.52, 15.13, 10.09, 11.37, 22.17, 24.58, 9.1, 9.37, 11.23, 12.49, 10.87, 13.0, 11.61, 11.25, 10.85, 9.88, 22.44]

>  <accession>  (745) 
3QZR_A

>  <description>  (745) 
Chain A, 3C protein [Enterovirus A71]

>  <evalue>  (745) 
1.4913000000000001e-58

>  <pdb_code>  (745) 
3QZR

>  <chain>  (745) 
A

>  <ligands>  (745) 
[{'chain_id': 'A', 'author_residue_number': 501, 'author_insertion_code': '', 'chem_comp_id': 'AG7', 'alternate_conformers': 0, 'entity_id': 2, 'struct_asym_id': 'C', 'residue_number': 1, 'chem_comp_name': '4-{2-(4-FLUORO-BENZYL)-6-METHYL-5-[(5-METHYL-ISOXAZOLE-3-CARBONYL)-AMINO]-4-OXO-HEPTANOYLAMINO}-5-(2-OXO-PYRROLIDIN-3-YL)-PENTANOIC ACID ETHYL ESTER', 'weight': 600.678, 'carbohydrate_polymer': False, 'branch_name': ''}, {'chain_id': 'B', 'author_residue_number': 501, 'author_insertion_code': '', 'chem_comp_id': 'AG7', 'alternate_conformers': 0, 'entity_id': 2, 'struct_asym_id': 'E', 'residue_number': 1, 'chem_comp_name': '4-{2-(4-FLUORO-BENZYL)-6-METHYL-5-[(5-METHYL-ISOXAZOLE-3-CARBONYL)-AMINO]-4-OXO-HEPTANOYLAMINO}-5-(2-OXO-PYRROLIDIN-3-YL)-PENTANOIC ACID ETHYL ESTER', 'weight': 600.678, 'carbohydrate_polymer': False, 'branch_name': ''}, {'chain_id': 'A', 'author_residue_number': 184, 'author_insertion_code': '', 'chem_comp_id': 'EDO', 'alternate_conformers': 0, 'entity_id': 3, 'struct_asym_id': 'D', 'residue_number': 1, 'chem_comp_name': '1,2-ETHANEDIOL', 'weight': 62.068, 'carbohydrate_polymer': False, 'branch_name': ''}, {'chain_id': 'B', 'author_residue_number': 184, 'author_insertion_code': '', 'chem_comp_id': 'EDO', 'alternate_conformers': 0, 'entity_id': 3, 'struct_asym_id': 'F', 'residue_number': 1, 'chem_comp_name': '1,2-ETHANEDIOL', 'weight': 62.068, 'carbohydrate_polymer': False, 'branch_name': ''}]

>  <ligand_codes>  (745) 
['AG7', 'AG7', 'EDO', 'EDO']

>  <cofactor_codes>  (745) 
[]

>  <has_cofactor>  (745) 
False

>  <covalent>  (745) 
True

>  <base_name>  (745) 
3QZR

>  <lig_resn>  (745) 
AG7

>  <lig_resi>  (745) 
501

>  <lig_chain>  (745) 
A

>  <lig_segi>  (745) 
C

>  <lig_alt>  (745) 


>  <polymer_chain>  (745) 
A

>  <single_smiles>  (745) 
CCOC(=O)CC[C@H](C[C@@H]1CCNC1=O)NC(=O)[C@@H](CC(=O)[C@@H](NC(=O)c2cc(C)on2)C(C)C)Cc3ccc(F)cc3

$$$$
AG7P19S23
     RDKit          3D

 30 30  0  0  0  0  0  0  0  0999 V2000
   -7.4170    9.7980  -32.0510 C   0  0  0  0  0  0  0  0  0  0  0  0
   -7.5070    9.9600  -33.5600 C   0  0  2  0  0  0  0  0  0  0  0  0
   -8.4740   11.0120  -33.9140 N   0  0  0  0  0  0  0  0  0  0  0  0
   -7.8680    8.6790  -34.3150 C   0  0  2  0  0  0  0  0  0  0  0  0
   -8.0020   12.2570  -34.5340 C   0  0  0  0  0  0  0  0  0  0  0  0
   -7.7390    8.7380  -35.8290 C   0  0  0  0  0  0  0  0  0  0  0  0
   -9.7020    8.3680  -33.9610 R   0  0  0  0  0  0  0  0  0  0  0  0
   -9.0610   13.1510  -35.1400 C   0  0  1  0  0  0  0  0  0  0  0  0
   -6.8200   12.4370  -34.7580 O   0  0  0  0  0  0  0  0  0  0  0  0
   -6.3020    9.0130  -36.2080 C   0  0  0  0  0  0  0  0  0  0  0  0
   -8.7610   14.6330  -34.8480 C   0  0  0  0  0  0  0  0  0  0  0  0
   -9.1160   12.8370  -36.6190 C   0  0  0  0  0  0  0  0  0  0  0  0
   -6.0500    9.8390  -37.1600 O   0  0  0  0  0  0  0  0  0  0  0  0
   -5.3750    8.4590  -35.5800 O   0  0  0  0  0  0  0  0  0  0  0  0
   -8.6230   14.9040  -33.3450 C   0  0  0  0  0  0  0  0  0  0  0  0
  -10.1920   13.6740  -37.2710 C   0  0  0  0  0  0  0  0  0  0  0  0
   -4.7460   10.1970  -37.4660 C   0  0  0  0  0  0  0  0  0  0  0  0
   -8.3200   16.3610  -32.9460 C   0  0  1  0  0  0  0  0  0  0  0  0
   -8.8100   14.0450  -32.5010 O   0  0  0  0  0  0  0  0  0  0  0  0
  -11.5030   13.4290  -37.0200 C   0  0  0  0  0  0  0  0  0  0  0  0
   -9.7790   14.7490  -38.2190 C   0  0  0  0  0  0  0  0  0  0  0  0
   -4.7740   11.5170  -38.2110 C   0  0  0  0  0  0  0  0  0  0  0  0
   -8.7210   16.6270  -31.5860 N   0  0  0  0  0  0  0  0  0  0  0  0
   -6.8620   16.7390  -33.1570 C   0  0  0  0  0  0  0  0  0  0  0  0
  -12.5530   14.2540  -37.7000 C   0  0  0  0  0  0  0  0  0  0  0  0
  -10.7360   15.4850  -38.8530 C   0  0  0  0  0  0  0  0  0  0  0  0
   -6.6030   18.1760  -32.7090 C   0  0  0  0  0  0  0  0  0  0  0  0
   -5.9650   15.7790  -32.4070 C   0  0  0  0  0  0  0  0  0  0  0  0
  -12.1760   15.2480  -38.5460 C   0  0  0  0  0  0  0  0  0  0  0  0
  -13.0940   15.9620  -39.1740 F   0  0  0  0  0  0  0  0  0  0  0  0
  2  1  1  1
  3  2  1  0
  2  4  1  0
  3  5  1  0
  4  6  1  0
  4  7  1  6
  8  5  1  0
  5  9  2  0
  6 10  1  0
  8 11  1  6
  8 12  1  0
 10 13  1  0
 10 14  2  0
 15 11  1  0
 12 16  1  0
 13 17  1  0
 15 18  1  0
 15 19  2  0
 16 20  2  0
 16 21  1  0
 17 22  1  0
 18 23  1  1
 18 24  1  0
 20 25  1  0
 26 21  2  0
 24 27  1  0
 24 28  1  0
 25 29  2  0
 29 26  1  0
 29 30  1  0
V    7 *
A    2
 C13
A    3
 N12
A    4
 C19
A    5
 C47
A    6
 C20
A    7
 X  
A    8
 C04
A    9
 O48
A   10
 C21
A   11
 C02
A   12
 C05
A   13
 O22
A   14
 O23
A   15
 C01
A   16
 C06
A   17
 C50
A   18
 C57
A   19
 O03
A   20
 C07
A   21
 C11
A   22
 C53
A   24
 C78
A   25
 C08
A   26
 C10
A   27
 C81
A   28
 C82
A   29
 C09
A   30
 F1 
M  END
>  <XChem_code>  (746) 
AG7§19

>  <Occupancy>  (746) 
[1.0, 1.0, 1.0, 1.0, 1.0, 1.0, 1.0, 0.81, 0.67, 1.0, 0.9, 1.0, 0.99, 0.82, 1.0, 0.97, 0.92, 1.0, 1.0, 1.0, 1.0, 1.0, 1.0, 1.0, 1.0, 1.0, 0.96, 0.94, 0.88, 1.0, 0.97, 0.96, 0.82, 1.0, 1.0, 1.0, 0.94, 1.0, 1.0, 1.0, 1.0, 1.0, 1.0, 0.57]

>  <TempFactor>  (746) 
[8.55, 14.09, 10.4, 16.23, 18.11, 8.39, 11.04, 21.62, 18.04, 14.04, 16.09, 16.2, 18.25, 20.07, 20.39, 19.45, 18.39, 8.91, 9.58, 9.49, 9.06, 8.98, 10.12, 8.25, 10.26, 13.73, 15.91, 18.52, 15.13, 10.09, 11.37, 22.17, 24.58, 9.1, 9.37, 11.23, 12.49, 10.87, 13.0, 11.61, 11.25, 10.85, 9.88, 22.44]

>  <accession>  (746) 
3QZR_A

>  <description>  (746) 
Chain A, 3C protein [Enterovirus A71]

>  <evalue>  (746) 
1.4913000000000001e-58

>  <pdb_code>  (746) 
3QZR

>  <chain>  (746) 
A

>  <ligands>  (746) 
[{'chain_id': 'A', 'author_residue_number': 501, 'author_insertion_code': '', 'chem_comp_id': 'AG7', 'alternate_conformers': 0, 'entity_id': 2, 'struct_asym_id': 'C', 'residue_number': 1, 'chem_comp_name': '4-{2-(4-FLUORO-BENZYL)-6-METHYL-5-[(5-METHYL-ISOXAZOLE-3-CARBONYL)-AMINO]-4-OXO-HEPTANOYLAMINO}-5-(2-OXO-PYRROLIDIN-3-YL)-PENTANOIC ACID ETHYL ESTER', 'weight': 600.678, 'carbohydrate_polymer': False, 'branch_name': ''}, {'chain_id': 'B', 'author_residue_number': 501, 'author_insertion_code': '', 'chem_comp_id': 'AG7', 'alternate_conformers': 0, 'entity_id': 2, 'struct_asym_id': 'E', 'residue_number': 1, 'chem_comp_name': '4-{2-(4-FLUORO-BENZYL)-6-METHYL-5-[(5-METHYL-ISOXAZOLE-3-CARBONYL)-AMINO]-4-OXO-HEPTANOYLAMINO}-5-(2-OXO-PYRROLIDIN-3-YL)-PENTANOIC ACID ETHYL ESTER', 'weight': 600.678, 'carbohydrate_polymer': False, 'branch_name': ''}, {'chain_id': 'A', 'author_residue_number': 184, 'author_insertion_code': '', 'chem_comp_id': 'EDO', 'alternate_conformers': 0, 'entity_id': 3, 'struct_asym_id': 'D', 'residue_number': 1, 'chem_comp_name': '1,2-ETHANEDIOL', 'weight': 62.068, 'carbohydrate_polymer': False, 'branch_name': ''}, {'chain_id': 'B', 'author_residue_number': 184, 'author_insertion_code': '', 'chem_comp_id': 'EDO', 'alternate_conformers': 0, 'entity_id': 3, 'struct_asym_id': 'F', 'residue_number': 1, 'chem_comp_name': '1,2-ETHANEDIOL', 'weight': 62.068, 'carbohydrate_polymer': False, 'branch_name': ''}]

>  <ligand_codes>  (746) 
['AG7', 'AG7', 'EDO', 'EDO']

>  <cofactor_codes>  (746) 
[]

>  <has_cofactor>  (746) 
False

>  <covalent>  (746) 
True

>  <base_name>  (746) 
3QZR

>  <lig_resn>  (746) 
AG7

>  <lig_resi>  (746) 
501

>  <lig_chain>  (746) 
A

>  <lig_segi>  (746) 
C

>  <lig_alt>  (746) 


>  <polymer_chain>  (746) 
A

>  <single_smiles>  (746) 
CCOC(=O)CC[C@H](C[C@@H]1CCNC1=O)NC(=O)[C@@H](CC(=O)[C@@H](NC(=O)c2cc(C)on2)C(C)C)Cc3ccc(F)cc3

$$$$
AG7P19S24
     RDKit          3D

 29 29  0  0  0  0  0  0  0  0999 V2000
   -9.1160   12.8370  -36.6190 C   0  0  0  0  0  0  0  0  0  0  0  0
   -9.0610   13.1510  -35.1400 C   0  0  2  0  0  0  0  0  0  0  0  0
   -8.7610   14.6330  -34.8480 C   0  0  0  0  0  0  0  0  0  0  0  0
   -8.0020   12.2570  -34.5340 C   0  0  0  0  0  0  0  0  0  0  0  0
   -8.6230   14.9040  -33.3450 C   0  0  0  0  0  0  0  0  0  0  0  0
   -8.4740   11.0120  -33.9140 N   0  0  0  0  0  0  0  0  0  0  0  0
   -6.8200   12.4370  -34.7580 O   0  0  0  0  0  0  0  0  0  0  0  0
   -8.3200   16.3610  -32.9460 C   0  0  1  0  0  0  0  0  0  0  0  0
   -8.8100   14.0450  -32.5010 O   0  0  0  0  0  0  0  0  0  0  0  0
   -7.5070    9.9600  -33.5600 C   0  0  1  0  0  0  0  0  0  0  0  0
   -8.7210   16.6270  -31.5860 N   0  0  0  0  0  0  0  0  0  0  0  0
   -6.8620   16.7390  -33.1570 C   0  0  0  0  0  0  0  0  0  0  0  0
   -7.4170    9.7980  -32.0510 C   0  0  0  0  0  0  0  0  0  0  0  0
   -7.8680    8.6790  -34.3150 C   0  0  2  0  0  0  0  0  0  0  0  0
   -6.6030   18.1760  -32.7090 C   0  0  0  0  0  0  0  0  0  0  0  0
   -5.9650   15.7790  -32.4070 C   0  0  0  0  0  0  0  0  0  0  0  0
   -6.9710   11.0950  -31.3590 C   0  0  1  0  0  0  0  0  0  0  0  0
   -7.7390    8.7380  -35.8290 C   0  0  0  0  0  0  0  0  0  0  0  0
   -9.7020    8.3680  -33.9610 R   0  0  0  0  0  0  0  0  0  0  0  0
   -6.8990   10.8960  -29.8990 C   0  0  0  0  0  0  0  0  0  0  0  0
   -5.5910   11.5560  -31.7360 C   0  0  0  0  0  0  0  0  0  0  0  0
   -6.3020    9.0130  -36.2080 C   0  0  0  0  0  0  0  0  0  0  0  0
   -5.7720   11.6390  -29.4080 N   0  0  0  0  0  0  0  0  0  0  0  0
   -7.6530   10.2300  -29.2060 O   0  0  0  0  0  0  0  0  0  0  0  0
   -5.1520   12.3480  -30.5140 C   0  0  0  0  0  0  0  0  0  0  0  0
   -6.0500    9.8390  -37.1600 O   0  0  0  0  0  0  0  0  0  0  0  0
   -5.3750    8.4590  -35.5800 O   0  0  0  0  0  0  0  0  0  0  0  0
   -4.7460   10.1970  -37.4660 C   0  0  0  0  0  0  0  0  0  0  0  0
   -4.7740   11.5170  -38.2110 C   0  0  0  0  0  0  0  0  0  0  0  0
  2  1  1  6
  2  3  1  0
  2  4  1  0
  5  3  1  0
  6  4  1  0
  4  7  2  0
  5  8  1  0
  5  9  2  0
  6 10  1  0
  8 11  1  1
  8 12  1  0
 10 13  1  1
 10 14  1  0
 12 15  1  0
 12 16  1  0
 17 13  1  6
 14 18  1  0
 14 19  1  6
 17 20  1  0
 17 21  1  0
 18 22  1  0
 20 23  1  0
 20 24  2  0
 25 21  1  0
 22 26  1  0
 22 27  2  0
 23 25  1  0
 26 28  1  0
 28 29  1  0
V   19 *
A    2
 C04
A    3
 C02
A    4
 C47
A    5
 C01
A    6
 N12
A    7
 O48
A    8
 C57
A    9
 O03
A   10
 C13
A   12
 C78
A   13
 C14
A   14
 C19
A   15
 C81
A   16
 C82
A   17
 C15
A   18
 C20
A   19
 X  
A   20
 C16
A   21
 C84
A   22
 C21
A   23
 N17
A   24
 O18
A   25
 C83
A   26
 O22
A   27
 O23
A   28
 C50
A   29
 C53
M  END
>  <XChem_code>  (747) 
AG7§19

>  <Occupancy>  (747) 
[1.0, 1.0, 1.0, 1.0, 1.0, 1.0, 1.0, 0.81, 0.67, 1.0, 0.9, 1.0, 0.99, 0.82, 1.0, 0.97, 0.92, 1.0, 1.0, 1.0, 1.0, 1.0, 1.0, 1.0, 1.0, 1.0, 0.96, 0.94, 0.88, 1.0, 0.97, 0.96, 0.82, 1.0, 1.0, 1.0, 0.94, 1.0, 1.0, 1.0, 1.0, 1.0, 1.0, 0.57]

>  <TempFactor>  (747) 
[8.55, 14.09, 10.4, 16.23, 18.11, 8.39, 11.04, 21.62, 18.04, 14.04, 16.09, 16.2, 18.25, 20.07, 20.39, 19.45, 18.39, 8.91, 9.58, 9.49, 9.06, 8.98, 10.12, 8.25, 10.26, 13.73, 15.91, 18.52, 15.13, 10.09, 11.37, 22.17, 24.58, 9.1, 9.37, 11.23, 12.49, 10.87, 13.0, 11.61, 11.25, 10.85, 9.88, 22.44]

>  <accession>  (747) 
3QZR_A

>  <description>  (747) 
Chain A, 3C protein [Enterovirus A71]

>  <evalue>  (747) 
1.4913000000000001e-58

>  <pdb_code>  (747) 
3QZR

>  <chain>  (747) 
A

>  <ligands>  (747) 
[{'chain_id': 'A', 'author_residue_number': 501, 'author_insertion_code': '', 'chem_comp_id': 'AG7', 'alternate_conformers': 0, 'entity_id': 2, 'struct_asym_id': 'C', 'residue_number': 1, 'chem_comp_name': '4-{2-(4-FLUORO-BENZYL)-6-METHYL-5-[(5-METHYL-ISOXAZOLE-3-CARBONYL)-AMINO]-4-OXO-HEPTANOYLAMINO}-5-(2-OXO-PYRROLIDIN-3-YL)-PENTANOIC ACID ETHYL ESTER', 'weight': 600.678, 'carbohydrate_polymer': False, 'branch_name': ''}, {'chain_id': 'B', 'author_residue_number': 501, 'author_insertion_code': '', 'chem_comp_id': 'AG7', 'alternate_conformers': 0, 'entity_id': 2, 'struct_asym_id': 'E', 'residue_number': 1, 'chem_comp_name': '4-{2-(4-FLUORO-BENZYL)-6-METHYL-5-[(5-METHYL-ISOXAZOLE-3-CARBONYL)-AMINO]-4-OXO-HEPTANOYLAMINO}-5-(2-OXO-PYRROLIDIN-3-YL)-PENTANOIC ACID ETHYL ESTER', 'weight': 600.678, 'carbohydrate_polymer': False, 'branch_name': ''}, {'chain_id': 'A', 'author_residue_number': 184, 'author_insertion_code': '', 'chem_comp_id': 'EDO', 'alternate_conformers': 0, 'entity_id': 3, 'struct_asym_id': 'D', 'residue_number': 1, 'chem_comp_name': '1,2-ETHANEDIOL', 'weight': 62.068, 'carbohydrate_polymer': False, 'branch_name': ''}, {'chain_id': 'B', 'author_residue_number': 184, 'author_insertion_code': '', 'chem_comp_id': 'EDO', 'alternate_conformers': 0, 'entity_id': 3, 'struct_asym_id': 'F', 'residue_number': 1, 'chem_comp_name': '1,2-ETHANEDIOL', 'weight': 62.068, 'carbohydrate_polymer': False, 'branch_name': ''}]

>  <ligand_codes>  (747) 
['AG7', 'AG7', 'EDO', 'EDO']

>  <cofactor_codes>  (747) 
[]

>  <has_cofactor>  (747) 
False

>  <covalent>  (747) 
True

>  <base_name>  (747) 
3QZR

>  <lig_resn>  (747) 
AG7

>  <lig_resi>  (747) 
501

>  <lig_chain>  (747) 
A

>  <lig_segi>  (747) 
C

>  <lig_alt>  (747) 


>  <polymer_chain>  (747) 
A

>  <single_smiles>  (747) 
CCOC(=O)CC[C@H](C[C@@H]1CCNC1=O)NC(=O)[C@@H](CC(=O)[C@@H](NC(=O)c2cc(C)on2)C(C)C)Cc3ccc(F)cc3

$$$$
AG7P19S25
     RDKit          3D

 12 11  0  0  0  0  0  0  0  0999 V2000
   -9.1160   12.8370  -36.6190 C   0  0  0  0  0  0  0  0  0  0  0  0
   -9.0610   13.1510  -35.1400 C   0  0  2  0  0  0  0  0  0  0  0  0
   -8.7610   14.6330  -34.8480 C   0  0  0  0  0  0  0  0  0  0  0  0
   -8.0020   12.2570  -34.5340 C   0  0  0  0  0  0  0  0  0  0  0  0
   -8.6230   14.9040  -33.3450 C   0  0  0  0  0  0  0  0  0  0  0  0
   -6.8200   12.4370  -34.7580 O   0  0  0  0  0  0  0  0  0  0  0  0
   -8.3200   16.3610  -32.9460 C   0  0  1  0  0  0  0  0  0  0  0  0
   -8.8100   14.0450  -32.5010 O   0  0  0  0  0  0  0  0  0  0  0  0
   -8.7210   16.6270  -31.5860 N   0  0  0  0  0  0  0  0  0  0  0  0
   -6.8620   16.7390  -33.1570 C   0  0  0  0  0  0  0  0  0  0  0  0
   -6.6030   18.1760  -32.7090 C   0  0  0  0  0  0  0  0  0  0  0  0
   -5.9650   15.7790  -32.4070 C   0  0  0  0  0  0  0  0  0  0  0  0
  2  1  1  6
  2  3  1  0
  2  4  1  0
  5  3  1  0
  4  6  2  0
  5  7  1  0
  5  8  2  0
  7  9  1  1
  7 10  1  0
 10 11  1  0
 10 12  1  0
A    2
 C04
A    3
 C02
A    5
 C01
A    6
 O48
A    7
 C57
A    8
 O03
A   10
 C78
A   11
 C81
A   12
 C82
M  END
>  <XChem_code>  (748) 
AG7§19

>  <Occupancy>  (748) 
[1.0, 1.0, 1.0, 1.0, 1.0, 1.0, 1.0, 0.81, 0.67, 1.0, 0.9, 1.0, 0.99, 0.82, 1.0, 0.97, 0.92, 1.0, 1.0, 1.0, 1.0, 1.0, 1.0, 1.0, 1.0, 1.0, 0.96, 0.94, 0.88, 1.0, 0.97, 0.96, 0.82, 1.0, 1.0, 1.0, 0.94, 1.0, 1.0, 1.0, 1.0, 1.0, 1.0, 0.57]

>  <TempFactor>  (748) 
[8.55, 14.09, 10.4, 16.23, 18.11, 8.39, 11.04, 21.62, 18.04, 14.04, 16.09, 16.2, 18.25, 20.07, 20.39, 19.45, 18.39, 8.91, 9.58, 9.49, 9.06, 8.98, 10.12, 8.25, 10.26, 13.73, 15.91, 18.52, 15.13, 10.09, 11.37, 22.17, 24.58, 9.1, 9.37, 11.23, 12.49, 10.87, 13.0, 11.61, 11.25, 10.85, 9.88, 22.44]

>  <accession>  (748) 
3QZR_A

>  <description>  (748) 
Chain A, 3C protein [Enterovirus A71]

>  <evalue>  (748) 
1.4913000000000001e-58

>  <pdb_code>  (748) 
3QZR

>  <chain>  (748) 
A

>  <ligands>  (748) 
[{'chain_id': 'A', 'author_residue_number': 501, 'author_insertion_code': '', 'chem_comp_id': 'AG7', 'alternate_conformers': 0, 'entity_id': 2, 'struct_asym_id': 'C', 'residue_number': 1, 'chem_comp_name': '4-{2-(4-FLUORO-BENZYL)-6-METHYL-5-[(5-METHYL-ISOXAZOLE-3-CARBONYL)-AMINO]-4-OXO-HEPTANOYLAMINO}-5-(2-OXO-PYRROLIDIN-3-YL)-PENTANOIC ACID ETHYL ESTER', 'weight': 600.678, 'carbohydrate_polymer': False, 'branch_name': ''}, {'chain_id': 'B', 'author_residue_number': 501, 'author_insertion_code': '', 'chem_comp_id': 'AG7', 'alternate_conformers': 0, 'entity_id': 2, 'struct_asym_id': 'E', 'residue_number': 1, 'chem_comp_name': '4-{2-(4-FLUORO-BENZYL)-6-METHYL-5-[(5-METHYL-ISOXAZOLE-3-CARBONYL)-AMINO]-4-OXO-HEPTANOYLAMINO}-5-(2-OXO-PYRROLIDIN-3-YL)-PENTANOIC ACID ETHYL ESTER', 'weight': 600.678, 'carbohydrate_polymer': False, 'branch_name': ''}, {'chain_id': 'A', 'author_residue_number': 184, 'author_insertion_code': '', 'chem_comp_id': 'EDO', 'alternate_conformers': 0, 'entity_id': 3, 'struct_asym_id': 'D', 'residue_number': 1, 'chem_comp_name': '1,2-ETHANEDIOL', 'weight': 62.068, 'carbohydrate_polymer': False, 'branch_name': ''}, {'chain_id': 'B', 'author_residue_number': 184, 'author_insertion_code': '', 'chem_comp_id': 'EDO', 'alternate_conformers': 0, 'entity_id': 3, 'struct_asym_id': 'F', 'residue_number': 1, 'chem_comp_name': '1,2-ETHANEDIOL', 'weight': 62.068, 'carbohydrate_polymer': False, 'branch_name': ''}]

>  <ligand_codes>  (748) 
['AG7', 'AG7', 'EDO', 'EDO']

>  <cofactor_codes>  (748) 
[]

>  <has_cofactor>  (748) 
False

>  <covalent>  (748) 
True

>  <base_name>  (748) 
3QZR

>  <lig_resn>  (748) 
AG7

>  <lig_resi>  (748) 
501

>  <lig_chain>  (748) 
A

>  <lig_segi>  (748) 
C

>  <lig_alt>  (748) 


>  <polymer_chain>  (748) 
A

>  <single_smiles>  (748) 
CCOC(=O)CC[C@H](C[C@@H]1CCNC1=O)NC(=O)[C@@H](CC(=O)[C@@H](NC(=O)c2cc(C)on2)C(C)C)Cc3ccc(F)cc3

$$$$
AG7P19S26
     RDKit          3D

 10  9  0  0  0  0  0  0  0  0999 V2000
   -7.4170    9.7980  -32.0510 C   0  0  0  0  0  0  0  0  0  0  0  0
   -7.5070    9.9600  -33.5600 C   0  0  0  0  0  0  0  0  0  0  0  0
   -7.8680    8.6790  -34.3150 C   0  0  2  0  0  0  0  0  0  0  0  0
   -7.7390    8.7380  -35.8290 C   0  0  0  0  0  0  0  0  0  0  0  0
   -9.7020    8.3680  -33.9610 R   0  0  0  0  0  0  0  0  0  0  0  0
   -6.3020    9.0130  -36.2080 C   0  0  0  0  0  0  0  0  0  0  0  0
   -6.0500    9.8390  -37.1600 O   0  0  0  0  0  0  0  0  0  0  0  0
   -5.3750    8.4590  -35.5800 O   0  0  0  0  0  0  0  0  0  0  0  0
   -4.7460   10.1970  -37.4660 C   0  0  0  0  0  0  0  0  0  0  0  0
   -4.7740   11.5170  -38.2110 C   0  0  0  0  0  0  0  0  0  0  0  0
  2  1  1  6
  2  3  1  0
  3  4  1  0
  3  5  1  6
  4  6  1  0
  6  7  1  0
  6  8  2  0
  7  9  1  0
  9 10  1  0
V    5 *
A    3
 C19
A    4
 C20
A    5
 X  
A    6
 C21
A    7
 O22
A    8
 O23
A    9
 C50
A   10
 C53
M  END
>  <XChem_code>  (749) 
AG7§19

>  <Occupancy>  (749) 
[1.0, 1.0, 1.0, 1.0, 1.0, 1.0, 1.0, 0.81, 0.67, 1.0, 0.9, 1.0, 0.99, 0.82, 1.0, 0.97, 0.92, 1.0, 1.0, 1.0, 1.0, 1.0, 1.0, 1.0, 1.0, 1.0, 0.96, 0.94, 0.88, 1.0, 0.97, 0.96, 0.82, 1.0, 1.0, 1.0, 0.94, 1.0, 1.0, 1.0, 1.0, 1.0, 1.0, 0.57]

>  <TempFactor>  (749) 
[8.55, 14.09, 10.4, 16.23, 18.11, 8.39, 11.04, 21.62, 18.04, 14.04, 16.09, 16.2, 18.25, 20.07, 20.39, 19.45, 18.39, 8.91, 9.58, 9.49, 9.06, 8.98, 10.12, 8.25, 10.26, 13.73, 15.91, 18.52, 15.13, 10.09, 11.37, 22.17, 24.58, 9.1, 9.37, 11.23, 12.49, 10.87, 13.0, 11.61, 11.25, 10.85, 9.88, 22.44]

>  <accession>  (749) 
3QZR_A

>  <description>  (749) 
Chain A, 3C protein [Enterovirus A71]

>  <evalue>  (749) 
1.4913000000000001e-58

>  <pdb_code>  (749) 
3QZR

>  <chain>  (749) 
A

>  <ligands>  (749) 
[{'chain_id': 'A', 'author_residue_number': 501, 'author_insertion_code': '', 'chem_comp_id': 'AG7', 'alternate_conformers': 0, 'entity_id': 2, 'struct_asym_id': 'C', 'residue_number': 1, 'chem_comp_name': '4-{2-(4-FLUORO-BENZYL)-6-METHYL-5-[(5-METHYL-ISOXAZOLE-3-CARBONYL)-AMINO]-4-OXO-HEPTANOYLAMINO}-5-(2-OXO-PYRROLIDIN-3-YL)-PENTANOIC ACID ETHYL ESTER', 'weight': 600.678, 'carbohydrate_polymer': False, 'branch_name': ''}, {'chain_id': 'B', 'author_residue_number': 501, 'author_insertion_code': '', 'chem_comp_id': 'AG7', 'alternate_conformers': 0, 'entity_id': 2, 'struct_asym_id': 'E', 'residue_number': 1, 'chem_comp_name': '4-{2-(4-FLUORO-BENZYL)-6-METHYL-5-[(5-METHYL-ISOXAZOLE-3-CARBONYL)-AMINO]-4-OXO-HEPTANOYLAMINO}-5-(2-OXO-PYRROLIDIN-3-YL)-PENTANOIC ACID ETHYL ESTER', 'weight': 600.678, 'carbohydrate_polymer': False, 'branch_name': ''}, {'chain_id': 'A', 'author_residue_number': 184, 'author_insertion_code': '', 'chem_comp_id': 'EDO', 'alternate_conformers': 0, 'entity_id': 3, 'struct_asym_id': 'D', 'residue_number': 1, 'chem_comp_name': '1,2-ETHANEDIOL', 'weight': 62.068, 'carbohydrate_polymer': False, 'branch_name': ''}, {'chain_id': 'B', 'author_residue_number': 184, 'author_insertion_code': '', 'chem_comp_id': 'EDO', 'alternate_conformers': 0, 'entity_id': 3, 'struct_asym_id': 'F', 'residue_number': 1, 'chem_comp_name': '1,2-ETHANEDIOL', 'weight': 62.068, 'carbohydrate_polymer': False, 'branch_name': ''}]

>  <ligand_codes>  (749) 
['AG7', 'AG7', 'EDO', 'EDO']

>  <cofactor_codes>  (749) 
[]

>  <has_cofactor>  (749) 
False

>  <covalent>  (749) 
True

>  <base_name>  (749) 
3QZR

>  <lig_resn>  (749) 
AG7

>  <lig_resi>  (749) 
501

>  <lig_chain>  (749) 
A

>  <lig_segi>  (749) 
C

>  <lig_alt>  (749) 


>  <polymer_chain>  (749) 
A

>  <single_smiles>  (749) 
CCOC(=O)CC[C@H](C[C@@H]1CCNC1=O)NC(=O)[C@@H](CC(=O)[C@@H](NC(=O)c2cc(C)on2)C(C)C)Cc3ccc(F)cc3

$$$$
AG7P19S27
     RDKit          3D

 21 21  0  0  0  0  0  0  0  0999 V2000
   -9.1160   12.8370  -36.6190 C   0  0  0  0  0  0  0  0  0  0  0  0
   -9.0610   13.1510  -35.1400 C   0  0  1  0  0  0  0  0  0  0  0  0
   -8.0020   12.2570  -34.5340 C   0  0  0  0  0  0  0  0  0  0  0  0
   -8.7610   14.6330  -34.8480 C   0  0  0  0  0  0  0  0  0  0  0  0
   -8.4740   11.0120  -33.9140 N   0  0  0  0  0  0  0  0  0  0  0  0
   -6.8200   12.4370  -34.7580 O   0  0  0  0  0  0  0  0  0  0  0  0
   -8.6230   14.9040  -33.3450 C   0  0  0  0  0  0  0  0  0  0  0  0
   -8.8100   14.0450  -32.5010 O   0  0  0  0  0  0  0  0  0  0  0  0
   -8.3200   16.3610  -32.9460 C   0  0  1  0  0  0  0  0  0  0  0  0
   -8.7210   16.6270  -31.5860 N   0  0  0  0  0  0  0  0  0  0  0  0
   -6.8620   16.7390  -33.1570 C   0  0  0  0  0  0  0  0  0  0  0  0
   -9.7810   17.5780  -31.3410 C   0  0  0  0  0  0  0  0  0  0  0  0
   -6.6030   18.1760  -32.7090 C   0  0  0  0  0  0  0  0  0  0  0  0
   -5.9650   15.7790  -32.4070 C   0  0  0  0  0  0  0  0  0  0  0  0
  -10.2350   17.7380  -29.9200 C   0  0  0  0  0  0  0  0  0  0  0  0
  -10.2100   18.2950  -32.2350 O   0  0  0  0  0  0  0  0  0  0  0  0
  -11.1830   18.7320  -29.4090 C   0  0  0  0  0  0  0  0  0  0  0  0
   -9.8640   16.9490  -28.9170 N   0  0  0  0  0  0  0  0  0  0  0  0
  -11.2610   18.5430  -28.1050 C   0  0  0  0  0  0  0  0  0  0  0  0
  -10.4800   17.4310  -27.8070 O   0  0  0  0  0  0  0  0  0  0  0  0
  -12.1530   19.2960  -27.1450 C   0  0  0  0  0  0  0  0  0  0  0  0
  2  1  1  6
  2  3  1  0
  2  4  1  0
  5  3  1  0
  3  6  2  0
  7  4  1  0
  7  8  2  0
  7  9  1  0
  9 10  1  1
  9 11  1  0
 10 12  1  0
 11 13  1  0
 11 14  1  0
 15 12  1  0
 12 16  2  0
 15 17  1  0
 15 18  2  0
 17 19  2  0
 20 18  1  0
 19 21  1  0
 19 20  1  0
A    2
 C04
A    3
 C47
A    4
 C02
A    6
 O48
A    7
 C01
A    8
 O03
A    9
 C57
A   10
 N58
A   11
 C78
A   12
 C59
A   13
 C81
A   14
 C82
A   15
 C1 
A   16
 O60
A   17
 C2 
A   18
 N5 
A   19
 C3 
A   20
 O4 
A   21
 C4 
M  END
>  <XChem_code>  (750) 
AG7§19

>  <Occupancy>  (750) 
[1.0, 1.0, 1.0, 1.0, 1.0, 1.0, 1.0, 0.81, 0.67, 1.0, 0.9, 1.0, 0.99, 0.82, 1.0, 0.97, 0.92, 1.0, 1.0, 1.0, 1.0, 1.0, 1.0, 1.0, 1.0, 1.0, 0.96, 0.94, 0.88, 1.0, 0.97, 0.96, 0.82, 1.0, 1.0, 1.0, 0.94, 1.0, 1.0, 1.0, 1.0, 1.0, 1.0, 0.57]

>  <TempFactor>  (750) 
[8.55, 14.09, 10.4, 16.23, 18.11, 8.39, 11.04, 21.62, 18.04, 14.04, 16.09, 16.2, 18.25, 20.07, 20.39, 19.45, 18.39, 8.91, 9.58, 9.49, 9.06, 8.98, 10.12, 8.25, 10.26, 13.73, 15.91, 18.52, 15.13, 10.09, 11.37, 22.17, 24.58, 9.1, 9.37, 11.23, 12.49, 10.87, 13.0, 11.61, 11.25, 10.85, 9.88, 22.44]

>  <accession>  (750) 
3QZR_A

>  <description>  (750) 
Chain A, 3C protein [Enterovirus A71]

>  <evalue>  (750) 
1.4913000000000001e-58

>  <pdb_code>  (750) 
3QZR

>  <chain>  (750) 
A

>  <ligands>  (750) 
[{'chain_id': 'A', 'author_residue_number': 501, 'author_insertion_code': '', 'chem_comp_id': 'AG7', 'alternate_conformers': 0, 'entity_id': 2, 'struct_asym_id': 'C', 'residue_number': 1, 'chem_comp_name': '4-{2-(4-FLUORO-BENZYL)-6-METHYL-5-[(5-METHYL-ISOXAZOLE-3-CARBONYL)-AMINO]-4-OXO-HEPTANOYLAMINO}-5-(2-OXO-PYRROLIDIN-3-YL)-PENTANOIC ACID ETHYL ESTER', 'weight': 600.678, 'carbohydrate_polymer': False, 'branch_name': ''}, {'chain_id': 'B', 'author_residue_number': 501, 'author_insertion_code': '', 'chem_comp_id': 'AG7', 'alternate_conformers': 0, 'entity_id': 2, 'struct_asym_id': 'E', 'residue_number': 1, 'chem_comp_name': '4-{2-(4-FLUORO-BENZYL)-6-METHYL-5-[(5-METHYL-ISOXAZOLE-3-CARBONYL)-AMINO]-4-OXO-HEPTANOYLAMINO}-5-(2-OXO-PYRROLIDIN-3-YL)-PENTANOIC ACID ETHYL ESTER', 'weight': 600.678, 'carbohydrate_polymer': False, 'branch_name': ''}, {'chain_id': 'A', 'author_residue_number': 184, 'author_insertion_code': '', 'chem_comp_id': 'EDO', 'alternate_conformers': 0, 'entity_id': 3, 'struct_asym_id': 'D', 'residue_number': 1, 'chem_comp_name': '1,2-ETHANEDIOL', 'weight': 62.068, 'carbohydrate_polymer': False, 'branch_name': ''}, {'chain_id': 'B', 'author_residue_number': 184, 'author_insertion_code': '', 'chem_comp_id': 'EDO', 'alternate_conformers': 0, 'entity_id': 3, 'struct_asym_id': 'F', 'residue_number': 1, 'chem_comp_name': '1,2-ETHANEDIOL', 'weight': 62.068, 'carbohydrate_polymer': False, 'branch_name': ''}]

>  <ligand_codes>  (750) 
['AG7', 'AG7', 'EDO', 'EDO']

>  <cofactor_codes>  (750) 
[]

>  <has_cofactor>  (750) 
False

>  <covalent>  (750) 
True

>  <base_name>  (750) 
3QZR

>  <lig_resn>  (750) 
AG7

>  <lig_resi>  (750) 
501

>  <lig_chain>  (750) 
A

>  <lig_segi>  (750) 
C

>  <lig_alt>  (750) 


>  <polymer_chain>  (750) 
A

>  <single_smiles>  (750) 
CCOC(=O)CC[C@H](C[C@@H]1CCNC1=O)NC(=O)[C@@H](CC(=O)[C@@H](NC(=O)c2cc(C)on2)C(C)C)Cc3ccc(F)cc3

$$$$
AG7P19S28
     RDKit          3D

 29 29  0  0  0  0  0  0  0  0999 V2000
   -7.4170    9.7980  -32.0510 C   0  0  0  0  0  0  0  0  0  0  0  0
   -7.5070    9.9600  -33.5600 C   0  0  2  0  0  0  0  0  0  0  0  0
   -8.4740   11.0120  -33.9140 N   0  0  0  0  0  0  0  0  0  0  0  0
   -7.8680    8.6790  -34.3150 C   0  0  2  0  0  0  0  0  0  0  0  0
   -8.0020   12.2570  -34.5340 C   0  0  0  0  0  0  0  0  0  0  0  0
   -7.7390    8.7380  -35.8290 C   0  0  0  0  0  0  0  0  0  0  0  0
   -9.7020    8.3680  -33.9610 R   0  0  0  0  0  0  0  0  0  0  0  0
   -9.0610   13.1510  -35.1400 C   0  0  1  0  0  0  0  0  0  0  0  0
   -6.8200   12.4370  -34.7580 O   0  0  0  0  0  0  0  0  0  0  0  0
   -6.3020    9.0130  -36.2080 C   0  0  0  0  0  0  0  0  0  0  0  0
   -8.7610   14.6330  -34.8480 C   0  0  0  0  0  0  0  0  0  0  0  0
   -9.1160   12.8370  -36.6190 C   0  0  0  0  0  0  0  0  0  0  0  0
   -6.0500    9.8390  -37.1600 O   0  0  0  0  0  0  0  0  0  0  0  0
   -5.3750    8.4590  -35.5800 O   0  0  0  0  0  0  0  0  0  0  0  0
   -8.6230   14.9040  -33.3450 C   0  0  0  0  0  0  0  0  0  0  0  0
  -10.1920   13.6740  -37.2710 C   0  0  0  0  0  0  0  0  0  0  0  0
   -4.7460   10.1970  -37.4660 C   0  0  0  0  0  0  0  0  0  0  0  0
   -8.3200   16.3610  -32.9460 C   0  0  0  0  0  0  0  0  0  0  0  0
   -8.8100   14.0450  -32.5010 O   0  0  0  0  0  0  0  0  0  0  0  0
  -11.5030   13.4290  -37.0200 C   0  0  0  0  0  0  0  0  0  0  0  0
   -9.7790   14.7490  -38.2190 C   0  0  0  0  0  0  0  0  0  0  0  0
   -4.7740   11.5170  -38.2110 C   0  0  0  0  0  0  0  0  0  0  0  0
   -6.8620   16.7390  -33.1570 C   0  0  0  0  0  0  0  0  0  0  0  0
  -12.5530   14.2540  -37.7000 C   0  0  0  0  0  0  0  0  0  0  0  0
  -10.7360   15.4850  -38.8530 C   0  0  0  0  0  0  0  0  0  0  0  0
   -6.6030   18.1760  -32.7090 C   0  0  0  0  0  0  0  0  0  0  0  0
   -5.9650   15.7790  -32.4070 C   0  0  0  0  0  0  0  0  0  0  0  0
  -12.1760   15.2480  -38.5460 C   0  0  0  0  0  0  0  0  0  0  0  0
  -13.0940   15.9620  -39.1740 F   0  0  0  0  0  0  0  0  0  0  0  0
  2  1  1  1
  3  2  1  0
  2  4  1  0
  3  5  1  0
  4  6  1  0
  4  7  1  6
  8  5  1  0
  5  9  2  0
  6 10  1  0
  8 11  1  6
  8 12  1  0
 10 13  1  0
 10 14  2  0
 15 11  1  0
 12 16  1  0
 13 17  1  0
 15 18  1  0
 15 19  2  0
 16 20  2  0
 16 21  1  0
 17 22  1  0
 18 23  1  6
 20 24  1  0
 25 21  2  0
 23 26  1  0
 23 27  1  0
 24 28  2  0
 28 25  1  0
 28 29  1  0
V    7 *
A    2
 C13
A    3
 N12
A    4
 C19
A    5
 C47
A    6
 C20
A    7
 X  
A    8
 C04
A    9
 O48
A   10
 C21
A   11
 C02
A   12
 C05
A   13
 O22
A   14
 O23
A   15
 C01
A   16
 C06
A   17
 C50
A   19
 O03
A   20
 C07
A   21
 C11
A   22
 C53
A   23
 C78
A   24
 C08
A   25
 C10
A   26
 C81
A   27
 C82
A   28
 C09
A   29
 F1 
M  END
>  <XChem_code>  (751) 
AG7§19

>  <Occupancy>  (751) 
[1.0, 1.0, 1.0, 1.0, 1.0, 1.0, 1.0, 0.81, 0.67, 1.0, 0.9, 1.0, 0.99, 0.82, 1.0, 0.97, 0.92, 1.0, 1.0, 1.0, 1.0, 1.0, 1.0, 1.0, 1.0, 1.0, 0.96, 0.94, 0.88, 1.0, 0.97, 0.96, 0.82, 1.0, 1.0, 1.0, 0.94, 1.0, 1.0, 1.0, 1.0, 1.0, 1.0, 0.57]

>  <TempFactor>  (751) 
[8.55, 14.09, 10.4, 16.23, 18.11, 8.39, 11.04, 21.62, 18.04, 14.04, 16.09, 16.2, 18.25, 20.07, 20.39, 19.45, 18.39, 8.91, 9.58, 9.49, 9.06, 8.98, 10.12, 8.25, 10.26, 13.73, 15.91, 18.52, 15.13, 10.09, 11.37, 22.17, 24.58, 9.1, 9.37, 11.23, 12.49, 10.87, 13.0, 11.61, 11.25, 10.85, 9.88, 22.44]

>  <accession>  (751) 
3QZR_A

>  <description>  (751) 
Chain A, 3C protein [Enterovirus A71]

>  <evalue>  (751) 
1.4913000000000001e-58

>  <pdb_code>  (751) 
3QZR

>  <chain>  (751) 
A

>  <ligands>  (751) 
[{'chain_id': 'A', 'author_residue_number': 501, 'author_insertion_code': '', 'chem_comp_id': 'AG7', 'alternate_conformers': 0, 'entity_id': 2, 'struct_asym_id': 'C', 'residue_number': 1, 'chem_comp_name': '4-{2-(4-FLUORO-BENZYL)-6-METHYL-5-[(5-METHYL-ISOXAZOLE-3-CARBONYL)-AMINO]-4-OXO-HEPTANOYLAMINO}-5-(2-OXO-PYRROLIDIN-3-YL)-PENTANOIC ACID ETHYL ESTER', 'weight': 600.678, 'carbohydrate_polymer': False, 'branch_name': ''}, {'chain_id': 'B', 'author_residue_number': 501, 'author_insertion_code': '', 'chem_comp_id': 'AG7', 'alternate_conformers': 0, 'entity_id': 2, 'struct_asym_id': 'E', 'residue_number': 1, 'chem_comp_name': '4-{2-(4-FLUORO-BENZYL)-6-METHYL-5-[(5-METHYL-ISOXAZOLE-3-CARBONYL)-AMINO]-4-OXO-HEPTANOYLAMINO}-5-(2-OXO-PYRROLIDIN-3-YL)-PENTANOIC ACID ETHYL ESTER', 'weight': 600.678, 'carbohydrate_polymer': False, 'branch_name': ''}, {'chain_id': 'A', 'author_residue_number': 184, 'author_insertion_code': '', 'chem_comp_id': 'EDO', 'alternate_conformers': 0, 'entity_id': 3, 'struct_asym_id': 'D', 'residue_number': 1, 'chem_comp_name': '1,2-ETHANEDIOL', 'weight': 62.068, 'carbohydrate_polymer': False, 'branch_name': ''}, {'chain_id': 'B', 'author_residue_number': 184, 'author_insertion_code': '', 'chem_comp_id': 'EDO', 'alternate_conformers': 0, 'entity_id': 3, 'struct_asym_id': 'F', 'residue_number': 1, 'chem_comp_name': '1,2-ETHANEDIOL', 'weight': 62.068, 'carbohydrate_polymer': False, 'branch_name': ''}]

>  <ligand_codes>  (751) 
['AG7', 'AG7', 'EDO', 'EDO']

>  <cofactor_codes>  (751) 
[]

>  <has_cofactor>  (751) 
False

>  <covalent>  (751) 
True

>  <base_name>  (751) 
3QZR

>  <lig_resn>  (751) 
AG7

>  <lig_resi>  (751) 
501

>  <lig_chain>  (751) 
A

>  <lig_segi>  (751) 
C

>  <lig_alt>  (751) 


>  <polymer_chain>  (751) 
A

>  <single_smiles>  (751) 
CCOC(=O)CC[C@H](C[C@@H]1CCNC1=O)NC(=O)[C@@H](CC(=O)[C@@H](NC(=O)c2cc(C)on2)C(C)C)Cc3ccc(F)cc3

$$$$
AG7P19S29
     RDKit          3D

 28 28  0  0  0  0  0  0  0  0999 V2000
   -9.1160   12.8370  -36.6190 C   0  0  0  0  0  0  0  0  0  0  0  0
   -9.0610   13.1510  -35.1400 C   0  0  2  0  0  0  0  0  0  0  0  0
   -8.7610   14.6330  -34.8480 C   0  0  0  0  0  0  0  0  0  0  0  0
   -8.0020   12.2570  -34.5340 C   0  0  0  0  0  0  0  0  0  0  0  0
   -8.6230   14.9040  -33.3450 C   0  0  0  0  0  0  0  0  0  0  0  0
   -8.4740   11.0120  -33.9140 N   0  0  0  0  0  0  0  0  0  0  0  0
   -6.8200   12.4370  -34.7580 O   0  0  0  0  0  0  0  0  0  0  0  0
   -8.3200   16.3610  -32.9460 C   0  0  0  0  0  0  0  0  0  0  0  0
   -8.8100   14.0450  -32.5010 O   0  0  0  0  0  0  0  0  0  0  0  0
   -7.5070    9.9600  -33.5600 C   0  0  1  0  0  0  0  0  0  0  0  0
   -6.8620   16.7390  -33.1570 C   0  0  0  0  0  0  0  0  0  0  0  0
   -7.4170    9.7980  -32.0510 C   0  0  0  0  0  0  0  0  0  0  0  0
   -7.8680    8.6790  -34.3150 C   0  0  2  0  0  0  0  0  0  0  0  0
   -6.6030   18.1760  -32.7090 C   0  0  0  0  0  0  0  0  0  0  0  0
   -5.9650   15.7790  -32.4070 C   0  0  0  0  0  0  0  0  0  0  0  0
   -6.9710   11.0950  -31.3590 C   0  0  1  0  0  0  0  0  0  0  0  0
   -7.7390    8.7380  -35.8290 C   0  0  0  0  0  0  0  0  0  0  0  0
   -9.7020    8.3680  -33.9610 R   0  0  0  0  0  0  0  0  0  0  0  0
   -6.8990   10.8960  -29.8990 C   0  0  0  0  0  0  0  0  0  0  0  0
   -5.5910   11.5560  -31.7360 C   0  0  0  0  0  0  0  0  0  0  0  0
   -6.3020    9.0130  -36.2080 C   0  0  0  0  0  0  0  0  0  0  0  0
   -5.7720   11.6390  -29.4080 N   0  0  0  0  0  0  0  0  0  0  0  0
   -7.6530   10.2300  -29.2060 O   0  0  0  0  0  0  0  0  0  0  0  0
   -5.1520   12.3480  -30.5140 C   0  0  0  0  0  0  0  0  0  0  0  0
   -6.0500    9.8390  -37.1600 O   0  0  0  0  0  0  0  0  0  0  0  0
   -5.3750    8.4590  -35.5800 O   0  0  0  0  0  0  0  0  0  0  0  0
   -4.7460   10.1970  -37.4660 C   0  0  0  0  0  0  0  0  0  0  0  0
   -4.7740   11.5170  -38.2110 C   0  0  0  0  0  0  0  0  0  0  0  0
  2  1  1  6
  2  3  1  0
  2  4  1  0
  5  3  1  0
  6  4  1  0
  4  7  2  0
  5  8  1  0
  5  9  2  0
  6 10  1  0
  8 11  1  6
 10 12  1  1
 10 13  1  0
 11 14  1  0
 11 15  1  0
 16 12  1  6
 13 17  1  0
 13 18  1  6
 16 19  1  0
 16 20  1  0
 17 21  1  0
 19 22  1  0
 19 23  2  0
 24 20  1  0
 21 25  1  0
 21 26  2  0
 22 24  1  0
 25 27  1  0
 27 28  1  0
V   18 *
A    2
 C04
A    3
 C02
A    4
 C47
A    5
 C01
A    6
 N12
A    7
 O48
A    9
 O03
A   10
 C13
A   11
 C78
A   12
 C14
A   13
 C19
A   14
 C81
A   15
 C82
A   16
 C15
A   17
 C20
A   18
 X  
A   19
 C16
A   20
 C84
A   21
 C21
A   22
 N17
A   23
 O18
A   24
 C83
A   25
 O22
A   26
 O23
A   27
 C50
A   28
 C53
M  END
>  <XChem_code>  (752) 
AG7§19

>  <Occupancy>  (752) 
[1.0, 1.0, 1.0, 1.0, 1.0, 1.0, 1.0, 0.81, 0.67, 1.0, 0.9, 1.0, 0.99, 0.82, 1.0, 0.97, 0.92, 1.0, 1.0, 1.0, 1.0, 1.0, 1.0, 1.0, 1.0, 1.0, 0.96, 0.94, 0.88, 1.0, 0.97, 0.96, 0.82, 1.0, 1.0, 1.0, 0.94, 1.0, 1.0, 1.0, 1.0, 1.0, 1.0, 0.57]

>  <TempFactor>  (752) 
[8.55, 14.09, 10.4, 16.23, 18.11, 8.39, 11.04, 21.62, 18.04, 14.04, 16.09, 16.2, 18.25, 20.07, 20.39, 19.45, 18.39, 8.91, 9.58, 9.49, 9.06, 8.98, 10.12, 8.25, 10.26, 13.73, 15.91, 18.52, 15.13, 10.09, 11.37, 22.17, 24.58, 9.1, 9.37, 11.23, 12.49, 10.87, 13.0, 11.61, 11.25, 10.85, 9.88, 22.44]

>  <accession>  (752) 
3QZR_A

>  <description>  (752) 
Chain A, 3C protein [Enterovirus A71]

>  <evalue>  (752) 
1.4913000000000001e-58

>  <pdb_code>  (752) 
3QZR

>  <chain>  (752) 
A

>  <ligands>  (752) 
[{'chain_id': 'A', 'author_residue_number': 501, 'author_insertion_code': '', 'chem_comp_id': 'AG7', 'alternate_conformers': 0, 'entity_id': 2, 'struct_asym_id': 'C', 'residue_number': 1, 'chem_comp_name': '4-{2-(4-FLUORO-BENZYL)-6-METHYL-5-[(5-METHYL-ISOXAZOLE-3-CARBONYL)-AMINO]-4-OXO-HEPTANOYLAMINO}-5-(2-OXO-PYRROLIDIN-3-YL)-PENTANOIC ACID ETHYL ESTER', 'weight': 600.678, 'carbohydrate_polymer': False, 'branch_name': ''}, {'chain_id': 'B', 'author_residue_number': 501, 'author_insertion_code': '', 'chem_comp_id': 'AG7', 'alternate_conformers': 0, 'entity_id': 2, 'struct_asym_id': 'E', 'residue_number': 1, 'chem_comp_name': '4-{2-(4-FLUORO-BENZYL)-6-METHYL-5-[(5-METHYL-ISOXAZOLE-3-CARBONYL)-AMINO]-4-OXO-HEPTANOYLAMINO}-5-(2-OXO-PYRROLIDIN-3-YL)-PENTANOIC ACID ETHYL ESTER', 'weight': 600.678, 'carbohydrate_polymer': False, 'branch_name': ''}, {'chain_id': 'A', 'author_residue_number': 184, 'author_insertion_code': '', 'chem_comp_id': 'EDO', 'alternate_conformers': 0, 'entity_id': 3, 'struct_asym_id': 'D', 'residue_number': 1, 'chem_comp_name': '1,2-ETHANEDIOL', 'weight': 62.068, 'carbohydrate_polymer': False, 'branch_name': ''}, {'chain_id': 'B', 'author_residue_number': 184, 'author_insertion_code': '', 'chem_comp_id': 'EDO', 'alternate_conformers': 0, 'entity_id': 3, 'struct_asym_id': 'F', 'residue_number': 1, 'chem_comp_name': '1,2-ETHANEDIOL', 'weight': 62.068, 'carbohydrate_polymer': False, 'branch_name': ''}]

>  <ligand_codes>  (752) 
['AG7', 'AG7', 'EDO', 'EDO']

>  <cofactor_codes>  (752) 
[]

>  <has_cofactor>  (752) 
False

>  <covalent>  (752) 
True

>  <base_name>  (752) 
3QZR

>  <lig_resn>  (752) 
AG7

>  <lig_resi>  (752) 
501

>  <lig_chain>  (752) 
A

>  <lig_segi>  (752) 
C

>  <lig_alt>  (752) 


>  <polymer_chain>  (752) 
A

>  <single_smiles>  (752) 
CCOC(=O)CC[C@H](C[C@@H]1CCNC1=O)NC(=O)[C@@H](CC(=O)[C@@H](NC(=O)c2cc(C)on2)C(C)C)Cc3ccc(F)cc3

$$$$
AG7P19S30
     RDKit          3D

 11 10  0  0  0  0  0  0  0  0999 V2000
   -9.1160   12.8370  -36.6190 C   0  0  0  0  0  0  0  0  0  0  0  0
   -9.0610   13.1510  -35.1400 C   0  0  2  0  0  0  0  0  0  0  0  0
   -8.7610   14.6330  -34.8480 C   0  0  0  0  0  0  0  0  0  0  0  0
   -8.0020   12.2570  -34.5340 C   0  0  0  0  0  0  0  0  0  0  0  0
   -8.6230   14.9040  -33.3450 C   0  0  0  0  0  0  0  0  0  0  0  0
   -6.8200   12.4370  -34.7580 O   0  0  0  0  0  0  0  0  0  0  0  0
   -8.3200   16.3610  -32.9460 C   0  0  0  0  0  0  0  0  0  0  0  0
   -8.8100   14.0450  -32.5010 O   0  0  0  0  0  0  0  0  0  0  0  0
   -6.8620   16.7390  -33.1570 C   0  0  0  0  0  0  0  0  0  0  0  0
   -6.6030   18.1760  -32.7090 C   0  0  0  0  0  0  0  0  0  0  0  0
   -5.9650   15.7790  -32.4070 C   0  0  0  0  0  0  0  0  0  0  0  0
  2  1  1  6
  2  3  1  0
  2  4  1  0
  5  3  1  0
  4  6  2  0
  5  7  1  0
  5  8  2  0
  7  9  1  6
  9 10  1  0
  9 11  1  0
A    2
 C04
A    3
 C02
A    5
 C01
A    6
 O48
A    8
 O03
A    9
 C78
A   10
 C81
A   11
 C82
M  END
>  <XChem_code>  (753) 
AG7§19

>  <Occupancy>  (753) 
[1.0, 1.0, 1.0, 1.0, 1.0, 1.0, 1.0, 0.81, 0.67, 1.0, 0.9, 1.0, 0.99, 0.82, 1.0, 0.97, 0.92, 1.0, 1.0, 1.0, 1.0, 1.0, 1.0, 1.0, 1.0, 1.0, 0.96, 0.94, 0.88, 1.0, 0.97, 0.96, 0.82, 1.0, 1.0, 1.0, 0.94, 1.0, 1.0, 1.0, 1.0, 1.0, 1.0, 0.57]

>  <TempFactor>  (753) 
[8.55, 14.09, 10.4, 16.23, 18.11, 8.39, 11.04, 21.62, 18.04, 14.04, 16.09, 16.2, 18.25, 20.07, 20.39, 19.45, 18.39, 8.91, 9.58, 9.49, 9.06, 8.98, 10.12, 8.25, 10.26, 13.73, 15.91, 18.52, 15.13, 10.09, 11.37, 22.17, 24.58, 9.1, 9.37, 11.23, 12.49, 10.87, 13.0, 11.61, 11.25, 10.85, 9.88, 22.44]

>  <accession>  (753) 
3QZR_A

>  <description>  (753) 
Chain A, 3C protein [Enterovirus A71]

>  <evalue>  (753) 
1.4913000000000001e-58

>  <pdb_code>  (753) 
3QZR

>  <chain>  (753) 
A

>  <ligands>  (753) 
[{'chain_id': 'A', 'author_residue_number': 501, 'author_insertion_code': '', 'chem_comp_id': 'AG7', 'alternate_conformers': 0, 'entity_id': 2, 'struct_asym_id': 'C', 'residue_number': 1, 'chem_comp_name': '4-{2-(4-FLUORO-BENZYL)-6-METHYL-5-[(5-METHYL-ISOXAZOLE-3-CARBONYL)-AMINO]-4-OXO-HEPTANOYLAMINO}-5-(2-OXO-PYRROLIDIN-3-YL)-PENTANOIC ACID ETHYL ESTER', 'weight': 600.678, 'carbohydrate_polymer': False, 'branch_name': ''}, {'chain_id': 'B', 'author_residue_number': 501, 'author_insertion_code': '', 'chem_comp_id': 'AG7', 'alternate_conformers': 0, 'entity_id': 2, 'struct_asym_id': 'E', 'residue_number': 1, 'chem_comp_name': '4-{2-(4-FLUORO-BENZYL)-6-METHYL-5-[(5-METHYL-ISOXAZOLE-3-CARBONYL)-AMINO]-4-OXO-HEPTANOYLAMINO}-5-(2-OXO-PYRROLIDIN-3-YL)-PENTANOIC ACID ETHYL ESTER', 'weight': 600.678, 'carbohydrate_polymer': False, 'branch_name': ''}, {'chain_id': 'A', 'author_residue_number': 184, 'author_insertion_code': '', 'chem_comp_id': 'EDO', 'alternate_conformers': 0, 'entity_id': 3, 'struct_asym_id': 'D', 'residue_number': 1, 'chem_comp_name': '1,2-ETHANEDIOL', 'weight': 62.068, 'carbohydrate_polymer': False, 'branch_name': ''}, {'chain_id': 'B', 'author_residue_number': 184, 'author_insertion_code': '', 'chem_comp_id': 'EDO', 'alternate_conformers': 0, 'entity_id': 3, 'struct_asym_id': 'F', 'residue_number': 1, 'chem_comp_name': '1,2-ETHANEDIOL', 'weight': 62.068, 'carbohydrate_polymer': False, 'branch_name': ''}]

>  <ligand_codes>  (753) 
['AG7', 'AG7', 'EDO', 'EDO']

>  <cofactor_codes>  (753) 
[]

>  <has_cofactor>  (753) 
False

>  <covalent>  (753) 
True

>  <base_name>  (753) 
3QZR

>  <lig_resn>  (753) 
AG7

>  <lig_resi>  (753) 
501

>  <lig_chain>  (753) 
A

>  <lig_segi>  (753) 
C

>  <lig_alt>  (753) 


>  <polymer_chain>  (753) 
A

>  <single_smiles>  (753) 
CCOC(=O)CC[C@H](C[C@@H]1CCNC1=O)NC(=O)[C@@H](CC(=O)[C@@H](NC(=O)c2cc(C)on2)C(C)C)Cc3ccc(F)cc3

$$$$
AG7P19S31
     RDKit          3D

 13 12  0  0  0  0  0  0  0  0999 V2000
   -9.1160   12.8370  -36.6190 C   0  0  0  0  0  0  0  0  0  0  0  0
   -9.0610   13.1510  -35.1400 C   0  0  1  0  0  0  0  0  0  0  0  0
   -8.0020   12.2570  -34.5340 C   0  0  0  0  0  0  0  0  0  0  0  0
   -8.7610   14.6330  -34.8480 C   0  0  0  0  0  0  0  0  0  0  0  0
   -8.4740   11.0120  -33.9140 N   0  0  0  0  0  0  0  0  0  0  0  0
   -6.8200   12.4370  -34.7580 O   0  0  0  0  0  0  0  0  0  0  0  0
   -8.6230   14.9040  -33.3450 C   0  0  0  0  0  0  0  0  0  0  0  0
   -8.3200   16.3610  -32.9460 C   0  0  1  0  0  0  0  0  0  0  0  0
   -8.8100   14.0450  -32.5010 O   0  0  0  0  0  0  0  0  0  0  0  0
   -8.7210   16.6270  -31.5860 N   0  0  0  0  0  0  0  0  0  0  0  0
   -6.8620   16.7390  -33.1570 C   0  0  0  0  0  0  0  0  0  0  0  0
   -6.6030   18.1760  -32.7090 C   0  0  0  0  0  0  0  0  0  0  0  0
   -5.9650   15.7790  -32.4070 C   0  0  0  0  0  0  0  0  0  0  0  0
  2  1  1  6
  2  3  1  0
  2  4  1  0
  5  3  1  0
  3  6  2  0
  7  4  1  0
  7  8  1  0
  7  9  2  0
  8 10  1  1
  8 11  1  0
 11 12  1  0
 11 13  1  0
A    2
 C04
A    3
 C47
A    4
 C02
A    6
 O48
A    7
 C01
A    8
 C57
A    9
 O03
A   11
 C78
A   12
 C81
A   13
 C82
M  END
>  <XChem_code>  (754) 
AG7§19

>  <Occupancy>  (754) 
[1.0, 1.0, 1.0, 1.0, 1.0, 1.0, 1.0, 0.81, 0.67, 1.0, 0.9, 1.0, 0.99, 0.82, 1.0, 0.97, 0.92, 1.0, 1.0, 1.0, 1.0, 1.0, 1.0, 1.0, 1.0, 1.0, 0.96, 0.94, 0.88, 1.0, 0.97, 0.96, 0.82, 1.0, 1.0, 1.0, 0.94, 1.0, 1.0, 1.0, 1.0, 1.0, 1.0, 0.57]

>  <TempFactor>  (754) 
[8.55, 14.09, 10.4, 16.23, 18.11, 8.39, 11.04, 21.62, 18.04, 14.04, 16.09, 16.2, 18.25, 20.07, 20.39, 19.45, 18.39, 8.91, 9.58, 9.49, 9.06, 8.98, 10.12, 8.25, 10.26, 13.73, 15.91, 18.52, 15.13, 10.09, 11.37, 22.17, 24.58, 9.1, 9.37, 11.23, 12.49, 10.87, 13.0, 11.61, 11.25, 10.85, 9.88, 22.44]

>  <accession>  (754) 
3QZR_A

>  <description>  (754) 
Chain A, 3C protein [Enterovirus A71]

>  <evalue>  (754) 
1.4913000000000001e-58

>  <pdb_code>  (754) 
3QZR

>  <chain>  (754) 
A

>  <ligands>  (754) 
[{'chain_id': 'A', 'author_residue_number': 501, 'author_insertion_code': '', 'chem_comp_id': 'AG7', 'alternate_conformers': 0, 'entity_id': 2, 'struct_asym_id': 'C', 'residue_number': 1, 'chem_comp_name': '4-{2-(4-FLUORO-BENZYL)-6-METHYL-5-[(5-METHYL-ISOXAZOLE-3-CARBONYL)-AMINO]-4-OXO-HEPTANOYLAMINO}-5-(2-OXO-PYRROLIDIN-3-YL)-PENTANOIC ACID ETHYL ESTER', 'weight': 600.678, 'carbohydrate_polymer': False, 'branch_name': ''}, {'chain_id': 'B', 'author_residue_number': 501, 'author_insertion_code': '', 'chem_comp_id': 'AG7', 'alternate_conformers': 0, 'entity_id': 2, 'struct_asym_id': 'E', 'residue_number': 1, 'chem_comp_name': '4-{2-(4-FLUORO-BENZYL)-6-METHYL-5-[(5-METHYL-ISOXAZOLE-3-CARBONYL)-AMINO]-4-OXO-HEPTANOYLAMINO}-5-(2-OXO-PYRROLIDIN-3-YL)-PENTANOIC ACID ETHYL ESTER', 'weight': 600.678, 'carbohydrate_polymer': False, 'branch_name': ''}, {'chain_id': 'A', 'author_residue_number': 184, 'author_insertion_code': '', 'chem_comp_id': 'EDO', 'alternate_conformers': 0, 'entity_id': 3, 'struct_asym_id': 'D', 'residue_number': 1, 'chem_comp_name': '1,2-ETHANEDIOL', 'weight': 62.068, 'carbohydrate_polymer': False, 'branch_name': ''}, {'chain_id': 'B', 'author_residue_number': 184, 'author_insertion_code': '', 'chem_comp_id': 'EDO', 'alternate_conformers': 0, 'entity_id': 3, 'struct_asym_id': 'F', 'residue_number': 1, 'chem_comp_name': '1,2-ETHANEDIOL', 'weight': 62.068, 'carbohydrate_polymer': False, 'branch_name': ''}]

>  <ligand_codes>  (754) 
['AG7', 'AG7', 'EDO', 'EDO']

>  <cofactor_codes>  (754) 
[]

>  <has_cofactor>  (754) 
False

>  <covalent>  (754) 
True

>  <base_name>  (754) 
3QZR

>  <lig_resn>  (754) 
AG7

>  <lig_resi>  (754) 
501

>  <lig_chain>  (754) 
A

>  <lig_segi>  (754) 
C

>  <lig_alt>  (754) 


>  <polymer_chain>  (754) 
A

>  <single_smiles>  (754) 
CCOC(=O)CC[C@H](C[C@@H]1CCNC1=O)NC(=O)[C@@H](CC(=O)[C@@H](NC(=O)c2cc(C)on2)C(C)C)Cc3ccc(F)cc3

$$$$
AG7P19S32
     RDKit          3D

 12 11  0  0  0  0  0  0  0  0999 V2000
   -9.1160   12.8370  -36.6190 C   0  0  0  0  0  0  0  0  0  0  0  0
   -9.0610   13.1510  -35.1400 C   0  0  2  0  0  0  0  0  0  0  0  0
   -8.7610   14.6330  -34.8480 C   0  0  0  0  0  0  0  0  0  0  0  0
   -8.0020   12.2570  -34.5340 C   0  0  0  0  0  0  0  0  0  0  0  0
   -8.6230   14.9040  -33.3450 C   0  0  0  0  0  0  0  0  0  0  0  0
   -8.4740   11.0120  -33.9140 N   0  0  0  0  0  0  0  0  0  0  0  0
   -6.8200   12.4370  -34.7580 O   0  0  0  0  0  0  0  0  0  0  0  0
   -8.3200   16.3610  -32.9460 C   0  0  0  0  0  0  0  0  0  0  0  0
   -8.8100   14.0450  -32.5010 O   0  0  0  0  0  0  0  0  0  0  0  0
   -6.8620   16.7390  -33.1570 C   0  0  0  0  0  0  0  0  0  0  0  0
   -6.6030   18.1760  -32.7090 C   0  0  0  0  0  0  0  0  0  0  0  0
   -5.9650   15.7790  -32.4070 C   0  0  0  0  0  0  0  0  0  0  0  0
  2  1  1  6
  2  3  1  0
  2  4  1  0
  5  3  1  0
  6  4  1  0
  4  7  2  0
  5  8  1  0
  5  9  2  0
  8 10  1  6
 10 11  1  0
 10 12  1  0
A    2
 C04
A    3
 C02
A    4
 C47
A    5
 C01
A    7
 O48
A    9
 O03
A   10
 C78
A   11
 C81
A   12
 C82
M  END
>  <XChem_code>  (755) 
AG7§19

>  <Occupancy>  (755) 
[1.0, 1.0, 1.0, 1.0, 1.0, 1.0, 1.0, 0.81, 0.67, 1.0, 0.9, 1.0, 0.99, 0.82, 1.0, 0.97, 0.92, 1.0, 1.0, 1.0, 1.0, 1.0, 1.0, 1.0, 1.0, 1.0, 0.96, 0.94, 0.88, 1.0, 0.97, 0.96, 0.82, 1.0, 1.0, 1.0, 0.94, 1.0, 1.0, 1.0, 1.0, 1.0, 1.0, 0.57]

>  <TempFactor>  (755) 
[8.55, 14.09, 10.4, 16.23, 18.11, 8.39, 11.04, 21.62, 18.04, 14.04, 16.09, 16.2, 18.25, 20.07, 20.39, 19.45, 18.39, 8.91, 9.58, 9.49, 9.06, 8.98, 10.12, 8.25, 10.26, 13.73, 15.91, 18.52, 15.13, 10.09, 11.37, 22.17, 24.58, 9.1, 9.37, 11.23, 12.49, 10.87, 13.0, 11.61, 11.25, 10.85, 9.88, 22.44]

>  <accession>  (755) 
3QZR_A

>  <description>  (755) 
Chain A, 3C protein [Enterovirus A71]

>  <evalue>  (755) 
1.4913000000000001e-58

>  <pdb_code>  (755) 
3QZR

>  <chain>  (755) 
A

>  <ligands>  (755) 
[{'chain_id': 'A', 'author_residue_number': 501, 'author_insertion_code': '', 'chem_comp_id': 'AG7', 'alternate_conformers': 0, 'entity_id': 2, 'struct_asym_id': 'C', 'residue_number': 1, 'chem_comp_name': '4-{2-(4-FLUORO-BENZYL)-6-METHYL-5-[(5-METHYL-ISOXAZOLE-3-CARBONYL)-AMINO]-4-OXO-HEPTANOYLAMINO}-5-(2-OXO-PYRROLIDIN-3-YL)-PENTANOIC ACID ETHYL ESTER', 'weight': 600.678, 'carbohydrate_polymer': False, 'branch_name': ''}, {'chain_id': 'B', 'author_residue_number': 501, 'author_insertion_code': '', 'chem_comp_id': 'AG7', 'alternate_conformers': 0, 'entity_id': 2, 'struct_asym_id': 'E', 'residue_number': 1, 'chem_comp_name': '4-{2-(4-FLUORO-BENZYL)-6-METHYL-5-[(5-METHYL-ISOXAZOLE-3-CARBONYL)-AMINO]-4-OXO-HEPTANOYLAMINO}-5-(2-OXO-PYRROLIDIN-3-YL)-PENTANOIC ACID ETHYL ESTER', 'weight': 600.678, 'carbohydrate_polymer': False, 'branch_name': ''}, {'chain_id': 'A', 'author_residue_number': 184, 'author_insertion_code': '', 'chem_comp_id': 'EDO', 'alternate_conformers': 0, 'entity_id': 3, 'struct_asym_id': 'D', 'residue_number': 1, 'chem_comp_name': '1,2-ETHANEDIOL', 'weight': 62.068, 'carbohydrate_polymer': False, 'branch_name': ''}, {'chain_id': 'B', 'author_residue_number': 184, 'author_insertion_code': '', 'chem_comp_id': 'EDO', 'alternate_conformers': 0, 'entity_id': 3, 'struct_asym_id': 'F', 'residue_number': 1, 'chem_comp_name': '1,2-ETHANEDIOL', 'weight': 62.068, 'carbohydrate_polymer': False, 'branch_name': ''}]

>  <ligand_codes>  (755) 
['AG7', 'AG7', 'EDO', 'EDO']

>  <cofactor_codes>  (755) 
[]

>  <has_cofactor>  (755) 
False

>  <covalent>  (755) 
True

>  <base_name>  (755) 
3QZR

>  <lig_resn>  (755) 
AG7

>  <lig_resi>  (755) 
501

>  <lig_chain>  (755) 
A

>  <lig_segi>  (755) 
C

>  <lig_alt>  (755) 


>  <polymer_chain>  (755) 
A

>  <single_smiles>  (755) 
CCOC(=O)CC[C@H](C[C@@H]1CCNC1=O)NC(=O)[C@@H](CC(=O)[C@@H](NC(=O)c2cc(C)on2)C(C)C)Cc3ccc(F)cc3

$$$$
AG7P19S33
     RDKit          3D

 32 32  0  0  0  0  0  0  0  0999 V2000
   -7.4170    9.7980  -32.0510 C   0  0  0  0  0  0  0  0  0  0  0  0
   -7.5070    9.9600  -33.5600 C   0  0  2  0  0  0  0  0  0  0  0  0
   -8.4740   11.0120  -33.9140 N   0  0  0  0  0  0  0  0  0  0  0  0
   -7.8680    8.6790  -34.3150 C   0  0  2  0  0  0  0  0  0  0  0  0
   -8.0020   12.2570  -34.5340 C   0  0  0  0  0  0  0  0  0  0  0  0
   -7.7390    8.7380  -35.8290 C   0  0  0  0  0  0  0  0  0  0  0  0
   -9.7020    8.3680  -33.9610 R   0  0  0  0  0  0  0  0  0  0  0  0
   -9.0610   13.1510  -35.1400 C   0  0  1  0  0  0  0  0  0  0  0  0
   -6.8200   12.4370  -34.7580 O   0  0  0  0  0  0  0  0  0  0  0  0
   -6.3020    9.0130  -36.2080 C   0  0  0  0  0  0  0  0  0  0  0  0
   -8.7610   14.6330  -34.8480 C   0  0  0  0  0  0  0  0  0  0  0  0
   -9.1160   12.8370  -36.6190 C   0  0  0  0  0  0  0  0  0  0  0  0
   -6.0500    9.8390  -37.1600 O   0  0  0  0  0  0  0  0  0  0  0  0
   -5.3750    8.4590  -35.5800 O   0  0  0  0  0  0  0  0  0  0  0  0
   -8.6230   14.9040  -33.3450 C   0  0  0  0  0  0  0  0  0  0  0  0
  -10.1920   13.6740  -37.2710 C   0  0  0  0  0  0  0  0  0  0  0  0
   -4.7460   10.1970  -37.4660 C   0  0  0  0  0  0  0  0  0  0  0  0
   -8.3200   16.3610  -32.9460 C   0  0  1  0  0  0  0  0  0  0  0  0
   -8.8100   14.0450  -32.5010 O   0  0  0  0  0  0  0  0  0  0  0  0
  -11.5030   13.4290  -37.0200 C   0  0  0  0  0  0  0  0  0  0  0  0
   -9.7790   14.7490  -38.2190 C   0  0  0  0  0  0  0  0  0  0  0  0
   -4.7740   11.5170  -38.2110 C   0  0  0  0  0  0  0  0  0  0  0  0
   -8.7210   16.6270  -31.5860 N   0  0  0  0  0  0  0  0  0  0  0  0
   -6.8620   16.7390  -33.1570 C   0  0  0  0  0  0  0  0  0  0  0  0
  -12.5530   14.2540  -37.7000 C   0  0  0  0  0  0  0  0  0  0  0  0
  -10.7360   15.4850  -38.8530 C   0  0  0  0  0  0  0  0  0  0  0  0
   -9.7810   17.5780  -31.3410 C   0  0  0  0  0  0  0  0  0  0  0  0
   -6.6030   18.1760  -32.7090 C   0  0  0  0  0  0  0  0  0  0  0  0
   -5.9650   15.7790  -32.4070 C   0  0  0  0  0  0  0  0  0  0  0  0
  -12.1760   15.2480  -38.5460 C   0  0  0  0  0  0  0  0  0  0  0  0
  -10.2100   18.2950  -32.2350 O   0  0  0  0  0  0  0  0  0  0  0  0
  -13.0940   15.9620  -39.1740 F   0  0  0  0  0  0  0  0  0  0  0  0
  2  1  1  1
  3  2  1  0
  2  4  1  0
  3  5  1  0
  4  6  1  0
  4  7  1  6
  8  5  1  0
  5  9  2  0
  6 10  1  0
  8 11  1  6
  8 12  1  0
 10 13  1  0
 10 14  2  0
 15 11  1  0
 12 16  1  0
 13 17  1  0
 15 18  1  0
 15 19  2  0
 16 20  2  0
 16 21  1  0
 17 22  1  0
 18 23  1  1
 18 24  1  0
 20 25  1  0
 26 21  2  0
 23 27  1  0
 24 28  1  0
 24 29  1  0
 25 30  2  0
 30 26  1  0
 27 31  2  0
 30 32  1  0
V    7 *
A    2
 C13
A    3
 N12
A    4
 C19
A    5
 C47
A    6
 C20
A    7
 X  
A    8
 C04
A    9
 O48
A   10
 C21
A   11
 C02
A   12
 C05
A   13
 O22
A   14
 O23
A   15
 C01
A   16
 C06
A   17
 C50
A   18
 C57
A   19
 O03
A   20
 C07
A   21
 C11
A   22
 C53
A   23
 N58
A   24
 C78
A   25
 C08
A   26
 C10
A   28
 C81
A   29
 C82
A   30
 C09
A   31
 O60
A   32
 F1 
M  END
>  <XChem_code>  (756) 
AG7§19

>  <Occupancy>  (756) 
[1.0, 1.0, 1.0, 1.0, 1.0, 1.0, 1.0, 0.81, 0.67, 1.0, 0.9, 1.0, 0.99, 0.82, 1.0, 0.97, 0.92, 1.0, 1.0, 1.0, 1.0, 1.0, 1.0, 1.0, 1.0, 1.0, 0.96, 0.94, 0.88, 1.0, 0.97, 0.96, 0.82, 1.0, 1.0, 1.0, 0.94, 1.0, 1.0, 1.0, 1.0, 1.0, 1.0, 0.57]

>  <TempFactor>  (756) 
[8.55, 14.09, 10.4, 16.23, 18.11, 8.39, 11.04, 21.62, 18.04, 14.04, 16.09, 16.2, 18.25, 20.07, 20.39, 19.45, 18.39, 8.91, 9.58, 9.49, 9.06, 8.98, 10.12, 8.25, 10.26, 13.73, 15.91, 18.52, 15.13, 10.09, 11.37, 22.17, 24.58, 9.1, 9.37, 11.23, 12.49, 10.87, 13.0, 11.61, 11.25, 10.85, 9.88, 22.44]

>  <accession>  (756) 
3QZR_A

>  <description>  (756) 
Chain A, 3C protein [Enterovirus A71]

>  <evalue>  (756) 
1.4913000000000001e-58

>  <pdb_code>  (756) 
3QZR

>  <chain>  (756) 
A

>  <ligands>  (756) 
[{'chain_id': 'A', 'author_residue_number': 501, 'author_insertion_code': '', 'chem_comp_id': 'AG7', 'alternate_conformers': 0, 'entity_id': 2, 'struct_asym_id': 'C', 'residue_number': 1, 'chem_comp_name': '4-{2-(4-FLUORO-BENZYL)-6-METHYL-5-[(5-METHYL-ISOXAZOLE-3-CARBONYL)-AMINO]-4-OXO-HEPTANOYLAMINO}-5-(2-OXO-PYRROLIDIN-3-YL)-PENTANOIC ACID ETHYL ESTER', 'weight': 600.678, 'carbohydrate_polymer': False, 'branch_name': ''}, {'chain_id': 'B', 'author_residue_number': 501, 'author_insertion_code': '', 'chem_comp_id': 'AG7', 'alternate_conformers': 0, 'entity_id': 2, 'struct_asym_id': 'E', 'residue_number': 1, 'chem_comp_name': '4-{2-(4-FLUORO-BENZYL)-6-METHYL-5-[(5-METHYL-ISOXAZOLE-3-CARBONYL)-AMINO]-4-OXO-HEPTANOYLAMINO}-5-(2-OXO-PYRROLIDIN-3-YL)-PENTANOIC ACID ETHYL ESTER', 'weight': 600.678, 'carbohydrate_polymer': False, 'branch_name': ''}, {'chain_id': 'A', 'author_residue_number': 184, 'author_insertion_code': '', 'chem_comp_id': 'EDO', 'alternate_conformers': 0, 'entity_id': 3, 'struct_asym_id': 'D', 'residue_number': 1, 'chem_comp_name': '1,2-ETHANEDIOL', 'weight': 62.068, 'carbohydrate_polymer': False, 'branch_name': ''}, {'chain_id': 'B', 'author_residue_number': 184, 'author_insertion_code': '', 'chem_comp_id': 'EDO', 'alternate_conformers': 0, 'entity_id': 3, 'struct_asym_id': 'F', 'residue_number': 1, 'chem_comp_name': '1,2-ETHANEDIOL', 'weight': 62.068, 'carbohydrate_polymer': False, 'branch_name': ''}]

>  <ligand_codes>  (756) 
['AG7', 'AG7', 'EDO', 'EDO']

>  <cofactor_codes>  (756) 
[]

>  <has_cofactor>  (756) 
False

>  <covalent>  (756) 
True

>  <base_name>  (756) 
3QZR

>  <lig_resn>  (756) 
AG7

>  <lig_resi>  (756) 
501

>  <lig_chain>  (756) 
A

>  <lig_segi>  (756) 
C

>  <lig_alt>  (756) 


>  <polymer_chain>  (756) 
A

>  <single_smiles>  (756) 
CCOC(=O)CC[C@H](C[C@@H]1CCNC1=O)NC(=O)[C@@H](CC(=O)[C@@H](NC(=O)c2cc(C)on2)C(C)C)Cc3ccc(F)cc3

$$$$
AG7P19S34
     RDKit          3D

 31 31  0  0  0  0  0  0  0  0999 V2000
   -9.1160   12.8370  -36.6190 C   0  0  0  0  0  0  0  0  0  0  0  0
   -9.0610   13.1510  -35.1400 C   0  0  2  0  0  0  0  0  0  0  0  0
   -8.7610   14.6330  -34.8480 C   0  0  0  0  0  0  0  0  0  0  0  0
   -8.0020   12.2570  -34.5340 C   0  0  0  0  0  0  0  0  0  0  0  0
   -8.6230   14.9040  -33.3450 C   0  0  0  0  0  0  0  0  0  0  0  0
   -8.4740   11.0120  -33.9140 N   0  0  0  0  0  0  0  0  0  0  0  0
   -6.8200   12.4370  -34.7580 O   0  0  0  0  0  0  0  0  0  0  0  0
   -8.3200   16.3610  -32.9460 C   0  0  1  0  0  0  0  0  0  0  0  0
   -8.8100   14.0450  -32.5010 O   0  0  0  0  0  0  0  0  0  0  0  0
   -7.5070    9.9600  -33.5600 C   0  0  1  0  0  0  0  0  0  0  0  0
   -8.7210   16.6270  -31.5860 N   0  0  0  0  0  0  0  0  0  0  0  0
   -6.8620   16.7390  -33.1570 C   0  0  0  0  0  0  0  0  0  0  0  0
   -7.4170    9.7980  -32.0510 C   0  0  0  0  0  0  0  0  0  0  0  0
   -7.8680    8.6790  -34.3150 C   0  0  2  0  0  0  0  0  0  0  0  0
   -9.7810   17.5780  -31.3410 C   0  0  0  0  0  0  0  0  0  0  0  0
   -6.6030   18.1760  -32.7090 C   0  0  0  0  0  0  0  0  0  0  0  0
   -5.9650   15.7790  -32.4070 C   0  0  0  0  0  0  0  0  0  0  0  0
   -6.9710   11.0950  -31.3590 C   0  0  1  0  0  0  0  0  0  0  0  0
   -7.7390    8.7380  -35.8290 C   0  0  0  0  0  0  0  0  0  0  0  0
   -9.7020    8.3680  -33.9610 R   0  0  0  0  0  0  0  0  0  0  0  0
  -10.2100   18.2950  -32.2350 O   0  0  0  0  0  0  0  0  0  0  0  0
   -6.8990   10.8960  -29.8990 C   0  0  0  0  0  0  0  0  0  0  0  0
   -5.5910   11.5560  -31.7360 C   0  0  0  0  0  0  0  0  0  0  0  0
   -6.3020    9.0130  -36.2080 C   0  0  0  0  0  0  0  0  0  0  0  0
   -5.7720   11.6390  -29.4080 N   0  0  0  0  0  0  0  0  0  0  0  0
   -7.6530   10.2300  -29.2060 O   0  0  0  0  0  0  0  0  0  0  0  0
   -5.1520   12.3480  -30.5140 C   0  0  0  0  0  0  0  0  0  0  0  0
   -6.0500    9.8390  -37.1600 O   0  0  0  0  0  0  0  0  0  0  0  0
   -5.3750    8.4590  -35.5800 O   0  0  0  0  0  0  0  0  0  0  0  0
   -4.7460   10.1970  -37.4660 C   0  0  0  0  0  0  0  0  0  0  0  0
   -4.7740   11.5170  -38.2110 C   0  0  0  0  0  0  0  0  0  0  0  0
  2  1  1  6
  2  3  1  0
  2  4  1  0
  5  3  1  0
  6  4  1  0
  4  7  2  0
  5  8  1  0
  5  9  2  0
  6 10  1  0
  8 11  1  1
  8 12  1  0
 10 13  1  1
 10 14  1  0
 11 15  1  0
 12 16  1  0
 12 17  1  0
 18 13  1  6
 14 19  1  0
 14 20  1  6
 15 21  2  0
 18 22  1  0
 18 23  1  0
 19 24  1  0
 22 25  1  0
 22 26  2  0
 27 23  1  0
 24 28  1  0
 24 29  2  0
 25 27  1  0
 28 30  1  0
 30 31  1  0
V   20 *
A    2
 C04
A    3
 C02
A    4
 C47
A    5
 C01
A    6
 N12
A    7
 O48
A    8
 C57
A    9
 O03
A   10
 C13
A   11
 N58
A   12
 C78
A   13
 C14
A   14
 C19
A   16
 C81
A   17
 C82
A   18
 C15
A   19
 C20
A   20
 X  
A   21
 O60
A   22
 C16
A   23
 C84
A   24
 C21
A   25
 N17
A   26
 O18
A   27
 C83
A   28
 O22
A   29
 O23
A   30
 C50
A   31
 C53
M  END
>  <XChem_code>  (757) 
AG7§19

>  <Occupancy>  (757) 
[1.0, 1.0, 1.0, 1.0, 1.0, 1.0, 1.0, 0.81, 0.67, 1.0, 0.9, 1.0, 0.99, 0.82, 1.0, 0.97, 0.92, 1.0, 1.0, 1.0, 1.0, 1.0, 1.0, 1.0, 1.0, 1.0, 0.96, 0.94, 0.88, 1.0, 0.97, 0.96, 0.82, 1.0, 1.0, 1.0, 0.94, 1.0, 1.0, 1.0, 1.0, 1.0, 1.0, 0.57]

>  <TempFactor>  (757) 
[8.55, 14.09, 10.4, 16.23, 18.11, 8.39, 11.04, 21.62, 18.04, 14.04, 16.09, 16.2, 18.25, 20.07, 20.39, 19.45, 18.39, 8.91, 9.58, 9.49, 9.06, 8.98, 10.12, 8.25, 10.26, 13.73, 15.91, 18.52, 15.13, 10.09, 11.37, 22.17, 24.58, 9.1, 9.37, 11.23, 12.49, 10.87, 13.0, 11.61, 11.25, 10.85, 9.88, 22.44]

>  <accession>  (757) 
3QZR_A

>  <description>  (757) 
Chain A, 3C protein [Enterovirus A71]

>  <evalue>  (757) 
1.4913000000000001e-58

>  <pdb_code>  (757) 
3QZR

>  <chain>  (757) 
A

>  <ligands>  (757) 
[{'chain_id': 'A', 'author_residue_number': 501, 'author_insertion_code': '', 'chem_comp_id': 'AG7', 'alternate_conformers': 0, 'entity_id': 2, 'struct_asym_id': 'C', 'residue_number': 1, 'chem_comp_name': '4-{2-(4-FLUORO-BENZYL)-6-METHYL-5-[(5-METHYL-ISOXAZOLE-3-CARBONYL)-AMINO]-4-OXO-HEPTANOYLAMINO}-5-(2-OXO-PYRROLIDIN-3-YL)-PENTANOIC ACID ETHYL ESTER', 'weight': 600.678, 'carbohydrate_polymer': False, 'branch_name': ''}, {'chain_id': 'B', 'author_residue_number': 501, 'author_insertion_code': '', 'chem_comp_id': 'AG7', 'alternate_conformers': 0, 'entity_id': 2, 'struct_asym_id': 'E', 'residue_number': 1, 'chem_comp_name': '4-{2-(4-FLUORO-BENZYL)-6-METHYL-5-[(5-METHYL-ISOXAZOLE-3-CARBONYL)-AMINO]-4-OXO-HEPTANOYLAMINO}-5-(2-OXO-PYRROLIDIN-3-YL)-PENTANOIC ACID ETHYL ESTER', 'weight': 600.678, 'carbohydrate_polymer': False, 'branch_name': ''}, {'chain_id': 'A', 'author_residue_number': 184, 'author_insertion_code': '', 'chem_comp_id': 'EDO', 'alternate_conformers': 0, 'entity_id': 3, 'struct_asym_id': 'D', 'residue_number': 1, 'chem_comp_name': '1,2-ETHANEDIOL', 'weight': 62.068, 'carbohydrate_polymer': False, 'branch_name': ''}, {'chain_id': 'B', 'author_residue_number': 184, 'author_insertion_code': '', 'chem_comp_id': 'EDO', 'alternate_conformers': 0, 'entity_id': 3, 'struct_asym_id': 'F', 'residue_number': 1, 'chem_comp_name': '1,2-ETHANEDIOL', 'weight': 62.068, 'carbohydrate_polymer': False, 'branch_name': ''}]

>  <ligand_codes>  (757) 
['AG7', 'AG7', 'EDO', 'EDO']

>  <cofactor_codes>  (757) 
[]

>  <has_cofactor>  (757) 
False

>  <covalent>  (757) 
True

>  <base_name>  (757) 
3QZR

>  <lig_resn>  (757) 
AG7

>  <lig_resi>  (757) 
501

>  <lig_chain>  (757) 
A

>  <lig_segi>  (757) 
C

>  <lig_alt>  (757) 


>  <polymer_chain>  (757) 
A

>  <single_smiles>  (757) 
CCOC(=O)CC[C@H](C[C@@H]1CCNC1=O)NC(=O)[C@@H](CC(=O)[C@@H](NC(=O)c2cc(C)on2)C(C)C)Cc3ccc(F)cc3

$$$$
AG7P19S35
     RDKit          3D

 14 13  0  0  0  0  0  0  0  0999 V2000
   -9.1160   12.8370  -36.6190 C   0  0  0  0  0  0  0  0  0  0  0  0
   -9.0610   13.1510  -35.1400 C   0  0  2  0  0  0  0  0  0  0  0  0
   -8.7610   14.6330  -34.8480 C   0  0  0  0  0  0  0  0  0  0  0  0
   -8.0020   12.2570  -34.5340 C   0  0  0  0  0  0  0  0  0  0  0  0
   -8.6230   14.9040  -33.3450 C   0  0  0  0  0  0  0  0  0  0  0  0
   -6.8200   12.4370  -34.7580 O   0  0  0  0  0  0  0  0  0  0  0  0
   -8.3200   16.3610  -32.9460 C   0  0  1  0  0  0  0  0  0  0  0  0
   -8.8100   14.0450  -32.5010 O   0  0  0  0  0  0  0  0  0  0  0  0
   -8.7210   16.6270  -31.5860 N   0  0  0  0  0  0  0  0  0  0  0  0
   -6.8620   16.7390  -33.1570 C   0  0  0  0  0  0  0  0  0  0  0  0
   -9.7810   17.5780  -31.3410 C   0  0  0  0  0  0  0  0  0  0  0  0
   -6.6030   18.1760  -32.7090 C   0  0  0  0  0  0  0  0  0  0  0  0
   -5.9650   15.7790  -32.4070 C   0  0  0  0  0  0  0  0  0  0  0  0
  -10.2100   18.2950  -32.2350 O   0  0  0  0  0  0  0  0  0  0  0  0
  2  1  1  6
  2  3  1  0
  2  4  1  0
  5  3  1  0
  4  6  2  0
  5  7  1  0
  5  8  2  0
  7  9  1  1
  7 10  1  0
  9 11  1  0
 10 12  1  0
 10 13  1  0
 11 14  2  0
A    2
 C04
A    3
 C02
A    5
 C01
A    6
 O48
A    7
 C57
A    8
 O03
A    9
 N58
A   10
 C78
A   12
 C81
A   13
 C82
A   14
 O60
M  END
>  <XChem_code>  (758) 
AG7§19

>  <Occupancy>  (758) 
[1.0, 1.0, 1.0, 1.0, 1.0, 1.0, 1.0, 0.81, 0.67, 1.0, 0.9, 1.0, 0.99, 0.82, 1.0, 0.97, 0.92, 1.0, 1.0, 1.0, 1.0, 1.0, 1.0, 1.0, 1.0, 1.0, 0.96, 0.94, 0.88, 1.0, 0.97, 0.96, 0.82, 1.0, 1.0, 1.0, 0.94, 1.0, 1.0, 1.0, 1.0, 1.0, 1.0, 0.57]

>  <TempFactor>  (758) 
[8.55, 14.09, 10.4, 16.23, 18.11, 8.39, 11.04, 21.62, 18.04, 14.04, 16.09, 16.2, 18.25, 20.07, 20.39, 19.45, 18.39, 8.91, 9.58, 9.49, 9.06, 8.98, 10.12, 8.25, 10.26, 13.73, 15.91, 18.52, 15.13, 10.09, 11.37, 22.17, 24.58, 9.1, 9.37, 11.23, 12.49, 10.87, 13.0, 11.61, 11.25, 10.85, 9.88, 22.44]

>  <accession>  (758) 
3QZR_A

>  <description>  (758) 
Chain A, 3C protein [Enterovirus A71]

>  <evalue>  (758) 
1.4913000000000001e-58

>  <pdb_code>  (758) 
3QZR

>  <chain>  (758) 
A

>  <ligands>  (758) 
[{'chain_id': 'A', 'author_residue_number': 501, 'author_insertion_code': '', 'chem_comp_id': 'AG7', 'alternate_conformers': 0, 'entity_id': 2, 'struct_asym_id': 'C', 'residue_number': 1, 'chem_comp_name': '4-{2-(4-FLUORO-BENZYL)-6-METHYL-5-[(5-METHYL-ISOXAZOLE-3-CARBONYL)-AMINO]-4-OXO-HEPTANOYLAMINO}-5-(2-OXO-PYRROLIDIN-3-YL)-PENTANOIC ACID ETHYL ESTER', 'weight': 600.678, 'carbohydrate_polymer': False, 'branch_name': ''}, {'chain_id': 'B', 'author_residue_number': 501, 'author_insertion_code': '', 'chem_comp_id': 'AG7', 'alternate_conformers': 0, 'entity_id': 2, 'struct_asym_id': 'E', 'residue_number': 1, 'chem_comp_name': '4-{2-(4-FLUORO-BENZYL)-6-METHYL-5-[(5-METHYL-ISOXAZOLE-3-CARBONYL)-AMINO]-4-OXO-HEPTANOYLAMINO}-5-(2-OXO-PYRROLIDIN-3-YL)-PENTANOIC ACID ETHYL ESTER', 'weight': 600.678, 'carbohydrate_polymer': False, 'branch_name': ''}, {'chain_id': 'A', 'author_residue_number': 184, 'author_insertion_code': '', 'chem_comp_id': 'EDO', 'alternate_conformers': 0, 'entity_id': 3, 'struct_asym_id': 'D', 'residue_number': 1, 'chem_comp_name': '1,2-ETHANEDIOL', 'weight': 62.068, 'carbohydrate_polymer': False, 'branch_name': ''}, {'chain_id': 'B', 'author_residue_number': 184, 'author_insertion_code': '', 'chem_comp_id': 'EDO', 'alternate_conformers': 0, 'entity_id': 3, 'struct_asym_id': 'F', 'residue_number': 1, 'chem_comp_name': '1,2-ETHANEDIOL', 'weight': 62.068, 'carbohydrate_polymer': False, 'branch_name': ''}]

>  <ligand_codes>  (758) 
['AG7', 'AG7', 'EDO', 'EDO']

>  <cofactor_codes>  (758) 
[]

>  <has_cofactor>  (758) 
False

>  <covalent>  (758) 
True

>  <base_name>  (758) 
3QZR

>  <lig_resn>  (758) 
AG7

>  <lig_resi>  (758) 
501

>  <lig_chain>  (758) 
A

>  <lig_segi>  (758) 
C

>  <lig_alt>  (758) 


>  <polymer_chain>  (758) 
A

>  <single_smiles>  (758) 
CCOC(=O)CC[C@H](C[C@@H]1CCNC1=O)NC(=O)[C@@H](CC(=O)[C@@H](NC(=O)c2cc(C)on2)C(C)C)Cc3ccc(F)cc3

$$$$
AG7P19S36
     RDKit          3D

 15 14  0  0  0  0  0  0  0  0999 V2000
   -9.1160   12.8370  -36.6190 C   0  0  0  0  0  0  0  0  0  0  0  0
   -9.0610   13.1510  -35.1400 C   0  0  2  0  0  0  0  0  0  0  0  0
   -8.7610   14.6330  -34.8480 C   0  0  0  0  0  0  0  0  0  0  0  0
   -8.0020   12.2570  -34.5340 C   0  0  0  0  0  0  0  0  0  0  0  0
   -8.6230   14.9040  -33.3450 C   0  0  0  0  0  0  0  0  0  0  0  0
   -8.4740   11.0120  -33.9140 N   0  0  0  0  0  0  0  0  0  0  0  0
   -6.8200   12.4370  -34.7580 O   0  0  0  0  0  0  0  0  0  0  0  0
   -8.3200   16.3610  -32.9460 C   0  0  1  0  0  0  0  0  0  0  0  0
   -8.8100   14.0450  -32.5010 O   0  0  0  0  0  0  0  0  0  0  0  0
   -8.7210   16.6270  -31.5860 N   0  0  0  0  0  0  0  0  0  0  0  0
   -6.8620   16.7390  -33.1570 C   0  0  0  0  0  0  0  0  0  0  0  0
   -9.7810   17.5780  -31.3410 C   0  0  0  0  0  0  0  0  0  0  0  0
   -6.6030   18.1760  -32.7090 C   0  0  0  0  0  0  0  0  0  0  0  0
   -5.9650   15.7790  -32.4070 C   0  0  0  0  0  0  0  0  0  0  0  0
  -10.2100   18.2950  -32.2350 O   0  0  0  0  0  0  0  0  0  0  0  0
  2  1  1  6
  2  3  1  0
  2  4  1  0
  5  3  1  0
  6  4  1  0
  4  7  2  0
  5  8  1  0
  5  9  2  0
  8 10  1  1
  8 11  1  0
 10 12  1  0
 11 13  1  0
 11 14  1  0
 12 15  2  0
A    2
 C04
A    3
 C02
A    4
 C47
A    5
 C01
A    7
 O48
A    8
 C57
A    9
 O03
A   10
 N58
A   11
 C78
A   13
 C81
A   14
 C82
A   15
 O60
M  END
>  <XChem_code>  (759) 
AG7§19

>  <Occupancy>  (759) 
[1.0, 1.0, 1.0, 1.0, 1.0, 1.0, 1.0, 0.81, 0.67, 1.0, 0.9, 1.0, 0.99, 0.82, 1.0, 0.97, 0.92, 1.0, 1.0, 1.0, 1.0, 1.0, 1.0, 1.0, 1.0, 1.0, 0.96, 0.94, 0.88, 1.0, 0.97, 0.96, 0.82, 1.0, 1.0, 1.0, 0.94, 1.0, 1.0, 1.0, 1.0, 1.0, 1.0, 0.57]

>  <TempFactor>  (759) 
[8.55, 14.09, 10.4, 16.23, 18.11, 8.39, 11.04, 21.62, 18.04, 14.04, 16.09, 16.2, 18.25, 20.07, 20.39, 19.45, 18.39, 8.91, 9.58, 9.49, 9.06, 8.98, 10.12, 8.25, 10.26, 13.73, 15.91, 18.52, 15.13, 10.09, 11.37, 22.17, 24.58, 9.1, 9.37, 11.23, 12.49, 10.87, 13.0, 11.61, 11.25, 10.85, 9.88, 22.44]

>  <accession>  (759) 
3QZR_A

>  <description>  (759) 
Chain A, 3C protein [Enterovirus A71]

>  <evalue>  (759) 
1.4913000000000001e-58

>  <pdb_code>  (759) 
3QZR

>  <chain>  (759) 
A

>  <ligands>  (759) 
[{'chain_id': 'A', 'author_residue_number': 501, 'author_insertion_code': '', 'chem_comp_id': 'AG7', 'alternate_conformers': 0, 'entity_id': 2, 'struct_asym_id': 'C', 'residue_number': 1, 'chem_comp_name': '4-{2-(4-FLUORO-BENZYL)-6-METHYL-5-[(5-METHYL-ISOXAZOLE-3-CARBONYL)-AMINO]-4-OXO-HEPTANOYLAMINO}-5-(2-OXO-PYRROLIDIN-3-YL)-PENTANOIC ACID ETHYL ESTER', 'weight': 600.678, 'carbohydrate_polymer': False, 'branch_name': ''}, {'chain_id': 'B', 'author_residue_number': 501, 'author_insertion_code': '', 'chem_comp_id': 'AG7', 'alternate_conformers': 0, 'entity_id': 2, 'struct_asym_id': 'E', 'residue_number': 1, 'chem_comp_name': '4-{2-(4-FLUORO-BENZYL)-6-METHYL-5-[(5-METHYL-ISOXAZOLE-3-CARBONYL)-AMINO]-4-OXO-HEPTANOYLAMINO}-5-(2-OXO-PYRROLIDIN-3-YL)-PENTANOIC ACID ETHYL ESTER', 'weight': 600.678, 'carbohydrate_polymer': False, 'branch_name': ''}, {'chain_id': 'A', 'author_residue_number': 184, 'author_insertion_code': '', 'chem_comp_id': 'EDO', 'alternate_conformers': 0, 'entity_id': 3, 'struct_asym_id': 'D', 'residue_number': 1, 'chem_comp_name': '1,2-ETHANEDIOL', 'weight': 62.068, 'carbohydrate_polymer': False, 'branch_name': ''}, {'chain_id': 'B', 'author_residue_number': 184, 'author_insertion_code': '', 'chem_comp_id': 'EDO', 'alternate_conformers': 0, 'entity_id': 3, 'struct_asym_id': 'F', 'residue_number': 1, 'chem_comp_name': '1,2-ETHANEDIOL', 'weight': 62.068, 'carbohydrate_polymer': False, 'branch_name': ''}]

>  <ligand_codes>  (759) 
['AG7', 'AG7', 'EDO', 'EDO']

>  <cofactor_codes>  (759) 
[]

>  <has_cofactor>  (759) 
False

>  <covalent>  (759) 
True

>  <base_name>  (759) 
3QZR

>  <lig_resn>  (759) 
AG7

>  <lig_resi>  (759) 
501

>  <lig_chain>  (759) 
A

>  <lig_segi>  (759) 
C

>  <lig_alt>  (759) 


>  <polymer_chain>  (759) 
A

>  <single_smiles>  (759) 
CCOC(=O)CC[C@H](C[C@@H]1CCNC1=O)NC(=O)[C@@H](CC(=O)[C@@H](NC(=O)c2cc(C)on2)C(C)C)Cc3ccc(F)cc3

$$$$
AG7P19S37
     RDKit          3D

 31 31  0  0  0  0  0  0  0  0999 V2000
   -9.1160   12.8370  -36.6190 C   0  0  0  0  0  0  0  0  0  0  0  0
   -9.0610   13.1510  -35.1400 C   0  0  1  0  0  0  0  0  0  0  0  0
   -8.0020   12.2570  -34.5340 C   0  0  0  0  0  0  0  0  0  0  0  0
   -8.7610   14.6330  -34.8480 C   0  0  0  0  0  0  0  0  0  0  0  0
   -8.4740   11.0120  -33.9140 N   0  0  0  0  0  0  0  0  0  0  0  0
   -6.8200   12.4370  -34.7580 O   0  0  0  0  0  0  0  0  0  0  0  0
   -8.6230   14.9040  -33.3450 C   0  0  0  0  0  0  0  0  0  0  0  0
   -7.5070    9.9600  -33.5600 C   0  0  1  0  0  0  0  0  0  0  0  0
   -8.8100   14.0450  -32.5010 O   0  0  0  0  0  0  0  0  0  0  0  0
   -8.3200   16.3610  -32.9460 C   0  0  1  0  0  0  0  0  0  0  0  0
   -7.4170    9.7980  -32.0510 C   0  0  0  0  0  0  0  0  0  0  0  0
   -7.8680    8.6790  -34.3150 C   0  0  2  0  0  0  0  0  0  0  0  0
   -8.7210   16.6270  -31.5860 N   0  0  0  0  0  0  0  0  0  0  0  0
   -6.8620   16.7390  -33.1570 C   0  0  0  0  0  0  0  0  0  0  0  0
   -7.7390    8.7380  -35.8290 C   0  0  0  0  0  0  0  0  0  0  0  0
   -9.7020    8.3680  -33.9610 R   0  0  0  0  0  0  0  0  0  0  0  0
   -9.7810   17.5780  -31.3410 C   0  0  0  0  0  0  0  0  0  0  0  0
   -6.6030   18.1760  -32.7090 C   0  0  0  0  0  0  0  0  0  0  0  0
   -5.9650   15.7790  -32.4070 C   0  0  0  0  0  0  0  0  0  0  0  0
   -6.3020    9.0130  -36.2080 C   0  0  0  0  0  0  0  0  0  0  0  0
  -10.2350   17.7380  -29.9200 C   0  0  0  0  0  0  0  0  0  0  0  0
  -10.2100   18.2950  -32.2350 O   0  0  0  0  0  0  0  0  0  0  0  0
   -6.0500    9.8390  -37.1600 O   0  0  0  0  0  0  0  0  0  0  0  0
   -5.3750    8.4590  -35.5800 O   0  0  0  0  0  0  0  0  0  0  0  0
  -11.1830   18.7320  -29.4090 C   0  0  0  0  0  0  0  0  0  0  0  0
   -9.8640   16.9490  -28.9170 N   0  0  0  0  0  0  0  0  0  0  0  0
   -4.7460   10.1970  -37.4660 C   0  0  0  0  0  0  0  0  0  0  0  0
  -11.2610   18.5430  -28.1050 C   0  0  0  0  0  0  0  0  0  0  0  0
  -10.4800   17.4310  -27.8070 O   0  0  0  0  0  0  0  0  0  0  0  0
   -4.7740   11.5170  -38.2110 C   0  0  0  0  0  0  0  0  0  0  0  0
  -12.1530   19.2960  -27.1450 C   0  0  0  0  0  0  0  0  0  0  0  0
  2  1  1  6
  2  3  1  0
  2  4  1  0
  5  3  1  0
  3  6  2  0
  7  4  1  0
  5  8  1  0
  7  9  2  0
  7 10  1  0
  8 11  1  1
  8 12  1  0
 10 13  1  1
 10 14  1  0
 12 15  1  0
 12 16  1  6
 13 17  1  0
 14 18  1  0
 14 19  1  0
 15 20  1  0
 21 17  1  0
 17 22  2  0
 20 23  1  0
 20 24  2  0
 21 25  1  0
 21 26  2  0
 23 27  1  0
 25 28  2  0
 29 26  1  0
 27 30  1  0
 28 31  1  0
 28 29  1  0
V   16 *
A    2
 C04
A    3
 C47
A    4
 C02
A    5
 N12
A    6
 O48
A    7
 C01
A    8
 C13
A    9
 O03
A   10
 C57
A   12
 C19
A   13
 N58
A   14
 C78
A   15
 C20
A   16
 X  
A   17
 C59
A   18
 C81
A   19
 C82
A   20
 C21
A   21
 C1 
A   22
 O60
A   23
 O22
A   24
 O23
A   25
 C2 
A   26
 N5 
A   27
 C50
A   28
 C3 
A   29
 O4 
A   30
 C53
A   31
 C4 
M  END
>  <XChem_code>  (760) 
AG7§19

>  <Occupancy>  (760) 
[1.0, 1.0, 1.0, 1.0, 1.0, 1.0, 1.0, 0.81, 0.67, 1.0, 0.9, 1.0, 0.99, 0.82, 1.0, 0.97, 0.92, 1.0, 1.0, 1.0, 1.0, 1.0, 1.0, 1.0, 1.0, 1.0, 0.96, 0.94, 0.88, 1.0, 0.97, 0.96, 0.82, 1.0, 1.0, 1.0, 0.94, 1.0, 1.0, 1.0, 1.0, 1.0, 1.0, 0.57]

>  <TempFactor>  (760) 
[8.55, 14.09, 10.4, 16.23, 18.11, 8.39, 11.04, 21.62, 18.04, 14.04, 16.09, 16.2, 18.25, 20.07, 20.39, 19.45, 18.39, 8.91, 9.58, 9.49, 9.06, 8.98, 10.12, 8.25, 10.26, 13.73, 15.91, 18.52, 15.13, 10.09, 11.37, 22.17, 24.58, 9.1, 9.37, 11.23, 12.49, 10.87, 13.0, 11.61, 11.25, 10.85, 9.88, 22.44]

>  <accession>  (760) 
3QZR_A

>  <description>  (760) 
Chain A, 3C protein [Enterovirus A71]

>  <evalue>  (760) 
1.4913000000000001e-58

>  <pdb_code>  (760) 
3QZR

>  <chain>  (760) 
A

>  <ligands>  (760) 
[{'chain_id': 'A', 'author_residue_number': 501, 'author_insertion_code': '', 'chem_comp_id': 'AG7', 'alternate_conformers': 0, 'entity_id': 2, 'struct_asym_id': 'C', 'residue_number': 1, 'chem_comp_name': '4-{2-(4-FLUORO-BENZYL)-6-METHYL-5-[(5-METHYL-ISOXAZOLE-3-CARBONYL)-AMINO]-4-OXO-HEPTANOYLAMINO}-5-(2-OXO-PYRROLIDIN-3-YL)-PENTANOIC ACID ETHYL ESTER', 'weight': 600.678, 'carbohydrate_polymer': False, 'branch_name': ''}, {'chain_id': 'B', 'author_residue_number': 501, 'author_insertion_code': '', 'chem_comp_id': 'AG7', 'alternate_conformers': 0, 'entity_id': 2, 'struct_asym_id': 'E', 'residue_number': 1, 'chem_comp_name': '4-{2-(4-FLUORO-BENZYL)-6-METHYL-5-[(5-METHYL-ISOXAZOLE-3-CARBONYL)-AMINO]-4-OXO-HEPTANOYLAMINO}-5-(2-OXO-PYRROLIDIN-3-YL)-PENTANOIC ACID ETHYL ESTER', 'weight': 600.678, 'carbohydrate_polymer': False, 'branch_name': ''}, {'chain_id': 'A', 'author_residue_number': 184, 'author_insertion_code': '', 'chem_comp_id': 'EDO', 'alternate_conformers': 0, 'entity_id': 3, 'struct_asym_id': 'D', 'residue_number': 1, 'chem_comp_name': '1,2-ETHANEDIOL', 'weight': 62.068, 'carbohydrate_polymer': False, 'branch_name': ''}, {'chain_id': 'B', 'author_residue_number': 184, 'author_insertion_code': '', 'chem_comp_id': 'EDO', 'alternate_conformers': 0, 'entity_id': 3, 'struct_asym_id': 'F', 'residue_number': 1, 'chem_comp_name': '1,2-ETHANEDIOL', 'weight': 62.068, 'carbohydrate_polymer': False, 'branch_name': ''}]

>  <ligand_codes>  (760) 
['AG7', 'AG7', 'EDO', 'EDO']

>  <cofactor_codes>  (760) 
[]

>  <has_cofactor>  (760) 
False

>  <covalent>  (760) 
True

>  <base_name>  (760) 
3QZR

>  <lig_resn>  (760) 
AG7

>  <lig_resi>  (760) 
501

>  <lig_chain>  (760) 
A

>  <lig_segi>  (760) 
C

>  <lig_alt>  (760) 


>  <polymer_chain>  (760) 
A

>  <single_smiles>  (760) 
CCOC(=O)CC[C@H](C[C@@H]1CCNC1=O)NC(=O)[C@@H](CC(=O)[C@@H](NC(=O)c2cc(C)on2)C(C)C)Cc3ccc(F)cc3

$$$$
AG7P19S38
     RDKit          3D

 23 22  0  0  0  0  0  0  0  0999 V2000
   -9.1160   12.8370  -36.6190 C   0  0  0  0  0  0  0  0  0  0  0  0
   -9.0610   13.1510  -35.1400 C   0  0  1  0  0  0  0  0  0  0  0  0
   -8.0020   12.2570  -34.5340 C   0  0  0  0  0  0  0  0  0  0  0  0
   -8.7610   14.6330  -34.8480 C   0  0  0  0  0  0  0  0  0  0  0  0
   -8.4740   11.0120  -33.9140 N   0  0  0  0  0  0  0  0  0  0  0  0
   -6.8200   12.4370  -34.7580 O   0  0  0  0  0  0  0  0  0  0  0  0
   -8.6230   14.9040  -33.3450 C   0  0  0  0  0  0  0  0  0  0  0  0
   -7.5070    9.9600  -33.5600 C   0  0  1  0  0  0  0  0  0  0  0  0
   -8.3200   16.3610  -32.9460 C   0  0  1  0  0  0  0  0  0  0  0  0
   -8.8100   14.0450  -32.5010 O   0  0  0  0  0  0  0  0  0  0  0  0
   -7.4170    9.7980  -32.0510 C   0  0  0  0  0  0  0  0  0  0  0  0
   -7.8680    8.6790  -34.3150 C   0  0  2  0  0  0  0  0  0  0  0  0
   -8.7210   16.6270  -31.5860 N   0  0  0  0  0  0  0  0  0  0  0  0
   -6.8620   16.7390  -33.1570 C   0  0  0  0  0  0  0  0  0  0  0  0
   -7.7390    8.7380  -35.8290 C   0  0  0  0  0  0  0  0  0  0  0  0
   -9.7020    8.3680  -33.9610 R   0  0  0  0  0  0  0  0  0  0  0  0
   -6.6030   18.1760  -32.7090 C   0  0  0  0  0  0  0  0  0  0  0  0
   -5.9650   15.7790  -32.4070 C   0  0  0  0  0  0  0  0  0  0  0  0
   -6.3020    9.0130  -36.2080 C   0  0  0  0  0  0  0  0  0  0  0  0
   -6.0500    9.8390  -37.1600 O   0  0  0  0  0  0  0  0  0  0  0  0
   -5.3750    8.4590  -35.5800 O   0  0  0  0  0  0  0  0  0  0  0  0
   -4.7460   10.1970  -37.4660 C   0  0  0  0  0  0  0  0  0  0  0  0
   -4.7740   11.5170  -38.2110 C   0  0  0  0  0  0  0  0  0  0  0  0
  2  1  1  6
  2  3  1  0
  2  4  1  0
  5  3  1  0
  3  6  2  0
  7  4  1  0
  5  8  1  0
  7  9  1  0
  7 10  2  0
  8 11  1  1
  8 12  1  0
  9 13  1  1
  9 14  1  0
 12 15  1  0
 12 16  1  6
 14 17  1  0
 14 18  1  0
 15 19  1  0
 19 20  1  0
 19 21  2  0
 20 22  1  0
 22 23  1  0
V   16 *
A    2
 C04
A    3
 C47
A    4
 C02
A    5
 N12
A    6
 O48
A    7
 C01
A    8
 C13
A    9
 C57
A   10
 O03
A   12
 C19
A   14
 C78
A   15
 C20
A   16
 X  
A   17
 C81
A   18
 C82
A   19
 C21
A   20
 O22
A   21
 O23
A   22
 C50
A   23
 C53
M  END
>  <XChem_code>  (761) 
AG7§19

>  <Occupancy>  (761) 
[1.0, 1.0, 1.0, 1.0, 1.0, 1.0, 1.0, 0.81, 0.67, 1.0, 0.9, 1.0, 0.99, 0.82, 1.0, 0.97, 0.92, 1.0, 1.0, 1.0, 1.0, 1.0, 1.0, 1.0, 1.0, 1.0, 0.96, 0.94, 0.88, 1.0, 0.97, 0.96, 0.82, 1.0, 1.0, 1.0, 0.94, 1.0, 1.0, 1.0, 1.0, 1.0, 1.0, 0.57]

>  <TempFactor>  (761) 
[8.55, 14.09, 10.4, 16.23, 18.11, 8.39, 11.04, 21.62, 18.04, 14.04, 16.09, 16.2, 18.25, 20.07, 20.39, 19.45, 18.39, 8.91, 9.58, 9.49, 9.06, 8.98, 10.12, 8.25, 10.26, 13.73, 15.91, 18.52, 15.13, 10.09, 11.37, 22.17, 24.58, 9.1, 9.37, 11.23, 12.49, 10.87, 13.0, 11.61, 11.25, 10.85, 9.88, 22.44]

>  <accession>  (761) 
3QZR_A

>  <description>  (761) 
Chain A, 3C protein [Enterovirus A71]

>  <evalue>  (761) 
1.4913000000000001e-58

>  <pdb_code>  (761) 
3QZR

>  <chain>  (761) 
A

>  <ligands>  (761) 
[{'chain_id': 'A', 'author_residue_number': 501, 'author_insertion_code': '', 'chem_comp_id': 'AG7', 'alternate_conformers': 0, 'entity_id': 2, 'struct_asym_id': 'C', 'residue_number': 1, 'chem_comp_name': '4-{2-(4-FLUORO-BENZYL)-6-METHYL-5-[(5-METHYL-ISOXAZOLE-3-CARBONYL)-AMINO]-4-OXO-HEPTANOYLAMINO}-5-(2-OXO-PYRROLIDIN-3-YL)-PENTANOIC ACID ETHYL ESTER', 'weight': 600.678, 'carbohydrate_polymer': False, 'branch_name': ''}, {'chain_id': 'B', 'author_residue_number': 501, 'author_insertion_code': '', 'chem_comp_id': 'AG7', 'alternate_conformers': 0, 'entity_id': 2, 'struct_asym_id': 'E', 'residue_number': 1, 'chem_comp_name': '4-{2-(4-FLUORO-BENZYL)-6-METHYL-5-[(5-METHYL-ISOXAZOLE-3-CARBONYL)-AMINO]-4-OXO-HEPTANOYLAMINO}-5-(2-OXO-PYRROLIDIN-3-YL)-PENTANOIC ACID ETHYL ESTER', 'weight': 600.678, 'carbohydrate_polymer': False, 'branch_name': ''}, {'chain_id': 'A', 'author_residue_number': 184, 'author_insertion_code': '', 'chem_comp_id': 'EDO', 'alternate_conformers': 0, 'entity_id': 3, 'struct_asym_id': 'D', 'residue_number': 1, 'chem_comp_name': '1,2-ETHANEDIOL', 'weight': 62.068, 'carbohydrate_polymer': False, 'branch_name': ''}, {'chain_id': 'B', 'author_residue_number': 184, 'author_insertion_code': '', 'chem_comp_id': 'EDO', 'alternate_conformers': 0, 'entity_id': 3, 'struct_asym_id': 'F', 'residue_number': 1, 'chem_comp_name': '1,2-ETHANEDIOL', 'weight': 62.068, 'carbohydrate_polymer': False, 'branch_name': ''}]

>  <ligand_codes>  (761) 
['AG7', 'AG7', 'EDO', 'EDO']

>  <cofactor_codes>  (761) 
[]

>  <has_cofactor>  (761) 
False

>  <covalent>  (761) 
True

>  <base_name>  (761) 
3QZR

>  <lig_resn>  (761) 
AG7

>  <lig_resi>  (761) 
501

>  <lig_chain>  (761) 
A

>  <lig_segi>  (761) 
C

>  <lig_alt>  (761) 


>  <polymer_chain>  (761) 
A

>  <single_smiles>  (761) 
CCOC(=O)CC[C@H](C[C@@H]1CCNC1=O)NC(=O)[C@@H](CC(=O)[C@@H](NC(=O)c2cc(C)on2)C(C)C)Cc3ccc(F)cc3

$$$$
AG7P19S39
     RDKit          3D

 22 21  0  0  0  0  0  0  0  0999 V2000
   -9.1160   12.8370  -36.6190 C   0  0  0  0  0  0  0  0  0  0  0  0
   -9.0610   13.1510  -35.1400 C   0  0  1  0  0  0  0  0  0  0  0  0
   -8.0020   12.2570  -34.5340 C   0  0  0  0  0  0  0  0  0  0  0  0
   -8.7610   14.6330  -34.8480 C   0  0  0  0  0  0  0  0  0  0  0  0
   -8.4740   11.0120  -33.9140 N   0  0  0  0  0  0  0  0  0  0  0  0
   -6.8200   12.4370  -34.7580 O   0  0  0  0  0  0  0  0  0  0  0  0
   -8.6230   14.9040  -33.3450 C   0  0  0  0  0  0  0  0  0  0  0  0
   -7.5070    9.9600  -33.5600 C   0  0  1  0  0  0  0  0  0  0  0  0
   -8.3200   16.3610  -32.9460 C   0  0  0  0  0  0  0  0  0  0  0  0
   -8.8100   14.0450  -32.5010 O   0  0  0  0  0  0  0  0  0  0  0  0
   -7.4170    9.7980  -32.0510 C   0  0  0  0  0  0  0  0  0  0  0  0
   -7.8680    8.6790  -34.3150 C   0  0  2  0  0  0  0  0  0  0  0  0
   -6.8620   16.7390  -33.1570 C   0  0  0  0  0  0  0  0  0  0  0  0
   -7.7390    8.7380  -35.8290 C   0  0  0  0  0  0  0  0  0  0  0  0
   -9.7020    8.3680  -33.9610 R   0  0  0  0  0  0  0  0  0  0  0  0
   -6.6030   18.1760  -32.7090 C   0  0  0  0  0  0  0  0  0  0  0  0
   -5.9650   15.7790  -32.4070 C   0  0  0  0  0  0  0  0  0  0  0  0
   -6.3020    9.0130  -36.2080 C   0  0  0  0  0  0  0  0  0  0  0  0
   -6.0500    9.8390  -37.1600 O   0  0  0  0  0  0  0  0  0  0  0  0
   -5.3750    8.4590  -35.5800 O   0  0  0  0  0  0  0  0  0  0  0  0
   -4.7460   10.1970  -37.4660 C   0  0  0  0  0  0  0  0  0  0  0  0
   -4.7740   11.5170  -38.2110 C   0  0  0  0  0  0  0  0  0  0  0  0
  2  1  1  6
  2  3  1  0
  2  4  1  0
  5  3  1  0
  3  6  2  0
  7  4  1  0
  5  8  1  0
  7  9  1  0
  7 10  2  0
  8 11  1  1
  8 12  1  0
  9 13  1  6
 12 14  1  0
 12 15  1  6
 13 16  1  0
 13 17  1  0
 14 18  1  0
 18 19  1  0
 18 20  2  0
 19 21  1  0
 21 22  1  0
V   15 *
A    2
 C04
A    3
 C47
A    4
 C02
A    5
 N12
A    6
 O48
A    7
 C01
A    8
 C13
A   10
 O03
A   12
 C19
A   13
 C78
A   14
 C20
A   15
 X  
A   16
 C81
A   17
 C82
A   18
 C21
A   19
 O22
A   20
 O23
A   21
 C50
A   22
 C53
M  END
>  <XChem_code>  (762) 
AG7§19

>  <Occupancy>  (762) 
[1.0, 1.0, 1.0, 1.0, 1.0, 1.0, 1.0, 0.81, 0.67, 1.0, 0.9, 1.0, 0.99, 0.82, 1.0, 0.97, 0.92, 1.0, 1.0, 1.0, 1.0, 1.0, 1.0, 1.0, 1.0, 1.0, 0.96, 0.94, 0.88, 1.0, 0.97, 0.96, 0.82, 1.0, 1.0, 1.0, 0.94, 1.0, 1.0, 1.0, 1.0, 1.0, 1.0, 0.57]

>  <TempFactor>  (762) 
[8.55, 14.09, 10.4, 16.23, 18.11, 8.39, 11.04, 21.62, 18.04, 14.04, 16.09, 16.2, 18.25, 20.07, 20.39, 19.45, 18.39, 8.91, 9.58, 9.49, 9.06, 8.98, 10.12, 8.25, 10.26, 13.73, 15.91, 18.52, 15.13, 10.09, 11.37, 22.17, 24.58, 9.1, 9.37, 11.23, 12.49, 10.87, 13.0, 11.61, 11.25, 10.85, 9.88, 22.44]

>  <accession>  (762) 
3QZR_A

>  <description>  (762) 
Chain A, 3C protein [Enterovirus A71]

>  <evalue>  (762) 
1.4913000000000001e-58

>  <pdb_code>  (762) 
3QZR

>  <chain>  (762) 
A

>  <ligands>  (762) 
[{'chain_id': 'A', 'author_residue_number': 501, 'author_insertion_code': '', 'chem_comp_id': 'AG7', 'alternate_conformers': 0, 'entity_id': 2, 'struct_asym_id': 'C', 'residue_number': 1, 'chem_comp_name': '4-{2-(4-FLUORO-BENZYL)-6-METHYL-5-[(5-METHYL-ISOXAZOLE-3-CARBONYL)-AMINO]-4-OXO-HEPTANOYLAMINO}-5-(2-OXO-PYRROLIDIN-3-YL)-PENTANOIC ACID ETHYL ESTER', 'weight': 600.678, 'carbohydrate_polymer': False, 'branch_name': ''}, {'chain_id': 'B', 'author_residue_number': 501, 'author_insertion_code': '', 'chem_comp_id': 'AG7', 'alternate_conformers': 0, 'entity_id': 2, 'struct_asym_id': 'E', 'residue_number': 1, 'chem_comp_name': '4-{2-(4-FLUORO-BENZYL)-6-METHYL-5-[(5-METHYL-ISOXAZOLE-3-CARBONYL)-AMINO]-4-OXO-HEPTANOYLAMINO}-5-(2-OXO-PYRROLIDIN-3-YL)-PENTANOIC ACID ETHYL ESTER', 'weight': 600.678, 'carbohydrate_polymer': False, 'branch_name': ''}, {'chain_id': 'A', 'author_residue_number': 184, 'author_insertion_code': '', 'chem_comp_id': 'EDO', 'alternate_conformers': 0, 'entity_id': 3, 'struct_asym_id': 'D', 'residue_number': 1, 'chem_comp_name': '1,2-ETHANEDIOL', 'weight': 62.068, 'carbohydrate_polymer': False, 'branch_name': ''}, {'chain_id': 'B', 'author_residue_number': 184, 'author_insertion_code': '', 'chem_comp_id': 'EDO', 'alternate_conformers': 0, 'entity_id': 3, 'struct_asym_id': 'F', 'residue_number': 1, 'chem_comp_name': '1,2-ETHANEDIOL', 'weight': 62.068, 'carbohydrate_polymer': False, 'branch_name': ''}]

>  <ligand_codes>  (762) 
['AG7', 'AG7', 'EDO', 'EDO']

>  <cofactor_codes>  (762) 
[]

>  <has_cofactor>  (762) 
False

>  <covalent>  (762) 
True

>  <base_name>  (762) 
3QZR

>  <lig_resn>  (762) 
AG7

>  <lig_resi>  (762) 
501

>  <lig_chain>  (762) 
A

>  <lig_segi>  (762) 
C

>  <lig_alt>  (762) 


>  <polymer_chain>  (762) 
A

>  <single_smiles>  (762) 
CCOC(=O)CC[C@H](C[C@@H]1CCNC1=O)NC(=O)[C@@H](CC(=O)[C@@H](NC(=O)c2cc(C)on2)C(C)C)Cc3ccc(F)cc3

$$$$
AG7P19S40
     RDKit          3D

 25 24  0  0  0  0  0  0  0  0999 V2000
   -9.1160   12.8370  -36.6190 C   0  0  0  0  0  0  0  0  0  0  0  0
   -9.0610   13.1510  -35.1400 C   0  0  1  0  0  0  0  0  0  0  0  0
   -8.0020   12.2570  -34.5340 C   0  0  0  0  0  0  0  0  0  0  0  0
   -8.7610   14.6330  -34.8480 C   0  0  0  0  0  0  0  0  0  0  0  0
   -8.4740   11.0120  -33.9140 N   0  0  0  0  0  0  0  0  0  0  0  0
   -6.8200   12.4370  -34.7580 O   0  0  0  0  0  0  0  0  0  0  0  0
   -8.6230   14.9040  -33.3450 C   0  0  0  0  0  0  0  0  0  0  0  0
   -7.5070    9.9600  -33.5600 C   0  0  1  0  0  0  0  0  0  0  0  0
   -8.3200   16.3610  -32.9460 C   0  0  1  0  0  0  0  0  0  0  0  0
   -8.8100   14.0450  -32.5010 O   0  0  0  0  0  0  0  0  0  0  0  0
   -7.4170    9.7980  -32.0510 C   0  0  0  0  0  0  0  0  0  0  0  0
   -7.8680    8.6790  -34.3150 C   0  0  2  0  0  0  0  0  0  0  0  0
   -8.7210   16.6270  -31.5860 N   0  0  0  0  0  0  0  0  0  0  0  0
   -6.8620   16.7390  -33.1570 C   0  0  0  0  0  0  0  0  0  0  0  0
   -7.7390    8.7380  -35.8290 C   0  0  0  0  0  0  0  0  0  0  0  0
   -9.7020    8.3680  -33.9610 R   0  0  0  0  0  0  0  0  0  0  0  0
   -9.7810   17.5780  -31.3410 C   0  0  0  0  0  0  0  0  0  0  0  0
   -6.6030   18.1760  -32.7090 C   0  0  0  0  0  0  0  0  0  0  0  0
   -5.9650   15.7790  -32.4070 C   0  0  0  0  0  0  0  0  0  0  0  0
   -6.3020    9.0130  -36.2080 C   0  0  0  0  0  0  0  0  0  0  0  0
  -10.2100   18.2950  -32.2350 O   0  0  0  0  0  0  0  0  0  0  0  0
   -6.0500    9.8390  -37.1600 O   0  0  0  0  0  0  0  0  0  0  0  0
   -5.3750    8.4590  -35.5800 O   0  0  0  0  0  0  0  0  0  0  0  0
   -4.7460   10.1970  -37.4660 C   0  0  0  0  0  0  0  0  0  0  0  0
   -4.7740   11.5170  -38.2110 C   0  0  0  0  0  0  0  0  0  0  0  0
  2  1  1  6
  2  3  1  0
  2  4  1  0
  5  3  1  0
  3  6  2  0
  7  4  1  0
  5  8  1  0
  7  9  1  0
  7 10  2  0
  8 11  1  1
  8 12  1  0
  9 13  1  1
  9 14  1  0
 12 15  1  0
 12 16  1  6
 13 17  1  0
 14 18  1  0
 14 19  1  0
 15 20  1  0
 17 21  2  0
 20 22  1  0
 20 23  2  0
 22 24  1  0
 24 25  1  0
V   16 *
A    2
 C04
A    3
 C47
A    4
 C02
A    5
 N12
A    6
 O48
A    7
 C01
A    8
 C13
A    9
 C57
A   10
 O03
A   12
 C19
A   13
 N58
A   14
 C78
A   15
 C20
A   16
 X  
A   18
 C81
A   19
 C82
A   20
 C21
A   21
 O60
A   22
 O22
A   23
 O23
A   24
 C50
A   25
 C53
M  END
>  <XChem_code>  (763) 
AG7§19

>  <Occupancy>  (763) 
[1.0, 1.0, 1.0, 1.0, 1.0, 1.0, 1.0, 0.81, 0.67, 1.0, 0.9, 1.0, 0.99, 0.82, 1.0, 0.97, 0.92, 1.0, 1.0, 1.0, 1.0, 1.0, 1.0, 1.0, 1.0, 1.0, 0.96, 0.94, 0.88, 1.0, 0.97, 0.96, 0.82, 1.0, 1.0, 1.0, 0.94, 1.0, 1.0, 1.0, 1.0, 1.0, 1.0, 0.57]

>  <TempFactor>  (763) 
[8.55, 14.09, 10.4, 16.23, 18.11, 8.39, 11.04, 21.62, 18.04, 14.04, 16.09, 16.2, 18.25, 20.07, 20.39, 19.45, 18.39, 8.91, 9.58, 9.49, 9.06, 8.98, 10.12, 8.25, 10.26, 13.73, 15.91, 18.52, 15.13, 10.09, 11.37, 22.17, 24.58, 9.1, 9.37, 11.23, 12.49, 10.87, 13.0, 11.61, 11.25, 10.85, 9.88, 22.44]

>  <accession>  (763) 
3QZR_A

>  <description>  (763) 
Chain A, 3C protein [Enterovirus A71]

>  <evalue>  (763) 
1.4913000000000001e-58

>  <pdb_code>  (763) 
3QZR

>  <chain>  (763) 
A

>  <ligands>  (763) 
[{'chain_id': 'A', 'author_residue_number': 501, 'author_insertion_code': '', 'chem_comp_id': 'AG7', 'alternate_conformers': 0, 'entity_id': 2, 'struct_asym_id': 'C', 'residue_number': 1, 'chem_comp_name': '4-{2-(4-FLUORO-BENZYL)-6-METHYL-5-[(5-METHYL-ISOXAZOLE-3-CARBONYL)-AMINO]-4-OXO-HEPTANOYLAMINO}-5-(2-OXO-PYRROLIDIN-3-YL)-PENTANOIC ACID ETHYL ESTER', 'weight': 600.678, 'carbohydrate_polymer': False, 'branch_name': ''}, {'chain_id': 'B', 'author_residue_number': 501, 'author_insertion_code': '', 'chem_comp_id': 'AG7', 'alternate_conformers': 0, 'entity_id': 2, 'struct_asym_id': 'E', 'residue_number': 1, 'chem_comp_name': '4-{2-(4-FLUORO-BENZYL)-6-METHYL-5-[(5-METHYL-ISOXAZOLE-3-CARBONYL)-AMINO]-4-OXO-HEPTANOYLAMINO}-5-(2-OXO-PYRROLIDIN-3-YL)-PENTANOIC ACID ETHYL ESTER', 'weight': 600.678, 'carbohydrate_polymer': False, 'branch_name': ''}, {'chain_id': 'A', 'author_residue_number': 184, 'author_insertion_code': '', 'chem_comp_id': 'EDO', 'alternate_conformers': 0, 'entity_id': 3, 'struct_asym_id': 'D', 'residue_number': 1, 'chem_comp_name': '1,2-ETHANEDIOL', 'weight': 62.068, 'carbohydrate_polymer': False, 'branch_name': ''}, {'chain_id': 'B', 'author_residue_number': 184, 'author_insertion_code': '', 'chem_comp_id': 'EDO', 'alternate_conformers': 0, 'entity_id': 3, 'struct_asym_id': 'F', 'residue_number': 1, 'chem_comp_name': '1,2-ETHANEDIOL', 'weight': 62.068, 'carbohydrate_polymer': False, 'branch_name': ''}]

>  <ligand_codes>  (763) 
['AG7', 'AG7', 'EDO', 'EDO']

>  <cofactor_codes>  (763) 
[]

>  <has_cofactor>  (763) 
False

>  <covalent>  (763) 
True

>  <base_name>  (763) 
3QZR

>  <lig_resn>  (763) 
AG7

>  <lig_resi>  (763) 
501

>  <lig_chain>  (763) 
A

>  <lig_segi>  (763) 
C

>  <lig_alt>  (763) 


>  <polymer_chain>  (763) 
A

>  <single_smiles>  (763) 
CCOC(=O)CC[C@H](C[C@@H]1CCNC1=O)NC(=O)[C@@H](CC(=O)[C@@H](NC(=O)c2cc(C)on2)C(C)C)Cc3ccc(F)cc3

$$$$
5GIP2
     RDKit          3D

 33 36  0  0  0  0  0  0  0  0999 V2000
   -9.6710   13.3510  -34.9850 C   0  0  1  0  0  0  0  0  0  0  0  0
   -8.9930   14.5510  -34.7960 N   0  0  0  0  0  0  0  0  0  0  0  0
   -7.1670   18.2380  -33.5600 O   0  0  0  0  0  0  0  0  0  0  0  0
  -10.1810   13.2340  -36.3950 C   0  0  0  0  0  0  0  0  0  0  0  0
   -7.9700   17.3240  -34.0490 N   0  0  0  0  0  0  0  0  0  0  0  0
   -8.2950    8.5760  -35.9070 O   0  0  0  0  0  0  0  0  0  0  0  0
   -8.6310   12.3040  -34.7780 C   0  0  0  0  0  0  0  0  0  0  0  0
   -6.1150   11.6600  -29.5560 N   0  0  0  0  0  0  0  0  0  0  0  0
   -7.4990   12.5560  -35.0400 O   0  0  0  0  0  0  0  0  0  0  0  0
   -5.6040   18.6070  -31.6530 C   0  0  0  0  0  0  0  0  0  0  0  0
   -9.0340   11.0510  -34.2690 N   0  0  0  0  0  0  0  0  0  0  0  0
   -9.1710   14.3940  -32.5200 O   0  0  0  0  0  0  0  0  0  0  0  0
  -11.5500   13.8850  -36.5470 C   0  0  0  0  0  0  0  0  0  0  0  0
   -7.8430   10.1480  -29.7250 O   0  0  0  0  0  0  0  0  0  0  0  0
  -12.5600   13.5520  -35.7150 C   0  0  0  0  0  0  0  0  0  0  0  0
  -11.7250   14.8280  -37.5440 C   0  0  0  0  0  0  0  0  0  0  0  0
  -13.7800   14.1620  -35.8710 C   0  0  0  0  0  0  0  0  0  0  0  0
  -13.9420   15.1070  -36.8650 C   0  0  0  0  0  0  0  0  0  0  0  0
  -12.9370   15.4400  -37.6840 C   0  0  0  0  0  0  0  0  0  0  0  0
   -8.7720   15.0010  -33.4870 C   0  0  0  0  0  0  0  0  0  0  0  0
   -7.9860   16.2730  -33.2750 C   0  0  0  0  0  0  0  0  0  0  0  0
   -5.2060   12.5720  -30.2480 C   0  0  0  0  0  0  0  0  0  0  0  0
   -7.0900   16.5190  -32.1990 C   0  0  0  0  0  0  0  0  0  0  0  0
   -8.6530    8.7000  -34.7540 C   0  0  1  0  0  0  0  0  0  0  0  0
   -6.5960   17.8330  -32.4710 C   0  0  0  0  0  0  0  0  0  0  0  0
   -5.7020   13.0220  -31.6100 C   0  0  0  0  0  0  0  0  0  0  0  0
   -8.1730    9.9490  -34.0130 C   0  0  1  0  0  0  0  0  0  0  0  0
   -7.8050    9.9270  -32.5350 C   0  0  0  0  0  0  0  0  0  0  0  0
   -7.2790   11.1660  -31.7440 C   0  0  1  0  0  0  0  0  0  0  0  0
   -6.7840   10.6750  -30.4020 C   0  0  1  0  0  0  0  0  0  0  0  0
   -6.1590   11.8760  -32.4020 C   0  0  0  0  0  0  0  0  0  0  0  0
   -9.6480    8.6280  -34.0830 R   0  0  0  0  0  0  0  0  0  0  0  0
  -15.0890   15.7090  -37.0320 F   0  0  0  0  0  0  0  0  0  0  0  0
  1  2  1  0
  1  4  1  6
  1  7  1  0
  2 20  1  0
  3  5  1  0
  3 25  1  0
  4 13  1  0
  5 21  1  0
 24  6  1  6
  7  9  1  0
  7 11  1  0
  8 22  1  0
  8 30  1  0
 10 25  1  0
 11 27  1  0
 12 20  1  0
 13 15  1  0
 13 16  1  0
 30 14  1  1
 15 17  1  0
 16 19  1  0
 17 18  1  0
 18 19  1  0
 18 33  1  0
 20 21  1  0
 21 23  1  0
 22 26  1  0
 23 25  1  0
 24 27  1  0
 24 32  1  0
 26 31  1  0
 27 28  1  6
 27 32  1  0
 29 28  1  6
 29 30  1  0
 29 31  1  0
V   32 *
A    1
 C1 
A    2
 N1 
A    3
 O1 
A    4
 C2 
A    5
 N2 
A    6
 O2 
A    7
 C3 
A    8
 N3 
A    9
 O3 
A   10
 C4 
A   11
 N4 
A   12
 O4 
A   13
 C5 
A   14
 O5 
A   15
 C6 
A   16
 C7 
A   17
 C8 
A   18
 C9 
A   19
 C10
A   20
 C11
A   21
 C12
A   22
 C13
A   23
 C14
A   24
 C15
A   25
 C16
A   26
 C17
A   27
 C18
A   28
 C19
A   29
 C20
A   30
 C21
A   31
 C22
A   32
 X  
A   33
 F1 
M  END
>  <XChem_code>  (764) 
5GI§2

>  <Occupancy>  (764) 
[1.0, 1.0, 1.0, 1.0, 1.0, 1.0, 1.0, 1.0, 1.0, 1.0, 1.0, 1.0, 1.0, 1.0, 1.0, 1.0, 1.0, 1.0, 1.0, 1.0, 1.0, 1.0, 1.0, 1.0, 1.0, 1.0, 1.0, 1.0, 1.0, 1.0, 1.0, 1.0, 1.0]

>  <TempFactor>  (764) 
[49.16, 50.65, 59.43, 46.46, 58.44, 57.93, 50.07, 43.93, 50.57, 60.46, 51.52, 50.9, 45.67, 43.54, 43.98, 44.86, 44.03, 44.64, 44.87, 49.8, 58.55, 43.97, 57.73, 55.84, 59.19, 44.52, 53.05, 49.04, 46.38, 44.56, 45.51, 26.59, 45.13]

>  <accession>  (764) 
5GSW_A

>  <description>  (764) 
Chain A, 3C protein [Enterovirus A71]

>  <evalue>  (764) 
4.6634199999999997e-58

>  <pdb_code>  (764) 
5GSW

>  <chain>  (764) 
A

>  <ligands>  (764) 
[{'chain_id': 'A', 'author_residue_number': 201, 'author_insertion_code': '', 'chem_comp_id': '5GI', 'alternate_conformers': 0, 'entity_id': 2, 'struct_asym_id': 'F', 'residue_number': 1, 'chem_comp_name': '~{N}-[(2~{S})-3-(4-fluorophenyl)-1-oxidanylidene-1-[[(2~{S})-1-oxidanylidene-3-[(3~{S})-2-oxidanylidenepiperidin-3-yl]propan-2-yl]amino]propan-2-yl]-5-methyl-1,2-oxazole-3-carboxamide', 'weight': 444.456, 'carbohydrate_polymer': False, 'branch_name': ''}, {'chain_id': 'B', 'author_residue_number': 201, 'author_insertion_code': '', 'chem_comp_id': '5GI', 'alternate_conformers': 0, 'entity_id': 2, 'struct_asym_id': 'G', 'residue_number': 1, 'chem_comp_name': '~{N}-[(2~{S})-3-(4-fluorophenyl)-1-oxidanylidene-1-[[(2~{S})-1-oxidanylidene-3-[(3~{S})-2-oxidanylidenepiperidin-3-yl]propan-2-yl]amino]propan-2-yl]-5-methyl-1,2-oxazole-3-carboxamide', 'weight': 444.456, 'carbohydrate_polymer': False, 'branch_name': ''}, {'chain_id': 'C', 'author_residue_number': 201, 'author_insertion_code': '', 'chem_comp_id': '5GI', 'alternate_conformers': 0, 'entity_id': 2, 'struct_asym_id': 'H', 'residue_number': 1, 'chem_comp_name': '~{N}-[(2~{S})-3-(4-fluorophenyl)-1-oxidanylidene-1-[[(2~{S})-1-oxidanylidene-3-[(3~{S})-2-oxidanylidenepiperidin-3-yl]propan-2-yl]amino]propan-2-yl]-5-methyl-1,2-oxazole-3-carboxamide', 'weight': 444.456, 'carbohydrate_polymer': False, 'branch_name': ''}, {'chain_id': 'D', 'author_residue_number': 201, 'author_insertion_code': '', 'chem_comp_id': '5GI', 'alternate_conformers': 0, 'entity_id': 2, 'struct_asym_id': 'I', 'residue_number': 1, 'chem_comp_name': '~{N}-[(2~{S})-3-(4-fluorophenyl)-1-oxidanylidene-1-[[(2~{S})-1-oxidanylidene-3-[(3~{S})-2-oxidanylidenepiperidin-3-yl]propan-2-yl]amino]propan-2-yl]-5-methyl-1,2-oxazole-3-carboxamide', 'weight': 444.456, 'carbohydrate_polymer': False, 'branch_name': ''}, {'chain_id': 'E', 'author_residue_number': 201, 'author_insertion_code': '', 'chem_comp_id': '5GI', 'alternate_conformers': 0, 'entity_id': 2, 'struct_asym_id': 'J', 'residue_number': 1, 'chem_comp_name': '~{N}-[(2~{S})-3-(4-fluorophenyl)-1-oxidanylidene-1-[[(2~{S})-1-oxidanylidene-3-[(3~{S})-2-oxidanylidenepiperidin-3-yl]propan-2-yl]amino]propan-2-yl]-5-methyl-1,2-oxazole-3-carboxamide', 'weight': 444.456, 'carbohydrate_polymer': False, 'branch_name': ''}]

>  <ligand_codes>  (764) 
['5GI', '5GI', '5GI', '5GI', '5GI']

>  <cofactor_codes>  (764) 
[]

>  <has_cofactor>  (764) 
False

>  <covalent>  (764) 
True

>  <base_name>  (764) 
5GSW

>  <lig_resn>  (764) 
5GI

>  <lig_resi>  (764) 
201

>  <lig_chain>  (764) 
A

>  <lig_segi>  (764) 
F

>  <lig_alt>  (764) 


>  <polymer_chain>  (764) 
A

>  <single_smiles>  (764) 
Cc1onc(c1)C(=O)N[C@@H](Cc2ccc(F)cc2)C(=O)N[C@@H](C[C@@H]3CCCNC3=O)C=O

$$$$
5GIP2S1
     RDKit          3D

  9  9  0  0  0  0  0  0  0  0999 V2000
   -8.9930   14.5510  -34.7960 N   0  0  0  0  0  0  0  0  0  0  0  0
   -8.7720   15.0010  -33.4870 C   0  0  0  0  0  0  0  0  0  0  0  0
   -9.1710   14.3940  -32.5200 O   0  0  0  0  0  0  0  0  0  0  0  0
   -7.9860   16.2730  -33.2750 C   0  0  0  0  0  0  0  0  0  0  0  0
   -7.9700   17.3240  -34.0490 N   0  0  0  0  0  0  0  0  0  0  0  0
   -7.0900   16.5190  -32.1990 C   0  0  0  0  0  0  0  0  0  0  0  0
   -7.1670   18.2380  -33.5600 O   0  0  0  0  0  0  0  0  0  0  0  0
   -6.5960   17.8330  -32.4710 C   0  0  0  0  0  0  0  0  0  0  0  0
   -5.6040   18.6070  -31.6530 C   0  0  0  0  0  0  0  0  0  0  0  0
  1  2  1  0
  3  2  1  0
  2  4  1  0
  5  4  1  0
  4  6  1  0
  7  5  1  0
  6  8  1  0
  7  8  1  0
  9  8  1  0
A    2
 C11
A    3
 O4 
A    4
 C12
A    5
 N2 
A    6
 C14
A    7
 O1 
A    8
 C16
A    9
 C4 
M  END
>  <XChem_code>  (765) 
5GI§2

>  <Occupancy>  (765) 
[1.0, 1.0, 1.0, 1.0, 1.0, 1.0, 1.0, 1.0, 1.0, 1.0, 1.0, 1.0, 1.0, 1.0, 1.0, 1.0, 1.0, 1.0, 1.0, 1.0, 1.0, 1.0, 1.0, 1.0, 1.0, 1.0, 1.0, 1.0, 1.0, 1.0, 1.0, 1.0, 1.0]

>  <TempFactor>  (765) 
[49.16, 50.65, 59.43, 46.46, 58.44, 57.93, 50.07, 43.93, 50.57, 60.46, 51.52, 50.9, 45.67, 43.54, 43.98, 44.86, 44.03, 44.64, 44.87, 49.8, 58.55, 43.97, 57.73, 55.84, 59.19, 44.52, 53.05, 49.04, 46.38, 44.56, 45.51, 26.59, 45.13]

>  <accession>  (765) 
5GSW_A

>  <description>  (765) 
Chain A, 3C protein [Enterovirus A71]

>  <evalue>  (765) 
4.6634199999999997e-58

>  <pdb_code>  (765) 
5GSW

>  <chain>  (765) 
A

>  <ligands>  (765) 
[{'chain_id': 'A', 'author_residue_number': 201, 'author_insertion_code': '', 'chem_comp_id': '5GI', 'alternate_conformers': 0, 'entity_id': 2, 'struct_asym_id': 'F', 'residue_number': 1, 'chem_comp_name': '~{N}-[(2~{S})-3-(4-fluorophenyl)-1-oxidanylidene-1-[[(2~{S})-1-oxidanylidene-3-[(3~{S})-2-oxidanylidenepiperidin-3-yl]propan-2-yl]amino]propan-2-yl]-5-methyl-1,2-oxazole-3-carboxamide', 'weight': 444.456, 'carbohydrate_polymer': False, 'branch_name': ''}, {'chain_id': 'B', 'author_residue_number': 201, 'author_insertion_code': '', 'chem_comp_id': '5GI', 'alternate_conformers': 0, 'entity_id': 2, 'struct_asym_id': 'G', 'residue_number': 1, 'chem_comp_name': '~{N}-[(2~{S})-3-(4-fluorophenyl)-1-oxidanylidene-1-[[(2~{S})-1-oxidanylidene-3-[(3~{S})-2-oxidanylidenepiperidin-3-yl]propan-2-yl]amino]propan-2-yl]-5-methyl-1,2-oxazole-3-carboxamide', 'weight': 444.456, 'carbohydrate_polymer': False, 'branch_name': ''}, {'chain_id': 'C', 'author_residue_number': 201, 'author_insertion_code': '', 'chem_comp_id': '5GI', 'alternate_conformers': 0, 'entity_id': 2, 'struct_asym_id': 'H', 'residue_number': 1, 'chem_comp_name': '~{N}-[(2~{S})-3-(4-fluorophenyl)-1-oxidanylidene-1-[[(2~{S})-1-oxidanylidene-3-[(3~{S})-2-oxidanylidenepiperidin-3-yl]propan-2-yl]amino]propan-2-yl]-5-methyl-1,2-oxazole-3-carboxamide', 'weight': 444.456, 'carbohydrate_polymer': False, 'branch_name': ''}, {'chain_id': 'D', 'author_residue_number': 201, 'author_insertion_code': '', 'chem_comp_id': '5GI', 'alternate_conformers': 0, 'entity_id': 2, 'struct_asym_id': 'I', 'residue_number': 1, 'chem_comp_name': '~{N}-[(2~{S})-3-(4-fluorophenyl)-1-oxidanylidene-1-[[(2~{S})-1-oxidanylidene-3-[(3~{S})-2-oxidanylidenepiperidin-3-yl]propan-2-yl]amino]propan-2-yl]-5-methyl-1,2-oxazole-3-carboxamide', 'weight': 444.456, 'carbohydrate_polymer': False, 'branch_name': ''}, {'chain_id': 'E', 'author_residue_number': 201, 'author_insertion_code': '', 'chem_comp_id': '5GI', 'alternate_conformers': 0, 'entity_id': 2, 'struct_asym_id': 'J', 'residue_number': 1, 'chem_comp_name': '~{N}-[(2~{S})-3-(4-fluorophenyl)-1-oxidanylidene-1-[[(2~{S})-1-oxidanylidene-3-[(3~{S})-2-oxidanylidenepiperidin-3-yl]propan-2-yl]amino]propan-2-yl]-5-methyl-1,2-oxazole-3-carboxamide', 'weight': 444.456, 'carbohydrate_polymer': False, 'branch_name': ''}]

>  <ligand_codes>  (765) 
['5GI', '5GI', '5GI', '5GI', '5GI']

>  <cofactor_codes>  (765) 
[]

>  <has_cofactor>  (765) 
False

>  <covalent>  (765) 
True

>  <base_name>  (765) 
5GSW

>  <lig_resn>  (765) 
5GI

>  <lig_resi>  (765) 
201

>  <lig_chain>  (765) 
A

>  <lig_segi>  (765) 
F

>  <lig_alt>  (765) 


>  <polymer_chain>  (765) 
A

>  <single_smiles>  (765) 
Cc1onc(c1)C(=O)N[C@@H](Cc2ccc(F)cc2)C(=O)N[C@@H](C[C@@H]3CCCNC3=O)C=O

$$$$
5GIP2S2
     RDKit          3D

 24 26  0  0  0  0  0  0  0  0999 V2000
   -9.6710   13.3510  -34.9850 C   0  0  0  0  0  0  0  0  0  0  0  0
  -10.1810   13.2340  -36.3950 C   0  0  0  0  0  0  0  0  0  0  0  0
   -8.6310   12.3040  -34.7780 C   0  0  0  0  0  0  0  0  0  0  0  0
  -11.5500   13.8850  -36.5470 C   0  0  0  0  0  0  0  0  0  0  0  0
   -7.4990   12.5560  -35.0400 O   0  0  0  0  0  0  0  0  0  0  0  0
   -9.0340   11.0510  -34.2690 N   0  0  0  0  0  0  0  0  0  0  0  0
  -12.5600   13.5520  -35.7150 C   0  0  0  0  0  0  0  0  0  0  0  0
  -11.7250   14.8280  -37.5440 C   0  0  0  0  0  0  0  0  0  0  0  0
   -8.1730    9.9490  -34.0130 C   0  0  1  0  0  0  0  0  0  0  0  0
  -13.7800   14.1620  -35.8710 C   0  0  0  0  0  0  0  0  0  0  0  0
  -12.9370   15.4400  -37.6840 C   0  0  0  0  0  0  0  0  0  0  0  0
   -8.6530    8.7000  -34.7540 C   0  0  1  0  0  0  0  0  0  0  0  0
   -7.8050    9.9270  -32.5350 C   0  0  0  0  0  0  0  0  0  0  0  0
   -9.6480    8.6280  -34.0830 R   0  0  0  0  0  2  0  0  0  0  0  0
  -13.9420   15.1070  -36.8650 C   0  0  0  0  0  0  0  0  0  0  0  0
   -8.2950    8.5760  -35.9070 O   0  0  0  0  0  0  0  0  0  0  0  0
   -7.2790   11.1660  -31.7440 C   0  0  1  0  0  0  0  0  0  0  0  0
  -15.0890   15.7090  -37.0320 F   0  0  0  0  0  0  0  0  0  0  0  0
   -6.7840   10.6750  -30.4020 C   0  0  1  0  0  0  0  0  0  0  0  0
   -6.1590   11.8760  -32.4020 C   0  0  0  0  0  0  0  0  0  0  0  0
   -6.1150   11.6600  -29.5560 N   0  0  0  0  0  0  0  0  0  0  0  0
   -7.8430   10.1480  -29.7250 O   0  0  0  0  0  0  0  0  0  0  0  0
   -5.7020   13.0220  -31.6100 C   0  0  0  0  0  0  0  0  0  0  0  0
   -5.2060   12.5720  -30.2480 C   0  0  0  0  0  0  0  0  0  0  0  0
  1  2  1  6
  1  3  1  0
  2  4  1  0
  3  5  1  0
  3  6  1  0
  4  7  1  0
  4  8  1  0
  6  9  1  0
  7 10  1  0
  8 11  1  0
 12  9  1  0
  9 13  1  6
  9 14  1  0
 10 15  1  0
 15 11  1  0
 12 16  1  6
 12 14  1  0
 17 13  1  6
 15 18  1  0
 17 19  1  0
 17 20  1  0
 21 19  1  0
 19 22  1  1
 23 20  1  0
 21 24  1  0
 24 23  1  0
M  RAD  1  14   2
V   14 *
A    2
 C2 
A    3
 C3 
A    4
 C5 
A    5
 O3 
A    6
 N4 
A    7
 C6 
A    8
 C7 
A    9
 C18
A   10
 C8 
A   11
 C10
A   12
 C15
A   13
 C19
A   14
 X  
A   15
 C9 
A   16
 O2 
A   17
 C20
A   18
 F1 
A   19
 C21
A   20
 C22
A   21
 N3 
A   22
 O5 
A   23
 C17
A   24
 C13
M  END
>  <XChem_code>  (766) 
5GI§2

>  <Occupancy>  (766) 
[1.0, 1.0, 1.0, 1.0, 1.0, 1.0, 1.0, 1.0, 1.0, 1.0, 1.0, 1.0, 1.0, 1.0, 1.0, 1.0, 1.0, 1.0, 1.0, 1.0, 1.0, 1.0, 1.0, 1.0, 1.0, 1.0, 1.0, 1.0, 1.0, 1.0, 1.0, 1.0, 1.0]

>  <TempFactor>  (766) 
[49.16, 50.65, 59.43, 46.46, 58.44, 57.93, 50.07, 43.93, 50.57, 60.46, 51.52, 50.9, 45.67, 43.54, 43.98, 44.86, 44.03, 44.64, 44.87, 49.8, 58.55, 43.97, 57.73, 55.84, 59.19, 44.52, 53.05, 49.04, 46.38, 44.56, 45.51, 26.59, 45.13]

>  <accession>  (766) 
5GSW_A

>  <description>  (766) 
Chain A, 3C protein [Enterovirus A71]

>  <evalue>  (766) 
4.6634199999999997e-58

>  <pdb_code>  (766) 
5GSW

>  <chain>  (766) 
A

>  <ligands>  (766) 
[{'chain_id': 'A', 'author_residue_number': 201, 'author_insertion_code': '', 'chem_comp_id': '5GI', 'alternate_conformers': 0, 'entity_id': 2, 'struct_asym_id': 'F', 'residue_number': 1, 'chem_comp_name': '~{N}-[(2~{S})-3-(4-fluorophenyl)-1-oxidanylidene-1-[[(2~{S})-1-oxidanylidene-3-[(3~{S})-2-oxidanylidenepiperidin-3-yl]propan-2-yl]amino]propan-2-yl]-5-methyl-1,2-oxazole-3-carboxamide', 'weight': 444.456, 'carbohydrate_polymer': False, 'branch_name': ''}, {'chain_id': 'B', 'author_residue_number': 201, 'author_insertion_code': '', 'chem_comp_id': '5GI', 'alternate_conformers': 0, 'entity_id': 2, 'struct_asym_id': 'G', 'residue_number': 1, 'chem_comp_name': '~{N}-[(2~{S})-3-(4-fluorophenyl)-1-oxidanylidene-1-[[(2~{S})-1-oxidanylidene-3-[(3~{S})-2-oxidanylidenepiperidin-3-yl]propan-2-yl]amino]propan-2-yl]-5-methyl-1,2-oxazole-3-carboxamide', 'weight': 444.456, 'carbohydrate_polymer': False, 'branch_name': ''}, {'chain_id': 'C', 'author_residue_number': 201, 'author_insertion_code': '', 'chem_comp_id': '5GI', 'alternate_conformers': 0, 'entity_id': 2, 'struct_asym_id': 'H', 'residue_number': 1, 'chem_comp_name': '~{N}-[(2~{S})-3-(4-fluorophenyl)-1-oxidanylidene-1-[[(2~{S})-1-oxidanylidene-3-[(3~{S})-2-oxidanylidenepiperidin-3-yl]propan-2-yl]amino]propan-2-yl]-5-methyl-1,2-oxazole-3-carboxamide', 'weight': 444.456, 'carbohydrate_polymer': False, 'branch_name': ''}, {'chain_id': 'D', 'author_residue_number': 201, 'author_insertion_code': '', 'chem_comp_id': '5GI', 'alternate_conformers': 0, 'entity_id': 2, 'struct_asym_id': 'I', 'residue_number': 1, 'chem_comp_name': '~{N}-[(2~{S})-3-(4-fluorophenyl)-1-oxidanylidene-1-[[(2~{S})-1-oxidanylidene-3-[(3~{S})-2-oxidanylidenepiperidin-3-yl]propan-2-yl]amino]propan-2-yl]-5-methyl-1,2-oxazole-3-carboxamide', 'weight': 444.456, 'carbohydrate_polymer': False, 'branch_name': ''}, {'chain_id': 'E', 'author_residue_number': 201, 'author_insertion_code': '', 'chem_comp_id': '5GI', 'alternate_conformers': 0, 'entity_id': 2, 'struct_asym_id': 'J', 'residue_number': 1, 'chem_comp_name': '~{N}-[(2~{S})-3-(4-fluorophenyl)-1-oxidanylidene-1-[[(2~{S})-1-oxidanylidene-3-[(3~{S})-2-oxidanylidenepiperidin-3-yl]propan-2-yl]amino]propan-2-yl]-5-methyl-1,2-oxazole-3-carboxamide', 'weight': 444.456, 'carbohydrate_polymer': False, 'branch_name': ''}]

>  <ligand_codes>  (766) 
['5GI', '5GI', '5GI', '5GI', '5GI']

>  <cofactor_codes>  (766) 
[]

>  <has_cofactor>  (766) 
False

>  <covalent>  (766) 
True

>  <base_name>  (766) 
5GSW

>  <lig_resn>  (766) 
5GI

>  <lig_resi>  (766) 
201

>  <lig_chain>  (766) 
A

>  <lig_segi>  (766) 
F

>  <lig_alt>  (766) 


>  <polymer_chain>  (766) 
A

>  <single_smiles>  (766) 
Cc1onc(c1)C(=O)N[C@@H](Cc2ccc(F)cc2)C(=O)N[C@@H](C[C@@H]3CCCNC3=O)C=O

$$$$
5GIP2S3
     RDKit          3D

 13 14  0  0  0  0  0  0  0  0999 V2000
   -9.0340   11.0510  -34.2690 N   0  0  0  0  0  0  0  0  0  0  0  0
   -8.1730    9.9490  -34.0130 C   0  0  1  0  0  0  0  0  0  0  0  0
   -8.6530    8.7000  -34.7540 C   0  0  1  0  0  0  0  0  0  0  0  0
   -7.8050    9.9270  -32.5350 C   0  0  0  0  0  0  0  0  0  0  0  0
   -9.6480    8.6280  -34.0830 R   0  0  0  0  0  2  0  0  0  0  0  0
   -8.2950    8.5760  -35.9070 O   0  0  0  0  0  0  0  0  0  0  0  0
   -7.2790   11.1660  -31.7440 C   0  0  1  0  0  0  0  0  0  0  0  0
   -6.7840   10.6750  -30.4020 C   0  0  1  0  0  0  0  0  0  0  0  0
   -6.1590   11.8760  -32.4020 C   0  0  0  0  0  0  0  0  0  0  0  0
   -6.1150   11.6600  -29.5560 N   0  0  0  0  0  0  0  0  0  0  0  0
   -7.8430   10.1480  -29.7250 O   0  0  0  0  0  0  0  0  0  0  0  0
   -5.7020   13.0220  -31.6100 C   0  0  0  0  0  0  0  0  0  0  0  0
   -5.2060   12.5720  -30.2480 C   0  0  0  0  0  0  0  0  0  0  0  0
  2  1  1  1
  3  2  1  0
  2  4  1  0
  2  5  1  0
  3  6  1  6
  3  5  1  0
  7  4  1  6
  7  8  1  0
  7  9  1  0
 10  8  1  0
  8 11  1  1
 12  9  1  0
 10 13  1  0
 13 12  1  0
M  RAD  1   5   2
V    5 *
A    2
 C18
A    3
 C15
A    4
 C19
A    5
 X  
A    6
 O2 
A    7
 C20
A    8
 C21
A    9
 C22
A   10
 N3 
A   11
 O5 
A   12
 C17
A   13
 C13
M  END
>  <XChem_code>  (767) 
5GI§2

>  <Occupancy>  (767) 
[1.0, 1.0, 1.0, 1.0, 1.0, 1.0, 1.0, 1.0, 1.0, 1.0, 1.0, 1.0, 1.0, 1.0, 1.0, 1.0, 1.0, 1.0, 1.0, 1.0, 1.0, 1.0, 1.0, 1.0, 1.0, 1.0, 1.0, 1.0, 1.0, 1.0, 1.0, 1.0, 1.0]

>  <TempFactor>  (767) 
[49.16, 50.65, 59.43, 46.46, 58.44, 57.93, 50.07, 43.93, 50.57, 60.46, 51.52, 50.9, 45.67, 43.54, 43.98, 44.86, 44.03, 44.64, 44.87, 49.8, 58.55, 43.97, 57.73, 55.84, 59.19, 44.52, 53.05, 49.04, 46.38, 44.56, 45.51, 26.59, 45.13]

>  <accession>  (767) 
5GSW_A

>  <description>  (767) 
Chain A, 3C protein [Enterovirus A71]

>  <evalue>  (767) 
4.6634199999999997e-58

>  <pdb_code>  (767) 
5GSW

>  <chain>  (767) 
A

>  <ligands>  (767) 
[{'chain_id': 'A', 'author_residue_number': 201, 'author_insertion_code': '', 'chem_comp_id': '5GI', 'alternate_conformers': 0, 'entity_id': 2, 'struct_asym_id': 'F', 'residue_number': 1, 'chem_comp_name': '~{N}-[(2~{S})-3-(4-fluorophenyl)-1-oxidanylidene-1-[[(2~{S})-1-oxidanylidene-3-[(3~{S})-2-oxidanylidenepiperidin-3-yl]propan-2-yl]amino]propan-2-yl]-5-methyl-1,2-oxazole-3-carboxamide', 'weight': 444.456, 'carbohydrate_polymer': False, 'branch_name': ''}, {'chain_id': 'B', 'author_residue_number': 201, 'author_insertion_code': '', 'chem_comp_id': '5GI', 'alternate_conformers': 0, 'entity_id': 2, 'struct_asym_id': 'G', 'residue_number': 1, 'chem_comp_name': '~{N}-[(2~{S})-3-(4-fluorophenyl)-1-oxidanylidene-1-[[(2~{S})-1-oxidanylidene-3-[(3~{S})-2-oxidanylidenepiperidin-3-yl]propan-2-yl]amino]propan-2-yl]-5-methyl-1,2-oxazole-3-carboxamide', 'weight': 444.456, 'carbohydrate_polymer': False, 'branch_name': ''}, {'chain_id': 'C', 'author_residue_number': 201, 'author_insertion_code': '', 'chem_comp_id': '5GI', 'alternate_conformers': 0, 'entity_id': 2, 'struct_asym_id': 'H', 'residue_number': 1, 'chem_comp_name': '~{N}-[(2~{S})-3-(4-fluorophenyl)-1-oxidanylidene-1-[[(2~{S})-1-oxidanylidene-3-[(3~{S})-2-oxidanylidenepiperidin-3-yl]propan-2-yl]amino]propan-2-yl]-5-methyl-1,2-oxazole-3-carboxamide', 'weight': 444.456, 'carbohydrate_polymer': False, 'branch_name': ''}, {'chain_id': 'D', 'author_residue_number': 201, 'author_insertion_code': '', 'chem_comp_id': '5GI', 'alternate_conformers': 0, 'entity_id': 2, 'struct_asym_id': 'I', 'residue_number': 1, 'chem_comp_name': '~{N}-[(2~{S})-3-(4-fluorophenyl)-1-oxidanylidene-1-[[(2~{S})-1-oxidanylidene-3-[(3~{S})-2-oxidanylidenepiperidin-3-yl]propan-2-yl]amino]propan-2-yl]-5-methyl-1,2-oxazole-3-carboxamide', 'weight': 444.456, 'carbohydrate_polymer': False, 'branch_name': ''}, {'chain_id': 'E', 'author_residue_number': 201, 'author_insertion_code': '', 'chem_comp_id': '5GI', 'alternate_conformers': 0, 'entity_id': 2, 'struct_asym_id': 'J', 'residue_number': 1, 'chem_comp_name': '~{N}-[(2~{S})-3-(4-fluorophenyl)-1-oxidanylidene-1-[[(2~{S})-1-oxidanylidene-3-[(3~{S})-2-oxidanylidenepiperidin-3-yl]propan-2-yl]amino]propan-2-yl]-5-methyl-1,2-oxazole-3-carboxamide', 'weight': 444.456, 'carbohydrate_polymer': False, 'branch_name': ''}]

>  <ligand_codes>  (767) 
['5GI', '5GI', '5GI', '5GI', '5GI']

>  <cofactor_codes>  (767) 
[]

>  <has_cofactor>  (767) 
False

>  <covalent>  (767) 
True

>  <base_name>  (767) 
5GSW

>  <lig_resn>  (767) 
5GI

>  <lig_resi>  (767) 
201

>  <lig_chain>  (767) 
A

>  <lig_segi>  (767) 
F

>  <lig_alt>  (767) 


>  <polymer_chain>  (767) 
A

>  <single_smiles>  (767) 
Cc1onc(c1)C(=O)N[C@@H](Cc2ccc(F)cc2)C(=O)N[C@@H](C[C@@H]3CCCNC3=O)C=O

$$$$
5GIP2S4
     RDKit          3D

 20 21  0  0  0  0  0  0  0  0999 V2000
   -8.6310   12.3040  -34.7780 C   0  0  0  0  0  0  0  0  0  0  0  0
   -9.6710   13.3510  -34.9850 C   0  0  1  0  0  0  0  0  0  0  0  0
   -7.4990   12.5560  -35.0400 O   0  0  0  0  0  0  0  0  0  0  0  0
   -8.9930   14.5510  -34.7960 N   0  0  0  0  0  0  0  0  0  0  0  0
  -10.1810   13.2340  -36.3950 C   0  0  0  0  0  0  0  0  0  0  0  0
   -8.7720   15.0010  -33.4870 C   0  0  0  0  0  0  0  0  0  0  0  0
  -11.5500   13.8850  -36.5470 C   0  0  0  0  0  0  0  0  0  0  0  0
   -9.1710   14.3940  -32.5200 O   0  0  0  0  0  0  0  0  0  0  0  0
   -7.9860   16.2730  -33.2750 C   0  0  0  0  0  0  0  0  0  0  0  0
  -12.5600   13.5520  -35.7150 C   0  0  0  0  0  0  0  0  0  0  0  0
  -11.7250   14.8280  -37.5440 C   0  0  0  0  0  0  0  0  0  0  0  0
   -7.9700   17.3240  -34.0490 N   0  0  0  0  0  0  0  0  0  0  0  0
   -7.0900   16.5190  -32.1990 C   0  0  0  0  0  0  0  0  0  0  0  0
  -13.7800   14.1620  -35.8710 C   0  0  0  0  0  0  0  0  0  0  0  0
  -12.9370   15.4400  -37.6840 C   0  0  0  0  0  0  0  0  0  0  0  0
   -7.1670   18.2380  -33.5600 O   0  0  0  0  0  0  0  0  0  0  0  0
   -6.5960   17.8330  -32.4710 C   0  0  0  0  0  0  0  0  0  0  0  0
  -13.9420   15.1070  -36.8650 C   0  0  0  0  0  0  0  0  0  0  0  0
   -5.6040   18.6070  -31.6530 C   0  0  0  0  0  0  0  0  0  0  0  0
  -15.0890   15.7090  -37.0320 F   0  0  0  0  0  0  0  0  0  0  0  0
  2  1  1  6
  1  3  1  0
  2  4  1  0
  2  5  1  0
  4  6  1  0
  5  7  1  0
  8  6  1  0
  6  9  1  0
  7 10  1  0
  7 11  1  0
 12  9  1  0
  9 13  1  0
 10 14  1  0
 11 15  1  0
 16 12  1  0
 13 17  1  0
 14 18  1  0
 18 15  1  0
 16 17  1  0
 19 17  1  0
 18 20  1  0
A    2
 C1 
A    3
 O3 
A    4
 N1 
A    5
 C2 
A    6
 C11
A    7
 C5 
A    8
 O4 
A    9
 C12
A   10
 C6 
A   11
 C7 
A   12
 N2 
A   13
 C14
A   14
 C8 
A   15
 C10
A   16
 O1 
A   17
 C16
A   18
 C9 
A   19
 C4 
A   20
 F1 
M  END
>  <XChem_code>  (768) 
5GI§2

>  <Occupancy>  (768) 
[1.0, 1.0, 1.0, 1.0, 1.0, 1.0, 1.0, 1.0, 1.0, 1.0, 1.0, 1.0, 1.0, 1.0, 1.0, 1.0, 1.0, 1.0, 1.0, 1.0, 1.0, 1.0, 1.0, 1.0, 1.0, 1.0, 1.0, 1.0, 1.0, 1.0, 1.0, 1.0, 1.0]

>  <TempFactor>  (768) 
[49.16, 50.65, 59.43, 46.46, 58.44, 57.93, 50.07, 43.93, 50.57, 60.46, 51.52, 50.9, 45.67, 43.54, 43.98, 44.86, 44.03, 44.64, 44.87, 49.8, 58.55, 43.97, 57.73, 55.84, 59.19, 44.52, 53.05, 49.04, 46.38, 44.56, 45.51, 26.59, 45.13]

>  <accession>  (768) 
5GSW_A

>  <description>  (768) 
Chain A, 3C protein [Enterovirus A71]

>  <evalue>  (768) 
4.6634199999999997e-58

>  <pdb_code>  (768) 
5GSW

>  <chain>  (768) 
A

>  <ligands>  (768) 
[{'chain_id': 'A', 'author_residue_number': 201, 'author_insertion_code': '', 'chem_comp_id': '5GI', 'alternate_conformers': 0, 'entity_id': 2, 'struct_asym_id': 'F', 'residue_number': 1, 'chem_comp_name': '~{N}-[(2~{S})-3-(4-fluorophenyl)-1-oxidanylidene-1-[[(2~{S})-1-oxidanylidene-3-[(3~{S})-2-oxidanylidenepiperidin-3-yl]propan-2-yl]amino]propan-2-yl]-5-methyl-1,2-oxazole-3-carboxamide', 'weight': 444.456, 'carbohydrate_polymer': False, 'branch_name': ''}, {'chain_id': 'B', 'author_residue_number': 201, 'author_insertion_code': '', 'chem_comp_id': '5GI', 'alternate_conformers': 0, 'entity_id': 2, 'struct_asym_id': 'G', 'residue_number': 1, 'chem_comp_name': '~{N}-[(2~{S})-3-(4-fluorophenyl)-1-oxidanylidene-1-[[(2~{S})-1-oxidanylidene-3-[(3~{S})-2-oxidanylidenepiperidin-3-yl]propan-2-yl]amino]propan-2-yl]-5-methyl-1,2-oxazole-3-carboxamide', 'weight': 444.456, 'carbohydrate_polymer': False, 'branch_name': ''}, {'chain_id': 'C', 'author_residue_number': 201, 'author_insertion_code': '', 'chem_comp_id': '5GI', 'alternate_conformers': 0, 'entity_id': 2, 'struct_asym_id': 'H', 'residue_number': 1, 'chem_comp_name': '~{N}-[(2~{S})-3-(4-fluorophenyl)-1-oxidanylidene-1-[[(2~{S})-1-oxidanylidene-3-[(3~{S})-2-oxidanylidenepiperidin-3-yl]propan-2-yl]amino]propan-2-yl]-5-methyl-1,2-oxazole-3-carboxamide', 'weight': 444.456, 'carbohydrate_polymer': False, 'branch_name': ''}, {'chain_id': 'D', 'author_residue_number': 201, 'author_insertion_code': '', 'chem_comp_id': '5GI', 'alternate_conformers': 0, 'entity_id': 2, 'struct_asym_id': 'I', 'residue_number': 1, 'chem_comp_name': '~{N}-[(2~{S})-3-(4-fluorophenyl)-1-oxidanylidene-1-[[(2~{S})-1-oxidanylidene-3-[(3~{S})-2-oxidanylidenepiperidin-3-yl]propan-2-yl]amino]propan-2-yl]-5-methyl-1,2-oxazole-3-carboxamide', 'weight': 444.456, 'carbohydrate_polymer': False, 'branch_name': ''}, {'chain_id': 'E', 'author_residue_number': 201, 'author_insertion_code': '', 'chem_comp_id': '5GI', 'alternate_conformers': 0, 'entity_id': 2, 'struct_asym_id': 'J', 'residue_number': 1, 'chem_comp_name': '~{N}-[(2~{S})-3-(4-fluorophenyl)-1-oxidanylidene-1-[[(2~{S})-1-oxidanylidene-3-[(3~{S})-2-oxidanylidenepiperidin-3-yl]propan-2-yl]amino]propan-2-yl]-5-methyl-1,2-oxazole-3-carboxamide', 'weight': 444.456, 'carbohydrate_polymer': False, 'branch_name': ''}]

>  <ligand_codes>  (768) 
['5GI', '5GI', '5GI', '5GI', '5GI']

>  <cofactor_codes>  (768) 
[]

>  <has_cofactor>  (768) 
False

>  <covalent>  (768) 
True

>  <base_name>  (768) 
5GSW

>  <lig_resn>  (768) 
5GI

>  <lig_resi>  (768) 
201

>  <lig_chain>  (768) 
A

>  <lig_segi>  (768) 
F

>  <lig_alt>  (768) 


>  <polymer_chain>  (768) 
A

>  <single_smiles>  (768) 
Cc1onc(c1)C(=O)N[C@@H](Cc2ccc(F)cc2)C(=O)N[C@@H](C[C@@H]3CCCNC3=O)C=O

$$$$
5GIP2S5
     RDKit          3D

  8  8  0  0  0  0  0  0  0  0999 V2000
   -8.7720   15.0010  -33.4870 C   0  0  0  0  0  0  0  0  0  0  0  0
   -9.1710   14.3940  -32.5200 O   0  0  0  0  0  0  0  0  0  0  0  0
   -7.9860   16.2730  -33.2750 C   0  0  0  0  0  0  0  0  0  0  0  0
   -7.9700   17.3240  -34.0490 N   0  0  0  0  0  0  0  0  0  0  0  0
   -7.0900   16.5190  -32.1990 C   0  0  0  0  0  0  0  0  0  0  0  0
   -7.1670   18.2380  -33.5600 O   0  0  0  0  0  0  0  0  0  0  0  0
   -6.5960   17.8330  -32.4710 C   0  0  0  0  0  0  0  0  0  0  0  0
   -5.6040   18.6070  -31.6530 C   0  0  0  0  0  0  0  0  0  0  0  0
  2  1  1  0
  1  3  1  0
  4  3  1  0
  3  5  1  0
  6  4  1  0
  5  7  1  0
  6  7  1  0
  8  7  1  0
A    2
 O4 
A    3
 C12
A    4
 N2 
A    5
 C14
A    6
 O1 
A    7
 C16
A    8
 C4 
M  END
>  <XChem_code>  (769) 
5GI§2

>  <Occupancy>  (769) 
[1.0, 1.0, 1.0, 1.0, 1.0, 1.0, 1.0, 1.0, 1.0, 1.0, 1.0, 1.0, 1.0, 1.0, 1.0, 1.0, 1.0, 1.0, 1.0, 1.0, 1.0, 1.0, 1.0, 1.0, 1.0, 1.0, 1.0, 1.0, 1.0, 1.0, 1.0, 1.0, 1.0]

>  <TempFactor>  (769) 
[49.16, 50.65, 59.43, 46.46, 58.44, 57.93, 50.07, 43.93, 50.57, 60.46, 51.52, 50.9, 45.67, 43.54, 43.98, 44.86, 44.03, 44.64, 44.87, 49.8, 58.55, 43.97, 57.73, 55.84, 59.19, 44.52, 53.05, 49.04, 46.38, 44.56, 45.51, 26.59, 45.13]

>  <accession>  (769) 
5GSW_A

>  <description>  (769) 
Chain A, 3C protein [Enterovirus A71]

>  <evalue>  (769) 
4.6634199999999997e-58

>  <pdb_code>  (769) 
5GSW

>  <chain>  (769) 
A

>  <ligands>  (769) 
[{'chain_id': 'A', 'author_residue_number': 201, 'author_insertion_code': '', 'chem_comp_id': '5GI', 'alternate_conformers': 0, 'entity_id': 2, 'struct_asym_id': 'F', 'residue_number': 1, 'chem_comp_name': '~{N}-[(2~{S})-3-(4-fluorophenyl)-1-oxidanylidene-1-[[(2~{S})-1-oxidanylidene-3-[(3~{S})-2-oxidanylidenepiperidin-3-yl]propan-2-yl]amino]propan-2-yl]-5-methyl-1,2-oxazole-3-carboxamide', 'weight': 444.456, 'carbohydrate_polymer': False, 'branch_name': ''}, {'chain_id': 'B', 'author_residue_number': 201, 'author_insertion_code': '', 'chem_comp_id': '5GI', 'alternate_conformers': 0, 'entity_id': 2, 'struct_asym_id': 'G', 'residue_number': 1, 'chem_comp_name': '~{N}-[(2~{S})-3-(4-fluorophenyl)-1-oxidanylidene-1-[[(2~{S})-1-oxidanylidene-3-[(3~{S})-2-oxidanylidenepiperidin-3-yl]propan-2-yl]amino]propan-2-yl]-5-methyl-1,2-oxazole-3-carboxamide', 'weight': 444.456, 'carbohydrate_polymer': False, 'branch_name': ''}, {'chain_id': 'C', 'author_residue_number': 201, 'author_insertion_code': '', 'chem_comp_id': '5GI', 'alternate_conformers': 0, 'entity_id': 2, 'struct_asym_id': 'H', 'residue_number': 1, 'chem_comp_name': '~{N}-[(2~{S})-3-(4-fluorophenyl)-1-oxidanylidene-1-[[(2~{S})-1-oxidanylidene-3-[(3~{S})-2-oxidanylidenepiperidin-3-yl]propan-2-yl]amino]propan-2-yl]-5-methyl-1,2-oxazole-3-carboxamide', 'weight': 444.456, 'carbohydrate_polymer': False, 'branch_name': ''}, {'chain_id': 'D', 'author_residue_number': 201, 'author_insertion_code': '', 'chem_comp_id': '5GI', 'alternate_conformers': 0, 'entity_id': 2, 'struct_asym_id': 'I', 'residue_number': 1, 'chem_comp_name': '~{N}-[(2~{S})-3-(4-fluorophenyl)-1-oxidanylidene-1-[[(2~{S})-1-oxidanylidene-3-[(3~{S})-2-oxidanylidenepiperidin-3-yl]propan-2-yl]amino]propan-2-yl]-5-methyl-1,2-oxazole-3-carboxamide', 'weight': 444.456, 'carbohydrate_polymer': False, 'branch_name': ''}, {'chain_id': 'E', 'author_residue_number': 201, 'author_insertion_code': '', 'chem_comp_id': '5GI', 'alternate_conformers': 0, 'entity_id': 2, 'struct_asym_id': 'J', 'residue_number': 1, 'chem_comp_name': '~{N}-[(2~{S})-3-(4-fluorophenyl)-1-oxidanylidene-1-[[(2~{S})-1-oxidanylidene-3-[(3~{S})-2-oxidanylidenepiperidin-3-yl]propan-2-yl]amino]propan-2-yl]-5-methyl-1,2-oxazole-3-carboxamide', 'weight': 444.456, 'carbohydrate_polymer': False, 'branch_name': ''}]

>  <ligand_codes>  (769) 
['5GI', '5GI', '5GI', '5GI', '5GI']

>  <cofactor_codes>  (769) 
[]

>  <has_cofactor>  (769) 
False

>  <covalent>  (769) 
True

>  <base_name>  (769) 
5GSW

>  <lig_resn>  (769) 
5GI

>  <lig_resi>  (769) 
201

>  <lig_chain>  (769) 
A

>  <lig_segi>  (769) 
F

>  <lig_alt>  (769) 


>  <polymer_chain>  (769) 
A

>  <single_smiles>  (769) 
Cc1onc(c1)C(=O)N[C@@H](Cc2ccc(F)cc2)C(=O)N[C@@H](C[C@@H]3CCCNC3=O)C=O

$$$$
5GIP2S6
     RDKit          3D

 25 27  0  0  0  0  0  0  0  0999 V2000
   -8.9930   14.5510  -34.7960 N   0  0  0  0  0  0  0  0  0  0  0  0
   -9.6710   13.3510  -34.9850 C   0  0  1  0  0  0  0  0  0  0  0  0
  -10.1810   13.2340  -36.3950 C   0  0  0  0  0  0  0  0  0  0  0  0
   -8.6310   12.3040  -34.7780 C   0  0  0  0  0  0  0  0  0  0  0  0
  -11.5500   13.8850  -36.5470 C   0  0  0  0  0  0  0  0  0  0  0  0
   -7.4990   12.5560  -35.0400 O   0  0  0  0  0  0  0  0  0  0  0  0
   -9.0340   11.0510  -34.2690 N   0  0  0  0  0  0  0  0  0  0  0  0
  -12.5600   13.5520  -35.7150 C   0  0  0  0  0  0  0  0  0  0  0  0
  -11.7250   14.8280  -37.5440 C   0  0  0  0  0  0  0  0  0  0  0  0
   -8.1730    9.9490  -34.0130 C   0  0  1  0  0  0  0  0  0  0  0  0
  -13.7800   14.1620  -35.8710 C   0  0  0  0  0  0  0  0  0  0  0  0
  -12.9370   15.4400  -37.6840 C   0  0  0  0  0  0  0  0  0  0  0  0
   -8.6530    8.7000  -34.7540 C   0  0  1  0  0  0  0  0  0  0  0  0
   -7.8050    9.9270  -32.5350 C   0  0  0  0  0  0  0  0  0  0  0  0
   -9.6480    8.6280  -34.0830 R   0  0  0  0  0  2  0  0  0  0  0  0
  -13.9420   15.1070  -36.8650 C   0  0  0  0  0  0  0  0  0  0  0  0
   -8.2950    8.5760  -35.9070 O   0  0  0  0  0  0  0  0  0  0  0  0
   -7.2790   11.1660  -31.7440 C   0  0  1  0  0  0  0  0  0  0  0  0
  -15.0890   15.7090  -37.0320 F   0  0  0  0  0  0  0  0  0  0  0  0
   -6.7840   10.6750  -30.4020 C   0  0  1  0  0  0  0  0  0  0  0  0
   -6.1590   11.8760  -32.4020 C   0  0  0  0  0  0  0  0  0  0  0  0
   -6.1150   11.6600  -29.5560 N   0  0  0  0  0  0  0  0  0  0  0  0
   -7.8430   10.1480  -29.7250 O   0  0  0  0  0  0  0  0  0  0  0  0
   -5.7020   13.0220  -31.6100 C   0  0  0  0  0  0  0  0  0  0  0  0
   -5.2060   12.5720  -30.2480 C   0  0  0  0  0  0  0  0  0  0  0  0
  2  1  1  6
  2  3  1  0
  2  4  1  0
  3  5  1  0
  4  6  1  0
  4  7  1  0
  5  8  1  0
  5  9  1  0
  7 10  1  0
  8 11  1  0
  9 12  1  0
 13 10  1  0
 10 14  1  6
 10 15  1  0
 11 16  1  0
 16 12  1  0
 13 17  1  6
 13 15  1  0
 18 14  1  6
 16 19  1  0
 18 20  1  0
 18 21  1  0
 22 20  1  0
 20 23  1  1
 24 21  1  0
 22 25  1  0
 25 24  1  0
M  RAD  1  15   2
V   15 *
A    2
 C1 
A    3
 C2 
A    4
 C3 
A    5
 C5 
A    6
 O3 
A    7
 N4 
A    8
 C6 
A    9
 C7 
A   10
 C18
A   11
 C8 
A   12
 C10
A   13
 C15
A   14
 C19
A   15
 X  
A   16
 C9 
A   17
 O2 
A   18
 C20
A   19
 F1 
A   20
 C21
A   21
 C22
A   22
 N3 
A   23
 O5 
A   24
 C17
A   25
 C13
M  END
>  <XChem_code>  (770) 
5GI§2

>  <Occupancy>  (770) 
[1.0, 1.0, 1.0, 1.0, 1.0, 1.0, 1.0, 1.0, 1.0, 1.0, 1.0, 1.0, 1.0, 1.0, 1.0, 1.0, 1.0, 1.0, 1.0, 1.0, 1.0, 1.0, 1.0, 1.0, 1.0, 1.0, 1.0, 1.0, 1.0, 1.0, 1.0, 1.0, 1.0]

>  <TempFactor>  (770) 
[49.16, 50.65, 59.43, 46.46, 58.44, 57.93, 50.07, 43.93, 50.57, 60.46, 51.52, 50.9, 45.67, 43.54, 43.98, 44.86, 44.03, 44.64, 44.87, 49.8, 58.55, 43.97, 57.73, 55.84, 59.19, 44.52, 53.05, 49.04, 46.38, 44.56, 45.51, 26.59, 45.13]

>  <accession>  (770) 
5GSW_A

>  <description>  (770) 
Chain A, 3C protein [Enterovirus A71]

>  <evalue>  (770) 
4.6634199999999997e-58

>  <pdb_code>  (770) 
5GSW

>  <chain>  (770) 
A

>  <ligands>  (770) 
[{'chain_id': 'A', 'author_residue_number': 201, 'author_insertion_code': '', 'chem_comp_id': '5GI', 'alternate_conformers': 0, 'entity_id': 2, 'struct_asym_id': 'F', 'residue_number': 1, 'chem_comp_name': '~{N}-[(2~{S})-3-(4-fluorophenyl)-1-oxidanylidene-1-[[(2~{S})-1-oxidanylidene-3-[(3~{S})-2-oxidanylidenepiperidin-3-yl]propan-2-yl]amino]propan-2-yl]-5-methyl-1,2-oxazole-3-carboxamide', 'weight': 444.456, 'carbohydrate_polymer': False, 'branch_name': ''}, {'chain_id': 'B', 'author_residue_number': 201, 'author_insertion_code': '', 'chem_comp_id': '5GI', 'alternate_conformers': 0, 'entity_id': 2, 'struct_asym_id': 'G', 'residue_number': 1, 'chem_comp_name': '~{N}-[(2~{S})-3-(4-fluorophenyl)-1-oxidanylidene-1-[[(2~{S})-1-oxidanylidene-3-[(3~{S})-2-oxidanylidenepiperidin-3-yl]propan-2-yl]amino]propan-2-yl]-5-methyl-1,2-oxazole-3-carboxamide', 'weight': 444.456, 'carbohydrate_polymer': False, 'branch_name': ''}, {'chain_id': 'C', 'author_residue_number': 201, 'author_insertion_code': '', 'chem_comp_id': '5GI', 'alternate_conformers': 0, 'entity_id': 2, 'struct_asym_id': 'H', 'residue_number': 1, 'chem_comp_name': '~{N}-[(2~{S})-3-(4-fluorophenyl)-1-oxidanylidene-1-[[(2~{S})-1-oxidanylidene-3-[(3~{S})-2-oxidanylidenepiperidin-3-yl]propan-2-yl]amino]propan-2-yl]-5-methyl-1,2-oxazole-3-carboxamide', 'weight': 444.456, 'carbohydrate_polymer': False, 'branch_name': ''}, {'chain_id': 'D', 'author_residue_number': 201, 'author_insertion_code': '', 'chem_comp_id': '5GI', 'alternate_conformers': 0, 'entity_id': 2, 'struct_asym_id': 'I', 'residue_number': 1, 'chem_comp_name': '~{N}-[(2~{S})-3-(4-fluorophenyl)-1-oxidanylidene-1-[[(2~{S})-1-oxidanylidene-3-[(3~{S})-2-oxidanylidenepiperidin-3-yl]propan-2-yl]amino]propan-2-yl]-5-methyl-1,2-oxazole-3-carboxamide', 'weight': 444.456, 'carbohydrate_polymer': False, 'branch_name': ''}, {'chain_id': 'E', 'author_residue_number': 201, 'author_insertion_code': '', 'chem_comp_id': '5GI', 'alternate_conformers': 0, 'entity_id': 2, 'struct_asym_id': 'J', 'residue_number': 1, 'chem_comp_name': '~{N}-[(2~{S})-3-(4-fluorophenyl)-1-oxidanylidene-1-[[(2~{S})-1-oxidanylidene-3-[(3~{S})-2-oxidanylidenepiperidin-3-yl]propan-2-yl]amino]propan-2-yl]-5-methyl-1,2-oxazole-3-carboxamide', 'weight': 444.456, 'carbohydrate_polymer': False, 'branch_name': ''}]

>  <ligand_codes>  (770) 
['5GI', '5GI', '5GI', '5GI', '5GI']

>  <cofactor_codes>  (770) 
[]

>  <has_cofactor>  (770) 
False

>  <covalent>  (770) 
True

>  <base_name>  (770) 
5GSW

>  <lig_resn>  (770) 
5GI

>  <lig_resi>  (770) 
201

>  <lig_chain>  (770) 
A

>  <lig_segi>  (770) 
F

>  <lig_alt>  (770) 


>  <polymer_chain>  (770) 
A

>  <single_smiles>  (770) 
Cc1onc(c1)C(=O)N[C@@H](Cc2ccc(F)cc2)C(=O)N[C@@H](C[C@@H]3CCCNC3=O)C=O

$$$$
5GIP2S7
     RDKit          3D

 12 13  0  0  0  0  0  0  0  0999 V2000
   -8.1730    9.9490  -34.0130 C   0  0  2  0  0  0  0  0  0  0  0  0
   -8.6530    8.7000  -34.7540 C   0  0  1  0  0  0  0  0  0  0  0  0
   -7.8050    9.9270  -32.5350 C   0  0  0  0  0  0  0  0  0  0  0  0
   -9.6480    8.6280  -34.0830 R   0  0  0  0  0  2  0  0  0  0  0  0
   -8.2950    8.5760  -35.9070 O   0  0  0  0  0  0  0  0  0  0  0  0
   -7.2790   11.1660  -31.7440 C   0  0  1  0  0  0  0  0  0  0  0  0
   -6.7840   10.6750  -30.4020 C   0  0  1  0  0  0  0  0  0  0  0  0
   -6.1590   11.8760  -32.4020 C   0  0  0  0  0  0  0  0  0  0  0  0
   -6.1150   11.6600  -29.5560 N   0  0  0  0  0  0  0  0  0  0  0  0
   -7.8430   10.1480  -29.7250 O   0  0  0  0  0  0  0  0  0  0  0  0
   -5.7020   13.0220  -31.6100 C   0  0  0  0  0  0  0  0  0  0  0  0
   -5.2060   12.5720  -30.2480 C   0  0  0  0  0  0  0  0  0  0  0  0
  2  1  1  0
  1  3  1  6
  1  4  1  0
  2  5  1  6
  2  4  1  0
  6  3  1  6
  6  7  1  0
  6  8  1  0
  9  7  1  0
  7 10  1  1
 11  8  1  0
  9 12  1  0
 12 11  1  0
M  RAD  1   4   2
V    4 *
A    2
 C15
A    3
 C19
A    4
 X  
A    5
 O2 
A    6
 C20
A    7
 C21
A    8
 C22
A    9
 N3 
A   10
 O5 
A   11
 C17
A   12
 C13
M  END
>  <XChem_code>  (771) 
5GI§2

>  <Occupancy>  (771) 
[1.0, 1.0, 1.0, 1.0, 1.0, 1.0, 1.0, 1.0, 1.0, 1.0, 1.0, 1.0, 1.0, 1.0, 1.0, 1.0, 1.0, 1.0, 1.0, 1.0, 1.0, 1.0, 1.0, 1.0, 1.0, 1.0, 1.0, 1.0, 1.0, 1.0, 1.0, 1.0, 1.0]

>  <TempFactor>  (771) 
[49.16, 50.65, 59.43, 46.46, 58.44, 57.93, 50.07, 43.93, 50.57, 60.46, 51.52, 50.9, 45.67, 43.54, 43.98, 44.86, 44.03, 44.64, 44.87, 49.8, 58.55, 43.97, 57.73, 55.84, 59.19, 44.52, 53.05, 49.04, 46.38, 44.56, 45.51, 26.59, 45.13]

>  <accession>  (771) 
5GSW_A

>  <description>  (771) 
Chain A, 3C protein [Enterovirus A71]

>  <evalue>  (771) 
4.6634199999999997e-58

>  <pdb_code>  (771) 
5GSW

>  <chain>  (771) 
A

>  <ligands>  (771) 
[{'chain_id': 'A', 'author_residue_number': 201, 'author_insertion_code': '', 'chem_comp_id': '5GI', 'alternate_conformers': 0, 'entity_id': 2, 'struct_asym_id': 'F', 'residue_number': 1, 'chem_comp_name': '~{N}-[(2~{S})-3-(4-fluorophenyl)-1-oxidanylidene-1-[[(2~{S})-1-oxidanylidene-3-[(3~{S})-2-oxidanylidenepiperidin-3-yl]propan-2-yl]amino]propan-2-yl]-5-methyl-1,2-oxazole-3-carboxamide', 'weight': 444.456, 'carbohydrate_polymer': False, 'branch_name': ''}, {'chain_id': 'B', 'author_residue_number': 201, 'author_insertion_code': '', 'chem_comp_id': '5GI', 'alternate_conformers': 0, 'entity_id': 2, 'struct_asym_id': 'G', 'residue_number': 1, 'chem_comp_name': '~{N}-[(2~{S})-3-(4-fluorophenyl)-1-oxidanylidene-1-[[(2~{S})-1-oxidanylidene-3-[(3~{S})-2-oxidanylidenepiperidin-3-yl]propan-2-yl]amino]propan-2-yl]-5-methyl-1,2-oxazole-3-carboxamide', 'weight': 444.456, 'carbohydrate_polymer': False, 'branch_name': ''}, {'chain_id': 'C', 'author_residue_number': 201, 'author_insertion_code': '', 'chem_comp_id': '5GI', 'alternate_conformers': 0, 'entity_id': 2, 'struct_asym_id': 'H', 'residue_number': 1, 'chem_comp_name': '~{N}-[(2~{S})-3-(4-fluorophenyl)-1-oxidanylidene-1-[[(2~{S})-1-oxidanylidene-3-[(3~{S})-2-oxidanylidenepiperidin-3-yl]propan-2-yl]amino]propan-2-yl]-5-methyl-1,2-oxazole-3-carboxamide', 'weight': 444.456, 'carbohydrate_polymer': False, 'branch_name': ''}, {'chain_id': 'D', 'author_residue_number': 201, 'author_insertion_code': '', 'chem_comp_id': '5GI', 'alternate_conformers': 0, 'entity_id': 2, 'struct_asym_id': 'I', 'residue_number': 1, 'chem_comp_name': '~{N}-[(2~{S})-3-(4-fluorophenyl)-1-oxidanylidene-1-[[(2~{S})-1-oxidanylidene-3-[(3~{S})-2-oxidanylidenepiperidin-3-yl]propan-2-yl]amino]propan-2-yl]-5-methyl-1,2-oxazole-3-carboxamide', 'weight': 444.456, 'carbohydrate_polymer': False, 'branch_name': ''}, {'chain_id': 'E', 'author_residue_number': 201, 'author_insertion_code': '', 'chem_comp_id': '5GI', 'alternate_conformers': 0, 'entity_id': 2, 'struct_asym_id': 'J', 'residue_number': 1, 'chem_comp_name': '~{N}-[(2~{S})-3-(4-fluorophenyl)-1-oxidanylidene-1-[[(2~{S})-1-oxidanylidene-3-[(3~{S})-2-oxidanylidenepiperidin-3-yl]propan-2-yl]amino]propan-2-yl]-5-methyl-1,2-oxazole-3-carboxamide', 'weight': 444.456, 'carbohydrate_polymer': False, 'branch_name': ''}]

>  <ligand_codes>  (771) 
['5GI', '5GI', '5GI', '5GI', '5GI']

>  <cofactor_codes>  (771) 
[]

>  <has_cofactor>  (771) 
False

>  <covalent>  (771) 
True

>  <base_name>  (771) 
5GSW

>  <lig_resn>  (771) 
5GI

>  <lig_resi>  (771) 
201

>  <lig_chain>  (771) 
A

>  <lig_segi>  (771) 
F

>  <lig_alt>  (771) 


>  <polymer_chain>  (771) 
A

>  <single_smiles>  (771) 
Cc1onc(c1)C(=O)N[C@@H](Cc2ccc(F)cc2)C(=O)N[C@@H](C[C@@H]3CCCNC3=O)C=O

$$$$
5GIP2S8
     RDKit          3D

 21 22  0  0  0  0  0  0  0  0999 V2000
   -9.0340   11.0510  -34.2690 N   0  0  0  0  0  0  0  0  0  0  0  0
   -8.6310   12.3040  -34.7780 C   0  0  0  0  0  0  0  0  0  0  0  0
   -9.6710   13.3510  -34.9850 C   0  0  1  0  0  0  0  0  0  0  0  0
   -7.4990   12.5560  -35.0400 O   0  0  0  0  0  0  0  0  0  0  0  0
   -8.9930   14.5510  -34.7960 N   0  0  0  0  0  0  0  0  0  0  0  0
  -10.1810   13.2340  -36.3950 C   0  0  0  0  0  0  0  0  0  0  0  0
   -8.7720   15.0010  -33.4870 C   0  0  0  0  0  0  0  0  0  0  0  0
  -11.5500   13.8850  -36.5470 C   0  0  0  0  0  0  0  0  0  0  0  0
   -9.1710   14.3940  -32.5200 O   0  0  0  0  0  0  0  0  0  0  0  0
   -7.9860   16.2730  -33.2750 C   0  0  0  0  0  0  0  0  0  0  0  0
  -12.5600   13.5520  -35.7150 C   0  0  0  0  0  0  0  0  0  0  0  0
  -11.7250   14.8280  -37.5440 C   0  0  0  0  0  0  0  0  0  0  0  0
   -7.9700   17.3240  -34.0490 N   0  0  0  0  0  0  0  0  0  0  0  0
   -7.0900   16.5190  -32.1990 C   0  0  0  0  0  0  0  0  0  0  0  0
  -13.7800   14.1620  -35.8710 C   0  0  0  0  0  0  0  0  0  0  0  0
  -12.9370   15.4400  -37.6840 C   0  0  0  0  0  0  0  0  0  0  0  0
   -7.1670   18.2380  -33.5600 O   0  0  0  0  0  0  0  0  0  0  0  0
   -6.5960   17.8330  -32.4710 C   0  0  0  0  0  0  0  0  0  0  0  0
  -13.9420   15.1070  -36.8650 C   0  0  0  0  0  0  0  0  0  0  0  0
   -5.6040   18.6070  -31.6530 C   0  0  0  0  0  0  0  0  0  0  0  0
  -15.0890   15.7090  -37.0320 F   0  0  0  0  0  0  0  0  0  0  0  0
  2  1  1  0
  3  2  1  0
  2  4  1  0
  3  5  1  0
  3  6  1  6
  5  7  1  0
  6  8  1  0
  9  7  1  0
  7 10  1  0
  8 11  1  0
  8 12  1  0
 13 10  1  0
 10 14  1  0
 11 15  1  0
 12 16  1  0
 17 13  1  0
 14 18  1  0
 15 19  1  0
 19 16  1  0
 17 18  1  0
 20 18  1  0
 19 21  1  0
A    2
 C3 
A    3
 C1 
A    4
 O3 
A    5
 N1 
A    6
 C2 
A    7
 C11
A    8
 C5 
A    9
 O4 
A   10
 C12
A   11
 C6 
A   12
 C7 
A   13
 N2 
A   14
 C14
A   15
 C8 
A   16
 C10
A   17
 O1 
A   18
 C16
A   19
 C9 
A   20
 C4 
A   21
 F1 
M  END
>  <XChem_code>  (772) 
5GI§2

>  <Occupancy>  (772) 
[1.0, 1.0, 1.0, 1.0, 1.0, 1.0, 1.0, 1.0, 1.0, 1.0, 1.0, 1.0, 1.0, 1.0, 1.0, 1.0, 1.0, 1.0, 1.0, 1.0, 1.0, 1.0, 1.0, 1.0, 1.0, 1.0, 1.0, 1.0, 1.0, 1.0, 1.0, 1.0, 1.0]

>  <TempFactor>  (772) 
[49.16, 50.65, 59.43, 46.46, 58.44, 57.93, 50.07, 43.93, 50.57, 60.46, 51.52, 50.9, 45.67, 43.54, 43.98, 44.86, 44.03, 44.64, 44.87, 49.8, 58.55, 43.97, 57.73, 55.84, 59.19, 44.52, 53.05, 49.04, 46.38, 44.56, 45.51, 26.59, 45.13]

>  <accession>  (772) 
5GSW_A

>  <description>  (772) 
Chain A, 3C protein [Enterovirus A71]

>  <evalue>  (772) 
4.6634199999999997e-58

>  <pdb_code>  (772) 
5GSW

>  <chain>  (772) 
A

>  <ligands>  (772) 
[{'chain_id': 'A', 'author_residue_number': 201, 'author_insertion_code': '', 'chem_comp_id': '5GI', 'alternate_conformers': 0, 'entity_id': 2, 'struct_asym_id': 'F', 'residue_number': 1, 'chem_comp_name': '~{N}-[(2~{S})-3-(4-fluorophenyl)-1-oxidanylidene-1-[[(2~{S})-1-oxidanylidene-3-[(3~{S})-2-oxidanylidenepiperidin-3-yl]propan-2-yl]amino]propan-2-yl]-5-methyl-1,2-oxazole-3-carboxamide', 'weight': 444.456, 'carbohydrate_polymer': False, 'branch_name': ''}, {'chain_id': 'B', 'author_residue_number': 201, 'author_insertion_code': '', 'chem_comp_id': '5GI', 'alternate_conformers': 0, 'entity_id': 2, 'struct_asym_id': 'G', 'residue_number': 1, 'chem_comp_name': '~{N}-[(2~{S})-3-(4-fluorophenyl)-1-oxidanylidene-1-[[(2~{S})-1-oxidanylidene-3-[(3~{S})-2-oxidanylidenepiperidin-3-yl]propan-2-yl]amino]propan-2-yl]-5-methyl-1,2-oxazole-3-carboxamide', 'weight': 444.456, 'carbohydrate_polymer': False, 'branch_name': ''}, {'chain_id': 'C', 'author_residue_number': 201, 'author_insertion_code': '', 'chem_comp_id': '5GI', 'alternate_conformers': 0, 'entity_id': 2, 'struct_asym_id': 'H', 'residue_number': 1, 'chem_comp_name': '~{N}-[(2~{S})-3-(4-fluorophenyl)-1-oxidanylidene-1-[[(2~{S})-1-oxidanylidene-3-[(3~{S})-2-oxidanylidenepiperidin-3-yl]propan-2-yl]amino]propan-2-yl]-5-methyl-1,2-oxazole-3-carboxamide', 'weight': 444.456, 'carbohydrate_polymer': False, 'branch_name': ''}, {'chain_id': 'D', 'author_residue_number': 201, 'author_insertion_code': '', 'chem_comp_id': '5GI', 'alternate_conformers': 0, 'entity_id': 2, 'struct_asym_id': 'I', 'residue_number': 1, 'chem_comp_name': '~{N}-[(2~{S})-3-(4-fluorophenyl)-1-oxidanylidene-1-[[(2~{S})-1-oxidanylidene-3-[(3~{S})-2-oxidanylidenepiperidin-3-yl]propan-2-yl]amino]propan-2-yl]-5-methyl-1,2-oxazole-3-carboxamide', 'weight': 444.456, 'carbohydrate_polymer': False, 'branch_name': ''}, {'chain_id': 'E', 'author_residue_number': 201, 'author_insertion_code': '', 'chem_comp_id': '5GI', 'alternate_conformers': 0, 'entity_id': 2, 'struct_asym_id': 'J', 'residue_number': 1, 'chem_comp_name': '~{N}-[(2~{S})-3-(4-fluorophenyl)-1-oxidanylidene-1-[[(2~{S})-1-oxidanylidene-3-[(3~{S})-2-oxidanylidenepiperidin-3-yl]propan-2-yl]amino]propan-2-yl]-5-methyl-1,2-oxazole-3-carboxamide', 'weight': 444.456, 'carbohydrate_polymer': False, 'branch_name': ''}]

>  <ligand_codes>  (772) 
['5GI', '5GI', '5GI', '5GI', '5GI']

>  <cofactor_codes>  (772) 
[]

>  <has_cofactor>  (772) 
False

>  <covalent>  (772) 
True

>  <base_name>  (772) 
5GSW

>  <lig_resn>  (772) 
5GI

>  <lig_resi>  (772) 
201

>  <lig_chain>  (772) 
A

>  <lig_segi>  (772) 
F

>  <lig_alt>  (772) 


>  <polymer_chain>  (772) 
A

>  <single_smiles>  (772) 
Cc1onc(c1)C(=O)N[C@@H](Cc2ccc(F)cc2)C(=O)N[C@@H](C[C@@H]3CCCNC3=O)C=O

$$$$
5GIP2S9
     RDKit          3D

 11 11  0  0  0  0  0  0  0  0999 V2000
   -8.6310   12.3040  -34.7780 C   0  0  0  0  0  0  0  0  0  0  0  0
   -9.6710   13.3510  -34.9850 C   0  0  0  0  0  0  0  0  0  0  0  0
   -7.4990   12.5560  -35.0400 O   0  0  0  0  0  0  0  0  0  0  0  0
  -10.1810   13.2340  -36.3950 C   0  0  0  0  0  0  0  0  0  0  0  0
  -11.5500   13.8850  -36.5470 C   0  0  0  0  0  0  0  0  0  0  0  0
  -12.5600   13.5520  -35.7150 C   0  0  0  0  0  0  0  0  0  0  0  0
  -11.7250   14.8280  -37.5440 C   0  0  0  0  0  0  0  0  0  0  0  0
  -13.7800   14.1620  -35.8710 C   0  0  0  0  0  0  0  0  0  0  0  0
  -12.9370   15.4400  -37.6840 C   0  0  0  0  0  0  0  0  0  0  0  0
  -13.9420   15.1070  -36.8650 C   0  0  0  0  0  0  0  0  0  0  0  0
  -15.0890   15.7090  -37.0320 F   0  0  0  0  0  0  0  0  0  0  0  0
  2  1  1  1
  1  3  1  0
  2  4  1  0
  4  5  1  0
  5  6  1  0
  5  7  1  0
  6  8  1  0
  7  9  1  0
  8 10  1  0
 10  9  1  0
 10 11  1  0
A    3
 O3 
A    4
 C2 
A    5
 C5 
A    6
 C6 
A    7
 C7 
A    8
 C8 
A    9
 C10
A   10
 C9 
A   11
 F1 
M  END
>  <XChem_code>  (773) 
5GI§2

>  <Occupancy>  (773) 
[1.0, 1.0, 1.0, 1.0, 1.0, 1.0, 1.0, 1.0, 1.0, 1.0, 1.0, 1.0, 1.0, 1.0, 1.0, 1.0, 1.0, 1.0, 1.0, 1.0, 1.0, 1.0, 1.0, 1.0, 1.0, 1.0, 1.0, 1.0, 1.0, 1.0, 1.0, 1.0, 1.0]

>  <TempFactor>  (773) 
[49.16, 50.65, 59.43, 46.46, 58.44, 57.93, 50.07, 43.93, 50.57, 60.46, 51.52, 50.9, 45.67, 43.54, 43.98, 44.86, 44.03, 44.64, 44.87, 49.8, 58.55, 43.97, 57.73, 55.84, 59.19, 44.52, 53.05, 49.04, 46.38, 44.56, 45.51, 26.59, 45.13]

>  <accession>  (773) 
5GSW_A

>  <description>  (773) 
Chain A, 3C protein [Enterovirus A71]

>  <evalue>  (773) 
4.6634199999999997e-58

>  <pdb_code>  (773) 
5GSW

>  <chain>  (773) 
A

>  <ligands>  (773) 
[{'chain_id': 'A', 'author_residue_number': 201, 'author_insertion_code': '', 'chem_comp_id': '5GI', 'alternate_conformers': 0, 'entity_id': 2, 'struct_asym_id': 'F', 'residue_number': 1, 'chem_comp_name': '~{N}-[(2~{S})-3-(4-fluorophenyl)-1-oxidanylidene-1-[[(2~{S})-1-oxidanylidene-3-[(3~{S})-2-oxidanylidenepiperidin-3-yl]propan-2-yl]amino]propan-2-yl]-5-methyl-1,2-oxazole-3-carboxamide', 'weight': 444.456, 'carbohydrate_polymer': False, 'branch_name': ''}, {'chain_id': 'B', 'author_residue_number': 201, 'author_insertion_code': '', 'chem_comp_id': '5GI', 'alternate_conformers': 0, 'entity_id': 2, 'struct_asym_id': 'G', 'residue_number': 1, 'chem_comp_name': '~{N}-[(2~{S})-3-(4-fluorophenyl)-1-oxidanylidene-1-[[(2~{S})-1-oxidanylidene-3-[(3~{S})-2-oxidanylidenepiperidin-3-yl]propan-2-yl]amino]propan-2-yl]-5-methyl-1,2-oxazole-3-carboxamide', 'weight': 444.456, 'carbohydrate_polymer': False, 'branch_name': ''}, {'chain_id': 'C', 'author_residue_number': 201, 'author_insertion_code': '', 'chem_comp_id': '5GI', 'alternate_conformers': 0, 'entity_id': 2, 'struct_asym_id': 'H', 'residue_number': 1, 'chem_comp_name': '~{N}-[(2~{S})-3-(4-fluorophenyl)-1-oxidanylidene-1-[[(2~{S})-1-oxidanylidene-3-[(3~{S})-2-oxidanylidenepiperidin-3-yl]propan-2-yl]amino]propan-2-yl]-5-methyl-1,2-oxazole-3-carboxamide', 'weight': 444.456, 'carbohydrate_polymer': False, 'branch_name': ''}, {'chain_id': 'D', 'author_residue_number': 201, 'author_insertion_code': '', 'chem_comp_id': '5GI', 'alternate_conformers': 0, 'entity_id': 2, 'struct_asym_id': 'I', 'residue_number': 1, 'chem_comp_name': '~{N}-[(2~{S})-3-(4-fluorophenyl)-1-oxidanylidene-1-[[(2~{S})-1-oxidanylidene-3-[(3~{S})-2-oxidanylidenepiperidin-3-yl]propan-2-yl]amino]propan-2-yl]-5-methyl-1,2-oxazole-3-carboxamide', 'weight': 444.456, 'carbohydrate_polymer': False, 'branch_name': ''}, {'chain_id': 'E', 'author_residue_number': 201, 'author_insertion_code': '', 'chem_comp_id': '5GI', 'alternate_conformers': 0, 'entity_id': 2, 'struct_asym_id': 'J', 'residue_number': 1, 'chem_comp_name': '~{N}-[(2~{S})-3-(4-fluorophenyl)-1-oxidanylidene-1-[[(2~{S})-1-oxidanylidene-3-[(3~{S})-2-oxidanylidenepiperidin-3-yl]propan-2-yl]amino]propan-2-yl]-5-methyl-1,2-oxazole-3-carboxamide', 'weight': 444.456, 'carbohydrate_polymer': False, 'branch_name': ''}]

>  <ligand_codes>  (773) 
['5GI', '5GI', '5GI', '5GI', '5GI']

>  <cofactor_codes>  (773) 
[]

>  <has_cofactor>  (773) 
False

>  <covalent>  (773) 
True

>  <base_name>  (773) 
5GSW

>  <lig_resn>  (773) 
5GI

>  <lig_resi>  (773) 
201

>  <lig_chain>  (773) 
A

>  <lig_segi>  (773) 
F

>  <lig_alt>  (773) 


>  <polymer_chain>  (773) 
A

>  <single_smiles>  (773) 
Cc1onc(c1)C(=O)N[C@@H](Cc2ccc(F)cc2)C(=O)N[C@@H](C[C@@H]3CCCNC3=O)C=O

$$$$
5GIP2S10
     RDKit          3D

 12 12  0  0  0  0  0  0  0  0999 V2000
   -9.0340   11.0510  -34.2690 N   0  0  0  0  0  0  0  0  0  0  0  0
   -8.6310   12.3040  -34.7780 C   0  0  0  0  0  0  0  0  0  0  0  0
   -9.6710   13.3510  -34.9850 C   0  0  0  0  0  0  0  0  0  0  0  0
   -7.4990   12.5560  -35.0400 O   0  0  0  0  0  0  0  0  0  0  0  0
  -10.1810   13.2340  -36.3950 C   0  0  0  0  0  0  0  0  0  0  0  0
  -11.5500   13.8850  -36.5470 C   0  0  0  0  0  0  0  0  0  0  0  0
  -12.5600   13.5520  -35.7150 C   0  0  0  0  0  0  0  0  0  0  0  0
  -11.7250   14.8280  -37.5440 C   0  0  0  0  0  0  0  0  0  0  0  0
  -13.7800   14.1620  -35.8710 C   0  0  0  0  0  0  0  0  0  0  0  0
  -12.9370   15.4400  -37.6840 C   0  0  0  0  0  0  0  0  0  0  0  0
  -13.9420   15.1070  -36.8650 C   0  0  0  0  0  0  0  0  0  0  0  0
  -15.0890   15.7090  -37.0320 F   0  0  0  0  0  0  0  0  0  0  0  0
  2  1  1  0
  3  2  1  0
  2  4  1  0
  3  5  1  6
  5  6  1  0
  6  7  1  0
  6  8  1  0
  7  9  1  0
  8 10  1  0
  9 11  1  0
 11 10  1  0
 11 12  1  0
A    2
 C3 
A    4
 O3 
A    5
 C2 
A    6
 C5 
A    7
 C6 
A    8
 C7 
A    9
 C8 
A   10
 C10
A   11
 C9 
A   12
 F1 
M  END
>  <XChem_code>  (774) 
5GI§2

>  <Occupancy>  (774) 
[1.0, 1.0, 1.0, 1.0, 1.0, 1.0, 1.0, 1.0, 1.0, 1.0, 1.0, 1.0, 1.0, 1.0, 1.0, 1.0, 1.0, 1.0, 1.0, 1.0, 1.0, 1.0, 1.0, 1.0, 1.0, 1.0, 1.0, 1.0, 1.0, 1.0, 1.0, 1.0, 1.0]

>  <TempFactor>  (774) 
[49.16, 50.65, 59.43, 46.46, 58.44, 57.93, 50.07, 43.93, 50.57, 60.46, 51.52, 50.9, 45.67, 43.54, 43.98, 44.86, 44.03, 44.64, 44.87, 49.8, 58.55, 43.97, 57.73, 55.84, 59.19, 44.52, 53.05, 49.04, 46.38, 44.56, 45.51, 26.59, 45.13]

>  <accession>  (774) 
5GSW_A

>  <description>  (774) 
Chain A, 3C protein [Enterovirus A71]

>  <evalue>  (774) 
4.6634199999999997e-58

>  <pdb_code>  (774) 
5GSW

>  <chain>  (774) 
A

>  <ligands>  (774) 
[{'chain_id': 'A', 'author_residue_number': 201, 'author_insertion_code': '', 'chem_comp_id': '5GI', 'alternate_conformers': 0, 'entity_id': 2, 'struct_asym_id': 'F', 'residue_number': 1, 'chem_comp_name': '~{N}-[(2~{S})-3-(4-fluorophenyl)-1-oxidanylidene-1-[[(2~{S})-1-oxidanylidene-3-[(3~{S})-2-oxidanylidenepiperidin-3-yl]propan-2-yl]amino]propan-2-yl]-5-methyl-1,2-oxazole-3-carboxamide', 'weight': 444.456, 'carbohydrate_polymer': False, 'branch_name': ''}, {'chain_id': 'B', 'author_residue_number': 201, 'author_insertion_code': '', 'chem_comp_id': '5GI', 'alternate_conformers': 0, 'entity_id': 2, 'struct_asym_id': 'G', 'residue_number': 1, 'chem_comp_name': '~{N}-[(2~{S})-3-(4-fluorophenyl)-1-oxidanylidene-1-[[(2~{S})-1-oxidanylidene-3-[(3~{S})-2-oxidanylidenepiperidin-3-yl]propan-2-yl]amino]propan-2-yl]-5-methyl-1,2-oxazole-3-carboxamide', 'weight': 444.456, 'carbohydrate_polymer': False, 'branch_name': ''}, {'chain_id': 'C', 'author_residue_number': 201, 'author_insertion_code': '', 'chem_comp_id': '5GI', 'alternate_conformers': 0, 'entity_id': 2, 'struct_asym_id': 'H', 'residue_number': 1, 'chem_comp_name': '~{N}-[(2~{S})-3-(4-fluorophenyl)-1-oxidanylidene-1-[[(2~{S})-1-oxidanylidene-3-[(3~{S})-2-oxidanylidenepiperidin-3-yl]propan-2-yl]amino]propan-2-yl]-5-methyl-1,2-oxazole-3-carboxamide', 'weight': 444.456, 'carbohydrate_polymer': False, 'branch_name': ''}, {'chain_id': 'D', 'author_residue_number': 201, 'author_insertion_code': '', 'chem_comp_id': '5GI', 'alternate_conformers': 0, 'entity_id': 2, 'struct_asym_id': 'I', 'residue_number': 1, 'chem_comp_name': '~{N}-[(2~{S})-3-(4-fluorophenyl)-1-oxidanylidene-1-[[(2~{S})-1-oxidanylidene-3-[(3~{S})-2-oxidanylidenepiperidin-3-yl]propan-2-yl]amino]propan-2-yl]-5-methyl-1,2-oxazole-3-carboxamide', 'weight': 444.456, 'carbohydrate_polymer': False, 'branch_name': ''}, {'chain_id': 'E', 'author_residue_number': 201, 'author_insertion_code': '', 'chem_comp_id': '5GI', 'alternate_conformers': 0, 'entity_id': 2, 'struct_asym_id': 'J', 'residue_number': 1, 'chem_comp_name': '~{N}-[(2~{S})-3-(4-fluorophenyl)-1-oxidanylidene-1-[[(2~{S})-1-oxidanylidene-3-[(3~{S})-2-oxidanylidenepiperidin-3-yl]propan-2-yl]amino]propan-2-yl]-5-methyl-1,2-oxazole-3-carboxamide', 'weight': 444.456, 'carbohydrate_polymer': False, 'branch_name': ''}]

>  <ligand_codes>  (774) 
['5GI', '5GI', '5GI', '5GI', '5GI']

>  <cofactor_codes>  (774) 
[]

>  <has_cofactor>  (774) 
False

>  <covalent>  (774) 
True

>  <base_name>  (774) 
5GSW

>  <lig_resn>  (774) 
5GI

>  <lig_resi>  (774) 
201

>  <lig_chain>  (774) 
A

>  <lig_segi>  (774) 
F

>  <lig_alt>  (774) 


>  <polymer_chain>  (774) 
A

>  <single_smiles>  (774) 
Cc1onc(c1)C(=O)N[C@@H](Cc2ccc(F)cc2)C(=O)N[C@@H](C[C@@H]3CCCNC3=O)C=O

$$$$
5GIP2S11
     RDKit          3D

 12 12  0  0  0  0  0  0  0  0999 V2000
   -8.9930   14.5510  -34.7960 N   0  0  0  0  0  0  0  0  0  0  0  0
   -9.6710   13.3510  -34.9850 C   0  0  2  0  0  0  0  0  0  0  0  0
   -8.6310   12.3040  -34.7780 C   0  0  0  0  0  0  0  0  0  0  0  0
  -10.1810   13.2340  -36.3950 C   0  0  0  0  0  0  0  0  0  0  0  0
   -7.4990   12.5560  -35.0400 O   0  0  0  0  0  0  0  0  0  0  0  0
  -11.5500   13.8850  -36.5470 C   0  0  0  0  0  0  0  0  0  0  0  0
  -12.5600   13.5520  -35.7150 C   0  0  0  0  0  0  0  0  0  0  0  0
  -11.7250   14.8280  -37.5440 C   0  0  0  0  0  0  0  0  0  0  0  0
  -13.7800   14.1620  -35.8710 C   0  0  0  0  0  0  0  0  0  0  0  0
  -12.9370   15.4400  -37.6840 C   0  0  0  0  0  0  0  0  0  0  0  0
  -13.9420   15.1070  -36.8650 C   0  0  0  0  0  0  0  0  0  0  0  0
  -15.0890   15.7090  -37.0320 F   0  0  0  0  0  0  0  0  0  0  0  0
  2  1  1  6
  2  3  1  0
  2  4  1  0
  3  5  1  0
  4  6  1  0
  6  7  1  0
  6  8  1  0
  7  9  1  0
  8 10  1  0
  9 11  1  0
 11 10  1  0
 11 12  1  0
A    2
 C1 
A    4
 C2 
A    5
 O3 
A    6
 C5 
A    7
 C6 
A    8
 C7 
A    9
 C8 
A   10
 C10
A   11
 C9 
A   12
 F1 
M  END
>  <XChem_code>  (775) 
5GI§2

>  <Occupancy>  (775) 
[1.0, 1.0, 1.0, 1.0, 1.0, 1.0, 1.0, 1.0, 1.0, 1.0, 1.0, 1.0, 1.0, 1.0, 1.0, 1.0, 1.0, 1.0, 1.0, 1.0, 1.0, 1.0, 1.0, 1.0, 1.0, 1.0, 1.0, 1.0, 1.0, 1.0, 1.0, 1.0, 1.0]

>  <TempFactor>  (775) 
[49.16, 50.65, 59.43, 46.46, 58.44, 57.93, 50.07, 43.93, 50.57, 60.46, 51.52, 50.9, 45.67, 43.54, 43.98, 44.86, 44.03, 44.64, 44.87, 49.8, 58.55, 43.97, 57.73, 55.84, 59.19, 44.52, 53.05, 49.04, 46.38, 44.56, 45.51, 26.59, 45.13]

>  <accession>  (775) 
5GSW_A

>  <description>  (775) 
Chain A, 3C protein [Enterovirus A71]

>  <evalue>  (775) 
4.6634199999999997e-58

>  <pdb_code>  (775) 
5GSW

>  <chain>  (775) 
A

>  <ligands>  (775) 
[{'chain_id': 'A', 'author_residue_number': 201, 'author_insertion_code': '', 'chem_comp_id': '5GI', 'alternate_conformers': 0, 'entity_id': 2, 'struct_asym_id': 'F', 'residue_number': 1, 'chem_comp_name': '~{N}-[(2~{S})-3-(4-fluorophenyl)-1-oxidanylidene-1-[[(2~{S})-1-oxidanylidene-3-[(3~{S})-2-oxidanylidenepiperidin-3-yl]propan-2-yl]amino]propan-2-yl]-5-methyl-1,2-oxazole-3-carboxamide', 'weight': 444.456, 'carbohydrate_polymer': False, 'branch_name': ''}, {'chain_id': 'B', 'author_residue_number': 201, 'author_insertion_code': '', 'chem_comp_id': '5GI', 'alternate_conformers': 0, 'entity_id': 2, 'struct_asym_id': 'G', 'residue_number': 1, 'chem_comp_name': '~{N}-[(2~{S})-3-(4-fluorophenyl)-1-oxidanylidene-1-[[(2~{S})-1-oxidanylidene-3-[(3~{S})-2-oxidanylidenepiperidin-3-yl]propan-2-yl]amino]propan-2-yl]-5-methyl-1,2-oxazole-3-carboxamide', 'weight': 444.456, 'carbohydrate_polymer': False, 'branch_name': ''}, {'chain_id': 'C', 'author_residue_number': 201, 'author_insertion_code': '', 'chem_comp_id': '5GI', 'alternate_conformers': 0, 'entity_id': 2, 'struct_asym_id': 'H', 'residue_number': 1, 'chem_comp_name': '~{N}-[(2~{S})-3-(4-fluorophenyl)-1-oxidanylidene-1-[[(2~{S})-1-oxidanylidene-3-[(3~{S})-2-oxidanylidenepiperidin-3-yl]propan-2-yl]amino]propan-2-yl]-5-methyl-1,2-oxazole-3-carboxamide', 'weight': 444.456, 'carbohydrate_polymer': False, 'branch_name': ''}, {'chain_id': 'D', 'author_residue_number': 201, 'author_insertion_code': '', 'chem_comp_id': '5GI', 'alternate_conformers': 0, 'entity_id': 2, 'struct_asym_id': 'I', 'residue_number': 1, 'chem_comp_name': '~{N}-[(2~{S})-3-(4-fluorophenyl)-1-oxidanylidene-1-[[(2~{S})-1-oxidanylidene-3-[(3~{S})-2-oxidanylidenepiperidin-3-yl]propan-2-yl]amino]propan-2-yl]-5-methyl-1,2-oxazole-3-carboxamide', 'weight': 444.456, 'carbohydrate_polymer': False, 'branch_name': ''}, {'chain_id': 'E', 'author_residue_number': 201, 'author_insertion_code': '', 'chem_comp_id': '5GI', 'alternate_conformers': 0, 'entity_id': 2, 'struct_asym_id': 'J', 'residue_number': 1, 'chem_comp_name': '~{N}-[(2~{S})-3-(4-fluorophenyl)-1-oxidanylidene-1-[[(2~{S})-1-oxidanylidene-3-[(3~{S})-2-oxidanylidenepiperidin-3-yl]propan-2-yl]amino]propan-2-yl]-5-methyl-1,2-oxazole-3-carboxamide', 'weight': 444.456, 'carbohydrate_polymer': False, 'branch_name': ''}]

>  <ligand_codes>  (775) 
['5GI', '5GI', '5GI', '5GI', '5GI']

>  <cofactor_codes>  (775) 
[]

>  <has_cofactor>  (775) 
False

>  <covalent>  (775) 
True

>  <base_name>  (775) 
5GSW

>  <lig_resn>  (775) 
5GI

>  <lig_resi>  (775) 
201

>  <lig_chain>  (775) 
A

>  <lig_segi>  (775) 
F

>  <lig_alt>  (775) 


>  <polymer_chain>  (775) 
A

>  <single_smiles>  (775) 
Cc1onc(c1)C(=O)N[C@@H](Cc2ccc(F)cc2)C(=O)N[C@@H](C[C@@H]3CCCNC3=O)C=O

$$$$
5GIP2S12
     RDKit          3D

 13 13  0  0  0  0  0  0  0  0999 V2000
   -9.0340   11.0510  -34.2690 N   0  0  0  0  0  0  0  0  0  0  0  0
   -8.6310   12.3040  -34.7780 C   0  0  0  0  0  0  0  0  0  0  0  0
   -9.6710   13.3510  -34.9850 C   0  0  1  0  0  0  0  0  0  0  0  0
   -7.4990   12.5560  -35.0400 O   0  0  0  0  0  0  0  0  0  0  0  0
   -8.9930   14.5510  -34.7960 N   0  0  0  0  0  0  0  0  0  0  0  0
  -10.1810   13.2340  -36.3950 C   0  0  0  0  0  0  0  0  0  0  0  0
  -11.5500   13.8850  -36.5470 C   0  0  0  0  0  0  0  0  0  0  0  0
  -12.5600   13.5520  -35.7150 C   0  0  0  0  0  0  0  0  0  0  0  0
  -11.7250   14.8280  -37.5440 C   0  0  0  0  0  0  0  0  0  0  0  0
  -13.7800   14.1620  -35.8710 C   0  0  0  0  0  0  0  0  0  0  0  0
  -12.9370   15.4400  -37.6840 C   0  0  0  0  0  0  0  0  0  0  0  0
  -13.9420   15.1070  -36.8650 C   0  0  0  0  0  0  0  0  0  0  0  0
  -15.0890   15.7090  -37.0320 F   0  0  0  0  0  0  0  0  0  0  0  0
  2  1  1  0
  3  2  1  0
  2  4  1  0
  3  5  1  6
  3  6  1  0
  6  7  1  0
  7  8  1  0
  7  9  1  0
  8 10  1  0
  9 11  1  0
 10 12  1  0
 12 11  1  0
 12 13  1  0
A    2
 C3 
A    3
 C1 
A    4
 O3 
A    6
 C2 
A    7
 C5 
A    8
 C6 
A    9
 C7 
A   10
 C8 
A   11
 C10
A   12
 C9 
A   13
 F1 
M  END
>  <XChem_code>  (776) 
5GI§2

>  <Occupancy>  (776) 
[1.0, 1.0, 1.0, 1.0, 1.0, 1.0, 1.0, 1.0, 1.0, 1.0, 1.0, 1.0, 1.0, 1.0, 1.0, 1.0, 1.0, 1.0, 1.0, 1.0, 1.0, 1.0, 1.0, 1.0, 1.0, 1.0, 1.0, 1.0, 1.0, 1.0, 1.0, 1.0, 1.0]

>  <TempFactor>  (776) 
[49.16, 50.65, 59.43, 46.46, 58.44, 57.93, 50.07, 43.93, 50.57, 60.46, 51.52, 50.9, 45.67, 43.54, 43.98, 44.86, 44.03, 44.64, 44.87, 49.8, 58.55, 43.97, 57.73, 55.84, 59.19, 44.52, 53.05, 49.04, 46.38, 44.56, 45.51, 26.59, 45.13]

>  <accession>  (776) 
5GSW_A

>  <description>  (776) 
Chain A, 3C protein [Enterovirus A71]

>  <evalue>  (776) 
4.6634199999999997e-58

>  <pdb_code>  (776) 
5GSW

>  <chain>  (776) 
A

>  <ligands>  (776) 
[{'chain_id': 'A', 'author_residue_number': 201, 'author_insertion_code': '', 'chem_comp_id': '5GI', 'alternate_conformers': 0, 'entity_id': 2, 'struct_asym_id': 'F', 'residue_number': 1, 'chem_comp_name': '~{N}-[(2~{S})-3-(4-fluorophenyl)-1-oxidanylidene-1-[[(2~{S})-1-oxidanylidene-3-[(3~{S})-2-oxidanylidenepiperidin-3-yl]propan-2-yl]amino]propan-2-yl]-5-methyl-1,2-oxazole-3-carboxamide', 'weight': 444.456, 'carbohydrate_polymer': False, 'branch_name': ''}, {'chain_id': 'B', 'author_residue_number': 201, 'author_insertion_code': '', 'chem_comp_id': '5GI', 'alternate_conformers': 0, 'entity_id': 2, 'struct_asym_id': 'G', 'residue_number': 1, 'chem_comp_name': '~{N}-[(2~{S})-3-(4-fluorophenyl)-1-oxidanylidene-1-[[(2~{S})-1-oxidanylidene-3-[(3~{S})-2-oxidanylidenepiperidin-3-yl]propan-2-yl]amino]propan-2-yl]-5-methyl-1,2-oxazole-3-carboxamide', 'weight': 444.456, 'carbohydrate_polymer': False, 'branch_name': ''}, {'chain_id': 'C', 'author_residue_number': 201, 'author_insertion_code': '', 'chem_comp_id': '5GI', 'alternate_conformers': 0, 'entity_id': 2, 'struct_asym_id': 'H', 'residue_number': 1, 'chem_comp_name': '~{N}-[(2~{S})-3-(4-fluorophenyl)-1-oxidanylidene-1-[[(2~{S})-1-oxidanylidene-3-[(3~{S})-2-oxidanylidenepiperidin-3-yl]propan-2-yl]amino]propan-2-yl]-5-methyl-1,2-oxazole-3-carboxamide', 'weight': 444.456, 'carbohydrate_polymer': False, 'branch_name': ''}, {'chain_id': 'D', 'author_residue_number': 201, 'author_insertion_code': '', 'chem_comp_id': '5GI', 'alternate_conformers': 0, 'entity_id': 2, 'struct_asym_id': 'I', 'residue_number': 1, 'chem_comp_name': '~{N}-[(2~{S})-3-(4-fluorophenyl)-1-oxidanylidene-1-[[(2~{S})-1-oxidanylidene-3-[(3~{S})-2-oxidanylidenepiperidin-3-yl]propan-2-yl]amino]propan-2-yl]-5-methyl-1,2-oxazole-3-carboxamide', 'weight': 444.456, 'carbohydrate_polymer': False, 'branch_name': ''}, {'chain_id': 'E', 'author_residue_number': 201, 'author_insertion_code': '', 'chem_comp_id': '5GI', 'alternate_conformers': 0, 'entity_id': 2, 'struct_asym_id': 'J', 'residue_number': 1, 'chem_comp_name': '~{N}-[(2~{S})-3-(4-fluorophenyl)-1-oxidanylidene-1-[[(2~{S})-1-oxidanylidene-3-[(3~{S})-2-oxidanylidenepiperidin-3-yl]propan-2-yl]amino]propan-2-yl]-5-methyl-1,2-oxazole-3-carboxamide', 'weight': 444.456, 'carbohydrate_polymer': False, 'branch_name': ''}]

>  <ligand_codes>  (776) 
['5GI', '5GI', '5GI', '5GI', '5GI']

>  <cofactor_codes>  (776) 
[]

>  <has_cofactor>  (776) 
False

>  <covalent>  (776) 
True

>  <base_name>  (776) 
5GSW

>  <lig_resn>  (776) 
5GI

>  <lig_resi>  (776) 
201

>  <lig_chain>  (776) 
A

>  <lig_segi>  (776) 
F

>  <lig_alt>  (776) 


>  <polymer_chain>  (776) 
A

>  <single_smiles>  (776) 
Cc1onc(c1)C(=O)N[C@@H](Cc2ccc(F)cc2)C(=O)N[C@@H](C[C@@H]3CCCNC3=O)C=O

$$$$
5GIP2S13
     RDKit          3D

  6  6  0  0  0  0  0  0  0  0999 V2000
   -7.9860   16.2730  -33.2750 C   0  0  0  0  0  0  0  0  0  0  0  0
   -7.9700   17.3240  -34.0490 N   0  0  0  0  0  0  0  0  0  0  0  0
   -7.0900   16.5190  -32.1990 C   0  0  0  0  0  0  0  0  0  0  0  0
   -7.1670   18.2380  -33.5600 O   0  0  0  0  0  0  0  0  0  0  0  0
   -6.5960   17.8330  -32.4710 C   0  0  0  0  0  0  0  0  0  0  0  0
   -5.6040   18.6070  -31.6530 C   0  0  0  0  0  0  0  0  0  0  0  0
  2  1  1  0
  1  3  1  0
  4  2  1  0
  3  5  1  0
  4  5  1  0
  6  5  1  0
A    2
 N2 
A    3
 C14
A    4
 O1 
A    5
 C16
A    6
 C4 
M  END
>  <XChem_code>  (777) 
5GI§2

>  <Occupancy>  (777) 
[1.0, 1.0, 1.0, 1.0, 1.0, 1.0, 1.0, 1.0, 1.0, 1.0, 1.0, 1.0, 1.0, 1.0, 1.0, 1.0, 1.0, 1.0, 1.0, 1.0, 1.0, 1.0, 1.0, 1.0, 1.0, 1.0, 1.0, 1.0, 1.0, 1.0, 1.0, 1.0, 1.0]

>  <TempFactor>  (777) 
[49.16, 50.65, 59.43, 46.46, 58.44, 57.93, 50.07, 43.93, 50.57, 60.46, 51.52, 50.9, 45.67, 43.54, 43.98, 44.86, 44.03, 44.64, 44.87, 49.8, 58.55, 43.97, 57.73, 55.84, 59.19, 44.52, 53.05, 49.04, 46.38, 44.56, 45.51, 26.59, 45.13]

>  <accession>  (777) 
5GSW_A

>  <description>  (777) 
Chain A, 3C protein [Enterovirus A71]

>  <evalue>  (777) 
4.6634199999999997e-58

>  <pdb_code>  (777) 
5GSW

>  <chain>  (777) 
A

>  <ligands>  (777) 
[{'chain_id': 'A', 'author_residue_number': 201, 'author_insertion_code': '', 'chem_comp_id': '5GI', 'alternate_conformers': 0, 'entity_id': 2, 'struct_asym_id': 'F', 'residue_number': 1, 'chem_comp_name': '~{N}-[(2~{S})-3-(4-fluorophenyl)-1-oxidanylidene-1-[[(2~{S})-1-oxidanylidene-3-[(3~{S})-2-oxidanylidenepiperidin-3-yl]propan-2-yl]amino]propan-2-yl]-5-methyl-1,2-oxazole-3-carboxamide', 'weight': 444.456, 'carbohydrate_polymer': False, 'branch_name': ''}, {'chain_id': 'B', 'author_residue_number': 201, 'author_insertion_code': '', 'chem_comp_id': '5GI', 'alternate_conformers': 0, 'entity_id': 2, 'struct_asym_id': 'G', 'residue_number': 1, 'chem_comp_name': '~{N}-[(2~{S})-3-(4-fluorophenyl)-1-oxidanylidene-1-[[(2~{S})-1-oxidanylidene-3-[(3~{S})-2-oxidanylidenepiperidin-3-yl]propan-2-yl]amino]propan-2-yl]-5-methyl-1,2-oxazole-3-carboxamide', 'weight': 444.456, 'carbohydrate_polymer': False, 'branch_name': ''}, {'chain_id': 'C', 'author_residue_number': 201, 'author_insertion_code': '', 'chem_comp_id': '5GI', 'alternate_conformers': 0, 'entity_id': 2, 'struct_asym_id': 'H', 'residue_number': 1, 'chem_comp_name': '~{N}-[(2~{S})-3-(4-fluorophenyl)-1-oxidanylidene-1-[[(2~{S})-1-oxidanylidene-3-[(3~{S})-2-oxidanylidenepiperidin-3-yl]propan-2-yl]amino]propan-2-yl]-5-methyl-1,2-oxazole-3-carboxamide', 'weight': 444.456, 'carbohydrate_polymer': False, 'branch_name': ''}, {'chain_id': 'D', 'author_residue_number': 201, 'author_insertion_code': '', 'chem_comp_id': '5GI', 'alternate_conformers': 0, 'entity_id': 2, 'struct_asym_id': 'I', 'residue_number': 1, 'chem_comp_name': '~{N}-[(2~{S})-3-(4-fluorophenyl)-1-oxidanylidene-1-[[(2~{S})-1-oxidanylidene-3-[(3~{S})-2-oxidanylidenepiperidin-3-yl]propan-2-yl]amino]propan-2-yl]-5-methyl-1,2-oxazole-3-carboxamide', 'weight': 444.456, 'carbohydrate_polymer': False, 'branch_name': ''}, {'chain_id': 'E', 'author_residue_number': 201, 'author_insertion_code': '', 'chem_comp_id': '5GI', 'alternate_conformers': 0, 'entity_id': 2, 'struct_asym_id': 'J', 'residue_number': 1, 'chem_comp_name': '~{N}-[(2~{S})-3-(4-fluorophenyl)-1-oxidanylidene-1-[[(2~{S})-1-oxidanylidene-3-[(3~{S})-2-oxidanylidenepiperidin-3-yl]propan-2-yl]amino]propan-2-yl]-5-methyl-1,2-oxazole-3-carboxamide', 'weight': 444.456, 'carbohydrate_polymer': False, 'branch_name': ''}]

>  <ligand_codes>  (777) 
['5GI', '5GI', '5GI', '5GI', '5GI']

>  <cofactor_codes>  (777) 
[]

>  <has_cofactor>  (777) 
False

>  <covalent>  (777) 
True

>  <base_name>  (777) 
5GSW

>  <lig_resn>  (777) 
5GI

>  <lig_resi>  (777) 
201

>  <lig_chain>  (777) 
A

>  <lig_segi>  (777) 
F

>  <lig_alt>  (777) 


>  <polymer_chain>  (777) 
A

>  <single_smiles>  (777) 
Cc1onc(c1)C(=O)N[C@@H](Cc2ccc(F)cc2)C(=O)N[C@@H](C[C@@H]3CCCNC3=O)C=O

$$$$
5GIP2S14
     RDKit          3D

 27 29  0  0  0  0  0  0  0  0999 V2000
   -8.7720   15.0010  -33.4870 C   0  0  0  0  0  0  0  0  0  0  0  0
   -8.9930   14.5510  -34.7960 N   0  0  0  0  0  0  0  0  0  0  0  0
   -9.1710   14.3940  -32.5200 O   0  0  0  0  0  0  0  0  0  0  0  0
   -9.6710   13.3510  -34.9850 C   0  0  1  0  0  0  0  0  0  0  0  0
  -10.1810   13.2340  -36.3950 C   0  0  0  0  0  0  0  0  0  0  0  0
   -8.6310   12.3040  -34.7780 C   0  0  0  0  0  0  0  0  0  0  0  0
  -11.5500   13.8850  -36.5470 C   0  0  0  0  0  0  0  0  0  0  0  0
   -7.4990   12.5560  -35.0400 O   0  0  0  0  0  0  0  0  0  0  0  0
   -9.0340   11.0510  -34.2690 N   0  0  0  0  0  0  0  0  0  0  0  0
  -12.5600   13.5520  -35.7150 C   0  0  0  0  0  0  0  0  0  0  0  0
  -11.7250   14.8280  -37.5440 C   0  0  0  0  0  0  0  0  0  0  0  0
   -8.1730    9.9490  -34.0130 C   0  0  1  0  0  0  0  0  0  0  0  0
  -13.7800   14.1620  -35.8710 C   0  0  0  0  0  0  0  0  0  0  0  0
  -12.9370   15.4400  -37.6840 C   0  0  0  0  0  0  0  0  0  0  0  0
   -8.6530    8.7000  -34.7540 C   0  0  1  0  0  0  0  0  0  0  0  0
   -7.8050    9.9270  -32.5350 C   0  0  0  0  0  0  0  0  0  0  0  0
   -9.6480    8.6280  -34.0830 R   0  0  0  0  0  2  0  0  0  0  0  0
  -13.9420   15.1070  -36.8650 C   0  0  0  0  0  0  0  0  0  0  0  0
   -8.2950    8.5760  -35.9070 O   0  0  0  0  0  0  0  0  0  0  0  0
   -7.2790   11.1660  -31.7440 C   0  0  1  0  0  0  0  0  0  0  0  0
  -15.0890   15.7090  -37.0320 F   0  0  0  0  0  0  0  0  0  0  0  0
   -6.7840   10.6750  -30.4020 C   0  0  1  0  0  0  0  0  0  0  0  0
   -6.1590   11.8760  -32.4020 C   0  0  0  0  0  0  0  0  0  0  0  0
   -6.1150   11.6600  -29.5560 N   0  0  0  0  0  0  0  0  0  0  0  0
   -7.8430   10.1480  -29.7250 O   0  0  0  0  0  0  0  0  0  0  0  0
   -5.7020   13.0220  -31.6100 C   0  0  0  0  0  0  0  0  0  0  0  0
   -5.2060   12.5720  -30.2480 C   0  0  0  0  0  0  0  0  0  0  0  0
  2  1  1  0
  3  1  1  0
  4  2  1  0
  4  5  1  6
  4  6  1  0
  5  7  1  0
  6  8  1  0
  6  9  1  0
  7 10  1  0
  7 11  1  0
  9 12  1  0
 10 13  1  0
 11 14  1  0
 15 12  1  0
 12 16  1  6
 12 17  1  0
 13 18  1  0
 18 14  1  0
 15 19  1  6
 15 17  1  0
 20 16  1  6
 18 21  1  0
 20 22  1  0
 20 23  1  0
 24 22  1  0
 22 25  1  1
 26 23  1  0
 24 27  1  0
 27 26  1  0
M  RAD  1  17   2
V   17 *
A    2
 N1 
A    3
 O4 
A    4
 C1 
A    5
 C2 
A    6
 C3 
A    7
 C5 
A    8
 O3 
A    9
 N4 
A   10
 C6 
A   11
 C7 
A   12
 C18
A   13
 C8 
A   14
 C10
A   15
 C15
A   16
 C19
A   17
 X  
A   18
 C9 
A   19
 O2 
A   20
 C20
A   21
 F1 
A   22
 C21
A   23
 C22
A   24
 N3 
A   25
 O5 
A   26
 C17
A   27
 C13
M  END
>  <XChem_code>  (778) 
5GI§2

>  <Occupancy>  (778) 
[1.0, 1.0, 1.0, 1.0, 1.0, 1.0, 1.0, 1.0, 1.0, 1.0, 1.0, 1.0, 1.0, 1.0, 1.0, 1.0, 1.0, 1.0, 1.0, 1.0, 1.0, 1.0, 1.0, 1.0, 1.0, 1.0, 1.0, 1.0, 1.0, 1.0, 1.0, 1.0, 1.0]

>  <TempFactor>  (778) 
[49.16, 50.65, 59.43, 46.46, 58.44, 57.93, 50.07, 43.93, 50.57, 60.46, 51.52, 50.9, 45.67, 43.54, 43.98, 44.86, 44.03, 44.64, 44.87, 49.8, 58.55, 43.97, 57.73, 55.84, 59.19, 44.52, 53.05, 49.04, 46.38, 44.56, 45.51, 26.59, 45.13]

>  <accession>  (778) 
5GSW_A

>  <description>  (778) 
Chain A, 3C protein [Enterovirus A71]

>  <evalue>  (778) 
4.6634199999999997e-58

>  <pdb_code>  (778) 
5GSW

>  <chain>  (778) 
A

>  <ligands>  (778) 
[{'chain_id': 'A', 'author_residue_number': 201, 'author_insertion_code': '', 'chem_comp_id': '5GI', 'alternate_conformers': 0, 'entity_id': 2, 'struct_asym_id': 'F', 'residue_number': 1, 'chem_comp_name': '~{N}-[(2~{S})-3-(4-fluorophenyl)-1-oxidanylidene-1-[[(2~{S})-1-oxidanylidene-3-[(3~{S})-2-oxidanylidenepiperidin-3-yl]propan-2-yl]amino]propan-2-yl]-5-methyl-1,2-oxazole-3-carboxamide', 'weight': 444.456, 'carbohydrate_polymer': False, 'branch_name': ''}, {'chain_id': 'B', 'author_residue_number': 201, 'author_insertion_code': '', 'chem_comp_id': '5GI', 'alternate_conformers': 0, 'entity_id': 2, 'struct_asym_id': 'G', 'residue_number': 1, 'chem_comp_name': '~{N}-[(2~{S})-3-(4-fluorophenyl)-1-oxidanylidene-1-[[(2~{S})-1-oxidanylidene-3-[(3~{S})-2-oxidanylidenepiperidin-3-yl]propan-2-yl]amino]propan-2-yl]-5-methyl-1,2-oxazole-3-carboxamide', 'weight': 444.456, 'carbohydrate_polymer': False, 'branch_name': ''}, {'chain_id': 'C', 'author_residue_number': 201, 'author_insertion_code': '', 'chem_comp_id': '5GI', 'alternate_conformers': 0, 'entity_id': 2, 'struct_asym_id': 'H', 'residue_number': 1, 'chem_comp_name': '~{N}-[(2~{S})-3-(4-fluorophenyl)-1-oxidanylidene-1-[[(2~{S})-1-oxidanylidene-3-[(3~{S})-2-oxidanylidenepiperidin-3-yl]propan-2-yl]amino]propan-2-yl]-5-methyl-1,2-oxazole-3-carboxamide', 'weight': 444.456, 'carbohydrate_polymer': False, 'branch_name': ''}, {'chain_id': 'D', 'author_residue_number': 201, 'author_insertion_code': '', 'chem_comp_id': '5GI', 'alternate_conformers': 0, 'entity_id': 2, 'struct_asym_id': 'I', 'residue_number': 1, 'chem_comp_name': '~{N}-[(2~{S})-3-(4-fluorophenyl)-1-oxidanylidene-1-[[(2~{S})-1-oxidanylidene-3-[(3~{S})-2-oxidanylidenepiperidin-3-yl]propan-2-yl]amino]propan-2-yl]-5-methyl-1,2-oxazole-3-carboxamide', 'weight': 444.456, 'carbohydrate_polymer': False, 'branch_name': ''}, {'chain_id': 'E', 'author_residue_number': 201, 'author_insertion_code': '', 'chem_comp_id': '5GI', 'alternate_conformers': 0, 'entity_id': 2, 'struct_asym_id': 'J', 'residue_number': 1, 'chem_comp_name': '~{N}-[(2~{S})-3-(4-fluorophenyl)-1-oxidanylidene-1-[[(2~{S})-1-oxidanylidene-3-[(3~{S})-2-oxidanylidenepiperidin-3-yl]propan-2-yl]amino]propan-2-yl]-5-methyl-1,2-oxazole-3-carboxamide', 'weight': 444.456, 'carbohydrate_polymer': False, 'branch_name': ''}]

>  <ligand_codes>  (778) 
['5GI', '5GI', '5GI', '5GI', '5GI']

>  <cofactor_codes>  (778) 
[]

>  <has_cofactor>  (778) 
False

>  <covalent>  (778) 
True

>  <base_name>  (778) 
5GSW

>  <lig_resn>  (778) 
5GI

>  <lig_resi>  (778) 
201

>  <lig_chain>  (778) 
A

>  <lig_segi>  (778) 
F

>  <lig_alt>  (778) 


>  <polymer_chain>  (778) 
A

>  <single_smiles>  (778) 
Cc1onc(c1)C(=O)N[C@@H](Cc2ccc(F)cc2)C(=O)N[C@@H](C[C@@H]3CCCNC3=O)C=O

$$$$
5GIP2S15
     RDKit          3D

  7  7  0  0  0  0  0  0  0  0999 V2000
  -11.5500   13.8850  -36.5470 C   0  0  0  0  0  0  0  0  0  0  0  0
  -12.5600   13.5520  -35.7150 C   0  0  0  0  0  0  0  0  0  0  0  0
  -11.7250   14.8280  -37.5440 C   0  0  0  0  0  0  0  0  0  0  0  0
  -13.7800   14.1620  -35.8710 C   0  0  0  0  0  0  0  0  0  0  0  0
  -12.9370   15.4400  -37.6840 C   0  0  0  0  0  0  0  0  0  0  0  0
  -13.9420   15.1070  -36.8650 C   0  0  0  0  0  0  0  0  0  0  0  0
  -15.0890   15.7090  -37.0320 F   0  0  0  0  0  0  0  0  0  0  0  0
  1  2  1  0
  1  3  1  0
  2  4  1  0
  3  5  1  0
  4  6  1  0
  6  5  1  0
  6  7  1  0
A    2
 C6 
A    3
 C7 
A    4
 C8 
A    5
 C10
A    6
 C9 
A    7
 F1 
M  END
>  <XChem_code>  (779) 
5GI§2

>  <Occupancy>  (779) 
[1.0, 1.0, 1.0, 1.0, 1.0, 1.0, 1.0, 1.0, 1.0, 1.0, 1.0, 1.0, 1.0, 1.0, 1.0, 1.0, 1.0, 1.0, 1.0, 1.0, 1.0, 1.0, 1.0, 1.0, 1.0, 1.0, 1.0, 1.0, 1.0, 1.0, 1.0, 1.0, 1.0]

>  <TempFactor>  (779) 
[49.16, 50.65, 59.43, 46.46, 58.44, 57.93, 50.07, 43.93, 50.57, 60.46, 51.52, 50.9, 45.67, 43.54, 43.98, 44.86, 44.03, 44.64, 44.87, 49.8, 58.55, 43.97, 57.73, 55.84, 59.19, 44.52, 53.05, 49.04, 46.38, 44.56, 45.51, 26.59, 45.13]

>  <accession>  (779) 
5GSW_A

>  <description>  (779) 
Chain A, 3C protein [Enterovirus A71]

>  <evalue>  (779) 
4.6634199999999997e-58

>  <pdb_code>  (779) 
5GSW

>  <chain>  (779) 
A

>  <ligands>  (779) 
[{'chain_id': 'A', 'author_residue_number': 201, 'author_insertion_code': '', 'chem_comp_id': '5GI', 'alternate_conformers': 0, 'entity_id': 2, 'struct_asym_id': 'F', 'residue_number': 1, 'chem_comp_name': '~{N}-[(2~{S})-3-(4-fluorophenyl)-1-oxidanylidene-1-[[(2~{S})-1-oxidanylidene-3-[(3~{S})-2-oxidanylidenepiperidin-3-yl]propan-2-yl]amino]propan-2-yl]-5-methyl-1,2-oxazole-3-carboxamide', 'weight': 444.456, 'carbohydrate_polymer': False, 'branch_name': ''}, {'chain_id': 'B', 'author_residue_number': 201, 'author_insertion_code': '', 'chem_comp_id': '5GI', 'alternate_conformers': 0, 'entity_id': 2, 'struct_asym_id': 'G', 'residue_number': 1, 'chem_comp_name': '~{N}-[(2~{S})-3-(4-fluorophenyl)-1-oxidanylidene-1-[[(2~{S})-1-oxidanylidene-3-[(3~{S})-2-oxidanylidenepiperidin-3-yl]propan-2-yl]amino]propan-2-yl]-5-methyl-1,2-oxazole-3-carboxamide', 'weight': 444.456, 'carbohydrate_polymer': False, 'branch_name': ''}, {'chain_id': 'C', 'author_residue_number': 201, 'author_insertion_code': '', 'chem_comp_id': '5GI', 'alternate_conformers': 0, 'entity_id': 2, 'struct_asym_id': 'H', 'residue_number': 1, 'chem_comp_name': '~{N}-[(2~{S})-3-(4-fluorophenyl)-1-oxidanylidene-1-[[(2~{S})-1-oxidanylidene-3-[(3~{S})-2-oxidanylidenepiperidin-3-yl]propan-2-yl]amino]propan-2-yl]-5-methyl-1,2-oxazole-3-carboxamide', 'weight': 444.456, 'carbohydrate_polymer': False, 'branch_name': ''}, {'chain_id': 'D', 'author_residue_number': 201, 'author_insertion_code': '', 'chem_comp_id': '5GI', 'alternate_conformers': 0, 'entity_id': 2, 'struct_asym_id': 'I', 'residue_number': 1, 'chem_comp_name': '~{N}-[(2~{S})-3-(4-fluorophenyl)-1-oxidanylidene-1-[[(2~{S})-1-oxidanylidene-3-[(3~{S})-2-oxidanylidenepiperidin-3-yl]propan-2-yl]amino]propan-2-yl]-5-methyl-1,2-oxazole-3-carboxamide', 'weight': 444.456, 'carbohydrate_polymer': False, 'branch_name': ''}, {'chain_id': 'E', 'author_residue_number': 201, 'author_insertion_code': '', 'chem_comp_id': '5GI', 'alternate_conformers': 0, 'entity_id': 2, 'struct_asym_id': 'J', 'residue_number': 1, 'chem_comp_name': '~{N}-[(2~{S})-3-(4-fluorophenyl)-1-oxidanylidene-1-[[(2~{S})-1-oxidanylidene-3-[(3~{S})-2-oxidanylidenepiperidin-3-yl]propan-2-yl]amino]propan-2-yl]-5-methyl-1,2-oxazole-3-carboxamide', 'weight': 444.456, 'carbohydrate_polymer': False, 'branch_name': ''}]

>  <ligand_codes>  (779) 
['5GI', '5GI', '5GI', '5GI', '5GI']

>  <cofactor_codes>  (779) 
[]

>  <has_cofactor>  (779) 
False

>  <covalent>  (779) 
True

>  <base_name>  (779) 
5GSW

>  <lig_resn>  (779) 
5GI

>  <lig_resi>  (779) 
201

>  <lig_chain>  (779) 
A

>  <lig_segi>  (779) 
F

>  <lig_alt>  (779) 


>  <polymer_chain>  (779) 
A

>  <single_smiles>  (779) 
Cc1onc(c1)C(=O)N[C@@H](Cc2ccc(F)cc2)C(=O)N[C@@H](C[C@@H]3CCCNC3=O)C=O

$$$$
5GIP2S16
     RDKit          3D

 26 28  0  0  0  0  0  0  0  0999 V2000
  -10.1810   13.2340  -36.3950 C   0  0  0  0  0  0  0  0  0  0  0  0
   -9.6710   13.3510  -34.9850 C   0  0  2  0  0  0  0  0  0  0  0  0
   -8.9930   14.5510  -34.7960 N   0  0  0  0  0  0  0  0  0  0  0  0
   -8.6310   12.3040  -34.7780 C   0  0  0  0  0  0  0  0  0  0  0  0
   -8.7720   15.0010  -33.4870 C   0  0  0  0  0  0  0  0  0  0  0  0
   -7.4990   12.5560  -35.0400 O   0  0  0  0  0  0  0  0  0  0  0  0
   -9.0340   11.0510  -34.2690 N   0  0  0  0  0  0  0  0  0  0  0  0
   -9.1710   14.3940  -32.5200 O   0  0  0  0  0  0  0  0  0  0  0  0
   -7.9860   16.2730  -33.2750 C   0  0  0  0  0  0  0  0  0  0  0  0
   -8.1730    9.9490  -34.0130 C   0  0  1  0  0  0  0  0  0  0  0  0
   -7.9700   17.3240  -34.0490 N   0  0  0  0  0  0  0  0  0  0  0  0
   -7.0900   16.5190  -32.1990 C   0  0  0  0  0  0  0  0  0  0  0  0
   -8.6530    8.7000  -34.7540 C   0  0  1  0  0  0  0  0  0  0  0  0
   -7.8050    9.9270  -32.5350 C   0  0  0  0  0  0  0  0  0  0  0  0
   -9.6480    8.6280  -34.0830 R   0  0  0  0  0  2  0  0  0  0  0  0
   -7.1670   18.2380  -33.5600 O   0  0  0  0  0  0  0  0  0  0  0  0
   -6.5960   17.8330  -32.4710 C   0  0  0  0  0  0  0  0  0  0  0  0
   -8.2950    8.5760  -35.9070 O   0  0  0  0  0  0  0  0  0  0  0  0
   -7.2790   11.1660  -31.7440 C   0  0  1  0  0  0  0  0  0  0  0  0
   -5.6040   18.6070  -31.6530 C   0  0  0  0  0  0  0  0  0  0  0  0
   -6.7840   10.6750  -30.4020 C   0  0  1  0  0  0  0  0  0  0  0  0
   -6.1590   11.8760  -32.4020 C   0  0  0  0  0  0  0  0  0  0  0  0
   -6.1150   11.6600  -29.5560 N   0  0  0  0  0  0  0  0  0  0  0  0
   -7.8430   10.1480  -29.7250 O   0  0  0  0  0  0  0  0  0  0  0  0
   -5.7020   13.0220  -31.6100 C   0  0  0  0  0  0  0  0  0  0  0  0
   -5.2060   12.5720  -30.2480 C   0  0  0  0  0  0  0  0  0  0  0  0
  2  1  1  6
  2  3  1  0
  2  4  1  0
  3  5  1  0
  4  6  1  0
  4  7  1  0
  8  5  1  0
  5  9  1  0
  7 10  1  0
 11  9  1  0
  9 12  1  0
 13 10  1  0
 10 14  1  6
 10 15  1  0
 16 11  1  0
 12 17  1  0
 13 18  1  6
 13 15  1  0
 19 14  1  6
 16 17  1  0
 20 17  1  0
 19 21  1  0
 19 22  1  0
 23 21  1  0
 21 24  1  1
 25 22  1  0
 23 26  1  0
 26 25  1  0
M  RAD  1  15   2
V   15 *
A    2
 C1 
A    3
 N1 
A    4
 C3 
A    5
 C11
A    6
 O3 
A    7
 N4 
A    8
 O4 
A    9
 C12
A   10
 C18
A   11
 N2 
A   12
 C14
A   13
 C15
A   14
 C19
A   15
 X  
A   16
 O1 
A   17
 C16
A   18
 O2 
A   19
 C20
A   20
 C4 
A   21
 C21
A   22
 C22
A   23
 N3 
A   24
 O5 
A   25
 C17
A   26
 C13
M  END
>  <XChem_code>  (780) 
5GI§2

>  <Occupancy>  (780) 
[1.0, 1.0, 1.0, 1.0, 1.0, 1.0, 1.0, 1.0, 1.0, 1.0, 1.0, 1.0, 1.0, 1.0, 1.0, 1.0, 1.0, 1.0, 1.0, 1.0, 1.0, 1.0, 1.0, 1.0, 1.0, 1.0, 1.0, 1.0, 1.0, 1.0, 1.0, 1.0, 1.0]

>  <TempFactor>  (780) 
[49.16, 50.65, 59.43, 46.46, 58.44, 57.93, 50.07, 43.93, 50.57, 60.46, 51.52, 50.9, 45.67, 43.54, 43.98, 44.86, 44.03, 44.64, 44.87, 49.8, 58.55, 43.97, 57.73, 55.84, 59.19, 44.52, 53.05, 49.04, 46.38, 44.56, 45.51, 26.59, 45.13]

>  <accession>  (780) 
5GSW_A

>  <description>  (780) 
Chain A, 3C protein [Enterovirus A71]

>  <evalue>  (780) 
4.6634199999999997e-58

>  <pdb_code>  (780) 
5GSW

>  <chain>  (780) 
A

>  <ligands>  (780) 
[{'chain_id': 'A', 'author_residue_number': 201, 'author_insertion_code': '', 'chem_comp_id': '5GI', 'alternate_conformers': 0, 'entity_id': 2, 'struct_asym_id': 'F', 'residue_number': 1, 'chem_comp_name': '~{N}-[(2~{S})-3-(4-fluorophenyl)-1-oxidanylidene-1-[[(2~{S})-1-oxidanylidene-3-[(3~{S})-2-oxidanylidenepiperidin-3-yl]propan-2-yl]amino]propan-2-yl]-5-methyl-1,2-oxazole-3-carboxamide', 'weight': 444.456, 'carbohydrate_polymer': False, 'branch_name': ''}, {'chain_id': 'B', 'author_residue_number': 201, 'author_insertion_code': '', 'chem_comp_id': '5GI', 'alternate_conformers': 0, 'entity_id': 2, 'struct_asym_id': 'G', 'residue_number': 1, 'chem_comp_name': '~{N}-[(2~{S})-3-(4-fluorophenyl)-1-oxidanylidene-1-[[(2~{S})-1-oxidanylidene-3-[(3~{S})-2-oxidanylidenepiperidin-3-yl]propan-2-yl]amino]propan-2-yl]-5-methyl-1,2-oxazole-3-carboxamide', 'weight': 444.456, 'carbohydrate_polymer': False, 'branch_name': ''}, {'chain_id': 'C', 'author_residue_number': 201, 'author_insertion_code': '', 'chem_comp_id': '5GI', 'alternate_conformers': 0, 'entity_id': 2, 'struct_asym_id': 'H', 'residue_number': 1, 'chem_comp_name': '~{N}-[(2~{S})-3-(4-fluorophenyl)-1-oxidanylidene-1-[[(2~{S})-1-oxidanylidene-3-[(3~{S})-2-oxidanylidenepiperidin-3-yl]propan-2-yl]amino]propan-2-yl]-5-methyl-1,2-oxazole-3-carboxamide', 'weight': 444.456, 'carbohydrate_polymer': False, 'branch_name': ''}, {'chain_id': 'D', 'author_residue_number': 201, 'author_insertion_code': '', 'chem_comp_id': '5GI', 'alternate_conformers': 0, 'entity_id': 2, 'struct_asym_id': 'I', 'residue_number': 1, 'chem_comp_name': '~{N}-[(2~{S})-3-(4-fluorophenyl)-1-oxidanylidene-1-[[(2~{S})-1-oxidanylidene-3-[(3~{S})-2-oxidanylidenepiperidin-3-yl]propan-2-yl]amino]propan-2-yl]-5-methyl-1,2-oxazole-3-carboxamide', 'weight': 444.456, 'carbohydrate_polymer': False, 'branch_name': ''}, {'chain_id': 'E', 'author_residue_number': 201, 'author_insertion_code': '', 'chem_comp_id': '5GI', 'alternate_conformers': 0, 'entity_id': 2, 'struct_asym_id': 'J', 'residue_number': 1, 'chem_comp_name': '~{N}-[(2~{S})-3-(4-fluorophenyl)-1-oxidanylidene-1-[[(2~{S})-1-oxidanylidene-3-[(3~{S})-2-oxidanylidenepiperidin-3-yl]propan-2-yl]amino]propan-2-yl]-5-methyl-1,2-oxazole-3-carboxamide', 'weight': 444.456, 'carbohydrate_polymer': False, 'branch_name': ''}]

>  <ligand_codes>  (780) 
['5GI', '5GI', '5GI', '5GI', '5GI']

>  <cofactor_codes>  (780) 
[]

>  <has_cofactor>  (780) 
False

>  <covalent>  (780) 
True

>  <base_name>  (780) 
5GSW

>  <lig_resn>  (780) 
5GI

>  <lig_resi>  (780) 
201

>  <lig_chain>  (780) 
A

>  <lig_segi>  (780) 
F

>  <lig_alt>  (780) 


>  <polymer_chain>  (780) 
A

>  <single_smiles>  (780) 
Cc1onc(c1)C(=O)N[C@@H](Cc2ccc(F)cc2)C(=O)N[C@@H](C[C@@H]3CCCNC3=O)C=O

$$$$
5GIP2S17
     RDKit          3D

  7  7  0  0  0  0  0  0  0  0999 V2000
   -7.2790   11.1660  -31.7440 C   0  0  0  0  0  0  0  0  0  0  0  0
   -6.7840   10.6750  -30.4020 C   0  0  1  0  0  0  0  0  0  0  0  0
   -6.1590   11.8760  -32.4020 C   0  0  0  0  0  0  0  0  0  0  0  0
   -6.1150   11.6600  -29.5560 N   0  0  0  0  0  0  0  0  0  0  0  0
   -7.8430   10.1480  -29.7250 O   0  0  0  0  0  0  0  0  0  0  0  0
   -5.7020   13.0220  -31.6100 C   0  0  0  0  0  0  0  0  0  0  0  0
   -5.2060   12.5720  -30.2480 C   0  0  0  0  0  0  0  0  0  0  0  0
  1  2  1  0
  1  3  1  1
  4  2  1  0
  2  5  1  1
  6  3  1  0
  4  7  1  0
  7  6  1  0
A    2
 C21
A    3
 C22
A    4
 N3 
A    5
 O5 
A    6
 C17
A    7
 C13
M  END
>  <XChem_code>  (781) 
5GI§2

>  <Occupancy>  (781) 
[1.0, 1.0, 1.0, 1.0, 1.0, 1.0, 1.0, 1.0, 1.0, 1.0, 1.0, 1.0, 1.0, 1.0, 1.0, 1.0, 1.0, 1.0, 1.0, 1.0, 1.0, 1.0, 1.0, 1.0, 1.0, 1.0, 1.0, 1.0, 1.0, 1.0, 1.0, 1.0, 1.0]

>  <TempFactor>  (781) 
[49.16, 50.65, 59.43, 46.46, 58.44, 57.93, 50.07, 43.93, 50.57, 60.46, 51.52, 50.9, 45.67, 43.54, 43.98, 44.86, 44.03, 44.64, 44.87, 49.8, 58.55, 43.97, 57.73, 55.84, 59.19, 44.52, 53.05, 49.04, 46.38, 44.56, 45.51, 26.59, 45.13]

>  <accession>  (781) 
5GSW_A

>  <description>  (781) 
Chain A, 3C protein [Enterovirus A71]

>  <evalue>  (781) 
4.6634199999999997e-58

>  <pdb_code>  (781) 
5GSW

>  <chain>  (781) 
A

>  <ligands>  (781) 
[{'chain_id': 'A', 'author_residue_number': 201, 'author_insertion_code': '', 'chem_comp_id': '5GI', 'alternate_conformers': 0, 'entity_id': 2, 'struct_asym_id': 'F', 'residue_number': 1, 'chem_comp_name': '~{N}-[(2~{S})-3-(4-fluorophenyl)-1-oxidanylidene-1-[[(2~{S})-1-oxidanylidene-3-[(3~{S})-2-oxidanylidenepiperidin-3-yl]propan-2-yl]amino]propan-2-yl]-5-methyl-1,2-oxazole-3-carboxamide', 'weight': 444.456, 'carbohydrate_polymer': False, 'branch_name': ''}, {'chain_id': 'B', 'author_residue_number': 201, 'author_insertion_code': '', 'chem_comp_id': '5GI', 'alternate_conformers': 0, 'entity_id': 2, 'struct_asym_id': 'G', 'residue_number': 1, 'chem_comp_name': '~{N}-[(2~{S})-3-(4-fluorophenyl)-1-oxidanylidene-1-[[(2~{S})-1-oxidanylidene-3-[(3~{S})-2-oxidanylidenepiperidin-3-yl]propan-2-yl]amino]propan-2-yl]-5-methyl-1,2-oxazole-3-carboxamide', 'weight': 444.456, 'carbohydrate_polymer': False, 'branch_name': ''}, {'chain_id': 'C', 'author_residue_number': 201, 'author_insertion_code': '', 'chem_comp_id': '5GI', 'alternate_conformers': 0, 'entity_id': 2, 'struct_asym_id': 'H', 'residue_number': 1, 'chem_comp_name': '~{N}-[(2~{S})-3-(4-fluorophenyl)-1-oxidanylidene-1-[[(2~{S})-1-oxidanylidene-3-[(3~{S})-2-oxidanylidenepiperidin-3-yl]propan-2-yl]amino]propan-2-yl]-5-methyl-1,2-oxazole-3-carboxamide', 'weight': 444.456, 'carbohydrate_polymer': False, 'branch_name': ''}, {'chain_id': 'D', 'author_residue_number': 201, 'author_insertion_code': '', 'chem_comp_id': '5GI', 'alternate_conformers': 0, 'entity_id': 2, 'struct_asym_id': 'I', 'residue_number': 1, 'chem_comp_name': '~{N}-[(2~{S})-3-(4-fluorophenyl)-1-oxidanylidene-1-[[(2~{S})-1-oxidanylidene-3-[(3~{S})-2-oxidanylidenepiperidin-3-yl]propan-2-yl]amino]propan-2-yl]-5-methyl-1,2-oxazole-3-carboxamide', 'weight': 444.456, 'carbohydrate_polymer': False, 'branch_name': ''}, {'chain_id': 'E', 'author_residue_number': 201, 'author_insertion_code': '', 'chem_comp_id': '5GI', 'alternate_conformers': 0, 'entity_id': 2, 'struct_asym_id': 'J', 'residue_number': 1, 'chem_comp_name': '~{N}-[(2~{S})-3-(4-fluorophenyl)-1-oxidanylidene-1-[[(2~{S})-1-oxidanylidene-3-[(3~{S})-2-oxidanylidenepiperidin-3-yl]propan-2-yl]amino]propan-2-yl]-5-methyl-1,2-oxazole-3-carboxamide', 'weight': 444.456, 'carbohydrate_polymer': False, 'branch_name': ''}]

>  <ligand_codes>  (781) 
['5GI', '5GI', '5GI', '5GI', '5GI']

>  <cofactor_codes>  (781) 
[]

>  <has_cofactor>  (781) 
False

>  <covalent>  (781) 
True

>  <base_name>  (781) 
5GSW

>  <lig_resn>  (781) 
5GI

>  <lig_resi>  (781) 
201

>  <lig_chain>  (781) 
A

>  <lig_segi>  (781) 
F

>  <lig_alt>  (781) 


>  <polymer_chain>  (781) 
A

>  <single_smiles>  (781) 
Cc1onc(c1)C(=O)N[C@@H](Cc2ccc(F)cc2)C(=O)N[C@@H](C[C@@H]3CCCNC3=O)C=O

$$$$
5GIP2S18
     RDKit          3D

 26 28  0  0  0  0  0  0  0  0999 V2000
   -7.8050    9.9270  -32.5350 C   0  0  0  0  0  0  0  0  0  0  0  0
   -8.1730    9.9490  -34.0130 C   0  0  1  0  0  0  0  0  0  0  0  0
   -9.0340   11.0510  -34.2690 N   0  0  0  0  0  0  0  0  0  0  0  0
   -8.6530    8.7000  -34.7540 C   0  0  1  0  0  0  0  0  0  0  0  0
   -9.6480    8.6280  -34.0830 R   0  0  0  0  0  2  0  0  0  0  0  0
   -8.6310   12.3040  -34.7780 C   0  0  0  0  0  0  0  0  0  0  0  0
   -8.2950    8.5760  -35.9070 O   0  0  0  0  0  0  0  0  0  0  0  0
   -9.6710   13.3510  -34.9850 C   0  0  1  0  0  0  0  0  0  0  0  0
   -7.4990   12.5560  -35.0400 O   0  0  0  0  0  0  0  0  0  0  0  0
   -8.9930   14.5510  -34.7960 N   0  0  0  0  0  0  0  0  0  0  0  0
  -10.1810   13.2340  -36.3950 C   0  0  0  0  0  0  0  0  0  0  0  0
   -8.7720   15.0010  -33.4870 C   0  0  0  0  0  0  0  0  0  0  0  0
  -11.5500   13.8850  -36.5470 C   0  0  0  0  0  0  0  0  0  0  0  0
   -9.1710   14.3940  -32.5200 O   0  0  0  0  0  0  0  0  0  0  0  0
   -7.9860   16.2730  -33.2750 C   0  0  0  0  0  0  0  0  0  0  0  0
  -12.5600   13.5520  -35.7150 C   0  0  0  0  0  0  0  0  0  0  0  0
  -11.7250   14.8280  -37.5440 C   0  0  0  0  0  0  0  0  0  0  0  0
   -7.9700   17.3240  -34.0490 N   0  0  0  0  0  0  0  0  0  0  0  0
   -7.0900   16.5190  -32.1990 C   0  0  0  0  0  0  0  0  0  0  0  0
  -13.7800   14.1620  -35.8710 C   0  0  0  0  0  0  0  0  0  0  0  0
  -12.9370   15.4400  -37.6840 C   0  0  0  0  0  0  0  0  0  0  0  0
   -7.1670   18.2380  -33.5600 O   0  0  0  0  0  0  0  0  0  0  0  0
   -6.5960   17.8330  -32.4710 C   0  0  0  0  0  0  0  0  0  0  0  0
  -13.9420   15.1070  -36.8650 C   0  0  0  0  0  0  0  0  0  0  0  0
   -5.6040   18.6070  -31.6530 C   0  0  0  0  0  0  0  0  0  0  0  0
  -15.0890   15.7090  -37.0320 F   0  0  0  0  0  0  0  0  0  0  0  0
  2  1  1  6
  3  2  1  0
  4  2  1  0
  2  5  1  0
  6  3  1  0
  4  7  1  6
  4  5  1  0
  8  6  1  0
  6  9  1  0
  8 10  1  0
  8 11  1  6
 10 12  1  0
 11 13  1  0
 14 12  1  0
 12 15  1  0
 13 16  1  0
 13 17  1  0
 18 15  1  0
 15 19  1  0
 16 20  1  0
 17 21  1  0
 22 18  1  0
 19 23  1  0
 20 24  1  0
 24 21  1  0
 22 23  1  0
 25 23  1  0
 24 26  1  0
M  RAD  1   5   2
V    5 *
A    2
 C18
A    3
 N4 
A    4
 C15
A    5
 X  
A    6
 C3 
A    7
 O2 
A    8
 C1 
A    9
 O3 
A   10
 N1 
A   11
 C2 
A   12
 C11
A   13
 C5 
A   14
 O4 
A   15
 C12
A   16
 C6 
A   17
 C7 
A   18
 N2 
A   19
 C14
A   20
 C8 
A   21
 C10
A   22
 O1 
A   23
 C16
A   24
 C9 
A   25
 C4 
A   26
 F1 
M  END
>  <XChem_code>  (782) 
5GI§2

>  <Occupancy>  (782) 
[1.0, 1.0, 1.0, 1.0, 1.0, 1.0, 1.0, 1.0, 1.0, 1.0, 1.0, 1.0, 1.0, 1.0, 1.0, 1.0, 1.0, 1.0, 1.0, 1.0, 1.0, 1.0, 1.0, 1.0, 1.0, 1.0, 1.0, 1.0, 1.0, 1.0, 1.0, 1.0, 1.0]

>  <TempFactor>  (782) 
[49.16, 50.65, 59.43, 46.46, 58.44, 57.93, 50.07, 43.93, 50.57, 60.46, 51.52, 50.9, 45.67, 43.54, 43.98, 44.86, 44.03, 44.64, 44.87, 49.8, 58.55, 43.97, 57.73, 55.84, 59.19, 44.52, 53.05, 49.04, 46.38, 44.56, 45.51, 26.59, 45.13]

>  <accession>  (782) 
5GSW_A

>  <description>  (782) 
Chain A, 3C protein [Enterovirus A71]

>  <evalue>  (782) 
4.6634199999999997e-58

>  <pdb_code>  (782) 
5GSW

>  <chain>  (782) 
A

>  <ligands>  (782) 
[{'chain_id': 'A', 'author_residue_number': 201, 'author_insertion_code': '', 'chem_comp_id': '5GI', 'alternate_conformers': 0, 'entity_id': 2, 'struct_asym_id': 'F', 'residue_number': 1, 'chem_comp_name': '~{N}-[(2~{S})-3-(4-fluorophenyl)-1-oxidanylidene-1-[[(2~{S})-1-oxidanylidene-3-[(3~{S})-2-oxidanylidenepiperidin-3-yl]propan-2-yl]amino]propan-2-yl]-5-methyl-1,2-oxazole-3-carboxamide', 'weight': 444.456, 'carbohydrate_polymer': False, 'branch_name': ''}, {'chain_id': 'B', 'author_residue_number': 201, 'author_insertion_code': '', 'chem_comp_id': '5GI', 'alternate_conformers': 0, 'entity_id': 2, 'struct_asym_id': 'G', 'residue_number': 1, 'chem_comp_name': '~{N}-[(2~{S})-3-(4-fluorophenyl)-1-oxidanylidene-1-[[(2~{S})-1-oxidanylidene-3-[(3~{S})-2-oxidanylidenepiperidin-3-yl]propan-2-yl]amino]propan-2-yl]-5-methyl-1,2-oxazole-3-carboxamide', 'weight': 444.456, 'carbohydrate_polymer': False, 'branch_name': ''}, {'chain_id': 'C', 'author_residue_number': 201, 'author_insertion_code': '', 'chem_comp_id': '5GI', 'alternate_conformers': 0, 'entity_id': 2, 'struct_asym_id': 'H', 'residue_number': 1, 'chem_comp_name': '~{N}-[(2~{S})-3-(4-fluorophenyl)-1-oxidanylidene-1-[[(2~{S})-1-oxidanylidene-3-[(3~{S})-2-oxidanylidenepiperidin-3-yl]propan-2-yl]amino]propan-2-yl]-5-methyl-1,2-oxazole-3-carboxamide', 'weight': 444.456, 'carbohydrate_polymer': False, 'branch_name': ''}, {'chain_id': 'D', 'author_residue_number': 201, 'author_insertion_code': '', 'chem_comp_id': '5GI', 'alternate_conformers': 0, 'entity_id': 2, 'struct_asym_id': 'I', 'residue_number': 1, 'chem_comp_name': '~{N}-[(2~{S})-3-(4-fluorophenyl)-1-oxidanylidene-1-[[(2~{S})-1-oxidanylidene-3-[(3~{S})-2-oxidanylidenepiperidin-3-yl]propan-2-yl]amino]propan-2-yl]-5-methyl-1,2-oxazole-3-carboxamide', 'weight': 444.456, 'carbohydrate_polymer': False, 'branch_name': ''}, {'chain_id': 'E', 'author_residue_number': 201, 'author_insertion_code': '', 'chem_comp_id': '5GI', 'alternate_conformers': 0, 'entity_id': 2, 'struct_asym_id': 'J', 'residue_number': 1, 'chem_comp_name': '~{N}-[(2~{S})-3-(4-fluorophenyl)-1-oxidanylidene-1-[[(2~{S})-1-oxidanylidene-3-[(3~{S})-2-oxidanylidenepiperidin-3-yl]propan-2-yl]amino]propan-2-yl]-5-methyl-1,2-oxazole-3-carboxamide', 'weight': 444.456, 'carbohydrate_polymer': False, 'branch_name': ''}]

>  <ligand_codes>  (782) 
['5GI', '5GI', '5GI', '5GI', '5GI']

>  <cofactor_codes>  (782) 
[]

>  <has_cofactor>  (782) 
False

>  <covalent>  (782) 
True

>  <base_name>  (782) 
5GSW

>  <lig_resn>  (782) 
5GI

>  <lig_resi>  (782) 
201

>  <lig_chain>  (782) 
A

>  <lig_segi>  (782) 
F

>  <lig_alt>  (782) 


>  <polymer_chain>  (782) 
A

>  <single_smiles>  (782) 
Cc1onc(c1)C(=O)N[C@@H](Cc2ccc(F)cc2)C(=O)N[C@@H](C[C@@H]3CCCNC3=O)C=O

$$$$
5GIP2S19
     RDKit          3D

 17 18  0  0  0  0  0  0  0  0999 V2000
  -10.1810   13.2340  -36.3950 C   0  0  0  0  0  0  0  0  0  0  0  0
   -9.6710   13.3510  -34.9850 C   0  0  0  0  0  0  0  0  0  0  0  0
   -8.6310   12.3040  -34.7780 C   0  0  0  0  0  0  0  0  0  0  0  0
   -7.4990   12.5560  -35.0400 O   0  0  0  0  0  0  0  0  0  0  0  0
   -9.0340   11.0510  -34.2690 N   0  0  0  0  0  0  0  0  0  0  0  0
   -8.1730    9.9490  -34.0130 C   0  0  1  0  0  0  0  0  0  0  0  0
   -8.6530    8.7000  -34.7540 C   0  0  1  0  0  0  0  0  0  0  0  0
   -7.8050    9.9270  -32.5350 C   0  0  0  0  0  0  0  0  0  0  0  0
   -9.6480    8.6280  -34.0830 R   0  0  0  0  0  2  0  0  0  0  0  0
   -8.2950    8.5760  -35.9070 O   0  0  0  0  0  0  0  0  0  0  0  0
   -7.2790   11.1660  -31.7440 C   0  0  1  0  0  0  0  0  0  0  0  0
   -6.7840   10.6750  -30.4020 C   0  0  1  0  0  0  0  0  0  0  0  0
   -6.1590   11.8760  -32.4020 C   0  0  0  0  0  0  0  0  0  0  0  0
   -6.1150   11.6600  -29.5560 N   0  0  0  0  0  0  0  0  0  0  0  0
   -7.8430   10.1480  -29.7250 O   0  0  0  0  0  0  0  0  0  0  0  0
   -5.7020   13.0220  -31.6100 C   0  0  0  0  0  0  0  0  0  0  0  0
   -5.2060   12.5720  -30.2480 C   0  0  0  0  0  0  0  0  0  0  0  0
  2  1  1  6
  2  3  1  0
  3  4  1  0
  3  5  1  0
  5  6  1  0
  7  6  1  0
  6  8  1  6
  6  9  1  0
  7 10  1  6
  7  9  1  0
 11  8  1  6
 11 12  1  0
 11 13  1  0
 14 12  1  0
 12 15  1  1
 16 13  1  0
 14 17  1  0
 17 16  1  0
M  RAD  1   9   2
V    9 *
A    3
 C3 
A    4
 O3 
A    5
 N4 
A    6
 C18
A    7
 C15
A    8
 C19
A    9
 X  
A   10
 O2 
A   11
 C20
A   12
 C21
A   13
 C22
A   14
 N3 
A   15
 O5 
A   16
 C17
A   17
 C13
M  END
>  <XChem_code>  (783) 
5GI§2

>  <Occupancy>  (783) 
[1.0, 1.0, 1.0, 1.0, 1.0, 1.0, 1.0, 1.0, 1.0, 1.0, 1.0, 1.0, 1.0, 1.0, 1.0, 1.0, 1.0, 1.0, 1.0, 1.0, 1.0, 1.0, 1.0, 1.0, 1.0, 1.0, 1.0, 1.0, 1.0, 1.0, 1.0, 1.0, 1.0]

>  <TempFactor>  (783) 
[49.16, 50.65, 59.43, 46.46, 58.44, 57.93, 50.07, 43.93, 50.57, 60.46, 51.52, 50.9, 45.67, 43.54, 43.98, 44.86, 44.03, 44.64, 44.87, 49.8, 58.55, 43.97, 57.73, 55.84, 59.19, 44.52, 53.05, 49.04, 46.38, 44.56, 45.51, 26.59, 45.13]

>  <accession>  (783) 
5GSW_A

>  <description>  (783) 
Chain A, 3C protein [Enterovirus A71]

>  <evalue>  (783) 
4.6634199999999997e-58

>  <pdb_code>  (783) 
5GSW

>  <chain>  (783) 
A

>  <ligands>  (783) 
[{'chain_id': 'A', 'author_residue_number': 201, 'author_insertion_code': '', 'chem_comp_id': '5GI', 'alternate_conformers': 0, 'entity_id': 2, 'struct_asym_id': 'F', 'residue_number': 1, 'chem_comp_name': '~{N}-[(2~{S})-3-(4-fluorophenyl)-1-oxidanylidene-1-[[(2~{S})-1-oxidanylidene-3-[(3~{S})-2-oxidanylidenepiperidin-3-yl]propan-2-yl]amino]propan-2-yl]-5-methyl-1,2-oxazole-3-carboxamide', 'weight': 444.456, 'carbohydrate_polymer': False, 'branch_name': ''}, {'chain_id': 'B', 'author_residue_number': 201, 'author_insertion_code': '', 'chem_comp_id': '5GI', 'alternate_conformers': 0, 'entity_id': 2, 'struct_asym_id': 'G', 'residue_number': 1, 'chem_comp_name': '~{N}-[(2~{S})-3-(4-fluorophenyl)-1-oxidanylidene-1-[[(2~{S})-1-oxidanylidene-3-[(3~{S})-2-oxidanylidenepiperidin-3-yl]propan-2-yl]amino]propan-2-yl]-5-methyl-1,2-oxazole-3-carboxamide', 'weight': 444.456, 'carbohydrate_polymer': False, 'branch_name': ''}, {'chain_id': 'C', 'author_residue_number': 201, 'author_insertion_code': '', 'chem_comp_id': '5GI', 'alternate_conformers': 0, 'entity_id': 2, 'struct_asym_id': 'H', 'residue_number': 1, 'chem_comp_name': '~{N}-[(2~{S})-3-(4-fluorophenyl)-1-oxidanylidene-1-[[(2~{S})-1-oxidanylidene-3-[(3~{S})-2-oxidanylidenepiperidin-3-yl]propan-2-yl]amino]propan-2-yl]-5-methyl-1,2-oxazole-3-carboxamide', 'weight': 444.456, 'carbohydrate_polymer': False, 'branch_name': ''}, {'chain_id': 'D', 'author_residue_number': 201, 'author_insertion_code': '', 'chem_comp_id': '5GI', 'alternate_conformers': 0, 'entity_id': 2, 'struct_asym_id': 'I', 'residue_number': 1, 'chem_comp_name': '~{N}-[(2~{S})-3-(4-fluorophenyl)-1-oxidanylidene-1-[[(2~{S})-1-oxidanylidene-3-[(3~{S})-2-oxidanylidenepiperidin-3-yl]propan-2-yl]amino]propan-2-yl]-5-methyl-1,2-oxazole-3-carboxamide', 'weight': 444.456, 'carbohydrate_polymer': False, 'branch_name': ''}, {'chain_id': 'E', 'author_residue_number': 201, 'author_insertion_code': '', 'chem_comp_id': '5GI', 'alternate_conformers': 0, 'entity_id': 2, 'struct_asym_id': 'J', 'residue_number': 1, 'chem_comp_name': '~{N}-[(2~{S})-3-(4-fluorophenyl)-1-oxidanylidene-1-[[(2~{S})-1-oxidanylidene-3-[(3~{S})-2-oxidanylidenepiperidin-3-yl]propan-2-yl]amino]propan-2-yl]-5-methyl-1,2-oxazole-3-carboxamide', 'weight': 444.456, 'carbohydrate_polymer': False, 'branch_name': ''}]

>  <ligand_codes>  (783) 
['5GI', '5GI', '5GI', '5GI', '5GI']

>  <cofactor_codes>  (783) 
[]

>  <has_cofactor>  (783) 
False

>  <covalent>  (783) 
True

>  <base_name>  (783) 
5GSW

>  <lig_resn>  (783) 
5GI

>  <lig_resi>  (783) 
201

>  <lig_chain>  (783) 
A

>  <lig_segi>  (783) 
F

>  <lig_alt>  (783) 


>  <polymer_chain>  (783) 
A

>  <single_smiles>  (783) 
Cc1onc(c1)C(=O)N[C@@H](Cc2ccc(F)cc2)C(=O)N[C@@H](C[C@@H]3CCCNC3=O)C=O

$$$$
5GIP2S20
     RDKit          3D

 17 18  0  0  0  0  0  0  0  0999 V2000
   -7.8050    9.9270  -32.5350 C   0  0  0  0  0  0  0  0  0  0  0  0
   -8.1730    9.9490  -34.0130 C   0  0  1  0  0  0  0  0  0  0  0  0
   -9.0340   11.0510  -34.2690 N   0  0  0  0  0  0  0  0  0  0  0  0
   -8.6530    8.7000  -34.7540 C   0  0  1  0  0  0  0  0  0  0  0  0
   -9.6480    8.6280  -34.0830 R   0  0  0  0  0  2  0  0  0  0  0  0
   -8.6310   12.3040  -34.7780 C   0  0  0  0  0  0  0  0  0  0  0  0
   -8.2950    8.5760  -35.9070 O   0  0  0  0  0  0  0  0  0  0  0  0
   -9.6710   13.3510  -34.9850 C   0  0  0  0  0  0  0  0  0  0  0  0
   -7.4990   12.5560  -35.0400 O   0  0  0  0  0  0  0  0  0  0  0  0
  -10.1810   13.2340  -36.3950 C   0  0  0  0  0  0  0  0  0  0  0  0
  -11.5500   13.8850  -36.5470 C   0  0  0  0  0  0  0  0  0  0  0  0
  -12.5600   13.5520  -35.7150 C   0  0  0  0  0  0  0  0  0  0  0  0
  -11.7250   14.8280  -37.5440 C   0  0  0  0  0  0  0  0  0  0  0  0
  -13.7800   14.1620  -35.8710 C   0  0  0  0  0  0  0  0  0  0  0  0
  -12.9370   15.4400  -37.6840 C   0  0  0  0  0  0  0  0  0  0  0  0
  -13.9420   15.1070  -36.8650 C   0  0  0  0  0  0  0  0  0  0  0  0
  -15.0890   15.7090  -37.0320 F   0  0  0  0  0  0  0  0  0  0  0  0
  2  1  1  6
  3  2  1  0
  4  2  1  0
  2  5  1  0
  6  3  1  0
  4  7  1  6
  4  5  1  0
  8  6  1  0
  6  9  1  0
  8 10  1  6
 10 11  1  0
 11 12  1  0
 11 13  1  0
 12 14  1  0
 13 15  1  0
 14 16  1  0
 16 15  1  0
 16 17  1  0
M  RAD  1   5   2
V    5 *
A    2
 C18
A    3
 N4 
A    4
 C15
A    5
 X  
A    6
 C3 
A    7
 O2 
A    9
 O3 
A   10
 C2 
A   11
 C5 
A   12
 C6 
A   13
 C7 
A   14
 C8 
A   15
 C10
A   16
 C9 
A   17
 F1 
M  END
>  <XChem_code>  (784) 
5GI§2

>  <Occupancy>  (784) 
[1.0, 1.0, 1.0, 1.0, 1.0, 1.0, 1.0, 1.0, 1.0, 1.0, 1.0, 1.0, 1.0, 1.0, 1.0, 1.0, 1.0, 1.0, 1.0, 1.0, 1.0, 1.0, 1.0, 1.0, 1.0, 1.0, 1.0, 1.0, 1.0, 1.0, 1.0, 1.0, 1.0]

>  <TempFactor>  (784) 
[49.16, 50.65, 59.43, 46.46, 58.44, 57.93, 50.07, 43.93, 50.57, 60.46, 51.52, 50.9, 45.67, 43.54, 43.98, 44.86, 44.03, 44.64, 44.87, 49.8, 58.55, 43.97, 57.73, 55.84, 59.19, 44.52, 53.05, 49.04, 46.38, 44.56, 45.51, 26.59, 45.13]

>  <accession>  (784) 
5GSW_A

>  <description>  (784) 
Chain A, 3C protein [Enterovirus A71]

>  <evalue>  (784) 
4.6634199999999997e-58

>  <pdb_code>  (784) 
5GSW

>  <chain>  (784) 
A

>  <ligands>  (784) 
[{'chain_id': 'A', 'author_residue_number': 201, 'author_insertion_code': '', 'chem_comp_id': '5GI', 'alternate_conformers': 0, 'entity_id': 2, 'struct_asym_id': 'F', 'residue_number': 1, 'chem_comp_name': '~{N}-[(2~{S})-3-(4-fluorophenyl)-1-oxidanylidene-1-[[(2~{S})-1-oxidanylidene-3-[(3~{S})-2-oxidanylidenepiperidin-3-yl]propan-2-yl]amino]propan-2-yl]-5-methyl-1,2-oxazole-3-carboxamide', 'weight': 444.456, 'carbohydrate_polymer': False, 'branch_name': ''}, {'chain_id': 'B', 'author_residue_number': 201, 'author_insertion_code': '', 'chem_comp_id': '5GI', 'alternate_conformers': 0, 'entity_id': 2, 'struct_asym_id': 'G', 'residue_number': 1, 'chem_comp_name': '~{N}-[(2~{S})-3-(4-fluorophenyl)-1-oxidanylidene-1-[[(2~{S})-1-oxidanylidene-3-[(3~{S})-2-oxidanylidenepiperidin-3-yl]propan-2-yl]amino]propan-2-yl]-5-methyl-1,2-oxazole-3-carboxamide', 'weight': 444.456, 'carbohydrate_polymer': False, 'branch_name': ''}, {'chain_id': 'C', 'author_residue_number': 201, 'author_insertion_code': '', 'chem_comp_id': '5GI', 'alternate_conformers': 0, 'entity_id': 2, 'struct_asym_id': 'H', 'residue_number': 1, 'chem_comp_name': '~{N}-[(2~{S})-3-(4-fluorophenyl)-1-oxidanylidene-1-[[(2~{S})-1-oxidanylidene-3-[(3~{S})-2-oxidanylidenepiperidin-3-yl]propan-2-yl]amino]propan-2-yl]-5-methyl-1,2-oxazole-3-carboxamide', 'weight': 444.456, 'carbohydrate_polymer': False, 'branch_name': ''}, {'chain_id': 'D', 'author_residue_number': 201, 'author_insertion_code': '', 'chem_comp_id': '5GI', 'alternate_conformers': 0, 'entity_id': 2, 'struct_asym_id': 'I', 'residue_number': 1, 'chem_comp_name': '~{N}-[(2~{S})-3-(4-fluorophenyl)-1-oxidanylidene-1-[[(2~{S})-1-oxidanylidene-3-[(3~{S})-2-oxidanylidenepiperidin-3-yl]propan-2-yl]amino]propan-2-yl]-5-methyl-1,2-oxazole-3-carboxamide', 'weight': 444.456, 'carbohydrate_polymer': False, 'branch_name': ''}, {'chain_id': 'E', 'author_residue_number': 201, 'author_insertion_code': '', 'chem_comp_id': '5GI', 'alternate_conformers': 0, 'entity_id': 2, 'struct_asym_id': 'J', 'residue_number': 1, 'chem_comp_name': '~{N}-[(2~{S})-3-(4-fluorophenyl)-1-oxidanylidene-1-[[(2~{S})-1-oxidanylidene-3-[(3~{S})-2-oxidanylidenepiperidin-3-yl]propan-2-yl]amino]propan-2-yl]-5-methyl-1,2-oxazole-3-carboxamide', 'weight': 444.456, 'carbohydrate_polymer': False, 'branch_name': ''}]

>  <ligand_codes>  (784) 
['5GI', '5GI', '5GI', '5GI', '5GI']

>  <cofactor_codes>  (784) 
[]

>  <has_cofactor>  (784) 
False

>  <covalent>  (784) 
True

>  <base_name>  (784) 
5GSW

>  <lig_resn>  (784) 
5GI

>  <lig_resi>  (784) 
201

>  <lig_chain>  (784) 
A

>  <lig_segi>  (784) 
F

>  <lig_alt>  (784) 


>  <polymer_chain>  (784) 
A

>  <single_smiles>  (784) 
Cc1onc(c1)C(=O)N[C@@H](Cc2ccc(F)cc2)C(=O)N[C@@H](C[C@@H]3CCCNC3=O)C=O

$$$$
5GIP2S21
     RDKit          3D

  6  6  0  0  0  0  0  0  0  0999 V2000
   -7.8050    9.9270  -32.5350 C   0  0  0  0  0  0  0  0  0  0  0  0
   -8.1730    9.9490  -34.0130 C   0  0  1  0  0  0  0  0  0  0  0  0
   -9.0340   11.0510  -34.2690 N   0  0  0  0  0  0  0  0  0  0  0  0
   -8.6530    8.7000  -34.7540 C   0  0  1  0  0  0  0  0  0  0  0  0
   -9.6480    8.6280  -34.0830 R   0  0  0  0  0  2  0  0  0  0  0  0
   -8.2950    8.5760  -35.9070 O   0  0  0  0  0  0  0  0  0  0  0  0
  2  1  1  6
  3  2  1  0
  4  2  1  0
  2  5  1  0
  4  6  1  6
  4  5  1  0
M  RAD  1   5   2
V    5 *
A    2
 C18
A    4
 C15
A    5
 X  
A    6
 O2 
M  END
>  <XChem_code>  (785) 
5GI§2

>  <Occupancy>  (785) 
[1.0, 1.0, 1.0, 1.0, 1.0, 1.0, 1.0, 1.0, 1.0, 1.0, 1.0, 1.0, 1.0, 1.0, 1.0, 1.0, 1.0, 1.0, 1.0, 1.0, 1.0, 1.0, 1.0, 1.0, 1.0, 1.0, 1.0, 1.0, 1.0, 1.0, 1.0, 1.0, 1.0]

>  <TempFactor>  (785) 
[49.16, 50.65, 59.43, 46.46, 58.44, 57.93, 50.07, 43.93, 50.57, 60.46, 51.52, 50.9, 45.67, 43.54, 43.98, 44.86, 44.03, 44.64, 44.87, 49.8, 58.55, 43.97, 57.73, 55.84, 59.19, 44.52, 53.05, 49.04, 46.38, 44.56, 45.51, 26.59, 45.13]

>  <accession>  (785) 
5GSW_A

>  <description>  (785) 
Chain A, 3C protein [Enterovirus A71]

>  <evalue>  (785) 
4.6634199999999997e-58

>  <pdb_code>  (785) 
5GSW

>  <chain>  (785) 
A

>  <ligands>  (785) 
[{'chain_id': 'A', 'author_residue_number': 201, 'author_insertion_code': '', 'chem_comp_id': '5GI', 'alternate_conformers': 0, 'entity_id': 2, 'struct_asym_id': 'F', 'residue_number': 1, 'chem_comp_name': '~{N}-[(2~{S})-3-(4-fluorophenyl)-1-oxidanylidene-1-[[(2~{S})-1-oxidanylidene-3-[(3~{S})-2-oxidanylidenepiperidin-3-yl]propan-2-yl]amino]propan-2-yl]-5-methyl-1,2-oxazole-3-carboxamide', 'weight': 444.456, 'carbohydrate_polymer': False, 'branch_name': ''}, {'chain_id': 'B', 'author_residue_number': 201, 'author_insertion_code': '', 'chem_comp_id': '5GI', 'alternate_conformers': 0, 'entity_id': 2, 'struct_asym_id': 'G', 'residue_number': 1, 'chem_comp_name': '~{N}-[(2~{S})-3-(4-fluorophenyl)-1-oxidanylidene-1-[[(2~{S})-1-oxidanylidene-3-[(3~{S})-2-oxidanylidenepiperidin-3-yl]propan-2-yl]amino]propan-2-yl]-5-methyl-1,2-oxazole-3-carboxamide', 'weight': 444.456, 'carbohydrate_polymer': False, 'branch_name': ''}, {'chain_id': 'C', 'author_residue_number': 201, 'author_insertion_code': '', 'chem_comp_id': '5GI', 'alternate_conformers': 0, 'entity_id': 2, 'struct_asym_id': 'H', 'residue_number': 1, 'chem_comp_name': '~{N}-[(2~{S})-3-(4-fluorophenyl)-1-oxidanylidene-1-[[(2~{S})-1-oxidanylidene-3-[(3~{S})-2-oxidanylidenepiperidin-3-yl]propan-2-yl]amino]propan-2-yl]-5-methyl-1,2-oxazole-3-carboxamide', 'weight': 444.456, 'carbohydrate_polymer': False, 'branch_name': ''}, {'chain_id': 'D', 'author_residue_number': 201, 'author_insertion_code': '', 'chem_comp_id': '5GI', 'alternate_conformers': 0, 'entity_id': 2, 'struct_asym_id': 'I', 'residue_number': 1, 'chem_comp_name': '~{N}-[(2~{S})-3-(4-fluorophenyl)-1-oxidanylidene-1-[[(2~{S})-1-oxidanylidene-3-[(3~{S})-2-oxidanylidenepiperidin-3-yl]propan-2-yl]amino]propan-2-yl]-5-methyl-1,2-oxazole-3-carboxamide', 'weight': 444.456, 'carbohydrate_polymer': False, 'branch_name': ''}, {'chain_id': 'E', 'author_residue_number': 201, 'author_insertion_code': '', 'chem_comp_id': '5GI', 'alternate_conformers': 0, 'entity_id': 2, 'struct_asym_id': 'J', 'residue_number': 1, 'chem_comp_name': '~{N}-[(2~{S})-3-(4-fluorophenyl)-1-oxidanylidene-1-[[(2~{S})-1-oxidanylidene-3-[(3~{S})-2-oxidanylidenepiperidin-3-yl]propan-2-yl]amino]propan-2-yl]-5-methyl-1,2-oxazole-3-carboxamide', 'weight': 444.456, 'carbohydrate_polymer': False, 'branch_name': ''}]

>  <ligand_codes>  (785) 
['5GI', '5GI', '5GI', '5GI', '5GI']

>  <cofactor_codes>  (785) 
[]

>  <has_cofactor>  (785) 
False

>  <covalent>  (785) 
True

>  <base_name>  (785) 
5GSW

>  <lig_resn>  (785) 
5GI

>  <lig_resi>  (785) 
201

>  <lig_chain>  (785) 
A

>  <lig_segi>  (785) 
F

>  <lig_alt>  (785) 


>  <polymer_chain>  (785) 
A

>  <single_smiles>  (785) 
Cc1onc(c1)C(=O)N[C@@H](Cc2ccc(F)cc2)C(=O)N[C@@H](C[C@@H]3CCCNC3=O)C=O

$$$$
5GIP2S22
     RDKit          3D

 14 14  0  0  0  0  0  0  0  0999 V2000
   -8.7720   15.0010  -33.4870 C   0  0  0  0  0  0  0  0  0  0  0  0
   -8.9930   14.5510  -34.7960 N   0  0  0  0  0  0  0  0  0  0  0  0
   -9.1710   14.3940  -32.5200 O   0  0  0  0  0  0  0  0  0  0  0  0
   -9.6710   13.3510  -34.9850 C   0  0  2  0  0  0  0  0  0  0  0  0
   -8.6310   12.3040  -34.7780 C   0  0  0  0  0  0  0  0  0  0  0  0
  -10.1810   13.2340  -36.3950 C   0  0  0  0  0  0  0  0  0  0  0  0
   -7.4990   12.5560  -35.0400 O   0  0  0  0  0  0  0  0  0  0  0  0
  -11.5500   13.8850  -36.5470 C   0  0  0  0  0  0  0  0  0  0  0  0
  -12.5600   13.5520  -35.7150 C   0  0  0  0  0  0  0  0  0  0  0  0
  -11.7250   14.8280  -37.5440 C   0  0  0  0  0  0  0  0  0  0  0  0
  -13.7800   14.1620  -35.8710 C   0  0  0  0  0  0  0  0  0  0  0  0
  -12.9370   15.4400  -37.6840 C   0  0  0  0  0  0  0  0  0  0  0  0
  -13.9420   15.1070  -36.8650 C   0  0  0  0  0  0  0  0  0  0  0  0
  -15.0890   15.7090  -37.0320 F   0  0  0  0  0  0  0  0  0  0  0  0
  2  1  1  0
  3  1  1  0
  4  2  1  0
  4  5  1  6
  4  6  1  0
  5  7  1  0
  6  8  1  0
  8  9  1  0
  8 10  1  0
  9 11  1  0
 10 12  1  0
 11 13  1  0
 13 12  1  0
 13 14  1  0
A    2
 N1 
A    3
 O4 
A    4
 C1 
A    6
 C2 
A    7
 O3 
A    8
 C5 
A    9
 C6 
A   10
 C7 
A   11
 C8 
A   12
 C10
A   13
 C9 
A   14
 F1 
M  END
>  <XChem_code>  (786) 
5GI§2

>  <Occupancy>  (786) 
[1.0, 1.0, 1.0, 1.0, 1.0, 1.0, 1.0, 1.0, 1.0, 1.0, 1.0, 1.0, 1.0, 1.0, 1.0, 1.0, 1.0, 1.0, 1.0, 1.0, 1.0, 1.0, 1.0, 1.0, 1.0, 1.0, 1.0, 1.0, 1.0, 1.0, 1.0, 1.0, 1.0]

>  <TempFactor>  (786) 
[49.16, 50.65, 59.43, 46.46, 58.44, 57.93, 50.07, 43.93, 50.57, 60.46, 51.52, 50.9, 45.67, 43.54, 43.98, 44.86, 44.03, 44.64, 44.87, 49.8, 58.55, 43.97, 57.73, 55.84, 59.19, 44.52, 53.05, 49.04, 46.38, 44.56, 45.51, 26.59, 45.13]

>  <accession>  (786) 
5GSW_A

>  <description>  (786) 
Chain A, 3C protein [Enterovirus A71]

>  <evalue>  (786) 
4.6634199999999997e-58

>  <pdb_code>  (786) 
5GSW

>  <chain>  (786) 
A

>  <ligands>  (786) 
[{'chain_id': 'A', 'author_residue_number': 201, 'author_insertion_code': '', 'chem_comp_id': '5GI', 'alternate_conformers': 0, 'entity_id': 2, 'struct_asym_id': 'F', 'residue_number': 1, 'chem_comp_name': '~{N}-[(2~{S})-3-(4-fluorophenyl)-1-oxidanylidene-1-[[(2~{S})-1-oxidanylidene-3-[(3~{S})-2-oxidanylidenepiperidin-3-yl]propan-2-yl]amino]propan-2-yl]-5-methyl-1,2-oxazole-3-carboxamide', 'weight': 444.456, 'carbohydrate_polymer': False, 'branch_name': ''}, {'chain_id': 'B', 'author_residue_number': 201, 'author_insertion_code': '', 'chem_comp_id': '5GI', 'alternate_conformers': 0, 'entity_id': 2, 'struct_asym_id': 'G', 'residue_number': 1, 'chem_comp_name': '~{N}-[(2~{S})-3-(4-fluorophenyl)-1-oxidanylidene-1-[[(2~{S})-1-oxidanylidene-3-[(3~{S})-2-oxidanylidenepiperidin-3-yl]propan-2-yl]amino]propan-2-yl]-5-methyl-1,2-oxazole-3-carboxamide', 'weight': 444.456, 'carbohydrate_polymer': False, 'branch_name': ''}, {'chain_id': 'C', 'author_residue_number': 201, 'author_insertion_code': '', 'chem_comp_id': '5GI', 'alternate_conformers': 0, 'entity_id': 2, 'struct_asym_id': 'H', 'residue_number': 1, 'chem_comp_name': '~{N}-[(2~{S})-3-(4-fluorophenyl)-1-oxidanylidene-1-[[(2~{S})-1-oxidanylidene-3-[(3~{S})-2-oxidanylidenepiperidin-3-yl]propan-2-yl]amino]propan-2-yl]-5-methyl-1,2-oxazole-3-carboxamide', 'weight': 444.456, 'carbohydrate_polymer': False, 'branch_name': ''}, {'chain_id': 'D', 'author_residue_number': 201, 'author_insertion_code': '', 'chem_comp_id': '5GI', 'alternate_conformers': 0, 'entity_id': 2, 'struct_asym_id': 'I', 'residue_number': 1, 'chem_comp_name': '~{N}-[(2~{S})-3-(4-fluorophenyl)-1-oxidanylidene-1-[[(2~{S})-1-oxidanylidene-3-[(3~{S})-2-oxidanylidenepiperidin-3-yl]propan-2-yl]amino]propan-2-yl]-5-methyl-1,2-oxazole-3-carboxamide', 'weight': 444.456, 'carbohydrate_polymer': False, 'branch_name': ''}, {'chain_id': 'E', 'author_residue_number': 201, 'author_insertion_code': '', 'chem_comp_id': '5GI', 'alternate_conformers': 0, 'entity_id': 2, 'struct_asym_id': 'J', 'residue_number': 1, 'chem_comp_name': '~{N}-[(2~{S})-3-(4-fluorophenyl)-1-oxidanylidene-1-[[(2~{S})-1-oxidanylidene-3-[(3~{S})-2-oxidanylidenepiperidin-3-yl]propan-2-yl]amino]propan-2-yl]-5-methyl-1,2-oxazole-3-carboxamide', 'weight': 444.456, 'carbohydrate_polymer': False, 'branch_name': ''}]

>  <ligand_codes>  (786) 
['5GI', '5GI', '5GI', '5GI', '5GI']

>  <cofactor_codes>  (786) 
[]

>  <has_cofactor>  (786) 
False

>  <covalent>  (786) 
True

>  <base_name>  (786) 
5GSW

>  <lig_resn>  (786) 
5GI

>  <lig_resi>  (786) 
201

>  <lig_chain>  (786) 
A

>  <lig_segi>  (786) 
F

>  <lig_alt>  (786) 


>  <polymer_chain>  (786) 
A

>  <single_smiles>  (786) 
Cc1onc(c1)C(=O)N[C@@H](Cc2ccc(F)cc2)C(=O)N[C@@H](C[C@@H]3CCCNC3=O)C=O

$$$$
5GIP2S23
     RDKit          3D

 13 13  0  0  0  0  0  0  0  0999 V2000
  -10.1810   13.2340  -36.3950 C   0  0  0  0  0  0  0  0  0  0  0  0
   -9.6710   13.3510  -34.9850 C   0  0  1  0  0  0  0  0  0  0  0  0
   -8.6310   12.3040  -34.7780 C   0  0  0  0  0  0  0  0  0  0  0  0
   -8.9930   14.5510  -34.7960 N   0  0  0  0  0  0  0  0  0  0  0  0
   -7.4990   12.5560  -35.0400 O   0  0  0  0  0  0  0  0  0  0  0  0
   -8.7720   15.0010  -33.4870 C   0  0  0  0  0  0  0  0  0  0  0  0
   -9.1710   14.3940  -32.5200 O   0  0  0  0  0  0  0  0  0  0  0  0
   -7.9860   16.2730  -33.2750 C   0  0  0  0  0  0  0  0  0  0  0  0
   -7.9700   17.3240  -34.0490 N   0  0  0  0  0  0  0  0  0  0  0  0
   -7.0900   16.5190  -32.1990 C   0  0  0  0  0  0  0  0  0  0  0  0
   -7.1670   18.2380  -33.5600 O   0  0  0  0  0  0  0  0  0  0  0  0
   -6.5960   17.8330  -32.4710 C   0  0  0  0  0  0  0  0  0  0  0  0
   -5.6040   18.6070  -31.6530 C   0  0  0  0  0  0  0  0  0  0  0  0
  2  1  1  6
  2  3  1  0
  2  4  1  0
  3  5  1  0
  4  6  1  0
  7  6  1  0
  6  8  1  0
  9  8  1  0
  8 10  1  0
 11  9  1  0
 10 12  1  0
 11 12  1  0
 13 12  1  0
A    2
 C1 
A    4
 N1 
A    5
 O3 
A    6
 C11
A    7
 O4 
A    8
 C12
A    9
 N2 
A   10
 C14
A   11
 O1 
A   12
 C16
A   13
 C4 
M  END
>  <XChem_code>  (787) 
5GI§2

>  <Occupancy>  (787) 
[1.0, 1.0, 1.0, 1.0, 1.0, 1.0, 1.0, 1.0, 1.0, 1.0, 1.0, 1.0, 1.0, 1.0, 1.0, 1.0, 1.0, 1.0, 1.0, 1.0, 1.0, 1.0, 1.0, 1.0, 1.0, 1.0, 1.0, 1.0, 1.0, 1.0, 1.0, 1.0, 1.0]

>  <TempFactor>  (787) 
[49.16, 50.65, 59.43, 46.46, 58.44, 57.93, 50.07, 43.93, 50.57, 60.46, 51.52, 50.9, 45.67, 43.54, 43.98, 44.86, 44.03, 44.64, 44.87, 49.8, 58.55, 43.97, 57.73, 55.84, 59.19, 44.52, 53.05, 49.04, 46.38, 44.56, 45.51, 26.59, 45.13]

>  <accession>  (787) 
5GSW_A

>  <description>  (787) 
Chain A, 3C protein [Enterovirus A71]

>  <evalue>  (787) 
4.6634199999999997e-58

>  <pdb_code>  (787) 
5GSW

>  <chain>  (787) 
A

>  <ligands>  (787) 
[{'chain_id': 'A', 'author_residue_number': 201, 'author_insertion_code': '', 'chem_comp_id': '5GI', 'alternate_conformers': 0, 'entity_id': 2, 'struct_asym_id': 'F', 'residue_number': 1, 'chem_comp_name': '~{N}-[(2~{S})-3-(4-fluorophenyl)-1-oxidanylidene-1-[[(2~{S})-1-oxidanylidene-3-[(3~{S})-2-oxidanylidenepiperidin-3-yl]propan-2-yl]amino]propan-2-yl]-5-methyl-1,2-oxazole-3-carboxamide', 'weight': 444.456, 'carbohydrate_polymer': False, 'branch_name': ''}, {'chain_id': 'B', 'author_residue_number': 201, 'author_insertion_code': '', 'chem_comp_id': '5GI', 'alternate_conformers': 0, 'entity_id': 2, 'struct_asym_id': 'G', 'residue_number': 1, 'chem_comp_name': '~{N}-[(2~{S})-3-(4-fluorophenyl)-1-oxidanylidene-1-[[(2~{S})-1-oxidanylidene-3-[(3~{S})-2-oxidanylidenepiperidin-3-yl]propan-2-yl]amino]propan-2-yl]-5-methyl-1,2-oxazole-3-carboxamide', 'weight': 444.456, 'carbohydrate_polymer': False, 'branch_name': ''}, {'chain_id': 'C', 'author_residue_number': 201, 'author_insertion_code': '', 'chem_comp_id': '5GI', 'alternate_conformers': 0, 'entity_id': 2, 'struct_asym_id': 'H', 'residue_number': 1, 'chem_comp_name': '~{N}-[(2~{S})-3-(4-fluorophenyl)-1-oxidanylidene-1-[[(2~{S})-1-oxidanylidene-3-[(3~{S})-2-oxidanylidenepiperidin-3-yl]propan-2-yl]amino]propan-2-yl]-5-methyl-1,2-oxazole-3-carboxamide', 'weight': 444.456, 'carbohydrate_polymer': False, 'branch_name': ''}, {'chain_id': 'D', 'author_residue_number': 201, 'author_insertion_code': '', 'chem_comp_id': '5GI', 'alternate_conformers': 0, 'entity_id': 2, 'struct_asym_id': 'I', 'residue_number': 1, 'chem_comp_name': '~{N}-[(2~{S})-3-(4-fluorophenyl)-1-oxidanylidene-1-[[(2~{S})-1-oxidanylidene-3-[(3~{S})-2-oxidanylidenepiperidin-3-yl]propan-2-yl]amino]propan-2-yl]-5-methyl-1,2-oxazole-3-carboxamide', 'weight': 444.456, 'carbohydrate_polymer': False, 'branch_name': ''}, {'chain_id': 'E', 'author_residue_number': 201, 'author_insertion_code': '', 'chem_comp_id': '5GI', 'alternate_conformers': 0, 'entity_id': 2, 'struct_asym_id': 'J', 'residue_number': 1, 'chem_comp_name': '~{N}-[(2~{S})-3-(4-fluorophenyl)-1-oxidanylidene-1-[[(2~{S})-1-oxidanylidene-3-[(3~{S})-2-oxidanylidenepiperidin-3-yl]propan-2-yl]amino]propan-2-yl]-5-methyl-1,2-oxazole-3-carboxamide', 'weight': 444.456, 'carbohydrate_polymer': False, 'branch_name': ''}]

>  <ligand_codes>  (787) 
['5GI', '5GI', '5GI', '5GI', '5GI']

>  <cofactor_codes>  (787) 
[]

>  <has_cofactor>  (787) 
False

>  <covalent>  (787) 
True

>  <base_name>  (787) 
5GSW

>  <lig_resn>  (787) 
5GI

>  <lig_resi>  (787) 
201

>  <lig_chain>  (787) 
A

>  <lig_segi>  (787) 
F

>  <lig_alt>  (787) 


>  <polymer_chain>  (787) 
A

>  <single_smiles>  (787) 
Cc1onc(c1)C(=O)N[C@@H](Cc2ccc(F)cc2)C(=O)N[C@@H](C[C@@H]3CCCNC3=O)C=O

$$$$
5GIP2S24
     RDKit          3D

 18 19  0  0  0  0  0  0  0  0999 V2000
  -10.1810   13.2340  -36.3950 C   0  0  0  0  0  0  0  0  0  0  0  0
   -9.6710   13.3510  -34.9850 C   0  0  2  0  0  0  0  0  0  0  0  0
   -8.9930   14.5510  -34.7960 N   0  0  0  0  0  0  0  0  0  0  0  0
   -8.6310   12.3040  -34.7780 C   0  0  0  0  0  0  0  0  0  0  0  0
   -7.4990   12.5560  -35.0400 O   0  0  0  0  0  0  0  0  0  0  0  0
   -9.0340   11.0510  -34.2690 N   0  0  0  0  0  0  0  0  0  0  0  0
   -8.1730    9.9490  -34.0130 C   0  0  1  0  0  0  0  0  0  0  0  0
   -8.6530    8.7000  -34.7540 C   0  0  1  0  0  0  0  0  0  0  0  0
   -7.8050    9.9270  -32.5350 C   0  0  0  0  0  0  0  0  0  0  0  0
   -9.6480    8.6280  -34.0830 R   0  0  0  0  0  2  0  0  0  0  0  0
   -8.2950    8.5760  -35.9070 O   0  0  0  0  0  0  0  0  0  0  0  0
   -7.2790   11.1660  -31.7440 C   0  0  1  0  0  0  0  0  0  0  0  0
   -6.7840   10.6750  -30.4020 C   0  0  1  0  0  0  0  0  0  0  0  0
   -6.1590   11.8760  -32.4020 C   0  0  0  0  0  0  0  0  0  0  0  0
   -6.1150   11.6600  -29.5560 N   0  0  0  0  0  0  0  0  0  0  0  0
   -7.8430   10.1480  -29.7250 O   0  0  0  0  0  0  0  0  0  0  0  0
   -5.7020   13.0220  -31.6100 C   0  0  0  0  0  0  0  0  0  0  0  0
   -5.2060   12.5720  -30.2480 C   0  0  0  0  0  0  0  0  0  0  0  0
  2  1  1  6
  2  3  1  0
  2  4  1  0
  4  5  1  0
  4  6  1  0
  6  7  1  0
  8  7  1  0
  7  9  1  6
  7 10  1  0
  8 11  1  6
  8 10  1  0
 12  9  1  6
 12 13  1  0
 12 14  1  0
 15 13  1  0
 13 16  1  1
 17 14  1  0
 15 18  1  0
 18 17  1  0
M  RAD  1  10   2
V   10 *
A    2
 C1 
A    4
 C3 
A    5
 O3 
A    6
 N4 
A    7
 C18
A    8
 C15
A    9
 C19
A   10
 X  
A   11
 O2 
A   12
 C20
A   13
 C21
A   14
 C22
A   15
 N3 
A   16
 O5 
A   17
 C17
A   18
 C13
M  END
>  <XChem_code>  (788) 
5GI§2

>  <Occupancy>  (788) 
[1.0, 1.0, 1.0, 1.0, 1.0, 1.0, 1.0, 1.0, 1.0, 1.0, 1.0, 1.0, 1.0, 1.0, 1.0, 1.0, 1.0, 1.0, 1.0, 1.0, 1.0, 1.0, 1.0, 1.0, 1.0, 1.0, 1.0, 1.0, 1.0, 1.0, 1.0, 1.0, 1.0]

>  <TempFactor>  (788) 
[49.16, 50.65, 59.43, 46.46, 58.44, 57.93, 50.07, 43.93, 50.57, 60.46, 51.52, 50.9, 45.67, 43.54, 43.98, 44.86, 44.03, 44.64, 44.87, 49.8, 58.55, 43.97, 57.73, 55.84, 59.19, 44.52, 53.05, 49.04, 46.38, 44.56, 45.51, 26.59, 45.13]

>  <accession>  (788) 
5GSW_A

>  <description>  (788) 
Chain A, 3C protein [Enterovirus A71]

>  <evalue>  (788) 
4.6634199999999997e-58

>  <pdb_code>  (788) 
5GSW

>  <chain>  (788) 
A

>  <ligands>  (788) 
[{'chain_id': 'A', 'author_residue_number': 201, 'author_insertion_code': '', 'chem_comp_id': '5GI', 'alternate_conformers': 0, 'entity_id': 2, 'struct_asym_id': 'F', 'residue_number': 1, 'chem_comp_name': '~{N}-[(2~{S})-3-(4-fluorophenyl)-1-oxidanylidene-1-[[(2~{S})-1-oxidanylidene-3-[(3~{S})-2-oxidanylidenepiperidin-3-yl]propan-2-yl]amino]propan-2-yl]-5-methyl-1,2-oxazole-3-carboxamide', 'weight': 444.456, 'carbohydrate_polymer': False, 'branch_name': ''}, {'chain_id': 'B', 'author_residue_number': 201, 'author_insertion_code': '', 'chem_comp_id': '5GI', 'alternate_conformers': 0, 'entity_id': 2, 'struct_asym_id': 'G', 'residue_number': 1, 'chem_comp_name': '~{N}-[(2~{S})-3-(4-fluorophenyl)-1-oxidanylidene-1-[[(2~{S})-1-oxidanylidene-3-[(3~{S})-2-oxidanylidenepiperidin-3-yl]propan-2-yl]amino]propan-2-yl]-5-methyl-1,2-oxazole-3-carboxamide', 'weight': 444.456, 'carbohydrate_polymer': False, 'branch_name': ''}, {'chain_id': 'C', 'author_residue_number': 201, 'author_insertion_code': '', 'chem_comp_id': '5GI', 'alternate_conformers': 0, 'entity_id': 2, 'struct_asym_id': 'H', 'residue_number': 1, 'chem_comp_name': '~{N}-[(2~{S})-3-(4-fluorophenyl)-1-oxidanylidene-1-[[(2~{S})-1-oxidanylidene-3-[(3~{S})-2-oxidanylidenepiperidin-3-yl]propan-2-yl]amino]propan-2-yl]-5-methyl-1,2-oxazole-3-carboxamide', 'weight': 444.456, 'carbohydrate_polymer': False, 'branch_name': ''}, {'chain_id': 'D', 'author_residue_number': 201, 'author_insertion_code': '', 'chem_comp_id': '5GI', 'alternate_conformers': 0, 'entity_id': 2, 'struct_asym_id': 'I', 'residue_number': 1, 'chem_comp_name': '~{N}-[(2~{S})-3-(4-fluorophenyl)-1-oxidanylidene-1-[[(2~{S})-1-oxidanylidene-3-[(3~{S})-2-oxidanylidenepiperidin-3-yl]propan-2-yl]amino]propan-2-yl]-5-methyl-1,2-oxazole-3-carboxamide', 'weight': 444.456, 'carbohydrate_polymer': False, 'branch_name': ''}, {'chain_id': 'E', 'author_residue_number': 201, 'author_insertion_code': '', 'chem_comp_id': '5GI', 'alternate_conformers': 0, 'entity_id': 2, 'struct_asym_id': 'J', 'residue_number': 1, 'chem_comp_name': '~{N}-[(2~{S})-3-(4-fluorophenyl)-1-oxidanylidene-1-[[(2~{S})-1-oxidanylidene-3-[(3~{S})-2-oxidanylidenepiperidin-3-yl]propan-2-yl]amino]propan-2-yl]-5-methyl-1,2-oxazole-3-carboxamide', 'weight': 444.456, 'carbohydrate_polymer': False, 'branch_name': ''}]

>  <ligand_codes>  (788) 
['5GI', '5GI', '5GI', '5GI', '5GI']

>  <cofactor_codes>  (788) 
[]

>  <has_cofactor>  (788) 
False

>  <covalent>  (788) 
True

>  <base_name>  (788) 
5GSW

>  <lig_resn>  (788) 
5GI

>  <lig_resi>  (788) 
201

>  <lig_chain>  (788) 
A

>  <lig_segi>  (788) 
F

>  <lig_alt>  (788) 


>  <polymer_chain>  (788) 
A

>  <single_smiles>  (788) 
Cc1onc(c1)C(=O)N[C@@H](Cc2ccc(F)cc2)C(=O)N[C@@H](C[C@@H]3CCCNC3=O)C=O

$$$$
5GIP2S25
     RDKit          3D

 18 19  0  0  0  0  0  0  0  0999 V2000
   -7.8050    9.9270  -32.5350 C   0  0  0  0  0  0  0  0  0  0  0  0
   -8.1730    9.9490  -34.0130 C   0  0  1  0  0  0  0  0  0  0  0  0
   -9.0340   11.0510  -34.2690 N   0  0  0  0  0  0  0  0  0  0  0  0
   -8.6530    8.7000  -34.7540 C   0  0  1  0  0  0  0  0  0  0  0  0
   -9.6480    8.6280  -34.0830 R   0  0  0  0  0  2  0  0  0  0  0  0
   -8.6310   12.3040  -34.7780 C   0  0  0  0  0  0  0  0  0  0  0  0
   -8.2950    8.5760  -35.9070 O   0  0  0  0  0  0  0  0  0  0  0  0
   -9.6710   13.3510  -34.9850 C   0  0  1  0  0  0  0  0  0  0  0  0
   -7.4990   12.5560  -35.0400 O   0  0  0  0  0  0  0  0  0  0  0  0
   -8.9930   14.5510  -34.7960 N   0  0  0  0  0  0  0  0  0  0  0  0
  -10.1810   13.2340  -36.3950 C   0  0  0  0  0  0  0  0  0  0  0  0
  -11.5500   13.8850  -36.5470 C   0  0  0  0  0  0  0  0  0  0  0  0
  -12.5600   13.5520  -35.7150 C   0  0  0  0  0  0  0  0  0  0  0  0
  -11.7250   14.8280  -37.5440 C   0  0  0  0  0  0  0  0  0  0  0  0
  -13.7800   14.1620  -35.8710 C   0  0  0  0  0  0  0  0  0  0  0  0
  -12.9370   15.4400  -37.6840 C   0  0  0  0  0  0  0  0  0  0  0  0
  -13.9420   15.1070  -36.8650 C   0  0  0  0  0  0  0  0  0  0  0  0
  -15.0890   15.7090  -37.0320 F   0  0  0  0  0  0  0  0  0  0  0  0
  2  1  1  6
  3  2  1  0
  4  2  1  0
  2  5  1  0
  6  3  1  0
  4  7  1  6
  4  5  1  0
  8  6  1  0
  6  9  1  0
  8 10  1  6
  8 11  1  0
 11 12  1  0
 12 13  1  0
 12 14  1  0
 13 15  1  0
 14 16  1  0
 15 17  1  0
 17 16  1  0
 17 18  1  0
M  RAD  1   5   2
V    5 *
A    2
 C18
A    3
 N4 
A    4
 C15
A    5
 X  
A    6
 C3 
A    7
 O2 
A    8
 C1 
A    9
 O3 
A   11
 C2 
A   12
 C5 
A   13
 C6 
A   14
 C7 
A   15
 C8 
A   16
 C10
A   17
 C9 
A   18
 F1 
M  END
>  <XChem_code>  (789) 
5GI§2

>  <Occupancy>  (789) 
[1.0, 1.0, 1.0, 1.0, 1.0, 1.0, 1.0, 1.0, 1.0, 1.0, 1.0, 1.0, 1.0, 1.0, 1.0, 1.0, 1.0, 1.0, 1.0, 1.0, 1.0, 1.0, 1.0, 1.0, 1.0, 1.0, 1.0, 1.0, 1.0, 1.0, 1.0, 1.0, 1.0]

>  <TempFactor>  (789) 
[49.16, 50.65, 59.43, 46.46, 58.44, 57.93, 50.07, 43.93, 50.57, 60.46, 51.52, 50.9, 45.67, 43.54, 43.98, 44.86, 44.03, 44.64, 44.87, 49.8, 58.55, 43.97, 57.73, 55.84, 59.19, 44.52, 53.05, 49.04, 46.38, 44.56, 45.51, 26.59, 45.13]

>  <accession>  (789) 
5GSW_A

>  <description>  (789) 
Chain A, 3C protein [Enterovirus A71]

>  <evalue>  (789) 
4.6634199999999997e-58

>  <pdb_code>  (789) 
5GSW

>  <chain>  (789) 
A

>  <ligands>  (789) 
[{'chain_id': 'A', 'author_residue_number': 201, 'author_insertion_code': '', 'chem_comp_id': '5GI', 'alternate_conformers': 0, 'entity_id': 2, 'struct_asym_id': 'F', 'residue_number': 1, 'chem_comp_name': '~{N}-[(2~{S})-3-(4-fluorophenyl)-1-oxidanylidene-1-[[(2~{S})-1-oxidanylidene-3-[(3~{S})-2-oxidanylidenepiperidin-3-yl]propan-2-yl]amino]propan-2-yl]-5-methyl-1,2-oxazole-3-carboxamide', 'weight': 444.456, 'carbohydrate_polymer': False, 'branch_name': ''}, {'chain_id': 'B', 'author_residue_number': 201, 'author_insertion_code': '', 'chem_comp_id': '5GI', 'alternate_conformers': 0, 'entity_id': 2, 'struct_asym_id': 'G', 'residue_number': 1, 'chem_comp_name': '~{N}-[(2~{S})-3-(4-fluorophenyl)-1-oxidanylidene-1-[[(2~{S})-1-oxidanylidene-3-[(3~{S})-2-oxidanylidenepiperidin-3-yl]propan-2-yl]amino]propan-2-yl]-5-methyl-1,2-oxazole-3-carboxamide', 'weight': 444.456, 'carbohydrate_polymer': False, 'branch_name': ''}, {'chain_id': 'C', 'author_residue_number': 201, 'author_insertion_code': '', 'chem_comp_id': '5GI', 'alternate_conformers': 0, 'entity_id': 2, 'struct_asym_id': 'H', 'residue_number': 1, 'chem_comp_name': '~{N}-[(2~{S})-3-(4-fluorophenyl)-1-oxidanylidene-1-[[(2~{S})-1-oxidanylidene-3-[(3~{S})-2-oxidanylidenepiperidin-3-yl]propan-2-yl]amino]propan-2-yl]-5-methyl-1,2-oxazole-3-carboxamide', 'weight': 444.456, 'carbohydrate_polymer': False, 'branch_name': ''}, {'chain_id': 'D', 'author_residue_number': 201, 'author_insertion_code': '', 'chem_comp_id': '5GI', 'alternate_conformers': 0, 'entity_id': 2, 'struct_asym_id': 'I', 'residue_number': 1, 'chem_comp_name': '~{N}-[(2~{S})-3-(4-fluorophenyl)-1-oxidanylidene-1-[[(2~{S})-1-oxidanylidene-3-[(3~{S})-2-oxidanylidenepiperidin-3-yl]propan-2-yl]amino]propan-2-yl]-5-methyl-1,2-oxazole-3-carboxamide', 'weight': 444.456, 'carbohydrate_polymer': False, 'branch_name': ''}, {'chain_id': 'E', 'author_residue_number': 201, 'author_insertion_code': '', 'chem_comp_id': '5GI', 'alternate_conformers': 0, 'entity_id': 2, 'struct_asym_id': 'J', 'residue_number': 1, 'chem_comp_name': '~{N}-[(2~{S})-3-(4-fluorophenyl)-1-oxidanylidene-1-[[(2~{S})-1-oxidanylidene-3-[(3~{S})-2-oxidanylidenepiperidin-3-yl]propan-2-yl]amino]propan-2-yl]-5-methyl-1,2-oxazole-3-carboxamide', 'weight': 444.456, 'carbohydrate_polymer': False, 'branch_name': ''}]

>  <ligand_codes>  (789) 
['5GI', '5GI', '5GI', '5GI', '5GI']

>  <cofactor_codes>  (789) 
[]

>  <has_cofactor>  (789) 
False

>  <covalent>  (789) 
True

>  <base_name>  (789) 
5GSW

>  <lig_resn>  (789) 
5GI

>  <lig_resi>  (789) 
201

>  <lig_chain>  (789) 
A

>  <lig_segi>  (789) 
F

>  <lig_alt>  (789) 


>  <polymer_chain>  (789) 
A

>  <single_smiles>  (789) 
Cc1onc(c1)C(=O)N[C@@H](Cc2ccc(F)cc2)C(=O)N[C@@H](C[C@@H]3CCCNC3=O)C=O

$$$$
5GIP2S26
     RDKit          3D

  5  5  0  0  0  0  0  0  0  0999 V2000
   -7.8050    9.9270  -32.5350 C   0  0  0  0  0  0  0  0  0  0  0  0
   -8.1730    9.9490  -34.0130 C   0  0  1  0  0  0  0  0  0  0  0  0
   -8.6530    8.7000  -34.7540 C   0  0  1  0  0  0  0  0  0  0  0  0
   -9.6480    8.6280  -34.0830 R   0  0  0  0  0  2  0  0  0  0  0  0
   -8.2950    8.5760  -35.9070 O   0  0  0  0  0  0  0  0  0  0  0  0
  2  1  1  6
  3  2  1  0
  2  4  1  0
  3  5  1  6
  3  4  1  0
M  RAD  1   4   2
V    4 *
A    3
 C15
A    4
 X  
A    5
 O2 
M  END
>  <XChem_code>  (790) 
5GI§2

>  <Occupancy>  (790) 
[1.0, 1.0, 1.0, 1.0, 1.0, 1.0, 1.0, 1.0, 1.0, 1.0, 1.0, 1.0, 1.0, 1.0, 1.0, 1.0, 1.0, 1.0, 1.0, 1.0, 1.0, 1.0, 1.0, 1.0, 1.0, 1.0, 1.0, 1.0, 1.0, 1.0, 1.0, 1.0, 1.0]

>  <TempFactor>  (790) 
[49.16, 50.65, 59.43, 46.46, 58.44, 57.93, 50.07, 43.93, 50.57, 60.46, 51.52, 50.9, 45.67, 43.54, 43.98, 44.86, 44.03, 44.64, 44.87, 49.8, 58.55, 43.97, 57.73, 55.84, 59.19, 44.52, 53.05, 49.04, 46.38, 44.56, 45.51, 26.59, 45.13]

>  <accession>  (790) 
5GSW_A

>  <description>  (790) 
Chain A, 3C protein [Enterovirus A71]

>  <evalue>  (790) 
4.6634199999999997e-58

>  <pdb_code>  (790) 
5GSW

>  <chain>  (790) 
A

>  <ligands>  (790) 
[{'chain_id': 'A', 'author_residue_number': 201, 'author_insertion_code': '', 'chem_comp_id': '5GI', 'alternate_conformers': 0, 'entity_id': 2, 'struct_asym_id': 'F', 'residue_number': 1, 'chem_comp_name': '~{N}-[(2~{S})-3-(4-fluorophenyl)-1-oxidanylidene-1-[[(2~{S})-1-oxidanylidene-3-[(3~{S})-2-oxidanylidenepiperidin-3-yl]propan-2-yl]amino]propan-2-yl]-5-methyl-1,2-oxazole-3-carboxamide', 'weight': 444.456, 'carbohydrate_polymer': False, 'branch_name': ''}, {'chain_id': 'B', 'author_residue_number': 201, 'author_insertion_code': '', 'chem_comp_id': '5GI', 'alternate_conformers': 0, 'entity_id': 2, 'struct_asym_id': 'G', 'residue_number': 1, 'chem_comp_name': '~{N}-[(2~{S})-3-(4-fluorophenyl)-1-oxidanylidene-1-[[(2~{S})-1-oxidanylidene-3-[(3~{S})-2-oxidanylidenepiperidin-3-yl]propan-2-yl]amino]propan-2-yl]-5-methyl-1,2-oxazole-3-carboxamide', 'weight': 444.456, 'carbohydrate_polymer': False, 'branch_name': ''}, {'chain_id': 'C', 'author_residue_number': 201, 'author_insertion_code': '', 'chem_comp_id': '5GI', 'alternate_conformers': 0, 'entity_id': 2, 'struct_asym_id': 'H', 'residue_number': 1, 'chem_comp_name': '~{N}-[(2~{S})-3-(4-fluorophenyl)-1-oxidanylidene-1-[[(2~{S})-1-oxidanylidene-3-[(3~{S})-2-oxidanylidenepiperidin-3-yl]propan-2-yl]amino]propan-2-yl]-5-methyl-1,2-oxazole-3-carboxamide', 'weight': 444.456, 'carbohydrate_polymer': False, 'branch_name': ''}, {'chain_id': 'D', 'author_residue_number': 201, 'author_insertion_code': '', 'chem_comp_id': '5GI', 'alternate_conformers': 0, 'entity_id': 2, 'struct_asym_id': 'I', 'residue_number': 1, 'chem_comp_name': '~{N}-[(2~{S})-3-(4-fluorophenyl)-1-oxidanylidene-1-[[(2~{S})-1-oxidanylidene-3-[(3~{S})-2-oxidanylidenepiperidin-3-yl]propan-2-yl]amino]propan-2-yl]-5-methyl-1,2-oxazole-3-carboxamide', 'weight': 444.456, 'carbohydrate_polymer': False, 'branch_name': ''}, {'chain_id': 'E', 'author_residue_number': 201, 'author_insertion_code': '', 'chem_comp_id': '5GI', 'alternate_conformers': 0, 'entity_id': 2, 'struct_asym_id': 'J', 'residue_number': 1, 'chem_comp_name': '~{N}-[(2~{S})-3-(4-fluorophenyl)-1-oxidanylidene-1-[[(2~{S})-1-oxidanylidene-3-[(3~{S})-2-oxidanylidenepiperidin-3-yl]propan-2-yl]amino]propan-2-yl]-5-methyl-1,2-oxazole-3-carboxamide', 'weight': 444.456, 'carbohydrate_polymer': False, 'branch_name': ''}]

>  <ligand_codes>  (790) 
['5GI', '5GI', '5GI', '5GI', '5GI']

>  <cofactor_codes>  (790) 
[]

>  <has_cofactor>  (790) 
False

>  <covalent>  (790) 
True

>  <base_name>  (790) 
5GSW

>  <lig_resn>  (790) 
5GI

>  <lig_resi>  (790) 
201

>  <lig_chain>  (790) 
A

>  <lig_segi>  (790) 
F

>  <lig_alt>  (790) 


>  <polymer_chain>  (790) 
A

>  <single_smiles>  (790) 
Cc1onc(c1)C(=O)N[C@@H](Cc2ccc(F)cc2)C(=O)N[C@@H](C[C@@H]3CCCNC3=O)C=O

$$$$
5GIP2S27
     RDKit          3D

 15 15  0  0  0  0  0  0  0  0999 V2000
   -8.7720   15.0010  -33.4870 C   0  0  0  0  0  0  0  0  0  0  0  0
   -8.9930   14.5510  -34.7960 N   0  0  0  0  0  0  0  0  0  0  0  0
   -9.1710   14.3940  -32.5200 O   0  0  0  0  0  0  0  0  0  0  0  0
   -9.6710   13.3510  -34.9850 C   0  0  2  0  0  0  0  0  0  0  0  0
   -8.6310   12.3040  -34.7780 C   0  0  0  0  0  0  0  0  0  0  0  0
  -10.1810   13.2340  -36.3950 C   0  0  0  0  0  0  0  0  0  0  0  0
   -9.0340   11.0510  -34.2690 N   0  0  0  0  0  0  0  0  0  0  0  0
   -7.4990   12.5560  -35.0400 O   0  0  0  0  0  0  0  0  0  0  0  0
  -11.5500   13.8850  -36.5470 C   0  0  0  0  0  0  0  0  0  0  0  0
  -12.5600   13.5520  -35.7150 C   0  0  0  0  0  0  0  0  0  0  0  0
  -11.7250   14.8280  -37.5440 C   0  0  0  0  0  0  0  0  0  0  0  0
  -13.7800   14.1620  -35.8710 C   0  0  0  0  0  0  0  0  0  0  0  0
  -12.9370   15.4400  -37.6840 C   0  0  0  0  0  0  0  0  0  0  0  0
  -13.9420   15.1070  -36.8650 C   0  0  0  0  0  0  0  0  0  0  0  0
  -15.0890   15.7090  -37.0320 F   0  0  0  0  0  0  0  0  0  0  0  0
  2  1  1  0
  3  1  1  0
  4  2  1  0
  4  5  1  0
  4  6  1  6
  5  7  1  0
  5  8  1  0
  6  9  1  0
  9 10  1  0
  9 11  1  0
 10 12  1  0
 11 13  1  0
 12 14  1  0
 14 13  1  0
 14 15  1  0
A    2
 N1 
A    3
 O4 
A    4
 C1 
A    5
 C3 
A    6
 C2 
A    8
 O3 
A    9
 C5 
A   10
 C6 
A   11
 C7 
A   12
 C8 
A   13
 C10
A   14
 C9 
A   15
 F1 
M  END
>  <XChem_code>  (791) 
5GI§2

>  <Occupancy>  (791) 
[1.0, 1.0, 1.0, 1.0, 1.0, 1.0, 1.0, 1.0, 1.0, 1.0, 1.0, 1.0, 1.0, 1.0, 1.0, 1.0, 1.0, 1.0, 1.0, 1.0, 1.0, 1.0, 1.0, 1.0, 1.0, 1.0, 1.0, 1.0, 1.0, 1.0, 1.0, 1.0, 1.0]

>  <TempFactor>  (791) 
[49.16, 50.65, 59.43, 46.46, 58.44, 57.93, 50.07, 43.93, 50.57, 60.46, 51.52, 50.9, 45.67, 43.54, 43.98, 44.86, 44.03, 44.64, 44.87, 49.8, 58.55, 43.97, 57.73, 55.84, 59.19, 44.52, 53.05, 49.04, 46.38, 44.56, 45.51, 26.59, 45.13]

>  <accession>  (791) 
5GSW_A

>  <description>  (791) 
Chain A, 3C protein [Enterovirus A71]

>  <evalue>  (791) 
4.6634199999999997e-58

>  <pdb_code>  (791) 
5GSW

>  <chain>  (791) 
A

>  <ligands>  (791) 
[{'chain_id': 'A', 'author_residue_number': 201, 'author_insertion_code': '', 'chem_comp_id': '5GI', 'alternate_conformers': 0, 'entity_id': 2, 'struct_asym_id': 'F', 'residue_number': 1, 'chem_comp_name': '~{N}-[(2~{S})-3-(4-fluorophenyl)-1-oxidanylidene-1-[[(2~{S})-1-oxidanylidene-3-[(3~{S})-2-oxidanylidenepiperidin-3-yl]propan-2-yl]amino]propan-2-yl]-5-methyl-1,2-oxazole-3-carboxamide', 'weight': 444.456, 'carbohydrate_polymer': False, 'branch_name': ''}, {'chain_id': 'B', 'author_residue_number': 201, 'author_insertion_code': '', 'chem_comp_id': '5GI', 'alternate_conformers': 0, 'entity_id': 2, 'struct_asym_id': 'G', 'residue_number': 1, 'chem_comp_name': '~{N}-[(2~{S})-3-(4-fluorophenyl)-1-oxidanylidene-1-[[(2~{S})-1-oxidanylidene-3-[(3~{S})-2-oxidanylidenepiperidin-3-yl]propan-2-yl]amino]propan-2-yl]-5-methyl-1,2-oxazole-3-carboxamide', 'weight': 444.456, 'carbohydrate_polymer': False, 'branch_name': ''}, {'chain_id': 'C', 'author_residue_number': 201, 'author_insertion_code': '', 'chem_comp_id': '5GI', 'alternate_conformers': 0, 'entity_id': 2, 'struct_asym_id': 'H', 'residue_number': 1, 'chem_comp_name': '~{N}-[(2~{S})-3-(4-fluorophenyl)-1-oxidanylidene-1-[[(2~{S})-1-oxidanylidene-3-[(3~{S})-2-oxidanylidenepiperidin-3-yl]propan-2-yl]amino]propan-2-yl]-5-methyl-1,2-oxazole-3-carboxamide', 'weight': 444.456, 'carbohydrate_polymer': False, 'branch_name': ''}, {'chain_id': 'D', 'author_residue_number': 201, 'author_insertion_code': '', 'chem_comp_id': '5GI', 'alternate_conformers': 0, 'entity_id': 2, 'struct_asym_id': 'I', 'residue_number': 1, 'chem_comp_name': '~{N}-[(2~{S})-3-(4-fluorophenyl)-1-oxidanylidene-1-[[(2~{S})-1-oxidanylidene-3-[(3~{S})-2-oxidanylidenepiperidin-3-yl]propan-2-yl]amino]propan-2-yl]-5-methyl-1,2-oxazole-3-carboxamide', 'weight': 444.456, 'carbohydrate_polymer': False, 'branch_name': ''}, {'chain_id': 'E', 'author_residue_number': 201, 'author_insertion_code': '', 'chem_comp_id': '5GI', 'alternate_conformers': 0, 'entity_id': 2, 'struct_asym_id': 'J', 'residue_number': 1, 'chem_comp_name': '~{N}-[(2~{S})-3-(4-fluorophenyl)-1-oxidanylidene-1-[[(2~{S})-1-oxidanylidene-3-[(3~{S})-2-oxidanylidenepiperidin-3-yl]propan-2-yl]amino]propan-2-yl]-5-methyl-1,2-oxazole-3-carboxamide', 'weight': 444.456, 'carbohydrate_polymer': False, 'branch_name': ''}]

>  <ligand_codes>  (791) 
['5GI', '5GI', '5GI', '5GI', '5GI']

>  <cofactor_codes>  (791) 
[]

>  <has_cofactor>  (791) 
False

>  <covalent>  (791) 
True

>  <base_name>  (791) 
5GSW

>  <lig_resn>  (791) 
5GI

>  <lig_resi>  (791) 
201

>  <lig_chain>  (791) 
A

>  <lig_segi>  (791) 
F

>  <lig_alt>  (791) 


>  <polymer_chain>  (791) 
A

>  <single_smiles>  (791) 
Cc1onc(c1)C(=O)N[C@@H](Cc2ccc(F)cc2)C(=O)N[C@@H](C[C@@H]3CCCNC3=O)C=O

$$$$
5GIP2S28
     RDKit          3D

 14 14  0  0  0  0  0  0  0  0999 V2000
  -10.1810   13.2340  -36.3950 C   0  0  0  0  0  0  0  0  0  0  0  0
   -9.6710   13.3510  -34.9850 C   0  0  1  0  0  0  0  0  0  0  0  0
   -8.6310   12.3040  -34.7780 C   0  0  0  0  0  0  0  0  0  0  0  0
   -8.9930   14.5510  -34.7960 N   0  0  0  0  0  0  0  0  0  0  0  0
   -9.0340   11.0510  -34.2690 N   0  0  0  0  0  0  0  0  0  0  0  0
   -7.4990   12.5560  -35.0400 O   0  0  0  0  0  0  0  0  0  0  0  0
   -8.7720   15.0010  -33.4870 C   0  0  0  0  0  0  0  0  0  0  0  0
   -9.1710   14.3940  -32.5200 O   0  0  0  0  0  0  0  0  0  0  0  0
   -7.9860   16.2730  -33.2750 C   0  0  0  0  0  0  0  0  0  0  0  0
   -7.9700   17.3240  -34.0490 N   0  0  0  0  0  0  0  0  0  0  0  0
   -7.0900   16.5190  -32.1990 C   0  0  0  0  0  0  0  0  0  0  0  0
   -7.1670   18.2380  -33.5600 O   0  0  0  0  0  0  0  0  0  0  0  0
   -6.5960   17.8330  -32.4710 C   0  0  0  0  0  0  0  0  0  0  0  0
   -5.6040   18.6070  -31.6530 C   0  0  0  0  0  0  0  0  0  0  0  0
  2  1  1  6
  2  3  1  0
  2  4  1  0
  3  5  1  0
  3  6  1  0
  4  7  1  0
  8  7  1  0
  7  9  1  0
 10  9  1  0
  9 11  1  0
 12 10  1  0
 11 13  1  0
 12 13  1  0
 14 13  1  0
A    2
 C1 
A    3
 C3 
A    4
 N1 
A    6
 O3 
A    7
 C11
A    8
 O4 
A    9
 C12
A   10
 N2 
A   11
 C14
A   12
 O1 
A   13
 C16
A   14
 C4 
M  END
>  <XChem_code>  (792) 
5GI§2

>  <Occupancy>  (792) 
[1.0, 1.0, 1.0, 1.0, 1.0, 1.0, 1.0, 1.0, 1.0, 1.0, 1.0, 1.0, 1.0, 1.0, 1.0, 1.0, 1.0, 1.0, 1.0, 1.0, 1.0, 1.0, 1.0, 1.0, 1.0, 1.0, 1.0, 1.0, 1.0, 1.0, 1.0, 1.0, 1.0]

>  <TempFactor>  (792) 
[49.16, 50.65, 59.43, 46.46, 58.44, 57.93, 50.07, 43.93, 50.57, 60.46, 51.52, 50.9, 45.67, 43.54, 43.98, 44.86, 44.03, 44.64, 44.87, 49.8, 58.55, 43.97, 57.73, 55.84, 59.19, 44.52, 53.05, 49.04, 46.38, 44.56, 45.51, 26.59, 45.13]

>  <accession>  (792) 
5GSW_A

>  <description>  (792) 
Chain A, 3C protein [Enterovirus A71]

>  <evalue>  (792) 
4.6634199999999997e-58

>  <pdb_code>  (792) 
5GSW

>  <chain>  (792) 
A

>  <ligands>  (792) 
[{'chain_id': 'A', 'author_residue_number': 201, 'author_insertion_code': '', 'chem_comp_id': '5GI', 'alternate_conformers': 0, 'entity_id': 2, 'struct_asym_id': 'F', 'residue_number': 1, 'chem_comp_name': '~{N}-[(2~{S})-3-(4-fluorophenyl)-1-oxidanylidene-1-[[(2~{S})-1-oxidanylidene-3-[(3~{S})-2-oxidanylidenepiperidin-3-yl]propan-2-yl]amino]propan-2-yl]-5-methyl-1,2-oxazole-3-carboxamide', 'weight': 444.456, 'carbohydrate_polymer': False, 'branch_name': ''}, {'chain_id': 'B', 'author_residue_number': 201, 'author_insertion_code': '', 'chem_comp_id': '5GI', 'alternate_conformers': 0, 'entity_id': 2, 'struct_asym_id': 'G', 'residue_number': 1, 'chem_comp_name': '~{N}-[(2~{S})-3-(4-fluorophenyl)-1-oxidanylidene-1-[[(2~{S})-1-oxidanylidene-3-[(3~{S})-2-oxidanylidenepiperidin-3-yl]propan-2-yl]amino]propan-2-yl]-5-methyl-1,2-oxazole-3-carboxamide', 'weight': 444.456, 'carbohydrate_polymer': False, 'branch_name': ''}, {'chain_id': 'C', 'author_residue_number': 201, 'author_insertion_code': '', 'chem_comp_id': '5GI', 'alternate_conformers': 0, 'entity_id': 2, 'struct_asym_id': 'H', 'residue_number': 1, 'chem_comp_name': '~{N}-[(2~{S})-3-(4-fluorophenyl)-1-oxidanylidene-1-[[(2~{S})-1-oxidanylidene-3-[(3~{S})-2-oxidanylidenepiperidin-3-yl]propan-2-yl]amino]propan-2-yl]-5-methyl-1,2-oxazole-3-carboxamide', 'weight': 444.456, 'carbohydrate_polymer': False, 'branch_name': ''}, {'chain_id': 'D', 'author_residue_number': 201, 'author_insertion_code': '', 'chem_comp_id': '5GI', 'alternate_conformers': 0, 'entity_id': 2, 'struct_asym_id': 'I', 'residue_number': 1, 'chem_comp_name': '~{N}-[(2~{S})-3-(4-fluorophenyl)-1-oxidanylidene-1-[[(2~{S})-1-oxidanylidene-3-[(3~{S})-2-oxidanylidenepiperidin-3-yl]propan-2-yl]amino]propan-2-yl]-5-methyl-1,2-oxazole-3-carboxamide', 'weight': 444.456, 'carbohydrate_polymer': False, 'branch_name': ''}, {'chain_id': 'E', 'author_residue_number': 201, 'author_insertion_code': '', 'chem_comp_id': '5GI', 'alternate_conformers': 0, 'entity_id': 2, 'struct_asym_id': 'J', 'residue_number': 1, 'chem_comp_name': '~{N}-[(2~{S})-3-(4-fluorophenyl)-1-oxidanylidene-1-[[(2~{S})-1-oxidanylidene-3-[(3~{S})-2-oxidanylidenepiperidin-3-yl]propan-2-yl]amino]propan-2-yl]-5-methyl-1,2-oxazole-3-carboxamide', 'weight': 444.456, 'carbohydrate_polymer': False, 'branch_name': ''}]

>  <ligand_codes>  (792) 
['5GI', '5GI', '5GI', '5GI', '5GI']

>  <cofactor_codes>  (792) 
[]

>  <has_cofactor>  (792) 
False

>  <covalent>  (792) 
True

>  <base_name>  (792) 
5GSW

>  <lig_resn>  (792) 
5GI

>  <lig_resi>  (792) 
201

>  <lig_chain>  (792) 
A

>  <lig_segi>  (792) 
F

>  <lig_alt>  (792) 


>  <polymer_chain>  (792) 
A

>  <single_smiles>  (792) 
Cc1onc(c1)C(=O)N[C@@H](Cc2ccc(F)cc2)C(=O)N[C@@H](C[C@@H]3CCCNC3=O)C=O

$$$$
5GIP2S29
     RDKit          3D

  4  3  0  0  0  0  0  0  0  0999 V2000
  -10.1810   13.2340  -36.3950 C   0  0  0  0  0  0  0  0  0  0  0  0
   -9.6710   13.3510  -34.9850 C   0  0  0  0  0  0  0  0  0  0  0  0
   -8.6310   12.3040  -34.7780 C   0  0  0  0  0  0  0  0  0  0  0  0
   -7.4990   12.5560  -35.0400 O   0  0  0  0  0  0  0  0  0  0  0  0
  2  1  1  6
  2  3  1  0
  3  4  1  0
A    4
 O3 
M  END
>  <XChem_code>  (793) 
5GI§2

>  <Occupancy>  (793) 
[1.0, 1.0, 1.0, 1.0, 1.0, 1.0, 1.0, 1.0, 1.0, 1.0, 1.0, 1.0, 1.0, 1.0, 1.0, 1.0, 1.0, 1.0, 1.0, 1.0, 1.0, 1.0, 1.0, 1.0, 1.0, 1.0, 1.0, 1.0, 1.0, 1.0, 1.0, 1.0, 1.0]

>  <TempFactor>  (793) 
[49.16, 50.65, 59.43, 46.46, 58.44, 57.93, 50.07, 43.93, 50.57, 60.46, 51.52, 50.9, 45.67, 43.54, 43.98, 44.86, 44.03, 44.64, 44.87, 49.8, 58.55, 43.97, 57.73, 55.84, 59.19, 44.52, 53.05, 49.04, 46.38, 44.56, 45.51, 26.59, 45.13]

>  <accession>  (793) 
5GSW_A

>  <description>  (793) 
Chain A, 3C protein [Enterovirus A71]

>  <evalue>  (793) 
4.6634199999999997e-58

>  <pdb_code>  (793) 
5GSW

>  <chain>  (793) 
A

>  <ligands>  (793) 
[{'chain_id': 'A', 'author_residue_number': 201, 'author_insertion_code': '', 'chem_comp_id': '5GI', 'alternate_conformers': 0, 'entity_id': 2, 'struct_asym_id': 'F', 'residue_number': 1, 'chem_comp_name': '~{N}-[(2~{S})-3-(4-fluorophenyl)-1-oxidanylidene-1-[[(2~{S})-1-oxidanylidene-3-[(3~{S})-2-oxidanylidenepiperidin-3-yl]propan-2-yl]amino]propan-2-yl]-5-methyl-1,2-oxazole-3-carboxamide', 'weight': 444.456, 'carbohydrate_polymer': False, 'branch_name': ''}, {'chain_id': 'B', 'author_residue_number': 201, 'author_insertion_code': '', 'chem_comp_id': '5GI', 'alternate_conformers': 0, 'entity_id': 2, 'struct_asym_id': 'G', 'residue_number': 1, 'chem_comp_name': '~{N}-[(2~{S})-3-(4-fluorophenyl)-1-oxidanylidene-1-[[(2~{S})-1-oxidanylidene-3-[(3~{S})-2-oxidanylidenepiperidin-3-yl]propan-2-yl]amino]propan-2-yl]-5-methyl-1,2-oxazole-3-carboxamide', 'weight': 444.456, 'carbohydrate_polymer': False, 'branch_name': ''}, {'chain_id': 'C', 'author_residue_number': 201, 'author_insertion_code': '', 'chem_comp_id': '5GI', 'alternate_conformers': 0, 'entity_id': 2, 'struct_asym_id': 'H', 'residue_number': 1, 'chem_comp_name': '~{N}-[(2~{S})-3-(4-fluorophenyl)-1-oxidanylidene-1-[[(2~{S})-1-oxidanylidene-3-[(3~{S})-2-oxidanylidenepiperidin-3-yl]propan-2-yl]amino]propan-2-yl]-5-methyl-1,2-oxazole-3-carboxamide', 'weight': 444.456, 'carbohydrate_polymer': False, 'branch_name': ''}, {'chain_id': 'D', 'author_residue_number': 201, 'author_insertion_code': '', 'chem_comp_id': '5GI', 'alternate_conformers': 0, 'entity_id': 2, 'struct_asym_id': 'I', 'residue_number': 1, 'chem_comp_name': '~{N}-[(2~{S})-3-(4-fluorophenyl)-1-oxidanylidene-1-[[(2~{S})-1-oxidanylidene-3-[(3~{S})-2-oxidanylidenepiperidin-3-yl]propan-2-yl]amino]propan-2-yl]-5-methyl-1,2-oxazole-3-carboxamide', 'weight': 444.456, 'carbohydrate_polymer': False, 'branch_name': ''}, {'chain_id': 'E', 'author_residue_number': 201, 'author_insertion_code': '', 'chem_comp_id': '5GI', 'alternate_conformers': 0, 'entity_id': 2, 'struct_asym_id': 'J', 'residue_number': 1, 'chem_comp_name': '~{N}-[(2~{S})-3-(4-fluorophenyl)-1-oxidanylidene-1-[[(2~{S})-1-oxidanylidene-3-[(3~{S})-2-oxidanylidenepiperidin-3-yl]propan-2-yl]amino]propan-2-yl]-5-methyl-1,2-oxazole-3-carboxamide', 'weight': 444.456, 'carbohydrate_polymer': False, 'branch_name': ''}]

>  <ligand_codes>  (793) 
['5GI', '5GI', '5GI', '5GI', '5GI']

>  <cofactor_codes>  (793) 
[]

>  <has_cofactor>  (793) 
False

>  <covalent>  (793) 
True

>  <base_name>  (793) 
5GSW

>  <lig_resn>  (793) 
5GI

>  <lig_resi>  (793) 
201

>  <lig_chain>  (793) 
A

>  <lig_segi>  (793) 
F

>  <lig_alt>  (793) 


>  <polymer_chain>  (793) 
A

>  <single_smiles>  (793) 
Cc1onc(c1)C(=O)N[C@@H](Cc2ccc(F)cc2)C(=O)N[C@@H](C[C@@H]3CCCNC3=O)C=O

$$$$
5GIP2S30
     RDKit          3D

  5  4  0  0  0  0  0  0  0  0999 V2000
  -10.1810   13.2340  -36.3950 C   0  0  0  0  0  0  0  0  0  0  0  0
   -9.6710   13.3510  -34.9850 C   0  0  0  0  0  0  0  0  0  0  0  0
   -8.6310   12.3040  -34.7780 C   0  0  0  0  0  0  0  0  0  0  0  0
   -9.0340   11.0510  -34.2690 N   0  0  0  0  0  0  0  0  0  0  0  0
   -7.4990   12.5560  -35.0400 O   0  0  0  0  0  0  0  0  0  0  0  0
  2  1  1  6
  2  3  1  0
  3  4  1  0
  3  5  1  0
A    3
 C3 
A    5
 O3 
M  END
>  <XChem_code>  (794) 
5GI§2

>  <Occupancy>  (794) 
[1.0, 1.0, 1.0, 1.0, 1.0, 1.0, 1.0, 1.0, 1.0, 1.0, 1.0, 1.0, 1.0, 1.0, 1.0, 1.0, 1.0, 1.0, 1.0, 1.0, 1.0, 1.0, 1.0, 1.0, 1.0, 1.0, 1.0, 1.0, 1.0, 1.0, 1.0, 1.0, 1.0]

>  <TempFactor>  (794) 
[49.16, 50.65, 59.43, 46.46, 58.44, 57.93, 50.07, 43.93, 50.57, 60.46, 51.52, 50.9, 45.67, 43.54, 43.98, 44.86, 44.03, 44.64, 44.87, 49.8, 58.55, 43.97, 57.73, 55.84, 59.19, 44.52, 53.05, 49.04, 46.38, 44.56, 45.51, 26.59, 45.13]

>  <accession>  (794) 
5GSW_A

>  <description>  (794) 
Chain A, 3C protein [Enterovirus A71]

>  <evalue>  (794) 
4.6634199999999997e-58

>  <pdb_code>  (794) 
5GSW

>  <chain>  (794) 
A

>  <ligands>  (794) 
[{'chain_id': 'A', 'author_residue_number': 201, 'author_insertion_code': '', 'chem_comp_id': '5GI', 'alternate_conformers': 0, 'entity_id': 2, 'struct_asym_id': 'F', 'residue_number': 1, 'chem_comp_name': '~{N}-[(2~{S})-3-(4-fluorophenyl)-1-oxidanylidene-1-[[(2~{S})-1-oxidanylidene-3-[(3~{S})-2-oxidanylidenepiperidin-3-yl]propan-2-yl]amino]propan-2-yl]-5-methyl-1,2-oxazole-3-carboxamide', 'weight': 444.456, 'carbohydrate_polymer': False, 'branch_name': ''}, {'chain_id': 'B', 'author_residue_number': 201, 'author_insertion_code': '', 'chem_comp_id': '5GI', 'alternate_conformers': 0, 'entity_id': 2, 'struct_asym_id': 'G', 'residue_number': 1, 'chem_comp_name': '~{N}-[(2~{S})-3-(4-fluorophenyl)-1-oxidanylidene-1-[[(2~{S})-1-oxidanylidene-3-[(3~{S})-2-oxidanylidenepiperidin-3-yl]propan-2-yl]amino]propan-2-yl]-5-methyl-1,2-oxazole-3-carboxamide', 'weight': 444.456, 'carbohydrate_polymer': False, 'branch_name': ''}, {'chain_id': 'C', 'author_residue_number': 201, 'author_insertion_code': '', 'chem_comp_id': '5GI', 'alternate_conformers': 0, 'entity_id': 2, 'struct_asym_id': 'H', 'residue_number': 1, 'chem_comp_name': '~{N}-[(2~{S})-3-(4-fluorophenyl)-1-oxidanylidene-1-[[(2~{S})-1-oxidanylidene-3-[(3~{S})-2-oxidanylidenepiperidin-3-yl]propan-2-yl]amino]propan-2-yl]-5-methyl-1,2-oxazole-3-carboxamide', 'weight': 444.456, 'carbohydrate_polymer': False, 'branch_name': ''}, {'chain_id': 'D', 'author_residue_number': 201, 'author_insertion_code': '', 'chem_comp_id': '5GI', 'alternate_conformers': 0, 'entity_id': 2, 'struct_asym_id': 'I', 'residue_number': 1, 'chem_comp_name': '~{N}-[(2~{S})-3-(4-fluorophenyl)-1-oxidanylidene-1-[[(2~{S})-1-oxidanylidene-3-[(3~{S})-2-oxidanylidenepiperidin-3-yl]propan-2-yl]amino]propan-2-yl]-5-methyl-1,2-oxazole-3-carboxamide', 'weight': 444.456, 'carbohydrate_polymer': False, 'branch_name': ''}, {'chain_id': 'E', 'author_residue_number': 201, 'author_insertion_code': '', 'chem_comp_id': '5GI', 'alternate_conformers': 0, 'entity_id': 2, 'struct_asym_id': 'J', 'residue_number': 1, 'chem_comp_name': '~{N}-[(2~{S})-3-(4-fluorophenyl)-1-oxidanylidene-1-[[(2~{S})-1-oxidanylidene-3-[(3~{S})-2-oxidanylidenepiperidin-3-yl]propan-2-yl]amino]propan-2-yl]-5-methyl-1,2-oxazole-3-carboxamide', 'weight': 444.456, 'carbohydrate_polymer': False, 'branch_name': ''}]

>  <ligand_codes>  (794) 
['5GI', '5GI', '5GI', '5GI', '5GI']

>  <cofactor_codes>  (794) 
[]

>  <has_cofactor>  (794) 
False

>  <covalent>  (794) 
True

>  <base_name>  (794) 
5GSW

>  <lig_resn>  (794) 
5GI

>  <lig_resi>  (794) 
201

>  <lig_chain>  (794) 
A

>  <lig_segi>  (794) 
F

>  <lig_alt>  (794) 


>  <polymer_chain>  (794) 
A

>  <single_smiles>  (794) 
Cc1onc(c1)C(=O)N[C@@H](Cc2ccc(F)cc2)C(=O)N[C@@H](C[C@@H]3CCCNC3=O)C=O

$$$$
5GIP2S31
     RDKit          3D

  5  4  0  0  0  0  0  0  0  0999 V2000
  -10.1810   13.2340  -36.3950 C   0  0  0  0  0  0  0  0  0  0  0  0
   -9.6710   13.3510  -34.9850 C   0  0  2  0  0  0  0  0  0  0  0  0
   -8.9930   14.5510  -34.7960 N   0  0  0  0  0  0  0  0  0  0  0  0
   -8.6310   12.3040  -34.7780 C   0  0  0  0  0  0  0  0  0  0  0  0
   -7.4990   12.5560  -35.0400 O   0  0  0  0  0  0  0  0  0  0  0  0
  2  1  1  6
  2  3  1  0
  2  4  1  0
  4  5  1  0
A    2
 C1 
A    5
 O3 
M  END
>  <XChem_code>  (795) 
5GI§2

>  <Occupancy>  (795) 
[1.0, 1.0, 1.0, 1.0, 1.0, 1.0, 1.0, 1.0, 1.0, 1.0, 1.0, 1.0, 1.0, 1.0, 1.0, 1.0, 1.0, 1.0, 1.0, 1.0, 1.0, 1.0, 1.0, 1.0, 1.0, 1.0, 1.0, 1.0, 1.0, 1.0, 1.0, 1.0, 1.0]

>  <TempFactor>  (795) 
[49.16, 50.65, 59.43, 46.46, 58.44, 57.93, 50.07, 43.93, 50.57, 60.46, 51.52, 50.9, 45.67, 43.54, 43.98, 44.86, 44.03, 44.64, 44.87, 49.8, 58.55, 43.97, 57.73, 55.84, 59.19, 44.52, 53.05, 49.04, 46.38, 44.56, 45.51, 26.59, 45.13]

>  <accession>  (795) 
5GSW_A

>  <description>  (795) 
Chain A, 3C protein [Enterovirus A71]

>  <evalue>  (795) 
4.6634199999999997e-58

>  <pdb_code>  (795) 
5GSW

>  <chain>  (795) 
A

>  <ligands>  (795) 
[{'chain_id': 'A', 'author_residue_number': 201, 'author_insertion_code': '', 'chem_comp_id': '5GI', 'alternate_conformers': 0, 'entity_id': 2, 'struct_asym_id': 'F', 'residue_number': 1, 'chem_comp_name': '~{N}-[(2~{S})-3-(4-fluorophenyl)-1-oxidanylidene-1-[[(2~{S})-1-oxidanylidene-3-[(3~{S})-2-oxidanylidenepiperidin-3-yl]propan-2-yl]amino]propan-2-yl]-5-methyl-1,2-oxazole-3-carboxamide', 'weight': 444.456, 'carbohydrate_polymer': False, 'branch_name': ''}, {'chain_id': 'B', 'author_residue_number': 201, 'author_insertion_code': '', 'chem_comp_id': '5GI', 'alternate_conformers': 0, 'entity_id': 2, 'struct_asym_id': 'G', 'residue_number': 1, 'chem_comp_name': '~{N}-[(2~{S})-3-(4-fluorophenyl)-1-oxidanylidene-1-[[(2~{S})-1-oxidanylidene-3-[(3~{S})-2-oxidanylidenepiperidin-3-yl]propan-2-yl]amino]propan-2-yl]-5-methyl-1,2-oxazole-3-carboxamide', 'weight': 444.456, 'carbohydrate_polymer': False, 'branch_name': ''}, {'chain_id': 'C', 'author_residue_number': 201, 'author_insertion_code': '', 'chem_comp_id': '5GI', 'alternate_conformers': 0, 'entity_id': 2, 'struct_asym_id': 'H', 'residue_number': 1, 'chem_comp_name': '~{N}-[(2~{S})-3-(4-fluorophenyl)-1-oxidanylidene-1-[[(2~{S})-1-oxidanylidene-3-[(3~{S})-2-oxidanylidenepiperidin-3-yl]propan-2-yl]amino]propan-2-yl]-5-methyl-1,2-oxazole-3-carboxamide', 'weight': 444.456, 'carbohydrate_polymer': False, 'branch_name': ''}, {'chain_id': 'D', 'author_residue_number': 201, 'author_insertion_code': '', 'chem_comp_id': '5GI', 'alternate_conformers': 0, 'entity_id': 2, 'struct_asym_id': 'I', 'residue_number': 1, 'chem_comp_name': '~{N}-[(2~{S})-3-(4-fluorophenyl)-1-oxidanylidene-1-[[(2~{S})-1-oxidanylidene-3-[(3~{S})-2-oxidanylidenepiperidin-3-yl]propan-2-yl]amino]propan-2-yl]-5-methyl-1,2-oxazole-3-carboxamide', 'weight': 444.456, 'carbohydrate_polymer': False, 'branch_name': ''}, {'chain_id': 'E', 'author_residue_number': 201, 'author_insertion_code': '', 'chem_comp_id': '5GI', 'alternate_conformers': 0, 'entity_id': 2, 'struct_asym_id': 'J', 'residue_number': 1, 'chem_comp_name': '~{N}-[(2~{S})-3-(4-fluorophenyl)-1-oxidanylidene-1-[[(2~{S})-1-oxidanylidene-3-[(3~{S})-2-oxidanylidenepiperidin-3-yl]propan-2-yl]amino]propan-2-yl]-5-methyl-1,2-oxazole-3-carboxamide', 'weight': 444.456, 'carbohydrate_polymer': False, 'branch_name': ''}]

>  <ligand_codes>  (795) 
['5GI', '5GI', '5GI', '5GI', '5GI']

>  <cofactor_codes>  (795) 
[]

>  <has_cofactor>  (795) 
False

>  <covalent>  (795) 
True

>  <base_name>  (795) 
5GSW

>  <lig_resn>  (795) 
5GI

>  <lig_resi>  (795) 
201

>  <lig_chain>  (795) 
A

>  <lig_segi>  (795) 
F

>  <lig_alt>  (795) 


>  <polymer_chain>  (795) 
A

>  <single_smiles>  (795) 
Cc1onc(c1)C(=O)N[C@@H](Cc2ccc(F)cc2)C(=O)N[C@@H](C[C@@H]3CCCNC3=O)C=O

$$$$
5GIP2S32
     RDKit          3D

  6  5  0  0  0  0  0  0  0  0999 V2000
  -10.1810   13.2340  -36.3950 C   0  0  0  0  0  0  0  0  0  0  0  0
   -9.6710   13.3510  -34.9850 C   0  0  1  0  0  0  0  0  0  0  0  0
   -8.6310   12.3040  -34.7780 C   0  0  0  0  0  0  0  0  0  0  0  0
   -8.9930   14.5510  -34.7960 N   0  0  0  0  0  0  0  0  0  0  0  0
   -9.0340   11.0510  -34.2690 N   0  0  0  0  0  0  0  0  0  0  0  0
   -7.4990   12.5560  -35.0400 O   0  0  0  0  0  0  0  0  0  0  0  0
  2  1  1  6
  2  3  1  0
  2  4  1  0
  3  5  1  0
  3  6  1  0
A    2
 C1 
A    3
 C3 
A    6
 O3 
M  END
>  <XChem_code>  (796) 
5GI§2

>  <Occupancy>  (796) 
[1.0, 1.0, 1.0, 1.0, 1.0, 1.0, 1.0, 1.0, 1.0, 1.0, 1.0, 1.0, 1.0, 1.0, 1.0, 1.0, 1.0, 1.0, 1.0, 1.0, 1.0, 1.0, 1.0, 1.0, 1.0, 1.0, 1.0, 1.0, 1.0, 1.0, 1.0, 1.0, 1.0]

>  <TempFactor>  (796) 
[49.16, 50.65, 59.43, 46.46, 58.44, 57.93, 50.07, 43.93, 50.57, 60.46, 51.52, 50.9, 45.67, 43.54, 43.98, 44.86, 44.03, 44.64, 44.87, 49.8, 58.55, 43.97, 57.73, 55.84, 59.19, 44.52, 53.05, 49.04, 46.38, 44.56, 45.51, 26.59, 45.13]

>  <accession>  (796) 
5GSW_A

>  <description>  (796) 
Chain A, 3C protein [Enterovirus A71]

>  <evalue>  (796) 
4.6634199999999997e-58

>  <pdb_code>  (796) 
5GSW

>  <chain>  (796) 
A

>  <ligands>  (796) 
[{'chain_id': 'A', 'author_residue_number': 201, 'author_insertion_code': '', 'chem_comp_id': '5GI', 'alternate_conformers': 0, 'entity_id': 2, 'struct_asym_id': 'F', 'residue_number': 1, 'chem_comp_name': '~{N}-[(2~{S})-3-(4-fluorophenyl)-1-oxidanylidene-1-[[(2~{S})-1-oxidanylidene-3-[(3~{S})-2-oxidanylidenepiperidin-3-yl]propan-2-yl]amino]propan-2-yl]-5-methyl-1,2-oxazole-3-carboxamide', 'weight': 444.456, 'carbohydrate_polymer': False, 'branch_name': ''}, {'chain_id': 'B', 'author_residue_number': 201, 'author_insertion_code': '', 'chem_comp_id': '5GI', 'alternate_conformers': 0, 'entity_id': 2, 'struct_asym_id': 'G', 'residue_number': 1, 'chem_comp_name': '~{N}-[(2~{S})-3-(4-fluorophenyl)-1-oxidanylidene-1-[[(2~{S})-1-oxidanylidene-3-[(3~{S})-2-oxidanylidenepiperidin-3-yl]propan-2-yl]amino]propan-2-yl]-5-methyl-1,2-oxazole-3-carboxamide', 'weight': 444.456, 'carbohydrate_polymer': False, 'branch_name': ''}, {'chain_id': 'C', 'author_residue_number': 201, 'author_insertion_code': '', 'chem_comp_id': '5GI', 'alternate_conformers': 0, 'entity_id': 2, 'struct_asym_id': 'H', 'residue_number': 1, 'chem_comp_name': '~{N}-[(2~{S})-3-(4-fluorophenyl)-1-oxidanylidene-1-[[(2~{S})-1-oxidanylidene-3-[(3~{S})-2-oxidanylidenepiperidin-3-yl]propan-2-yl]amino]propan-2-yl]-5-methyl-1,2-oxazole-3-carboxamide', 'weight': 444.456, 'carbohydrate_polymer': False, 'branch_name': ''}, {'chain_id': 'D', 'author_residue_number': 201, 'author_insertion_code': '', 'chem_comp_id': '5GI', 'alternate_conformers': 0, 'entity_id': 2, 'struct_asym_id': 'I', 'residue_number': 1, 'chem_comp_name': '~{N}-[(2~{S})-3-(4-fluorophenyl)-1-oxidanylidene-1-[[(2~{S})-1-oxidanylidene-3-[(3~{S})-2-oxidanylidenepiperidin-3-yl]propan-2-yl]amino]propan-2-yl]-5-methyl-1,2-oxazole-3-carboxamide', 'weight': 444.456, 'carbohydrate_polymer': False, 'branch_name': ''}, {'chain_id': 'E', 'author_residue_number': 201, 'author_insertion_code': '', 'chem_comp_id': '5GI', 'alternate_conformers': 0, 'entity_id': 2, 'struct_asym_id': 'J', 'residue_number': 1, 'chem_comp_name': '~{N}-[(2~{S})-3-(4-fluorophenyl)-1-oxidanylidene-1-[[(2~{S})-1-oxidanylidene-3-[(3~{S})-2-oxidanylidenepiperidin-3-yl]propan-2-yl]amino]propan-2-yl]-5-methyl-1,2-oxazole-3-carboxamide', 'weight': 444.456, 'carbohydrate_polymer': False, 'branch_name': ''}]

>  <ligand_codes>  (796) 
['5GI', '5GI', '5GI', '5GI', '5GI']

>  <cofactor_codes>  (796) 
[]

>  <has_cofactor>  (796) 
False

>  <covalent>  (796) 
True

>  <base_name>  (796) 
5GSW

>  <lig_resn>  (796) 
5GI

>  <lig_resi>  (796) 
201

>  <lig_chain>  (796) 
A

>  <lig_segi>  (796) 
F

>  <lig_alt>  (796) 


>  <polymer_chain>  (796) 
A

>  <single_smiles>  (796) 
Cc1onc(c1)C(=O)N[C@@H](Cc2ccc(F)cc2)C(=O)N[C@@H](C[C@@H]3CCCNC3=O)C=O

$$$$
5GIP2S33
     RDKit          3D

 20 21  0  0  0  0  0  0  0  0999 V2000
  -10.1810   13.2340  -36.3950 C   0  0  0  0  0  0  0  0  0  0  0  0
   -9.6710   13.3510  -34.9850 C   0  0  2  0  0  0  0  0  0  0  0  0
   -8.9930   14.5510  -34.7960 N   0  0  0  0  0  0  0  0  0  0  0  0
   -8.6310   12.3040  -34.7780 C   0  0  0  0  0  0  0  0  0  0  0  0
   -8.7720   15.0010  -33.4870 C   0  0  0  0  0  0  0  0  0  0  0  0
   -7.4990   12.5560  -35.0400 O   0  0  0  0  0  0  0  0  0  0  0  0
   -9.0340   11.0510  -34.2690 N   0  0  0  0  0  0  0  0  0  0  0  0
   -9.1710   14.3940  -32.5200 O   0  0  0  0  0  0  0  0  0  0  0  0
   -8.1730    9.9490  -34.0130 C   0  0  1  0  0  0  0  0  0  0  0  0
   -8.6530    8.7000  -34.7540 C   0  0  1  0  0  0  0  0  0  0  0  0
   -7.8050    9.9270  -32.5350 C   0  0  0  0  0  0  0  0  0  0  0  0
   -9.6480    8.6280  -34.0830 R   0  0  0  0  0  2  0  0  0  0  0  0
   -8.2950    8.5760  -35.9070 O   0  0  0  0  0  0  0  0  0  0  0  0
   -7.2790   11.1660  -31.7440 C   0  0  1  0  0  0  0  0  0  0  0  0
   -6.7840   10.6750  -30.4020 C   0  0  1  0  0  0  0  0  0  0  0  0
   -6.1590   11.8760  -32.4020 C   0  0  0  0  0  0  0  0  0  0  0  0
   -6.1150   11.6600  -29.5560 N   0  0  0  0  0  0  0  0  0  0  0  0
   -7.8430   10.1480  -29.7250 O   0  0  0  0  0  0  0  0  0  0  0  0
   -5.7020   13.0220  -31.6100 C   0  0  0  0  0  0  0  0  0  0  0  0
   -5.2060   12.5720  -30.2480 C   0  0  0  0  0  0  0  0  0  0  0  0
  2  1  1  6
  2  3  1  0
  2  4  1  0
  3  5  1  0
  4  6  1  0
  4  7  1  0
  8  5  1  0
  7  9  1  0
 10  9  1  0
  9 11  1  6
  9 12  1  0
 10 13  1  6
 10 12  1  0
 14 11  1  6
 14 15  1  0
 14 16  1  0
 17 15  1  0
 15 18  1  1
 19 16  1  0
 17 20  1  0
 20 19  1  0
M  RAD  1  12   2
V   12 *
A    2
 C1 
A    3
 N1 
A    4
 C3 
A    6
 O3 
A    7
 N4 
A    8
 O4 
A    9
 C18
A   10
 C15
A   11
 C19
A   12
 X  
A   13
 O2 
A   14
 C20
A   15
 C21
A   16
 C22
A   17
 N3 
A   18
 O5 
A   19
 C17
A   20
 C13
M  END
>  <XChem_code>  (797) 
5GI§2

>  <Occupancy>  (797) 
[1.0, 1.0, 1.0, 1.0, 1.0, 1.0, 1.0, 1.0, 1.0, 1.0, 1.0, 1.0, 1.0, 1.0, 1.0, 1.0, 1.0, 1.0, 1.0, 1.0, 1.0, 1.0, 1.0, 1.0, 1.0, 1.0, 1.0, 1.0, 1.0, 1.0, 1.0, 1.0, 1.0]

>  <TempFactor>  (797) 
[49.16, 50.65, 59.43, 46.46, 58.44, 57.93, 50.07, 43.93, 50.57, 60.46, 51.52, 50.9, 45.67, 43.54, 43.98, 44.86, 44.03, 44.64, 44.87, 49.8, 58.55, 43.97, 57.73, 55.84, 59.19, 44.52, 53.05, 49.04, 46.38, 44.56, 45.51, 26.59, 45.13]

>  <accession>  (797) 
5GSW_A

>  <description>  (797) 
Chain A, 3C protein [Enterovirus A71]

>  <evalue>  (797) 
4.6634199999999997e-58

>  <pdb_code>  (797) 
5GSW

>  <chain>  (797) 
A

>  <ligands>  (797) 
[{'chain_id': 'A', 'author_residue_number': 201, 'author_insertion_code': '', 'chem_comp_id': '5GI', 'alternate_conformers': 0, 'entity_id': 2, 'struct_asym_id': 'F', 'residue_number': 1, 'chem_comp_name': '~{N}-[(2~{S})-3-(4-fluorophenyl)-1-oxidanylidene-1-[[(2~{S})-1-oxidanylidene-3-[(3~{S})-2-oxidanylidenepiperidin-3-yl]propan-2-yl]amino]propan-2-yl]-5-methyl-1,2-oxazole-3-carboxamide', 'weight': 444.456, 'carbohydrate_polymer': False, 'branch_name': ''}, {'chain_id': 'B', 'author_residue_number': 201, 'author_insertion_code': '', 'chem_comp_id': '5GI', 'alternate_conformers': 0, 'entity_id': 2, 'struct_asym_id': 'G', 'residue_number': 1, 'chem_comp_name': '~{N}-[(2~{S})-3-(4-fluorophenyl)-1-oxidanylidene-1-[[(2~{S})-1-oxidanylidene-3-[(3~{S})-2-oxidanylidenepiperidin-3-yl]propan-2-yl]amino]propan-2-yl]-5-methyl-1,2-oxazole-3-carboxamide', 'weight': 444.456, 'carbohydrate_polymer': False, 'branch_name': ''}, {'chain_id': 'C', 'author_residue_number': 201, 'author_insertion_code': '', 'chem_comp_id': '5GI', 'alternate_conformers': 0, 'entity_id': 2, 'struct_asym_id': 'H', 'residue_number': 1, 'chem_comp_name': '~{N}-[(2~{S})-3-(4-fluorophenyl)-1-oxidanylidene-1-[[(2~{S})-1-oxidanylidene-3-[(3~{S})-2-oxidanylidenepiperidin-3-yl]propan-2-yl]amino]propan-2-yl]-5-methyl-1,2-oxazole-3-carboxamide', 'weight': 444.456, 'carbohydrate_polymer': False, 'branch_name': ''}, {'chain_id': 'D', 'author_residue_number': 201, 'author_insertion_code': '', 'chem_comp_id': '5GI', 'alternate_conformers': 0, 'entity_id': 2, 'struct_asym_id': 'I', 'residue_number': 1, 'chem_comp_name': '~{N}-[(2~{S})-3-(4-fluorophenyl)-1-oxidanylidene-1-[[(2~{S})-1-oxidanylidene-3-[(3~{S})-2-oxidanylidenepiperidin-3-yl]propan-2-yl]amino]propan-2-yl]-5-methyl-1,2-oxazole-3-carboxamide', 'weight': 444.456, 'carbohydrate_polymer': False, 'branch_name': ''}, {'chain_id': 'E', 'author_residue_number': 201, 'author_insertion_code': '', 'chem_comp_id': '5GI', 'alternate_conformers': 0, 'entity_id': 2, 'struct_asym_id': 'J', 'residue_number': 1, 'chem_comp_name': '~{N}-[(2~{S})-3-(4-fluorophenyl)-1-oxidanylidene-1-[[(2~{S})-1-oxidanylidene-3-[(3~{S})-2-oxidanylidenepiperidin-3-yl]propan-2-yl]amino]propan-2-yl]-5-methyl-1,2-oxazole-3-carboxamide', 'weight': 444.456, 'carbohydrate_polymer': False, 'branch_name': ''}]

>  <ligand_codes>  (797) 
['5GI', '5GI', '5GI', '5GI', '5GI']

>  <cofactor_codes>  (797) 
[]

>  <has_cofactor>  (797) 
False

>  <covalent>  (797) 
True

>  <base_name>  (797) 
5GSW

>  <lig_resn>  (797) 
5GI

>  <lig_resi>  (797) 
201

>  <lig_chain>  (797) 
A

>  <lig_segi>  (797) 
F

>  <lig_alt>  (797) 


>  <polymer_chain>  (797) 
A

>  <single_smiles>  (797) 
Cc1onc(c1)C(=O)N[C@@H](Cc2ccc(F)cc2)C(=O)N[C@@H](C[C@@H]3CCCNC3=O)C=O

$$$$
5GIP2S34
     RDKit          3D

 20 21  0  0  0  0  0  0  0  0999 V2000
   -7.8050    9.9270  -32.5350 C   0  0  0  0  0  0  0  0  0  0  0  0
   -8.1730    9.9490  -34.0130 C   0  0  1  0  0  0  0  0  0  0  0  0
   -9.0340   11.0510  -34.2690 N   0  0  0  0  0  0  0  0  0  0  0  0
   -8.6530    8.7000  -34.7540 C   0  0  1  0  0  0  0  0  0  0  0  0
   -9.6480    8.6280  -34.0830 R   0  0  0  0  0  2  0  0  0  0  0  0
   -8.6310   12.3040  -34.7780 C   0  0  0  0  0  0  0  0  0  0  0  0
   -8.2950    8.5760  -35.9070 O   0  0  0  0  0  0  0  0  0  0  0  0
   -9.6710   13.3510  -34.9850 C   0  0  1  0  0  0  0  0  0  0  0  0
   -7.4990   12.5560  -35.0400 O   0  0  0  0  0  0  0  0  0  0  0  0
   -8.9930   14.5510  -34.7960 N   0  0  0  0  0  0  0  0  0  0  0  0
  -10.1810   13.2340  -36.3950 C   0  0  0  0  0  0  0  0  0  0  0  0
   -8.7720   15.0010  -33.4870 C   0  0  0  0  0  0  0  0  0  0  0  0
  -11.5500   13.8850  -36.5470 C   0  0  0  0  0  0  0  0  0  0  0  0
   -9.1710   14.3940  -32.5200 O   0  0  0  0  0  0  0  0  0  0  0  0
  -12.5600   13.5520  -35.7150 C   0  0  0  0  0  0  0  0  0  0  0  0
  -11.7250   14.8280  -37.5440 C   0  0  0  0  0  0  0  0  0  0  0  0
  -13.7800   14.1620  -35.8710 C   0  0  0  0  0  0  0  0  0  0  0  0
  -12.9370   15.4400  -37.6840 C   0  0  0  0  0  0  0  0  0  0  0  0
  -13.9420   15.1070  -36.8650 C   0  0  0  0  0  0  0  0  0  0  0  0
  -15.0890   15.7090  -37.0320 F   0  0  0  0  0  0  0  0  0  0  0  0
  2  1  1  6
  3  2  1  0
  4  2  1  0
  2  5  1  0
  6  3  1  0
  4  7  1  6
  4  5  1  0
  8  6  1  0
  6  9  1  0
  8 10  1  0
  8 11  1  6
 10 12  1  0
 11 13  1  0
 14 12  1  0
 13 15  1  0
 13 16  1  0
 15 17  1  0
 16 18  1  0
 17 19  1  0
 19 18  1  0
 19 20  1  0
M  RAD  1   5   2
V    5 *
A    2
 C18
A    3
 N4 
A    4
 C15
A    5
 X  
A    6
 C3 
A    7
 O2 
A    8
 C1 
A    9
 O3 
A   10
 N1 
A   11
 C2 
A   13
 C5 
A   14
 O4 
A   15
 C6 
A   16
 C7 
A   17
 C8 
A   18
 C10
A   19
 C9 
A   20
 F1 
M  END
>  <XChem_code>  (798) 
5GI§2

>  <Occupancy>  (798) 
[1.0, 1.0, 1.0, 1.0, 1.0, 1.0, 1.0, 1.0, 1.0, 1.0, 1.0, 1.0, 1.0, 1.0, 1.0, 1.0, 1.0, 1.0, 1.0, 1.0, 1.0, 1.0, 1.0, 1.0, 1.0, 1.0, 1.0, 1.0, 1.0, 1.0, 1.0, 1.0, 1.0]

>  <TempFactor>  (798) 
[49.16, 50.65, 59.43, 46.46, 58.44, 57.93, 50.07, 43.93, 50.57, 60.46, 51.52, 50.9, 45.67, 43.54, 43.98, 44.86, 44.03, 44.64, 44.87, 49.8, 58.55, 43.97, 57.73, 55.84, 59.19, 44.52, 53.05, 49.04, 46.38, 44.56, 45.51, 26.59, 45.13]

>  <accession>  (798) 
5GSW_A

>  <description>  (798) 
Chain A, 3C protein [Enterovirus A71]

>  <evalue>  (798) 
4.6634199999999997e-58

>  <pdb_code>  (798) 
5GSW

>  <chain>  (798) 
A

>  <ligands>  (798) 
[{'chain_id': 'A', 'author_residue_number': 201, 'author_insertion_code': '', 'chem_comp_id': '5GI', 'alternate_conformers': 0, 'entity_id': 2, 'struct_asym_id': 'F', 'residue_number': 1, 'chem_comp_name': '~{N}-[(2~{S})-3-(4-fluorophenyl)-1-oxidanylidene-1-[[(2~{S})-1-oxidanylidene-3-[(3~{S})-2-oxidanylidenepiperidin-3-yl]propan-2-yl]amino]propan-2-yl]-5-methyl-1,2-oxazole-3-carboxamide', 'weight': 444.456, 'carbohydrate_polymer': False, 'branch_name': ''}, {'chain_id': 'B', 'author_residue_number': 201, 'author_insertion_code': '', 'chem_comp_id': '5GI', 'alternate_conformers': 0, 'entity_id': 2, 'struct_asym_id': 'G', 'residue_number': 1, 'chem_comp_name': '~{N}-[(2~{S})-3-(4-fluorophenyl)-1-oxidanylidene-1-[[(2~{S})-1-oxidanylidene-3-[(3~{S})-2-oxidanylidenepiperidin-3-yl]propan-2-yl]amino]propan-2-yl]-5-methyl-1,2-oxazole-3-carboxamide', 'weight': 444.456, 'carbohydrate_polymer': False, 'branch_name': ''}, {'chain_id': 'C', 'author_residue_number': 201, 'author_insertion_code': '', 'chem_comp_id': '5GI', 'alternate_conformers': 0, 'entity_id': 2, 'struct_asym_id': 'H', 'residue_number': 1, 'chem_comp_name': '~{N}-[(2~{S})-3-(4-fluorophenyl)-1-oxidanylidene-1-[[(2~{S})-1-oxidanylidene-3-[(3~{S})-2-oxidanylidenepiperidin-3-yl]propan-2-yl]amino]propan-2-yl]-5-methyl-1,2-oxazole-3-carboxamide', 'weight': 444.456, 'carbohydrate_polymer': False, 'branch_name': ''}, {'chain_id': 'D', 'author_residue_number': 201, 'author_insertion_code': '', 'chem_comp_id': '5GI', 'alternate_conformers': 0, 'entity_id': 2, 'struct_asym_id': 'I', 'residue_number': 1, 'chem_comp_name': '~{N}-[(2~{S})-3-(4-fluorophenyl)-1-oxidanylidene-1-[[(2~{S})-1-oxidanylidene-3-[(3~{S})-2-oxidanylidenepiperidin-3-yl]propan-2-yl]amino]propan-2-yl]-5-methyl-1,2-oxazole-3-carboxamide', 'weight': 444.456, 'carbohydrate_polymer': False, 'branch_name': ''}, {'chain_id': 'E', 'author_residue_number': 201, 'author_insertion_code': '', 'chem_comp_id': '5GI', 'alternate_conformers': 0, 'entity_id': 2, 'struct_asym_id': 'J', 'residue_number': 1, 'chem_comp_name': '~{N}-[(2~{S})-3-(4-fluorophenyl)-1-oxidanylidene-1-[[(2~{S})-1-oxidanylidene-3-[(3~{S})-2-oxidanylidenepiperidin-3-yl]propan-2-yl]amino]propan-2-yl]-5-methyl-1,2-oxazole-3-carboxamide', 'weight': 444.456, 'carbohydrate_polymer': False, 'branch_name': ''}]

>  <ligand_codes>  (798) 
['5GI', '5GI', '5GI', '5GI', '5GI']

>  <cofactor_codes>  (798) 
[]

>  <has_cofactor>  (798) 
False

>  <covalent>  (798) 
True

>  <base_name>  (798) 
5GSW

>  <lig_resn>  (798) 
5GI

>  <lig_resi>  (798) 
201

>  <lig_chain>  (798) 
A

>  <lig_segi>  (798) 
F

>  <lig_alt>  (798) 


>  <polymer_chain>  (798) 
A

>  <single_smiles>  (798) 
Cc1onc(c1)C(=O)N[C@@H](Cc2ccc(F)cc2)C(=O)N[C@@H](C[C@@H]3CCCNC3=O)C=O

$$$$
5GIP2S35
     RDKit          3D

 19 20  0  0  0  0  0  0  0  0999 V2000
   -7.8050    9.9270  -32.5350 C   0  0  0  0  0  0  0  0  0  0  0  0
   -8.1730    9.9490  -34.0130 C   0  0  1  0  0  0  0  0  0  0  0  0
   -9.0340   11.0510  -34.2690 N   0  0  0  0  0  0  0  0  0  0  0  0
   -8.6530    8.7000  -34.7540 C   0  0  1  0  0  0  0  0  0  0  0  0
   -9.6480    8.6280  -34.0830 R   0  0  0  0  0  2  0  0  0  0  0  0
   -8.6310   12.3040  -34.7780 C   0  0  0  0  0  0  0  0  0  0  0  0
   -8.2950    8.5760  -35.9070 O   0  0  0  0  0  0  0  0  0  0  0  0
   -9.6710   13.3510  -34.9850 C   0  0  2  0  0  0  0  0  0  0  0  0
   -7.4990   12.5560  -35.0400 O   0  0  0  0  0  0  0  0  0  0  0  0
  -10.1810   13.2340  -36.3950 C   0  0  0  0  0  0  0  0  0  0  0  0
   -8.9930   14.5510  -34.7960 N   0  0  0  0  0  0  0  0  0  0  0  0
   -8.7720   15.0010  -33.4870 C   0  0  0  0  0  0  0  0  0  0  0  0
   -9.1710   14.3940  -32.5200 O   0  0  0  0  0  0  0  0  0  0  0  0
   -7.9860   16.2730  -33.2750 C   0  0  0  0  0  0  0  0  0  0  0  0
   -7.9700   17.3240  -34.0490 N   0  0  0  0  0  0  0  0  0  0  0  0
   -7.0900   16.5190  -32.1990 C   0  0  0  0  0  0  0  0  0  0  0  0
   -7.1670   18.2380  -33.5600 O   0  0  0  0  0  0  0  0  0  0  0  0
   -6.5960   17.8330  -32.4710 C   0  0  0  0  0  0  0  0  0  0  0  0
   -5.6040   18.6070  -31.6530 C   0  0  0  0  0  0  0  0  0  0  0  0
  2  1  1  6
  3  2  1  0
  4  2  1  0
  2  5  1  0
  6  3  1  0
  4  7  1  6
  4  5  1  0
  8  6  1  0
  6  9  1  0
  8 10  1  6
  8 11  1  0
 11 12  1  0
 13 12  1  0
 12 14  1  0
 15 14  1  0
 14 16  1  0
 17 15  1  0
 16 18  1  0
 17 18  1  0
 19 18  1  0
M  RAD  1   5   2
V    5 *
A    2
 C18
A    3
 N4 
A    4
 C15
A    5
 X  
A    6
 C3 
A    7
 O2 
A    8
 C1 
A    9
 O3 
A   11
 N1 
A   12
 C11
A   13
 O4 
A   14
 C12
A   15
 N2 
A   16
 C14
A   17
 O1 
A   18
 C16
A   19
 C4 
M  END
>  <XChem_code>  (799) 
5GI§2

>  <Occupancy>  (799) 
[1.0, 1.0, 1.0, 1.0, 1.0, 1.0, 1.0, 1.0, 1.0, 1.0, 1.0, 1.0, 1.0, 1.0, 1.0, 1.0, 1.0, 1.0, 1.0, 1.0, 1.0, 1.0, 1.0, 1.0, 1.0, 1.0, 1.0, 1.0, 1.0, 1.0, 1.0, 1.0, 1.0]

>  <TempFactor>  (799) 
[49.16, 50.65, 59.43, 46.46, 58.44, 57.93, 50.07, 43.93, 50.57, 60.46, 51.52, 50.9, 45.67, 43.54, 43.98, 44.86, 44.03, 44.64, 44.87, 49.8, 58.55, 43.97, 57.73, 55.84, 59.19, 44.52, 53.05, 49.04, 46.38, 44.56, 45.51, 26.59, 45.13]

>  <accession>  (799) 
5GSW_A

>  <description>  (799) 
Chain A, 3C protein [Enterovirus A71]

>  <evalue>  (799) 
4.6634199999999997e-58

>  <pdb_code>  (799) 
5GSW

>  <chain>  (799) 
A

>  <ligands>  (799) 
[{'chain_id': 'A', 'author_residue_number': 201, 'author_insertion_code': '', 'chem_comp_id': '5GI', 'alternate_conformers': 0, 'entity_id': 2, 'struct_asym_id': 'F', 'residue_number': 1, 'chem_comp_name': '~{N}-[(2~{S})-3-(4-fluorophenyl)-1-oxidanylidene-1-[[(2~{S})-1-oxidanylidene-3-[(3~{S})-2-oxidanylidenepiperidin-3-yl]propan-2-yl]amino]propan-2-yl]-5-methyl-1,2-oxazole-3-carboxamide', 'weight': 444.456, 'carbohydrate_polymer': False, 'branch_name': ''}, {'chain_id': 'B', 'author_residue_number': 201, 'author_insertion_code': '', 'chem_comp_id': '5GI', 'alternate_conformers': 0, 'entity_id': 2, 'struct_asym_id': 'G', 'residue_number': 1, 'chem_comp_name': '~{N}-[(2~{S})-3-(4-fluorophenyl)-1-oxidanylidene-1-[[(2~{S})-1-oxidanylidene-3-[(3~{S})-2-oxidanylidenepiperidin-3-yl]propan-2-yl]amino]propan-2-yl]-5-methyl-1,2-oxazole-3-carboxamide', 'weight': 444.456, 'carbohydrate_polymer': False, 'branch_name': ''}, {'chain_id': 'C', 'author_residue_number': 201, 'author_insertion_code': '', 'chem_comp_id': '5GI', 'alternate_conformers': 0, 'entity_id': 2, 'struct_asym_id': 'H', 'residue_number': 1, 'chem_comp_name': '~{N}-[(2~{S})-3-(4-fluorophenyl)-1-oxidanylidene-1-[[(2~{S})-1-oxidanylidene-3-[(3~{S})-2-oxidanylidenepiperidin-3-yl]propan-2-yl]amino]propan-2-yl]-5-methyl-1,2-oxazole-3-carboxamide', 'weight': 444.456, 'carbohydrate_polymer': False, 'branch_name': ''}, {'chain_id': 'D', 'author_residue_number': 201, 'author_insertion_code': '', 'chem_comp_id': '5GI', 'alternate_conformers': 0, 'entity_id': 2, 'struct_asym_id': 'I', 'residue_number': 1, 'chem_comp_name': '~{N}-[(2~{S})-3-(4-fluorophenyl)-1-oxidanylidene-1-[[(2~{S})-1-oxidanylidene-3-[(3~{S})-2-oxidanylidenepiperidin-3-yl]propan-2-yl]amino]propan-2-yl]-5-methyl-1,2-oxazole-3-carboxamide', 'weight': 444.456, 'carbohydrate_polymer': False, 'branch_name': ''}, {'chain_id': 'E', 'author_residue_number': 201, 'author_insertion_code': '', 'chem_comp_id': '5GI', 'alternate_conformers': 0, 'entity_id': 2, 'struct_asym_id': 'J', 'residue_number': 1, 'chem_comp_name': '~{N}-[(2~{S})-3-(4-fluorophenyl)-1-oxidanylidene-1-[[(2~{S})-1-oxidanylidene-3-[(3~{S})-2-oxidanylidenepiperidin-3-yl]propan-2-yl]amino]propan-2-yl]-5-methyl-1,2-oxazole-3-carboxamide', 'weight': 444.456, 'carbohydrate_polymer': False, 'branch_name': ''}]

>  <ligand_codes>  (799) 
['5GI', '5GI', '5GI', '5GI', '5GI']

>  <cofactor_codes>  (799) 
[]

>  <has_cofactor>  (799) 
False

>  <covalent>  (799) 
True

>  <base_name>  (799) 
5GSW

>  <lig_resn>  (799) 
5GI

>  <lig_resi>  (799) 
201

>  <lig_chain>  (799) 
A

>  <lig_segi>  (799) 
F

>  <lig_alt>  (799) 


>  <polymer_chain>  (799) 
A

>  <single_smiles>  (799) 
Cc1onc(c1)C(=O)N[C@@H](Cc2ccc(F)cc2)C(=O)N[C@@H](C[C@@H]3CCCNC3=O)C=O

$$$$
5GIP2S36
     RDKit          3D

 10 10  0  0  0  0  0  0  0  0999 V2000
   -7.8050    9.9270  -32.5350 C   0  0  0  0  0  0  0  0  0  0  0  0
   -8.1730    9.9490  -34.0130 C   0  0  1  0  0  0  0  0  0  0  0  0
   -9.0340   11.0510  -34.2690 N   0  0  0  0  0  0  0  0  0  0  0  0
   -8.6530    8.7000  -34.7540 C   0  0  1  0  0  0  0  0  0  0  0  0
   -9.6480    8.6280  -34.0830 R   0  0  0  0  0  2  0  0  0  0  0  0
   -8.6310   12.3040  -34.7780 C   0  0  0  0  0  0  0  0  0  0  0  0
   -8.2950    8.5760  -35.9070 O   0  0  0  0  0  0  0  0  0  0  0  0
   -9.6710   13.3510  -34.9850 C   0  0  0  0  0  0  0  0  0  0  0  0
   -7.4990   12.5560  -35.0400 O   0  0  0  0  0  0  0  0  0  0  0  0
  -10.1810   13.2340  -36.3950 C   0  0  0  0  0  0  0  0  0  0  0  0
  2  1  1  6
  3  2  1  0
  4  2  1  0
  2  5  1  0
  6  3  1  0
  4  7  1  6
  4  5  1  0
  8  6  1  0
  6  9  1  0
  8 10  1  6
M  RAD  1   5   2
V    5 *
A    2
 C18
A    3
 N4 
A    4
 C15
A    5
 X  
A    6
 C3 
A    7
 O2 
A    9
 O3 
M  END
>  <XChem_code>  (800) 
5GI§2

>  <Occupancy>  (800) 
[1.0, 1.0, 1.0, 1.0, 1.0, 1.0, 1.0, 1.0, 1.0, 1.0, 1.0, 1.0, 1.0, 1.0, 1.0, 1.0, 1.0, 1.0, 1.0, 1.0, 1.0, 1.0, 1.0, 1.0, 1.0, 1.0, 1.0, 1.0, 1.0, 1.0, 1.0, 1.0, 1.0]

>  <TempFactor>  (800) 
[49.16, 50.65, 59.43, 46.46, 58.44, 57.93, 50.07, 43.93, 50.57, 60.46, 51.52, 50.9, 45.67, 43.54, 43.98, 44.86, 44.03, 44.64, 44.87, 49.8, 58.55, 43.97, 57.73, 55.84, 59.19, 44.52, 53.05, 49.04, 46.38, 44.56, 45.51, 26.59, 45.13]

>  <accession>  (800) 
5GSW_A

>  <description>  (800) 
Chain A, 3C protein [Enterovirus A71]

>  <evalue>  (800) 
4.6634199999999997e-58

>  <pdb_code>  (800) 
5GSW

>  <chain>  (800) 
A

>  <ligands>  (800) 
[{'chain_id': 'A', 'author_residue_number': 201, 'author_insertion_code': '', 'chem_comp_id': '5GI', 'alternate_conformers': 0, 'entity_id': 2, 'struct_asym_id': 'F', 'residue_number': 1, 'chem_comp_name': '~{N}-[(2~{S})-3-(4-fluorophenyl)-1-oxidanylidene-1-[[(2~{S})-1-oxidanylidene-3-[(3~{S})-2-oxidanylidenepiperidin-3-yl]propan-2-yl]amino]propan-2-yl]-5-methyl-1,2-oxazole-3-carboxamide', 'weight': 444.456, 'carbohydrate_polymer': False, 'branch_name': ''}, {'chain_id': 'B', 'author_residue_number': 201, 'author_insertion_code': '', 'chem_comp_id': '5GI', 'alternate_conformers': 0, 'entity_id': 2, 'struct_asym_id': 'G', 'residue_number': 1, 'chem_comp_name': '~{N}-[(2~{S})-3-(4-fluorophenyl)-1-oxidanylidene-1-[[(2~{S})-1-oxidanylidene-3-[(3~{S})-2-oxidanylidenepiperidin-3-yl]propan-2-yl]amino]propan-2-yl]-5-methyl-1,2-oxazole-3-carboxamide', 'weight': 444.456, 'carbohydrate_polymer': False, 'branch_name': ''}, {'chain_id': 'C', 'author_residue_number': 201, 'author_insertion_code': '', 'chem_comp_id': '5GI', 'alternate_conformers': 0, 'entity_id': 2, 'struct_asym_id': 'H', 'residue_number': 1, 'chem_comp_name': '~{N}-[(2~{S})-3-(4-fluorophenyl)-1-oxidanylidene-1-[[(2~{S})-1-oxidanylidene-3-[(3~{S})-2-oxidanylidenepiperidin-3-yl]propan-2-yl]amino]propan-2-yl]-5-methyl-1,2-oxazole-3-carboxamide', 'weight': 444.456, 'carbohydrate_polymer': False, 'branch_name': ''}, {'chain_id': 'D', 'author_residue_number': 201, 'author_insertion_code': '', 'chem_comp_id': '5GI', 'alternate_conformers': 0, 'entity_id': 2, 'struct_asym_id': 'I', 'residue_number': 1, 'chem_comp_name': '~{N}-[(2~{S})-3-(4-fluorophenyl)-1-oxidanylidene-1-[[(2~{S})-1-oxidanylidene-3-[(3~{S})-2-oxidanylidenepiperidin-3-yl]propan-2-yl]amino]propan-2-yl]-5-methyl-1,2-oxazole-3-carboxamide', 'weight': 444.456, 'carbohydrate_polymer': False, 'branch_name': ''}, {'chain_id': 'E', 'author_residue_number': 201, 'author_insertion_code': '', 'chem_comp_id': '5GI', 'alternate_conformers': 0, 'entity_id': 2, 'struct_asym_id': 'J', 'residue_number': 1, 'chem_comp_name': '~{N}-[(2~{S})-3-(4-fluorophenyl)-1-oxidanylidene-1-[[(2~{S})-1-oxidanylidene-3-[(3~{S})-2-oxidanylidenepiperidin-3-yl]propan-2-yl]amino]propan-2-yl]-5-methyl-1,2-oxazole-3-carboxamide', 'weight': 444.456, 'carbohydrate_polymer': False, 'branch_name': ''}]

>  <ligand_codes>  (800) 
['5GI', '5GI', '5GI', '5GI', '5GI']

>  <cofactor_codes>  (800) 
[]

>  <has_cofactor>  (800) 
False

>  <covalent>  (800) 
True

>  <base_name>  (800) 
5GSW

>  <lig_resn>  (800) 
5GI

>  <lig_resi>  (800) 
201

>  <lig_chain>  (800) 
A

>  <lig_segi>  (800) 
F

>  <lig_alt>  (800) 


>  <polymer_chain>  (800) 
A

>  <single_smiles>  (800) 
Cc1onc(c1)C(=O)N[C@@H](Cc2ccc(F)cc2)C(=O)N[C@@H](C[C@@H]3CCCNC3=O)C=O

$$$$
5GIP2S37
     RDKit          3D

  7  6  0  0  0  0  0  0  0  0999 V2000
  -10.1810   13.2340  -36.3950 C   0  0  0  0  0  0  0  0  0  0  0  0
   -9.6710   13.3510  -34.9850 C   0  0  2  0  0  0  0  0  0  0  0  0
   -8.9930   14.5510  -34.7960 N   0  0  0  0  0  0  0  0  0  0  0  0
   -8.6310   12.3040  -34.7780 C   0  0  0  0  0  0  0  0  0  0  0  0
   -8.7720   15.0010  -33.4870 C   0  0  0  0  0  0  0  0  0  0  0  0
   -7.4990   12.5560  -35.0400 O   0  0  0  0  0  0  0  0  0  0  0  0
   -9.1710   14.3940  -32.5200 O   0  0  0  0  0  0  0  0  0  0  0  0
  2  1  1  6
  2  3  1  0
  2  4  1  0
  3  5  1  0
  4  6  1  0
  7  5  1  0
A    2
 C1 
A    3
 N1 
A    6
 O3 
A    7
 O4 
M  END
>  <XChem_code>  (801) 
5GI§2

>  <Occupancy>  (801) 
[1.0, 1.0, 1.0, 1.0, 1.0, 1.0, 1.0, 1.0, 1.0, 1.0, 1.0, 1.0, 1.0, 1.0, 1.0, 1.0, 1.0, 1.0, 1.0, 1.0, 1.0, 1.0, 1.0, 1.0, 1.0, 1.0, 1.0, 1.0, 1.0, 1.0, 1.0, 1.0, 1.0]

>  <TempFactor>  (801) 
[49.16, 50.65, 59.43, 46.46, 58.44, 57.93, 50.07, 43.93, 50.57, 60.46, 51.52, 50.9, 45.67, 43.54, 43.98, 44.86, 44.03, 44.64, 44.87, 49.8, 58.55, 43.97, 57.73, 55.84, 59.19, 44.52, 53.05, 49.04, 46.38, 44.56, 45.51, 26.59, 45.13]

>  <accession>  (801) 
5GSW_A

>  <description>  (801) 
Chain A, 3C protein [Enterovirus A71]

>  <evalue>  (801) 
4.6634199999999997e-58

>  <pdb_code>  (801) 
5GSW

>  <chain>  (801) 
A

>  <ligands>  (801) 
[{'chain_id': 'A', 'author_residue_number': 201, 'author_insertion_code': '', 'chem_comp_id': '5GI', 'alternate_conformers': 0, 'entity_id': 2, 'struct_asym_id': 'F', 'residue_number': 1, 'chem_comp_name': '~{N}-[(2~{S})-3-(4-fluorophenyl)-1-oxidanylidene-1-[[(2~{S})-1-oxidanylidene-3-[(3~{S})-2-oxidanylidenepiperidin-3-yl]propan-2-yl]amino]propan-2-yl]-5-methyl-1,2-oxazole-3-carboxamide', 'weight': 444.456, 'carbohydrate_polymer': False, 'branch_name': ''}, {'chain_id': 'B', 'author_residue_number': 201, 'author_insertion_code': '', 'chem_comp_id': '5GI', 'alternate_conformers': 0, 'entity_id': 2, 'struct_asym_id': 'G', 'residue_number': 1, 'chem_comp_name': '~{N}-[(2~{S})-3-(4-fluorophenyl)-1-oxidanylidene-1-[[(2~{S})-1-oxidanylidene-3-[(3~{S})-2-oxidanylidenepiperidin-3-yl]propan-2-yl]amino]propan-2-yl]-5-methyl-1,2-oxazole-3-carboxamide', 'weight': 444.456, 'carbohydrate_polymer': False, 'branch_name': ''}, {'chain_id': 'C', 'author_residue_number': 201, 'author_insertion_code': '', 'chem_comp_id': '5GI', 'alternate_conformers': 0, 'entity_id': 2, 'struct_asym_id': 'H', 'residue_number': 1, 'chem_comp_name': '~{N}-[(2~{S})-3-(4-fluorophenyl)-1-oxidanylidene-1-[[(2~{S})-1-oxidanylidene-3-[(3~{S})-2-oxidanylidenepiperidin-3-yl]propan-2-yl]amino]propan-2-yl]-5-methyl-1,2-oxazole-3-carboxamide', 'weight': 444.456, 'carbohydrate_polymer': False, 'branch_name': ''}, {'chain_id': 'D', 'author_residue_number': 201, 'author_insertion_code': '', 'chem_comp_id': '5GI', 'alternate_conformers': 0, 'entity_id': 2, 'struct_asym_id': 'I', 'residue_number': 1, 'chem_comp_name': '~{N}-[(2~{S})-3-(4-fluorophenyl)-1-oxidanylidene-1-[[(2~{S})-1-oxidanylidene-3-[(3~{S})-2-oxidanylidenepiperidin-3-yl]propan-2-yl]amino]propan-2-yl]-5-methyl-1,2-oxazole-3-carboxamide', 'weight': 444.456, 'carbohydrate_polymer': False, 'branch_name': ''}, {'chain_id': 'E', 'author_residue_number': 201, 'author_insertion_code': '', 'chem_comp_id': '5GI', 'alternate_conformers': 0, 'entity_id': 2, 'struct_asym_id': 'J', 'residue_number': 1, 'chem_comp_name': '~{N}-[(2~{S})-3-(4-fluorophenyl)-1-oxidanylidene-1-[[(2~{S})-1-oxidanylidene-3-[(3~{S})-2-oxidanylidenepiperidin-3-yl]propan-2-yl]amino]propan-2-yl]-5-methyl-1,2-oxazole-3-carboxamide', 'weight': 444.456, 'carbohydrate_polymer': False, 'branch_name': ''}]

>  <ligand_codes>  (801) 
['5GI', '5GI', '5GI', '5GI', '5GI']

>  <cofactor_codes>  (801) 
[]

>  <has_cofactor>  (801) 
False

>  <covalent>  (801) 
True

>  <base_name>  (801) 
5GSW

>  <lig_resn>  (801) 
5GI

>  <lig_resi>  (801) 
201

>  <lig_chain>  (801) 
A

>  <lig_segi>  (801) 
F

>  <lig_alt>  (801) 


>  <polymer_chain>  (801) 
A

>  <single_smiles>  (801) 
Cc1onc(c1)C(=O)N[C@@H](Cc2ccc(F)cc2)C(=O)N[C@@H](C[C@@H]3CCCNC3=O)C=O

$$$$
5GIP2S38
     RDKit          3D

 11 11  0  0  0  0  0  0  0  0999 V2000
   -7.8050    9.9270  -32.5350 C   0  0  0  0  0  0  0  0  0  0  0  0
   -8.1730    9.9490  -34.0130 C   0  0  1  0  0  0  0  0  0  0  0  0
   -9.0340   11.0510  -34.2690 N   0  0  0  0  0  0  0  0  0  0  0  0
   -8.6530    8.7000  -34.7540 C   0  0  1  0  0  0  0  0  0  0  0  0
   -9.6480    8.6280  -34.0830 R   0  0  0  0  0  2  0  0  0  0  0  0
   -8.6310   12.3040  -34.7780 C   0  0  0  0  0  0  0  0  0  0  0  0
   -8.2950    8.5760  -35.9070 O   0  0  0  0  0  0  0  0  0  0  0  0
   -9.6710   13.3510  -34.9850 C   0  0  2  0  0  0  0  0  0  0  0  0
   -7.4990   12.5560  -35.0400 O   0  0  0  0  0  0  0  0  0  0  0  0
  -10.1810   13.2340  -36.3950 C   0  0  0  0  0  0  0  0  0  0  0  0
   -8.9930   14.5510  -34.7960 N   0  0  0  0  0  0  0  0  0  0  0  0
  2  1  1  6
  3  2  1  0
  4  2  1  0
  2  5  1  0
  6  3  1  0
  4  7  1  6
  4  5  1  0
  8  6  1  0
  6  9  1  0
  8 10  1  6
  8 11  1  0
M  RAD  1   5   2
V    5 *
A    2
 C18
A    3
 N4 
A    4
 C15
A    5
 X  
A    6
 C3 
A    7
 O2 
A    8
 C1 
A    9
 O3 
M  END
>  <XChem_code>  (802) 
5GI§2

>  <Occupancy>  (802) 
[1.0, 1.0, 1.0, 1.0, 1.0, 1.0, 1.0, 1.0, 1.0, 1.0, 1.0, 1.0, 1.0, 1.0, 1.0, 1.0, 1.0, 1.0, 1.0, 1.0, 1.0, 1.0, 1.0, 1.0, 1.0, 1.0, 1.0, 1.0, 1.0, 1.0, 1.0, 1.0, 1.0]

>  <TempFactor>  (802) 
[49.16, 50.65, 59.43, 46.46, 58.44, 57.93, 50.07, 43.93, 50.57, 60.46, 51.52, 50.9, 45.67, 43.54, 43.98, 44.86, 44.03, 44.64, 44.87, 49.8, 58.55, 43.97, 57.73, 55.84, 59.19, 44.52, 53.05, 49.04, 46.38, 44.56, 45.51, 26.59, 45.13]

>  <accession>  (802) 
5GSW_A

>  <description>  (802) 
Chain A, 3C protein [Enterovirus A71]

>  <evalue>  (802) 
4.6634199999999997e-58

>  <pdb_code>  (802) 
5GSW

>  <chain>  (802) 
A

>  <ligands>  (802) 
[{'chain_id': 'A', 'author_residue_number': 201, 'author_insertion_code': '', 'chem_comp_id': '5GI', 'alternate_conformers': 0, 'entity_id': 2, 'struct_asym_id': 'F', 'residue_number': 1, 'chem_comp_name': '~{N}-[(2~{S})-3-(4-fluorophenyl)-1-oxidanylidene-1-[[(2~{S})-1-oxidanylidene-3-[(3~{S})-2-oxidanylidenepiperidin-3-yl]propan-2-yl]amino]propan-2-yl]-5-methyl-1,2-oxazole-3-carboxamide', 'weight': 444.456, 'carbohydrate_polymer': False, 'branch_name': ''}, {'chain_id': 'B', 'author_residue_number': 201, 'author_insertion_code': '', 'chem_comp_id': '5GI', 'alternate_conformers': 0, 'entity_id': 2, 'struct_asym_id': 'G', 'residue_number': 1, 'chem_comp_name': '~{N}-[(2~{S})-3-(4-fluorophenyl)-1-oxidanylidene-1-[[(2~{S})-1-oxidanylidene-3-[(3~{S})-2-oxidanylidenepiperidin-3-yl]propan-2-yl]amino]propan-2-yl]-5-methyl-1,2-oxazole-3-carboxamide', 'weight': 444.456, 'carbohydrate_polymer': False, 'branch_name': ''}, {'chain_id': 'C', 'author_residue_number': 201, 'author_insertion_code': '', 'chem_comp_id': '5GI', 'alternate_conformers': 0, 'entity_id': 2, 'struct_asym_id': 'H', 'residue_number': 1, 'chem_comp_name': '~{N}-[(2~{S})-3-(4-fluorophenyl)-1-oxidanylidene-1-[[(2~{S})-1-oxidanylidene-3-[(3~{S})-2-oxidanylidenepiperidin-3-yl]propan-2-yl]amino]propan-2-yl]-5-methyl-1,2-oxazole-3-carboxamide', 'weight': 444.456, 'carbohydrate_polymer': False, 'branch_name': ''}, {'chain_id': 'D', 'author_residue_number': 201, 'author_insertion_code': '', 'chem_comp_id': '5GI', 'alternate_conformers': 0, 'entity_id': 2, 'struct_asym_id': 'I', 'residue_number': 1, 'chem_comp_name': '~{N}-[(2~{S})-3-(4-fluorophenyl)-1-oxidanylidene-1-[[(2~{S})-1-oxidanylidene-3-[(3~{S})-2-oxidanylidenepiperidin-3-yl]propan-2-yl]amino]propan-2-yl]-5-methyl-1,2-oxazole-3-carboxamide', 'weight': 444.456, 'carbohydrate_polymer': False, 'branch_name': ''}, {'chain_id': 'E', 'author_residue_number': 201, 'author_insertion_code': '', 'chem_comp_id': '5GI', 'alternate_conformers': 0, 'entity_id': 2, 'struct_asym_id': 'J', 'residue_number': 1, 'chem_comp_name': '~{N}-[(2~{S})-3-(4-fluorophenyl)-1-oxidanylidene-1-[[(2~{S})-1-oxidanylidene-3-[(3~{S})-2-oxidanylidenepiperidin-3-yl]propan-2-yl]amino]propan-2-yl]-5-methyl-1,2-oxazole-3-carboxamide', 'weight': 444.456, 'carbohydrate_polymer': False, 'branch_name': ''}]

>  <ligand_codes>  (802) 
['5GI', '5GI', '5GI', '5GI', '5GI']

>  <cofactor_codes>  (802) 
[]

>  <has_cofactor>  (802) 
False

>  <covalent>  (802) 
True

>  <base_name>  (802) 
5GSW

>  <lig_resn>  (802) 
5GI

>  <lig_resi>  (802) 
201

>  <lig_chain>  (802) 
A

>  <lig_segi>  (802) 
F

>  <lig_alt>  (802) 


>  <polymer_chain>  (802) 
A

>  <single_smiles>  (802) 
Cc1onc(c1)C(=O)N[C@@H](Cc2ccc(F)cc2)C(=O)N[C@@H](C[C@@H]3CCCNC3=O)C=O

$$$$
5GIP2S39
     RDKit          3D

  8  7  0  0  0  0  0  0  0  0999 V2000
  -10.1810   13.2340  -36.3950 C   0  0  0  0  0  0  0  0  0  0  0  0
   -9.6710   13.3510  -34.9850 C   0  0  2  0  0  0  0  0  0  0  0  0
   -8.9930   14.5510  -34.7960 N   0  0  0  0  0  0  0  0  0  0  0  0
   -8.6310   12.3040  -34.7780 C   0  0  0  0  0  0  0  0  0  0  0  0
   -8.7720   15.0010  -33.4870 C   0  0  0  0  0  0  0  0  0  0  0  0
   -9.0340   11.0510  -34.2690 N   0  0  0  0  0  0  0  0  0  0  0  0
   -7.4990   12.5560  -35.0400 O   0  0  0  0  0  0  0  0  0  0  0  0
   -9.1710   14.3940  -32.5200 O   0  0  0  0  0  0  0  0  0  0  0  0
  2  1  1  6
  2  3  1  0
  2  4  1  0
  3  5  1  0
  4  6  1  0
  4  7  1  0
  8  5  1  0
A    2
 C1 
A    3
 N1 
A    4
 C3 
A    7
 O3 
A    8
 O4 
M  END
>  <XChem_code>  (803) 
5GI§2

>  <Occupancy>  (803) 
[1.0, 1.0, 1.0, 1.0, 1.0, 1.0, 1.0, 1.0, 1.0, 1.0, 1.0, 1.0, 1.0, 1.0, 1.0, 1.0, 1.0, 1.0, 1.0, 1.0, 1.0, 1.0, 1.0, 1.0, 1.0, 1.0, 1.0, 1.0, 1.0, 1.0, 1.0, 1.0, 1.0]

>  <TempFactor>  (803) 
[49.16, 50.65, 59.43, 46.46, 58.44, 57.93, 50.07, 43.93, 50.57, 60.46, 51.52, 50.9, 45.67, 43.54, 43.98, 44.86, 44.03, 44.64, 44.87, 49.8, 58.55, 43.97, 57.73, 55.84, 59.19, 44.52, 53.05, 49.04, 46.38, 44.56, 45.51, 26.59, 45.13]

>  <accession>  (803) 
5GSW_A

>  <description>  (803) 
Chain A, 3C protein [Enterovirus A71]

>  <evalue>  (803) 
4.6634199999999997e-58

>  <pdb_code>  (803) 
5GSW

>  <chain>  (803) 
A

>  <ligands>  (803) 
[{'chain_id': 'A', 'author_residue_number': 201, 'author_insertion_code': '', 'chem_comp_id': '5GI', 'alternate_conformers': 0, 'entity_id': 2, 'struct_asym_id': 'F', 'residue_number': 1, 'chem_comp_name': '~{N}-[(2~{S})-3-(4-fluorophenyl)-1-oxidanylidene-1-[[(2~{S})-1-oxidanylidene-3-[(3~{S})-2-oxidanylidenepiperidin-3-yl]propan-2-yl]amino]propan-2-yl]-5-methyl-1,2-oxazole-3-carboxamide', 'weight': 444.456, 'carbohydrate_polymer': False, 'branch_name': ''}, {'chain_id': 'B', 'author_residue_number': 201, 'author_insertion_code': '', 'chem_comp_id': '5GI', 'alternate_conformers': 0, 'entity_id': 2, 'struct_asym_id': 'G', 'residue_number': 1, 'chem_comp_name': '~{N}-[(2~{S})-3-(4-fluorophenyl)-1-oxidanylidene-1-[[(2~{S})-1-oxidanylidene-3-[(3~{S})-2-oxidanylidenepiperidin-3-yl]propan-2-yl]amino]propan-2-yl]-5-methyl-1,2-oxazole-3-carboxamide', 'weight': 444.456, 'carbohydrate_polymer': False, 'branch_name': ''}, {'chain_id': 'C', 'author_residue_number': 201, 'author_insertion_code': '', 'chem_comp_id': '5GI', 'alternate_conformers': 0, 'entity_id': 2, 'struct_asym_id': 'H', 'residue_number': 1, 'chem_comp_name': '~{N}-[(2~{S})-3-(4-fluorophenyl)-1-oxidanylidene-1-[[(2~{S})-1-oxidanylidene-3-[(3~{S})-2-oxidanylidenepiperidin-3-yl]propan-2-yl]amino]propan-2-yl]-5-methyl-1,2-oxazole-3-carboxamide', 'weight': 444.456, 'carbohydrate_polymer': False, 'branch_name': ''}, {'chain_id': 'D', 'author_residue_number': 201, 'author_insertion_code': '', 'chem_comp_id': '5GI', 'alternate_conformers': 0, 'entity_id': 2, 'struct_asym_id': 'I', 'residue_number': 1, 'chem_comp_name': '~{N}-[(2~{S})-3-(4-fluorophenyl)-1-oxidanylidene-1-[[(2~{S})-1-oxidanylidene-3-[(3~{S})-2-oxidanylidenepiperidin-3-yl]propan-2-yl]amino]propan-2-yl]-5-methyl-1,2-oxazole-3-carboxamide', 'weight': 444.456, 'carbohydrate_polymer': False, 'branch_name': ''}, {'chain_id': 'E', 'author_residue_number': 201, 'author_insertion_code': '', 'chem_comp_id': '5GI', 'alternate_conformers': 0, 'entity_id': 2, 'struct_asym_id': 'J', 'residue_number': 1, 'chem_comp_name': '~{N}-[(2~{S})-3-(4-fluorophenyl)-1-oxidanylidene-1-[[(2~{S})-1-oxidanylidene-3-[(3~{S})-2-oxidanylidenepiperidin-3-yl]propan-2-yl]amino]propan-2-yl]-5-methyl-1,2-oxazole-3-carboxamide', 'weight': 444.456, 'carbohydrate_polymer': False, 'branch_name': ''}]

>  <ligand_codes>  (803) 
['5GI', '5GI', '5GI', '5GI', '5GI']

>  <cofactor_codes>  (803) 
[]

>  <has_cofactor>  (803) 
False

>  <covalent>  (803) 
True

>  <base_name>  (803) 
5GSW

>  <lig_resn>  (803) 
5GI

>  <lig_resi>  (803) 
201

>  <lig_chain>  (803) 
A

>  <lig_segi>  (803) 
F

>  <lig_alt>  (803) 


>  <polymer_chain>  (803) 
A

>  <single_smiles>  (803) 
Cc1onc(c1)C(=O)N[C@@H](Cc2ccc(F)cc2)C(=O)N[C@@H](C[C@@H]3CCCNC3=O)C=O

$$$$
5GIP2S40
     RDKit          3D

 13 13  0  0  0  0  0  0  0  0999 V2000
   -7.8050    9.9270  -32.5350 C   0  0  0  0  0  0  0  0  0  0  0  0
   -8.1730    9.9490  -34.0130 C   0  0  1  0  0  0  0  0  0  0  0  0
   -9.0340   11.0510  -34.2690 N   0  0  0  0  0  0  0  0  0  0  0  0
   -8.6530    8.7000  -34.7540 C   0  0  1  0  0  0  0  0  0  0  0  0
   -9.6480    8.6280  -34.0830 R   0  0  0  0  0  2  0  0  0  0  0  0
   -8.6310   12.3040  -34.7780 C   0  0  0  0  0  0  0  0  0  0  0  0
   -8.2950    8.5760  -35.9070 O   0  0  0  0  0  0  0  0  0  0  0  0
   -9.6710   13.3510  -34.9850 C   0  0  2  0  0  0  0  0  0  0  0  0
   -7.4990   12.5560  -35.0400 O   0  0  0  0  0  0  0  0  0  0  0  0
  -10.1810   13.2340  -36.3950 C   0  0  0  0  0  0  0  0  0  0  0  0
   -8.9930   14.5510  -34.7960 N   0  0  0  0  0  0  0  0  0  0  0  0
   -8.7720   15.0010  -33.4870 C   0  0  0  0  0  0  0  0  0  0  0  0
   -9.1710   14.3940  -32.5200 O   0  0  0  0  0  0  0  0  0  0  0  0
  2  1  1  6
  3  2  1  0
  4  2  1  0
  2  5  1  0
  6  3  1  0
  4  7  1  6
  4  5  1  0
  8  6  1  0
  6  9  1  0
  8 10  1  6
  8 11  1  0
 11 12  1  0
 13 12  1  0
M  RAD  1   5   2
V    5 *
A    2
 C18
A    3
 N4 
A    4
 C15
A    5
 X  
A    6
 C3 
A    7
 O2 
A    8
 C1 
A    9
 O3 
A   11
 N1 
A   13
 O4 
M  END
>  <XChem_code>  (804) 
5GI§2

>  <Occupancy>  (804) 
[1.0, 1.0, 1.0, 1.0, 1.0, 1.0, 1.0, 1.0, 1.0, 1.0, 1.0, 1.0, 1.0, 1.0, 1.0, 1.0, 1.0, 1.0, 1.0, 1.0, 1.0, 1.0, 1.0, 1.0, 1.0, 1.0, 1.0, 1.0, 1.0, 1.0, 1.0, 1.0, 1.0]

>  <TempFactor>  (804) 
[49.16, 50.65, 59.43, 46.46, 58.44, 57.93, 50.07, 43.93, 50.57, 60.46, 51.52, 50.9, 45.67, 43.54, 43.98, 44.86, 44.03, 44.64, 44.87, 49.8, 58.55, 43.97, 57.73, 55.84, 59.19, 44.52, 53.05, 49.04, 46.38, 44.56, 45.51, 26.59, 45.13]

>  <accession>  (804) 
5GSW_A

>  <description>  (804) 
Chain A, 3C protein [Enterovirus A71]

>  <evalue>  (804) 
4.6634199999999997e-58

>  <pdb_code>  (804) 
5GSW

>  <chain>  (804) 
A

>  <ligands>  (804) 
[{'chain_id': 'A', 'author_residue_number': 201, 'author_insertion_code': '', 'chem_comp_id': '5GI', 'alternate_conformers': 0, 'entity_id': 2, 'struct_asym_id': 'F', 'residue_number': 1, 'chem_comp_name': '~{N}-[(2~{S})-3-(4-fluorophenyl)-1-oxidanylidene-1-[[(2~{S})-1-oxidanylidene-3-[(3~{S})-2-oxidanylidenepiperidin-3-yl]propan-2-yl]amino]propan-2-yl]-5-methyl-1,2-oxazole-3-carboxamide', 'weight': 444.456, 'carbohydrate_polymer': False, 'branch_name': ''}, {'chain_id': 'B', 'author_residue_number': 201, 'author_insertion_code': '', 'chem_comp_id': '5GI', 'alternate_conformers': 0, 'entity_id': 2, 'struct_asym_id': 'G', 'residue_number': 1, 'chem_comp_name': '~{N}-[(2~{S})-3-(4-fluorophenyl)-1-oxidanylidene-1-[[(2~{S})-1-oxidanylidene-3-[(3~{S})-2-oxidanylidenepiperidin-3-yl]propan-2-yl]amino]propan-2-yl]-5-methyl-1,2-oxazole-3-carboxamide', 'weight': 444.456, 'carbohydrate_polymer': False, 'branch_name': ''}, {'chain_id': 'C', 'author_residue_number': 201, 'author_insertion_code': '', 'chem_comp_id': '5GI', 'alternate_conformers': 0, 'entity_id': 2, 'struct_asym_id': 'H', 'residue_number': 1, 'chem_comp_name': '~{N}-[(2~{S})-3-(4-fluorophenyl)-1-oxidanylidene-1-[[(2~{S})-1-oxidanylidene-3-[(3~{S})-2-oxidanylidenepiperidin-3-yl]propan-2-yl]amino]propan-2-yl]-5-methyl-1,2-oxazole-3-carboxamide', 'weight': 444.456, 'carbohydrate_polymer': False, 'branch_name': ''}, {'chain_id': 'D', 'author_residue_number': 201, 'author_insertion_code': '', 'chem_comp_id': '5GI', 'alternate_conformers': 0, 'entity_id': 2, 'struct_asym_id': 'I', 'residue_number': 1, 'chem_comp_name': '~{N}-[(2~{S})-3-(4-fluorophenyl)-1-oxidanylidene-1-[[(2~{S})-1-oxidanylidene-3-[(3~{S})-2-oxidanylidenepiperidin-3-yl]propan-2-yl]amino]propan-2-yl]-5-methyl-1,2-oxazole-3-carboxamide', 'weight': 444.456, 'carbohydrate_polymer': False, 'branch_name': ''}, {'chain_id': 'E', 'author_residue_number': 201, 'author_insertion_code': '', 'chem_comp_id': '5GI', 'alternate_conformers': 0, 'entity_id': 2, 'struct_asym_id': 'J', 'residue_number': 1, 'chem_comp_name': '~{N}-[(2~{S})-3-(4-fluorophenyl)-1-oxidanylidene-1-[[(2~{S})-1-oxidanylidene-3-[(3~{S})-2-oxidanylidenepiperidin-3-yl]propan-2-yl]amino]propan-2-yl]-5-methyl-1,2-oxazole-3-carboxamide', 'weight': 444.456, 'carbohydrate_polymer': False, 'branch_name': ''}]

>  <ligand_codes>  (804) 
['5GI', '5GI', '5GI', '5GI', '5GI']

>  <cofactor_codes>  (804) 
[]

>  <has_cofactor>  (804) 
False

>  <covalent>  (804) 
True

>  <base_name>  (804) 
5GSW

>  <lig_resn>  (804) 
5GI

>  <lig_resi>  (804) 
201

>  <lig_chain>  (804) 
A

>  <lig_segi>  (804) 
F

>  <lig_alt>  (804) 


>  <polymer_chain>  (804) 
A

>  <single_smiles>  (804) 
Cc1onc(c1)C(=O)N[C@@H](Cc2ccc(F)cc2)C(=O)N[C@@H](C[C@@H]3CCCNC3=O)C=O

$$$$
EDOP15
     RDKit          3D

  4  3  0  0  0  0  0  0  0  0999 V2000
   -4.9320    6.3010  -38.7580 C   0  0  0  0  0  0  0  0  0  0  0  0
   -5.2750    5.6540  -37.5260 O   0  0  0  0  0  0  0  0  0  0  0  0
   -3.4330    6.1390  -39.0240 C   0  0  0  0  0  0  0  0  0  0  0  0
   -3.0690    4.7830  -39.3660 O   0  0  0  0  0  0  0  0  0  0  0  0
  1  2  1  0
  1  3  1  0
  3  4  1  0
A    1
 C1 
A    2
 O1 
A    3
 C2 
A    4
 O2 
M  END
>  <XChem_code>  (805) 
EDO§15

>  <Occupancy>  (805) 
[1.0, 1.0, 1.0, 1.0]

>  <TempFactor>  (805) 
[22.14, 21.87, 22.21, 21.34]

>  <accession>  (805) 
3R0F_A

>  <description>  (805) 
Chain A, 3C protein [Enterovirus A71]

>  <evalue>  (805) 
6.09465e-58

>  <pdb_code>  (805) 
3R0F

>  <chain>  (805) 
A

>  <ligands>  (805) 
[{'chain_id': 'A', 'author_residue_number': 501, 'author_insertion_code': '', 'chem_comp_id': 'AG7', 'alternate_conformers': 0, 'entity_id': 2, 'struct_asym_id': 'C', 'residue_number': 1, 'chem_comp_name': '4-{2-(4-FLUORO-BENZYL)-6-METHYL-5-[(5-METHYL-ISOXAZOLE-3-CARBONYL)-AMINO]-4-OXO-HEPTANOYLAMINO}-5-(2-OXO-PYRROLIDIN-3-YL)-PENTANOIC ACID ETHYL ESTER', 'weight': 600.678, 'carbohydrate_polymer': False, 'branch_name': ''}, {'chain_id': 'B', 'author_residue_number': 501, 'author_insertion_code': '', 'chem_comp_id': 'AG7', 'alternate_conformers': 0, 'entity_id': 2, 'struct_asym_id': 'F', 'residue_number': 1, 'chem_comp_name': '4-{2-(4-FLUORO-BENZYL)-6-METHYL-5-[(5-METHYL-ISOXAZOLE-3-CARBONYL)-AMINO]-4-OXO-HEPTANOYLAMINO}-5-(2-OXO-PYRROLIDIN-3-YL)-PENTANOIC ACID ETHYL ESTER', 'weight': 600.678, 'carbohydrate_polymer': False, 'branch_name': ''}, {'chain_id': 'A', 'author_residue_number': 184, 'author_insertion_code': '', 'chem_comp_id': 'EDO', 'alternate_conformers': 0, 'entity_id': 3, 'struct_asym_id': 'D', 'residue_number': 1, 'chem_comp_name': '1,2-ETHANEDIOL', 'weight': 62.068, 'carbohydrate_polymer': False, 'branch_name': ''}, {'chain_id': 'A', 'author_residue_number': 185, 'author_insertion_code': '', 'chem_comp_id': 'EDO', 'alternate_conformers': 0, 'entity_id': 3, 'struct_asym_id': 'E', 'residue_number': 1, 'chem_comp_name': '1,2-ETHANEDIOL', 'weight': 62.068, 'carbohydrate_polymer': False, 'branch_name': ''}, {'chain_id': 'B', 'author_residue_number': 184, 'author_insertion_code': '', 'chem_comp_id': 'EDO', 'alternate_conformers': 0, 'entity_id': 3, 'struct_asym_id': 'G', 'residue_number': 1, 'chem_comp_name': '1,2-ETHANEDIOL', 'weight': 62.068, 'carbohydrate_polymer': False, 'branch_name': ''}, {'chain_id': 'B', 'author_residue_number': 185, 'author_insertion_code': '', 'chem_comp_id': 'EDO', 'alternate_conformers': 0, 'entity_id': 3, 'struct_asym_id': 'H', 'residue_number': 1, 'chem_comp_name': '1,2-ETHANEDIOL', 'weight': 62.068, 'carbohydrate_polymer': False, 'branch_name': ''}]

>  <ligand_codes>  (805) 
['AG7', 'AG7', 'EDO', 'EDO', 'EDO', 'EDO']

>  <cofactor_codes>  (805) 
[]

>  <has_cofactor>  (805) 
False

>  <covalent>  (805) 
False

>  <base_name>  (805) 
3R0F

>  <lig_resn>  (805) 
EDO

>  <lig_resi>  (805) 
185

>  <lig_chain>  (805) 
A

>  <lig_segi>  (805) 
E

>  <lig_alt>  (805) 


>  <polymer_chain>  (805) 
A

>  <single_smiles>  (805) 
OCCO

$$$$
AG7P21
     RDKit          3D

 44 46  0  0  0  0  0  0  0  0999 V2000
   -8.6380   14.8860  -33.2600 C   0  0  0  0  0  0  0  0  0  0  0  0
  -10.1380   17.8080  -29.8610 C   0  0  0  0  0  0  0  0  0  0  0  0
   -8.6730   14.5850  -34.7520 C   0  0  0  0  0  0  0  0  0  0  0  0
  -11.1190   18.7800  -29.4370 C   0  0  0  0  0  0  0  0  0  0  0  0
  -11.2290   18.6960  -28.1430 C   0  0  0  0  0  0  0  0  0  0  0  0
   -8.8080   14.0630  -32.4060 O   0  0  0  0  0  0  0  0  0  0  0  0
   -9.0190   13.1280  -35.0570 C   0  0  1  0  0  0  0  0  0  0  0  0
  -12.1640   19.5270  -27.3100 C   0  0  0  0  0  0  0  0  0  0  0  0
  -10.5080   17.5930  -27.7590 O   0  0  0  0  0  0  0  0  0  0  0  0
   -9.1080   12.8250  -36.5400 C   0  0  0  0  0  0  0  0  0  0  0  0
   -9.8870   17.0260  -28.8310 N   0  0  0  0  0  0  0  0  0  0  0  0
  -10.1500   13.6920  -37.2180 C   0  0  0  0  0  0  0  0  0  0  0  0
  -11.4610   13.5630  -36.9490 C   0  0  0  0  0  0  0  0  0  0  0  0
  -12.4610   14.3840  -37.6880 C   0  0  0  0  0  0  0  0  0  0  0  0
  -12.0490   15.2290  -38.6420 C   0  0  0  0  0  0  0  0  0  0  0  0
  -10.6060   15.3460  -38.9640 C   0  0  0  0  0  0  0  0  0  0  0  0
   -9.6910   14.5990  -38.2790 C   0  0  0  0  0  0  0  0  0  0  0  0
   -8.3980   11.0090  -33.8670 N   0  0  0  0  0  0  0  0  0  0  0  0
   -7.4250    9.9840  -33.4820 C   0  0  1  0  0  0  0  0  0  0  0  0
   -7.3730    9.8180  -31.9860 C   0  0  0  0  0  0  0  0  0  0  0  0
   -6.9020   11.0990  -31.2870 C   0  0  1  0  0  0  0  0  0  0  0  0
   -6.8840   10.9300  -29.8210 C   0  0  0  0  0  0  0  0  0  0  0  0
   -5.7340   11.6000  -29.3140 N   0  0  0  0  0  0  0  0  0  0  0  0
   -7.5830   10.2190  -29.1600 O   0  0  0  0  0  0  0  0  0  0  0  0
   -7.8000    8.7080  -34.2240 C   0  0  2  0  0  0  0  0  0  0  0  0
   -7.6930    8.7200  -35.7320 C   0  0  0  0  0  0  0  0  0  0  0  0
   -6.2700    8.9490  -36.1640 C   0  0  0  0  0  0  0  0  0  0  0  0
   -6.0890    9.7380  -37.1470 O   0  0  0  0  0  0  0  0  0  0  0  0
   -5.3370    8.3840  -35.5820 O   0  0  0  0  0  0  0  0  0  0  0  0
   -7.9420   12.2650  -34.4580 C   0  0  0  0  0  0  0  0  0  0  0  0
   -6.7840   12.4330  -34.6620 O   0  0  0  0  0  0  0  0  0  0  0  0
   -4.7970   10.0720  -37.5320 C   0  0  0  0  0  0  0  0  0  0  0  0
   -4.8460   11.4130  -38.2360 C   0  0  0  0  0  0  0  0  0  0  0  0
   -8.3120   16.3420  -32.8970 C   0  0  1  0  0  0  0  0  0  0  0  0
   -8.7060   16.6300  -31.5470 N   0  0  0  0  0  0  0  0  0  0  0  0
   -9.7630   17.5740  -31.2860 C   0  0  0  0  0  0  0  0  0  0  0  0
  -10.1690   18.3250  -32.1460 O   0  0  0  0  0  0  0  0  0  0  0  0
   -6.8540   16.7080  -33.1340 C   0  0  0  0  0  0  0  0  0  0  0  0
   -6.6180   18.1230  -32.6450 C   0  0  0  0  0  0  0  0  0  0  0  0
   -5.9260   15.8060  -32.3870 C   0  0  0  0  0  0  0  0  0  0  0  0
   -5.0970   12.3000  -30.4180 C   0  0  0  0  0  0  0  0  0  0  0  0
   -5.5070   11.5250  -31.6520 C   0  0  0  0  0  0  0  0  0  0  0  0
   -9.6610    8.3310  -33.8000 R   0  0  0  0  0  0  0  0  0  0  0  0
  -12.9270   15.9490  -39.3140 F   0  0  0  0  0  0  0  0  0  0  0  0
  1  3  1  0
  1  6  2  0
  1 34  1  0
  2  4  1  0
  2 11  2  0
  2 36  1  0
  7  3  1  6
  4  5  2  0
  5  8  1  0
  5  9  1  0
  7 10  1  0
  7 30  1  0
  9 11  1  0
 10 12  1  0
 12 13  2  0
 12 17  1  0
 13 14  1  0
 14 15  2  0
 15 16  1  0
 15 44  1  0
 16 17  2  0
 18 19  1  0
 18 30  1  0
 19 20  1  1
 19 25  1  0
 21 20  1  6
 21 22  1  0
 21 42  1  0
 22 23  1  0
 22 24  2  0
 23 41  1  0
 25 26  1  0
 25 43  1  6
 26 27  1  0
 27 28  1  0
 27 29  2  0
 28 32  1  0
 30 31  2  0
 32 33  1  0
 34 35  1  1
 34 38  1  0
 35 36  1  0
 36 37  2  0
 38 39  1  0
 38 40  1  0
 41 42  1  0
V   43 *
A    1
 C01
A    2
 C1 
A    3
 C02
A    4
 C2 
A    5
 C3 
A    6
 O03
A    7
 C04
A    8
 C4 
A    9
 O4 
A   10
 C05
A   11
 N5 
A   12
 C06
A   13
 C07
A   14
 C08
A   15
 C09
A   16
 C10
A   17
 C11
A   18
 N12
A   19
 C13
A   20
 C14
A   21
 C15
A   22
 C16
A   23
 N17
A   24
 O18
A   25
 C19
A   26
 C20
A   27
 C21
A   28
 O22
A   29
 O23
A   30
 C47
A   31
 O48
A   32
 C50
A   33
 C53
A   34
 C57
A   35
 N58
A   36
 C59
A   37
 O60
A   38
 C78
A   39
 C81
A   40
 C82
A   41
 C83
A   42
 C84
A   43
 X  
A   44
 F1 
M  END
>  <XChem_code>  (806) 
AG7§21

>  <Occupancy>  (806) 
[1.0, 1.0, 1.0, 1.0, 1.0, 1.0, 1.0, 1.0, 1.0, 1.0, 1.0, 1.0, 1.0, 1.0, 1.0, 1.0, 1.0, 1.0, 1.0, 1.0, 1.0, 1.0, 1.0, 1.0, 1.0, 1.0, 1.0, 1.0, 1.0, 1.0, 1.0, 1.0, 1.0, 1.0, 1.0, 1.0, 1.0, 1.0, 1.0, 1.0, 1.0, 1.0, 1.0, 1.0]

>  <TempFactor>  (806) 
[11.1, 20.91, 12.33, 21.54, 28.02, 10.23, 11.74, 33.15, 31.53, 14.67, 25.91, 17.57, 20.17, 22.48, 24.62, 23.23, 20.48, 10.14, 10.8, 10.98, 11.96, 13.14, 11.93, 10.58, 15.79, 15.3, 17.28, 19.56, 15.73, 11.53, 12.15, 23.48, 27.32, 11.33, 13.47, 17.51, 18.05, 14.14, 15.23, 13.92, 11.83, 10.72, 9.75, 27.35]

>  <accession>  (806) 
3R0F_A

>  <description>  (806) 
Chain A, 3C protein [Enterovirus A71]

>  <evalue>  (806) 
6.09465e-58

>  <pdb_code>  (806) 
3R0F

>  <chain>  (806) 
A

>  <ligands>  (806) 
[{'chain_id': 'A', 'author_residue_number': 501, 'author_insertion_code': '', 'chem_comp_id': 'AG7', 'alternate_conformers': 0, 'entity_id': 2, 'struct_asym_id': 'C', 'residue_number': 1, 'chem_comp_name': '4-{2-(4-FLUORO-BENZYL)-6-METHYL-5-[(5-METHYL-ISOXAZOLE-3-CARBONYL)-AMINO]-4-OXO-HEPTANOYLAMINO}-5-(2-OXO-PYRROLIDIN-3-YL)-PENTANOIC ACID ETHYL ESTER', 'weight': 600.678, 'carbohydrate_polymer': False, 'branch_name': ''}, {'chain_id': 'B', 'author_residue_number': 501, 'author_insertion_code': '', 'chem_comp_id': 'AG7', 'alternate_conformers': 0, 'entity_id': 2, 'struct_asym_id': 'F', 'residue_number': 1, 'chem_comp_name': '4-{2-(4-FLUORO-BENZYL)-6-METHYL-5-[(5-METHYL-ISOXAZOLE-3-CARBONYL)-AMINO]-4-OXO-HEPTANOYLAMINO}-5-(2-OXO-PYRROLIDIN-3-YL)-PENTANOIC ACID ETHYL ESTER', 'weight': 600.678, 'carbohydrate_polymer': False, 'branch_name': ''}, {'chain_id': 'A', 'author_residue_number': 184, 'author_insertion_code': '', 'chem_comp_id': 'EDO', 'alternate_conformers': 0, 'entity_id': 3, 'struct_asym_id': 'D', 'residue_number': 1, 'chem_comp_name': '1,2-ETHANEDIOL', 'weight': 62.068, 'carbohydrate_polymer': False, 'branch_name': ''}, {'chain_id': 'A', 'author_residue_number': 185, 'author_insertion_code': '', 'chem_comp_id': 'EDO', 'alternate_conformers': 0, 'entity_id': 3, 'struct_asym_id': 'E', 'residue_number': 1, 'chem_comp_name': '1,2-ETHANEDIOL', 'weight': 62.068, 'carbohydrate_polymer': False, 'branch_name': ''}, {'chain_id': 'B', 'author_residue_number': 184, 'author_insertion_code': '', 'chem_comp_id': 'EDO', 'alternate_conformers': 0, 'entity_id': 3, 'struct_asym_id': 'G', 'residue_number': 1, 'chem_comp_name': '1,2-ETHANEDIOL', 'weight': 62.068, 'carbohydrate_polymer': False, 'branch_name': ''}, {'chain_id': 'B', 'author_residue_number': 185, 'author_insertion_code': '', 'chem_comp_id': 'EDO', 'alternate_conformers': 0, 'entity_id': 3, 'struct_asym_id': 'H', 'residue_number': 1, 'chem_comp_name': '1,2-ETHANEDIOL', 'weight': 62.068, 'carbohydrate_polymer': False, 'branch_name': ''}]

>  <ligand_codes>  (806) 
['AG7', 'AG7', 'EDO', 'EDO', 'EDO', 'EDO']

>  <cofactor_codes>  (806) 
[]

>  <has_cofactor>  (806) 
False

>  <covalent>  (806) 
True

>  <base_name>  (806) 
3R0F

>  <lig_resn>  (806) 
AG7

>  <lig_resi>  (806) 
501

>  <lig_chain>  (806) 
A

>  <lig_segi>  (806) 
C

>  <lig_alt>  (806) 


>  <polymer_chain>  (806) 
A

>  <single_smiles>  (806) 
CCOC(=O)CC[C@H](C[C@@H]1CCNC1=O)NC(=O)[C@@H](CC(=O)[C@@H](NC(=O)c2cc(C)on2)C(C)C)Cc3ccc(F)cc3

$$$$
AG7P21S1
     RDKit          3D

 17 17  0  0  0  0  0  0  0  0999 V2000
   -8.3980   11.0090  -33.8670 N   0  0  0  0  0  0  0  0  0  0  0  0
   -7.4250    9.9840  -33.4820 C   0  0  1  0  0  0  0  0  0  0  0  0
   -7.3730    9.8180  -31.9860 C   0  0  0  0  0  0  0  0  0  0  0  0
   -7.8000    8.7080  -34.2240 C   0  0  2  0  0  0  0  0  0  0  0  0
   -6.9020   11.0990  -31.2870 C   0  0  1  0  0  0  0  0  0  0  0  0
   -7.6930    8.7200  -35.7320 C   0  0  0  0  0  0  0  0  0  0  0  0
   -9.6610    8.3310  -33.8000 R   0  0  0  0  0  0  0  0  0  0  0  0
   -6.8840   10.9300  -29.8210 C   0  0  0  0  0  0  0  0  0  0  0  0
   -5.5070   11.5250  -31.6520 C   0  0  0  0  0  0  0  0  0  0  0  0
   -6.2700    8.9490  -36.1640 C   0  0  0  0  0  0  0  0  0  0  0  0
   -5.7340   11.6000  -29.3140 N   0  0  0  0  0  0  0  0  0  0  0  0
   -7.5830   10.2190  -29.1600 O   0  0  0  0  0  0  0  0  0  0  0  0
   -5.0970   12.3000  -30.4180 C   0  0  0  0  0  0  0  0  0  0  0  0
   -6.0890    9.7380  -37.1470 O   0  0  0  0  0  0  0  0  0  0  0  0
   -5.3370    8.3840  -35.5820 O   0  0  0  0  0  0  0  0  0  0  0  0
   -4.7970   10.0720  -37.5320 C   0  0  0  0  0  0  0  0  0  0  0  0
   -4.8460   11.4130  -38.2360 C   0  0  0  0  0  0  0  0  0  0  0  0
  2  1  1  1
  2  3  1  0
  2  4  1  0
  5  3  1  6
  4  6  1  0
  4  7  1  6
  5  8  1  0
  5  9  1  0
  6 10  1  0
  8 11  1  0
  8 12  2  0
 13  9  1  0
 10 14  1  0
 10 15  2  0
 11 13  1  0
 14 16  1  0
 16 17  1  0
V    7 *
A    2
 C13
A    3
 C14
A    4
 C19
A    5
 C15
A    6
 C20
A    7
 X  
A    8
 C16
A    9
 C84
A   10
 C21
A   11
 N17
A   12
 O18
A   13
 C83
A   14
 O22
A   15
 O23
A   16
 C50
A   17
 C53
M  END
>  <XChem_code>  (807) 
AG7§21

>  <Occupancy>  (807) 
[1.0, 1.0, 1.0, 1.0, 1.0, 1.0, 1.0, 1.0, 1.0, 1.0, 1.0, 1.0, 1.0, 1.0, 1.0, 1.0, 1.0, 1.0, 1.0, 1.0, 1.0, 1.0, 1.0, 1.0, 1.0, 1.0, 1.0, 1.0, 1.0, 1.0, 1.0, 1.0, 1.0, 1.0, 1.0, 1.0, 1.0, 1.0, 1.0, 1.0, 1.0, 1.0, 1.0, 1.0]

>  <TempFactor>  (807) 
[11.1, 20.91, 12.33, 21.54, 28.02, 10.23, 11.74, 33.15, 31.53, 14.67, 25.91, 17.57, 20.17, 22.48, 24.62, 23.23, 20.48, 10.14, 10.8, 10.98, 11.96, 13.14, 11.93, 10.58, 15.79, 15.3, 17.28, 19.56, 15.73, 11.53, 12.15, 23.48, 27.32, 11.33, 13.47, 17.51, 18.05, 14.14, 15.23, 13.92, 11.83, 10.72, 9.75, 27.35]

>  <accession>  (807) 
3R0F_A

>  <description>  (807) 
Chain A, 3C protein [Enterovirus A71]

>  <evalue>  (807) 
6.09465e-58

>  <pdb_code>  (807) 
3R0F

>  <chain>  (807) 
A

>  <ligands>  (807) 
[{'chain_id': 'A', 'author_residue_number': 501, 'author_insertion_code': '', 'chem_comp_id': 'AG7', 'alternate_conformers': 0, 'entity_id': 2, 'struct_asym_id': 'C', 'residue_number': 1, 'chem_comp_name': '4-{2-(4-FLUORO-BENZYL)-6-METHYL-5-[(5-METHYL-ISOXAZOLE-3-CARBONYL)-AMINO]-4-OXO-HEPTANOYLAMINO}-5-(2-OXO-PYRROLIDIN-3-YL)-PENTANOIC ACID ETHYL ESTER', 'weight': 600.678, 'carbohydrate_polymer': False, 'branch_name': ''}, {'chain_id': 'B', 'author_residue_number': 501, 'author_insertion_code': '', 'chem_comp_id': 'AG7', 'alternate_conformers': 0, 'entity_id': 2, 'struct_asym_id': 'F', 'residue_number': 1, 'chem_comp_name': '4-{2-(4-FLUORO-BENZYL)-6-METHYL-5-[(5-METHYL-ISOXAZOLE-3-CARBONYL)-AMINO]-4-OXO-HEPTANOYLAMINO}-5-(2-OXO-PYRROLIDIN-3-YL)-PENTANOIC ACID ETHYL ESTER', 'weight': 600.678, 'carbohydrate_polymer': False, 'branch_name': ''}, {'chain_id': 'A', 'author_residue_number': 184, 'author_insertion_code': '', 'chem_comp_id': 'EDO', 'alternate_conformers': 0, 'entity_id': 3, 'struct_asym_id': 'D', 'residue_number': 1, 'chem_comp_name': '1,2-ETHANEDIOL', 'weight': 62.068, 'carbohydrate_polymer': False, 'branch_name': ''}, {'chain_id': 'A', 'author_residue_number': 185, 'author_insertion_code': '', 'chem_comp_id': 'EDO', 'alternate_conformers': 0, 'entity_id': 3, 'struct_asym_id': 'E', 'residue_number': 1, 'chem_comp_name': '1,2-ETHANEDIOL', 'weight': 62.068, 'carbohydrate_polymer': False, 'branch_name': ''}, {'chain_id': 'B', 'author_residue_number': 184, 'author_insertion_code': '', 'chem_comp_id': 'EDO', 'alternate_conformers': 0, 'entity_id': 3, 'struct_asym_id': 'G', 'residue_number': 1, 'chem_comp_name': '1,2-ETHANEDIOL', 'weight': 62.068, 'carbohydrate_polymer': False, 'branch_name': ''}, {'chain_id': 'B', 'author_residue_number': 185, 'author_insertion_code': '', 'chem_comp_id': 'EDO', 'alternate_conformers': 0, 'entity_id': 3, 'struct_asym_id': 'H', 'residue_number': 1, 'chem_comp_name': '1,2-ETHANEDIOL', 'weight': 62.068, 'carbohydrate_polymer': False, 'branch_name': ''}]

>  <ligand_codes>  (807) 
['AG7', 'AG7', 'EDO', 'EDO', 'EDO', 'EDO']

>  <cofactor_codes>  (807) 
[]

>  <has_cofactor>  (807) 
False

>  <covalent>  (807) 
True

>  <base_name>  (807) 
3R0F

>  <lig_resn>  (807) 
AG7

>  <lig_resi>  (807) 
501

>  <lig_chain>  (807) 
A

>  <lig_segi>  (807) 
C

>  <lig_alt>  (807) 


>  <polymer_chain>  (807) 
A

>  <single_smiles>  (807) 
CCOC(=O)CC[C@H](C[C@@H]1CCNC1=O)NC(=O)[C@@H](CC(=O)[C@@H](NC(=O)c2cc(C)on2)C(C)C)Cc3ccc(F)cc3

$$$$
AG7P21S2
     RDKit          3D

 27 28  0  0  0  0  0  0  0  0999 V2000
   -7.9420   12.2650  -34.4580 C   0  0  0  0  0  0  0  0  0  0  0  0
   -9.0190   13.1280  -35.0570 C   0  0  1  0  0  0  0  0  0  0  0  0
   -6.7840   12.4330  -34.6620 O   0  0  0  0  0  0  0  0  0  0  0  0
   -8.6730   14.5850  -34.7520 C   0  0  0  0  0  0  0  0  0  0  0  0
   -9.1080   12.8250  -36.5400 C   0  0  0  0  0  0  0  0  0  0  0  0
   -8.6380   14.8860  -33.2600 C   0  0  0  0  0  0  0  0  0  0  0  0
  -10.1500   13.6920  -37.2180 C   0  0  0  0  0  0  0  0  0  0  0  0
   -8.8080   14.0630  -32.4060 O   0  0  0  0  0  0  0  0  0  0  0  0
   -8.3120   16.3420  -32.8970 C   0  0  1  0  0  0  0  0  0  0  0  0
  -11.4610   13.5630  -36.9490 C   0  0  0  0  0  0  0  0  0  0  0  0
   -9.6910   14.5990  -38.2790 C   0  0  0  0  0  0  0  0  0  0  0  0
   -8.7060   16.6300  -31.5470 N   0  0  0  0  0  0  0  0  0  0  0  0
   -6.8540   16.7080  -33.1340 C   0  0  0  0  0  0  0  0  0  0  0  0
  -12.4610   14.3840  -37.6880 C   0  0  0  0  0  0  0  0  0  0  0  0
  -10.6060   15.3460  -38.9640 C   0  0  0  0  0  0  0  0  0  0  0  0
   -9.7630   17.5740  -31.2860 C   0  0  0  0  0  0  0  0  0  0  0  0
   -6.6180   18.1230  -32.6450 C   0  0  0  0  0  0  0  0  0  0  0  0
   -5.9260   15.8060  -32.3870 C   0  0  0  0  0  0  0  0  0  0  0  0
  -12.0490   15.2290  -38.6420 C   0  0  0  0  0  0  0  0  0  0  0  0
  -10.1380   17.8080  -29.8610 C   0  0  0  0  0  0  0  0  0  0  0  0
  -10.1690   18.3250  -32.1460 O   0  0  0  0  0  0  0  0  0  0  0  0
  -12.9270   15.9490  -39.3140 F   0  0  0  0  0  0  0  0  0  0  0  0
  -11.1190   18.7800  -29.4370 C   0  0  0  0  0  0  0  0  0  0  0  0
   -9.8870   17.0260  -28.8310 N   0  0  0  0  0  0  0  0  0  0  0  0
  -11.2290   18.6960  -28.1430 C   0  0  0  0  0  0  0  0  0  0  0  0
  -10.5080   17.5930  -27.7590 O   0  0  0  0  0  0  0  0  0  0  0  0
  -12.1640   19.5270  -27.3100 C   0  0  0  0  0  0  0  0  0  0  0  0
  2  1  1  0
  1  3  2  0
  2  4  1  6
  2  5  1  0
  6  4  1  0
  5  7  1  0
  6  8  2  0
  6  9  1  0
  7 10  2  0
  7 11  1  0
  9 12  1  1
  9 13  1  0
 10 14  1  0
 15 11  2  0
 12 16  1  0
 13 17  1  0
 13 18  1  0
 14 19  2  0
 19 15  1  0
 20 16  1  0
 16 21  2  0
 19 22  1  0
 20 23  1  0
 20 24  2  0
 23 25  2  0
 26 24  1  0
 25 27  1  0
 25 26  1  0
A    2
 C04
A    3
 O48
A    4
 C02
A    5
 C05
A    6
 C01
A    7
 C06
A    8
 O03
A    9
 C57
A   10
 C07
A   11
 C11
A   12
 N58
A   13
 C78
A   14
 C08
A   15
 C10
A   16
 C59
A   17
 C81
A   18
 C82
A   19
 C09
A   20
 C1 
A   21
 O60
A   22
 F1 
A   23
 C2 
A   24
 N5 
A   25
 C3 
A   26
 O4 
A   27
 C4 
M  END
>  <XChem_code>  (808) 
AG7§21

>  <Occupancy>  (808) 
[1.0, 1.0, 1.0, 1.0, 1.0, 1.0, 1.0, 1.0, 1.0, 1.0, 1.0, 1.0, 1.0, 1.0, 1.0, 1.0, 1.0, 1.0, 1.0, 1.0, 1.0, 1.0, 1.0, 1.0, 1.0, 1.0, 1.0, 1.0, 1.0, 1.0, 1.0, 1.0, 1.0, 1.0, 1.0, 1.0, 1.0, 1.0, 1.0, 1.0, 1.0, 1.0, 1.0, 1.0]

>  <TempFactor>  (808) 
[11.1, 20.91, 12.33, 21.54, 28.02, 10.23, 11.74, 33.15, 31.53, 14.67, 25.91, 17.57, 20.17, 22.48, 24.62, 23.23, 20.48, 10.14, 10.8, 10.98, 11.96, 13.14, 11.93, 10.58, 15.79, 15.3, 17.28, 19.56, 15.73, 11.53, 12.15, 23.48, 27.32, 11.33, 13.47, 17.51, 18.05, 14.14, 15.23, 13.92, 11.83, 10.72, 9.75, 27.35]

>  <accession>  (808) 
3R0F_A

>  <description>  (808) 
Chain A, 3C protein [Enterovirus A71]

>  <evalue>  (808) 
6.09465e-58

>  <pdb_code>  (808) 
3R0F

>  <chain>  (808) 
A

>  <ligands>  (808) 
[{'chain_id': 'A', 'author_residue_number': 501, 'author_insertion_code': '', 'chem_comp_id': 'AG7', 'alternate_conformers': 0, 'entity_id': 2, 'struct_asym_id': 'C', 'residue_number': 1, 'chem_comp_name': '4-{2-(4-FLUORO-BENZYL)-6-METHYL-5-[(5-METHYL-ISOXAZOLE-3-CARBONYL)-AMINO]-4-OXO-HEPTANOYLAMINO}-5-(2-OXO-PYRROLIDIN-3-YL)-PENTANOIC ACID ETHYL ESTER', 'weight': 600.678, 'carbohydrate_polymer': False, 'branch_name': ''}, {'chain_id': 'B', 'author_residue_number': 501, 'author_insertion_code': '', 'chem_comp_id': 'AG7', 'alternate_conformers': 0, 'entity_id': 2, 'struct_asym_id': 'F', 'residue_number': 1, 'chem_comp_name': '4-{2-(4-FLUORO-BENZYL)-6-METHYL-5-[(5-METHYL-ISOXAZOLE-3-CARBONYL)-AMINO]-4-OXO-HEPTANOYLAMINO}-5-(2-OXO-PYRROLIDIN-3-YL)-PENTANOIC ACID ETHYL ESTER', 'weight': 600.678, 'carbohydrate_polymer': False, 'branch_name': ''}, {'chain_id': 'A', 'author_residue_number': 184, 'author_insertion_code': '', 'chem_comp_id': 'EDO', 'alternate_conformers': 0, 'entity_id': 3, 'struct_asym_id': 'D', 'residue_number': 1, 'chem_comp_name': '1,2-ETHANEDIOL', 'weight': 62.068, 'carbohydrate_polymer': False, 'branch_name': ''}, {'chain_id': 'A', 'author_residue_number': 185, 'author_insertion_code': '', 'chem_comp_id': 'EDO', 'alternate_conformers': 0, 'entity_id': 3, 'struct_asym_id': 'E', 'residue_number': 1, 'chem_comp_name': '1,2-ETHANEDIOL', 'weight': 62.068, 'carbohydrate_polymer': False, 'branch_name': ''}, {'chain_id': 'B', 'author_residue_number': 184, 'author_insertion_code': '', 'chem_comp_id': 'EDO', 'alternate_conformers': 0, 'entity_id': 3, 'struct_asym_id': 'G', 'residue_number': 1, 'chem_comp_name': '1,2-ETHANEDIOL', 'weight': 62.068, 'carbohydrate_polymer': False, 'branch_name': ''}, {'chain_id': 'B', 'author_residue_number': 185, 'author_insertion_code': '', 'chem_comp_id': 'EDO', 'alternate_conformers': 0, 'entity_id': 3, 'struct_asym_id': 'H', 'residue_number': 1, 'chem_comp_name': '1,2-ETHANEDIOL', 'weight': 62.068, 'carbohydrate_polymer': False, 'branch_name': ''}]

>  <ligand_codes>  (808) 
['AG7', 'AG7', 'EDO', 'EDO', 'EDO', 'EDO']

>  <cofactor_codes>  (808) 
[]

>  <has_cofactor>  (808) 
False

>  <covalent>  (808) 
True

>  <base_name>  (808) 
3R0F

>  <lig_resn>  (808) 
AG7

>  <lig_resi>  (808) 
501

>  <lig_chain>  (808) 
A

>  <lig_segi>  (808) 
C

>  <lig_alt>  (808) 


>  <polymer_chain>  (808) 
A

>  <single_smiles>  (808) 
CCOC(=O)CC[C@H](C[C@@H]1CCNC1=O)NC(=O)[C@@H](CC(=O)[C@@H](NC(=O)c2cc(C)on2)C(C)C)Cc3ccc(F)cc3

$$$$
AG7P21S3
     RDKit          3D

  8  8  0  0  0  0  0  0  0  0999 V2000
   -9.7630   17.5740  -31.2860 C   0  0  0  0  0  0  0  0  0  0  0  0
  -10.1380   17.8080  -29.8610 C   0  0  0  0  0  0  0  0  0  0  0  0
  -10.1690   18.3250  -32.1460 O   0  0  0  0  0  0  0  0  0  0  0  0
  -11.1190   18.7800  -29.4370 C   0  0  0  0  0  0  0  0  0  0  0  0
   -9.8870   17.0260  -28.8310 N   0  0  0  0  0  0  0  0  0  0  0  0
  -11.2290   18.6960  -28.1430 C   0  0  0  0  0  0  0  0  0  0  0  0
  -10.5080   17.5930  -27.7590 O   0  0  0  0  0  0  0  0  0  0  0  0
  -12.1640   19.5270  -27.3100 C   0  0  0  0  0  0  0  0  0  0  0  0
  2  1  1  0
  1  3  2  0
  2  4  1  0
  2  5  2  0
  4  6  2  0
  7  5  1  0
  6  8  1  0
  6  7  1  0
A    2
 C1 
A    3
 O60
A    4
 C2 
A    5
 N5 
A    6
 C3 
A    7
 O4 
A    8
 C4 
M  END
>  <XChem_code>  (809) 
AG7§21

>  <Occupancy>  (809) 
[1.0, 1.0, 1.0, 1.0, 1.0, 1.0, 1.0, 1.0, 1.0, 1.0, 1.0, 1.0, 1.0, 1.0, 1.0, 1.0, 1.0, 1.0, 1.0, 1.0, 1.0, 1.0, 1.0, 1.0, 1.0, 1.0, 1.0, 1.0, 1.0, 1.0, 1.0, 1.0, 1.0, 1.0, 1.0, 1.0, 1.0, 1.0, 1.0, 1.0, 1.0, 1.0, 1.0, 1.0]

>  <TempFactor>  (809) 
[11.1, 20.91, 12.33, 21.54, 28.02, 10.23, 11.74, 33.15, 31.53, 14.67, 25.91, 17.57, 20.17, 22.48, 24.62, 23.23, 20.48, 10.14, 10.8, 10.98, 11.96, 13.14, 11.93, 10.58, 15.79, 15.3, 17.28, 19.56, 15.73, 11.53, 12.15, 23.48, 27.32, 11.33, 13.47, 17.51, 18.05, 14.14, 15.23, 13.92, 11.83, 10.72, 9.75, 27.35]

>  <accession>  (809) 
3R0F_A

>  <description>  (809) 
Chain A, 3C protein [Enterovirus A71]

>  <evalue>  (809) 
6.09465e-58

>  <pdb_code>  (809) 
3R0F

>  <chain>  (809) 
A

>  <ligands>  (809) 
[{'chain_id': 'A', 'author_residue_number': 501, 'author_insertion_code': '', 'chem_comp_id': 'AG7', 'alternate_conformers': 0, 'entity_id': 2, 'struct_asym_id': 'C', 'residue_number': 1, 'chem_comp_name': '4-{2-(4-FLUORO-BENZYL)-6-METHYL-5-[(5-METHYL-ISOXAZOLE-3-CARBONYL)-AMINO]-4-OXO-HEPTANOYLAMINO}-5-(2-OXO-PYRROLIDIN-3-YL)-PENTANOIC ACID ETHYL ESTER', 'weight': 600.678, 'carbohydrate_polymer': False, 'branch_name': ''}, {'chain_id': 'B', 'author_residue_number': 501, 'author_insertion_code': '', 'chem_comp_id': 'AG7', 'alternate_conformers': 0, 'entity_id': 2, 'struct_asym_id': 'F', 'residue_number': 1, 'chem_comp_name': '4-{2-(4-FLUORO-BENZYL)-6-METHYL-5-[(5-METHYL-ISOXAZOLE-3-CARBONYL)-AMINO]-4-OXO-HEPTANOYLAMINO}-5-(2-OXO-PYRROLIDIN-3-YL)-PENTANOIC ACID ETHYL ESTER', 'weight': 600.678, 'carbohydrate_polymer': False, 'branch_name': ''}, {'chain_id': 'A', 'author_residue_number': 184, 'author_insertion_code': '', 'chem_comp_id': 'EDO', 'alternate_conformers': 0, 'entity_id': 3, 'struct_asym_id': 'D', 'residue_number': 1, 'chem_comp_name': '1,2-ETHANEDIOL', 'weight': 62.068, 'carbohydrate_polymer': False, 'branch_name': ''}, {'chain_id': 'A', 'author_residue_number': 185, 'author_insertion_code': '', 'chem_comp_id': 'EDO', 'alternate_conformers': 0, 'entity_id': 3, 'struct_asym_id': 'E', 'residue_number': 1, 'chem_comp_name': '1,2-ETHANEDIOL', 'weight': 62.068, 'carbohydrate_polymer': False, 'branch_name': ''}, {'chain_id': 'B', 'author_residue_number': 184, 'author_insertion_code': '', 'chem_comp_id': 'EDO', 'alternate_conformers': 0, 'entity_id': 3, 'struct_asym_id': 'G', 'residue_number': 1, 'chem_comp_name': '1,2-ETHANEDIOL', 'weight': 62.068, 'carbohydrate_polymer': False, 'branch_name': ''}, {'chain_id': 'B', 'author_residue_number': 185, 'author_insertion_code': '', 'chem_comp_id': 'EDO', 'alternate_conformers': 0, 'entity_id': 3, 'struct_asym_id': 'H', 'residue_number': 1, 'chem_comp_name': '1,2-ETHANEDIOL', 'weight': 62.068, 'carbohydrate_polymer': False, 'branch_name': ''}]

>  <ligand_codes>  (809) 
['AG7', 'AG7', 'EDO', 'EDO', 'EDO', 'EDO']

>  <cofactor_codes>  (809) 
[]

>  <has_cofactor>  (809) 
False

>  <covalent>  (809) 
True

>  <base_name>  (809) 
3R0F

>  <lig_resn>  (809) 
AG7

>  <lig_resi>  (809) 
501

>  <lig_chain>  (809) 
A

>  <lig_segi>  (809) 
C

>  <lig_alt>  (809) 


>  <polymer_chain>  (809) 
A

>  <single_smiles>  (809) 
CCOC(=O)CC[C@H](C[C@@H]1CCNC1=O)NC(=O)[C@@H](CC(=O)[C@@H](NC(=O)c2cc(C)on2)C(C)C)Cc3ccc(F)cc3

$$$$
AG7P21S4
     RDKit          3D

 36 37  0  0  0  0  0  0  0  0999 V2000
   -8.7060   16.6300  -31.5470 N   0  0  0  0  0  0  0  0  0  0  0  0
   -8.3120   16.3420  -32.8970 C   0  0  2  0  0  0  0  0  0  0  0  0
   -8.6380   14.8860  -33.2600 C   0  0  0  0  0  0  0  0  0  0  0  0
   -6.8540   16.7080  -33.1340 C   0  0  0  0  0  0  0  0  0  0  0  0
   -8.6730   14.5850  -34.7520 C   0  0  0  0  0  0  0  0  0  0  0  0
   -8.8080   14.0630  -32.4060 O   0  0  0  0  0  0  0  0  0  0  0  0
   -6.6180   18.1230  -32.6450 C   0  0  0  0  0  0  0  0  0  0  0  0
   -5.9260   15.8060  -32.3870 C   0  0  0  0  0  0  0  0  0  0  0  0
   -9.0190   13.1280  -35.0570 C   0  0  1  0  0  0  0  0  0  0  0  0
   -9.1080   12.8250  -36.5400 C   0  0  0  0  0  0  0  0  0  0  0  0
   -7.9420   12.2650  -34.4580 C   0  0  0  0  0  0  0  0  0  0  0  0
  -10.1500   13.6920  -37.2180 C   0  0  0  0  0  0  0  0  0  0  0  0
   -8.3980   11.0090  -33.8670 N   0  0  0  0  0  0  0  0  0  0  0  0
   -6.7840   12.4330  -34.6620 O   0  0  0  0  0  0  0  0  0  0  0  0
  -11.4610   13.5630  -36.9490 C   0  0  0  0  0  0  0  0  0  0  0  0
   -9.6910   14.5990  -38.2790 C   0  0  0  0  0  0  0  0  0  0  0  0
   -7.4250    9.9840  -33.4820 C   0  0  1  0  0  0  0  0  0  0  0  0
  -12.4610   14.3840  -37.6880 C   0  0  0  0  0  0  0  0  0  0  0  0
  -10.6060   15.3460  -38.9640 C   0  0  0  0  0  0  0  0  0  0  0  0
   -7.3730    9.8180  -31.9860 C   0  0  0  0  0  0  0  0  0  0  0  0
   -7.8000    8.7080  -34.2240 C   0  0  2  0  0  0  0  0  0  0  0  0
  -12.0490   15.2290  -38.6420 C   0  0  0  0  0  0  0  0  0  0  0  0
   -6.9020   11.0990  -31.2870 C   0  0  1  0  0  0  0  0  0  0  0  0
   -7.6930    8.7200  -35.7320 C   0  0  0  0  0  0  0  0  0  0  0  0
   -9.6610    8.3310  -33.8000 R   0  0  0  0  0  0  0  0  0  0  0  0
  -12.9270   15.9490  -39.3140 F   0  0  0  0  0  0  0  0  0  0  0  0
   -6.8840   10.9300  -29.8210 C   0  0  0  0  0  0  0  0  0  0  0  0
   -5.5070   11.5250  -31.6520 C   0  0  0  0  0  0  0  0  0  0  0  0
   -6.2700    8.9490  -36.1640 C   0  0  0  0  0  0  0  0  0  0  0  0
   -5.7340   11.6000  -29.3140 N   0  0  0  0  0  0  0  0  0  0  0  0
   -7.5830   10.2190  -29.1600 O   0  0  0  0  0  0  0  0  0  0  0  0
   -5.0970   12.3000  -30.4180 C   0  0  0  0  0  0  0  0  0  0  0  0
   -6.0890    9.7380  -37.1470 O   0  0  0  0  0  0  0  0  0  0  0  0
   -5.3370    8.3840  -35.5820 O   0  0  0  0  0  0  0  0  0  0  0  0
   -4.7970   10.0720  -37.5320 C   0  0  0  0  0  0  0  0  0  0  0  0
   -4.8460   11.4130  -38.2360 C   0  0  0  0  0  0  0  0  0  0  0  0
  2  1  1  1
  3  2  1  0
  2  4  1  0
  3  5  1  0
  3  6  2  0
  4  7  1  0
  4  8  1  0
  9  5  1  6
  9 10  1  0
  9 11  1  0
 10 12  1  0
 13 11  1  0
 11 14  2  0
 12 15  2  0
 12 16  1  0
 13 17  1  0
 15 18  1  0
 19 16  2  0
 17 20  1  1
 17 21  1  0
 18 22  2  0
 22 19  1  0
 23 20  1  6
 21 24  1  0
 21 25  1  6
 22 26  1  0
 23 27  1  0
 23 28  1  0
 24 29  1  0
 27 30  1  0
 27 31  2  0
 32 28  1  0
 29 33  1  0
 29 34  2  0
 30 32  1  0
 33 35  1  0
 35 36  1  0
V   25 *
A    2
 C57
A    3
 C01
A    4
 C78
A    5
 C02
A    6
 O03
A    7
 C81
A    8
 C82
A    9
 C04
A   10
 C05
A   11
 C47
A   12
 C06
A   13
 N12
A   14
 O48
A   15
 C07
A   16
 C11
A   17
 C13
A   18
 C08
A   19
 C10
A   20
 C14
A   21
 C19
A   22
 C09
A   23
 C15
A   24
 C20
A   25
 X  
A   26
 F1 
A   27
 C16
A   28
 C84
A   29
 C21
A   30
 N17
A   31
 O18
A   32
 C83
A   33
 O22
A   34
 O23
A   35
 C50
A   36
 C53
M  END
>  <XChem_code>  (810) 
AG7§21

>  <Occupancy>  (810) 
[1.0, 1.0, 1.0, 1.0, 1.0, 1.0, 1.0, 1.0, 1.0, 1.0, 1.0, 1.0, 1.0, 1.0, 1.0, 1.0, 1.0, 1.0, 1.0, 1.0, 1.0, 1.0, 1.0, 1.0, 1.0, 1.0, 1.0, 1.0, 1.0, 1.0, 1.0, 1.0, 1.0, 1.0, 1.0, 1.0, 1.0, 1.0, 1.0, 1.0, 1.0, 1.0, 1.0, 1.0]

>  <TempFactor>  (810) 
[11.1, 20.91, 12.33, 21.54, 28.02, 10.23, 11.74, 33.15, 31.53, 14.67, 25.91, 17.57, 20.17, 22.48, 24.62, 23.23, 20.48, 10.14, 10.8, 10.98, 11.96, 13.14, 11.93, 10.58, 15.79, 15.3, 17.28, 19.56, 15.73, 11.53, 12.15, 23.48, 27.32, 11.33, 13.47, 17.51, 18.05, 14.14, 15.23, 13.92, 11.83, 10.72, 9.75, 27.35]

>  <accession>  (810) 
3R0F_A

>  <description>  (810) 
Chain A, 3C protein [Enterovirus A71]

>  <evalue>  (810) 
6.09465e-58

>  <pdb_code>  (810) 
3R0F

>  <chain>  (810) 
A

>  <ligands>  (810) 
[{'chain_id': 'A', 'author_residue_number': 501, 'author_insertion_code': '', 'chem_comp_id': 'AG7', 'alternate_conformers': 0, 'entity_id': 2, 'struct_asym_id': 'C', 'residue_number': 1, 'chem_comp_name': '4-{2-(4-FLUORO-BENZYL)-6-METHYL-5-[(5-METHYL-ISOXAZOLE-3-CARBONYL)-AMINO]-4-OXO-HEPTANOYLAMINO}-5-(2-OXO-PYRROLIDIN-3-YL)-PENTANOIC ACID ETHYL ESTER', 'weight': 600.678, 'carbohydrate_polymer': False, 'branch_name': ''}, {'chain_id': 'B', 'author_residue_number': 501, 'author_insertion_code': '', 'chem_comp_id': 'AG7', 'alternate_conformers': 0, 'entity_id': 2, 'struct_asym_id': 'F', 'residue_number': 1, 'chem_comp_name': '4-{2-(4-FLUORO-BENZYL)-6-METHYL-5-[(5-METHYL-ISOXAZOLE-3-CARBONYL)-AMINO]-4-OXO-HEPTANOYLAMINO}-5-(2-OXO-PYRROLIDIN-3-YL)-PENTANOIC ACID ETHYL ESTER', 'weight': 600.678, 'carbohydrate_polymer': False, 'branch_name': ''}, {'chain_id': 'A', 'author_residue_number': 184, 'author_insertion_code': '', 'chem_comp_id': 'EDO', 'alternate_conformers': 0, 'entity_id': 3, 'struct_asym_id': 'D', 'residue_number': 1, 'chem_comp_name': '1,2-ETHANEDIOL', 'weight': 62.068, 'carbohydrate_polymer': False, 'branch_name': ''}, {'chain_id': 'A', 'author_residue_number': 185, 'author_insertion_code': '', 'chem_comp_id': 'EDO', 'alternate_conformers': 0, 'entity_id': 3, 'struct_asym_id': 'E', 'residue_number': 1, 'chem_comp_name': '1,2-ETHANEDIOL', 'weight': 62.068, 'carbohydrate_polymer': False, 'branch_name': ''}, {'chain_id': 'B', 'author_residue_number': 184, 'author_insertion_code': '', 'chem_comp_id': 'EDO', 'alternate_conformers': 0, 'entity_id': 3, 'struct_asym_id': 'G', 'residue_number': 1, 'chem_comp_name': '1,2-ETHANEDIOL', 'weight': 62.068, 'carbohydrate_polymer': False, 'branch_name': ''}, {'chain_id': 'B', 'author_residue_number': 185, 'author_insertion_code': '', 'chem_comp_id': 'EDO', 'alternate_conformers': 0, 'entity_id': 3, 'struct_asym_id': 'H', 'residue_number': 1, 'chem_comp_name': '1,2-ETHANEDIOL', 'weight': 62.068, 'carbohydrate_polymer': False, 'branch_name': ''}]

>  <ligand_codes>  (810) 
['AG7', 'AG7', 'EDO', 'EDO', 'EDO', 'EDO']

>  <cofactor_codes>  (810) 
[]

>  <has_cofactor>  (810) 
False

>  <covalent>  (810) 
True

>  <base_name>  (810) 
3R0F

>  <lig_resn>  (810) 
AG7

>  <lig_resi>  (810) 
501

>  <lig_chain>  (810) 
A

>  <lig_segi>  (810) 
C

>  <lig_alt>  (810) 


>  <polymer_chain>  (810) 
A

>  <single_smiles>  (810) 
CCOC(=O)CC[C@H](C[C@@H]1CCNC1=O)NC(=O)[C@@H](CC(=O)[C@@H](NC(=O)c2cc(C)on2)C(C)C)Cc3ccc(F)cc3

$$$$
AG7P21S5
     RDKit          3D

 19 19  0  0  0  0  0  0  0  0999 V2000
   -8.7060   16.6300  -31.5470 N   0  0  0  0  0  0  0  0  0  0  0  0
   -8.3120   16.3420  -32.8970 C   0  0  2  0  0  0  0  0  0  0  0  0
   -8.6380   14.8860  -33.2600 C   0  0  0  0  0  0  0  0  0  0  0  0
   -6.8540   16.7080  -33.1340 C   0  0  0  0  0  0  0  0  0  0  0  0
   -8.6730   14.5850  -34.7520 C   0  0  0  0  0  0  0  0  0  0  0  0
   -8.8080   14.0630  -32.4060 O   0  0  0  0  0  0  0  0  0  0  0  0
   -6.6180   18.1230  -32.6450 C   0  0  0  0  0  0  0  0  0  0  0  0
   -5.9260   15.8060  -32.3870 C   0  0  0  0  0  0  0  0  0  0  0  0
   -9.0190   13.1280  -35.0570 C   0  0  2  0  0  0  0  0  0  0  0  0
   -7.9420   12.2650  -34.4580 C   0  0  0  0  0  0  0  0  0  0  0  0
   -9.1080   12.8250  -36.5400 C   0  0  0  0  0  0  0  0  0  0  0  0
   -6.7840   12.4330  -34.6620 O   0  0  0  0  0  0  0  0  0  0  0  0
  -10.1500   13.6920  -37.2180 C   0  0  0  0  0  0  0  0  0  0  0  0
  -11.4610   13.5630  -36.9490 C   0  0  0  0  0  0  0  0  0  0  0  0
   -9.6910   14.5990  -38.2790 C   0  0  0  0  0  0  0  0  0  0  0  0
  -12.4610   14.3840  -37.6880 C   0  0  0  0  0  0  0  0  0  0  0  0
  -10.6060   15.3460  -38.9640 C   0  0  0  0  0  0  0  0  0  0  0  0
  -12.0490   15.2290  -38.6420 C   0  0  0  0  0  0  0  0  0  0  0  0
  -12.9270   15.9490  -39.3140 F   0  0  0  0  0  0  0  0  0  0  0  0
  2  1  1  1
  3  2  1  0
  2  4  1  0
  3  5  1  0
  3  6  2  0
  4  7  1  0
  4  8  1  0
  9  5  1  6
  9 10  1  0
  9 11  1  0
 10 12  2  0
 11 13  1  0
 13 14  2  0
 13 15  1  0
 14 16  1  0
 17 15  2  0
 16 18  2  0
 18 17  1  0
 18 19  1  0
A    2
 C57
A    3
 C01
A    4
 C78
A    5
 C02
A    6
 O03
A    7
 C81
A    8
 C82
A    9
 C04
A   11
 C05
A   12
 O48
A   13
 C06
A   14
 C07
A   15
 C11
A   16
 C08
A   17
 C10
A   18
 C09
A   19
 F1 
M  END
>  <XChem_code>  (811) 
AG7§21

>  <Occupancy>  (811) 
[1.0, 1.0, 1.0, 1.0, 1.0, 1.0, 1.0, 1.0, 1.0, 1.0, 1.0, 1.0, 1.0, 1.0, 1.0, 1.0, 1.0, 1.0, 1.0, 1.0, 1.0, 1.0, 1.0, 1.0, 1.0, 1.0, 1.0, 1.0, 1.0, 1.0, 1.0, 1.0, 1.0, 1.0, 1.0, 1.0, 1.0, 1.0, 1.0, 1.0, 1.0, 1.0, 1.0, 1.0]

>  <TempFactor>  (811) 
[11.1, 20.91, 12.33, 21.54, 28.02, 10.23, 11.74, 33.15, 31.53, 14.67, 25.91, 17.57, 20.17, 22.48, 24.62, 23.23, 20.48, 10.14, 10.8, 10.98, 11.96, 13.14, 11.93, 10.58, 15.79, 15.3, 17.28, 19.56, 15.73, 11.53, 12.15, 23.48, 27.32, 11.33, 13.47, 17.51, 18.05, 14.14, 15.23, 13.92, 11.83, 10.72, 9.75, 27.35]

>  <accession>  (811) 
3R0F_A

>  <description>  (811) 
Chain A, 3C protein [Enterovirus A71]

>  <evalue>  (811) 
6.09465e-58

>  <pdb_code>  (811) 
3R0F

>  <chain>  (811) 
A

>  <ligands>  (811) 
[{'chain_id': 'A', 'author_residue_number': 501, 'author_insertion_code': '', 'chem_comp_id': 'AG7', 'alternate_conformers': 0, 'entity_id': 2, 'struct_asym_id': 'C', 'residue_number': 1, 'chem_comp_name': '4-{2-(4-FLUORO-BENZYL)-6-METHYL-5-[(5-METHYL-ISOXAZOLE-3-CARBONYL)-AMINO]-4-OXO-HEPTANOYLAMINO}-5-(2-OXO-PYRROLIDIN-3-YL)-PENTANOIC ACID ETHYL ESTER', 'weight': 600.678, 'carbohydrate_polymer': False, 'branch_name': ''}, {'chain_id': 'B', 'author_residue_number': 501, 'author_insertion_code': '', 'chem_comp_id': 'AG7', 'alternate_conformers': 0, 'entity_id': 2, 'struct_asym_id': 'F', 'residue_number': 1, 'chem_comp_name': '4-{2-(4-FLUORO-BENZYL)-6-METHYL-5-[(5-METHYL-ISOXAZOLE-3-CARBONYL)-AMINO]-4-OXO-HEPTANOYLAMINO}-5-(2-OXO-PYRROLIDIN-3-YL)-PENTANOIC ACID ETHYL ESTER', 'weight': 600.678, 'carbohydrate_polymer': False, 'branch_name': ''}, {'chain_id': 'A', 'author_residue_number': 184, 'author_insertion_code': '', 'chem_comp_id': 'EDO', 'alternate_conformers': 0, 'entity_id': 3, 'struct_asym_id': 'D', 'residue_number': 1, 'chem_comp_name': '1,2-ETHANEDIOL', 'weight': 62.068, 'carbohydrate_polymer': False, 'branch_name': ''}, {'chain_id': 'A', 'author_residue_number': 185, 'author_insertion_code': '', 'chem_comp_id': 'EDO', 'alternate_conformers': 0, 'entity_id': 3, 'struct_asym_id': 'E', 'residue_number': 1, 'chem_comp_name': '1,2-ETHANEDIOL', 'weight': 62.068, 'carbohydrate_polymer': False, 'branch_name': ''}, {'chain_id': 'B', 'author_residue_number': 184, 'author_insertion_code': '', 'chem_comp_id': 'EDO', 'alternate_conformers': 0, 'entity_id': 3, 'struct_asym_id': 'G', 'residue_number': 1, 'chem_comp_name': '1,2-ETHANEDIOL', 'weight': 62.068, 'carbohydrate_polymer': False, 'branch_name': ''}, {'chain_id': 'B', 'author_residue_number': 185, 'author_insertion_code': '', 'chem_comp_id': 'EDO', 'alternate_conformers': 0, 'entity_id': 3, 'struct_asym_id': 'H', 'residue_number': 1, 'chem_comp_name': '1,2-ETHANEDIOL', 'weight': 62.068, 'carbohydrate_polymer': False, 'branch_name': ''}]

>  <ligand_codes>  (811) 
['AG7', 'AG7', 'EDO', 'EDO', 'EDO', 'EDO']

>  <cofactor_codes>  (811) 
[]

>  <has_cofactor>  (811) 
False

>  <covalent>  (811) 
True

>  <base_name>  (811) 
3R0F

>  <lig_resn>  (811) 
AG7

>  <lig_resi>  (811) 
501

>  <lig_chain>  (811) 
A

>  <lig_segi>  (811) 
C

>  <lig_alt>  (811) 


>  <polymer_chain>  (811) 
A

>  <single_smiles>  (811) 
CCOC(=O)CC[C@H](C[C@@H]1CCNC1=O)NC(=O)[C@@H](CC(=O)[C@@H](NC(=O)c2cc(C)on2)C(C)C)Cc3ccc(F)cc3

$$$$
AG7P21S6
     RDKit          3D

 16 16  0  0  0  0  0  0  0  0999 V2000
   -7.4250    9.9840  -33.4820 C   0  0  0  0  0  0  0  0  0  0  0  0
   -7.3730    9.8180  -31.9860 C   0  0  0  0  0  0  0  0  0  0  0  0
   -7.8000    8.7080  -34.2240 C   0  0  2  0  0  0  0  0  0  0  0  0
   -6.9020   11.0990  -31.2870 C   0  0  1  0  0  0  0  0  0  0  0  0
   -7.6930    8.7200  -35.7320 C   0  0  0  0  0  0  0  0  0  0  0  0
   -9.6610    8.3310  -33.8000 R   0  0  0  0  0  0  0  0  0  0  0  0
   -6.8840   10.9300  -29.8210 C   0  0  0  0  0  0  0  0  0  0  0  0
   -5.5070   11.5250  -31.6520 C   0  0  0  0  0  0  0  0  0  0  0  0
   -6.2700    8.9490  -36.1640 C   0  0  0  0  0  0  0  0  0  0  0  0
   -5.7340   11.6000  -29.3140 N   0  0  0  0  0  0  0  0  0  0  0  0
   -7.5830   10.2190  -29.1600 O   0  0  0  0  0  0  0  0  0  0  0  0
   -5.0970   12.3000  -30.4180 C   0  0  0  0  0  0  0  0  0  0  0  0
   -6.0890    9.7380  -37.1470 O   0  0  0  0  0  0  0  0  0  0  0  0
   -5.3370    8.3840  -35.5820 O   0  0  0  0  0  0  0  0  0  0  0  0
   -4.7970   10.0720  -37.5320 C   0  0  0  0  0  0  0  0  0  0  0  0
   -4.8460   11.4130  -38.2360 C   0  0  0  0  0  0  0  0  0  0  0  0
  1  2  1  6
  1  3  1  0
  4  2  1  6
  3  5  1  0
  3  6  1  6
  4  7  1  0
  4  8  1  0
  5  9  1  0
  7 10  1  0
  7 11  2  0
 12  8  1  0
  9 13  1  0
  9 14  2  0
 10 12  1  0
 13 15  1  0
 15 16  1  0
V    6 *
A    2
 C14
A    3
 C19
A    4
 C15
A    5
 C20
A    6
 X  
A    7
 C16
A    8
 C84
A    9
 C21
A   10
 N17
A   11
 O18
A   12
 C83
A   13
 O22
A   14
 O23
A   15
 C50
A   16
 C53
M  END
>  <XChem_code>  (812) 
AG7§21

>  <Occupancy>  (812) 
[1.0, 1.0, 1.0, 1.0, 1.0, 1.0, 1.0, 1.0, 1.0, 1.0, 1.0, 1.0, 1.0, 1.0, 1.0, 1.0, 1.0, 1.0, 1.0, 1.0, 1.0, 1.0, 1.0, 1.0, 1.0, 1.0, 1.0, 1.0, 1.0, 1.0, 1.0, 1.0, 1.0, 1.0, 1.0, 1.0, 1.0, 1.0, 1.0, 1.0, 1.0, 1.0, 1.0, 1.0]

>  <TempFactor>  (812) 
[11.1, 20.91, 12.33, 21.54, 28.02, 10.23, 11.74, 33.15, 31.53, 14.67, 25.91, 17.57, 20.17, 22.48, 24.62, 23.23, 20.48, 10.14, 10.8, 10.98, 11.96, 13.14, 11.93, 10.58, 15.79, 15.3, 17.28, 19.56, 15.73, 11.53, 12.15, 23.48, 27.32, 11.33, 13.47, 17.51, 18.05, 14.14, 15.23, 13.92, 11.83, 10.72, 9.75, 27.35]

>  <accession>  (812) 
3R0F_A

>  <description>  (812) 
Chain A, 3C protein [Enterovirus A71]

>  <evalue>  (812) 
6.09465e-58

>  <pdb_code>  (812) 
3R0F

>  <chain>  (812) 
A

>  <ligands>  (812) 
[{'chain_id': 'A', 'author_residue_number': 501, 'author_insertion_code': '', 'chem_comp_id': 'AG7', 'alternate_conformers': 0, 'entity_id': 2, 'struct_asym_id': 'C', 'residue_number': 1, 'chem_comp_name': '4-{2-(4-FLUORO-BENZYL)-6-METHYL-5-[(5-METHYL-ISOXAZOLE-3-CARBONYL)-AMINO]-4-OXO-HEPTANOYLAMINO}-5-(2-OXO-PYRROLIDIN-3-YL)-PENTANOIC ACID ETHYL ESTER', 'weight': 600.678, 'carbohydrate_polymer': False, 'branch_name': ''}, {'chain_id': 'B', 'author_residue_number': 501, 'author_insertion_code': '', 'chem_comp_id': 'AG7', 'alternate_conformers': 0, 'entity_id': 2, 'struct_asym_id': 'F', 'residue_number': 1, 'chem_comp_name': '4-{2-(4-FLUORO-BENZYL)-6-METHYL-5-[(5-METHYL-ISOXAZOLE-3-CARBONYL)-AMINO]-4-OXO-HEPTANOYLAMINO}-5-(2-OXO-PYRROLIDIN-3-YL)-PENTANOIC ACID ETHYL ESTER', 'weight': 600.678, 'carbohydrate_polymer': False, 'branch_name': ''}, {'chain_id': 'A', 'author_residue_number': 184, 'author_insertion_code': '', 'chem_comp_id': 'EDO', 'alternate_conformers': 0, 'entity_id': 3, 'struct_asym_id': 'D', 'residue_number': 1, 'chem_comp_name': '1,2-ETHANEDIOL', 'weight': 62.068, 'carbohydrate_polymer': False, 'branch_name': ''}, {'chain_id': 'A', 'author_residue_number': 185, 'author_insertion_code': '', 'chem_comp_id': 'EDO', 'alternate_conformers': 0, 'entity_id': 3, 'struct_asym_id': 'E', 'residue_number': 1, 'chem_comp_name': '1,2-ETHANEDIOL', 'weight': 62.068, 'carbohydrate_polymer': False, 'branch_name': ''}, {'chain_id': 'B', 'author_residue_number': 184, 'author_insertion_code': '', 'chem_comp_id': 'EDO', 'alternate_conformers': 0, 'entity_id': 3, 'struct_asym_id': 'G', 'residue_number': 1, 'chem_comp_name': '1,2-ETHANEDIOL', 'weight': 62.068, 'carbohydrate_polymer': False, 'branch_name': ''}, {'chain_id': 'B', 'author_residue_number': 185, 'author_insertion_code': '', 'chem_comp_id': 'EDO', 'alternate_conformers': 0, 'entity_id': 3, 'struct_asym_id': 'H', 'residue_number': 1, 'chem_comp_name': '1,2-ETHANEDIOL', 'weight': 62.068, 'carbohydrate_polymer': False, 'branch_name': ''}]

>  <ligand_codes>  (812) 
['AG7', 'AG7', 'EDO', 'EDO', 'EDO', 'EDO']

>  <cofactor_codes>  (812) 
[]

>  <has_cofactor>  (812) 
False

>  <covalent>  (812) 
True

>  <base_name>  (812) 
3R0F

>  <lig_resn>  (812) 
AG7

>  <lig_resi>  (812) 
501

>  <lig_chain>  (812) 
A

>  <lig_segi>  (812) 
C

>  <lig_alt>  (812) 


>  <polymer_chain>  (812) 
A

>  <single_smiles>  (812) 
CCOC(=O)CC[C@H](C[C@@H]1CCNC1=O)NC(=O)[C@@H](CC(=O)[C@@H](NC(=O)c2cc(C)on2)C(C)C)Cc3ccc(F)cc3

$$$$
AG7P21S7
     RDKit          3D

 28 29  0  0  0  0  0  0  0  0999 V2000
   -8.3980   11.0090  -33.8670 N   0  0  0  0  0  0  0  0  0  0  0  0
   -7.9420   12.2650  -34.4580 C   0  0  0  0  0  0  0  0  0  0  0  0
   -9.0190   13.1280  -35.0570 C   0  0  1  0  0  0  0  0  0  0  0  0
   -6.7840   12.4330  -34.6620 O   0  0  0  0  0  0  0  0  0  0  0  0
   -8.6730   14.5850  -34.7520 C   0  0  0  0  0  0  0  0  0  0  0  0
   -9.1080   12.8250  -36.5400 C   0  0  0  0  0  0  0  0  0  0  0  0
   -8.6380   14.8860  -33.2600 C   0  0  0  0  0  0  0  0  0  0  0  0
  -10.1500   13.6920  -37.2180 C   0  0  0  0  0  0  0  0  0  0  0  0
   -8.8080   14.0630  -32.4060 O   0  0  0  0  0  0  0  0  0  0  0  0
   -8.3120   16.3420  -32.8970 C   0  0  1  0  0  0  0  0  0  0  0  0
  -11.4610   13.5630  -36.9490 C   0  0  0  0  0  0  0  0  0  0  0  0
   -9.6910   14.5990  -38.2790 C   0  0  0  0  0  0  0  0  0  0  0  0
   -8.7060   16.6300  -31.5470 N   0  0  0  0  0  0  0  0  0  0  0  0
   -6.8540   16.7080  -33.1340 C   0  0  0  0  0  0  0  0  0  0  0  0
  -12.4610   14.3840  -37.6880 C   0  0  0  0  0  0  0  0  0  0  0  0
  -10.6060   15.3460  -38.9640 C   0  0  0  0  0  0  0  0  0  0  0  0
   -9.7630   17.5740  -31.2860 C   0  0  0  0  0  0  0  0  0  0  0  0
   -6.6180   18.1230  -32.6450 C   0  0  0  0  0  0  0  0  0  0  0  0
   -5.9260   15.8060  -32.3870 C   0  0  0  0  0  0  0  0  0  0  0  0
  -12.0490   15.2290  -38.6420 C   0  0  0  0  0  0  0  0  0  0  0  0
  -10.1380   17.8080  -29.8610 C   0  0  0  0  0  0  0  0  0  0  0  0
  -10.1690   18.3250  -32.1460 O   0  0  0  0  0  0  0  0  0  0  0  0
  -12.9270   15.9490  -39.3140 F   0  0  0  0  0  0  0  0  0  0  0  0
  -11.1190   18.7800  -29.4370 C   0  0  0  0  0  0  0  0  0  0  0  0
   -9.8870   17.0260  -28.8310 N   0  0  0  0  0  0  0  0  0  0  0  0
  -11.2290   18.6960  -28.1430 C   0  0  0  0  0  0  0  0  0  0  0  0
  -10.5080   17.5930  -27.7590 O   0  0  0  0  0  0  0  0  0  0  0  0
  -12.1640   19.5270  -27.3100 C   0  0  0  0  0  0  0  0  0  0  0  0
  1  2  1  0
  3  2  1  0
  2  4  2  0
  3  5  1  6
  3  6  1  0
  7  5  1  0
  6  8  1  0
  7  9  2  0
  7 10  1  0
  8 11  2  0
  8 12  1  0
 10 13  1  1
 10 14  1  0
 11 15  1  0
 16 12  2  0
 13 17  1  0
 14 18  1  0
 14 19  1  0
 15 20  2  0
 20 16  1  0
 21 17  1  0
 17 22  2  0
 20 23  1  0
 21 24  1  0
 21 25  2  0
 24 26  2  0
 27 25  1  0
 26 28  1  0
 26 27  1  0
A    2
 C47
A    3
 C04
A    4
 O48
A    5
 C02
A    6
 C05
A    7
 C01
A    8
 C06
A    9
 O03
A   10
 C57
A   11
 C07
A   12
 C11
A   13
 N58
A   14
 C78
A   15
 C08
A   16
 C10
A   17
 C59
A   18
 C81
A   19
 C82
A   20
 C09
A   21
 C1 
A   22
 O60
A   23
 F1 
A   24
 C2 
A   25
 N5 
A   26
 C3 
A   27
 O4 
A   28
 C4 
M  END
>  <XChem_code>  (813) 
AG7§21

>  <Occupancy>  (813) 
[1.0, 1.0, 1.0, 1.0, 1.0, 1.0, 1.0, 1.0, 1.0, 1.0, 1.0, 1.0, 1.0, 1.0, 1.0, 1.0, 1.0, 1.0, 1.0, 1.0, 1.0, 1.0, 1.0, 1.0, 1.0, 1.0, 1.0, 1.0, 1.0, 1.0, 1.0, 1.0, 1.0, 1.0, 1.0, 1.0, 1.0, 1.0, 1.0, 1.0, 1.0, 1.0, 1.0, 1.0]

>  <TempFactor>  (813) 
[11.1, 20.91, 12.33, 21.54, 28.02, 10.23, 11.74, 33.15, 31.53, 14.67, 25.91, 17.57, 20.17, 22.48, 24.62, 23.23, 20.48, 10.14, 10.8, 10.98, 11.96, 13.14, 11.93, 10.58, 15.79, 15.3, 17.28, 19.56, 15.73, 11.53, 12.15, 23.48, 27.32, 11.33, 13.47, 17.51, 18.05, 14.14, 15.23, 13.92, 11.83, 10.72, 9.75, 27.35]

>  <accession>  (813) 
3R0F_A

>  <description>  (813) 
Chain A, 3C protein [Enterovirus A71]

>  <evalue>  (813) 
6.09465e-58

>  <pdb_code>  (813) 
3R0F

>  <chain>  (813) 
A

>  <ligands>  (813) 
[{'chain_id': 'A', 'author_residue_number': 501, 'author_insertion_code': '', 'chem_comp_id': 'AG7', 'alternate_conformers': 0, 'entity_id': 2, 'struct_asym_id': 'C', 'residue_number': 1, 'chem_comp_name': '4-{2-(4-FLUORO-BENZYL)-6-METHYL-5-[(5-METHYL-ISOXAZOLE-3-CARBONYL)-AMINO]-4-OXO-HEPTANOYLAMINO}-5-(2-OXO-PYRROLIDIN-3-YL)-PENTANOIC ACID ETHYL ESTER', 'weight': 600.678, 'carbohydrate_polymer': False, 'branch_name': ''}, {'chain_id': 'B', 'author_residue_number': 501, 'author_insertion_code': '', 'chem_comp_id': 'AG7', 'alternate_conformers': 0, 'entity_id': 2, 'struct_asym_id': 'F', 'residue_number': 1, 'chem_comp_name': '4-{2-(4-FLUORO-BENZYL)-6-METHYL-5-[(5-METHYL-ISOXAZOLE-3-CARBONYL)-AMINO]-4-OXO-HEPTANOYLAMINO}-5-(2-OXO-PYRROLIDIN-3-YL)-PENTANOIC ACID ETHYL ESTER', 'weight': 600.678, 'carbohydrate_polymer': False, 'branch_name': ''}, {'chain_id': 'A', 'author_residue_number': 184, 'author_insertion_code': '', 'chem_comp_id': 'EDO', 'alternate_conformers': 0, 'entity_id': 3, 'struct_asym_id': 'D', 'residue_number': 1, 'chem_comp_name': '1,2-ETHANEDIOL', 'weight': 62.068, 'carbohydrate_polymer': False, 'branch_name': ''}, {'chain_id': 'A', 'author_residue_number': 185, 'author_insertion_code': '', 'chem_comp_id': 'EDO', 'alternate_conformers': 0, 'entity_id': 3, 'struct_asym_id': 'E', 'residue_number': 1, 'chem_comp_name': '1,2-ETHANEDIOL', 'weight': 62.068, 'carbohydrate_polymer': False, 'branch_name': ''}, {'chain_id': 'B', 'author_residue_number': 184, 'author_insertion_code': '', 'chem_comp_id': 'EDO', 'alternate_conformers': 0, 'entity_id': 3, 'struct_asym_id': 'G', 'residue_number': 1, 'chem_comp_name': '1,2-ETHANEDIOL', 'weight': 62.068, 'carbohydrate_polymer': False, 'branch_name': ''}, {'chain_id': 'B', 'author_residue_number': 185, 'author_insertion_code': '', 'chem_comp_id': 'EDO', 'alternate_conformers': 0, 'entity_id': 3, 'struct_asym_id': 'H', 'residue_number': 1, 'chem_comp_name': '1,2-ETHANEDIOL', 'weight': 62.068, 'carbohydrate_polymer': False, 'branch_name': ''}]

>  <ligand_codes>  (813) 
['AG7', 'AG7', 'EDO', 'EDO', 'EDO', 'EDO']

>  <cofactor_codes>  (813) 
[]

>  <has_cofactor>  (813) 
False

>  <covalent>  (813) 
True

>  <base_name>  (813) 
3R0F

>  <lig_resn>  (813) 
AG7

>  <lig_resi>  (813) 
501

>  <lig_chain>  (813) 
A

>  <lig_segi>  (813) 
C

>  <lig_alt>  (813) 


>  <polymer_chain>  (813) 
A

>  <single_smiles>  (813) 
CCOC(=O)CC[C@H](C[C@@H]1CCNC1=O)NC(=O)[C@@H](CC(=O)[C@@H](NC(=O)c2cc(C)on2)C(C)C)Cc3ccc(F)cc3

$$$$
AG7P21S8
     RDKit          3D

  9  9  0  0  0  0  0  0  0  0999 V2000
   -8.7060   16.6300  -31.5470 N   0  0  0  0  0  0  0  0  0  0  0  0
   -9.7630   17.5740  -31.2860 C   0  0  0  0  0  0  0  0  0  0  0  0
  -10.1380   17.8080  -29.8610 C   0  0  0  0  0  0  0  0  0  0  0  0
  -10.1690   18.3250  -32.1460 O   0  0  0  0  0  0  0  0  0  0  0  0
  -11.1190   18.7800  -29.4370 C   0  0  0  0  0  0  0  0  0  0  0  0
   -9.8870   17.0260  -28.8310 N   0  0  0  0  0  0  0  0  0  0  0  0
  -11.2290   18.6960  -28.1430 C   0  0  0  0  0  0  0  0  0  0  0  0
  -10.5080   17.5930  -27.7590 O   0  0  0  0  0  0  0  0  0  0  0  0
  -12.1640   19.5270  -27.3100 C   0  0  0  0  0  0  0  0  0  0  0  0
  1  2  1  0
  3  2  1  0
  2  4  2  0
  3  5  1  0
  3  6  2  0
  5  7  2  0
  8  6  1  0
  7  9  1  0
  7  8  1  0
A    2
 C59
A    3
 C1 
A    4
 O60
A    5
 C2 
A    6
 N5 
A    7
 C3 
A    8
 O4 
A    9
 C4 
M  END
>  <XChem_code>  (814) 
AG7§21

>  <Occupancy>  (814) 
[1.0, 1.0, 1.0, 1.0, 1.0, 1.0, 1.0, 1.0, 1.0, 1.0, 1.0, 1.0, 1.0, 1.0, 1.0, 1.0, 1.0, 1.0, 1.0, 1.0, 1.0, 1.0, 1.0, 1.0, 1.0, 1.0, 1.0, 1.0, 1.0, 1.0, 1.0, 1.0, 1.0, 1.0, 1.0, 1.0, 1.0, 1.0, 1.0, 1.0, 1.0, 1.0, 1.0, 1.0]

>  <TempFactor>  (814) 
[11.1, 20.91, 12.33, 21.54, 28.02, 10.23, 11.74, 33.15, 31.53, 14.67, 25.91, 17.57, 20.17, 22.48, 24.62, 23.23, 20.48, 10.14, 10.8, 10.98, 11.96, 13.14, 11.93, 10.58, 15.79, 15.3, 17.28, 19.56, 15.73, 11.53, 12.15, 23.48, 27.32, 11.33, 13.47, 17.51, 18.05, 14.14, 15.23, 13.92, 11.83, 10.72, 9.75, 27.35]

>  <accession>  (814) 
3R0F_A

>  <description>  (814) 
Chain A, 3C protein [Enterovirus A71]

>  <evalue>  (814) 
6.09465e-58

>  <pdb_code>  (814) 
3R0F

>  <chain>  (814) 
A

>  <ligands>  (814) 
[{'chain_id': 'A', 'author_residue_number': 501, 'author_insertion_code': '', 'chem_comp_id': 'AG7', 'alternate_conformers': 0, 'entity_id': 2, 'struct_asym_id': 'C', 'residue_number': 1, 'chem_comp_name': '4-{2-(4-FLUORO-BENZYL)-6-METHYL-5-[(5-METHYL-ISOXAZOLE-3-CARBONYL)-AMINO]-4-OXO-HEPTANOYLAMINO}-5-(2-OXO-PYRROLIDIN-3-YL)-PENTANOIC ACID ETHYL ESTER', 'weight': 600.678, 'carbohydrate_polymer': False, 'branch_name': ''}, {'chain_id': 'B', 'author_residue_number': 501, 'author_insertion_code': '', 'chem_comp_id': 'AG7', 'alternate_conformers': 0, 'entity_id': 2, 'struct_asym_id': 'F', 'residue_number': 1, 'chem_comp_name': '4-{2-(4-FLUORO-BENZYL)-6-METHYL-5-[(5-METHYL-ISOXAZOLE-3-CARBONYL)-AMINO]-4-OXO-HEPTANOYLAMINO}-5-(2-OXO-PYRROLIDIN-3-YL)-PENTANOIC ACID ETHYL ESTER', 'weight': 600.678, 'carbohydrate_polymer': False, 'branch_name': ''}, {'chain_id': 'A', 'author_residue_number': 184, 'author_insertion_code': '', 'chem_comp_id': 'EDO', 'alternate_conformers': 0, 'entity_id': 3, 'struct_asym_id': 'D', 'residue_number': 1, 'chem_comp_name': '1,2-ETHANEDIOL', 'weight': 62.068, 'carbohydrate_polymer': False, 'branch_name': ''}, {'chain_id': 'A', 'author_residue_number': 185, 'author_insertion_code': '', 'chem_comp_id': 'EDO', 'alternate_conformers': 0, 'entity_id': 3, 'struct_asym_id': 'E', 'residue_number': 1, 'chem_comp_name': '1,2-ETHANEDIOL', 'weight': 62.068, 'carbohydrate_polymer': False, 'branch_name': ''}, {'chain_id': 'B', 'author_residue_number': 184, 'author_insertion_code': '', 'chem_comp_id': 'EDO', 'alternate_conformers': 0, 'entity_id': 3, 'struct_asym_id': 'G', 'residue_number': 1, 'chem_comp_name': '1,2-ETHANEDIOL', 'weight': 62.068, 'carbohydrate_polymer': False, 'branch_name': ''}, {'chain_id': 'B', 'author_residue_number': 185, 'author_insertion_code': '', 'chem_comp_id': 'EDO', 'alternate_conformers': 0, 'entity_id': 3, 'struct_asym_id': 'H', 'residue_number': 1, 'chem_comp_name': '1,2-ETHANEDIOL', 'weight': 62.068, 'carbohydrate_polymer': False, 'branch_name': ''}]

>  <ligand_codes>  (814) 
['AG7', 'AG7', 'EDO', 'EDO', 'EDO', 'EDO']

>  <cofactor_codes>  (814) 
[]

>  <has_cofactor>  (814) 
False

>  <covalent>  (814) 
True

>  <base_name>  (814) 
3R0F

>  <lig_resn>  (814) 
AG7

>  <lig_resi>  (814) 
501

>  <lig_chain>  (814) 
A

>  <lig_segi>  (814) 
C

>  <lig_alt>  (814) 


>  <polymer_chain>  (814) 
A

>  <single_smiles>  (814) 
CCOC(=O)CC[C@H](C[C@@H]1CCNC1=O)NC(=O)[C@@H](CC(=O)[C@@H](NC(=O)c2cc(C)on2)C(C)C)Cc3ccc(F)cc3

$$$$
AG7P21S9
     RDKit          3D

 35 36  0  0  0  0  0  0  0  0999 V2000
   -8.3120   16.3420  -32.8970 C   0  0  0  0  0  0  0  0  0  0  0  0
   -8.6380   14.8860  -33.2600 C   0  0  0  0  0  0  0  0  0  0  0  0
   -6.8540   16.7080  -33.1340 C   0  0  0  0  0  0  0  0  0  0  0  0
   -8.6730   14.5850  -34.7520 C   0  0  0  0  0  0  0  0  0  0  0  0
   -8.8080   14.0630  -32.4060 O   0  0  0  0  0  0  0  0  0  0  0  0
   -6.6180   18.1230  -32.6450 C   0  0  0  0  0  0  0  0  0  0  0  0
   -5.9260   15.8060  -32.3870 C   0  0  0  0  0  0  0  0  0  0  0  0
   -9.0190   13.1280  -35.0570 C   0  0  1  0  0  0  0  0  0  0  0  0
   -9.1080   12.8250  -36.5400 C   0  0  0  0  0  0  0  0  0  0  0  0
   -7.9420   12.2650  -34.4580 C   0  0  0  0  0  0  0  0  0  0  0  0
  -10.1500   13.6920  -37.2180 C   0  0  0  0  0  0  0  0  0  0  0  0
   -8.3980   11.0090  -33.8670 N   0  0  0  0  0  0  0  0  0  0  0  0
   -6.7840   12.4330  -34.6620 O   0  0  0  0  0  0  0  0  0  0  0  0
  -11.4610   13.5630  -36.9490 C   0  0  0  0  0  0  0  0  0  0  0  0
   -9.6910   14.5990  -38.2790 C   0  0  0  0  0  0  0  0  0  0  0  0
   -7.4250    9.9840  -33.4820 C   0  0  1  0  0  0  0  0  0  0  0  0
  -12.4610   14.3840  -37.6880 C   0  0  0  0  0  0  0  0  0  0  0  0
  -10.6060   15.3460  -38.9640 C   0  0  0  0  0  0  0  0  0  0  0  0
   -7.3730    9.8180  -31.9860 C   0  0  0  0  0  0  0  0  0  0  0  0
   -7.8000    8.7080  -34.2240 C   0  0  2  0  0  0  0  0  0  0  0  0
  -12.0490   15.2290  -38.6420 C   0  0  0  0  0  0  0  0  0  0  0  0
   -6.9020   11.0990  -31.2870 C   0  0  1  0  0  0  0  0  0  0  0  0
   -7.6930    8.7200  -35.7320 C   0  0  0  0  0  0  0  0  0  0  0  0
   -9.6610    8.3310  -33.8000 R   0  0  0  0  0  0  0  0  0  0  0  0
  -12.9270   15.9490  -39.3140 F   0  0  0  0  0  0  0  0  0  0  0  0
   -6.8840   10.9300  -29.8210 C   0  0  0  0  0  0  0  0  0  0  0  0
   -5.5070   11.5250  -31.6520 C   0  0  0  0  0  0  0  0  0  0  0  0
   -6.2700    8.9490  -36.1640 C   0  0  0  0  0  0  0  0  0  0  0  0
   -5.7340   11.6000  -29.3140 N   0  0  0  0  0  0  0  0  0  0  0  0
   -7.5830   10.2190  -29.1600 O   0  0  0  0  0  0  0  0  0  0  0  0
   -5.0970   12.3000  -30.4180 C   0  0  0  0  0  0  0  0  0  0  0  0
   -6.0890    9.7380  -37.1470 O   0  0  0  0  0  0  0  0  0  0  0  0
   -5.3370    8.3840  -35.5820 O   0  0  0  0  0  0  0  0  0  0  0  0
   -4.7970   10.0720  -37.5320 C   0  0  0  0  0  0  0  0  0  0  0  0
   -4.8460   11.4130  -38.2360 C   0  0  0  0  0  0  0  0  0  0  0  0
  2  1  1  0
  1  3  1  6
  2  4  1  0
  2  5  2  0
  3  6  1  0
  3  7  1  0
  8  4  1  6
  8  9  1  0
  8 10  1  0
  9 11  1  0
 12 10  1  0
 10 13  2  0
 11 14  2  0
 11 15  1  0
 12 16  1  0
 14 17  1  0
 18 15  2  0
 16 19  1  1
 16 20  1  0
 17 21  2  0
 21 18  1  0
 22 19  1  6
 20 23  1  0
 20 24  1  6
 21 25  1  0
 22 26  1  0
 22 27  1  0
 23 28  1  0
 26 29  1  0
 26 30  2  0
 31 27  1  0
 28 32  1  0
 28 33  2  0
 29 31  1  0
 32 34  1  0
 34 35  1  0
V   24 *
A    2
 C01
A    3
 C78
A    4
 C02
A    5
 O03
A    6
 C81
A    7
 C82
A    8
 C04
A    9
 C05
A   10
 C47
A   11
 C06
A   12
 N12
A   13
 O48
A   14
 C07
A   15
 C11
A   16
 C13
A   17
 C08
A   18
 C10
A   19
 C14
A   20
 C19
A   21
 C09
A   22
 C15
A   23
 C20
A   24
 X  
A   25
 F1 
A   26
 C16
A   27
 C84
A   28
 C21
A   29
 N17
A   30
 O18
A   31
 C83
A   32
 O22
A   33
 O23
A   34
 C50
A   35
 C53
M  END
>  <XChem_code>  (815) 
AG7§21

>  <Occupancy>  (815) 
[1.0, 1.0, 1.0, 1.0, 1.0, 1.0, 1.0, 1.0, 1.0, 1.0, 1.0, 1.0, 1.0, 1.0, 1.0, 1.0, 1.0, 1.0, 1.0, 1.0, 1.0, 1.0, 1.0, 1.0, 1.0, 1.0, 1.0, 1.0, 1.0, 1.0, 1.0, 1.0, 1.0, 1.0, 1.0, 1.0, 1.0, 1.0, 1.0, 1.0, 1.0, 1.0, 1.0, 1.0]

>  <TempFactor>  (815) 
[11.1, 20.91, 12.33, 21.54, 28.02, 10.23, 11.74, 33.15, 31.53, 14.67, 25.91, 17.57, 20.17, 22.48, 24.62, 23.23, 20.48, 10.14, 10.8, 10.98, 11.96, 13.14, 11.93, 10.58, 15.79, 15.3, 17.28, 19.56, 15.73, 11.53, 12.15, 23.48, 27.32, 11.33, 13.47, 17.51, 18.05, 14.14, 15.23, 13.92, 11.83, 10.72, 9.75, 27.35]

>  <accession>  (815) 
3R0F_A

>  <description>  (815) 
Chain A, 3C protein [Enterovirus A71]

>  <evalue>  (815) 
6.09465e-58

>  <pdb_code>  (815) 
3R0F

>  <chain>  (815) 
A

>  <ligands>  (815) 
[{'chain_id': 'A', 'author_residue_number': 501, 'author_insertion_code': '', 'chem_comp_id': 'AG7', 'alternate_conformers': 0, 'entity_id': 2, 'struct_asym_id': 'C', 'residue_number': 1, 'chem_comp_name': '4-{2-(4-FLUORO-BENZYL)-6-METHYL-5-[(5-METHYL-ISOXAZOLE-3-CARBONYL)-AMINO]-4-OXO-HEPTANOYLAMINO}-5-(2-OXO-PYRROLIDIN-3-YL)-PENTANOIC ACID ETHYL ESTER', 'weight': 600.678, 'carbohydrate_polymer': False, 'branch_name': ''}, {'chain_id': 'B', 'author_residue_number': 501, 'author_insertion_code': '', 'chem_comp_id': 'AG7', 'alternate_conformers': 0, 'entity_id': 2, 'struct_asym_id': 'F', 'residue_number': 1, 'chem_comp_name': '4-{2-(4-FLUORO-BENZYL)-6-METHYL-5-[(5-METHYL-ISOXAZOLE-3-CARBONYL)-AMINO]-4-OXO-HEPTANOYLAMINO}-5-(2-OXO-PYRROLIDIN-3-YL)-PENTANOIC ACID ETHYL ESTER', 'weight': 600.678, 'carbohydrate_polymer': False, 'branch_name': ''}, {'chain_id': 'A', 'author_residue_number': 184, 'author_insertion_code': '', 'chem_comp_id': 'EDO', 'alternate_conformers': 0, 'entity_id': 3, 'struct_asym_id': 'D', 'residue_number': 1, 'chem_comp_name': '1,2-ETHANEDIOL', 'weight': 62.068, 'carbohydrate_polymer': False, 'branch_name': ''}, {'chain_id': 'A', 'author_residue_number': 185, 'author_insertion_code': '', 'chem_comp_id': 'EDO', 'alternate_conformers': 0, 'entity_id': 3, 'struct_asym_id': 'E', 'residue_number': 1, 'chem_comp_name': '1,2-ETHANEDIOL', 'weight': 62.068, 'carbohydrate_polymer': False, 'branch_name': ''}, {'chain_id': 'B', 'author_residue_number': 184, 'author_insertion_code': '', 'chem_comp_id': 'EDO', 'alternate_conformers': 0, 'entity_id': 3, 'struct_asym_id': 'G', 'residue_number': 1, 'chem_comp_name': '1,2-ETHANEDIOL', 'weight': 62.068, 'carbohydrate_polymer': False, 'branch_name': ''}, {'chain_id': 'B', 'author_residue_number': 185, 'author_insertion_code': '', 'chem_comp_id': 'EDO', 'alternate_conformers': 0, 'entity_id': 3, 'struct_asym_id': 'H', 'residue_number': 1, 'chem_comp_name': '1,2-ETHANEDIOL', 'weight': 62.068, 'carbohydrate_polymer': False, 'branch_name': ''}]

>  <ligand_codes>  (815) 
['AG7', 'AG7', 'EDO', 'EDO', 'EDO', 'EDO']

>  <cofactor_codes>  (815) 
[]

>  <has_cofactor>  (815) 
False

>  <covalent>  (815) 
True

>  <base_name>  (815) 
3R0F

>  <lig_resn>  (815) 
AG7

>  <lig_resi>  (815) 
501

>  <lig_chain>  (815) 
A

>  <lig_segi>  (815) 
C

>  <lig_alt>  (815) 


>  <polymer_chain>  (815) 
A

>  <single_smiles>  (815) 
CCOC(=O)CC[C@H](C[C@@H]1CCNC1=O)NC(=O)[C@@H](CC(=O)[C@@H](NC(=O)c2cc(C)on2)C(C)C)Cc3ccc(F)cc3

$$$$
AG7P21S10
     RDKit          3D

 18 18  0  0  0  0  0  0  0  0999 V2000
   -8.3120   16.3420  -32.8970 C   0  0  0  0  0  0  0  0  0  0  0  0
   -8.6380   14.8860  -33.2600 C   0  0  0  0  0  0  0  0  0  0  0  0
   -6.8540   16.7080  -33.1340 C   0  0  0  0  0  0  0  0  0  0  0  0
   -8.6730   14.5850  -34.7520 C   0  0  0  0  0  0  0  0  0  0  0  0
   -8.8080   14.0630  -32.4060 O   0  0  0  0  0  0  0  0  0  0  0  0
   -6.6180   18.1230  -32.6450 C   0  0  0  0  0  0  0  0  0  0  0  0
   -5.9260   15.8060  -32.3870 C   0  0  0  0  0  0  0  0  0  0  0  0
   -9.0190   13.1280  -35.0570 C   0  0  2  0  0  0  0  0  0  0  0  0
   -7.9420   12.2650  -34.4580 C   0  0  0  0  0  0  0  0  0  0  0  0
   -9.1080   12.8250  -36.5400 C   0  0  0  0  0  0  0  0  0  0  0  0
   -6.7840   12.4330  -34.6620 O   0  0  0  0  0  0  0  0  0  0  0  0
  -10.1500   13.6920  -37.2180 C   0  0  0  0  0  0  0  0  0  0  0  0
  -11.4610   13.5630  -36.9490 C   0  0  0  0  0  0  0  0  0  0  0  0
   -9.6910   14.5990  -38.2790 C   0  0  0  0  0  0  0  0  0  0  0  0
  -12.4610   14.3840  -37.6880 C   0  0  0  0  0  0  0  0  0  0  0  0
  -10.6060   15.3460  -38.9640 C   0  0  0  0  0  0  0  0  0  0  0  0
  -12.0490   15.2290  -38.6420 C   0  0  0  0  0  0  0  0  0  0  0  0
  -12.9270   15.9490  -39.3140 F   0  0  0  0  0  0  0  0  0  0  0  0
  2  1  1  0
  1  3  1  6
  2  4  1  0
  2  5  2  0
  3  6  1  0
  3  7  1  0
  8  4  1  6
  8  9  1  0
  8 10  1  0
  9 11  2  0
 10 12  1  0
 12 13  2  0
 12 14  1  0
 13 15  1  0
 16 14  2  0
 15 17  2  0
 17 16  1  0
 17 18  1  0
A    2
 C01
A    3
 C78
A    4
 C02
A    5
 O03
A    6
 C81
A    7
 C82
A    8
 C04
A   10
 C05
A   11
 O48
A   12
 C06
A   13
 C07
A   14
 C11
A   15
 C08
A   16
 C10
A   17
 C09
A   18
 F1 
M  END
>  <XChem_code>  (816) 
AG7§21

>  <Occupancy>  (816) 
[1.0, 1.0, 1.0, 1.0, 1.0, 1.0, 1.0, 1.0, 1.0, 1.0, 1.0, 1.0, 1.0, 1.0, 1.0, 1.0, 1.0, 1.0, 1.0, 1.0, 1.0, 1.0, 1.0, 1.0, 1.0, 1.0, 1.0, 1.0, 1.0, 1.0, 1.0, 1.0, 1.0, 1.0, 1.0, 1.0, 1.0, 1.0, 1.0, 1.0, 1.0, 1.0, 1.0, 1.0]

>  <TempFactor>  (816) 
[11.1, 20.91, 12.33, 21.54, 28.02, 10.23, 11.74, 33.15, 31.53, 14.67, 25.91, 17.57, 20.17, 22.48, 24.62, 23.23, 20.48, 10.14, 10.8, 10.98, 11.96, 13.14, 11.93, 10.58, 15.79, 15.3, 17.28, 19.56, 15.73, 11.53, 12.15, 23.48, 27.32, 11.33, 13.47, 17.51, 18.05, 14.14, 15.23, 13.92, 11.83, 10.72, 9.75, 27.35]

>  <accession>  (816) 
3R0F_A

>  <description>  (816) 
Chain A, 3C protein [Enterovirus A71]

>  <evalue>  (816) 
6.09465e-58

>  <pdb_code>  (816) 
3R0F

>  <chain>  (816) 
A

>  <ligands>  (816) 
[{'chain_id': 'A', 'author_residue_number': 501, 'author_insertion_code': '', 'chem_comp_id': 'AG7', 'alternate_conformers': 0, 'entity_id': 2, 'struct_asym_id': 'C', 'residue_number': 1, 'chem_comp_name': '4-{2-(4-FLUORO-BENZYL)-6-METHYL-5-[(5-METHYL-ISOXAZOLE-3-CARBONYL)-AMINO]-4-OXO-HEPTANOYLAMINO}-5-(2-OXO-PYRROLIDIN-3-YL)-PENTANOIC ACID ETHYL ESTER', 'weight': 600.678, 'carbohydrate_polymer': False, 'branch_name': ''}, {'chain_id': 'B', 'author_residue_number': 501, 'author_insertion_code': '', 'chem_comp_id': 'AG7', 'alternate_conformers': 0, 'entity_id': 2, 'struct_asym_id': 'F', 'residue_number': 1, 'chem_comp_name': '4-{2-(4-FLUORO-BENZYL)-6-METHYL-5-[(5-METHYL-ISOXAZOLE-3-CARBONYL)-AMINO]-4-OXO-HEPTANOYLAMINO}-5-(2-OXO-PYRROLIDIN-3-YL)-PENTANOIC ACID ETHYL ESTER', 'weight': 600.678, 'carbohydrate_polymer': False, 'branch_name': ''}, {'chain_id': 'A', 'author_residue_number': 184, 'author_insertion_code': '', 'chem_comp_id': 'EDO', 'alternate_conformers': 0, 'entity_id': 3, 'struct_asym_id': 'D', 'residue_number': 1, 'chem_comp_name': '1,2-ETHANEDIOL', 'weight': 62.068, 'carbohydrate_polymer': False, 'branch_name': ''}, {'chain_id': 'A', 'author_residue_number': 185, 'author_insertion_code': '', 'chem_comp_id': 'EDO', 'alternate_conformers': 0, 'entity_id': 3, 'struct_asym_id': 'E', 'residue_number': 1, 'chem_comp_name': '1,2-ETHANEDIOL', 'weight': 62.068, 'carbohydrate_polymer': False, 'branch_name': ''}, {'chain_id': 'B', 'author_residue_number': 184, 'author_insertion_code': '', 'chem_comp_id': 'EDO', 'alternate_conformers': 0, 'entity_id': 3, 'struct_asym_id': 'G', 'residue_number': 1, 'chem_comp_name': '1,2-ETHANEDIOL', 'weight': 62.068, 'carbohydrate_polymer': False, 'branch_name': ''}, {'chain_id': 'B', 'author_residue_number': 185, 'author_insertion_code': '', 'chem_comp_id': 'EDO', 'alternate_conformers': 0, 'entity_id': 3, 'struct_asym_id': 'H', 'residue_number': 1, 'chem_comp_name': '1,2-ETHANEDIOL', 'weight': 62.068, 'carbohydrate_polymer': False, 'branch_name': ''}]

>  <ligand_codes>  (816) 
['AG7', 'AG7', 'EDO', 'EDO', 'EDO', 'EDO']

>  <cofactor_codes>  (816) 
[]

>  <has_cofactor>  (816) 
False

>  <covalent>  (816) 
True

>  <base_name>  (816) 
3R0F

>  <lig_resn>  (816) 
AG7

>  <lig_resi>  (816) 
501

>  <lig_chain>  (816) 
A

>  <lig_segi>  (816) 
C

>  <lig_alt>  (816) 


>  <polymer_chain>  (816) 
A

>  <single_smiles>  (816) 
CCOC(=O)CC[C@H](C[C@@H]1CCNC1=O)NC(=O)[C@@H](CC(=O)[C@@H](NC(=O)c2cc(C)on2)C(C)C)Cc3ccc(F)cc3

$$$$
AG7P21S11
     RDKit          3D

 20 20  0  0  0  0  0  0  0  0999 V2000
   -8.3980   11.0090  -33.8670 N   0  0  0  0  0  0  0  0  0  0  0  0
   -7.9420   12.2650  -34.4580 C   0  0  0  0  0  0  0  0  0  0  0  0
   -9.0190   13.1280  -35.0570 C   0  0  1  0  0  0  0  0  0  0  0  0
   -6.7840   12.4330  -34.6620 O   0  0  0  0  0  0  0  0  0  0  0  0
   -8.6730   14.5850  -34.7520 C   0  0  0  0  0  0  0  0  0  0  0  0
   -9.1080   12.8250  -36.5400 C   0  0  0  0  0  0  0  0  0  0  0  0
   -8.6380   14.8860  -33.2600 C   0  0  0  0  0  0  0  0  0  0  0  0
  -10.1500   13.6920  -37.2180 C   0  0  0  0  0  0  0  0  0  0  0  0
   -8.3120   16.3420  -32.8970 C   0  0  1  0  0  0  0  0  0  0  0  0
   -8.8080   14.0630  -32.4060 O   0  0  0  0  0  0  0  0  0  0  0  0
  -11.4610   13.5630  -36.9490 C   0  0  0  0  0  0  0  0  0  0  0  0
   -9.6910   14.5990  -38.2790 C   0  0  0  0  0  0  0  0  0  0  0  0
   -8.7060   16.6300  -31.5470 N   0  0  0  0  0  0  0  0  0  0  0  0
   -6.8540   16.7080  -33.1340 C   0  0  0  0  0  0  0  0  0  0  0  0
  -12.4610   14.3840  -37.6880 C   0  0  0  0  0  0  0  0  0  0  0  0
  -10.6060   15.3460  -38.9640 C   0  0  0  0  0  0  0  0  0  0  0  0
   -6.6180   18.1230  -32.6450 C   0  0  0  0  0  0  0  0  0  0  0  0
   -5.9260   15.8060  -32.3870 C   0  0  0  0  0  0  0  0  0  0  0  0
  -12.0490   15.2290  -38.6420 C   0  0  0  0  0  0  0  0  0  0  0  0
  -12.9270   15.9490  -39.3140 F   0  0  0  0  0  0  0  0  0  0  0  0
  1  2  1  0
  3  2  1  0
  2  4  2  0
  3  5  1  6
  3  6  1  0
  7  5  1  0
  6  8  1  0
  7  9  1  0
  7 10  2  0
  8 11  2  0
  8 12  1  0
  9 13  1  1
  9 14  1  0
 11 15  1  0
 16 12  2  0
 14 17  1  0
 14 18  1  0
 15 19  2  0
 19 16  1  0
 19 20  1  0
A    2
 C47
A    3
 C04
A    4
 O48
A    5
 C02
A    6
 C05
A    7
 C01
A    8
 C06
A    9
 C57
A   10
 O03
A   11
 C07
A   12
 C11
A   14
 C78
A   15
 C08
A   16
 C10
A   17
 C81
A   18
 C82
A   19
 C09
A   20
 F1 
M  END
>  <XChem_code>  (817) 
AG7§21

>  <Occupancy>  (817) 
[1.0, 1.0, 1.0, 1.0, 1.0, 1.0, 1.0, 1.0, 1.0, 1.0, 1.0, 1.0, 1.0, 1.0, 1.0, 1.0, 1.0, 1.0, 1.0, 1.0, 1.0, 1.0, 1.0, 1.0, 1.0, 1.0, 1.0, 1.0, 1.0, 1.0, 1.0, 1.0, 1.0, 1.0, 1.0, 1.0, 1.0, 1.0, 1.0, 1.0, 1.0, 1.0, 1.0, 1.0]

>  <TempFactor>  (817) 
[11.1, 20.91, 12.33, 21.54, 28.02, 10.23, 11.74, 33.15, 31.53, 14.67, 25.91, 17.57, 20.17, 22.48, 24.62, 23.23, 20.48, 10.14, 10.8, 10.98, 11.96, 13.14, 11.93, 10.58, 15.79, 15.3, 17.28, 19.56, 15.73, 11.53, 12.15, 23.48, 27.32, 11.33, 13.47, 17.51, 18.05, 14.14, 15.23, 13.92, 11.83, 10.72, 9.75, 27.35]

>  <accession>  (817) 
3R0F_A

>  <description>  (817) 
Chain A, 3C protein [Enterovirus A71]

>  <evalue>  (817) 
6.09465e-58

>  <pdb_code>  (817) 
3R0F

>  <chain>  (817) 
A

>  <ligands>  (817) 
[{'chain_id': 'A', 'author_residue_number': 501, 'author_insertion_code': '', 'chem_comp_id': 'AG7', 'alternate_conformers': 0, 'entity_id': 2, 'struct_asym_id': 'C', 'residue_number': 1, 'chem_comp_name': '4-{2-(4-FLUORO-BENZYL)-6-METHYL-5-[(5-METHYL-ISOXAZOLE-3-CARBONYL)-AMINO]-4-OXO-HEPTANOYLAMINO}-5-(2-OXO-PYRROLIDIN-3-YL)-PENTANOIC ACID ETHYL ESTER', 'weight': 600.678, 'carbohydrate_polymer': False, 'branch_name': ''}, {'chain_id': 'B', 'author_residue_number': 501, 'author_insertion_code': '', 'chem_comp_id': 'AG7', 'alternate_conformers': 0, 'entity_id': 2, 'struct_asym_id': 'F', 'residue_number': 1, 'chem_comp_name': '4-{2-(4-FLUORO-BENZYL)-6-METHYL-5-[(5-METHYL-ISOXAZOLE-3-CARBONYL)-AMINO]-4-OXO-HEPTANOYLAMINO}-5-(2-OXO-PYRROLIDIN-3-YL)-PENTANOIC ACID ETHYL ESTER', 'weight': 600.678, 'carbohydrate_polymer': False, 'branch_name': ''}, {'chain_id': 'A', 'author_residue_number': 184, 'author_insertion_code': '', 'chem_comp_id': 'EDO', 'alternate_conformers': 0, 'entity_id': 3, 'struct_asym_id': 'D', 'residue_number': 1, 'chem_comp_name': '1,2-ETHANEDIOL', 'weight': 62.068, 'carbohydrate_polymer': False, 'branch_name': ''}, {'chain_id': 'A', 'author_residue_number': 185, 'author_insertion_code': '', 'chem_comp_id': 'EDO', 'alternate_conformers': 0, 'entity_id': 3, 'struct_asym_id': 'E', 'residue_number': 1, 'chem_comp_name': '1,2-ETHANEDIOL', 'weight': 62.068, 'carbohydrate_polymer': False, 'branch_name': ''}, {'chain_id': 'B', 'author_residue_number': 184, 'author_insertion_code': '', 'chem_comp_id': 'EDO', 'alternate_conformers': 0, 'entity_id': 3, 'struct_asym_id': 'G', 'residue_number': 1, 'chem_comp_name': '1,2-ETHANEDIOL', 'weight': 62.068, 'carbohydrate_polymer': False, 'branch_name': ''}, {'chain_id': 'B', 'author_residue_number': 185, 'author_insertion_code': '', 'chem_comp_id': 'EDO', 'alternate_conformers': 0, 'entity_id': 3, 'struct_asym_id': 'H', 'residue_number': 1, 'chem_comp_name': '1,2-ETHANEDIOL', 'weight': 62.068, 'carbohydrate_polymer': False, 'branch_name': ''}]

>  <ligand_codes>  (817) 
['AG7', 'AG7', 'EDO', 'EDO', 'EDO', 'EDO']

>  <cofactor_codes>  (817) 
[]

>  <has_cofactor>  (817) 
False

>  <covalent>  (817) 
True

>  <base_name>  (817) 
3R0F

>  <lig_resn>  (817) 
AG7

>  <lig_resi>  (817) 
501

>  <lig_chain>  (817) 
A

>  <lig_segi>  (817) 
C

>  <lig_alt>  (817) 


>  <polymer_chain>  (817) 
A

>  <single_smiles>  (817) 
CCOC(=O)CC[C@H](C[C@@H]1CCNC1=O)NC(=O)[C@@H](CC(=O)[C@@H](NC(=O)c2cc(C)on2)C(C)C)Cc3ccc(F)cc3

$$$$
AG7P21S12
     RDKit          3D

 19 19  0  0  0  0  0  0  0  0999 V2000
   -8.3120   16.3420  -32.8970 C   0  0  0  0  0  0  0  0  0  0  0  0
   -8.6380   14.8860  -33.2600 C   0  0  0  0  0  0  0  0  0  0  0  0
   -6.8540   16.7080  -33.1340 C   0  0  0  0  0  0  0  0  0  0  0  0
   -8.6730   14.5850  -34.7520 C   0  0  0  0  0  0  0  0  0  0  0  0
   -8.8080   14.0630  -32.4060 O   0  0  0  0  0  0  0  0  0  0  0  0
   -6.6180   18.1230  -32.6450 C   0  0  0  0  0  0  0  0  0  0  0  0
   -5.9260   15.8060  -32.3870 C   0  0  0  0  0  0  0  0  0  0  0  0
   -9.0190   13.1280  -35.0570 C   0  0  2  0  0  0  0  0  0  0  0  0
   -7.9420   12.2650  -34.4580 C   0  0  0  0  0  0  0  0  0  0  0  0
   -9.1080   12.8250  -36.5400 C   0  0  0  0  0  0  0  0  0  0  0  0
   -8.3980   11.0090  -33.8670 N   0  0  0  0  0  0  0  0  0  0  0  0
   -6.7840   12.4330  -34.6620 O   0  0  0  0  0  0  0  0  0  0  0  0
  -10.1500   13.6920  -37.2180 C   0  0  0  0  0  0  0  0  0  0  0  0
  -11.4610   13.5630  -36.9490 C   0  0  0  0  0  0  0  0  0  0  0  0
   -9.6910   14.5990  -38.2790 C   0  0  0  0  0  0  0  0  0  0  0  0
  -12.4610   14.3840  -37.6880 C   0  0  0  0  0  0  0  0  0  0  0  0
  -10.6060   15.3460  -38.9640 C   0  0  0  0  0  0  0  0  0  0  0  0
  -12.0490   15.2290  -38.6420 C   0  0  0  0  0  0  0  0  0  0  0  0
  -12.9270   15.9490  -39.3140 F   0  0  0  0  0  0  0  0  0  0  0  0
  2  1  1  0
  1  3  1  6
  2  4  1  0
  2  5  2  0
  3  6  1  0
  3  7  1  0
  8  4  1  6
  8  9  1  0
  8 10  1  0
 11  9  1  0
  9 12  2  0
 10 13  1  0
 13 14  2  0
 13 15  1  0
 14 16  1  0
 17 15  2  0
 16 18  2  0
 18 17  1  0
 18 19  1  0
A    2
 C01
A    3
 C78
A    4
 C02
A    5
 O03
A    6
 C81
A    7
 C82
A    8
 C04
A    9
 C47
A   10
 C05
A   12
 O48
A   13
 C06
A   14
 C07
A   15
 C11
A   16
 C08
A   17
 C10
A   18
 C09
A   19
 F1 
M  END
>  <XChem_code>  (818) 
AG7§21

>  <Occupancy>  (818) 
[1.0, 1.0, 1.0, 1.0, 1.0, 1.0, 1.0, 1.0, 1.0, 1.0, 1.0, 1.0, 1.0, 1.0, 1.0, 1.0, 1.0, 1.0, 1.0, 1.0, 1.0, 1.0, 1.0, 1.0, 1.0, 1.0, 1.0, 1.0, 1.0, 1.0, 1.0, 1.0, 1.0, 1.0, 1.0, 1.0, 1.0, 1.0, 1.0, 1.0, 1.0, 1.0, 1.0, 1.0]

>  <TempFactor>  (818) 
[11.1, 20.91, 12.33, 21.54, 28.02, 10.23, 11.74, 33.15, 31.53, 14.67, 25.91, 17.57, 20.17, 22.48, 24.62, 23.23, 20.48, 10.14, 10.8, 10.98, 11.96, 13.14, 11.93, 10.58, 15.79, 15.3, 17.28, 19.56, 15.73, 11.53, 12.15, 23.48, 27.32, 11.33, 13.47, 17.51, 18.05, 14.14, 15.23, 13.92, 11.83, 10.72, 9.75, 27.35]

>  <accession>  (818) 
3R0F_A

>  <description>  (818) 
Chain A, 3C protein [Enterovirus A71]

>  <evalue>  (818) 
6.09465e-58

>  <pdb_code>  (818) 
3R0F

>  <chain>  (818) 
A

>  <ligands>  (818) 
[{'chain_id': 'A', 'author_residue_number': 501, 'author_insertion_code': '', 'chem_comp_id': 'AG7', 'alternate_conformers': 0, 'entity_id': 2, 'struct_asym_id': 'C', 'residue_number': 1, 'chem_comp_name': '4-{2-(4-FLUORO-BENZYL)-6-METHYL-5-[(5-METHYL-ISOXAZOLE-3-CARBONYL)-AMINO]-4-OXO-HEPTANOYLAMINO}-5-(2-OXO-PYRROLIDIN-3-YL)-PENTANOIC ACID ETHYL ESTER', 'weight': 600.678, 'carbohydrate_polymer': False, 'branch_name': ''}, {'chain_id': 'B', 'author_residue_number': 501, 'author_insertion_code': '', 'chem_comp_id': 'AG7', 'alternate_conformers': 0, 'entity_id': 2, 'struct_asym_id': 'F', 'residue_number': 1, 'chem_comp_name': '4-{2-(4-FLUORO-BENZYL)-6-METHYL-5-[(5-METHYL-ISOXAZOLE-3-CARBONYL)-AMINO]-4-OXO-HEPTANOYLAMINO}-5-(2-OXO-PYRROLIDIN-3-YL)-PENTANOIC ACID ETHYL ESTER', 'weight': 600.678, 'carbohydrate_polymer': False, 'branch_name': ''}, {'chain_id': 'A', 'author_residue_number': 184, 'author_insertion_code': '', 'chem_comp_id': 'EDO', 'alternate_conformers': 0, 'entity_id': 3, 'struct_asym_id': 'D', 'residue_number': 1, 'chem_comp_name': '1,2-ETHANEDIOL', 'weight': 62.068, 'carbohydrate_polymer': False, 'branch_name': ''}, {'chain_id': 'A', 'author_residue_number': 185, 'author_insertion_code': '', 'chem_comp_id': 'EDO', 'alternate_conformers': 0, 'entity_id': 3, 'struct_asym_id': 'E', 'residue_number': 1, 'chem_comp_name': '1,2-ETHANEDIOL', 'weight': 62.068, 'carbohydrate_polymer': False, 'branch_name': ''}, {'chain_id': 'B', 'author_residue_number': 184, 'author_insertion_code': '', 'chem_comp_id': 'EDO', 'alternate_conformers': 0, 'entity_id': 3, 'struct_asym_id': 'G', 'residue_number': 1, 'chem_comp_name': '1,2-ETHANEDIOL', 'weight': 62.068, 'carbohydrate_polymer': False, 'branch_name': ''}, {'chain_id': 'B', 'author_residue_number': 185, 'author_insertion_code': '', 'chem_comp_id': 'EDO', 'alternate_conformers': 0, 'entity_id': 3, 'struct_asym_id': 'H', 'residue_number': 1, 'chem_comp_name': '1,2-ETHANEDIOL', 'weight': 62.068, 'carbohydrate_polymer': False, 'branch_name': ''}]

>  <ligand_codes>  (818) 
['AG7', 'AG7', 'EDO', 'EDO', 'EDO', 'EDO']

>  <cofactor_codes>  (818) 
[]

>  <has_cofactor>  (818) 
False

>  <covalent>  (818) 
True

>  <base_name>  (818) 
3R0F

>  <lig_resn>  (818) 
AG7

>  <lig_resi>  (818) 
501

>  <lig_chain>  (818) 
A

>  <lig_segi>  (818) 
C

>  <lig_alt>  (818) 


>  <polymer_chain>  (818) 
A

>  <single_smiles>  (818) 
CCOC(=O)CC[C@H](C[C@@H]1CCNC1=O)NC(=O)[C@@H](CC(=O)[C@@H](NC(=O)c2cc(C)on2)C(C)C)Cc3ccc(F)cc3

$$$$
AG7P21S13
     RDKit          3D

  6  6  0  0  0  0  0  0  0  0999 V2000
  -10.1380   17.8080  -29.8610 C   0  0  0  0  0  0  0  0  0  0  0  0
  -11.1190   18.7800  -29.4370 C   0  0  0  0  0  0  0  0  0  0  0  0
   -9.8870   17.0260  -28.8310 N   0  0  0  0  0  0  0  0  0  0  0  0
  -11.2290   18.6960  -28.1430 C   0  0  0  0  0  0  0  0  0  0  0  0
  -10.5080   17.5930  -27.7590 O   0  0  0  0  0  0  0  0  0  0  0  0
  -12.1640   19.5270  -27.3100 C   0  0  0  0  0  0  0  0  0  0  0  0
  1  2  1  0
  1  3  2  0
  2  4  2  0
  5  3  1  0
  4  6  1  0
  4  5  1  0
A    2
 C2 
A    3
 N5 
A    4
 C3 
A    5
 O4 
A    6
 C4 
M  END
>  <XChem_code>  (819) 
AG7§21

>  <Occupancy>  (819) 
[1.0, 1.0, 1.0, 1.0, 1.0, 1.0, 1.0, 1.0, 1.0, 1.0, 1.0, 1.0, 1.0, 1.0, 1.0, 1.0, 1.0, 1.0, 1.0, 1.0, 1.0, 1.0, 1.0, 1.0, 1.0, 1.0, 1.0, 1.0, 1.0, 1.0, 1.0, 1.0, 1.0, 1.0, 1.0, 1.0, 1.0, 1.0, 1.0, 1.0, 1.0, 1.0, 1.0, 1.0]

>  <TempFactor>  (819) 
[11.1, 20.91, 12.33, 21.54, 28.02, 10.23, 11.74, 33.15, 31.53, 14.67, 25.91, 17.57, 20.17, 22.48, 24.62, 23.23, 20.48, 10.14, 10.8, 10.98, 11.96, 13.14, 11.93, 10.58, 15.79, 15.3, 17.28, 19.56, 15.73, 11.53, 12.15, 23.48, 27.32, 11.33, 13.47, 17.51, 18.05, 14.14, 15.23, 13.92, 11.83, 10.72, 9.75, 27.35]

>  <accession>  (819) 
3R0F_A

>  <description>  (819) 
Chain A, 3C protein [Enterovirus A71]

>  <evalue>  (819) 
6.09465e-58

>  <pdb_code>  (819) 
3R0F

>  <chain>  (819) 
A

>  <ligands>  (819) 
[{'chain_id': 'A', 'author_residue_number': 501, 'author_insertion_code': '', 'chem_comp_id': 'AG7', 'alternate_conformers': 0, 'entity_id': 2, 'struct_asym_id': 'C', 'residue_number': 1, 'chem_comp_name': '4-{2-(4-FLUORO-BENZYL)-6-METHYL-5-[(5-METHYL-ISOXAZOLE-3-CARBONYL)-AMINO]-4-OXO-HEPTANOYLAMINO}-5-(2-OXO-PYRROLIDIN-3-YL)-PENTANOIC ACID ETHYL ESTER', 'weight': 600.678, 'carbohydrate_polymer': False, 'branch_name': ''}, {'chain_id': 'B', 'author_residue_number': 501, 'author_insertion_code': '', 'chem_comp_id': 'AG7', 'alternate_conformers': 0, 'entity_id': 2, 'struct_asym_id': 'F', 'residue_number': 1, 'chem_comp_name': '4-{2-(4-FLUORO-BENZYL)-6-METHYL-5-[(5-METHYL-ISOXAZOLE-3-CARBONYL)-AMINO]-4-OXO-HEPTANOYLAMINO}-5-(2-OXO-PYRROLIDIN-3-YL)-PENTANOIC ACID ETHYL ESTER', 'weight': 600.678, 'carbohydrate_polymer': False, 'branch_name': ''}, {'chain_id': 'A', 'author_residue_number': 184, 'author_insertion_code': '', 'chem_comp_id': 'EDO', 'alternate_conformers': 0, 'entity_id': 3, 'struct_asym_id': 'D', 'residue_number': 1, 'chem_comp_name': '1,2-ETHANEDIOL', 'weight': 62.068, 'carbohydrate_polymer': False, 'branch_name': ''}, {'chain_id': 'A', 'author_residue_number': 185, 'author_insertion_code': '', 'chem_comp_id': 'EDO', 'alternate_conformers': 0, 'entity_id': 3, 'struct_asym_id': 'E', 'residue_number': 1, 'chem_comp_name': '1,2-ETHANEDIOL', 'weight': 62.068, 'carbohydrate_polymer': False, 'branch_name': ''}, {'chain_id': 'B', 'author_residue_number': 184, 'author_insertion_code': '', 'chem_comp_id': 'EDO', 'alternate_conformers': 0, 'entity_id': 3, 'struct_asym_id': 'G', 'residue_number': 1, 'chem_comp_name': '1,2-ETHANEDIOL', 'weight': 62.068, 'carbohydrate_polymer': False, 'branch_name': ''}, {'chain_id': 'B', 'author_residue_number': 185, 'author_insertion_code': '', 'chem_comp_id': 'EDO', 'alternate_conformers': 0, 'entity_id': 3, 'struct_asym_id': 'H', 'residue_number': 1, 'chem_comp_name': '1,2-ETHANEDIOL', 'weight': 62.068, 'carbohydrate_polymer': False, 'branch_name': ''}]

>  <ligand_codes>  (819) 
['AG7', 'AG7', 'EDO', 'EDO', 'EDO', 'EDO']

>  <cofactor_codes>  (819) 
[]

>  <has_cofactor>  (819) 
False

>  <covalent>  (819) 
True

>  <base_name>  (819) 
3R0F

>  <lig_resn>  (819) 
AG7

>  <lig_resi>  (819) 
501

>  <lig_chain>  (819) 
A

>  <lig_segi>  (819) 
C

>  <lig_alt>  (819) 


>  <polymer_chain>  (819) 
A

>  <single_smiles>  (819) 
CCOC(=O)CC[C@H](C[C@@H]1CCNC1=O)NC(=O)[C@@H](CC(=O)[C@@H](NC(=O)c2cc(C)on2)C(C)C)Cc3ccc(F)cc3

$$$$
AG7P21S14
     RDKit          3D

 38 39  0  0  0  0  0  0  0  0999 V2000
   -9.7630   17.5740  -31.2860 C   0  0  0  0  0  0  0  0  0  0  0  0
   -8.7060   16.6300  -31.5470 N   0  0  0  0  0  0  0  0  0  0  0  0
  -10.1690   18.3250  -32.1460 O   0  0  0  0  0  0  0  0  0  0  0  0
   -8.3120   16.3420  -32.8970 C   0  0  2  0  0  0  0  0  0  0  0  0
   -8.6380   14.8860  -33.2600 C   0  0  0  0  0  0  0  0  0  0  0  0
   -6.8540   16.7080  -33.1340 C   0  0  0  0  0  0  0  0  0  0  0  0
   -8.6730   14.5850  -34.7520 C   0  0  0  0  0  0  0  0  0  0  0  0
   -8.8080   14.0630  -32.4060 O   0  0  0  0  0  0  0  0  0  0  0  0
   -6.6180   18.1230  -32.6450 C   0  0  0  0  0  0  0  0  0  0  0  0
   -5.9260   15.8060  -32.3870 C   0  0  0  0  0  0  0  0  0  0  0  0
   -9.0190   13.1280  -35.0570 C   0  0  1  0  0  0  0  0  0  0  0  0
   -9.1080   12.8250  -36.5400 C   0  0  0  0  0  0  0  0  0  0  0  0
   -7.9420   12.2650  -34.4580 C   0  0  0  0  0  0  0  0  0  0  0  0
  -10.1500   13.6920  -37.2180 C   0  0  0  0  0  0  0  0  0  0  0  0
   -8.3980   11.0090  -33.8670 N   0  0  0  0  0  0  0  0  0  0  0  0
   -6.7840   12.4330  -34.6620 O   0  0  0  0  0  0  0  0  0  0  0  0
  -11.4610   13.5630  -36.9490 C   0  0  0  0  0  0  0  0  0  0  0  0
   -9.6910   14.5990  -38.2790 C   0  0  0  0  0  0  0  0  0  0  0  0
   -7.4250    9.9840  -33.4820 C   0  0  1  0  0  0  0  0  0  0  0  0
  -12.4610   14.3840  -37.6880 C   0  0  0  0  0  0  0  0  0  0  0  0
  -10.6060   15.3460  -38.9640 C   0  0  0  0  0  0  0  0  0  0  0  0
   -7.3730    9.8180  -31.9860 C   0  0  0  0  0  0  0  0  0  0  0  0
   -7.8000    8.7080  -34.2240 C   0  0  2  0  0  0  0  0  0  0  0  0
  -12.0490   15.2290  -38.6420 C   0  0  0  0  0  0  0  0  0  0  0  0
   -6.9020   11.0990  -31.2870 C   0  0  1  0  0  0  0  0  0  0  0  0
   -7.6930    8.7200  -35.7320 C   0  0  0  0  0  0  0  0  0  0  0  0
   -9.6610    8.3310  -33.8000 R   0  0  0  0  0  0  0  0  0  0  0  0
  -12.9270   15.9490  -39.3140 F   0  0  0  0  0  0  0  0  0  0  0  0
   -6.8840   10.9300  -29.8210 C   0  0  0  0  0  0  0  0  0  0  0  0
   -5.5070   11.5250  -31.6520 C   0  0  0  0  0  0  0  0  0  0  0  0
   -6.2700    8.9490  -36.1640 C   0  0  0  0  0  0  0  0  0  0  0  0
   -5.7340   11.6000  -29.3140 N   0  0  0  0  0  0  0  0  0  0  0  0
   -7.5830   10.2190  -29.1600 O   0  0  0  0  0  0  0  0  0  0  0  0
   -5.0970   12.3000  -30.4180 C   0  0  0  0  0  0  0  0  0  0  0  0
   -6.0890    9.7380  -37.1470 O   0  0  0  0  0  0  0  0  0  0  0  0
   -5.3370    8.3840  -35.5820 O   0  0  0  0  0  0  0  0  0  0  0  0
   -4.7970   10.0720  -37.5320 C   0  0  0  0  0  0  0  0  0  0  0  0
   -4.8460   11.4130  -38.2360 C   0  0  0  0  0  0  0  0  0  0  0  0
  2  1  1  0
  1  3  2  0
  4  2  1  1
  5  4  1  0
  4  6  1  0
  5  7  1  0
  5  8  2  0
  6  9  1  0
  6 10  1  0
 11  7  1  6
 11 12  1  0
 11 13  1  0
 12 14  1  0
 15 13  1  0
 13 16  2  0
 14 17  2  0
 14 18  1  0
 15 19  1  0
 17 20  1  0
 21 18  2  0
 19 22  1  1
 19 23  1  0
 20 24  2  0
 24 21  1  0
 25 22  1  6
 23 26  1  0
 23 27  1  6
 24 28  1  0
 25 29  1  0
 25 30  1  0
 26 31  1  0
 29 32  1  0
 29 33  2  0
 34 30  1  0
 31 35  1  0
 31 36  2  0
 32 34  1  0
 35 37  1  0
 37 38  1  0
V   27 *
A    2
 N58
A    3
 O60
A    4
 C57
A    5
 C01
A    6
 C78
A    7
 C02
A    8
 O03
A    9
 C81
A   10
 C82
A   11
 C04
A   12
 C05
A   13
 C47
A   14
 C06
A   15
 N12
A   16
 O48
A   17
 C07
A   18
 C11
A   19
 C13
A   20
 C08
A   21
 C10
A   22
 C14
A   23
 C19
A   24
 C09
A   25
 C15
A   26
 C20
A   27
 X  
A   28
 F1 
A   29
 C16
A   30
 C84
A   31
 C21
A   32
 N17
A   33
 O18
A   34
 C83
A   35
 O22
A   36
 O23
A   37
 C50
A   38
 C53
M  END
>  <XChem_code>  (820) 
AG7§21

>  <Occupancy>  (820) 
[1.0, 1.0, 1.0, 1.0, 1.0, 1.0, 1.0, 1.0, 1.0, 1.0, 1.0, 1.0, 1.0, 1.0, 1.0, 1.0, 1.0, 1.0, 1.0, 1.0, 1.0, 1.0, 1.0, 1.0, 1.0, 1.0, 1.0, 1.0, 1.0, 1.0, 1.0, 1.0, 1.0, 1.0, 1.0, 1.0, 1.0, 1.0, 1.0, 1.0, 1.0, 1.0, 1.0, 1.0]

>  <TempFactor>  (820) 
[11.1, 20.91, 12.33, 21.54, 28.02, 10.23, 11.74, 33.15, 31.53, 14.67, 25.91, 17.57, 20.17, 22.48, 24.62, 23.23, 20.48, 10.14, 10.8, 10.98, 11.96, 13.14, 11.93, 10.58, 15.79, 15.3, 17.28, 19.56, 15.73, 11.53, 12.15, 23.48, 27.32, 11.33, 13.47, 17.51, 18.05, 14.14, 15.23, 13.92, 11.83, 10.72, 9.75, 27.35]

>  <accession>  (820) 
3R0F_A

>  <description>  (820) 
Chain A, 3C protein [Enterovirus A71]

>  <evalue>  (820) 
6.09465e-58

>  <pdb_code>  (820) 
3R0F

>  <chain>  (820) 
A

>  <ligands>  (820) 
[{'chain_id': 'A', 'author_residue_number': 501, 'author_insertion_code': '', 'chem_comp_id': 'AG7', 'alternate_conformers': 0, 'entity_id': 2, 'struct_asym_id': 'C', 'residue_number': 1, 'chem_comp_name': '4-{2-(4-FLUORO-BENZYL)-6-METHYL-5-[(5-METHYL-ISOXAZOLE-3-CARBONYL)-AMINO]-4-OXO-HEPTANOYLAMINO}-5-(2-OXO-PYRROLIDIN-3-YL)-PENTANOIC ACID ETHYL ESTER', 'weight': 600.678, 'carbohydrate_polymer': False, 'branch_name': ''}, {'chain_id': 'B', 'author_residue_number': 501, 'author_insertion_code': '', 'chem_comp_id': 'AG7', 'alternate_conformers': 0, 'entity_id': 2, 'struct_asym_id': 'F', 'residue_number': 1, 'chem_comp_name': '4-{2-(4-FLUORO-BENZYL)-6-METHYL-5-[(5-METHYL-ISOXAZOLE-3-CARBONYL)-AMINO]-4-OXO-HEPTANOYLAMINO}-5-(2-OXO-PYRROLIDIN-3-YL)-PENTANOIC ACID ETHYL ESTER', 'weight': 600.678, 'carbohydrate_polymer': False, 'branch_name': ''}, {'chain_id': 'A', 'author_residue_number': 184, 'author_insertion_code': '', 'chem_comp_id': 'EDO', 'alternate_conformers': 0, 'entity_id': 3, 'struct_asym_id': 'D', 'residue_number': 1, 'chem_comp_name': '1,2-ETHANEDIOL', 'weight': 62.068, 'carbohydrate_polymer': False, 'branch_name': ''}, {'chain_id': 'A', 'author_residue_number': 185, 'author_insertion_code': '', 'chem_comp_id': 'EDO', 'alternate_conformers': 0, 'entity_id': 3, 'struct_asym_id': 'E', 'residue_number': 1, 'chem_comp_name': '1,2-ETHANEDIOL', 'weight': 62.068, 'carbohydrate_polymer': False, 'branch_name': ''}, {'chain_id': 'B', 'author_residue_number': 184, 'author_insertion_code': '', 'chem_comp_id': 'EDO', 'alternate_conformers': 0, 'entity_id': 3, 'struct_asym_id': 'G', 'residue_number': 1, 'chem_comp_name': '1,2-ETHANEDIOL', 'weight': 62.068, 'carbohydrate_polymer': False, 'branch_name': ''}, {'chain_id': 'B', 'author_residue_number': 185, 'author_insertion_code': '', 'chem_comp_id': 'EDO', 'alternate_conformers': 0, 'entity_id': 3, 'struct_asym_id': 'H', 'residue_number': 1, 'chem_comp_name': '1,2-ETHANEDIOL', 'weight': 62.068, 'carbohydrate_polymer': False, 'branch_name': ''}]

>  <ligand_codes>  (820) 
['AG7', 'AG7', 'EDO', 'EDO', 'EDO', 'EDO']

>  <cofactor_codes>  (820) 
[]

>  <has_cofactor>  (820) 
False

>  <covalent>  (820) 
True

>  <base_name>  (820) 
3R0F

>  <lig_resn>  (820) 
AG7

>  <lig_resi>  (820) 
501

>  <lig_chain>  (820) 
A

>  <lig_segi>  (820) 
C

>  <lig_alt>  (820) 


>  <polymer_chain>  (820) 
A

>  <single_smiles>  (820) 
CCOC(=O)CC[C@H](C[C@@H]1CCNC1=O)NC(=O)[C@@H](CC(=O)[C@@H](NC(=O)c2cc(C)on2)C(C)C)Cc3ccc(F)cc3

$$$$
AG7P21S15
     RDKit          3D

 21 21  0  0  0  0  0  0  0  0999 V2000
   -9.7630   17.5740  -31.2860 C   0  0  0  0  0  0  0  0  0  0  0  0
   -8.7060   16.6300  -31.5470 N   0  0  0  0  0  0  0  0  0  0  0  0
  -10.1690   18.3250  -32.1460 O   0  0  0  0  0  0  0  0  0  0  0  0
   -8.3120   16.3420  -32.8970 C   0  0  2  0  0  0  0  0  0  0  0  0
   -8.6380   14.8860  -33.2600 C   0  0  0  0  0  0  0  0  0  0  0  0
   -6.8540   16.7080  -33.1340 C   0  0  0  0  0  0  0  0  0  0  0  0
   -8.6730   14.5850  -34.7520 C   0  0  0  0  0  0  0  0  0  0  0  0
   -8.8080   14.0630  -32.4060 O   0  0  0  0  0  0  0  0  0  0  0  0
   -6.6180   18.1230  -32.6450 C   0  0  0  0  0  0  0  0  0  0  0  0
   -5.9260   15.8060  -32.3870 C   0  0  0  0  0  0  0  0  0  0  0  0
   -9.0190   13.1280  -35.0570 C   0  0  2  0  0  0  0  0  0  0  0  0
   -7.9420   12.2650  -34.4580 C   0  0  0  0  0  0  0  0  0  0  0  0
   -9.1080   12.8250  -36.5400 C   0  0  0  0  0  0  0  0  0  0  0  0
   -6.7840   12.4330  -34.6620 O   0  0  0  0  0  0  0  0  0  0  0  0
  -10.1500   13.6920  -37.2180 C   0  0  0  0  0  0  0  0  0  0  0  0
  -11.4610   13.5630  -36.9490 C   0  0  0  0  0  0  0  0  0  0  0  0
   -9.6910   14.5990  -38.2790 C   0  0  0  0  0  0  0  0  0  0  0  0
  -12.4610   14.3840  -37.6880 C   0  0  0  0  0  0  0  0  0  0  0  0
  -10.6060   15.3460  -38.9640 C   0  0  0  0  0  0  0  0  0  0  0  0
  -12.0490   15.2290  -38.6420 C   0  0  0  0  0  0  0  0  0  0  0  0
  -12.9270   15.9490  -39.3140 F   0  0  0  0  0  0  0  0  0  0  0  0
  2  1  1  0
  1  3  2  0
  4  2  1  1
  5  4  1  0
  4  6  1  0
  5  7  1  0
  5  8  2  0
  6  9  1  0
  6 10  1  0
 11  7  1  6
 11 12  1  0
 11 13  1  0
 12 14  2  0
 13 15  1  0
 15 16  2  0
 15 17  1  0
 16 18  1  0
 19 17  2  0
 18 20  2  0
 20 19  1  0
 20 21  1  0
A    2
 N58
A    3
 O60
A    4
 C57
A    5
 C01
A    6
 C78
A    7
 C02
A    8
 O03
A    9
 C81
A   10
 C82
A   11
 C04
A   13
 C05
A   14
 O48
A   15
 C06
A   16
 C07
A   17
 C11
A   18
 C08
A   19
 C10
A   20
 C09
A   21
 F1 
M  END
>  <XChem_code>  (821) 
AG7§21

>  <Occupancy>  (821) 
[1.0, 1.0, 1.0, 1.0, 1.0, 1.0, 1.0, 1.0, 1.0, 1.0, 1.0, 1.0, 1.0, 1.0, 1.0, 1.0, 1.0, 1.0, 1.0, 1.0, 1.0, 1.0, 1.0, 1.0, 1.0, 1.0, 1.0, 1.0, 1.0, 1.0, 1.0, 1.0, 1.0, 1.0, 1.0, 1.0, 1.0, 1.0, 1.0, 1.0, 1.0, 1.0, 1.0, 1.0]

>  <TempFactor>  (821) 
[11.1, 20.91, 12.33, 21.54, 28.02, 10.23, 11.74, 33.15, 31.53, 14.67, 25.91, 17.57, 20.17, 22.48, 24.62, 23.23, 20.48, 10.14, 10.8, 10.98, 11.96, 13.14, 11.93, 10.58, 15.79, 15.3, 17.28, 19.56, 15.73, 11.53, 12.15, 23.48, 27.32, 11.33, 13.47, 17.51, 18.05, 14.14, 15.23, 13.92, 11.83, 10.72, 9.75, 27.35]

>  <accession>  (821) 
3R0F_A

>  <description>  (821) 
Chain A, 3C protein [Enterovirus A71]

>  <evalue>  (821) 
6.09465e-58

>  <pdb_code>  (821) 
3R0F

>  <chain>  (821) 
A

>  <ligands>  (821) 
[{'chain_id': 'A', 'author_residue_number': 501, 'author_insertion_code': '', 'chem_comp_id': 'AG7', 'alternate_conformers': 0, 'entity_id': 2, 'struct_asym_id': 'C', 'residue_number': 1, 'chem_comp_name': '4-{2-(4-FLUORO-BENZYL)-6-METHYL-5-[(5-METHYL-ISOXAZOLE-3-CARBONYL)-AMINO]-4-OXO-HEPTANOYLAMINO}-5-(2-OXO-PYRROLIDIN-3-YL)-PENTANOIC ACID ETHYL ESTER', 'weight': 600.678, 'carbohydrate_polymer': False, 'branch_name': ''}, {'chain_id': 'B', 'author_residue_number': 501, 'author_insertion_code': '', 'chem_comp_id': 'AG7', 'alternate_conformers': 0, 'entity_id': 2, 'struct_asym_id': 'F', 'residue_number': 1, 'chem_comp_name': '4-{2-(4-FLUORO-BENZYL)-6-METHYL-5-[(5-METHYL-ISOXAZOLE-3-CARBONYL)-AMINO]-4-OXO-HEPTANOYLAMINO}-5-(2-OXO-PYRROLIDIN-3-YL)-PENTANOIC ACID ETHYL ESTER', 'weight': 600.678, 'carbohydrate_polymer': False, 'branch_name': ''}, {'chain_id': 'A', 'author_residue_number': 184, 'author_insertion_code': '', 'chem_comp_id': 'EDO', 'alternate_conformers': 0, 'entity_id': 3, 'struct_asym_id': 'D', 'residue_number': 1, 'chem_comp_name': '1,2-ETHANEDIOL', 'weight': 62.068, 'carbohydrate_polymer': False, 'branch_name': ''}, {'chain_id': 'A', 'author_residue_number': 185, 'author_insertion_code': '', 'chem_comp_id': 'EDO', 'alternate_conformers': 0, 'entity_id': 3, 'struct_asym_id': 'E', 'residue_number': 1, 'chem_comp_name': '1,2-ETHANEDIOL', 'weight': 62.068, 'carbohydrate_polymer': False, 'branch_name': ''}, {'chain_id': 'B', 'author_residue_number': 184, 'author_insertion_code': '', 'chem_comp_id': 'EDO', 'alternate_conformers': 0, 'entity_id': 3, 'struct_asym_id': 'G', 'residue_number': 1, 'chem_comp_name': '1,2-ETHANEDIOL', 'weight': 62.068, 'carbohydrate_polymer': False, 'branch_name': ''}, {'chain_id': 'B', 'author_residue_number': 185, 'author_insertion_code': '', 'chem_comp_id': 'EDO', 'alternate_conformers': 0, 'entity_id': 3, 'struct_asym_id': 'H', 'residue_number': 1, 'chem_comp_name': '1,2-ETHANEDIOL', 'weight': 62.068, 'carbohydrate_polymer': False, 'branch_name': ''}]

>  <ligand_codes>  (821) 
['AG7', 'AG7', 'EDO', 'EDO', 'EDO', 'EDO']

>  <cofactor_codes>  (821) 
[]

>  <has_cofactor>  (821) 
False

>  <covalent>  (821) 
True

>  <base_name>  (821) 
3R0F

>  <lig_resn>  (821) 
AG7

>  <lig_resi>  (821) 
501

>  <lig_chain>  (821) 
A

>  <lig_segi>  (821) 
C

>  <lig_alt>  (821) 


>  <polymer_chain>  (821) 
A

>  <single_smiles>  (821) 
CCOC(=O)CC[C@H](C[C@@H]1CCNC1=O)NC(=O)[C@@H](CC(=O)[C@@H](NC(=O)c2cc(C)on2)C(C)C)Cc3ccc(F)cc3

$$$$
AG7P21S16
     RDKit          3D

 22 22  0  0  0  0  0  0  0  0999 V2000
   -9.7630   17.5740  -31.2860 C   0  0  0  0  0  0  0  0  0  0  0  0
   -8.7060   16.6300  -31.5470 N   0  0  0  0  0  0  0  0  0  0  0  0
  -10.1690   18.3250  -32.1460 O   0  0  0  0  0  0  0  0  0  0  0  0
   -8.3120   16.3420  -32.8970 C   0  0  2  0  0  0  0  0  0  0  0  0
   -8.6380   14.8860  -33.2600 C   0  0  0  0  0  0  0  0  0  0  0  0
   -6.8540   16.7080  -33.1340 C   0  0  0  0  0  0  0  0  0  0  0  0
   -8.6730   14.5850  -34.7520 C   0  0  0  0  0  0  0  0  0  0  0  0
   -8.8080   14.0630  -32.4060 O   0  0  0  0  0  0  0  0  0  0  0  0
   -6.6180   18.1230  -32.6450 C   0  0  0  0  0  0  0  0  0  0  0  0
   -5.9260   15.8060  -32.3870 C   0  0  0  0  0  0  0  0  0  0  0  0
   -9.0190   13.1280  -35.0570 C   0  0  2  0  0  0  0  0  0  0  0  0
   -7.9420   12.2650  -34.4580 C   0  0  0  0  0  0  0  0  0  0  0  0
   -9.1080   12.8250  -36.5400 C   0  0  0  0  0  0  0  0  0  0  0  0
   -8.3980   11.0090  -33.8670 N   0  0  0  0  0  0  0  0  0  0  0  0
   -6.7840   12.4330  -34.6620 O   0  0  0  0  0  0  0  0  0  0  0  0
  -10.1500   13.6920  -37.2180 C   0  0  0  0  0  0  0  0  0  0  0  0
  -11.4610   13.5630  -36.9490 C   0  0  0  0  0  0  0  0  0  0  0  0
   -9.6910   14.5990  -38.2790 C   0  0  0  0  0  0  0  0  0  0  0  0
  -12.4610   14.3840  -37.6880 C   0  0  0  0  0  0  0  0  0  0  0  0
  -10.6060   15.3460  -38.9640 C   0  0  0  0  0  0  0  0  0  0  0  0
  -12.0490   15.2290  -38.6420 C   0  0  0  0  0  0  0  0  0  0  0  0
  -12.9270   15.9490  -39.3140 F   0  0  0  0  0  0  0  0  0  0  0  0
  2  1  1  0
  1  3  2  0
  4  2  1  1
  5  4  1  0
  4  6  1  0
  5  7  1  0
  5  8  2  0
  6  9  1  0
  6 10  1  0
 11  7  1  6
 11 12  1  0
 11 13  1  0
 14 12  1  0
 12 15  2  0
 13 16  1  0
 16 17  2  0
 16 18  1  0
 17 19  1  0
 20 18  2  0
 19 21  2  0
 21 20  1  0
 21 22  1  0
A    2
 N58
A    3
 O60
A    4
 C57
A    5
 C01
A    6
 C78
A    7
 C02
A    8
 O03
A    9
 C81
A   10
 C82
A   11
 C04
A   12
 C47
A   13
 C05
A   15
 O48
A   16
 C06
A   17
 C07
A   18
 C11
A   19
 C08
A   20
 C10
A   21
 C09
A   22
 F1 
M  END
>  <XChem_code>  (822) 
AG7§21

>  <Occupancy>  (822) 
[1.0, 1.0, 1.0, 1.0, 1.0, 1.0, 1.0, 1.0, 1.0, 1.0, 1.0, 1.0, 1.0, 1.0, 1.0, 1.0, 1.0, 1.0, 1.0, 1.0, 1.0, 1.0, 1.0, 1.0, 1.0, 1.0, 1.0, 1.0, 1.0, 1.0, 1.0, 1.0, 1.0, 1.0, 1.0, 1.0, 1.0, 1.0, 1.0, 1.0, 1.0, 1.0, 1.0, 1.0]

>  <TempFactor>  (822) 
[11.1, 20.91, 12.33, 21.54, 28.02, 10.23, 11.74, 33.15, 31.53, 14.67, 25.91, 17.57, 20.17, 22.48, 24.62, 23.23, 20.48, 10.14, 10.8, 10.98, 11.96, 13.14, 11.93, 10.58, 15.79, 15.3, 17.28, 19.56, 15.73, 11.53, 12.15, 23.48, 27.32, 11.33, 13.47, 17.51, 18.05, 14.14, 15.23, 13.92, 11.83, 10.72, 9.75, 27.35]

>  <accession>  (822) 
3R0F_A

>  <description>  (822) 
Chain A, 3C protein [Enterovirus A71]

>  <evalue>  (822) 
6.09465e-58

>  <pdb_code>  (822) 
3R0F

>  <chain>  (822) 
A

>  <ligands>  (822) 
[{'chain_id': 'A', 'author_residue_number': 501, 'author_insertion_code': '', 'chem_comp_id': 'AG7', 'alternate_conformers': 0, 'entity_id': 2, 'struct_asym_id': 'C', 'residue_number': 1, 'chem_comp_name': '4-{2-(4-FLUORO-BENZYL)-6-METHYL-5-[(5-METHYL-ISOXAZOLE-3-CARBONYL)-AMINO]-4-OXO-HEPTANOYLAMINO}-5-(2-OXO-PYRROLIDIN-3-YL)-PENTANOIC ACID ETHYL ESTER', 'weight': 600.678, 'carbohydrate_polymer': False, 'branch_name': ''}, {'chain_id': 'B', 'author_residue_number': 501, 'author_insertion_code': '', 'chem_comp_id': 'AG7', 'alternate_conformers': 0, 'entity_id': 2, 'struct_asym_id': 'F', 'residue_number': 1, 'chem_comp_name': '4-{2-(4-FLUORO-BENZYL)-6-METHYL-5-[(5-METHYL-ISOXAZOLE-3-CARBONYL)-AMINO]-4-OXO-HEPTANOYLAMINO}-5-(2-OXO-PYRROLIDIN-3-YL)-PENTANOIC ACID ETHYL ESTER', 'weight': 600.678, 'carbohydrate_polymer': False, 'branch_name': ''}, {'chain_id': 'A', 'author_residue_number': 184, 'author_insertion_code': '', 'chem_comp_id': 'EDO', 'alternate_conformers': 0, 'entity_id': 3, 'struct_asym_id': 'D', 'residue_number': 1, 'chem_comp_name': '1,2-ETHANEDIOL', 'weight': 62.068, 'carbohydrate_polymer': False, 'branch_name': ''}, {'chain_id': 'A', 'author_residue_number': 185, 'author_insertion_code': '', 'chem_comp_id': 'EDO', 'alternate_conformers': 0, 'entity_id': 3, 'struct_asym_id': 'E', 'residue_number': 1, 'chem_comp_name': '1,2-ETHANEDIOL', 'weight': 62.068, 'carbohydrate_polymer': False, 'branch_name': ''}, {'chain_id': 'B', 'author_residue_number': 184, 'author_insertion_code': '', 'chem_comp_id': 'EDO', 'alternate_conformers': 0, 'entity_id': 3, 'struct_asym_id': 'G', 'residue_number': 1, 'chem_comp_name': '1,2-ETHANEDIOL', 'weight': 62.068, 'carbohydrate_polymer': False, 'branch_name': ''}, {'chain_id': 'B', 'author_residue_number': 185, 'author_insertion_code': '', 'chem_comp_id': 'EDO', 'alternate_conformers': 0, 'entity_id': 3, 'struct_asym_id': 'H', 'residue_number': 1, 'chem_comp_name': '1,2-ETHANEDIOL', 'weight': 62.068, 'carbohydrate_polymer': False, 'branch_name': ''}]

>  <ligand_codes>  (822) 
['AG7', 'AG7', 'EDO', 'EDO', 'EDO', 'EDO']

>  <cofactor_codes>  (822) 
[]

>  <has_cofactor>  (822) 
False

>  <covalent>  (822) 
True

>  <base_name>  (822) 
3R0F

>  <lig_resn>  (822) 
AG7

>  <lig_resi>  (822) 
501

>  <lig_chain>  (822) 
A

>  <lig_segi>  (822) 
C

>  <lig_alt>  (822) 


>  <polymer_chain>  (822) 
A

>  <single_smiles>  (822) 
CCOC(=O)CC[C@H](C[C@@H]1CCNC1=O)NC(=O)[C@@H](CC(=O)[C@@H](NC(=O)c2cc(C)on2)C(C)C)Cc3ccc(F)cc3

$$$$
AG7P21S17
     RDKit          3D

  6  6  0  0  0  0  0  0  0  0999 V2000
   -6.9020   11.0990  -31.2870 C   0  0  0  0  0  0  0  0  0  0  0  0
   -6.8840   10.9300  -29.8210 C   0  0  0  0  0  0  0  0  0  0  0  0
   -5.5070   11.5250  -31.6520 C   0  0  0  0  0  0  0  0  0  0  0  0
   -5.7340   11.6000  -29.3140 N   0  0  0  0  0  0  0  0  0  0  0  0
   -7.5830   10.2190  -29.1600 O   0  0  0  0  0  0  0  0  0  0  0  0
   -5.0970   12.3000  -30.4180 C   0  0  0  0  0  0  0  0  0  0  0  0
  1  2  1  0
  1  3  1  1
  2  4  1  0
  2  5  2  0
  6  3  1  0
  4  6  1  0
A    2
 C16
A    3
 C84
A    4
 N17
A    5
 O18
A    6
 C83
M  END
>  <XChem_code>  (823) 
AG7§21

>  <Occupancy>  (823) 
[1.0, 1.0, 1.0, 1.0, 1.0, 1.0, 1.0, 1.0, 1.0, 1.0, 1.0, 1.0, 1.0, 1.0, 1.0, 1.0, 1.0, 1.0, 1.0, 1.0, 1.0, 1.0, 1.0, 1.0, 1.0, 1.0, 1.0, 1.0, 1.0, 1.0, 1.0, 1.0, 1.0, 1.0, 1.0, 1.0, 1.0, 1.0, 1.0, 1.0, 1.0, 1.0, 1.0, 1.0]

>  <TempFactor>  (823) 
[11.1, 20.91, 12.33, 21.54, 28.02, 10.23, 11.74, 33.15, 31.53, 14.67, 25.91, 17.57, 20.17, 22.48, 24.62, 23.23, 20.48, 10.14, 10.8, 10.98, 11.96, 13.14, 11.93, 10.58, 15.79, 15.3, 17.28, 19.56, 15.73, 11.53, 12.15, 23.48, 27.32, 11.33, 13.47, 17.51, 18.05, 14.14, 15.23, 13.92, 11.83, 10.72, 9.75, 27.35]

>  <accession>  (823) 
3R0F_A

>  <description>  (823) 
Chain A, 3C protein [Enterovirus A71]

>  <evalue>  (823) 
6.09465e-58

>  <pdb_code>  (823) 
3R0F

>  <chain>  (823) 
A

>  <ligands>  (823) 
[{'chain_id': 'A', 'author_residue_number': 501, 'author_insertion_code': '', 'chem_comp_id': 'AG7', 'alternate_conformers': 0, 'entity_id': 2, 'struct_asym_id': 'C', 'residue_number': 1, 'chem_comp_name': '4-{2-(4-FLUORO-BENZYL)-6-METHYL-5-[(5-METHYL-ISOXAZOLE-3-CARBONYL)-AMINO]-4-OXO-HEPTANOYLAMINO}-5-(2-OXO-PYRROLIDIN-3-YL)-PENTANOIC ACID ETHYL ESTER', 'weight': 600.678, 'carbohydrate_polymer': False, 'branch_name': ''}, {'chain_id': 'B', 'author_residue_number': 501, 'author_insertion_code': '', 'chem_comp_id': 'AG7', 'alternate_conformers': 0, 'entity_id': 2, 'struct_asym_id': 'F', 'residue_number': 1, 'chem_comp_name': '4-{2-(4-FLUORO-BENZYL)-6-METHYL-5-[(5-METHYL-ISOXAZOLE-3-CARBONYL)-AMINO]-4-OXO-HEPTANOYLAMINO}-5-(2-OXO-PYRROLIDIN-3-YL)-PENTANOIC ACID ETHYL ESTER', 'weight': 600.678, 'carbohydrate_polymer': False, 'branch_name': ''}, {'chain_id': 'A', 'author_residue_number': 184, 'author_insertion_code': '', 'chem_comp_id': 'EDO', 'alternate_conformers': 0, 'entity_id': 3, 'struct_asym_id': 'D', 'residue_number': 1, 'chem_comp_name': '1,2-ETHANEDIOL', 'weight': 62.068, 'carbohydrate_polymer': False, 'branch_name': ''}, {'chain_id': 'A', 'author_residue_number': 185, 'author_insertion_code': '', 'chem_comp_id': 'EDO', 'alternate_conformers': 0, 'entity_id': 3, 'struct_asym_id': 'E', 'residue_number': 1, 'chem_comp_name': '1,2-ETHANEDIOL', 'weight': 62.068, 'carbohydrate_polymer': False, 'branch_name': ''}, {'chain_id': 'B', 'author_residue_number': 184, 'author_insertion_code': '', 'chem_comp_id': 'EDO', 'alternate_conformers': 0, 'entity_id': 3, 'struct_asym_id': 'G', 'residue_number': 1, 'chem_comp_name': '1,2-ETHANEDIOL', 'weight': 62.068, 'carbohydrate_polymer': False, 'branch_name': ''}, {'chain_id': 'B', 'author_residue_number': 185, 'author_insertion_code': '', 'chem_comp_id': 'EDO', 'alternate_conformers': 0, 'entity_id': 3, 'struct_asym_id': 'H', 'residue_number': 1, 'chem_comp_name': '1,2-ETHANEDIOL', 'weight': 62.068, 'carbohydrate_polymer': False, 'branch_name': ''}]

>  <ligand_codes>  (823) 
['AG7', 'AG7', 'EDO', 'EDO', 'EDO', 'EDO']

>  <cofactor_codes>  (823) 
[]

>  <has_cofactor>  (823) 
False

>  <covalent>  (823) 
True

>  <base_name>  (823) 
3R0F

>  <lig_resn>  (823) 
AG7

>  <lig_resi>  (823) 
501

>  <lig_chain>  (823) 
A

>  <lig_segi>  (823) 
C

>  <lig_alt>  (823) 


>  <polymer_chain>  (823) 
A

>  <single_smiles>  (823) 
CCOC(=O)CC[C@H](C[C@@H]1CCNC1=O)NC(=O)[C@@H](CC(=O)[C@@H](NC(=O)c2cc(C)on2)C(C)C)Cc3ccc(F)cc3

$$$$
AG7P21S18
     RDKit          3D

 38 39  0  0  0  0  0  0  0  0999 V2000
   -7.3730    9.8180  -31.9860 C   0  0  0  0  0  0  0  0  0  0  0  0
   -7.4250    9.9840  -33.4820 C   0  0  2  0  0  0  0  0  0  0  0  0
   -8.3980   11.0090  -33.8670 N   0  0  0  0  0  0  0  0  0  0  0  0
   -7.8000    8.7080  -34.2240 C   0  0  2  0  0  0  0  0  0  0  0  0
   -7.9420   12.2650  -34.4580 C   0  0  0  0  0  0  0  0  0  0  0  0
   -7.6930    8.7200  -35.7320 C   0  0  0  0  0  0  0  0  0  0  0  0
   -9.6610    8.3310  -33.8000 R   0  0  0  0  0  0  0  0  0  0  0  0
   -9.0190   13.1280  -35.0570 C   0  0  1  0  0  0  0  0  0  0  0  0
   -6.7840   12.4330  -34.6620 O   0  0  0  0  0  0  0  0  0  0  0  0
   -6.2700    8.9490  -36.1640 C   0  0  0  0  0  0  0  0  0  0  0  0
   -8.6730   14.5850  -34.7520 C   0  0  0  0  0  0  0  0  0  0  0  0
   -9.1080   12.8250  -36.5400 C   0  0  0  0  0  0  0  0  0  0  0  0
   -6.0890    9.7380  -37.1470 O   0  0  0  0  0  0  0  0  0  0  0  0
   -5.3370    8.3840  -35.5820 O   0  0  0  0  0  0  0  0  0  0  0  0
   -8.6380   14.8860  -33.2600 C   0  0  0  0  0  0  0  0  0  0  0  0
  -10.1500   13.6920  -37.2180 C   0  0  0  0  0  0  0  0  0  0  0  0
   -4.7970   10.0720  -37.5320 C   0  0  0  0  0  0  0  0  0  0  0  0
   -8.8080   14.0630  -32.4060 O   0  0  0  0  0  0  0  0  0  0  0  0
   -8.3120   16.3420  -32.8970 C   0  0  1  0  0  0  0  0  0  0  0  0
  -11.4610   13.5630  -36.9490 C   0  0  0  0  0  0  0  0  0  0  0  0
   -9.6910   14.5990  -38.2790 C   0  0  0  0  0  0  0  0  0  0  0  0
   -4.8460   11.4130  -38.2360 C   0  0  0  0  0  0  0  0  0  0  0  0
   -8.7060   16.6300  -31.5470 N   0  0  0  0  0  0  0  0  0  0  0  0
   -6.8540   16.7080  -33.1340 C   0  0  0  0  0  0  0  0  0  0  0  0
  -12.4610   14.3840  -37.6880 C   0  0  0  0  0  0  0  0  0  0  0  0
  -10.6060   15.3460  -38.9640 C   0  0  0  0  0  0  0  0  0  0  0  0
   -9.7630   17.5740  -31.2860 C   0  0  0  0  0  0  0  0  0  0  0  0
   -6.6180   18.1230  -32.6450 C   0  0  0  0  0  0  0  0  0  0  0  0
   -5.9260   15.8060  -32.3870 C   0  0  0  0  0  0  0  0  0  0  0  0
  -12.0490   15.2290  -38.6420 C   0  0  0  0  0  0  0  0  0  0  0  0
  -10.1380   17.8080  -29.8610 C   0  0  0  0  0  0  0  0  0  0  0  0
  -10.1690   18.3250  -32.1460 O   0  0  0  0  0  0  0  0  0  0  0  0
  -12.9270   15.9490  -39.3140 F   0  0  0  0  0  0  0  0  0  0  0  0
  -11.1190   18.7800  -29.4370 C   0  0  0  0  0  0  0  0  0  0  0  0
   -9.8870   17.0260  -28.8310 N   0  0  0  0  0  0  0  0  0  0  0  0
  -11.2290   18.6960  -28.1430 C   0  0  0  0  0  0  0  0  0  0  0  0
  -10.5080   17.5930  -27.7590 O   0  0  0  0  0  0  0  0  0  0  0  0
  -12.1640   19.5270  -27.3100 C   0  0  0  0  0  0  0  0  0  0  0  0
  2  1  1  1
  3  2  1  0
  2  4  1  0
  3  5  1  0
  4  6  1  0
  4  7  1  6
  8  5  1  0
  5  9  2  0
  6 10  1  0
  8 11  1  6
  8 12  1  0
 10 13  1  0
 10 14  2  0
 15 11  1  0
 12 16  1  0
 13 17  1  0
 15 18  2  0
 15 19  1  0
 16 20  2  0
 16 21  1  0
 17 22  1  0
 19 23  1  1
 19 24  1  0
 20 25  1  0
 26 21  2  0
 23 27  1  0
 24 28  1  0
 24 29  1  0
 25 30  2  0
 30 26  1  0
 31 27  1  0
 27 32  2  0
 30 33  1  0
 31 34  1  0
 31 35  2  0
 34 36  2  0
 37 35  1  0
 36 38  1  0
 36 37  1  0
V    7 *
A    2
 C13
A    3
 N12
A    4
 C19
A    5
 C47
A    6
 C20
A    7
 X  
A    8
 C04
A    9
 O48
A   10
 C21
A   11
 C02
A   12
 C05
A   13
 O22
A   14
 O23
A   15
 C01
A   16
 C06
A   17
 C50
A   18
 O03
A   19
 C57
A   20
 C07
A   21
 C11
A   22
 C53
A   23
 N58
A   24
 C78
A   25
 C08
A   26
 C10
A   27
 C59
A   28
 C81
A   29
 C82
A   30
 C09
A   31
 C1 
A   32
 O60
A   33
 F1 
A   34
 C2 
A   35
 N5 
A   36
 C3 
A   37
 O4 
A   38
 C4 
M  END
>  <XChem_code>  (824) 
AG7§21

>  <Occupancy>  (824) 
[1.0, 1.0, 1.0, 1.0, 1.0, 1.0, 1.0, 1.0, 1.0, 1.0, 1.0, 1.0, 1.0, 1.0, 1.0, 1.0, 1.0, 1.0, 1.0, 1.0, 1.0, 1.0, 1.0, 1.0, 1.0, 1.0, 1.0, 1.0, 1.0, 1.0, 1.0, 1.0, 1.0, 1.0, 1.0, 1.0, 1.0, 1.0, 1.0, 1.0, 1.0, 1.0, 1.0, 1.0]

>  <TempFactor>  (824) 
[11.1, 20.91, 12.33, 21.54, 28.02, 10.23, 11.74, 33.15, 31.53, 14.67, 25.91, 17.57, 20.17, 22.48, 24.62, 23.23, 20.48, 10.14, 10.8, 10.98, 11.96, 13.14, 11.93, 10.58, 15.79, 15.3, 17.28, 19.56, 15.73, 11.53, 12.15, 23.48, 27.32, 11.33, 13.47, 17.51, 18.05, 14.14, 15.23, 13.92, 11.83, 10.72, 9.75, 27.35]

>  <accession>  (824) 
3R0F_A

>  <description>  (824) 
Chain A, 3C protein [Enterovirus A71]

>  <evalue>  (824) 
6.09465e-58

>  <pdb_code>  (824) 
3R0F

>  <chain>  (824) 
A

>  <ligands>  (824) 
[{'chain_id': 'A', 'author_residue_number': 501, 'author_insertion_code': '', 'chem_comp_id': 'AG7', 'alternate_conformers': 0, 'entity_id': 2, 'struct_asym_id': 'C', 'residue_number': 1, 'chem_comp_name': '4-{2-(4-FLUORO-BENZYL)-6-METHYL-5-[(5-METHYL-ISOXAZOLE-3-CARBONYL)-AMINO]-4-OXO-HEPTANOYLAMINO}-5-(2-OXO-PYRROLIDIN-3-YL)-PENTANOIC ACID ETHYL ESTER', 'weight': 600.678, 'carbohydrate_polymer': False, 'branch_name': ''}, {'chain_id': 'B', 'author_residue_number': 501, 'author_insertion_code': '', 'chem_comp_id': 'AG7', 'alternate_conformers': 0, 'entity_id': 2, 'struct_asym_id': 'F', 'residue_number': 1, 'chem_comp_name': '4-{2-(4-FLUORO-BENZYL)-6-METHYL-5-[(5-METHYL-ISOXAZOLE-3-CARBONYL)-AMINO]-4-OXO-HEPTANOYLAMINO}-5-(2-OXO-PYRROLIDIN-3-YL)-PENTANOIC ACID ETHYL ESTER', 'weight': 600.678, 'carbohydrate_polymer': False, 'branch_name': ''}, {'chain_id': 'A', 'author_residue_number': 184, 'author_insertion_code': '', 'chem_comp_id': 'EDO', 'alternate_conformers': 0, 'entity_id': 3, 'struct_asym_id': 'D', 'residue_number': 1, 'chem_comp_name': '1,2-ETHANEDIOL', 'weight': 62.068, 'carbohydrate_polymer': False, 'branch_name': ''}, {'chain_id': 'A', 'author_residue_number': 185, 'author_insertion_code': '', 'chem_comp_id': 'EDO', 'alternate_conformers': 0, 'entity_id': 3, 'struct_asym_id': 'E', 'residue_number': 1, 'chem_comp_name': '1,2-ETHANEDIOL', 'weight': 62.068, 'carbohydrate_polymer': False, 'branch_name': ''}, {'chain_id': 'B', 'author_residue_number': 184, 'author_insertion_code': '', 'chem_comp_id': 'EDO', 'alternate_conformers': 0, 'entity_id': 3, 'struct_asym_id': 'G', 'residue_number': 1, 'chem_comp_name': '1,2-ETHANEDIOL', 'weight': 62.068, 'carbohydrate_polymer': False, 'branch_name': ''}, {'chain_id': 'B', 'author_residue_number': 185, 'author_insertion_code': '', 'chem_comp_id': 'EDO', 'alternate_conformers': 0, 'entity_id': 3, 'struct_asym_id': 'H', 'residue_number': 1, 'chem_comp_name': '1,2-ETHANEDIOL', 'weight': 62.068, 'carbohydrate_polymer': False, 'branch_name': ''}]

>  <ligand_codes>  (824) 
['AG7', 'AG7', 'EDO', 'EDO', 'EDO', 'EDO']

>  <cofactor_codes>  (824) 
[]

>  <has_cofactor>  (824) 
False

>  <covalent>  (824) 
True

>  <base_name>  (824) 
3R0F

>  <lig_resn>  (824) 
AG7

>  <lig_resi>  (824) 
501

>  <lig_chain>  (824) 
A

>  <lig_segi>  (824) 
C

>  <lig_alt>  (824) 


>  <polymer_chain>  (824) 
A

>  <single_smiles>  (824) 
CCOC(=O)CC[C@H](C[C@@H]1CCNC1=O)NC(=O)[C@@H](CC(=O)[C@@H](NC(=O)c2cc(C)on2)C(C)C)Cc3ccc(F)cc3

$$$$
AG7P21S19
     RDKit          3D

  7  7  0  0  0  0  0  0  0  0999 V2000
  -10.1500   13.6920  -37.2180 C   0  0  0  0  0  0  0  0  0  0  0  0
  -11.4610   13.5630  -36.9490 C   0  0  0  0  0  0  0  0  0  0  0  0
   -9.6910   14.5990  -38.2790 C   0  0  0  0  0  0  0  0  0  0  0  0
  -12.4610   14.3840  -37.6880 C   0  0  0  0  0  0  0  0  0  0  0  0
  -10.6060   15.3460  -38.9640 C   0  0  0  0  0  0  0  0  0  0  0  0
  -12.0490   15.2290  -38.6420 C   0  0  0  0  0  0  0  0  0  0  0  0
  -12.9270   15.9490  -39.3140 F   0  0  0  0  0  0  0  0  0  0  0  0
  1  2  2  0
  1  3  1  0
  2  4  1  0
  5  3  2  0
  4  6  2  0
  6  5  1  0
  6  7  1  0
A    2
 C07
A    3
 C11
A    4
 C08
A    5
 C10
A    6
 C09
A    7
 F1 
M  END
>  <XChem_code>  (825) 
AG7§21

>  <Occupancy>  (825) 
[1.0, 1.0, 1.0, 1.0, 1.0, 1.0, 1.0, 1.0, 1.0, 1.0, 1.0, 1.0, 1.0, 1.0, 1.0, 1.0, 1.0, 1.0, 1.0, 1.0, 1.0, 1.0, 1.0, 1.0, 1.0, 1.0, 1.0, 1.0, 1.0, 1.0, 1.0, 1.0, 1.0, 1.0, 1.0, 1.0, 1.0, 1.0, 1.0, 1.0, 1.0, 1.0, 1.0, 1.0]

>  <TempFactor>  (825) 
[11.1, 20.91, 12.33, 21.54, 28.02, 10.23, 11.74, 33.15, 31.53, 14.67, 25.91, 17.57, 20.17, 22.48, 24.62, 23.23, 20.48, 10.14, 10.8, 10.98, 11.96, 13.14, 11.93, 10.58, 15.79, 15.3, 17.28, 19.56, 15.73, 11.53, 12.15, 23.48, 27.32, 11.33, 13.47, 17.51, 18.05, 14.14, 15.23, 13.92, 11.83, 10.72, 9.75, 27.35]

>  <accession>  (825) 
3R0F_A

>  <description>  (825) 
Chain A, 3C protein [Enterovirus A71]

>  <evalue>  (825) 
6.09465e-58

>  <pdb_code>  (825) 
3R0F

>  <chain>  (825) 
A

>  <ligands>  (825) 
[{'chain_id': 'A', 'author_residue_number': 501, 'author_insertion_code': '', 'chem_comp_id': 'AG7', 'alternate_conformers': 0, 'entity_id': 2, 'struct_asym_id': 'C', 'residue_number': 1, 'chem_comp_name': '4-{2-(4-FLUORO-BENZYL)-6-METHYL-5-[(5-METHYL-ISOXAZOLE-3-CARBONYL)-AMINO]-4-OXO-HEPTANOYLAMINO}-5-(2-OXO-PYRROLIDIN-3-YL)-PENTANOIC ACID ETHYL ESTER', 'weight': 600.678, 'carbohydrate_polymer': False, 'branch_name': ''}, {'chain_id': 'B', 'author_residue_number': 501, 'author_insertion_code': '', 'chem_comp_id': 'AG7', 'alternate_conformers': 0, 'entity_id': 2, 'struct_asym_id': 'F', 'residue_number': 1, 'chem_comp_name': '4-{2-(4-FLUORO-BENZYL)-6-METHYL-5-[(5-METHYL-ISOXAZOLE-3-CARBONYL)-AMINO]-4-OXO-HEPTANOYLAMINO}-5-(2-OXO-PYRROLIDIN-3-YL)-PENTANOIC ACID ETHYL ESTER', 'weight': 600.678, 'carbohydrate_polymer': False, 'branch_name': ''}, {'chain_id': 'A', 'author_residue_number': 184, 'author_insertion_code': '', 'chem_comp_id': 'EDO', 'alternate_conformers': 0, 'entity_id': 3, 'struct_asym_id': 'D', 'residue_number': 1, 'chem_comp_name': '1,2-ETHANEDIOL', 'weight': 62.068, 'carbohydrate_polymer': False, 'branch_name': ''}, {'chain_id': 'A', 'author_residue_number': 185, 'author_insertion_code': '', 'chem_comp_id': 'EDO', 'alternate_conformers': 0, 'entity_id': 3, 'struct_asym_id': 'E', 'residue_number': 1, 'chem_comp_name': '1,2-ETHANEDIOL', 'weight': 62.068, 'carbohydrate_polymer': False, 'branch_name': ''}, {'chain_id': 'B', 'author_residue_number': 184, 'author_insertion_code': '', 'chem_comp_id': 'EDO', 'alternate_conformers': 0, 'entity_id': 3, 'struct_asym_id': 'G', 'residue_number': 1, 'chem_comp_name': '1,2-ETHANEDIOL', 'weight': 62.068, 'carbohydrate_polymer': False, 'branch_name': ''}, {'chain_id': 'B', 'author_residue_number': 185, 'author_insertion_code': '', 'chem_comp_id': 'EDO', 'alternate_conformers': 0, 'entity_id': 3, 'struct_asym_id': 'H', 'residue_number': 1, 'chem_comp_name': '1,2-ETHANEDIOL', 'weight': 62.068, 'carbohydrate_polymer': False, 'branch_name': ''}]

>  <ligand_codes>  (825) 
['AG7', 'AG7', 'EDO', 'EDO', 'EDO', 'EDO']

>  <cofactor_codes>  (825) 
[]

>  <has_cofactor>  (825) 
False

>  <covalent>  (825) 
True

>  <base_name>  (825) 
3R0F

>  <lig_resn>  (825) 
AG7

>  <lig_resi>  (825) 
501

>  <lig_chain>  (825) 
A

>  <lig_segi>  (825) 
C

>  <lig_alt>  (825) 


>  <polymer_chain>  (825) 
A

>  <single_smiles>  (825) 
CCOC(=O)CC[C@H](C[C@@H]1CCNC1=O)NC(=O)[C@@H](CC(=O)[C@@H](NC(=O)c2cc(C)on2)C(C)C)Cc3ccc(F)cc3

$$$$
AG7P21S20
     RDKit          3D

 37 38  0  0  0  0  0  0  0  0999 V2000
   -9.1080   12.8250  -36.5400 C   0  0  0  0  0  0  0  0  0  0  0  0
   -9.0190   13.1280  -35.0570 C   0  0  2  0  0  0  0  0  0  0  0  0
   -8.6730   14.5850  -34.7520 C   0  0  0  0  0  0  0  0  0  0  0  0
   -7.9420   12.2650  -34.4580 C   0  0  0  0  0  0  0  0  0  0  0  0
   -8.6380   14.8860  -33.2600 C   0  0  0  0  0  0  0  0  0  0  0  0
   -8.3980   11.0090  -33.8670 N   0  0  0  0  0  0  0  0  0  0  0  0
   -6.7840   12.4330  -34.6620 O   0  0  0  0  0  0  0  0  0  0  0  0
   -8.8080   14.0630  -32.4060 O   0  0  0  0  0  0  0  0  0  0  0  0
   -8.3120   16.3420  -32.8970 C   0  0  1  0  0  0  0  0  0  0  0  0
   -7.4250    9.9840  -33.4820 C   0  0  1  0  0  0  0  0  0  0  0  0
   -8.7060   16.6300  -31.5470 N   0  0  0  0  0  0  0  0  0  0  0  0
   -6.8540   16.7080  -33.1340 C   0  0  0  0  0  0  0  0  0  0  0  0
   -7.3730    9.8180  -31.9860 C   0  0  0  0  0  0  0  0  0  0  0  0
   -7.8000    8.7080  -34.2240 C   0  0  2  0  0  0  0  0  0  0  0  0
   -9.7630   17.5740  -31.2860 C   0  0  0  0  0  0  0  0  0  0  0  0
   -6.6180   18.1230  -32.6450 C   0  0  0  0  0  0  0  0  0  0  0  0
   -5.9260   15.8060  -32.3870 C   0  0  0  0  0  0  0  0  0  0  0  0
   -6.9020   11.0990  -31.2870 C   0  0  1  0  0  0  0  0  0  0  0  0
   -7.6930    8.7200  -35.7320 C   0  0  0  0  0  0  0  0  0  0  0  0
   -9.6610    8.3310  -33.8000 R   0  0  0  0  0  0  0  0  0  0  0  0
  -10.1380   17.8080  -29.8610 C   0  0  0  0  0  0  0  0  0  0  0  0
  -10.1690   18.3250  -32.1460 O   0  0  0  0  0  0  0  0  0  0  0  0
   -6.8840   10.9300  -29.8210 C   0  0  0  0  0  0  0  0  0  0  0  0
   -5.5070   11.5250  -31.6520 C   0  0  0  0  0  0  0  0  0  0  0  0
   -6.2700    8.9490  -36.1640 C   0  0  0  0  0  0  0  0  0  0  0  0
  -11.1190   18.7800  -29.4370 C   0  0  0  0  0  0  0  0  0  0  0  0
   -9.8870   17.0260  -28.8310 N   0  0  0  0  0  0  0  0  0  0  0  0
   -5.7340   11.6000  -29.3140 N   0  0  0  0  0  0  0  0  0  0  0  0
   -7.5830   10.2190  -29.1600 O   0  0  0  0  0  0  0  0  0  0  0  0
   -5.0970   12.3000  -30.4180 C   0  0  0  0  0  0  0  0  0  0  0  0
   -6.0890    9.7380  -37.1470 O   0  0  0  0  0  0  0  0  0  0  0  0
   -5.3370    8.3840  -35.5820 O   0  0  0  0  0  0  0  0  0  0  0  0
  -11.2290   18.6960  -28.1430 C   0  0  0  0  0  0  0  0  0  0  0  0
  -10.5080   17.5930  -27.7590 O   0  0  0  0  0  0  0  0  0  0  0  0
   -4.7970   10.0720  -37.5320 C   0  0  0  0  0  0  0  0  0  0  0  0
  -12.1640   19.5270  -27.3100 C   0  0  0  0  0  0  0  0  0  0  0  0
   -4.8460   11.4130  -38.2360 C   0  0  0  0  0  0  0  0  0  0  0  0
  2  1  1  6
  2  3  1  0
  2  4  1  0
  5  3  1  0
  6  4  1  0
  4  7  2  0
  5  8  2  0
  5  9  1  0
  6 10  1  0
  9 11  1  1
  9 12  1  0
 10 13  1  1
 10 14  1  0
 11 15  1  0
 12 16  1  0
 12 17  1  0
 18 13  1  6
 14 19  1  0
 14 20  1  6
 21 15  1  0
 15 22  2  0
 18 23  1  0
 18 24  1  0
 19 25  1  0
 21 26  1  0
 21 27  2  0
 23 28  1  0
 23 29  2  0
 30 24  1  0
 25 31  1  0
 25 32  2  0
 26 33  2  0
 34 27  1  0
 28 30  1  0
 31 35  1  0
 33 36  1  0
 33 34  1  0
 35 37  1  0
V   20 *
A    2
 C04
A    3
 C02
A    4
 C47
A    5
 C01
A    6
 N12
A    7
 O48
A    8
 O03
A    9
 C57
A   10
 C13
A   11
 N58
A   12
 C78
A   13
 C14
A   14
 C19
A   15
 C59
A   16
 C81
A   17
 C82
A   18
 C15
A   19
 C20
A   20
 X  
A   21
 C1 
A   22
 O60
A   23
 C16
A   24
 C84
A   25
 C21
A   26
 C2 
A   27
 N5 
A   28
 N17
A   29
 O18
A   30
 C83
A   31
 O22
A   32
 O23
A   33
 C3 
A   34
 O4 
A   35
 C50
A   36
 C4 
A   37
 C53
M  END
>  <XChem_code>  (826) 
AG7§21

>  <Occupancy>  (826) 
[1.0, 1.0, 1.0, 1.0, 1.0, 1.0, 1.0, 1.0, 1.0, 1.0, 1.0, 1.0, 1.0, 1.0, 1.0, 1.0, 1.0, 1.0, 1.0, 1.0, 1.0, 1.0, 1.0, 1.0, 1.0, 1.0, 1.0, 1.0, 1.0, 1.0, 1.0, 1.0, 1.0, 1.0, 1.0, 1.0, 1.0, 1.0, 1.0, 1.0, 1.0, 1.0, 1.0, 1.0]

>  <TempFactor>  (826) 
[11.1, 20.91, 12.33, 21.54, 28.02, 10.23, 11.74, 33.15, 31.53, 14.67, 25.91, 17.57, 20.17, 22.48, 24.62, 23.23, 20.48, 10.14, 10.8, 10.98, 11.96, 13.14, 11.93, 10.58, 15.79, 15.3, 17.28, 19.56, 15.73, 11.53, 12.15, 23.48, 27.32, 11.33, 13.47, 17.51, 18.05, 14.14, 15.23, 13.92, 11.83, 10.72, 9.75, 27.35]

>  <accession>  (826) 
3R0F_A

>  <description>  (826) 
Chain A, 3C protein [Enterovirus A71]

>  <evalue>  (826) 
6.09465e-58

>  <pdb_code>  (826) 
3R0F

>  <chain>  (826) 
A

>  <ligands>  (826) 
[{'chain_id': 'A', 'author_residue_number': 501, 'author_insertion_code': '', 'chem_comp_id': 'AG7', 'alternate_conformers': 0, 'entity_id': 2, 'struct_asym_id': 'C', 'residue_number': 1, 'chem_comp_name': '4-{2-(4-FLUORO-BENZYL)-6-METHYL-5-[(5-METHYL-ISOXAZOLE-3-CARBONYL)-AMINO]-4-OXO-HEPTANOYLAMINO}-5-(2-OXO-PYRROLIDIN-3-YL)-PENTANOIC ACID ETHYL ESTER', 'weight': 600.678, 'carbohydrate_polymer': False, 'branch_name': ''}, {'chain_id': 'B', 'author_residue_number': 501, 'author_insertion_code': '', 'chem_comp_id': 'AG7', 'alternate_conformers': 0, 'entity_id': 2, 'struct_asym_id': 'F', 'residue_number': 1, 'chem_comp_name': '4-{2-(4-FLUORO-BENZYL)-6-METHYL-5-[(5-METHYL-ISOXAZOLE-3-CARBONYL)-AMINO]-4-OXO-HEPTANOYLAMINO}-5-(2-OXO-PYRROLIDIN-3-YL)-PENTANOIC ACID ETHYL ESTER', 'weight': 600.678, 'carbohydrate_polymer': False, 'branch_name': ''}, {'chain_id': 'A', 'author_residue_number': 184, 'author_insertion_code': '', 'chem_comp_id': 'EDO', 'alternate_conformers': 0, 'entity_id': 3, 'struct_asym_id': 'D', 'residue_number': 1, 'chem_comp_name': '1,2-ETHANEDIOL', 'weight': 62.068, 'carbohydrate_polymer': False, 'branch_name': ''}, {'chain_id': 'A', 'author_residue_number': 185, 'author_insertion_code': '', 'chem_comp_id': 'EDO', 'alternate_conformers': 0, 'entity_id': 3, 'struct_asym_id': 'E', 'residue_number': 1, 'chem_comp_name': '1,2-ETHANEDIOL', 'weight': 62.068, 'carbohydrate_polymer': False, 'branch_name': ''}, {'chain_id': 'B', 'author_residue_number': 184, 'author_insertion_code': '', 'chem_comp_id': 'EDO', 'alternate_conformers': 0, 'entity_id': 3, 'struct_asym_id': 'G', 'residue_number': 1, 'chem_comp_name': '1,2-ETHANEDIOL', 'weight': 62.068, 'carbohydrate_polymer': False, 'branch_name': ''}, {'chain_id': 'B', 'author_residue_number': 185, 'author_insertion_code': '', 'chem_comp_id': 'EDO', 'alternate_conformers': 0, 'entity_id': 3, 'struct_asym_id': 'H', 'residue_number': 1, 'chem_comp_name': '1,2-ETHANEDIOL', 'weight': 62.068, 'carbohydrate_polymer': False, 'branch_name': ''}]

>  <ligand_codes>  (826) 
['AG7', 'AG7', 'EDO', 'EDO', 'EDO', 'EDO']

>  <cofactor_codes>  (826) 
[]

>  <has_cofactor>  (826) 
False

>  <covalent>  (826) 
True

>  <base_name>  (826) 
3R0F

>  <lig_resn>  (826) 
AG7

>  <lig_resi>  (826) 
501

>  <lig_chain>  (826) 
A

>  <lig_segi>  (826) 
C

>  <lig_alt>  (826) 


>  <polymer_chain>  (826) 
A

>  <single_smiles>  (826) 
CCOC(=O)CC[C@H](C[C@@H]1CCNC1=O)NC(=O)[C@@H](CC(=O)[C@@H](NC(=O)c2cc(C)on2)C(C)C)Cc3ccc(F)cc3

$$$$
AG7P21S21
     RDKit          3D

 11 10  0  0  0  0  0  0  0  0999 V2000
   -7.3730    9.8180  -31.9860 C   0  0  0  0  0  0  0  0  0  0  0  0
   -7.4250    9.9840  -33.4820 C   0  0  2  0  0  0  0  0  0  0  0  0
   -8.3980   11.0090  -33.8670 N   0  0  0  0  0  0  0  0  0  0  0  0
   -7.8000    8.7080  -34.2240 C   0  0  2  0  0  0  0  0  0  0  0  0
   -7.6930    8.7200  -35.7320 C   0  0  0  0  0  0  0  0  0  0  0  0
   -9.6610    8.3310  -33.8000 R   0  0  0  0  0  0  0  0  0  0  0  0
   -6.2700    8.9490  -36.1640 C   0  0  0  0  0  0  0  0  0  0  0  0
   -6.0890    9.7380  -37.1470 O   0  0  0  0  0  0  0  0  0  0  0  0
   -5.3370    8.3840  -35.5820 O   0  0  0  0  0  0  0  0  0  0  0  0
   -4.7970   10.0720  -37.5320 C   0  0  0  0  0  0  0  0  0  0  0  0
   -4.8460   11.4130  -38.2360 C   0  0  0  0  0  0  0  0  0  0  0  0
  2  1  1  1
  3  2  1  0
  2  4  1  0
  4  5  1  0
  4  6  1  6
  5  7  1  0
  7  8  1  0
  7  9  2  0
  8 10  1  0
 10 11  1  0
V    6 *
A    2
 C13
A    4
 C19
A    5
 C20
A    6
 X  
A    7
 C21
A    8
 O22
A    9
 O23
A   10
 C50
A   11
 C53
M  END
>  <XChem_code>  (827) 
AG7§21

>  <Occupancy>  (827) 
[1.0, 1.0, 1.0, 1.0, 1.0, 1.0, 1.0, 1.0, 1.0, 1.0, 1.0, 1.0, 1.0, 1.0, 1.0, 1.0, 1.0, 1.0, 1.0, 1.0, 1.0, 1.0, 1.0, 1.0, 1.0, 1.0, 1.0, 1.0, 1.0, 1.0, 1.0, 1.0, 1.0, 1.0, 1.0, 1.0, 1.0, 1.0, 1.0, 1.0, 1.0, 1.0, 1.0, 1.0]

>  <TempFactor>  (827) 
[11.1, 20.91, 12.33, 21.54, 28.02, 10.23, 11.74, 33.15, 31.53, 14.67, 25.91, 17.57, 20.17, 22.48, 24.62, 23.23, 20.48, 10.14, 10.8, 10.98, 11.96, 13.14, 11.93, 10.58, 15.79, 15.3, 17.28, 19.56, 15.73, 11.53, 12.15, 23.48, 27.32, 11.33, 13.47, 17.51, 18.05, 14.14, 15.23, 13.92, 11.83, 10.72, 9.75, 27.35]

>  <accession>  (827) 
3R0F_A

>  <description>  (827) 
Chain A, 3C protein [Enterovirus A71]

>  <evalue>  (827) 
6.09465e-58

>  <pdb_code>  (827) 
3R0F

>  <chain>  (827) 
A

>  <ligands>  (827) 
[{'chain_id': 'A', 'author_residue_number': 501, 'author_insertion_code': '', 'chem_comp_id': 'AG7', 'alternate_conformers': 0, 'entity_id': 2, 'struct_asym_id': 'C', 'residue_number': 1, 'chem_comp_name': '4-{2-(4-FLUORO-BENZYL)-6-METHYL-5-[(5-METHYL-ISOXAZOLE-3-CARBONYL)-AMINO]-4-OXO-HEPTANOYLAMINO}-5-(2-OXO-PYRROLIDIN-3-YL)-PENTANOIC ACID ETHYL ESTER', 'weight': 600.678, 'carbohydrate_polymer': False, 'branch_name': ''}, {'chain_id': 'B', 'author_residue_number': 501, 'author_insertion_code': '', 'chem_comp_id': 'AG7', 'alternate_conformers': 0, 'entity_id': 2, 'struct_asym_id': 'F', 'residue_number': 1, 'chem_comp_name': '4-{2-(4-FLUORO-BENZYL)-6-METHYL-5-[(5-METHYL-ISOXAZOLE-3-CARBONYL)-AMINO]-4-OXO-HEPTANOYLAMINO}-5-(2-OXO-PYRROLIDIN-3-YL)-PENTANOIC ACID ETHYL ESTER', 'weight': 600.678, 'carbohydrate_polymer': False, 'branch_name': ''}, {'chain_id': 'A', 'author_residue_number': 184, 'author_insertion_code': '', 'chem_comp_id': 'EDO', 'alternate_conformers': 0, 'entity_id': 3, 'struct_asym_id': 'D', 'residue_number': 1, 'chem_comp_name': '1,2-ETHANEDIOL', 'weight': 62.068, 'carbohydrate_polymer': False, 'branch_name': ''}, {'chain_id': 'A', 'author_residue_number': 185, 'author_insertion_code': '', 'chem_comp_id': 'EDO', 'alternate_conformers': 0, 'entity_id': 3, 'struct_asym_id': 'E', 'residue_number': 1, 'chem_comp_name': '1,2-ETHANEDIOL', 'weight': 62.068, 'carbohydrate_polymer': False, 'branch_name': ''}, {'chain_id': 'B', 'author_residue_number': 184, 'author_insertion_code': '', 'chem_comp_id': 'EDO', 'alternate_conformers': 0, 'entity_id': 3, 'struct_asym_id': 'G', 'residue_number': 1, 'chem_comp_name': '1,2-ETHANEDIOL', 'weight': 62.068, 'carbohydrate_polymer': False, 'branch_name': ''}, {'chain_id': 'B', 'author_residue_number': 185, 'author_insertion_code': '', 'chem_comp_id': 'EDO', 'alternate_conformers': 0, 'entity_id': 3, 'struct_asym_id': 'H', 'residue_number': 1, 'chem_comp_name': '1,2-ETHANEDIOL', 'weight': 62.068, 'carbohydrate_polymer': False, 'branch_name': ''}]

>  <ligand_codes>  (827) 
['AG7', 'AG7', 'EDO', 'EDO', 'EDO', 'EDO']

>  <cofactor_codes>  (827) 
[]

>  <has_cofactor>  (827) 
False

>  <covalent>  (827) 
True

>  <base_name>  (827) 
3R0F

>  <lig_resn>  (827) 
AG7

>  <lig_resi>  (827) 
501

>  <lig_chain>  (827) 
A

>  <lig_segi>  (827) 
C

>  <lig_alt>  (827) 


>  <polymer_chain>  (827) 
A

>  <single_smiles>  (827) 
CCOC(=O)CC[C@H](C[C@@H]1CCNC1=O)NC(=O)[C@@H](CC(=O)[C@@H](NC(=O)c2cc(C)on2)C(C)C)Cc3ccc(F)cc3

$$$$
AG7P21S22
     RDKit          3D

 20 20  0  0  0  0  0  0  0  0999 V2000
   -9.1080   12.8250  -36.5400 C   0  0  0  0  0  0  0  0  0  0  0  0
   -9.0190   13.1280  -35.0570 C   0  0  1  0  0  0  0  0  0  0  0  0
   -7.9420   12.2650  -34.4580 C   0  0  0  0  0  0  0  0  0  0  0  0
   -8.6730   14.5850  -34.7520 C   0  0  0  0  0  0  0  0  0  0  0  0
   -6.7840   12.4330  -34.6620 O   0  0  0  0  0  0  0  0  0  0  0  0
   -8.6380   14.8860  -33.2600 C   0  0  0  0  0  0  0  0  0  0  0  0
   -8.8080   14.0630  -32.4060 O   0  0  0  0  0  0  0  0  0  0  0  0
   -8.3120   16.3420  -32.8970 C   0  0  1  0  0  0  0  0  0  0  0  0
   -8.7060   16.6300  -31.5470 N   0  0  0  0  0  0  0  0  0  0  0  0
   -6.8540   16.7080  -33.1340 C   0  0  0  0  0  0  0  0  0  0  0  0
   -9.7630   17.5740  -31.2860 C   0  0  0  0  0  0  0  0  0  0  0  0
   -6.6180   18.1230  -32.6450 C   0  0  0  0  0  0  0  0  0  0  0  0
   -5.9260   15.8060  -32.3870 C   0  0  0  0  0  0  0  0  0  0  0  0
  -10.1380   17.8080  -29.8610 C   0  0  0  0  0  0  0  0  0  0  0  0
  -10.1690   18.3250  -32.1460 O   0  0  0  0  0  0  0  0  0  0  0  0
  -11.1190   18.7800  -29.4370 C   0  0  0  0  0  0  0  0  0  0  0  0
   -9.8870   17.0260  -28.8310 N   0  0  0  0  0  0  0  0  0  0  0  0
  -11.2290   18.6960  -28.1430 C   0  0  0  0  0  0  0  0  0  0  0  0
  -10.5080   17.5930  -27.7590 O   0  0  0  0  0  0  0  0  0  0  0  0
  -12.1640   19.5270  -27.3100 C   0  0  0  0  0  0  0  0  0  0  0  0
  2  1  1  6
  2  3  1  0
  2  4  1  0
  3  5  2  0
  6  4  1  0
  6  7  2  0
  6  8  1  0
  8  9  1  1
  8 10  1  0
  9 11  1  0
 10 12  1  0
 10 13  1  0
 14 11  1  0
 11 15  2  0
 14 16  1  0
 14 17  2  0
 16 18  2  0
 19 17  1  0
 18 20  1  0
 18 19  1  0
A    2
 C04
A    4
 C02
A    5
 O48
A    6
 C01
A    7
 O03
A    8
 C57
A    9
 N58
A   10
 C78
A   11
 C59
A   12
 C81
A   13
 C82
A   14
 C1 
A   15
 O60
A   16
 C2 
A   17
 N5 
A   18
 C3 
A   19
 O4 
A   20
 C4 
M  END
>  <XChem_code>  (828) 
AG7§21

>  <Occupancy>  (828) 
[1.0, 1.0, 1.0, 1.0, 1.0, 1.0, 1.0, 1.0, 1.0, 1.0, 1.0, 1.0, 1.0, 1.0, 1.0, 1.0, 1.0, 1.0, 1.0, 1.0, 1.0, 1.0, 1.0, 1.0, 1.0, 1.0, 1.0, 1.0, 1.0, 1.0, 1.0, 1.0, 1.0, 1.0, 1.0, 1.0, 1.0, 1.0, 1.0, 1.0, 1.0, 1.0, 1.0, 1.0]

>  <TempFactor>  (828) 
[11.1, 20.91, 12.33, 21.54, 28.02, 10.23, 11.74, 33.15, 31.53, 14.67, 25.91, 17.57, 20.17, 22.48, 24.62, 23.23, 20.48, 10.14, 10.8, 10.98, 11.96, 13.14, 11.93, 10.58, 15.79, 15.3, 17.28, 19.56, 15.73, 11.53, 12.15, 23.48, 27.32, 11.33, 13.47, 17.51, 18.05, 14.14, 15.23, 13.92, 11.83, 10.72, 9.75, 27.35]

>  <accession>  (828) 
3R0F_A

>  <description>  (828) 
Chain A, 3C protein [Enterovirus A71]

>  <evalue>  (828) 
6.09465e-58

>  <pdb_code>  (828) 
3R0F

>  <chain>  (828) 
A

>  <ligands>  (828) 
[{'chain_id': 'A', 'author_residue_number': 501, 'author_insertion_code': '', 'chem_comp_id': 'AG7', 'alternate_conformers': 0, 'entity_id': 2, 'struct_asym_id': 'C', 'residue_number': 1, 'chem_comp_name': '4-{2-(4-FLUORO-BENZYL)-6-METHYL-5-[(5-METHYL-ISOXAZOLE-3-CARBONYL)-AMINO]-4-OXO-HEPTANOYLAMINO}-5-(2-OXO-PYRROLIDIN-3-YL)-PENTANOIC ACID ETHYL ESTER', 'weight': 600.678, 'carbohydrate_polymer': False, 'branch_name': ''}, {'chain_id': 'B', 'author_residue_number': 501, 'author_insertion_code': '', 'chem_comp_id': 'AG7', 'alternate_conformers': 0, 'entity_id': 2, 'struct_asym_id': 'F', 'residue_number': 1, 'chem_comp_name': '4-{2-(4-FLUORO-BENZYL)-6-METHYL-5-[(5-METHYL-ISOXAZOLE-3-CARBONYL)-AMINO]-4-OXO-HEPTANOYLAMINO}-5-(2-OXO-PYRROLIDIN-3-YL)-PENTANOIC ACID ETHYL ESTER', 'weight': 600.678, 'carbohydrate_polymer': False, 'branch_name': ''}, {'chain_id': 'A', 'author_residue_number': 184, 'author_insertion_code': '', 'chem_comp_id': 'EDO', 'alternate_conformers': 0, 'entity_id': 3, 'struct_asym_id': 'D', 'residue_number': 1, 'chem_comp_name': '1,2-ETHANEDIOL', 'weight': 62.068, 'carbohydrate_polymer': False, 'branch_name': ''}, {'chain_id': 'A', 'author_residue_number': 185, 'author_insertion_code': '', 'chem_comp_id': 'EDO', 'alternate_conformers': 0, 'entity_id': 3, 'struct_asym_id': 'E', 'residue_number': 1, 'chem_comp_name': '1,2-ETHANEDIOL', 'weight': 62.068, 'carbohydrate_polymer': False, 'branch_name': ''}, {'chain_id': 'B', 'author_residue_number': 184, 'author_insertion_code': '', 'chem_comp_id': 'EDO', 'alternate_conformers': 0, 'entity_id': 3, 'struct_asym_id': 'G', 'residue_number': 1, 'chem_comp_name': '1,2-ETHANEDIOL', 'weight': 62.068, 'carbohydrate_polymer': False, 'branch_name': ''}, {'chain_id': 'B', 'author_residue_number': 185, 'author_insertion_code': '', 'chem_comp_id': 'EDO', 'alternate_conformers': 0, 'entity_id': 3, 'struct_asym_id': 'H', 'residue_number': 1, 'chem_comp_name': '1,2-ETHANEDIOL', 'weight': 62.068, 'carbohydrate_polymer': False, 'branch_name': ''}]

>  <ligand_codes>  (828) 
['AG7', 'AG7', 'EDO', 'EDO', 'EDO', 'EDO']

>  <cofactor_codes>  (828) 
[]

>  <has_cofactor>  (828) 
False

>  <covalent>  (828) 
True

>  <base_name>  (828) 
3R0F

>  <lig_resn>  (828) 
AG7

>  <lig_resi>  (828) 
501

>  <lig_chain>  (828) 
A

>  <lig_segi>  (828) 
C

>  <lig_alt>  (828) 


>  <polymer_chain>  (828) 
A

>  <single_smiles>  (828) 
CCOC(=O)CC[C@H](C[C@@H]1CCNC1=O)NC(=O)[C@@H](CC(=O)[C@@H](NC(=O)c2cc(C)on2)C(C)C)Cc3ccc(F)cc3

$$$$
AG7P21S23
     RDKit          3D

 30 30  0  0  0  0  0  0  0  0999 V2000
   -7.3730    9.8180  -31.9860 C   0  0  0  0  0  0  0  0  0  0  0  0
   -7.4250    9.9840  -33.4820 C   0  0  2  0  0  0  0  0  0  0  0  0
   -8.3980   11.0090  -33.8670 N   0  0  0  0  0  0  0  0  0  0  0  0
   -7.8000    8.7080  -34.2240 C   0  0  2  0  0  0  0  0  0  0  0  0
   -7.9420   12.2650  -34.4580 C   0  0  0  0  0  0  0  0  0  0  0  0
   -7.6930    8.7200  -35.7320 C   0  0  0  0  0  0  0  0  0  0  0  0
   -9.6610    8.3310  -33.8000 R   0  0  0  0  0  0  0  0  0  0  0  0
   -9.0190   13.1280  -35.0570 C   0  0  1  0  0  0  0  0  0  0  0  0
   -6.7840   12.4330  -34.6620 O   0  0  0  0  0  0  0  0  0  0  0  0
   -6.2700    8.9490  -36.1640 C   0  0  0  0  0  0  0  0  0  0  0  0
   -8.6730   14.5850  -34.7520 C   0  0  0  0  0  0  0  0  0  0  0  0
   -9.1080   12.8250  -36.5400 C   0  0  0  0  0  0  0  0  0  0  0  0
   -6.0890    9.7380  -37.1470 O   0  0  0  0  0  0  0  0  0  0  0  0
   -5.3370    8.3840  -35.5820 O   0  0  0  0  0  0  0  0  0  0  0  0
   -8.6380   14.8860  -33.2600 C   0  0  0  0  0  0  0  0  0  0  0  0
  -10.1500   13.6920  -37.2180 C   0  0  0  0  0  0  0  0  0  0  0  0
   -4.7970   10.0720  -37.5320 C   0  0  0  0  0  0  0  0  0  0  0  0
   -8.3120   16.3420  -32.8970 C   0  0  1  0  0  0  0  0  0  0  0  0
   -8.8080   14.0630  -32.4060 O   0  0  0  0  0  0  0  0  0  0  0  0
  -11.4610   13.5630  -36.9490 C   0  0  0  0  0  0  0  0  0  0  0  0
   -9.6910   14.5990  -38.2790 C   0  0  0  0  0  0  0  0  0  0  0  0
   -4.8460   11.4130  -38.2360 C   0  0  0  0  0  0  0  0  0  0  0  0
   -8.7060   16.6300  -31.5470 N   0  0  0  0  0  0  0  0  0  0  0  0
   -6.8540   16.7080  -33.1340 C   0  0  0  0  0  0  0  0  0  0  0  0
  -12.4610   14.3840  -37.6880 C   0  0  0  0  0  0  0  0  0  0  0  0
  -10.6060   15.3460  -38.9640 C   0  0  0  0  0  0  0  0  0  0  0  0
   -6.6180   18.1230  -32.6450 C   0  0  0  0  0  0  0  0  0  0  0  0
   -5.9260   15.8060  -32.3870 C   0  0  0  0  0  0  0  0  0  0  0  0
  -12.0490   15.2290  -38.6420 C   0  0  0  0  0  0  0  0  0  0  0  0
  -12.9270   15.9490  -39.3140 F   0  0  0  0  0  0  0  0  0  0  0  0
  2  1  1  1
  3  2  1  0
  2  4  1  0
  3  5  1  0
  4  6  1  0
  4  7  1  6
  8  5  1  0
  5  9  2  0
  6 10  1  0
  8 11  1  6
  8 12  1  0
 10 13  1  0
 10 14  2  0
 15 11  1  0
 12 16  1  0
 13 17  1  0
 15 18  1  0
 15 19  2  0
 16 20  2  0
 16 21  1  0
 17 22  1  0
 18 23  1  1
 18 24  1  0
 20 25  1  0
 26 21  2  0
 24 27  1  0
 24 28  1  0
 25 29  2  0
 29 26  1  0
 29 30  1  0
V    7 *
A    2
 C13
A    3
 N12
A    4
 C19
A    5
 C47
A    6
 C20
A    7
 X  
A    8
 C04
A    9
 O48
A   10
 C21
A   11
 C02
A   12
 C05
A   13
 O22
A   14
 O23
A   15
 C01
A   16
 C06
A   17
 C50
A   18
 C57
A   19
 O03
A   20
 C07
A   21
 C11
A   22
 C53
A   24
 C78
A   25
 C08
A   26
 C10
A   27
 C81
A   28
 C82
A   29
 C09
A   30
 F1 
M  END
>  <XChem_code>  (829) 
AG7§21

>  <Occupancy>  (829) 
[1.0, 1.0, 1.0, 1.0, 1.0, 1.0, 1.0, 1.0, 1.0, 1.0, 1.0, 1.0, 1.0, 1.0, 1.0, 1.0, 1.0, 1.0, 1.0, 1.0, 1.0, 1.0, 1.0, 1.0, 1.0, 1.0, 1.0, 1.0, 1.0, 1.0, 1.0, 1.0, 1.0, 1.0, 1.0, 1.0, 1.0, 1.0, 1.0, 1.0, 1.0, 1.0, 1.0, 1.0]

>  <TempFactor>  (829) 
[11.1, 20.91, 12.33, 21.54, 28.02, 10.23, 11.74, 33.15, 31.53, 14.67, 25.91, 17.57, 20.17, 22.48, 24.62, 23.23, 20.48, 10.14, 10.8, 10.98, 11.96, 13.14, 11.93, 10.58, 15.79, 15.3, 17.28, 19.56, 15.73, 11.53, 12.15, 23.48, 27.32, 11.33, 13.47, 17.51, 18.05, 14.14, 15.23, 13.92, 11.83, 10.72, 9.75, 27.35]

>  <accession>  (829) 
3R0F_A

>  <description>  (829) 
Chain A, 3C protein [Enterovirus A71]

>  <evalue>  (829) 
6.09465e-58

>  <pdb_code>  (829) 
3R0F

>  <chain>  (829) 
A

>  <ligands>  (829) 
[{'chain_id': 'A', 'author_residue_number': 501, 'author_insertion_code': '', 'chem_comp_id': 'AG7', 'alternate_conformers': 0, 'entity_id': 2, 'struct_asym_id': 'C', 'residue_number': 1, 'chem_comp_name': '4-{2-(4-FLUORO-BENZYL)-6-METHYL-5-[(5-METHYL-ISOXAZOLE-3-CARBONYL)-AMINO]-4-OXO-HEPTANOYLAMINO}-5-(2-OXO-PYRROLIDIN-3-YL)-PENTANOIC ACID ETHYL ESTER', 'weight': 600.678, 'carbohydrate_polymer': False, 'branch_name': ''}, {'chain_id': 'B', 'author_residue_number': 501, 'author_insertion_code': '', 'chem_comp_id': 'AG7', 'alternate_conformers': 0, 'entity_id': 2, 'struct_asym_id': 'F', 'residue_number': 1, 'chem_comp_name': '4-{2-(4-FLUORO-BENZYL)-6-METHYL-5-[(5-METHYL-ISOXAZOLE-3-CARBONYL)-AMINO]-4-OXO-HEPTANOYLAMINO}-5-(2-OXO-PYRROLIDIN-3-YL)-PENTANOIC ACID ETHYL ESTER', 'weight': 600.678, 'carbohydrate_polymer': False, 'branch_name': ''}, {'chain_id': 'A', 'author_residue_number': 184, 'author_insertion_code': '', 'chem_comp_id': 'EDO', 'alternate_conformers': 0, 'entity_id': 3, 'struct_asym_id': 'D', 'residue_number': 1, 'chem_comp_name': '1,2-ETHANEDIOL', 'weight': 62.068, 'carbohydrate_polymer': False, 'branch_name': ''}, {'chain_id': 'A', 'author_residue_number': 185, 'author_insertion_code': '', 'chem_comp_id': 'EDO', 'alternate_conformers': 0, 'entity_id': 3, 'struct_asym_id': 'E', 'residue_number': 1, 'chem_comp_name': '1,2-ETHANEDIOL', 'weight': 62.068, 'carbohydrate_polymer': False, 'branch_name': ''}, {'chain_id': 'B', 'author_residue_number': 184, 'author_insertion_code': '', 'chem_comp_id': 'EDO', 'alternate_conformers': 0, 'entity_id': 3, 'struct_asym_id': 'G', 'residue_number': 1, 'chem_comp_name': '1,2-ETHANEDIOL', 'weight': 62.068, 'carbohydrate_polymer': False, 'branch_name': ''}, {'chain_id': 'B', 'author_residue_number': 185, 'author_insertion_code': '', 'chem_comp_id': 'EDO', 'alternate_conformers': 0, 'entity_id': 3, 'struct_asym_id': 'H', 'residue_number': 1, 'chem_comp_name': '1,2-ETHANEDIOL', 'weight': 62.068, 'carbohydrate_polymer': False, 'branch_name': ''}]

>  <ligand_codes>  (829) 
['AG7', 'AG7', 'EDO', 'EDO', 'EDO', 'EDO']

>  <cofactor_codes>  (829) 
[]

>  <has_cofactor>  (829) 
False

>  <covalent>  (829) 
True

>  <base_name>  (829) 
3R0F

>  <lig_resn>  (829) 
AG7

>  <lig_resi>  (829) 
501

>  <lig_chain>  (829) 
A

>  <lig_segi>  (829) 
C

>  <lig_alt>  (829) 


>  <polymer_chain>  (829) 
A

>  <single_smiles>  (829) 
CCOC(=O)CC[C@H](C[C@@H]1CCNC1=O)NC(=O)[C@@H](CC(=O)[C@@H](NC(=O)c2cc(C)on2)C(C)C)Cc3ccc(F)cc3

$$$$
AG7P21S24
     RDKit          3D

 29 29  0  0  0  0  0  0  0  0999 V2000
   -9.1080   12.8250  -36.5400 C   0  0  0  0  0  0  0  0  0  0  0  0
   -9.0190   13.1280  -35.0570 C   0  0  2  0  0  0  0  0  0  0  0  0
   -8.6730   14.5850  -34.7520 C   0  0  0  0  0  0  0  0  0  0  0  0
   -7.9420   12.2650  -34.4580 C   0  0  0  0  0  0  0  0  0  0  0  0
   -8.6380   14.8860  -33.2600 C   0  0  0  0  0  0  0  0  0  0  0  0
   -8.3980   11.0090  -33.8670 N   0  0  0  0  0  0  0  0  0  0  0  0
   -6.7840   12.4330  -34.6620 O   0  0  0  0  0  0  0  0  0  0  0  0
   -8.3120   16.3420  -32.8970 C   0  0  1  0  0  0  0  0  0  0  0  0
   -8.8080   14.0630  -32.4060 O   0  0  0  0  0  0  0  0  0  0  0  0
   -7.4250    9.9840  -33.4820 C   0  0  1  0  0  0  0  0  0  0  0  0
   -8.7060   16.6300  -31.5470 N   0  0  0  0  0  0  0  0  0  0  0  0
   -6.8540   16.7080  -33.1340 C   0  0  0  0  0  0  0  0  0  0  0  0
   -7.3730    9.8180  -31.9860 C   0  0  0  0  0  0  0  0  0  0  0  0
   -7.8000    8.7080  -34.2240 C   0  0  2  0  0  0  0  0  0  0  0  0
   -6.6180   18.1230  -32.6450 C   0  0  0  0  0  0  0  0  0  0  0  0
   -5.9260   15.8060  -32.3870 C   0  0  0  0  0  0  0  0  0  0  0  0
   -6.9020   11.0990  -31.2870 C   0  0  1  0  0  0  0  0  0  0  0  0
   -7.6930    8.7200  -35.7320 C   0  0  0  0  0  0  0  0  0  0  0  0
   -9.6610    8.3310  -33.8000 R   0  0  0  0  0  0  0  0  0  0  0  0
   -6.8840   10.9300  -29.8210 C   0  0  0  0  0  0  0  0  0  0  0  0
   -5.5070   11.5250  -31.6520 C   0  0  0  0  0  0  0  0  0  0  0  0
   -6.2700    8.9490  -36.1640 C   0  0  0  0  0  0  0  0  0  0  0  0
   -5.7340   11.6000  -29.3140 N   0  0  0  0  0  0  0  0  0  0  0  0
   -7.5830   10.2190  -29.1600 O   0  0  0  0  0  0  0  0  0  0  0  0
   -5.0970   12.3000  -30.4180 C   0  0  0  0  0  0  0  0  0  0  0  0
   -6.0890    9.7380  -37.1470 O   0  0  0  0  0  0  0  0  0  0  0  0
   -5.3370    8.3840  -35.5820 O   0  0  0  0  0  0  0  0  0  0  0  0
   -4.7970   10.0720  -37.5320 C   0  0  0  0  0  0  0  0  0  0  0  0
   -4.8460   11.4130  -38.2360 C   0  0  0  0  0  0  0  0  0  0  0  0
  2  1  1  6
  2  3  1  0
  2  4  1  0
  5  3  1  0
  6  4  1  0
  4  7  2  0
  5  8  1  0
  5  9  2  0
  6 10  1  0
  8 11  1  1
  8 12  1  0
 10 13  1  1
 10 14  1  0
 12 15  1  0
 12 16  1  0
 17 13  1  6
 14 18  1  0
 14 19  1  6
 17 20  1  0
 17 21  1  0
 18 22  1  0
 20 23  1  0
 20 24  2  0
 25 21  1  0
 22 26  1  0
 22 27  2  0
 23 25  1  0
 26 28  1  0
 28 29  1  0
V   19 *
A    2
 C04
A    3
 C02
A    4
 C47
A    5
 C01
A    6
 N12
A    7
 O48
A    8
 C57
A    9
 O03
A   10
 C13
A   12
 C78
A   13
 C14
A   14
 C19
A   15
 C81
A   16
 C82
A   17
 C15
A   18
 C20
A   19
 X  
A   20
 C16
A   21
 C84
A   22
 C21
A   23
 N17
A   24
 O18
A   25
 C83
A   26
 O22
A   27
 O23
A   28
 C50
A   29
 C53
M  END
>  <XChem_code>  (830) 
AG7§21

>  <Occupancy>  (830) 
[1.0, 1.0, 1.0, 1.0, 1.0, 1.0, 1.0, 1.0, 1.0, 1.0, 1.0, 1.0, 1.0, 1.0, 1.0, 1.0, 1.0, 1.0, 1.0, 1.0, 1.0, 1.0, 1.0, 1.0, 1.0, 1.0, 1.0, 1.0, 1.0, 1.0, 1.0, 1.0, 1.0, 1.0, 1.0, 1.0, 1.0, 1.0, 1.0, 1.0, 1.0, 1.0, 1.0, 1.0]

>  <TempFactor>  (830) 
[11.1, 20.91, 12.33, 21.54, 28.02, 10.23, 11.74, 33.15, 31.53, 14.67, 25.91, 17.57, 20.17, 22.48, 24.62, 23.23, 20.48, 10.14, 10.8, 10.98, 11.96, 13.14, 11.93, 10.58, 15.79, 15.3, 17.28, 19.56, 15.73, 11.53, 12.15, 23.48, 27.32, 11.33, 13.47, 17.51, 18.05, 14.14, 15.23, 13.92, 11.83, 10.72, 9.75, 27.35]

>  <accession>  (830) 
3R0F_A

>  <description>  (830) 
Chain A, 3C protein [Enterovirus A71]

>  <evalue>  (830) 
6.09465e-58

>  <pdb_code>  (830) 
3R0F

>  <chain>  (830) 
A

>  <ligands>  (830) 
[{'chain_id': 'A', 'author_residue_number': 501, 'author_insertion_code': '', 'chem_comp_id': 'AG7', 'alternate_conformers': 0, 'entity_id': 2, 'struct_asym_id': 'C', 'residue_number': 1, 'chem_comp_name': '4-{2-(4-FLUORO-BENZYL)-6-METHYL-5-[(5-METHYL-ISOXAZOLE-3-CARBONYL)-AMINO]-4-OXO-HEPTANOYLAMINO}-5-(2-OXO-PYRROLIDIN-3-YL)-PENTANOIC ACID ETHYL ESTER', 'weight': 600.678, 'carbohydrate_polymer': False, 'branch_name': ''}, {'chain_id': 'B', 'author_residue_number': 501, 'author_insertion_code': '', 'chem_comp_id': 'AG7', 'alternate_conformers': 0, 'entity_id': 2, 'struct_asym_id': 'F', 'residue_number': 1, 'chem_comp_name': '4-{2-(4-FLUORO-BENZYL)-6-METHYL-5-[(5-METHYL-ISOXAZOLE-3-CARBONYL)-AMINO]-4-OXO-HEPTANOYLAMINO}-5-(2-OXO-PYRROLIDIN-3-YL)-PENTANOIC ACID ETHYL ESTER', 'weight': 600.678, 'carbohydrate_polymer': False, 'branch_name': ''}, {'chain_id': 'A', 'author_residue_number': 184, 'author_insertion_code': '', 'chem_comp_id': 'EDO', 'alternate_conformers': 0, 'entity_id': 3, 'struct_asym_id': 'D', 'residue_number': 1, 'chem_comp_name': '1,2-ETHANEDIOL', 'weight': 62.068, 'carbohydrate_polymer': False, 'branch_name': ''}, {'chain_id': 'A', 'author_residue_number': 185, 'author_insertion_code': '', 'chem_comp_id': 'EDO', 'alternate_conformers': 0, 'entity_id': 3, 'struct_asym_id': 'E', 'residue_number': 1, 'chem_comp_name': '1,2-ETHANEDIOL', 'weight': 62.068, 'carbohydrate_polymer': False, 'branch_name': ''}, {'chain_id': 'B', 'author_residue_number': 184, 'author_insertion_code': '', 'chem_comp_id': 'EDO', 'alternate_conformers': 0, 'entity_id': 3, 'struct_asym_id': 'G', 'residue_number': 1, 'chem_comp_name': '1,2-ETHANEDIOL', 'weight': 62.068, 'carbohydrate_polymer': False, 'branch_name': ''}, {'chain_id': 'B', 'author_residue_number': 185, 'author_insertion_code': '', 'chem_comp_id': 'EDO', 'alternate_conformers': 0, 'entity_id': 3, 'struct_asym_id': 'H', 'residue_number': 1, 'chem_comp_name': '1,2-ETHANEDIOL', 'weight': 62.068, 'carbohydrate_polymer': False, 'branch_name': ''}]

>  <ligand_codes>  (830) 
['AG7', 'AG7', 'EDO', 'EDO', 'EDO', 'EDO']

>  <cofactor_codes>  (830) 
[]

>  <has_cofactor>  (830) 
False

>  <covalent>  (830) 
True

>  <base_name>  (830) 
3R0F

>  <lig_resn>  (830) 
AG7

>  <lig_resi>  (830) 
501

>  <lig_chain>  (830) 
A

>  <lig_segi>  (830) 
C

>  <lig_alt>  (830) 


>  <polymer_chain>  (830) 
A

>  <single_smiles>  (830) 
CCOC(=O)CC[C@H](C[C@@H]1CCNC1=O)NC(=O)[C@@H](CC(=O)[C@@H](NC(=O)c2cc(C)on2)C(C)C)Cc3ccc(F)cc3

$$$$
AG7P21S25
     RDKit          3D

 12 11  0  0  0  0  0  0  0  0999 V2000
   -9.1080   12.8250  -36.5400 C   0  0  0  0  0  0  0  0  0  0  0  0
   -9.0190   13.1280  -35.0570 C   0  0  2  0  0  0  0  0  0  0  0  0
   -8.6730   14.5850  -34.7520 C   0  0  0  0  0  0  0  0  0  0  0  0
   -7.9420   12.2650  -34.4580 C   0  0  0  0  0  0  0  0  0  0  0  0
   -8.6380   14.8860  -33.2600 C   0  0  0  0  0  0  0  0  0  0  0  0
   -6.7840   12.4330  -34.6620 O   0  0  0  0  0  0  0  0  0  0  0  0
   -8.3120   16.3420  -32.8970 C   0  0  1  0  0  0  0  0  0  0  0  0
   -8.8080   14.0630  -32.4060 O   0  0  0  0  0  0  0  0  0  0  0  0
   -8.7060   16.6300  -31.5470 N   0  0  0  0  0  0  0  0  0  0  0  0
   -6.8540   16.7080  -33.1340 C   0  0  0  0  0  0  0  0  0  0  0  0
   -6.6180   18.1230  -32.6450 C   0  0  0  0  0  0  0  0  0  0  0  0
   -5.9260   15.8060  -32.3870 C   0  0  0  0  0  0  0  0  0  0  0  0
  2  1  1  6
  2  3  1  0
  2  4  1  0
  5  3  1  0
  4  6  2  0
  5  7  1  0
  5  8  2  0
  7  9  1  1
  7 10  1  0
 10 11  1  0
 10 12  1  0
A    2
 C04
A    3
 C02
A    5
 C01
A    6
 O48
A    7
 C57
A    8
 O03
A   10
 C78
A   11
 C81
A   12
 C82
M  END
>  <XChem_code>  (831) 
AG7§21

>  <Occupancy>  (831) 
[1.0, 1.0, 1.0, 1.0, 1.0, 1.0, 1.0, 1.0, 1.0, 1.0, 1.0, 1.0, 1.0, 1.0, 1.0, 1.0, 1.0, 1.0, 1.0, 1.0, 1.0, 1.0, 1.0, 1.0, 1.0, 1.0, 1.0, 1.0, 1.0, 1.0, 1.0, 1.0, 1.0, 1.0, 1.0, 1.0, 1.0, 1.0, 1.0, 1.0, 1.0, 1.0, 1.0, 1.0]

>  <TempFactor>  (831) 
[11.1, 20.91, 12.33, 21.54, 28.02, 10.23, 11.74, 33.15, 31.53, 14.67, 25.91, 17.57, 20.17, 22.48, 24.62, 23.23, 20.48, 10.14, 10.8, 10.98, 11.96, 13.14, 11.93, 10.58, 15.79, 15.3, 17.28, 19.56, 15.73, 11.53, 12.15, 23.48, 27.32, 11.33, 13.47, 17.51, 18.05, 14.14, 15.23, 13.92, 11.83, 10.72, 9.75, 27.35]

>  <accession>  (831) 
3R0F_A

>  <description>  (831) 
Chain A, 3C protein [Enterovirus A71]

>  <evalue>  (831) 
6.09465e-58

>  <pdb_code>  (831) 
3R0F

>  <chain>  (831) 
A

>  <ligands>  (831) 
[{'chain_id': 'A', 'author_residue_number': 501, 'author_insertion_code': '', 'chem_comp_id': 'AG7', 'alternate_conformers': 0, 'entity_id': 2, 'struct_asym_id': 'C', 'residue_number': 1, 'chem_comp_name': '4-{2-(4-FLUORO-BENZYL)-6-METHYL-5-[(5-METHYL-ISOXAZOLE-3-CARBONYL)-AMINO]-4-OXO-HEPTANOYLAMINO}-5-(2-OXO-PYRROLIDIN-3-YL)-PENTANOIC ACID ETHYL ESTER', 'weight': 600.678, 'carbohydrate_polymer': False, 'branch_name': ''}, {'chain_id': 'B', 'author_residue_number': 501, 'author_insertion_code': '', 'chem_comp_id': 'AG7', 'alternate_conformers': 0, 'entity_id': 2, 'struct_asym_id': 'F', 'residue_number': 1, 'chem_comp_name': '4-{2-(4-FLUORO-BENZYL)-6-METHYL-5-[(5-METHYL-ISOXAZOLE-3-CARBONYL)-AMINO]-4-OXO-HEPTANOYLAMINO}-5-(2-OXO-PYRROLIDIN-3-YL)-PENTANOIC ACID ETHYL ESTER', 'weight': 600.678, 'carbohydrate_polymer': False, 'branch_name': ''}, {'chain_id': 'A', 'author_residue_number': 184, 'author_insertion_code': '', 'chem_comp_id': 'EDO', 'alternate_conformers': 0, 'entity_id': 3, 'struct_asym_id': 'D', 'residue_number': 1, 'chem_comp_name': '1,2-ETHANEDIOL', 'weight': 62.068, 'carbohydrate_polymer': False, 'branch_name': ''}, {'chain_id': 'A', 'author_residue_number': 185, 'author_insertion_code': '', 'chem_comp_id': 'EDO', 'alternate_conformers': 0, 'entity_id': 3, 'struct_asym_id': 'E', 'residue_number': 1, 'chem_comp_name': '1,2-ETHANEDIOL', 'weight': 62.068, 'carbohydrate_polymer': False, 'branch_name': ''}, {'chain_id': 'B', 'author_residue_number': 184, 'author_insertion_code': '', 'chem_comp_id': 'EDO', 'alternate_conformers': 0, 'entity_id': 3, 'struct_asym_id': 'G', 'residue_number': 1, 'chem_comp_name': '1,2-ETHANEDIOL', 'weight': 62.068, 'carbohydrate_polymer': False, 'branch_name': ''}, {'chain_id': 'B', 'author_residue_number': 185, 'author_insertion_code': '', 'chem_comp_id': 'EDO', 'alternate_conformers': 0, 'entity_id': 3, 'struct_asym_id': 'H', 'residue_number': 1, 'chem_comp_name': '1,2-ETHANEDIOL', 'weight': 62.068, 'carbohydrate_polymer': False, 'branch_name': ''}]

>  <ligand_codes>  (831) 
['AG7', 'AG7', 'EDO', 'EDO', 'EDO', 'EDO']

>  <cofactor_codes>  (831) 
[]

>  <has_cofactor>  (831) 
False

>  <covalent>  (831) 
True

>  <base_name>  (831) 
3R0F

>  <lig_resn>  (831) 
AG7

>  <lig_resi>  (831) 
501

>  <lig_chain>  (831) 
A

>  <lig_segi>  (831) 
C

>  <lig_alt>  (831) 


>  <polymer_chain>  (831) 
A

>  <single_smiles>  (831) 
CCOC(=O)CC[C@H](C[C@@H]1CCNC1=O)NC(=O)[C@@H](CC(=O)[C@@H](NC(=O)c2cc(C)on2)C(C)C)Cc3ccc(F)cc3

$$$$
AG7P21S26
     RDKit          3D

 10  9  0  0  0  0  0  0  0  0999 V2000
   -7.3730    9.8180  -31.9860 C   0  0  0  0  0  0  0  0  0  0  0  0
   -7.4250    9.9840  -33.4820 C   0  0  0  0  0  0  0  0  0  0  0  0
   -7.8000    8.7080  -34.2240 C   0  0  2  0  0  0  0  0  0  0  0  0
   -7.6930    8.7200  -35.7320 C   0  0  0  0  0  0  0  0  0  0  0  0
   -9.6610    8.3310  -33.8000 R   0  0  0  0  0  0  0  0  0  0  0  0
   -6.2700    8.9490  -36.1640 C   0  0  0  0  0  0  0  0  0  0  0  0
   -6.0890    9.7380  -37.1470 O   0  0  0  0  0  0  0  0  0  0  0  0
   -5.3370    8.3840  -35.5820 O   0  0  0  0  0  0  0  0  0  0  0  0
   -4.7970   10.0720  -37.5320 C   0  0  0  0  0  0  0  0  0  0  0  0
   -4.8460   11.4130  -38.2360 C   0  0  0  0  0  0  0  0  0  0  0  0
  2  1  1  6
  2  3  1  0
  3  4  1  0
  3  5  1  6
  4  6  1  0
  6  7  1  0
  6  8  2  0
  7  9  1  0
  9 10  1  0
V    5 *
A    3
 C19
A    4
 C20
A    5
 X  
A    6
 C21
A    7
 O22
A    8
 O23
A    9
 C50
A   10
 C53
M  END
>  <XChem_code>  (832) 
AG7§21

>  <Occupancy>  (832) 
[1.0, 1.0, 1.0, 1.0, 1.0, 1.0, 1.0, 1.0, 1.0, 1.0, 1.0, 1.0, 1.0, 1.0, 1.0, 1.0, 1.0, 1.0, 1.0, 1.0, 1.0, 1.0, 1.0, 1.0, 1.0, 1.0, 1.0, 1.0, 1.0, 1.0, 1.0, 1.0, 1.0, 1.0, 1.0, 1.0, 1.0, 1.0, 1.0, 1.0, 1.0, 1.0, 1.0, 1.0]

>  <TempFactor>  (832) 
[11.1, 20.91, 12.33, 21.54, 28.02, 10.23, 11.74, 33.15, 31.53, 14.67, 25.91, 17.57, 20.17, 22.48, 24.62, 23.23, 20.48, 10.14, 10.8, 10.98, 11.96, 13.14, 11.93, 10.58, 15.79, 15.3, 17.28, 19.56, 15.73, 11.53, 12.15, 23.48, 27.32, 11.33, 13.47, 17.51, 18.05, 14.14, 15.23, 13.92, 11.83, 10.72, 9.75, 27.35]

>  <accession>  (832) 
3R0F_A

>  <description>  (832) 
Chain A, 3C protein [Enterovirus A71]

>  <evalue>  (832) 
6.09465e-58

>  <pdb_code>  (832) 
3R0F

>  <chain>  (832) 
A

>  <ligands>  (832) 
[{'chain_id': 'A', 'author_residue_number': 501, 'author_insertion_code': '', 'chem_comp_id': 'AG7', 'alternate_conformers': 0, 'entity_id': 2, 'struct_asym_id': 'C', 'residue_number': 1, 'chem_comp_name': '4-{2-(4-FLUORO-BENZYL)-6-METHYL-5-[(5-METHYL-ISOXAZOLE-3-CARBONYL)-AMINO]-4-OXO-HEPTANOYLAMINO}-5-(2-OXO-PYRROLIDIN-3-YL)-PENTANOIC ACID ETHYL ESTER', 'weight': 600.678, 'carbohydrate_polymer': False, 'branch_name': ''}, {'chain_id': 'B', 'author_residue_number': 501, 'author_insertion_code': '', 'chem_comp_id': 'AG7', 'alternate_conformers': 0, 'entity_id': 2, 'struct_asym_id': 'F', 'residue_number': 1, 'chem_comp_name': '4-{2-(4-FLUORO-BENZYL)-6-METHYL-5-[(5-METHYL-ISOXAZOLE-3-CARBONYL)-AMINO]-4-OXO-HEPTANOYLAMINO}-5-(2-OXO-PYRROLIDIN-3-YL)-PENTANOIC ACID ETHYL ESTER', 'weight': 600.678, 'carbohydrate_polymer': False, 'branch_name': ''}, {'chain_id': 'A', 'author_residue_number': 184, 'author_insertion_code': '', 'chem_comp_id': 'EDO', 'alternate_conformers': 0, 'entity_id': 3, 'struct_asym_id': 'D', 'residue_number': 1, 'chem_comp_name': '1,2-ETHANEDIOL', 'weight': 62.068, 'carbohydrate_polymer': False, 'branch_name': ''}, {'chain_id': 'A', 'author_residue_number': 185, 'author_insertion_code': '', 'chem_comp_id': 'EDO', 'alternate_conformers': 0, 'entity_id': 3, 'struct_asym_id': 'E', 'residue_number': 1, 'chem_comp_name': '1,2-ETHANEDIOL', 'weight': 62.068, 'carbohydrate_polymer': False, 'branch_name': ''}, {'chain_id': 'B', 'author_residue_number': 184, 'author_insertion_code': '', 'chem_comp_id': 'EDO', 'alternate_conformers': 0, 'entity_id': 3, 'struct_asym_id': 'G', 'residue_number': 1, 'chem_comp_name': '1,2-ETHANEDIOL', 'weight': 62.068, 'carbohydrate_polymer': False, 'branch_name': ''}, {'chain_id': 'B', 'author_residue_number': 185, 'author_insertion_code': '', 'chem_comp_id': 'EDO', 'alternate_conformers': 0, 'entity_id': 3, 'struct_asym_id': 'H', 'residue_number': 1, 'chem_comp_name': '1,2-ETHANEDIOL', 'weight': 62.068, 'carbohydrate_polymer': False, 'branch_name': ''}]

>  <ligand_codes>  (832) 
['AG7', 'AG7', 'EDO', 'EDO', 'EDO', 'EDO']

>  <cofactor_codes>  (832) 
[]

>  <has_cofactor>  (832) 
False

>  <covalent>  (832) 
True

>  <base_name>  (832) 
3R0F

>  <lig_resn>  (832) 
AG7

>  <lig_resi>  (832) 
501

>  <lig_chain>  (832) 
A

>  <lig_segi>  (832) 
C

>  <lig_alt>  (832) 


>  <polymer_chain>  (832) 
A

>  <single_smiles>  (832) 
CCOC(=O)CC[C@H](C[C@@H]1CCNC1=O)NC(=O)[C@@H](CC(=O)[C@@H](NC(=O)c2cc(C)on2)C(C)C)Cc3ccc(F)cc3

$$$$
AG7P21S27
     RDKit          3D

 21 21  0  0  0  0  0  0  0  0999 V2000
   -9.1080   12.8250  -36.5400 C   0  0  0  0  0  0  0  0  0  0  0  0
   -9.0190   13.1280  -35.0570 C   0  0  1  0  0  0  0  0  0  0  0  0
   -7.9420   12.2650  -34.4580 C   0  0  0  0  0  0  0  0  0  0  0  0
   -8.6730   14.5850  -34.7520 C   0  0  0  0  0  0  0  0  0  0  0  0
   -8.3980   11.0090  -33.8670 N   0  0  0  0  0  0  0  0  0  0  0  0
   -6.7840   12.4330  -34.6620 O   0  0  0  0  0  0  0  0  0  0  0  0
   -8.6380   14.8860  -33.2600 C   0  0  0  0  0  0  0  0  0  0  0  0
   -8.8080   14.0630  -32.4060 O   0  0  0  0  0  0  0  0  0  0  0  0
   -8.3120   16.3420  -32.8970 C   0  0  1  0  0  0  0  0  0  0  0  0
   -8.7060   16.6300  -31.5470 N   0  0  0  0  0  0  0  0  0  0  0  0
   -6.8540   16.7080  -33.1340 C   0  0  0  0  0  0  0  0  0  0  0  0
   -9.7630   17.5740  -31.2860 C   0  0  0  0  0  0  0  0  0  0  0  0
   -6.6180   18.1230  -32.6450 C   0  0  0  0  0  0  0  0  0  0  0  0
   -5.9260   15.8060  -32.3870 C   0  0  0  0  0  0  0  0  0  0  0  0
  -10.1380   17.8080  -29.8610 C   0  0  0  0  0  0  0  0  0  0  0  0
  -10.1690   18.3250  -32.1460 O   0  0  0  0  0  0  0  0  0  0  0  0
  -11.1190   18.7800  -29.4370 C   0  0  0  0  0  0  0  0  0  0  0  0
   -9.8870   17.0260  -28.8310 N   0  0  0  0  0  0  0  0  0  0  0  0
  -11.2290   18.6960  -28.1430 C   0  0  0  0  0  0  0  0  0  0  0  0
  -10.5080   17.5930  -27.7590 O   0  0  0  0  0  0  0  0  0  0  0  0
  -12.1640   19.5270  -27.3100 C   0  0  0  0  0  0  0  0  0  0  0  0
  2  1  1  6
  2  3  1  0
  2  4  1  0
  5  3  1  0
  3  6  2  0
  7  4  1  0
  7  8  2  0
  7  9  1  0
  9 10  1  1
  9 11  1  0
 10 12  1  0
 11 13  1  0
 11 14  1  0
 15 12  1  0
 12 16  2  0
 15 17  1  0
 15 18  2  0
 17 19  2  0
 20 18  1  0
 19 21  1  0
 19 20  1  0
A    2
 C04
A    3
 C47
A    4
 C02
A    6
 O48
A    7
 C01
A    8
 O03
A    9
 C57
A   10
 N58
A   11
 C78
A   12
 C59
A   13
 C81
A   14
 C82
A   15
 C1 
A   16
 O60
A   17
 C2 
A   18
 N5 
A   19
 C3 
A   20
 O4 
A   21
 C4 
M  END
>  <XChem_code>  (833) 
AG7§21

>  <Occupancy>  (833) 
[1.0, 1.0, 1.0, 1.0, 1.0, 1.0, 1.0, 1.0, 1.0, 1.0, 1.0, 1.0, 1.0, 1.0, 1.0, 1.0, 1.0, 1.0, 1.0, 1.0, 1.0, 1.0, 1.0, 1.0, 1.0, 1.0, 1.0, 1.0, 1.0, 1.0, 1.0, 1.0, 1.0, 1.0, 1.0, 1.0, 1.0, 1.0, 1.0, 1.0, 1.0, 1.0, 1.0, 1.0]

>  <TempFactor>  (833) 
[11.1, 20.91, 12.33, 21.54, 28.02, 10.23, 11.74, 33.15, 31.53, 14.67, 25.91, 17.57, 20.17, 22.48, 24.62, 23.23, 20.48, 10.14, 10.8, 10.98, 11.96, 13.14, 11.93, 10.58, 15.79, 15.3, 17.28, 19.56, 15.73, 11.53, 12.15, 23.48, 27.32, 11.33, 13.47, 17.51, 18.05, 14.14, 15.23, 13.92, 11.83, 10.72, 9.75, 27.35]

>  <accession>  (833) 
3R0F_A

>  <description>  (833) 
Chain A, 3C protein [Enterovirus A71]

>  <evalue>  (833) 
6.09465e-58

>  <pdb_code>  (833) 
3R0F

>  <chain>  (833) 
A

>  <ligands>  (833) 
[{'chain_id': 'A', 'author_residue_number': 501, 'author_insertion_code': '', 'chem_comp_id': 'AG7', 'alternate_conformers': 0, 'entity_id': 2, 'struct_asym_id': 'C', 'residue_number': 1, 'chem_comp_name': '4-{2-(4-FLUORO-BENZYL)-6-METHYL-5-[(5-METHYL-ISOXAZOLE-3-CARBONYL)-AMINO]-4-OXO-HEPTANOYLAMINO}-5-(2-OXO-PYRROLIDIN-3-YL)-PENTANOIC ACID ETHYL ESTER', 'weight': 600.678, 'carbohydrate_polymer': False, 'branch_name': ''}, {'chain_id': 'B', 'author_residue_number': 501, 'author_insertion_code': '', 'chem_comp_id': 'AG7', 'alternate_conformers': 0, 'entity_id': 2, 'struct_asym_id': 'F', 'residue_number': 1, 'chem_comp_name': '4-{2-(4-FLUORO-BENZYL)-6-METHYL-5-[(5-METHYL-ISOXAZOLE-3-CARBONYL)-AMINO]-4-OXO-HEPTANOYLAMINO}-5-(2-OXO-PYRROLIDIN-3-YL)-PENTANOIC ACID ETHYL ESTER', 'weight': 600.678, 'carbohydrate_polymer': False, 'branch_name': ''}, {'chain_id': 'A', 'author_residue_number': 184, 'author_insertion_code': '', 'chem_comp_id': 'EDO', 'alternate_conformers': 0, 'entity_id': 3, 'struct_asym_id': 'D', 'residue_number': 1, 'chem_comp_name': '1,2-ETHANEDIOL', 'weight': 62.068, 'carbohydrate_polymer': False, 'branch_name': ''}, {'chain_id': 'A', 'author_residue_number': 185, 'author_insertion_code': '', 'chem_comp_id': 'EDO', 'alternate_conformers': 0, 'entity_id': 3, 'struct_asym_id': 'E', 'residue_number': 1, 'chem_comp_name': '1,2-ETHANEDIOL', 'weight': 62.068, 'carbohydrate_polymer': False, 'branch_name': ''}, {'chain_id': 'B', 'author_residue_number': 184, 'author_insertion_code': '', 'chem_comp_id': 'EDO', 'alternate_conformers': 0, 'entity_id': 3, 'struct_asym_id': 'G', 'residue_number': 1, 'chem_comp_name': '1,2-ETHANEDIOL', 'weight': 62.068, 'carbohydrate_polymer': False, 'branch_name': ''}, {'chain_id': 'B', 'author_residue_number': 185, 'author_insertion_code': '', 'chem_comp_id': 'EDO', 'alternate_conformers': 0, 'entity_id': 3, 'struct_asym_id': 'H', 'residue_number': 1, 'chem_comp_name': '1,2-ETHANEDIOL', 'weight': 62.068, 'carbohydrate_polymer': False, 'branch_name': ''}]

>  <ligand_codes>  (833) 
['AG7', 'AG7', 'EDO', 'EDO', 'EDO', 'EDO']

>  <cofactor_codes>  (833) 
[]

>  <has_cofactor>  (833) 
False

>  <covalent>  (833) 
True

>  <base_name>  (833) 
3R0F

>  <lig_resn>  (833) 
AG7

>  <lig_resi>  (833) 
501

>  <lig_chain>  (833) 
A

>  <lig_segi>  (833) 
C

>  <lig_alt>  (833) 


>  <polymer_chain>  (833) 
A

>  <single_smiles>  (833) 
CCOC(=O)CC[C@H](C[C@@H]1CCNC1=O)NC(=O)[C@@H](CC(=O)[C@@H](NC(=O)c2cc(C)on2)C(C)C)Cc3ccc(F)cc3

$$$$
AG7P21S28
     RDKit          3D

 29 29  0  0  0  0  0  0  0  0999 V2000
   -7.3730    9.8180  -31.9860 C   0  0  0  0  0  0  0  0  0  0  0  0
   -7.4250    9.9840  -33.4820 C   0  0  2  0  0  0  0  0  0  0  0  0
   -8.3980   11.0090  -33.8670 N   0  0  0  0  0  0  0  0  0  0  0  0
   -7.8000    8.7080  -34.2240 C   0  0  2  0  0  0  0  0  0  0  0  0
   -7.9420   12.2650  -34.4580 C   0  0  0  0  0  0  0  0  0  0  0  0
   -7.6930    8.7200  -35.7320 C   0  0  0  0  0  0  0  0  0  0  0  0
   -9.6610    8.3310  -33.8000 R   0  0  0  0  0  0  0  0  0  0  0  0
   -9.0190   13.1280  -35.0570 C   0  0  1  0  0  0  0  0  0  0  0  0
   -6.7840   12.4330  -34.6620 O   0  0  0  0  0  0  0  0  0  0  0  0
   -6.2700    8.9490  -36.1640 C   0  0  0  0  0  0  0  0  0  0  0  0
   -8.6730   14.5850  -34.7520 C   0  0  0  0  0  0  0  0  0  0  0  0
   -9.1080   12.8250  -36.5400 C   0  0  0  0  0  0  0  0  0  0  0  0
   -6.0890    9.7380  -37.1470 O   0  0  0  0  0  0  0  0  0  0  0  0
   -5.3370    8.3840  -35.5820 O   0  0  0  0  0  0  0  0  0  0  0  0
   -8.6380   14.8860  -33.2600 C   0  0  0  0  0  0  0  0  0  0  0  0
  -10.1500   13.6920  -37.2180 C   0  0  0  0  0  0  0  0  0  0  0  0
   -4.7970   10.0720  -37.5320 C   0  0  0  0  0  0  0  0  0  0  0  0
   -8.3120   16.3420  -32.8970 C   0  0  0  0  0  0  0  0  0  0  0  0
   -8.8080   14.0630  -32.4060 O   0  0  0  0  0  0  0  0  0  0  0  0
  -11.4610   13.5630  -36.9490 C   0  0  0  0  0  0  0  0  0  0  0  0
   -9.6910   14.5990  -38.2790 C   0  0  0  0  0  0  0  0  0  0  0  0
   -4.8460   11.4130  -38.2360 C   0  0  0  0  0  0  0  0  0  0  0  0
   -6.8540   16.7080  -33.1340 C   0  0  0  0  0  0  0  0  0  0  0  0
  -12.4610   14.3840  -37.6880 C   0  0  0  0  0  0  0  0  0  0  0  0
  -10.6060   15.3460  -38.9640 C   0  0  0  0  0  0  0  0  0  0  0  0
   -6.6180   18.1230  -32.6450 C   0  0  0  0  0  0  0  0  0  0  0  0
   -5.9260   15.8060  -32.3870 C   0  0  0  0  0  0  0  0  0  0  0  0
  -12.0490   15.2290  -38.6420 C   0  0  0  0  0  0  0  0  0  0  0  0
  -12.9270   15.9490  -39.3140 F   0  0  0  0  0  0  0  0  0  0  0  0
  2  1  1  1
  3  2  1  0
  2  4  1  0
  3  5  1  0
  4  6  1  0
  4  7  1  6
  8  5  1  0
  5  9  2  0
  6 10  1  0
  8 11  1  6
  8 12  1  0
 10 13  1  0
 10 14  2  0
 15 11  1  0
 12 16  1  0
 13 17  1  0
 15 18  1  0
 15 19  2  0
 16 20  2  0
 16 21  1  0
 17 22  1  0
 18 23  1  6
 20 24  1  0
 25 21  2  0
 23 26  1  0
 23 27  1  0
 24 28  2  0
 28 25  1  0
 28 29  1  0
V    7 *
A    2
 C13
A    3
 N12
A    4
 C19
A    5
 C47
A    6
 C20
A    7
 X  
A    8
 C04
A    9
 O48
A   10
 C21
A   11
 C02
A   12
 C05
A   13
 O22
A   14
 O23
A   15
 C01
A   16
 C06
A   17
 C50
A   19
 O03
A   20
 C07
A   21
 C11
A   22
 C53
A   23
 C78
A   24
 C08
A   25
 C10
A   26
 C81
A   27
 C82
A   28
 C09
A   29
 F1 
M  END
>  <XChem_code>  (834) 
AG7§21

>  <Occupancy>  (834) 
[1.0, 1.0, 1.0, 1.0, 1.0, 1.0, 1.0, 1.0, 1.0, 1.0, 1.0, 1.0, 1.0, 1.0, 1.0, 1.0, 1.0, 1.0, 1.0, 1.0, 1.0, 1.0, 1.0, 1.0, 1.0, 1.0, 1.0, 1.0, 1.0, 1.0, 1.0, 1.0, 1.0, 1.0, 1.0, 1.0, 1.0, 1.0, 1.0, 1.0, 1.0, 1.0, 1.0, 1.0]

>  <TempFactor>  (834) 
[11.1, 20.91, 12.33, 21.54, 28.02, 10.23, 11.74, 33.15, 31.53, 14.67, 25.91, 17.57, 20.17, 22.48, 24.62, 23.23, 20.48, 10.14, 10.8, 10.98, 11.96, 13.14, 11.93, 10.58, 15.79, 15.3, 17.28, 19.56, 15.73, 11.53, 12.15, 23.48, 27.32, 11.33, 13.47, 17.51, 18.05, 14.14, 15.23, 13.92, 11.83, 10.72, 9.75, 27.35]

>  <accession>  (834) 
3R0F_A

>  <description>  (834) 
Chain A, 3C protein [Enterovirus A71]

>  <evalue>  (834) 
6.09465e-58

>  <pdb_code>  (834) 
3R0F

>  <chain>  (834) 
A

>  <ligands>  (834) 
[{'chain_id': 'A', 'author_residue_number': 501, 'author_insertion_code': '', 'chem_comp_id': 'AG7', 'alternate_conformers': 0, 'entity_id': 2, 'struct_asym_id': 'C', 'residue_number': 1, 'chem_comp_name': '4-{2-(4-FLUORO-BENZYL)-6-METHYL-5-[(5-METHYL-ISOXAZOLE-3-CARBONYL)-AMINO]-4-OXO-HEPTANOYLAMINO}-5-(2-OXO-PYRROLIDIN-3-YL)-PENTANOIC ACID ETHYL ESTER', 'weight': 600.678, 'carbohydrate_polymer': False, 'branch_name': ''}, {'chain_id': 'B', 'author_residue_number': 501, 'author_insertion_code': '', 'chem_comp_id': 'AG7', 'alternate_conformers': 0, 'entity_id': 2, 'struct_asym_id': 'F', 'residue_number': 1, 'chem_comp_name': '4-{2-(4-FLUORO-BENZYL)-6-METHYL-5-[(5-METHYL-ISOXAZOLE-3-CARBONYL)-AMINO]-4-OXO-HEPTANOYLAMINO}-5-(2-OXO-PYRROLIDIN-3-YL)-PENTANOIC ACID ETHYL ESTER', 'weight': 600.678, 'carbohydrate_polymer': False, 'branch_name': ''}, {'chain_id': 'A', 'author_residue_number': 184, 'author_insertion_code': '', 'chem_comp_id': 'EDO', 'alternate_conformers': 0, 'entity_id': 3, 'struct_asym_id': 'D', 'residue_number': 1, 'chem_comp_name': '1,2-ETHANEDIOL', 'weight': 62.068, 'carbohydrate_polymer': False, 'branch_name': ''}, {'chain_id': 'A', 'author_residue_number': 185, 'author_insertion_code': '', 'chem_comp_id': 'EDO', 'alternate_conformers': 0, 'entity_id': 3, 'struct_asym_id': 'E', 'residue_number': 1, 'chem_comp_name': '1,2-ETHANEDIOL', 'weight': 62.068, 'carbohydrate_polymer': False, 'branch_name': ''}, {'chain_id': 'B', 'author_residue_number': 184, 'author_insertion_code': '', 'chem_comp_id': 'EDO', 'alternate_conformers': 0, 'entity_id': 3, 'struct_asym_id': 'G', 'residue_number': 1, 'chem_comp_name': '1,2-ETHANEDIOL', 'weight': 62.068, 'carbohydrate_polymer': False, 'branch_name': ''}, {'chain_id': 'B', 'author_residue_number': 185, 'author_insertion_code': '', 'chem_comp_id': 'EDO', 'alternate_conformers': 0, 'entity_id': 3, 'struct_asym_id': 'H', 'residue_number': 1, 'chem_comp_name': '1,2-ETHANEDIOL', 'weight': 62.068, 'carbohydrate_polymer': False, 'branch_name': ''}]

>  <ligand_codes>  (834) 
['AG7', 'AG7', 'EDO', 'EDO', 'EDO', 'EDO']

>  <cofactor_codes>  (834) 
[]

>  <has_cofactor>  (834) 
False

>  <covalent>  (834) 
True

>  <base_name>  (834) 
3R0F

>  <lig_resn>  (834) 
AG7

>  <lig_resi>  (834) 
501

>  <lig_chain>  (834) 
A

>  <lig_segi>  (834) 
C

>  <lig_alt>  (834) 


>  <polymer_chain>  (834) 
A

>  <single_smiles>  (834) 
CCOC(=O)CC[C@H](C[C@@H]1CCNC1=O)NC(=O)[C@@H](CC(=O)[C@@H](NC(=O)c2cc(C)on2)C(C)C)Cc3ccc(F)cc3

$$$$
AG7P21S29
     RDKit          3D

 28 28  0  0  0  0  0  0  0  0999 V2000
   -9.1080   12.8250  -36.5400 C   0  0  0  0  0  0  0  0  0  0  0  0
   -9.0190   13.1280  -35.0570 C   0  0  2  0  0  0  0  0  0  0  0  0
   -8.6730   14.5850  -34.7520 C   0  0  0  0  0  0  0  0  0  0  0  0
   -7.9420   12.2650  -34.4580 C   0  0  0  0  0  0  0  0  0  0  0  0
   -8.6380   14.8860  -33.2600 C   0  0  0  0  0  0  0  0  0  0  0  0
   -8.3980   11.0090  -33.8670 N   0  0  0  0  0  0  0  0  0  0  0  0
   -6.7840   12.4330  -34.6620 O   0  0  0  0  0  0  0  0  0  0  0  0
   -8.3120   16.3420  -32.8970 C   0  0  0  0  0  0  0  0  0  0  0  0
   -8.8080   14.0630  -32.4060 O   0  0  0  0  0  0  0  0  0  0  0  0
   -7.4250    9.9840  -33.4820 C   0  0  1  0  0  0  0  0  0  0  0  0
   -6.8540   16.7080  -33.1340 C   0  0  0  0  0  0  0  0  0  0  0  0
   -7.3730    9.8180  -31.9860 C   0  0  0  0  0  0  0  0  0  0  0  0
   -7.8000    8.7080  -34.2240 C   0  0  2  0  0  0  0  0  0  0  0  0
   -6.6180   18.1230  -32.6450 C   0  0  0  0  0  0  0  0  0  0  0  0
   -5.9260   15.8060  -32.3870 C   0  0  0  0  0  0  0  0  0  0  0  0
   -6.9020   11.0990  -31.2870 C   0  0  1  0  0  0  0  0  0  0  0  0
   -7.6930    8.7200  -35.7320 C   0  0  0  0  0  0  0  0  0  0  0  0
   -9.6610    8.3310  -33.8000 R   0  0  0  0  0  0  0  0  0  0  0  0
   -6.8840   10.9300  -29.8210 C   0  0  0  0  0  0  0  0  0  0  0  0
   -5.5070   11.5250  -31.6520 C   0  0  0  0  0  0  0  0  0  0  0  0
   -6.2700    8.9490  -36.1640 C   0  0  0  0  0  0  0  0  0  0  0  0
   -5.7340   11.6000  -29.3140 N   0  0  0  0  0  0  0  0  0  0  0  0
   -7.5830   10.2190  -29.1600 O   0  0  0  0  0  0  0  0  0  0  0  0
   -5.0970   12.3000  -30.4180 C   0  0  0  0  0  0  0  0  0  0  0  0
   -6.0890    9.7380  -37.1470 O   0  0  0  0  0  0  0  0  0  0  0  0
   -5.3370    8.3840  -35.5820 O   0  0  0  0  0  0  0  0  0  0  0  0
   -4.7970   10.0720  -37.5320 C   0  0  0  0  0  0  0  0  0  0  0  0
   -4.8460   11.4130  -38.2360 C   0  0  0  0  0  0  0  0  0  0  0  0
  2  1  1  6
  2  3  1  0
  2  4  1  0
  5  3  1  0
  6  4  1  0
  4  7  2  0
  5  8  1  0
  5  9  2  0
  6 10  1  0
  8 11  1  6
 10 12  1  1
 10 13  1  0
 11 14  1  0
 11 15  1  0
 16 12  1  6
 13 17  1  0
 13 18  1  6
 16 19  1  0
 16 20  1  0
 17 21  1  0
 19 22  1  0
 19 23  2  0
 24 20  1  0
 21 25  1  0
 21 26  2  0
 22 24  1  0
 25 27  1  0
 27 28  1  0
V   18 *
A    2
 C04
A    3
 C02
A    4
 C47
A    5
 C01
A    6
 N12
A    7
 O48
A    9
 O03
A   10
 C13
A   11
 C78
A   12
 C14
A   13
 C19
A   14
 C81
A   15
 C82
A   16
 C15
A   17
 C20
A   18
 X  
A   19
 C16
A   20
 C84
A   21
 C21
A   22
 N17
A   23
 O18
A   24
 C83
A   25
 O22
A   26
 O23
A   27
 C50
A   28
 C53
M  END
>  <XChem_code>  (835) 
AG7§21

>  <Occupancy>  (835) 
[1.0, 1.0, 1.0, 1.0, 1.0, 1.0, 1.0, 1.0, 1.0, 1.0, 1.0, 1.0, 1.0, 1.0, 1.0, 1.0, 1.0, 1.0, 1.0, 1.0, 1.0, 1.0, 1.0, 1.0, 1.0, 1.0, 1.0, 1.0, 1.0, 1.0, 1.0, 1.0, 1.0, 1.0, 1.0, 1.0, 1.0, 1.0, 1.0, 1.0, 1.0, 1.0, 1.0, 1.0]

>  <TempFactor>  (835) 
[11.1, 20.91, 12.33, 21.54, 28.02, 10.23, 11.74, 33.15, 31.53, 14.67, 25.91, 17.57, 20.17, 22.48, 24.62, 23.23, 20.48, 10.14, 10.8, 10.98, 11.96, 13.14, 11.93, 10.58, 15.79, 15.3, 17.28, 19.56, 15.73, 11.53, 12.15, 23.48, 27.32, 11.33, 13.47, 17.51, 18.05, 14.14, 15.23, 13.92, 11.83, 10.72, 9.75, 27.35]

>  <accession>  (835) 
3R0F_A

>  <description>  (835) 
Chain A, 3C protein [Enterovirus A71]

>  <evalue>  (835) 
6.09465e-58

>  <pdb_code>  (835) 
3R0F

>  <chain>  (835) 
A

>  <ligands>  (835) 
[{'chain_id': 'A', 'author_residue_number': 501, 'author_insertion_code': '', 'chem_comp_id': 'AG7', 'alternate_conformers': 0, 'entity_id': 2, 'struct_asym_id': 'C', 'residue_number': 1, 'chem_comp_name': '4-{2-(4-FLUORO-BENZYL)-6-METHYL-5-[(5-METHYL-ISOXAZOLE-3-CARBONYL)-AMINO]-4-OXO-HEPTANOYLAMINO}-5-(2-OXO-PYRROLIDIN-3-YL)-PENTANOIC ACID ETHYL ESTER', 'weight': 600.678, 'carbohydrate_polymer': False, 'branch_name': ''}, {'chain_id': 'B', 'author_residue_number': 501, 'author_insertion_code': '', 'chem_comp_id': 'AG7', 'alternate_conformers': 0, 'entity_id': 2, 'struct_asym_id': 'F', 'residue_number': 1, 'chem_comp_name': '4-{2-(4-FLUORO-BENZYL)-6-METHYL-5-[(5-METHYL-ISOXAZOLE-3-CARBONYL)-AMINO]-4-OXO-HEPTANOYLAMINO}-5-(2-OXO-PYRROLIDIN-3-YL)-PENTANOIC ACID ETHYL ESTER', 'weight': 600.678, 'carbohydrate_polymer': False, 'branch_name': ''}, {'chain_id': 'A', 'author_residue_number': 184, 'author_insertion_code': '', 'chem_comp_id': 'EDO', 'alternate_conformers': 0, 'entity_id': 3, 'struct_asym_id': 'D', 'residue_number': 1, 'chem_comp_name': '1,2-ETHANEDIOL', 'weight': 62.068, 'carbohydrate_polymer': False, 'branch_name': ''}, {'chain_id': 'A', 'author_residue_number': 185, 'author_insertion_code': '', 'chem_comp_id': 'EDO', 'alternate_conformers': 0, 'entity_id': 3, 'struct_asym_id': 'E', 'residue_number': 1, 'chem_comp_name': '1,2-ETHANEDIOL', 'weight': 62.068, 'carbohydrate_polymer': False, 'branch_name': ''}, {'chain_id': 'B', 'author_residue_number': 184, 'author_insertion_code': '', 'chem_comp_id': 'EDO', 'alternate_conformers': 0, 'entity_id': 3, 'struct_asym_id': 'G', 'residue_number': 1, 'chem_comp_name': '1,2-ETHANEDIOL', 'weight': 62.068, 'carbohydrate_polymer': False, 'branch_name': ''}, {'chain_id': 'B', 'author_residue_number': 185, 'author_insertion_code': '', 'chem_comp_id': 'EDO', 'alternate_conformers': 0, 'entity_id': 3, 'struct_asym_id': 'H', 'residue_number': 1, 'chem_comp_name': '1,2-ETHANEDIOL', 'weight': 62.068, 'carbohydrate_polymer': False, 'branch_name': ''}]

>  <ligand_codes>  (835) 
['AG7', 'AG7', 'EDO', 'EDO', 'EDO', 'EDO']

>  <cofactor_codes>  (835) 
[]

>  <has_cofactor>  (835) 
False

>  <covalent>  (835) 
True

>  <base_name>  (835) 
3R0F

>  <lig_resn>  (835) 
AG7

>  <lig_resi>  (835) 
501

>  <lig_chain>  (835) 
A

>  <lig_segi>  (835) 
C

>  <lig_alt>  (835) 


>  <polymer_chain>  (835) 
A

>  <single_smiles>  (835) 
CCOC(=O)CC[C@H](C[C@@H]1CCNC1=O)NC(=O)[C@@H](CC(=O)[C@@H](NC(=O)c2cc(C)on2)C(C)C)Cc3ccc(F)cc3

$$$$
AG7P21S30
     RDKit          3D

 11 10  0  0  0  0  0  0  0  0999 V2000
   -9.1080   12.8250  -36.5400 C   0  0  0  0  0  0  0  0  0  0  0  0
   -9.0190   13.1280  -35.0570 C   0  0  2  0  0  0  0  0  0  0  0  0
   -8.6730   14.5850  -34.7520 C   0  0  0  0  0  0  0  0  0  0  0  0
   -7.9420   12.2650  -34.4580 C   0  0  0  0  0  0  0  0  0  0  0  0
   -8.6380   14.8860  -33.2600 C   0  0  0  0  0  0  0  0  0  0  0  0
   -6.7840   12.4330  -34.6620 O   0  0  0  0  0  0  0  0  0  0  0  0
   -8.3120   16.3420  -32.8970 C   0  0  0  0  0  0  0  0  0  0  0  0
   -8.8080   14.0630  -32.4060 O   0  0  0  0  0  0  0  0  0  0  0  0
   -6.8540   16.7080  -33.1340 C   0  0  0  0  0  0  0  0  0  0  0  0
   -6.6180   18.1230  -32.6450 C   0  0  0  0  0  0  0  0  0  0  0  0
   -5.9260   15.8060  -32.3870 C   0  0  0  0  0  0  0  0  0  0  0  0
  2  1  1  6
  2  3  1  0
  2  4  1  0
  5  3  1  0
  4  6  2  0
  5  7  1  0
  5  8  2  0
  7  9  1  6
  9 10  1  0
  9 11  1  0
A    2
 C04
A    3
 C02
A    5
 C01
A    6
 O48
A    8
 O03
A    9
 C78
A   10
 C81
A   11
 C82
M  END
>  <XChem_code>  (836) 
AG7§21

>  <Occupancy>  (836) 
[1.0, 1.0, 1.0, 1.0, 1.0, 1.0, 1.0, 1.0, 1.0, 1.0, 1.0, 1.0, 1.0, 1.0, 1.0, 1.0, 1.0, 1.0, 1.0, 1.0, 1.0, 1.0, 1.0, 1.0, 1.0, 1.0, 1.0, 1.0, 1.0, 1.0, 1.0, 1.0, 1.0, 1.0, 1.0, 1.0, 1.0, 1.0, 1.0, 1.0, 1.0, 1.0, 1.0, 1.0]

>  <TempFactor>  (836) 
[11.1, 20.91, 12.33, 21.54, 28.02, 10.23, 11.74, 33.15, 31.53, 14.67, 25.91, 17.57, 20.17, 22.48, 24.62, 23.23, 20.48, 10.14, 10.8, 10.98, 11.96, 13.14, 11.93, 10.58, 15.79, 15.3, 17.28, 19.56, 15.73, 11.53, 12.15, 23.48, 27.32, 11.33, 13.47, 17.51, 18.05, 14.14, 15.23, 13.92, 11.83, 10.72, 9.75, 27.35]

>  <accession>  (836) 
3R0F_A

>  <description>  (836) 
Chain A, 3C protein [Enterovirus A71]

>  <evalue>  (836) 
6.09465e-58

>  <pdb_code>  (836) 
3R0F

>  <chain>  (836) 
A

>  <ligands>  (836) 
[{'chain_id': 'A', 'author_residue_number': 501, 'author_insertion_code': '', 'chem_comp_id': 'AG7', 'alternate_conformers': 0, 'entity_id': 2, 'struct_asym_id': 'C', 'residue_number': 1, 'chem_comp_name': '4-{2-(4-FLUORO-BENZYL)-6-METHYL-5-[(5-METHYL-ISOXAZOLE-3-CARBONYL)-AMINO]-4-OXO-HEPTANOYLAMINO}-5-(2-OXO-PYRROLIDIN-3-YL)-PENTANOIC ACID ETHYL ESTER', 'weight': 600.678, 'carbohydrate_polymer': False, 'branch_name': ''}, {'chain_id': 'B', 'author_residue_number': 501, 'author_insertion_code': '', 'chem_comp_id': 'AG7', 'alternate_conformers': 0, 'entity_id': 2, 'struct_asym_id': 'F', 'residue_number': 1, 'chem_comp_name': '4-{2-(4-FLUORO-BENZYL)-6-METHYL-5-[(5-METHYL-ISOXAZOLE-3-CARBONYL)-AMINO]-4-OXO-HEPTANOYLAMINO}-5-(2-OXO-PYRROLIDIN-3-YL)-PENTANOIC ACID ETHYL ESTER', 'weight': 600.678, 'carbohydrate_polymer': False, 'branch_name': ''}, {'chain_id': 'A', 'author_residue_number': 184, 'author_insertion_code': '', 'chem_comp_id': 'EDO', 'alternate_conformers': 0, 'entity_id': 3, 'struct_asym_id': 'D', 'residue_number': 1, 'chem_comp_name': '1,2-ETHANEDIOL', 'weight': 62.068, 'carbohydrate_polymer': False, 'branch_name': ''}, {'chain_id': 'A', 'author_residue_number': 185, 'author_insertion_code': '', 'chem_comp_id': 'EDO', 'alternate_conformers': 0, 'entity_id': 3, 'struct_asym_id': 'E', 'residue_number': 1, 'chem_comp_name': '1,2-ETHANEDIOL', 'weight': 62.068, 'carbohydrate_polymer': False, 'branch_name': ''}, {'chain_id': 'B', 'author_residue_number': 184, 'author_insertion_code': '', 'chem_comp_id': 'EDO', 'alternate_conformers': 0, 'entity_id': 3, 'struct_asym_id': 'G', 'residue_number': 1, 'chem_comp_name': '1,2-ETHANEDIOL', 'weight': 62.068, 'carbohydrate_polymer': False, 'branch_name': ''}, {'chain_id': 'B', 'author_residue_number': 185, 'author_insertion_code': '', 'chem_comp_id': 'EDO', 'alternate_conformers': 0, 'entity_id': 3, 'struct_asym_id': 'H', 'residue_number': 1, 'chem_comp_name': '1,2-ETHANEDIOL', 'weight': 62.068, 'carbohydrate_polymer': False, 'branch_name': ''}]

>  <ligand_codes>  (836) 
['AG7', 'AG7', 'EDO', 'EDO', 'EDO', 'EDO']

>  <cofactor_codes>  (836) 
[]

>  <has_cofactor>  (836) 
False

>  <covalent>  (836) 
True

>  <base_name>  (836) 
3R0F

>  <lig_resn>  (836) 
AG7

>  <lig_resi>  (836) 
501

>  <lig_chain>  (836) 
A

>  <lig_segi>  (836) 
C

>  <lig_alt>  (836) 


>  <polymer_chain>  (836) 
A

>  <single_smiles>  (836) 
CCOC(=O)CC[C@H](C[C@@H]1CCNC1=O)NC(=O)[C@@H](CC(=O)[C@@H](NC(=O)c2cc(C)on2)C(C)C)Cc3ccc(F)cc3

$$$$
AG7P21S31
     RDKit          3D

 13 12  0  0  0  0  0  0  0  0999 V2000
   -9.1080   12.8250  -36.5400 C   0  0  0  0  0  0  0  0  0  0  0  0
   -9.0190   13.1280  -35.0570 C   0  0  1  0  0  0  0  0  0  0  0  0
   -7.9420   12.2650  -34.4580 C   0  0  0  0  0  0  0  0  0  0  0  0
   -8.6730   14.5850  -34.7520 C   0  0  0  0  0  0  0  0  0  0  0  0
   -8.3980   11.0090  -33.8670 N   0  0  0  0  0  0  0  0  0  0  0  0
   -6.7840   12.4330  -34.6620 O   0  0  0  0  0  0  0  0  0  0  0  0
   -8.6380   14.8860  -33.2600 C   0  0  0  0  0  0  0  0  0  0  0  0
   -8.3120   16.3420  -32.8970 C   0  0  1  0  0  0  0  0  0  0  0  0
   -8.8080   14.0630  -32.4060 O   0  0  0  0  0  0  0  0  0  0  0  0
   -8.7060   16.6300  -31.5470 N   0  0  0  0  0  0  0  0  0  0  0  0
   -6.8540   16.7080  -33.1340 C   0  0  0  0  0  0  0  0  0  0  0  0
   -6.6180   18.1230  -32.6450 C   0  0  0  0  0  0  0  0  0  0  0  0
   -5.9260   15.8060  -32.3870 C   0  0  0  0  0  0  0  0  0  0  0  0
  2  1  1  6
  2  3  1  0
  2  4  1  0
  5  3  1  0
  3  6  2  0
  7  4  1  0
  7  8  1  0
  7  9  2  0
  8 10  1  1
  8 11  1  0
 11 12  1  0
 11 13  1  0
A    2
 C04
A    3
 C47
A    4
 C02
A    6
 O48
A    7
 C01
A    8
 C57
A    9
 O03
A   11
 C78
A   12
 C81
A   13
 C82
M  END
>  <XChem_code>  (837) 
AG7§21

>  <Occupancy>  (837) 
[1.0, 1.0, 1.0, 1.0, 1.0, 1.0, 1.0, 1.0, 1.0, 1.0, 1.0, 1.0, 1.0, 1.0, 1.0, 1.0, 1.0, 1.0, 1.0, 1.0, 1.0, 1.0, 1.0, 1.0, 1.0, 1.0, 1.0, 1.0, 1.0, 1.0, 1.0, 1.0, 1.0, 1.0, 1.0, 1.0, 1.0, 1.0, 1.0, 1.0, 1.0, 1.0, 1.0, 1.0]

>  <TempFactor>  (837) 
[11.1, 20.91, 12.33, 21.54, 28.02, 10.23, 11.74, 33.15, 31.53, 14.67, 25.91, 17.57, 20.17, 22.48, 24.62, 23.23, 20.48, 10.14, 10.8, 10.98, 11.96, 13.14, 11.93, 10.58, 15.79, 15.3, 17.28, 19.56, 15.73, 11.53, 12.15, 23.48, 27.32, 11.33, 13.47, 17.51, 18.05, 14.14, 15.23, 13.92, 11.83, 10.72, 9.75, 27.35]

>  <accession>  (837) 
3R0F_A

>  <description>  (837) 
Chain A, 3C protein [Enterovirus A71]

>  <evalue>  (837) 
6.09465e-58

>  <pdb_code>  (837) 
3R0F

>  <chain>  (837) 
A

>  <ligands>  (837) 
[{'chain_id': 'A', 'author_residue_number': 501, 'author_insertion_code': '', 'chem_comp_id': 'AG7', 'alternate_conformers': 0, 'entity_id': 2, 'struct_asym_id': 'C', 'residue_number': 1, 'chem_comp_name': '4-{2-(4-FLUORO-BENZYL)-6-METHYL-5-[(5-METHYL-ISOXAZOLE-3-CARBONYL)-AMINO]-4-OXO-HEPTANOYLAMINO}-5-(2-OXO-PYRROLIDIN-3-YL)-PENTANOIC ACID ETHYL ESTER', 'weight': 600.678, 'carbohydrate_polymer': False, 'branch_name': ''}, {'chain_id': 'B', 'author_residue_number': 501, 'author_insertion_code': '', 'chem_comp_id': 'AG7', 'alternate_conformers': 0, 'entity_id': 2, 'struct_asym_id': 'F', 'residue_number': 1, 'chem_comp_name': '4-{2-(4-FLUORO-BENZYL)-6-METHYL-5-[(5-METHYL-ISOXAZOLE-3-CARBONYL)-AMINO]-4-OXO-HEPTANOYLAMINO}-5-(2-OXO-PYRROLIDIN-3-YL)-PENTANOIC ACID ETHYL ESTER', 'weight': 600.678, 'carbohydrate_polymer': False, 'branch_name': ''}, {'chain_id': 'A', 'author_residue_number': 184, 'author_insertion_code': '', 'chem_comp_id': 'EDO', 'alternate_conformers': 0, 'entity_id': 3, 'struct_asym_id': 'D', 'residue_number': 1, 'chem_comp_name': '1,2-ETHANEDIOL', 'weight': 62.068, 'carbohydrate_polymer': False, 'branch_name': ''}, {'chain_id': 'A', 'author_residue_number': 185, 'author_insertion_code': '', 'chem_comp_id': 'EDO', 'alternate_conformers': 0, 'entity_id': 3, 'struct_asym_id': 'E', 'residue_number': 1, 'chem_comp_name': '1,2-ETHANEDIOL', 'weight': 62.068, 'carbohydrate_polymer': False, 'branch_name': ''}, {'chain_id': 'B', 'author_residue_number': 184, 'author_insertion_code': '', 'chem_comp_id': 'EDO', 'alternate_conformers': 0, 'entity_id': 3, 'struct_asym_id': 'G', 'residue_number': 1, 'chem_comp_name': '1,2-ETHANEDIOL', 'weight': 62.068, 'carbohydrate_polymer': False, 'branch_name': ''}, {'chain_id': 'B', 'author_residue_number': 185, 'author_insertion_code': '', 'chem_comp_id': 'EDO', 'alternate_conformers': 0, 'entity_id': 3, 'struct_asym_id': 'H', 'residue_number': 1, 'chem_comp_name': '1,2-ETHANEDIOL', 'weight': 62.068, 'carbohydrate_polymer': False, 'branch_name': ''}]

>  <ligand_codes>  (837) 
['AG7', 'AG7', 'EDO', 'EDO', 'EDO', 'EDO']

>  <cofactor_codes>  (837) 
[]

>  <has_cofactor>  (837) 
False

>  <covalent>  (837) 
True

>  <base_name>  (837) 
3R0F

>  <lig_resn>  (837) 
AG7

>  <lig_resi>  (837) 
501

>  <lig_chain>  (837) 
A

>  <lig_segi>  (837) 
C

>  <lig_alt>  (837) 


>  <polymer_chain>  (837) 
A

>  <single_smiles>  (837) 
CCOC(=O)CC[C@H](C[C@@H]1CCNC1=O)NC(=O)[C@@H](CC(=O)[C@@H](NC(=O)c2cc(C)on2)C(C)C)Cc3ccc(F)cc3

$$$$
AG7P21S32
     RDKit          3D

 12 11  0  0  0  0  0  0  0  0999 V2000
   -9.1080   12.8250  -36.5400 C   0  0  0  0  0  0  0  0  0  0  0  0
   -9.0190   13.1280  -35.0570 C   0  0  2  0  0  0  0  0  0  0  0  0
   -8.6730   14.5850  -34.7520 C   0  0  0  0  0  0  0  0  0  0  0  0
   -7.9420   12.2650  -34.4580 C   0  0  0  0  0  0  0  0  0  0  0  0
   -8.6380   14.8860  -33.2600 C   0  0  0  0  0  0  0  0  0  0  0  0
   -8.3980   11.0090  -33.8670 N   0  0  0  0  0  0  0  0  0  0  0  0
   -6.7840   12.4330  -34.6620 O   0  0  0  0  0  0  0  0  0  0  0  0
   -8.3120   16.3420  -32.8970 C   0  0  0  0  0  0  0  0  0  0  0  0
   -8.8080   14.0630  -32.4060 O   0  0  0  0  0  0  0  0  0  0  0  0
   -6.8540   16.7080  -33.1340 C   0  0  0  0  0  0  0  0  0  0  0  0
   -6.6180   18.1230  -32.6450 C   0  0  0  0  0  0  0  0  0  0  0  0
   -5.9260   15.8060  -32.3870 C   0  0  0  0  0  0  0  0  0  0  0  0
  2  1  1  6
  2  3  1  0
  2  4  1  0
  5  3  1  0
  6  4  1  0
  4  7  2  0
  5  8  1  0
  5  9  2  0
  8 10  1  6
 10 11  1  0
 10 12  1  0
A    2
 C04
A    3
 C02
A    4
 C47
A    5
 C01
A    7
 O48
A    9
 O03
A   10
 C78
A   11
 C81
A   12
 C82
M  END
>  <XChem_code>  (838) 
AG7§21

>  <Occupancy>  (838) 
[1.0, 1.0, 1.0, 1.0, 1.0, 1.0, 1.0, 1.0, 1.0, 1.0, 1.0, 1.0, 1.0, 1.0, 1.0, 1.0, 1.0, 1.0, 1.0, 1.0, 1.0, 1.0, 1.0, 1.0, 1.0, 1.0, 1.0, 1.0, 1.0, 1.0, 1.0, 1.0, 1.0, 1.0, 1.0, 1.0, 1.0, 1.0, 1.0, 1.0, 1.0, 1.0, 1.0, 1.0]

>  <TempFactor>  (838) 
[11.1, 20.91, 12.33, 21.54, 28.02, 10.23, 11.74, 33.15, 31.53, 14.67, 25.91, 17.57, 20.17, 22.48, 24.62, 23.23, 20.48, 10.14, 10.8, 10.98, 11.96, 13.14, 11.93, 10.58, 15.79, 15.3, 17.28, 19.56, 15.73, 11.53, 12.15, 23.48, 27.32, 11.33, 13.47, 17.51, 18.05, 14.14, 15.23, 13.92, 11.83, 10.72, 9.75, 27.35]

>  <accession>  (838) 
3R0F_A

>  <description>  (838) 
Chain A, 3C protein [Enterovirus A71]

>  <evalue>  (838) 
6.09465e-58

>  <pdb_code>  (838) 
3R0F

>  <chain>  (838) 
A

>  <ligands>  (838) 
[{'chain_id': 'A', 'author_residue_number': 501, 'author_insertion_code': '', 'chem_comp_id': 'AG7', 'alternate_conformers': 0, 'entity_id': 2, 'struct_asym_id': 'C', 'residue_number': 1, 'chem_comp_name': '4-{2-(4-FLUORO-BENZYL)-6-METHYL-5-[(5-METHYL-ISOXAZOLE-3-CARBONYL)-AMINO]-4-OXO-HEPTANOYLAMINO}-5-(2-OXO-PYRROLIDIN-3-YL)-PENTANOIC ACID ETHYL ESTER', 'weight': 600.678, 'carbohydrate_polymer': False, 'branch_name': ''}, {'chain_id': 'B', 'author_residue_number': 501, 'author_insertion_code': '', 'chem_comp_id': 'AG7', 'alternate_conformers': 0, 'entity_id': 2, 'struct_asym_id': 'F', 'residue_number': 1, 'chem_comp_name': '4-{2-(4-FLUORO-BENZYL)-6-METHYL-5-[(5-METHYL-ISOXAZOLE-3-CARBONYL)-AMINO]-4-OXO-HEPTANOYLAMINO}-5-(2-OXO-PYRROLIDIN-3-YL)-PENTANOIC ACID ETHYL ESTER', 'weight': 600.678, 'carbohydrate_polymer': False, 'branch_name': ''}, {'chain_id': 'A', 'author_residue_number': 184, 'author_insertion_code': '', 'chem_comp_id': 'EDO', 'alternate_conformers': 0, 'entity_id': 3, 'struct_asym_id': 'D', 'residue_number': 1, 'chem_comp_name': '1,2-ETHANEDIOL', 'weight': 62.068, 'carbohydrate_polymer': False, 'branch_name': ''}, {'chain_id': 'A', 'author_residue_number': 185, 'author_insertion_code': '', 'chem_comp_id': 'EDO', 'alternate_conformers': 0, 'entity_id': 3, 'struct_asym_id': 'E', 'residue_number': 1, 'chem_comp_name': '1,2-ETHANEDIOL', 'weight': 62.068, 'carbohydrate_polymer': False, 'branch_name': ''}, {'chain_id': 'B', 'author_residue_number': 184, 'author_insertion_code': '', 'chem_comp_id': 'EDO', 'alternate_conformers': 0, 'entity_id': 3, 'struct_asym_id': 'G', 'residue_number': 1, 'chem_comp_name': '1,2-ETHANEDIOL', 'weight': 62.068, 'carbohydrate_polymer': False, 'branch_name': ''}, {'chain_id': 'B', 'author_residue_number': 185, 'author_insertion_code': '', 'chem_comp_id': 'EDO', 'alternate_conformers': 0, 'entity_id': 3, 'struct_asym_id': 'H', 'residue_number': 1, 'chem_comp_name': '1,2-ETHANEDIOL', 'weight': 62.068, 'carbohydrate_polymer': False, 'branch_name': ''}]

>  <ligand_codes>  (838) 
['AG7', 'AG7', 'EDO', 'EDO', 'EDO', 'EDO']

>  <cofactor_codes>  (838) 
[]

>  <has_cofactor>  (838) 
False

>  <covalent>  (838) 
True

>  <base_name>  (838) 
3R0F

>  <lig_resn>  (838) 
AG7

>  <lig_resi>  (838) 
501

>  <lig_chain>  (838) 
A

>  <lig_segi>  (838) 
C

>  <lig_alt>  (838) 


>  <polymer_chain>  (838) 
A

>  <single_smiles>  (838) 
CCOC(=O)CC[C@H](C[C@@H]1CCNC1=O)NC(=O)[C@@H](CC(=O)[C@@H](NC(=O)c2cc(C)on2)C(C)C)Cc3ccc(F)cc3

$$$$
AG7P21S33
     RDKit          3D

 32 32  0  0  0  0  0  0  0  0999 V2000
   -7.3730    9.8180  -31.9860 C   0  0  0  0  0  0  0  0  0  0  0  0
   -7.4250    9.9840  -33.4820 C   0  0  2  0  0  0  0  0  0  0  0  0
   -8.3980   11.0090  -33.8670 N   0  0  0  0  0  0  0  0  0  0  0  0
   -7.8000    8.7080  -34.2240 C   0  0  2  0  0  0  0  0  0  0  0  0
   -7.9420   12.2650  -34.4580 C   0  0  0  0  0  0  0  0  0  0  0  0
   -7.6930    8.7200  -35.7320 C   0  0  0  0  0  0  0  0  0  0  0  0
   -9.6610    8.3310  -33.8000 R   0  0  0  0  0  0  0  0  0  0  0  0
   -9.0190   13.1280  -35.0570 C   0  0  1  0  0  0  0  0  0  0  0  0
   -6.7840   12.4330  -34.6620 O   0  0  0  0  0  0  0  0  0  0  0  0
   -6.2700    8.9490  -36.1640 C   0  0  0  0  0  0  0  0  0  0  0  0
   -8.6730   14.5850  -34.7520 C   0  0  0  0  0  0  0  0  0  0  0  0
   -9.1080   12.8250  -36.5400 C   0  0  0  0  0  0  0  0  0  0  0  0
   -6.0890    9.7380  -37.1470 O   0  0  0  0  0  0  0  0  0  0  0  0
   -5.3370    8.3840  -35.5820 O   0  0  0  0  0  0  0  0  0  0  0  0
   -8.6380   14.8860  -33.2600 C   0  0  0  0  0  0  0  0  0  0  0  0
  -10.1500   13.6920  -37.2180 C   0  0  0  0  0  0  0  0  0  0  0  0
   -4.7970   10.0720  -37.5320 C   0  0  0  0  0  0  0  0  0  0  0  0
   -8.3120   16.3420  -32.8970 C   0  0  1  0  0  0  0  0  0  0  0  0
   -8.8080   14.0630  -32.4060 O   0  0  0  0  0  0  0  0  0  0  0  0
  -11.4610   13.5630  -36.9490 C   0  0  0  0  0  0  0  0  0  0  0  0
   -9.6910   14.5990  -38.2790 C   0  0  0  0  0  0  0  0  0  0  0  0
   -4.8460   11.4130  -38.2360 C   0  0  0  0  0  0  0  0  0  0  0  0
   -8.7060   16.6300  -31.5470 N   0  0  0  0  0  0  0  0  0  0  0  0
   -6.8540   16.7080  -33.1340 C   0  0  0  0  0  0  0  0  0  0  0  0
  -12.4610   14.3840  -37.6880 C   0  0  0  0  0  0  0  0  0  0  0  0
  -10.6060   15.3460  -38.9640 C   0  0  0  0  0  0  0  0  0  0  0  0
   -9.7630   17.5740  -31.2860 C   0  0  0  0  0  0  0  0  0  0  0  0
   -6.6180   18.1230  -32.6450 C   0  0  0  0  0  0  0  0  0  0  0  0
   -5.9260   15.8060  -32.3870 C   0  0  0  0  0  0  0  0  0  0  0  0
  -12.0490   15.2290  -38.6420 C   0  0  0  0  0  0  0  0  0  0  0  0
  -10.1690   18.3250  -32.1460 O   0  0  0  0  0  0  0  0  0  0  0  0
  -12.9270   15.9490  -39.3140 F   0  0  0  0  0  0  0  0  0  0  0  0
  2  1  1  1
  3  2  1  0
  2  4  1  0
  3  5  1  0
  4  6  1  0
  4  7  1  6
  8  5  1  0
  5  9  2  0
  6 10  1  0
  8 11  1  6
  8 12  1  0
 10 13  1  0
 10 14  2  0
 15 11  1  0
 12 16  1  0
 13 17  1  0
 15 18  1  0
 15 19  2  0
 16 20  2  0
 16 21  1  0
 17 22  1  0
 18 23  1  1
 18 24  1  0
 20 25  1  0
 26 21  2  0
 23 27  1  0
 24 28  1  0
 24 29  1  0
 25 30  2  0
 30 26  1  0
 27 31  2  0
 30 32  1  0
V    7 *
A    2
 C13
A    3
 N12
A    4
 C19
A    5
 C47
A    6
 C20
A    7
 X  
A    8
 C04
A    9
 O48
A   10
 C21
A   11
 C02
A   12
 C05
A   13
 O22
A   14
 O23
A   15
 C01
A   16
 C06
A   17
 C50
A   18
 C57
A   19
 O03
A   20
 C07
A   21
 C11
A   22
 C53
A   23
 N58
A   24
 C78
A   25
 C08
A   26
 C10
A   28
 C81
A   29
 C82
A   30
 C09
A   31
 O60
A   32
 F1 
M  END
>  <XChem_code>  (839) 
AG7§21

>  <Occupancy>  (839) 
[1.0, 1.0, 1.0, 1.0, 1.0, 1.0, 1.0, 1.0, 1.0, 1.0, 1.0, 1.0, 1.0, 1.0, 1.0, 1.0, 1.0, 1.0, 1.0, 1.0, 1.0, 1.0, 1.0, 1.0, 1.0, 1.0, 1.0, 1.0, 1.0, 1.0, 1.0, 1.0, 1.0, 1.0, 1.0, 1.0, 1.0, 1.0, 1.0, 1.0, 1.0, 1.0, 1.0, 1.0]

>  <TempFactor>  (839) 
[11.1, 20.91, 12.33, 21.54, 28.02, 10.23, 11.74, 33.15, 31.53, 14.67, 25.91, 17.57, 20.17, 22.48, 24.62, 23.23, 20.48, 10.14, 10.8, 10.98, 11.96, 13.14, 11.93, 10.58, 15.79, 15.3, 17.28, 19.56, 15.73, 11.53, 12.15, 23.48, 27.32, 11.33, 13.47, 17.51, 18.05, 14.14, 15.23, 13.92, 11.83, 10.72, 9.75, 27.35]

>  <accession>  (839) 
3R0F_A

>  <description>  (839) 
Chain A, 3C protein [Enterovirus A71]

>  <evalue>  (839) 
6.09465e-58

>  <pdb_code>  (839) 
3R0F

>  <chain>  (839) 
A

>  <ligands>  (839) 
[{'chain_id': 'A', 'author_residue_number': 501, 'author_insertion_code': '', 'chem_comp_id': 'AG7', 'alternate_conformers': 0, 'entity_id': 2, 'struct_asym_id': 'C', 'residue_number': 1, 'chem_comp_name': '4-{2-(4-FLUORO-BENZYL)-6-METHYL-5-[(5-METHYL-ISOXAZOLE-3-CARBONYL)-AMINO]-4-OXO-HEPTANOYLAMINO}-5-(2-OXO-PYRROLIDIN-3-YL)-PENTANOIC ACID ETHYL ESTER', 'weight': 600.678, 'carbohydrate_polymer': False, 'branch_name': ''}, {'chain_id': 'B', 'author_residue_number': 501, 'author_insertion_code': '', 'chem_comp_id': 'AG7', 'alternate_conformers': 0, 'entity_id': 2, 'struct_asym_id': 'F', 'residue_number': 1, 'chem_comp_name': '4-{2-(4-FLUORO-BENZYL)-6-METHYL-5-[(5-METHYL-ISOXAZOLE-3-CARBONYL)-AMINO]-4-OXO-HEPTANOYLAMINO}-5-(2-OXO-PYRROLIDIN-3-YL)-PENTANOIC ACID ETHYL ESTER', 'weight': 600.678, 'carbohydrate_polymer': False, 'branch_name': ''}, {'chain_id': 'A', 'author_residue_number': 184, 'author_insertion_code': '', 'chem_comp_id': 'EDO', 'alternate_conformers': 0, 'entity_id': 3, 'struct_asym_id': 'D', 'residue_number': 1, 'chem_comp_name': '1,2-ETHANEDIOL', 'weight': 62.068, 'carbohydrate_polymer': False, 'branch_name': ''}, {'chain_id': 'A', 'author_residue_number': 185, 'author_insertion_code': '', 'chem_comp_id': 'EDO', 'alternate_conformers': 0, 'entity_id': 3, 'struct_asym_id': 'E', 'residue_number': 1, 'chem_comp_name': '1,2-ETHANEDIOL', 'weight': 62.068, 'carbohydrate_polymer': False, 'branch_name': ''}, {'chain_id': 'B', 'author_residue_number': 184, 'author_insertion_code': '', 'chem_comp_id': 'EDO', 'alternate_conformers': 0, 'entity_id': 3, 'struct_asym_id': 'G', 'residue_number': 1, 'chem_comp_name': '1,2-ETHANEDIOL', 'weight': 62.068, 'carbohydrate_polymer': False, 'branch_name': ''}, {'chain_id': 'B', 'author_residue_number': 185, 'author_insertion_code': '', 'chem_comp_id': 'EDO', 'alternate_conformers': 0, 'entity_id': 3, 'struct_asym_id': 'H', 'residue_number': 1, 'chem_comp_name': '1,2-ETHANEDIOL', 'weight': 62.068, 'carbohydrate_polymer': False, 'branch_name': ''}]

>  <ligand_codes>  (839) 
['AG7', 'AG7', 'EDO', 'EDO', 'EDO', 'EDO']

>  <cofactor_codes>  (839) 
[]

>  <has_cofactor>  (839) 
False

>  <covalent>  (839) 
True

>  <base_name>  (839) 
3R0F

>  <lig_resn>  (839) 
AG7

>  <lig_resi>  (839) 
501

>  <lig_chain>  (839) 
A

>  <lig_segi>  (839) 
C

>  <lig_alt>  (839) 


>  <polymer_chain>  (839) 
A

>  <single_smiles>  (839) 
CCOC(=O)CC[C@H](C[C@@H]1CCNC1=O)NC(=O)[C@@H](CC(=O)[C@@H](NC(=O)c2cc(C)on2)C(C)C)Cc3ccc(F)cc3

$$$$
AG7P21S34
     RDKit          3D

 31 31  0  0  0  0  0  0  0  0999 V2000
   -9.1080   12.8250  -36.5400 C   0  0  0  0  0  0  0  0  0  0  0  0
   -9.0190   13.1280  -35.0570 C   0  0  2  0  0  0  0  0  0  0  0  0
   -8.6730   14.5850  -34.7520 C   0  0  0  0  0  0  0  0  0  0  0  0
   -7.9420   12.2650  -34.4580 C   0  0  0  0  0  0  0  0  0  0  0  0
   -8.6380   14.8860  -33.2600 C   0  0  0  0  0  0  0  0  0  0  0  0
   -8.3980   11.0090  -33.8670 N   0  0  0  0  0  0  0  0  0  0  0  0
   -6.7840   12.4330  -34.6620 O   0  0  0  0  0  0  0  0  0  0  0  0
   -8.3120   16.3420  -32.8970 C   0  0  1  0  0  0  0  0  0  0  0  0
   -8.8080   14.0630  -32.4060 O   0  0  0  0  0  0  0  0  0  0  0  0
   -7.4250    9.9840  -33.4820 C   0  0  1  0  0  0  0  0  0  0  0  0
   -8.7060   16.6300  -31.5470 N   0  0  0  0  0  0  0  0  0  0  0  0
   -6.8540   16.7080  -33.1340 C   0  0  0  0  0  0  0  0  0  0  0  0
   -7.3730    9.8180  -31.9860 C   0  0  0  0  0  0  0  0  0  0  0  0
   -7.8000    8.7080  -34.2240 C   0  0  2  0  0  0  0  0  0  0  0  0
   -9.7630   17.5740  -31.2860 C   0  0  0  0  0  0  0  0  0  0  0  0
   -6.6180   18.1230  -32.6450 C   0  0  0  0  0  0  0  0  0  0  0  0
   -5.9260   15.8060  -32.3870 C   0  0  0  0  0  0  0  0  0  0  0  0
   -6.9020   11.0990  -31.2870 C   0  0  1  0  0  0  0  0  0  0  0  0
   -7.6930    8.7200  -35.7320 C   0  0  0  0  0  0  0  0  0  0  0  0
   -9.6610    8.3310  -33.8000 R   0  0  0  0  0  0  0  0  0  0  0  0
  -10.1690   18.3250  -32.1460 O   0  0  0  0  0  0  0  0  0  0  0  0
   -6.8840   10.9300  -29.8210 C   0  0  0  0  0  0  0  0  0  0  0  0
   -5.5070   11.5250  -31.6520 C   0  0  0  0  0  0  0  0  0  0  0  0
   -6.2700    8.9490  -36.1640 C   0  0  0  0  0  0  0  0  0  0  0  0
   -5.7340   11.6000  -29.3140 N   0  0  0  0  0  0  0  0  0  0  0  0
   -7.5830   10.2190  -29.1600 O   0  0  0  0  0  0  0  0  0  0  0  0
   -5.0970   12.3000  -30.4180 C   0  0  0  0  0  0  0  0  0  0  0  0
   -6.0890    9.7380  -37.1470 O   0  0  0  0  0  0  0  0  0  0  0  0
   -5.3370    8.3840  -35.5820 O   0  0  0  0  0  0  0  0  0  0  0  0
   -4.7970   10.0720  -37.5320 C   0  0  0  0  0  0  0  0  0  0  0  0
   -4.8460   11.4130  -38.2360 C   0  0  0  0  0  0  0  0  0  0  0  0
  2  1  1  6
  2  3  1  0
  2  4  1  0
  5  3  1  0
  6  4  1  0
  4  7  2  0
  5  8  1  0
  5  9  2  0
  6 10  1  0
  8 11  1  1
  8 12  1  0
 10 13  1  1
 10 14  1  0
 11 15  1  0
 12 16  1  0
 12 17  1  0
 18 13  1  6
 14 19  1  0
 14 20  1  6
 15 21  2  0
 18 22  1  0
 18 23  1  0
 19 24  1  0
 22 25  1  0
 22 26  2  0
 27 23  1  0
 24 28  1  0
 24 29  2  0
 25 27  1  0
 28 30  1  0
 30 31  1  0
V   20 *
A    2
 C04
A    3
 C02
A    4
 C47
A    5
 C01
A    6
 N12
A    7
 O48
A    8
 C57
A    9
 O03
A   10
 C13
A   11
 N58
A   12
 C78
A   13
 C14
A   14
 C19
A   16
 C81
A   17
 C82
A   18
 C15
A   19
 C20
A   20
 X  
A   21
 O60
A   22
 C16
A   23
 C84
A   24
 C21
A   25
 N17
A   26
 O18
A   27
 C83
A   28
 O22
A   29
 O23
A   30
 C50
A   31
 C53
M  END
>  <XChem_code>  (840) 
AG7§21

>  <Occupancy>  (840) 
[1.0, 1.0, 1.0, 1.0, 1.0, 1.0, 1.0, 1.0, 1.0, 1.0, 1.0, 1.0, 1.0, 1.0, 1.0, 1.0, 1.0, 1.0, 1.0, 1.0, 1.0, 1.0, 1.0, 1.0, 1.0, 1.0, 1.0, 1.0, 1.0, 1.0, 1.0, 1.0, 1.0, 1.0, 1.0, 1.0, 1.0, 1.0, 1.0, 1.0, 1.0, 1.0, 1.0, 1.0]

>  <TempFactor>  (840) 
[11.1, 20.91, 12.33, 21.54, 28.02, 10.23, 11.74, 33.15, 31.53, 14.67, 25.91, 17.57, 20.17, 22.48, 24.62, 23.23, 20.48, 10.14, 10.8, 10.98, 11.96, 13.14, 11.93, 10.58, 15.79, 15.3, 17.28, 19.56, 15.73, 11.53, 12.15, 23.48, 27.32, 11.33, 13.47, 17.51, 18.05, 14.14, 15.23, 13.92, 11.83, 10.72, 9.75, 27.35]

>  <accession>  (840) 
3R0F_A

>  <description>  (840) 
Chain A, 3C protein [Enterovirus A71]

>  <evalue>  (840) 
6.09465e-58

>  <pdb_code>  (840) 
3R0F

>  <chain>  (840) 
A

>  <ligands>  (840) 
[{'chain_id': 'A', 'author_residue_number': 501, 'author_insertion_code': '', 'chem_comp_id': 'AG7', 'alternate_conformers': 0, 'entity_id': 2, 'struct_asym_id': 'C', 'residue_number': 1, 'chem_comp_name': '4-{2-(4-FLUORO-BENZYL)-6-METHYL-5-[(5-METHYL-ISOXAZOLE-3-CARBONYL)-AMINO]-4-OXO-HEPTANOYLAMINO}-5-(2-OXO-PYRROLIDIN-3-YL)-PENTANOIC ACID ETHYL ESTER', 'weight': 600.678, 'carbohydrate_polymer': False, 'branch_name': ''}, {'chain_id': 'B', 'author_residue_number': 501, 'author_insertion_code': '', 'chem_comp_id': 'AG7', 'alternate_conformers': 0, 'entity_id': 2, 'struct_asym_id': 'F', 'residue_number': 1, 'chem_comp_name': '4-{2-(4-FLUORO-BENZYL)-6-METHYL-5-[(5-METHYL-ISOXAZOLE-3-CARBONYL)-AMINO]-4-OXO-HEPTANOYLAMINO}-5-(2-OXO-PYRROLIDIN-3-YL)-PENTANOIC ACID ETHYL ESTER', 'weight': 600.678, 'carbohydrate_polymer': False, 'branch_name': ''}, {'chain_id': 'A', 'author_residue_number': 184, 'author_insertion_code': '', 'chem_comp_id': 'EDO', 'alternate_conformers': 0, 'entity_id': 3, 'struct_asym_id': 'D', 'residue_number': 1, 'chem_comp_name': '1,2-ETHANEDIOL', 'weight': 62.068, 'carbohydrate_polymer': False, 'branch_name': ''}, {'chain_id': 'A', 'author_residue_number': 185, 'author_insertion_code': '', 'chem_comp_id': 'EDO', 'alternate_conformers': 0, 'entity_id': 3, 'struct_asym_id': 'E', 'residue_number': 1, 'chem_comp_name': '1,2-ETHANEDIOL', 'weight': 62.068, 'carbohydrate_polymer': False, 'branch_name': ''}, {'chain_id': 'B', 'author_residue_number': 184, 'author_insertion_code': '', 'chem_comp_id': 'EDO', 'alternate_conformers': 0, 'entity_id': 3, 'struct_asym_id': 'G', 'residue_number': 1, 'chem_comp_name': '1,2-ETHANEDIOL', 'weight': 62.068, 'carbohydrate_polymer': False, 'branch_name': ''}, {'chain_id': 'B', 'author_residue_number': 185, 'author_insertion_code': '', 'chem_comp_id': 'EDO', 'alternate_conformers': 0, 'entity_id': 3, 'struct_asym_id': 'H', 'residue_number': 1, 'chem_comp_name': '1,2-ETHANEDIOL', 'weight': 62.068, 'carbohydrate_polymer': False, 'branch_name': ''}]

>  <ligand_codes>  (840) 
['AG7', 'AG7', 'EDO', 'EDO', 'EDO', 'EDO']

>  <cofactor_codes>  (840) 
[]

>  <has_cofactor>  (840) 
False

>  <covalent>  (840) 
True

>  <base_name>  (840) 
3R0F

>  <lig_resn>  (840) 
AG7

>  <lig_resi>  (840) 
501

>  <lig_chain>  (840) 
A

>  <lig_segi>  (840) 
C

>  <lig_alt>  (840) 


>  <polymer_chain>  (840) 
A

>  <single_smiles>  (840) 
CCOC(=O)CC[C@H](C[C@@H]1CCNC1=O)NC(=O)[C@@H](CC(=O)[C@@H](NC(=O)c2cc(C)on2)C(C)C)Cc3ccc(F)cc3

$$$$
AG7P21S35
     RDKit          3D

 14 13  0  0  0  0  0  0  0  0999 V2000
   -9.1080   12.8250  -36.5400 C   0  0  0  0  0  0  0  0  0  0  0  0
   -9.0190   13.1280  -35.0570 C   0  0  2  0  0  0  0  0  0  0  0  0
   -8.6730   14.5850  -34.7520 C   0  0  0  0  0  0  0  0  0  0  0  0
   -7.9420   12.2650  -34.4580 C   0  0  0  0  0  0  0  0  0  0  0  0
   -8.6380   14.8860  -33.2600 C   0  0  0  0  0  0  0  0  0  0  0  0
   -6.7840   12.4330  -34.6620 O   0  0  0  0  0  0  0  0  0  0  0  0
   -8.3120   16.3420  -32.8970 C   0  0  1  0  0  0  0  0  0  0  0  0
   -8.8080   14.0630  -32.4060 O   0  0  0  0  0  0  0  0  0  0  0  0
   -8.7060   16.6300  -31.5470 N   0  0  0  0  0  0  0  0  0  0  0  0
   -6.8540   16.7080  -33.1340 C   0  0  0  0  0  0  0  0  0  0  0  0
   -9.7630   17.5740  -31.2860 C   0  0  0  0  0  0  0  0  0  0  0  0
   -6.6180   18.1230  -32.6450 C   0  0  0  0  0  0  0  0  0  0  0  0
   -5.9260   15.8060  -32.3870 C   0  0  0  0  0  0  0  0  0  0  0  0
  -10.1690   18.3250  -32.1460 O   0  0  0  0  0  0  0  0  0  0  0  0
  2  1  1  6
  2  3  1  0
  2  4  1  0
  5  3  1  0
  4  6  2  0
  5  7  1  0
  5  8  2  0
  7  9  1  1
  7 10  1  0
  9 11  1  0
 10 12  1  0
 10 13  1  0
 11 14  2  0
A    2
 C04
A    3
 C02
A    5
 C01
A    6
 O48
A    7
 C57
A    8
 O03
A    9
 N58
A   10
 C78
A   12
 C81
A   13
 C82
A   14
 O60
M  END
>  <XChem_code>  (841) 
AG7§21

>  <Occupancy>  (841) 
[1.0, 1.0, 1.0, 1.0, 1.0, 1.0, 1.0, 1.0, 1.0, 1.0, 1.0, 1.0, 1.0, 1.0, 1.0, 1.0, 1.0, 1.0, 1.0, 1.0, 1.0, 1.0, 1.0, 1.0, 1.0, 1.0, 1.0, 1.0, 1.0, 1.0, 1.0, 1.0, 1.0, 1.0, 1.0, 1.0, 1.0, 1.0, 1.0, 1.0, 1.0, 1.0, 1.0, 1.0]

>  <TempFactor>  (841) 
[11.1, 20.91, 12.33, 21.54, 28.02, 10.23, 11.74, 33.15, 31.53, 14.67, 25.91, 17.57, 20.17, 22.48, 24.62, 23.23, 20.48, 10.14, 10.8, 10.98, 11.96, 13.14, 11.93, 10.58, 15.79, 15.3, 17.28, 19.56, 15.73, 11.53, 12.15, 23.48, 27.32, 11.33, 13.47, 17.51, 18.05, 14.14, 15.23, 13.92, 11.83, 10.72, 9.75, 27.35]

>  <accession>  (841) 
3R0F_A

>  <description>  (841) 
Chain A, 3C protein [Enterovirus A71]

>  <evalue>  (841) 
6.09465e-58

>  <pdb_code>  (841) 
3R0F

>  <chain>  (841) 
A

>  <ligands>  (841) 
[{'chain_id': 'A', 'author_residue_number': 501, 'author_insertion_code': '', 'chem_comp_id': 'AG7', 'alternate_conformers': 0, 'entity_id': 2, 'struct_asym_id': 'C', 'residue_number': 1, 'chem_comp_name': '4-{2-(4-FLUORO-BENZYL)-6-METHYL-5-[(5-METHYL-ISOXAZOLE-3-CARBONYL)-AMINO]-4-OXO-HEPTANOYLAMINO}-5-(2-OXO-PYRROLIDIN-3-YL)-PENTANOIC ACID ETHYL ESTER', 'weight': 600.678, 'carbohydrate_polymer': False, 'branch_name': ''}, {'chain_id': 'B', 'author_residue_number': 501, 'author_insertion_code': '', 'chem_comp_id': 'AG7', 'alternate_conformers': 0, 'entity_id': 2, 'struct_asym_id': 'F', 'residue_number': 1, 'chem_comp_name': '4-{2-(4-FLUORO-BENZYL)-6-METHYL-5-[(5-METHYL-ISOXAZOLE-3-CARBONYL)-AMINO]-4-OXO-HEPTANOYLAMINO}-5-(2-OXO-PYRROLIDIN-3-YL)-PENTANOIC ACID ETHYL ESTER', 'weight': 600.678, 'carbohydrate_polymer': False, 'branch_name': ''}, {'chain_id': 'A', 'author_residue_number': 184, 'author_insertion_code': '', 'chem_comp_id': 'EDO', 'alternate_conformers': 0, 'entity_id': 3, 'struct_asym_id': 'D', 'residue_number': 1, 'chem_comp_name': '1,2-ETHANEDIOL', 'weight': 62.068, 'carbohydrate_polymer': False, 'branch_name': ''}, {'chain_id': 'A', 'author_residue_number': 185, 'author_insertion_code': '', 'chem_comp_id': 'EDO', 'alternate_conformers': 0, 'entity_id': 3, 'struct_asym_id': 'E', 'residue_number': 1, 'chem_comp_name': '1,2-ETHANEDIOL', 'weight': 62.068, 'carbohydrate_polymer': False, 'branch_name': ''}, {'chain_id': 'B', 'author_residue_number': 184, 'author_insertion_code': '', 'chem_comp_id': 'EDO', 'alternate_conformers': 0, 'entity_id': 3, 'struct_asym_id': 'G', 'residue_number': 1, 'chem_comp_name': '1,2-ETHANEDIOL', 'weight': 62.068, 'carbohydrate_polymer': False, 'branch_name': ''}, {'chain_id': 'B', 'author_residue_number': 185, 'author_insertion_code': '', 'chem_comp_id': 'EDO', 'alternate_conformers': 0, 'entity_id': 3, 'struct_asym_id': 'H', 'residue_number': 1, 'chem_comp_name': '1,2-ETHANEDIOL', 'weight': 62.068, 'carbohydrate_polymer': False, 'branch_name': ''}]

>  <ligand_codes>  (841) 
['AG7', 'AG7', 'EDO', 'EDO', 'EDO', 'EDO']

>  <cofactor_codes>  (841) 
[]

>  <has_cofactor>  (841) 
False

>  <covalent>  (841) 
True

>  <base_name>  (841) 
3R0F

>  <lig_resn>  (841) 
AG7

>  <lig_resi>  (841) 
501

>  <lig_chain>  (841) 
A

>  <lig_segi>  (841) 
C

>  <lig_alt>  (841) 


>  <polymer_chain>  (841) 
A

>  <single_smiles>  (841) 
CCOC(=O)CC[C@H](C[C@@H]1CCNC1=O)NC(=O)[C@@H](CC(=O)[C@@H](NC(=O)c2cc(C)on2)C(C)C)Cc3ccc(F)cc3

$$$$
AG7P21S36
     RDKit          3D

 15 14  0  0  0  0  0  0  0  0999 V2000
   -9.1080   12.8250  -36.5400 C   0  0  0  0  0  0  0  0  0  0  0  0
   -9.0190   13.1280  -35.0570 C   0  0  2  0  0  0  0  0  0  0  0  0
   -8.6730   14.5850  -34.7520 C   0  0  0  0  0  0  0  0  0  0  0  0
   -7.9420   12.2650  -34.4580 C   0  0  0  0  0  0  0  0  0  0  0  0
   -8.6380   14.8860  -33.2600 C   0  0  0  0  0  0  0  0  0  0  0  0
   -8.3980   11.0090  -33.8670 N   0  0  0  0  0  0  0  0  0  0  0  0
   -6.7840   12.4330  -34.6620 O   0  0  0  0  0  0  0  0  0  0  0  0
   -8.3120   16.3420  -32.8970 C   0  0  1  0  0  0  0  0  0  0  0  0
   -8.8080   14.0630  -32.4060 O   0  0  0  0  0  0  0  0  0  0  0  0
   -8.7060   16.6300  -31.5470 N   0  0  0  0  0  0  0  0  0  0  0  0
   -6.8540   16.7080  -33.1340 C   0  0  0  0  0  0  0  0  0  0  0  0
   -9.7630   17.5740  -31.2860 C   0  0  0  0  0  0  0  0  0  0  0  0
   -6.6180   18.1230  -32.6450 C   0  0  0  0  0  0  0  0  0  0  0  0
   -5.9260   15.8060  -32.3870 C   0  0  0  0  0  0  0  0  0  0  0  0
  -10.1690   18.3250  -32.1460 O   0  0  0  0  0  0  0  0  0  0  0  0
  2  1  1  6
  2  3  1  0
  2  4  1  0
  5  3  1  0
  6  4  1  0
  4  7  2  0
  5  8  1  0
  5  9  2  0
  8 10  1  1
  8 11  1  0
 10 12  1  0
 11 13  1  0
 11 14  1  0
 12 15  2  0
A    2
 C04
A    3
 C02
A    4
 C47
A    5
 C01
A    7
 O48
A    8
 C57
A    9
 O03
A   10
 N58
A   11
 C78
A   13
 C81
A   14
 C82
A   15
 O60
M  END
>  <XChem_code>  (842) 
AG7§21

>  <Occupancy>  (842) 
[1.0, 1.0, 1.0, 1.0, 1.0, 1.0, 1.0, 1.0, 1.0, 1.0, 1.0, 1.0, 1.0, 1.0, 1.0, 1.0, 1.0, 1.0, 1.0, 1.0, 1.0, 1.0, 1.0, 1.0, 1.0, 1.0, 1.0, 1.0, 1.0, 1.0, 1.0, 1.0, 1.0, 1.0, 1.0, 1.0, 1.0, 1.0, 1.0, 1.0, 1.0, 1.0, 1.0, 1.0]

>  <TempFactor>  (842) 
[11.1, 20.91, 12.33, 21.54, 28.02, 10.23, 11.74, 33.15, 31.53, 14.67, 25.91, 17.57, 20.17, 22.48, 24.62, 23.23, 20.48, 10.14, 10.8, 10.98, 11.96, 13.14, 11.93, 10.58, 15.79, 15.3, 17.28, 19.56, 15.73, 11.53, 12.15, 23.48, 27.32, 11.33, 13.47, 17.51, 18.05, 14.14, 15.23, 13.92, 11.83, 10.72, 9.75, 27.35]

>  <accession>  (842) 
3R0F_A

>  <description>  (842) 
Chain A, 3C protein [Enterovirus A71]

>  <evalue>  (842) 
6.09465e-58

>  <pdb_code>  (842) 
3R0F

>  <chain>  (842) 
A

>  <ligands>  (842) 
[{'chain_id': 'A', 'author_residue_number': 501, 'author_insertion_code': '', 'chem_comp_id': 'AG7', 'alternate_conformers': 0, 'entity_id': 2, 'struct_asym_id': 'C', 'residue_number': 1, 'chem_comp_name': '4-{2-(4-FLUORO-BENZYL)-6-METHYL-5-[(5-METHYL-ISOXAZOLE-3-CARBONYL)-AMINO]-4-OXO-HEPTANOYLAMINO}-5-(2-OXO-PYRROLIDIN-3-YL)-PENTANOIC ACID ETHYL ESTER', 'weight': 600.678, 'carbohydrate_polymer': False, 'branch_name': ''}, {'chain_id': 'B', 'author_residue_number': 501, 'author_insertion_code': '', 'chem_comp_id': 'AG7', 'alternate_conformers': 0, 'entity_id': 2, 'struct_asym_id': 'F', 'residue_number': 1, 'chem_comp_name': '4-{2-(4-FLUORO-BENZYL)-6-METHYL-5-[(5-METHYL-ISOXAZOLE-3-CARBONYL)-AMINO]-4-OXO-HEPTANOYLAMINO}-5-(2-OXO-PYRROLIDIN-3-YL)-PENTANOIC ACID ETHYL ESTER', 'weight': 600.678, 'carbohydrate_polymer': False, 'branch_name': ''}, {'chain_id': 'A', 'author_residue_number': 184, 'author_insertion_code': '', 'chem_comp_id': 'EDO', 'alternate_conformers': 0, 'entity_id': 3, 'struct_asym_id': 'D', 'residue_number': 1, 'chem_comp_name': '1,2-ETHANEDIOL', 'weight': 62.068, 'carbohydrate_polymer': False, 'branch_name': ''}, {'chain_id': 'A', 'author_residue_number': 185, 'author_insertion_code': '', 'chem_comp_id': 'EDO', 'alternate_conformers': 0, 'entity_id': 3, 'struct_asym_id': 'E', 'residue_number': 1, 'chem_comp_name': '1,2-ETHANEDIOL', 'weight': 62.068, 'carbohydrate_polymer': False, 'branch_name': ''}, {'chain_id': 'B', 'author_residue_number': 184, 'author_insertion_code': '', 'chem_comp_id': 'EDO', 'alternate_conformers': 0, 'entity_id': 3, 'struct_asym_id': 'G', 'residue_number': 1, 'chem_comp_name': '1,2-ETHANEDIOL', 'weight': 62.068, 'carbohydrate_polymer': False, 'branch_name': ''}, {'chain_id': 'B', 'author_residue_number': 185, 'author_insertion_code': '', 'chem_comp_id': 'EDO', 'alternate_conformers': 0, 'entity_id': 3, 'struct_asym_id': 'H', 'residue_number': 1, 'chem_comp_name': '1,2-ETHANEDIOL', 'weight': 62.068, 'carbohydrate_polymer': False, 'branch_name': ''}]

>  <ligand_codes>  (842) 
['AG7', 'AG7', 'EDO', 'EDO', 'EDO', 'EDO']

>  <cofactor_codes>  (842) 
[]

>  <has_cofactor>  (842) 
False

>  <covalent>  (842) 
True

>  <base_name>  (842) 
3R0F

>  <lig_resn>  (842) 
AG7

>  <lig_resi>  (842) 
501

>  <lig_chain>  (842) 
A

>  <lig_segi>  (842) 
C

>  <lig_alt>  (842) 


>  <polymer_chain>  (842) 
A

>  <single_smiles>  (842) 
CCOC(=O)CC[C@H](C[C@@H]1CCNC1=O)NC(=O)[C@@H](CC(=O)[C@@H](NC(=O)c2cc(C)on2)C(C)C)Cc3ccc(F)cc3

$$$$
AG7P21S37
     RDKit          3D

 31 31  0  0  0  0  0  0  0  0999 V2000
   -9.1080   12.8250  -36.5400 C   0  0  0  0  0  0  0  0  0  0  0  0
   -9.0190   13.1280  -35.0570 C   0  0  1  0  0  0  0  0  0  0  0  0
   -7.9420   12.2650  -34.4580 C   0  0  0  0  0  0  0  0  0  0  0  0
   -8.6730   14.5850  -34.7520 C   0  0  0  0  0  0  0  0  0  0  0  0
   -8.3980   11.0090  -33.8670 N   0  0  0  0  0  0  0  0  0  0  0  0
   -6.7840   12.4330  -34.6620 O   0  0  0  0  0  0  0  0  0  0  0  0
   -8.6380   14.8860  -33.2600 C   0  0  0  0  0  0  0  0  0  0  0  0
   -7.4250    9.9840  -33.4820 C   0  0  1  0  0  0  0  0  0  0  0  0
   -8.8080   14.0630  -32.4060 O   0  0  0  0  0  0  0  0  0  0  0  0
   -8.3120   16.3420  -32.8970 C   0  0  1  0  0  0  0  0  0  0  0  0
   -7.3730    9.8180  -31.9860 C   0  0  0  0  0  0  0  0  0  0  0  0
   -7.8000    8.7080  -34.2240 C   0  0  2  0  0  0  0  0  0  0  0  0
   -8.7060   16.6300  -31.5470 N   0  0  0  0  0  0  0  0  0  0  0  0
   -6.8540   16.7080  -33.1340 C   0  0  0  0  0  0  0  0  0  0  0  0
   -7.6930    8.7200  -35.7320 C   0  0  0  0  0  0  0  0  0  0  0  0
   -9.6610    8.3310  -33.8000 R   0  0  0  0  0  0  0  0  0  0  0  0
   -9.7630   17.5740  -31.2860 C   0  0  0  0  0  0  0  0  0  0  0  0
   -6.6180   18.1230  -32.6450 C   0  0  0  0  0  0  0  0  0  0  0  0
   -5.9260   15.8060  -32.3870 C   0  0  0  0  0  0  0  0  0  0  0  0
   -6.2700    8.9490  -36.1640 C   0  0  0  0  0  0  0  0  0  0  0  0
  -10.1380   17.8080  -29.8610 C   0  0  0  0  0  0  0  0  0  0  0  0
  -10.1690   18.3250  -32.1460 O   0  0  0  0  0  0  0  0  0  0  0  0
   -6.0890    9.7380  -37.1470 O   0  0  0  0  0  0  0  0  0  0  0  0
   -5.3370    8.3840  -35.5820 O   0  0  0  0  0  0  0  0  0  0  0  0
  -11.1190   18.7800  -29.4370 C   0  0  0  0  0  0  0  0  0  0  0  0
   -9.8870   17.0260  -28.8310 N   0  0  0  0  0  0  0  0  0  0  0  0
   -4.7970   10.0720  -37.5320 C   0  0  0  0  0  0  0  0  0  0  0  0
  -11.2290   18.6960  -28.1430 C   0  0  0  0  0  0  0  0  0  0  0  0
  -10.5080   17.5930  -27.7590 O   0  0  0  0  0  0  0  0  0  0  0  0
   -4.8460   11.4130  -38.2360 C   0  0  0  0  0  0  0  0  0  0  0  0
  -12.1640   19.5270  -27.3100 C   0  0  0  0  0  0  0  0  0  0  0  0
  2  1  1  6
  2  3  1  0
  2  4  1  0
  5  3  1  0
  3  6  2  0
  7  4  1  0
  5  8  1  0
  7  9  2  0
  7 10  1  0
  8 11  1  1
  8 12  1  0
 10 13  1  1
 10 14  1  0
 12 15  1  0
 12 16  1  6
 13 17  1  0
 14 18  1  0
 14 19  1  0
 15 20  1  0
 21 17  1  0
 17 22  2  0
 20 23  1  0
 20 24  2  0
 21 25  1  0
 21 26  2  0
 23 27  1  0
 25 28  2  0
 29 26  1  0
 27 30  1  0
 28 31  1  0
 28 29  1  0
V   16 *
A    2
 C04
A    3
 C47
A    4
 C02
A    5
 N12
A    6
 O48
A    7
 C01
A    8
 C13
A    9
 O03
A   10
 C57
A   12
 C19
A   13
 N58
A   14
 C78
A   15
 C20
A   16
 X  
A   17
 C59
A   18
 C81
A   19
 C82
A   20
 C21
A   21
 C1 
A   22
 O60
A   23
 O22
A   24
 O23
A   25
 C2 
A   26
 N5 
A   27
 C50
A   28
 C3 
A   29
 O4 
A   30
 C53
A   31
 C4 
M  END
>  <XChem_code>  (843) 
AG7§21

>  <Occupancy>  (843) 
[1.0, 1.0, 1.0, 1.0, 1.0, 1.0, 1.0, 1.0, 1.0, 1.0, 1.0, 1.0, 1.0, 1.0, 1.0, 1.0, 1.0, 1.0, 1.0, 1.0, 1.0, 1.0, 1.0, 1.0, 1.0, 1.0, 1.0, 1.0, 1.0, 1.0, 1.0, 1.0, 1.0, 1.0, 1.0, 1.0, 1.0, 1.0, 1.0, 1.0, 1.0, 1.0, 1.0, 1.0]

>  <TempFactor>  (843) 
[11.1, 20.91, 12.33, 21.54, 28.02, 10.23, 11.74, 33.15, 31.53, 14.67, 25.91, 17.57, 20.17, 22.48, 24.62, 23.23, 20.48, 10.14, 10.8, 10.98, 11.96, 13.14, 11.93, 10.58, 15.79, 15.3, 17.28, 19.56, 15.73, 11.53, 12.15, 23.48, 27.32, 11.33, 13.47, 17.51, 18.05, 14.14, 15.23, 13.92, 11.83, 10.72, 9.75, 27.35]

>  <accession>  (843) 
3R0F_A

>  <description>  (843) 
Chain A, 3C protein [Enterovirus A71]

>  <evalue>  (843) 
6.09465e-58

>  <pdb_code>  (843) 
3R0F

>  <chain>  (843) 
A

>  <ligands>  (843) 
[{'chain_id': 'A', 'author_residue_number': 501, 'author_insertion_code': '', 'chem_comp_id': 'AG7', 'alternate_conformers': 0, 'entity_id': 2, 'struct_asym_id': 'C', 'residue_number': 1, 'chem_comp_name': '4-{2-(4-FLUORO-BENZYL)-6-METHYL-5-[(5-METHYL-ISOXAZOLE-3-CARBONYL)-AMINO]-4-OXO-HEPTANOYLAMINO}-5-(2-OXO-PYRROLIDIN-3-YL)-PENTANOIC ACID ETHYL ESTER', 'weight': 600.678, 'carbohydrate_polymer': False, 'branch_name': ''}, {'chain_id': 'B', 'author_residue_number': 501, 'author_insertion_code': '', 'chem_comp_id': 'AG7', 'alternate_conformers': 0, 'entity_id': 2, 'struct_asym_id': 'F', 'residue_number': 1, 'chem_comp_name': '4-{2-(4-FLUORO-BENZYL)-6-METHYL-5-[(5-METHYL-ISOXAZOLE-3-CARBONYL)-AMINO]-4-OXO-HEPTANOYLAMINO}-5-(2-OXO-PYRROLIDIN-3-YL)-PENTANOIC ACID ETHYL ESTER', 'weight': 600.678, 'carbohydrate_polymer': False, 'branch_name': ''}, {'chain_id': 'A', 'author_residue_number': 184, 'author_insertion_code': '', 'chem_comp_id': 'EDO', 'alternate_conformers': 0, 'entity_id': 3, 'struct_asym_id': 'D', 'residue_number': 1, 'chem_comp_name': '1,2-ETHANEDIOL', 'weight': 62.068, 'carbohydrate_polymer': False, 'branch_name': ''}, {'chain_id': 'A', 'author_residue_number': 185, 'author_insertion_code': '', 'chem_comp_id': 'EDO', 'alternate_conformers': 0, 'entity_id': 3, 'struct_asym_id': 'E', 'residue_number': 1, 'chem_comp_name': '1,2-ETHANEDIOL', 'weight': 62.068, 'carbohydrate_polymer': False, 'branch_name': ''}, {'chain_id': 'B', 'author_residue_number': 184, 'author_insertion_code': '', 'chem_comp_id': 'EDO', 'alternate_conformers': 0, 'entity_id': 3, 'struct_asym_id': 'G', 'residue_number': 1, 'chem_comp_name': '1,2-ETHANEDIOL', 'weight': 62.068, 'carbohydrate_polymer': False, 'branch_name': ''}, {'chain_id': 'B', 'author_residue_number': 185, 'author_insertion_code': '', 'chem_comp_id': 'EDO', 'alternate_conformers': 0, 'entity_id': 3, 'struct_asym_id': 'H', 'residue_number': 1, 'chem_comp_name': '1,2-ETHANEDIOL', 'weight': 62.068, 'carbohydrate_polymer': False, 'branch_name': ''}]

>  <ligand_codes>  (843) 
['AG7', 'AG7', 'EDO', 'EDO', 'EDO', 'EDO']

>  <cofactor_codes>  (843) 
[]

>  <has_cofactor>  (843) 
False

>  <covalent>  (843) 
True

>  <base_name>  (843) 
3R0F

>  <lig_resn>  (843) 
AG7

>  <lig_resi>  (843) 
501

>  <lig_chain>  (843) 
A

>  <lig_segi>  (843) 
C

>  <lig_alt>  (843) 


>  <polymer_chain>  (843) 
A

>  <single_smiles>  (843) 
CCOC(=O)CC[C@H](C[C@@H]1CCNC1=O)NC(=O)[C@@H](CC(=O)[C@@H](NC(=O)c2cc(C)on2)C(C)C)Cc3ccc(F)cc3

$$$$
AG7P21S38
     RDKit          3D

 23 22  0  0  0  0  0  0  0  0999 V2000
   -9.1080   12.8250  -36.5400 C   0  0  0  0  0  0  0  0  0  0  0  0
   -9.0190   13.1280  -35.0570 C   0  0  1  0  0  0  0  0  0  0  0  0
   -7.9420   12.2650  -34.4580 C   0  0  0  0  0  0  0  0  0  0  0  0
   -8.6730   14.5850  -34.7520 C   0  0  0  0  0  0  0  0  0  0  0  0
   -8.3980   11.0090  -33.8670 N   0  0  0  0  0  0  0  0  0  0  0  0
   -6.7840   12.4330  -34.6620 O   0  0  0  0  0  0  0  0  0  0  0  0
   -8.6380   14.8860  -33.2600 C   0  0  0  0  0  0  0  0  0  0  0  0
   -7.4250    9.9840  -33.4820 C   0  0  1  0  0  0  0  0  0  0  0  0
   -8.3120   16.3420  -32.8970 C   0  0  1  0  0  0  0  0  0  0  0  0
   -8.8080   14.0630  -32.4060 O   0  0  0  0  0  0  0  0  0  0  0  0
   -7.3730    9.8180  -31.9860 C   0  0  0  0  0  0  0  0  0  0  0  0
   -7.8000    8.7080  -34.2240 C   0  0  2  0  0  0  0  0  0  0  0  0
   -8.7060   16.6300  -31.5470 N   0  0  0  0  0  0  0  0  0  0  0  0
   -6.8540   16.7080  -33.1340 C   0  0  0  0  0  0  0  0  0  0  0  0
   -7.6930    8.7200  -35.7320 C   0  0  0  0  0  0  0  0  0  0  0  0
   -9.6610    8.3310  -33.8000 R   0  0  0  0  0  0  0  0  0  0  0  0
   -6.6180   18.1230  -32.6450 C   0  0  0  0  0  0  0  0  0  0  0  0
   -5.9260   15.8060  -32.3870 C   0  0  0  0  0  0  0  0  0  0  0  0
   -6.2700    8.9490  -36.1640 C   0  0  0  0  0  0  0  0  0  0  0  0
   -6.0890    9.7380  -37.1470 O   0  0  0  0  0  0  0  0  0  0  0  0
   -5.3370    8.3840  -35.5820 O   0  0  0  0  0  0  0  0  0  0  0  0
   -4.7970   10.0720  -37.5320 C   0  0  0  0  0  0  0  0  0  0  0  0
   -4.8460   11.4130  -38.2360 C   0  0  0  0  0  0  0  0  0  0  0  0
  2  1  1  6
  2  3  1  0
  2  4  1  0
  5  3  1  0
  3  6  2  0
  7  4  1  0
  5  8  1  0
  7  9  1  0
  7 10  2  0
  8 11  1  1
  8 12  1  0
  9 13  1  1
  9 14  1  0
 12 15  1  0
 12 16  1  6
 14 17  1  0
 14 18  1  0
 15 19  1  0
 19 20  1  0
 19 21  2  0
 20 22  1  0
 22 23  1  0
V   16 *
A    2
 C04
A    3
 C47
A    4
 C02
A    5
 N12
A    6
 O48
A    7
 C01
A    8
 C13
A    9
 C57
A   10
 O03
A   12
 C19
A   14
 C78
A   15
 C20
A   16
 X  
A   17
 C81
A   18
 C82
A   19
 C21
A   20
 O22
A   21
 O23
A   22
 C50
A   23
 C53
M  END
>  <XChem_code>  (844) 
AG7§21

>  <Occupancy>  (844) 
[1.0, 1.0, 1.0, 1.0, 1.0, 1.0, 1.0, 1.0, 1.0, 1.0, 1.0, 1.0, 1.0, 1.0, 1.0, 1.0, 1.0, 1.0, 1.0, 1.0, 1.0, 1.0, 1.0, 1.0, 1.0, 1.0, 1.0, 1.0, 1.0, 1.0, 1.0, 1.0, 1.0, 1.0, 1.0, 1.0, 1.0, 1.0, 1.0, 1.0, 1.0, 1.0, 1.0, 1.0]

>  <TempFactor>  (844) 
[11.1, 20.91, 12.33, 21.54, 28.02, 10.23, 11.74, 33.15, 31.53, 14.67, 25.91, 17.57, 20.17, 22.48, 24.62, 23.23, 20.48, 10.14, 10.8, 10.98, 11.96, 13.14, 11.93, 10.58, 15.79, 15.3, 17.28, 19.56, 15.73, 11.53, 12.15, 23.48, 27.32, 11.33, 13.47, 17.51, 18.05, 14.14, 15.23, 13.92, 11.83, 10.72, 9.75, 27.35]

>  <accession>  (844) 
3R0F_A

>  <description>  (844) 
Chain A, 3C protein [Enterovirus A71]

>  <evalue>  (844) 
6.09465e-58

>  <pdb_code>  (844) 
3R0F

>  <chain>  (844) 
A

>  <ligands>  (844) 
[{'chain_id': 'A', 'author_residue_number': 501, 'author_insertion_code': '', 'chem_comp_id': 'AG7', 'alternate_conformers': 0, 'entity_id': 2, 'struct_asym_id': 'C', 'residue_number': 1, 'chem_comp_name': '4-{2-(4-FLUORO-BENZYL)-6-METHYL-5-[(5-METHYL-ISOXAZOLE-3-CARBONYL)-AMINO]-4-OXO-HEPTANOYLAMINO}-5-(2-OXO-PYRROLIDIN-3-YL)-PENTANOIC ACID ETHYL ESTER', 'weight': 600.678, 'carbohydrate_polymer': False, 'branch_name': ''}, {'chain_id': 'B', 'author_residue_number': 501, 'author_insertion_code': '', 'chem_comp_id': 'AG7', 'alternate_conformers': 0, 'entity_id': 2, 'struct_asym_id': 'F', 'residue_number': 1, 'chem_comp_name': '4-{2-(4-FLUORO-BENZYL)-6-METHYL-5-[(5-METHYL-ISOXAZOLE-3-CARBONYL)-AMINO]-4-OXO-HEPTANOYLAMINO}-5-(2-OXO-PYRROLIDIN-3-YL)-PENTANOIC ACID ETHYL ESTER', 'weight': 600.678, 'carbohydrate_polymer': False, 'branch_name': ''}, {'chain_id': 'A', 'author_residue_number': 184, 'author_insertion_code': '', 'chem_comp_id': 'EDO', 'alternate_conformers': 0, 'entity_id': 3, 'struct_asym_id': 'D', 'residue_number': 1, 'chem_comp_name': '1,2-ETHANEDIOL', 'weight': 62.068, 'carbohydrate_polymer': False, 'branch_name': ''}, {'chain_id': 'A', 'author_residue_number': 185, 'author_insertion_code': '', 'chem_comp_id': 'EDO', 'alternate_conformers': 0, 'entity_id': 3, 'struct_asym_id': 'E', 'residue_number': 1, 'chem_comp_name': '1,2-ETHANEDIOL', 'weight': 62.068, 'carbohydrate_polymer': False, 'branch_name': ''}, {'chain_id': 'B', 'author_residue_number': 184, 'author_insertion_code': '', 'chem_comp_id': 'EDO', 'alternate_conformers': 0, 'entity_id': 3, 'struct_asym_id': 'G', 'residue_number': 1, 'chem_comp_name': '1,2-ETHANEDIOL', 'weight': 62.068, 'carbohydrate_polymer': False, 'branch_name': ''}, {'chain_id': 'B', 'author_residue_number': 185, 'author_insertion_code': '', 'chem_comp_id': 'EDO', 'alternate_conformers': 0, 'entity_id': 3, 'struct_asym_id': 'H', 'residue_number': 1, 'chem_comp_name': '1,2-ETHANEDIOL', 'weight': 62.068, 'carbohydrate_polymer': False, 'branch_name': ''}]

>  <ligand_codes>  (844) 
['AG7', 'AG7', 'EDO', 'EDO', 'EDO', 'EDO']

>  <cofactor_codes>  (844) 
[]

>  <has_cofactor>  (844) 
False

>  <covalent>  (844) 
True

>  <base_name>  (844) 
3R0F

>  <lig_resn>  (844) 
AG7

>  <lig_resi>  (844) 
501

>  <lig_chain>  (844) 
A

>  <lig_segi>  (844) 
C

>  <lig_alt>  (844) 


>  <polymer_chain>  (844) 
A

>  <single_smiles>  (844) 
CCOC(=O)CC[C@H](C[C@@H]1CCNC1=O)NC(=O)[C@@H](CC(=O)[C@@H](NC(=O)c2cc(C)on2)C(C)C)Cc3ccc(F)cc3

$$$$
AG7P21S39
     RDKit          3D

 22 21  0  0  0  0  0  0  0  0999 V2000
   -9.1080   12.8250  -36.5400 C   0  0  0  0  0  0  0  0  0  0  0  0
   -9.0190   13.1280  -35.0570 C   0  0  1  0  0  0  0  0  0  0  0  0
   -7.9420   12.2650  -34.4580 C   0  0  0  0  0  0  0  0  0  0  0  0
   -8.6730   14.5850  -34.7520 C   0  0  0  0  0  0  0  0  0  0  0  0
   -8.3980   11.0090  -33.8670 N   0  0  0  0  0  0  0  0  0  0  0  0
   -6.7840   12.4330  -34.6620 O   0  0  0  0  0  0  0  0  0  0  0  0
   -8.6380   14.8860  -33.2600 C   0  0  0  0  0  0  0  0  0  0  0  0
   -7.4250    9.9840  -33.4820 C   0  0  1  0  0  0  0  0  0  0  0  0
   -8.3120   16.3420  -32.8970 C   0  0  0  0  0  0  0  0  0  0  0  0
   -8.8080   14.0630  -32.4060 O   0  0  0  0  0  0  0  0  0  0  0  0
   -7.3730    9.8180  -31.9860 C   0  0  0  0  0  0  0  0  0  0  0  0
   -7.8000    8.7080  -34.2240 C   0  0  2  0  0  0  0  0  0  0  0  0
   -6.8540   16.7080  -33.1340 C   0  0  0  0  0  0  0  0  0  0  0  0
   -7.6930    8.7200  -35.7320 C   0  0  0  0  0  0  0  0  0  0  0  0
   -9.6610    8.3310  -33.8000 R   0  0  0  0  0  0  0  0  0  0  0  0
   -6.6180   18.1230  -32.6450 C   0  0  0  0  0  0  0  0  0  0  0  0
   -5.9260   15.8060  -32.3870 C   0  0  0  0  0  0  0  0  0  0  0  0
   -6.2700    8.9490  -36.1640 C   0  0  0  0  0  0  0  0  0  0  0  0
   -6.0890    9.7380  -37.1470 O   0  0  0  0  0  0  0  0  0  0  0  0
   -5.3370    8.3840  -35.5820 O   0  0  0  0  0  0  0  0  0  0  0  0
   -4.7970   10.0720  -37.5320 C   0  0  0  0  0  0  0  0  0  0  0  0
   -4.8460   11.4130  -38.2360 C   0  0  0  0  0  0  0  0  0  0  0  0
  2  1  1  6
  2  3  1  0
  2  4  1  0
  5  3  1  0
  3  6  2  0
  7  4  1  0
  5  8  1  0
  7  9  1  0
  7 10  2  0
  8 11  1  1
  8 12  1  0
  9 13  1  6
 12 14  1  0
 12 15  1  6
 13 16  1  0
 13 17  1  0
 14 18  1  0
 18 19  1  0
 18 20  2  0
 19 21  1  0
 21 22  1  0
V   15 *
A    2
 C04
A    3
 C47
A    4
 C02
A    5
 N12
A    6
 O48
A    7
 C01
A    8
 C13
A   10
 O03
A   12
 C19
A   13
 C78
A   14
 C20
A   15
 X  
A   16
 C81
A   17
 C82
A   18
 C21
A   19
 O22
A   20
 O23
A   21
 C50
A   22
 C53
M  END
>  <XChem_code>  (845) 
AG7§21

>  <Occupancy>  (845) 
[1.0, 1.0, 1.0, 1.0, 1.0, 1.0, 1.0, 1.0, 1.0, 1.0, 1.0, 1.0, 1.0, 1.0, 1.0, 1.0, 1.0, 1.0, 1.0, 1.0, 1.0, 1.0, 1.0, 1.0, 1.0, 1.0, 1.0, 1.0, 1.0, 1.0, 1.0, 1.0, 1.0, 1.0, 1.0, 1.0, 1.0, 1.0, 1.0, 1.0, 1.0, 1.0, 1.0, 1.0]

>  <TempFactor>  (845) 
[11.1, 20.91, 12.33, 21.54, 28.02, 10.23, 11.74, 33.15, 31.53, 14.67, 25.91, 17.57, 20.17, 22.48, 24.62, 23.23, 20.48, 10.14, 10.8, 10.98, 11.96, 13.14, 11.93, 10.58, 15.79, 15.3, 17.28, 19.56, 15.73, 11.53, 12.15, 23.48, 27.32, 11.33, 13.47, 17.51, 18.05, 14.14, 15.23, 13.92, 11.83, 10.72, 9.75, 27.35]

>  <accession>  (845) 
3R0F_A

>  <description>  (845) 
Chain A, 3C protein [Enterovirus A71]

>  <evalue>  (845) 
6.09465e-58

>  <pdb_code>  (845) 
3R0F

>  <chain>  (845) 
A

>  <ligands>  (845) 
[{'chain_id': 'A', 'author_residue_number': 501, 'author_insertion_code': '', 'chem_comp_id': 'AG7', 'alternate_conformers': 0, 'entity_id': 2, 'struct_asym_id': 'C', 'residue_number': 1, 'chem_comp_name': '4-{2-(4-FLUORO-BENZYL)-6-METHYL-5-[(5-METHYL-ISOXAZOLE-3-CARBONYL)-AMINO]-4-OXO-HEPTANOYLAMINO}-5-(2-OXO-PYRROLIDIN-3-YL)-PENTANOIC ACID ETHYL ESTER', 'weight': 600.678, 'carbohydrate_polymer': False, 'branch_name': ''}, {'chain_id': 'B', 'author_residue_number': 501, 'author_insertion_code': '', 'chem_comp_id': 'AG7', 'alternate_conformers': 0, 'entity_id': 2, 'struct_asym_id': 'F', 'residue_number': 1, 'chem_comp_name': '4-{2-(4-FLUORO-BENZYL)-6-METHYL-5-[(5-METHYL-ISOXAZOLE-3-CARBONYL)-AMINO]-4-OXO-HEPTANOYLAMINO}-5-(2-OXO-PYRROLIDIN-3-YL)-PENTANOIC ACID ETHYL ESTER', 'weight': 600.678, 'carbohydrate_polymer': False, 'branch_name': ''}, {'chain_id': 'A', 'author_residue_number': 184, 'author_insertion_code': '', 'chem_comp_id': 'EDO', 'alternate_conformers': 0, 'entity_id': 3, 'struct_asym_id': 'D', 'residue_number': 1, 'chem_comp_name': '1,2-ETHANEDIOL', 'weight': 62.068, 'carbohydrate_polymer': False, 'branch_name': ''}, {'chain_id': 'A', 'author_residue_number': 185, 'author_insertion_code': '', 'chem_comp_id': 'EDO', 'alternate_conformers': 0, 'entity_id': 3, 'struct_asym_id': 'E', 'residue_number': 1, 'chem_comp_name': '1,2-ETHANEDIOL', 'weight': 62.068, 'carbohydrate_polymer': False, 'branch_name': ''}, {'chain_id': 'B', 'author_residue_number': 184, 'author_insertion_code': '', 'chem_comp_id': 'EDO', 'alternate_conformers': 0, 'entity_id': 3, 'struct_asym_id': 'G', 'residue_number': 1, 'chem_comp_name': '1,2-ETHANEDIOL', 'weight': 62.068, 'carbohydrate_polymer': False, 'branch_name': ''}, {'chain_id': 'B', 'author_residue_number': 185, 'author_insertion_code': '', 'chem_comp_id': 'EDO', 'alternate_conformers': 0, 'entity_id': 3, 'struct_asym_id': 'H', 'residue_number': 1, 'chem_comp_name': '1,2-ETHANEDIOL', 'weight': 62.068, 'carbohydrate_polymer': False, 'branch_name': ''}]

>  <ligand_codes>  (845) 
['AG7', 'AG7', 'EDO', 'EDO', 'EDO', 'EDO']

>  <cofactor_codes>  (845) 
[]

>  <has_cofactor>  (845) 
False

>  <covalent>  (845) 
True

>  <base_name>  (845) 
3R0F

>  <lig_resn>  (845) 
AG7

>  <lig_resi>  (845) 
501

>  <lig_chain>  (845) 
A

>  <lig_segi>  (845) 
C

>  <lig_alt>  (845) 


>  <polymer_chain>  (845) 
A

>  <single_smiles>  (845) 
CCOC(=O)CC[C@H](C[C@@H]1CCNC1=O)NC(=O)[C@@H](CC(=O)[C@@H](NC(=O)c2cc(C)on2)C(C)C)Cc3ccc(F)cc3

$$$$
AG7P21S40
     RDKit          3D

 25 24  0  0  0  0  0  0  0  0999 V2000
   -9.1080   12.8250  -36.5400 C   0  0  0  0  0  0  0  0  0  0  0  0
   -9.0190   13.1280  -35.0570 C   0  0  1  0  0  0  0  0  0  0  0  0
   -7.9420   12.2650  -34.4580 C   0  0  0  0  0  0  0  0  0  0  0  0
   -8.6730   14.5850  -34.7520 C   0  0  0  0  0  0  0  0  0  0  0  0
   -8.3980   11.0090  -33.8670 N   0  0  0  0  0  0  0  0  0  0  0  0
   -6.7840   12.4330  -34.6620 O   0  0  0  0  0  0  0  0  0  0  0  0
   -8.6380   14.8860  -33.2600 C   0  0  0  0  0  0  0  0  0  0  0  0
   -7.4250    9.9840  -33.4820 C   0  0  1  0  0  0  0  0  0  0  0  0
   -8.3120   16.3420  -32.8970 C   0  0  1  0  0  0  0  0  0  0  0  0
   -8.8080   14.0630  -32.4060 O   0  0  0  0  0  0  0  0  0  0  0  0
   -7.3730    9.8180  -31.9860 C   0  0  0  0  0  0  0  0  0  0  0  0
   -7.8000    8.7080  -34.2240 C   0  0  2  0  0  0  0  0  0  0  0  0
   -8.7060   16.6300  -31.5470 N   0  0  0  0  0  0  0  0  0  0  0  0
   -6.8540   16.7080  -33.1340 C   0  0  0  0  0  0  0  0  0  0  0  0
   -7.6930    8.7200  -35.7320 C   0  0  0  0  0  0  0  0  0  0  0  0
   -9.6610    8.3310  -33.8000 R   0  0  0  0  0  0  0  0  0  0  0  0
   -9.7630   17.5740  -31.2860 C   0  0  0  0  0  0  0  0  0  0  0  0
   -6.6180   18.1230  -32.6450 C   0  0  0  0  0  0  0  0  0  0  0  0
   -5.9260   15.8060  -32.3870 C   0  0  0  0  0  0  0  0  0  0  0  0
   -6.2700    8.9490  -36.1640 C   0  0  0  0  0  0  0  0  0  0  0  0
  -10.1690   18.3250  -32.1460 O   0  0  0  0  0  0  0  0  0  0  0  0
   -6.0890    9.7380  -37.1470 O   0  0  0  0  0  0  0  0  0  0  0  0
   -5.3370    8.3840  -35.5820 O   0  0  0  0  0  0  0  0  0  0  0  0
   -4.7970   10.0720  -37.5320 C   0  0  0  0  0  0  0  0  0  0  0  0
   -4.8460   11.4130  -38.2360 C   0  0  0  0  0  0  0  0  0  0  0  0
  2  1  1  6
  2  3  1  0
  2  4  1  0
  5  3  1  0
  3  6  2  0
  7  4  1  0
  5  8  1  0
  7  9  1  0
  7 10  2  0
  8 11  1  1
  8 12  1  0
  9 13  1  1
  9 14  1  0
 12 15  1  0
 12 16  1  6
 13 17  1  0
 14 18  1  0
 14 19  1  0
 15 20  1  0
 17 21  2  0
 20 22  1  0
 20 23  2  0
 22 24  1  0
 24 25  1  0
V   16 *
A    2
 C04
A    3
 C47
A    4
 C02
A    5
 N12
A    6
 O48
A    7
 C01
A    8
 C13
A    9
 C57
A   10
 O03
A   12
 C19
A   13
 N58
A   14
 C78
A   15
 C20
A   16
 X  
A   18
 C81
A   19
 C82
A   20
 C21
A   21
 O60
A   22
 O22
A   23
 O23
A   24
 C50
A   25
 C53
M  END
>  <XChem_code>  (846) 
AG7§21

>  <Occupancy>  (846) 
[1.0, 1.0, 1.0, 1.0, 1.0, 1.0, 1.0, 1.0, 1.0, 1.0, 1.0, 1.0, 1.0, 1.0, 1.0, 1.0, 1.0, 1.0, 1.0, 1.0, 1.0, 1.0, 1.0, 1.0, 1.0, 1.0, 1.0, 1.0, 1.0, 1.0, 1.0, 1.0, 1.0, 1.0, 1.0, 1.0, 1.0, 1.0, 1.0, 1.0, 1.0, 1.0, 1.0, 1.0]

>  <TempFactor>  (846) 
[11.1, 20.91, 12.33, 21.54, 28.02, 10.23, 11.74, 33.15, 31.53, 14.67, 25.91, 17.57, 20.17, 22.48, 24.62, 23.23, 20.48, 10.14, 10.8, 10.98, 11.96, 13.14, 11.93, 10.58, 15.79, 15.3, 17.28, 19.56, 15.73, 11.53, 12.15, 23.48, 27.32, 11.33, 13.47, 17.51, 18.05, 14.14, 15.23, 13.92, 11.83, 10.72, 9.75, 27.35]

>  <accession>  (846) 
3R0F_A

>  <description>  (846) 
Chain A, 3C protein [Enterovirus A71]

>  <evalue>  (846) 
6.09465e-58

>  <pdb_code>  (846) 
3R0F

>  <chain>  (846) 
A

>  <ligands>  (846) 
[{'chain_id': 'A', 'author_residue_number': 501, 'author_insertion_code': '', 'chem_comp_id': 'AG7', 'alternate_conformers': 0, 'entity_id': 2, 'struct_asym_id': 'C', 'residue_number': 1, 'chem_comp_name': '4-{2-(4-FLUORO-BENZYL)-6-METHYL-5-[(5-METHYL-ISOXAZOLE-3-CARBONYL)-AMINO]-4-OXO-HEPTANOYLAMINO}-5-(2-OXO-PYRROLIDIN-3-YL)-PENTANOIC ACID ETHYL ESTER', 'weight': 600.678, 'carbohydrate_polymer': False, 'branch_name': ''}, {'chain_id': 'B', 'author_residue_number': 501, 'author_insertion_code': '', 'chem_comp_id': 'AG7', 'alternate_conformers': 0, 'entity_id': 2, 'struct_asym_id': 'F', 'residue_number': 1, 'chem_comp_name': '4-{2-(4-FLUORO-BENZYL)-6-METHYL-5-[(5-METHYL-ISOXAZOLE-3-CARBONYL)-AMINO]-4-OXO-HEPTANOYLAMINO}-5-(2-OXO-PYRROLIDIN-3-YL)-PENTANOIC ACID ETHYL ESTER', 'weight': 600.678, 'carbohydrate_polymer': False, 'branch_name': ''}, {'chain_id': 'A', 'author_residue_number': 184, 'author_insertion_code': '', 'chem_comp_id': 'EDO', 'alternate_conformers': 0, 'entity_id': 3, 'struct_asym_id': 'D', 'residue_number': 1, 'chem_comp_name': '1,2-ETHANEDIOL', 'weight': 62.068, 'carbohydrate_polymer': False, 'branch_name': ''}, {'chain_id': 'A', 'author_residue_number': 185, 'author_insertion_code': '', 'chem_comp_id': 'EDO', 'alternate_conformers': 0, 'entity_id': 3, 'struct_asym_id': 'E', 'residue_number': 1, 'chem_comp_name': '1,2-ETHANEDIOL', 'weight': 62.068, 'carbohydrate_polymer': False, 'branch_name': ''}, {'chain_id': 'B', 'author_residue_number': 184, 'author_insertion_code': '', 'chem_comp_id': 'EDO', 'alternate_conformers': 0, 'entity_id': 3, 'struct_asym_id': 'G', 'residue_number': 1, 'chem_comp_name': '1,2-ETHANEDIOL', 'weight': 62.068, 'carbohydrate_polymer': False, 'branch_name': ''}, {'chain_id': 'B', 'author_residue_number': 185, 'author_insertion_code': '', 'chem_comp_id': 'EDO', 'alternate_conformers': 0, 'entity_id': 3, 'struct_asym_id': 'H', 'residue_number': 1, 'chem_comp_name': '1,2-ETHANEDIOL', 'weight': 62.068, 'carbohydrate_polymer': False, 'branch_name': ''}]

>  <ligand_codes>  (846) 
['AG7', 'AG7', 'EDO', 'EDO', 'EDO', 'EDO']

>  <cofactor_codes>  (846) 
[]

>  <has_cofactor>  (846) 
False

>  <covalent>  (846) 
True

>  <base_name>  (846) 
3R0F

>  <lig_resn>  (846) 
AG7

>  <lig_resi>  (846) 
501

>  <lig_chain>  (846) 
A

>  <lig_segi>  (846) 
C

>  <lig_alt>  (846) 


>  <polymer_chain>  (846) 
A

>  <single_smiles>  (846) 
CCOC(=O)CC[C@H](C[C@@H]1CCNC1=O)NC(=O)[C@@H](CC(=O)[C@@H](NC(=O)c2cc(C)on2)C(C)C)Cc3ccc(F)cc3

$$$$
7L4P1
     RDKit          3D

 17 19  0  0  0  0  0  0  0  0999 V2000
   -2.6370   15.4740  -29.2610 C   0  0  0  0  0  0  0  0  0  0  0  0
   -2.5800   14.1600  -28.8210 C   0  0  0  0  0  0  0  0  0  0  0  0
   -3.5050   13.2150  -29.2710 C   0  0  0  0  0  0  0  0  0  0  0  0
   -4.4900   13.5890  -30.1810 C   0  0  0  0  0  0  0  0  0  0  0  0
   -4.5620   14.9050  -30.6260 C   0  0  0  0  0  0  0  0  0  0  0  0
   -3.6350   15.8330  -30.1710 C   0  0  0  0  0  0  0  0  0  0  0  0
   -5.4690   12.6020  -30.6730 C   0  0  0  0  0  0  0  0  0  0  0  0
   -6.1210   11.7660  -29.7400 C   0  0  0  0  0  0  0  0  0  0  0  0
   -7.0440   10.8630  -30.2020 C   0  0  0  0  0  0  0  0  0  0  0  0
   -7.3170   10.8020  -31.5910 C   0  0  0  0  0  0  0  0  0  0  0  0
   -8.2360    9.8870  -32.1020 C   0  0  0  0  0  0  0  0  0  0  0  0
   -8.4900    9.8320  -33.4510 C   0  0  0  0  0  0  0  0  0  0  0  0
   -7.8020   10.6740  -34.3220 C   0  0  0  0  0  0  0  0  0  0  0  0
   -6.9060   11.5910  -33.8410 C   0  0  0  0  0  0  0  0  0  0  0  0
   -6.6340   11.6730  -32.4740 C   0  0  0  0  0  0  0  0  0  0  0  0
   -5.7360   12.5480  -31.9840 N   0  0  0  0  0  0  0  0  0  0  0  0
   -7.6750   10.0180  -29.3440 O   0  0  0  0  0  0  0  0  0  0  0  0
  1  2  2  0
  1  6  1  0
  2  3  1  0
  3  4  2  0
  4  5  1  0
  4  7  1  0
  5  6  2  0
  7  8  2  0
  7 16  1  0
  8  9  1  0
  9 10  2  0
  9 17  1  0
 10 11  1  0
 10 15  1  0
 11 12  2  0
 12 13  1  0
 13 14  2  0
 14 15  1  0
 15 16  2  0
A    1
 C1 
A    2
 C2 
A    3
 C3 
A    4
 C4 
A    5
 C5 
A    6
 C6 
A    7
 C7 
A    8
 C8 
A    9
 C9 
A   10
 C10
A   11
 C11
A   12
 C12
A   13
 C13
A   14
 C14
A   15
 C15
A   16
 N16
A   17
 O17
M  END
>  <XChem_code>  (847) 
7L4§1

>  <Occupancy>  (847) 
[1.0, 1.0, 1.0, 1.0, 1.0, 1.0, 1.0, 1.0, 1.0, 1.0, 1.0, 1.0, 1.0, 1.0, 1.0, 1.0, 1.0]

>  <TempFactor>  (847) 
[32.31, 34.48, 32.79, 30.49, 33.31, 34.74, 31.46, 28.75, 29.66, 28.63, 30.13, 29.65, 29.04, 29.23, 27.71, 30.29, 31.62]

>  <accession>  (847) 
2XYA_A

>  <description>  (847) 
Chain A, Picornain 3c [Human rhinovirus sp.]

>  <evalue>  (847) 
9.59605e-58

>  <pdb_code>  (847) 
2XYA

>  <chain>  (847) 
A

>  <ligands>  (847) 
[{'chain_id': 'A', 'author_residue_number': 1181, 'author_insertion_code': '', 'chem_comp_id': '7L4', 'alternate_conformers': 0, 'entity_id': 2, 'struct_asym_id': 'B', 'residue_number': 1, 'chem_comp_name': '2-PHENYLQUINOLIN-4-OL', 'weight': 221.254, 'carbohydrate_polymer': False, 'branch_name': ''}]

>  <ligand_codes>  (847) 
['7L4']

>  <cofactor_codes>  (847) 
[]

>  <has_cofactor>  (847) 
False

>  <covalent>  (847) 
False

>  <base_name>  (847) 
2XYA

>  <lig_resn>  (847) 
7L4

>  <lig_resi>  (847) 
1181

>  <lig_chain>  (847) 
A

>  <lig_segi>  (847) 
B

>  <lig_alt>  (847) 


>  <polymer_chain>  (847) 
A

>  <single_smiles>  (847) 
Oc1cc(nc2ccccc12)c3ccccc3

$$$$
7L4P1S1
     RDKit          3D

  6  6  0  0  0  0  0  0  0  0999 V2000
   -4.4900   13.5890  -30.1810 C   0  0  0  0  0  0  0  0  0  0  0  0
   -3.5050   13.2150  -29.2710 C   0  0  0  0  0  0  0  0  0  0  0  0
   -4.5620   14.9050  -30.6260 C   0  0  0  0  0  0  0  0  0  0  0  0
   -2.5800   14.1600  -28.8210 C   0  0  0  0  0  0  0  0  0  0  0  0
   -3.6350   15.8330  -30.1710 C   0  0  0  0  0  0  0  0  0  0  0  0
   -2.6370   15.4740  -29.2610 C   0  0  0  0  0  0  0  0  0  0  0  0
  2  1  2  0
  1  3  1  0
  4  2  1  0
  3  5  2  0
  6  4  2  0
  6  5  1  0
A    2
 C3 
A    3
 C5 
A    4
 C2 
A    5
 C6 
A    6
 C1 
M  END
>  <XChem_code>  (848) 
7L4§1

>  <Occupancy>  (848) 
[1.0, 1.0, 1.0, 1.0, 1.0, 1.0, 1.0, 1.0, 1.0, 1.0, 1.0, 1.0, 1.0, 1.0, 1.0, 1.0, 1.0]

>  <TempFactor>  (848) 
[32.31, 34.48, 32.79, 30.49, 33.31, 34.74, 31.46, 28.75, 29.66, 28.63, 30.13, 29.65, 29.04, 29.23, 27.71, 30.29, 31.62]

>  <accession>  (848) 
2XYA_A

>  <description>  (848) 
Chain A, Picornain 3c [Human rhinovirus sp.]

>  <evalue>  (848) 
9.59605e-58

>  <pdb_code>  (848) 
2XYA

>  <chain>  (848) 
A

>  <ligands>  (848) 
[{'chain_id': 'A', 'author_residue_number': 1181, 'author_insertion_code': '', 'chem_comp_id': '7L4', 'alternate_conformers': 0, 'entity_id': 2, 'struct_asym_id': 'B', 'residue_number': 1, 'chem_comp_name': '2-PHENYLQUINOLIN-4-OL', 'weight': 221.254, 'carbohydrate_polymer': False, 'branch_name': ''}]

>  <ligand_codes>  (848) 
['7L4']

>  <cofactor_codes>  (848) 
[]

>  <has_cofactor>  (848) 
False

>  <covalent>  (848) 
False

>  <base_name>  (848) 
2XYA

>  <lig_resn>  (848) 
7L4

>  <lig_resi>  (848) 
1181

>  <lig_chain>  (848) 
A

>  <lig_segi>  (848) 
B

>  <lig_alt>  (848) 


>  <polymer_chain>  (848) 
A

>  <single_smiles>  (848) 
Oc1cc(nc2ccccc12)c3ccccc3

$$$$
7L4P1S2
     RDKit          3D

 11 12  0  0  0  0  0  0  0  0999 V2000
   -5.4690   12.6020  -30.6730 C   0  0  0  0  0  0  0  0  0  0  0  0
   -6.1210   11.7660  -29.7400 C   0  0  0  0  0  0  0  0  0  0  0  0
   -5.7360   12.5480  -31.9840 N   0  0  0  0  0  0  0  0  0  0  0  0
   -7.0440   10.8630  -30.2020 C   0  0  0  0  0  0  0  0  0  0  0  0
   -6.6340   11.6730  -32.4740 C   0  0  0  0  0  0  0  0  0  0  0  0
   -7.3170   10.8020  -31.5910 C   0  0  0  0  0  0  0  0  0  0  0  0
   -7.6750   10.0180  -29.3440 O   0  0  0  0  0  0  0  0  0  0  0  0
   -6.9060   11.5910  -33.8410 C   0  0  0  0  0  0  0  0  0  0  0  0
   -8.2360    9.8870  -32.1020 C   0  0  0  0  0  0  0  0  0  0  0  0
   -7.8020   10.6740  -34.3220 C   0  0  0  0  0  0  0  0  0  0  0  0
   -8.4900    9.8320  -33.4510 C   0  0  0  0  0  0  0  0  0  0  0  0
  1  2  2  0
  1  3  1  0
  2  4  1  0
  5  3  2  0
  4  6  2  0
  4  7  1  0
  6  5  1  0
  8  5  1  0
  6  9  1  0
 10  8  2  0
  9 11  2  0
 11 10  1  0
A    2
 C8 
A    3
 N16
A    4
 C9 
A    5
 C15
A    6
 C10
A    7
 O17
A    8
 C14
A    9
 C11
A   10
 C13
A   11
 C12
M  END
>  <XChem_code>  (849) 
7L4§1

>  <Occupancy>  (849) 
[1.0, 1.0, 1.0, 1.0, 1.0, 1.0, 1.0, 1.0, 1.0, 1.0, 1.0, 1.0, 1.0, 1.0, 1.0, 1.0, 1.0]

>  <TempFactor>  (849) 
[32.31, 34.48, 32.79, 30.49, 33.31, 34.74, 31.46, 28.75, 29.66, 28.63, 30.13, 29.65, 29.04, 29.23, 27.71, 30.29, 31.62]

>  <accession>  (849) 
2XYA_A

>  <description>  (849) 
Chain A, Picornain 3c [Human rhinovirus sp.]

>  <evalue>  (849) 
9.59605e-58

>  <pdb_code>  (849) 
2XYA

>  <chain>  (849) 
A

>  <ligands>  (849) 
[{'chain_id': 'A', 'author_residue_number': 1181, 'author_insertion_code': '', 'chem_comp_id': '7L4', 'alternate_conformers': 0, 'entity_id': 2, 'struct_asym_id': 'B', 'residue_number': 1, 'chem_comp_name': '2-PHENYLQUINOLIN-4-OL', 'weight': 221.254, 'carbohydrate_polymer': False, 'branch_name': ''}]

>  <ligand_codes>  (849) 
['7L4']

>  <cofactor_codes>  (849) 
[]

>  <has_cofactor>  (849) 
False

>  <covalent>  (849) 
False

>  <base_name>  (849) 
2XYA

>  <lig_resn>  (849) 
7L4

>  <lig_resi>  (849) 
1181

>  <lig_chain>  (849) 
A

>  <lig_segi>  (849) 
B

>  <lig_alt>  (849) 


>  <polymer_chain>  (849) 
A

>  <single_smiles>  (849) 
Oc1cc(nc2ccccc12)c3ccccc3

$$$$
AG7P22
     RDKit          3D

 44 46  0  0  0  0  0  0  0  0999 V2000
   -8.5840   14.6720  -33.4310 C   0  0  0  0  0  0  0  0  0  0  0  0
  -10.0630   17.4900  -30.2480 C   0  0  0  0  0  0  0  0  0  0  0  0
   -8.5890   14.3230  -34.9280 C   0  0  0  0  0  0  0  0  0  0  0  0
  -11.1890   18.2730  -30.0350 C   0  0  0  0  0  0  0  0  0  0  0  0
  -11.4230   18.1130  -28.6670 C   0  0  0  0  0  0  0  0  0  0  0  0
   -8.9950   13.8610  -32.6090 O   0  0  0  0  0  0  0  0  0  0  0  0
   -9.0560   12.8810  -35.1610 C   0  0  1  0  0  0  0  0  0  0  0  0
  -12.5130   18.7590  -27.8190 C   0  0  0  0  0  0  0  0  0  0  0  0
  -10.5110   17.3020  -28.1260 O   0  0  0  0  0  0  0  0  0  0  0  0
   -9.2680   12.7230  -36.6650 C   0  0  0  0  0  0  0  0  0  0  0  0
   -9.6280   16.9280  -29.1140 N   0  0  0  0  0  0  0  0  0  0  0  0
  -10.5280   13.3650  -37.0000 C   0  0  0  0  0  0  0  0  0  0  0  0
  -11.7240   12.8990  -36.4350 C   0  0  0  0  0  0  0  0  0  0  0  0
  -12.9320   13.5180  -36.7470 C   0  0  0  0  0  0  0  0  0  0  0  0
  -12.9510   14.6100  -37.6100 C   0  0  0  0  0  0  0  0  0  0  0  0
  -11.7810   15.0780  -38.1630 C   0  0  0  0  0  0  0  0  0  0  0  0
  -10.5610   14.4560  -37.8460 C   0  0  0  0  0  0  0  0  0  0  0  0
   -8.4650   10.8310  -33.9180 N   0  0  0  0  0  0  0  0  0  0  0  0
   -7.5030    9.8280  -33.4300 C   0  0  1  0  0  0  0  0  0  0  0  0
   -7.3880    9.7920  -31.9090 C   0  0  0  0  0  0  0  0  0  0  0  0
   -6.7420   11.0650  -31.3380 C   0  0  1  0  0  0  0  0  0  0  0  0
   -6.5610   11.0160  -29.8480 C   0  0  0  0  0  0  0  0  0  0  0  0
   -5.5900   11.7760  -29.4540 N   0  0  0  0  0  0  0  0  0  0  0  0
   -7.1850   10.2960  -29.0840 O   0  0  0  0  0  0  0  0  0  0  0  0
   -7.8280    8.4080  -34.0100 C   0  0  2  0  0  0  0  0  0  0  0  0
   -7.5620    8.3420  -35.5410 C   0  0  0  0  0  0  0  0  0  0  0  0
   -6.8410    7.0270  -35.9420 C   0  0  0  0  0  0  0  0  0  0  0  0
   -6.6320    6.9000  -37.2340 O   0  0  0  0  0  0  0  0  0  0  0  0
   -6.4740    6.2040  -35.1210 O   0  0  0  0  0  0  0  0  0  0  0  0
   -8.0530   11.8650  -34.6340 C   0  0  0  0  0  0  0  0  0  0  0  0
   -6.8480   12.0120  -34.8210 O   0  0  0  0  0  0  0  0  0  0  0  0
   -5.8650    5.7760  -37.7420 C   0  0  0  0  0  0  0  0  0  0  0  0
   -5.3170    6.1500  -39.1310 C   0  0  0  0  0  0  0  0  0  0  0  0
   -8.0860   16.0830  -33.0110 C   0  0  1  0  0  0  0  0  0  0  0  0
   -8.6290   16.3950  -31.6970 N   0  0  0  0  0  0  0  0  0  0  0  0
   -9.5640   17.2990  -31.5320 C   0  0  0  0  0  0  0  0  0  0  0  0
   -9.9690   17.8730  -32.5270 O   0  0  0  0  0  0  0  0  0  0  0  0
   -6.5580   16.1960  -32.8000 C   0  0  0  0  0  0  0  0  0  0  0  0
   -6.1440   17.6450  -33.1050 C   0  0  0  0  0  0  0  0  0  0  0  0
   -5.6460   15.2180  -33.5500 C   0  0  0  0  0  0  0  0  0  0  0  0
   -4.7450   12.2020  -30.5760 C   0  0  0  0  0  0  0  0  0  0  0  0
   -5.3020   11.3840  -31.7700 C   0  0  0  0  0  0  0  0  0  0  0  0
   -9.5770    7.9760  -33.7580 R   0  0  0  0  0  0  0  0  0  0  0  0
  -14.1050   15.1750  -37.9340 F   0  0  0  0  0  0  0  0  0  0  0  0
  1  3  1  0
  1  6  2  0
  1 34  1  0
  2  4  1  0
  2 11  2  0
  2 36  1  0
  7  3  1  6
  4  5  2  0
  5  8  1  0
  5  9  1  0
  7 10  1  0
  7 30  1  0
  9 11  1  0
 10 12  1  0
 12 13  2  0
 12 17  1  0
 13 14  1  0
 14 15  2  0
 15 16  1  0
 15 44  1  0
 16 17  2  0
 18 19  1  0
 18 30  1  0
 19 20  1  1
 19 25  1  0
 21 20  1  6
 21 22  1  0
 21 42  1  0
 22 23  1  0
 22 24  2  0
 23 41  1  0
 25 26  1  0
 25 43  1  6
 26 27  1  0
 27 28  1  0
 27 29  2  0
 28 32  1  0
 30 31  2  0
 32 33  1  0
 34 35  1  1
 34 38  1  0
 35 36  1  0
 36 37  2  0
 38 39  1  0
 38 40  1  0
 41 42  1  0
V   43 *
A    1
 C01
A    2
 C1 
A    3
 C02
A    4
 C2 
A    5
 C3 
A    6
 O03
A    7
 C04
A    8
 C4 
A    9
 O4 
A   10
 C05
A   11
 N5 
A   12
 C06
A   13
 C07
A   14
 C08
A   15
 C09
A   16
 C10
A   17
 C11
A   18
 N12
A   19
 C13
A   20
 C14
A   21
 C15
A   22
 C16
A   23
 N17
A   24
 O18
A   25
 C19
A   26
 C20
A   27
 C21
A   28
 O22
A   29
 O23
A   30
 C47
A   31
 O48
A   32
 C50
A   33
 C53
A   34
 C57
A   35
 N58
A   36
 C59
A   37
 O60
A   38
 C78
A   39
 C81
A   40
 C82
A   41
 C83
A   42
 C84
A   43
 X  
A   44
 F1 
M  END
>  <XChem_code>  (850) 
AG7§22

>  <Occupancy>  (850) 
[1.0, 1.0, 1.0, 1.0, 1.0, 1.0, 1.0, 1.0, 1.0, 1.0, 1.0, 1.0, 1.0, 1.0, 1.0, 1.0, 1.0, 1.0, 1.0, 1.0, 1.0, 1.0, 1.0, 1.0, 1.0, 1.0, 1.0, 1.0, 1.0, 1.0, 1.0, 1.0, 1.0, 1.0, 1.0, 1.0, 1.0, 1.0, 1.0, 1.0, 1.0, 1.0, 1.0, 1.0]

>  <TempFactor>  (850) 
[16.99, 17.37, 15.03, 17.27, 16.93, 17.74, 13.17, 18.44, 18.15, 13.03, 17.26, 13.64, 14.2, 14.77, 14.96, 13.35, 14.45, 12.48, 12.74, 12.98, 14.81, 13.66, 14.93, 16.5, 11.73, 10.42, 13.5, 14.67, 11.98, 13.75, 16.69, 15.21, 15.78, 16.7, 16.34, 17.46, 18.53, 17.19, 17.7, 18.6, 16.97, 15.33, 12.99, 18.88]

>  <accession>  (850) 
1CQQ_A

>  <description>  (850) 
Chain A, TYPE 2 RHINOVIRUS 3C PROTEASE [rhinovirus A2]

>  <evalue>  (850) 
1.03838e-57

>  <pdb_code>  (850) 
1CQQ

>  <chain>  (850) 
A

>  <ligands>  (850) 
[{'chain_id': 'A', 'author_residue_number': 501, 'author_insertion_code': '', 'chem_comp_id': 'AG7', 'alternate_conformers': 0, 'entity_id': 2, 'struct_asym_id': 'B', 'residue_number': 1, 'chem_comp_name': '4-{2-(4-FLUORO-BENZYL)-6-METHYL-5-[(5-METHYL-ISOXAZOLE-3-CARBONYL)-AMINO]-4-OXO-HEPTANOYLAMINO}-5-(2-OXO-PYRROLIDIN-3-YL)-PENTANOIC ACID ETHYL ESTER', 'weight': 600.678, 'carbohydrate_polymer': False, 'branch_name': ''}]

>  <ligand_codes>  (850) 
['AG7']

>  <cofactor_codes>  (850) 
[]

>  <has_cofactor>  (850) 
False

>  <covalent>  (850) 
True

>  <base_name>  (850) 
1CQQ

>  <lig_resn>  (850) 
AG7

>  <lig_resi>  (850) 
501

>  <lig_chain>  (850) 
A

>  <lig_segi>  (850) 
B

>  <lig_alt>  (850) 


>  <polymer_chain>  (850) 
A

>  <single_smiles>  (850) 
CCOC(=O)CC[C@H](C[C@@H]1CCNC1=O)NC(=O)[C@@H](CC(=O)[C@@H](NC(=O)c2cc(C)on2)C(C)C)Cc3ccc(F)cc3

$$$$
AG7P22S1
     RDKit          3D

 17 17  0  0  0  0  0  0  0  0999 V2000
   -8.4650   10.8310  -33.9180 N   0  0  0  0  0  0  0  0  0  0  0  0
   -7.5030    9.8280  -33.4300 C   0  0  1  0  0  0  0  0  0  0  0  0
   -7.3880    9.7920  -31.9090 C   0  0  0  0  0  0  0  0  0  0  0  0
   -7.8280    8.4080  -34.0100 C   0  0  2  0  0  0  0  0  0  0  0  0
   -6.7420   11.0650  -31.3380 C   0  0  1  0  0  0  0  0  0  0  0  0
   -7.5620    8.3420  -35.5410 C   0  0  0  0  0  0  0  0  0  0  0  0
   -9.5770    7.9760  -33.7580 R   0  0  0  0  0  0  0  0  0  0  0  0
   -6.5610   11.0160  -29.8480 C   0  0  0  0  0  0  0  0  0  0  0  0
   -5.3020   11.3840  -31.7700 C   0  0  0  0  0  0  0  0  0  0  0  0
   -6.8410    7.0270  -35.9420 C   0  0  0  0  0  0  0  0  0  0  0  0
   -5.5900   11.7760  -29.4540 N   0  0  0  0  0  0  0  0  0  0  0  0
   -7.1850   10.2960  -29.0840 O   0  0  0  0  0  0  0  0  0  0  0  0
   -4.7450   12.2020  -30.5760 C   0  0  0  0  0  0  0  0  0  0  0  0
   -6.6320    6.9000  -37.2340 O   0  0  0  0  0  0  0  0  0  0  0  0
   -6.4740    6.2040  -35.1210 O   0  0  0  0  0  0  0  0  0  0  0  0
   -5.8650    5.7760  -37.7420 C   0  0  0  0  0  0  0  0  0  0  0  0
   -5.3170    6.1500  -39.1310 C   0  0  0  0  0  0  0  0  0  0  0  0
  2  1  1  1
  2  3  1  0
  2  4  1  0
  5  3  1  6
  4  6  1  0
  4  7  1  6
  5  8  1  0
  5  9  1  0
  6 10  1  0
  8 11  1  0
  8 12  2  0
 13  9  1  0
 10 14  1  0
 10 15  2  0
 11 13  1  0
 14 16  1  0
 16 17  1  0
V    7 *
A    2
 C13
A    3
 C14
A    4
 C19
A    5
 C15
A    6
 C20
A    7
 X  
A    8
 C16
A    9
 C84
A   10
 C21
A   11
 N17
A   12
 O18
A   13
 C83
A   14
 O22
A   15
 O23
A   16
 C50
A   17
 C53
M  END
>  <XChem_code>  (851) 
AG7§22

>  <Occupancy>  (851) 
[1.0, 1.0, 1.0, 1.0, 1.0, 1.0, 1.0, 1.0, 1.0, 1.0, 1.0, 1.0, 1.0, 1.0, 1.0, 1.0, 1.0, 1.0, 1.0, 1.0, 1.0, 1.0, 1.0, 1.0, 1.0, 1.0, 1.0, 1.0, 1.0, 1.0, 1.0, 1.0, 1.0, 1.0, 1.0, 1.0, 1.0, 1.0, 1.0, 1.0, 1.0, 1.0, 1.0, 1.0]

>  <TempFactor>  (851) 
[16.99, 17.37, 15.03, 17.27, 16.93, 17.74, 13.17, 18.44, 18.15, 13.03, 17.26, 13.64, 14.2, 14.77, 14.96, 13.35, 14.45, 12.48, 12.74, 12.98, 14.81, 13.66, 14.93, 16.5, 11.73, 10.42, 13.5, 14.67, 11.98, 13.75, 16.69, 15.21, 15.78, 16.7, 16.34, 17.46, 18.53, 17.19, 17.7, 18.6, 16.97, 15.33, 12.99, 18.88]

>  <accession>  (851) 
1CQQ_A

>  <description>  (851) 
Chain A, TYPE 2 RHINOVIRUS 3C PROTEASE [rhinovirus A2]

>  <evalue>  (851) 
1.03838e-57

>  <pdb_code>  (851) 
1CQQ

>  <chain>  (851) 
A

>  <ligands>  (851) 
[{'chain_id': 'A', 'author_residue_number': 501, 'author_insertion_code': '', 'chem_comp_id': 'AG7', 'alternate_conformers': 0, 'entity_id': 2, 'struct_asym_id': 'B', 'residue_number': 1, 'chem_comp_name': '4-{2-(4-FLUORO-BENZYL)-6-METHYL-5-[(5-METHYL-ISOXAZOLE-3-CARBONYL)-AMINO]-4-OXO-HEPTANOYLAMINO}-5-(2-OXO-PYRROLIDIN-3-YL)-PENTANOIC ACID ETHYL ESTER', 'weight': 600.678, 'carbohydrate_polymer': False, 'branch_name': ''}]

>  <ligand_codes>  (851) 
['AG7']

>  <cofactor_codes>  (851) 
[]

>  <has_cofactor>  (851) 
False

>  <covalent>  (851) 
True

>  <base_name>  (851) 
1CQQ

>  <lig_resn>  (851) 
AG7

>  <lig_resi>  (851) 
501

>  <lig_chain>  (851) 
A

>  <lig_segi>  (851) 
B

>  <lig_alt>  (851) 


>  <polymer_chain>  (851) 
A

>  <single_smiles>  (851) 
CCOC(=O)CC[C@H](C[C@@H]1CCNC1=O)NC(=O)[C@@H](CC(=O)[C@@H](NC(=O)c2cc(C)on2)C(C)C)Cc3ccc(F)cc3

$$$$
AG7P22S2
     RDKit          3D

 27 28  0  0  0  0  0  0  0  0999 V2000
   -8.0530   11.8650  -34.6340 C   0  0  0  0  0  0  0  0  0  0  0  0
   -9.0560   12.8810  -35.1610 C   0  0  1  0  0  0  0  0  0  0  0  0
   -6.8480   12.0120  -34.8210 O   0  0  0  0  0  0  0  0  0  0  0  0
   -8.5890   14.3230  -34.9280 C   0  0  0  0  0  0  0  0  0  0  0  0
   -9.2680   12.7230  -36.6650 C   0  0  0  0  0  0  0  0  0  0  0  0
   -8.5840   14.6720  -33.4310 C   0  0  0  0  0  0  0  0  0  0  0  0
  -10.5280   13.3650  -37.0000 C   0  0  0  0  0  0  0  0  0  0  0  0
   -8.9950   13.8610  -32.6090 O   0  0  0  0  0  0  0  0  0  0  0  0
   -8.0860   16.0830  -33.0110 C   0  0  1  0  0  0  0  0  0  0  0  0
  -11.7240   12.8990  -36.4350 C   0  0  0  0  0  0  0  0  0  0  0  0
  -10.5610   14.4560  -37.8460 C   0  0  0  0  0  0  0  0  0  0  0  0
   -8.6290   16.3950  -31.6970 N   0  0  0  0  0  0  0  0  0  0  0  0
   -6.5580   16.1960  -32.8000 C   0  0  0  0  0  0  0  0  0  0  0  0
  -12.9320   13.5180  -36.7470 C   0  0  0  0  0  0  0  0  0  0  0  0
  -11.7810   15.0780  -38.1630 C   0  0  0  0  0  0  0  0  0  0  0  0
   -9.5640   17.2990  -31.5320 C   0  0  0  0  0  0  0  0  0  0  0  0
   -6.1440   17.6450  -33.1050 C   0  0  0  0  0  0  0  0  0  0  0  0
   -5.6460   15.2180  -33.5500 C   0  0  0  0  0  0  0  0  0  0  0  0
  -12.9510   14.6100  -37.6100 C   0  0  0  0  0  0  0  0  0  0  0  0
  -10.0630   17.4900  -30.2480 C   0  0  0  0  0  0  0  0  0  0  0  0
   -9.9690   17.8730  -32.5270 O   0  0  0  0  0  0  0  0  0  0  0  0
  -14.1050   15.1750  -37.9340 F   0  0  0  0  0  0  0  0  0  0  0  0
  -11.1890   18.2730  -30.0350 C   0  0  0  0  0  0  0  0  0  0  0  0
   -9.6280   16.9280  -29.1140 N   0  0  0  0  0  0  0  0  0  0  0  0
  -11.4230   18.1130  -28.6670 C   0  0  0  0  0  0  0  0  0  0  0  0
  -10.5110   17.3020  -28.1260 O   0  0  0  0  0  0  0  0  0  0  0  0
  -12.5130   18.7590  -27.8190 C   0  0  0  0  0  0  0  0  0  0  0  0
  2  1  1  0
  1  3  2  0
  2  4  1  6
  2  5  1  0
  6  4  1  0
  5  7  1  0
  6  8  2  0
  6  9  1  0
  7 10  2  0
  7 11  1  0
  9 12  1  1
  9 13  1  0
 10 14  1  0
 15 11  2  0
 12 16  1  0
 13 17  1  0
 13 18  1  0
 14 19  2  0
 19 15  1  0
 20 16  1  0
 16 21  2  0
 19 22  1  0
 20 23  1  0
 20 24  2  0
 23 25  2  0
 26 24  1  0
 25 27  1  0
 25 26  1  0
A    2
 C04
A    3
 O48
A    4
 C02
A    5
 C05
A    6
 C01
A    7
 C06
A    8
 O03
A    9
 C57
A   10
 C07
A   11
 C11
A   12
 N58
A   13
 C78
A   14
 C08
A   15
 C10
A   16
 C59
A   17
 C81
A   18
 C82
A   19
 C09
A   20
 C1 
A   21
 O60
A   22
 F1 
A   23
 C2 
A   24
 N5 
A   25
 C3 
A   26
 O4 
A   27
 C4 
M  END
>  <XChem_code>  (852) 
AG7§22

>  <Occupancy>  (852) 
[1.0, 1.0, 1.0, 1.0, 1.0, 1.0, 1.0, 1.0, 1.0, 1.0, 1.0, 1.0, 1.0, 1.0, 1.0, 1.0, 1.0, 1.0, 1.0, 1.0, 1.0, 1.0, 1.0, 1.0, 1.0, 1.0, 1.0, 1.0, 1.0, 1.0, 1.0, 1.0, 1.0, 1.0, 1.0, 1.0, 1.0, 1.0, 1.0, 1.0, 1.0, 1.0, 1.0, 1.0]

>  <TempFactor>  (852) 
[16.99, 17.37, 15.03, 17.27, 16.93, 17.74, 13.17, 18.44, 18.15, 13.03, 17.26, 13.64, 14.2, 14.77, 14.96, 13.35, 14.45, 12.48, 12.74, 12.98, 14.81, 13.66, 14.93, 16.5, 11.73, 10.42, 13.5, 14.67, 11.98, 13.75, 16.69, 15.21, 15.78, 16.7, 16.34, 17.46, 18.53, 17.19, 17.7, 18.6, 16.97, 15.33, 12.99, 18.88]

>  <accession>  (852) 
1CQQ_A

>  <description>  (852) 
Chain A, TYPE 2 RHINOVIRUS 3C PROTEASE [rhinovirus A2]

>  <evalue>  (852) 
1.03838e-57

>  <pdb_code>  (852) 
1CQQ

>  <chain>  (852) 
A

>  <ligands>  (852) 
[{'chain_id': 'A', 'author_residue_number': 501, 'author_insertion_code': '', 'chem_comp_id': 'AG7', 'alternate_conformers': 0, 'entity_id': 2, 'struct_asym_id': 'B', 'residue_number': 1, 'chem_comp_name': '4-{2-(4-FLUORO-BENZYL)-6-METHYL-5-[(5-METHYL-ISOXAZOLE-3-CARBONYL)-AMINO]-4-OXO-HEPTANOYLAMINO}-5-(2-OXO-PYRROLIDIN-3-YL)-PENTANOIC ACID ETHYL ESTER', 'weight': 600.678, 'carbohydrate_polymer': False, 'branch_name': ''}]

>  <ligand_codes>  (852) 
['AG7']

>  <cofactor_codes>  (852) 
[]

>  <has_cofactor>  (852) 
False

>  <covalent>  (852) 
True

>  <base_name>  (852) 
1CQQ

>  <lig_resn>  (852) 
AG7

>  <lig_resi>  (852) 
501

>  <lig_chain>  (852) 
A

>  <lig_segi>  (852) 
B

>  <lig_alt>  (852) 


>  <polymer_chain>  (852) 
A

>  <single_smiles>  (852) 
CCOC(=O)CC[C@H](C[C@@H]1CCNC1=O)NC(=O)[C@@H](CC(=O)[C@@H](NC(=O)c2cc(C)on2)C(C)C)Cc3ccc(F)cc3

$$$$
AG7P22S3
     RDKit          3D

  8  8  0  0  0  0  0  0  0  0999 V2000
   -9.5640   17.2990  -31.5320 C   0  0  0  0  0  0  0  0  0  0  0  0
  -10.0630   17.4900  -30.2480 C   0  0  0  0  0  0  0  0  0  0  0  0
   -9.9690   17.8730  -32.5270 O   0  0  0  0  0  0  0  0  0  0  0  0
  -11.1890   18.2730  -30.0350 C   0  0  0  0  0  0  0  0  0  0  0  0
   -9.6280   16.9280  -29.1140 N   0  0  0  0  0  0  0  0  0  0  0  0
  -11.4230   18.1130  -28.6670 C   0  0  0  0  0  0  0  0  0  0  0  0
  -10.5110   17.3020  -28.1260 O   0  0  0  0  0  0  0  0  0  0  0  0
  -12.5130   18.7590  -27.8190 C   0  0  0  0  0  0  0  0  0  0  0  0
  2  1  1  0
  1  3  2  0
  2  4  1  0
  2  5  2  0
  4  6  2  0
  7  5  1  0
  6  8  1  0
  6  7  1  0
A    2
 C1 
A    3
 O60
A    4
 C2 
A    5
 N5 
A    6
 C3 
A    7
 O4 
A    8
 C4 
M  END
>  <XChem_code>  (853) 
AG7§22

>  <Occupancy>  (853) 
[1.0, 1.0, 1.0, 1.0, 1.0, 1.0, 1.0, 1.0, 1.0, 1.0, 1.0, 1.0, 1.0, 1.0, 1.0, 1.0, 1.0, 1.0, 1.0, 1.0, 1.0, 1.0, 1.0, 1.0, 1.0, 1.0, 1.0, 1.0, 1.0, 1.0, 1.0, 1.0, 1.0, 1.0, 1.0, 1.0, 1.0, 1.0, 1.0, 1.0, 1.0, 1.0, 1.0, 1.0]

>  <TempFactor>  (853) 
[16.99, 17.37, 15.03, 17.27, 16.93, 17.74, 13.17, 18.44, 18.15, 13.03, 17.26, 13.64, 14.2, 14.77, 14.96, 13.35, 14.45, 12.48, 12.74, 12.98, 14.81, 13.66, 14.93, 16.5, 11.73, 10.42, 13.5, 14.67, 11.98, 13.75, 16.69, 15.21, 15.78, 16.7, 16.34, 17.46, 18.53, 17.19, 17.7, 18.6, 16.97, 15.33, 12.99, 18.88]

>  <accession>  (853) 
1CQQ_A

>  <description>  (853) 
Chain A, TYPE 2 RHINOVIRUS 3C PROTEASE [rhinovirus A2]

>  <evalue>  (853) 
1.03838e-57

>  <pdb_code>  (853) 
1CQQ

>  <chain>  (853) 
A

>  <ligands>  (853) 
[{'chain_id': 'A', 'author_residue_number': 501, 'author_insertion_code': '', 'chem_comp_id': 'AG7', 'alternate_conformers': 0, 'entity_id': 2, 'struct_asym_id': 'B', 'residue_number': 1, 'chem_comp_name': '4-{2-(4-FLUORO-BENZYL)-6-METHYL-5-[(5-METHYL-ISOXAZOLE-3-CARBONYL)-AMINO]-4-OXO-HEPTANOYLAMINO}-5-(2-OXO-PYRROLIDIN-3-YL)-PENTANOIC ACID ETHYL ESTER', 'weight': 600.678, 'carbohydrate_polymer': False, 'branch_name': ''}]

>  <ligand_codes>  (853) 
['AG7']

>  <cofactor_codes>  (853) 
[]

>  <has_cofactor>  (853) 
False

>  <covalent>  (853) 
True

>  <base_name>  (853) 
1CQQ

>  <lig_resn>  (853) 
AG7

>  <lig_resi>  (853) 
501

>  <lig_chain>  (853) 
A

>  <lig_segi>  (853) 
B

>  <lig_alt>  (853) 


>  <polymer_chain>  (853) 
A

>  <single_smiles>  (853) 
CCOC(=O)CC[C@H](C[C@@H]1CCNC1=O)NC(=O)[C@@H](CC(=O)[C@@H](NC(=O)c2cc(C)on2)C(C)C)Cc3ccc(F)cc3

$$$$
AG7P22S4
     RDKit          3D

 36 37  0  0  0  0  0  0  0  0999 V2000
   -8.6290   16.3950  -31.6970 N   0  0  0  0  0  0  0  0  0  0  0  0
   -8.0860   16.0830  -33.0110 C   0  0  2  0  0  0  0  0  0  0  0  0
   -8.5840   14.6720  -33.4310 C   0  0  0  0  0  0  0  0  0  0  0  0
   -6.5580   16.1960  -32.8000 C   0  0  0  0  0  0  0  0  0  0  0  0
   -8.5890   14.3230  -34.9280 C   0  0  0  0  0  0  0  0  0  0  0  0
   -8.9950   13.8610  -32.6090 O   0  0  0  0  0  0  0  0  0  0  0  0
   -6.1440   17.6450  -33.1050 C   0  0  0  0  0  0  0  0  0  0  0  0
   -5.6460   15.2180  -33.5500 C   0  0  0  0  0  0  0  0  0  0  0  0
   -9.0560   12.8810  -35.1610 C   0  0  1  0  0  0  0  0  0  0  0  0
   -9.2680   12.7230  -36.6650 C   0  0  0  0  0  0  0  0  0  0  0  0
   -8.0530   11.8650  -34.6340 C   0  0  0  0  0  0  0  0  0  0  0  0
  -10.5280   13.3650  -37.0000 C   0  0  0  0  0  0  0  0  0  0  0  0
   -8.4650   10.8310  -33.9180 N   0  0  0  0  0  0  0  0  0  0  0  0
   -6.8480   12.0120  -34.8210 O   0  0  0  0  0  0  0  0  0  0  0  0
  -11.7240   12.8990  -36.4350 C   0  0  0  0  0  0  0  0  0  0  0  0
  -10.5610   14.4560  -37.8460 C   0  0  0  0  0  0  0  0  0  0  0  0
   -7.5030    9.8280  -33.4300 C   0  0  1  0  0  0  0  0  0  0  0  0
  -12.9320   13.5180  -36.7470 C   0  0  0  0  0  0  0  0  0  0  0  0
  -11.7810   15.0780  -38.1630 C   0  0  0  0  0  0  0  0  0  0  0  0
   -7.3880    9.7920  -31.9090 C   0  0  0  0  0  0  0  0  0  0  0  0
   -7.8280    8.4080  -34.0100 C   0  0  2  0  0  0  0  0  0  0  0  0
  -12.9510   14.6100  -37.6100 C   0  0  0  0  0  0  0  0  0  0  0  0
   -6.7420   11.0650  -31.3380 C   0  0  1  0  0  0  0  0  0  0  0  0
   -7.5620    8.3420  -35.5410 C   0  0  0  0  0  0  0  0  0  0  0  0
   -9.5770    7.9760  -33.7580 R   0  0  0  0  0  0  0  0  0  0  0  0
  -14.1050   15.1750  -37.9340 F   0  0  0  0  0  0  0  0  0  0  0  0
   -6.5610   11.0160  -29.8480 C   0  0  0  0  0  0  0  0  0  0  0  0
   -5.3020   11.3840  -31.7700 C   0  0  0  0  0  0  0  0  0  0  0  0
   -6.8410    7.0270  -35.9420 C   0  0  0  0  0  0  0  0  0  0  0  0
   -5.5900   11.7760  -29.4540 N   0  0  0  0  0  0  0  0  0  0  0  0
   -7.1850   10.2960  -29.0840 O   0  0  0  0  0  0  0  0  0  0  0  0
   -4.7450   12.2020  -30.5760 C   0  0  0  0  0  0  0  0  0  0  0  0
   -6.6320    6.9000  -37.2340 O   0  0  0  0  0  0  0  0  0  0  0  0
   -6.4740    6.2040  -35.1210 O   0  0  0  0  0  0  0  0  0  0  0  0
   -5.8650    5.7760  -37.7420 C   0  0  0  0  0  0  0  0  0  0  0  0
   -5.3170    6.1500  -39.1310 C   0  0  0  0  0  0  0  0  0  0  0  0
  2  1  1  1
  3  2  1  0
  2  4  1  0
  3  5  1  0
  3  6  2  0
  4  7  1  0
  4  8  1  0
  9  5  1  6
  9 10  1  0
  9 11  1  0
 10 12  1  0
 13 11  1  0
 11 14  2  0
 12 15  2  0
 12 16  1  0
 13 17  1  0
 15 18  1  0
 19 16  2  0
 17 20  1  1
 17 21  1  0
 18 22  2  0
 22 19  1  0
 23 20  1  6
 21 24  1  0
 21 25  1  6
 22 26  1  0
 23 27  1  0
 23 28  1  0
 24 29  1  0
 27 30  1  0
 27 31  2  0
 32 28  1  0
 29 33  1  0
 29 34  2  0
 30 32  1  0
 33 35  1  0
 35 36  1  0
V   25 *
A    2
 C57
A    3
 C01
A    4
 C78
A    5
 C02
A    6
 O03
A    7
 C81
A    8
 C82
A    9
 C04
A   10
 C05
A   11
 C47
A   12
 C06
A   13
 N12
A   14
 O48
A   15
 C07
A   16
 C11
A   17
 C13
A   18
 C08
A   19
 C10
A   20
 C14
A   21
 C19
A   22
 C09
A   23
 C15
A   24
 C20
A   25
 X  
A   26
 F1 
A   27
 C16
A   28
 C84
A   29
 C21
A   30
 N17
A   31
 O18
A   32
 C83
A   33
 O22
A   34
 O23
A   35
 C50
A   36
 C53
M  END
>  <XChem_code>  (854) 
AG7§22

>  <Occupancy>  (854) 
[1.0, 1.0, 1.0, 1.0, 1.0, 1.0, 1.0, 1.0, 1.0, 1.0, 1.0, 1.0, 1.0, 1.0, 1.0, 1.0, 1.0, 1.0, 1.0, 1.0, 1.0, 1.0, 1.0, 1.0, 1.0, 1.0, 1.0, 1.0, 1.0, 1.0, 1.0, 1.0, 1.0, 1.0, 1.0, 1.0, 1.0, 1.0, 1.0, 1.0, 1.0, 1.0, 1.0, 1.0]

>  <TempFactor>  (854) 
[16.99, 17.37, 15.03, 17.27, 16.93, 17.74, 13.17, 18.44, 18.15, 13.03, 17.26, 13.64, 14.2, 14.77, 14.96, 13.35, 14.45, 12.48, 12.74, 12.98, 14.81, 13.66, 14.93, 16.5, 11.73, 10.42, 13.5, 14.67, 11.98, 13.75, 16.69, 15.21, 15.78, 16.7, 16.34, 17.46, 18.53, 17.19, 17.7, 18.6, 16.97, 15.33, 12.99, 18.88]

>  <accession>  (854) 
1CQQ_A

>  <description>  (854) 
Chain A, TYPE 2 RHINOVIRUS 3C PROTEASE [rhinovirus A2]

>  <evalue>  (854) 
1.03838e-57

>  <pdb_code>  (854) 
1CQQ

>  <chain>  (854) 
A

>  <ligands>  (854) 
[{'chain_id': 'A', 'author_residue_number': 501, 'author_insertion_code': '', 'chem_comp_id': 'AG7', 'alternate_conformers': 0, 'entity_id': 2, 'struct_asym_id': 'B', 'residue_number': 1, 'chem_comp_name': '4-{2-(4-FLUORO-BENZYL)-6-METHYL-5-[(5-METHYL-ISOXAZOLE-3-CARBONYL)-AMINO]-4-OXO-HEPTANOYLAMINO}-5-(2-OXO-PYRROLIDIN-3-YL)-PENTANOIC ACID ETHYL ESTER', 'weight': 600.678, 'carbohydrate_polymer': False, 'branch_name': ''}]

>  <ligand_codes>  (854) 
['AG7']

>  <cofactor_codes>  (854) 
[]

>  <has_cofactor>  (854) 
False

>  <covalent>  (854) 
True

>  <base_name>  (854) 
1CQQ

>  <lig_resn>  (854) 
AG7

>  <lig_resi>  (854) 
501

>  <lig_chain>  (854) 
A

>  <lig_segi>  (854) 
B

>  <lig_alt>  (854) 


>  <polymer_chain>  (854) 
A

>  <single_smiles>  (854) 
CCOC(=O)CC[C@H](C[C@@H]1CCNC1=O)NC(=O)[C@@H](CC(=O)[C@@H](NC(=O)c2cc(C)on2)C(C)C)Cc3ccc(F)cc3

$$$$
AG7P22S5
     RDKit          3D

 19 19  0  0  0  0  0  0  0  0999 V2000
   -8.6290   16.3950  -31.6970 N   0  0  0  0  0  0  0  0  0  0  0  0
   -8.0860   16.0830  -33.0110 C   0  0  2  0  0  0  0  0  0  0  0  0
   -8.5840   14.6720  -33.4310 C   0  0  0  0  0  0  0  0  0  0  0  0
   -6.5580   16.1960  -32.8000 C   0  0  0  0  0  0  0  0  0  0  0  0
   -8.5890   14.3230  -34.9280 C   0  0  0  0  0  0  0  0  0  0  0  0
   -8.9950   13.8610  -32.6090 O   0  0  0  0  0  0  0  0  0  0  0  0
   -6.1440   17.6450  -33.1050 C   0  0  0  0  0  0  0  0  0  0  0  0
   -5.6460   15.2180  -33.5500 C   0  0  0  0  0  0  0  0  0  0  0  0
   -9.0560   12.8810  -35.1610 C   0  0  2  0  0  0  0  0  0  0  0  0
   -8.0530   11.8650  -34.6340 C   0  0  0  0  0  0  0  0  0  0  0  0
   -9.2680   12.7230  -36.6650 C   0  0  0  0  0  0  0  0  0  0  0  0
   -6.8480   12.0120  -34.8210 O   0  0  0  0  0  0  0  0  0  0  0  0
  -10.5280   13.3650  -37.0000 C   0  0  0  0  0  0  0  0  0  0  0  0
  -11.7240   12.8990  -36.4350 C   0  0  0  0  0  0  0  0  0  0  0  0
  -10.5610   14.4560  -37.8460 C   0  0  0  0  0  0  0  0  0  0  0  0
  -12.9320   13.5180  -36.7470 C   0  0  0  0  0  0  0  0  0  0  0  0
  -11.7810   15.0780  -38.1630 C   0  0  0  0  0  0  0  0  0  0  0  0
  -12.9510   14.6100  -37.6100 C   0  0  0  0  0  0  0  0  0  0  0  0
  -14.1050   15.1750  -37.9340 F   0  0  0  0  0  0  0  0  0  0  0  0
  2  1  1  1
  3  2  1  0
  2  4  1  0
  3  5  1  0
  3  6  2  0
  4  7  1  0
  4  8  1  0
  9  5  1  6
  9 10  1  0
  9 11  1  0
 10 12  2  0
 11 13  1  0
 13 14  2  0
 13 15  1  0
 14 16  1  0
 17 15  2  0
 16 18  2  0
 18 17  1  0
 18 19  1  0
A    2
 C57
A    3
 C01
A    4
 C78
A    5
 C02
A    6
 O03
A    7
 C81
A    8
 C82
A    9
 C04
A   11
 C05
A   12
 O48
A   13
 C06
A   14
 C07
A   15
 C11
A   16
 C08
A   17
 C10
A   18
 C09
A   19
 F1 
M  END
>  <XChem_code>  (855) 
AG7§22

>  <Occupancy>  (855) 
[1.0, 1.0, 1.0, 1.0, 1.0, 1.0, 1.0, 1.0, 1.0, 1.0, 1.0, 1.0, 1.0, 1.0, 1.0, 1.0, 1.0, 1.0, 1.0, 1.0, 1.0, 1.0, 1.0, 1.0, 1.0, 1.0, 1.0, 1.0, 1.0, 1.0, 1.0, 1.0, 1.0, 1.0, 1.0, 1.0, 1.0, 1.0, 1.0, 1.0, 1.0, 1.0, 1.0, 1.0]

>  <TempFactor>  (855) 
[16.99, 17.37, 15.03, 17.27, 16.93, 17.74, 13.17, 18.44, 18.15, 13.03, 17.26, 13.64, 14.2, 14.77, 14.96, 13.35, 14.45, 12.48, 12.74, 12.98, 14.81, 13.66, 14.93, 16.5, 11.73, 10.42, 13.5, 14.67, 11.98, 13.75, 16.69, 15.21, 15.78, 16.7, 16.34, 17.46, 18.53, 17.19, 17.7, 18.6, 16.97, 15.33, 12.99, 18.88]

>  <accession>  (855) 
1CQQ_A

>  <description>  (855) 
Chain A, TYPE 2 RHINOVIRUS 3C PROTEASE [rhinovirus A2]

>  <evalue>  (855) 
1.03838e-57

>  <pdb_code>  (855) 
1CQQ

>  <chain>  (855) 
A

>  <ligands>  (855) 
[{'chain_id': 'A', 'author_residue_number': 501, 'author_insertion_code': '', 'chem_comp_id': 'AG7', 'alternate_conformers': 0, 'entity_id': 2, 'struct_asym_id': 'B', 'residue_number': 1, 'chem_comp_name': '4-{2-(4-FLUORO-BENZYL)-6-METHYL-5-[(5-METHYL-ISOXAZOLE-3-CARBONYL)-AMINO]-4-OXO-HEPTANOYLAMINO}-5-(2-OXO-PYRROLIDIN-3-YL)-PENTANOIC ACID ETHYL ESTER', 'weight': 600.678, 'carbohydrate_polymer': False, 'branch_name': ''}]

>  <ligand_codes>  (855) 
['AG7']

>  <cofactor_codes>  (855) 
[]

>  <has_cofactor>  (855) 
False

>  <covalent>  (855) 
True

>  <base_name>  (855) 
1CQQ

>  <lig_resn>  (855) 
AG7

>  <lig_resi>  (855) 
501

>  <lig_chain>  (855) 
A

>  <lig_segi>  (855) 
B

>  <lig_alt>  (855) 


>  <polymer_chain>  (855) 
A

>  <single_smiles>  (855) 
CCOC(=O)CC[C@H](C[C@@H]1CCNC1=O)NC(=O)[C@@H](CC(=O)[C@@H](NC(=O)c2cc(C)on2)C(C)C)Cc3ccc(F)cc3

$$$$
AG7P22S6
     RDKit          3D

 16 16  0  0  0  0  0  0  0  0999 V2000
   -7.5030    9.8280  -33.4300 C   0  0  0  0  0  0  0  0  0  0  0  0
   -7.3880    9.7920  -31.9090 C   0  0  0  0  0  0  0  0  0  0  0  0
   -7.8280    8.4080  -34.0100 C   0  0  2  0  0  0  0  0  0  0  0  0
   -6.7420   11.0650  -31.3380 C   0  0  1  0  0  0  0  0  0  0  0  0
   -7.5620    8.3420  -35.5410 C   0  0  0  0  0  0  0  0  0  0  0  0
   -9.5770    7.9760  -33.7580 R   0  0  0  0  0  0  0  0  0  0  0  0
   -6.5610   11.0160  -29.8480 C   0  0  0  0  0  0  0  0  0  0  0  0
   -5.3020   11.3840  -31.7700 C   0  0  0  0  0  0  0  0  0  0  0  0
   -6.8410    7.0270  -35.9420 C   0  0  0  0  0  0  0  0  0  0  0  0
   -5.5900   11.7760  -29.4540 N   0  0  0  0  0  0  0  0  0  0  0  0
   -7.1850   10.2960  -29.0840 O   0  0  0  0  0  0  0  0  0  0  0  0
   -4.7450   12.2020  -30.5760 C   0  0  0  0  0  0  0  0  0  0  0  0
   -6.6320    6.9000  -37.2340 O   0  0  0  0  0  0  0  0  0  0  0  0
   -6.4740    6.2040  -35.1210 O   0  0  0  0  0  0  0  0  0  0  0  0
   -5.8650    5.7760  -37.7420 C   0  0  0  0  0  0  0  0  0  0  0  0
   -5.3170    6.1500  -39.1310 C   0  0  0  0  0  0  0  0  0  0  0  0
  1  2  1  6
  1  3  1  0
  4  2  1  6
  3  5  1  0
  3  6  1  6
  4  7  1  0
  4  8  1  0
  5  9  1  0
  7 10  1  0
  7 11  2  0
 12  8  1  0
  9 13  1  0
  9 14  2  0
 10 12  1  0
 13 15  1  0
 15 16  1  0
V    6 *
A    2
 C14
A    3
 C19
A    4
 C15
A    5
 C20
A    6
 X  
A    7
 C16
A    8
 C84
A    9
 C21
A   10
 N17
A   11
 O18
A   12
 C83
A   13
 O22
A   14
 O23
A   15
 C50
A   16
 C53
M  END
>  <XChem_code>  (856) 
AG7§22

>  <Occupancy>  (856) 
[1.0, 1.0, 1.0, 1.0, 1.0, 1.0, 1.0, 1.0, 1.0, 1.0, 1.0, 1.0, 1.0, 1.0, 1.0, 1.0, 1.0, 1.0, 1.0, 1.0, 1.0, 1.0, 1.0, 1.0, 1.0, 1.0, 1.0, 1.0, 1.0, 1.0, 1.0, 1.0, 1.0, 1.0, 1.0, 1.0, 1.0, 1.0, 1.0, 1.0, 1.0, 1.0, 1.0, 1.0]

>  <TempFactor>  (856) 
[16.99, 17.37, 15.03, 17.27, 16.93, 17.74, 13.17, 18.44, 18.15, 13.03, 17.26, 13.64, 14.2, 14.77, 14.96, 13.35, 14.45, 12.48, 12.74, 12.98, 14.81, 13.66, 14.93, 16.5, 11.73, 10.42, 13.5, 14.67, 11.98, 13.75, 16.69, 15.21, 15.78, 16.7, 16.34, 17.46, 18.53, 17.19, 17.7, 18.6, 16.97, 15.33, 12.99, 18.88]

>  <accession>  (856) 
1CQQ_A

>  <description>  (856) 
Chain A, TYPE 2 RHINOVIRUS 3C PROTEASE [rhinovirus A2]

>  <evalue>  (856) 
1.03838e-57

>  <pdb_code>  (856) 
1CQQ

>  <chain>  (856) 
A

>  <ligands>  (856) 
[{'chain_id': 'A', 'author_residue_number': 501, 'author_insertion_code': '', 'chem_comp_id': 'AG7', 'alternate_conformers': 0, 'entity_id': 2, 'struct_asym_id': 'B', 'residue_number': 1, 'chem_comp_name': '4-{2-(4-FLUORO-BENZYL)-6-METHYL-5-[(5-METHYL-ISOXAZOLE-3-CARBONYL)-AMINO]-4-OXO-HEPTANOYLAMINO}-5-(2-OXO-PYRROLIDIN-3-YL)-PENTANOIC ACID ETHYL ESTER', 'weight': 600.678, 'carbohydrate_polymer': False, 'branch_name': ''}]

>  <ligand_codes>  (856) 
['AG7']

>  <cofactor_codes>  (856) 
[]

>  <has_cofactor>  (856) 
False

>  <covalent>  (856) 
True

>  <base_name>  (856) 
1CQQ

>  <lig_resn>  (856) 
AG7

>  <lig_resi>  (856) 
501

>  <lig_chain>  (856) 
A

>  <lig_segi>  (856) 
B

>  <lig_alt>  (856) 


>  <polymer_chain>  (856) 
A

>  <single_smiles>  (856) 
CCOC(=O)CC[C@H](C[C@@H]1CCNC1=O)NC(=O)[C@@H](CC(=O)[C@@H](NC(=O)c2cc(C)on2)C(C)C)Cc3ccc(F)cc3

$$$$
AG7P22S7
     RDKit          3D

 28 29  0  0  0  0  0  0  0  0999 V2000
   -8.4650   10.8310  -33.9180 N   0  0  0  0  0  0  0  0  0  0  0  0
   -8.0530   11.8650  -34.6340 C   0  0  0  0  0  0  0  0  0  0  0  0
   -9.0560   12.8810  -35.1610 C   0  0  1  0  0  0  0  0  0  0  0  0
   -6.8480   12.0120  -34.8210 O   0  0  0  0  0  0  0  0  0  0  0  0
   -8.5890   14.3230  -34.9280 C   0  0  0  0  0  0  0  0  0  0  0  0
   -9.2680   12.7230  -36.6650 C   0  0  0  0  0  0  0  0  0  0  0  0
   -8.5840   14.6720  -33.4310 C   0  0  0  0  0  0  0  0  0  0  0  0
  -10.5280   13.3650  -37.0000 C   0  0  0  0  0  0  0  0  0  0  0  0
   -8.9950   13.8610  -32.6090 O   0  0  0  0  0  0  0  0  0  0  0  0
   -8.0860   16.0830  -33.0110 C   0  0  1  0  0  0  0  0  0  0  0  0
  -11.7240   12.8990  -36.4350 C   0  0  0  0  0  0  0  0  0  0  0  0
  -10.5610   14.4560  -37.8460 C   0  0  0  0  0  0  0  0  0  0  0  0
   -8.6290   16.3950  -31.6970 N   0  0  0  0  0  0  0  0  0  0  0  0
   -6.5580   16.1960  -32.8000 C   0  0  0  0  0  0  0  0  0  0  0  0
  -12.9320   13.5180  -36.7470 C   0  0  0  0  0  0  0  0  0  0  0  0
  -11.7810   15.0780  -38.1630 C   0  0  0  0  0  0  0  0  0  0  0  0
   -9.5640   17.2990  -31.5320 C   0  0  0  0  0  0  0  0  0  0  0  0
   -6.1440   17.6450  -33.1050 C   0  0  0  0  0  0  0  0  0  0  0  0
   -5.6460   15.2180  -33.5500 C   0  0  0  0  0  0  0  0  0  0  0  0
  -12.9510   14.6100  -37.6100 C   0  0  0  0  0  0  0  0  0  0  0  0
  -10.0630   17.4900  -30.2480 C   0  0  0  0  0  0  0  0  0  0  0  0
   -9.9690   17.8730  -32.5270 O   0  0  0  0  0  0  0  0  0  0  0  0
  -14.1050   15.1750  -37.9340 F   0  0  0  0  0  0  0  0  0  0  0  0
  -11.1890   18.2730  -30.0350 C   0  0  0  0  0  0  0  0  0  0  0  0
   -9.6280   16.9280  -29.1140 N   0  0  0  0  0  0  0  0  0  0  0  0
  -11.4230   18.1130  -28.6670 C   0  0  0  0  0  0  0  0  0  0  0  0
  -10.5110   17.3020  -28.1260 O   0  0  0  0  0  0  0  0  0  0  0  0
  -12.5130   18.7590  -27.8190 C   0  0  0  0  0  0  0  0  0  0  0  0
  1  2  1  0
  3  2  1  0
  2  4  2  0
  3  5  1  6
  3  6  1  0
  7  5  1  0
  6  8  1  0
  7  9  2  0
  7 10  1  0
  8 11  2  0
  8 12  1  0
 10 13  1  1
 10 14  1  0
 11 15  1  0
 16 12  2  0
 13 17  1  0
 14 18  1  0
 14 19  1  0
 15 20  2  0
 20 16  1  0
 21 17  1  0
 17 22  2  0
 20 23  1  0
 21 24  1  0
 21 25  2  0
 24 26  2  0
 27 25  1  0
 26 28  1  0
 26 27  1  0
A    2
 C47
A    3
 C04
A    4
 O48
A    5
 C02
A    6
 C05
A    7
 C01
A    8
 C06
A    9
 O03
A   10
 C57
A   11
 C07
A   12
 C11
A   13
 N58
A   14
 C78
A   15
 C08
A   16
 C10
A   17
 C59
A   18
 C81
A   19
 C82
A   20
 C09
A   21
 C1 
A   22
 O60
A   23
 F1 
A   24
 C2 
A   25
 N5 
A   26
 C3 
A   27
 O4 
A   28
 C4 
M  END
>  <XChem_code>  (857) 
AG7§22

>  <Occupancy>  (857) 
[1.0, 1.0, 1.0, 1.0, 1.0, 1.0, 1.0, 1.0, 1.0, 1.0, 1.0, 1.0, 1.0, 1.0, 1.0, 1.0, 1.0, 1.0, 1.0, 1.0, 1.0, 1.0, 1.0, 1.0, 1.0, 1.0, 1.0, 1.0, 1.0, 1.0, 1.0, 1.0, 1.0, 1.0, 1.0, 1.0, 1.0, 1.0, 1.0, 1.0, 1.0, 1.0, 1.0, 1.0]

>  <TempFactor>  (857) 
[16.99, 17.37, 15.03, 17.27, 16.93, 17.74, 13.17, 18.44, 18.15, 13.03, 17.26, 13.64, 14.2, 14.77, 14.96, 13.35, 14.45, 12.48, 12.74, 12.98, 14.81, 13.66, 14.93, 16.5, 11.73, 10.42, 13.5, 14.67, 11.98, 13.75, 16.69, 15.21, 15.78, 16.7, 16.34, 17.46, 18.53, 17.19, 17.7, 18.6, 16.97, 15.33, 12.99, 18.88]

>  <accession>  (857) 
1CQQ_A

>  <description>  (857) 
Chain A, TYPE 2 RHINOVIRUS 3C PROTEASE [rhinovirus A2]

>  <evalue>  (857) 
1.03838e-57

>  <pdb_code>  (857) 
1CQQ

>  <chain>  (857) 
A

>  <ligands>  (857) 
[{'chain_id': 'A', 'author_residue_number': 501, 'author_insertion_code': '', 'chem_comp_id': 'AG7', 'alternate_conformers': 0, 'entity_id': 2, 'struct_asym_id': 'B', 'residue_number': 1, 'chem_comp_name': '4-{2-(4-FLUORO-BENZYL)-6-METHYL-5-[(5-METHYL-ISOXAZOLE-3-CARBONYL)-AMINO]-4-OXO-HEPTANOYLAMINO}-5-(2-OXO-PYRROLIDIN-3-YL)-PENTANOIC ACID ETHYL ESTER', 'weight': 600.678, 'carbohydrate_polymer': False, 'branch_name': ''}]

>  <ligand_codes>  (857) 
['AG7']

>  <cofactor_codes>  (857) 
[]

>  <has_cofactor>  (857) 
False

>  <covalent>  (857) 
True

>  <base_name>  (857) 
1CQQ

>  <lig_resn>  (857) 
AG7

>  <lig_resi>  (857) 
501

>  <lig_chain>  (857) 
A

>  <lig_segi>  (857) 
B

>  <lig_alt>  (857) 


>  <polymer_chain>  (857) 
A

>  <single_smiles>  (857) 
CCOC(=O)CC[C@H](C[C@@H]1CCNC1=O)NC(=O)[C@@H](CC(=O)[C@@H](NC(=O)c2cc(C)on2)C(C)C)Cc3ccc(F)cc3

$$$$
AG7P22S8
     RDKit          3D

  9  9  0  0  0  0  0  0  0  0999 V2000
   -8.6290   16.3950  -31.6970 N   0  0  0  0  0  0  0  0  0  0  0  0
   -9.5640   17.2990  -31.5320 C   0  0  0  0  0  0  0  0  0  0  0  0
  -10.0630   17.4900  -30.2480 C   0  0  0  0  0  0  0  0  0  0  0  0
   -9.9690   17.8730  -32.5270 O   0  0  0  0  0  0  0  0  0  0  0  0
  -11.1890   18.2730  -30.0350 C   0  0  0  0  0  0  0  0  0  0  0  0
   -9.6280   16.9280  -29.1140 N   0  0  0  0  0  0  0  0  0  0  0  0
  -11.4230   18.1130  -28.6670 C   0  0  0  0  0  0  0  0  0  0  0  0
  -10.5110   17.3020  -28.1260 O   0  0  0  0  0  0  0  0  0  0  0  0
  -12.5130   18.7590  -27.8190 C   0  0  0  0  0  0  0  0  0  0  0  0
  1  2  1  0
  3  2  1  0
  2  4  2  0
  3  5  1  0
  3  6  2  0
  5  7  2  0
  8  6  1  0
  7  9  1  0
  7  8  1  0
A    2
 C59
A    3
 C1 
A    4
 O60
A    5
 C2 
A    6
 N5 
A    7
 C3 
A    8
 O4 
A    9
 C4 
M  END
>  <XChem_code>  (858) 
AG7§22

>  <Occupancy>  (858) 
[1.0, 1.0, 1.0, 1.0, 1.0, 1.0, 1.0, 1.0, 1.0, 1.0, 1.0, 1.0, 1.0, 1.0, 1.0, 1.0, 1.0, 1.0, 1.0, 1.0, 1.0, 1.0, 1.0, 1.0, 1.0, 1.0, 1.0, 1.0, 1.0, 1.0, 1.0, 1.0, 1.0, 1.0, 1.0, 1.0, 1.0, 1.0, 1.0, 1.0, 1.0, 1.0, 1.0, 1.0]

>  <TempFactor>  (858) 
[16.99, 17.37, 15.03, 17.27, 16.93, 17.74, 13.17, 18.44, 18.15, 13.03, 17.26, 13.64, 14.2, 14.77, 14.96, 13.35, 14.45, 12.48, 12.74, 12.98, 14.81, 13.66, 14.93, 16.5, 11.73, 10.42, 13.5, 14.67, 11.98, 13.75, 16.69, 15.21, 15.78, 16.7, 16.34, 17.46, 18.53, 17.19, 17.7, 18.6, 16.97, 15.33, 12.99, 18.88]

>  <accession>  (858) 
1CQQ_A

>  <description>  (858) 
Chain A, TYPE 2 RHINOVIRUS 3C PROTEASE [rhinovirus A2]

>  <evalue>  (858) 
1.03838e-57

>  <pdb_code>  (858) 
1CQQ

>  <chain>  (858) 
A

>  <ligands>  (858) 
[{'chain_id': 'A', 'author_residue_number': 501, 'author_insertion_code': '', 'chem_comp_id': 'AG7', 'alternate_conformers': 0, 'entity_id': 2, 'struct_asym_id': 'B', 'residue_number': 1, 'chem_comp_name': '4-{2-(4-FLUORO-BENZYL)-6-METHYL-5-[(5-METHYL-ISOXAZOLE-3-CARBONYL)-AMINO]-4-OXO-HEPTANOYLAMINO}-5-(2-OXO-PYRROLIDIN-3-YL)-PENTANOIC ACID ETHYL ESTER', 'weight': 600.678, 'carbohydrate_polymer': False, 'branch_name': ''}]

>  <ligand_codes>  (858) 
['AG7']

>  <cofactor_codes>  (858) 
[]

>  <has_cofactor>  (858) 
False

>  <covalent>  (858) 
True

>  <base_name>  (858) 
1CQQ

>  <lig_resn>  (858) 
AG7

>  <lig_resi>  (858) 
501

>  <lig_chain>  (858) 
A

>  <lig_segi>  (858) 
B

>  <lig_alt>  (858) 


>  <polymer_chain>  (858) 
A

>  <single_smiles>  (858) 
CCOC(=O)CC[C@H](C[C@@H]1CCNC1=O)NC(=O)[C@@H](CC(=O)[C@@H](NC(=O)c2cc(C)on2)C(C)C)Cc3ccc(F)cc3

$$$$
AG7P22S9
     RDKit          3D

 35 36  0  0  0  0  0  0  0  0999 V2000
   -8.0860   16.0830  -33.0110 C   0  0  0  0  0  0  0  0  0  0  0  0
   -8.5840   14.6720  -33.4310 C   0  0  0  0  0  0  0  0  0  0  0  0
   -6.5580   16.1960  -32.8000 C   0  0  0  0  0  0  0  0  0  0  0  0
   -8.5890   14.3230  -34.9280 C   0  0  0  0  0  0  0  0  0  0  0  0
   -8.9950   13.8610  -32.6090 O   0  0  0  0  0  0  0  0  0  0  0  0
   -6.1440   17.6450  -33.1050 C   0  0  0  0  0  0  0  0  0  0  0  0
   -5.6460   15.2180  -33.5500 C   0  0  0  0  0  0  0  0  0  0  0  0
   -9.0560   12.8810  -35.1610 C   0  0  1  0  0  0  0  0  0  0  0  0
   -9.2680   12.7230  -36.6650 C   0  0  0  0  0  0  0  0  0  0  0  0
   -8.0530   11.8650  -34.6340 C   0  0  0  0  0  0  0  0  0  0  0  0
  -10.5280   13.3650  -37.0000 C   0  0  0  0  0  0  0  0  0  0  0  0
   -8.4650   10.8310  -33.9180 N   0  0  0  0  0  0  0  0  0  0  0  0
   -6.8480   12.0120  -34.8210 O   0  0  0  0  0  0  0  0  0  0  0  0
  -11.7240   12.8990  -36.4350 C   0  0  0  0  0  0  0  0  0  0  0  0
  -10.5610   14.4560  -37.8460 C   0  0  0  0  0  0  0  0  0  0  0  0
   -7.5030    9.8280  -33.4300 C   0  0  1  0  0  0  0  0  0  0  0  0
  -12.9320   13.5180  -36.7470 C   0  0  0  0  0  0  0  0  0  0  0  0
  -11.7810   15.0780  -38.1630 C   0  0  0  0  0  0  0  0  0  0  0  0
   -7.3880    9.7920  -31.9090 C   0  0  0  0  0  0  0  0  0  0  0  0
   -7.8280    8.4080  -34.0100 C   0  0  2  0  0  0  0  0  0  0  0  0
  -12.9510   14.6100  -37.6100 C   0  0  0  0  0  0  0  0  0  0  0  0
   -6.7420   11.0650  -31.3380 C   0  0  1  0  0  0  0  0  0  0  0  0
   -7.5620    8.3420  -35.5410 C   0  0  0  0  0  0  0  0  0  0  0  0
   -9.5770    7.9760  -33.7580 R   0  0  0  0  0  0  0  0  0  0  0  0
  -14.1050   15.1750  -37.9340 F   0  0  0  0  0  0  0  0  0  0  0  0
   -6.5610   11.0160  -29.8480 C   0  0  0  0  0  0  0  0  0  0  0  0
   -5.3020   11.3840  -31.7700 C   0  0  0  0  0  0  0  0  0  0  0  0
   -6.8410    7.0270  -35.9420 C   0  0  0  0  0  0  0  0  0  0  0  0
   -5.5900   11.7760  -29.4540 N   0  0  0  0  0  0  0  0  0  0  0  0
   -7.1850   10.2960  -29.0840 O   0  0  0  0  0  0  0  0  0  0  0  0
   -4.7450   12.2020  -30.5760 C   0  0  0  0  0  0  0  0  0  0  0  0
   -6.6320    6.9000  -37.2340 O   0  0  0  0  0  0  0  0  0  0  0  0
   -6.4740    6.2040  -35.1210 O   0  0  0  0  0  0  0  0  0  0  0  0
   -5.8650    5.7760  -37.7420 C   0  0  0  0  0  0  0  0  0  0  0  0
   -5.3170    6.1500  -39.1310 C   0  0  0  0  0  0  0  0  0  0  0  0
  2  1  1  0
  1  3  1  6
  2  4  1  0
  2  5  2  0
  3  6  1  0
  3  7  1  0
  8  4  1  6
  8  9  1  0
  8 10  1  0
  9 11  1  0
 12 10  1  0
 10 13  2  0
 11 14  2  0
 11 15  1  0
 12 16  1  0
 14 17  1  0
 18 15  2  0
 16 19  1  1
 16 20  1  0
 17 21  2  0
 21 18  1  0
 22 19  1  6
 20 23  1  0
 20 24  1  6
 21 25  1  0
 22 26  1  0
 22 27  1  0
 23 28  1  0
 26 29  1  0
 26 30  2  0
 31 27  1  0
 28 32  1  0
 28 33  2  0
 29 31  1  0
 32 34  1  0
 34 35  1  0
V   24 *
A    2
 C01
A    3
 C78
A    4
 C02
A    5
 O03
A    6
 C81
A    7
 C82
A    8
 C04
A    9
 C05
A   10
 C47
A   11
 C06
A   12
 N12
A   13
 O48
A   14
 C07
A   15
 C11
A   16
 C13
A   17
 C08
A   18
 C10
A   19
 C14
A   20
 C19
A   21
 C09
A   22
 C15
A   23
 C20
A   24
 X  
A   25
 F1 
A   26
 C16
A   27
 C84
A   28
 C21
A   29
 N17
A   30
 O18
A   31
 C83
A   32
 O22
A   33
 O23
A   34
 C50
A   35
 C53
M  END
>  <XChem_code>  (859) 
AG7§22

>  <Occupancy>  (859) 
[1.0, 1.0, 1.0, 1.0, 1.0, 1.0, 1.0, 1.0, 1.0, 1.0, 1.0, 1.0, 1.0, 1.0, 1.0, 1.0, 1.0, 1.0, 1.0, 1.0, 1.0, 1.0, 1.0, 1.0, 1.0, 1.0, 1.0, 1.0, 1.0, 1.0, 1.0, 1.0, 1.0, 1.0, 1.0, 1.0, 1.0, 1.0, 1.0, 1.0, 1.0, 1.0, 1.0, 1.0]

>  <TempFactor>  (859) 
[16.99, 17.37, 15.03, 17.27, 16.93, 17.74, 13.17, 18.44, 18.15, 13.03, 17.26, 13.64, 14.2, 14.77, 14.96, 13.35, 14.45, 12.48, 12.74, 12.98, 14.81, 13.66, 14.93, 16.5, 11.73, 10.42, 13.5, 14.67, 11.98, 13.75, 16.69, 15.21, 15.78, 16.7, 16.34, 17.46, 18.53, 17.19, 17.7, 18.6, 16.97, 15.33, 12.99, 18.88]

>  <accession>  (859) 
1CQQ_A

>  <description>  (859) 
Chain A, TYPE 2 RHINOVIRUS 3C PROTEASE [rhinovirus A2]

>  <evalue>  (859) 
1.03838e-57

>  <pdb_code>  (859) 
1CQQ

>  <chain>  (859) 
A

>  <ligands>  (859) 
[{'chain_id': 'A', 'author_residue_number': 501, 'author_insertion_code': '', 'chem_comp_id': 'AG7', 'alternate_conformers': 0, 'entity_id': 2, 'struct_asym_id': 'B', 'residue_number': 1, 'chem_comp_name': '4-{2-(4-FLUORO-BENZYL)-6-METHYL-5-[(5-METHYL-ISOXAZOLE-3-CARBONYL)-AMINO]-4-OXO-HEPTANOYLAMINO}-5-(2-OXO-PYRROLIDIN-3-YL)-PENTANOIC ACID ETHYL ESTER', 'weight': 600.678, 'carbohydrate_polymer': False, 'branch_name': ''}]

>  <ligand_codes>  (859) 
['AG7']

>  <cofactor_codes>  (859) 
[]

>  <has_cofactor>  (859) 
False

>  <covalent>  (859) 
True

>  <base_name>  (859) 
1CQQ

>  <lig_resn>  (859) 
AG7

>  <lig_resi>  (859) 
501

>  <lig_chain>  (859) 
A

>  <lig_segi>  (859) 
B

>  <lig_alt>  (859) 


>  <polymer_chain>  (859) 
A

>  <single_smiles>  (859) 
CCOC(=O)CC[C@H](C[C@@H]1CCNC1=O)NC(=O)[C@@H](CC(=O)[C@@H](NC(=O)c2cc(C)on2)C(C)C)Cc3ccc(F)cc3

$$$$
AG7P22S10
     RDKit          3D

 18 18  0  0  0  0  0  0  0  0999 V2000
   -8.0860   16.0830  -33.0110 C   0  0  0  0  0  0  0  0  0  0  0  0
   -8.5840   14.6720  -33.4310 C   0  0  0  0  0  0  0  0  0  0  0  0
   -6.5580   16.1960  -32.8000 C   0  0  0  0  0  0  0  0  0  0  0  0
   -8.5890   14.3230  -34.9280 C   0  0  0  0  0  0  0  0  0  0  0  0
   -8.9950   13.8610  -32.6090 O   0  0  0  0  0  0  0  0  0  0  0  0
   -6.1440   17.6450  -33.1050 C   0  0  0  0  0  0  0  0  0  0  0  0
   -5.6460   15.2180  -33.5500 C   0  0  0  0  0  0  0  0  0  0  0  0
   -9.0560   12.8810  -35.1610 C   0  0  2  0  0  0  0  0  0  0  0  0
   -8.0530   11.8650  -34.6340 C   0  0  0  0  0  0  0  0  0  0  0  0
   -9.2680   12.7230  -36.6650 C   0  0  0  0  0  0  0  0  0  0  0  0
   -6.8480   12.0120  -34.8210 O   0  0  0  0  0  0  0  0  0  0  0  0
  -10.5280   13.3650  -37.0000 C   0  0  0  0  0  0  0  0  0  0  0  0
  -11.7240   12.8990  -36.4350 C   0  0  0  0  0  0  0  0  0  0  0  0
  -10.5610   14.4560  -37.8460 C   0  0  0  0  0  0  0  0  0  0  0  0
  -12.9320   13.5180  -36.7470 C   0  0  0  0  0  0  0  0  0  0  0  0
  -11.7810   15.0780  -38.1630 C   0  0  0  0  0  0  0  0  0  0  0  0
  -12.9510   14.6100  -37.6100 C   0  0  0  0  0  0  0  0  0  0  0  0
  -14.1050   15.1750  -37.9340 F   0  0  0  0  0  0  0  0  0  0  0  0
  2  1  1  0
  1  3  1  6
  2  4  1  0
  2  5  2  0
  3  6  1  0
  3  7  1  0
  8  4  1  6
  8  9  1  0
  8 10  1  0
  9 11  2  0
 10 12  1  0
 12 13  2  0
 12 14  1  0
 13 15  1  0
 16 14  2  0
 15 17  2  0
 17 16  1  0
 17 18  1  0
A    2
 C01
A    3
 C78
A    4
 C02
A    5
 O03
A    6
 C81
A    7
 C82
A    8
 C04
A   10
 C05
A   11
 O48
A   12
 C06
A   13
 C07
A   14
 C11
A   15
 C08
A   16
 C10
A   17
 C09
A   18
 F1 
M  END
>  <XChem_code>  (860) 
AG7§22

>  <Occupancy>  (860) 
[1.0, 1.0, 1.0, 1.0, 1.0, 1.0, 1.0, 1.0, 1.0, 1.0, 1.0, 1.0, 1.0, 1.0, 1.0, 1.0, 1.0, 1.0, 1.0, 1.0, 1.0, 1.0, 1.0, 1.0, 1.0, 1.0, 1.0, 1.0, 1.0, 1.0, 1.0, 1.0, 1.0, 1.0, 1.0, 1.0, 1.0, 1.0, 1.0, 1.0, 1.0, 1.0, 1.0, 1.0]

>  <TempFactor>  (860) 
[16.99, 17.37, 15.03, 17.27, 16.93, 17.74, 13.17, 18.44, 18.15, 13.03, 17.26, 13.64, 14.2, 14.77, 14.96, 13.35, 14.45, 12.48, 12.74, 12.98, 14.81, 13.66, 14.93, 16.5, 11.73, 10.42, 13.5, 14.67, 11.98, 13.75, 16.69, 15.21, 15.78, 16.7, 16.34, 17.46, 18.53, 17.19, 17.7, 18.6, 16.97, 15.33, 12.99, 18.88]

>  <accession>  (860) 
1CQQ_A

>  <description>  (860) 
Chain A, TYPE 2 RHINOVIRUS 3C PROTEASE [rhinovirus A2]

>  <evalue>  (860) 
1.03838e-57

>  <pdb_code>  (860) 
1CQQ

>  <chain>  (860) 
A

>  <ligands>  (860) 
[{'chain_id': 'A', 'author_residue_number': 501, 'author_insertion_code': '', 'chem_comp_id': 'AG7', 'alternate_conformers': 0, 'entity_id': 2, 'struct_asym_id': 'B', 'residue_number': 1, 'chem_comp_name': '4-{2-(4-FLUORO-BENZYL)-6-METHYL-5-[(5-METHYL-ISOXAZOLE-3-CARBONYL)-AMINO]-4-OXO-HEPTANOYLAMINO}-5-(2-OXO-PYRROLIDIN-3-YL)-PENTANOIC ACID ETHYL ESTER', 'weight': 600.678, 'carbohydrate_polymer': False, 'branch_name': ''}]

>  <ligand_codes>  (860) 
['AG7']

>  <cofactor_codes>  (860) 
[]

>  <has_cofactor>  (860) 
False

>  <covalent>  (860) 
True

>  <base_name>  (860) 
1CQQ

>  <lig_resn>  (860) 
AG7

>  <lig_resi>  (860) 
501

>  <lig_chain>  (860) 
A

>  <lig_segi>  (860) 
B

>  <lig_alt>  (860) 


>  <polymer_chain>  (860) 
A

>  <single_smiles>  (860) 
CCOC(=O)CC[C@H](C[C@@H]1CCNC1=O)NC(=O)[C@@H](CC(=O)[C@@H](NC(=O)c2cc(C)on2)C(C)C)Cc3ccc(F)cc3

$$$$
AG7P22S11
     RDKit          3D

 20 20  0  0  0  0  0  0  0  0999 V2000
   -8.4650   10.8310  -33.9180 N   0  0  0  0  0  0  0  0  0  0  0  0
   -8.0530   11.8650  -34.6340 C   0  0  0  0  0  0  0  0  0  0  0  0
   -9.0560   12.8810  -35.1610 C   0  0  1  0  0  0  0  0  0  0  0  0
   -6.8480   12.0120  -34.8210 O   0  0  0  0  0  0  0  0  0  0  0  0
   -8.5890   14.3230  -34.9280 C   0  0  0  0  0  0  0  0  0  0  0  0
   -9.2680   12.7230  -36.6650 C   0  0  0  0  0  0  0  0  0  0  0  0
   -8.5840   14.6720  -33.4310 C   0  0  0  0  0  0  0  0  0  0  0  0
  -10.5280   13.3650  -37.0000 C   0  0  0  0  0  0  0  0  0  0  0  0
   -8.0860   16.0830  -33.0110 C   0  0  1  0  0  0  0  0  0  0  0  0
   -8.9950   13.8610  -32.6090 O   0  0  0  0  0  0  0  0  0  0  0  0
  -11.7240   12.8990  -36.4350 C   0  0  0  0  0  0  0  0  0  0  0  0
  -10.5610   14.4560  -37.8460 C   0  0  0  0  0  0  0  0  0  0  0  0
   -8.6290   16.3950  -31.6970 N   0  0  0  0  0  0  0  0  0  0  0  0
   -6.5580   16.1960  -32.8000 C   0  0  0  0  0  0  0  0  0  0  0  0
  -12.9320   13.5180  -36.7470 C   0  0  0  0  0  0  0  0  0  0  0  0
  -11.7810   15.0780  -38.1630 C   0  0  0  0  0  0  0  0  0  0  0  0
   -6.1440   17.6450  -33.1050 C   0  0  0  0  0  0  0  0  0  0  0  0
   -5.6460   15.2180  -33.5500 C   0  0  0  0  0  0  0  0  0  0  0  0
  -12.9510   14.6100  -37.6100 C   0  0  0  0  0  0  0  0  0  0  0  0
  -14.1050   15.1750  -37.9340 F   0  0  0  0  0  0  0  0  0  0  0  0
  1  2  1  0
  3  2  1  0
  2  4  2  0
  3  5  1  6
  3  6  1  0
  7  5  1  0
  6  8  1  0
  7  9  1  0
  7 10  2  0
  8 11  2  0
  8 12  1  0
  9 13  1  1
  9 14  1  0
 11 15  1  0
 16 12  2  0
 14 17  1  0
 14 18  1  0
 15 19  2  0
 19 16  1  0
 19 20  1  0
A    2
 C47
A    3
 C04
A    4
 O48
A    5
 C02
A    6
 C05
A    7
 C01
A    8
 C06
A    9
 C57
A   10
 O03
A   11
 C07
A   12
 C11
A   14
 C78
A   15
 C08
A   16
 C10
A   17
 C81
A   18
 C82
A   19
 C09
A   20
 F1 
M  END
>  <XChem_code>  (861) 
AG7§22

>  <Occupancy>  (861) 
[1.0, 1.0, 1.0, 1.0, 1.0, 1.0, 1.0, 1.0, 1.0, 1.0, 1.0, 1.0, 1.0, 1.0, 1.0, 1.0, 1.0, 1.0, 1.0, 1.0, 1.0, 1.0, 1.0, 1.0, 1.0, 1.0, 1.0, 1.0, 1.0, 1.0, 1.0, 1.0, 1.0, 1.0, 1.0, 1.0, 1.0, 1.0, 1.0, 1.0, 1.0, 1.0, 1.0, 1.0]

>  <TempFactor>  (861) 
[16.99, 17.37, 15.03, 17.27, 16.93, 17.74, 13.17, 18.44, 18.15, 13.03, 17.26, 13.64, 14.2, 14.77, 14.96, 13.35, 14.45, 12.48, 12.74, 12.98, 14.81, 13.66, 14.93, 16.5, 11.73, 10.42, 13.5, 14.67, 11.98, 13.75, 16.69, 15.21, 15.78, 16.7, 16.34, 17.46, 18.53, 17.19, 17.7, 18.6, 16.97, 15.33, 12.99, 18.88]

>  <accession>  (861) 
1CQQ_A

>  <description>  (861) 
Chain A, TYPE 2 RHINOVIRUS 3C PROTEASE [rhinovirus A2]

>  <evalue>  (861) 
1.03838e-57

>  <pdb_code>  (861) 
1CQQ

>  <chain>  (861) 
A

>  <ligands>  (861) 
[{'chain_id': 'A', 'author_residue_number': 501, 'author_insertion_code': '', 'chem_comp_id': 'AG7', 'alternate_conformers': 0, 'entity_id': 2, 'struct_asym_id': 'B', 'residue_number': 1, 'chem_comp_name': '4-{2-(4-FLUORO-BENZYL)-6-METHYL-5-[(5-METHYL-ISOXAZOLE-3-CARBONYL)-AMINO]-4-OXO-HEPTANOYLAMINO}-5-(2-OXO-PYRROLIDIN-3-YL)-PENTANOIC ACID ETHYL ESTER', 'weight': 600.678, 'carbohydrate_polymer': False, 'branch_name': ''}]

>  <ligand_codes>  (861) 
['AG7']

>  <cofactor_codes>  (861) 
[]

>  <has_cofactor>  (861) 
False

>  <covalent>  (861) 
True

>  <base_name>  (861) 
1CQQ

>  <lig_resn>  (861) 
AG7

>  <lig_resi>  (861) 
501

>  <lig_chain>  (861) 
A

>  <lig_segi>  (861) 
B

>  <lig_alt>  (861) 


>  <polymer_chain>  (861) 
A

>  <single_smiles>  (861) 
CCOC(=O)CC[C@H](C[C@@H]1CCNC1=O)NC(=O)[C@@H](CC(=O)[C@@H](NC(=O)c2cc(C)on2)C(C)C)Cc3ccc(F)cc3

$$$$
AG7P22S12
     RDKit          3D

 19 19  0  0  0  0  0  0  0  0999 V2000
   -8.0860   16.0830  -33.0110 C   0  0  0  0  0  0  0  0  0  0  0  0
   -8.5840   14.6720  -33.4310 C   0  0  0  0  0  0  0  0  0  0  0  0
   -6.5580   16.1960  -32.8000 C   0  0  0  0  0  0  0  0  0  0  0  0
   -8.5890   14.3230  -34.9280 C   0  0  0  0  0  0  0  0  0  0  0  0
   -8.9950   13.8610  -32.6090 O   0  0  0  0  0  0  0  0  0  0  0  0
   -6.1440   17.6450  -33.1050 C   0  0  0  0  0  0  0  0  0  0  0  0
   -5.6460   15.2180  -33.5500 C   0  0  0  0  0  0  0  0  0  0  0  0
   -9.0560   12.8810  -35.1610 C   0  0  2  0  0  0  0  0  0  0  0  0
   -8.0530   11.8650  -34.6340 C   0  0  0  0  0  0  0  0  0  0  0  0
   -9.2680   12.7230  -36.6650 C   0  0  0  0  0  0  0  0  0  0  0  0
   -8.4650   10.8310  -33.9180 N   0  0  0  0  0  0  0  0  0  0  0  0
   -6.8480   12.0120  -34.8210 O   0  0  0  0  0  0  0  0  0  0  0  0
  -10.5280   13.3650  -37.0000 C   0  0  0  0  0  0  0  0  0  0  0  0
  -11.7240   12.8990  -36.4350 C   0  0  0  0  0  0  0  0  0  0  0  0
  -10.5610   14.4560  -37.8460 C   0  0  0  0  0  0  0  0  0  0  0  0
  -12.9320   13.5180  -36.7470 C   0  0  0  0  0  0  0  0  0  0  0  0
  -11.7810   15.0780  -38.1630 C   0  0  0  0  0  0  0  0  0  0  0  0
  -12.9510   14.6100  -37.6100 C   0  0  0  0  0  0  0  0  0  0  0  0
  -14.1050   15.1750  -37.9340 F   0  0  0  0  0  0  0  0  0  0  0  0
  2  1  1  0
  1  3  1  6
  2  4  1  0
  2  5  2  0
  3  6  1  0
  3  7  1  0
  8  4  1  6
  8  9  1  0
  8 10  1  0
 11  9  1  0
  9 12  2  0
 10 13  1  0
 13 14  2  0
 13 15  1  0
 14 16  1  0
 17 15  2  0
 16 18  2  0
 18 17  1  0
 18 19  1  0
A    2
 C01
A    3
 C78
A    4
 C02
A    5
 O03
A    6
 C81
A    7
 C82
A    8
 C04
A    9
 C47
A   10
 C05
A   12
 O48
A   13
 C06
A   14
 C07
A   15
 C11
A   16
 C08
A   17
 C10
A   18
 C09
A   19
 F1 
M  END
>  <XChem_code>  (862) 
AG7§22

>  <Occupancy>  (862) 
[1.0, 1.0, 1.0, 1.0, 1.0, 1.0, 1.0, 1.0, 1.0, 1.0, 1.0, 1.0, 1.0, 1.0, 1.0, 1.0, 1.0, 1.0, 1.0, 1.0, 1.0, 1.0, 1.0, 1.0, 1.0, 1.0, 1.0, 1.0, 1.0, 1.0, 1.0, 1.0, 1.0, 1.0, 1.0, 1.0, 1.0, 1.0, 1.0, 1.0, 1.0, 1.0, 1.0, 1.0]

>  <TempFactor>  (862) 
[16.99, 17.37, 15.03, 17.27, 16.93, 17.74, 13.17, 18.44, 18.15, 13.03, 17.26, 13.64, 14.2, 14.77, 14.96, 13.35, 14.45, 12.48, 12.74, 12.98, 14.81, 13.66, 14.93, 16.5, 11.73, 10.42, 13.5, 14.67, 11.98, 13.75, 16.69, 15.21, 15.78, 16.7, 16.34, 17.46, 18.53, 17.19, 17.7, 18.6, 16.97, 15.33, 12.99, 18.88]

>  <accession>  (862) 
1CQQ_A

>  <description>  (862) 
Chain A, TYPE 2 RHINOVIRUS 3C PROTEASE [rhinovirus A2]

>  <evalue>  (862) 
1.03838e-57

>  <pdb_code>  (862) 
1CQQ

>  <chain>  (862) 
A

>  <ligands>  (862) 
[{'chain_id': 'A', 'author_residue_number': 501, 'author_insertion_code': '', 'chem_comp_id': 'AG7', 'alternate_conformers': 0, 'entity_id': 2, 'struct_asym_id': 'B', 'residue_number': 1, 'chem_comp_name': '4-{2-(4-FLUORO-BENZYL)-6-METHYL-5-[(5-METHYL-ISOXAZOLE-3-CARBONYL)-AMINO]-4-OXO-HEPTANOYLAMINO}-5-(2-OXO-PYRROLIDIN-3-YL)-PENTANOIC ACID ETHYL ESTER', 'weight': 600.678, 'carbohydrate_polymer': False, 'branch_name': ''}]

>  <ligand_codes>  (862) 
['AG7']

>  <cofactor_codes>  (862) 
[]

>  <has_cofactor>  (862) 
False

>  <covalent>  (862) 
True

>  <base_name>  (862) 
1CQQ

>  <lig_resn>  (862) 
AG7

>  <lig_resi>  (862) 
501

>  <lig_chain>  (862) 
A

>  <lig_segi>  (862) 
B

>  <lig_alt>  (862) 


>  <polymer_chain>  (862) 
A

>  <single_smiles>  (862) 
CCOC(=O)CC[C@H](C[C@@H]1CCNC1=O)NC(=O)[C@@H](CC(=O)[C@@H](NC(=O)c2cc(C)on2)C(C)C)Cc3ccc(F)cc3

$$$$
AG7P22S13
     RDKit          3D

  6  6  0  0  0  0  0  0  0  0999 V2000
  -10.0630   17.4900  -30.2480 C   0  0  0  0  0  0  0  0  0  0  0  0
  -11.1890   18.2730  -30.0350 C   0  0  0  0  0  0  0  0  0  0  0  0
   -9.6280   16.9280  -29.1140 N   0  0  0  0  0  0  0  0  0  0  0  0
  -11.4230   18.1130  -28.6670 C   0  0  0  0  0  0  0  0  0  0  0  0
  -10.5110   17.3020  -28.1260 O   0  0  0  0  0  0  0  0  0  0  0  0
  -12.5130   18.7590  -27.8190 C   0  0  0  0  0  0  0  0  0  0  0  0
  1  2  1  0
  1  3  2  0
  2  4  2  0
  5  3  1  0
  4  6  1  0
  4  5  1  0
A    2
 C2 
A    3
 N5 
A    4
 C3 
A    5
 O4 
A    6
 C4 
M  END
>  <XChem_code>  (863) 
AG7§22

>  <Occupancy>  (863) 
[1.0, 1.0, 1.0, 1.0, 1.0, 1.0, 1.0, 1.0, 1.0, 1.0, 1.0, 1.0, 1.0, 1.0, 1.0, 1.0, 1.0, 1.0, 1.0, 1.0, 1.0, 1.0, 1.0, 1.0, 1.0, 1.0, 1.0, 1.0, 1.0, 1.0, 1.0, 1.0, 1.0, 1.0, 1.0, 1.0, 1.0, 1.0, 1.0, 1.0, 1.0, 1.0, 1.0, 1.0]

>  <TempFactor>  (863) 
[16.99, 17.37, 15.03, 17.27, 16.93, 17.74, 13.17, 18.44, 18.15, 13.03, 17.26, 13.64, 14.2, 14.77, 14.96, 13.35, 14.45, 12.48, 12.74, 12.98, 14.81, 13.66, 14.93, 16.5, 11.73, 10.42, 13.5, 14.67, 11.98, 13.75, 16.69, 15.21, 15.78, 16.7, 16.34, 17.46, 18.53, 17.19, 17.7, 18.6, 16.97, 15.33, 12.99, 18.88]

>  <accession>  (863) 
1CQQ_A

>  <description>  (863) 
Chain A, TYPE 2 RHINOVIRUS 3C PROTEASE [rhinovirus A2]

>  <evalue>  (863) 
1.03838e-57

>  <pdb_code>  (863) 
1CQQ

>  <chain>  (863) 
A

>  <ligands>  (863) 
[{'chain_id': 'A', 'author_residue_number': 501, 'author_insertion_code': '', 'chem_comp_id': 'AG7', 'alternate_conformers': 0, 'entity_id': 2, 'struct_asym_id': 'B', 'residue_number': 1, 'chem_comp_name': '4-{2-(4-FLUORO-BENZYL)-6-METHYL-5-[(5-METHYL-ISOXAZOLE-3-CARBONYL)-AMINO]-4-OXO-HEPTANOYLAMINO}-5-(2-OXO-PYRROLIDIN-3-YL)-PENTANOIC ACID ETHYL ESTER', 'weight': 600.678, 'carbohydrate_polymer': False, 'branch_name': ''}]

>  <ligand_codes>  (863) 
['AG7']

>  <cofactor_codes>  (863) 
[]

>  <has_cofactor>  (863) 
False

>  <covalent>  (863) 
True

>  <base_name>  (863) 
1CQQ

>  <lig_resn>  (863) 
AG7

>  <lig_resi>  (863) 
501

>  <lig_chain>  (863) 
A

>  <lig_segi>  (863) 
B

>  <lig_alt>  (863) 


>  <polymer_chain>  (863) 
A

>  <single_smiles>  (863) 
CCOC(=O)CC[C@H](C[C@@H]1CCNC1=O)NC(=O)[C@@H](CC(=O)[C@@H](NC(=O)c2cc(C)on2)C(C)C)Cc3ccc(F)cc3

$$$$
AG7P22S14
     RDKit          3D

 38 39  0  0  0  0  0  0  0  0999 V2000
   -9.5640   17.2990  -31.5320 C   0  0  0  0  0  0  0  0  0  0  0  0
   -8.6290   16.3950  -31.6970 N   0  0  0  0  0  0  0  0  0  0  0  0
   -9.9690   17.8730  -32.5270 O   0  0  0  0  0  0  0  0  0  0  0  0
   -8.0860   16.0830  -33.0110 C   0  0  2  0  0  0  0  0  0  0  0  0
   -8.5840   14.6720  -33.4310 C   0  0  0  0  0  0  0  0  0  0  0  0
   -6.5580   16.1960  -32.8000 C   0  0  0  0  0  0  0  0  0  0  0  0
   -8.5890   14.3230  -34.9280 C   0  0  0  0  0  0  0  0  0  0  0  0
   -8.9950   13.8610  -32.6090 O   0  0  0  0  0  0  0  0  0  0  0  0
   -6.1440   17.6450  -33.1050 C   0  0  0  0  0  0  0  0  0  0  0  0
   -5.6460   15.2180  -33.5500 C   0  0  0  0  0  0  0  0  0  0  0  0
   -9.0560   12.8810  -35.1610 C   0  0  1  0  0  0  0  0  0  0  0  0
   -9.2680   12.7230  -36.6650 C   0  0  0  0  0  0  0  0  0  0  0  0
   -8.0530   11.8650  -34.6340 C   0  0  0  0  0  0  0  0  0  0  0  0
  -10.5280   13.3650  -37.0000 C   0  0  0  0  0  0  0  0  0  0  0  0
   -8.4650   10.8310  -33.9180 N   0  0  0  0  0  0  0  0  0  0  0  0
   -6.8480   12.0120  -34.8210 O   0  0  0  0  0  0  0  0  0  0  0  0
  -11.7240   12.8990  -36.4350 C   0  0  0  0  0  0  0  0  0  0  0  0
  -10.5610   14.4560  -37.8460 C   0  0  0  0  0  0  0  0  0  0  0  0
   -7.5030    9.8280  -33.4300 C   0  0  1  0  0  0  0  0  0  0  0  0
  -12.9320   13.5180  -36.7470 C   0  0  0  0  0  0  0  0  0  0  0  0
  -11.7810   15.0780  -38.1630 C   0  0  0  0  0  0  0  0  0  0  0  0
   -7.3880    9.7920  -31.9090 C   0  0  0  0  0  0  0  0  0  0  0  0
   -7.8280    8.4080  -34.0100 C   0  0  2  0  0  0  0  0  0  0  0  0
  -12.9510   14.6100  -37.6100 C   0  0  0  0  0  0  0  0  0  0  0  0
   -6.7420   11.0650  -31.3380 C   0  0  1  0  0  0  0  0  0  0  0  0
   -7.5620    8.3420  -35.5410 C   0  0  0  0  0  0  0  0  0  0  0  0
   -9.5770    7.9760  -33.7580 R   0  0  0  0  0  0  0  0  0  0  0  0
  -14.1050   15.1750  -37.9340 F   0  0  0  0  0  0  0  0  0  0  0  0
   -6.5610   11.0160  -29.8480 C   0  0  0  0  0  0  0  0  0  0  0  0
   -5.3020   11.3840  -31.7700 C   0  0  0  0  0  0  0  0  0  0  0  0
   -6.8410    7.0270  -35.9420 C   0  0  0  0  0  0  0  0  0  0  0  0
   -5.5900   11.7760  -29.4540 N   0  0  0  0  0  0  0  0  0  0  0  0
   -7.1850   10.2960  -29.0840 O   0  0  0  0  0  0  0  0  0  0  0  0
   -4.7450   12.2020  -30.5760 C   0  0  0  0  0  0  0  0  0  0  0  0
   -6.6320    6.9000  -37.2340 O   0  0  0  0  0  0  0  0  0  0  0  0
   -6.4740    6.2040  -35.1210 O   0  0  0  0  0  0  0  0  0  0  0  0
   -5.8650    5.7760  -37.7420 C   0  0  0  0  0  0  0  0  0  0  0  0
   -5.3170    6.1500  -39.1310 C   0  0  0  0  0  0  0  0  0  0  0  0
  2  1  1  0
  1  3  2  0
  4  2  1  1
  5  4  1  0
  4  6  1  0
  5  7  1  0
  5  8  2  0
  6  9  1  0
  6 10  1  0
 11  7  1  6
 11 12  1  0
 11 13  1  0
 12 14  1  0
 15 13  1  0
 13 16  2  0
 14 17  2  0
 14 18  1  0
 15 19  1  0
 17 20  1  0
 21 18  2  0
 19 22  1  1
 19 23  1  0
 20 24  2  0
 24 21  1  0
 25 22  1  6
 23 26  1  0
 23 27  1  6
 24 28  1  0
 25 29  1  0
 25 30  1  0
 26 31  1  0
 29 32  1  0
 29 33  2  0
 34 30  1  0
 31 35  1  0
 31 36  2  0
 32 34  1  0
 35 37  1  0
 37 38  1  0
V   27 *
A    2
 N58
A    3
 O60
A    4
 C57
A    5
 C01
A    6
 C78
A    7
 C02
A    8
 O03
A    9
 C81
A   10
 C82
A   11
 C04
A   12
 C05
A   13
 C47
A   14
 C06
A   15
 N12
A   16
 O48
A   17
 C07
A   18
 C11
A   19
 C13
A   20
 C08
A   21
 C10
A   22
 C14
A   23
 C19
A   24
 C09
A   25
 C15
A   26
 C20
A   27
 X  
A   28
 F1 
A   29
 C16
A   30
 C84
A   31
 C21
A   32
 N17
A   33
 O18
A   34
 C83
A   35
 O22
A   36
 O23
A   37
 C50
A   38
 C53
M  END
>  <XChem_code>  (864) 
AG7§22

>  <Occupancy>  (864) 
[1.0, 1.0, 1.0, 1.0, 1.0, 1.0, 1.0, 1.0, 1.0, 1.0, 1.0, 1.0, 1.0, 1.0, 1.0, 1.0, 1.0, 1.0, 1.0, 1.0, 1.0, 1.0, 1.0, 1.0, 1.0, 1.0, 1.0, 1.0, 1.0, 1.0, 1.0, 1.0, 1.0, 1.0, 1.0, 1.0, 1.0, 1.0, 1.0, 1.0, 1.0, 1.0, 1.0, 1.0]

>  <TempFactor>  (864) 
[16.99, 17.37, 15.03, 17.27, 16.93, 17.74, 13.17, 18.44, 18.15, 13.03, 17.26, 13.64, 14.2, 14.77, 14.96, 13.35, 14.45, 12.48, 12.74, 12.98, 14.81, 13.66, 14.93, 16.5, 11.73, 10.42, 13.5, 14.67, 11.98, 13.75, 16.69, 15.21, 15.78, 16.7, 16.34, 17.46, 18.53, 17.19, 17.7, 18.6, 16.97, 15.33, 12.99, 18.88]

>  <accession>  (864) 
1CQQ_A

>  <description>  (864) 
Chain A, TYPE 2 RHINOVIRUS 3C PROTEASE [rhinovirus A2]

>  <evalue>  (864) 
1.03838e-57

>  <pdb_code>  (864) 
1CQQ

>  <chain>  (864) 
A

>  <ligands>  (864) 
[{'chain_id': 'A', 'author_residue_number': 501, 'author_insertion_code': '', 'chem_comp_id': 'AG7', 'alternate_conformers': 0, 'entity_id': 2, 'struct_asym_id': 'B', 'residue_number': 1, 'chem_comp_name': '4-{2-(4-FLUORO-BENZYL)-6-METHYL-5-[(5-METHYL-ISOXAZOLE-3-CARBONYL)-AMINO]-4-OXO-HEPTANOYLAMINO}-5-(2-OXO-PYRROLIDIN-3-YL)-PENTANOIC ACID ETHYL ESTER', 'weight': 600.678, 'carbohydrate_polymer': False, 'branch_name': ''}]

>  <ligand_codes>  (864) 
['AG7']

>  <cofactor_codes>  (864) 
[]

>  <has_cofactor>  (864) 
False

>  <covalent>  (864) 
True

>  <base_name>  (864) 
1CQQ

>  <lig_resn>  (864) 
AG7

>  <lig_resi>  (864) 
501

>  <lig_chain>  (864) 
A

>  <lig_segi>  (864) 
B

>  <lig_alt>  (864) 


>  <polymer_chain>  (864) 
A

>  <single_smiles>  (864) 
CCOC(=O)CC[C@H](C[C@@H]1CCNC1=O)NC(=O)[C@@H](CC(=O)[C@@H](NC(=O)c2cc(C)on2)C(C)C)Cc3ccc(F)cc3

$$$$
AG7P22S15
     RDKit          3D

 21 21  0  0  0  0  0  0  0  0999 V2000
   -9.5640   17.2990  -31.5320 C   0  0  0  0  0  0  0  0  0  0  0  0
   -8.6290   16.3950  -31.6970 N   0  0  0  0  0  0  0  0  0  0  0  0
   -9.9690   17.8730  -32.5270 O   0  0  0  0  0  0  0  0  0  0  0  0
   -8.0860   16.0830  -33.0110 C   0  0  2  0  0  0  0  0  0  0  0  0
   -8.5840   14.6720  -33.4310 C   0  0  0  0  0  0  0  0  0  0  0  0
   -6.5580   16.1960  -32.8000 C   0  0  0  0  0  0  0  0  0  0  0  0
   -8.5890   14.3230  -34.9280 C   0  0  0  0  0  0  0  0  0  0  0  0
   -8.9950   13.8610  -32.6090 O   0  0  0  0  0  0  0  0  0  0  0  0
   -6.1440   17.6450  -33.1050 C   0  0  0  0  0  0  0  0  0  0  0  0
   -5.6460   15.2180  -33.5500 C   0  0  0  0  0  0  0  0  0  0  0  0
   -9.0560   12.8810  -35.1610 C   0  0  2  0  0  0  0  0  0  0  0  0
   -8.0530   11.8650  -34.6340 C   0  0  0  0  0  0  0  0  0  0  0  0
   -9.2680   12.7230  -36.6650 C   0  0  0  0  0  0  0  0  0  0  0  0
   -6.8480   12.0120  -34.8210 O   0  0  0  0  0  0  0  0  0  0  0  0
  -10.5280   13.3650  -37.0000 C   0  0  0  0  0  0  0  0  0  0  0  0
  -11.7240   12.8990  -36.4350 C   0  0  0  0  0  0  0  0  0  0  0  0
  -10.5610   14.4560  -37.8460 C   0  0  0  0  0  0  0  0  0  0  0  0
  -12.9320   13.5180  -36.7470 C   0  0  0  0  0  0  0  0  0  0  0  0
  -11.7810   15.0780  -38.1630 C   0  0  0  0  0  0  0  0  0  0  0  0
  -12.9510   14.6100  -37.6100 C   0  0  0  0  0  0  0  0  0  0  0  0
  -14.1050   15.1750  -37.9340 F   0  0  0  0  0  0  0  0  0  0  0  0
  2  1  1  0
  1  3  2  0
  4  2  1  1
  5  4  1  0
  4  6  1  0
  5  7  1  0
  5  8  2  0
  6  9  1  0
  6 10  1  0
 11  7  1  6
 11 12  1  0
 11 13  1  0
 12 14  2  0
 13 15  1  0
 15 16  2  0
 15 17  1  0
 16 18  1  0
 19 17  2  0
 18 20  2  0
 20 19  1  0
 20 21  1  0
A    2
 N58
A    3
 O60
A    4
 C57
A    5
 C01
A    6
 C78
A    7
 C02
A    8
 O03
A    9
 C81
A   10
 C82
A   11
 C04
A   13
 C05
A   14
 O48
A   15
 C06
A   16
 C07
A   17
 C11
A   18
 C08
A   19
 C10
A   20
 C09
A   21
 F1 
M  END
>  <XChem_code>  (865) 
AG7§22

>  <Occupancy>  (865) 
[1.0, 1.0, 1.0, 1.0, 1.0, 1.0, 1.0, 1.0, 1.0, 1.0, 1.0, 1.0, 1.0, 1.0, 1.0, 1.0, 1.0, 1.0, 1.0, 1.0, 1.0, 1.0, 1.0, 1.0, 1.0, 1.0, 1.0, 1.0, 1.0, 1.0, 1.0, 1.0, 1.0, 1.0, 1.0, 1.0, 1.0, 1.0, 1.0, 1.0, 1.0, 1.0, 1.0, 1.0]

>  <TempFactor>  (865) 
[16.99, 17.37, 15.03, 17.27, 16.93, 17.74, 13.17, 18.44, 18.15, 13.03, 17.26, 13.64, 14.2, 14.77, 14.96, 13.35, 14.45, 12.48, 12.74, 12.98, 14.81, 13.66, 14.93, 16.5, 11.73, 10.42, 13.5, 14.67, 11.98, 13.75, 16.69, 15.21, 15.78, 16.7, 16.34, 17.46, 18.53, 17.19, 17.7, 18.6, 16.97, 15.33, 12.99, 18.88]

>  <accession>  (865) 
1CQQ_A

>  <description>  (865) 
Chain A, TYPE 2 RHINOVIRUS 3C PROTEASE [rhinovirus A2]

>  <evalue>  (865) 
1.03838e-57

>  <pdb_code>  (865) 
1CQQ

>  <chain>  (865) 
A

>  <ligands>  (865) 
[{'chain_id': 'A', 'author_residue_number': 501, 'author_insertion_code': '', 'chem_comp_id': 'AG7', 'alternate_conformers': 0, 'entity_id': 2, 'struct_asym_id': 'B', 'residue_number': 1, 'chem_comp_name': '4-{2-(4-FLUORO-BENZYL)-6-METHYL-5-[(5-METHYL-ISOXAZOLE-3-CARBONYL)-AMINO]-4-OXO-HEPTANOYLAMINO}-5-(2-OXO-PYRROLIDIN-3-YL)-PENTANOIC ACID ETHYL ESTER', 'weight': 600.678, 'carbohydrate_polymer': False, 'branch_name': ''}]

>  <ligand_codes>  (865) 
['AG7']

>  <cofactor_codes>  (865) 
[]

>  <has_cofactor>  (865) 
False

>  <covalent>  (865) 
True

>  <base_name>  (865) 
1CQQ

>  <lig_resn>  (865) 
AG7

>  <lig_resi>  (865) 
501

>  <lig_chain>  (865) 
A

>  <lig_segi>  (865) 
B

>  <lig_alt>  (865) 


>  <polymer_chain>  (865) 
A

>  <single_smiles>  (865) 
CCOC(=O)CC[C@H](C[C@@H]1CCNC1=O)NC(=O)[C@@H](CC(=O)[C@@H](NC(=O)c2cc(C)on2)C(C)C)Cc3ccc(F)cc3

$$$$
AG7P22S16
     RDKit          3D

 22 22  0  0  0  0  0  0  0  0999 V2000
   -9.5640   17.2990  -31.5320 C   0  0  0  0  0  0  0  0  0  0  0  0
   -8.6290   16.3950  -31.6970 N   0  0  0  0  0  0  0  0  0  0  0  0
   -9.9690   17.8730  -32.5270 O   0  0  0  0  0  0  0  0  0  0  0  0
   -8.0860   16.0830  -33.0110 C   0  0  2  0  0  0  0  0  0  0  0  0
   -8.5840   14.6720  -33.4310 C   0  0  0  0  0  0  0  0  0  0  0  0
   -6.5580   16.1960  -32.8000 C   0  0  0  0  0  0  0  0  0  0  0  0
   -8.5890   14.3230  -34.9280 C   0  0  0  0  0  0  0  0  0  0  0  0
   -8.9950   13.8610  -32.6090 O   0  0  0  0  0  0  0  0  0  0  0  0
   -6.1440   17.6450  -33.1050 C   0  0  0  0  0  0  0  0  0  0  0  0
   -5.6460   15.2180  -33.5500 C   0  0  0  0  0  0  0  0  0  0  0  0
   -9.0560   12.8810  -35.1610 C   0  0  2  0  0  0  0  0  0  0  0  0
   -8.0530   11.8650  -34.6340 C   0  0  0  0  0  0  0  0  0  0  0  0
   -9.2680   12.7230  -36.6650 C   0  0  0  0  0  0  0  0  0  0  0  0
   -8.4650   10.8310  -33.9180 N   0  0  0  0  0  0  0  0  0  0  0  0
   -6.8480   12.0120  -34.8210 O   0  0  0  0  0  0  0  0  0  0  0  0
  -10.5280   13.3650  -37.0000 C   0  0  0  0  0  0  0  0  0  0  0  0
  -11.7240   12.8990  -36.4350 C   0  0  0  0  0  0  0  0  0  0  0  0
  -10.5610   14.4560  -37.8460 C   0  0  0  0  0  0  0  0  0  0  0  0
  -12.9320   13.5180  -36.7470 C   0  0  0  0  0  0  0  0  0  0  0  0
  -11.7810   15.0780  -38.1630 C   0  0  0  0  0  0  0  0  0  0  0  0
  -12.9510   14.6100  -37.6100 C   0  0  0  0  0  0  0  0  0  0  0  0
  -14.1050   15.1750  -37.9340 F   0  0  0  0  0  0  0  0  0  0  0  0
  2  1  1  0
  1  3  2  0
  4  2  1  1
  5  4  1  0
  4  6  1  0
  5  7  1  0
  5  8  2  0
  6  9  1  0
  6 10  1  0
 11  7  1  6
 11 12  1  0
 11 13  1  0
 14 12  1  0
 12 15  2  0
 13 16  1  0
 16 17  2  0
 16 18  1  0
 17 19  1  0
 20 18  2  0
 19 21  2  0
 21 20  1  0
 21 22  1  0
A    2
 N58
A    3
 O60
A    4
 C57
A    5
 C01
A    6
 C78
A    7
 C02
A    8
 O03
A    9
 C81
A   10
 C82
A   11
 C04
A   12
 C47
A   13
 C05
A   15
 O48
A   16
 C06
A   17
 C07
A   18
 C11
A   19
 C08
A   20
 C10
A   21
 C09
A   22
 F1 
M  END
>  <XChem_code>  (866) 
AG7§22

>  <Occupancy>  (866) 
[1.0, 1.0, 1.0, 1.0, 1.0, 1.0, 1.0, 1.0, 1.0, 1.0, 1.0, 1.0, 1.0, 1.0, 1.0, 1.0, 1.0, 1.0, 1.0, 1.0, 1.0, 1.0, 1.0, 1.0, 1.0, 1.0, 1.0, 1.0, 1.0, 1.0, 1.0, 1.0, 1.0, 1.0, 1.0, 1.0, 1.0, 1.0, 1.0, 1.0, 1.0, 1.0, 1.0, 1.0]

>  <TempFactor>  (866) 
[16.99, 17.37, 15.03, 17.27, 16.93, 17.74, 13.17, 18.44, 18.15, 13.03, 17.26, 13.64, 14.2, 14.77, 14.96, 13.35, 14.45, 12.48, 12.74, 12.98, 14.81, 13.66, 14.93, 16.5, 11.73, 10.42, 13.5, 14.67, 11.98, 13.75, 16.69, 15.21, 15.78, 16.7, 16.34, 17.46, 18.53, 17.19, 17.7, 18.6, 16.97, 15.33, 12.99, 18.88]

>  <accession>  (866) 
1CQQ_A

>  <description>  (866) 
Chain A, TYPE 2 RHINOVIRUS 3C PROTEASE [rhinovirus A2]

>  <evalue>  (866) 
1.03838e-57

>  <pdb_code>  (866) 
1CQQ

>  <chain>  (866) 
A

>  <ligands>  (866) 
[{'chain_id': 'A', 'author_residue_number': 501, 'author_insertion_code': '', 'chem_comp_id': 'AG7', 'alternate_conformers': 0, 'entity_id': 2, 'struct_asym_id': 'B', 'residue_number': 1, 'chem_comp_name': '4-{2-(4-FLUORO-BENZYL)-6-METHYL-5-[(5-METHYL-ISOXAZOLE-3-CARBONYL)-AMINO]-4-OXO-HEPTANOYLAMINO}-5-(2-OXO-PYRROLIDIN-3-YL)-PENTANOIC ACID ETHYL ESTER', 'weight': 600.678, 'carbohydrate_polymer': False, 'branch_name': ''}]

>  <ligand_codes>  (866) 
['AG7']

>  <cofactor_codes>  (866) 
[]

>  <has_cofactor>  (866) 
False

>  <covalent>  (866) 
True

>  <base_name>  (866) 
1CQQ

>  <lig_resn>  (866) 
AG7

>  <lig_resi>  (866) 
501

>  <lig_chain>  (866) 
A

>  <lig_segi>  (866) 
B

>  <lig_alt>  (866) 


>  <polymer_chain>  (866) 
A

>  <single_smiles>  (866) 
CCOC(=O)CC[C@H](C[C@@H]1CCNC1=O)NC(=O)[C@@H](CC(=O)[C@@H](NC(=O)c2cc(C)on2)C(C)C)Cc3ccc(F)cc3

$$$$
AG7P22S17
     RDKit          3D

  6  6  0  0  0  0  0  0  0  0999 V2000
   -6.7420   11.0650  -31.3380 C   0  0  0  0  0  0  0  0  0  0  0  0
   -6.5610   11.0160  -29.8480 C   0  0  0  0  0  0  0  0  0  0  0  0
   -5.3020   11.3840  -31.7700 C   0  0  0  0  0  0  0  0  0  0  0  0
   -5.5900   11.7760  -29.4540 N   0  0  0  0  0  0  0  0  0  0  0  0
   -7.1850   10.2960  -29.0840 O   0  0  0  0  0  0  0  0  0  0  0  0
   -4.7450   12.2020  -30.5760 C   0  0  0  0  0  0  0  0  0  0  0  0
  1  2  1  0
  1  3  1  1
  2  4  1  0
  2  5  2  0
  6  3  1  0
  4  6  1  0
A    2
 C16
A    3
 C84
A    4
 N17
A    5
 O18
A    6
 C83
M  END
>  <XChem_code>  (867) 
AG7§22

>  <Occupancy>  (867) 
[1.0, 1.0, 1.0, 1.0, 1.0, 1.0, 1.0, 1.0, 1.0, 1.0, 1.0, 1.0, 1.0, 1.0, 1.0, 1.0, 1.0, 1.0, 1.0, 1.0, 1.0, 1.0, 1.0, 1.0, 1.0, 1.0, 1.0, 1.0, 1.0, 1.0, 1.0, 1.0, 1.0, 1.0, 1.0, 1.0, 1.0, 1.0, 1.0, 1.0, 1.0, 1.0, 1.0, 1.0]

>  <TempFactor>  (867) 
[16.99, 17.37, 15.03, 17.27, 16.93, 17.74, 13.17, 18.44, 18.15, 13.03, 17.26, 13.64, 14.2, 14.77, 14.96, 13.35, 14.45, 12.48, 12.74, 12.98, 14.81, 13.66, 14.93, 16.5, 11.73, 10.42, 13.5, 14.67, 11.98, 13.75, 16.69, 15.21, 15.78, 16.7, 16.34, 17.46, 18.53, 17.19, 17.7, 18.6, 16.97, 15.33, 12.99, 18.88]

>  <accession>  (867) 
1CQQ_A

>  <description>  (867) 
Chain A, TYPE 2 RHINOVIRUS 3C PROTEASE [rhinovirus A2]

>  <evalue>  (867) 
1.03838e-57

>  <pdb_code>  (867) 
1CQQ

>  <chain>  (867) 
A

>  <ligands>  (867) 
[{'chain_id': 'A', 'author_residue_number': 501, 'author_insertion_code': '', 'chem_comp_id': 'AG7', 'alternate_conformers': 0, 'entity_id': 2, 'struct_asym_id': 'B', 'residue_number': 1, 'chem_comp_name': '4-{2-(4-FLUORO-BENZYL)-6-METHYL-5-[(5-METHYL-ISOXAZOLE-3-CARBONYL)-AMINO]-4-OXO-HEPTANOYLAMINO}-5-(2-OXO-PYRROLIDIN-3-YL)-PENTANOIC ACID ETHYL ESTER', 'weight': 600.678, 'carbohydrate_polymer': False, 'branch_name': ''}]

>  <ligand_codes>  (867) 
['AG7']

>  <cofactor_codes>  (867) 
[]

>  <has_cofactor>  (867) 
False

>  <covalent>  (867) 
True

>  <base_name>  (867) 
1CQQ

>  <lig_resn>  (867) 
AG7

>  <lig_resi>  (867) 
501

>  <lig_chain>  (867) 
A

>  <lig_segi>  (867) 
B

>  <lig_alt>  (867) 


>  <polymer_chain>  (867) 
A

>  <single_smiles>  (867) 
CCOC(=O)CC[C@H](C[C@@H]1CCNC1=O)NC(=O)[C@@H](CC(=O)[C@@H](NC(=O)c2cc(C)on2)C(C)C)Cc3ccc(F)cc3

$$$$
AG7P22S18
     RDKit          3D

 38 39  0  0  0  0  0  0  0  0999 V2000
   -7.3880    9.7920  -31.9090 C   0  0  0  0  0  0  0  0  0  0  0  0
   -7.5030    9.8280  -33.4300 C   0  0  2  0  0  0  0  0  0  0  0  0
   -8.4650   10.8310  -33.9180 N   0  0  0  0  0  0  0  0  0  0  0  0
   -7.8280    8.4080  -34.0100 C   0  0  2  0  0  0  0  0  0  0  0  0
   -8.0530   11.8650  -34.6340 C   0  0  0  0  0  0  0  0  0  0  0  0
   -7.5620    8.3420  -35.5410 C   0  0  0  0  0  0  0  0  0  0  0  0
   -9.5770    7.9760  -33.7580 R   0  0  0  0  0  0  0  0  0  0  0  0
   -9.0560   12.8810  -35.1610 C   0  0  1  0  0  0  0  0  0  0  0  0
   -6.8480   12.0120  -34.8210 O   0  0  0  0  0  0  0  0  0  0  0  0
   -6.8410    7.0270  -35.9420 C   0  0  0  0  0  0  0  0  0  0  0  0
   -8.5890   14.3230  -34.9280 C   0  0  0  0  0  0  0  0  0  0  0  0
   -9.2680   12.7230  -36.6650 C   0  0  0  0  0  0  0  0  0  0  0  0
   -6.6320    6.9000  -37.2340 O   0  0  0  0  0  0  0  0  0  0  0  0
   -6.4740    6.2040  -35.1210 O   0  0  0  0  0  0  0  0  0  0  0  0
   -8.5840   14.6720  -33.4310 C   0  0  0  0  0  0  0  0  0  0  0  0
  -10.5280   13.3650  -37.0000 C   0  0  0  0  0  0  0  0  0  0  0  0
   -5.8650    5.7760  -37.7420 C   0  0  0  0  0  0  0  0  0  0  0  0
   -8.9950   13.8610  -32.6090 O   0  0  0  0  0  0  0  0  0  0  0  0
   -8.0860   16.0830  -33.0110 C   0  0  1  0  0  0  0  0  0  0  0  0
  -11.7240   12.8990  -36.4350 C   0  0  0  0  0  0  0  0  0  0  0  0
  -10.5610   14.4560  -37.8460 C   0  0  0  0  0  0  0  0  0  0  0  0
   -5.3170    6.1500  -39.1310 C   0  0  0  0  0  0  0  0  0  0  0  0
   -8.6290   16.3950  -31.6970 N   0  0  0  0  0  0  0  0  0  0  0  0
   -6.5580   16.1960  -32.8000 C   0  0  0  0  0  0  0  0  0  0  0  0
  -12.9320   13.5180  -36.7470 C   0  0  0  0  0  0  0  0  0  0  0  0
  -11.7810   15.0780  -38.1630 C   0  0  0  0  0  0  0  0  0  0  0  0
   -9.5640   17.2990  -31.5320 C   0  0  0  0  0  0  0  0  0  0  0  0
   -6.1440   17.6450  -33.1050 C   0  0  0  0  0  0  0  0  0  0  0  0
   -5.6460   15.2180  -33.5500 C   0  0  0  0  0  0  0  0  0  0  0  0
  -12.9510   14.6100  -37.6100 C   0  0  0  0  0  0  0  0  0  0  0  0
  -10.0630   17.4900  -30.2480 C   0  0  0  0  0  0  0  0  0  0  0  0
   -9.9690   17.8730  -32.5270 O   0  0  0  0  0  0  0  0  0  0  0  0
  -14.1050   15.1750  -37.9340 F   0  0  0  0  0  0  0  0  0  0  0  0
  -11.1890   18.2730  -30.0350 C   0  0  0  0  0  0  0  0  0  0  0  0
   -9.6280   16.9280  -29.1140 N   0  0  0  0  0  0  0  0  0  0  0  0
  -11.4230   18.1130  -28.6670 C   0  0  0  0  0  0  0  0  0  0  0  0
  -10.5110   17.3020  -28.1260 O   0  0  0  0  0  0  0  0  0  0  0  0
  -12.5130   18.7590  -27.8190 C   0  0  0  0  0  0  0  0  0  0  0  0
  2  1  1  1
  3  2  1  0
  2  4  1  0
  3  5  1  0
  4  6  1  0
  4  7  1  6
  8  5  1  0
  5  9  2  0
  6 10  1  0
  8 11  1  6
  8 12  1  0
 10 13  1  0
 10 14  2  0
 15 11  1  0
 12 16  1  0
 13 17  1  0
 15 18  2  0
 15 19  1  0
 16 20  2  0
 16 21  1  0
 17 22  1  0
 19 23  1  1
 19 24  1  0
 20 25  1  0
 26 21  2  0
 23 27  1  0
 24 28  1  0
 24 29  1  0
 25 30  2  0
 30 26  1  0
 31 27  1  0
 27 32  2  0
 30 33  1  0
 31 34  1  0
 31 35  2  0
 34 36  2  0
 37 35  1  0
 36 38  1  0
 36 37  1  0
V    7 *
A    2
 C13
A    3
 N12
A    4
 C19
A    5
 C47
A    6
 C20
A    7
 X  
A    8
 C04
A    9
 O48
A   10
 C21
A   11
 C02
A   12
 C05
A   13
 O22
A   14
 O23
A   15
 C01
A   16
 C06
A   17
 C50
A   18
 O03
A   19
 C57
A   20
 C07
A   21
 C11
A   22
 C53
A   23
 N58
A   24
 C78
A   25
 C08
A   26
 C10
A   27
 C59
A   28
 C81
A   29
 C82
A   30
 C09
A   31
 C1 
A   32
 O60
A   33
 F1 
A   34
 C2 
A   35
 N5 
A   36
 C3 
A   37
 O4 
A   38
 C4 
M  END
>  <XChem_code>  (868) 
AG7§22

>  <Occupancy>  (868) 
[1.0, 1.0, 1.0, 1.0, 1.0, 1.0, 1.0, 1.0, 1.0, 1.0, 1.0, 1.0, 1.0, 1.0, 1.0, 1.0, 1.0, 1.0, 1.0, 1.0, 1.0, 1.0, 1.0, 1.0, 1.0, 1.0, 1.0, 1.0, 1.0, 1.0, 1.0, 1.0, 1.0, 1.0, 1.0, 1.0, 1.0, 1.0, 1.0, 1.0, 1.0, 1.0, 1.0, 1.0]

>  <TempFactor>  (868) 
[16.99, 17.37, 15.03, 17.27, 16.93, 17.74, 13.17, 18.44, 18.15, 13.03, 17.26, 13.64, 14.2, 14.77, 14.96, 13.35, 14.45, 12.48, 12.74, 12.98, 14.81, 13.66, 14.93, 16.5, 11.73, 10.42, 13.5, 14.67, 11.98, 13.75, 16.69, 15.21, 15.78, 16.7, 16.34, 17.46, 18.53, 17.19, 17.7, 18.6, 16.97, 15.33, 12.99, 18.88]

>  <accession>  (868) 
1CQQ_A

>  <description>  (868) 
Chain A, TYPE 2 RHINOVIRUS 3C PROTEASE [rhinovirus A2]

>  <evalue>  (868) 
1.03838e-57

>  <pdb_code>  (868) 
1CQQ

>  <chain>  (868) 
A

>  <ligands>  (868) 
[{'chain_id': 'A', 'author_residue_number': 501, 'author_insertion_code': '', 'chem_comp_id': 'AG7', 'alternate_conformers': 0, 'entity_id': 2, 'struct_asym_id': 'B', 'residue_number': 1, 'chem_comp_name': '4-{2-(4-FLUORO-BENZYL)-6-METHYL-5-[(5-METHYL-ISOXAZOLE-3-CARBONYL)-AMINO]-4-OXO-HEPTANOYLAMINO}-5-(2-OXO-PYRROLIDIN-3-YL)-PENTANOIC ACID ETHYL ESTER', 'weight': 600.678, 'carbohydrate_polymer': False, 'branch_name': ''}]

>  <ligand_codes>  (868) 
['AG7']

>  <cofactor_codes>  (868) 
[]

>  <has_cofactor>  (868) 
False

>  <covalent>  (868) 
True

>  <base_name>  (868) 
1CQQ

>  <lig_resn>  (868) 
AG7

>  <lig_resi>  (868) 
501

>  <lig_chain>  (868) 
A

>  <lig_segi>  (868) 
B

>  <lig_alt>  (868) 


>  <polymer_chain>  (868) 
A

>  <single_smiles>  (868) 
CCOC(=O)CC[C@H](C[C@@H]1CCNC1=O)NC(=O)[C@@H](CC(=O)[C@@H](NC(=O)c2cc(C)on2)C(C)C)Cc3ccc(F)cc3

$$$$
AG7P22S19
     RDKit          3D

  7  7  0  0  0  0  0  0  0  0999 V2000
  -10.5280   13.3650  -37.0000 C   0  0  0  0  0  0  0  0  0  0  0  0
  -11.7240   12.8990  -36.4350 C   0  0  0  0  0  0  0  0  0  0  0  0
  -10.5610   14.4560  -37.8460 C   0  0  0  0  0  0  0  0  0  0  0  0
  -12.9320   13.5180  -36.7470 C   0  0  0  0  0  0  0  0  0  0  0  0
  -11.7810   15.0780  -38.1630 C   0  0  0  0  0  0  0  0  0  0  0  0
  -12.9510   14.6100  -37.6100 C   0  0  0  0  0  0  0  0  0  0  0  0
  -14.1050   15.1750  -37.9340 F   0  0  0  0  0  0  0  0  0  0  0  0
  1  2  2  0
  1  3  1  0
  2  4  1  0
  5  3  2  0
  4  6  2  0
  6  5  1  0
  6  7  1  0
A    2
 C07
A    3
 C11
A    4
 C08
A    5
 C10
A    6
 C09
A    7
 F1 
M  END
>  <XChem_code>  (869) 
AG7§22

>  <Occupancy>  (869) 
[1.0, 1.0, 1.0, 1.0, 1.0, 1.0, 1.0, 1.0, 1.0, 1.0, 1.0, 1.0, 1.0, 1.0, 1.0, 1.0, 1.0, 1.0, 1.0, 1.0, 1.0, 1.0, 1.0, 1.0, 1.0, 1.0, 1.0, 1.0, 1.0, 1.0, 1.0, 1.0, 1.0, 1.0, 1.0, 1.0, 1.0, 1.0, 1.0, 1.0, 1.0, 1.0, 1.0, 1.0]

>  <TempFactor>  (869) 
[16.99, 17.37, 15.03, 17.27, 16.93, 17.74, 13.17, 18.44, 18.15, 13.03, 17.26, 13.64, 14.2, 14.77, 14.96, 13.35, 14.45, 12.48, 12.74, 12.98, 14.81, 13.66, 14.93, 16.5, 11.73, 10.42, 13.5, 14.67, 11.98, 13.75, 16.69, 15.21, 15.78, 16.7, 16.34, 17.46, 18.53, 17.19, 17.7, 18.6, 16.97, 15.33, 12.99, 18.88]

>  <accession>  (869) 
1CQQ_A

>  <description>  (869) 
Chain A, TYPE 2 RHINOVIRUS 3C PROTEASE [rhinovirus A2]

>  <evalue>  (869) 
1.03838e-57

>  <pdb_code>  (869) 
1CQQ

>  <chain>  (869) 
A

>  <ligands>  (869) 
[{'chain_id': 'A', 'author_residue_number': 501, 'author_insertion_code': '', 'chem_comp_id': 'AG7', 'alternate_conformers': 0, 'entity_id': 2, 'struct_asym_id': 'B', 'residue_number': 1, 'chem_comp_name': '4-{2-(4-FLUORO-BENZYL)-6-METHYL-5-[(5-METHYL-ISOXAZOLE-3-CARBONYL)-AMINO]-4-OXO-HEPTANOYLAMINO}-5-(2-OXO-PYRROLIDIN-3-YL)-PENTANOIC ACID ETHYL ESTER', 'weight': 600.678, 'carbohydrate_polymer': False, 'branch_name': ''}]

>  <ligand_codes>  (869) 
['AG7']

>  <cofactor_codes>  (869) 
[]

>  <has_cofactor>  (869) 
False

>  <covalent>  (869) 
True

>  <base_name>  (869) 
1CQQ

>  <lig_resn>  (869) 
AG7

>  <lig_resi>  (869) 
501

>  <lig_chain>  (869) 
A

>  <lig_segi>  (869) 
B

>  <lig_alt>  (869) 


>  <polymer_chain>  (869) 
A

>  <single_smiles>  (869) 
CCOC(=O)CC[C@H](C[C@@H]1CCNC1=O)NC(=O)[C@@H](CC(=O)[C@@H](NC(=O)c2cc(C)on2)C(C)C)Cc3ccc(F)cc3

$$$$
AG7P22S20
     RDKit          3D

 37 38  0  0  0  0  0  0  0  0999 V2000
   -9.2680   12.7230  -36.6650 C   0  0  0  0  0  0  0  0  0  0  0  0
   -9.0560   12.8810  -35.1610 C   0  0  2  0  0  0  0  0  0  0  0  0
   -8.5890   14.3230  -34.9280 C   0  0  0  0  0  0  0  0  0  0  0  0
   -8.0530   11.8650  -34.6340 C   0  0  0  0  0  0  0  0  0  0  0  0
   -8.5840   14.6720  -33.4310 C   0  0  0  0  0  0  0  0  0  0  0  0
   -8.4650   10.8310  -33.9180 N   0  0  0  0  0  0  0  0  0  0  0  0
   -6.8480   12.0120  -34.8210 O   0  0  0  0  0  0  0  0  0  0  0  0
   -8.9950   13.8610  -32.6090 O   0  0  0  0  0  0  0  0  0  0  0  0
   -8.0860   16.0830  -33.0110 C   0  0  1  0  0  0  0  0  0  0  0  0
   -7.5030    9.8280  -33.4300 C   0  0  1  0  0  0  0  0  0  0  0  0
   -8.6290   16.3950  -31.6970 N   0  0  0  0  0  0  0  0  0  0  0  0
   -6.5580   16.1960  -32.8000 C   0  0  0  0  0  0  0  0  0  0  0  0
   -7.3880    9.7920  -31.9090 C   0  0  0  0  0  0  0  0  0  0  0  0
   -7.8280    8.4080  -34.0100 C   0  0  2  0  0  0  0  0  0  0  0  0
   -9.5640   17.2990  -31.5320 C   0  0  0  0  0  0  0  0  0  0  0  0
   -6.1440   17.6450  -33.1050 C   0  0  0  0  0  0  0  0  0  0  0  0
   -5.6460   15.2180  -33.5500 C   0  0  0  0  0  0  0  0  0  0  0  0
   -6.7420   11.0650  -31.3380 C   0  0  1  0  0  0  0  0  0  0  0  0
   -7.5620    8.3420  -35.5410 C   0  0  0  0  0  0  0  0  0  0  0  0
   -9.5770    7.9760  -33.7580 R   0  0  0  0  0  0  0  0  0  0  0  0
  -10.0630   17.4900  -30.2480 C   0  0  0  0  0  0  0  0  0  0  0  0
   -9.9690   17.8730  -32.5270 O   0  0  0  0  0  0  0  0  0  0  0  0
   -6.5610   11.0160  -29.8480 C   0  0  0  0  0  0  0  0  0  0  0  0
   -5.3020   11.3840  -31.7700 C   0  0  0  0  0  0  0  0  0  0  0  0
   -6.8410    7.0270  -35.9420 C   0  0  0  0  0  0  0  0  0  0  0  0
  -11.1890   18.2730  -30.0350 C   0  0  0  0  0  0  0  0  0  0  0  0
   -9.6280   16.9280  -29.1140 N   0  0  0  0  0  0  0  0  0  0  0  0
   -5.5900   11.7760  -29.4540 N   0  0  0  0  0  0  0  0  0  0  0  0
   -7.1850   10.2960  -29.0840 O   0  0  0  0  0  0  0  0  0  0  0  0
   -4.7450   12.2020  -30.5760 C   0  0  0  0  0  0  0  0  0  0  0  0
   -6.6320    6.9000  -37.2340 O   0  0  0  0  0  0  0  0  0  0  0  0
   -6.4740    6.2040  -35.1210 O   0  0  0  0  0  0  0  0  0  0  0  0
  -11.4230   18.1130  -28.6670 C   0  0  0  0  0  0  0  0  0  0  0  0
  -10.5110   17.3020  -28.1260 O   0  0  0  0  0  0  0  0  0  0  0  0
   -5.8650    5.7760  -37.7420 C   0  0  0  0  0  0  0  0  0  0  0  0
  -12.5130   18.7590  -27.8190 C   0  0  0  0  0  0  0  0  0  0  0  0
   -5.3170    6.1500  -39.1310 C   0  0  0  0  0  0  0  0  0  0  0  0
  2  1  1  6
  2  3  1  0
  2  4  1  0
  5  3  1  0
  6  4  1  0
  4  7  2  0
  5  8  2  0
  5  9  1  0
  6 10  1  0
  9 11  1  1
  9 12  1  0
 10 13  1  1
 10 14  1  0
 11 15  1  0
 12 16  1  0
 12 17  1  0
 18 13  1  6
 14 19  1  0
 14 20  1  6
 21 15  1  0
 15 22  2  0
 18 23  1  0
 18 24  1  0
 19 25  1  0
 21 26  1  0
 21 27  2  0
 23 28  1  0
 23 29  2  0
 30 24  1  0
 25 31  1  0
 25 32  2  0
 26 33  2  0
 34 27  1  0
 28 30  1  0
 31 35  1  0
 33 36  1  0
 33 34  1  0
 35 37  1  0
V   20 *
A    2
 C04
A    3
 C02
A    4
 C47
A    5
 C01
A    6
 N12
A    7
 O48
A    8
 O03
A    9
 C57
A   10
 C13
A   11
 N58
A   12
 C78
A   13
 C14
A   14
 C19
A   15
 C59
A   16
 C81
A   17
 C82
A   18
 C15
A   19
 C20
A   20
 X  
A   21
 C1 
A   22
 O60
A   23
 C16
A   24
 C84
A   25
 C21
A   26
 C2 
A   27
 N5 
A   28
 N17
A   29
 O18
A   30
 C83
A   31
 O22
A   32
 O23
A   33
 C3 
A   34
 O4 
A   35
 C50
A   36
 C4 
A   37
 C53
M  END
>  <XChem_code>  (870) 
AG7§22

>  <Occupancy>  (870) 
[1.0, 1.0, 1.0, 1.0, 1.0, 1.0, 1.0, 1.0, 1.0, 1.0, 1.0, 1.0, 1.0, 1.0, 1.0, 1.0, 1.0, 1.0, 1.0, 1.0, 1.0, 1.0, 1.0, 1.0, 1.0, 1.0, 1.0, 1.0, 1.0, 1.0, 1.0, 1.0, 1.0, 1.0, 1.0, 1.0, 1.0, 1.0, 1.0, 1.0, 1.0, 1.0, 1.0, 1.0]

>  <TempFactor>  (870) 
[16.99, 17.37, 15.03, 17.27, 16.93, 17.74, 13.17, 18.44, 18.15, 13.03, 17.26, 13.64, 14.2, 14.77, 14.96, 13.35, 14.45, 12.48, 12.74, 12.98, 14.81, 13.66, 14.93, 16.5, 11.73, 10.42, 13.5, 14.67, 11.98, 13.75, 16.69, 15.21, 15.78, 16.7, 16.34, 17.46, 18.53, 17.19, 17.7, 18.6, 16.97, 15.33, 12.99, 18.88]

>  <accession>  (870) 
1CQQ_A

>  <description>  (870) 
Chain A, TYPE 2 RHINOVIRUS 3C PROTEASE [rhinovirus A2]

>  <evalue>  (870) 
1.03838e-57

>  <pdb_code>  (870) 
1CQQ

>  <chain>  (870) 
A

>  <ligands>  (870) 
[{'chain_id': 'A', 'author_residue_number': 501, 'author_insertion_code': '', 'chem_comp_id': 'AG7', 'alternate_conformers': 0, 'entity_id': 2, 'struct_asym_id': 'B', 'residue_number': 1, 'chem_comp_name': '4-{2-(4-FLUORO-BENZYL)-6-METHYL-5-[(5-METHYL-ISOXAZOLE-3-CARBONYL)-AMINO]-4-OXO-HEPTANOYLAMINO}-5-(2-OXO-PYRROLIDIN-3-YL)-PENTANOIC ACID ETHYL ESTER', 'weight': 600.678, 'carbohydrate_polymer': False, 'branch_name': ''}]

>  <ligand_codes>  (870) 
['AG7']

>  <cofactor_codes>  (870) 
[]

>  <has_cofactor>  (870) 
False

>  <covalent>  (870) 
True

>  <base_name>  (870) 
1CQQ

>  <lig_resn>  (870) 
AG7

>  <lig_resi>  (870) 
501

>  <lig_chain>  (870) 
A

>  <lig_segi>  (870) 
B

>  <lig_alt>  (870) 


>  <polymer_chain>  (870) 
A

>  <single_smiles>  (870) 
CCOC(=O)CC[C@H](C[C@@H]1CCNC1=O)NC(=O)[C@@H](CC(=O)[C@@H](NC(=O)c2cc(C)on2)C(C)C)Cc3ccc(F)cc3

$$$$
AG7P22S21
     RDKit          3D

 11 10  0  0  0  0  0  0  0  0999 V2000
   -7.3880    9.7920  -31.9090 C   0  0  0  0  0  0  0  0  0  0  0  0
   -7.5030    9.8280  -33.4300 C   0  0  2  0  0  0  0  0  0  0  0  0
   -8.4650   10.8310  -33.9180 N   0  0  0  0  0  0  0  0  0  0  0  0
   -7.8280    8.4080  -34.0100 C   0  0  2  0  0  0  0  0  0  0  0  0
   -7.5620    8.3420  -35.5410 C   0  0  0  0  0  0  0  0  0  0  0  0
   -9.5770    7.9760  -33.7580 R   0  0  0  0  0  0  0  0  0  0  0  0
   -6.8410    7.0270  -35.9420 C   0  0  0  0  0  0  0  0  0  0  0  0
   -6.6320    6.9000  -37.2340 O   0  0  0  0  0  0  0  0  0  0  0  0
   -6.4740    6.2040  -35.1210 O   0  0  0  0  0  0  0  0  0  0  0  0
   -5.8650    5.7760  -37.7420 C   0  0  0  0  0  0  0  0  0  0  0  0
   -5.3170    6.1500  -39.1310 C   0  0  0  0  0  0  0  0  0  0  0  0
  2  1  1  1
  3  2  1  0
  2  4  1  0
  4  5  1  0
  4  6  1  6
  5  7  1  0
  7  8  1  0
  7  9  2  0
  8 10  1  0
 10 11  1  0
V    6 *
A    2
 C13
A    4
 C19
A    5
 C20
A    6
 X  
A    7
 C21
A    8
 O22
A    9
 O23
A   10
 C50
A   11
 C53
M  END
>  <XChem_code>  (871) 
AG7§22

>  <Occupancy>  (871) 
[1.0, 1.0, 1.0, 1.0, 1.0, 1.0, 1.0, 1.0, 1.0, 1.0, 1.0, 1.0, 1.0, 1.0, 1.0, 1.0, 1.0, 1.0, 1.0, 1.0, 1.0, 1.0, 1.0, 1.0, 1.0, 1.0, 1.0, 1.0, 1.0, 1.0, 1.0, 1.0, 1.0, 1.0, 1.0, 1.0, 1.0, 1.0, 1.0, 1.0, 1.0, 1.0, 1.0, 1.0]

>  <TempFactor>  (871) 
[16.99, 17.37, 15.03, 17.27, 16.93, 17.74, 13.17, 18.44, 18.15, 13.03, 17.26, 13.64, 14.2, 14.77, 14.96, 13.35, 14.45, 12.48, 12.74, 12.98, 14.81, 13.66, 14.93, 16.5, 11.73, 10.42, 13.5, 14.67, 11.98, 13.75, 16.69, 15.21, 15.78, 16.7, 16.34, 17.46, 18.53, 17.19, 17.7, 18.6, 16.97, 15.33, 12.99, 18.88]

>  <accession>  (871) 
1CQQ_A

>  <description>  (871) 
Chain A, TYPE 2 RHINOVIRUS 3C PROTEASE [rhinovirus A2]

>  <evalue>  (871) 
1.03838e-57

>  <pdb_code>  (871) 
1CQQ

>  <chain>  (871) 
A

>  <ligands>  (871) 
[{'chain_id': 'A', 'author_residue_number': 501, 'author_insertion_code': '', 'chem_comp_id': 'AG7', 'alternate_conformers': 0, 'entity_id': 2, 'struct_asym_id': 'B', 'residue_number': 1, 'chem_comp_name': '4-{2-(4-FLUORO-BENZYL)-6-METHYL-5-[(5-METHYL-ISOXAZOLE-3-CARBONYL)-AMINO]-4-OXO-HEPTANOYLAMINO}-5-(2-OXO-PYRROLIDIN-3-YL)-PENTANOIC ACID ETHYL ESTER', 'weight': 600.678, 'carbohydrate_polymer': False, 'branch_name': ''}]

>  <ligand_codes>  (871) 
['AG7']

>  <cofactor_codes>  (871) 
[]

>  <has_cofactor>  (871) 
False

>  <covalent>  (871) 
True

>  <base_name>  (871) 
1CQQ

>  <lig_resn>  (871) 
AG7

>  <lig_resi>  (871) 
501

>  <lig_chain>  (871) 
A

>  <lig_segi>  (871) 
B

>  <lig_alt>  (871) 


>  <polymer_chain>  (871) 
A

>  <single_smiles>  (871) 
CCOC(=O)CC[C@H](C[C@@H]1CCNC1=O)NC(=O)[C@@H](CC(=O)[C@@H](NC(=O)c2cc(C)on2)C(C)C)Cc3ccc(F)cc3

$$$$
AG7P22S22
     RDKit          3D

 20 20  0  0  0  0  0  0  0  0999 V2000
   -9.2680   12.7230  -36.6650 C   0  0  0  0  0  0  0  0  0  0  0  0
   -9.0560   12.8810  -35.1610 C   0  0  1  0  0  0  0  0  0  0  0  0
   -8.0530   11.8650  -34.6340 C   0  0  0  0  0  0  0  0  0  0  0  0
   -8.5890   14.3230  -34.9280 C   0  0  0  0  0  0  0  0  0  0  0  0
   -6.8480   12.0120  -34.8210 O   0  0  0  0  0  0  0  0  0  0  0  0
   -8.5840   14.6720  -33.4310 C   0  0  0  0  0  0  0  0  0  0  0  0
   -8.9950   13.8610  -32.6090 O   0  0  0  0  0  0  0  0  0  0  0  0
   -8.0860   16.0830  -33.0110 C   0  0  1  0  0  0  0  0  0  0  0  0
   -8.6290   16.3950  -31.6970 N   0  0  0  0  0  0  0  0  0  0  0  0
   -6.5580   16.1960  -32.8000 C   0  0  0  0  0  0  0  0  0  0  0  0
   -9.5640   17.2990  -31.5320 C   0  0  0  0  0  0  0  0  0  0  0  0
   -6.1440   17.6450  -33.1050 C   0  0  0  0  0  0  0  0  0  0  0  0
   -5.6460   15.2180  -33.5500 C   0  0  0  0  0  0  0  0  0  0  0  0
  -10.0630   17.4900  -30.2480 C   0  0  0  0  0  0  0  0  0  0  0  0
   -9.9690   17.8730  -32.5270 O   0  0  0  0  0  0  0  0  0  0  0  0
  -11.1890   18.2730  -30.0350 C   0  0  0  0  0  0  0  0  0  0  0  0
   -9.6280   16.9280  -29.1140 N   0  0  0  0  0  0  0  0  0  0  0  0
  -11.4230   18.1130  -28.6670 C   0  0  0  0  0  0  0  0  0  0  0  0
  -10.5110   17.3020  -28.1260 O   0  0  0  0  0  0  0  0  0  0  0  0
  -12.5130   18.7590  -27.8190 C   0  0  0  0  0  0  0  0  0  0  0  0
  2  1  1  6
  2  3  1  0
  2  4  1  0
  3  5  2  0
  6  4  1  0
  6  7  2  0
  6  8  1  0
  8  9  1  1
  8 10  1  0
  9 11  1  0
 10 12  1  0
 10 13  1  0
 14 11  1  0
 11 15  2  0
 14 16  1  0
 14 17  2  0
 16 18  2  0
 19 17  1  0
 18 20  1  0
 18 19  1  0
A    2
 C04
A    4
 C02
A    5
 O48
A    6
 C01
A    7
 O03
A    8
 C57
A    9
 N58
A   10
 C78
A   11
 C59
A   12
 C81
A   13
 C82
A   14
 C1 
A   15
 O60
A   16
 C2 
A   17
 N5 
A   18
 C3 
A   19
 O4 
A   20
 C4 
M  END
>  <XChem_code>  (872) 
AG7§22

>  <Occupancy>  (872) 
[1.0, 1.0, 1.0, 1.0, 1.0, 1.0, 1.0, 1.0, 1.0, 1.0, 1.0, 1.0, 1.0, 1.0, 1.0, 1.0, 1.0, 1.0, 1.0, 1.0, 1.0, 1.0, 1.0, 1.0, 1.0, 1.0, 1.0, 1.0, 1.0, 1.0, 1.0, 1.0, 1.0, 1.0, 1.0, 1.0, 1.0, 1.0, 1.0, 1.0, 1.0, 1.0, 1.0, 1.0]

>  <TempFactor>  (872) 
[16.99, 17.37, 15.03, 17.27, 16.93, 17.74, 13.17, 18.44, 18.15, 13.03, 17.26, 13.64, 14.2, 14.77, 14.96, 13.35, 14.45, 12.48, 12.74, 12.98, 14.81, 13.66, 14.93, 16.5, 11.73, 10.42, 13.5, 14.67, 11.98, 13.75, 16.69, 15.21, 15.78, 16.7, 16.34, 17.46, 18.53, 17.19, 17.7, 18.6, 16.97, 15.33, 12.99, 18.88]

>  <accession>  (872) 
1CQQ_A

>  <description>  (872) 
Chain A, TYPE 2 RHINOVIRUS 3C PROTEASE [rhinovirus A2]

>  <evalue>  (872) 
1.03838e-57

>  <pdb_code>  (872) 
1CQQ

>  <chain>  (872) 
A

>  <ligands>  (872) 
[{'chain_id': 'A', 'author_residue_number': 501, 'author_insertion_code': '', 'chem_comp_id': 'AG7', 'alternate_conformers': 0, 'entity_id': 2, 'struct_asym_id': 'B', 'residue_number': 1, 'chem_comp_name': '4-{2-(4-FLUORO-BENZYL)-6-METHYL-5-[(5-METHYL-ISOXAZOLE-3-CARBONYL)-AMINO]-4-OXO-HEPTANOYLAMINO}-5-(2-OXO-PYRROLIDIN-3-YL)-PENTANOIC ACID ETHYL ESTER', 'weight': 600.678, 'carbohydrate_polymer': False, 'branch_name': ''}]

>  <ligand_codes>  (872) 
['AG7']

>  <cofactor_codes>  (872) 
[]

>  <has_cofactor>  (872) 
False

>  <covalent>  (872) 
True

>  <base_name>  (872) 
1CQQ

>  <lig_resn>  (872) 
AG7

>  <lig_resi>  (872) 
501

>  <lig_chain>  (872) 
A

>  <lig_segi>  (872) 
B

>  <lig_alt>  (872) 


>  <polymer_chain>  (872) 
A

>  <single_smiles>  (872) 
CCOC(=O)CC[C@H](C[C@@H]1CCNC1=O)NC(=O)[C@@H](CC(=O)[C@@H](NC(=O)c2cc(C)on2)C(C)C)Cc3ccc(F)cc3

$$$$
AG7P22S23
     RDKit          3D

 30 30  0  0  0  0  0  0  0  0999 V2000
   -7.3880    9.7920  -31.9090 C   0  0  0  0  0  0  0  0  0  0  0  0
   -7.5030    9.8280  -33.4300 C   0  0  2  0  0  0  0  0  0  0  0  0
   -8.4650   10.8310  -33.9180 N   0  0  0  0  0  0  0  0  0  0  0  0
   -7.8280    8.4080  -34.0100 C   0  0  2  0  0  0  0  0  0  0  0  0
   -8.0530   11.8650  -34.6340 C   0  0  0  0  0  0  0  0  0  0  0  0
   -7.5620    8.3420  -35.5410 C   0  0  0  0  0  0  0  0  0  0  0  0
   -9.5770    7.9760  -33.7580 R   0  0  0  0  0  0  0  0  0  0  0  0
   -9.0560   12.8810  -35.1610 C   0  0  1  0  0  0  0  0  0  0  0  0
   -6.8480   12.0120  -34.8210 O   0  0  0  0  0  0  0  0  0  0  0  0
   -6.8410    7.0270  -35.9420 C   0  0  0  0  0  0  0  0  0  0  0  0
   -8.5890   14.3230  -34.9280 C   0  0  0  0  0  0  0  0  0  0  0  0
   -9.2680   12.7230  -36.6650 C   0  0  0  0  0  0  0  0  0  0  0  0
   -6.6320    6.9000  -37.2340 O   0  0  0  0  0  0  0  0  0  0  0  0
   -6.4740    6.2040  -35.1210 O   0  0  0  0  0  0  0  0  0  0  0  0
   -8.5840   14.6720  -33.4310 C   0  0  0  0  0  0  0  0  0  0  0  0
  -10.5280   13.3650  -37.0000 C   0  0  0  0  0  0  0  0  0  0  0  0
   -5.8650    5.7760  -37.7420 C   0  0  0  0  0  0  0  0  0  0  0  0
   -8.0860   16.0830  -33.0110 C   0  0  1  0  0  0  0  0  0  0  0  0
   -8.9950   13.8610  -32.6090 O   0  0  0  0  0  0  0  0  0  0  0  0
  -11.7240   12.8990  -36.4350 C   0  0  0  0  0  0  0  0  0  0  0  0
  -10.5610   14.4560  -37.8460 C   0  0  0  0  0  0  0  0  0  0  0  0
   -5.3170    6.1500  -39.1310 C   0  0  0  0  0  0  0  0  0  0  0  0
   -8.6290   16.3950  -31.6970 N   0  0  0  0  0  0  0  0  0  0  0  0
   -6.5580   16.1960  -32.8000 C   0  0  0  0  0  0  0  0  0  0  0  0
  -12.9320   13.5180  -36.7470 C   0  0  0  0  0  0  0  0  0  0  0  0
  -11.7810   15.0780  -38.1630 C   0  0  0  0  0  0  0  0  0  0  0  0
   -6.1440   17.6450  -33.1050 C   0  0  0  0  0  0  0  0  0  0  0  0
   -5.6460   15.2180  -33.5500 C   0  0  0  0  0  0  0  0  0  0  0  0
  -12.9510   14.6100  -37.6100 C   0  0  0  0  0  0  0  0  0  0  0  0
  -14.1050   15.1750  -37.9340 F   0  0  0  0  0  0  0  0  0  0  0  0
  2  1  1  1
  3  2  1  0
  2  4  1  0
  3  5  1  0
  4  6  1  0
  4  7  1  6
  8  5  1  0
  5  9  2  0
  6 10  1  0
  8 11  1  6
  8 12  1  0
 10 13  1  0
 10 14  2  0
 15 11  1  0
 12 16  1  0
 13 17  1  0
 15 18  1  0
 15 19  2  0
 16 20  2  0
 16 21  1  0
 17 22  1  0
 18 23  1  1
 18 24  1  0
 20 25  1  0
 26 21  2  0
 24 27  1  0
 24 28  1  0
 25 29  2  0
 29 26  1  0
 29 30  1  0
V    7 *
A    2
 C13
A    3
 N12
A    4
 C19
A    5
 C47
A    6
 C20
A    7
 X  
A    8
 C04
A    9
 O48
A   10
 C21
A   11
 C02
A   12
 C05
A   13
 O22
A   14
 O23
A   15
 C01
A   16
 C06
A   17
 C50
A   18
 C57
A   19
 O03
A   20
 C07
A   21
 C11
A   22
 C53
A   24
 C78
A   25
 C08
A   26
 C10
A   27
 C81
A   28
 C82
A   29
 C09
A   30
 F1 
M  END
>  <XChem_code>  (873) 
AG7§22

>  <Occupancy>  (873) 
[1.0, 1.0, 1.0, 1.0, 1.0, 1.0, 1.0, 1.0, 1.0, 1.0, 1.0, 1.0, 1.0, 1.0, 1.0, 1.0, 1.0, 1.0, 1.0, 1.0, 1.0, 1.0, 1.0, 1.0, 1.0, 1.0, 1.0, 1.0, 1.0, 1.0, 1.0, 1.0, 1.0, 1.0, 1.0, 1.0, 1.0, 1.0, 1.0, 1.0, 1.0, 1.0, 1.0, 1.0]

>  <TempFactor>  (873) 
[16.99, 17.37, 15.03, 17.27, 16.93, 17.74, 13.17, 18.44, 18.15, 13.03, 17.26, 13.64, 14.2, 14.77, 14.96, 13.35, 14.45, 12.48, 12.74, 12.98, 14.81, 13.66, 14.93, 16.5, 11.73, 10.42, 13.5, 14.67, 11.98, 13.75, 16.69, 15.21, 15.78, 16.7, 16.34, 17.46, 18.53, 17.19, 17.7, 18.6, 16.97, 15.33, 12.99, 18.88]

>  <accession>  (873) 
1CQQ_A

>  <description>  (873) 
Chain A, TYPE 2 RHINOVIRUS 3C PROTEASE [rhinovirus A2]

>  <evalue>  (873) 
1.03838e-57

>  <pdb_code>  (873) 
1CQQ

>  <chain>  (873) 
A

>  <ligands>  (873) 
[{'chain_id': 'A', 'author_residue_number': 501, 'author_insertion_code': '', 'chem_comp_id': 'AG7', 'alternate_conformers': 0, 'entity_id': 2, 'struct_asym_id': 'B', 'residue_number': 1, 'chem_comp_name': '4-{2-(4-FLUORO-BENZYL)-6-METHYL-5-[(5-METHYL-ISOXAZOLE-3-CARBONYL)-AMINO]-4-OXO-HEPTANOYLAMINO}-5-(2-OXO-PYRROLIDIN-3-YL)-PENTANOIC ACID ETHYL ESTER', 'weight': 600.678, 'carbohydrate_polymer': False, 'branch_name': ''}]

>  <ligand_codes>  (873) 
['AG7']

>  <cofactor_codes>  (873) 
[]

>  <has_cofactor>  (873) 
False

>  <covalent>  (873) 
True

>  <base_name>  (873) 
1CQQ

>  <lig_resn>  (873) 
AG7

>  <lig_resi>  (873) 
501

>  <lig_chain>  (873) 
A

>  <lig_segi>  (873) 
B

>  <lig_alt>  (873) 


>  <polymer_chain>  (873) 
A

>  <single_smiles>  (873) 
CCOC(=O)CC[C@H](C[C@@H]1CCNC1=O)NC(=O)[C@@H](CC(=O)[C@@H](NC(=O)c2cc(C)on2)C(C)C)Cc3ccc(F)cc3

$$$$
AG7P22S24
     RDKit          3D

 29 29  0  0  0  0  0  0  0  0999 V2000
   -9.2680   12.7230  -36.6650 C   0  0  0  0  0  0  0  0  0  0  0  0
   -9.0560   12.8810  -35.1610 C   0  0  2  0  0  0  0  0  0  0  0  0
   -8.5890   14.3230  -34.9280 C   0  0  0  0  0  0  0  0  0  0  0  0
   -8.0530   11.8650  -34.6340 C   0  0  0  0  0  0  0  0  0  0  0  0
   -8.5840   14.6720  -33.4310 C   0  0  0  0  0  0  0  0  0  0  0  0
   -8.4650   10.8310  -33.9180 N   0  0  0  0  0  0  0  0  0  0  0  0
   -6.8480   12.0120  -34.8210 O   0  0  0  0  0  0  0  0  0  0  0  0
   -8.0860   16.0830  -33.0110 C   0  0  1  0  0  0  0  0  0  0  0  0
   -8.9950   13.8610  -32.6090 O   0  0  0  0  0  0  0  0  0  0  0  0
   -7.5030    9.8280  -33.4300 C   0  0  1  0  0  0  0  0  0  0  0  0
   -8.6290   16.3950  -31.6970 N   0  0  0  0  0  0  0  0  0  0  0  0
   -6.5580   16.1960  -32.8000 C   0  0  0  0  0  0  0  0  0  0  0  0
   -7.3880    9.7920  -31.9090 C   0  0  0  0  0  0  0  0  0  0  0  0
   -7.8280    8.4080  -34.0100 C   0  0  2  0  0  0  0  0  0  0  0  0
   -6.1440   17.6450  -33.1050 C   0  0  0  0  0  0  0  0  0  0  0  0
   -5.6460   15.2180  -33.5500 C   0  0  0  0  0  0  0  0  0  0  0  0
   -6.7420   11.0650  -31.3380 C   0  0  1  0  0  0  0  0  0  0  0  0
   -7.5620    8.3420  -35.5410 C   0  0  0  0  0  0  0  0  0  0  0  0
   -9.5770    7.9760  -33.7580 R   0  0  0  0  0  0  0  0  0  0  0  0
   -6.5610   11.0160  -29.8480 C   0  0  0  0  0  0  0  0  0  0  0  0
   -5.3020   11.3840  -31.7700 C   0  0  0  0  0  0  0  0  0  0  0  0
   -6.8410    7.0270  -35.9420 C   0  0  0  0  0  0  0  0  0  0  0  0
   -5.5900   11.7760  -29.4540 N   0  0  0  0  0  0  0  0  0  0  0  0
   -7.1850   10.2960  -29.0840 O   0  0  0  0  0  0  0  0  0  0  0  0
   -4.7450   12.2020  -30.5760 C   0  0  0  0  0  0  0  0  0  0  0  0
   -6.6320    6.9000  -37.2340 O   0  0  0  0  0  0  0  0  0  0  0  0
   -6.4740    6.2040  -35.1210 O   0  0  0  0  0  0  0  0  0  0  0  0
   -5.8650    5.7760  -37.7420 C   0  0  0  0  0  0  0  0  0  0  0  0
   -5.3170    6.1500  -39.1310 C   0  0  0  0  0  0  0  0  0  0  0  0
  2  1  1  6
  2  3  1  0
  2  4  1  0
  5  3  1  0
  6  4  1  0
  4  7  2  0
  5  8  1  0
  5  9  2  0
  6 10  1  0
  8 11  1  1
  8 12  1  0
 10 13  1  1
 10 14  1  0
 12 15  1  0
 12 16  1  0
 17 13  1  6
 14 18  1  0
 14 19  1  6
 17 20  1  0
 17 21  1  0
 18 22  1  0
 20 23  1  0
 20 24  2  0
 25 21  1  0
 22 26  1  0
 22 27  2  0
 23 25  1  0
 26 28  1  0
 28 29  1  0
V   19 *
A    2
 C04
A    3
 C02
A    4
 C47
A    5
 C01
A    6
 N12
A    7
 O48
A    8
 C57
A    9
 O03
A   10
 C13
A   12
 C78
A   13
 C14
A   14
 C19
A   15
 C81
A   16
 C82
A   17
 C15
A   18
 C20
A   19
 X  
A   20
 C16
A   21
 C84
A   22
 C21
A   23
 N17
A   24
 O18
A   25
 C83
A   26
 O22
A   27
 O23
A   28
 C50
A   29
 C53
M  END
>  <XChem_code>  (874) 
AG7§22

>  <Occupancy>  (874) 
[1.0, 1.0, 1.0, 1.0, 1.0, 1.0, 1.0, 1.0, 1.0, 1.0, 1.0, 1.0, 1.0, 1.0, 1.0, 1.0, 1.0, 1.0, 1.0, 1.0, 1.0, 1.0, 1.0, 1.0, 1.0, 1.0, 1.0, 1.0, 1.0, 1.0, 1.0, 1.0, 1.0, 1.0, 1.0, 1.0, 1.0, 1.0, 1.0, 1.0, 1.0, 1.0, 1.0, 1.0]

>  <TempFactor>  (874) 
[16.99, 17.37, 15.03, 17.27, 16.93, 17.74, 13.17, 18.44, 18.15, 13.03, 17.26, 13.64, 14.2, 14.77, 14.96, 13.35, 14.45, 12.48, 12.74, 12.98, 14.81, 13.66, 14.93, 16.5, 11.73, 10.42, 13.5, 14.67, 11.98, 13.75, 16.69, 15.21, 15.78, 16.7, 16.34, 17.46, 18.53, 17.19, 17.7, 18.6, 16.97, 15.33, 12.99, 18.88]

>  <accession>  (874) 
1CQQ_A

>  <description>  (874) 
Chain A, TYPE 2 RHINOVIRUS 3C PROTEASE [rhinovirus A2]

>  <evalue>  (874) 
1.03838e-57

>  <pdb_code>  (874) 
1CQQ

>  <chain>  (874) 
A

>  <ligands>  (874) 
[{'chain_id': 'A', 'author_residue_number': 501, 'author_insertion_code': '', 'chem_comp_id': 'AG7', 'alternate_conformers': 0, 'entity_id': 2, 'struct_asym_id': 'B', 'residue_number': 1, 'chem_comp_name': '4-{2-(4-FLUORO-BENZYL)-6-METHYL-5-[(5-METHYL-ISOXAZOLE-3-CARBONYL)-AMINO]-4-OXO-HEPTANOYLAMINO}-5-(2-OXO-PYRROLIDIN-3-YL)-PENTANOIC ACID ETHYL ESTER', 'weight': 600.678, 'carbohydrate_polymer': False, 'branch_name': ''}]

>  <ligand_codes>  (874) 
['AG7']

>  <cofactor_codes>  (874) 
[]

>  <has_cofactor>  (874) 
False

>  <covalent>  (874) 
True

>  <base_name>  (874) 
1CQQ

>  <lig_resn>  (874) 
AG7

>  <lig_resi>  (874) 
501

>  <lig_chain>  (874) 
A

>  <lig_segi>  (874) 
B

>  <lig_alt>  (874) 


>  <polymer_chain>  (874) 
A

>  <single_smiles>  (874) 
CCOC(=O)CC[C@H](C[C@@H]1CCNC1=O)NC(=O)[C@@H](CC(=O)[C@@H](NC(=O)c2cc(C)on2)C(C)C)Cc3ccc(F)cc3

$$$$
AG7P22S25
     RDKit          3D

 12 11  0  0  0  0  0  0  0  0999 V2000
   -9.2680   12.7230  -36.6650 C   0  0  0  0  0  0  0  0  0  0  0  0
   -9.0560   12.8810  -35.1610 C   0  0  2  0  0  0  0  0  0  0  0  0
   -8.5890   14.3230  -34.9280 C   0  0  0  0  0  0  0  0  0  0  0  0
   -8.0530   11.8650  -34.6340 C   0  0  0  0  0  0  0  0  0  0  0  0
   -8.5840   14.6720  -33.4310 C   0  0  0  0  0  0  0  0  0  0  0  0
   -6.8480   12.0120  -34.8210 O   0  0  0  0  0  0  0  0  0  0  0  0
   -8.0860   16.0830  -33.0110 C   0  0  1  0  0  0  0  0  0  0  0  0
   -8.9950   13.8610  -32.6090 O   0  0  0  0  0  0  0  0  0  0  0  0
   -8.6290   16.3950  -31.6970 N   0  0  0  0  0  0  0  0  0  0  0  0
   -6.5580   16.1960  -32.8000 C   0  0  0  0  0  0  0  0  0  0  0  0
   -6.1440   17.6450  -33.1050 C   0  0  0  0  0  0  0  0  0  0  0  0
   -5.6460   15.2180  -33.5500 C   0  0  0  0  0  0  0  0  0  0  0  0
  2  1  1  6
  2  3  1  0
  2  4  1  0
  5  3  1  0
  4  6  2  0
  5  7  1  0
  5  8  2  0
  7  9  1  1
  7 10  1  0
 10 11  1  0
 10 12  1  0
A    2
 C04
A    3
 C02
A    5
 C01
A    6
 O48
A    7
 C57
A    8
 O03
A   10
 C78
A   11
 C81
A   12
 C82
M  END
>  <XChem_code>  (875) 
AG7§22

>  <Occupancy>  (875) 
[1.0, 1.0, 1.0, 1.0, 1.0, 1.0, 1.0, 1.0, 1.0, 1.0, 1.0, 1.0, 1.0, 1.0, 1.0, 1.0, 1.0, 1.0, 1.0, 1.0, 1.0, 1.0, 1.0, 1.0, 1.0, 1.0, 1.0, 1.0, 1.0, 1.0, 1.0, 1.0, 1.0, 1.0, 1.0, 1.0, 1.0, 1.0, 1.0, 1.0, 1.0, 1.0, 1.0, 1.0]

>  <TempFactor>  (875) 
[16.99, 17.37, 15.03, 17.27, 16.93, 17.74, 13.17, 18.44, 18.15, 13.03, 17.26, 13.64, 14.2, 14.77, 14.96, 13.35, 14.45, 12.48, 12.74, 12.98, 14.81, 13.66, 14.93, 16.5, 11.73, 10.42, 13.5, 14.67, 11.98, 13.75, 16.69, 15.21, 15.78, 16.7, 16.34, 17.46, 18.53, 17.19, 17.7, 18.6, 16.97, 15.33, 12.99, 18.88]

>  <accession>  (875) 
1CQQ_A

>  <description>  (875) 
Chain A, TYPE 2 RHINOVIRUS 3C PROTEASE [rhinovirus A2]

>  <evalue>  (875) 
1.03838e-57

>  <pdb_code>  (875) 
1CQQ

>  <chain>  (875) 
A

>  <ligands>  (875) 
[{'chain_id': 'A', 'author_residue_number': 501, 'author_insertion_code': '', 'chem_comp_id': 'AG7', 'alternate_conformers': 0, 'entity_id': 2, 'struct_asym_id': 'B', 'residue_number': 1, 'chem_comp_name': '4-{2-(4-FLUORO-BENZYL)-6-METHYL-5-[(5-METHYL-ISOXAZOLE-3-CARBONYL)-AMINO]-4-OXO-HEPTANOYLAMINO}-5-(2-OXO-PYRROLIDIN-3-YL)-PENTANOIC ACID ETHYL ESTER', 'weight': 600.678, 'carbohydrate_polymer': False, 'branch_name': ''}]

>  <ligand_codes>  (875) 
['AG7']

>  <cofactor_codes>  (875) 
[]

>  <has_cofactor>  (875) 
False

>  <covalent>  (875) 
True

>  <base_name>  (875) 
1CQQ

>  <lig_resn>  (875) 
AG7

>  <lig_resi>  (875) 
501

>  <lig_chain>  (875) 
A

>  <lig_segi>  (875) 
B

>  <lig_alt>  (875) 


>  <polymer_chain>  (875) 
A

>  <single_smiles>  (875) 
CCOC(=O)CC[C@H](C[C@@H]1CCNC1=O)NC(=O)[C@@H](CC(=O)[C@@H](NC(=O)c2cc(C)on2)C(C)C)Cc3ccc(F)cc3

$$$$
AG7P22S26
     RDKit          3D

 10  9  0  0  0  0  0  0  0  0999 V2000
   -7.3880    9.7920  -31.9090 C   0  0  0  0  0  0  0  0  0  0  0  0
   -7.5030    9.8280  -33.4300 C   0  0  0  0  0  0  0  0  0  0  0  0
   -7.8280    8.4080  -34.0100 C   0  0  2  0  0  0  0  0  0  0  0  0
   -7.5620    8.3420  -35.5410 C   0  0  0  0  0  0  0  0  0  0  0  0
   -9.5770    7.9760  -33.7580 R   0  0  0  0  0  0  0  0  0  0  0  0
   -6.8410    7.0270  -35.9420 C   0  0  0  0  0  0  0  0  0  0  0  0
   -6.6320    6.9000  -37.2340 O   0  0  0  0  0  0  0  0  0  0  0  0
   -6.4740    6.2040  -35.1210 O   0  0  0  0  0  0  0  0  0  0  0  0
   -5.8650    5.7760  -37.7420 C   0  0  0  0  0  0  0  0  0  0  0  0
   -5.3170    6.1500  -39.1310 C   0  0  0  0  0  0  0  0  0  0  0  0
  2  1  1  6
  2  3  1  0
  3  4  1  0
  3  5  1  6
  4  6  1  0
  6  7  1  0
  6  8  2  0
  7  9  1  0
  9 10  1  0
V    5 *
A    3
 C19
A    4
 C20
A    5
 X  
A    6
 C21
A    7
 O22
A    8
 O23
A    9
 C50
A   10
 C53
M  END
>  <XChem_code>  (876) 
AG7§22

>  <Occupancy>  (876) 
[1.0, 1.0, 1.0, 1.0, 1.0, 1.0, 1.0, 1.0, 1.0, 1.0, 1.0, 1.0, 1.0, 1.0, 1.0, 1.0, 1.0, 1.0, 1.0, 1.0, 1.0, 1.0, 1.0, 1.0, 1.0, 1.0, 1.0, 1.0, 1.0, 1.0, 1.0, 1.0, 1.0, 1.0, 1.0, 1.0, 1.0, 1.0, 1.0, 1.0, 1.0, 1.0, 1.0, 1.0]

>  <TempFactor>  (876) 
[16.99, 17.37, 15.03, 17.27, 16.93, 17.74, 13.17, 18.44, 18.15, 13.03, 17.26, 13.64, 14.2, 14.77, 14.96, 13.35, 14.45, 12.48, 12.74, 12.98, 14.81, 13.66, 14.93, 16.5, 11.73, 10.42, 13.5, 14.67, 11.98, 13.75, 16.69, 15.21, 15.78, 16.7, 16.34, 17.46, 18.53, 17.19, 17.7, 18.6, 16.97, 15.33, 12.99, 18.88]

>  <accession>  (876) 
1CQQ_A

>  <description>  (876) 
Chain A, TYPE 2 RHINOVIRUS 3C PROTEASE [rhinovirus A2]

>  <evalue>  (876) 
1.03838e-57

>  <pdb_code>  (876) 
1CQQ

>  <chain>  (876) 
A

>  <ligands>  (876) 
[{'chain_id': 'A', 'author_residue_number': 501, 'author_insertion_code': '', 'chem_comp_id': 'AG7', 'alternate_conformers': 0, 'entity_id': 2, 'struct_asym_id': 'B', 'residue_number': 1, 'chem_comp_name': '4-{2-(4-FLUORO-BENZYL)-6-METHYL-5-[(5-METHYL-ISOXAZOLE-3-CARBONYL)-AMINO]-4-OXO-HEPTANOYLAMINO}-5-(2-OXO-PYRROLIDIN-3-YL)-PENTANOIC ACID ETHYL ESTER', 'weight': 600.678, 'carbohydrate_polymer': False, 'branch_name': ''}]

>  <ligand_codes>  (876) 
['AG7']

>  <cofactor_codes>  (876) 
[]

>  <has_cofactor>  (876) 
False

>  <covalent>  (876) 
True

>  <base_name>  (876) 
1CQQ

>  <lig_resn>  (876) 
AG7

>  <lig_resi>  (876) 
501

>  <lig_chain>  (876) 
A

>  <lig_segi>  (876) 
B

>  <lig_alt>  (876) 


>  <polymer_chain>  (876) 
A

>  <single_smiles>  (876) 
CCOC(=O)CC[C@H](C[C@@H]1CCNC1=O)NC(=O)[C@@H](CC(=O)[C@@H](NC(=O)c2cc(C)on2)C(C)C)Cc3ccc(F)cc3

$$$$
AG7P22S27
     RDKit          3D

 21 21  0  0  0  0  0  0  0  0999 V2000
   -9.2680   12.7230  -36.6650 C   0  0  0  0  0  0  0  0  0  0  0  0
   -9.0560   12.8810  -35.1610 C   0  0  1  0  0  0  0  0  0  0  0  0
   -8.0530   11.8650  -34.6340 C   0  0  0  0  0  0  0  0  0  0  0  0
   -8.5890   14.3230  -34.9280 C   0  0  0  0  0  0  0  0  0  0  0  0
   -8.4650   10.8310  -33.9180 N   0  0  0  0  0  0  0  0  0  0  0  0
   -6.8480   12.0120  -34.8210 O   0  0  0  0  0  0  0  0  0  0  0  0
   -8.5840   14.6720  -33.4310 C   0  0  0  0  0  0  0  0  0  0  0  0
   -8.9950   13.8610  -32.6090 O   0  0  0  0  0  0  0  0  0  0  0  0
   -8.0860   16.0830  -33.0110 C   0  0  1  0  0  0  0  0  0  0  0  0
   -8.6290   16.3950  -31.6970 N   0  0  0  0  0  0  0  0  0  0  0  0
   -6.5580   16.1960  -32.8000 C   0  0  0  0  0  0  0  0  0  0  0  0
   -9.5640   17.2990  -31.5320 C   0  0  0  0  0  0  0  0  0  0  0  0
   -6.1440   17.6450  -33.1050 C   0  0  0  0  0  0  0  0  0  0  0  0
   -5.6460   15.2180  -33.5500 C   0  0  0  0  0  0  0  0  0  0  0  0
  -10.0630   17.4900  -30.2480 C   0  0  0  0  0  0  0  0  0  0  0  0
   -9.9690   17.8730  -32.5270 O   0  0  0  0  0  0  0  0  0  0  0  0
  -11.1890   18.2730  -30.0350 C   0  0  0  0  0  0  0  0  0  0  0  0
   -9.6280   16.9280  -29.1140 N   0  0  0  0  0  0  0  0  0  0  0  0
  -11.4230   18.1130  -28.6670 C   0  0  0  0  0  0  0  0  0  0  0  0
  -10.5110   17.3020  -28.1260 O   0  0  0  0  0  0  0  0  0  0  0  0
  -12.5130   18.7590  -27.8190 C   0  0  0  0  0  0  0  0  0  0  0  0
  2  1  1  6
  2  3  1  0
  2  4  1  0
  5  3  1  0
  3  6  2  0
  7  4  1  0
  7  8  2  0
  7  9  1  0
  9 10  1  1
  9 11  1  0
 10 12  1  0
 11 13  1  0
 11 14  1  0
 15 12  1  0
 12 16  2  0
 15 17  1  0
 15 18  2  0
 17 19  2  0
 20 18  1  0
 19 21  1  0
 19 20  1  0
A    2
 C04
A    3
 C47
A    4
 C02
A    6
 O48
A    7
 C01
A    8
 O03
A    9
 C57
A   10
 N58
A   11
 C78
A   12
 C59
A   13
 C81
A   14
 C82
A   15
 C1 
A   16
 O60
A   17
 C2 
A   18
 N5 
A   19
 C3 
A   20
 O4 
A   21
 C4 
M  END
>  <XChem_code>  (877) 
AG7§22

>  <Occupancy>  (877) 
[1.0, 1.0, 1.0, 1.0, 1.0, 1.0, 1.0, 1.0, 1.0, 1.0, 1.0, 1.0, 1.0, 1.0, 1.0, 1.0, 1.0, 1.0, 1.0, 1.0, 1.0, 1.0, 1.0, 1.0, 1.0, 1.0, 1.0, 1.0, 1.0, 1.0, 1.0, 1.0, 1.0, 1.0, 1.0, 1.0, 1.0, 1.0, 1.0, 1.0, 1.0, 1.0, 1.0, 1.0]

>  <TempFactor>  (877) 
[16.99, 17.37, 15.03, 17.27, 16.93, 17.74, 13.17, 18.44, 18.15, 13.03, 17.26, 13.64, 14.2, 14.77, 14.96, 13.35, 14.45, 12.48, 12.74, 12.98, 14.81, 13.66, 14.93, 16.5, 11.73, 10.42, 13.5, 14.67, 11.98, 13.75, 16.69, 15.21, 15.78, 16.7, 16.34, 17.46, 18.53, 17.19, 17.7, 18.6, 16.97, 15.33, 12.99, 18.88]

>  <accession>  (877) 
1CQQ_A

>  <description>  (877) 
Chain A, TYPE 2 RHINOVIRUS 3C PROTEASE [rhinovirus A2]

>  <evalue>  (877) 
1.03838e-57

>  <pdb_code>  (877) 
1CQQ

>  <chain>  (877) 
A

>  <ligands>  (877) 
[{'chain_id': 'A', 'author_residue_number': 501, 'author_insertion_code': '', 'chem_comp_id': 'AG7', 'alternate_conformers': 0, 'entity_id': 2, 'struct_asym_id': 'B', 'residue_number': 1, 'chem_comp_name': '4-{2-(4-FLUORO-BENZYL)-6-METHYL-5-[(5-METHYL-ISOXAZOLE-3-CARBONYL)-AMINO]-4-OXO-HEPTANOYLAMINO}-5-(2-OXO-PYRROLIDIN-3-YL)-PENTANOIC ACID ETHYL ESTER', 'weight': 600.678, 'carbohydrate_polymer': False, 'branch_name': ''}]

>  <ligand_codes>  (877) 
['AG7']

>  <cofactor_codes>  (877) 
[]

>  <has_cofactor>  (877) 
False

>  <covalent>  (877) 
True

>  <base_name>  (877) 
1CQQ

>  <lig_resn>  (877) 
AG7

>  <lig_resi>  (877) 
501

>  <lig_chain>  (877) 
A

>  <lig_segi>  (877) 
B

>  <lig_alt>  (877) 


>  <polymer_chain>  (877) 
A

>  <single_smiles>  (877) 
CCOC(=O)CC[C@H](C[C@@H]1CCNC1=O)NC(=O)[C@@H](CC(=O)[C@@H](NC(=O)c2cc(C)on2)C(C)C)Cc3ccc(F)cc3

$$$$
AG7P22S28
     RDKit          3D

 29 29  0  0  0  0  0  0  0  0999 V2000
   -7.3880    9.7920  -31.9090 C   0  0  0  0  0  0  0  0  0  0  0  0
   -7.5030    9.8280  -33.4300 C   0  0  2  0  0  0  0  0  0  0  0  0
   -8.4650   10.8310  -33.9180 N   0  0  0  0  0  0  0  0  0  0  0  0
   -7.8280    8.4080  -34.0100 C   0  0  2  0  0  0  0  0  0  0  0  0
   -8.0530   11.8650  -34.6340 C   0  0  0  0  0  0  0  0  0  0  0  0
   -7.5620    8.3420  -35.5410 C   0  0  0  0  0  0  0  0  0  0  0  0
   -9.5770    7.9760  -33.7580 R   0  0  0  0  0  0  0  0  0  0  0  0
   -9.0560   12.8810  -35.1610 C   0  0  1  0  0  0  0  0  0  0  0  0
   -6.8480   12.0120  -34.8210 O   0  0  0  0  0  0  0  0  0  0  0  0
   -6.8410    7.0270  -35.9420 C   0  0  0  0  0  0  0  0  0  0  0  0
   -8.5890   14.3230  -34.9280 C   0  0  0  0  0  0  0  0  0  0  0  0
   -9.2680   12.7230  -36.6650 C   0  0  0  0  0  0  0  0  0  0  0  0
   -6.6320    6.9000  -37.2340 O   0  0  0  0  0  0  0  0  0  0  0  0
   -6.4740    6.2040  -35.1210 O   0  0  0  0  0  0  0  0  0  0  0  0
   -8.5840   14.6720  -33.4310 C   0  0  0  0  0  0  0  0  0  0  0  0
  -10.5280   13.3650  -37.0000 C   0  0  0  0  0  0  0  0  0  0  0  0
   -5.8650    5.7760  -37.7420 C   0  0  0  0  0  0  0  0  0  0  0  0
   -8.0860   16.0830  -33.0110 C   0  0  0  0  0  0  0  0  0  0  0  0
   -8.9950   13.8610  -32.6090 O   0  0  0  0  0  0  0  0  0  0  0  0
  -11.7240   12.8990  -36.4350 C   0  0  0  0  0  0  0  0  0  0  0  0
  -10.5610   14.4560  -37.8460 C   0  0  0  0  0  0  0  0  0  0  0  0
   -5.3170    6.1500  -39.1310 C   0  0  0  0  0  0  0  0  0  0  0  0
   -6.5580   16.1960  -32.8000 C   0  0  0  0  0  0  0  0  0  0  0  0
  -12.9320   13.5180  -36.7470 C   0  0  0  0  0  0  0  0  0  0  0  0
  -11.7810   15.0780  -38.1630 C   0  0  0  0  0  0  0  0  0  0  0  0
   -6.1440   17.6450  -33.1050 C   0  0  0  0  0  0  0  0  0  0  0  0
   -5.6460   15.2180  -33.5500 C   0  0  0  0  0  0  0  0  0  0  0  0
  -12.9510   14.6100  -37.6100 C   0  0  0  0  0  0  0  0  0  0  0  0
  -14.1050   15.1750  -37.9340 F   0  0  0  0  0  0  0  0  0  0  0  0
  2  1  1  1
  3  2  1  0
  2  4  1  0
  3  5  1  0
  4  6  1  0
  4  7  1  6
  8  5  1  0
  5  9  2  0
  6 10  1  0
  8 11  1  6
  8 12  1  0
 10 13  1  0
 10 14  2  0
 15 11  1  0
 12 16  1  0
 13 17  1  0
 15 18  1  0
 15 19  2  0
 16 20  2  0
 16 21  1  0
 17 22  1  0
 18 23  1  6
 20 24  1  0
 25 21  2  0
 23 26  1  0
 23 27  1  0
 24 28  2  0
 28 25  1  0
 28 29  1  0
V    7 *
A    2
 C13
A    3
 N12
A    4
 C19
A    5
 C47
A    6
 C20
A    7
 X  
A    8
 C04
A    9
 O48
A   10
 C21
A   11
 C02
A   12
 C05
A   13
 O22
A   14
 O23
A   15
 C01
A   16
 C06
A   17
 C50
A   19
 O03
A   20
 C07
A   21
 C11
A   22
 C53
A   23
 C78
A   24
 C08
A   25
 C10
A   26
 C81
A   27
 C82
A   28
 C09
A   29
 F1 
M  END
>  <XChem_code>  (878) 
AG7§22

>  <Occupancy>  (878) 
[1.0, 1.0, 1.0, 1.0, 1.0, 1.0, 1.0, 1.0, 1.0, 1.0, 1.0, 1.0, 1.0, 1.0, 1.0, 1.0, 1.0, 1.0, 1.0, 1.0, 1.0, 1.0, 1.0, 1.0, 1.0, 1.0, 1.0, 1.0, 1.0, 1.0, 1.0, 1.0, 1.0, 1.0, 1.0, 1.0, 1.0, 1.0, 1.0, 1.0, 1.0, 1.0, 1.0, 1.0]

>  <TempFactor>  (878) 
[16.99, 17.37, 15.03, 17.27, 16.93, 17.74, 13.17, 18.44, 18.15, 13.03, 17.26, 13.64, 14.2, 14.77, 14.96, 13.35, 14.45, 12.48, 12.74, 12.98, 14.81, 13.66, 14.93, 16.5, 11.73, 10.42, 13.5, 14.67, 11.98, 13.75, 16.69, 15.21, 15.78, 16.7, 16.34, 17.46, 18.53, 17.19, 17.7, 18.6, 16.97, 15.33, 12.99, 18.88]

>  <accession>  (878) 
1CQQ_A

>  <description>  (878) 
Chain A, TYPE 2 RHINOVIRUS 3C PROTEASE [rhinovirus A2]

>  <evalue>  (878) 
1.03838e-57

>  <pdb_code>  (878) 
1CQQ

>  <chain>  (878) 
A

>  <ligands>  (878) 
[{'chain_id': 'A', 'author_residue_number': 501, 'author_insertion_code': '', 'chem_comp_id': 'AG7', 'alternate_conformers': 0, 'entity_id': 2, 'struct_asym_id': 'B', 'residue_number': 1, 'chem_comp_name': '4-{2-(4-FLUORO-BENZYL)-6-METHYL-5-[(5-METHYL-ISOXAZOLE-3-CARBONYL)-AMINO]-4-OXO-HEPTANOYLAMINO}-5-(2-OXO-PYRROLIDIN-3-YL)-PENTANOIC ACID ETHYL ESTER', 'weight': 600.678, 'carbohydrate_polymer': False, 'branch_name': ''}]

>  <ligand_codes>  (878) 
['AG7']

>  <cofactor_codes>  (878) 
[]

>  <has_cofactor>  (878) 
False

>  <covalent>  (878) 
True

>  <base_name>  (878) 
1CQQ

>  <lig_resn>  (878) 
AG7

>  <lig_resi>  (878) 
501

>  <lig_chain>  (878) 
A

>  <lig_segi>  (878) 
B

>  <lig_alt>  (878) 


>  <polymer_chain>  (878) 
A

>  <single_smiles>  (878) 
CCOC(=O)CC[C@H](C[C@@H]1CCNC1=O)NC(=O)[C@@H](CC(=O)[C@@H](NC(=O)c2cc(C)on2)C(C)C)Cc3ccc(F)cc3

$$$$
AG7P22S29
     RDKit          3D

 28 28  0  0  0  0  0  0  0  0999 V2000
   -9.2680   12.7230  -36.6650 C   0  0  0  0  0  0  0  0  0  0  0  0
   -9.0560   12.8810  -35.1610 C   0  0  2  0  0  0  0  0  0  0  0  0
   -8.5890   14.3230  -34.9280 C   0  0  0  0  0  0  0  0  0  0  0  0
   -8.0530   11.8650  -34.6340 C   0  0  0  0  0  0  0  0  0  0  0  0
   -8.5840   14.6720  -33.4310 C   0  0  0  0  0  0  0  0  0  0  0  0
   -8.4650   10.8310  -33.9180 N   0  0  0  0  0  0  0  0  0  0  0  0
   -6.8480   12.0120  -34.8210 O   0  0  0  0  0  0  0  0  0  0  0  0
   -8.0860   16.0830  -33.0110 C   0  0  0  0  0  0  0  0  0  0  0  0
   -8.9950   13.8610  -32.6090 O   0  0  0  0  0  0  0  0  0  0  0  0
   -7.5030    9.8280  -33.4300 C   0  0  1  0  0  0  0  0  0  0  0  0
   -6.5580   16.1960  -32.8000 C   0  0  0  0  0  0  0  0  0  0  0  0
   -7.3880    9.7920  -31.9090 C   0  0  0  0  0  0  0  0  0  0  0  0
   -7.8280    8.4080  -34.0100 C   0  0  2  0  0  0  0  0  0  0  0  0
   -6.1440   17.6450  -33.1050 C   0  0  0  0  0  0  0  0  0  0  0  0
   -5.6460   15.2180  -33.5500 C   0  0  0  0  0  0  0  0  0  0  0  0
   -6.7420   11.0650  -31.3380 C   0  0  1  0  0  0  0  0  0  0  0  0
   -7.5620    8.3420  -35.5410 C   0  0  0  0  0  0  0  0  0  0  0  0
   -9.5770    7.9760  -33.7580 R   0  0  0  0  0  0  0  0  0  0  0  0
   -6.5610   11.0160  -29.8480 C   0  0  0  0  0  0  0  0  0  0  0  0
   -5.3020   11.3840  -31.7700 C   0  0  0  0  0  0  0  0  0  0  0  0
   -6.8410    7.0270  -35.9420 C   0  0  0  0  0  0  0  0  0  0  0  0
   -5.5900   11.7760  -29.4540 N   0  0  0  0  0  0  0  0  0  0  0  0
   -7.1850   10.2960  -29.0840 O   0  0  0  0  0  0  0  0  0  0  0  0
   -4.7450   12.2020  -30.5760 C   0  0  0  0  0  0  0  0  0  0  0  0
   -6.6320    6.9000  -37.2340 O   0  0  0  0  0  0  0  0  0  0  0  0
   -6.4740    6.2040  -35.1210 O   0  0  0  0  0  0  0  0  0  0  0  0
   -5.8650    5.7760  -37.7420 C   0  0  0  0  0  0  0  0  0  0  0  0
   -5.3170    6.1500  -39.1310 C   0  0  0  0  0  0  0  0  0  0  0  0
  2  1  1  6
  2  3  1  0
  2  4  1  0
  5  3  1  0
  6  4  1  0
  4  7  2  0
  5  8  1  0
  5  9  2  0
  6 10  1  0
  8 11  1  6
 10 12  1  1
 10 13  1  0
 11 14  1  0
 11 15  1  0
 16 12  1  6
 13 17  1  0
 13 18  1  6
 16 19  1  0
 16 20  1  0
 17 21  1  0
 19 22  1  0
 19 23  2  0
 24 20  1  0
 21 25  1  0
 21 26  2  0
 22 24  1  0
 25 27  1  0
 27 28  1  0
V   18 *
A    2
 C04
A    3
 C02
A    4
 C47
A    5
 C01
A    6
 N12
A    7
 O48
A    9
 O03
A   10
 C13
A   11
 C78
A   12
 C14
A   13
 C19
A   14
 C81
A   15
 C82
A   16
 C15
A   17
 C20
A   18
 X  
A   19
 C16
A   20
 C84
A   21
 C21
A   22
 N17
A   23
 O18
A   24
 C83
A   25
 O22
A   26
 O23
A   27
 C50
A   28
 C53
M  END
>  <XChem_code>  (879) 
AG7§22

>  <Occupancy>  (879) 
[1.0, 1.0, 1.0, 1.0, 1.0, 1.0, 1.0, 1.0, 1.0, 1.0, 1.0, 1.0, 1.0, 1.0, 1.0, 1.0, 1.0, 1.0, 1.0, 1.0, 1.0, 1.0, 1.0, 1.0, 1.0, 1.0, 1.0, 1.0, 1.0, 1.0, 1.0, 1.0, 1.0, 1.0, 1.0, 1.0, 1.0, 1.0, 1.0, 1.0, 1.0, 1.0, 1.0, 1.0]

>  <TempFactor>  (879) 
[16.99, 17.37, 15.03, 17.27, 16.93, 17.74, 13.17, 18.44, 18.15, 13.03, 17.26, 13.64, 14.2, 14.77, 14.96, 13.35, 14.45, 12.48, 12.74, 12.98, 14.81, 13.66, 14.93, 16.5, 11.73, 10.42, 13.5, 14.67, 11.98, 13.75, 16.69, 15.21, 15.78, 16.7, 16.34, 17.46, 18.53, 17.19, 17.7, 18.6, 16.97, 15.33, 12.99, 18.88]

>  <accession>  (879) 
1CQQ_A

>  <description>  (879) 
Chain A, TYPE 2 RHINOVIRUS 3C PROTEASE [rhinovirus A2]

>  <evalue>  (879) 
1.03838e-57

>  <pdb_code>  (879) 
1CQQ

>  <chain>  (879) 
A

>  <ligands>  (879) 
[{'chain_id': 'A', 'author_residue_number': 501, 'author_insertion_code': '', 'chem_comp_id': 'AG7', 'alternate_conformers': 0, 'entity_id': 2, 'struct_asym_id': 'B', 'residue_number': 1, 'chem_comp_name': '4-{2-(4-FLUORO-BENZYL)-6-METHYL-5-[(5-METHYL-ISOXAZOLE-3-CARBONYL)-AMINO]-4-OXO-HEPTANOYLAMINO}-5-(2-OXO-PYRROLIDIN-3-YL)-PENTANOIC ACID ETHYL ESTER', 'weight': 600.678, 'carbohydrate_polymer': False, 'branch_name': ''}]

>  <ligand_codes>  (879) 
['AG7']

>  <cofactor_codes>  (879) 
[]

>  <has_cofactor>  (879) 
False

>  <covalent>  (879) 
True

>  <base_name>  (879) 
1CQQ

>  <lig_resn>  (879) 
AG7

>  <lig_resi>  (879) 
501

>  <lig_chain>  (879) 
A

>  <lig_segi>  (879) 
B

>  <lig_alt>  (879) 


>  <polymer_chain>  (879) 
A

>  <single_smiles>  (879) 
CCOC(=O)CC[C@H](C[C@@H]1CCNC1=O)NC(=O)[C@@H](CC(=O)[C@@H](NC(=O)c2cc(C)on2)C(C)C)Cc3ccc(F)cc3

$$$$
AG7P22S30
     RDKit          3D

 11 10  0  0  0  0  0  0  0  0999 V2000
   -9.2680   12.7230  -36.6650 C   0  0  0  0  0  0  0  0  0  0  0  0
   -9.0560   12.8810  -35.1610 C   0  0  2  0  0  0  0  0  0  0  0  0
   -8.5890   14.3230  -34.9280 C   0  0  0  0  0  0  0  0  0  0  0  0
   -8.0530   11.8650  -34.6340 C   0  0  0  0  0  0  0  0  0  0  0  0
   -8.5840   14.6720  -33.4310 C   0  0  0  0  0  0  0  0  0  0  0  0
   -6.8480   12.0120  -34.8210 O   0  0  0  0  0  0  0  0  0  0  0  0
   -8.0860   16.0830  -33.0110 C   0  0  0  0  0  0  0  0  0  0  0  0
   -8.9950   13.8610  -32.6090 O   0  0  0  0  0  0  0  0  0  0  0  0
   -6.5580   16.1960  -32.8000 C   0  0  0  0  0  0  0  0  0  0  0  0
   -6.1440   17.6450  -33.1050 C   0  0  0  0  0  0  0  0  0  0  0  0
   -5.6460   15.2180  -33.5500 C   0  0  0  0  0  0  0  0  0  0  0  0
  2  1  1  6
  2  3  1  0
  2  4  1  0
  5  3  1  0
  4  6  2  0
  5  7  1  0
  5  8  2  0
  7  9  1  6
  9 10  1  0
  9 11  1  0
A    2
 C04
A    3
 C02
A    5
 C01
A    6
 O48
A    8
 O03
A    9
 C78
A   10
 C81
A   11
 C82
M  END
>  <XChem_code>  (880) 
AG7§22

>  <Occupancy>  (880) 
[1.0, 1.0, 1.0, 1.0, 1.0, 1.0, 1.0, 1.0, 1.0, 1.0, 1.0, 1.0, 1.0, 1.0, 1.0, 1.0, 1.0, 1.0, 1.0, 1.0, 1.0, 1.0, 1.0, 1.0, 1.0, 1.0, 1.0, 1.0, 1.0, 1.0, 1.0, 1.0, 1.0, 1.0, 1.0, 1.0, 1.0, 1.0, 1.0, 1.0, 1.0, 1.0, 1.0, 1.0]

>  <TempFactor>  (880) 
[16.99, 17.37, 15.03, 17.27, 16.93, 17.74, 13.17, 18.44, 18.15, 13.03, 17.26, 13.64, 14.2, 14.77, 14.96, 13.35, 14.45, 12.48, 12.74, 12.98, 14.81, 13.66, 14.93, 16.5, 11.73, 10.42, 13.5, 14.67, 11.98, 13.75, 16.69, 15.21, 15.78, 16.7, 16.34, 17.46, 18.53, 17.19, 17.7, 18.6, 16.97, 15.33, 12.99, 18.88]

>  <accession>  (880) 
1CQQ_A

>  <description>  (880) 
Chain A, TYPE 2 RHINOVIRUS 3C PROTEASE [rhinovirus A2]

>  <evalue>  (880) 
1.03838e-57

>  <pdb_code>  (880) 
1CQQ

>  <chain>  (880) 
A

>  <ligands>  (880) 
[{'chain_id': 'A', 'author_residue_number': 501, 'author_insertion_code': '', 'chem_comp_id': 'AG7', 'alternate_conformers': 0, 'entity_id': 2, 'struct_asym_id': 'B', 'residue_number': 1, 'chem_comp_name': '4-{2-(4-FLUORO-BENZYL)-6-METHYL-5-[(5-METHYL-ISOXAZOLE-3-CARBONYL)-AMINO]-4-OXO-HEPTANOYLAMINO}-5-(2-OXO-PYRROLIDIN-3-YL)-PENTANOIC ACID ETHYL ESTER', 'weight': 600.678, 'carbohydrate_polymer': False, 'branch_name': ''}]

>  <ligand_codes>  (880) 
['AG7']

>  <cofactor_codes>  (880) 
[]

>  <has_cofactor>  (880) 
False

>  <covalent>  (880) 
True

>  <base_name>  (880) 
1CQQ

>  <lig_resn>  (880) 
AG7

>  <lig_resi>  (880) 
501

>  <lig_chain>  (880) 
A

>  <lig_segi>  (880) 
B

>  <lig_alt>  (880) 


>  <polymer_chain>  (880) 
A

>  <single_smiles>  (880) 
CCOC(=O)CC[C@H](C[C@@H]1CCNC1=O)NC(=O)[C@@H](CC(=O)[C@@H](NC(=O)c2cc(C)on2)C(C)C)Cc3ccc(F)cc3

$$$$
AG7P22S31
     RDKit          3D

 13 12  0  0  0  0  0  0  0  0999 V2000
   -9.2680   12.7230  -36.6650 C   0  0  0  0  0  0  0  0  0  0  0  0
   -9.0560   12.8810  -35.1610 C   0  0  1  0  0  0  0  0  0  0  0  0
   -8.0530   11.8650  -34.6340 C   0  0  0  0  0  0  0  0  0  0  0  0
   -8.5890   14.3230  -34.9280 C   0  0  0  0  0  0  0  0  0  0  0  0
   -8.4650   10.8310  -33.9180 N   0  0  0  0  0  0  0  0  0  0  0  0
   -6.8480   12.0120  -34.8210 O   0  0  0  0  0  0  0  0  0  0  0  0
   -8.5840   14.6720  -33.4310 C   0  0  0  0  0  0  0  0  0  0  0  0
   -8.0860   16.0830  -33.0110 C   0  0  1  0  0  0  0  0  0  0  0  0
   -8.9950   13.8610  -32.6090 O   0  0  0  0  0  0  0  0  0  0  0  0
   -8.6290   16.3950  -31.6970 N   0  0  0  0  0  0  0  0  0  0  0  0
   -6.5580   16.1960  -32.8000 C   0  0  0  0  0  0  0  0  0  0  0  0
   -6.1440   17.6450  -33.1050 C   0  0  0  0  0  0  0  0  0  0  0  0
   -5.6460   15.2180  -33.5500 C   0  0  0  0  0  0  0  0  0  0  0  0
  2  1  1  6
  2  3  1  0
  2  4  1  0
  5  3  1  0
  3  6  2  0
  7  4  1  0
  7  8  1  0
  7  9  2  0
  8 10  1  1
  8 11  1  0
 11 12  1  0
 11 13  1  0
A    2
 C04
A    3
 C47
A    4
 C02
A    6
 O48
A    7
 C01
A    8
 C57
A    9
 O03
A   11
 C78
A   12
 C81
A   13
 C82
M  END
>  <XChem_code>  (881) 
AG7§22

>  <Occupancy>  (881) 
[1.0, 1.0, 1.0, 1.0, 1.0, 1.0, 1.0, 1.0, 1.0, 1.0, 1.0, 1.0, 1.0, 1.0, 1.0, 1.0, 1.0, 1.0, 1.0, 1.0, 1.0, 1.0, 1.0, 1.0, 1.0, 1.0, 1.0, 1.0, 1.0, 1.0, 1.0, 1.0, 1.0, 1.0, 1.0, 1.0, 1.0, 1.0, 1.0, 1.0, 1.0, 1.0, 1.0, 1.0]

>  <TempFactor>  (881) 
[16.99, 17.37, 15.03, 17.27, 16.93, 17.74, 13.17, 18.44, 18.15, 13.03, 17.26, 13.64, 14.2, 14.77, 14.96, 13.35, 14.45, 12.48, 12.74, 12.98, 14.81, 13.66, 14.93, 16.5, 11.73, 10.42, 13.5, 14.67, 11.98, 13.75, 16.69, 15.21, 15.78, 16.7, 16.34, 17.46, 18.53, 17.19, 17.7, 18.6, 16.97, 15.33, 12.99, 18.88]

>  <accession>  (881) 
1CQQ_A

>  <description>  (881) 
Chain A, TYPE 2 RHINOVIRUS 3C PROTEASE [rhinovirus A2]

>  <evalue>  (881) 
1.03838e-57

>  <pdb_code>  (881) 
1CQQ

>  <chain>  (881) 
A

>  <ligands>  (881) 
[{'chain_id': 'A', 'author_residue_number': 501, 'author_insertion_code': '', 'chem_comp_id': 'AG7', 'alternate_conformers': 0, 'entity_id': 2, 'struct_asym_id': 'B', 'residue_number': 1, 'chem_comp_name': '4-{2-(4-FLUORO-BENZYL)-6-METHYL-5-[(5-METHYL-ISOXAZOLE-3-CARBONYL)-AMINO]-4-OXO-HEPTANOYLAMINO}-5-(2-OXO-PYRROLIDIN-3-YL)-PENTANOIC ACID ETHYL ESTER', 'weight': 600.678, 'carbohydrate_polymer': False, 'branch_name': ''}]

>  <ligand_codes>  (881) 
['AG7']

>  <cofactor_codes>  (881) 
[]

>  <has_cofactor>  (881) 
False

>  <covalent>  (881) 
True

>  <base_name>  (881) 
1CQQ

>  <lig_resn>  (881) 
AG7

>  <lig_resi>  (881) 
501

>  <lig_chain>  (881) 
A

>  <lig_segi>  (881) 
B

>  <lig_alt>  (881) 


>  <polymer_chain>  (881) 
A

>  <single_smiles>  (881) 
CCOC(=O)CC[C@H](C[C@@H]1CCNC1=O)NC(=O)[C@@H](CC(=O)[C@@H](NC(=O)c2cc(C)on2)C(C)C)Cc3ccc(F)cc3

$$$$
AG7P22S32
     RDKit          3D

 12 11  0  0  0  0  0  0  0  0999 V2000
   -9.2680   12.7230  -36.6650 C   0  0  0  0  0  0  0  0  0  0  0  0
   -9.0560   12.8810  -35.1610 C   0  0  2  0  0  0  0  0  0  0  0  0
   -8.5890   14.3230  -34.9280 C   0  0  0  0  0  0  0  0  0  0  0  0
   -8.0530   11.8650  -34.6340 C   0  0  0  0  0  0  0  0  0  0  0  0
   -8.5840   14.6720  -33.4310 C   0  0  0  0  0  0  0  0  0  0  0  0
   -8.4650   10.8310  -33.9180 N   0  0  0  0  0  0  0  0  0  0  0  0
   -6.8480   12.0120  -34.8210 O   0  0  0  0  0  0  0  0  0  0  0  0
   -8.0860   16.0830  -33.0110 C   0  0  0  0  0  0  0  0  0  0  0  0
   -8.9950   13.8610  -32.6090 O   0  0  0  0  0  0  0  0  0  0  0  0
   -6.5580   16.1960  -32.8000 C   0  0  0  0  0  0  0  0  0  0  0  0
   -6.1440   17.6450  -33.1050 C   0  0  0  0  0  0  0  0  0  0  0  0
   -5.6460   15.2180  -33.5500 C   0  0  0  0  0  0  0  0  0  0  0  0
  2  1  1  6
  2  3  1  0
  2  4  1  0
  5  3  1  0
  6  4  1  0
  4  7  2  0
  5  8  1  0
  5  9  2  0
  8 10  1  6
 10 11  1  0
 10 12  1  0
A    2
 C04
A    3
 C02
A    4
 C47
A    5
 C01
A    7
 O48
A    9
 O03
A   10
 C78
A   11
 C81
A   12
 C82
M  END
>  <XChem_code>  (882) 
AG7§22

>  <Occupancy>  (882) 
[1.0, 1.0, 1.0, 1.0, 1.0, 1.0, 1.0, 1.0, 1.0, 1.0, 1.0, 1.0, 1.0, 1.0, 1.0, 1.0, 1.0, 1.0, 1.0, 1.0, 1.0, 1.0, 1.0, 1.0, 1.0, 1.0, 1.0, 1.0, 1.0, 1.0, 1.0, 1.0, 1.0, 1.0, 1.0, 1.0, 1.0, 1.0, 1.0, 1.0, 1.0, 1.0, 1.0, 1.0]

>  <TempFactor>  (882) 
[16.99, 17.37, 15.03, 17.27, 16.93, 17.74, 13.17, 18.44, 18.15, 13.03, 17.26, 13.64, 14.2, 14.77, 14.96, 13.35, 14.45, 12.48, 12.74, 12.98, 14.81, 13.66, 14.93, 16.5, 11.73, 10.42, 13.5, 14.67, 11.98, 13.75, 16.69, 15.21, 15.78, 16.7, 16.34, 17.46, 18.53, 17.19, 17.7, 18.6, 16.97, 15.33, 12.99, 18.88]

>  <accession>  (882) 
1CQQ_A

>  <description>  (882) 
Chain A, TYPE 2 RHINOVIRUS 3C PROTEASE [rhinovirus A2]

>  <evalue>  (882) 
1.03838e-57

>  <pdb_code>  (882) 
1CQQ

>  <chain>  (882) 
A

>  <ligands>  (882) 
[{'chain_id': 'A', 'author_residue_number': 501, 'author_insertion_code': '', 'chem_comp_id': 'AG7', 'alternate_conformers': 0, 'entity_id': 2, 'struct_asym_id': 'B', 'residue_number': 1, 'chem_comp_name': '4-{2-(4-FLUORO-BENZYL)-6-METHYL-5-[(5-METHYL-ISOXAZOLE-3-CARBONYL)-AMINO]-4-OXO-HEPTANOYLAMINO}-5-(2-OXO-PYRROLIDIN-3-YL)-PENTANOIC ACID ETHYL ESTER', 'weight': 600.678, 'carbohydrate_polymer': False, 'branch_name': ''}]

>  <ligand_codes>  (882) 
['AG7']

>  <cofactor_codes>  (882) 
[]

>  <has_cofactor>  (882) 
False

>  <covalent>  (882) 
True

>  <base_name>  (882) 
1CQQ

>  <lig_resn>  (882) 
AG7

>  <lig_resi>  (882) 
501

>  <lig_chain>  (882) 
A

>  <lig_segi>  (882) 
B

>  <lig_alt>  (882) 


>  <polymer_chain>  (882) 
A

>  <single_smiles>  (882) 
CCOC(=O)CC[C@H](C[C@@H]1CCNC1=O)NC(=O)[C@@H](CC(=O)[C@@H](NC(=O)c2cc(C)on2)C(C)C)Cc3ccc(F)cc3

$$$$
AG7P22S33
     RDKit          3D

 32 32  0  0  0  0  0  0  0  0999 V2000
   -7.3880    9.7920  -31.9090 C   0  0  0  0  0  0  0  0  0  0  0  0
   -7.5030    9.8280  -33.4300 C   0  0  2  0  0  0  0  0  0  0  0  0
   -8.4650   10.8310  -33.9180 N   0  0  0  0  0  0  0  0  0  0  0  0
   -7.8280    8.4080  -34.0100 C   0  0  2  0  0  0  0  0  0  0  0  0
   -8.0530   11.8650  -34.6340 C   0  0  0  0  0  0  0  0  0  0  0  0
   -7.5620    8.3420  -35.5410 C   0  0  0  0  0  0  0  0  0  0  0  0
   -9.5770    7.9760  -33.7580 R   0  0  0  0  0  0  0  0  0  0  0  0
   -9.0560   12.8810  -35.1610 C   0  0  1  0  0  0  0  0  0  0  0  0
   -6.8480   12.0120  -34.8210 O   0  0  0  0  0  0  0  0  0  0  0  0
   -6.8410    7.0270  -35.9420 C   0  0  0  0  0  0  0  0  0  0  0  0
   -8.5890   14.3230  -34.9280 C   0  0  0  0  0  0  0  0  0  0  0  0
   -9.2680   12.7230  -36.6650 C   0  0  0  0  0  0  0  0  0  0  0  0
   -6.6320    6.9000  -37.2340 O   0  0  0  0  0  0  0  0  0  0  0  0
   -6.4740    6.2040  -35.1210 O   0  0  0  0  0  0  0  0  0  0  0  0
   -8.5840   14.6720  -33.4310 C   0  0  0  0  0  0  0  0  0  0  0  0
  -10.5280   13.3650  -37.0000 C   0  0  0  0  0  0  0  0  0  0  0  0
   -5.8650    5.7760  -37.7420 C   0  0  0  0  0  0  0  0  0  0  0  0
   -8.0860   16.0830  -33.0110 C   0  0  1  0  0  0  0  0  0  0  0  0
   -8.9950   13.8610  -32.6090 O   0  0  0  0  0  0  0  0  0  0  0  0
  -11.7240   12.8990  -36.4350 C   0  0  0  0  0  0  0  0  0  0  0  0
  -10.5610   14.4560  -37.8460 C   0  0  0  0  0  0  0  0  0  0  0  0
   -5.3170    6.1500  -39.1310 C   0  0  0  0  0  0  0  0  0  0  0  0
   -8.6290   16.3950  -31.6970 N   0  0  0  0  0  0  0  0  0  0  0  0
   -6.5580   16.1960  -32.8000 C   0  0  0  0  0  0  0  0  0  0  0  0
  -12.9320   13.5180  -36.7470 C   0  0  0  0  0  0  0  0  0  0  0  0
  -11.7810   15.0780  -38.1630 C   0  0  0  0  0  0  0  0  0  0  0  0
   -9.5640   17.2990  -31.5320 C   0  0  0  0  0  0  0  0  0  0  0  0
   -6.1440   17.6450  -33.1050 C   0  0  0  0  0  0  0  0  0  0  0  0
   -5.6460   15.2180  -33.5500 C   0  0  0  0  0  0  0  0  0  0  0  0
  -12.9510   14.6100  -37.6100 C   0  0  0  0  0  0  0  0  0  0  0  0
   -9.9690   17.8730  -32.5270 O   0  0  0  0  0  0  0  0  0  0  0  0
  -14.1050   15.1750  -37.9340 F   0  0  0  0  0  0  0  0  0  0  0  0
  2  1  1  1
  3  2  1  0
  2  4  1  0
  3  5  1  0
  4  6  1  0
  4  7  1  6
  8  5  1  0
  5  9  2  0
  6 10  1  0
  8 11  1  6
  8 12  1  0
 10 13  1  0
 10 14  2  0
 15 11  1  0
 12 16  1  0
 13 17  1  0
 15 18  1  0
 15 19  2  0
 16 20  2  0
 16 21  1  0
 17 22  1  0
 18 23  1  1
 18 24  1  0
 20 25  1  0
 26 21  2  0
 23 27  1  0
 24 28  1  0
 24 29  1  0
 25 30  2  0
 30 26  1  0
 27 31  2  0
 30 32  1  0
V    7 *
A    2
 C13
A    3
 N12
A    4
 C19
A    5
 C47
A    6
 C20
A    7
 X  
A    8
 C04
A    9
 O48
A   10
 C21
A   11
 C02
A   12
 C05
A   13
 O22
A   14
 O23
A   15
 C01
A   16
 C06
A   17
 C50
A   18
 C57
A   19
 O03
A   20
 C07
A   21
 C11
A   22
 C53
A   23
 N58
A   24
 C78
A   25
 C08
A   26
 C10
A   28
 C81
A   29
 C82
A   30
 C09
A   31
 O60
A   32
 F1 
M  END
>  <XChem_code>  (883) 
AG7§22

>  <Occupancy>  (883) 
[1.0, 1.0, 1.0, 1.0, 1.0, 1.0, 1.0, 1.0, 1.0, 1.0, 1.0, 1.0, 1.0, 1.0, 1.0, 1.0, 1.0, 1.0, 1.0, 1.0, 1.0, 1.0, 1.0, 1.0, 1.0, 1.0, 1.0, 1.0, 1.0, 1.0, 1.0, 1.0, 1.0, 1.0, 1.0, 1.0, 1.0, 1.0, 1.0, 1.0, 1.0, 1.0, 1.0, 1.0]

>  <TempFactor>  (883) 
[16.99, 17.37, 15.03, 17.27, 16.93, 17.74, 13.17, 18.44, 18.15, 13.03, 17.26, 13.64, 14.2, 14.77, 14.96, 13.35, 14.45, 12.48, 12.74, 12.98, 14.81, 13.66, 14.93, 16.5, 11.73, 10.42, 13.5, 14.67, 11.98, 13.75, 16.69, 15.21, 15.78, 16.7, 16.34, 17.46, 18.53, 17.19, 17.7, 18.6, 16.97, 15.33, 12.99, 18.88]

>  <accession>  (883) 
1CQQ_A

>  <description>  (883) 
Chain A, TYPE 2 RHINOVIRUS 3C PROTEASE [rhinovirus A2]

>  <evalue>  (883) 
1.03838e-57

>  <pdb_code>  (883) 
1CQQ

>  <chain>  (883) 
A

>  <ligands>  (883) 
[{'chain_id': 'A', 'author_residue_number': 501, 'author_insertion_code': '', 'chem_comp_id': 'AG7', 'alternate_conformers': 0, 'entity_id': 2, 'struct_asym_id': 'B', 'residue_number': 1, 'chem_comp_name': '4-{2-(4-FLUORO-BENZYL)-6-METHYL-5-[(5-METHYL-ISOXAZOLE-3-CARBONYL)-AMINO]-4-OXO-HEPTANOYLAMINO}-5-(2-OXO-PYRROLIDIN-3-YL)-PENTANOIC ACID ETHYL ESTER', 'weight': 600.678, 'carbohydrate_polymer': False, 'branch_name': ''}]

>  <ligand_codes>  (883) 
['AG7']

>  <cofactor_codes>  (883) 
[]

>  <has_cofactor>  (883) 
False

>  <covalent>  (883) 
True

>  <base_name>  (883) 
1CQQ

>  <lig_resn>  (883) 
AG7

>  <lig_resi>  (883) 
501

>  <lig_chain>  (883) 
A

>  <lig_segi>  (883) 
B

>  <lig_alt>  (883) 


>  <polymer_chain>  (883) 
A

>  <single_smiles>  (883) 
CCOC(=O)CC[C@H](C[C@@H]1CCNC1=O)NC(=O)[C@@H](CC(=O)[C@@H](NC(=O)c2cc(C)on2)C(C)C)Cc3ccc(F)cc3

$$$$
AG7P22S34
     RDKit          3D

 31 31  0  0  0  0  0  0  0  0999 V2000
   -9.2680   12.7230  -36.6650 C   0  0  0  0  0  0  0  0  0  0  0  0
   -9.0560   12.8810  -35.1610 C   0  0  2  0  0  0  0  0  0  0  0  0
   -8.5890   14.3230  -34.9280 C   0  0  0  0  0  0  0  0  0  0  0  0
   -8.0530   11.8650  -34.6340 C   0  0  0  0  0  0  0  0  0  0  0  0
   -8.5840   14.6720  -33.4310 C   0  0  0  0  0  0  0  0  0  0  0  0
   -8.4650   10.8310  -33.9180 N   0  0  0  0  0  0  0  0  0  0  0  0
   -6.8480   12.0120  -34.8210 O   0  0  0  0  0  0  0  0  0  0  0  0
   -8.0860   16.0830  -33.0110 C   0  0  1  0  0  0  0  0  0  0  0  0
   -8.9950   13.8610  -32.6090 O   0  0  0  0  0  0  0  0  0  0  0  0
   -7.5030    9.8280  -33.4300 C   0  0  1  0  0  0  0  0  0  0  0  0
   -8.6290   16.3950  -31.6970 N   0  0  0  0  0  0  0  0  0  0  0  0
   -6.5580   16.1960  -32.8000 C   0  0  0  0  0  0  0  0  0  0  0  0
   -7.3880    9.7920  -31.9090 C   0  0  0  0  0  0  0  0  0  0  0  0
   -7.8280    8.4080  -34.0100 C   0  0  2  0  0  0  0  0  0  0  0  0
   -9.5640   17.2990  -31.5320 C   0  0  0  0  0  0  0  0  0  0  0  0
   -6.1440   17.6450  -33.1050 C   0  0  0  0  0  0  0  0  0  0  0  0
   -5.6460   15.2180  -33.5500 C   0  0  0  0  0  0  0  0  0  0  0  0
   -6.7420   11.0650  -31.3380 C   0  0  1  0  0  0  0  0  0  0  0  0
   -7.5620    8.3420  -35.5410 C   0  0  0  0  0  0  0  0  0  0  0  0
   -9.5770    7.9760  -33.7580 R   0  0  0  0  0  0  0  0  0  0  0  0
   -9.9690   17.8730  -32.5270 O   0  0  0  0  0  0  0  0  0  0  0  0
   -6.5610   11.0160  -29.8480 C   0  0  0  0  0  0  0  0  0  0  0  0
   -5.3020   11.3840  -31.7700 C   0  0  0  0  0  0  0  0  0  0  0  0
   -6.8410    7.0270  -35.9420 C   0  0  0  0  0  0  0  0  0  0  0  0
   -5.5900   11.7760  -29.4540 N   0  0  0  0  0  0  0  0  0  0  0  0
   -7.1850   10.2960  -29.0840 O   0  0  0  0  0  0  0  0  0  0  0  0
   -4.7450   12.2020  -30.5760 C   0  0  0  0  0  0  0  0  0  0  0  0
   -6.6320    6.9000  -37.2340 O   0  0  0  0  0  0  0  0  0  0  0  0
   -6.4740    6.2040  -35.1210 O   0  0  0  0  0  0  0  0  0  0  0  0
   -5.8650    5.7760  -37.7420 C   0  0  0  0  0  0  0  0  0  0  0  0
   -5.3170    6.1500  -39.1310 C   0  0  0  0  0  0  0  0  0  0  0  0
  2  1  1  6
  2  3  1  0
  2  4  1  0
  5  3  1  0
  6  4  1  0
  4  7  2  0
  5  8  1  0
  5  9  2  0
  6 10  1  0
  8 11  1  1
  8 12  1  0
 10 13  1  1
 10 14  1  0
 11 15  1  0
 12 16  1  0
 12 17  1  0
 18 13  1  6
 14 19  1  0
 14 20  1  6
 15 21  2  0
 18 22  1  0
 18 23  1  0
 19 24  1  0
 22 25  1  0
 22 26  2  0
 27 23  1  0
 24 28  1  0
 24 29  2  0
 25 27  1  0
 28 30  1  0
 30 31  1  0
V   20 *
A    2
 C04
A    3
 C02
A    4
 C47
A    5
 C01
A    6
 N12
A    7
 O48
A    8
 C57
A    9
 O03
A   10
 C13
A   11
 N58
A   12
 C78
A   13
 C14
A   14
 C19
A   16
 C81
A   17
 C82
A   18
 C15
A   19
 C20
A   20
 X  
A   21
 O60
A   22
 C16
A   23
 C84
A   24
 C21
A   25
 N17
A   26
 O18
A   27
 C83
A   28
 O22
A   29
 O23
A   30
 C50
A   31
 C53
M  END
>  <XChem_code>  (884) 
AG7§22

>  <Occupancy>  (884) 
[1.0, 1.0, 1.0, 1.0, 1.0, 1.0, 1.0, 1.0, 1.0, 1.0, 1.0, 1.0, 1.0, 1.0, 1.0, 1.0, 1.0, 1.0, 1.0, 1.0, 1.0, 1.0, 1.0, 1.0, 1.0, 1.0, 1.0, 1.0, 1.0, 1.0, 1.0, 1.0, 1.0, 1.0, 1.0, 1.0, 1.0, 1.0, 1.0, 1.0, 1.0, 1.0, 1.0, 1.0]

>  <TempFactor>  (884) 
[16.99, 17.37, 15.03, 17.27, 16.93, 17.74, 13.17, 18.44, 18.15, 13.03, 17.26, 13.64, 14.2, 14.77, 14.96, 13.35, 14.45, 12.48, 12.74, 12.98, 14.81, 13.66, 14.93, 16.5, 11.73, 10.42, 13.5, 14.67, 11.98, 13.75, 16.69, 15.21, 15.78, 16.7, 16.34, 17.46, 18.53, 17.19, 17.7, 18.6, 16.97, 15.33, 12.99, 18.88]

>  <accession>  (884) 
1CQQ_A

>  <description>  (884) 
Chain A, TYPE 2 RHINOVIRUS 3C PROTEASE [rhinovirus A2]

>  <evalue>  (884) 
1.03838e-57

>  <pdb_code>  (884) 
1CQQ

>  <chain>  (884) 
A

>  <ligands>  (884) 
[{'chain_id': 'A', 'author_residue_number': 501, 'author_insertion_code': '', 'chem_comp_id': 'AG7', 'alternate_conformers': 0, 'entity_id': 2, 'struct_asym_id': 'B', 'residue_number': 1, 'chem_comp_name': '4-{2-(4-FLUORO-BENZYL)-6-METHYL-5-[(5-METHYL-ISOXAZOLE-3-CARBONYL)-AMINO]-4-OXO-HEPTANOYLAMINO}-5-(2-OXO-PYRROLIDIN-3-YL)-PENTANOIC ACID ETHYL ESTER', 'weight': 600.678, 'carbohydrate_polymer': False, 'branch_name': ''}]

>  <ligand_codes>  (884) 
['AG7']

>  <cofactor_codes>  (884) 
[]

>  <has_cofactor>  (884) 
False

>  <covalent>  (884) 
True

>  <base_name>  (884) 
1CQQ

>  <lig_resn>  (884) 
AG7

>  <lig_resi>  (884) 
501

>  <lig_chain>  (884) 
A

>  <lig_segi>  (884) 
B

>  <lig_alt>  (884) 


>  <polymer_chain>  (884) 
A

>  <single_smiles>  (884) 
CCOC(=O)CC[C@H](C[C@@H]1CCNC1=O)NC(=O)[C@@H](CC(=O)[C@@H](NC(=O)c2cc(C)on2)C(C)C)Cc3ccc(F)cc3

$$$$
AG7P22S35
     RDKit          3D

 14 13  0  0  0  0  0  0  0  0999 V2000
   -9.2680   12.7230  -36.6650 C   0  0  0  0  0  0  0  0  0  0  0  0
   -9.0560   12.8810  -35.1610 C   0  0  2  0  0  0  0  0  0  0  0  0
   -8.5890   14.3230  -34.9280 C   0  0  0  0  0  0  0  0  0  0  0  0
   -8.0530   11.8650  -34.6340 C   0  0  0  0  0  0  0  0  0  0  0  0
   -8.5840   14.6720  -33.4310 C   0  0  0  0  0  0  0  0  0  0  0  0
   -6.8480   12.0120  -34.8210 O   0  0  0  0  0  0  0  0  0  0  0  0
   -8.0860   16.0830  -33.0110 C   0  0  1  0  0  0  0  0  0  0  0  0
   -8.9950   13.8610  -32.6090 O   0  0  0  0  0  0  0  0  0  0  0  0
   -8.6290   16.3950  -31.6970 N   0  0  0  0  0  0  0  0  0  0  0  0
   -6.5580   16.1960  -32.8000 C   0  0  0  0  0  0  0  0  0  0  0  0
   -9.5640   17.2990  -31.5320 C   0  0  0  0  0  0  0  0  0  0  0  0
   -6.1440   17.6450  -33.1050 C   0  0  0  0  0  0  0  0  0  0  0  0
   -5.6460   15.2180  -33.5500 C   0  0  0  0  0  0  0  0  0  0  0  0
   -9.9690   17.8730  -32.5270 O   0  0  0  0  0  0  0  0  0  0  0  0
  2  1  1  6
  2  3  1  0
  2  4  1  0
  5  3  1  0
  4  6  2  0
  5  7  1  0
  5  8  2  0
  7  9  1  1
  7 10  1  0
  9 11  1  0
 10 12  1  0
 10 13  1  0
 11 14  2  0
A    2
 C04
A    3
 C02
A    5
 C01
A    6
 O48
A    7
 C57
A    8
 O03
A    9
 N58
A   10
 C78
A   12
 C81
A   13
 C82
A   14
 O60
M  END
>  <XChem_code>  (885) 
AG7§22

>  <Occupancy>  (885) 
[1.0, 1.0, 1.0, 1.0, 1.0, 1.0, 1.0, 1.0, 1.0, 1.0, 1.0, 1.0, 1.0, 1.0, 1.0, 1.0, 1.0, 1.0, 1.0, 1.0, 1.0, 1.0, 1.0, 1.0, 1.0, 1.0, 1.0, 1.0, 1.0, 1.0, 1.0, 1.0, 1.0, 1.0, 1.0, 1.0, 1.0, 1.0, 1.0, 1.0, 1.0, 1.0, 1.0, 1.0]

>  <TempFactor>  (885) 
[16.99, 17.37, 15.03, 17.27, 16.93, 17.74, 13.17, 18.44, 18.15, 13.03, 17.26, 13.64, 14.2, 14.77, 14.96, 13.35, 14.45, 12.48, 12.74, 12.98, 14.81, 13.66, 14.93, 16.5, 11.73, 10.42, 13.5, 14.67, 11.98, 13.75, 16.69, 15.21, 15.78, 16.7, 16.34, 17.46, 18.53, 17.19, 17.7, 18.6, 16.97, 15.33, 12.99, 18.88]

>  <accession>  (885) 
1CQQ_A

>  <description>  (885) 
Chain A, TYPE 2 RHINOVIRUS 3C PROTEASE [rhinovirus A2]

>  <evalue>  (885) 
1.03838e-57

>  <pdb_code>  (885) 
1CQQ

>  <chain>  (885) 
A

>  <ligands>  (885) 
[{'chain_id': 'A', 'author_residue_number': 501, 'author_insertion_code': '', 'chem_comp_id': 'AG7', 'alternate_conformers': 0, 'entity_id': 2, 'struct_asym_id': 'B', 'residue_number': 1, 'chem_comp_name': '4-{2-(4-FLUORO-BENZYL)-6-METHYL-5-[(5-METHYL-ISOXAZOLE-3-CARBONYL)-AMINO]-4-OXO-HEPTANOYLAMINO}-5-(2-OXO-PYRROLIDIN-3-YL)-PENTANOIC ACID ETHYL ESTER', 'weight': 600.678, 'carbohydrate_polymer': False, 'branch_name': ''}]

>  <ligand_codes>  (885) 
['AG7']

>  <cofactor_codes>  (885) 
[]

>  <has_cofactor>  (885) 
False

>  <covalent>  (885) 
True

>  <base_name>  (885) 
1CQQ

>  <lig_resn>  (885) 
AG7

>  <lig_resi>  (885) 
501

>  <lig_chain>  (885) 
A

>  <lig_segi>  (885) 
B

>  <lig_alt>  (885) 


>  <polymer_chain>  (885) 
A

>  <single_smiles>  (885) 
CCOC(=O)CC[C@H](C[C@@H]1CCNC1=O)NC(=O)[C@@H](CC(=O)[C@@H](NC(=O)c2cc(C)on2)C(C)C)Cc3ccc(F)cc3

$$$$
AG7P22S36
     RDKit          3D

 15 14  0  0  0  0  0  0  0  0999 V2000
   -9.2680   12.7230  -36.6650 C   0  0  0  0  0  0  0  0  0  0  0  0
   -9.0560   12.8810  -35.1610 C   0  0  2  0  0  0  0  0  0  0  0  0
   -8.5890   14.3230  -34.9280 C   0  0  0  0  0  0  0  0  0  0  0  0
   -8.0530   11.8650  -34.6340 C   0  0  0  0  0  0  0  0  0  0  0  0
   -8.5840   14.6720  -33.4310 C   0  0  0  0  0  0  0  0  0  0  0  0
   -8.4650   10.8310  -33.9180 N   0  0  0  0  0  0  0  0  0  0  0  0
   -6.8480   12.0120  -34.8210 O   0  0  0  0  0  0  0  0  0  0  0  0
   -8.0860   16.0830  -33.0110 C   0  0  1  0  0  0  0  0  0  0  0  0
   -8.9950   13.8610  -32.6090 O   0  0  0  0  0  0  0  0  0  0  0  0
   -8.6290   16.3950  -31.6970 N   0  0  0  0  0  0  0  0  0  0  0  0
   -6.5580   16.1960  -32.8000 C   0  0  0  0  0  0  0  0  0  0  0  0
   -9.5640   17.2990  -31.5320 C   0  0  0  0  0  0  0  0  0  0  0  0
   -6.1440   17.6450  -33.1050 C   0  0  0  0  0  0  0  0  0  0  0  0
   -5.6460   15.2180  -33.5500 C   0  0  0  0  0  0  0  0  0  0  0  0
   -9.9690   17.8730  -32.5270 O   0  0  0  0  0  0  0  0  0  0  0  0
  2  1  1  6
  2  3  1  0
  2  4  1  0
  5  3  1  0
  6  4  1  0
  4  7  2  0
  5  8  1  0
  5  9  2  0
  8 10  1  1
  8 11  1  0
 10 12  1  0
 11 13  1  0
 11 14  1  0
 12 15  2  0
A    2
 C04
A    3
 C02
A    4
 C47
A    5
 C01
A    7
 O48
A    8
 C57
A    9
 O03
A   10
 N58
A   11
 C78
A   13
 C81
A   14
 C82
A   15
 O60
M  END
>  <XChem_code>  (886) 
AG7§22

>  <Occupancy>  (886) 
[1.0, 1.0, 1.0, 1.0, 1.0, 1.0, 1.0, 1.0, 1.0, 1.0, 1.0, 1.0, 1.0, 1.0, 1.0, 1.0, 1.0, 1.0, 1.0, 1.0, 1.0, 1.0, 1.0, 1.0, 1.0, 1.0, 1.0, 1.0, 1.0, 1.0, 1.0, 1.0, 1.0, 1.0, 1.0, 1.0, 1.0, 1.0, 1.0, 1.0, 1.0, 1.0, 1.0, 1.0]

>  <TempFactor>  (886) 
[16.99, 17.37, 15.03, 17.27, 16.93, 17.74, 13.17, 18.44, 18.15, 13.03, 17.26, 13.64, 14.2, 14.77, 14.96, 13.35, 14.45, 12.48, 12.74, 12.98, 14.81, 13.66, 14.93, 16.5, 11.73, 10.42, 13.5, 14.67, 11.98, 13.75, 16.69, 15.21, 15.78, 16.7, 16.34, 17.46, 18.53, 17.19, 17.7, 18.6, 16.97, 15.33, 12.99, 18.88]

>  <accession>  (886) 
1CQQ_A

>  <description>  (886) 
Chain A, TYPE 2 RHINOVIRUS 3C PROTEASE [rhinovirus A2]

>  <evalue>  (886) 
1.03838e-57

>  <pdb_code>  (886) 
1CQQ

>  <chain>  (886) 
A

>  <ligands>  (886) 
[{'chain_id': 'A', 'author_residue_number': 501, 'author_insertion_code': '', 'chem_comp_id': 'AG7', 'alternate_conformers': 0, 'entity_id': 2, 'struct_asym_id': 'B', 'residue_number': 1, 'chem_comp_name': '4-{2-(4-FLUORO-BENZYL)-6-METHYL-5-[(5-METHYL-ISOXAZOLE-3-CARBONYL)-AMINO]-4-OXO-HEPTANOYLAMINO}-5-(2-OXO-PYRROLIDIN-3-YL)-PENTANOIC ACID ETHYL ESTER', 'weight': 600.678, 'carbohydrate_polymer': False, 'branch_name': ''}]

>  <ligand_codes>  (886) 
['AG7']

>  <cofactor_codes>  (886) 
[]

>  <has_cofactor>  (886) 
False

>  <covalent>  (886) 
True

>  <base_name>  (886) 
1CQQ

>  <lig_resn>  (886) 
AG7

>  <lig_resi>  (886) 
501

>  <lig_chain>  (886) 
A

>  <lig_segi>  (886) 
B

>  <lig_alt>  (886) 


>  <polymer_chain>  (886) 
A

>  <single_smiles>  (886) 
CCOC(=O)CC[C@H](C[C@@H]1CCNC1=O)NC(=O)[C@@H](CC(=O)[C@@H](NC(=O)c2cc(C)on2)C(C)C)Cc3ccc(F)cc3

$$$$
AG7P22S37
     RDKit          3D

 31 31  0  0  0  0  0  0  0  0999 V2000
   -9.2680   12.7230  -36.6650 C   0  0  0  0  0  0  0  0  0  0  0  0
   -9.0560   12.8810  -35.1610 C   0  0  1  0  0  0  0  0  0  0  0  0
   -8.0530   11.8650  -34.6340 C   0  0  0  0  0  0  0  0  0  0  0  0
   -8.5890   14.3230  -34.9280 C   0  0  0  0  0  0  0  0  0  0  0  0
   -8.4650   10.8310  -33.9180 N   0  0  0  0  0  0  0  0  0  0  0  0
   -6.8480   12.0120  -34.8210 O   0  0  0  0  0  0  0  0  0  0  0  0
   -8.5840   14.6720  -33.4310 C   0  0  0  0  0  0  0  0  0  0  0  0
   -7.5030    9.8280  -33.4300 C   0  0  1  0  0  0  0  0  0  0  0  0
   -8.9950   13.8610  -32.6090 O   0  0  0  0  0  0  0  0  0  0  0  0
   -8.0860   16.0830  -33.0110 C   0  0  1  0  0  0  0  0  0  0  0  0
   -7.3880    9.7920  -31.9090 C   0  0  0  0  0  0  0  0  0  0  0  0
   -7.8280    8.4080  -34.0100 C   0  0  2  0  0  0  0  0  0  0  0  0
   -8.6290   16.3950  -31.6970 N   0  0  0  0  0  0  0  0  0  0  0  0
   -6.5580   16.1960  -32.8000 C   0  0  0  0  0  0  0  0  0  0  0  0
   -7.5620    8.3420  -35.5410 C   0  0  0  0  0  0  0  0  0  0  0  0
   -9.5770    7.9760  -33.7580 R   0  0  0  0  0  0  0  0  0  0  0  0
   -9.5640   17.2990  -31.5320 C   0  0  0  0  0  0  0  0  0  0  0  0
   -6.1440   17.6450  -33.1050 C   0  0  0  0  0  0  0  0  0  0  0  0
   -5.6460   15.2180  -33.5500 C   0  0  0  0  0  0  0  0  0  0  0  0
   -6.8410    7.0270  -35.9420 C   0  0  0  0  0  0  0  0  0  0  0  0
  -10.0630   17.4900  -30.2480 C   0  0  0  0  0  0  0  0  0  0  0  0
   -9.9690   17.8730  -32.5270 O   0  0  0  0  0  0  0  0  0  0  0  0
   -6.6320    6.9000  -37.2340 O   0  0  0  0  0  0  0  0  0  0  0  0
   -6.4740    6.2040  -35.1210 O   0  0  0  0  0  0  0  0  0  0  0  0
  -11.1890   18.2730  -30.0350 C   0  0  0  0  0  0  0  0  0  0  0  0
   -9.6280   16.9280  -29.1140 N   0  0  0  0  0  0  0  0  0  0  0  0
   -5.8650    5.7760  -37.7420 C   0  0  0  0  0  0  0  0  0  0  0  0
  -11.4230   18.1130  -28.6670 C   0  0  0  0  0  0  0  0  0  0  0  0
  -10.5110   17.3020  -28.1260 O   0  0  0  0  0  0  0  0  0  0  0  0
   -5.3170    6.1500  -39.1310 C   0  0  0  0  0  0  0  0  0  0  0  0
  -12.5130   18.7590  -27.8190 C   0  0  0  0  0  0  0  0  0  0  0  0
  2  1  1  6
  2  3  1  0
  2  4  1  0
  5  3  1  0
  3  6  2  0
  7  4  1  0
  5  8  1  0
  7  9  2  0
  7 10  1  0
  8 11  1  1
  8 12  1  0
 10 13  1  1
 10 14  1  0
 12 15  1  0
 12 16  1  6
 13 17  1  0
 14 18  1  0
 14 19  1  0
 15 20  1  0
 21 17  1  0
 17 22  2  0
 20 23  1  0
 20 24  2  0
 21 25  1  0
 21 26  2  0
 23 27  1  0
 25 28  2  0
 29 26  1  0
 27 30  1  0
 28 31  1  0
 28 29  1  0
V   16 *
A    2
 C04
A    3
 C47
A    4
 C02
A    5
 N12
A    6
 O48
A    7
 C01
A    8
 C13
A    9
 O03
A   10
 C57
A   12
 C19
A   13
 N58
A   14
 C78
A   15
 C20
A   16
 X  
A   17
 C59
A   18
 C81
A   19
 C82
A   20
 C21
A   21
 C1 
A   22
 O60
A   23
 O22
A   24
 O23
A   25
 C2 
A   26
 N5 
A   27
 C50
A   28
 C3 
A   29
 O4 
A   30
 C53
A   31
 C4 
M  END
>  <XChem_code>  (887) 
AG7§22

>  <Occupancy>  (887) 
[1.0, 1.0, 1.0, 1.0, 1.0, 1.0, 1.0, 1.0, 1.0, 1.0, 1.0, 1.0, 1.0, 1.0, 1.0, 1.0, 1.0, 1.0, 1.0, 1.0, 1.0, 1.0, 1.0, 1.0, 1.0, 1.0, 1.0, 1.0, 1.0, 1.0, 1.0, 1.0, 1.0, 1.0, 1.0, 1.0, 1.0, 1.0, 1.0, 1.0, 1.0, 1.0, 1.0, 1.0]

>  <TempFactor>  (887) 
[16.99, 17.37, 15.03, 17.27, 16.93, 17.74, 13.17, 18.44, 18.15, 13.03, 17.26, 13.64, 14.2, 14.77, 14.96, 13.35, 14.45, 12.48, 12.74, 12.98, 14.81, 13.66, 14.93, 16.5, 11.73, 10.42, 13.5, 14.67, 11.98, 13.75, 16.69, 15.21, 15.78, 16.7, 16.34, 17.46, 18.53, 17.19, 17.7, 18.6, 16.97, 15.33, 12.99, 18.88]

>  <accession>  (887) 
1CQQ_A

>  <description>  (887) 
Chain A, TYPE 2 RHINOVIRUS 3C PROTEASE [rhinovirus A2]

>  <evalue>  (887) 
1.03838e-57

>  <pdb_code>  (887) 
1CQQ

>  <chain>  (887) 
A

>  <ligands>  (887) 
[{'chain_id': 'A', 'author_residue_number': 501, 'author_insertion_code': '', 'chem_comp_id': 'AG7', 'alternate_conformers': 0, 'entity_id': 2, 'struct_asym_id': 'B', 'residue_number': 1, 'chem_comp_name': '4-{2-(4-FLUORO-BENZYL)-6-METHYL-5-[(5-METHYL-ISOXAZOLE-3-CARBONYL)-AMINO]-4-OXO-HEPTANOYLAMINO}-5-(2-OXO-PYRROLIDIN-3-YL)-PENTANOIC ACID ETHYL ESTER', 'weight': 600.678, 'carbohydrate_polymer': False, 'branch_name': ''}]

>  <ligand_codes>  (887) 
['AG7']

>  <cofactor_codes>  (887) 
[]

>  <has_cofactor>  (887) 
False

>  <covalent>  (887) 
True

>  <base_name>  (887) 
1CQQ

>  <lig_resn>  (887) 
AG7

>  <lig_resi>  (887) 
501

>  <lig_chain>  (887) 
A

>  <lig_segi>  (887) 
B

>  <lig_alt>  (887) 


>  <polymer_chain>  (887) 
A

>  <single_smiles>  (887) 
CCOC(=O)CC[C@H](C[C@@H]1CCNC1=O)NC(=O)[C@@H](CC(=O)[C@@H](NC(=O)c2cc(C)on2)C(C)C)Cc3ccc(F)cc3

$$$$
AG7P22S38
     RDKit          3D

 23 22  0  0  0  0  0  0  0  0999 V2000
   -9.2680   12.7230  -36.6650 C   0  0  0  0  0  0  0  0  0  0  0  0
   -9.0560   12.8810  -35.1610 C   0  0  1  0  0  0  0  0  0  0  0  0
   -8.0530   11.8650  -34.6340 C   0  0  0  0  0  0  0  0  0  0  0  0
   -8.5890   14.3230  -34.9280 C   0  0  0  0  0  0  0  0  0  0  0  0
   -8.4650   10.8310  -33.9180 N   0  0  0  0  0  0  0  0  0  0  0  0
   -6.8480   12.0120  -34.8210 O   0  0  0  0  0  0  0  0  0  0  0  0
   -8.5840   14.6720  -33.4310 C   0  0  0  0  0  0  0  0  0  0  0  0
   -7.5030    9.8280  -33.4300 C   0  0  1  0  0  0  0  0  0  0  0  0
   -8.0860   16.0830  -33.0110 C   0  0  1  0  0  0  0  0  0  0  0  0
   -8.9950   13.8610  -32.6090 O   0  0  0  0  0  0  0  0  0  0  0  0
   -7.3880    9.7920  -31.9090 C   0  0  0  0  0  0  0  0  0  0  0  0
   -7.8280    8.4080  -34.0100 C   0  0  2  0  0  0  0  0  0  0  0  0
   -8.6290   16.3950  -31.6970 N   0  0  0  0  0  0  0  0  0  0  0  0
   -6.5580   16.1960  -32.8000 C   0  0  0  0  0  0  0  0  0  0  0  0
   -7.5620    8.3420  -35.5410 C   0  0  0  0  0  0  0  0  0  0  0  0
   -9.5770    7.9760  -33.7580 R   0  0  0  0  0  0  0  0  0  0  0  0
   -6.1440   17.6450  -33.1050 C   0  0  0  0  0  0  0  0  0  0  0  0
   -5.6460   15.2180  -33.5500 C   0  0  0  0  0  0  0  0  0  0  0  0
   -6.8410    7.0270  -35.9420 C   0  0  0  0  0  0  0  0  0  0  0  0
   -6.6320    6.9000  -37.2340 O   0  0  0  0  0  0  0  0  0  0  0  0
   -6.4740    6.2040  -35.1210 O   0  0  0  0  0  0  0  0  0  0  0  0
   -5.8650    5.7760  -37.7420 C   0  0  0  0  0  0  0  0  0  0  0  0
   -5.3170    6.1500  -39.1310 C   0  0  0  0  0  0  0  0  0  0  0  0
  2  1  1  6
  2  3  1  0
  2  4  1  0
  5  3  1  0
  3  6  2  0
  7  4  1  0
  5  8  1  0
  7  9  1  0
  7 10  2  0
  8 11  1  1
  8 12  1  0
  9 13  1  1
  9 14  1  0
 12 15  1  0
 12 16  1  6
 14 17  1  0
 14 18  1  0
 15 19  1  0
 19 20  1  0
 19 21  2  0
 20 22  1  0
 22 23  1  0
V   16 *
A    2
 C04
A    3
 C47
A    4
 C02
A    5
 N12
A    6
 O48
A    7
 C01
A    8
 C13
A    9
 C57
A   10
 O03
A   12
 C19
A   14
 C78
A   15
 C20
A   16
 X  
A   17
 C81
A   18
 C82
A   19
 C21
A   20
 O22
A   21
 O23
A   22
 C50
A   23
 C53
M  END
>  <XChem_code>  (888) 
AG7§22

>  <Occupancy>  (888) 
[1.0, 1.0, 1.0, 1.0, 1.0, 1.0, 1.0, 1.0, 1.0, 1.0, 1.0, 1.0, 1.0, 1.0, 1.0, 1.0, 1.0, 1.0, 1.0, 1.0, 1.0, 1.0, 1.0, 1.0, 1.0, 1.0, 1.0, 1.0, 1.0, 1.0, 1.0, 1.0, 1.0, 1.0, 1.0, 1.0, 1.0, 1.0, 1.0, 1.0, 1.0, 1.0, 1.0, 1.0]

>  <TempFactor>  (888) 
[16.99, 17.37, 15.03, 17.27, 16.93, 17.74, 13.17, 18.44, 18.15, 13.03, 17.26, 13.64, 14.2, 14.77, 14.96, 13.35, 14.45, 12.48, 12.74, 12.98, 14.81, 13.66, 14.93, 16.5, 11.73, 10.42, 13.5, 14.67, 11.98, 13.75, 16.69, 15.21, 15.78, 16.7, 16.34, 17.46, 18.53, 17.19, 17.7, 18.6, 16.97, 15.33, 12.99, 18.88]

>  <accession>  (888) 
1CQQ_A

>  <description>  (888) 
Chain A, TYPE 2 RHINOVIRUS 3C PROTEASE [rhinovirus A2]

>  <evalue>  (888) 
1.03838e-57

>  <pdb_code>  (888) 
1CQQ

>  <chain>  (888) 
A

>  <ligands>  (888) 
[{'chain_id': 'A', 'author_residue_number': 501, 'author_insertion_code': '', 'chem_comp_id': 'AG7', 'alternate_conformers': 0, 'entity_id': 2, 'struct_asym_id': 'B', 'residue_number': 1, 'chem_comp_name': '4-{2-(4-FLUORO-BENZYL)-6-METHYL-5-[(5-METHYL-ISOXAZOLE-3-CARBONYL)-AMINO]-4-OXO-HEPTANOYLAMINO}-5-(2-OXO-PYRROLIDIN-3-YL)-PENTANOIC ACID ETHYL ESTER', 'weight': 600.678, 'carbohydrate_polymer': False, 'branch_name': ''}]

>  <ligand_codes>  (888) 
['AG7']

>  <cofactor_codes>  (888) 
[]

>  <has_cofactor>  (888) 
False

>  <covalent>  (888) 
True

>  <base_name>  (888) 
1CQQ

>  <lig_resn>  (888) 
AG7

>  <lig_resi>  (888) 
501

>  <lig_chain>  (888) 
A

>  <lig_segi>  (888) 
B

>  <lig_alt>  (888) 


>  <polymer_chain>  (888) 
A

>  <single_smiles>  (888) 
CCOC(=O)CC[C@H](C[C@@H]1CCNC1=O)NC(=O)[C@@H](CC(=O)[C@@H](NC(=O)c2cc(C)on2)C(C)C)Cc3ccc(F)cc3

$$$$
AG7P22S39
     RDKit          3D

 22 21  0  0  0  0  0  0  0  0999 V2000
   -9.2680   12.7230  -36.6650 C   0  0  0  0  0  0  0  0  0  0  0  0
   -9.0560   12.8810  -35.1610 C   0  0  1  0  0  0  0  0  0  0  0  0
   -8.0530   11.8650  -34.6340 C   0  0  0  0  0  0  0  0  0  0  0  0
   -8.5890   14.3230  -34.9280 C   0  0  0  0  0  0  0  0  0  0  0  0
   -8.4650   10.8310  -33.9180 N   0  0  0  0  0  0  0  0  0  0  0  0
   -6.8480   12.0120  -34.8210 O   0  0  0  0  0  0  0  0  0  0  0  0
   -8.5840   14.6720  -33.4310 C   0  0  0  0  0  0  0  0  0  0  0  0
   -7.5030    9.8280  -33.4300 C   0  0  1  0  0  0  0  0  0  0  0  0
   -8.0860   16.0830  -33.0110 C   0  0  0  0  0  0  0  0  0  0  0  0
   -8.9950   13.8610  -32.6090 O   0  0  0  0  0  0  0  0  0  0  0  0
   -7.3880    9.7920  -31.9090 C   0  0  0  0  0  0  0  0  0  0  0  0
   -7.8280    8.4080  -34.0100 C   0  0  2  0  0  0  0  0  0  0  0  0
   -6.5580   16.1960  -32.8000 C   0  0  0  0  0  0  0  0  0  0  0  0
   -7.5620    8.3420  -35.5410 C   0  0  0  0  0  0  0  0  0  0  0  0
   -9.5770    7.9760  -33.7580 R   0  0  0  0  0  0  0  0  0  0  0  0
   -6.1440   17.6450  -33.1050 C   0  0  0  0  0  0  0  0  0  0  0  0
   -5.6460   15.2180  -33.5500 C   0  0  0  0  0  0  0  0  0  0  0  0
   -6.8410    7.0270  -35.9420 C   0  0  0  0  0  0  0  0  0  0  0  0
   -6.6320    6.9000  -37.2340 O   0  0  0  0  0  0  0  0  0  0  0  0
   -6.4740    6.2040  -35.1210 O   0  0  0  0  0  0  0  0  0  0  0  0
   -5.8650    5.7760  -37.7420 C   0  0  0  0  0  0  0  0  0  0  0  0
   -5.3170    6.1500  -39.1310 C   0  0  0  0  0  0  0  0  0  0  0  0
  2  1  1  6
  2  3  1  0
  2  4  1  0
  5  3  1  0
  3  6  2  0
  7  4  1  0
  5  8  1  0
  7  9  1  0
  7 10  2  0
  8 11  1  1
  8 12  1  0
  9 13  1  6
 12 14  1  0
 12 15  1  6
 13 16  1  0
 13 17  1  0
 14 18  1  0
 18 19  1  0
 18 20  2  0
 19 21  1  0
 21 22  1  0
V   15 *
A    2
 C04
A    3
 C47
A    4
 C02
A    5
 N12
A    6
 O48
A    7
 C01
A    8
 C13
A   10
 O03
A   12
 C19
A   13
 C78
A   14
 C20
A   15
 X  
A   16
 C81
A   17
 C82
A   18
 C21
A   19
 O22
A   20
 O23
A   21
 C50
A   22
 C53
M  END
>  <XChem_code>  (889) 
AG7§22

>  <Occupancy>  (889) 
[1.0, 1.0, 1.0, 1.0, 1.0, 1.0, 1.0, 1.0, 1.0, 1.0, 1.0, 1.0, 1.0, 1.0, 1.0, 1.0, 1.0, 1.0, 1.0, 1.0, 1.0, 1.0, 1.0, 1.0, 1.0, 1.0, 1.0, 1.0, 1.0, 1.0, 1.0, 1.0, 1.0, 1.0, 1.0, 1.0, 1.0, 1.0, 1.0, 1.0, 1.0, 1.0, 1.0, 1.0]

>  <TempFactor>  (889) 
[16.99, 17.37, 15.03, 17.27, 16.93, 17.74, 13.17, 18.44, 18.15, 13.03, 17.26, 13.64, 14.2, 14.77, 14.96, 13.35, 14.45, 12.48, 12.74, 12.98, 14.81, 13.66, 14.93, 16.5, 11.73, 10.42, 13.5, 14.67, 11.98, 13.75, 16.69, 15.21, 15.78, 16.7, 16.34, 17.46, 18.53, 17.19, 17.7, 18.6, 16.97, 15.33, 12.99, 18.88]

>  <accession>  (889) 
1CQQ_A

>  <description>  (889) 
Chain A, TYPE 2 RHINOVIRUS 3C PROTEASE [rhinovirus A2]

>  <evalue>  (889) 
1.03838e-57

>  <pdb_code>  (889) 
1CQQ

>  <chain>  (889) 
A

>  <ligands>  (889) 
[{'chain_id': 'A', 'author_residue_number': 501, 'author_insertion_code': '', 'chem_comp_id': 'AG7', 'alternate_conformers': 0, 'entity_id': 2, 'struct_asym_id': 'B', 'residue_number': 1, 'chem_comp_name': '4-{2-(4-FLUORO-BENZYL)-6-METHYL-5-[(5-METHYL-ISOXAZOLE-3-CARBONYL)-AMINO]-4-OXO-HEPTANOYLAMINO}-5-(2-OXO-PYRROLIDIN-3-YL)-PENTANOIC ACID ETHYL ESTER', 'weight': 600.678, 'carbohydrate_polymer': False, 'branch_name': ''}]

>  <ligand_codes>  (889) 
['AG7']

>  <cofactor_codes>  (889) 
[]

>  <has_cofactor>  (889) 
False

>  <covalent>  (889) 
True

>  <base_name>  (889) 
1CQQ

>  <lig_resn>  (889) 
AG7

>  <lig_resi>  (889) 
501

>  <lig_chain>  (889) 
A

>  <lig_segi>  (889) 
B

>  <lig_alt>  (889) 


>  <polymer_chain>  (889) 
A

>  <single_smiles>  (889) 
CCOC(=O)CC[C@H](C[C@@H]1CCNC1=O)NC(=O)[C@@H](CC(=O)[C@@H](NC(=O)c2cc(C)on2)C(C)C)Cc3ccc(F)cc3

$$$$
AG7P22S40
     RDKit          3D

 25 24  0  0  0  0  0  0  0  0999 V2000
   -9.2680   12.7230  -36.6650 C   0  0  0  0  0  0  0  0  0  0  0  0
   -9.0560   12.8810  -35.1610 C   0  0  1  0  0  0  0  0  0  0  0  0
   -8.0530   11.8650  -34.6340 C   0  0  0  0  0  0  0  0  0  0  0  0
   -8.5890   14.3230  -34.9280 C   0  0  0  0  0  0  0  0  0  0  0  0
   -8.4650   10.8310  -33.9180 N   0  0  0  0  0  0  0  0  0  0  0  0
   -6.8480   12.0120  -34.8210 O   0  0  0  0  0  0  0  0  0  0  0  0
   -8.5840   14.6720  -33.4310 C   0  0  0  0  0  0  0  0  0  0  0  0
   -7.5030    9.8280  -33.4300 C   0  0  1  0  0  0  0  0  0  0  0  0
   -8.0860   16.0830  -33.0110 C   0  0  1  0  0  0  0  0  0  0  0  0
   -8.9950   13.8610  -32.6090 O   0  0  0  0  0  0  0  0  0  0  0  0
   -7.3880    9.7920  -31.9090 C   0  0  0  0  0  0  0  0  0  0  0  0
   -7.8280    8.4080  -34.0100 C   0  0  2  0  0  0  0  0  0  0  0  0
   -8.6290   16.3950  -31.6970 N   0  0  0  0  0  0  0  0  0  0  0  0
   -6.5580   16.1960  -32.8000 C   0  0  0  0  0  0  0  0  0  0  0  0
   -7.5620    8.3420  -35.5410 C   0  0  0  0  0  0  0  0  0  0  0  0
   -9.5770    7.9760  -33.7580 R   0  0  0  0  0  0  0  0  0  0  0  0
   -9.5640   17.2990  -31.5320 C   0  0  0  0  0  0  0  0  0  0  0  0
   -6.1440   17.6450  -33.1050 C   0  0  0  0  0  0  0  0  0  0  0  0
   -5.6460   15.2180  -33.5500 C   0  0  0  0  0  0  0  0  0  0  0  0
   -6.8410    7.0270  -35.9420 C   0  0  0  0  0  0  0  0  0  0  0  0
   -9.9690   17.8730  -32.5270 O   0  0  0  0  0  0  0  0  0  0  0  0
   -6.6320    6.9000  -37.2340 O   0  0  0  0  0  0  0  0  0  0  0  0
   -6.4740    6.2040  -35.1210 O   0  0  0  0  0  0  0  0  0  0  0  0
   -5.8650    5.7760  -37.7420 C   0  0  0  0  0  0  0  0  0  0  0  0
   -5.3170    6.1500  -39.1310 C   0  0  0  0  0  0  0  0  0  0  0  0
  2  1  1  6
  2  3  1  0
  2  4  1  0
  5  3  1  0
  3  6  2  0
  7  4  1  0
  5  8  1  0
  7  9  1  0
  7 10  2  0
  8 11  1  1
  8 12  1  0
  9 13  1  1
  9 14  1  0
 12 15  1  0
 12 16  1  6
 13 17  1  0
 14 18  1  0
 14 19  1  0
 15 20  1  0
 17 21  2  0
 20 22  1  0
 20 23  2  0
 22 24  1  0
 24 25  1  0
V   16 *
A    2
 C04
A    3
 C47
A    4
 C02
A    5
 N12
A    6
 O48
A    7
 C01
A    8
 C13
A    9
 C57
A   10
 O03
A   12
 C19
A   13
 N58
A   14
 C78
A   15
 C20
A   16
 X  
A   18
 C81
A   19
 C82
A   20
 C21
A   21
 O60
A   22
 O22
A   23
 O23
A   24
 C50
A   25
 C53
M  END
>  <XChem_code>  (890) 
AG7§22

>  <Occupancy>  (890) 
[1.0, 1.0, 1.0, 1.0, 1.0, 1.0, 1.0, 1.0, 1.0, 1.0, 1.0, 1.0, 1.0, 1.0, 1.0, 1.0, 1.0, 1.0, 1.0, 1.0, 1.0, 1.0, 1.0, 1.0, 1.0, 1.0, 1.0, 1.0, 1.0, 1.0, 1.0, 1.0, 1.0, 1.0, 1.0, 1.0, 1.0, 1.0, 1.0, 1.0, 1.0, 1.0, 1.0, 1.0]

>  <TempFactor>  (890) 
[16.99, 17.37, 15.03, 17.27, 16.93, 17.74, 13.17, 18.44, 18.15, 13.03, 17.26, 13.64, 14.2, 14.77, 14.96, 13.35, 14.45, 12.48, 12.74, 12.98, 14.81, 13.66, 14.93, 16.5, 11.73, 10.42, 13.5, 14.67, 11.98, 13.75, 16.69, 15.21, 15.78, 16.7, 16.34, 17.46, 18.53, 17.19, 17.7, 18.6, 16.97, 15.33, 12.99, 18.88]

>  <accession>  (890) 
1CQQ_A

>  <description>  (890) 
Chain A, TYPE 2 RHINOVIRUS 3C PROTEASE [rhinovirus A2]

>  <evalue>  (890) 
1.03838e-57

>  <pdb_code>  (890) 
1CQQ

>  <chain>  (890) 
A

>  <ligands>  (890) 
[{'chain_id': 'A', 'author_residue_number': 501, 'author_insertion_code': '', 'chem_comp_id': 'AG7', 'alternate_conformers': 0, 'entity_id': 2, 'struct_asym_id': 'B', 'residue_number': 1, 'chem_comp_name': '4-{2-(4-FLUORO-BENZYL)-6-METHYL-5-[(5-METHYL-ISOXAZOLE-3-CARBONYL)-AMINO]-4-OXO-HEPTANOYLAMINO}-5-(2-OXO-PYRROLIDIN-3-YL)-PENTANOIC ACID ETHYL ESTER', 'weight': 600.678, 'carbohydrate_polymer': False, 'branch_name': ''}]

>  <ligand_codes>  (890) 
['AG7']

>  <cofactor_codes>  (890) 
[]

>  <has_cofactor>  (890) 
False

>  <covalent>  (890) 
True

>  <base_name>  (890) 
1CQQ

>  <lig_resn>  (890) 
AG7

>  <lig_resi>  (890) 
501

>  <lig_chain>  (890) 
A

>  <lig_segi>  (890) 
B

>  <lig_alt>  (890) 


>  <polymer_chain>  (890) 
A

>  <single_smiles>  (890) 
CCOC(=O)CC[C@H](C[C@@H]1CCNC1=O)NC(=O)[C@@H](CC(=O)[C@@H](NC(=O)c2cc(C)on2)C(C)C)Cc3ccc(F)cc3

$$$$
polymer
     RDKit          3D

 58 58  0  0  0  0  0  0  0  0999 V2000
  -15.3620   22.1790  -27.4390 N   0  0  0  0  0  0  0  0  0  0  0  0
  -12.5790   21.3540  -29.4810 N   0  0  0  0  0  0  0  0  0  0  0  0
  -11.9720   18.6270  -30.4030 N   0  0  0  0  0  0  0  0  0  0  0  0
   -9.7350   16.2520  -31.6700 N   0  0  0  0  0  0  0  0  0  0  0  0
   -9.6030   13.9290  -34.4410 N   0  0  0  0  0  0  0  0  0  0  0  0
   -8.5240   10.6110  -33.8090 N   0  0  0  0  0  0  0  0  0  0  0  0
  -14.0680   21.5380  -27.6320 C   0  0  2  0  0  0  0  0  0  0  0  0
  -12.2360   20.9510  -30.8060 C   0  0  2  0  0  0  0  0  0  0  0  0
  -11.2320   17.4190  -30.2140 C   0  0  2  0  0  0  0  0  0  0  0  0
   -9.2690   15.7910  -32.9510 C   0  0  2  0  0  0  0  0  0  0  0  0
   -9.7190   12.5240  -34.7630 C   0  0  2  0  0  0  0  0  0  0  0  0
   -7.3190    9.9670  -33.3460 C   0  0  1  0  0  0  0  0  0  0  0  0
  -15.4630   23.2690  -26.7060 C   0  0  1  0  0  0  0  0  0  0  0  0
  -13.8200   21.2840  -29.0930 C   0  0  0  0  0  0  0  0  0  0  0  0
  -11.3450   19.7670  -30.6210 C   0  0  1  0  0  0  0  0  0  0  0  0
  -10.8520   16.9140  -31.5780 C   0  0  0  0  0  0  0  0  0  0  0  0
   -9.4760   14.3090  -33.1760 C   0  0  0  0  0  0  0  0  0  0  0  0
   -8.4470   11.8470  -34.2880 C   0  0  0  0  0  0  0  0  0  0  0  0
  -14.4890   23.9180  -26.3430 O   0  0  0  0  0  0  0  0  0  0  0  0
  -14.7460   21.0290  -29.8620 O   0  0  0  0  0  0  0  0  0  0  0  0
  -10.1190   19.8830  -30.5960 O   0  0  0  0  0  0  0  0  0  0  0  0
  -11.5590   17.1540  -32.5510 O   0  0  0  0  0  0  0  0  0  0  0  0
   -9.5290   13.5200  -32.2290 O   0  0  0  0  0  0  0  0  0  0  0  0
   -7.3750   12.4480  -34.3620 O   0  0  0  0  0  0  0  0  0  0  0  0
  -13.9740   20.1330  -27.0070 C   0  0  0  0  0  0  0  0  0  0  0  0
  -11.5450   22.0000  -31.6560 C   0  0  0  0  0  0  0  0  0  0  0  0
  -12.0320   16.4040  -29.4200 C   0  0  0  0  0  0  0  0  0  0  0  0
   -7.7900   16.0900  -33.0900 C   0  0  0  0  0  0  0  0  0  0  0  0
   -9.8560   12.2790  -36.2650 C   0  0  0  0  0  0  0  0  0  0  0  0
   -7.3310    9.8470  -31.8170 C   0  0  0  0  0  0  0  0  0  0  0  0
  -14.0270   19.9780  -25.4860 C   0  0  0  0  0  0  0  0  0  0  0  0
  -11.2540   21.4640  -33.0520 C   0  0  0  0  0  0  0  0  0  0  0  0
   -7.1690   15.4980  -34.3400 C   0  0  0  0  0  0  0  0  0  0  0  0
  -11.0400   12.9250  -36.9220 C   0  0  0  0  0  0  0  0  0  0  0  0
   -7.1160   11.1980  -31.1200 C   0  0  0  0  0  0  0  0  0  0  0  0
  -10.4830   22.4400  -33.9180 C   0  0  0  0  0  0  0  0  0  0  0  0
   -7.1690   11.1210  -29.6010 C   0  0  0  0  0  0  0  0  0  0  0  0
  -13.2440   21.0650  -24.7650 C   0  0  0  0  0  0  0  0  0  0  0  0
   -7.6760   16.2470  -35.5700 C   0  0  0  0  0  0  0  0  0  0  0  0
  -12.3100   12.8260  -36.3750 C   0  0  0  0  0  0  0  0  0  0  0  0
  -15.4650   19.9240  -25.0200 C   0  0  0  0  0  0  0  0  0  0  0  0
   -5.6520   15.5520  -34.2470 C   0  0  0  0  0  0  0  0  0  0  0  0
  -10.8770   13.6090  -38.1140 C   0  0  0  0  0  0  0  0  0  0  0  0
  -13.3920   13.4040  -37.0080 C   0  0  0  0  0  0  0  0  0  0  0  0
  -11.9550   14.1810  -38.7530 C   0  0  0  0  0  0  0  0  0  0  0  0
   -6.5930   12.1190  -28.9300 N   0  0  0  0  0  0  0  0  0  0  0  0
  -11.1230   23.2880  -34.5660 O   0  0  0  0  0  0  0  0  0  0  0  0
   -7.7330   10.1910  -29.0350 O   0  0  0  0  0  0  0  0  0  0  0  0
   -9.2440   22.3600  -33.9420 O   0  0  0  0  0  0  0  0  0  0  0  0
  -13.2150   14.0820  -38.2020 C   0  0  0  0  0  0  0  0  0  0  0  0
  -16.8540   23.8480  -26.6190 C   0  0  0  0  0  0  0  0  0  0  0  0
   -3.6950    6.8460  -37.4040 C   0  0  0  0  0  0  0  0  0  0  0  0
   -2.6800    7.1950  -38.4770 C   0  0  0  0  0  0  0  0  0  0  0  0
   -7.0030    8.6240  -34.0690 C   0  0  0  0  0  0  0  0  0  0  0  0
   -5.9970    8.9560  -35.1740 C   0  0  0  0  0  0  0  0  0  0  0  0
   -5.3280    7.7460  -35.7790 C   0  0  0  0  0  0  0  0  0  0  0  0
   -5.6140    6.6180  -35.3820 O   0  0  0  0  0  0  0  0  0  0  0  0
   -4.4850    7.9540  -36.6840 O   0  0  0  0  0  0  0  0  0  0  0  0
  1  7  1  0
  1 13  1  0
  2  8  1  0
  2 14  1  0
  3  9  1  0
  3 15  1  0
  4 10  1  0
  4 16  1  0
  5 11  1  0
  5 17  1  0
  6 12  1  0
  6 18  1  0
  7 14  1  0
  7 25  1  1
  8 15  1  0
  8 26  1  1
  9 16  1  0
  9 27  1  6
 10 17  1  0
 10 28  1  1
 11 18  1  0
 11 29  1  6
 12 30  1  1
 12 54  1  0
 13 19  1  0
 13 51  1  6
 14 20  1  0
 15 21  1  1
 16 22  1  0
 17 23  1  0
 18 24  1  0
 25 31  1  0
 26 32  1  0
 28 33  1  0
 29 34  1  0
 30 35  1  0
 31 38  1  0
 31 41  1  0
 32 36  1  0
 33 39  1  0
 33 42  1  0
 34 40  1  0
 34 43  1  0
 35 37  1  0
 36 47  1  0
 36 49  1  0
 37 46  1  0
 37 48  1  0
 40 44  1  0
 43 45  1  0
 44 50  1  0
 45 50  1  0
 52 53  1  0
 52 58  1  0
 54 55  1  0
 55 56  1  0
 56 57  1  0
 56 58  1  0
M  CHG  1  49  -1
A    1
 N1 
A    2
 N1 
A    3
 N1 
A    4
 N1 
A    5
 N1 
A    6
 N1 
A    7
 C3 
A    8
 C3 
A    9
 C3 
A   10
 C3 
A   11
 C3 
A   12
 C3 
A   13
 C1 
A   14
 C1 
A   15
 C1 
A   16
 C1 
A   17
 C1 
A   18
 C1 
A   19
 O1 
A   20
 O1 
A   21
 O1 
A   22
 O1 
A   23
 O1 
A   24
 O1 
A   25
 C5 
A   26
 C5 
A   27
 C5 
A   28
 C5 
A   29
 C5 
A   30
 C5 
A   31
 C6 
A   32
 C6 
A   33
 C6 
A   34
 C6 
A   35
 C6 
A   36
 C13
A   37
 C13
A   38
 C7 
A   39
 C7 
A   40
 C7 
A   41
 C8 
A   42
 C8 
A   43
 C8 
A   44
 C29
A   45
 C30
A   46
 N7 
A   47
 O4 
A   48
 O4 
A   49
 O5 
A   50
 C31
A   51
 C2 
A   52
 C36
A   53
 C37
A   54
 C38
A   55
 C39
A   56
 C40
A   57
 O10
A   58
 O11
M  END
>  <XChem_code>  (891) 
polymer

>  <Occupancy>  (891) 
[1.0, 1.0, 1.0, 1.0, 1.0, 1.0, 1.0, 1.0, 1.0, 1.0, 1.0, 1.0, 1.0, 1.0, 1.0, 1.0, 1.0, 1.0, 1.0, 1.0, 1.0, 1.0, 1.0, 1.0, 1.0, 1.0, 1.0, 1.0, 1.0, 1.0, 1.0, 1.0, 1.0, 1.0, 1.0, 1.0, 1.0, 1.0, 1.0, 1.0, 1.0, 1.0, 1.0, 1.0, 1.0, 1.0, 1.0, 1.0, 1.0, 1.0, 1.0, 1.0, 1.0, 1.0, 1.0, 1.0, 1.0, 1.0]

>  <TempFactor>  (891) 
[0.0, 0.0, 0.0, 0.0, 0.0, 0.0, 0.0, 0.0, 0.0, 0.0, 0.0, 0.0, 0.0, 0.0, 0.0, 0.0, 0.0, 0.0, 0.0, 0.0, 0.0, 0.0, 0.0, 0.0, 0.0, 0.0, 0.0, 0.0, 0.0, 0.0, 0.0, 0.0, 0.0, 0.0, 0.0, 0.0, 0.0, 0.0, 0.0, 0.0, 0.0, 0.0, 0.0, 0.0, 0.0, 0.0, 0.0, 0.0, 0.0, 0.0, 0.0, 0.0, 0.0, 0.0, 0.0, 0.0, 0.0, 0.0]

>  <base_name>  (891) 
2b0f

>  <lig_resn>  (891) 
None

>  <lig_resi>  (891) 
1

>  <lig_chain>  (891) 
B

>  <lig_segi>  (891) 


>  <lig_alt>  (891) 


>  <polymer_chain>  (891) 
A

>  <single_smiles>  (891) 
None

$$$$
polymerS1
     RDKit          3D

  4  3  0  0  0  0  0  0  0  0999 V2000
  -15.3620   22.1790  -27.4390 N   0  0  0  0  0  0  0  0  0  0  0  0
  -15.4630   23.2690  -26.7060 C   0  0  1  0  0  0  0  0  0  0  0  0
  -14.4890   23.9180  -26.3430 O   0  0  0  0  0  0  0  0  0  0  0  0
  -16.8540   23.8480  -26.6190 C   0  0  0  0  0  0  0  0  0  0  0  0
  1  2  1  0
  2  3  1  0
  2  4  1  6
A    2
 C1 
A    3
 O1 
A    4
 C2 
M  END
>  <XChem_code>  (892) 
polymer

>  <Occupancy>  (892) 
[1.0, 1.0, 1.0, 1.0, 1.0, 1.0, 1.0, 1.0, 1.0, 1.0, 1.0, 1.0, 1.0, 1.0, 1.0, 1.0, 1.0, 1.0, 1.0, 1.0, 1.0, 1.0, 1.0, 1.0, 1.0, 1.0, 1.0, 1.0, 1.0, 1.0, 1.0, 1.0, 1.0, 1.0, 1.0, 1.0, 1.0, 1.0, 1.0, 1.0, 1.0, 1.0, 1.0, 1.0, 1.0, 1.0, 1.0, 1.0, 1.0, 1.0, 1.0, 1.0, 1.0, 1.0, 1.0, 1.0, 1.0, 1.0]

>  <TempFactor>  (892) 
[0.0, 0.0, 0.0, 0.0, 0.0, 0.0, 0.0, 0.0, 0.0, 0.0, 0.0, 0.0, 0.0, 0.0, 0.0, 0.0, 0.0, 0.0, 0.0, 0.0, 0.0, 0.0, 0.0, 0.0, 0.0, 0.0, 0.0, 0.0, 0.0, 0.0, 0.0, 0.0, 0.0, 0.0, 0.0, 0.0, 0.0, 0.0, 0.0, 0.0, 0.0, 0.0, 0.0, 0.0, 0.0, 0.0, 0.0, 0.0, 0.0, 0.0, 0.0, 0.0, 0.0, 0.0, 0.0, 0.0, 0.0, 0.0]

>  <base_name>  (892) 
2b0f

>  <lig_resn>  (892) 
None

>  <lig_resi>  (892) 
1

>  <lig_chain>  (892) 
B

>  <lig_segi>  (892) 


>  <lig_alt>  (892) 


>  <polymer_chain>  (892) 
A

>  <single_smiles>  (892) 
None

$$$$
polymerS2
     RDKit          3D

 54 54  0  0  0  0  0  0  0  0999 V2000
  -14.0680   21.5380  -27.6320 C   0  0  0  0  0  0  0  0  0  0  0  0
  -13.8200   21.2840  -29.0930 C   0  0  0  0  0  0  0  0  0  0  0  0
  -13.9740   20.1330  -27.0070 C   0  0  0  0  0  0  0  0  0  0  0  0
  -12.5790   21.3540  -29.4810 N   0  0  0  0  0  0  0  0  0  0  0  0
  -14.7460   21.0290  -29.8620 O   0  0  0  0  0  0  0  0  0  0  0  0
  -14.0270   19.9780  -25.4860 C   0  0  0  0  0  0  0  0  0  0  0  0
  -12.2360   20.9510  -30.8060 C   0  0  2  0  0  0  0  0  0  0  0  0
  -13.2440   21.0650  -24.7650 C   0  0  0  0  0  0  0  0  0  0  0  0
  -15.4650   19.9240  -25.0200 C   0  0  0  0  0  0  0  0  0  0  0  0
  -11.3450   19.7670  -30.6210 C   0  0  2  0  0  0  0  0  0  0  0  0
  -11.5450   22.0000  -31.6560 C   0  0  0  0  0  0  0  0  0  0  0  0
  -11.9720   18.6270  -30.4030 N   0  0  0  0  0  0  0  0  0  0  0  0
  -10.1190   19.8830  -30.5960 O   0  0  0  0  0  0  0  0  0  0  0  0
  -11.2540   21.4640  -33.0520 C   0  0  0  0  0  0  0  0  0  0  0  0
  -11.2320   17.4190  -30.2140 C   0  0  2  0  0  0  0  0  0  0  0  0
  -10.4830   22.4400  -33.9180 C   0  0  0  0  0  0  0  0  0  0  0  0
  -10.8520   16.9140  -31.5780 C   0  0  0  0  0  0  0  0  0  0  0  0
  -12.0320   16.4040  -29.4200 C   0  0  0  0  0  0  0  0  0  0  0  0
  -11.1230   23.2880  -34.5660 O   0  0  0  0  0  0  0  0  0  0  0  0
   -9.2440   22.3600  -33.9420 O   0  0  0  0  0  0  0  0  0  0  0  0
   -9.7350   16.2520  -31.6700 N   0  0  0  0  0  0  0  0  0  0  0  0
  -11.5590   17.1540  -32.5510 O   0  0  0  0  0  0  0  0  0  0  0  0
   -9.2690   15.7910  -32.9510 C   0  0  2  0  0  0  0  0  0  0  0  0
   -9.4760   14.3090  -33.1760 C   0  0  0  0  0  0  0  0  0  0  0  0
   -7.7900   16.0900  -33.0900 C   0  0  0  0  0  0  0  0  0  0  0  0
   -9.6030   13.9290  -34.4410 N   0  0  0  0  0  0  0  0  0  0  0  0
   -9.5290   13.5200  -32.2290 O   0  0  0  0  0  0  0  0  0  0  0  0
   -7.1690   15.4980  -34.3400 C   0  0  0  0  0  0  0  0  0  0  0  0
   -9.7190   12.5240  -34.7630 C   0  0  2  0  0  0  0  0  0  0  0  0
   -7.6760   16.2470  -35.5700 C   0  0  0  0  0  0  0  0  0  0  0  0
   -5.6520   15.5520  -34.2470 C   0  0  0  0  0  0  0  0  0  0  0  0
   -8.4470   11.8470  -34.2880 C   0  0  0  0  0  0  0  0  0  0  0  0
   -9.8560   12.2790  -36.2650 C   0  0  0  0  0  0  0  0  0  0  0  0
   -8.5240   10.6110  -33.8090 N   0  0  0  0  0  0  0  0  0  0  0  0
   -7.3750   12.4480  -34.3620 O   0  0  0  0  0  0  0  0  0  0  0  0
  -11.0400   12.9250  -36.9220 C   0  0  0  0  0  0  0  0  0  0  0  0
   -7.3190    9.9670  -33.3460 C   0  0  1  0  0  0  0  0  0  0  0  0
  -12.3100   12.8260  -36.3750 C   0  0  0  0  0  0  0  0  0  0  0  0
  -10.8770   13.6090  -38.1140 C   0  0  0  0  0  0  0  0  0  0  0  0
   -7.3310    9.8470  -31.8170 C   0  0  0  0  0  0  0  0  0  0  0  0
   -7.0030    8.6240  -34.0690 C   0  0  0  0  0  0  0  0  0  0  0  0
  -13.3920   13.4040  -37.0080 C   0  0  0  0  0  0  0  0  0  0  0  0
  -11.9550   14.1810  -38.7530 C   0  0  0  0  0  0  0  0  0  0  0  0
   -7.1160   11.1980  -31.1200 C   0  0  0  0  0  0  0  0  0  0  0  0
   -5.9970    8.9560  -35.1740 C   0  0  0  0  0  0  0  0  0  0  0  0
  -13.2150   14.0820  -38.2020 C   0  0  0  0  0  0  0  0  0  0  0  0
   -7.1690   11.1210  -29.6010 C   0  0  0  0  0  0  0  0  0  0  0  0
   -5.3280    7.7460  -35.7790 C   0  0  0  0  0  0  0  0  0  0  0  0
   -6.5930   12.1190  -28.9300 N   0  0  0  0  0  0  0  0  0  0  0  0
   -7.7330   10.1910  -29.0350 O   0  0  0  0  0  0  0  0  0  0  0  0
   -5.6140    6.6180  -35.3820 O   0  0  0  0  0  0  0  0  0  0  0  0
   -4.4850    7.9540  -36.6840 O   0  0  0  0  0  0  0  0  0  0  0  0
   -3.6950    6.8460  -37.4040 C   0  0  0  0  0  0  0  0  0  0  0  0
   -2.6800    7.1950  -38.4770 C   0  0  0  0  0  0  0  0  0  0  0  0
  1  2  1  0
  1  3  1  6
  4  2  1  0
  2  5  1  0
  3  6  1  0
  4  7  1  0
  6  8  1  0
  6  9  1  0
  7 10  1  0
  7 11  1  1
 12 10  1  0
 10 13  1  1
 11 14  1  0
 12 15  1  0
 14 16  1  0
 15 17  1  0
 15 18  1  6
 16 19  1  0
 16 20  1  0
 21 17  1  0
 17 22  1  0
 21 23  1  0
 23 24  1  0
 23 25  1  1
 26 24  1  0
 24 27  1  0
 25 28  1  0
 26 29  1  0
 28 30  1  0
 28 31  1  0
 29 32  1  0
 29 33  1  6
 34 32  1  0
 32 35  1  0
 33 36  1  0
 34 37  1  0
 36 38  1  0
 36 39  1  0
 37 40  1  1
 37 41  1  0
 38 42  1  0
 39 43  1  0
 40 44  1  0
 41 45  1  0
 42 46  1  0
 43 46  1  0
 44 47  1  0
 45 48  1  0
 47 49  1  0
 47 50  1  0
 48 51  1  0
 48 52  1  0
 53 52  1  0
 53 54  1  0
M  CHG  1  20  -1
A    2
 C1 
A    3
 C5 
A    4
 N1 
A    5
 O1 
A    6
 C6 
A    7
 C3 
A    8
 C7 
A    9
 C8 
A   10
 C1 
A   11
 C5 
A   12
 N1 
A   13
 O1 
A   14
 C6 
A   15
 C3 
A   16
 C13
A   17
 C1 
A   18
 C5 
A   19
 O4 
A   20
 O5 
A   21
 N1 
A   22
 O1 
A   23
 C3 
A   24
 C1 
A   25
 C5 
A   26
 N1 
A   27
 O1 
A   28
 C6 
A   29
 C3 
A   30
 C7 
A   31
 C8 
A   32
 C1 
A   33
 C5 
A   34
 N1 
A   35
 O1 
A   36
 C6 
A   37
 C3 
A   38
 C7 
A   39
 C8 
A   40
 C5 
A   41
 C38
A   42
 C29
A   43
 C30
A   44
 C6 
A   45
 C39
A   46
 C31
A   47
 C13
A   48
 C40
A   49
 N7 
A   50
 O4 
A   51
 O10
A   52
 O11
A   53
 C36
A   54
 C37
M  END
>  <XChem_code>  (893) 
polymer

>  <Occupancy>  (893) 
[1.0, 1.0, 1.0, 1.0, 1.0, 1.0, 1.0, 1.0, 1.0, 1.0, 1.0, 1.0, 1.0, 1.0, 1.0, 1.0, 1.0, 1.0, 1.0, 1.0, 1.0, 1.0, 1.0, 1.0, 1.0, 1.0, 1.0, 1.0, 1.0, 1.0, 1.0, 1.0, 1.0, 1.0, 1.0, 1.0, 1.0, 1.0, 1.0, 1.0, 1.0, 1.0, 1.0, 1.0, 1.0, 1.0, 1.0, 1.0, 1.0, 1.0, 1.0, 1.0, 1.0, 1.0, 1.0, 1.0, 1.0, 1.0]

>  <TempFactor>  (893) 
[0.0, 0.0, 0.0, 0.0, 0.0, 0.0, 0.0, 0.0, 0.0, 0.0, 0.0, 0.0, 0.0, 0.0, 0.0, 0.0, 0.0, 0.0, 0.0, 0.0, 0.0, 0.0, 0.0, 0.0, 0.0, 0.0, 0.0, 0.0, 0.0, 0.0, 0.0, 0.0, 0.0, 0.0, 0.0, 0.0, 0.0, 0.0, 0.0, 0.0, 0.0, 0.0, 0.0, 0.0, 0.0, 0.0, 0.0, 0.0, 0.0, 0.0, 0.0, 0.0, 0.0, 0.0, 0.0, 0.0, 0.0, 0.0]

>  <base_name>  (893) 
2b0f

>  <lig_resn>  (893) 
None

>  <lig_resi>  (893) 
1

>  <lig_chain>  (893) 
B

>  <lig_segi>  (893) 


>  <lig_alt>  (893) 


>  <polymer_chain>  (893) 
A

>  <single_smiles>  (893) 
None

$$$$
polymerS3
     RDKit          3D

 12 11  0  0  0  0  0  0  0  0999 V2000
  -12.5790   21.3540  -29.4810 N   0  0  0  0  0  0  0  0  0  0  0  0
  -13.8200   21.2840  -29.0930 C   0  0  0  0  0  0  0  0  0  0  0  0
  -14.0680   21.5380  -27.6320 C   0  0  1  0  0  0  0  0  0  0  0  0
  -14.7460   21.0290  -29.8620 O   0  0  0  0  0  0  0  0  0  0  0  0
  -15.3620   22.1790  -27.4390 N   0  0  0  0  0  0  0  0  0  0  0  0
  -13.9740   20.1330  -27.0070 C   0  0  0  0  0  0  0  0  0  0  0  0
  -15.4630   23.2690  -26.7060 C   0  0  1  0  0  0  0  0  0  0  0  0
  -14.0270   19.9780  -25.4860 C   0  0  0  0  0  0  0  0  0  0  0  0
  -14.4890   23.9180  -26.3430 O   0  0  0  0  0  0  0  0  0  0  0  0
  -16.8540   23.8480  -26.6190 C   0  0  0  0  0  0  0  0  0  0  0  0
  -13.2440   21.0650  -24.7650 C   0  0  0  0  0  0  0  0  0  0  0  0
  -15.4650   19.9240  -25.0200 C   0  0  0  0  0  0  0  0  0  0  0  0
  1  2  1  0
  3  2  1  0
  2  4  1  0
  5  3  1  0
  3  6  1  1
  5  7  1  0
  6  8  1  0
  7  9  1  0
  7 10  1  6
  8 11  1  0
  8 12  1  0
A    2
 C1 
A    3
 C3 
A    4
 O1 
A    5
 N1 
A    6
 C5 
A    7
 C1 
A    8
 C6 
A    9
 O1 
A   10
 C2 
A   11
 C7 
A   12
 C8 
M  END
>  <XChem_code>  (894) 
polymer

>  <Occupancy>  (894) 
[1.0, 1.0, 1.0, 1.0, 1.0, 1.0, 1.0, 1.0, 1.0, 1.0, 1.0, 1.0, 1.0, 1.0, 1.0, 1.0, 1.0, 1.0, 1.0, 1.0, 1.0, 1.0, 1.0, 1.0, 1.0, 1.0, 1.0, 1.0, 1.0, 1.0, 1.0, 1.0, 1.0, 1.0, 1.0, 1.0, 1.0, 1.0, 1.0, 1.0, 1.0, 1.0, 1.0, 1.0, 1.0, 1.0, 1.0, 1.0, 1.0, 1.0, 1.0, 1.0, 1.0, 1.0, 1.0, 1.0, 1.0, 1.0]

>  <TempFactor>  (894) 
[0.0, 0.0, 0.0, 0.0, 0.0, 0.0, 0.0, 0.0, 0.0, 0.0, 0.0, 0.0, 0.0, 0.0, 0.0, 0.0, 0.0, 0.0, 0.0, 0.0, 0.0, 0.0, 0.0, 0.0, 0.0, 0.0, 0.0, 0.0, 0.0, 0.0, 0.0, 0.0, 0.0, 0.0, 0.0, 0.0, 0.0, 0.0, 0.0, 0.0, 0.0, 0.0, 0.0, 0.0, 0.0, 0.0, 0.0, 0.0, 0.0, 0.0, 0.0, 0.0, 0.0, 0.0, 0.0, 0.0, 0.0, 0.0]

>  <base_name>  (894) 
2b0f

>  <lig_resn>  (894) 
None

>  <lig_resi>  (894) 
1

>  <lig_chain>  (894) 
B

>  <lig_segi>  (894) 


>  <lig_alt>  (894) 


>  <polymer_chain>  (894) 
A

>  <single_smiles>  (894) 
None

$$$$
polymerS4
     RDKit          3D

 46 46  0  0  0  0  0  0  0  0999 V2000
  -12.2360   20.9510  -30.8060 C   0  0  0  0  0  0  0  0  0  0  0  0
  -11.3450   19.7670  -30.6210 C   0  0  2  0  0  0  0  0  0  0  0  0
  -11.5450   22.0000  -31.6560 C   0  0  0  0  0  0  0  0  0  0  0  0
  -11.9720   18.6270  -30.4030 N   0  0  0  0  0  0  0  0  0  0  0  0
  -10.1190   19.8830  -30.5960 O   0  0  0  0  0  0  0  0  0  0  0  0
  -11.2540   21.4640  -33.0520 C   0  0  0  0  0  0  0  0  0  0  0  0
  -11.2320   17.4190  -30.2140 C   0  0  2  0  0  0  0  0  0  0  0  0
  -10.4830   22.4400  -33.9180 C   0  0  0  0  0  0  0  0  0  0  0  0
  -10.8520   16.9140  -31.5780 C   0  0  0  0  0  0  0  0  0  0  0  0
  -12.0320   16.4040  -29.4200 C   0  0  0  0  0  0  0  0  0  0  0  0
  -11.1230   23.2880  -34.5660 O   0  0  0  0  0  0  0  0  0  0  0  0
   -9.2440   22.3600  -33.9420 O   0  0  0  0  0  0  0  0  0  0  0  0
   -9.7350   16.2520  -31.6700 N   0  0  0  0  0  0  0  0  0  0  0  0
  -11.5590   17.1540  -32.5510 O   0  0  0  0  0  0  0  0  0  0  0  0
   -9.2690   15.7910  -32.9510 C   0  0  2  0  0  0  0  0  0  0  0  0
   -9.4760   14.3090  -33.1760 C   0  0  0  0  0  0  0  0  0  0  0  0
   -7.7900   16.0900  -33.0900 C   0  0  0  0  0  0  0  0  0  0  0  0
   -9.6030   13.9290  -34.4410 N   0  0  0  0  0  0  0  0  0  0  0  0
   -9.5290   13.5200  -32.2290 O   0  0  0  0  0  0  0  0  0  0  0  0
   -7.1690   15.4980  -34.3400 C   0  0  0  0  0  0  0  0  0  0  0  0
   -9.7190   12.5240  -34.7630 C   0  0  2  0  0  0  0  0  0  0  0  0
   -7.6760   16.2470  -35.5700 C   0  0  0  0  0  0  0  0  0  0  0  0
   -5.6520   15.5520  -34.2470 C   0  0  0  0  0  0  0  0  0  0  0  0
   -8.4470   11.8470  -34.2880 C   0  0  0  0  0  0  0  0  0  0  0  0
   -9.8560   12.2790  -36.2650 C   0  0  0  0  0  0  0  0  0  0  0  0
   -8.5240   10.6110  -33.8090 N   0  0  0  0  0  0  0  0  0  0  0  0
   -7.3750   12.4480  -34.3620 O   0  0  0  0  0  0  0  0  0  0  0  0
  -11.0400   12.9250  -36.9220 C   0  0  0  0  0  0  0  0  0  0  0  0
   -7.3190    9.9670  -33.3460 C   0  0  1  0  0  0  0  0  0  0  0  0
  -12.3100   12.8260  -36.3750 C   0  0  0  0  0  0  0  0  0  0  0  0
  -10.8770   13.6090  -38.1140 C   0  0  0  0  0  0  0  0  0  0  0  0
   -7.3310    9.8470  -31.8170 C   0  0  0  0  0  0  0  0  0  0  0  0
   -7.0030    8.6240  -34.0690 C   0  0  0  0  0  0  0  0  0  0  0  0
  -13.3920   13.4040  -37.0080 C   0  0  0  0  0  0  0  0  0  0  0  0
  -11.9550   14.1810  -38.7530 C   0  0  0  0  0  0  0  0  0  0  0  0
   -7.1160   11.1980  -31.1200 C   0  0  0  0  0  0  0  0  0  0  0  0
   -5.9970    8.9560  -35.1740 C   0  0  0  0  0  0  0  0  0  0  0  0
  -13.2150   14.0820  -38.2020 C   0  0  0  0  0  0  0  0  0  0  0  0
   -7.1690   11.1210  -29.6010 C   0  0  0  0  0  0  0  0  0  0  0  0
   -5.3280    7.7460  -35.7790 C   0  0  0  0  0  0  0  0  0  0  0  0
   -6.5930   12.1190  -28.9300 N   0  0  0  0  0  0  0  0  0  0  0  0
   -7.7330   10.1910  -29.0350 O   0  0  0  0  0  0  0  0  0  0  0  0
   -5.6140    6.6180  -35.3820 O   0  0  0  0  0  0  0  0  0  0  0  0
   -4.4850    7.9540  -36.6840 O   0  0  0  0  0  0  0  0  0  0  0  0
   -3.6950    6.8460  -37.4040 C   0  0  0  0  0  0  0  0  0  0  0  0
   -2.6800    7.1950  -38.4770 C   0  0  0  0  0  0  0  0  0  0  0  0
  1  2  1  0
  1  3  1  6
  4  2  1  0
  2  5  1  1
  3  6  1  0
  4  7  1  0
  6  8  1  0
  7  9  1  0
  7 10  1  6
  8 11  1  0
  8 12  1  0
 13  9  1  0
  9 14  1  0
 13 15  1  0
 15 16  1  0
 15 17  1  1
 18 16  1  0
 16 19  1  0
 17 20  1  0
 18 21  1  0
 20 22  1  0
 20 23  1  0
 21 24  1  0
 21 25  1  6
 26 24  1  0
 24 27  1  0
 25 28  1  0
 26 29  1  0
 28 30  1  0
 28 31  1  0
 29 32  1  1
 29 33  1  0
 30 34  1  0
 31 35  1  0
 32 36  1  0
 33 37  1  0
 34 38  1  0
 35 38  1  0
 36 39  1  0
 37 40  1  0
 39 41  1  0
 39 42  1  0
 40 43  1  0
 40 44  1  0
 45 44  1  0
 45 46  1  0
M  CHG  1  12  -1
A    2
 C1 
A    3
 C5 
A    4
 N1 
A    5
 O1 
A    6
 C6 
A    7
 C3 
A    8
 C13
A    9
 C1 
A   10
 C5 
A   11
 O4 
A   12
 O5 
A   13
 N1 
A   14
 O1 
A   15
 C3 
A   16
 C1 
A   17
 C5 
A   18
 N1 
A   19
 O1 
A   20
 C6 
A   21
 C3 
A   22
 C7 
A   23
 C8 
A   24
 C1 
A   25
 C5 
A   26
 N1 
A   27
 O1 
A   28
 C6 
A   29
 C3 
A   30
 C7 
A   31
 C8 
A   32
 C5 
A   33
 C38
A   34
 C29
A   35
 C30
A   36
 C6 
A   37
 C39
A   38
 C31
A   39
 C13
A   40
 C40
A   41
 N7 
A   42
 O4 
A   43
 O10
A   44
 O11
A   45
 C36
A   46
 C37
M  END
>  <XChem_code>  (895) 
polymer

>  <Occupancy>  (895) 
[1.0, 1.0, 1.0, 1.0, 1.0, 1.0, 1.0, 1.0, 1.0, 1.0, 1.0, 1.0, 1.0, 1.0, 1.0, 1.0, 1.0, 1.0, 1.0, 1.0, 1.0, 1.0, 1.0, 1.0, 1.0, 1.0, 1.0, 1.0, 1.0, 1.0, 1.0, 1.0, 1.0, 1.0, 1.0, 1.0, 1.0, 1.0, 1.0, 1.0, 1.0, 1.0, 1.0, 1.0, 1.0, 1.0, 1.0, 1.0, 1.0, 1.0, 1.0, 1.0, 1.0, 1.0, 1.0, 1.0, 1.0, 1.0]

>  <TempFactor>  (895) 
[0.0, 0.0, 0.0, 0.0, 0.0, 0.0, 0.0, 0.0, 0.0, 0.0, 0.0, 0.0, 0.0, 0.0, 0.0, 0.0, 0.0, 0.0, 0.0, 0.0, 0.0, 0.0, 0.0, 0.0, 0.0, 0.0, 0.0, 0.0, 0.0, 0.0, 0.0, 0.0, 0.0, 0.0, 0.0, 0.0, 0.0, 0.0, 0.0, 0.0, 0.0, 0.0, 0.0, 0.0, 0.0, 0.0, 0.0, 0.0, 0.0, 0.0, 0.0, 0.0, 0.0, 0.0, 0.0, 0.0, 0.0, 0.0]

>  <base_name>  (895) 
2b0f

>  <lig_resn>  (895) 
None

>  <lig_resi>  (895) 
1

>  <lig_chain>  (895) 
B

>  <lig_segi>  (895) 


>  <lig_alt>  (895) 


>  <polymer_chain>  (895) 
A

>  <single_smiles>  (895) 
None

$$$$
polymerS5
     RDKit          3D

 21 20  0  0  0  0  0  0  0  0999 V2000
  -11.9720   18.6270  -30.4030 N   0  0  0  0  0  0  0  0  0  0  0  0
  -11.3450   19.7670  -30.6210 C   0  0  1  0  0  0  0  0  0  0  0  0
  -12.2360   20.9510  -30.8060 C   0  0  1  0  0  0  0  0  0  0  0  0
  -10.1190   19.8830  -30.5960 O   0  0  0  0  0  0  0  0  0  0  0  0
  -12.5790   21.3540  -29.4810 N   0  0  0  0  0  0  0  0  0  0  0  0
  -11.5450   22.0000  -31.6560 C   0  0  0  0  0  0  0  0  0  0  0  0
  -13.8200   21.2840  -29.0930 C   0  0  0  0  0  0  0  0  0  0  0  0
  -11.2540   21.4640  -33.0520 C   0  0  0  0  0  0  0  0  0  0  0  0
  -14.0680   21.5380  -27.6320 C   0  0  1  0  0  0  0  0  0  0  0  0
  -14.7460   21.0290  -29.8620 O   0  0  0  0  0  0  0  0  0  0  0  0
  -10.4830   22.4400  -33.9180 C   0  0  0  0  0  0  0  0  0  0  0  0
  -15.3620   22.1790  -27.4390 N   0  0  0  0  0  0  0  0  0  0  0  0
  -13.9740   20.1330  -27.0070 C   0  0  0  0  0  0  0  0  0  0  0  0
  -11.1230   23.2880  -34.5660 O   0  0  0  0  0  0  0  0  0  0  0  0
   -9.2440   22.3600  -33.9420 O   0  0  0  0  0  0  0  0  0  0  0  0
  -15.4630   23.2690  -26.7060 C   0  0  1  0  0  0  0  0  0  0  0  0
  -14.0270   19.9780  -25.4860 C   0  0  0  0  0  0  0  0  0  0  0  0
  -14.4890   23.9180  -26.3430 O   0  0  0  0  0  0  0  0  0  0  0  0
  -16.8540   23.8480  -26.6190 C   0  0  0  0  0  0  0  0  0  0  0  0
  -13.2440   21.0650  -24.7650 C   0  0  0  0  0  0  0  0  0  0  0  0
  -15.4650   19.9240  -25.0200 C   0  0  0  0  0  0  0  0  0  0  0  0
  2  1  1  1
  3  2  1  0
  2  4  1  0
  5  3  1  0
  3  6  1  1
  5  7  1  0
  6  8  1  0
  9  7  1  0
  7 10  1  0
  8 11  1  0
 12  9  1  0
  9 13  1  1
 11 14  1  0
 11 15  1  0
 12 16  1  0
 13 17  1  0
 16 18  1  0
 16 19  1  6
 17 20  1  0
 17 21  1  0
M  CHG  1  15  -1
A    2
 C1 
A    3
 C3 
A    4
 O1 
A    5
 N1 
A    6
 C5 
A    7
 C1 
A    8
 C6 
A    9
 C3 
A   10
 O1 
A   11
 C13
A   12
 N1 
A   13
 C5 
A   14
 O4 
A   15
 O5 
A   16
 C1 
A   17
 C6 
A   18
 O1 
A   19
 C2 
A   20
 C7 
A   21
 C8 
M  END
>  <XChem_code>  (896) 
polymer

>  <Occupancy>  (896) 
[1.0, 1.0, 1.0, 1.0, 1.0, 1.0, 1.0, 1.0, 1.0, 1.0, 1.0, 1.0, 1.0, 1.0, 1.0, 1.0, 1.0, 1.0, 1.0, 1.0, 1.0, 1.0, 1.0, 1.0, 1.0, 1.0, 1.0, 1.0, 1.0, 1.0, 1.0, 1.0, 1.0, 1.0, 1.0, 1.0, 1.0, 1.0, 1.0, 1.0, 1.0, 1.0, 1.0, 1.0, 1.0, 1.0, 1.0, 1.0, 1.0, 1.0, 1.0, 1.0, 1.0, 1.0, 1.0, 1.0, 1.0, 1.0]

>  <TempFactor>  (896) 
[0.0, 0.0, 0.0, 0.0, 0.0, 0.0, 0.0, 0.0, 0.0, 0.0, 0.0, 0.0, 0.0, 0.0, 0.0, 0.0, 0.0, 0.0, 0.0, 0.0, 0.0, 0.0, 0.0, 0.0, 0.0, 0.0, 0.0, 0.0, 0.0, 0.0, 0.0, 0.0, 0.0, 0.0, 0.0, 0.0, 0.0, 0.0, 0.0, 0.0, 0.0, 0.0, 0.0, 0.0, 0.0, 0.0, 0.0, 0.0, 0.0, 0.0, 0.0, 0.0, 0.0, 0.0, 0.0, 0.0, 0.0, 0.0]

>  <base_name>  (896) 
2b0f

>  <lig_resn>  (896) 
None

>  <lig_resi>  (896) 
1

>  <lig_chain>  (896) 
B

>  <lig_segi>  (896) 


>  <lig_alt>  (896) 


>  <polymer_chain>  (896) 
A

>  <single_smiles>  (896) 
None

$$$$
polymerS6
     RDKit          3D

 37 37  0  0  0  0  0  0  0  0999 V2000
  -11.2320   17.4190  -30.2140 C   0  0  0  0  0  0  0  0  0  0  0  0
  -10.8520   16.9140  -31.5780 C   0  0  0  0  0  0  0  0  0  0  0  0
  -12.0320   16.4040  -29.4200 C   0  0  0  0  0  0  0  0  0  0  0  0
   -9.7350   16.2520  -31.6700 N   0  0  0  0  0  0  0  0  0  0  0  0
  -11.5590   17.1540  -32.5510 O   0  0  0  0  0  0  0  0  0  0  0  0
   -9.2690   15.7910  -32.9510 C   0  0  2  0  0  0  0  0  0  0  0  0
   -9.4760   14.3090  -33.1760 C   0  0  0  0  0  0  0  0  0  0  0  0
   -7.7900   16.0900  -33.0900 C   0  0  0  0  0  0  0  0  0  0  0  0
   -9.6030   13.9290  -34.4410 N   0  0  0  0  0  0  0  0  0  0  0  0
   -9.5290   13.5200  -32.2290 O   0  0  0  0  0  0  0  0  0  0  0  0
   -7.1690   15.4980  -34.3400 C   0  0  0  0  0  0  0  0  0  0  0  0
   -9.7190   12.5240  -34.7630 C   0  0  2  0  0  0  0  0  0  0  0  0
   -7.6760   16.2470  -35.5700 C   0  0  0  0  0  0  0  0  0  0  0  0
   -5.6520   15.5520  -34.2470 C   0  0  0  0  0  0  0  0  0  0  0  0
   -8.4470   11.8470  -34.2880 C   0  0  0  0  0  0  0  0  0  0  0  0
   -9.8560   12.2790  -36.2650 C   0  0  0  0  0  0  0  0  0  0  0  0
   -8.5240   10.6110  -33.8090 N   0  0  0  0  0  0  0  0  0  0  0  0
   -7.3750   12.4480  -34.3620 O   0  0  0  0  0  0  0  0  0  0  0  0
  -11.0400   12.9250  -36.9220 C   0  0  0  0  0  0  0  0  0  0  0  0
   -7.3190    9.9670  -33.3460 C   0  0  1  0  0  0  0  0  0  0  0  0
  -12.3100   12.8260  -36.3750 C   0  0  0  0  0  0  0  0  0  0  0  0
  -10.8770   13.6090  -38.1140 C   0  0  0  0  0  0  0  0  0  0  0  0
   -7.3310    9.8470  -31.8170 C   0  0  0  0  0  0  0  0  0  0  0  0
   -7.0030    8.6240  -34.0690 C   0  0  0  0  0  0  0  0  0  0  0  0
  -13.3920   13.4040  -37.0080 C   0  0  0  0  0  0  0  0  0  0  0  0
  -11.9550   14.1810  -38.7530 C   0  0  0  0  0  0  0  0  0  0  0  0
   -7.1160   11.1980  -31.1200 C   0  0  0  0  0  0  0  0  0  0  0  0
   -5.9970    8.9560  -35.1740 C   0  0  0  0  0  0  0  0  0  0  0  0
  -13.2150   14.0820  -38.2020 C   0  0  0  0  0  0  0  0  0  0  0  0
   -7.1690   11.1210  -29.6010 C   0  0  0  0  0  0  0  0  0  0  0  0
   -5.3280    7.7460  -35.7790 C   0  0  0  0  0  0  0  0  0  0  0  0
   -6.5930   12.1190  -28.9300 N   0  0  0  0  0  0  0  0  0  0  0  0
   -7.7330   10.1910  -29.0350 O   0  0  0  0  0  0  0  0  0  0  0  0
   -5.6140    6.6180  -35.3820 O   0  0  0  0  0  0  0  0  0  0  0  0
   -4.4850    7.9540  -36.6840 O   0  0  0  0  0  0  0  0  0  0  0  0
   -3.6950    6.8460  -37.4040 C   0  0  0  0  0  0  0  0  0  0  0  0
   -2.6800    7.1950  -38.4770 C   0  0  0  0  0  0  0  0  0  0  0  0
  1  2  1  0
  1  3  1  6
  4  2  1  0
  2  5  1  0
  4  6  1  0
  6  7  1  0
  6  8  1  1
  9  7  1  0
  7 10  1  0
  8 11  1  0
  9 12  1  0
 11 13  1  0
 11 14  1  0
 12 15  1  0
 12 16  1  6
 17 15  1  0
 15 18  1  0
 16 19  1  0
 17 20  1  0
 19 21  1  0
 19 22  1  0
 20 23  1  1
 20 24  1  0
 21 25  1  0
 22 26  1  0
 23 27  1  0
 24 28  1  0
 25 29  1  0
 26 29  1  0
 27 30  1  0
 28 31  1  0
 30 32  1  0
 30 33  1  0
 31 34  1  0
 31 35  1  0
 36 35  1  0
 36 37  1  0
A    2
 C1 
A    3
 C5 
A    4
 N1 
A    5
 O1 
A    6
 C3 
A    7
 C1 
A    8
 C5 
A    9
 N1 
A   10
 O1 
A   11
 C6 
A   12
 C3 
A   13
 C7 
A   14
 C8 
A   15
 C1 
A   16
 C5 
A   17
 N1 
A   18
 O1 
A   19
 C6 
A   20
 C3 
A   21
 C7 
A   22
 C8 
A   23
 C5 
A   24
 C38
A   25
 C29
A   26
 C30
A   27
 C6 
A   28
 C39
A   29
 C31
A   30
 C13
A   31
 C40
A   32
 N7 
A   33
 O4 
A   34
 O10
A   35
 O11
A   36
 C36
A   37
 C37
M  END
>  <XChem_code>  (897) 
polymer

>  <Occupancy>  (897) 
[1.0, 1.0, 1.0, 1.0, 1.0, 1.0, 1.0, 1.0, 1.0, 1.0, 1.0, 1.0, 1.0, 1.0, 1.0, 1.0, 1.0, 1.0, 1.0, 1.0, 1.0, 1.0, 1.0, 1.0, 1.0, 1.0, 1.0, 1.0, 1.0, 1.0, 1.0, 1.0, 1.0, 1.0, 1.0, 1.0, 1.0, 1.0, 1.0, 1.0, 1.0, 1.0, 1.0, 1.0, 1.0, 1.0, 1.0, 1.0, 1.0, 1.0, 1.0, 1.0, 1.0, 1.0, 1.0, 1.0, 1.0, 1.0]

>  <TempFactor>  (897) 
[0.0, 0.0, 0.0, 0.0, 0.0, 0.0, 0.0, 0.0, 0.0, 0.0, 0.0, 0.0, 0.0, 0.0, 0.0, 0.0, 0.0, 0.0, 0.0, 0.0, 0.0, 0.0, 0.0, 0.0, 0.0, 0.0, 0.0, 0.0, 0.0, 0.0, 0.0, 0.0, 0.0, 0.0, 0.0, 0.0, 0.0, 0.0, 0.0, 0.0, 0.0, 0.0, 0.0, 0.0, 0.0, 0.0, 0.0, 0.0, 0.0, 0.0, 0.0, 0.0, 0.0, 0.0, 0.0, 0.0, 0.0, 0.0]

>  <base_name>  (897) 
2b0f

>  <lig_resn>  (897) 
None

>  <lig_resi>  (897) 
1

>  <lig_chain>  (897) 
B

>  <lig_segi>  (897) 


>  <lig_alt>  (897) 


>  <polymer_chain>  (897) 
A

>  <single_smiles>  (897) 
None

$$$$
polymerS7
     RDKit          3D

 26 25  0  0  0  0  0  0  0  0999 V2000
   -9.7350   16.2520  -31.6700 N   0  0  0  0  0  0  0  0  0  0  0  0
  -10.8520   16.9140  -31.5780 C   0  0  0  0  0  0  0  0  0  0  0  0
  -11.2320   17.4190  -30.2140 C   0  0  1  0  0  0  0  0  0  0  0  0
  -11.5590   17.1540  -32.5510 O   0  0  0  0  0  0  0  0  0  0  0  0
  -11.9720   18.6270  -30.4030 N   0  0  0  0  0  0  0  0  0  0  0  0
  -12.0320   16.4040  -29.4200 C   0  0  0  0  0  0  0  0  0  0  0  0
  -11.3450   19.7670  -30.6210 C   0  0  1  0  0  0  0  0  0  0  0  0
  -12.2360   20.9510  -30.8060 C   0  0  1  0  0  0  0  0  0  0  0  0
  -10.1190   19.8830  -30.5960 O   0  0  0  0  0  0  0  0  0  0  0  0
  -12.5790   21.3540  -29.4810 N   0  0  0  0  0  0  0  0  0  0  0  0
  -11.5450   22.0000  -31.6560 C   0  0  0  0  0  0  0  0  0  0  0  0
  -13.8200   21.2840  -29.0930 C   0  0  0  0  0  0  0  0  0  0  0  0
  -11.2540   21.4640  -33.0520 C   0  0  0  0  0  0  0  0  0  0  0  0
  -14.0680   21.5380  -27.6320 C   0  0  1  0  0  0  0  0  0  0  0  0
  -14.7460   21.0290  -29.8620 O   0  0  0  0  0  0  0  0  0  0  0  0
  -10.4830   22.4400  -33.9180 C   0  0  0  0  0  0  0  0  0  0  0  0
  -15.3620   22.1790  -27.4390 N   0  0  0  0  0  0  0  0  0  0  0  0
  -13.9740   20.1330  -27.0070 C   0  0  0  0  0  0  0  0  0  0  0  0
  -11.1230   23.2880  -34.5660 O   0  0  0  0  0  0  0  0  0  0  0  0
   -9.2440   22.3600  -33.9420 O   0  0  0  0  0  0  0  0  0  0  0  0
  -15.4630   23.2690  -26.7060 C   0  0  1  0  0  0  0  0  0  0  0  0
  -14.0270   19.9780  -25.4860 C   0  0  0  0  0  0  0  0  0  0  0  0
  -14.4890   23.9180  -26.3430 O   0  0  0  0  0  0  0  0  0  0  0  0
  -16.8540   23.8480  -26.6190 C   0  0  0  0  0  0  0  0  0  0  0  0
  -13.2440   21.0650  -24.7650 C   0  0  0  0  0  0  0  0  0  0  0  0
  -15.4650   19.9240  -25.0200 C   0  0  0  0  0  0  0  0  0  0  0  0
  1  2  1  0
  3  2  1  0
  2  4  1  0
  5  3  1  0
  3  6  1  6
  5  7  1  0
  8  7  1  0
  7  9  1  1
 10  8  1  0
  8 11  1  1
 10 12  1  0
 11 13  1  0
 14 12  1  0
 12 15  1  0
 13 16  1  0
 17 14  1  0
 14 18  1  1
 16 19  1  0
 16 20  1  0
 17 21  1  0
 18 22  1  0
 21 23  1  0
 21 24  1  6
 22 25  1  0
 22 26  1  0
M  CHG  1  20  -1
A    2
 C1 
A    3
 C3 
A    4
 O1 
A    5
 N1 
A    6
 C5 
A    7
 C1 
A    8
 C3 
A    9
 O1 
A   10
 N1 
A   11
 C5 
A   12
 C1 
A   13
 C6 
A   14
 C3 
A   15
 O1 
A   16
 C13
A   17
 N1 
A   18
 C5 
A   19
 O4 
A   20
 O5 
A   21
 C1 
A   22
 C6 
A   23
 O1 
A   24
 C2 
A   25
 C7 
A   26
 C8 
M  END
>  <XChem_code>  (898) 
polymer

>  <Occupancy>  (898) 
[1.0, 1.0, 1.0, 1.0, 1.0, 1.0, 1.0, 1.0, 1.0, 1.0, 1.0, 1.0, 1.0, 1.0, 1.0, 1.0, 1.0, 1.0, 1.0, 1.0, 1.0, 1.0, 1.0, 1.0, 1.0, 1.0, 1.0, 1.0, 1.0, 1.0, 1.0, 1.0, 1.0, 1.0, 1.0, 1.0, 1.0, 1.0, 1.0, 1.0, 1.0, 1.0, 1.0, 1.0, 1.0, 1.0, 1.0, 1.0, 1.0, 1.0, 1.0, 1.0, 1.0, 1.0, 1.0, 1.0, 1.0, 1.0]

>  <TempFactor>  (898) 
[0.0, 0.0, 0.0, 0.0, 0.0, 0.0, 0.0, 0.0, 0.0, 0.0, 0.0, 0.0, 0.0, 0.0, 0.0, 0.0, 0.0, 0.0, 0.0, 0.0, 0.0, 0.0, 0.0, 0.0, 0.0, 0.0, 0.0, 0.0, 0.0, 0.0, 0.0, 0.0, 0.0, 0.0, 0.0, 0.0, 0.0, 0.0, 0.0, 0.0, 0.0, 0.0, 0.0, 0.0, 0.0, 0.0, 0.0, 0.0, 0.0, 0.0, 0.0, 0.0, 0.0, 0.0, 0.0, 0.0, 0.0, 0.0]

>  <base_name>  (898) 
2b0f

>  <lig_resn>  (898) 
None

>  <lig_resi>  (898) 
1

>  <lig_chain>  (898) 
B

>  <lig_segi>  (898) 


>  <lig_alt>  (898) 


>  <polymer_chain>  (898) 
A

>  <single_smiles>  (898) 
None

$$$$
polymerS8
     RDKit          3D

 32 32  0  0  0  0  0  0  0  0999 V2000
   -9.2690   15.7910  -32.9510 C   0  0  0  0  0  0  0  0  0  0  0  0
   -9.4760   14.3090  -33.1760 C   0  0  0  0  0  0  0  0  0  0  0  0
   -7.7900   16.0900  -33.0900 C   0  0  0  0  0  0  0  0  0  0  0  0
   -9.6030   13.9290  -34.4410 N   0  0  0  0  0  0  0  0  0  0  0  0
   -9.5290   13.5200  -32.2290 O   0  0  0  0  0  0  0  0  0  0  0  0
   -7.1690   15.4980  -34.3400 C   0  0  0  0  0  0  0  0  0  0  0  0
   -9.7190   12.5240  -34.7630 C   0  0  2  0  0  0  0  0  0  0  0  0
   -7.6760   16.2470  -35.5700 C   0  0  0  0  0  0  0  0  0  0  0  0
   -5.6520   15.5520  -34.2470 C   0  0  0  0  0  0  0  0  0  0  0  0
   -8.4470   11.8470  -34.2880 C   0  0  0  0  0  0  0  0  0  0  0  0
   -9.8560   12.2790  -36.2650 C   0  0  0  0  0  0  0  0  0  0  0  0
   -8.5240   10.6110  -33.8090 N   0  0  0  0  0  0  0  0  0  0  0  0
   -7.3750   12.4480  -34.3620 O   0  0  0  0  0  0  0  0  0  0  0  0
  -11.0400   12.9250  -36.9220 C   0  0  0  0  0  0  0  0  0  0  0  0
   -7.3190    9.9670  -33.3460 C   0  0  1  0  0  0  0  0  0  0  0  0
  -12.3100   12.8260  -36.3750 C   0  0  0  0  0  0  0  0  0  0  0  0
  -10.8770   13.6090  -38.1140 C   0  0  0  0  0  0  0  0  0  0  0  0
   -7.3310    9.8470  -31.8170 C   0  0  0  0  0  0  0  0  0  0  0  0
   -7.0030    8.6240  -34.0690 C   0  0  0  0  0  0  0  0  0  0  0  0
  -13.3920   13.4040  -37.0080 C   0  0  0  0  0  0  0  0  0  0  0  0
  -11.9550   14.1810  -38.7530 C   0  0  0  0  0  0  0  0  0  0  0  0
   -7.1160   11.1980  -31.1200 C   0  0  0  0  0  0  0  0  0  0  0  0
   -5.9970    8.9560  -35.1740 C   0  0  0  0  0  0  0  0  0  0  0  0
  -13.2150   14.0820  -38.2020 C   0  0  0  0  0  0  0  0  0  0  0  0
   -7.1690   11.1210  -29.6010 C   0  0  0  0  0  0  0  0  0  0  0  0
   -5.3280    7.7460  -35.7790 C   0  0  0  0  0  0  0  0  0  0  0  0
   -6.5930   12.1190  -28.9300 N   0  0  0  0  0  0  0  0  0  0  0  0
   -7.7330   10.1910  -29.0350 O   0  0  0  0  0  0  0  0  0  0  0  0
   -5.6140    6.6180  -35.3820 O   0  0  0  0  0  0  0  0  0  0  0  0
   -4.4850    7.9540  -36.6840 O   0  0  0  0  0  0  0  0  0  0  0  0
   -3.6950    6.8460  -37.4040 C   0  0  0  0  0  0  0  0  0  0  0  0
   -2.6800    7.1950  -38.4770 C   0  0  0  0  0  0  0  0  0  0  0  0
  1  2  1  0
  1  3  1  6
  4  2  1  0
  2  5  1  0
  3  6  1  0
  4  7  1  0
  6  8  1  0
  6  9  1  0
  7 10  1  0
  7 11  1  6
 12 10  1  0
 10 13  1  0
 11 14  1  0
 12 15  1  0
 14 16  1  0
 14 17  1  0
 15 18  1  1
 15 19  1  0
 16 20  1  0
 17 21  1  0
 18 22  1  0
 19 23  1  0
 20 24  1  0
 21 24  1  0
 22 25  1  0
 23 26  1  0
 25 27  1  0
 25 28  1  0
 26 29  1  0
 26 30  1  0
 31 30  1  0
 31 32  1  0
A    2
 C1 
A    3
 C5 
A    4
 N1 
A    5
 O1 
A    6
 C6 
A    7
 C3 
A    8
 C7 
A    9
 C8 
A   10
 C1 
A   11
 C5 
A   12
 N1 
A   13
 O1 
A   14
 C6 
A   15
 C3 
A   16
 C7 
A   17
 C8 
A   18
 C5 
A   19
 C38
A   20
 C29
A   21
 C30
A   22
 C6 
A   23
 C39
A   24
 C31
A   25
 C13
A   26
 C40
A   27
 N7 
A   28
 O4 
A   29
 O10
A   30
 O11
A   31
 C36
A   32
 C37
M  END
>  <XChem_code>  (899) 
polymer

>  <Occupancy>  (899) 
[1.0, 1.0, 1.0, 1.0, 1.0, 1.0, 1.0, 1.0, 1.0, 1.0, 1.0, 1.0, 1.0, 1.0, 1.0, 1.0, 1.0, 1.0, 1.0, 1.0, 1.0, 1.0, 1.0, 1.0, 1.0, 1.0, 1.0, 1.0, 1.0, 1.0, 1.0, 1.0, 1.0, 1.0, 1.0, 1.0, 1.0, 1.0, 1.0, 1.0, 1.0, 1.0, 1.0, 1.0, 1.0, 1.0, 1.0, 1.0, 1.0, 1.0, 1.0, 1.0, 1.0, 1.0, 1.0, 1.0, 1.0, 1.0]

>  <TempFactor>  (899) 
[0.0, 0.0, 0.0, 0.0, 0.0, 0.0, 0.0, 0.0, 0.0, 0.0, 0.0, 0.0, 0.0, 0.0, 0.0, 0.0, 0.0, 0.0, 0.0, 0.0, 0.0, 0.0, 0.0, 0.0, 0.0, 0.0, 0.0, 0.0, 0.0, 0.0, 0.0, 0.0, 0.0, 0.0, 0.0, 0.0, 0.0, 0.0, 0.0, 0.0, 0.0, 0.0, 0.0, 0.0, 0.0, 0.0, 0.0, 0.0, 0.0, 0.0, 0.0, 0.0, 0.0, 0.0, 0.0, 0.0, 0.0, 0.0]

>  <base_name>  (899) 
2b0f

>  <lig_resn>  (899) 
None

>  <lig_resi>  (899) 
1

>  <lig_chain>  (899) 
B

>  <lig_segi>  (899) 


>  <lig_alt>  (899) 


>  <polymer_chain>  (899) 
A

>  <single_smiles>  (899) 
None

$$$$
polymerS9
     RDKit          3D

 24 24  0  0  0  0  0  0  0  0999 V2000
   -9.7190   12.5240  -34.7630 C   0  0  0  0  0  0  0  0  0  0  0  0
   -8.4470   11.8470  -34.2880 C   0  0  0  0  0  0  0  0  0  0  0  0
   -9.8560   12.2790  -36.2650 C   0  0  0  0  0  0  0  0  0  0  0  0
   -8.5240   10.6110  -33.8090 N   0  0  0  0  0  0  0  0  0  0  0  0
   -7.3750   12.4480  -34.3620 O   0  0  0  0  0  0  0  0  0  0  0  0
  -11.0400   12.9250  -36.9220 C   0  0  0  0  0  0  0  0  0  0  0  0
   -7.3190    9.9670  -33.3460 C   0  0  1  0  0  0  0  0  0  0  0  0
  -12.3100   12.8260  -36.3750 C   0  0  0  0  0  0  0  0  0  0  0  0
  -10.8770   13.6090  -38.1140 C   0  0  0  0  0  0  0  0  0  0  0  0
   -7.3310    9.8470  -31.8170 C   0  0  0  0  0  0  0  0  0  0  0  0
   -7.0030    8.6240  -34.0690 C   0  0  0  0  0  0  0  0  0  0  0  0
  -13.3920   13.4040  -37.0080 C   0  0  0  0  0  0  0  0  0  0  0  0
  -11.9550   14.1810  -38.7530 C   0  0  0  0  0  0  0  0  0  0  0  0
   -7.1160   11.1980  -31.1200 C   0  0  0  0  0  0  0  0  0  0  0  0
   -5.9970    8.9560  -35.1740 C   0  0  0  0  0  0  0  0  0  0  0  0
  -13.2150   14.0820  -38.2020 C   0  0  0  0  0  0  0  0  0  0  0  0
   -7.1690   11.1210  -29.6010 C   0  0  0  0  0  0  0  0  0  0  0  0
   -5.3280    7.7460  -35.7790 C   0  0  0  0  0  0  0  0  0  0  0  0
   -6.5930   12.1190  -28.9300 N   0  0  0  0  0  0  0  0  0  0  0  0
   -7.7330   10.1910  -29.0350 O   0  0  0  0  0  0  0  0  0  0  0  0
   -5.6140    6.6180  -35.3820 O   0  0  0  0  0  0  0  0  0  0  0  0
   -4.4850    7.9540  -36.6840 O   0  0  0  0  0  0  0  0  0  0  0  0
   -3.6950    6.8460  -37.4040 C   0  0  0  0  0  0  0  0  0  0  0  0
   -2.6800    7.1950  -38.4770 C   0  0  0  0  0  0  0  0  0  0  0  0
  1  2  1  0
  1  3  1  6
  4  2  1  0
  2  5  1  0
  3  6  1  0
  4  7  1  0
  6  8  1  0
  6  9  1  0
  7 10  1  1
  7 11  1  0
  8 12  1  0
  9 13  1  0
 10 14  1  0
 11 15  1  0
 12 16  1  0
 13 16  1  0
 14 17  1  0
 15 18  1  0
 17 19  1  0
 17 20  1  0
 18 21  1  0
 18 22  1  0
 23 22  1  0
 23 24  1  0
A    2
 C1 
A    3
 C5 
A    4
 N1 
A    5
 O1 
A    6
 C6 
A    7
 C3 
A    8
 C7 
A    9
 C8 
A   10
 C5 
A   11
 C38
A   12
 C29
A   13
 C30
A   14
 C6 
A   15
 C39
A   16
 C31
A   17
 C13
A   18
 C40
A   19
 N7 
A   20
 O4 
A   21
 O10
A   22
 O11
A   23
 C36
A   24
 C37
M  END
>  <XChem_code>  (900) 
polymer

>  <Occupancy>  (900) 
[1.0, 1.0, 1.0, 1.0, 1.0, 1.0, 1.0, 1.0, 1.0, 1.0, 1.0, 1.0, 1.0, 1.0, 1.0, 1.0, 1.0, 1.0, 1.0, 1.0, 1.0, 1.0, 1.0, 1.0, 1.0, 1.0, 1.0, 1.0, 1.0, 1.0, 1.0, 1.0, 1.0, 1.0, 1.0, 1.0, 1.0, 1.0, 1.0, 1.0, 1.0, 1.0, 1.0, 1.0, 1.0, 1.0, 1.0, 1.0, 1.0, 1.0, 1.0, 1.0, 1.0, 1.0, 1.0, 1.0, 1.0, 1.0]

>  <TempFactor>  (900) 
[0.0, 0.0, 0.0, 0.0, 0.0, 0.0, 0.0, 0.0, 0.0, 0.0, 0.0, 0.0, 0.0, 0.0, 0.0, 0.0, 0.0, 0.0, 0.0, 0.0, 0.0, 0.0, 0.0, 0.0, 0.0, 0.0, 0.0, 0.0, 0.0, 0.0, 0.0, 0.0, 0.0, 0.0, 0.0, 0.0, 0.0, 0.0, 0.0, 0.0, 0.0, 0.0, 0.0, 0.0, 0.0, 0.0, 0.0, 0.0, 0.0, 0.0, 0.0, 0.0, 0.0, 0.0, 0.0, 0.0, 0.0, 0.0]

>  <base_name>  (900) 
2b0f

>  <lig_resn>  (900) 
None

>  <lig_resi>  (900) 
1

>  <lig_chain>  (900) 
B

>  <lig_segi>  (900) 


>  <lig_alt>  (900) 


>  <polymer_chain>  (900) 
A

>  <single_smiles>  (900) 
None

$$$$
polymerS10
     RDKit          3D

 34 33  0  0  0  0  0  0  0  0999 V2000
   -9.6030   13.9290  -34.4410 N   0  0  0  0  0  0  0  0  0  0  0  0
   -9.4760   14.3090  -33.1760 C   0  0  0  0  0  0  0  0  0  0  0  0
   -9.2690   15.7910  -32.9510 C   0  0  1  0  0  0  0  0  0  0  0  0
   -9.5290   13.5200  -32.2290 O   0  0  0  0  0  0  0  0  0  0  0  0
   -9.7350   16.2520  -31.6700 N   0  0  0  0  0  0  0  0  0  0  0  0
   -7.7900   16.0900  -33.0900 C   0  0  0  0  0  0  0  0  0  0  0  0
  -10.8520   16.9140  -31.5780 C   0  0  0  0  0  0  0  0  0  0  0  0
   -7.1690   15.4980  -34.3400 C   0  0  0  0  0  0  0  0  0  0  0  0
  -11.2320   17.4190  -30.2140 C   0  0  1  0  0  0  0  0  0  0  0  0
  -11.5590   17.1540  -32.5510 O   0  0  0  0  0  0  0  0  0  0  0  0
   -7.6760   16.2470  -35.5700 C   0  0  0  0  0  0  0  0  0  0  0  0
   -5.6520   15.5520  -34.2470 C   0  0  0  0  0  0  0  0  0  0  0  0
  -11.9720   18.6270  -30.4030 N   0  0  0  0  0  0  0  0  0  0  0  0
  -12.0320   16.4040  -29.4200 C   0  0  0  0  0  0  0  0  0  0  0  0
  -11.3450   19.7670  -30.6210 C   0  0  1  0  0  0  0  0  0  0  0  0
  -12.2360   20.9510  -30.8060 C   0  0  1  0  0  0  0  0  0  0  0  0
  -10.1190   19.8830  -30.5960 O   0  0  0  0  0  0  0  0  0  0  0  0
  -12.5790   21.3540  -29.4810 N   0  0  0  0  0  0  0  0  0  0  0  0
  -11.5450   22.0000  -31.6560 C   0  0  0  0  0  0  0  0  0  0  0  0
  -13.8200   21.2840  -29.0930 C   0  0  0  0  0  0  0  0  0  0  0  0
  -11.2540   21.4640  -33.0520 C   0  0  0  0  0  0  0  0  0  0  0  0
  -14.0680   21.5380  -27.6320 C   0  0  1  0  0  0  0  0  0  0  0  0
  -14.7460   21.0290  -29.8620 O   0  0  0  0  0  0  0  0  0  0  0  0
  -10.4830   22.4400  -33.9180 C   0  0  0  0  0  0  0  0  0  0  0  0
  -15.3620   22.1790  -27.4390 N   0  0  0  0  0  0  0  0  0  0  0  0
  -13.9740   20.1330  -27.0070 C   0  0  0  0  0  0  0  0  0  0  0  0
  -11.1230   23.2880  -34.5660 O   0  0  0  0  0  0  0  0  0  0  0  0
   -9.2440   22.3600  -33.9420 O   0  0  0  0  0  0  0  0  0  0  0  0
  -15.4630   23.2690  -26.7060 C   0  0  1  0  0  0  0  0  0  0  0  0
  -14.0270   19.9780  -25.4860 C   0  0  0  0  0  0  0  0  0  0  0  0
  -14.4890   23.9180  -26.3430 O   0  0  0  0  0  0  0  0  0  0  0  0
  -16.8540   23.8480  -26.6190 C   0  0  0  0  0  0  0  0  0  0  0  0
  -13.2440   21.0650  -24.7650 C   0  0  0  0  0  0  0  0  0  0  0  0
  -15.4650   19.9240  -25.0200 C   0  0  0  0  0  0  0  0  0  0  0  0
  1  2  1  0
  3  2  1  0
  2  4  1  0
  5  3  1  0
  3  6  1  1
  5  7  1  0
  6  8  1  0
  9  7  1  0
  7 10  1  0
  8 11  1  0
  8 12  1  0
 13  9  1  0
  9 14  1  6
 13 15  1  0
 16 15  1  0
 15 17  1  1
 18 16  1  0
 16 19  1  1
 18 20  1  0
 19 21  1  0
 22 20  1  0
 20 23  1  0
 21 24  1  0
 25 22  1  0
 22 26  1  1
 24 27  1  0
 24 28  1  0
 25 29  1  0
 26 30  1  0
 29 31  1  0
 29 32  1  6
 30 33  1  0
 30 34  1  0
M  CHG  1  28  -1
A    2
 C1 
A    3
 C3 
A    4
 O1 
A    5
 N1 
A    6
 C5 
A    7
 C1 
A    8
 C6 
A    9
 C3 
A   10
 O1 
A   11
 C7 
A   12
 C8 
A   13
 N1 
A   14
 C5 
A   15
 C1 
A   16
 C3 
A   17
 O1 
A   18
 N1 
A   19
 C5 
A   20
 C1 
A   21
 C6 
A   22
 C3 
A   23
 O1 
A   24
 C13
A   25
 N1 
A   26
 C5 
A   27
 O4 
A   28
 O5 
A   29
 C1 
A   30
 C6 
A   31
 O1 
A   32
 C2 
A   33
 C7 
A   34
 C8 
M  END
>  <XChem_code>  (901) 
polymer

>  <Occupancy>  (901) 
[1.0, 1.0, 1.0, 1.0, 1.0, 1.0, 1.0, 1.0, 1.0, 1.0, 1.0, 1.0, 1.0, 1.0, 1.0, 1.0, 1.0, 1.0, 1.0, 1.0, 1.0, 1.0, 1.0, 1.0, 1.0, 1.0, 1.0, 1.0, 1.0, 1.0, 1.0, 1.0, 1.0, 1.0, 1.0, 1.0, 1.0, 1.0, 1.0, 1.0, 1.0, 1.0, 1.0, 1.0, 1.0, 1.0, 1.0, 1.0, 1.0, 1.0, 1.0, 1.0, 1.0, 1.0, 1.0, 1.0, 1.0, 1.0]

>  <TempFactor>  (901) 
[0.0, 0.0, 0.0, 0.0, 0.0, 0.0, 0.0, 0.0, 0.0, 0.0, 0.0, 0.0, 0.0, 0.0, 0.0, 0.0, 0.0, 0.0, 0.0, 0.0, 0.0, 0.0, 0.0, 0.0, 0.0, 0.0, 0.0, 0.0, 0.0, 0.0, 0.0, 0.0, 0.0, 0.0, 0.0, 0.0, 0.0, 0.0, 0.0, 0.0, 0.0, 0.0, 0.0, 0.0, 0.0, 0.0, 0.0, 0.0, 0.0, 0.0, 0.0, 0.0, 0.0, 0.0, 0.0, 0.0, 0.0, 0.0]

>  <base_name>  (901) 
2b0f

>  <lig_resn>  (901) 
None

>  <lig_resi>  (901) 
1

>  <lig_chain>  (901) 
B

>  <lig_segi>  (901) 


>  <lig_alt>  (901) 


>  <polymer_chain>  (901) 
A

>  <single_smiles>  (901) 
None

$$$$
polymerS11
     RDKit          3D

 13 12  0  0  0  0  0  0  0  0999 V2000
   -7.3190    9.9670  -33.3460 C   0  0  0  0  0  0  0  0  0  0  0  0
   -7.3310    9.8470  -31.8170 C   0  0  0  0  0  0  0  0  0  0  0  0
   -7.0030    8.6240  -34.0690 C   0  0  0  0  0  0  0  0  0  0  0  0
   -7.1160   11.1980  -31.1200 C   0  0  0  0  0  0  0  0  0  0  0  0
   -5.9970    8.9560  -35.1740 C   0  0  0  0  0  0  0  0  0  0  0  0
   -7.1690   11.1210  -29.6010 C   0  0  0  0  0  0  0  0  0  0  0  0
   -5.3280    7.7460  -35.7790 C   0  0  0  0  0  0  0  0  0  0  0  0
   -6.5930   12.1190  -28.9300 N   0  0  0  0  0  0  0  0  0  0  0  0
   -7.7330   10.1910  -29.0350 O   0  0  0  0  0  0  0  0  0  0  0  0
   -5.6140    6.6180  -35.3820 O   0  0  0  0  0  0  0  0  0  0  0  0
   -4.4850    7.9540  -36.6840 O   0  0  0  0  0  0  0  0  0  0  0  0
   -3.6950    6.8460  -37.4040 C   0  0  0  0  0  0  0  0  0  0  0  0
   -2.6800    7.1950  -38.4770 C   0  0  0  0  0  0  0  0  0  0  0  0
  1  2  1  6
  1  3  1  0
  2  4  1  0
  3  5  1  0
  4  6  1  0
  5  7  1  0
  6  8  1  0
  6  9  1  0
  7 10  1  0
  7 11  1  0
 12 11  1  0
 12 13  1  0
A    2
 C5 
A    3
 C38
A    4
 C6 
A    5
 C39
A    6
 C13
A    7
 C40
A    8
 N7 
A    9
 O4 
A   10
 O10
A   11
 O11
A   12
 C36
A   13
 C37
M  END
>  <XChem_code>  (902) 
polymer

>  <Occupancy>  (902) 
[1.0, 1.0, 1.0, 1.0, 1.0, 1.0, 1.0, 1.0, 1.0, 1.0, 1.0, 1.0, 1.0, 1.0, 1.0, 1.0, 1.0, 1.0, 1.0, 1.0, 1.0, 1.0, 1.0, 1.0, 1.0, 1.0, 1.0, 1.0, 1.0, 1.0, 1.0, 1.0, 1.0, 1.0, 1.0, 1.0, 1.0, 1.0, 1.0, 1.0, 1.0, 1.0, 1.0, 1.0, 1.0, 1.0, 1.0, 1.0, 1.0, 1.0, 1.0, 1.0, 1.0, 1.0, 1.0, 1.0, 1.0, 1.0]

>  <TempFactor>  (902) 
[0.0, 0.0, 0.0, 0.0, 0.0, 0.0, 0.0, 0.0, 0.0, 0.0, 0.0, 0.0, 0.0, 0.0, 0.0, 0.0, 0.0, 0.0, 0.0, 0.0, 0.0, 0.0, 0.0, 0.0, 0.0, 0.0, 0.0, 0.0, 0.0, 0.0, 0.0, 0.0, 0.0, 0.0, 0.0, 0.0, 0.0, 0.0, 0.0, 0.0, 0.0, 0.0, 0.0, 0.0, 0.0, 0.0, 0.0, 0.0, 0.0, 0.0, 0.0, 0.0, 0.0, 0.0, 0.0, 0.0, 0.0, 0.0]

>  <base_name>  (902) 
2b0f

>  <lig_resn>  (902) 
None

>  <lig_resi>  (902) 
1

>  <lig_chain>  (902) 
B

>  <lig_segi>  (902) 


>  <lig_alt>  (902) 


>  <polymer_chain>  (902) 
A

>  <single_smiles>  (902) 
None

$$$$
polymerS12
     RDKit          3D

 45 45  0  0  0  0  0  0  0  0999 V2000
   -8.5240   10.6110  -33.8090 N   0  0  0  0  0  0  0  0  0  0  0  0
   -8.4470   11.8470  -34.2880 C   0  0  0  0  0  0  0  0  0  0  0  0
   -9.7190   12.5240  -34.7630 C   0  0  1  0  0  0  0  0  0  0  0  0
   -7.3750   12.4480  -34.3620 O   0  0  0  0  0  0  0  0  0  0  0  0
   -9.6030   13.9290  -34.4410 N   0  0  0  0  0  0  0  0  0  0  0  0
   -9.8560   12.2790  -36.2650 C   0  0  0  0  0  0  0  0  0  0  0  0
   -9.4760   14.3090  -33.1760 C   0  0  0  0  0  0  0  0  0  0  0  0
  -11.0400   12.9250  -36.9220 C   0  0  0  0  0  0  0  0  0  0  0  0
   -9.2690   15.7910  -32.9510 C   0  0  1  0  0  0  0  0  0  0  0  0
   -9.5290   13.5200  -32.2290 O   0  0  0  0  0  0  0  0  0  0  0  0
  -12.3100   12.8260  -36.3750 C   0  0  0  0  0  0  0  0  0  0  0  0
  -10.8770   13.6090  -38.1140 C   0  0  0  0  0  0  0  0  0  0  0  0
   -9.7350   16.2520  -31.6700 N   0  0  0  0  0  0  0  0  0  0  0  0
   -7.7900   16.0900  -33.0900 C   0  0  0  0  0  0  0  0  0  0  0  0
  -13.3920   13.4040  -37.0080 C   0  0  0  0  0  0  0  0  0  0  0  0
  -11.9550   14.1810  -38.7530 C   0  0  0  0  0  0  0  0  0  0  0  0
  -10.8520   16.9140  -31.5780 C   0  0  0  0  0  0  0  0  0  0  0  0
   -7.1690   15.4980  -34.3400 C   0  0  0  0  0  0  0  0  0  0  0  0
  -13.2150   14.0820  -38.2020 C   0  0  0  0  0  0  0  0  0  0  0  0
  -11.2320   17.4190  -30.2140 C   0  0  1  0  0  0  0  0  0  0  0  0
  -11.5590   17.1540  -32.5510 O   0  0  0  0  0  0  0  0  0  0  0  0
   -7.6760   16.2470  -35.5700 C   0  0  0  0  0  0  0  0  0  0  0  0
   -5.6520   15.5520  -34.2470 C   0  0  0  0  0  0  0  0  0  0  0  0
  -11.9720   18.6270  -30.4030 N   0  0  0  0  0  0  0  0  0  0  0  0
  -12.0320   16.4040  -29.4200 C   0  0  0  0  0  0  0  0  0  0  0  0
  -11.3450   19.7670  -30.6210 C   0  0  1  0  0  0  0  0  0  0  0  0
  -12.2360   20.9510  -30.8060 C   0  0  1  0  0  0  0  0  0  0  0  0
  -10.1190   19.8830  -30.5960 O   0  0  0  0  0  0  0  0  0  0  0  0
  -12.5790   21.3540  -29.4810 N   0  0  0  0  0  0  0  0  0  0  0  0
  -11.5450   22.0000  -31.6560 C   0  0  0  0  0  0  0  0  0  0  0  0
  -13.8200   21.2840  -29.0930 C   0  0  0  0  0  0  0  0  0  0  0  0
  -11.2540   21.4640  -33.0520 C   0  0  0  0  0  0  0  0  0  0  0  0
  -14.0680   21.5380  -27.6320 C   0  0  1  0  0  0  0  0  0  0  0  0
  -14.7460   21.0290  -29.8620 O   0  0  0  0  0  0  0  0  0  0  0  0
  -10.4830   22.4400  -33.9180 C   0  0  0  0  0  0  0  0  0  0  0  0
  -15.3620   22.1790  -27.4390 N   0  0  0  0  0  0  0  0  0  0  0  0
  -13.9740   20.1330  -27.0070 C   0  0  0  0  0  0  0  0  0  0  0  0
  -11.1230   23.2880  -34.5660 O   0  0  0  0  0  0  0  0  0  0  0  0
   -9.2440   22.3600  -33.9420 O   0  0  0  0  0  0  0  0  0  0  0  0
  -15.4630   23.2690  -26.7060 C   0  0  1  0  0  0  0  0  0  0  0  0
  -14.0270   19.9780  -25.4860 C   0  0  0  0  0  0  0  0  0  0  0  0
  -14.4890   23.9180  -26.3430 O   0  0  0  0  0  0  0  0  0  0  0  0
  -16.8540   23.8480  -26.6190 C   0  0  0  0  0  0  0  0  0  0  0  0
  -13.2440   21.0650  -24.7650 C   0  0  0  0  0  0  0  0  0  0  0  0
  -15.4650   19.9240  -25.0200 C   0  0  0  0  0  0  0  0  0  0  0  0
  1  2  1  0
  3  2  1  0
  2  4  1  0
  5  3  1  0
  3  6  1  6
  5  7  1  0
  6  8  1  0
  9  7  1  0
  7 10  1  0
  8 11  1  0
  8 12  1  0
 13  9  1  0
  9 14  1  1
 11 15  1  0
 12 16  1  0
 13 17  1  0
 14 18  1  0
 15 19  1  0
 16 19  1  0
 20 17  1  0
 17 21  1  0
 18 22  1  0
 18 23  1  0
 24 20  1  0
 20 25  1  6
 24 26  1  0
 27 26  1  0
 26 28  1  1
 29 27  1  0
 27 30  1  1
 29 31  1  0
 30 32  1  0
 33 31  1  0
 31 34  1  0
 32 35  1  0
 36 33  1  0
 33 37  1  1
 35 38  1  0
 35 39  1  0
 36 40  1  0
 37 41  1  0
 40 42  1  0
 40 43  1  6
 41 44  1  0
 41 45  1  0
M  CHG  1  39  -1
A    2
 C1 
A    3
 C3 
A    4
 O1 
A    5
 N1 
A    6
 C5 
A    7
 C1 
A    8
 C6 
A    9
 C3 
A   10
 O1 
A   11
 C7 
A   12
 C8 
A   13
 N1 
A   14
 C5 
A   15
 C29
A   16
 C30
A   17
 C1 
A   18
 C6 
A   19
 C31
A   20
 C3 
A   21
 O1 
A   22
 C7 
A   23
 C8 
A   24
 N1 
A   25
 C5 
A   26
 C1 
A   27
 C3 
A   28
 O1 
A   29
 N1 
A   30
 C5 
A   31
 C1 
A   32
 C6 
A   33
 C3 
A   34
 O1 
A   35
 C13
A   36
 N1 
A   37
 C5 
A   38
 O4 
A   39
 O5 
A   40
 C1 
A   41
 C6 
A   42
 O1 
A   43
 C2 
A   44
 C7 
A   45
 C8 
M  END
>  <XChem_code>  (903) 
polymer

>  <Occupancy>  (903) 
[1.0, 1.0, 1.0, 1.0, 1.0, 1.0, 1.0, 1.0, 1.0, 1.0, 1.0, 1.0, 1.0, 1.0, 1.0, 1.0, 1.0, 1.0, 1.0, 1.0, 1.0, 1.0, 1.0, 1.0, 1.0, 1.0, 1.0, 1.0, 1.0, 1.0, 1.0, 1.0, 1.0, 1.0, 1.0, 1.0, 1.0, 1.0, 1.0, 1.0, 1.0, 1.0, 1.0, 1.0, 1.0, 1.0, 1.0, 1.0, 1.0, 1.0, 1.0, 1.0, 1.0, 1.0, 1.0, 1.0, 1.0, 1.0]

>  <TempFactor>  (903) 
[0.0, 0.0, 0.0, 0.0, 0.0, 0.0, 0.0, 0.0, 0.0, 0.0, 0.0, 0.0, 0.0, 0.0, 0.0, 0.0, 0.0, 0.0, 0.0, 0.0, 0.0, 0.0, 0.0, 0.0, 0.0, 0.0, 0.0, 0.0, 0.0, 0.0, 0.0, 0.0, 0.0, 0.0, 0.0, 0.0, 0.0, 0.0, 0.0, 0.0, 0.0, 0.0, 0.0, 0.0, 0.0, 0.0, 0.0, 0.0, 0.0, 0.0, 0.0, 0.0, 0.0, 0.0, 0.0, 0.0, 0.0, 0.0]

>  <base_name>  (903) 
2b0f

>  <lig_resn>  (903) 
None

>  <lig_resi>  (903) 
1

>  <lig_chain>  (903) 
B

>  <lig_segi>  (903) 


>  <lig_alt>  (903) 


>  <polymer_chain>  (903) 
A

>  <single_smiles>  (903) 
None

$$$$
polymerS13
     RDKit          3D

 11 10  0  0  0  0  0  0  0  0999 V2000
  -13.8200   21.2840  -29.0930 C   0  0  0  0  0  0  0  0  0  0  0  0
  -14.0680   21.5380  -27.6320 C   0  0  1  0  0  0  0  0  0  0  0  0
  -14.7460   21.0290  -29.8620 O   0  0  0  0  0  0  0  0  0  0  0  0
  -15.3620   22.1790  -27.4390 N   0  0  0  0  0  0  0  0  0  0  0  0
  -13.9740   20.1330  -27.0070 C   0  0  0  0  0  0  0  0  0  0  0  0
  -15.4630   23.2690  -26.7060 C   0  0  1  0  0  0  0  0  0  0  0  0
  -14.0270   19.9780  -25.4860 C   0  0  0  0  0  0  0  0  0  0  0  0
  -14.4890   23.9180  -26.3430 O   0  0  0  0  0  0  0  0  0  0  0  0
  -16.8540   23.8480  -26.6190 C   0  0  0  0  0  0  0  0  0  0  0  0
  -13.2440   21.0650  -24.7650 C   0  0  0  0  0  0  0  0  0  0  0  0
  -15.4650   19.9240  -25.0200 C   0  0  0  0  0  0  0  0  0  0  0  0
  2  1  1  6
  1  3  1  0
  4  2  1  0
  2  5  1  0
  4  6  1  0
  5  7  1  0
  6  8  1  0
  6  9  1  6
  7 10  1  0
  7 11  1  0
A    2
 C3 
A    3
 O1 
A    4
 N1 
A    5
 C5 
A    6
 C1 
A    7
 C6 
A    8
 O1 
A    9
 C2 
A   10
 C7 
A   11
 C8 
M  END
>  <XChem_code>  (904) 
polymer

>  <Occupancy>  (904) 
[1.0, 1.0, 1.0, 1.0, 1.0, 1.0, 1.0, 1.0, 1.0, 1.0, 1.0, 1.0, 1.0, 1.0, 1.0, 1.0, 1.0, 1.0, 1.0, 1.0, 1.0, 1.0, 1.0, 1.0, 1.0, 1.0, 1.0, 1.0, 1.0, 1.0, 1.0, 1.0, 1.0, 1.0, 1.0, 1.0, 1.0, 1.0, 1.0, 1.0, 1.0, 1.0, 1.0, 1.0, 1.0, 1.0, 1.0, 1.0, 1.0, 1.0, 1.0, 1.0, 1.0, 1.0, 1.0, 1.0, 1.0, 1.0]

>  <TempFactor>  (904) 
[0.0, 0.0, 0.0, 0.0, 0.0, 0.0, 0.0, 0.0, 0.0, 0.0, 0.0, 0.0, 0.0, 0.0, 0.0, 0.0, 0.0, 0.0, 0.0, 0.0, 0.0, 0.0, 0.0, 0.0, 0.0, 0.0, 0.0, 0.0, 0.0, 0.0, 0.0, 0.0, 0.0, 0.0, 0.0, 0.0, 0.0, 0.0, 0.0, 0.0, 0.0, 0.0, 0.0, 0.0, 0.0, 0.0, 0.0, 0.0, 0.0, 0.0, 0.0, 0.0, 0.0, 0.0, 0.0, 0.0, 0.0, 0.0]

>  <base_name>  (904) 
2b0f

>  <lig_resn>  (904) 
None

>  <lig_resi>  (904) 
1

>  <lig_chain>  (904) 
B

>  <lig_segi>  (904) 


>  <lig_alt>  (904) 


>  <polymer_chain>  (904) 
A

>  <single_smiles>  (904) 
None

$$$$
polymerS14
     RDKit          3D

 47 47  0  0  0  0  0  0  0  0999 V2000
  -12.5790   21.3540  -29.4810 N   0  0  0  0  0  0  0  0  0  0  0  0
  -12.2360   20.9510  -30.8060 C   0  0  2  0  0  0  0  0  0  0  0  0
  -11.3450   19.7670  -30.6210 C   0  0  2  0  0  0  0  0  0  0  0  0
  -11.5450   22.0000  -31.6560 C   0  0  0  0  0  0  0  0  0  0  0  0
  -11.9720   18.6270  -30.4030 N   0  0  0  0  0  0  0  0  0  0  0  0
  -10.1190   19.8830  -30.5960 O   0  0  0  0  0  0  0  0  0  0  0  0
  -11.2540   21.4640  -33.0520 C   0  0  0  0  0  0  0  0  0  0  0  0
  -11.2320   17.4190  -30.2140 C   0  0  2  0  0  0  0  0  0  0  0  0
  -10.4830   22.4400  -33.9180 C   0  0  0  0  0  0  0  0  0  0  0  0
  -10.8520   16.9140  -31.5780 C   0  0  0  0  0  0  0  0  0  0  0  0
  -12.0320   16.4040  -29.4200 C   0  0  0  0  0  0  0  0  0  0  0  0
  -11.1230   23.2880  -34.5660 O   0  0  0  0  0  0  0  0  0  0  0  0
   -9.2440   22.3600  -33.9420 O   0  0  0  0  0  0  0  0  0  0  0  0
   -9.7350   16.2520  -31.6700 N   0  0  0  0  0  0  0  0  0  0  0  0
  -11.5590   17.1540  -32.5510 O   0  0  0  0  0  0  0  0  0  0  0  0
   -9.2690   15.7910  -32.9510 C   0  0  2  0  0  0  0  0  0  0  0  0
   -9.4760   14.3090  -33.1760 C   0  0  0  0  0  0  0  0  0  0  0  0
   -7.7900   16.0900  -33.0900 C   0  0  0  0  0  0  0  0  0  0  0  0
   -9.6030   13.9290  -34.4410 N   0  0  0  0  0  0  0  0  0  0  0  0
   -9.5290   13.5200  -32.2290 O   0  0  0  0  0  0  0  0  0  0  0  0
   -7.1690   15.4980  -34.3400 C   0  0  0  0  0  0  0  0  0  0  0  0
   -9.7190   12.5240  -34.7630 C   0  0  2  0  0  0  0  0  0  0  0  0
   -7.6760   16.2470  -35.5700 C   0  0  0  0  0  0  0  0  0  0  0  0
   -5.6520   15.5520  -34.2470 C   0  0  0  0  0  0  0  0  0  0  0  0
   -8.4470   11.8470  -34.2880 C   0  0  0  0  0  0  0  0  0  0  0  0
   -9.8560   12.2790  -36.2650 C   0  0  0  0  0  0  0  0  0  0  0  0
   -8.5240   10.6110  -33.8090 N   0  0  0  0  0  0  0  0  0  0  0  0
   -7.3750   12.4480  -34.3620 O   0  0  0  0  0  0  0  0  0  0  0  0
  -11.0400   12.9250  -36.9220 C   0  0  0  0  0  0  0  0  0  0  0  0
   -7.3190    9.9670  -33.3460 C   0  0  1  0  0  0  0  0  0  0  0  0
  -12.3100   12.8260  -36.3750 C   0  0  0  0  0  0  0  0  0  0  0  0
  -10.8770   13.6090  -38.1140 C   0  0  0  0  0  0  0  0  0  0  0  0
   -7.3310    9.8470  -31.8170 C   0  0  0  0  0  0  0  0  0  0  0  0
   -7.0030    8.6240  -34.0690 C   0  0  0  0  0  0  0  0  0  0  0  0
  -13.3920   13.4040  -37.0080 C   0  0  0  0  0  0  0  0  0  0  0  0
  -11.9550   14.1810  -38.7530 C   0  0  0  0  0  0  0  0  0  0  0  0
   -7.1160   11.1980  -31.1200 C   0  0  0  0  0  0  0  0  0  0  0  0
   -5.9970    8.9560  -35.1740 C   0  0  0  0  0  0  0  0  0  0  0  0
  -13.2150   14.0820  -38.2020 C   0  0  0  0  0  0  0  0  0  0  0  0
   -7.1690   11.1210  -29.6010 C   0  0  0  0  0  0  0  0  0  0  0  0
   -5.3280    7.7460  -35.7790 C   0  0  0  0  0  0  0  0  0  0  0  0
   -6.5930   12.1190  -28.9300 N   0  0  0  0  0  0  0  0  0  0  0  0
   -7.7330   10.1910  -29.0350 O   0  0  0  0  0  0  0  0  0  0  0  0
   -5.6140    6.6180  -35.3820 O   0  0  0  0  0  0  0  0  0  0  0  0
   -4.4850    7.9540  -36.6840 O   0  0  0  0  0  0  0  0  0  0  0  0
   -3.6950    6.8460  -37.4040 C   0  0  0  0  0  0  0  0  0  0  0  0
   -2.6800    7.1950  -38.4770 C   0  0  0  0  0  0  0  0  0  0  0  0
  2  1  1  1
  2  3  1  0
  2  4  1  0
  5  3  1  0
  3  6  1  1
  4  7  1  0
  5  8  1  0
  7  9  1  0
  8 10  1  0
  8 11  1  6
  9 12  1  0
  9 13  1  0
 14 10  1  0
 10 15  1  0
 14 16  1  0
 16 17  1  0
 16 18  1  1
 19 17  1  0
 17 20  1  0
 18 21  1  0
 19 22  1  0
 21 23  1  0
 21 24  1  0
 22 25  1  0
 22 26  1  6
 27 25  1  0
 25 28  1  0
 26 29  1  0
 27 30  1  0
 29 31  1  0
 29 32  1  0
 30 33  1  1
 30 34  1  0
 31 35  1  0
 32 36  1  0
 33 37  1  0
 34 38  1  0
 35 39  1  0
 36 39  1  0
 37 40  1  0
 38 41  1  0
 40 42  1  0
 40 43  1  0
 41 44  1  0
 41 45  1  0
 46 45  1  0
 46 47  1  0
M  CHG  1  13  -1
A    2
 C3 
A    3
 C1 
A    4
 C5 
A    5
 N1 
A    6
 O1 
A    7
 C6 
A    8
 C3 
A    9
 C13
A   10
 C1 
A   11
 C5 
A   12
 O4 
A   13
 O5 
A   14
 N1 
A   15
 O1 
A   16
 C3 
A   17
 C1 
A   18
 C5 
A   19
 N1 
A   20
 O1 
A   21
 C6 
A   22
 C3 
A   23
 C7 
A   24
 C8 
A   25
 C1 
A   26
 C5 
A   27
 N1 
A   28
 O1 
A   29
 C6 
A   30
 C3 
A   31
 C7 
A   32
 C8 
A   33
 C5 
A   34
 C38
A   35
 C29
A   36
 C30
A   37
 C6 
A   38
 C39
A   39
 C31
A   40
 C13
A   41
 C40
A   42
 N7 
A   43
 O4 
A   44
 O10
A   45
 O11
A   46
 C36
A   47
 C37
M  END
>  <XChem_code>  (905) 
polymer

>  <Occupancy>  (905) 
[1.0, 1.0, 1.0, 1.0, 1.0, 1.0, 1.0, 1.0, 1.0, 1.0, 1.0, 1.0, 1.0, 1.0, 1.0, 1.0, 1.0, 1.0, 1.0, 1.0, 1.0, 1.0, 1.0, 1.0, 1.0, 1.0, 1.0, 1.0, 1.0, 1.0, 1.0, 1.0, 1.0, 1.0, 1.0, 1.0, 1.0, 1.0, 1.0, 1.0, 1.0, 1.0, 1.0, 1.0, 1.0, 1.0, 1.0, 1.0, 1.0, 1.0, 1.0, 1.0, 1.0, 1.0, 1.0, 1.0, 1.0, 1.0]

>  <TempFactor>  (905) 
[0.0, 0.0, 0.0, 0.0, 0.0, 0.0, 0.0, 0.0, 0.0, 0.0, 0.0, 0.0, 0.0, 0.0, 0.0, 0.0, 0.0, 0.0, 0.0, 0.0, 0.0, 0.0, 0.0, 0.0, 0.0, 0.0, 0.0, 0.0, 0.0, 0.0, 0.0, 0.0, 0.0, 0.0, 0.0, 0.0, 0.0, 0.0, 0.0, 0.0, 0.0, 0.0, 0.0, 0.0, 0.0, 0.0, 0.0, 0.0, 0.0, 0.0, 0.0, 0.0, 0.0, 0.0, 0.0, 0.0, 0.0, 0.0]

>  <base_name>  (905) 
2b0f

>  <lig_resn>  (905) 
None

>  <lig_resi>  (905) 
1

>  <lig_chain>  (905) 
B

>  <lig_segi>  (905) 


>  <lig_alt>  (905) 


>  <polymer_chain>  (905) 
A

>  <single_smiles>  (905) 
None

$$$$
polymerS15
     RDKit          3D

 20 19  0  0  0  0  0  0  0  0999 V2000
  -11.3450   19.7670  -30.6210 C   0  0  0  0  0  0  0  0  0  0  0  0
  -12.2360   20.9510  -30.8060 C   0  0  1  0  0  0  0  0  0  0  0  0
  -10.1190   19.8830  -30.5960 O   0  0  0  0  0  0  0  0  0  0  0  0
  -12.5790   21.3540  -29.4810 N   0  0  0  0  0  0  0  0  0  0  0  0
  -11.5450   22.0000  -31.6560 C   0  0  0  0  0  0  0  0  0  0  0  0
  -13.8200   21.2840  -29.0930 C   0  0  0  0  0  0  0  0  0  0  0  0
  -11.2540   21.4640  -33.0520 C   0  0  0  0  0  0  0  0  0  0  0  0
  -14.0680   21.5380  -27.6320 C   0  0  1  0  0  0  0  0  0  0  0  0
  -14.7460   21.0290  -29.8620 O   0  0  0  0  0  0  0  0  0  0  0  0
  -10.4830   22.4400  -33.9180 C   0  0  0  0  0  0  0  0  0  0  0  0
  -15.3620   22.1790  -27.4390 N   0  0  0  0  0  0  0  0  0  0  0  0
  -13.9740   20.1330  -27.0070 C   0  0  0  0  0  0  0  0  0  0  0  0
  -11.1230   23.2880  -34.5660 O   0  0  0  0  0  0  0  0  0  0  0  0
   -9.2440   22.3600  -33.9420 O   0  0  0  0  0  0  0  0  0  0  0  0
  -15.4630   23.2690  -26.7060 C   0  0  1  0  0  0  0  0  0  0  0  0
  -14.0270   19.9780  -25.4860 C   0  0  0  0  0  0  0  0  0  0  0  0
  -14.4890   23.9180  -26.3430 O   0  0  0  0  0  0  0  0  0  0  0  0
  -16.8540   23.8480  -26.6190 C   0  0  0  0  0  0  0  0  0  0  0  0
  -13.2440   21.0650  -24.7650 C   0  0  0  0  0  0  0  0  0  0  0  0
  -15.4650   19.9240  -25.0200 C   0  0  0  0  0  0  0  0  0  0  0  0
  2  1  1  0
  1  3  1  1
  4  2  1  0
  2  5  1  1
  4  6  1  0
  5  7  1  0
  8  6  1  0
  6  9  1  0
  7 10  1  0
 11  8  1  0
  8 12  1  1
 10 13  1  0
 10 14  1  0
 11 15  1  0
 12 16  1  0
 15 17  1  0
 15 18  1  6
 16 19  1  0
 16 20  1  0
M  CHG  1  14  -1
A    2
 C3 
A    3
 O1 
A    4
 N1 
A    5
 C5 
A    6
 C1 
A    7
 C6 
A    8
 C3 
A    9
 O1 
A   10
 C13
A   11
 N1 
A   12
 C5 
A   13
 O4 
A   14
 O5 
A   15
 C1 
A   16
 C6 
A   17
 O1 
A   18
 C2 
A   19
 C7 
A   20
 C8 
M  END
>  <XChem_code>  (906) 
polymer

>  <Occupancy>  (906) 
[1.0, 1.0, 1.0, 1.0, 1.0, 1.0, 1.0, 1.0, 1.0, 1.0, 1.0, 1.0, 1.0, 1.0, 1.0, 1.0, 1.0, 1.0, 1.0, 1.0, 1.0, 1.0, 1.0, 1.0, 1.0, 1.0, 1.0, 1.0, 1.0, 1.0, 1.0, 1.0, 1.0, 1.0, 1.0, 1.0, 1.0, 1.0, 1.0, 1.0, 1.0, 1.0, 1.0, 1.0, 1.0, 1.0, 1.0, 1.0, 1.0, 1.0, 1.0, 1.0, 1.0, 1.0, 1.0, 1.0, 1.0, 1.0]

>  <TempFactor>  (906) 
[0.0, 0.0, 0.0, 0.0, 0.0, 0.0, 0.0, 0.0, 0.0, 0.0, 0.0, 0.0, 0.0, 0.0, 0.0, 0.0, 0.0, 0.0, 0.0, 0.0, 0.0, 0.0, 0.0, 0.0, 0.0, 0.0, 0.0, 0.0, 0.0, 0.0, 0.0, 0.0, 0.0, 0.0, 0.0, 0.0, 0.0, 0.0, 0.0, 0.0, 0.0, 0.0, 0.0, 0.0, 0.0, 0.0, 0.0, 0.0, 0.0, 0.0, 0.0, 0.0, 0.0, 0.0, 0.0, 0.0, 0.0, 0.0]

>  <base_name>  (906) 
2b0f

>  <lig_resn>  (906) 
None

>  <lig_resi>  (906) 
1

>  <lig_chain>  (906) 
B

>  <lig_segi>  (906) 


>  <lig_alt>  (906) 


>  <polymer_chain>  (906) 
A

>  <single_smiles>  (906) 
None

$$$$
polymerS16
     RDKit          3D

 38 38  0  0  0  0  0  0  0  0999 V2000
  -11.9720   18.6270  -30.4030 N   0  0  0  0  0  0  0  0  0  0  0  0
  -11.2320   17.4190  -30.2140 C   0  0  2  0  0  0  0  0  0  0  0  0
  -10.8520   16.9140  -31.5780 C   0  0  0  0  0  0  0  0  0  0  0  0
  -12.0320   16.4040  -29.4200 C   0  0  0  0  0  0  0  0  0  0  0  0
   -9.7350   16.2520  -31.6700 N   0  0  0  0  0  0  0  0  0  0  0  0
  -11.5590   17.1540  -32.5510 O   0  0  0  0  0  0  0  0  0  0  0  0
   -9.2690   15.7910  -32.9510 C   0  0  2  0  0  0  0  0  0  0  0  0
   -9.4760   14.3090  -33.1760 C   0  0  0  0  0  0  0  0  0  0  0  0
   -7.7900   16.0900  -33.0900 C   0  0  0  0  0  0  0  0  0  0  0  0
   -9.6030   13.9290  -34.4410 N   0  0  0  0  0  0  0  0  0  0  0  0
   -9.5290   13.5200  -32.2290 O   0  0  0  0  0  0  0  0  0  0  0  0
   -7.1690   15.4980  -34.3400 C   0  0  0  0  0  0  0  0  0  0  0  0
   -9.7190   12.5240  -34.7630 C   0  0  2  0  0  0  0  0  0  0  0  0
   -7.6760   16.2470  -35.5700 C   0  0  0  0  0  0  0  0  0  0  0  0
   -5.6520   15.5520  -34.2470 C   0  0  0  0  0  0  0  0  0  0  0  0
   -8.4470   11.8470  -34.2880 C   0  0  0  0  0  0  0  0  0  0  0  0
   -9.8560   12.2790  -36.2650 C   0  0  0  0  0  0  0  0  0  0  0  0
   -8.5240   10.6110  -33.8090 N   0  0  0  0  0  0  0  0  0  0  0  0
   -7.3750   12.4480  -34.3620 O   0  0  0  0  0  0  0  0  0  0  0  0
  -11.0400   12.9250  -36.9220 C   0  0  0  0  0  0  0  0  0  0  0  0
   -7.3190    9.9670  -33.3460 C   0  0  1  0  0  0  0  0  0  0  0  0
  -12.3100   12.8260  -36.3750 C   0  0  0  0  0  0  0  0  0  0  0  0
  -10.8770   13.6090  -38.1140 C   0  0  0  0  0  0  0  0  0  0  0  0
   -7.3310    9.8470  -31.8170 C   0  0  0  0  0  0  0  0  0  0  0  0
   -7.0030    8.6240  -34.0690 C   0  0  0  0  0  0  0  0  0  0  0  0
  -13.3920   13.4040  -37.0080 C   0  0  0  0  0  0  0  0  0  0  0  0
  -11.9550   14.1810  -38.7530 C   0  0  0  0  0  0  0  0  0  0  0  0
   -7.1160   11.1980  -31.1200 C   0  0  0  0  0  0  0  0  0  0  0  0
   -5.9970    8.9560  -35.1740 C   0  0  0  0  0  0  0  0  0  0  0  0
  -13.2150   14.0820  -38.2020 C   0  0  0  0  0  0  0  0  0  0  0  0
   -7.1690   11.1210  -29.6010 C   0  0  0  0  0  0  0  0  0  0  0  0
   -5.3280    7.7460  -35.7790 C   0  0  0  0  0  0  0  0  0  0  0  0
   -6.5930   12.1190  -28.9300 N   0  0  0  0  0  0  0  0  0  0  0  0
   -7.7330   10.1910  -29.0350 O   0  0  0  0  0  0  0  0  0  0  0  0
   -5.6140    6.6180  -35.3820 O   0  0  0  0  0  0  0  0  0  0  0  0
   -4.4850    7.9540  -36.6840 O   0  0  0  0  0  0  0  0  0  0  0  0
   -3.6950    6.8460  -37.4040 C   0  0  0  0  0  0  0  0  0  0  0  0
   -2.6800    7.1950  -38.4770 C   0  0  0  0  0  0  0  0  0  0  0  0
  1  2  1  0
  2  3  1  0
  2  4  1  6
  5  3  1  0
  3  6  1  0
  5  7  1  0
  7  8  1  0
  7  9  1  1
 10  8  1  0
  8 11  1  0
  9 12  1  0
 10 13  1  0
 12 14  1  0
 12 15  1  0
 13 16  1  0
 13 17  1  6
 18 16  1  0
 16 19  1  0
 17 20  1  0
 18 21  1  0
 20 22  1  0
 20 23  1  0
 21 24  1  1
 21 25  1  0
 22 26  1  0
 23 27  1  0
 24 28  1  0
 25 29  1  0
 26 30  1  0
 27 30  1  0
 28 31  1  0
 29 32  1  0
 31 33  1  0
 31 34  1  0
 32 35  1  0
 32 36  1  0
 37 36  1  0
 37 38  1  0
A    2
 C3 
A    3
 C1 
A    4
 C5 
A    5
 N1 
A    6
 O1 
A    7
 C3 
A    8
 C1 
A    9
 C5 
A   10
 N1 
A   11
 O1 
A   12
 C6 
A   13
 C3 
A   14
 C7 
A   15
 C8 
A   16
 C1 
A   17
 C5 
A   18
 N1 
A   19
 O1 
A   20
 C6 
A   21
 C3 
A   22
 C7 
A   23
 C8 
A   24
 C5 
A   25
 C38
A   26
 C29
A   27
 C30
A   28
 C6 
A   29
 C39
A   30
 C31
A   31
 C13
A   32
 C40
A   33
 N7 
A   34
 O4 
A   35
 O10
A   36
 O11
A   37
 C36
A   38
 C37
M  END
>  <XChem_code>  (907) 
polymer

>  <Occupancy>  (907) 
[1.0, 1.0, 1.0, 1.0, 1.0, 1.0, 1.0, 1.0, 1.0, 1.0, 1.0, 1.0, 1.0, 1.0, 1.0, 1.0, 1.0, 1.0, 1.0, 1.0, 1.0, 1.0, 1.0, 1.0, 1.0, 1.0, 1.0, 1.0, 1.0, 1.0, 1.0, 1.0, 1.0, 1.0, 1.0, 1.0, 1.0, 1.0, 1.0, 1.0, 1.0, 1.0, 1.0, 1.0, 1.0, 1.0, 1.0, 1.0, 1.0, 1.0, 1.0, 1.0, 1.0, 1.0, 1.0, 1.0, 1.0, 1.0]

>  <TempFactor>  (907) 
[0.0, 0.0, 0.0, 0.0, 0.0, 0.0, 0.0, 0.0, 0.0, 0.0, 0.0, 0.0, 0.0, 0.0, 0.0, 0.0, 0.0, 0.0, 0.0, 0.0, 0.0, 0.0, 0.0, 0.0, 0.0, 0.0, 0.0, 0.0, 0.0, 0.0, 0.0, 0.0, 0.0, 0.0, 0.0, 0.0, 0.0, 0.0, 0.0, 0.0, 0.0, 0.0, 0.0, 0.0, 0.0, 0.0, 0.0, 0.0, 0.0, 0.0, 0.0, 0.0, 0.0, 0.0, 0.0, 0.0, 0.0, 0.0]

>  <base_name>  (907) 
2b0f

>  <lig_resn>  (907) 
None

>  <lig_resi>  (907) 
1

>  <lig_chain>  (907) 
B

>  <lig_segi>  (907) 


>  <lig_alt>  (907) 


>  <polymer_chain>  (907) 
A

>  <single_smiles>  (907) 
None

$$$$
polymerS17
     RDKit          3D

 25 24  0  0  0  0  0  0  0  0999 V2000
  -10.8520   16.9140  -31.5780 C   0  0  0  0  0  0  0  0  0  0  0  0
  -11.2320   17.4190  -30.2140 C   0  0  1  0  0  0  0  0  0  0  0  0
  -11.5590   17.1540  -32.5510 O   0  0  0  0  0  0  0  0  0  0  0  0
  -11.9720   18.6270  -30.4030 N   0  0  0  0  0  0  0  0  0  0  0  0
  -12.0320   16.4040  -29.4200 C   0  0  0  0  0  0  0  0  0  0  0  0
  -11.3450   19.7670  -30.6210 C   0  0  1  0  0  0  0  0  0  0  0  0
  -12.2360   20.9510  -30.8060 C   0  0  1  0  0  0  0  0  0  0  0  0
  -10.1190   19.8830  -30.5960 O   0  0  0  0  0  0  0  0  0  0  0  0
  -12.5790   21.3540  -29.4810 N   0  0  0  0  0  0  0  0  0  0  0  0
  -11.5450   22.0000  -31.6560 C   0  0  0  0  0  0  0  0  0  0  0  0
  -13.8200   21.2840  -29.0930 C   0  0  0  0  0  0  0  0  0  0  0  0
  -11.2540   21.4640  -33.0520 C   0  0  0  0  0  0  0  0  0  0  0  0
  -14.0680   21.5380  -27.6320 C   0  0  1  0  0  0  0  0  0  0  0  0
  -14.7460   21.0290  -29.8620 O   0  0  0  0  0  0  0  0  0  0  0  0
  -10.4830   22.4400  -33.9180 C   0  0  0  0  0  0  0  0  0  0  0  0
  -15.3620   22.1790  -27.4390 N   0  0  0  0  0  0  0  0  0  0  0  0
  -13.9740   20.1330  -27.0070 C   0  0  0  0  0  0  0  0  0  0  0  0
  -11.1230   23.2880  -34.5660 O   0  0  0  0  0  0  0  0  0  0  0  0
   -9.2440   22.3600  -33.9420 O   0  0  0  0  0  0  0  0  0  0  0  0
  -15.4630   23.2690  -26.7060 C   0  0  1  0  0  0  0  0  0  0  0  0
  -14.0270   19.9780  -25.4860 C   0  0  0  0  0  0  0  0  0  0  0  0
  -14.4890   23.9180  -26.3430 O   0  0  0  0  0  0  0  0  0  0  0  0
  -16.8540   23.8480  -26.6190 C   0  0  0  0  0  0  0  0  0  0  0  0
  -13.2440   21.0650  -24.7650 C   0  0  0  0  0  0  0  0  0  0  0  0
  -15.4650   19.9240  -25.0200 C   0  0  0  0  0  0  0  0  0  0  0  0
  2  1  1  0
  1  3  1  0
  4  2  1  0
  2  5  1  6
  4  6  1  0
  7  6  1  0
  6  8  1  1
  9  7  1  0
  7 10  1  1
  9 11  1  0
 10 12  1  0
 13 11  1  0
 11 14  1  0
 12 15  1  0
 16 13  1  0
 13 17  1  1
 15 18  1  0
 15 19  1  0
 16 20  1  0
 17 21  1  0
 20 22  1  0
 20 23  1  6
 21 24  1  0
 21 25  1  0
M  CHG  1  19  -1
A    2
 C3 
A    3
 O1 
A    4
 N1 
A    5
 C5 
A    6
 C1 
A    7
 C3 
A    8
 O1 
A    9
 N1 
A   10
 C5 
A   11
 C1 
A   12
 C6 
A   13
 C3 
A   14
 O1 
A   15
 C13
A   16
 N1 
A   17
 C5 
A   18
 O4 
A   19
 O5 
A   20
 C1 
A   21
 C6 
A   22
 O1 
A   23
 C2 
A   24
 C7 
A   25
 C8 
M  END
>  <XChem_code>  (908) 
polymer

>  <Occupancy>  (908) 
[1.0, 1.0, 1.0, 1.0, 1.0, 1.0, 1.0, 1.0, 1.0, 1.0, 1.0, 1.0, 1.0, 1.0, 1.0, 1.0, 1.0, 1.0, 1.0, 1.0, 1.0, 1.0, 1.0, 1.0, 1.0, 1.0, 1.0, 1.0, 1.0, 1.0, 1.0, 1.0, 1.0, 1.0, 1.0, 1.0, 1.0, 1.0, 1.0, 1.0, 1.0, 1.0, 1.0, 1.0, 1.0, 1.0, 1.0, 1.0, 1.0, 1.0, 1.0, 1.0, 1.0, 1.0, 1.0, 1.0, 1.0, 1.0]

>  <TempFactor>  (908) 
[0.0, 0.0, 0.0, 0.0, 0.0, 0.0, 0.0, 0.0, 0.0, 0.0, 0.0, 0.0, 0.0, 0.0, 0.0, 0.0, 0.0, 0.0, 0.0, 0.0, 0.0, 0.0, 0.0, 0.0, 0.0, 0.0, 0.0, 0.0, 0.0, 0.0, 0.0, 0.0, 0.0, 0.0, 0.0, 0.0, 0.0, 0.0, 0.0, 0.0, 0.0, 0.0, 0.0, 0.0, 0.0, 0.0, 0.0, 0.0, 0.0, 0.0, 0.0, 0.0, 0.0, 0.0, 0.0, 0.0, 0.0, 0.0]

>  <base_name>  (908) 
2b0f

>  <lig_resn>  (908) 
None

>  <lig_resi>  (908) 
1

>  <lig_chain>  (908) 
B

>  <lig_segi>  (908) 


>  <lig_alt>  (908) 


>  <polymer_chain>  (908) 
A

>  <single_smiles>  (908) 
None

$$$$
polymerS18
     RDKit          3D

 33 33  0  0  0  0  0  0  0  0999 V2000
   -9.7350   16.2520  -31.6700 N   0  0  0  0  0  0  0  0  0  0  0  0
   -9.2690   15.7910  -32.9510 C   0  0  2  0  0  0  0  0  0  0  0  0
   -9.4760   14.3090  -33.1760 C   0  0  0  0  0  0  0  0  0  0  0  0
   -7.7900   16.0900  -33.0900 C   0  0  0  0  0  0  0  0  0  0  0  0
   -9.6030   13.9290  -34.4410 N   0  0  0  0  0  0  0  0  0  0  0  0
   -9.5290   13.5200  -32.2290 O   0  0  0  0  0  0  0  0  0  0  0  0
   -7.1690   15.4980  -34.3400 C   0  0  0  0  0  0  0  0  0  0  0  0
   -9.7190   12.5240  -34.7630 C   0  0  2  0  0  0  0  0  0  0  0  0
   -7.6760   16.2470  -35.5700 C   0  0  0  0  0  0  0  0  0  0  0  0
   -5.6520   15.5520  -34.2470 C   0  0  0  0  0  0  0  0  0  0  0  0
   -8.4470   11.8470  -34.2880 C   0  0  0  0  0  0  0  0  0  0  0  0
   -9.8560   12.2790  -36.2650 C   0  0  0  0  0  0  0  0  0  0  0  0
   -8.5240   10.6110  -33.8090 N   0  0  0  0  0  0  0  0  0  0  0  0
   -7.3750   12.4480  -34.3620 O   0  0  0  0  0  0  0  0  0  0  0  0
  -11.0400   12.9250  -36.9220 C   0  0  0  0  0  0  0  0  0  0  0  0
   -7.3190    9.9670  -33.3460 C   0  0  1  0  0  0  0  0  0  0  0  0
  -12.3100   12.8260  -36.3750 C   0  0  0  0  0  0  0  0  0  0  0  0
  -10.8770   13.6090  -38.1140 C   0  0  0  0  0  0  0  0  0  0  0  0
   -7.3310    9.8470  -31.8170 C   0  0  0  0  0  0  0  0  0  0  0  0
   -7.0030    8.6240  -34.0690 C   0  0  0  0  0  0  0  0  0  0  0  0
  -13.3920   13.4040  -37.0080 C   0  0  0  0  0  0  0  0  0  0  0  0
  -11.9550   14.1810  -38.7530 C   0  0  0  0  0  0  0  0  0  0  0  0
   -7.1160   11.1980  -31.1200 C   0  0  0  0  0  0  0  0  0  0  0  0
   -5.9970    8.9560  -35.1740 C   0  0  0  0  0  0  0  0  0  0  0  0
  -13.2150   14.0820  -38.2020 C   0  0  0  0  0  0  0  0  0  0  0  0
   -7.1690   11.1210  -29.6010 C   0  0  0  0  0  0  0  0  0  0  0  0
   -5.3280    7.7460  -35.7790 C   0  0  0  0  0  0  0  0  0  0  0  0
   -6.5930   12.1190  -28.9300 N   0  0  0  0  0  0  0  0  0  0  0  0
   -7.7330   10.1910  -29.0350 O   0  0  0  0  0  0  0  0  0  0  0  0
   -5.6140    6.6180  -35.3820 O   0  0  0  0  0  0  0  0  0  0  0  0
   -4.4850    7.9540  -36.6840 O   0  0  0  0  0  0  0  0  0  0  0  0
   -3.6950    6.8460  -37.4040 C   0  0  0  0  0  0  0  0  0  0  0  0
   -2.6800    7.1950  -38.4770 C   0  0  0  0  0  0  0  0  0  0  0  0
  2  1  1  1
  2  3  1  0
  2  4  1  0
  5  3  1  0
  3  6  1  0
  4  7  1  0
  5  8  1  0
  7  9  1  0
  7 10  1  0
  8 11  1  0
  8 12  1  6
 13 11  1  0
 11 14  1  0
 12 15  1  0
 13 16  1  0
 15 17  1  0
 15 18  1  0
 16 19  1  1
 16 20  1  0
 17 21  1  0
 18 22  1  0
 19 23  1  0
 20 24  1  0
 21 25  1  0
 22 25  1  0
 23 26  1  0
 24 27  1  0
 26 28  1  0
 26 29  1  0
 27 30  1  0
 27 31  1  0
 32 31  1  0
 32 33  1  0
A    2
 C3 
A    3
 C1 
A    4
 C5 
A    5
 N1 
A    6
 O1 
A    7
 C6 
A    8
 C3 
A    9
 C7 
A   10
 C8 
A   11
 C1 
A   12
 C5 
A   13
 N1 
A   14
 O1 
A   15
 C6 
A   16
 C3 
A   17
 C7 
A   18
 C8 
A   19
 C5 
A   20
 C38
A   21
 C29
A   22
 C30
A   23
 C6 
A   24
 C39
A   25
 C31
A   26
 C13
A   27
 C40
A   28
 N7 
A   29
 O4 
A   30
 O10
A   31
 O11
A   32
 C36
A   33
 C37
M  END
>  <XChem_code>  (909) 
polymer

>  <Occupancy>  (909) 
[1.0, 1.0, 1.0, 1.0, 1.0, 1.0, 1.0, 1.0, 1.0, 1.0, 1.0, 1.0, 1.0, 1.0, 1.0, 1.0, 1.0, 1.0, 1.0, 1.0, 1.0, 1.0, 1.0, 1.0, 1.0, 1.0, 1.0, 1.0, 1.0, 1.0, 1.0, 1.0, 1.0, 1.0, 1.0, 1.0, 1.0, 1.0, 1.0, 1.0, 1.0, 1.0, 1.0, 1.0, 1.0, 1.0, 1.0, 1.0, 1.0, 1.0, 1.0, 1.0, 1.0, 1.0, 1.0, 1.0, 1.0, 1.0]

>  <TempFactor>  (909) 
[0.0, 0.0, 0.0, 0.0, 0.0, 0.0, 0.0, 0.0, 0.0, 0.0, 0.0, 0.0, 0.0, 0.0, 0.0, 0.0, 0.0, 0.0, 0.0, 0.0, 0.0, 0.0, 0.0, 0.0, 0.0, 0.0, 0.0, 0.0, 0.0, 0.0, 0.0, 0.0, 0.0, 0.0, 0.0, 0.0, 0.0, 0.0, 0.0, 0.0, 0.0, 0.0, 0.0, 0.0, 0.0, 0.0, 0.0, 0.0, 0.0, 0.0, 0.0, 0.0, 0.0, 0.0, 0.0, 0.0, 0.0, 0.0]

>  <base_name>  (909) 
2b0f

>  <lig_resn>  (909) 
None

>  <lig_resi>  (909) 
1

>  <lig_chain>  (909) 
B

>  <lig_segi>  (909) 


>  <lig_alt>  (909) 


>  <polymer_chain>  (909) 
A

>  <single_smiles>  (909) 
None

$$$$
polymerS19
     RDKit          3D

 25 25  0  0  0  0  0  0  0  0999 V2000
   -9.6030   13.9290  -34.4410 N   0  0  0  0  0  0  0  0  0  0  0  0
   -9.7190   12.5240  -34.7630 C   0  0  2  0  0  0  0  0  0  0  0  0
   -8.4470   11.8470  -34.2880 C   0  0  0  0  0  0  0  0  0  0  0  0
   -9.8560   12.2790  -36.2650 C   0  0  0  0  0  0  0  0  0  0  0  0
   -8.5240   10.6110  -33.8090 N   0  0  0  0  0  0  0  0  0  0  0  0
   -7.3750   12.4480  -34.3620 O   0  0  0  0  0  0  0  0  0  0  0  0
  -11.0400   12.9250  -36.9220 C   0  0  0  0  0  0  0  0  0  0  0  0
   -7.3190    9.9670  -33.3460 C   0  0  1  0  0  0  0  0  0  0  0  0
  -12.3100   12.8260  -36.3750 C   0  0  0  0  0  0  0  0  0  0  0  0
  -10.8770   13.6090  -38.1140 C   0  0  0  0  0  0  0  0  0  0  0  0
   -7.3310    9.8470  -31.8170 C   0  0  0  0  0  0  0  0  0  0  0  0
   -7.0030    8.6240  -34.0690 C   0  0  0  0  0  0  0  0  0  0  0  0
  -13.3920   13.4040  -37.0080 C   0  0  0  0  0  0  0  0  0  0  0  0
  -11.9550   14.1810  -38.7530 C   0  0  0  0  0  0  0  0  0  0  0  0
   -7.1160   11.1980  -31.1200 C   0  0  0  0  0  0  0  0  0  0  0  0
   -5.9970    8.9560  -35.1740 C   0  0  0  0  0  0  0  0  0  0  0  0
  -13.2150   14.0820  -38.2020 C   0  0  0  0  0  0  0  0  0  0  0  0
   -7.1690   11.1210  -29.6010 C   0  0  0  0  0  0  0  0  0  0  0  0
   -5.3280    7.7460  -35.7790 C   0  0  0  0  0  0  0  0  0  0  0  0
   -6.5930   12.1190  -28.9300 N   0  0  0  0  0  0  0  0  0  0  0  0
   -7.7330   10.1910  -29.0350 O   0  0  0  0  0  0  0  0  0  0  0  0
   -5.6140    6.6180  -35.3820 O   0  0  0  0  0  0  0  0  0  0  0  0
   -4.4850    7.9540  -36.6840 O   0  0  0  0  0  0  0  0  0  0  0  0
   -3.6950    6.8460  -37.4040 C   0  0  0  0  0  0  0  0  0  0  0  0
   -2.6800    7.1950  -38.4770 C   0  0  0  0  0  0  0  0  0  0  0  0
  2  1  1  6
  2  3  1  0
  2  4  1  0
  5  3  1  0
  3  6  1  0
  4  7  1  0
  5  8  1  0
  7  9  1  0
  7 10  1  0
  8 11  1  1
  8 12  1  0
  9 13  1  0
 10 14  1  0
 11 15  1  0
 12 16  1  0
 13 17  1  0
 14 17  1  0
 15 18  1  0
 16 19  1  0
 18 20  1  0
 18 21  1  0
 19 22  1  0
 19 23  1  0
 24 23  1  0
 24 25  1  0
A    2
 C3 
A    3
 C1 
A    4
 C5 
A    5
 N1 
A    6
 O1 
A    7
 C6 
A    8
 C3 
A    9
 C7 
A   10
 C8 
A   11
 C5 
A   12
 C38
A   13
 C29
A   14
 C30
A   15
 C6 
A   16
 C39
A   17
 C31
A   18
 C13
A   19
 C40
A   20
 N7 
A   21
 O4 
A   22
 O10
A   23
 O11
A   24
 C36
A   25
 C37
M  END
>  <XChem_code>  (910) 
polymer

>  <Occupancy>  (910) 
[1.0, 1.0, 1.0, 1.0, 1.0, 1.0, 1.0, 1.0, 1.0, 1.0, 1.0, 1.0, 1.0, 1.0, 1.0, 1.0, 1.0, 1.0, 1.0, 1.0, 1.0, 1.0, 1.0, 1.0, 1.0, 1.0, 1.0, 1.0, 1.0, 1.0, 1.0, 1.0, 1.0, 1.0, 1.0, 1.0, 1.0, 1.0, 1.0, 1.0, 1.0, 1.0, 1.0, 1.0, 1.0, 1.0, 1.0, 1.0, 1.0, 1.0, 1.0, 1.0, 1.0, 1.0, 1.0, 1.0, 1.0, 1.0]

>  <TempFactor>  (910) 
[0.0, 0.0, 0.0, 0.0, 0.0, 0.0, 0.0, 0.0, 0.0, 0.0, 0.0, 0.0, 0.0, 0.0, 0.0, 0.0, 0.0, 0.0, 0.0, 0.0, 0.0, 0.0, 0.0, 0.0, 0.0, 0.0, 0.0, 0.0, 0.0, 0.0, 0.0, 0.0, 0.0, 0.0, 0.0, 0.0, 0.0, 0.0, 0.0, 0.0, 0.0, 0.0, 0.0, 0.0, 0.0, 0.0, 0.0, 0.0, 0.0, 0.0, 0.0, 0.0, 0.0, 0.0, 0.0, 0.0, 0.0, 0.0]

>  <base_name>  (910) 
2b0f

>  <lig_resn>  (910) 
None

>  <lig_resi>  (910) 
1

>  <lig_chain>  (910) 
B

>  <lig_segi>  (910) 


>  <lig_alt>  (910) 


>  <polymer_chain>  (910) 
A

>  <single_smiles>  (910) 
None

$$$$
polymerS20
     RDKit          3D

 33 32  0  0  0  0  0  0  0  0999 V2000
   -9.4760   14.3090  -33.1760 C   0  0  0  0  0  0  0  0  0  0  0  0
   -9.2690   15.7910  -32.9510 C   0  0  1  0  0  0  0  0  0  0  0  0
   -9.5290   13.5200  -32.2290 O   0  0  0  0  0  0  0  0  0  0  0  0
   -9.7350   16.2520  -31.6700 N   0  0  0  0  0  0  0  0  0  0  0  0
   -7.7900   16.0900  -33.0900 C   0  0  0  0  0  0  0  0  0  0  0  0
  -10.8520   16.9140  -31.5780 C   0  0  0  0  0  0  0  0  0  0  0  0
   -7.1690   15.4980  -34.3400 C   0  0  0  0  0  0  0  0  0  0  0  0
  -11.2320   17.4190  -30.2140 C   0  0  1  0  0  0  0  0  0  0  0  0
  -11.5590   17.1540  -32.5510 O   0  0  0  0  0  0  0  0  0  0  0  0
   -7.6760   16.2470  -35.5700 C   0  0  0  0  0  0  0  0  0  0  0  0
   -5.6520   15.5520  -34.2470 C   0  0  0  0  0  0  0  0  0  0  0  0
  -11.9720   18.6270  -30.4030 N   0  0  0  0  0  0  0  0  0  0  0  0
  -12.0320   16.4040  -29.4200 C   0  0  0  0  0  0  0  0  0  0  0  0
  -11.3450   19.7670  -30.6210 C   0  0  1  0  0  0  0  0  0  0  0  0
  -12.2360   20.9510  -30.8060 C   0  0  1  0  0  0  0  0  0  0  0  0
  -10.1190   19.8830  -30.5960 O   0  0  0  0  0  0  0  0  0  0  0  0
  -12.5790   21.3540  -29.4810 N   0  0  0  0  0  0  0  0  0  0  0  0
  -11.5450   22.0000  -31.6560 C   0  0  0  0  0  0  0  0  0  0  0  0
  -13.8200   21.2840  -29.0930 C   0  0  0  0  0  0  0  0  0  0  0  0
  -11.2540   21.4640  -33.0520 C   0  0  0  0  0  0  0  0  0  0  0  0
  -14.0680   21.5380  -27.6320 C   0  0  1  0  0  0  0  0  0  0  0  0
  -14.7460   21.0290  -29.8620 O   0  0  0  0  0  0  0  0  0  0  0  0
  -10.4830   22.4400  -33.9180 C   0  0  0  0  0  0  0  0  0  0  0  0
  -15.3620   22.1790  -27.4390 N   0  0  0  0  0  0  0  0  0  0  0  0
  -13.9740   20.1330  -27.0070 C   0  0  0  0  0  0  0  0  0  0  0  0
  -11.1230   23.2880  -34.5660 O   0  0  0  0  0  0  0  0  0  0  0  0
   -9.2440   22.3600  -33.9420 O   0  0  0  0  0  0  0  0  0  0  0  0
  -15.4630   23.2690  -26.7060 C   0  0  1  0  0  0  0  0  0  0  0  0
  -14.0270   19.9780  -25.4860 C   0  0  0  0  0  0  0  0  0  0  0  0
  -14.4890   23.9180  -26.3430 O   0  0  0  0  0  0  0  0  0  0  0  0
  -16.8540   23.8480  -26.6190 C   0  0  0  0  0  0  0  0  0  0  0  0
  -13.2440   21.0650  -24.7650 C   0  0  0  0  0  0  0  0  0  0  0  0
  -15.4650   19.9240  -25.0200 C   0  0  0  0  0  0  0  0  0  0  0  0
  2  1  1  1
  1  3  1  0
  4  2  1  0
  2  5  1  0
  4  6  1  0
  5  7  1  0
  8  6  1  0
  6  9  1  0
  7 10  1  0
  7 11  1  0
 12  8  1  0
  8 13  1  6
 12 14  1  0
 15 14  1  0
 14 16  1  1
 17 15  1  0
 15 18  1  1
 17 19  1  0
 18 20  1  0
 21 19  1  0
 19 22  1  0
 20 23  1  0
 24 21  1  0
 21 25  1  1
 23 26  1  0
 23 27  1  0
 24 28  1  0
 25 29  1  0
 28 30  1  0
 28 31  1  6
 29 32  1  0
 29 33  1  0
M  CHG  1  27  -1
A    2
 C3 
A    3
 O1 
A    4
 N1 
A    5
 C5 
A    6
 C1 
A    7
 C6 
A    8
 C3 
A    9
 O1 
A   10
 C7 
A   11
 C8 
A   12
 N1 
A   13
 C5 
A   14
 C1 
A   15
 C3 
A   16
 O1 
A   17
 N1 
A   18
 C5 
A   19
 C1 
A   20
 C6 
A   21
 C3 
A   22
 O1 
A   23
 C13
A   24
 N1 
A   25
 C5 
A   26
 O4 
A   27
 O5 
A   28
 C1 
A   29
 C6 
A   30
 O1 
A   31
 C2 
A   32
 C7 
A   33
 C8 
M  END
>  <XChem_code>  (911) 
polymer

>  <Occupancy>  (911) 
[1.0, 1.0, 1.0, 1.0, 1.0, 1.0, 1.0, 1.0, 1.0, 1.0, 1.0, 1.0, 1.0, 1.0, 1.0, 1.0, 1.0, 1.0, 1.0, 1.0, 1.0, 1.0, 1.0, 1.0, 1.0, 1.0, 1.0, 1.0, 1.0, 1.0, 1.0, 1.0, 1.0, 1.0, 1.0, 1.0, 1.0, 1.0, 1.0, 1.0, 1.0, 1.0, 1.0, 1.0, 1.0, 1.0, 1.0, 1.0, 1.0, 1.0, 1.0, 1.0, 1.0, 1.0, 1.0, 1.0, 1.0, 1.0]

>  <TempFactor>  (911) 
[0.0, 0.0, 0.0, 0.0, 0.0, 0.0, 0.0, 0.0, 0.0, 0.0, 0.0, 0.0, 0.0, 0.0, 0.0, 0.0, 0.0, 0.0, 0.0, 0.0, 0.0, 0.0, 0.0, 0.0, 0.0, 0.0, 0.0, 0.0, 0.0, 0.0, 0.0, 0.0, 0.0, 0.0, 0.0, 0.0, 0.0, 0.0, 0.0, 0.0, 0.0, 0.0, 0.0, 0.0, 0.0, 0.0, 0.0, 0.0, 0.0, 0.0, 0.0, 0.0, 0.0, 0.0, 0.0, 0.0, 0.0, 0.0]

>  <base_name>  (911) 
2b0f

>  <lig_resn>  (911) 
None

>  <lig_resi>  (911) 
1

>  <lig_chain>  (911) 
B

>  <lig_segi>  (911) 


>  <lig_alt>  (911) 


>  <polymer_chain>  (911) 
A

>  <single_smiles>  (911) 
None

$$$$
polymerS21
     RDKit          3D

 14 13  0  0  0  0  0  0  0  0999 V2000
   -8.5240   10.6110  -33.8090 N   0  0  0  0  0  0  0  0  0  0  0  0
   -7.3190    9.9670  -33.3460 C   0  0  1  0  0  0  0  0  0  0  0  0
   -7.3310    9.8470  -31.8170 C   0  0  0  0  0  0  0  0  0  0  0  0
   -7.0030    8.6240  -34.0690 C   0  0  0  0  0  0  0  0  0  0  0  0
   -7.1160   11.1980  -31.1200 C   0  0  0  0  0  0  0  0  0  0  0  0
   -5.9970    8.9560  -35.1740 C   0  0  0  0  0  0  0  0  0  0  0  0
   -7.1690   11.1210  -29.6010 C   0  0  0  0  0  0  0  0  0  0  0  0
   -5.3280    7.7460  -35.7790 C   0  0  0  0  0  0  0  0  0  0  0  0
   -6.5930   12.1190  -28.9300 N   0  0  0  0  0  0  0  0  0  0  0  0
   -7.7330   10.1910  -29.0350 O   0  0  0  0  0  0  0  0  0  0  0  0
   -5.6140    6.6180  -35.3820 O   0  0  0  0  0  0  0  0  0  0  0  0
   -4.4850    7.9540  -36.6840 O   0  0  0  0  0  0  0  0  0  0  0  0
   -3.6950    6.8460  -37.4040 C   0  0  0  0  0  0  0  0  0  0  0  0
   -2.6800    7.1950  -38.4770 C   0  0  0  0  0  0  0  0  0  0  0  0
  2  1  1  6
  2  3  1  0
  2  4  1  0
  3  5  1  0
  4  6  1  0
  5  7  1  0
  6  8  1  0
  7  9  1  0
  7 10  1  0
  8 11  1  0
  8 12  1  0
 13 12  1  0
 13 14  1  0
A    2
 C3 
A    3
 C5 
A    4
 C38
A    5
 C6 
A    6
 C39
A    7
 C13
A    8
 C40
A    9
 N7 
A   10
 O4 
A   11
 O10
A   12
 O11
A   13
 C36
A   14
 C37
M  END
>  <XChem_code>  (912) 
polymer

>  <Occupancy>  (912) 
[1.0, 1.0, 1.0, 1.0, 1.0, 1.0, 1.0, 1.0, 1.0, 1.0, 1.0, 1.0, 1.0, 1.0, 1.0, 1.0, 1.0, 1.0, 1.0, 1.0, 1.0, 1.0, 1.0, 1.0, 1.0, 1.0, 1.0, 1.0, 1.0, 1.0, 1.0, 1.0, 1.0, 1.0, 1.0, 1.0, 1.0, 1.0, 1.0, 1.0, 1.0, 1.0, 1.0, 1.0, 1.0, 1.0, 1.0, 1.0, 1.0, 1.0, 1.0, 1.0, 1.0, 1.0, 1.0, 1.0, 1.0, 1.0]

>  <TempFactor>  (912) 
[0.0, 0.0, 0.0, 0.0, 0.0, 0.0, 0.0, 0.0, 0.0, 0.0, 0.0, 0.0, 0.0, 0.0, 0.0, 0.0, 0.0, 0.0, 0.0, 0.0, 0.0, 0.0, 0.0, 0.0, 0.0, 0.0, 0.0, 0.0, 0.0, 0.0, 0.0, 0.0, 0.0, 0.0, 0.0, 0.0, 0.0, 0.0, 0.0, 0.0, 0.0, 0.0, 0.0, 0.0, 0.0, 0.0, 0.0, 0.0, 0.0, 0.0, 0.0, 0.0, 0.0, 0.0, 0.0, 0.0, 0.0, 0.0]

>  <base_name>  (912) 
2b0f

>  <lig_resn>  (912) 
None

>  <lig_resi>  (912) 
1

>  <lig_chain>  (912) 
B

>  <lig_segi>  (912) 


>  <lig_alt>  (912) 


>  <polymer_chain>  (912) 
A

>  <single_smiles>  (912) 
None

$$$$
polymerS22
     RDKit          3D

 44 44  0  0  0  0  0  0  0  0999 V2000
   -8.4470   11.8470  -34.2880 C   0  0  0  0  0  0  0  0  0  0  0  0
   -9.7190   12.5240  -34.7630 C   0  0  1  0  0  0  0  0  0  0  0  0
   -7.3750   12.4480  -34.3620 O   0  0  0  0  0  0  0  0  0  0  0  0
   -9.6030   13.9290  -34.4410 N   0  0  0  0  0  0  0  0  0  0  0  0
   -9.8560   12.2790  -36.2650 C   0  0  0  0  0  0  0  0  0  0  0  0
   -9.4760   14.3090  -33.1760 C   0  0  0  0  0  0  0  0  0  0  0  0
  -11.0400   12.9250  -36.9220 C   0  0  0  0  0  0  0  0  0  0  0  0
   -9.2690   15.7910  -32.9510 C   0  0  1  0  0  0  0  0  0  0  0  0
   -9.5290   13.5200  -32.2290 O   0  0  0  0  0  0  0  0  0  0  0  0
  -12.3100   12.8260  -36.3750 C   0  0  0  0  0  0  0  0  0  0  0  0
  -10.8770   13.6090  -38.1140 C   0  0  0  0  0  0  0  0  0  0  0  0
   -9.7350   16.2520  -31.6700 N   0  0  0  0  0  0  0  0  0  0  0  0
   -7.7900   16.0900  -33.0900 C   0  0  0  0  0  0  0  0  0  0  0  0
  -13.3920   13.4040  -37.0080 C   0  0  0  0  0  0  0  0  0  0  0  0
  -11.9550   14.1810  -38.7530 C   0  0  0  0  0  0  0  0  0  0  0  0
  -10.8520   16.9140  -31.5780 C   0  0  0  0  0  0  0  0  0  0  0  0
   -7.1690   15.4980  -34.3400 C   0  0  0  0  0  0  0  0  0  0  0  0
  -13.2150   14.0820  -38.2020 C   0  0  0  0  0  0  0  0  0  0  0  0
  -11.2320   17.4190  -30.2140 C   0  0  1  0  0  0  0  0  0  0  0  0
  -11.5590   17.1540  -32.5510 O   0  0  0  0  0  0  0  0  0  0  0  0
   -7.6760   16.2470  -35.5700 C   0  0  0  0  0  0  0  0  0  0  0  0
   -5.6520   15.5520  -34.2470 C   0  0  0  0  0  0  0  0  0  0  0  0
  -11.9720   18.6270  -30.4030 N   0  0  0  0  0  0  0  0  0  0  0  0
  -12.0320   16.4040  -29.4200 C   0  0  0  0  0  0  0  0  0  0  0  0
  -11.3450   19.7670  -30.6210 C   0  0  1  0  0  0  0  0  0  0  0  0
  -12.2360   20.9510  -30.8060 C   0  0  1  0  0  0  0  0  0  0  0  0
  -10.1190   19.8830  -30.5960 O   0  0  0  0  0  0  0  0  0  0  0  0
  -12.5790   21.3540  -29.4810 N   0  0  0  0  0  0  0  0  0  0  0  0
  -11.5450   22.0000  -31.6560 C   0  0  0  0  0  0  0  0  0  0  0  0
  -13.8200   21.2840  -29.0930 C   0  0  0  0  0  0  0  0  0  0  0  0
  -11.2540   21.4640  -33.0520 C   0  0  0  0  0  0  0  0  0  0  0  0
  -14.0680   21.5380  -27.6320 C   0  0  1  0  0  0  0  0  0  0  0  0
  -14.7460   21.0290  -29.8620 O   0  0  0  0  0  0  0  0  0  0  0  0
  -10.4830   22.4400  -33.9180 C   0  0  0  0  0  0  0  0  0  0  0  0
  -15.3620   22.1790  -27.4390 N   0  0  0  0  0  0  0  0  0  0  0  0
  -13.9740   20.1330  -27.0070 C   0  0  0  0  0  0  0  0  0  0  0  0
  -11.1230   23.2880  -34.5660 O   0  0  0  0  0  0  0  0  0  0  0  0
   -9.2440   22.3600  -33.9420 O   0  0  0  0  0  0  0  0  0  0  0  0
  -15.4630   23.2690  -26.7060 C   0  0  1  0  0  0  0  0  0  0  0  0
  -14.0270   19.9780  -25.4860 C   0  0  0  0  0  0  0  0  0  0  0  0
  -14.4890   23.9180  -26.3430 O   0  0  0  0  0  0  0  0  0  0  0  0
  -16.8540   23.8480  -26.6190 C   0  0  0  0  0  0  0  0  0  0  0  0
  -13.2440   21.0650  -24.7650 C   0  0  0  0  0  0  0  0  0  0  0  0
  -15.4650   19.9240  -25.0200 C   0  0  0  0  0  0  0  0  0  0  0  0
  2  1  1  6
  1  3  1  0
  4  2  1  0
  2  5  1  0
  4  6  1  0
  5  7  1  0
  8  6  1  0
  6  9  1  0
  7 10  1  0
  7 11  1  0
 12  8  1  0
  8 13  1  1
 10 14  1  0
 11 15  1  0
 12 16  1  0
 13 17  1  0
 14 18  1  0
 15 18  1  0
 19 16  1  0
 16 20  1  0
 17 21  1  0
 17 22  1  0
 23 19  1  0
 19 24  1  6
 23 25  1  0
 26 25  1  0
 25 27  1  1
 28 26  1  0
 26 29  1  1
 28 30  1  0
 29 31  1  0
 32 30  1  0
 30 33  1  0
 31 34  1  0
 35 32  1  0
 32 36  1  1
 34 37  1  0
 34 38  1  0
 35 39  1  0
 36 40  1  0
 39 41  1  0
 39 42  1  6
 40 43  1  0
 40 44  1  0
M  CHG  1  38  -1
A    2
 C3 
A    3
 O1 
A    4
 N1 
A    5
 C5 
A    6
 C1 
A    7
 C6 
A    8
 C3 
A    9
 O1 
A   10
 C7 
A   11
 C8 
A   12
 N1 
A   13
 C5 
A   14
 C29
A   15
 C30
A   16
 C1 
A   17
 C6 
A   18
 C31
A   19
 C3 
A   20
 O1 
A   21
 C7 
A   22
 C8 
A   23
 N1 
A   24
 C5 
A   25
 C1 
A   26
 C3 
A   27
 O1 
A   28
 N1 
A   29
 C5 
A   30
 C1 
A   31
 C6 
A   32
 C3 
A   33
 O1 
A   34
 C13
A   35
 N1 
A   36
 C5 
A   37
 O4 
A   38
 O5 
A   39
 C1 
A   40
 C6 
A   41
 O1 
A   42
 C2 
A   43
 C7 
A   44
 C8 
M  END
>  <XChem_code>  (913) 
polymer

>  <Occupancy>  (913) 
[1.0, 1.0, 1.0, 1.0, 1.0, 1.0, 1.0, 1.0, 1.0, 1.0, 1.0, 1.0, 1.0, 1.0, 1.0, 1.0, 1.0, 1.0, 1.0, 1.0, 1.0, 1.0, 1.0, 1.0, 1.0, 1.0, 1.0, 1.0, 1.0, 1.0, 1.0, 1.0, 1.0, 1.0, 1.0, 1.0, 1.0, 1.0, 1.0, 1.0, 1.0, 1.0, 1.0, 1.0, 1.0, 1.0, 1.0, 1.0, 1.0, 1.0, 1.0, 1.0, 1.0, 1.0, 1.0, 1.0, 1.0, 1.0]

>  <TempFactor>  (913) 
[0.0, 0.0, 0.0, 0.0, 0.0, 0.0, 0.0, 0.0, 0.0, 0.0, 0.0, 0.0, 0.0, 0.0, 0.0, 0.0, 0.0, 0.0, 0.0, 0.0, 0.0, 0.0, 0.0, 0.0, 0.0, 0.0, 0.0, 0.0, 0.0, 0.0, 0.0, 0.0, 0.0, 0.0, 0.0, 0.0, 0.0, 0.0, 0.0, 0.0, 0.0, 0.0, 0.0, 0.0, 0.0, 0.0, 0.0, 0.0, 0.0, 0.0, 0.0, 0.0, 0.0, 0.0, 0.0, 0.0, 0.0, 0.0]

>  <base_name>  (913) 
2b0f

>  <lig_resn>  (913) 
None

>  <lig_resi>  (913) 
1

>  <lig_chain>  (913) 
B

>  <lig_segi>  (913) 


>  <lig_alt>  (913) 


>  <polymer_chain>  (913) 
A

>  <single_smiles>  (913) 
None

$$$$
polymerS23
     RDKit          3D

  7  6  0  0  0  0  0  0  0  0999 V2000
  -13.8200   21.2840  -29.0930 C   0  0  0  0  0  0  0  0  0  0  0  0
  -14.0680   21.5380  -27.6320 C   0  0  0  0  0  0  0  0  0  0  0  0
  -14.7460   21.0290  -29.8620 O   0  0  0  0  0  0  0  0  0  0  0  0
  -13.9740   20.1330  -27.0070 C   0  0  0  0  0  0  0  0  0  0  0  0
  -14.0270   19.9780  -25.4860 C   0  0  0  0  0  0  0  0  0  0  0  0
  -13.2440   21.0650  -24.7650 C   0  0  0  0  0  0  0  0  0  0  0  0
  -15.4650   19.9240  -25.0200 C   0  0  0  0  0  0  0  0  0  0  0  0
  2  1  1  1
  1  3  1  0
  2  4  1  0
  4  5  1  0
  5  6  1  0
  5  7  1  0
A    3
 O1 
A    4
 C5 
A    5
 C6 
A    6
 C7 
A    7
 C8 
M  END
>  <XChem_code>  (914) 
polymer

>  <Occupancy>  (914) 
[1.0, 1.0, 1.0, 1.0, 1.0, 1.0, 1.0, 1.0, 1.0, 1.0, 1.0, 1.0, 1.0, 1.0, 1.0, 1.0, 1.0, 1.0, 1.0, 1.0, 1.0, 1.0, 1.0, 1.0, 1.0, 1.0, 1.0, 1.0, 1.0, 1.0, 1.0, 1.0, 1.0, 1.0, 1.0, 1.0, 1.0, 1.0, 1.0, 1.0, 1.0, 1.0, 1.0, 1.0, 1.0, 1.0, 1.0, 1.0, 1.0, 1.0, 1.0, 1.0, 1.0, 1.0, 1.0, 1.0, 1.0, 1.0]

>  <TempFactor>  (914) 
[0.0, 0.0, 0.0, 0.0, 0.0, 0.0, 0.0, 0.0, 0.0, 0.0, 0.0, 0.0, 0.0, 0.0, 0.0, 0.0, 0.0, 0.0, 0.0, 0.0, 0.0, 0.0, 0.0, 0.0, 0.0, 0.0, 0.0, 0.0, 0.0, 0.0, 0.0, 0.0, 0.0, 0.0, 0.0, 0.0, 0.0, 0.0, 0.0, 0.0, 0.0, 0.0, 0.0, 0.0, 0.0, 0.0, 0.0, 0.0, 0.0, 0.0, 0.0, 0.0, 0.0, 0.0, 0.0, 0.0, 0.0, 0.0]

>  <base_name>  (914) 
2b0f

>  <lig_resn>  (914) 
None

>  <lig_resi>  (914) 
1

>  <lig_chain>  (914) 
B

>  <lig_segi>  (914) 


>  <lig_alt>  (914) 


>  <polymer_chain>  (914) 
A

>  <single_smiles>  (914) 
None

$$$$
polymerS24
     RDKit          3D

  8  7  0  0  0  0  0  0  0  0999 V2000
  -12.5790   21.3540  -29.4810 N   0  0  0  0  0  0  0  0  0  0  0  0
  -13.8200   21.2840  -29.0930 C   0  0  0  0  0  0  0  0  0  0  0  0
  -14.0680   21.5380  -27.6320 C   0  0  0  0  0  0  0  0  0  0  0  0
  -14.7460   21.0290  -29.8620 O   0  0  0  0  0  0  0  0  0  0  0  0
  -13.9740   20.1330  -27.0070 C   0  0  0  0  0  0  0  0  0  0  0  0
  -14.0270   19.9780  -25.4860 C   0  0  0  0  0  0  0  0  0  0  0  0
  -13.2440   21.0650  -24.7650 C   0  0  0  0  0  0  0  0  0  0  0  0
  -15.4650   19.9240  -25.0200 C   0  0  0  0  0  0  0  0  0  0  0  0
  1  2  1  0
  3  2  1  0
  2  4  1  0
  3  5  1  6
  5  6  1  0
  6  7  1  0
  6  8  1  0
A    2
 C1 
A    4
 O1 
A    5
 C5 
A    6
 C6 
A    7
 C7 
A    8
 C8 
M  END
>  <XChem_code>  (915) 
polymer

>  <Occupancy>  (915) 
[1.0, 1.0, 1.0, 1.0, 1.0, 1.0, 1.0, 1.0, 1.0, 1.0, 1.0, 1.0, 1.0, 1.0, 1.0, 1.0, 1.0, 1.0, 1.0, 1.0, 1.0, 1.0, 1.0, 1.0, 1.0, 1.0, 1.0, 1.0, 1.0, 1.0, 1.0, 1.0, 1.0, 1.0, 1.0, 1.0, 1.0, 1.0, 1.0, 1.0, 1.0, 1.0, 1.0, 1.0, 1.0, 1.0, 1.0, 1.0, 1.0, 1.0, 1.0, 1.0, 1.0, 1.0, 1.0, 1.0, 1.0, 1.0]

>  <TempFactor>  (915) 
[0.0, 0.0, 0.0, 0.0, 0.0, 0.0, 0.0, 0.0, 0.0, 0.0, 0.0, 0.0, 0.0, 0.0, 0.0, 0.0, 0.0, 0.0, 0.0, 0.0, 0.0, 0.0, 0.0, 0.0, 0.0, 0.0, 0.0, 0.0, 0.0, 0.0, 0.0, 0.0, 0.0, 0.0, 0.0, 0.0, 0.0, 0.0, 0.0, 0.0, 0.0, 0.0, 0.0, 0.0, 0.0, 0.0, 0.0, 0.0, 0.0, 0.0, 0.0, 0.0, 0.0, 0.0, 0.0, 0.0, 0.0, 0.0]

>  <base_name>  (915) 
2b0f

>  <lig_resn>  (915) 
None

>  <lig_resi>  (915) 
1

>  <lig_chain>  (915) 
B

>  <lig_segi>  (915) 


>  <lig_alt>  (915) 


>  <polymer_chain>  (915) 
A

>  <single_smiles>  (915) 
None

$$$$
polymerS25
     RDKit          3D

 16 15  0  0  0  0  0  0  0  0999 V2000
  -11.3450   19.7670  -30.6210 C   0  0  0  0  0  0  0  0  0  0  0  0
  -12.2360   20.9510  -30.8060 C   0  0  1  0  0  0  0  0  0  0  0  0
  -10.1190   19.8830  -30.5960 O   0  0  0  0  0  0  0  0  0  0  0  0
  -12.5790   21.3540  -29.4810 N   0  0  0  0  0  0  0  0  0  0  0  0
  -11.5450   22.0000  -31.6560 C   0  0  0  0  0  0  0  0  0  0  0  0
  -13.8200   21.2840  -29.0930 C   0  0  0  0  0  0  0  0  0  0  0  0
  -11.2540   21.4640  -33.0520 C   0  0  0  0  0  0  0  0  0  0  0  0
  -14.0680   21.5380  -27.6320 C   0  0  0  0  0  0  0  0  0  0  0  0
  -14.7460   21.0290  -29.8620 O   0  0  0  0  0  0  0  0  0  0  0  0
  -10.4830   22.4400  -33.9180 C   0  0  0  0  0  0  0  0  0  0  0  0
  -13.9740   20.1330  -27.0070 C   0  0  0  0  0  0  0  0  0  0  0  0
  -11.1230   23.2880  -34.5660 O   0  0  0  0  0  0  0  0  0  0  0  0
   -9.2440   22.3600  -33.9420 O   0  0  0  0  0  0  0  0  0  0  0  0
  -14.0270   19.9780  -25.4860 C   0  0  0  0  0  0  0  0  0  0  0  0
  -13.2440   21.0650  -24.7650 C   0  0  0  0  0  0  0  0  0  0  0  0
  -15.4650   19.9240  -25.0200 C   0  0  0  0  0  0  0  0  0  0  0  0
  2  1  1  0
  1  3  1  1
  4  2  1  0
  2  5  1  1
  4  6  1  0
  5  7  1  0
  8  6  1  0
  6  9  1  0
  7 10  1  0
  8 11  1  6
 10 12  1  0
 10 13  1  0
 11 14  1  0
 14 15  1  0
 14 16  1  0
M  CHG  1  13  -1
A    2
 C3 
A    3
 O1 
A    4
 N1 
A    5
 C5 
A    6
 C1 
A    7
 C6 
A    9
 O1 
A   10
 C13
A   11
 C5 
A   12
 O4 
A   13
 O5 
A   14
 C6 
A   15
 C7 
A   16
 C8 
M  END
>  <XChem_code>  (916) 
polymer

>  <Occupancy>  (916) 
[1.0, 1.0, 1.0, 1.0, 1.0, 1.0, 1.0, 1.0, 1.0, 1.0, 1.0, 1.0, 1.0, 1.0, 1.0, 1.0, 1.0, 1.0, 1.0, 1.0, 1.0, 1.0, 1.0, 1.0, 1.0, 1.0, 1.0, 1.0, 1.0, 1.0, 1.0, 1.0, 1.0, 1.0, 1.0, 1.0, 1.0, 1.0, 1.0, 1.0, 1.0, 1.0, 1.0, 1.0, 1.0, 1.0, 1.0, 1.0, 1.0, 1.0, 1.0, 1.0, 1.0, 1.0, 1.0, 1.0, 1.0, 1.0]

>  <TempFactor>  (916) 
[0.0, 0.0, 0.0, 0.0, 0.0, 0.0, 0.0, 0.0, 0.0, 0.0, 0.0, 0.0, 0.0, 0.0, 0.0, 0.0, 0.0, 0.0, 0.0, 0.0, 0.0, 0.0, 0.0, 0.0, 0.0, 0.0, 0.0, 0.0, 0.0, 0.0, 0.0, 0.0, 0.0, 0.0, 0.0, 0.0, 0.0, 0.0, 0.0, 0.0, 0.0, 0.0, 0.0, 0.0, 0.0, 0.0, 0.0, 0.0, 0.0, 0.0, 0.0, 0.0, 0.0, 0.0, 0.0, 0.0, 0.0, 0.0]

>  <base_name>  (916) 
2b0f

>  <lig_resn>  (916) 
None

>  <lig_resi>  (916) 
1

>  <lig_chain>  (916) 
B

>  <lig_segi>  (916) 


>  <lig_alt>  (916) 


>  <polymer_chain>  (916) 
A

>  <single_smiles>  (916) 
None

$$$$
polymerS26
     RDKit          3D

 17 16  0  0  0  0  0  0  0  0999 V2000
  -11.9720   18.6270  -30.4030 N   0  0  0  0  0  0  0  0  0  0  0  0
  -11.3450   19.7670  -30.6210 C   0  0  1  0  0  0  0  0  0  0  0  0
  -12.2360   20.9510  -30.8060 C   0  0  1  0  0  0  0  0  0  0  0  0
  -10.1190   19.8830  -30.5960 O   0  0  0  0  0  0  0  0  0  0  0  0
  -12.5790   21.3540  -29.4810 N   0  0  0  0  0  0  0  0  0  0  0  0
  -11.5450   22.0000  -31.6560 C   0  0  0  0  0  0  0  0  0  0  0  0
  -13.8200   21.2840  -29.0930 C   0  0  0  0  0  0  0  0  0  0  0  0
  -11.2540   21.4640  -33.0520 C   0  0  0  0  0  0  0  0  0  0  0  0
  -14.0680   21.5380  -27.6320 C   0  0  0  0  0  0  0  0  0  0  0  0
  -14.7460   21.0290  -29.8620 O   0  0  0  0  0  0  0  0  0  0  0  0
  -10.4830   22.4400  -33.9180 C   0  0  0  0  0  0  0  0  0  0  0  0
  -13.9740   20.1330  -27.0070 C   0  0  0  0  0  0  0  0  0  0  0  0
  -11.1230   23.2880  -34.5660 O   0  0  0  0  0  0  0  0  0  0  0  0
   -9.2440   22.3600  -33.9420 O   0  0  0  0  0  0  0  0  0  0  0  0
  -14.0270   19.9780  -25.4860 C   0  0  0  0  0  0  0  0  0  0  0  0
  -13.2440   21.0650  -24.7650 C   0  0  0  0  0  0  0  0  0  0  0  0
  -15.4650   19.9240  -25.0200 C   0  0  0  0  0  0  0  0  0  0  0  0
  2  1  1  1
  3  2  1  0
  2  4  1  0
  5  3  1  0
  3  6  1  1
  5  7  1  0
  6  8  1  0
  9  7  1  0
  7 10  1  0
  8 11  1  0
  9 12  1  6
 11 13  1  0
 11 14  1  0
 12 15  1  0
 15 16  1  0
 15 17  1  0
M  CHG  1  14  -1
A    2
 C1 
A    3
 C3 
A    4
 O1 
A    5
 N1 
A    6
 C5 
A    7
 C1 
A    8
 C6 
A   10
 O1 
A   11
 C13
A   12
 C5 
A   13
 O4 
A   14
 O5 
A   15
 C6 
A   16
 C7 
A   17
 C8 
M  END
>  <XChem_code>  (917) 
polymer

>  <Occupancy>  (917) 
[1.0, 1.0, 1.0, 1.0, 1.0, 1.0, 1.0, 1.0, 1.0, 1.0, 1.0, 1.0, 1.0, 1.0, 1.0, 1.0, 1.0, 1.0, 1.0, 1.0, 1.0, 1.0, 1.0, 1.0, 1.0, 1.0, 1.0, 1.0, 1.0, 1.0, 1.0, 1.0, 1.0, 1.0, 1.0, 1.0, 1.0, 1.0, 1.0, 1.0, 1.0, 1.0, 1.0, 1.0, 1.0, 1.0, 1.0, 1.0, 1.0, 1.0, 1.0, 1.0, 1.0, 1.0, 1.0, 1.0, 1.0, 1.0]

>  <TempFactor>  (917) 
[0.0, 0.0, 0.0, 0.0, 0.0, 0.0, 0.0, 0.0, 0.0, 0.0, 0.0, 0.0, 0.0, 0.0, 0.0, 0.0, 0.0, 0.0, 0.0, 0.0, 0.0, 0.0, 0.0, 0.0, 0.0, 0.0, 0.0, 0.0, 0.0, 0.0, 0.0, 0.0, 0.0, 0.0, 0.0, 0.0, 0.0, 0.0, 0.0, 0.0, 0.0, 0.0, 0.0, 0.0, 0.0, 0.0, 0.0, 0.0, 0.0, 0.0, 0.0, 0.0, 0.0, 0.0, 0.0, 0.0, 0.0, 0.0]

>  <base_name>  (917) 
2b0f

>  <lig_resn>  (917) 
None

>  <lig_resi>  (917) 
1

>  <lig_chain>  (917) 
B

>  <lig_segi>  (917) 


>  <lig_alt>  (917) 


>  <polymer_chain>  (917) 
A

>  <single_smiles>  (917) 
None

$$$$
polymerS27
     RDKit          3D

 21 20  0  0  0  0  0  0  0  0999 V2000
  -10.8520   16.9140  -31.5780 C   0  0  0  0  0  0  0  0  0  0  0  0
  -11.2320   17.4190  -30.2140 C   0  0  1  0  0  0  0  0  0  0  0  0
  -11.5590   17.1540  -32.5510 O   0  0  0  0  0  0  0  0  0  0  0  0
  -11.9720   18.6270  -30.4030 N   0  0  0  0  0  0  0  0  0  0  0  0
  -12.0320   16.4040  -29.4200 C   0  0  0  0  0  0  0  0  0  0  0  0
  -11.3450   19.7670  -30.6210 C   0  0  1  0  0  0  0  0  0  0  0  0
  -12.2360   20.9510  -30.8060 C   0  0  1  0  0  0  0  0  0  0  0  0
  -10.1190   19.8830  -30.5960 O   0  0  0  0  0  0  0  0  0  0  0  0
  -12.5790   21.3540  -29.4810 N   0  0  0  0  0  0  0  0  0  0  0  0
  -11.5450   22.0000  -31.6560 C   0  0  0  0  0  0  0  0  0  0  0  0
  -13.8200   21.2840  -29.0930 C   0  0  0  0  0  0  0  0  0  0  0  0
  -11.2540   21.4640  -33.0520 C   0  0  0  0  0  0  0  0  0  0  0  0
  -14.0680   21.5380  -27.6320 C   0  0  0  0  0  0  0  0  0  0  0  0
  -14.7460   21.0290  -29.8620 O   0  0  0  0  0  0  0  0  0  0  0  0
  -10.4830   22.4400  -33.9180 C   0  0  0  0  0  0  0  0  0  0  0  0
  -13.9740   20.1330  -27.0070 C   0  0  0  0  0  0  0  0  0  0  0  0
  -11.1230   23.2880  -34.5660 O   0  0  0  0  0  0  0  0  0  0  0  0
   -9.2440   22.3600  -33.9420 O   0  0  0  0  0  0  0  0  0  0  0  0
  -14.0270   19.9780  -25.4860 C   0  0  0  0  0  0  0  0  0  0  0  0
  -13.2440   21.0650  -24.7650 C   0  0  0  0  0  0  0  0  0  0  0  0
  -15.4650   19.9240  -25.0200 C   0  0  0  0  0  0  0  0  0  0  0  0
  2  1  1  0
  1  3  1  0
  4  2  1  0
  2  5  1  6
  4  6  1  0
  7  6  1  0
  6  8  1  1
  9  7  1  0
  7 10  1  1
  9 11  1  0
 10 12  1  0
 13 11  1  0
 11 14  1  0
 12 15  1  0
 13 16  1  6
 15 17  1  0
 15 18  1  0
 16 19  1  0
 19 20  1  0
 19 21  1  0
M  CHG  1  18  -1
A    2
 C3 
A    3
 O1 
A    4
 N1 
A    5
 C5 
A    6
 C1 
A    7
 C3 
A    8
 O1 
A    9
 N1 
A   10
 C5 
A   11
 C1 
A   12
 C6 
A   14
 O1 
A   15
 C13
A   16
 C5 
A   17
 O4 
A   18
 O5 
A   19
 C6 
A   20
 C7 
A   21
 C8 
M  END
>  <XChem_code>  (918) 
polymer

>  <Occupancy>  (918) 
[1.0, 1.0, 1.0, 1.0, 1.0, 1.0, 1.0, 1.0, 1.0, 1.0, 1.0, 1.0, 1.0, 1.0, 1.0, 1.0, 1.0, 1.0, 1.0, 1.0, 1.0, 1.0, 1.0, 1.0, 1.0, 1.0, 1.0, 1.0, 1.0, 1.0, 1.0, 1.0, 1.0, 1.0, 1.0, 1.0, 1.0, 1.0, 1.0, 1.0, 1.0, 1.0, 1.0, 1.0, 1.0, 1.0, 1.0, 1.0, 1.0, 1.0, 1.0, 1.0, 1.0, 1.0, 1.0, 1.0, 1.0, 1.0]

>  <TempFactor>  (918) 
[0.0, 0.0, 0.0, 0.0, 0.0, 0.0, 0.0, 0.0, 0.0, 0.0, 0.0, 0.0, 0.0, 0.0, 0.0, 0.0, 0.0, 0.0, 0.0, 0.0, 0.0, 0.0, 0.0, 0.0, 0.0, 0.0, 0.0, 0.0, 0.0, 0.0, 0.0, 0.0, 0.0, 0.0, 0.0, 0.0, 0.0, 0.0, 0.0, 0.0, 0.0, 0.0, 0.0, 0.0, 0.0, 0.0, 0.0, 0.0, 0.0, 0.0, 0.0, 0.0, 0.0, 0.0, 0.0, 0.0, 0.0, 0.0]

>  <base_name>  (918) 
2b0f

>  <lig_resn>  (918) 
None

>  <lig_resi>  (918) 
1

>  <lig_chain>  (918) 
B

>  <lig_segi>  (918) 


>  <lig_alt>  (918) 


>  <polymer_chain>  (918) 
A

>  <single_smiles>  (918) 
None

$$$$
polymerS28
     RDKit          3D

 22 21  0  0  0  0  0  0  0  0999 V2000
   -9.7350   16.2520  -31.6700 N   0  0  0  0  0  0  0  0  0  0  0  0
  -10.8520   16.9140  -31.5780 C   0  0  0  0  0  0  0  0  0  0  0  0
  -11.2320   17.4190  -30.2140 C   0  0  1  0  0  0  0  0  0  0  0  0
  -11.5590   17.1540  -32.5510 O   0  0  0  0  0  0  0  0  0  0  0  0
  -11.9720   18.6270  -30.4030 N   0  0  0  0  0  0  0  0  0  0  0  0
  -12.0320   16.4040  -29.4200 C   0  0  0  0  0  0  0  0  0  0  0  0
  -11.3450   19.7670  -30.6210 C   0  0  1  0  0  0  0  0  0  0  0  0
  -12.2360   20.9510  -30.8060 C   0  0  1  0  0  0  0  0  0  0  0  0
  -10.1190   19.8830  -30.5960 O   0  0  0  0  0  0  0  0  0  0  0  0
  -12.5790   21.3540  -29.4810 N   0  0  0  0  0  0  0  0  0  0  0  0
  -11.5450   22.0000  -31.6560 C   0  0  0  0  0  0  0  0  0  0  0  0
  -13.8200   21.2840  -29.0930 C   0  0  0  0  0  0  0  0  0  0  0  0
  -11.2540   21.4640  -33.0520 C   0  0  0  0  0  0  0  0  0  0  0  0
  -14.0680   21.5380  -27.6320 C   0  0  0  0  0  0  0  0  0  0  0  0
  -14.7460   21.0290  -29.8620 O   0  0  0  0  0  0  0  0  0  0  0  0
  -10.4830   22.4400  -33.9180 C   0  0  0  0  0  0  0  0  0  0  0  0
  -13.9740   20.1330  -27.0070 C   0  0  0  0  0  0  0  0  0  0  0  0
  -11.1230   23.2880  -34.5660 O   0  0  0  0  0  0  0  0  0  0  0  0
   -9.2440   22.3600  -33.9420 O   0  0  0  0  0  0  0  0  0  0  0  0
  -14.0270   19.9780  -25.4860 C   0  0  0  0  0  0  0  0  0  0  0  0
  -13.2440   21.0650  -24.7650 C   0  0  0  0  0  0  0  0  0  0  0  0
  -15.4650   19.9240  -25.0200 C   0  0  0  0  0  0  0  0  0  0  0  0
  1  2  1  0
  3  2  1  0
  2  4  1  0
  5  3  1  0
  3  6  1  6
  5  7  1  0
  8  7  1  0
  7  9  1  1
 10  8  1  0
  8 11  1  1
 10 12  1  0
 11 13  1  0
 14 12  1  0
 12 15  1  0
 13 16  1  0
 14 17  1  6
 16 18  1  0
 16 19  1  0
 17 20  1  0
 20 21  1  0
 20 22  1  0
M  CHG  1  19  -1
A    2
 C1 
A    3
 C3 
A    4
 O1 
A    5
 N1 
A    6
 C5 
A    7
 C1 
A    8
 C3 
A    9
 O1 
A   10
 N1 
A   11
 C5 
A   12
 C1 
A   13
 C6 
A   15
 O1 
A   16
 C13
A   17
 C5 
A   18
 O4 
A   19
 O5 
A   20
 C6 
A   21
 C7 
A   22
 C8 
M  END
>  <XChem_code>  (919) 
polymer

>  <Occupancy>  (919) 
[1.0, 1.0, 1.0, 1.0, 1.0, 1.0, 1.0, 1.0, 1.0, 1.0, 1.0, 1.0, 1.0, 1.0, 1.0, 1.0, 1.0, 1.0, 1.0, 1.0, 1.0, 1.0, 1.0, 1.0, 1.0, 1.0, 1.0, 1.0, 1.0, 1.0, 1.0, 1.0, 1.0, 1.0, 1.0, 1.0, 1.0, 1.0, 1.0, 1.0, 1.0, 1.0, 1.0, 1.0, 1.0, 1.0, 1.0, 1.0, 1.0, 1.0, 1.0, 1.0, 1.0, 1.0, 1.0, 1.0, 1.0, 1.0]

>  <TempFactor>  (919) 
[0.0, 0.0, 0.0, 0.0, 0.0, 0.0, 0.0, 0.0, 0.0, 0.0, 0.0, 0.0, 0.0, 0.0, 0.0, 0.0, 0.0, 0.0, 0.0, 0.0, 0.0, 0.0, 0.0, 0.0, 0.0, 0.0, 0.0, 0.0, 0.0, 0.0, 0.0, 0.0, 0.0, 0.0, 0.0, 0.0, 0.0, 0.0, 0.0, 0.0, 0.0, 0.0, 0.0, 0.0, 0.0, 0.0, 0.0, 0.0, 0.0, 0.0, 0.0, 0.0, 0.0, 0.0, 0.0, 0.0, 0.0, 0.0]

>  <base_name>  (919) 
2b0f

>  <lig_resn>  (919) 
None

>  <lig_resi>  (919) 
1

>  <lig_chain>  (919) 
B

>  <lig_segi>  (919) 


>  <lig_alt>  (919) 


>  <polymer_chain>  (919) 
A

>  <single_smiles>  (919) 
None

$$$$
polymerS29
     RDKit          3D

 29 28  0  0  0  0  0  0  0  0999 V2000
   -9.4760   14.3090  -33.1760 C   0  0  0  0  0  0  0  0  0  0  0  0
   -9.2690   15.7910  -32.9510 C   0  0  1  0  0  0  0  0  0  0  0  0
   -9.5290   13.5200  -32.2290 O   0  0  0  0  0  0  0  0  0  0  0  0
   -9.7350   16.2520  -31.6700 N   0  0  0  0  0  0  0  0  0  0  0  0
   -7.7900   16.0900  -33.0900 C   0  0  0  0  0  0  0  0  0  0  0  0
  -10.8520   16.9140  -31.5780 C   0  0  0  0  0  0  0  0  0  0  0  0
   -7.1690   15.4980  -34.3400 C   0  0  0  0  0  0  0  0  0  0  0  0
  -11.2320   17.4190  -30.2140 C   0  0  1  0  0  0  0  0  0  0  0  0
  -11.5590   17.1540  -32.5510 O   0  0  0  0  0  0  0  0  0  0  0  0
   -7.6760   16.2470  -35.5700 C   0  0  0  0  0  0  0  0  0  0  0  0
   -5.6520   15.5520  -34.2470 C   0  0  0  0  0  0  0  0  0  0  0  0
  -11.9720   18.6270  -30.4030 N   0  0  0  0  0  0  0  0  0  0  0  0
  -12.0320   16.4040  -29.4200 C   0  0  0  0  0  0  0  0  0  0  0  0
  -11.3450   19.7670  -30.6210 C   0  0  1  0  0  0  0  0  0  0  0  0
  -12.2360   20.9510  -30.8060 C   0  0  1  0  0  0  0  0  0  0  0  0
  -10.1190   19.8830  -30.5960 O   0  0  0  0  0  0  0  0  0  0  0  0
  -12.5790   21.3540  -29.4810 N   0  0  0  0  0  0  0  0  0  0  0  0
  -11.5450   22.0000  -31.6560 C   0  0  0  0  0  0  0  0  0  0  0  0
  -13.8200   21.2840  -29.0930 C   0  0  0  0  0  0  0  0  0  0  0  0
  -11.2540   21.4640  -33.0520 C   0  0  0  0  0  0  0  0  0  0  0  0
  -14.0680   21.5380  -27.6320 C   0  0  0  0  0  0  0  0  0  0  0  0
  -14.7460   21.0290  -29.8620 O   0  0  0  0  0  0  0  0  0  0  0  0
  -10.4830   22.4400  -33.9180 C   0  0  0  0  0  0  0  0  0  0  0  0
  -13.9740   20.1330  -27.0070 C   0  0  0  0  0  0  0  0  0  0  0  0
  -11.1230   23.2880  -34.5660 O   0  0  0  0  0  0  0  0  0  0  0  0
   -9.2440   22.3600  -33.9420 O   0  0  0  0  0  0  0  0  0  0  0  0
  -14.0270   19.9780  -25.4860 C   0  0  0  0  0  0  0  0  0  0  0  0
  -13.2440   21.0650  -24.7650 C   0  0  0  0  0  0  0  0  0  0  0  0
  -15.4650   19.9240  -25.0200 C   0  0  0  0  0  0  0  0  0  0  0  0
  2  1  1  1
  1  3  1  0
  4  2  1  0
  2  5  1  0
  4  6  1  0
  5  7  1  0
  8  6  1  0
  6  9  1  0
  7 10  1  0
  7 11  1  0
 12  8  1  0
  8 13  1  6
 12 14  1  0
 15 14  1  0
 14 16  1  1
 17 15  1  0
 15 18  1  1
 17 19  1  0
 18 20  1  0
 21 19  1  0
 19 22  1  0
 20 23  1  0
 21 24  1  6
 23 25  1  0
 23 26  1  0
 24 27  1  0
 27 28  1  0
 27 29  1  0
M  CHG  1  26  -1
A    2
 C3 
A    3
 O1 
A    4
 N1 
A    5
 C5 
A    6
 C1 
A    7
 C6 
A    8
 C3 
A    9
 O1 
A   10
 C7 
A   11
 C8 
A   12
 N1 
A   13
 C5 
A   14
 C1 
A   15
 C3 
A   16
 O1 
A   17
 N1 
A   18
 C5 
A   19
 C1 
A   20
 C6 
A   22
 O1 
A   23
 C13
A   24
 C5 
A   25
 O4 
A   26
 O5 
A   27
 C6 
A   28
 C7 
A   29
 C8 
M  END
>  <XChem_code>  (920) 
polymer

>  <Occupancy>  (920) 
[1.0, 1.0, 1.0, 1.0, 1.0, 1.0, 1.0, 1.0, 1.0, 1.0, 1.0, 1.0, 1.0, 1.0, 1.0, 1.0, 1.0, 1.0, 1.0, 1.0, 1.0, 1.0, 1.0, 1.0, 1.0, 1.0, 1.0, 1.0, 1.0, 1.0, 1.0, 1.0, 1.0, 1.0, 1.0, 1.0, 1.0, 1.0, 1.0, 1.0, 1.0, 1.0, 1.0, 1.0, 1.0, 1.0, 1.0, 1.0, 1.0, 1.0, 1.0, 1.0, 1.0, 1.0, 1.0, 1.0, 1.0, 1.0]

>  <TempFactor>  (920) 
[0.0, 0.0, 0.0, 0.0, 0.0, 0.0, 0.0, 0.0, 0.0, 0.0, 0.0, 0.0, 0.0, 0.0, 0.0, 0.0, 0.0, 0.0, 0.0, 0.0, 0.0, 0.0, 0.0, 0.0, 0.0, 0.0, 0.0, 0.0, 0.0, 0.0, 0.0, 0.0, 0.0, 0.0, 0.0, 0.0, 0.0, 0.0, 0.0, 0.0, 0.0, 0.0, 0.0, 0.0, 0.0, 0.0, 0.0, 0.0, 0.0, 0.0, 0.0, 0.0, 0.0, 0.0, 0.0, 0.0, 0.0, 0.0]

>  <base_name>  (920) 
2b0f

>  <lig_resn>  (920) 
None

>  <lig_resi>  (920) 
1

>  <lig_chain>  (920) 
B

>  <lig_segi>  (920) 


>  <lig_alt>  (920) 


>  <polymer_chain>  (920) 
A

>  <single_smiles>  (920) 
None

$$$$
polymerS30
     RDKit          3D

 30 29  0  0  0  0  0  0  0  0999 V2000
   -9.6030   13.9290  -34.4410 N   0  0  0  0  0  0  0  0  0  0  0  0
   -9.4760   14.3090  -33.1760 C   0  0  0  0  0  0  0  0  0  0  0  0
   -9.2690   15.7910  -32.9510 C   0  0  1  0  0  0  0  0  0  0  0  0
   -9.5290   13.5200  -32.2290 O   0  0  0  0  0  0  0  0  0  0  0  0
   -9.7350   16.2520  -31.6700 N   0  0  0  0  0  0  0  0  0  0  0  0
   -7.7900   16.0900  -33.0900 C   0  0  0  0  0  0  0  0  0  0  0  0
  -10.8520   16.9140  -31.5780 C   0  0  0  0  0  0  0  0  0  0  0  0
   -7.1690   15.4980  -34.3400 C   0  0  0  0  0  0  0  0  0  0  0  0
  -11.2320   17.4190  -30.2140 C   0  0  1  0  0  0  0  0  0  0  0  0
  -11.5590   17.1540  -32.5510 O   0  0  0  0  0  0  0  0  0  0  0  0
   -7.6760   16.2470  -35.5700 C   0  0  0  0  0  0  0  0  0  0  0  0
   -5.6520   15.5520  -34.2470 C   0  0  0  0  0  0  0  0  0  0  0  0
  -11.9720   18.6270  -30.4030 N   0  0  0  0  0  0  0  0  0  0  0  0
  -12.0320   16.4040  -29.4200 C   0  0  0  0  0  0  0  0  0  0  0  0
  -11.3450   19.7670  -30.6210 C   0  0  1  0  0  0  0  0  0  0  0  0
  -12.2360   20.9510  -30.8060 C   0  0  1  0  0  0  0  0  0  0  0  0
  -10.1190   19.8830  -30.5960 O   0  0  0  0  0  0  0  0  0  0  0  0
  -12.5790   21.3540  -29.4810 N   0  0  0  0  0  0  0  0  0  0  0  0
  -11.5450   22.0000  -31.6560 C   0  0  0  0  0  0  0  0  0  0  0  0
  -13.8200   21.2840  -29.0930 C   0  0  0  0  0  0  0  0  0  0  0  0
  -11.2540   21.4640  -33.0520 C   0  0  0  0  0  0  0  0  0  0  0  0
  -14.0680   21.5380  -27.6320 C   0  0  0  0  0  0  0  0  0  0  0  0
  -14.7460   21.0290  -29.8620 O   0  0  0  0  0  0  0  0  0  0  0  0
  -10.4830   22.4400  -33.9180 C   0  0  0  0  0  0  0  0  0  0  0  0
  -13.9740   20.1330  -27.0070 C   0  0  0  0  0  0  0  0  0  0  0  0
  -11.1230   23.2880  -34.5660 O   0  0  0  0  0  0  0  0  0  0  0  0
   -9.2440   22.3600  -33.9420 O   0  0  0  0  0  0  0  0  0  0  0  0
  -14.0270   19.9780  -25.4860 C   0  0  0  0  0  0  0  0  0  0  0  0
  -13.2440   21.0650  -24.7650 C   0  0  0  0  0  0  0  0  0  0  0  0
  -15.4650   19.9240  -25.0200 C   0  0  0  0  0  0  0  0  0  0  0  0
  1  2  1  0
  3  2  1  0
  2  4  1  0
  5  3  1  0
  3  6  1  1
  5  7  1  0
  6  8  1  0
  9  7  1  0
  7 10  1  0
  8 11  1  0
  8 12  1  0
 13  9  1  0
  9 14  1  6
 13 15  1  0
 16 15  1  0
 15 17  1  1
 18 16  1  0
 16 19  1  1
 18 20  1  0
 19 21  1  0
 22 20  1  0
 20 23  1  0
 21 24  1  0
 22 25  1  6
 24 26  1  0
 24 27  1  0
 25 28  1  0
 28 29  1  0
 28 30  1  0
M  CHG  1  27  -1
A    2
 C1 
A    3
 C3 
A    4
 O1 
A    5
 N1 
A    6
 C5 
A    7
 C1 
A    8
 C6 
A    9
 C3 
A   10
 O1 
A   11
 C7 
A   12
 C8 
A   13
 N1 
A   14
 C5 
A   15
 C1 
A   16
 C3 
A   17
 O1 
A   18
 N1 
A   19
 C5 
A   20
 C1 
A   21
 C6 
A   23
 O1 
A   24
 C13
A   25
 C5 
A   26
 O4 
A   27
 O5 
A   28
 C6 
A   29
 C7 
A   30
 C8 
M  END
>  <XChem_code>  (921) 
polymer

>  <Occupancy>  (921) 
[1.0, 1.0, 1.0, 1.0, 1.0, 1.0, 1.0, 1.0, 1.0, 1.0, 1.0, 1.0, 1.0, 1.0, 1.0, 1.0, 1.0, 1.0, 1.0, 1.0, 1.0, 1.0, 1.0, 1.0, 1.0, 1.0, 1.0, 1.0, 1.0, 1.0, 1.0, 1.0, 1.0, 1.0, 1.0, 1.0, 1.0, 1.0, 1.0, 1.0, 1.0, 1.0, 1.0, 1.0, 1.0, 1.0, 1.0, 1.0, 1.0, 1.0, 1.0, 1.0, 1.0, 1.0, 1.0, 1.0, 1.0, 1.0]

>  <TempFactor>  (921) 
[0.0, 0.0, 0.0, 0.0, 0.0, 0.0, 0.0, 0.0, 0.0, 0.0, 0.0, 0.0, 0.0, 0.0, 0.0, 0.0, 0.0, 0.0, 0.0, 0.0, 0.0, 0.0, 0.0, 0.0, 0.0, 0.0, 0.0, 0.0, 0.0, 0.0, 0.0, 0.0, 0.0, 0.0, 0.0, 0.0, 0.0, 0.0, 0.0, 0.0, 0.0, 0.0, 0.0, 0.0, 0.0, 0.0, 0.0, 0.0, 0.0, 0.0, 0.0, 0.0, 0.0, 0.0, 0.0, 0.0, 0.0, 0.0]

>  <base_name>  (921) 
2b0f

>  <lig_resn>  (921) 
None

>  <lig_resi>  (921) 
1

>  <lig_chain>  (921) 
B

>  <lig_segi>  (921) 


>  <lig_alt>  (921) 


>  <polymer_chain>  (921) 
A

>  <single_smiles>  (921) 
None

$$$$
polymerS31
     RDKit          3D

 40 40  0  0  0  0  0  0  0  0999 V2000
   -8.4470   11.8470  -34.2880 C   0  0  0  0  0  0  0  0  0  0  0  0
   -9.7190   12.5240  -34.7630 C   0  0  1  0  0  0  0  0  0  0  0  0
   -7.3750   12.4480  -34.3620 O   0  0  0  0  0  0  0  0  0  0  0  0
   -9.6030   13.9290  -34.4410 N   0  0  0  0  0  0  0  0  0  0  0  0
   -9.8560   12.2790  -36.2650 C   0  0  0  0  0  0  0  0  0  0  0  0
   -9.4760   14.3090  -33.1760 C   0  0  0  0  0  0  0  0  0  0  0  0
  -11.0400   12.9250  -36.9220 C   0  0  0  0  0  0  0  0  0  0  0  0
   -9.2690   15.7910  -32.9510 C   0  0  1  0  0  0  0  0  0  0  0  0
   -9.5290   13.5200  -32.2290 O   0  0  0  0  0  0  0  0  0  0  0  0
  -12.3100   12.8260  -36.3750 C   0  0  0  0  0  0  0  0  0  0  0  0
  -10.8770   13.6090  -38.1140 C   0  0  0  0  0  0  0  0  0  0  0  0
   -9.7350   16.2520  -31.6700 N   0  0  0  0  0  0  0  0  0  0  0  0
   -7.7900   16.0900  -33.0900 C   0  0  0  0  0  0  0  0  0  0  0  0
  -13.3920   13.4040  -37.0080 C   0  0  0  0  0  0  0  0  0  0  0  0
  -11.9550   14.1810  -38.7530 C   0  0  0  0  0  0  0  0  0  0  0  0
  -10.8520   16.9140  -31.5780 C   0  0  0  0  0  0  0  0  0  0  0  0
   -7.1690   15.4980  -34.3400 C   0  0  0  0  0  0  0  0  0  0  0  0
  -13.2150   14.0820  -38.2020 C   0  0  0  0  0  0  0  0  0  0  0  0
  -11.2320   17.4190  -30.2140 C   0  0  1  0  0  0  0  0  0  0  0  0
  -11.5590   17.1540  -32.5510 O   0  0  0  0  0  0  0  0  0  0  0  0
   -7.6760   16.2470  -35.5700 C   0  0  0  0  0  0  0  0  0  0  0  0
   -5.6520   15.5520  -34.2470 C   0  0  0  0  0  0  0  0  0  0  0  0
  -11.9720   18.6270  -30.4030 N   0  0  0  0  0  0  0  0  0  0  0  0
  -12.0320   16.4040  -29.4200 C   0  0  0  0  0  0  0  0  0  0  0  0
  -11.3450   19.7670  -30.6210 C   0  0  1  0  0  0  0  0  0  0  0  0
  -12.2360   20.9510  -30.8060 C   0  0  1  0  0  0  0  0  0  0  0  0
  -10.1190   19.8830  -30.5960 O   0  0  0  0  0  0  0  0  0  0  0  0
  -12.5790   21.3540  -29.4810 N   0  0  0  0  0  0  0  0  0  0  0  0
  -11.5450   22.0000  -31.6560 C   0  0  0  0  0  0  0  0  0  0  0  0
  -13.8200   21.2840  -29.0930 C   0  0  0  0  0  0  0  0  0  0  0  0
  -11.2540   21.4640  -33.0520 C   0  0  0  0  0  0  0  0  0  0  0  0
  -14.0680   21.5380  -27.6320 C   0  0  0  0  0  0  0  0  0  0  0  0
  -14.7460   21.0290  -29.8620 O   0  0  0  0  0  0  0  0  0  0  0  0
  -10.4830   22.4400  -33.9180 C   0  0  0  0  0  0  0  0  0  0  0  0
  -13.9740   20.1330  -27.0070 C   0  0  0  0  0  0  0  0  0  0  0  0
  -11.1230   23.2880  -34.5660 O   0  0  0  0  0  0  0  0  0  0  0  0
   -9.2440   22.3600  -33.9420 O   0  0  0  0  0  0  0  0  0  0  0  0
  -14.0270   19.9780  -25.4860 C   0  0  0  0  0  0  0  0  0  0  0  0
  -13.2440   21.0650  -24.7650 C   0  0  0  0  0  0  0  0  0  0  0  0
  -15.4650   19.9240  -25.0200 C   0  0  0  0  0  0  0  0  0  0  0  0
  2  1  1  6
  1  3  1  0
  4  2  1  0
  2  5  1  0
  4  6  1  0
  5  7  1  0
  8  6  1  0
  6  9  1  0
  7 10  1  0
  7 11  1  0
 12  8  1  0
  8 13  1  1
 10 14  1  0
 11 15  1  0
 12 16  1  0
 13 17  1  0
 14 18  1  0
 15 18  1  0
 19 16  1  0
 16 20  1  0
 17 21  1  0
 17 22  1  0
 23 19  1  0
 19 24  1  6
 23 25  1  0
 26 25  1  0
 25 27  1  1
 28 26  1  0
 26 29  1  1
 28 30  1  0
 29 31  1  0
 32 30  1  0
 30 33  1  0
 31 34  1  0
 32 35  1  6
 34 36  1  0
 34 37  1  0
 35 38  1  0
 38 39  1  0
 38 40  1  0
M  CHG  1  37  -1
A    2
 C3 
A    3
 O1 
A    4
 N1 
A    5
 C5 
A    6
 C1 
A    7
 C6 
A    8
 C3 
A    9
 O1 
A   10
 C7 
A   11
 C8 
A   12
 N1 
A   13
 C5 
A   14
 C29
A   15
 C30
A   16
 C1 
A   17
 C6 
A   18
 C31
A   19
 C3 
A   20
 O1 
A   21
 C7 
A   22
 C8 
A   23
 N1 
A   24
 C5 
A   25
 C1 
A   26
 C3 
A   27
 O1 
A   28
 N1 
A   29
 C5 
A   30
 C1 
A   31
 C6 
A   33
 O1 
A   34
 C13
A   35
 C5 
A   36
 O4 
A   37
 O5 
A   38
 C6 
A   39
 C7 
A   40
 C8 
M  END
>  <XChem_code>  (922) 
polymer

>  <Occupancy>  (922) 
[1.0, 1.0, 1.0, 1.0, 1.0, 1.0, 1.0, 1.0, 1.0, 1.0, 1.0, 1.0, 1.0, 1.0, 1.0, 1.0, 1.0, 1.0, 1.0, 1.0, 1.0, 1.0, 1.0, 1.0, 1.0, 1.0, 1.0, 1.0, 1.0, 1.0, 1.0, 1.0, 1.0, 1.0, 1.0, 1.0, 1.0, 1.0, 1.0, 1.0, 1.0, 1.0, 1.0, 1.0, 1.0, 1.0, 1.0, 1.0, 1.0, 1.0, 1.0, 1.0, 1.0, 1.0, 1.0, 1.0, 1.0, 1.0]

>  <TempFactor>  (922) 
[0.0, 0.0, 0.0, 0.0, 0.0, 0.0, 0.0, 0.0, 0.0, 0.0, 0.0, 0.0, 0.0, 0.0, 0.0, 0.0, 0.0, 0.0, 0.0, 0.0, 0.0, 0.0, 0.0, 0.0, 0.0, 0.0, 0.0, 0.0, 0.0, 0.0, 0.0, 0.0, 0.0, 0.0, 0.0, 0.0, 0.0, 0.0, 0.0, 0.0, 0.0, 0.0, 0.0, 0.0, 0.0, 0.0, 0.0, 0.0, 0.0, 0.0, 0.0, 0.0, 0.0, 0.0, 0.0, 0.0, 0.0, 0.0]

>  <base_name>  (922) 
2b0f

>  <lig_resn>  (922) 
None

>  <lig_resi>  (922) 
1

>  <lig_chain>  (922) 
B

>  <lig_segi>  (922) 


>  <lig_alt>  (922) 


>  <polymer_chain>  (922) 
A

>  <single_smiles>  (922) 
None

$$$$
polymerS32
     RDKit          3D

 41 41  0  0  0  0  0  0  0  0999 V2000
   -8.5240   10.6110  -33.8090 N   0  0  0  0  0  0  0  0  0  0  0  0
   -8.4470   11.8470  -34.2880 C   0  0  0  0  0  0  0  0  0  0  0  0
   -9.7190   12.5240  -34.7630 C   0  0  1  0  0  0  0  0  0  0  0  0
   -7.3750   12.4480  -34.3620 O   0  0  0  0  0  0  0  0  0  0  0  0
   -9.6030   13.9290  -34.4410 N   0  0  0  0  0  0  0  0  0  0  0  0
   -9.8560   12.2790  -36.2650 C   0  0  0  0  0  0  0  0  0  0  0  0
   -9.4760   14.3090  -33.1760 C   0  0  0  0  0  0  0  0  0  0  0  0
  -11.0400   12.9250  -36.9220 C   0  0  0  0  0  0  0  0  0  0  0  0
   -9.2690   15.7910  -32.9510 C   0  0  1  0  0  0  0  0  0  0  0  0
   -9.5290   13.5200  -32.2290 O   0  0  0  0  0  0  0  0  0  0  0  0
  -12.3100   12.8260  -36.3750 C   0  0  0  0  0  0  0  0  0  0  0  0
  -10.8770   13.6090  -38.1140 C   0  0  0  0  0  0  0  0  0  0  0  0
   -9.7350   16.2520  -31.6700 N   0  0  0  0  0  0  0  0  0  0  0  0
   -7.7900   16.0900  -33.0900 C   0  0  0  0  0  0  0  0  0  0  0  0
  -13.3920   13.4040  -37.0080 C   0  0  0  0  0  0  0  0  0  0  0  0
  -11.9550   14.1810  -38.7530 C   0  0  0  0  0  0  0  0  0  0  0  0
  -10.8520   16.9140  -31.5780 C   0  0  0  0  0  0  0  0  0  0  0  0
   -7.1690   15.4980  -34.3400 C   0  0  0  0  0  0  0  0  0  0  0  0
  -13.2150   14.0820  -38.2020 C   0  0  0  0  0  0  0  0  0  0  0  0
  -11.2320   17.4190  -30.2140 C   0  0  1  0  0  0  0  0  0  0  0  0
  -11.5590   17.1540  -32.5510 O   0  0  0  0  0  0  0  0  0  0  0  0
   -7.6760   16.2470  -35.5700 C   0  0  0  0  0  0  0  0  0  0  0  0
   -5.6520   15.5520  -34.2470 C   0  0  0  0  0  0  0  0  0  0  0  0
  -11.9720   18.6270  -30.4030 N   0  0  0  0  0  0  0  0  0  0  0  0
  -12.0320   16.4040  -29.4200 C   0  0  0  0  0  0  0  0  0  0  0  0
  -11.3450   19.7670  -30.6210 C   0  0  1  0  0  0  0  0  0  0  0  0
  -12.2360   20.9510  -30.8060 C   0  0  1  0  0  0  0  0  0  0  0  0
  -10.1190   19.8830  -30.5960 O   0  0  0  0  0  0  0  0  0  0  0  0
  -12.5790   21.3540  -29.4810 N   0  0  0  0  0  0  0  0  0  0  0  0
  -11.5450   22.0000  -31.6560 C   0  0  0  0  0  0  0  0  0  0  0  0
  -13.8200   21.2840  -29.0930 C   0  0  0  0  0  0  0  0  0  0  0  0
  -11.2540   21.4640  -33.0520 C   0  0  0  0  0  0  0  0  0  0  0  0
  -14.0680   21.5380  -27.6320 C   0  0  0  0  0  0  0  0  0  0  0  0
  -14.7460   21.0290  -29.8620 O   0  0  0  0  0  0  0  0  0  0  0  0
  -10.4830   22.4400  -33.9180 C   0  0  0  0  0  0  0  0  0  0  0  0
  -13.9740   20.1330  -27.0070 C   0  0  0  0  0  0  0  0  0  0  0  0
  -11.1230   23.2880  -34.5660 O   0  0  0  0  0  0  0  0  0  0  0  0
   -9.2440   22.3600  -33.9420 O   0  0  0  0  0  0  0  0  0  0  0  0
  -14.0270   19.9780  -25.4860 C   0  0  0  0  0  0  0  0  0  0  0  0
  -13.2440   21.0650  -24.7650 C   0  0  0  0  0  0  0  0  0  0  0  0
  -15.4650   19.9240  -25.0200 C   0  0  0  0  0  0  0  0  0  0  0  0
  1  2  1  0
  3  2  1  0
  2  4  1  0
  5  3  1  0
  3  6  1  6
  5  7  1  0
  6  8  1  0
  9  7  1  0
  7 10  1  0
  8 11  1  0
  8 12  1  0
 13  9  1  0
  9 14  1  1
 11 15  1  0
 12 16  1  0
 13 17  1  0
 14 18  1  0
 15 19  1  0
 16 19  1  0
 20 17  1  0
 17 21  1  0
 18 22  1  0
 18 23  1  0
 24 20  1  0
 20 25  1  6
 24 26  1  0
 27 26  1  0
 26 28  1  1
 29 27  1  0
 27 30  1  1
 29 31  1  0
 30 32  1  0
 33 31  1  0
 31 34  1  0
 32 35  1  0
 33 36  1  6
 35 37  1  0
 35 38  1  0
 36 39  1  0
 39 40  1  0
 39 41  1  0
M  CHG  1  38  -1
A    2
 C1 
A    3
 C3 
A    4
 O1 
A    5
 N1 
A    6
 C5 
A    7
 C1 
A    8
 C6 
A    9
 C3 
A   10
 O1 
A   11
 C7 
A   12
 C8 
A   13
 N1 
A   14
 C5 
A   15
 C29
A   16
 C30
A   17
 C1 
A   18
 C6 
A   19
 C31
A   20
 C3 
A   21
 O1 
A   22
 C7 
A   23
 C8 
A   24
 N1 
A   25
 C5 
A   26
 C1 
A   27
 C3 
A   28
 O1 
A   29
 N1 
A   30
 C5 
A   31
 C1 
A   32
 C6 
A   34
 O1 
A   35
 C13
A   36
 C5 
A   37
 O4 
A   38
 O5 
A   39
 C6 
A   40
 C7 
A   41
 C8 
M  END
>  <XChem_code>  (923) 
polymer

>  <Occupancy>  (923) 
[1.0, 1.0, 1.0, 1.0, 1.0, 1.0, 1.0, 1.0, 1.0, 1.0, 1.0, 1.0, 1.0, 1.0, 1.0, 1.0, 1.0, 1.0, 1.0, 1.0, 1.0, 1.0, 1.0, 1.0, 1.0, 1.0, 1.0, 1.0, 1.0, 1.0, 1.0, 1.0, 1.0, 1.0, 1.0, 1.0, 1.0, 1.0, 1.0, 1.0, 1.0, 1.0, 1.0, 1.0, 1.0, 1.0, 1.0, 1.0, 1.0, 1.0, 1.0, 1.0, 1.0, 1.0, 1.0, 1.0, 1.0, 1.0]

>  <TempFactor>  (923) 
[0.0, 0.0, 0.0, 0.0, 0.0, 0.0, 0.0, 0.0, 0.0, 0.0, 0.0, 0.0, 0.0, 0.0, 0.0, 0.0, 0.0, 0.0, 0.0, 0.0, 0.0, 0.0, 0.0, 0.0, 0.0, 0.0, 0.0, 0.0, 0.0, 0.0, 0.0, 0.0, 0.0, 0.0, 0.0, 0.0, 0.0, 0.0, 0.0, 0.0, 0.0, 0.0, 0.0, 0.0, 0.0, 0.0, 0.0, 0.0, 0.0, 0.0, 0.0, 0.0, 0.0, 0.0, 0.0, 0.0, 0.0, 0.0]

>  <base_name>  (923) 
2b0f

>  <lig_resn>  (923) 
None

>  <lig_resi>  (923) 
1

>  <lig_chain>  (923) 
B

>  <lig_segi>  (923) 


>  <lig_alt>  (923) 


>  <polymer_chain>  (923) 
A

>  <single_smiles>  (923) 
None

$$$$
polymerS33
     RDKit          3D

  8  7  0  0  0  0  0  0  0  0999 V2000
  -11.3450   19.7670  -30.6210 C   0  0  0  0  0  0  0  0  0  0  0  0
  -12.2360   20.9510  -30.8060 C   0  0  0  0  0  0  0  0  0  0  0  0
  -10.1190   19.8830  -30.5960 O   0  0  0  0  0  0  0  0  0  0  0  0
  -11.5450   22.0000  -31.6560 C   0  0  0  0  0  0  0  0  0  0  0  0
  -11.2540   21.4640  -33.0520 C   0  0  0  0  0  0  0  0  0  0  0  0
  -10.4830   22.4400  -33.9180 C   0  0  0  0  0  0  0  0  0  0  0  0
  -11.1230   23.2880  -34.5660 O   0  0  0  0  0  0  0  0  0  0  0  0
   -9.2440   22.3600  -33.9420 O   0  0  0  0  0  0  0  0  0  0  0  0
  2  1  1  0
  1  3  1  1
  2  4  1  6
  4  5  1  0
  5  6  1  0
  6  7  1  0
  6  8  1  0
M  CHG  1   8  -1
A    3
 O1 
A    4
 C5 
A    5
 C6 
A    6
 C13
A    7
 O4 
A    8
 O5 
M  END
>  <XChem_code>  (924) 
polymer

>  <Occupancy>  (924) 
[1.0, 1.0, 1.0, 1.0, 1.0, 1.0, 1.0, 1.0, 1.0, 1.0, 1.0, 1.0, 1.0, 1.0, 1.0, 1.0, 1.0, 1.0, 1.0, 1.0, 1.0, 1.0, 1.0, 1.0, 1.0, 1.0, 1.0, 1.0, 1.0, 1.0, 1.0, 1.0, 1.0, 1.0, 1.0, 1.0, 1.0, 1.0, 1.0, 1.0, 1.0, 1.0, 1.0, 1.0, 1.0, 1.0, 1.0, 1.0, 1.0, 1.0, 1.0, 1.0, 1.0, 1.0, 1.0, 1.0, 1.0, 1.0]

>  <TempFactor>  (924) 
[0.0, 0.0, 0.0, 0.0, 0.0, 0.0, 0.0, 0.0, 0.0, 0.0, 0.0, 0.0, 0.0, 0.0, 0.0, 0.0, 0.0, 0.0, 0.0, 0.0, 0.0, 0.0, 0.0, 0.0, 0.0, 0.0, 0.0, 0.0, 0.0, 0.0, 0.0, 0.0, 0.0, 0.0, 0.0, 0.0, 0.0, 0.0, 0.0, 0.0, 0.0, 0.0, 0.0, 0.0, 0.0, 0.0, 0.0, 0.0, 0.0, 0.0, 0.0, 0.0, 0.0, 0.0, 0.0, 0.0, 0.0, 0.0]

>  <base_name>  (924) 
2b0f

>  <lig_resn>  (924) 
None

>  <lig_resi>  (924) 
1

>  <lig_chain>  (924) 
B

>  <lig_segi>  (924) 


>  <lig_alt>  (924) 


>  <polymer_chain>  (924) 
A

>  <single_smiles>  (924) 
None

$$$$
polymerS34
     RDKit          3D

  9  8  0  0  0  0  0  0  0  0999 V2000
  -11.9720   18.6270  -30.4030 N   0  0  0  0  0  0  0  0  0  0  0  0
  -11.3450   19.7670  -30.6210 C   0  0  1  0  0  0  0  0  0  0  0  0
  -12.2360   20.9510  -30.8060 C   0  0  0  0  0  0  0  0  0  0  0  0
  -10.1190   19.8830  -30.5960 O   0  0  0  0  0  0  0  0  0  0  0  0
  -11.5450   22.0000  -31.6560 C   0  0  0  0  0  0  0  0  0  0  0  0
  -11.2540   21.4640  -33.0520 C   0  0  0  0  0  0  0  0  0  0  0  0
  -10.4830   22.4400  -33.9180 C   0  0  0  0  0  0  0  0  0  0  0  0
  -11.1230   23.2880  -34.5660 O   0  0  0  0  0  0  0  0  0  0  0  0
   -9.2440   22.3600  -33.9420 O   0  0  0  0  0  0  0  0  0  0  0  0
  2  1  1  1
  3  2  1  0
  2  4  1  0
  3  5  1  6
  5  6  1  0
  6  7  1  0
  7  8  1  0
  7  9  1  0
M  CHG  1   9  -1
A    2
 C1 
A    4
 O1 
A    5
 C5 
A    6
 C6 
A    7
 C13
A    8
 O4 
A    9
 O5 
M  END
>  <XChem_code>  (925) 
polymer

>  <Occupancy>  (925) 
[1.0, 1.0, 1.0, 1.0, 1.0, 1.0, 1.0, 1.0, 1.0, 1.0, 1.0, 1.0, 1.0, 1.0, 1.0, 1.0, 1.0, 1.0, 1.0, 1.0, 1.0, 1.0, 1.0, 1.0, 1.0, 1.0, 1.0, 1.0, 1.0, 1.0, 1.0, 1.0, 1.0, 1.0, 1.0, 1.0, 1.0, 1.0, 1.0, 1.0, 1.0, 1.0, 1.0, 1.0, 1.0, 1.0, 1.0, 1.0, 1.0, 1.0, 1.0, 1.0, 1.0, 1.0, 1.0, 1.0, 1.0, 1.0]

>  <TempFactor>  (925) 
[0.0, 0.0, 0.0, 0.0, 0.0, 0.0, 0.0, 0.0, 0.0, 0.0, 0.0, 0.0, 0.0, 0.0, 0.0, 0.0, 0.0, 0.0, 0.0, 0.0, 0.0, 0.0, 0.0, 0.0, 0.0, 0.0, 0.0, 0.0, 0.0, 0.0, 0.0, 0.0, 0.0, 0.0, 0.0, 0.0, 0.0, 0.0, 0.0, 0.0, 0.0, 0.0, 0.0, 0.0, 0.0, 0.0, 0.0, 0.0, 0.0, 0.0, 0.0, 0.0, 0.0, 0.0, 0.0, 0.0, 0.0, 0.0]

>  <base_name>  (925) 
2b0f

>  <lig_resn>  (925) 
None

>  <lig_resi>  (925) 
1

>  <lig_chain>  (925) 
B

>  <lig_segi>  (925) 


>  <lig_alt>  (925) 


>  <polymer_chain>  (925) 
A

>  <single_smiles>  (925) 
None

$$$$
polymerS35
     RDKit          3D

 13 12  0  0  0  0  0  0  0  0999 V2000
  -10.8520   16.9140  -31.5780 C   0  0  0  0  0  0  0  0  0  0  0  0
  -11.2320   17.4190  -30.2140 C   0  0  1  0  0  0  0  0  0  0  0  0
  -11.5590   17.1540  -32.5510 O   0  0  0  0  0  0  0  0  0  0  0  0
  -11.9720   18.6270  -30.4030 N   0  0  0  0  0  0  0  0  0  0  0  0
  -12.0320   16.4040  -29.4200 C   0  0  0  0  0  0  0  0  0  0  0  0
  -11.3450   19.7670  -30.6210 C   0  0  1  0  0  0  0  0  0  0  0  0
  -12.2360   20.9510  -30.8060 C   0  0  0  0  0  0  0  0  0  0  0  0
  -10.1190   19.8830  -30.5960 O   0  0  0  0  0  0  0  0  0  0  0  0
  -11.5450   22.0000  -31.6560 C   0  0  0  0  0  0  0  0  0  0  0  0
  -11.2540   21.4640  -33.0520 C   0  0  0  0  0  0  0  0  0  0  0  0
  -10.4830   22.4400  -33.9180 C   0  0  0  0  0  0  0  0  0  0  0  0
  -11.1230   23.2880  -34.5660 O   0  0  0  0  0  0  0  0  0  0  0  0
   -9.2440   22.3600  -33.9420 O   0  0  0  0  0  0  0  0  0  0  0  0
  2  1  1  0
  1  3  1  0
  4  2  1  0
  2  5  1  6
  4  6  1  0
  7  6  1  0
  6  8  1  1
  7  9  1  6
  9 10  1  0
 10 11  1  0
 11 12  1  0
 11 13  1  0
M  CHG  1  13  -1
A    2
 C3 
A    3
 O1 
A    4
 N1 
A    5
 C5 
A    6
 C1 
A    8
 O1 
A    9
 C5 
A   10
 C6 
A   11
 C13
A   12
 O4 
A   13
 O5 
M  END
>  <XChem_code>  (926) 
polymer

>  <Occupancy>  (926) 
[1.0, 1.0, 1.0, 1.0, 1.0, 1.0, 1.0, 1.0, 1.0, 1.0, 1.0, 1.0, 1.0, 1.0, 1.0, 1.0, 1.0, 1.0, 1.0, 1.0, 1.0, 1.0, 1.0, 1.0, 1.0, 1.0, 1.0, 1.0, 1.0, 1.0, 1.0, 1.0, 1.0, 1.0, 1.0, 1.0, 1.0, 1.0, 1.0, 1.0, 1.0, 1.0, 1.0, 1.0, 1.0, 1.0, 1.0, 1.0, 1.0, 1.0, 1.0, 1.0, 1.0, 1.0, 1.0, 1.0, 1.0, 1.0]

>  <TempFactor>  (926) 
[0.0, 0.0, 0.0, 0.0, 0.0, 0.0, 0.0, 0.0, 0.0, 0.0, 0.0, 0.0, 0.0, 0.0, 0.0, 0.0, 0.0, 0.0, 0.0, 0.0, 0.0, 0.0, 0.0, 0.0, 0.0, 0.0, 0.0, 0.0, 0.0, 0.0, 0.0, 0.0, 0.0, 0.0, 0.0, 0.0, 0.0, 0.0, 0.0, 0.0, 0.0, 0.0, 0.0, 0.0, 0.0, 0.0, 0.0, 0.0, 0.0, 0.0, 0.0, 0.0, 0.0, 0.0, 0.0, 0.0, 0.0, 0.0]

>  <base_name>  (926) 
2b0f

>  <lig_resn>  (926) 
None

>  <lig_resi>  (926) 
1

>  <lig_chain>  (926) 
B

>  <lig_segi>  (926) 


>  <lig_alt>  (926) 


>  <polymer_chain>  (926) 
A

>  <single_smiles>  (926) 
None

$$$$
polymerS36
     RDKit          3D

 14 13  0  0  0  0  0  0  0  0999 V2000
   -9.7350   16.2520  -31.6700 N   0  0  0  0  0  0  0  0  0  0  0  0
  -10.8520   16.9140  -31.5780 C   0  0  0  0  0  0  0  0  0  0  0  0
  -11.2320   17.4190  -30.2140 C   0  0  1  0  0  0  0  0  0  0  0  0
  -11.5590   17.1540  -32.5510 O   0  0  0  0  0  0  0  0  0  0  0  0
  -11.9720   18.6270  -30.4030 N   0  0  0  0  0  0  0  0  0  0  0  0
  -12.0320   16.4040  -29.4200 C   0  0  0  0  0  0  0  0  0  0  0  0
  -11.3450   19.7670  -30.6210 C   0  0  1  0  0  0  0  0  0  0  0  0
  -12.2360   20.9510  -30.8060 C   0  0  0  0  0  0  0  0  0  0  0  0
  -10.1190   19.8830  -30.5960 O   0  0  0  0  0  0  0  0  0  0  0  0
  -11.5450   22.0000  -31.6560 C   0  0  0  0  0  0  0  0  0  0  0  0
  -11.2540   21.4640  -33.0520 C   0  0  0  0  0  0  0  0  0  0  0  0
  -10.4830   22.4400  -33.9180 C   0  0  0  0  0  0  0  0  0  0  0  0
  -11.1230   23.2880  -34.5660 O   0  0  0  0  0  0  0  0  0  0  0  0
   -9.2440   22.3600  -33.9420 O   0  0  0  0  0  0  0  0  0  0  0  0
  1  2  1  0
  3  2  1  0
  2  4  1  0
  5  3  1  0
  3  6  1  6
  5  7  1  0
  8  7  1  0
  7  9  1  1
  8 10  1  6
 10 11  1  0
 11 12  1  0
 12 13  1  0
 12 14  1  0
M  CHG  1  14  -1
A    2
 C1 
A    3
 C3 
A    4
 O1 
A    5
 N1 
A    6
 C5 
A    7
 C1 
A    9
 O1 
A   10
 C5 
A   11
 C6 
A   12
 C13
A   13
 O4 
A   14
 O5 
M  END
>  <XChem_code>  (927) 
polymer

>  <Occupancy>  (927) 
[1.0, 1.0, 1.0, 1.0, 1.0, 1.0, 1.0, 1.0, 1.0, 1.0, 1.0, 1.0, 1.0, 1.0, 1.0, 1.0, 1.0, 1.0, 1.0, 1.0, 1.0, 1.0, 1.0, 1.0, 1.0, 1.0, 1.0, 1.0, 1.0, 1.0, 1.0, 1.0, 1.0, 1.0, 1.0, 1.0, 1.0, 1.0, 1.0, 1.0, 1.0, 1.0, 1.0, 1.0, 1.0, 1.0, 1.0, 1.0, 1.0, 1.0, 1.0, 1.0, 1.0, 1.0, 1.0, 1.0, 1.0, 1.0]

>  <TempFactor>  (927) 
[0.0, 0.0, 0.0, 0.0, 0.0, 0.0, 0.0, 0.0, 0.0, 0.0, 0.0, 0.0, 0.0, 0.0, 0.0, 0.0, 0.0, 0.0, 0.0, 0.0, 0.0, 0.0, 0.0, 0.0, 0.0, 0.0, 0.0, 0.0, 0.0, 0.0, 0.0, 0.0, 0.0, 0.0, 0.0, 0.0, 0.0, 0.0, 0.0, 0.0, 0.0, 0.0, 0.0, 0.0, 0.0, 0.0, 0.0, 0.0, 0.0, 0.0, 0.0, 0.0, 0.0, 0.0, 0.0, 0.0, 0.0, 0.0]

>  <base_name>  (927) 
2b0f

>  <lig_resn>  (927) 
None

>  <lig_resi>  (927) 
1

>  <lig_chain>  (927) 
B

>  <lig_segi>  (927) 


>  <lig_alt>  (927) 


>  <polymer_chain>  (927) 
A

>  <single_smiles>  (927) 
None

$$$$
polymerS37
     RDKit          3D

 21 20  0  0  0  0  0  0  0  0999 V2000
   -9.4760   14.3090  -33.1760 C   0  0  0  0  0  0  0  0  0  0  0  0
   -9.2690   15.7910  -32.9510 C   0  0  1  0  0  0  0  0  0  0  0  0
   -9.5290   13.5200  -32.2290 O   0  0  0  0  0  0  0  0  0  0  0  0
   -9.7350   16.2520  -31.6700 N   0  0  0  0  0  0  0  0  0  0  0  0
   -7.7900   16.0900  -33.0900 C   0  0  0  0  0  0  0  0  0  0  0  0
  -10.8520   16.9140  -31.5780 C   0  0  0  0  0  0  0  0  0  0  0  0
   -7.1690   15.4980  -34.3400 C   0  0  0  0  0  0  0  0  0  0  0  0
  -11.2320   17.4190  -30.2140 C   0  0  1  0  0  0  0  0  0  0  0  0
  -11.5590   17.1540  -32.5510 O   0  0  0  0  0  0  0  0  0  0  0  0
   -7.6760   16.2470  -35.5700 C   0  0  0  0  0  0  0  0  0  0  0  0
   -5.6520   15.5520  -34.2470 C   0  0  0  0  0  0  0  0  0  0  0  0
  -11.9720   18.6270  -30.4030 N   0  0  0  0  0  0  0  0  0  0  0  0
  -12.0320   16.4040  -29.4200 C   0  0  0  0  0  0  0  0  0  0  0  0
  -11.3450   19.7670  -30.6210 C   0  0  1  0  0  0  0  0  0  0  0  0
  -12.2360   20.9510  -30.8060 C   0  0  0  0  0  0  0  0  0  0  0  0
  -10.1190   19.8830  -30.5960 O   0  0  0  0  0  0  0  0  0  0  0  0
  -11.5450   22.0000  -31.6560 C   0  0  0  0  0  0  0  0  0  0  0  0
  -11.2540   21.4640  -33.0520 C   0  0  0  0  0  0  0  0  0  0  0  0
  -10.4830   22.4400  -33.9180 C   0  0  0  0  0  0  0  0  0  0  0  0
  -11.1230   23.2880  -34.5660 O   0  0  0  0  0  0  0  0  0  0  0  0
   -9.2440   22.3600  -33.9420 O   0  0  0  0  0  0  0  0  0  0  0  0
  2  1  1  1
  1  3  1  0
  4  2  1  0
  2  5  1  0
  4  6  1  0
  5  7  1  0
  8  6  1  0
  6  9  1  0
  7 10  1  0
  7 11  1  0
 12  8  1  0
  8 13  1  6
 12 14  1  0
 15 14  1  0
 14 16  1  1
 15 17  1  6
 17 18  1  0
 18 19  1  0
 19 20  1  0
 19 21  1  0
M  CHG  1  21  -1
A    2
 C3 
A    3
 O1 
A    4
 N1 
A    5
 C5 
A    6
 C1 
A    7
 C6 
A    8
 C3 
A    9
 O1 
A   10
 C7 
A   11
 C8 
A   12
 N1 
A   13
 C5 
A   14
 C1 
A   16
 O1 
A   17
 C5 
A   18
 C6 
A   19
 C13
A   20
 O4 
A   21
 O5 
M  END
>  <XChem_code>  (928) 
polymer

>  <Occupancy>  (928) 
[1.0, 1.0, 1.0, 1.0, 1.0, 1.0, 1.0, 1.0, 1.0, 1.0, 1.0, 1.0, 1.0, 1.0, 1.0, 1.0, 1.0, 1.0, 1.0, 1.0, 1.0, 1.0, 1.0, 1.0, 1.0, 1.0, 1.0, 1.0, 1.0, 1.0, 1.0, 1.0, 1.0, 1.0, 1.0, 1.0, 1.0, 1.0, 1.0, 1.0, 1.0, 1.0, 1.0, 1.0, 1.0, 1.0, 1.0, 1.0, 1.0, 1.0, 1.0, 1.0, 1.0, 1.0, 1.0, 1.0, 1.0, 1.0]

>  <TempFactor>  (928) 
[0.0, 0.0, 0.0, 0.0, 0.0, 0.0, 0.0, 0.0, 0.0, 0.0, 0.0, 0.0, 0.0, 0.0, 0.0, 0.0, 0.0, 0.0, 0.0, 0.0, 0.0, 0.0, 0.0, 0.0, 0.0, 0.0, 0.0, 0.0, 0.0, 0.0, 0.0, 0.0, 0.0, 0.0, 0.0, 0.0, 0.0, 0.0, 0.0, 0.0, 0.0, 0.0, 0.0, 0.0, 0.0, 0.0, 0.0, 0.0, 0.0, 0.0, 0.0, 0.0, 0.0, 0.0, 0.0, 0.0, 0.0, 0.0]

>  <base_name>  (928) 
2b0f

>  <lig_resn>  (928) 
None

>  <lig_resi>  (928) 
1

>  <lig_chain>  (928) 
B

>  <lig_segi>  (928) 


>  <lig_alt>  (928) 


>  <polymer_chain>  (928) 
A

>  <single_smiles>  (928) 
None

$$$$
polymerS38
     RDKit          3D

 22 21  0  0  0  0  0  0  0  0999 V2000
   -9.6030   13.9290  -34.4410 N   0  0  0  0  0  0  0  0  0  0  0  0
   -9.4760   14.3090  -33.1760 C   0  0  0  0  0  0  0  0  0  0  0  0
   -9.2690   15.7910  -32.9510 C   0  0  1  0  0  0  0  0  0  0  0  0
   -9.5290   13.5200  -32.2290 O   0  0  0  0  0  0  0  0  0  0  0  0
   -9.7350   16.2520  -31.6700 N   0  0  0  0  0  0  0  0  0  0  0  0
   -7.7900   16.0900  -33.0900 C   0  0  0  0  0  0  0  0  0  0  0  0
  -10.8520   16.9140  -31.5780 C   0  0  0  0  0  0  0  0  0  0  0  0
   -7.1690   15.4980  -34.3400 C   0  0  0  0  0  0  0  0  0  0  0  0
  -11.2320   17.4190  -30.2140 C   0  0  1  0  0  0  0  0  0  0  0  0
  -11.5590   17.1540  -32.5510 O   0  0  0  0  0  0  0  0  0  0  0  0
   -7.6760   16.2470  -35.5700 C   0  0  0  0  0  0  0  0  0  0  0  0
   -5.6520   15.5520  -34.2470 C   0  0  0  0  0  0  0  0  0  0  0  0
  -11.9720   18.6270  -30.4030 N   0  0  0  0  0  0  0  0  0  0  0  0
  -12.0320   16.4040  -29.4200 C   0  0  0  0  0  0  0  0  0  0  0  0
  -11.3450   19.7670  -30.6210 C   0  0  1  0  0  0  0  0  0  0  0  0
  -12.2360   20.9510  -30.8060 C   0  0  0  0  0  0  0  0  0  0  0  0
  -10.1190   19.8830  -30.5960 O   0  0  0  0  0  0  0  0  0  0  0  0
  -11.5450   22.0000  -31.6560 C   0  0  0  0  0  0  0  0  0  0  0  0
  -11.2540   21.4640  -33.0520 C   0  0  0  0  0  0  0  0  0  0  0  0
  -10.4830   22.4400  -33.9180 C   0  0  0  0  0  0  0  0  0  0  0  0
  -11.1230   23.2880  -34.5660 O   0  0  0  0  0  0  0  0  0  0  0  0
   -9.2440   22.3600  -33.9420 O   0  0  0  0  0  0  0  0  0  0  0  0
  1  2  1  0
  3  2  1  0
  2  4  1  0
  5  3  1  0
  3  6  1  1
  5  7  1  0
  6  8  1  0
  9  7  1  0
  7 10  1  0
  8 11  1  0
  8 12  1  0
 13  9  1  0
  9 14  1  6
 13 15  1  0
 16 15  1  0
 15 17  1  1
 16 18  1  6
 18 19  1  0
 19 20  1  0
 20 21  1  0
 20 22  1  0
M  CHG  1  22  -1
A    2
 C1 
A    3
 C3 
A    4
 O1 
A    5
 N1 
A    6
 C5 
A    7
 C1 
A    8
 C6 
A    9
 C3 
A   10
 O1 
A   11
 C7 
A   12
 C8 
A   13
 N1 
A   14
 C5 
A   15
 C1 
A   17
 O1 
A   18
 C5 
A   19
 C6 
A   20
 C13
A   21
 O4 
A   22
 O5 
M  END
>  <XChem_code>  (929) 
polymer

>  <Occupancy>  (929) 
[1.0, 1.0, 1.0, 1.0, 1.0, 1.0, 1.0, 1.0, 1.0, 1.0, 1.0, 1.0, 1.0, 1.0, 1.0, 1.0, 1.0, 1.0, 1.0, 1.0, 1.0, 1.0, 1.0, 1.0, 1.0, 1.0, 1.0, 1.0, 1.0, 1.0, 1.0, 1.0, 1.0, 1.0, 1.0, 1.0, 1.0, 1.0, 1.0, 1.0, 1.0, 1.0, 1.0, 1.0, 1.0, 1.0, 1.0, 1.0, 1.0, 1.0, 1.0, 1.0, 1.0, 1.0, 1.0, 1.0, 1.0, 1.0]

>  <TempFactor>  (929) 
[0.0, 0.0, 0.0, 0.0, 0.0, 0.0, 0.0, 0.0, 0.0, 0.0, 0.0, 0.0, 0.0, 0.0, 0.0, 0.0, 0.0, 0.0, 0.0, 0.0, 0.0, 0.0, 0.0, 0.0, 0.0, 0.0, 0.0, 0.0, 0.0, 0.0, 0.0, 0.0, 0.0, 0.0, 0.0, 0.0, 0.0, 0.0, 0.0, 0.0, 0.0, 0.0, 0.0, 0.0, 0.0, 0.0, 0.0, 0.0, 0.0, 0.0, 0.0, 0.0, 0.0, 0.0, 0.0, 0.0, 0.0, 0.0]

>  <base_name>  (929) 
2b0f

>  <lig_resn>  (929) 
None

>  <lig_resi>  (929) 
1

>  <lig_chain>  (929) 
B

>  <lig_segi>  (929) 


>  <lig_alt>  (929) 


>  <polymer_chain>  (929) 
A

>  <single_smiles>  (929) 
None

$$$$
polymerS39
     RDKit          3D

 32 32  0  0  0  0  0  0  0  0999 V2000
   -8.4470   11.8470  -34.2880 C   0  0  0  0  0  0  0  0  0  0  0  0
   -9.7190   12.5240  -34.7630 C   0  0  1  0  0  0  0  0  0  0  0  0
   -7.3750   12.4480  -34.3620 O   0  0  0  0  0  0  0  0  0  0  0  0
   -9.6030   13.9290  -34.4410 N   0  0  0  0  0  0  0  0  0  0  0  0
   -9.8560   12.2790  -36.2650 C   0  0  0  0  0  0  0  0  0  0  0  0
   -9.4760   14.3090  -33.1760 C   0  0  0  0  0  0  0  0  0  0  0  0
  -11.0400   12.9250  -36.9220 C   0  0  0  0  0  0  0  0  0  0  0  0
   -9.2690   15.7910  -32.9510 C   0  0  1  0  0  0  0  0  0  0  0  0
   -9.5290   13.5200  -32.2290 O   0  0  0  0  0  0  0  0  0  0  0  0
  -12.3100   12.8260  -36.3750 C   0  0  0  0  0  0  0  0  0  0  0  0
  -10.8770   13.6090  -38.1140 C   0  0  0  0  0  0  0  0  0  0  0  0
   -9.7350   16.2520  -31.6700 N   0  0  0  0  0  0  0  0  0  0  0  0
   -7.7900   16.0900  -33.0900 C   0  0  0  0  0  0  0  0  0  0  0  0
  -13.3920   13.4040  -37.0080 C   0  0  0  0  0  0  0  0  0  0  0  0
  -11.9550   14.1810  -38.7530 C   0  0  0  0  0  0  0  0  0  0  0  0
  -10.8520   16.9140  -31.5780 C   0  0  0  0  0  0  0  0  0  0  0  0
   -7.1690   15.4980  -34.3400 C   0  0  0  0  0  0  0  0  0  0  0  0
  -13.2150   14.0820  -38.2020 C   0  0  0  0  0  0  0  0  0  0  0  0
  -11.2320   17.4190  -30.2140 C   0  0  1  0  0  0  0  0  0  0  0  0
  -11.5590   17.1540  -32.5510 O   0  0  0  0  0  0  0  0  0  0  0  0
   -7.6760   16.2470  -35.5700 C   0  0  0  0  0  0  0  0  0  0  0  0
   -5.6520   15.5520  -34.2470 C   0  0  0  0  0  0  0  0  0  0  0  0
  -11.9720   18.6270  -30.4030 N   0  0  0  0  0  0  0  0  0  0  0  0
  -12.0320   16.4040  -29.4200 C   0  0  0  0  0  0  0  0  0  0  0  0
  -11.3450   19.7670  -30.6210 C   0  0  1  0  0  0  0  0  0  0  0  0
  -12.2360   20.9510  -30.8060 C   0  0  0  0  0  0  0  0  0  0  0  0
  -10.1190   19.8830  -30.5960 O   0  0  0  0  0  0  0  0  0  0  0  0
  -11.5450   22.0000  -31.6560 C   0  0  0  0  0  0  0  0  0  0  0  0
  -11.2540   21.4640  -33.0520 C   0  0  0  0  0  0  0  0  0  0  0  0
  -10.4830   22.4400  -33.9180 C   0  0  0  0  0  0  0  0  0  0  0  0
  -11.1230   23.2880  -34.5660 O   0  0  0  0  0  0  0  0  0  0  0  0
   -9.2440   22.3600  -33.9420 O   0  0  0  0  0  0  0  0  0  0  0  0
  2  1  1  6
  1  3  1  0
  4  2  1  0
  2  5  1  0
  4  6  1  0
  5  7  1  0
  8  6  1  0
  6  9  1  0
  7 10  1  0
  7 11  1  0
 12  8  1  0
  8 13  1  1
 10 14  1  0
 11 15  1  0
 12 16  1  0
 13 17  1  0
 14 18  1  0
 15 18  1  0
 19 16  1  0
 16 20  1  0
 17 21  1  0
 17 22  1  0
 23 19  1  0
 19 24  1  6
 23 25  1  0
 26 25  1  0
 25 27  1  1
 26 28  1  6
 28 29  1  0
 29 30  1  0
 30 31  1  0
 30 32  1  0
M  CHG  1  32  -1
A    2
 C3 
A    3
 O1 
A    4
 N1 
A    5
 C5 
A    6
 C1 
A    7
 C6 
A    8
 C3 
A    9
 O1 
A   10
 C7 
A   11
 C8 
A   12
 N1 
A   13
 C5 
A   14
 C29
A   15
 C30
A   16
 C1 
A   17
 C6 
A   18
 C31
A   19
 C3 
A   20
 O1 
A   21
 C7 
A   22
 C8 
A   23
 N1 
A   24
 C5 
A   25
 C1 
A   27
 O1 
A   28
 C5 
A   29
 C6 
A   30
 C13
A   31
 O4 
A   32
 O5 
M  END
>  <XChem_code>  (930) 
polymer

>  <Occupancy>  (930) 
[1.0, 1.0, 1.0, 1.0, 1.0, 1.0, 1.0, 1.0, 1.0, 1.0, 1.0, 1.0, 1.0, 1.0, 1.0, 1.0, 1.0, 1.0, 1.0, 1.0, 1.0, 1.0, 1.0, 1.0, 1.0, 1.0, 1.0, 1.0, 1.0, 1.0, 1.0, 1.0, 1.0, 1.0, 1.0, 1.0, 1.0, 1.0, 1.0, 1.0, 1.0, 1.0, 1.0, 1.0, 1.0, 1.0, 1.0, 1.0, 1.0, 1.0, 1.0, 1.0, 1.0, 1.0, 1.0, 1.0, 1.0, 1.0]

>  <TempFactor>  (930) 
[0.0, 0.0, 0.0, 0.0, 0.0, 0.0, 0.0, 0.0, 0.0, 0.0, 0.0, 0.0, 0.0, 0.0, 0.0, 0.0, 0.0, 0.0, 0.0, 0.0, 0.0, 0.0, 0.0, 0.0, 0.0, 0.0, 0.0, 0.0, 0.0, 0.0, 0.0, 0.0, 0.0, 0.0, 0.0, 0.0, 0.0, 0.0, 0.0, 0.0, 0.0, 0.0, 0.0, 0.0, 0.0, 0.0, 0.0, 0.0, 0.0, 0.0, 0.0, 0.0, 0.0, 0.0, 0.0, 0.0, 0.0, 0.0]

>  <base_name>  (930) 
2b0f

>  <lig_resn>  (930) 
None

>  <lig_resi>  (930) 
1

>  <lig_chain>  (930) 
B

>  <lig_segi>  (930) 


>  <lig_alt>  (930) 


>  <polymer_chain>  (930) 
A

>  <single_smiles>  (930) 
None

$$$$
polymerS40
     RDKit          3D

 33 33  0  0  0  0  0  0  0  0999 V2000
   -8.5240   10.6110  -33.8090 N   0  0  0  0  0  0  0  0  0  0  0  0
   -8.4470   11.8470  -34.2880 C   0  0  0  0  0  0  0  0  0  0  0  0
   -9.7190   12.5240  -34.7630 C   0  0  1  0  0  0  0  0  0  0  0  0
   -7.3750   12.4480  -34.3620 O   0  0  0  0  0  0  0  0  0  0  0  0
   -9.6030   13.9290  -34.4410 N   0  0  0  0  0  0  0  0  0  0  0  0
   -9.8560   12.2790  -36.2650 C   0  0  0  0  0  0  0  0  0  0  0  0
   -9.4760   14.3090  -33.1760 C   0  0  0  0  0  0  0  0  0  0  0  0
  -11.0400   12.9250  -36.9220 C   0  0  0  0  0  0  0  0  0  0  0  0
   -9.2690   15.7910  -32.9510 C   0  0  1  0  0  0  0  0  0  0  0  0
   -9.5290   13.5200  -32.2290 O   0  0  0  0  0  0  0  0  0  0  0  0
  -12.3100   12.8260  -36.3750 C   0  0  0  0  0  0  0  0  0  0  0  0
  -10.8770   13.6090  -38.1140 C   0  0  0  0  0  0  0  0  0  0  0  0
   -9.7350   16.2520  -31.6700 N   0  0  0  0  0  0  0  0  0  0  0  0
   -7.7900   16.0900  -33.0900 C   0  0  0  0  0  0  0  0  0  0  0  0
  -13.3920   13.4040  -37.0080 C   0  0  0  0  0  0  0  0  0  0  0  0
  -11.9550   14.1810  -38.7530 C   0  0  0  0  0  0  0  0  0  0  0  0
  -10.8520   16.9140  -31.5780 C   0  0  0  0  0  0  0  0  0  0  0  0
   -7.1690   15.4980  -34.3400 C   0  0  0  0  0  0  0  0  0  0  0  0
  -13.2150   14.0820  -38.2020 C   0  0  0  0  0  0  0  0  0  0  0  0
  -11.2320   17.4190  -30.2140 C   0  0  1  0  0  0  0  0  0  0  0  0
  -11.5590   17.1540  -32.5510 O   0  0  0  0  0  0  0  0  0  0  0  0
   -7.6760   16.2470  -35.5700 C   0  0  0  0  0  0  0  0  0  0  0  0
   -5.6520   15.5520  -34.2470 C   0  0  0  0  0  0  0  0  0  0  0  0
  -11.9720   18.6270  -30.4030 N   0  0  0  0  0  0  0  0  0  0  0  0
  -12.0320   16.4040  -29.4200 C   0  0  0  0  0  0  0  0  0  0  0  0
  -11.3450   19.7670  -30.6210 C   0  0  1  0  0  0  0  0  0  0  0  0
  -12.2360   20.9510  -30.8060 C   0  0  0  0  0  0  0  0  0  0  0  0
  -10.1190   19.8830  -30.5960 O   0  0  0  0  0  0  0  0  0  0  0  0
  -11.5450   22.0000  -31.6560 C   0  0  0  0  0  0  0  0  0  0  0  0
  -11.2540   21.4640  -33.0520 C   0  0  0  0  0  0  0  0  0  0  0  0
  -10.4830   22.4400  -33.9180 C   0  0  0  0  0  0  0  0  0  0  0  0
  -11.1230   23.2880  -34.5660 O   0  0  0  0  0  0  0  0  0  0  0  0
   -9.2440   22.3600  -33.9420 O   0  0  0  0  0  0  0  0  0  0  0  0
  1  2  1  0
  3  2  1  0
  2  4  1  0
  5  3  1  0
  3  6  1  6
  5  7  1  0
  6  8  1  0
  9  7  1  0
  7 10  1  0
  8 11  1  0
  8 12  1  0
 13  9  1  0
  9 14  1  1
 11 15  1  0
 12 16  1  0
 13 17  1  0
 14 18  1  0
 15 19  1  0
 16 19  1  0
 20 17  1  0
 17 21  1  0
 18 22  1  0
 18 23  1  0
 24 20  1  0
 20 25  1  6
 24 26  1  0
 27 26  1  0
 26 28  1  1
 27 29  1  6
 29 30  1  0
 30 31  1  0
 31 32  1  0
 31 33  1  0
M  CHG  1  33  -1
A    2
 C1 
A    3
 C3 
A    4
 O1 
A    5
 N1 
A    6
 C5 
A    7
 C1 
A    8
 C6 
A    9
 C3 
A   10
 O1 
A   11
 C7 
A   12
 C8 
A   13
 N1 
A   14
 C5 
A   15
 C29
A   16
 C30
A   17
 C1 
A   18
 C6 
A   19
 C31
A   20
 C3 
A   21
 O1 
A   22
 C7 
A   23
 C8 
A   24
 N1 
A   25
 C5 
A   26
 C1 
A   28
 O1 
A   29
 C5 
A   30
 C6 
A   31
 C13
A   32
 O4 
A   33
 O5 
M  END
>  <XChem_code>  (931) 
polymer

>  <Occupancy>  (931) 
[1.0, 1.0, 1.0, 1.0, 1.0, 1.0, 1.0, 1.0, 1.0, 1.0, 1.0, 1.0, 1.0, 1.0, 1.0, 1.0, 1.0, 1.0, 1.0, 1.0, 1.0, 1.0, 1.0, 1.0, 1.0, 1.0, 1.0, 1.0, 1.0, 1.0, 1.0, 1.0, 1.0, 1.0, 1.0, 1.0, 1.0, 1.0, 1.0, 1.0, 1.0, 1.0, 1.0, 1.0, 1.0, 1.0, 1.0, 1.0, 1.0, 1.0, 1.0, 1.0, 1.0, 1.0, 1.0, 1.0, 1.0, 1.0]

>  <TempFactor>  (931) 
[0.0, 0.0, 0.0, 0.0, 0.0, 0.0, 0.0, 0.0, 0.0, 0.0, 0.0, 0.0, 0.0, 0.0, 0.0, 0.0, 0.0, 0.0, 0.0, 0.0, 0.0, 0.0, 0.0, 0.0, 0.0, 0.0, 0.0, 0.0, 0.0, 0.0, 0.0, 0.0, 0.0, 0.0, 0.0, 0.0, 0.0, 0.0, 0.0, 0.0, 0.0, 0.0, 0.0, 0.0, 0.0, 0.0, 0.0, 0.0, 0.0, 0.0, 0.0, 0.0, 0.0, 0.0, 0.0, 0.0, 0.0, 0.0]

>  <base_name>  (931) 
2b0f

>  <lig_resn>  (931) 
None

>  <lig_resi>  (931) 
1

>  <lig_chain>  (931) 
B

>  <lig_segi>  (931) 


>  <lig_alt>  (931) 


>  <polymer_chain>  (931) 
A

>  <single_smiles>  (931) 
None

$$$$
polymerS41
     RDKit          3D

 10  9  0  0  0  0  0  0  0  0999 V2000
  -12.5790   21.3540  -29.4810 N   0  0  0  0  0  0  0  0  0  0  0  0
  -12.2360   20.9510  -30.8060 C   0  0  2  0  0  0  0  0  0  0  0  0
  -11.3450   19.7670  -30.6210 C   0  0  2  0  0  0  0  0  0  0  0  0
  -11.5450   22.0000  -31.6560 C   0  0  0  0  0  0  0  0  0  0  0  0
  -11.9720   18.6270  -30.4030 N   0  0  0  0  0  0  0  0  0  0  0  0
  -10.1190   19.8830  -30.5960 O   0  0  0  0  0  0  0  0  0  0  0  0
  -11.2540   21.4640  -33.0520 C   0  0  0  0  0  0  0  0  0  0  0  0
  -10.4830   22.4400  -33.9180 C   0  0  0  0  0  0  0  0  0  0  0  0
  -11.1230   23.2880  -34.5660 O   0  0  0  0  0  0  0  0  0  0  0  0
   -9.2440   22.3600  -33.9420 O   0  0  0  0  0  0  0  0  0  0  0  0
  2  1  1  1
  2  3  1  0
  2  4  1  0
  3  5  1  1
  3  6  1  0
  4  7  1  0
  7  8  1  0
  8  9  1  0
  8 10  1  0
M  CHG  1  10  -1
A    2
 C3 
A    3
 C1 
A    4
 C5 
A    6
 O1 
A    7
 C6 
A    8
 C13
A    9
 O4 
A   10
 O5 
M  END
>  <XChem_code>  (932) 
polymer

>  <Occupancy>  (932) 
[1.0, 1.0, 1.0, 1.0, 1.0, 1.0, 1.0, 1.0, 1.0, 1.0, 1.0, 1.0, 1.0, 1.0, 1.0, 1.0, 1.0, 1.0, 1.0, 1.0, 1.0, 1.0, 1.0, 1.0, 1.0, 1.0, 1.0, 1.0, 1.0, 1.0, 1.0, 1.0, 1.0, 1.0, 1.0, 1.0, 1.0, 1.0, 1.0, 1.0, 1.0, 1.0, 1.0, 1.0, 1.0, 1.0, 1.0, 1.0, 1.0, 1.0, 1.0, 1.0, 1.0, 1.0, 1.0, 1.0, 1.0, 1.0]

>  <TempFactor>  (932) 
[0.0, 0.0, 0.0, 0.0, 0.0, 0.0, 0.0, 0.0, 0.0, 0.0, 0.0, 0.0, 0.0, 0.0, 0.0, 0.0, 0.0, 0.0, 0.0, 0.0, 0.0, 0.0, 0.0, 0.0, 0.0, 0.0, 0.0, 0.0, 0.0, 0.0, 0.0, 0.0, 0.0, 0.0, 0.0, 0.0, 0.0, 0.0, 0.0, 0.0, 0.0, 0.0, 0.0, 0.0, 0.0, 0.0, 0.0, 0.0, 0.0, 0.0, 0.0, 0.0, 0.0, 0.0, 0.0, 0.0, 0.0, 0.0]

>  <base_name>  (932) 
2b0f

>  <lig_resn>  (932) 
None

>  <lig_resi>  (932) 
1

>  <lig_chain>  (932) 
B

>  <lig_segi>  (932) 


>  <lig_alt>  (932) 


>  <polymer_chain>  (932) 
A

>  <single_smiles>  (932) 
None

$$$$
polymerS42
     RDKit          3D

  4  3  0  0  0  0  0  0  0  0999 V2000
  -10.8520   16.9140  -31.5780 C   0  0  0  0  0  0  0  0  0  0  0  0
  -11.2320   17.4190  -30.2140 C   0  0  0  0  0  0  0  0  0  0  0  0
  -11.5590   17.1540  -32.5510 O   0  0  0  0  0  0  0  0  0  0  0  0
  -12.0320   16.4040  -29.4200 C   0  0  0  0  0  0  0  0  0  0  0  0
  2  1  1  0
  1  3  1  0
  2  4  1  6
A    3
 O1 
A    4
 C5 
M  END
>  <XChem_code>  (933) 
polymer

>  <Occupancy>  (933) 
[1.0, 1.0, 1.0, 1.0, 1.0, 1.0, 1.0, 1.0, 1.0, 1.0, 1.0, 1.0, 1.0, 1.0, 1.0, 1.0, 1.0, 1.0, 1.0, 1.0, 1.0, 1.0, 1.0, 1.0, 1.0, 1.0, 1.0, 1.0, 1.0, 1.0, 1.0, 1.0, 1.0, 1.0, 1.0, 1.0, 1.0, 1.0, 1.0, 1.0, 1.0, 1.0, 1.0, 1.0, 1.0, 1.0, 1.0, 1.0, 1.0, 1.0, 1.0, 1.0, 1.0, 1.0, 1.0, 1.0, 1.0, 1.0]

>  <TempFactor>  (933) 
[0.0, 0.0, 0.0, 0.0, 0.0, 0.0, 0.0, 0.0, 0.0, 0.0, 0.0, 0.0, 0.0, 0.0, 0.0, 0.0, 0.0, 0.0, 0.0, 0.0, 0.0, 0.0, 0.0, 0.0, 0.0, 0.0, 0.0, 0.0, 0.0, 0.0, 0.0, 0.0, 0.0, 0.0, 0.0, 0.0, 0.0, 0.0, 0.0, 0.0, 0.0, 0.0, 0.0, 0.0, 0.0, 0.0, 0.0, 0.0, 0.0, 0.0, 0.0, 0.0, 0.0, 0.0, 0.0, 0.0, 0.0, 0.0]

>  <base_name>  (933) 
2b0f

>  <lig_resn>  (933) 
None

>  <lig_resi>  (933) 
1

>  <lig_chain>  (933) 
B

>  <lig_segi>  (933) 


>  <lig_alt>  (933) 


>  <polymer_chain>  (933) 
A

>  <single_smiles>  (933) 
None

$$$$
polymerS43
     RDKit          3D

  5  4  0  0  0  0  0  0  0  0999 V2000
   -9.7350   16.2520  -31.6700 N   0  0  0  0  0  0  0  0  0  0  0  0
  -10.8520   16.9140  -31.5780 C   0  0  0  0  0  0  0  0  0  0  0  0
  -11.2320   17.4190  -30.2140 C   0  0  0  0  0  0  0  0  0  0  0  0
  -11.5590   17.1540  -32.5510 O   0  0  0  0  0  0  0  0  0  0  0  0
  -12.0320   16.4040  -29.4200 C   0  0  0  0  0  0  0  0  0  0  0  0
  1  2  1  0
  3  2  1  0
  2  4  1  0
  3  5  1  6
A    2
 C1 
A    4
 O1 
A    5
 C5 
M  END
>  <XChem_code>  (934) 
polymer

>  <Occupancy>  (934) 
[1.0, 1.0, 1.0, 1.0, 1.0, 1.0, 1.0, 1.0, 1.0, 1.0, 1.0, 1.0, 1.0, 1.0, 1.0, 1.0, 1.0, 1.0, 1.0, 1.0, 1.0, 1.0, 1.0, 1.0, 1.0, 1.0, 1.0, 1.0, 1.0, 1.0, 1.0, 1.0, 1.0, 1.0, 1.0, 1.0, 1.0, 1.0, 1.0, 1.0, 1.0, 1.0, 1.0, 1.0, 1.0, 1.0, 1.0, 1.0, 1.0, 1.0, 1.0, 1.0, 1.0, 1.0, 1.0, 1.0, 1.0, 1.0]

>  <TempFactor>  (934) 
[0.0, 0.0, 0.0, 0.0, 0.0, 0.0, 0.0, 0.0, 0.0, 0.0, 0.0, 0.0, 0.0, 0.0, 0.0, 0.0, 0.0, 0.0, 0.0, 0.0, 0.0, 0.0, 0.0, 0.0, 0.0, 0.0, 0.0, 0.0, 0.0, 0.0, 0.0, 0.0, 0.0, 0.0, 0.0, 0.0, 0.0, 0.0, 0.0, 0.0, 0.0, 0.0, 0.0, 0.0, 0.0, 0.0, 0.0, 0.0, 0.0, 0.0, 0.0, 0.0, 0.0, 0.0, 0.0, 0.0, 0.0, 0.0]

>  <base_name>  (934) 
2b0f

>  <lig_resn>  (934) 
None

>  <lig_resi>  (934) 
1

>  <lig_chain>  (934) 
B

>  <lig_segi>  (934) 


>  <lig_alt>  (934) 


>  <polymer_chain>  (934) 
A

>  <single_smiles>  (934) 
None

$$$$
polymerS44
     RDKit          3D

 12 11  0  0  0  0  0  0  0  0999 V2000
   -9.4760   14.3090  -33.1760 C   0  0  0  0  0  0  0  0  0  0  0  0
   -9.2690   15.7910  -32.9510 C   0  0  1  0  0  0  0  0  0  0  0  0
   -9.5290   13.5200  -32.2290 O   0  0  0  0  0  0  0  0  0  0  0  0
   -9.7350   16.2520  -31.6700 N   0  0  0  0  0  0  0  0  0  0  0  0
   -7.7900   16.0900  -33.0900 C   0  0  0  0  0  0  0  0  0  0  0  0
  -10.8520   16.9140  -31.5780 C   0  0  0  0  0  0  0  0  0  0  0  0
   -7.1690   15.4980  -34.3400 C   0  0  0  0  0  0  0  0  0  0  0  0
  -11.2320   17.4190  -30.2140 C   0  0  0  0  0  0  0  0  0  0  0  0
  -11.5590   17.1540  -32.5510 O   0  0  0  0  0  0  0  0  0  0  0  0
   -7.6760   16.2470  -35.5700 C   0  0  0  0  0  0  0  0  0  0  0  0
   -5.6520   15.5520  -34.2470 C   0  0  0  0  0  0  0  0  0  0  0  0
  -12.0320   16.4040  -29.4200 C   0  0  0  0  0  0  0  0  0  0  0  0
  2  1  1  1
  1  3  1  0
  4  2  1  0
  2  5  1  0
  4  6  1  0
  5  7  1  0
  8  6  1  0
  6  9  1  0
  7 10  1  0
  7 11  1  0
  8 12  1  6
A    2
 C3 
A    3
 O1 
A    4
 N1 
A    5
 C5 
A    6
 C1 
A    7
 C6 
A    9
 O1 
A   10
 C7 
A   11
 C8 
A   12
 C5 
M  END
>  <XChem_code>  (935) 
polymer

>  <Occupancy>  (935) 
[1.0, 1.0, 1.0, 1.0, 1.0, 1.0, 1.0, 1.0, 1.0, 1.0, 1.0, 1.0, 1.0, 1.0, 1.0, 1.0, 1.0, 1.0, 1.0, 1.0, 1.0, 1.0, 1.0, 1.0, 1.0, 1.0, 1.0, 1.0, 1.0, 1.0, 1.0, 1.0, 1.0, 1.0, 1.0, 1.0, 1.0, 1.0, 1.0, 1.0, 1.0, 1.0, 1.0, 1.0, 1.0, 1.0, 1.0, 1.0, 1.0, 1.0, 1.0, 1.0, 1.0, 1.0, 1.0, 1.0, 1.0, 1.0]

>  <TempFactor>  (935) 
[0.0, 0.0, 0.0, 0.0, 0.0, 0.0, 0.0, 0.0, 0.0, 0.0, 0.0, 0.0, 0.0, 0.0, 0.0, 0.0, 0.0, 0.0, 0.0, 0.0, 0.0, 0.0, 0.0, 0.0, 0.0, 0.0, 0.0, 0.0, 0.0, 0.0, 0.0, 0.0, 0.0, 0.0, 0.0, 0.0, 0.0, 0.0, 0.0, 0.0, 0.0, 0.0, 0.0, 0.0, 0.0, 0.0, 0.0, 0.0, 0.0, 0.0, 0.0, 0.0, 0.0, 0.0, 0.0, 0.0, 0.0, 0.0]

>  <base_name>  (935) 
2b0f

>  <lig_resn>  (935) 
None

>  <lig_resi>  (935) 
1

>  <lig_chain>  (935) 
B

>  <lig_segi>  (935) 


>  <lig_alt>  (935) 


>  <polymer_chain>  (935) 
A

>  <single_smiles>  (935) 
None

$$$$
polymerS45
     RDKit          3D

 13 12  0  0  0  0  0  0  0  0999 V2000
   -9.6030   13.9290  -34.4410 N   0  0  0  0  0  0  0  0  0  0  0  0
   -9.4760   14.3090  -33.1760 C   0  0  0  0  0  0  0  0  0  0  0  0
   -9.2690   15.7910  -32.9510 C   0  0  1  0  0  0  0  0  0  0  0  0
   -9.5290   13.5200  -32.2290 O   0  0  0  0  0  0  0  0  0  0  0  0
   -9.7350   16.2520  -31.6700 N   0  0  0  0  0  0  0  0  0  0  0  0
   -7.7900   16.0900  -33.0900 C   0  0  0  0  0  0  0  0  0  0  0  0
  -10.8520   16.9140  -31.5780 C   0  0  0  0  0  0  0  0  0  0  0  0
   -7.1690   15.4980  -34.3400 C   0  0  0  0  0  0  0  0  0  0  0  0
  -11.2320   17.4190  -30.2140 C   0  0  0  0  0  0  0  0  0  0  0  0
  -11.5590   17.1540  -32.5510 O   0  0  0  0  0  0  0  0  0  0  0  0
   -7.6760   16.2470  -35.5700 C   0  0  0  0  0  0  0  0  0  0  0  0
   -5.6520   15.5520  -34.2470 C   0  0  0  0  0  0  0  0  0  0  0  0
  -12.0320   16.4040  -29.4200 C   0  0  0  0  0  0  0  0  0  0  0  0
  1  2  1  0
  3  2  1  0
  2  4  1  0
  5  3  1  0
  3  6  1  1
  5  7  1  0
  6  8  1  0
  9  7  1  0
  7 10  1  0
  8 11  1  0
  8 12  1  0
  9 13  1  6
A    2
 C1 
A    3
 C3 
A    4
 O1 
A    5
 N1 
A    6
 C5 
A    7
 C1 
A    8
 C6 
A   10
 O1 
A   11
 C7 
A   12
 C8 
A   13
 C5 
M  END
>  <XChem_code>  (936) 
polymer

>  <Occupancy>  (936) 
[1.0, 1.0, 1.0, 1.0, 1.0, 1.0, 1.0, 1.0, 1.0, 1.0, 1.0, 1.0, 1.0, 1.0, 1.0, 1.0, 1.0, 1.0, 1.0, 1.0, 1.0, 1.0, 1.0, 1.0, 1.0, 1.0, 1.0, 1.0, 1.0, 1.0, 1.0, 1.0, 1.0, 1.0, 1.0, 1.0, 1.0, 1.0, 1.0, 1.0, 1.0, 1.0, 1.0, 1.0, 1.0, 1.0, 1.0, 1.0, 1.0, 1.0, 1.0, 1.0, 1.0, 1.0, 1.0, 1.0, 1.0, 1.0]

>  <TempFactor>  (936) 
[0.0, 0.0, 0.0, 0.0, 0.0, 0.0, 0.0, 0.0, 0.0, 0.0, 0.0, 0.0, 0.0, 0.0, 0.0, 0.0, 0.0, 0.0, 0.0, 0.0, 0.0, 0.0, 0.0, 0.0, 0.0, 0.0, 0.0, 0.0, 0.0, 0.0, 0.0, 0.0, 0.0, 0.0, 0.0, 0.0, 0.0, 0.0, 0.0, 0.0, 0.0, 0.0, 0.0, 0.0, 0.0, 0.0, 0.0, 0.0, 0.0, 0.0, 0.0, 0.0, 0.0, 0.0, 0.0, 0.0, 0.0, 0.0]

>  <base_name>  (936) 
2b0f

>  <lig_resn>  (936) 
None

>  <lig_resi>  (936) 
1

>  <lig_chain>  (936) 
B

>  <lig_segi>  (936) 


>  <lig_alt>  (936) 


>  <polymer_chain>  (936) 
A

>  <single_smiles>  (936) 
None

$$$$
polymerS46
     RDKit          3D

 23 23  0  0  0  0  0  0  0  0999 V2000
   -8.4470   11.8470  -34.2880 C   0  0  0  0  0  0  0  0  0  0  0  0
   -9.7190   12.5240  -34.7630 C   0  0  1  0  0  0  0  0  0  0  0  0
   -7.3750   12.4480  -34.3620 O   0  0  0  0  0  0  0  0  0  0  0  0
   -9.6030   13.9290  -34.4410 N   0  0  0  0  0  0  0  0  0  0  0  0
   -9.8560   12.2790  -36.2650 C   0  0  0  0  0  0  0  0  0  0  0  0
   -9.4760   14.3090  -33.1760 C   0  0  0  0  0  0  0  0  0  0  0  0
  -11.0400   12.9250  -36.9220 C   0  0  0  0  0  0  0  0  0  0  0  0
   -9.2690   15.7910  -32.9510 C   0  0  1  0  0  0  0  0  0  0  0  0
   -9.5290   13.5200  -32.2290 O   0  0  0  0  0  0  0  0  0  0  0  0
  -12.3100   12.8260  -36.3750 C   0  0  0  0  0  0  0  0  0  0  0  0
  -10.8770   13.6090  -38.1140 C   0  0  0  0  0  0  0  0  0  0  0  0
   -9.7350   16.2520  -31.6700 N   0  0  0  0  0  0  0  0  0  0  0  0
   -7.7900   16.0900  -33.0900 C   0  0  0  0  0  0  0  0  0  0  0  0
  -13.3920   13.4040  -37.0080 C   0  0  0  0  0  0  0  0  0  0  0  0
  -11.9550   14.1810  -38.7530 C   0  0  0  0  0  0  0  0  0  0  0  0
  -10.8520   16.9140  -31.5780 C   0  0  0  0  0  0  0  0  0  0  0  0
   -7.1690   15.4980  -34.3400 C   0  0  0  0  0  0  0  0  0  0  0  0
  -13.2150   14.0820  -38.2020 C   0  0  0  0  0  0  0  0  0  0  0  0
  -11.2320   17.4190  -30.2140 C   0  0  0  0  0  0  0  0  0  0  0  0
  -11.5590   17.1540  -32.5510 O   0  0  0  0  0  0  0  0  0  0  0  0
   -7.6760   16.2470  -35.5700 C   0  0  0  0  0  0  0  0  0  0  0  0
   -5.6520   15.5520  -34.2470 C   0  0  0  0  0  0  0  0  0  0  0  0
  -12.0320   16.4040  -29.4200 C   0  0  0  0  0  0  0  0  0  0  0  0
  2  1  1  6
  1  3  1  0
  4  2  1  0
  2  5  1  0
  4  6  1  0
  5  7  1  0
  8  6  1  0
  6  9  1  0
  7 10  1  0
  7 11  1  0
 12  8  1  0
  8 13  1  1
 10 14  1  0
 11 15  1  0
 12 16  1  0
 13 17  1  0
 14 18  1  0
 15 18  1  0
 19 16  1  0
 16 20  1  0
 17 21  1  0
 17 22  1  0
 19 23  1  6
A    2
 C3 
A    3
 O1 
A    4
 N1 
A    5
 C5 
A    6
 C1 
A    7
 C6 
A    8
 C3 
A    9
 O1 
A   10
 C7 
A   11
 C8 
A   12
 N1 
A   13
 C5 
A   14
 C29
A   15
 C30
A   16
 C1 
A   17
 C6 
A   18
 C31
A   20
 O1 
A   21
 C7 
A   22
 C8 
A   23
 C5 
M  END
>  <XChem_code>  (937) 
polymer

>  <Occupancy>  (937) 
[1.0, 1.0, 1.0, 1.0, 1.0, 1.0, 1.0, 1.0, 1.0, 1.0, 1.0, 1.0, 1.0, 1.0, 1.0, 1.0, 1.0, 1.0, 1.0, 1.0, 1.0, 1.0, 1.0, 1.0, 1.0, 1.0, 1.0, 1.0, 1.0, 1.0, 1.0, 1.0, 1.0, 1.0, 1.0, 1.0, 1.0, 1.0, 1.0, 1.0, 1.0, 1.0, 1.0, 1.0, 1.0, 1.0, 1.0, 1.0, 1.0, 1.0, 1.0, 1.0, 1.0, 1.0, 1.0, 1.0, 1.0, 1.0]

>  <TempFactor>  (937) 
[0.0, 0.0, 0.0, 0.0, 0.0, 0.0, 0.0, 0.0, 0.0, 0.0, 0.0, 0.0, 0.0, 0.0, 0.0, 0.0, 0.0, 0.0, 0.0, 0.0, 0.0, 0.0, 0.0, 0.0, 0.0, 0.0, 0.0, 0.0, 0.0, 0.0, 0.0, 0.0, 0.0, 0.0, 0.0, 0.0, 0.0, 0.0, 0.0, 0.0, 0.0, 0.0, 0.0, 0.0, 0.0, 0.0, 0.0, 0.0, 0.0, 0.0, 0.0, 0.0, 0.0, 0.0, 0.0, 0.0, 0.0, 0.0]

>  <base_name>  (937) 
2b0f

>  <lig_resn>  (937) 
None

>  <lig_resi>  (937) 
1

>  <lig_chain>  (937) 
B

>  <lig_segi>  (937) 


>  <lig_alt>  (937) 


>  <polymer_chain>  (937) 
A

>  <single_smiles>  (937) 
None

$$$$
polymerS47
     RDKit          3D

 24 24  0  0  0  0  0  0  0  0999 V2000
   -8.5240   10.6110  -33.8090 N   0  0  0  0  0  0  0  0  0  0  0  0
   -8.4470   11.8470  -34.2880 C   0  0  0  0  0  0  0  0  0  0  0  0
   -9.7190   12.5240  -34.7630 C   0  0  1  0  0  0  0  0  0  0  0  0
   -7.3750   12.4480  -34.3620 O   0  0  0  0  0  0  0  0  0  0  0  0
   -9.6030   13.9290  -34.4410 N   0  0  0  0  0  0  0  0  0  0  0  0
   -9.8560   12.2790  -36.2650 C   0  0  0  0  0  0  0  0  0  0  0  0
   -9.4760   14.3090  -33.1760 C   0  0  0  0  0  0  0  0  0  0  0  0
  -11.0400   12.9250  -36.9220 C   0  0  0  0  0  0  0  0  0  0  0  0
   -9.2690   15.7910  -32.9510 C   0  0  1  0  0  0  0  0  0  0  0  0
   -9.5290   13.5200  -32.2290 O   0  0  0  0  0  0  0  0  0  0  0  0
  -12.3100   12.8260  -36.3750 C   0  0  0  0  0  0  0  0  0  0  0  0
  -10.8770   13.6090  -38.1140 C   0  0  0  0  0  0  0  0  0  0  0  0
   -9.7350   16.2520  -31.6700 N   0  0  0  0  0  0  0  0  0  0  0  0
   -7.7900   16.0900  -33.0900 C   0  0  0  0  0  0  0  0  0  0  0  0
  -13.3920   13.4040  -37.0080 C   0  0  0  0  0  0  0  0  0  0  0  0
  -11.9550   14.1810  -38.7530 C   0  0  0  0  0  0  0  0  0  0  0  0
  -10.8520   16.9140  -31.5780 C   0  0  0  0  0  0  0  0  0  0  0  0
   -7.1690   15.4980  -34.3400 C   0  0  0  0  0  0  0  0  0  0  0  0
  -13.2150   14.0820  -38.2020 C   0  0  0  0  0  0  0  0  0  0  0  0
  -11.2320   17.4190  -30.2140 C   0  0  0  0  0  0  0  0  0  0  0  0
  -11.5590   17.1540  -32.5510 O   0  0  0  0  0  0  0  0  0  0  0  0
   -7.6760   16.2470  -35.5700 C   0  0  0  0  0  0  0  0  0  0  0  0
   -5.6520   15.5520  -34.2470 C   0  0  0  0  0  0  0  0  0  0  0  0
  -12.0320   16.4040  -29.4200 C   0  0  0  0  0  0  0  0  0  0  0  0
  1  2  1  0
  3  2  1  0
  2  4  1  0
  5  3  1  0
  3  6  1  6
  5  7  1  0
  6  8  1  0
  9  7  1  0
  7 10  1  0
  8 11  1  0
  8 12  1  0
 13  9  1  0
  9 14  1  1
 11 15  1  0
 12 16  1  0
 13 17  1  0
 14 18  1  0
 15 19  1  0
 16 19  1  0
 20 17  1  0
 17 21  1  0
 18 22  1  0
 18 23  1  0
 20 24  1  6
A    2
 C1 
A    3
 C3 
A    4
 O1 
A    5
 N1 
A    6
 C5 
A    7
 C1 
A    8
 C6 
A    9
 C3 
A   10
 O1 
A   11
 C7 
A   12
 C8 
A   13
 N1 
A   14
 C5 
A   15
 C29
A   16
 C30
A   17
 C1 
A   18
 C6 
A   19
 C31
A   21
 O1 
A   22
 C7 
A   23
 C8 
A   24
 C5 
M  END
>  <XChem_code>  (938) 
polymer

>  <Occupancy>  (938) 
[1.0, 1.0, 1.0, 1.0, 1.0, 1.0, 1.0, 1.0, 1.0, 1.0, 1.0, 1.0, 1.0, 1.0, 1.0, 1.0, 1.0, 1.0, 1.0, 1.0, 1.0, 1.0, 1.0, 1.0, 1.0, 1.0, 1.0, 1.0, 1.0, 1.0, 1.0, 1.0, 1.0, 1.0, 1.0, 1.0, 1.0, 1.0, 1.0, 1.0, 1.0, 1.0, 1.0, 1.0, 1.0, 1.0, 1.0, 1.0, 1.0, 1.0, 1.0, 1.0, 1.0, 1.0, 1.0, 1.0, 1.0, 1.0]

>  <TempFactor>  (938) 
[0.0, 0.0, 0.0, 0.0, 0.0, 0.0, 0.0, 0.0, 0.0, 0.0, 0.0, 0.0, 0.0, 0.0, 0.0, 0.0, 0.0, 0.0, 0.0, 0.0, 0.0, 0.0, 0.0, 0.0, 0.0, 0.0, 0.0, 0.0, 0.0, 0.0, 0.0, 0.0, 0.0, 0.0, 0.0, 0.0, 0.0, 0.0, 0.0, 0.0, 0.0, 0.0, 0.0, 0.0, 0.0, 0.0, 0.0, 0.0, 0.0, 0.0, 0.0, 0.0, 0.0, 0.0, 0.0, 0.0, 0.0, 0.0]

>  <base_name>  (938) 
2b0f

>  <lig_resn>  (938) 
None

>  <lig_resi>  (938) 
1

>  <lig_chain>  (938) 
B

>  <lig_segi>  (938) 


>  <lig_alt>  (938) 


>  <polymer_chain>  (938) 
A

>  <single_smiles>  (938) 
None

$$$$
polymerS48
     RDKit          3D

  6  5  0  0  0  0  0  0  0  0999 V2000
  -11.9720   18.6270  -30.4030 N   0  0  0  0  0  0  0  0  0  0  0  0
  -11.2320   17.4190  -30.2140 C   0  0  2  0  0  0  0  0  0  0  0  0
  -10.8520   16.9140  -31.5780 C   0  0  0  0  0  0  0  0  0  0  0  0
  -12.0320   16.4040  -29.4200 C   0  0  0  0  0  0  0  0  0  0  0  0
   -9.7350   16.2520  -31.6700 N   0  0  0  0  0  0  0  0  0  0  0  0
  -11.5590   17.1540  -32.5510 O   0  0  0  0  0  0  0  0  0  0  0  0
  1  2  1  0
  2  3  1  0
  2  4  1  6
  5  3  1  0
  3  6  1  0
A    2
 C3 
A    3
 C1 
A    4
 C5 
A    6
 O1 
M  END
>  <XChem_code>  (939) 
polymer

>  <Occupancy>  (939) 
[1.0, 1.0, 1.0, 1.0, 1.0, 1.0, 1.0, 1.0, 1.0, 1.0, 1.0, 1.0, 1.0, 1.0, 1.0, 1.0, 1.0, 1.0, 1.0, 1.0, 1.0, 1.0, 1.0, 1.0, 1.0, 1.0, 1.0, 1.0, 1.0, 1.0, 1.0, 1.0, 1.0, 1.0, 1.0, 1.0, 1.0, 1.0, 1.0, 1.0, 1.0, 1.0, 1.0, 1.0, 1.0, 1.0, 1.0, 1.0, 1.0, 1.0, 1.0, 1.0, 1.0, 1.0, 1.0, 1.0, 1.0, 1.0]

>  <TempFactor>  (939) 
[0.0, 0.0, 0.0, 0.0, 0.0, 0.0, 0.0, 0.0, 0.0, 0.0, 0.0, 0.0, 0.0, 0.0, 0.0, 0.0, 0.0, 0.0, 0.0, 0.0, 0.0, 0.0, 0.0, 0.0, 0.0, 0.0, 0.0, 0.0, 0.0, 0.0, 0.0, 0.0, 0.0, 0.0, 0.0, 0.0, 0.0, 0.0, 0.0, 0.0, 0.0, 0.0, 0.0, 0.0, 0.0, 0.0, 0.0, 0.0, 0.0, 0.0, 0.0, 0.0, 0.0, 0.0, 0.0, 0.0, 0.0, 0.0]

>  <base_name>  (939) 
2b0f

>  <lig_resn>  (939) 
None

>  <lig_resi>  (939) 
1

>  <lig_chain>  (939) 
B

>  <lig_segi>  (939) 


>  <lig_alt>  (939) 


>  <polymer_chain>  (939) 
A

>  <single_smiles>  (939) 
None

$$$$
polymerS49
     RDKit          3D

 15 14  0  0  0  0  0  0  0  0999 V2000
  -12.5790   21.3540  -29.4810 N   0  0  0  0  0  0  0  0  0  0  0  0
  -12.2360   20.9510  -30.8060 C   0  0  2  0  0  0  0  0  0  0  0  0
  -11.3450   19.7670  -30.6210 C   0  0  2  0  0  0  0  0  0  0  0  0
  -11.5450   22.0000  -31.6560 C   0  0  0  0  0  0  0  0  0  0  0  0
  -11.9720   18.6270  -30.4030 N   0  0  0  0  0  0  0  0  0  0  0  0
  -10.1190   19.8830  -30.5960 O   0  0  0  0  0  0  0  0  0  0  0  0
  -11.2540   21.4640  -33.0520 C   0  0  0  0  0  0  0  0  0  0  0  0
  -11.2320   17.4190  -30.2140 C   0  0  2  0  0  0  0  0  0  0  0  0
  -10.4830   22.4400  -33.9180 C   0  0  0  0  0  0  0  0  0  0  0  0
  -10.8520   16.9140  -31.5780 C   0  0  0  0  0  0  0  0  0  0  0  0
  -12.0320   16.4040  -29.4200 C   0  0  0  0  0  0  0  0  0  0  0  0
  -11.1230   23.2880  -34.5660 O   0  0  0  0  0  0  0  0  0  0  0  0
   -9.2440   22.3600  -33.9420 O   0  0  0  0  0  0  0  0  0  0  0  0
   -9.7350   16.2520  -31.6700 N   0  0  0  0  0  0  0  0  0  0  0  0
  -11.5590   17.1540  -32.5510 O   0  0  0  0  0  0  0  0  0  0  0  0
  2  1  1  1
  2  3  1  0
  2  4  1  0
  5  3  1  0
  3  6  1  1
  4  7  1  0
  5  8  1  0
  7  9  1  0
  8 10  1  0
  8 11  1  6
  9 12  1  0
  9 13  1  0
 14 10  1  0
 10 15  1  0
M  CHG  1  13  -1
A    2
 C3 
A    3
 C1 
A    4
 C5 
A    5
 N1 
A    6
 O1 
A    7
 C6 
A    8
 C3 
A    9
 C13
A   10
 C1 
A   11
 C5 
A   12
 O4 
A   13
 O5 
A   15
 O1 
M  END
>  <XChem_code>  (940) 
polymer

>  <Occupancy>  (940) 
[1.0, 1.0, 1.0, 1.0, 1.0, 1.0, 1.0, 1.0, 1.0, 1.0, 1.0, 1.0, 1.0, 1.0, 1.0, 1.0, 1.0, 1.0, 1.0, 1.0, 1.0, 1.0, 1.0, 1.0, 1.0, 1.0, 1.0, 1.0, 1.0, 1.0, 1.0, 1.0, 1.0, 1.0, 1.0, 1.0, 1.0, 1.0, 1.0, 1.0, 1.0, 1.0, 1.0, 1.0, 1.0, 1.0, 1.0, 1.0, 1.0, 1.0, 1.0, 1.0, 1.0, 1.0, 1.0, 1.0, 1.0, 1.0]

>  <TempFactor>  (940) 
[0.0, 0.0, 0.0, 0.0, 0.0, 0.0, 0.0, 0.0, 0.0, 0.0, 0.0, 0.0, 0.0, 0.0, 0.0, 0.0, 0.0, 0.0, 0.0, 0.0, 0.0, 0.0, 0.0, 0.0, 0.0, 0.0, 0.0, 0.0, 0.0, 0.0, 0.0, 0.0, 0.0, 0.0, 0.0, 0.0, 0.0, 0.0, 0.0, 0.0, 0.0, 0.0, 0.0, 0.0, 0.0, 0.0, 0.0, 0.0, 0.0, 0.0, 0.0, 0.0, 0.0, 0.0, 0.0, 0.0, 0.0, 0.0]

>  <base_name>  (940) 
2b0f

>  <lig_resn>  (940) 
None

>  <lig_resi>  (940) 
1

>  <lig_chain>  (940) 
B

>  <lig_segi>  (940) 


>  <lig_alt>  (940) 


>  <polymer_chain>  (940) 
A

>  <single_smiles>  (940) 
None

$$$$
polymerS50
     RDKit          3D

 18 18  0  0  0  0  0  0  0  0999 V2000
   -8.4470   11.8470  -34.2880 C   0  0  0  0  0  0  0  0  0  0  0  0
   -9.7190   12.5240  -34.7630 C   0  0  1  0  0  0  0  0  0  0  0  0
   -7.3750   12.4480  -34.3620 O   0  0  0  0  0  0  0  0  0  0  0  0
   -9.6030   13.9290  -34.4410 N   0  0  0  0  0  0  0  0  0  0  0  0
   -9.8560   12.2790  -36.2650 C   0  0  0  0  0  0  0  0  0  0  0  0
   -9.4760   14.3090  -33.1760 C   0  0  0  0  0  0  0  0  0  0  0  0
  -11.0400   12.9250  -36.9220 C   0  0  0  0  0  0  0  0  0  0  0  0
   -9.2690   15.7910  -32.9510 C   0  0  0  0  0  0  0  0  0  0  0  0
   -9.5290   13.5200  -32.2290 O   0  0  0  0  0  0  0  0  0  0  0  0
  -12.3100   12.8260  -36.3750 C   0  0  0  0  0  0  0  0  0  0  0  0
  -10.8770   13.6090  -38.1140 C   0  0  0  0  0  0  0  0  0  0  0  0
   -7.7900   16.0900  -33.0900 C   0  0  0  0  0  0  0  0  0  0  0  0
  -13.3920   13.4040  -37.0080 C   0  0  0  0  0  0  0  0  0  0  0  0
  -11.9550   14.1810  -38.7530 C   0  0  0  0  0  0  0  0  0  0  0  0
   -7.1690   15.4980  -34.3400 C   0  0  0  0  0  0  0  0  0  0  0  0
  -13.2150   14.0820  -38.2020 C   0  0  0  0  0  0  0  0  0  0  0  0
   -7.6760   16.2470  -35.5700 C   0  0  0  0  0  0  0  0  0  0  0  0
   -5.6520   15.5520  -34.2470 C   0  0  0  0  0  0  0  0  0  0  0  0
  2  1  1  6
  1  3  1  0
  4  2  1  0
  2  5  1  0
  4  6  1  0
  5  7  1  0
  8  6  1  0
  6  9  1  0
  7 10  1  0
  7 11  1  0
  8 12  1  6
 10 13  1  0
 11 14  1  0
 12 15  1  0
 13 16  1  0
 14 16  1  0
 15 17  1  0
 15 18  1  0
A    2
 C3 
A    3
 O1 
A    4
 N1 
A    5
 C5 
A    6
 C1 
A    7
 C6 
A    9
 O1 
A   10
 C7 
A   11
 C8 
A   12
 C5 
A   13
 C29
A   14
 C30
A   15
 C6 
A   16
 C31
A   17
 C7 
A   18
 C8 
M  END
>  <XChem_code>  (941) 
polymer

>  <Occupancy>  (941) 
[1.0, 1.0, 1.0, 1.0, 1.0, 1.0, 1.0, 1.0, 1.0, 1.0, 1.0, 1.0, 1.0, 1.0, 1.0, 1.0, 1.0, 1.0, 1.0, 1.0, 1.0, 1.0, 1.0, 1.0, 1.0, 1.0, 1.0, 1.0, 1.0, 1.0, 1.0, 1.0, 1.0, 1.0, 1.0, 1.0, 1.0, 1.0, 1.0, 1.0, 1.0, 1.0, 1.0, 1.0, 1.0, 1.0, 1.0, 1.0, 1.0, 1.0, 1.0, 1.0, 1.0, 1.0, 1.0, 1.0, 1.0, 1.0]

>  <TempFactor>  (941) 
[0.0, 0.0, 0.0, 0.0, 0.0, 0.0, 0.0, 0.0, 0.0, 0.0, 0.0, 0.0, 0.0, 0.0, 0.0, 0.0, 0.0, 0.0, 0.0, 0.0, 0.0, 0.0, 0.0, 0.0, 0.0, 0.0, 0.0, 0.0, 0.0, 0.0, 0.0, 0.0, 0.0, 0.0, 0.0, 0.0, 0.0, 0.0, 0.0, 0.0, 0.0, 0.0, 0.0, 0.0, 0.0, 0.0, 0.0, 0.0, 0.0, 0.0, 0.0, 0.0, 0.0, 0.0, 0.0, 0.0, 0.0, 0.0]

>  <base_name>  (941) 
2b0f

>  <lig_resn>  (941) 
None

>  <lig_resi>  (941) 
1

>  <lig_chain>  (941) 
B

>  <lig_segi>  (941) 


>  <lig_alt>  (941) 


>  <polymer_chain>  (941) 
A

>  <single_smiles>  (941) 
None

$$$$
polymerS51
     RDKit          3D

 19 19  0  0  0  0  0  0  0  0999 V2000
   -8.5240   10.6110  -33.8090 N   0  0  0  0  0  0  0  0  0  0  0  0
   -8.4470   11.8470  -34.2880 C   0  0  0  0  0  0  0  0  0  0  0  0
   -9.7190   12.5240  -34.7630 C   0  0  1  0  0  0  0  0  0  0  0  0
   -7.3750   12.4480  -34.3620 O   0  0  0  0  0  0  0  0  0  0  0  0
   -9.6030   13.9290  -34.4410 N   0  0  0  0  0  0  0  0  0  0  0  0
   -9.8560   12.2790  -36.2650 C   0  0  0  0  0  0  0  0  0  0  0  0
   -9.4760   14.3090  -33.1760 C   0  0  0  0  0  0  0  0  0  0  0  0
  -11.0400   12.9250  -36.9220 C   0  0  0  0  0  0  0  0  0  0  0  0
   -9.2690   15.7910  -32.9510 C   0  0  0  0  0  0  0  0  0  0  0  0
   -9.5290   13.5200  -32.2290 O   0  0  0  0  0  0  0  0  0  0  0  0
  -12.3100   12.8260  -36.3750 C   0  0  0  0  0  0  0  0  0  0  0  0
  -10.8770   13.6090  -38.1140 C   0  0  0  0  0  0  0  0  0  0  0  0
   -7.7900   16.0900  -33.0900 C   0  0  0  0  0  0  0  0  0  0  0  0
  -13.3920   13.4040  -37.0080 C   0  0  0  0  0  0  0  0  0  0  0  0
  -11.9550   14.1810  -38.7530 C   0  0  0  0  0  0  0  0  0  0  0  0
   -7.1690   15.4980  -34.3400 C   0  0  0  0  0  0  0  0  0  0  0  0
  -13.2150   14.0820  -38.2020 C   0  0  0  0  0  0  0  0  0  0  0  0
   -7.6760   16.2470  -35.5700 C   0  0  0  0  0  0  0  0  0  0  0  0
   -5.6520   15.5520  -34.2470 C   0  0  0  0  0  0  0  0  0  0  0  0
  1  2  1  0
  3  2  1  0
  2  4  1  0
  5  3  1  0
  3  6  1  6
  5  7  1  0
  6  8  1  0
  9  7  1  0
  7 10  1  0
  8 11  1  0
  8 12  1  0
  9 13  1  6
 11 14  1  0
 12 15  1  0
 13 16  1  0
 14 17  1  0
 15 17  1  0
 16 18  1  0
 16 19  1  0
A    2
 C1 
A    3
 C3 
A    4
 O1 
A    5
 N1 
A    6
 C5 
A    7
 C1 
A    8
 C6 
A   10
 O1 
A   11
 C7 
A   12
 C8 
A   13
 C5 
A   14
 C29
A   15
 C30
A   16
 C6 
A   17
 C31
A   18
 C7 
A   19
 C8 
M  END
>  <XChem_code>  (942) 
polymer

>  <Occupancy>  (942) 
[1.0, 1.0, 1.0, 1.0, 1.0, 1.0, 1.0, 1.0, 1.0, 1.0, 1.0, 1.0, 1.0, 1.0, 1.0, 1.0, 1.0, 1.0, 1.0, 1.0, 1.0, 1.0, 1.0, 1.0, 1.0, 1.0, 1.0, 1.0, 1.0, 1.0, 1.0, 1.0, 1.0, 1.0, 1.0, 1.0, 1.0, 1.0, 1.0, 1.0, 1.0, 1.0, 1.0, 1.0, 1.0, 1.0, 1.0, 1.0, 1.0, 1.0, 1.0, 1.0, 1.0, 1.0, 1.0, 1.0, 1.0, 1.0]

>  <TempFactor>  (942) 
[0.0, 0.0, 0.0, 0.0, 0.0, 0.0, 0.0, 0.0, 0.0, 0.0, 0.0, 0.0, 0.0, 0.0, 0.0, 0.0, 0.0, 0.0, 0.0, 0.0, 0.0, 0.0, 0.0, 0.0, 0.0, 0.0, 0.0, 0.0, 0.0, 0.0, 0.0, 0.0, 0.0, 0.0, 0.0, 0.0, 0.0, 0.0, 0.0, 0.0, 0.0, 0.0, 0.0, 0.0, 0.0, 0.0, 0.0, 0.0, 0.0, 0.0, 0.0, 0.0, 0.0, 0.0, 0.0, 0.0, 0.0, 0.0]

>  <base_name>  (942) 
2b0f

>  <lig_resn>  (942) 
None

>  <lig_resi>  (942) 
1

>  <lig_chain>  (942) 
B

>  <lig_segi>  (942) 


>  <lig_alt>  (942) 


>  <polymer_chain>  (942) 
A

>  <single_smiles>  (942) 
None

$$$$
polymerS52
     RDKit          3D

 10 10  0  0  0  0  0  0  0  0999 V2000
   -8.4470   11.8470  -34.2880 C   0  0  0  0  0  0  0  0  0  0  0  0
   -9.7190   12.5240  -34.7630 C   0  0  0  0  0  0  0  0  0  0  0  0
   -7.3750   12.4480  -34.3620 O   0  0  0  0  0  0  0  0  0  0  0  0
   -9.8560   12.2790  -36.2650 C   0  0  0  0  0  0  0  0  0  0  0  0
  -11.0400   12.9250  -36.9220 C   0  0  0  0  0  0  0  0  0  0  0  0
  -12.3100   12.8260  -36.3750 C   0  0  0  0  0  0  0  0  0  0  0  0
  -10.8770   13.6090  -38.1140 C   0  0  0  0  0  0  0  0  0  0  0  0
  -13.3920   13.4040  -37.0080 C   0  0  0  0  0  0  0  0  0  0  0  0
  -11.9550   14.1810  -38.7530 C   0  0  0  0  0  0  0  0  0  0  0  0
  -13.2150   14.0820  -38.2020 C   0  0  0  0  0  0  0  0  0  0  0  0
  2  1  1  1
  1  3  1  0
  2  4  1  0
  4  5  1  0
  5  6  1  0
  5  7  1  0
  6  8  1  0
  7  9  1  0
  8 10  1  0
  9 10  1  0
A    3
 O1 
A    4
 C5 
A    5
 C6 
A    6
 C7 
A    7
 C8 
A    8
 C29
A    9
 C30
A   10
 C31
M  END
>  <XChem_code>  (943) 
polymer

>  <Occupancy>  (943) 
[1.0, 1.0, 1.0, 1.0, 1.0, 1.0, 1.0, 1.0, 1.0, 1.0, 1.0, 1.0, 1.0, 1.0, 1.0, 1.0, 1.0, 1.0, 1.0, 1.0, 1.0, 1.0, 1.0, 1.0, 1.0, 1.0, 1.0, 1.0, 1.0, 1.0, 1.0, 1.0, 1.0, 1.0, 1.0, 1.0, 1.0, 1.0, 1.0, 1.0, 1.0, 1.0, 1.0, 1.0, 1.0, 1.0, 1.0, 1.0, 1.0, 1.0, 1.0, 1.0, 1.0, 1.0, 1.0, 1.0, 1.0, 1.0]

>  <TempFactor>  (943) 
[0.0, 0.0, 0.0, 0.0, 0.0, 0.0, 0.0, 0.0, 0.0, 0.0, 0.0, 0.0, 0.0, 0.0, 0.0, 0.0, 0.0, 0.0, 0.0, 0.0, 0.0, 0.0, 0.0, 0.0, 0.0, 0.0, 0.0, 0.0, 0.0, 0.0, 0.0, 0.0, 0.0, 0.0, 0.0, 0.0, 0.0, 0.0, 0.0, 0.0, 0.0, 0.0, 0.0, 0.0, 0.0, 0.0, 0.0, 0.0, 0.0, 0.0, 0.0, 0.0, 0.0, 0.0, 0.0, 0.0, 0.0, 0.0]

>  <base_name>  (943) 
2b0f

>  <lig_resn>  (943) 
None

>  <lig_resi>  (943) 
1

>  <lig_chain>  (943) 
B

>  <lig_segi>  (943) 


>  <lig_alt>  (943) 


>  <polymer_chain>  (943) 
A

>  <single_smiles>  (943) 
None

$$$$
polymerS53
     RDKit          3D

 11 11  0  0  0  0  0  0  0  0999 V2000
   -8.5240   10.6110  -33.8090 N   0  0  0  0  0  0  0  0  0  0  0  0
   -8.4470   11.8470  -34.2880 C   0  0  0  0  0  0  0  0  0  0  0  0
   -9.7190   12.5240  -34.7630 C   0  0  0  0  0  0  0  0  0  0  0  0
   -7.3750   12.4480  -34.3620 O   0  0  0  0  0  0  0  0  0  0  0  0
   -9.8560   12.2790  -36.2650 C   0  0  0  0  0  0  0  0  0  0  0  0
  -11.0400   12.9250  -36.9220 C   0  0  0  0  0  0  0  0  0  0  0  0
  -12.3100   12.8260  -36.3750 C   0  0  0  0  0  0  0  0  0  0  0  0
  -10.8770   13.6090  -38.1140 C   0  0  0  0  0  0  0  0  0  0  0  0
  -13.3920   13.4040  -37.0080 C   0  0  0  0  0  0  0  0  0  0  0  0
  -11.9550   14.1810  -38.7530 C   0  0  0  0  0  0  0  0  0  0  0  0
  -13.2150   14.0820  -38.2020 C   0  0  0  0  0  0  0  0  0  0  0  0
  1  2  1  0
  3  2  1  0
  2  4  1  0
  3  5  1  6
  5  6  1  0
  6  7  1  0
  6  8  1  0
  7  9  1  0
  8 10  1  0
  9 11  1  0
 10 11  1  0
A    2
 C1 
A    4
 O1 
A    5
 C5 
A    6
 C6 
A    7
 C7 
A    8
 C8 
A    9
 C29
A   10
 C30
A   11
 C31
M  END
>  <XChem_code>  (944) 
polymer

>  <Occupancy>  (944) 
[1.0, 1.0, 1.0, 1.0, 1.0, 1.0, 1.0, 1.0, 1.0, 1.0, 1.0, 1.0, 1.0, 1.0, 1.0, 1.0, 1.0, 1.0, 1.0, 1.0, 1.0, 1.0, 1.0, 1.0, 1.0, 1.0, 1.0, 1.0, 1.0, 1.0, 1.0, 1.0, 1.0, 1.0, 1.0, 1.0, 1.0, 1.0, 1.0, 1.0, 1.0, 1.0, 1.0, 1.0, 1.0, 1.0, 1.0, 1.0, 1.0, 1.0, 1.0, 1.0, 1.0, 1.0, 1.0, 1.0, 1.0, 1.0]

>  <TempFactor>  (944) 
[0.0, 0.0, 0.0, 0.0, 0.0, 0.0, 0.0, 0.0, 0.0, 0.0, 0.0, 0.0, 0.0, 0.0, 0.0, 0.0, 0.0, 0.0, 0.0, 0.0, 0.0, 0.0, 0.0, 0.0, 0.0, 0.0, 0.0, 0.0, 0.0, 0.0, 0.0, 0.0, 0.0, 0.0, 0.0, 0.0, 0.0, 0.0, 0.0, 0.0, 0.0, 0.0, 0.0, 0.0, 0.0, 0.0, 0.0, 0.0, 0.0, 0.0, 0.0, 0.0, 0.0, 0.0, 0.0, 0.0, 0.0, 0.0]

>  <base_name>  (944) 
2b0f

>  <lig_resn>  (944) 
None

>  <lig_resi>  (944) 
1

>  <lig_chain>  (944) 
B

>  <lig_segi>  (944) 


>  <lig_alt>  (944) 


>  <polymer_chain>  (944) 
A

>  <single_smiles>  (944) 
None

$$$$
polymerS54
     RDKit          3D

  9  8  0  0  0  0  0  0  0  0999 V2000
   -9.7350   16.2520  -31.6700 N   0  0  0  0  0  0  0  0  0  0  0  0
   -9.2690   15.7910  -32.9510 C   0  0  2  0  0  0  0  0  0  0  0  0
   -9.4760   14.3090  -33.1760 C   0  0  0  0  0  0  0  0  0  0  0  0
   -7.7900   16.0900  -33.0900 C   0  0  0  0  0  0  0  0  0  0  0  0
   -9.6030   13.9290  -34.4410 N   0  0  0  0  0  0  0  0  0  0  0  0
   -9.5290   13.5200  -32.2290 O   0  0  0  0  0  0  0  0  0  0  0  0
   -7.1690   15.4980  -34.3400 C   0  0  0  0  0  0  0  0  0  0  0  0
   -7.6760   16.2470  -35.5700 C   0  0  0  0  0  0  0  0  0  0  0  0
   -5.6520   15.5520  -34.2470 C   0  0  0  0  0  0  0  0  0  0  0  0
  2  1  1  1
  2  3  1  0
  2  4  1  0
  5  3  1  0
  3  6  1  0
  4  7  1  0
  7  8  1  0
  7  9  1  0
A    2
 C3 
A    3
 C1 
A    4
 C5 
A    6
 O1 
A    7
 C6 
A    8
 C7 
A    9
 C8 
M  END
>  <XChem_code>  (945) 
polymer

>  <Occupancy>  (945) 
[1.0, 1.0, 1.0, 1.0, 1.0, 1.0, 1.0, 1.0, 1.0, 1.0, 1.0, 1.0, 1.0, 1.0, 1.0, 1.0, 1.0, 1.0, 1.0, 1.0, 1.0, 1.0, 1.0, 1.0, 1.0, 1.0, 1.0, 1.0, 1.0, 1.0, 1.0, 1.0, 1.0, 1.0, 1.0, 1.0, 1.0, 1.0, 1.0, 1.0, 1.0, 1.0, 1.0, 1.0, 1.0, 1.0, 1.0, 1.0, 1.0, 1.0, 1.0, 1.0, 1.0, 1.0, 1.0, 1.0, 1.0, 1.0]

>  <TempFactor>  (945) 
[0.0, 0.0, 0.0, 0.0, 0.0, 0.0, 0.0, 0.0, 0.0, 0.0, 0.0, 0.0, 0.0, 0.0, 0.0, 0.0, 0.0, 0.0, 0.0, 0.0, 0.0, 0.0, 0.0, 0.0, 0.0, 0.0, 0.0, 0.0, 0.0, 0.0, 0.0, 0.0, 0.0, 0.0, 0.0, 0.0, 0.0, 0.0, 0.0, 0.0, 0.0, 0.0, 0.0, 0.0, 0.0, 0.0, 0.0, 0.0, 0.0, 0.0, 0.0, 0.0, 0.0, 0.0, 0.0, 0.0, 0.0, 0.0]

>  <base_name>  (945) 
2b0f

>  <lig_resn>  (945) 
None

>  <lig_resi>  (945) 
1

>  <lig_chain>  (945) 
B

>  <lig_segi>  (945) 


>  <lig_alt>  (945) 


>  <polymer_chain>  (945) 
A

>  <single_smiles>  (945) 
None

$$$$
polymerS55
     RDKit          3D

 14 13  0  0  0  0  0  0  0  0999 V2000
  -11.9720   18.6270  -30.4030 N   0  0  0  0  0  0  0  0  0  0  0  0
  -11.2320   17.4190  -30.2140 C   0  0  2  0  0  0  0  0  0  0  0  0
  -10.8520   16.9140  -31.5780 C   0  0  0  0  0  0  0  0  0  0  0  0
  -12.0320   16.4040  -29.4200 C   0  0  0  0  0  0  0  0  0  0  0  0
   -9.7350   16.2520  -31.6700 N   0  0  0  0  0  0  0  0  0  0  0  0
  -11.5590   17.1540  -32.5510 O   0  0  0  0  0  0  0  0  0  0  0  0
   -9.2690   15.7910  -32.9510 C   0  0  2  0  0  0  0  0  0  0  0  0
   -9.4760   14.3090  -33.1760 C   0  0  0  0  0  0  0  0  0  0  0  0
   -7.7900   16.0900  -33.0900 C   0  0  0  0  0  0  0  0  0  0  0  0
   -9.6030   13.9290  -34.4410 N   0  0  0  0  0  0  0  0  0  0  0  0
   -9.5290   13.5200  -32.2290 O   0  0  0  0  0  0  0  0  0  0  0  0
   -7.1690   15.4980  -34.3400 C   0  0  0  0  0  0  0  0  0  0  0  0
   -7.6760   16.2470  -35.5700 C   0  0  0  0  0  0  0  0  0  0  0  0
   -5.6520   15.5520  -34.2470 C   0  0  0  0  0  0  0  0  0  0  0  0
  1  2  1  0
  2  3  1  0
  2  4  1  6
  5  3  1  0
  3  6  1  0
  5  7  1  0
  7  8  1  0
  7  9  1  1
 10  8  1  0
  8 11  1  0
  9 12  1  0
 12 13  1  0
 12 14  1  0
A    2
 C3 
A    3
 C1 
A    4
 C5 
A    5
 N1 
A    6
 O1 
A    7
 C3 
A    8
 C1 
A    9
 C5 
A   11
 O1 
A   12
 C6 
A   13
 C7 
A   14
 C8 
M  END
>  <XChem_code>  (946) 
polymer

>  <Occupancy>  (946) 
[1.0, 1.0, 1.0, 1.0, 1.0, 1.0, 1.0, 1.0, 1.0, 1.0, 1.0, 1.0, 1.0, 1.0, 1.0, 1.0, 1.0, 1.0, 1.0, 1.0, 1.0, 1.0, 1.0, 1.0, 1.0, 1.0, 1.0, 1.0, 1.0, 1.0, 1.0, 1.0, 1.0, 1.0, 1.0, 1.0, 1.0, 1.0, 1.0, 1.0, 1.0, 1.0, 1.0, 1.0, 1.0, 1.0, 1.0, 1.0, 1.0, 1.0, 1.0, 1.0, 1.0, 1.0, 1.0, 1.0, 1.0, 1.0]

>  <TempFactor>  (946) 
[0.0, 0.0, 0.0, 0.0, 0.0, 0.0, 0.0, 0.0, 0.0, 0.0, 0.0, 0.0, 0.0, 0.0, 0.0, 0.0, 0.0, 0.0, 0.0, 0.0, 0.0, 0.0, 0.0, 0.0, 0.0, 0.0, 0.0, 0.0, 0.0, 0.0, 0.0, 0.0, 0.0, 0.0, 0.0, 0.0, 0.0, 0.0, 0.0, 0.0, 0.0, 0.0, 0.0, 0.0, 0.0, 0.0, 0.0, 0.0, 0.0, 0.0, 0.0, 0.0, 0.0, 0.0, 0.0, 0.0, 0.0, 0.0]

>  <base_name>  (946) 
2b0f

>  <lig_resn>  (946) 
None

>  <lig_resi>  (946) 
1

>  <lig_chain>  (946) 
B

>  <lig_segi>  (946) 


>  <lig_alt>  (946) 


>  <polymer_chain>  (946) 
A

>  <single_smiles>  (946) 
None

$$$$
polymerS56
     RDKit          3D

 23 22  0  0  0  0  0  0  0  0999 V2000
  -12.5790   21.3540  -29.4810 N   0  0  0  0  0  0  0  0  0  0  0  0
  -12.2360   20.9510  -30.8060 C   0  0  2  0  0  0  0  0  0  0  0  0
  -11.3450   19.7670  -30.6210 C   0  0  2  0  0  0  0  0  0  0  0  0
  -11.5450   22.0000  -31.6560 C   0  0  0  0  0  0  0  0  0  0  0  0
  -11.9720   18.6270  -30.4030 N   0  0  0  0  0  0  0  0  0  0  0  0
  -10.1190   19.8830  -30.5960 O   0  0  0  0  0  0  0  0  0  0  0  0
  -11.2540   21.4640  -33.0520 C   0  0  0  0  0  0  0  0  0  0  0  0
  -11.2320   17.4190  -30.2140 C   0  0  2  0  0  0  0  0  0  0  0  0
  -10.4830   22.4400  -33.9180 C   0  0  0  0  0  0  0  0  0  0  0  0
  -10.8520   16.9140  -31.5780 C   0  0  0  0  0  0  0  0  0  0  0  0
  -12.0320   16.4040  -29.4200 C   0  0  0  0  0  0  0  0  0  0  0  0
  -11.1230   23.2880  -34.5660 O   0  0  0  0  0  0  0  0  0  0  0  0
   -9.2440   22.3600  -33.9420 O   0  0  0  0  0  0  0  0  0  0  0  0
   -9.7350   16.2520  -31.6700 N   0  0  0  0  0  0  0  0  0  0  0  0
  -11.5590   17.1540  -32.5510 O   0  0  0  0  0  0  0  0  0  0  0  0
   -9.2690   15.7910  -32.9510 C   0  0  2  0  0  0  0  0  0  0  0  0
   -9.4760   14.3090  -33.1760 C   0  0  0  0  0  0  0  0  0  0  0  0
   -7.7900   16.0900  -33.0900 C   0  0  0  0  0  0  0  0  0  0  0  0
   -9.6030   13.9290  -34.4410 N   0  0  0  0  0  0  0  0  0  0  0  0
   -9.5290   13.5200  -32.2290 O   0  0  0  0  0  0  0  0  0  0  0  0
   -7.1690   15.4980  -34.3400 C   0  0  0  0  0  0  0  0  0  0  0  0
   -7.6760   16.2470  -35.5700 C   0  0  0  0  0  0  0  0  0  0  0  0
   -5.6520   15.5520  -34.2470 C   0  0  0  0  0  0  0  0  0  0  0  0
  2  1  1  1
  2  3  1  0
  2  4  1  0
  5  3  1  0
  3  6  1  1
  4  7  1  0
  5  8  1  0
  7  9  1  0
  8 10  1  0
  8 11  1  6
  9 12  1  0
  9 13  1  0
 14 10  1  0
 10 15  1  0
 14 16  1  0
 16 17  1  0
 16 18  1  1
 19 17  1  0
 17 20  1  0
 18 21  1  0
 21 22  1  0
 21 23  1  0
M  CHG  1  13  -1
A    2
 C3 
A    3
 C1 
A    4
 C5 
A    5
 N1 
A    6
 O1 
A    7
 C6 
A    8
 C3 
A    9
 C13
A   10
 C1 
A   11
 C5 
A   12
 O4 
A   13
 O5 
A   14
 N1 
A   15
 O1 
A   16
 C3 
A   17
 C1 
A   18
 C5 
A   20
 O1 
A   21
 C6 
A   22
 C7 
A   23
 C8 
M  END
>  <XChem_code>  (947) 
polymer

>  <Occupancy>  (947) 
[1.0, 1.0, 1.0, 1.0, 1.0, 1.0, 1.0, 1.0, 1.0, 1.0, 1.0, 1.0, 1.0, 1.0, 1.0, 1.0, 1.0, 1.0, 1.0, 1.0, 1.0, 1.0, 1.0, 1.0, 1.0, 1.0, 1.0, 1.0, 1.0, 1.0, 1.0, 1.0, 1.0, 1.0, 1.0, 1.0, 1.0, 1.0, 1.0, 1.0, 1.0, 1.0, 1.0, 1.0, 1.0, 1.0, 1.0, 1.0, 1.0, 1.0, 1.0, 1.0, 1.0, 1.0, 1.0, 1.0, 1.0, 1.0]

>  <TempFactor>  (947) 
[0.0, 0.0, 0.0, 0.0, 0.0, 0.0, 0.0, 0.0, 0.0, 0.0, 0.0, 0.0, 0.0, 0.0, 0.0, 0.0, 0.0, 0.0, 0.0, 0.0, 0.0, 0.0, 0.0, 0.0, 0.0, 0.0, 0.0, 0.0, 0.0, 0.0, 0.0, 0.0, 0.0, 0.0, 0.0, 0.0, 0.0, 0.0, 0.0, 0.0, 0.0, 0.0, 0.0, 0.0, 0.0, 0.0, 0.0, 0.0, 0.0, 0.0, 0.0, 0.0, 0.0, 0.0, 0.0, 0.0, 0.0, 0.0]

>  <base_name>  (947) 
2b0f

>  <lig_resn>  (947) 
None

>  <lig_resi>  (947) 
1

>  <lig_chain>  (947) 
B

>  <lig_segi>  (947) 


>  <lig_alt>  (947) 


>  <polymer_chain>  (947) 
A

>  <single_smiles>  (947) 
None

$$$$
polymerS57
     RDKit          3D

 12 12  0  0  0  0  0  0  0  0999 V2000
   -9.6030   13.9290  -34.4410 N   0  0  0  0  0  0  0  0  0  0  0  0
   -9.7190   12.5240  -34.7630 C   0  0  2  0  0  0  0  0  0  0  0  0
   -8.4470   11.8470  -34.2880 C   0  0  0  0  0  0  0  0  0  0  0  0
   -9.8560   12.2790  -36.2650 C   0  0  0  0  0  0  0  0  0  0  0  0
   -8.5240   10.6110  -33.8090 N   0  0  0  0  0  0  0  0  0  0  0  0
   -7.3750   12.4480  -34.3620 O   0  0  0  0  0  0  0  0  0  0  0  0
  -11.0400   12.9250  -36.9220 C   0  0  0  0  0  0  0  0  0  0  0  0
  -12.3100   12.8260  -36.3750 C   0  0  0  0  0  0  0  0  0  0  0  0
  -10.8770   13.6090  -38.1140 C   0  0  0  0  0  0  0  0  0  0  0  0
  -13.3920   13.4040  -37.0080 C   0  0  0  0  0  0  0  0  0  0  0  0
  -11.9550   14.1810  -38.7530 C   0  0  0  0  0  0  0  0  0  0  0  0
  -13.2150   14.0820  -38.2020 C   0  0  0  0  0  0  0  0  0  0  0  0
  2  1  1  6
  2  3  1  0
  2  4  1  0
  5  3  1  0
  3  6  1  0
  4  7  1  0
  7  8  1  0
  7  9  1  0
  8 10  1  0
  9 11  1  0
 10 12  1  0
 11 12  1  0
A    2
 C3 
A    3
 C1 
A    4
 C5 
A    6
 O1 
A    7
 C6 
A    8
 C7 
A    9
 C8 
A   10
 C29
A   11
 C30
A   12
 C31
M  END
>  <XChem_code>  (948) 
polymer

>  <Occupancy>  (948) 
[1.0, 1.0, 1.0, 1.0, 1.0, 1.0, 1.0, 1.0, 1.0, 1.0, 1.0, 1.0, 1.0, 1.0, 1.0, 1.0, 1.0, 1.0, 1.0, 1.0, 1.0, 1.0, 1.0, 1.0, 1.0, 1.0, 1.0, 1.0, 1.0, 1.0, 1.0, 1.0, 1.0, 1.0, 1.0, 1.0, 1.0, 1.0, 1.0, 1.0, 1.0, 1.0, 1.0, 1.0, 1.0, 1.0, 1.0, 1.0, 1.0, 1.0, 1.0, 1.0, 1.0, 1.0, 1.0, 1.0, 1.0, 1.0]

>  <TempFactor>  (948) 
[0.0, 0.0, 0.0, 0.0, 0.0, 0.0, 0.0, 0.0, 0.0, 0.0, 0.0, 0.0, 0.0, 0.0, 0.0, 0.0, 0.0, 0.0, 0.0, 0.0, 0.0, 0.0, 0.0, 0.0, 0.0, 0.0, 0.0, 0.0, 0.0, 0.0, 0.0, 0.0, 0.0, 0.0, 0.0, 0.0, 0.0, 0.0, 0.0, 0.0, 0.0, 0.0, 0.0, 0.0, 0.0, 0.0, 0.0, 0.0, 0.0, 0.0, 0.0, 0.0, 0.0, 0.0, 0.0, 0.0, 0.0, 0.0]

>  <base_name>  (948) 
2b0f

>  <lig_resn>  (948) 
None

>  <lig_resi>  (948) 
1

>  <lig_chain>  (948) 
B

>  <lig_segi>  (948) 


>  <lig_alt>  (948) 


>  <polymer_chain>  (948) 
A

>  <single_smiles>  (948) 
None

$$$$
polymerS58
     RDKit          3D

 20 20  0  0  0  0  0  0  0  0999 V2000
   -9.7350   16.2520  -31.6700 N   0  0  0  0  0  0  0  0  0  0  0  0
   -9.2690   15.7910  -32.9510 C   0  0  2  0  0  0  0  0  0  0  0  0
   -9.4760   14.3090  -33.1760 C   0  0  0  0  0  0  0  0  0  0  0  0
   -7.7900   16.0900  -33.0900 C   0  0  0  0  0  0  0  0  0  0  0  0
   -9.6030   13.9290  -34.4410 N   0  0  0  0  0  0  0  0  0  0  0  0
   -9.5290   13.5200  -32.2290 O   0  0  0  0  0  0  0  0  0  0  0  0
   -7.1690   15.4980  -34.3400 C   0  0  0  0  0  0  0  0  0  0  0  0
   -9.7190   12.5240  -34.7630 C   0  0  2  0  0  0  0  0  0  0  0  0
   -7.6760   16.2470  -35.5700 C   0  0  0  0  0  0  0  0  0  0  0  0
   -5.6520   15.5520  -34.2470 C   0  0  0  0  0  0  0  0  0  0  0  0
   -8.4470   11.8470  -34.2880 C   0  0  0  0  0  0  0  0  0  0  0  0
   -9.8560   12.2790  -36.2650 C   0  0  0  0  0  0  0  0  0  0  0  0
   -8.5240   10.6110  -33.8090 N   0  0  0  0  0  0  0  0  0  0  0  0
   -7.3750   12.4480  -34.3620 O   0  0  0  0  0  0  0  0  0  0  0  0
  -11.0400   12.9250  -36.9220 C   0  0  0  0  0  0  0  0  0  0  0  0
  -12.3100   12.8260  -36.3750 C   0  0  0  0  0  0  0  0  0  0  0  0
  -10.8770   13.6090  -38.1140 C   0  0  0  0  0  0  0  0  0  0  0  0
  -13.3920   13.4040  -37.0080 C   0  0  0  0  0  0  0  0  0  0  0  0
  -11.9550   14.1810  -38.7530 C   0  0  0  0  0  0  0  0  0  0  0  0
  -13.2150   14.0820  -38.2020 C   0  0  0  0  0  0  0  0  0  0  0  0
  2  1  1  1
  2  3  1  0
  2  4  1  0
  5  3  1  0
  3  6  1  0
  4  7  1  0
  5  8  1  0
  7  9  1  0
  7 10  1  0
  8 11  1  0
  8 12  1  6
 13 11  1  0
 11 14  1  0
 12 15  1  0
 15 16  1  0
 15 17  1  0
 16 18  1  0
 17 19  1  0
 18 20  1  0
 19 20  1  0
A    2
 C3 
A    3
 C1 
A    4
 C5 
A    5
 N1 
A    6
 O1 
A    7
 C6 
A    8
 C3 
A    9
 C7 
A   10
 C8 
A   11
 C1 
A   12
 C5 
A   14
 O1 
A   15
 C6 
A   16
 C7 
A   17
 C8 
A   18
 C29
A   19
 C30
A   20
 C31
M  END
>  <XChem_code>  (949) 
polymer

>  <Occupancy>  (949) 
[1.0, 1.0, 1.0, 1.0, 1.0, 1.0, 1.0, 1.0, 1.0, 1.0, 1.0, 1.0, 1.0, 1.0, 1.0, 1.0, 1.0, 1.0, 1.0, 1.0, 1.0, 1.0, 1.0, 1.0, 1.0, 1.0, 1.0, 1.0, 1.0, 1.0, 1.0, 1.0, 1.0, 1.0, 1.0, 1.0, 1.0, 1.0, 1.0, 1.0, 1.0, 1.0, 1.0, 1.0, 1.0, 1.0, 1.0, 1.0, 1.0, 1.0, 1.0, 1.0, 1.0, 1.0, 1.0, 1.0, 1.0, 1.0]

>  <TempFactor>  (949) 
[0.0, 0.0, 0.0, 0.0, 0.0, 0.0, 0.0, 0.0, 0.0, 0.0, 0.0, 0.0, 0.0, 0.0, 0.0, 0.0, 0.0, 0.0, 0.0, 0.0, 0.0, 0.0, 0.0, 0.0, 0.0, 0.0, 0.0, 0.0, 0.0, 0.0, 0.0, 0.0, 0.0, 0.0, 0.0, 0.0, 0.0, 0.0, 0.0, 0.0, 0.0, 0.0, 0.0, 0.0, 0.0, 0.0, 0.0, 0.0, 0.0, 0.0, 0.0, 0.0, 0.0, 0.0, 0.0, 0.0, 0.0, 0.0]

>  <base_name>  (949) 
2b0f

>  <lig_resn>  (949) 
None

>  <lig_resi>  (949) 
1

>  <lig_chain>  (949) 
B

>  <lig_segi>  (949) 


>  <lig_alt>  (949) 


>  <polymer_chain>  (949) 
A

>  <single_smiles>  (949) 
None

$$$$
polymerS59
     RDKit          3D

 25 25  0  0  0  0  0  0  0  0999 V2000
  -11.9720   18.6270  -30.4030 N   0  0  0  0  0  0  0  0  0  0  0  0
  -11.2320   17.4190  -30.2140 C   0  0  2  0  0  0  0  0  0  0  0  0
  -10.8520   16.9140  -31.5780 C   0  0  0  0  0  0  0  0  0  0  0  0
  -12.0320   16.4040  -29.4200 C   0  0  0  0  0  0  0  0  0  0  0  0
   -9.7350   16.2520  -31.6700 N   0  0  0  0  0  0  0  0  0  0  0  0
  -11.5590   17.1540  -32.5510 O   0  0  0  0  0  0  0  0  0  0  0  0
   -9.2690   15.7910  -32.9510 C   0  0  2  0  0  0  0  0  0  0  0  0
   -9.4760   14.3090  -33.1760 C   0  0  0  0  0  0  0  0  0  0  0  0
   -7.7900   16.0900  -33.0900 C   0  0  0  0  0  0  0  0  0  0  0  0
   -9.6030   13.9290  -34.4410 N   0  0  0  0  0  0  0  0  0  0  0  0
   -9.5290   13.5200  -32.2290 O   0  0  0  0  0  0  0  0  0  0  0  0
   -7.1690   15.4980  -34.3400 C   0  0  0  0  0  0  0  0  0  0  0  0
   -9.7190   12.5240  -34.7630 C   0  0  2  0  0  0  0  0  0  0  0  0
   -7.6760   16.2470  -35.5700 C   0  0  0  0  0  0  0  0  0  0  0  0
   -5.6520   15.5520  -34.2470 C   0  0  0  0  0  0  0  0  0  0  0  0
   -8.4470   11.8470  -34.2880 C   0  0  0  0  0  0  0  0  0  0  0  0
   -9.8560   12.2790  -36.2650 C   0  0  0  0  0  0  0  0  0  0  0  0
   -8.5240   10.6110  -33.8090 N   0  0  0  0  0  0  0  0  0  0  0  0
   -7.3750   12.4480  -34.3620 O   0  0  0  0  0  0  0  0  0  0  0  0
  -11.0400   12.9250  -36.9220 C   0  0  0  0  0  0  0  0  0  0  0  0
  -12.3100   12.8260  -36.3750 C   0  0  0  0  0  0  0  0  0  0  0  0
  -10.8770   13.6090  -38.1140 C   0  0  0  0  0  0  0  0  0  0  0  0
  -13.3920   13.4040  -37.0080 C   0  0  0  0  0  0  0  0  0  0  0  0
  -11.9550   14.1810  -38.7530 C   0  0  0  0  0  0  0  0  0  0  0  0
  -13.2150   14.0820  -38.2020 C   0  0  0  0  0  0  0  0  0  0  0  0
  1  2  1  0
  2  3  1  0
  2  4  1  6
  5  3  1  0
  3  6  1  0
  5  7  1  0
  7  8  1  0
  7  9  1  1
 10  8  1  0
  8 11  1  0
  9 12  1  0
 10 13  1  0
 12 14  1  0
 12 15  1  0
 13 16  1  0
 13 17  1  6
 18 16  1  0
 16 19  1  0
 17 20  1  0
 20 21  1  0
 20 22  1  0
 21 23  1  0
 22 24  1  0
 23 25  1  0
 24 25  1  0
A    2
 C3 
A    3
 C1 
A    4
 C5 
A    5
 N1 
A    6
 O1 
A    7
 C3 
A    8
 C1 
A    9
 C5 
A   10
 N1 
A   11
 O1 
A   12
 C6 
A   13
 C3 
A   14
 C7 
A   15
 C8 
A   16
 C1 
A   17
 C5 
A   19
 O1 
A   20
 C6 
A   21
 C7 
A   22
 C8 
A   23
 C29
A   24
 C30
A   25
 C31
M  END
>  <XChem_code>  (950) 
polymer

>  <Occupancy>  (950) 
[1.0, 1.0, 1.0, 1.0, 1.0, 1.0, 1.0, 1.0, 1.0, 1.0, 1.0, 1.0, 1.0, 1.0, 1.0, 1.0, 1.0, 1.0, 1.0, 1.0, 1.0, 1.0, 1.0, 1.0, 1.0, 1.0, 1.0, 1.0, 1.0, 1.0, 1.0, 1.0, 1.0, 1.0, 1.0, 1.0, 1.0, 1.0, 1.0, 1.0, 1.0, 1.0, 1.0, 1.0, 1.0, 1.0, 1.0, 1.0, 1.0, 1.0, 1.0, 1.0, 1.0, 1.0, 1.0, 1.0, 1.0, 1.0]

>  <TempFactor>  (950) 
[0.0, 0.0, 0.0, 0.0, 0.0, 0.0, 0.0, 0.0, 0.0, 0.0, 0.0, 0.0, 0.0, 0.0, 0.0, 0.0, 0.0, 0.0, 0.0, 0.0, 0.0, 0.0, 0.0, 0.0, 0.0, 0.0, 0.0, 0.0, 0.0, 0.0, 0.0, 0.0, 0.0, 0.0, 0.0, 0.0, 0.0, 0.0, 0.0, 0.0, 0.0, 0.0, 0.0, 0.0, 0.0, 0.0, 0.0, 0.0, 0.0, 0.0, 0.0, 0.0, 0.0, 0.0, 0.0, 0.0, 0.0, 0.0]

>  <base_name>  (950) 
2b0f

>  <lig_resn>  (950) 
None

>  <lig_resi>  (950) 
1

>  <lig_chain>  (950) 
B

>  <lig_segi>  (950) 


>  <lig_alt>  (950) 


>  <polymer_chain>  (950) 
A

>  <single_smiles>  (950) 
None

$$$$
polymerS60
     RDKit          3D

 34 34  0  0  0  0  0  0  0  0999 V2000
  -12.5790   21.3540  -29.4810 N   0  0  0  0  0  0  0  0  0  0  0  0
  -12.2360   20.9510  -30.8060 C   0  0  2  0  0  0  0  0  0  0  0  0
  -11.3450   19.7670  -30.6210 C   0  0  2  0  0  0  0  0  0  0  0  0
  -11.5450   22.0000  -31.6560 C   0  0  0  0  0  0  0  0  0  0  0  0
  -11.9720   18.6270  -30.4030 N   0  0  0  0  0  0  0  0  0  0  0  0
  -10.1190   19.8830  -30.5960 O   0  0  0  0  0  0  0  0  0  0  0  0
  -11.2540   21.4640  -33.0520 C   0  0  0  0  0  0  0  0  0  0  0  0
  -11.2320   17.4190  -30.2140 C   0  0  2  0  0  0  0  0  0  0  0  0
  -10.4830   22.4400  -33.9180 C   0  0  0  0  0  0  0  0  0  0  0  0
  -10.8520   16.9140  -31.5780 C   0  0  0  0  0  0  0  0  0  0  0  0
  -12.0320   16.4040  -29.4200 C   0  0  0  0  0  0  0  0  0  0  0  0
  -11.1230   23.2880  -34.5660 O   0  0  0  0  0  0  0  0  0  0  0  0
   -9.2440   22.3600  -33.9420 O   0  0  0  0  0  0  0  0  0  0  0  0
   -9.7350   16.2520  -31.6700 N   0  0  0  0  0  0  0  0  0  0  0  0
  -11.5590   17.1540  -32.5510 O   0  0  0  0  0  0  0  0  0  0  0  0
   -9.2690   15.7910  -32.9510 C   0  0  2  0  0  0  0  0  0  0  0  0
   -9.4760   14.3090  -33.1760 C   0  0  0  0  0  0  0  0  0  0  0  0
   -7.7900   16.0900  -33.0900 C   0  0  0  0  0  0  0  0  0  0  0  0
   -9.6030   13.9290  -34.4410 N   0  0  0  0  0  0  0  0  0  0  0  0
   -9.5290   13.5200  -32.2290 O   0  0  0  0  0  0  0  0  0  0  0  0
   -7.1690   15.4980  -34.3400 C   0  0  0  0  0  0  0  0  0  0  0  0
   -9.7190   12.5240  -34.7630 C   0  0  2  0  0  0  0  0  0  0  0  0
   -7.6760   16.2470  -35.5700 C   0  0  0  0  0  0  0  0  0  0  0  0
   -5.6520   15.5520  -34.2470 C   0  0  0  0  0  0  0  0  0  0  0  0
   -8.4470   11.8470  -34.2880 C   0  0  0  0  0  0  0  0  0  0  0  0
   -9.8560   12.2790  -36.2650 C   0  0  0  0  0  0  0  0  0  0  0  0
   -8.5240   10.6110  -33.8090 N   0  0  0  0  0  0  0  0  0  0  0  0
   -7.3750   12.4480  -34.3620 O   0  0  0  0  0  0  0  0  0  0  0  0
  -11.0400   12.9250  -36.9220 C   0  0  0  0  0  0  0  0  0  0  0  0
  -12.3100   12.8260  -36.3750 C   0  0  0  0  0  0  0  0  0  0  0  0
  -10.8770   13.6090  -38.1140 C   0  0  0  0  0  0  0  0  0  0  0  0
  -13.3920   13.4040  -37.0080 C   0  0  0  0  0  0  0  0  0  0  0  0
  -11.9550   14.1810  -38.7530 C   0  0  0  0  0  0  0  0  0  0  0  0
  -13.2150   14.0820  -38.2020 C   0  0  0  0  0  0  0  0  0  0  0  0
  2  1  1  1
  2  3  1  0
  2  4  1  0
  5  3  1  0
  3  6  1  1
  4  7  1  0
  5  8  1  0
  7  9  1  0
  8 10  1  0
  8 11  1  6
  9 12  1  0
  9 13  1  0
 14 10  1  0
 10 15  1  0
 14 16  1  0
 16 17  1  0
 16 18  1  1
 19 17  1  0
 17 20  1  0
 18 21  1  0
 19 22  1  0
 21 23  1  0
 21 24  1  0
 22 25  1  0
 22 26  1  6
 27 25  1  0
 25 28  1  0
 26 29  1  0
 29 30  1  0
 29 31  1  0
 30 32  1  0
 31 33  1  0
 32 34  1  0
 33 34  1  0
M  CHG  1  13  -1
A    2
 C3 
A    3
 C1 
A    4
 C5 
A    5
 N1 
A    6
 O1 
A    7
 C6 
A    8
 C3 
A    9
 C13
A   10
 C1 
A   11
 C5 
A   12
 O4 
A   13
 O5 
A   14
 N1 
A   15
 O1 
A   16
 C3 
A   17
 C1 
A   18
 C5 
A   19
 N1 
A   20
 O1 
A   21
 C6 
A   22
 C3 
A   23
 C7 
A   24
 C8 
A   25
 C1 
A   26
 C5 
A   28
 O1 
A   29
 C6 
A   30
 C7 
A   31
 C8 
A   32
 C29
A   33
 C30
A   34
 C31
M  END
>  <XChem_code>  (951) 
polymer

>  <Occupancy>  (951) 
[1.0, 1.0, 1.0, 1.0, 1.0, 1.0, 1.0, 1.0, 1.0, 1.0, 1.0, 1.0, 1.0, 1.0, 1.0, 1.0, 1.0, 1.0, 1.0, 1.0, 1.0, 1.0, 1.0, 1.0, 1.0, 1.0, 1.0, 1.0, 1.0, 1.0, 1.0, 1.0, 1.0, 1.0, 1.0, 1.0, 1.0, 1.0, 1.0, 1.0, 1.0, 1.0, 1.0, 1.0, 1.0, 1.0, 1.0, 1.0, 1.0, 1.0, 1.0, 1.0, 1.0, 1.0, 1.0, 1.0, 1.0, 1.0]

>  <TempFactor>  (951) 
[0.0, 0.0, 0.0, 0.0, 0.0, 0.0, 0.0, 0.0, 0.0, 0.0, 0.0, 0.0, 0.0, 0.0, 0.0, 0.0, 0.0, 0.0, 0.0, 0.0, 0.0, 0.0, 0.0, 0.0, 0.0, 0.0, 0.0, 0.0, 0.0, 0.0, 0.0, 0.0, 0.0, 0.0, 0.0, 0.0, 0.0, 0.0, 0.0, 0.0, 0.0, 0.0, 0.0, 0.0, 0.0, 0.0, 0.0, 0.0, 0.0, 0.0, 0.0, 0.0, 0.0, 0.0, 0.0, 0.0, 0.0, 0.0]

>  <base_name>  (951) 
2b0f

>  <lig_resn>  (951) 
None

>  <lig_resi>  (951) 
1

>  <lig_chain>  (951) 
B

>  <lig_segi>  (951) 


>  <lig_alt>  (951) 


>  <polymer_chain>  (951) 
A

>  <single_smiles>  (951) 
None

$$$$
polymerS61
     RDKit          3D

  9  8  0  0  0  0  0  0  0  0999 V2000
  -11.3450   19.7670  -30.6210 C   0  0  0  0  0  0  0  0  0  0  0  0
  -12.2360   20.9510  -30.8060 C   0  0  1  0  0  0  0  0  0  0  0  0
  -10.1190   19.8830  -30.5960 O   0  0  0  0  0  0  0  0  0  0  0  0
  -12.5790   21.3540  -29.4810 N   0  0  0  0  0  0  0  0  0  0  0  0
  -11.5450   22.0000  -31.6560 C   0  0  0  0  0  0  0  0  0  0  0  0
  -11.2540   21.4640  -33.0520 C   0  0  0  0  0  0  0  0  0  0  0  0
  -10.4830   22.4400  -33.9180 C   0  0  0  0  0  0  0  0  0  0  0  0
  -11.1230   23.2880  -34.5660 O   0  0  0  0  0  0  0  0  0  0  0  0
   -9.2440   22.3600  -33.9420 O   0  0  0  0  0  0  0  0  0  0  0  0
  2  1  1  0
  1  3  1  1
  2  4  1  1
  2  5  1  0
  5  6  1  0
  6  7  1  0
  7  8  1  0
  7  9  1  0
M  CHG  1   9  -1
A    2
 C3 
A    3
 O1 
A    5
 C5 
A    6
 C6 
A    7
 C13
A    8
 O4 
A    9
 O5 
M  END
>  <XChem_code>  (952) 
polymer

>  <Occupancy>  (952) 
[1.0, 1.0, 1.0, 1.0, 1.0, 1.0, 1.0, 1.0, 1.0, 1.0, 1.0, 1.0, 1.0, 1.0, 1.0, 1.0, 1.0, 1.0, 1.0, 1.0, 1.0, 1.0, 1.0, 1.0, 1.0, 1.0, 1.0, 1.0, 1.0, 1.0, 1.0, 1.0, 1.0, 1.0, 1.0, 1.0, 1.0, 1.0, 1.0, 1.0, 1.0, 1.0, 1.0, 1.0, 1.0, 1.0, 1.0, 1.0, 1.0, 1.0, 1.0, 1.0, 1.0, 1.0, 1.0, 1.0, 1.0, 1.0]

>  <TempFactor>  (952) 
[0.0, 0.0, 0.0, 0.0, 0.0, 0.0, 0.0, 0.0, 0.0, 0.0, 0.0, 0.0, 0.0, 0.0, 0.0, 0.0, 0.0, 0.0, 0.0, 0.0, 0.0, 0.0, 0.0, 0.0, 0.0, 0.0, 0.0, 0.0, 0.0, 0.0, 0.0, 0.0, 0.0, 0.0, 0.0, 0.0, 0.0, 0.0, 0.0, 0.0, 0.0, 0.0, 0.0, 0.0, 0.0, 0.0, 0.0, 0.0, 0.0, 0.0, 0.0, 0.0, 0.0, 0.0, 0.0, 0.0, 0.0, 0.0]

>  <base_name>  (952) 
2b0f

>  <lig_resn>  (952) 
None

>  <lig_resi>  (952) 
1

>  <lig_chain>  (952) 
B

>  <lig_segi>  (952) 


>  <lig_alt>  (952) 


>  <polymer_chain>  (952) 
A

>  <single_smiles>  (952) 
None

$$$$
polymerS62
     RDKit          3D

 14 13  0  0  0  0  0  0  0  0999 V2000
  -10.8520   16.9140  -31.5780 C   0  0  0  0  0  0  0  0  0  0  0  0
  -11.2320   17.4190  -30.2140 C   0  0  1  0  0  0  0  0  0  0  0  0
  -11.5590   17.1540  -32.5510 O   0  0  0  0  0  0  0  0  0  0  0  0
  -11.9720   18.6270  -30.4030 N   0  0  0  0  0  0  0  0  0  0  0  0
  -12.0320   16.4040  -29.4200 C   0  0  0  0  0  0  0  0  0  0  0  0
  -11.3450   19.7670  -30.6210 C   0  0  1  0  0  0  0  0  0  0  0  0
  -12.2360   20.9510  -30.8060 C   0  0  1  0  0  0  0  0  0  0  0  0
  -10.1190   19.8830  -30.5960 O   0  0  0  0  0  0  0  0  0  0  0  0
  -12.5790   21.3540  -29.4810 N   0  0  0  0  0  0  0  0  0  0  0  0
  -11.5450   22.0000  -31.6560 C   0  0  0  0  0  0  0  0  0  0  0  0
  -11.2540   21.4640  -33.0520 C   0  0  0  0  0  0  0  0  0  0  0  0
  -10.4830   22.4400  -33.9180 C   0  0  0  0  0  0  0  0  0  0  0  0
  -11.1230   23.2880  -34.5660 O   0  0  0  0  0  0  0  0  0  0  0  0
   -9.2440   22.3600  -33.9420 O   0  0  0  0  0  0  0  0  0  0  0  0
  2  1  1  0
  1  3  1  0
  4  2  1  0
  2  5  1  6
  4  6  1  0
  7  6  1  0
  6  8  1  1
  7  9  1  1
  7 10  1  0
 10 11  1  0
 11 12  1  0
 12 13  1  0
 12 14  1  0
M  CHG  1  14  -1
A    2
 C3 
A    3
 O1 
A    4
 N1 
A    5
 C5 
A    6
 C1 
A    7
 C3 
A    8
 O1 
A   10
 C5 
A   11
 C6 
A   12
 C13
A   13
 O4 
A   14
 O5 
M  END
>  <XChem_code>  (953) 
polymer

>  <Occupancy>  (953) 
[1.0, 1.0, 1.0, 1.0, 1.0, 1.0, 1.0, 1.0, 1.0, 1.0, 1.0, 1.0, 1.0, 1.0, 1.0, 1.0, 1.0, 1.0, 1.0, 1.0, 1.0, 1.0, 1.0, 1.0, 1.0, 1.0, 1.0, 1.0, 1.0, 1.0, 1.0, 1.0, 1.0, 1.0, 1.0, 1.0, 1.0, 1.0, 1.0, 1.0, 1.0, 1.0, 1.0, 1.0, 1.0, 1.0, 1.0, 1.0, 1.0, 1.0, 1.0, 1.0, 1.0, 1.0, 1.0, 1.0, 1.0, 1.0]

>  <TempFactor>  (953) 
[0.0, 0.0, 0.0, 0.0, 0.0, 0.0, 0.0, 0.0, 0.0, 0.0, 0.0, 0.0, 0.0, 0.0, 0.0, 0.0, 0.0, 0.0, 0.0, 0.0, 0.0, 0.0, 0.0, 0.0, 0.0, 0.0, 0.0, 0.0, 0.0, 0.0, 0.0, 0.0, 0.0, 0.0, 0.0, 0.0, 0.0, 0.0, 0.0, 0.0, 0.0, 0.0, 0.0, 0.0, 0.0, 0.0, 0.0, 0.0, 0.0, 0.0, 0.0, 0.0, 0.0, 0.0, 0.0, 0.0, 0.0, 0.0]

>  <base_name>  (953) 
2b0f

>  <lig_resn>  (953) 
None

>  <lig_resi>  (953) 
1

>  <lig_chain>  (953) 
B

>  <lig_segi>  (953) 


>  <lig_alt>  (953) 


>  <polymer_chain>  (953) 
A

>  <single_smiles>  (953) 
None

$$$$
polymerS63
     RDKit          3D

 22 21  0  0  0  0  0  0  0  0999 V2000
   -9.4760   14.3090  -33.1760 C   0  0  0  0  0  0  0  0  0  0  0  0
   -9.2690   15.7910  -32.9510 C   0  0  1  0  0  0  0  0  0  0  0  0
   -9.5290   13.5200  -32.2290 O   0  0  0  0  0  0  0  0  0  0  0  0
   -9.7350   16.2520  -31.6700 N   0  0  0  0  0  0  0  0  0  0  0  0
   -7.7900   16.0900  -33.0900 C   0  0  0  0  0  0  0  0  0  0  0  0
  -10.8520   16.9140  -31.5780 C   0  0  0  0  0  0  0  0  0  0  0  0
   -7.1690   15.4980  -34.3400 C   0  0  0  0  0  0  0  0  0  0  0  0
  -11.2320   17.4190  -30.2140 C   0  0  1  0  0  0  0  0  0  0  0  0
  -11.5590   17.1540  -32.5510 O   0  0  0  0  0  0  0  0  0  0  0  0
   -7.6760   16.2470  -35.5700 C   0  0  0  0  0  0  0  0  0  0  0  0
   -5.6520   15.5520  -34.2470 C   0  0  0  0  0  0  0  0  0  0  0  0
  -11.9720   18.6270  -30.4030 N   0  0  0  0  0  0  0  0  0  0  0  0
  -12.0320   16.4040  -29.4200 C   0  0  0  0  0  0  0  0  0  0  0  0
  -11.3450   19.7670  -30.6210 C   0  0  1  0  0  0  0  0  0  0  0  0
  -12.2360   20.9510  -30.8060 C   0  0  1  0  0  0  0  0  0  0  0  0
  -10.1190   19.8830  -30.5960 O   0  0  0  0  0  0  0  0  0  0  0  0
  -12.5790   21.3540  -29.4810 N   0  0  0  0  0  0  0  0  0  0  0  0
  -11.5450   22.0000  -31.6560 C   0  0  0  0  0  0  0  0  0  0  0  0
  -11.2540   21.4640  -33.0520 C   0  0  0  0  0  0  0  0  0  0  0  0
  -10.4830   22.4400  -33.9180 C   0  0  0  0  0  0  0  0  0  0  0  0
  -11.1230   23.2880  -34.5660 O   0  0  0  0  0  0  0  0  0  0  0  0
   -9.2440   22.3600  -33.9420 O   0  0  0  0  0  0  0  0  0  0  0  0
  2  1  1  1
  1  3  1  0
  4  2  1  0
  2  5  1  0
  4  6  1  0
  5  7  1  0
  8  6  1  0
  6  9  1  0
  7 10  1  0
  7 11  1  0
 12  8  1  0
  8 13  1  6
 12 14  1  0
 15 14  1  0
 14 16  1  1
 15 17  1  1
 15 18  1  0
 18 19  1  0
 19 20  1  0
 20 21  1  0
 20 22  1  0
M  CHG  1  22  -1
A    2
 C3 
A    3
 O1 
A    4
 N1 
A    5
 C5 
A    6
 C1 
A    7
 C6 
A    8
 C3 
A    9
 O1 
A   10
 C7 
A   11
 C8 
A   12
 N1 
A   13
 C5 
A   14
 C1 
A   15
 C3 
A   16
 O1 
A   18
 C5 
A   19
 C6 
A   20
 C13
A   21
 O4 
A   22
 O5 
M  END
>  <XChem_code>  (954) 
polymer

>  <Occupancy>  (954) 
[1.0, 1.0, 1.0, 1.0, 1.0, 1.0, 1.0, 1.0, 1.0, 1.0, 1.0, 1.0, 1.0, 1.0, 1.0, 1.0, 1.0, 1.0, 1.0, 1.0, 1.0, 1.0, 1.0, 1.0, 1.0, 1.0, 1.0, 1.0, 1.0, 1.0, 1.0, 1.0, 1.0, 1.0, 1.0, 1.0, 1.0, 1.0, 1.0, 1.0, 1.0, 1.0, 1.0, 1.0, 1.0, 1.0, 1.0, 1.0, 1.0, 1.0, 1.0, 1.0, 1.0, 1.0, 1.0, 1.0, 1.0, 1.0]

>  <TempFactor>  (954) 
[0.0, 0.0, 0.0, 0.0, 0.0, 0.0, 0.0, 0.0, 0.0, 0.0, 0.0, 0.0, 0.0, 0.0, 0.0, 0.0, 0.0, 0.0, 0.0, 0.0, 0.0, 0.0, 0.0, 0.0, 0.0, 0.0, 0.0, 0.0, 0.0, 0.0, 0.0, 0.0, 0.0, 0.0, 0.0, 0.0, 0.0, 0.0, 0.0, 0.0, 0.0, 0.0, 0.0, 0.0, 0.0, 0.0, 0.0, 0.0, 0.0, 0.0, 0.0, 0.0, 0.0, 0.0, 0.0, 0.0, 0.0, 0.0]

>  <base_name>  (954) 
2b0f

>  <lig_resn>  (954) 
None

>  <lig_resi>  (954) 
1

>  <lig_chain>  (954) 
B

>  <lig_segi>  (954) 


>  <lig_alt>  (954) 


>  <polymer_chain>  (954) 
A

>  <single_smiles>  (954) 
None

$$$$
polymerS64
     RDKit          3D

 33 33  0  0  0  0  0  0  0  0999 V2000
   -8.4470   11.8470  -34.2880 C   0  0  0  0  0  0  0  0  0  0  0  0
   -9.7190   12.5240  -34.7630 C   0  0  1  0  0  0  0  0  0  0  0  0
   -7.3750   12.4480  -34.3620 O   0  0  0  0  0  0  0  0  0  0  0  0
   -9.6030   13.9290  -34.4410 N   0  0  0  0  0  0  0  0  0  0  0  0
   -9.8560   12.2790  -36.2650 C   0  0  0  0  0  0  0  0  0  0  0  0
   -9.4760   14.3090  -33.1760 C   0  0  0  0  0  0  0  0  0  0  0  0
  -11.0400   12.9250  -36.9220 C   0  0  0  0  0  0  0  0  0  0  0  0
   -9.2690   15.7910  -32.9510 C   0  0  1  0  0  0  0  0  0  0  0  0
   -9.5290   13.5200  -32.2290 O   0  0  0  0  0  0  0  0  0  0  0  0
  -12.3100   12.8260  -36.3750 C   0  0  0  0  0  0  0  0  0  0  0  0
  -10.8770   13.6090  -38.1140 C   0  0  0  0  0  0  0  0  0  0  0  0
   -9.7350   16.2520  -31.6700 N   0  0  0  0  0  0  0  0  0  0  0  0
   -7.7900   16.0900  -33.0900 C   0  0  0  0  0  0  0  0  0  0  0  0
  -13.3920   13.4040  -37.0080 C   0  0  0  0  0  0  0  0  0  0  0  0
  -11.9550   14.1810  -38.7530 C   0  0  0  0  0  0  0  0  0  0  0  0
  -10.8520   16.9140  -31.5780 C   0  0  0  0  0  0  0  0  0  0  0  0
   -7.1690   15.4980  -34.3400 C   0  0  0  0  0  0  0  0  0  0  0  0
  -13.2150   14.0820  -38.2020 C   0  0  0  0  0  0  0  0  0  0  0  0
  -11.2320   17.4190  -30.2140 C   0  0  1  0  0  0  0  0  0  0  0  0
  -11.5590   17.1540  -32.5510 O   0  0  0  0  0  0  0  0  0  0  0  0
   -7.6760   16.2470  -35.5700 C   0  0  0  0  0  0  0  0  0  0  0  0
   -5.6520   15.5520  -34.2470 C   0  0  0  0  0  0  0  0  0  0  0  0
  -11.9720   18.6270  -30.4030 N   0  0  0  0  0  0  0  0  0  0  0  0
  -12.0320   16.4040  -29.4200 C   0  0  0  0  0  0  0  0  0  0  0  0
  -11.3450   19.7670  -30.6210 C   0  0  1  0  0  0  0  0  0  0  0  0
  -12.2360   20.9510  -30.8060 C   0  0  1  0  0  0  0  0  0  0  0  0
  -10.1190   19.8830  -30.5960 O   0  0  0  0  0  0  0  0  0  0  0  0
  -12.5790   21.3540  -29.4810 N   0  0  0  0  0  0  0  0  0  0  0  0
  -11.5450   22.0000  -31.6560 C   0  0  0  0  0  0  0  0  0  0  0  0
  -11.2540   21.4640  -33.0520 C   0  0  0  0  0  0  0  0  0  0  0  0
  -10.4830   22.4400  -33.9180 C   0  0  0  0  0  0  0  0  0  0  0  0
  -11.1230   23.2880  -34.5660 O   0  0  0  0  0  0  0  0  0  0  0  0
   -9.2440   22.3600  -33.9420 O   0  0  0  0  0  0  0  0  0  0  0  0
  2  1  1  6
  1  3  1  0
  4  2  1  0
  2  5  1  0
  4  6  1  0
  5  7  1  0
  8  6  1  0
  6  9  1  0
  7 10  1  0
  7 11  1  0
 12  8  1  0
  8 13  1  1
 10 14  1  0
 11 15  1  0
 12 16  1  0
 13 17  1  0
 14 18  1  0
 15 18  1  0
 19 16  1  0
 16 20  1  0
 17 21  1  0
 17 22  1  0
 23 19  1  0
 19 24  1  6
 23 25  1  0
 26 25  1  0
 25 27  1  1
 26 28  1  1
 26 29  1  0
 29 30  1  0
 30 31  1  0
 31 32  1  0
 31 33  1  0
M  CHG  1  33  -1
A    2
 C3 
A    3
 O1 
A    4
 N1 
A    5
 C5 
A    6
 C1 
A    7
 C6 
A    8
 C3 
A    9
 O1 
A   10
 C7 
A   11
 C8 
A   12
 N1 
A   13
 C5 
A   14
 C29
A   15
 C30
A   16
 C1 
A   17
 C6 
A   18
 C31
A   19
 C3 
A   20
 O1 
A   21
 C7 
A   22
 C8 
A   23
 N1 
A   24
 C5 
A   25
 C1 
A   26
 C3 
A   27
 O1 
A   29
 C5 
A   30
 C6 
A   31
 C13
A   32
 O4 
A   33
 O5 
M  END
>  <XChem_code>  (955) 
polymer

>  <Occupancy>  (955) 
[1.0, 1.0, 1.0, 1.0, 1.0, 1.0, 1.0, 1.0, 1.0, 1.0, 1.0, 1.0, 1.0, 1.0, 1.0, 1.0, 1.0, 1.0, 1.0, 1.0, 1.0, 1.0, 1.0, 1.0, 1.0, 1.0, 1.0, 1.0, 1.0, 1.0, 1.0, 1.0, 1.0, 1.0, 1.0, 1.0, 1.0, 1.0, 1.0, 1.0, 1.0, 1.0, 1.0, 1.0, 1.0, 1.0, 1.0, 1.0, 1.0, 1.0, 1.0, 1.0, 1.0, 1.0, 1.0, 1.0, 1.0, 1.0]

>  <TempFactor>  (955) 
[0.0, 0.0, 0.0, 0.0, 0.0, 0.0, 0.0, 0.0, 0.0, 0.0, 0.0, 0.0, 0.0, 0.0, 0.0, 0.0, 0.0, 0.0, 0.0, 0.0, 0.0, 0.0, 0.0, 0.0, 0.0, 0.0, 0.0, 0.0, 0.0, 0.0, 0.0, 0.0, 0.0, 0.0, 0.0, 0.0, 0.0, 0.0, 0.0, 0.0, 0.0, 0.0, 0.0, 0.0, 0.0, 0.0, 0.0, 0.0, 0.0, 0.0, 0.0, 0.0, 0.0, 0.0, 0.0, 0.0, 0.0, 0.0]

>  <base_name>  (955) 
2b0f

>  <lig_resn>  (955) 
None

>  <lig_resi>  (955) 
1

>  <lig_chain>  (955) 
B

>  <lig_segi>  (955) 


>  <lig_alt>  (955) 


>  <polymer_chain>  (955) 
A

>  <single_smiles>  (955) 
None

$$$$
polymerS65
     RDKit          3D

  5  4  0  0  0  0  0  0  0  0999 V2000
  -10.8520   16.9140  -31.5780 C   0  0  0  0  0  0  0  0  0  0  0  0
  -11.2320   17.4190  -30.2140 C   0  0  1  0  0  0  0  0  0  0  0  0
  -11.5590   17.1540  -32.5510 O   0  0  0  0  0  0  0  0  0  0  0  0
  -11.9720   18.6270  -30.4030 N   0  0  0  0  0  0  0  0  0  0  0  0
  -12.0320   16.4040  -29.4200 C   0  0  0  0  0  0  0  0  0  0  0  0
  2  1  1  0
  1  3  1  0
  4  2  1  0
  2  5  1  6
A    2
 C3 
A    3
 O1 
A    5
 C5 
M  END
>  <XChem_code>  (956) 
polymer

>  <Occupancy>  (956) 
[1.0, 1.0, 1.0, 1.0, 1.0, 1.0, 1.0, 1.0, 1.0, 1.0, 1.0, 1.0, 1.0, 1.0, 1.0, 1.0, 1.0, 1.0, 1.0, 1.0, 1.0, 1.0, 1.0, 1.0, 1.0, 1.0, 1.0, 1.0, 1.0, 1.0, 1.0, 1.0, 1.0, 1.0, 1.0, 1.0, 1.0, 1.0, 1.0, 1.0, 1.0, 1.0, 1.0, 1.0, 1.0, 1.0, 1.0, 1.0, 1.0, 1.0, 1.0, 1.0, 1.0, 1.0, 1.0, 1.0, 1.0, 1.0]

>  <TempFactor>  (956) 
[0.0, 0.0, 0.0, 0.0, 0.0, 0.0, 0.0, 0.0, 0.0, 0.0, 0.0, 0.0, 0.0, 0.0, 0.0, 0.0, 0.0, 0.0, 0.0, 0.0, 0.0, 0.0, 0.0, 0.0, 0.0, 0.0, 0.0, 0.0, 0.0, 0.0, 0.0, 0.0, 0.0, 0.0, 0.0, 0.0, 0.0, 0.0, 0.0, 0.0, 0.0, 0.0, 0.0, 0.0, 0.0, 0.0, 0.0, 0.0, 0.0, 0.0, 0.0, 0.0, 0.0, 0.0, 0.0, 0.0, 0.0, 0.0]

>  <base_name>  (956) 
2b0f

>  <lig_resn>  (956) 
None

>  <lig_resi>  (956) 
1

>  <lig_chain>  (956) 
B

>  <lig_segi>  (956) 


>  <lig_alt>  (956) 


>  <polymer_chain>  (956) 
A

>  <single_smiles>  (956) 
None

$$$$
polymerS66
     RDKit          3D

 13 12  0  0  0  0  0  0  0  0999 V2000
   -9.4760   14.3090  -33.1760 C   0  0  0  0  0  0  0  0  0  0  0  0
   -9.2690   15.7910  -32.9510 C   0  0  1  0  0  0  0  0  0  0  0  0
   -9.5290   13.5200  -32.2290 O   0  0  0  0  0  0  0  0  0  0  0  0
   -9.7350   16.2520  -31.6700 N   0  0  0  0  0  0  0  0  0  0  0  0
   -7.7900   16.0900  -33.0900 C   0  0  0  0  0  0  0  0  0  0  0  0
  -10.8520   16.9140  -31.5780 C   0  0  0  0  0  0  0  0  0  0  0  0
   -7.1690   15.4980  -34.3400 C   0  0  0  0  0  0  0  0  0  0  0  0
  -11.2320   17.4190  -30.2140 C   0  0  1  0  0  0  0  0  0  0  0  0
  -11.5590   17.1540  -32.5510 O   0  0  0  0  0  0  0  0  0  0  0  0
   -7.6760   16.2470  -35.5700 C   0  0  0  0  0  0  0  0  0  0  0  0
   -5.6520   15.5520  -34.2470 C   0  0  0  0  0  0  0  0  0  0  0  0
  -11.9720   18.6270  -30.4030 N   0  0  0  0  0  0  0  0  0  0  0  0
  -12.0320   16.4040  -29.4200 C   0  0  0  0  0  0  0  0  0  0  0  0
  2  1  1  1
  1  3  1  0
  4  2  1  0
  2  5  1  0
  4  6  1  0
  5  7  1  0
  8  6  1  0
  6  9  1  0
  7 10  1  0
  7 11  1  0
 12  8  1  0
  8 13  1  6
A    2
 C3 
A    3
 O1 
A    4
 N1 
A    5
 C5 
A    6
 C1 
A    7
 C6 
A    8
 C3 
A    9
 O1 
A   10
 C7 
A   11
 C8 
A   13
 C5 
M  END
>  <XChem_code>  (957) 
polymer

>  <Occupancy>  (957) 
[1.0, 1.0, 1.0, 1.0, 1.0, 1.0, 1.0, 1.0, 1.0, 1.0, 1.0, 1.0, 1.0, 1.0, 1.0, 1.0, 1.0, 1.0, 1.0, 1.0, 1.0, 1.0, 1.0, 1.0, 1.0, 1.0, 1.0, 1.0, 1.0, 1.0, 1.0, 1.0, 1.0, 1.0, 1.0, 1.0, 1.0, 1.0, 1.0, 1.0, 1.0, 1.0, 1.0, 1.0, 1.0, 1.0, 1.0, 1.0, 1.0, 1.0, 1.0, 1.0, 1.0, 1.0, 1.0, 1.0, 1.0, 1.0]

>  <TempFactor>  (957) 
[0.0, 0.0, 0.0, 0.0, 0.0, 0.0, 0.0, 0.0, 0.0, 0.0, 0.0, 0.0, 0.0, 0.0, 0.0, 0.0, 0.0, 0.0, 0.0, 0.0, 0.0, 0.0, 0.0, 0.0, 0.0, 0.0, 0.0, 0.0, 0.0, 0.0, 0.0, 0.0, 0.0, 0.0, 0.0, 0.0, 0.0, 0.0, 0.0, 0.0, 0.0, 0.0, 0.0, 0.0, 0.0, 0.0, 0.0, 0.0, 0.0, 0.0, 0.0, 0.0, 0.0, 0.0, 0.0, 0.0, 0.0, 0.0]

>  <base_name>  (957) 
2b0f

>  <lig_resn>  (957) 
None

>  <lig_resi>  (957) 
1

>  <lig_chain>  (957) 
B

>  <lig_segi>  (957) 


>  <lig_alt>  (957) 


>  <polymer_chain>  (957) 
A

>  <single_smiles>  (957) 
None

$$$$
polymerS67
     RDKit          3D

 24 24  0  0  0  0  0  0  0  0999 V2000
   -8.4470   11.8470  -34.2880 C   0  0  0  0  0  0  0  0  0  0  0  0
   -9.7190   12.5240  -34.7630 C   0  0  1  0  0  0  0  0  0  0  0  0
   -7.3750   12.4480  -34.3620 O   0  0  0  0  0  0  0  0  0  0  0  0
   -9.6030   13.9290  -34.4410 N   0  0  0  0  0  0  0  0  0  0  0  0
   -9.8560   12.2790  -36.2650 C   0  0  0  0  0  0  0  0  0  0  0  0
   -9.4760   14.3090  -33.1760 C   0  0  0  0  0  0  0  0  0  0  0  0
  -11.0400   12.9250  -36.9220 C   0  0  0  0  0  0  0  0  0  0  0  0
   -9.2690   15.7910  -32.9510 C   0  0  1  0  0  0  0  0  0  0  0  0
   -9.5290   13.5200  -32.2290 O   0  0  0  0  0  0  0  0  0  0  0  0
  -12.3100   12.8260  -36.3750 C   0  0  0  0  0  0  0  0  0  0  0  0
  -10.8770   13.6090  -38.1140 C   0  0  0  0  0  0  0  0  0  0  0  0
   -9.7350   16.2520  -31.6700 N   0  0  0  0  0  0  0  0  0  0  0  0
   -7.7900   16.0900  -33.0900 C   0  0  0  0  0  0  0  0  0  0  0  0
  -13.3920   13.4040  -37.0080 C   0  0  0  0  0  0  0  0  0  0  0  0
  -11.9550   14.1810  -38.7530 C   0  0  0  0  0  0  0  0  0  0  0  0
  -10.8520   16.9140  -31.5780 C   0  0  0  0  0  0  0  0  0  0  0  0
   -7.1690   15.4980  -34.3400 C   0  0  0  0  0  0  0  0  0  0  0  0
  -13.2150   14.0820  -38.2020 C   0  0  0  0  0  0  0  0  0  0  0  0
  -11.2320   17.4190  -30.2140 C   0  0  1  0  0  0  0  0  0  0  0  0
  -11.5590   17.1540  -32.5510 O   0  0  0  0  0  0  0  0  0  0  0  0
   -7.6760   16.2470  -35.5700 C   0  0  0  0  0  0  0  0  0  0  0  0
   -5.6520   15.5520  -34.2470 C   0  0  0  0  0  0  0  0  0  0  0  0
  -11.9720   18.6270  -30.4030 N   0  0  0  0  0  0  0  0  0  0  0  0
  -12.0320   16.4040  -29.4200 C   0  0  0  0  0  0  0  0  0  0  0  0
  2  1  1  6
  1  3  1  0
  4  2  1  0
  2  5  1  0
  4  6  1  0
  5  7  1  0
  8  6  1  0
  6  9  1  0
  7 10  1  0
  7 11  1  0
 12  8  1  0
  8 13  1  1
 10 14  1  0
 11 15  1  0
 12 16  1  0
 13 17  1  0
 14 18  1  0
 15 18  1  0
 19 16  1  0
 16 20  1  0
 17 21  1  0
 17 22  1  0
 23 19  1  0
 19 24  1  6
A    2
 C3 
A    3
 O1 
A    4
 N1 
A    5
 C5 
A    6
 C1 
A    7
 C6 
A    8
 C3 
A    9
 O1 
A   10
 C7 
A   11
 C8 
A   12
 N1 
A   13
 C5 
A   14
 C29
A   15
 C30
A   16
 C1 
A   17
 C6 
A   18
 C31
A   19
 C3 
A   20
 O1 
A   21
 C7 
A   22
 C8 
A   24
 C5 
M  END
>  <XChem_code>  (958) 
polymer

>  <Occupancy>  (958) 
[1.0, 1.0, 1.0, 1.0, 1.0, 1.0, 1.0, 1.0, 1.0, 1.0, 1.0, 1.0, 1.0, 1.0, 1.0, 1.0, 1.0, 1.0, 1.0, 1.0, 1.0, 1.0, 1.0, 1.0, 1.0, 1.0, 1.0, 1.0, 1.0, 1.0, 1.0, 1.0, 1.0, 1.0, 1.0, 1.0, 1.0, 1.0, 1.0, 1.0, 1.0, 1.0, 1.0, 1.0, 1.0, 1.0, 1.0, 1.0, 1.0, 1.0, 1.0, 1.0, 1.0, 1.0, 1.0, 1.0, 1.0, 1.0]

>  <TempFactor>  (958) 
[0.0, 0.0, 0.0, 0.0, 0.0, 0.0, 0.0, 0.0, 0.0, 0.0, 0.0, 0.0, 0.0, 0.0, 0.0, 0.0, 0.0, 0.0, 0.0, 0.0, 0.0, 0.0, 0.0, 0.0, 0.0, 0.0, 0.0, 0.0, 0.0, 0.0, 0.0, 0.0, 0.0, 0.0, 0.0, 0.0, 0.0, 0.0, 0.0, 0.0, 0.0, 0.0, 0.0, 0.0, 0.0, 0.0, 0.0, 0.0, 0.0, 0.0, 0.0, 0.0, 0.0, 0.0, 0.0, 0.0, 0.0, 0.0]

>  <base_name>  (958) 
2b0f

>  <lig_resn>  (958) 
None

>  <lig_resi>  (958) 
1

>  <lig_chain>  (958) 
B

>  <lig_segi>  (958) 


>  <lig_alt>  (958) 


>  <polymer_chain>  (958) 
A

>  <single_smiles>  (958) 
None

$$$$
polymerS68
     RDKit          3D

  8  7  0  0  0  0  0  0  0  0999 V2000
   -9.4760   14.3090  -33.1760 C   0  0  0  0  0  0  0  0  0  0  0  0
   -9.2690   15.7910  -32.9510 C   0  0  1  0  0  0  0  0  0  0  0  0
   -9.5290   13.5200  -32.2290 O   0  0  0  0  0  0  0  0  0  0  0  0
   -9.7350   16.2520  -31.6700 N   0  0  0  0  0  0  0  0  0  0  0  0
   -7.7900   16.0900  -33.0900 C   0  0  0  0  0  0  0  0  0  0  0  0
   -7.1690   15.4980  -34.3400 C   0  0  0  0  0  0  0  0  0  0  0  0
   -7.6760   16.2470  -35.5700 C   0  0  0  0  0  0  0  0  0  0  0  0
   -5.6520   15.5520  -34.2470 C   0  0  0  0  0  0  0  0  0  0  0  0
  2  1  1  0
  1  3  1  0
  2  4  1  1
  2  5  1  0
  5  6  1  0
  6  7  1  0
  6  8  1  0
A    2
 C3 
A    3
 O1 
A    5
 C5 
A    6
 C6 
A    7
 C7 
A    8
 C8 
M  END
>  <XChem_code>  (959) 
polymer

>  <Occupancy>  (959) 
[1.0, 1.0, 1.0, 1.0, 1.0, 1.0, 1.0, 1.0, 1.0, 1.0, 1.0, 1.0, 1.0, 1.0, 1.0, 1.0, 1.0, 1.0, 1.0, 1.0, 1.0, 1.0, 1.0, 1.0, 1.0, 1.0, 1.0, 1.0, 1.0, 1.0, 1.0, 1.0, 1.0, 1.0, 1.0, 1.0, 1.0, 1.0, 1.0, 1.0, 1.0, 1.0, 1.0, 1.0, 1.0, 1.0, 1.0, 1.0, 1.0, 1.0, 1.0, 1.0, 1.0, 1.0, 1.0, 1.0, 1.0, 1.0]

>  <TempFactor>  (959) 
[0.0, 0.0, 0.0, 0.0, 0.0, 0.0, 0.0, 0.0, 0.0, 0.0, 0.0, 0.0, 0.0, 0.0, 0.0, 0.0, 0.0, 0.0, 0.0, 0.0, 0.0, 0.0, 0.0, 0.0, 0.0, 0.0, 0.0, 0.0, 0.0, 0.0, 0.0, 0.0, 0.0, 0.0, 0.0, 0.0, 0.0, 0.0, 0.0, 0.0, 0.0, 0.0, 0.0, 0.0, 0.0, 0.0, 0.0, 0.0, 0.0, 0.0, 0.0, 0.0, 0.0, 0.0, 0.0, 0.0, 0.0, 0.0]

>  <base_name>  (959) 
2b0f

>  <lig_resn>  (959) 
None

>  <lig_resi>  (959) 
1

>  <lig_chain>  (959) 
B

>  <lig_segi>  (959) 


>  <lig_alt>  (959) 


>  <polymer_chain>  (959) 
A

>  <single_smiles>  (959) 
None

$$$$
polymerS69
     RDKit          3D

 19 19  0  0  0  0  0  0  0  0999 V2000
   -8.4470   11.8470  -34.2880 C   0  0  0  0  0  0  0  0  0  0  0  0
   -9.7190   12.5240  -34.7630 C   0  0  1  0  0  0  0  0  0  0  0  0
   -7.3750   12.4480  -34.3620 O   0  0  0  0  0  0  0  0  0  0  0  0
   -9.6030   13.9290  -34.4410 N   0  0  0  0  0  0  0  0  0  0  0  0
   -9.8560   12.2790  -36.2650 C   0  0  0  0  0  0  0  0  0  0  0  0
   -9.4760   14.3090  -33.1760 C   0  0  0  0  0  0  0  0  0  0  0  0
  -11.0400   12.9250  -36.9220 C   0  0  0  0  0  0  0  0  0  0  0  0
   -9.2690   15.7910  -32.9510 C   0  0  1  0  0  0  0  0  0  0  0  0
   -9.5290   13.5200  -32.2290 O   0  0  0  0  0  0  0  0  0  0  0  0
  -12.3100   12.8260  -36.3750 C   0  0  0  0  0  0  0  0  0  0  0  0
  -10.8770   13.6090  -38.1140 C   0  0  0  0  0  0  0  0  0  0  0  0
   -9.7350   16.2520  -31.6700 N   0  0  0  0  0  0  0  0  0  0  0  0
   -7.7900   16.0900  -33.0900 C   0  0  0  0  0  0  0  0  0  0  0  0
  -13.3920   13.4040  -37.0080 C   0  0  0  0  0  0  0  0  0  0  0  0
  -11.9550   14.1810  -38.7530 C   0  0  0  0  0  0  0  0  0  0  0  0
   -7.1690   15.4980  -34.3400 C   0  0  0  0  0  0  0  0  0  0  0  0
  -13.2150   14.0820  -38.2020 C   0  0  0  0  0  0  0  0  0  0  0  0
   -7.6760   16.2470  -35.5700 C   0  0  0  0  0  0  0  0  0  0  0  0
   -5.6520   15.5520  -34.2470 C   0  0  0  0  0  0  0  0  0  0  0  0
  2  1  1  6
  1  3  1  0
  4  2  1  0
  2  5  1  0
  4  6  1  0
  5  7  1  0
  8  6  1  0
  6  9  1  0
  7 10  1  0
  7 11  1  0
  8 12  1  1
  8 13  1  0
 10 14  1  0
 11 15  1  0
 13 16  1  0
 14 17  1  0
 15 17  1  0
 16 18  1  0
 16 19  1  0
A    2
 C3 
A    3
 O1 
A    4
 N1 
A    5
 C5 
A    6
 C1 
A    7
 C6 
A    8
 C3 
A    9
 O1 
A   10
 C7 
A   11
 C8 
A   13
 C5 
A   14
 C29
A   15
 C30
A   16
 C6 
A   17
 C31
A   18
 C7 
A   19
 C8 
M  END
>  <XChem_code>  (960) 
polymer

>  <Occupancy>  (960) 
[1.0, 1.0, 1.0, 1.0, 1.0, 1.0, 1.0, 1.0, 1.0, 1.0, 1.0, 1.0, 1.0, 1.0, 1.0, 1.0, 1.0, 1.0, 1.0, 1.0, 1.0, 1.0, 1.0, 1.0, 1.0, 1.0, 1.0, 1.0, 1.0, 1.0, 1.0, 1.0, 1.0, 1.0, 1.0, 1.0, 1.0, 1.0, 1.0, 1.0, 1.0, 1.0, 1.0, 1.0, 1.0, 1.0, 1.0, 1.0, 1.0, 1.0, 1.0, 1.0, 1.0, 1.0, 1.0, 1.0, 1.0, 1.0]

>  <TempFactor>  (960) 
[0.0, 0.0, 0.0, 0.0, 0.0, 0.0, 0.0, 0.0, 0.0, 0.0, 0.0, 0.0, 0.0, 0.0, 0.0, 0.0, 0.0, 0.0, 0.0, 0.0, 0.0, 0.0, 0.0, 0.0, 0.0, 0.0, 0.0, 0.0, 0.0, 0.0, 0.0, 0.0, 0.0, 0.0, 0.0, 0.0, 0.0, 0.0, 0.0, 0.0, 0.0, 0.0, 0.0, 0.0, 0.0, 0.0, 0.0, 0.0, 0.0, 0.0, 0.0, 0.0, 0.0, 0.0, 0.0, 0.0, 0.0, 0.0]

>  <base_name>  (960) 
2b0f

>  <lig_resn>  (960) 
None

>  <lig_resi>  (960) 
1

>  <lig_chain>  (960) 
B

>  <lig_segi>  (960) 


>  <lig_alt>  (960) 


>  <polymer_chain>  (960) 
A

>  <single_smiles>  (960) 
None

$$$$
polymerS70
     RDKit          3D

 11 11  0  0  0  0  0  0  0  0999 V2000
   -8.4470   11.8470  -34.2880 C   0  0  0  0  0  0  0  0  0  0  0  0
   -9.7190   12.5240  -34.7630 C   0  0  1  0  0  0  0  0  0  0  0  0
   -7.3750   12.4480  -34.3620 O   0  0  0  0  0  0  0  0  0  0  0  0
   -9.6030   13.9290  -34.4410 N   0  0  0  0  0  0  0  0  0  0  0  0
   -9.8560   12.2790  -36.2650 C   0  0  0  0  0  0  0  0  0  0  0  0
  -11.0400   12.9250  -36.9220 C   0  0  0  0  0  0  0  0  0  0  0  0
  -12.3100   12.8260  -36.3750 C   0  0  0  0  0  0  0  0  0  0  0  0
  -10.8770   13.6090  -38.1140 C   0  0  0  0  0  0  0  0  0  0  0  0
  -13.3920   13.4040  -37.0080 C   0  0  0  0  0  0  0  0  0  0  0  0
  -11.9550   14.1810  -38.7530 C   0  0  0  0  0  0  0  0  0  0  0  0
  -13.2150   14.0820  -38.2020 C   0  0  0  0  0  0  0  0  0  0  0  0
  2  1  1  0
  1  3  1  0
  2  4  1  6
  2  5  1  0
  5  6  1  0
  6  7  1  0
  6  8  1  0
  7  9  1  0
  8 10  1  0
  9 11  1  0
 10 11  1  0
A    2
 C3 
A    3
 O1 
A    5
 C5 
A    6
 C6 
A    7
 C7 
A    8
 C8 
A    9
 C29
A   10
 C30
A   11
 C31
M  END
>  <XChem_code>  (961) 
polymer

>  <Occupancy>  (961) 
[1.0, 1.0, 1.0, 1.0, 1.0, 1.0, 1.0, 1.0, 1.0, 1.0, 1.0, 1.0, 1.0, 1.0, 1.0, 1.0, 1.0, 1.0, 1.0, 1.0, 1.0, 1.0, 1.0, 1.0, 1.0, 1.0, 1.0, 1.0, 1.0, 1.0, 1.0, 1.0, 1.0, 1.0, 1.0, 1.0, 1.0, 1.0, 1.0, 1.0, 1.0, 1.0, 1.0, 1.0, 1.0, 1.0, 1.0, 1.0, 1.0, 1.0, 1.0, 1.0, 1.0, 1.0, 1.0, 1.0, 1.0, 1.0]

>  <TempFactor>  (961) 
[0.0, 0.0, 0.0, 0.0, 0.0, 0.0, 0.0, 0.0, 0.0, 0.0, 0.0, 0.0, 0.0, 0.0, 0.0, 0.0, 0.0, 0.0, 0.0, 0.0, 0.0, 0.0, 0.0, 0.0, 0.0, 0.0, 0.0, 0.0, 0.0, 0.0, 0.0, 0.0, 0.0, 0.0, 0.0, 0.0, 0.0, 0.0, 0.0, 0.0, 0.0, 0.0, 0.0, 0.0, 0.0, 0.0, 0.0, 0.0, 0.0, 0.0, 0.0, 0.0, 0.0, 0.0, 0.0, 0.0, 0.0, 0.0]

>  <base_name>  (961) 
2b0f

>  <lig_resn>  (961) 
None

>  <lig_resi>  (961) 
1

>  <lig_chain>  (961) 
B

>  <lig_segi>  (961) 


>  <lig_alt>  (961) 


>  <polymer_chain>  (961) 
A

>  <single_smiles>  (961) 
None

$$$$
polymerS71
     RDKit          3D

  6  6  0  0  0  0  0  0  0  0999 V2000
  -11.0400   12.9250  -36.9220 C   0  0  0  0  0  0  0  0  0  0  0  0
  -12.3100   12.8260  -36.3750 C   0  0  0  0  0  0  0  0  0  0  0  0
  -10.8770   13.6090  -38.1140 C   0  0  0  0  0  0  0  0  0  0  0  0
  -13.3920   13.4040  -37.0080 C   0  0  0  0  0  0  0  0  0  0  0  0
  -11.9550   14.1810  -38.7530 C   0  0  0  0  0  0  0  0  0  0  0  0
  -13.2150   14.0820  -38.2020 C   0  0  0  0  0  0  0  0  0  0  0  0
  1  2  1  0
  1  3  1  0
  2  4  1  0
  3  5  1  0
  4  6  1  0
  5  6  1  0
A    2
 C7 
A    3
 C8 
A    4
 C29
A    5
 C30
A    6
 C31
M  END
>  <XChem_code>  (962) 
polymer

>  <Occupancy>  (962) 
[1.0, 1.0, 1.0, 1.0, 1.0, 1.0, 1.0, 1.0, 1.0, 1.0, 1.0, 1.0, 1.0, 1.0, 1.0, 1.0, 1.0, 1.0, 1.0, 1.0, 1.0, 1.0, 1.0, 1.0, 1.0, 1.0, 1.0, 1.0, 1.0, 1.0, 1.0, 1.0, 1.0, 1.0, 1.0, 1.0, 1.0, 1.0, 1.0, 1.0, 1.0, 1.0, 1.0, 1.0, 1.0, 1.0, 1.0, 1.0, 1.0, 1.0, 1.0, 1.0, 1.0, 1.0, 1.0, 1.0, 1.0, 1.0]

>  <TempFactor>  (962) 
[0.0, 0.0, 0.0, 0.0, 0.0, 0.0, 0.0, 0.0, 0.0, 0.0, 0.0, 0.0, 0.0, 0.0, 0.0, 0.0, 0.0, 0.0, 0.0, 0.0, 0.0, 0.0, 0.0, 0.0, 0.0, 0.0, 0.0, 0.0, 0.0, 0.0, 0.0, 0.0, 0.0, 0.0, 0.0, 0.0, 0.0, 0.0, 0.0, 0.0, 0.0, 0.0, 0.0, 0.0, 0.0, 0.0, 0.0, 0.0, 0.0, 0.0, 0.0, 0.0, 0.0, 0.0, 0.0, 0.0, 0.0, 0.0]

>  <base_name>  (962) 
2b0f

>  <lig_resn>  (962) 
None

>  <lig_resi>  (962) 
1

>  <lig_chain>  (962) 
B

>  <lig_segi>  (962) 


>  <lig_alt>  (962) 


>  <polymer_chain>  (962) 
A

>  <single_smiles>  (962) 
None

$$$$
polymerS72
     RDKit          3D

 52 51  0  0  0  0  0  0  0  0999 V2000
   -9.8560   12.2790  -36.2650 C   0  0  0  0  0  0  0  0  0  0  0  0
   -9.7190   12.5240  -34.7630 C   0  0  2  0  0  0  0  0  0  0  0  0
   -9.6030   13.9290  -34.4410 N   0  0  0  0  0  0  0  0  0  0  0  0
   -8.4470   11.8470  -34.2880 C   0  0  0  0  0  0  0  0  0  0  0  0
   -9.4760   14.3090  -33.1760 C   0  0  0  0  0  0  0  0  0  0  0  0
   -8.5240   10.6110  -33.8090 N   0  0  0  0  0  0  0  0  0  0  0  0
   -7.3750   12.4480  -34.3620 O   0  0  0  0  0  0  0  0  0  0  0  0
   -9.2690   15.7910  -32.9510 C   0  0  1  0  0  0  0  0  0  0  0  0
   -9.5290   13.5200  -32.2290 O   0  0  0  0  0  0  0  0  0  0  0  0
   -7.3190    9.9670  -33.3460 C   0  0  1  0  0  0  0  0  0  0  0  0
   -9.7350   16.2520  -31.6700 N   0  0  0  0  0  0  0  0  0  0  0  0
   -7.7900   16.0900  -33.0900 C   0  0  0  0  0  0  0  0  0  0  0  0
   -7.3310    9.8470  -31.8170 C   0  0  0  0  0  0  0  0  0  0  0  0
   -7.0030    8.6240  -34.0690 C   0  0  0  0  0  0  0  0  0  0  0  0
  -10.8520   16.9140  -31.5780 C   0  0  0  0  0  0  0  0  0  0  0  0
   -7.1690   15.4980  -34.3400 C   0  0  0  0  0  0  0  0  0  0  0  0
   -7.1160   11.1980  -31.1200 C   0  0  0  0  0  0  0  0  0  0  0  0
   -5.9970    8.9560  -35.1740 C   0  0  0  0  0  0  0  0  0  0  0  0
  -11.2320   17.4190  -30.2140 C   0  0  1  0  0  0  0  0  0  0  0  0
  -11.5590   17.1540  -32.5510 O   0  0  0  0  0  0  0  0  0  0  0  0
   -7.6760   16.2470  -35.5700 C   0  0  0  0  0  0  0  0  0  0  0  0
   -5.6520   15.5520  -34.2470 C   0  0  0  0  0  0  0  0  0  0  0  0
   -7.1690   11.1210  -29.6010 C   0  0  0  0  0  0  0  0  0  0  0  0
   -5.3280    7.7460  -35.7790 C   0  0  0  0  0  0  0  0  0  0  0  0
  -11.9720   18.6270  -30.4030 N   0  0  0  0  0  0  0  0  0  0  0  0
  -12.0320   16.4040  -29.4200 C   0  0  0  0  0  0  0  0  0  0  0  0
   -6.5930   12.1190  -28.9300 N   0  0  0  0  0  0  0  0  0  0  0  0
   -7.7330   10.1910  -29.0350 O   0  0  0  0  0  0  0  0  0  0  0  0
   -5.6140    6.6180  -35.3820 O   0  0  0  0  0  0  0  0  0  0  0  0
   -4.4850    7.9540  -36.6840 O   0  0  0  0  0  0  0  0  0  0  0  0
  -11.3450   19.7670  -30.6210 C   0  0  1  0  0  0  0  0  0  0  0  0
   -3.6950    6.8460  -37.4040 C   0  0  0  0  0  0  0  0  0  0  0  0
  -12.2360   20.9510  -30.8060 C   0  0  1  0  0  0  0  0  0  0  0  0
  -10.1190   19.8830  -30.5960 O   0  0  0  0  0  0  0  0  0  0  0  0
   -2.6800    7.1950  -38.4770 C   0  0  0  0  0  0  0  0  0  0  0  0
  -12.5790   21.3540  -29.4810 N   0  0  0  0  0  0  0  0  0  0  0  0
  -11.5450   22.0000  -31.6560 C   0  0  0  0  0  0  0  0  0  0  0  0
  -13.8200   21.2840  -29.0930 C   0  0  0  0  0  0  0  0  0  0  0  0
  -11.2540   21.4640  -33.0520 C   0  0  0  0  0  0  0  0  0  0  0  0
  -14.0680   21.5380  -27.6320 C   0  0  1  0  0  0  0  0  0  0  0  0
  -14.7460   21.0290  -29.8620 O   0  0  0  0  0  0  0  0  0  0  0  0
  -10.4830   22.4400  -33.9180 C   0  0  0  0  0  0  0  0  0  0  0  0
  -15.3620   22.1790  -27.4390 N   0  0  0  0  0  0  0  0  0  0  0  0
  -13.9740   20.1330  -27.0070 C   0  0  0  0  0  0  0  0  0  0  0  0
  -11.1230   23.2880  -34.5660 O   0  0  0  0  0  0  0  0  0  0  0  0
   -9.2440   22.3600  -33.9420 O   0  0  0  0  0  0  0  0  0  0  0  0
  -15.4630   23.2690  -26.7060 C   0  0  1  0  0  0  0  0  0  0  0  0
  -14.0270   19.9780  -25.4860 C   0  0  0  0  0  0  0  0  0  0  0  0
  -14.4890   23.9180  -26.3430 O   0  0  0  0  0  0  0  0  0  0  0  0
  -16.8540   23.8480  -26.6190 C   0  0  0  0  0  0  0  0  0  0  0  0
  -13.2440   21.0650  -24.7650 C   0  0  0  0  0  0  0  0  0  0  0  0
  -15.4650   19.9240  -25.0200 C   0  0  0  0  0  0  0  0  0  0  0  0
  2  1  1  6
  3  2  1  0
  2  4  1  0
  3  5  1  0
  6  4  1  0
  4  7  1  0
  8  5  1  0
  5  9  1  0
  6 10  1  0
 11  8  1  0
  8 12  1  1
 10 13  1  1
 10 14  1  0
 11 15  1  0
 12 16  1  0
 13 17  1  0
 14 18  1  0
 19 15  1  0
 15 20  1  0
 16 21  1  0
 16 22  1  0
 17 23  1  0
 18 24  1  0
 25 19  1  0
 19 26  1  6
 23 27  1  0
 23 28  1  0
 24 29  1  0
 24 30  1  0
 25 31  1  0
 32 30  1  0
 33 31  1  0
 31 34  1  1
 32 35  1  0
 36 33  1  0
 33 37  1  1
 36 38  1  0
 37 39  1  0
 40 38  1  0
 38 41  1  0
 39 42  1  0
 43 40  1  0
 40 44  1  1
 42 45  1  0
 42 46  1  0
 43 47  1  0
 44 48  1  0
 47 49  1  0
 47 50  1  6
 48 51  1  0
 48 52  1  0
M  CHG  1  46  -1
A    2
 C3 
A    3
 N1 
A    4
 C1 
A    5
 C1 
A    6
 N1 
A    7
 O1 
A    8
 C3 
A    9
 O1 
A   10
 C3 
A   11
 N1 
A   12
 C5 
A   13
 C5 
A   14
 C38
A   15
 C1 
A   16
 C6 
A   17
 C6 
A   18
 C39
A   19
 C3 
A   20
 O1 
A   21
 C7 
A   22
 C8 
A   23
 C13
A   24
 C40
A   25
 N1 
A   26
 C5 
A   27
 N7 
A   28
 O4 
A   29
 O10
A   30
 O11
A   31
 C1 
A   32
 C36
A   33
 C3 
A   34
 O1 
A   35
 C37
A   36
 N1 
A   37
 C5 
A   38
 C1 
A   39
 C6 
A   40
 C3 
A   41
 O1 
A   42
 C13
A   43
 N1 
A   44
 C5 
A   45
 O4 
A   46
 O5 
A   47
 C1 
A   48
 C6 
A   49
 O1 
A   50
 C2 
A   51
 C7 
A   52
 C8 
M  END
>  <XChem_code>  (963) 
polymer

>  <Occupancy>  (963) 
[1.0, 1.0, 1.0, 1.0, 1.0, 1.0, 1.0, 1.0, 1.0, 1.0, 1.0, 1.0, 1.0, 1.0, 1.0, 1.0, 1.0, 1.0, 1.0, 1.0, 1.0, 1.0, 1.0, 1.0, 1.0, 1.0, 1.0, 1.0, 1.0, 1.0, 1.0, 1.0, 1.0, 1.0, 1.0, 1.0, 1.0, 1.0, 1.0, 1.0, 1.0, 1.0, 1.0, 1.0, 1.0, 1.0, 1.0, 1.0, 1.0, 1.0, 1.0, 1.0, 1.0, 1.0, 1.0, 1.0, 1.0, 1.0]

>  <TempFactor>  (963) 
[0.0, 0.0, 0.0, 0.0, 0.0, 0.0, 0.0, 0.0, 0.0, 0.0, 0.0, 0.0, 0.0, 0.0, 0.0, 0.0, 0.0, 0.0, 0.0, 0.0, 0.0, 0.0, 0.0, 0.0, 0.0, 0.0, 0.0, 0.0, 0.0, 0.0, 0.0, 0.0, 0.0, 0.0, 0.0, 0.0, 0.0, 0.0, 0.0, 0.0, 0.0, 0.0, 0.0, 0.0, 0.0, 0.0, 0.0, 0.0, 0.0, 0.0, 0.0, 0.0, 0.0, 0.0, 0.0, 0.0, 0.0, 0.0]

>  <base_name>  (963) 
2b0f

>  <lig_resn>  (963) 
None

>  <lig_resi>  (963) 
1

>  <lig_chain>  (963) 
B

>  <lig_segi>  (963) 


>  <lig_alt>  (963) 


>  <polymer_chain>  (963) 
A

>  <single_smiles>  (963) 
None

$$$$
polymerS73
     RDKit          3D

 48 47  0  0  0  0  0  0  0  0999 V2000
   -9.8560   12.2790  -36.2650 C   0  0  0  0  0  0  0  0  0  0  0  0
   -9.7190   12.5240  -34.7630 C   0  0  2  0  0  0  0  0  0  0  0  0
   -9.6030   13.9290  -34.4410 N   0  0  0  0  0  0  0  0  0  0  0  0
   -8.4470   11.8470  -34.2880 C   0  0  0  0  0  0  0  0  0  0  0  0
   -9.4760   14.3090  -33.1760 C   0  0  0  0  0  0  0  0  0  0  0  0
   -8.5240   10.6110  -33.8090 N   0  0  0  0  0  0  0  0  0  0  0  0
   -7.3750   12.4480  -34.3620 O   0  0  0  0  0  0  0  0  0  0  0  0
   -9.2690   15.7910  -32.9510 C   0  0  1  0  0  0  0  0  0  0  0  0
   -9.5290   13.5200  -32.2290 O   0  0  0  0  0  0  0  0  0  0  0  0
   -7.3190    9.9670  -33.3460 C   0  0  1  0  0  0  0  0  0  0  0  0
   -9.7350   16.2520  -31.6700 N   0  0  0  0  0  0  0  0  0  0  0  0
   -7.7900   16.0900  -33.0900 C   0  0  0  0  0  0  0  0  0  0  0  0
   -7.3310    9.8470  -31.8170 C   0  0  0  0  0  0  0  0  0  0  0  0
   -7.0030    8.6240  -34.0690 C   0  0  0  0  0  0  0  0  0  0  0  0
  -10.8520   16.9140  -31.5780 C   0  0  0  0  0  0  0  0  0  0  0  0
   -7.1690   15.4980  -34.3400 C   0  0  0  0  0  0  0  0  0  0  0  0
   -7.1160   11.1980  -31.1200 C   0  0  0  0  0  0  0  0  0  0  0  0
   -5.9970    8.9560  -35.1740 C   0  0  0  0  0  0  0  0  0  0  0  0
  -11.2320   17.4190  -30.2140 C   0  0  1  0  0  0  0  0  0  0  0  0
  -11.5590   17.1540  -32.5510 O   0  0  0  0  0  0  0  0  0  0  0  0
   -7.6760   16.2470  -35.5700 C   0  0  0  0  0  0  0  0  0  0  0  0
   -5.6520   15.5520  -34.2470 C   0  0  0  0  0  0  0  0  0  0  0  0
   -7.1690   11.1210  -29.6010 C   0  0  0  0  0  0  0  0  0  0  0  0
   -5.3280    7.7460  -35.7790 C   0  0  0  0  0  0  0  0  0  0  0  0
  -11.9720   18.6270  -30.4030 N   0  0  0  0  0  0  0  0  0  0  0  0
  -12.0320   16.4040  -29.4200 C   0  0  0  0  0  0  0  0  0  0  0  0
   -6.5930   12.1190  -28.9300 N   0  0  0  0  0  0  0  0  0  0  0  0
   -7.7330   10.1910  -29.0350 O   0  0  0  0  0  0  0  0  0  0  0  0
   -5.6140    6.6180  -35.3820 O   0  0  0  0  0  0  0  0  0  0  0  0
   -4.4850    7.9540  -36.6840 O   0  0  0  0  0  0  0  0  0  0  0  0
  -11.3450   19.7670  -30.6210 C   0  0  1  0  0  0  0  0  0  0  0  0
   -3.6950    6.8460  -37.4040 C   0  0  0  0  0  0  0  0  0  0  0  0
  -12.2360   20.9510  -30.8060 C   0  0  1  0  0  0  0  0  0  0  0  0
  -10.1190   19.8830  -30.5960 O   0  0  0  0  0  0  0  0  0  0  0  0
   -2.6800    7.1950  -38.4770 C   0  0  0  0  0  0  0  0  0  0  0  0
  -12.5790   21.3540  -29.4810 N   0  0  0  0  0  0  0  0  0  0  0  0
  -11.5450   22.0000  -31.6560 C   0  0  0  0  0  0  0  0  0  0  0  0
  -13.8200   21.2840  -29.0930 C   0  0  0  0  0  0  0  0  0  0  0  0
  -11.2540   21.4640  -33.0520 C   0  0  0  0  0  0  0  0  0  0  0  0
  -14.0680   21.5380  -27.6320 C   0  0  0  0  0  0  0  0  0  0  0  0
  -14.7460   21.0290  -29.8620 O   0  0  0  0  0  0  0  0  0  0  0  0
  -10.4830   22.4400  -33.9180 C   0  0  0  0  0  0  0  0  0  0  0  0
  -13.9740   20.1330  -27.0070 C   0  0  0  0  0  0  0  0  0  0  0  0
  -11.1230   23.2880  -34.5660 O   0  0  0  0  0  0  0  0  0  0  0  0
   -9.2440   22.3600  -33.9420 O   0  0  0  0  0  0  0  0  0  0  0  0
  -14.0270   19.9780  -25.4860 C   0  0  0  0  0  0  0  0  0  0  0  0
  -13.2440   21.0650  -24.7650 C   0  0  0  0  0  0  0  0  0  0  0  0
  -15.4650   19.9240  -25.0200 C   0  0  0  0  0  0  0  0  0  0  0  0
  2  1  1  6
  3  2  1  0
  2  4  1  0
  3  5  1  0
  6  4  1  0
  4  7  1  0
  8  5  1  0
  5  9  1  0
  6 10  1  0
 11  8  1  0
  8 12  1  1
 10 13  1  1
 10 14  1  0
 11 15  1  0
 12 16  1  0
 13 17  1  0
 14 18  1  0
 19 15  1  0
 15 20  1  0
 16 21  1  0
 16 22  1  0
 17 23  1  0
 18 24  1  0
 25 19  1  0
 19 26  1  6
 23 27  1  0
 23 28  1  0
 24 29  1  0
 24 30  1  0
 25 31  1  0
 32 30  1  0
 33 31  1  0
 31 34  1  1
 32 35  1  0
 36 33  1  0
 33 37  1  1
 36 38  1  0
 37 39  1  0
 40 38  1  0
 38 41  1  0
 39 42  1  0
 40 43  1  6
 42 44  1  0
 42 45  1  0
 43 46  1  0
 46 47  1  0
 46 48  1  0
M  CHG  1  45  -1
A    2
 C3 
A    3
 N1 
A    4
 C1 
A    5
 C1 
A    6
 N1 
A    7
 O1 
A    8
 C3 
A    9
 O1 
A   10
 C3 
A   11
 N1 
A   12
 C5 
A   13
 C5 
A   14
 C38
A   15
 C1 
A   16
 C6 
A   17
 C6 
A   18
 C39
A   19
 C3 
A   20
 O1 
A   21
 C7 
A   22
 C8 
A   23
 C13
A   24
 C40
A   25
 N1 
A   26
 C5 
A   27
 N7 
A   28
 O4 
A   29
 O10
A   30
 O11
A   31
 C1 
A   32
 C36
A   33
 C3 
A   34
 O1 
A   35
 C37
A   36
 N1 
A   37
 C5 
A   38
 C1 
A   39
 C6 
A   41
 O1 
A   42
 C13
A   43
 C5 
A   44
 O4 
A   45
 O5 
A   46
 C6 
A   47
 C7 
A   48
 C8 
M  END
>  <XChem_code>  (964) 
polymer

>  <Occupancy>  (964) 
[1.0, 1.0, 1.0, 1.0, 1.0, 1.0, 1.0, 1.0, 1.0, 1.0, 1.0, 1.0, 1.0, 1.0, 1.0, 1.0, 1.0, 1.0, 1.0, 1.0, 1.0, 1.0, 1.0, 1.0, 1.0, 1.0, 1.0, 1.0, 1.0, 1.0, 1.0, 1.0, 1.0, 1.0, 1.0, 1.0, 1.0, 1.0, 1.0, 1.0, 1.0, 1.0, 1.0, 1.0, 1.0, 1.0, 1.0, 1.0, 1.0, 1.0, 1.0, 1.0, 1.0, 1.0, 1.0, 1.0, 1.0, 1.0]

>  <TempFactor>  (964) 
[0.0, 0.0, 0.0, 0.0, 0.0, 0.0, 0.0, 0.0, 0.0, 0.0, 0.0, 0.0, 0.0, 0.0, 0.0, 0.0, 0.0, 0.0, 0.0, 0.0, 0.0, 0.0, 0.0, 0.0, 0.0, 0.0, 0.0, 0.0, 0.0, 0.0, 0.0, 0.0, 0.0, 0.0, 0.0, 0.0, 0.0, 0.0, 0.0, 0.0, 0.0, 0.0, 0.0, 0.0, 0.0, 0.0, 0.0, 0.0, 0.0, 0.0, 0.0, 0.0, 0.0, 0.0, 0.0, 0.0, 0.0, 0.0]

>  <base_name>  (964) 
2b0f

>  <lig_resn>  (964) 
None

>  <lig_resi>  (964) 
1

>  <lig_chain>  (964) 
B

>  <lig_segi>  (964) 


>  <lig_alt>  (964) 


>  <polymer_chain>  (964) 
A

>  <single_smiles>  (964) 
None

$$$$
polymerS74
     RDKit          3D

 40 39  0  0  0  0  0  0  0  0999 V2000
   -9.8560   12.2790  -36.2650 C   0  0  0  0  0  0  0  0  0  0  0  0
   -9.7190   12.5240  -34.7630 C   0  0  2  0  0  0  0  0  0  0  0  0
   -9.6030   13.9290  -34.4410 N   0  0  0  0  0  0  0  0  0  0  0  0
   -8.4470   11.8470  -34.2880 C   0  0  0  0  0  0  0  0  0  0  0  0
   -9.4760   14.3090  -33.1760 C   0  0  0  0  0  0  0  0  0  0  0  0
   -8.5240   10.6110  -33.8090 N   0  0  0  0  0  0  0  0  0  0  0  0
   -7.3750   12.4480  -34.3620 O   0  0  0  0  0  0  0  0  0  0  0  0
   -9.2690   15.7910  -32.9510 C   0  0  1  0  0  0  0  0  0  0  0  0
   -9.5290   13.5200  -32.2290 O   0  0  0  0  0  0  0  0  0  0  0  0
   -7.3190    9.9670  -33.3460 C   0  0  1  0  0  0  0  0  0  0  0  0
   -9.7350   16.2520  -31.6700 N   0  0  0  0  0  0  0  0  0  0  0  0
   -7.7900   16.0900  -33.0900 C   0  0  0  0  0  0  0  0  0  0  0  0
   -7.3310    9.8470  -31.8170 C   0  0  0  0  0  0  0  0  0  0  0  0
   -7.0030    8.6240  -34.0690 C   0  0  0  0  0  0  0  0  0  0  0  0
  -10.8520   16.9140  -31.5780 C   0  0  0  0  0  0  0  0  0  0  0  0
   -7.1690   15.4980  -34.3400 C   0  0  0  0  0  0  0  0  0  0  0  0
   -7.1160   11.1980  -31.1200 C   0  0  0  0  0  0  0  0  0  0  0  0
   -5.9970    8.9560  -35.1740 C   0  0  0  0  0  0  0  0  0  0  0  0
  -11.2320   17.4190  -30.2140 C   0  0  1  0  0  0  0  0  0  0  0  0
  -11.5590   17.1540  -32.5510 O   0  0  0  0  0  0  0  0  0  0  0  0
   -7.6760   16.2470  -35.5700 C   0  0  0  0  0  0  0  0  0  0  0  0
   -5.6520   15.5520  -34.2470 C   0  0  0  0  0  0  0  0  0  0  0  0
   -7.1690   11.1210  -29.6010 C   0  0  0  0  0  0  0  0  0  0  0  0
   -5.3280    7.7460  -35.7790 C   0  0  0  0  0  0  0  0  0  0  0  0
  -11.9720   18.6270  -30.4030 N   0  0  0  0  0  0  0  0  0  0  0  0
  -12.0320   16.4040  -29.4200 C   0  0  0  0  0  0  0  0  0  0  0  0
   -6.5930   12.1190  -28.9300 N   0  0  0  0  0  0  0  0  0  0  0  0
   -7.7330   10.1910  -29.0350 O   0  0  0  0  0  0  0  0  0  0  0  0
   -5.6140    6.6180  -35.3820 O   0  0  0  0  0  0  0  0  0  0  0  0
   -4.4850    7.9540  -36.6840 O   0  0  0  0  0  0  0  0  0  0  0  0
  -11.3450   19.7670  -30.6210 C   0  0  1  0  0  0  0  0  0  0  0  0
   -3.6950    6.8460  -37.4040 C   0  0  0  0  0  0  0  0  0  0  0  0
  -12.2360   20.9510  -30.8060 C   0  0  0  0  0  0  0  0  0  0  0  0
  -10.1190   19.8830  -30.5960 O   0  0  0  0  0  0  0  0  0  0  0  0
   -2.6800    7.1950  -38.4770 C   0  0  0  0  0  0  0  0  0  0  0  0
  -11.5450   22.0000  -31.6560 C   0  0  0  0  0  0  0  0  0  0  0  0
  -11.2540   21.4640  -33.0520 C   0  0  0  0  0  0  0  0  0  0  0  0
  -10.4830   22.4400  -33.9180 C   0  0  0  0  0  0  0  0  0  0  0  0
  -11.1230   23.2880  -34.5660 O   0  0  0  0  0  0  0  0  0  0  0  0
   -9.2440   22.3600  -33.9420 O   0  0  0  0  0  0  0  0  0  0  0  0
  2  1  1  6
  3  2  1  0
  2  4  1  0
  3  5  1  0
  6  4  1  0
  4  7  1  0
  8  5  1  0
  5  9  1  0
  6 10  1  0
 11  8  1  0
  8 12  1  1
 10 13  1  1
 10 14  1  0
 11 15  1  0
 12 16  1  0
 13 17  1  0
 14 18  1  0
 19 15  1  0
 15 20  1  0
 16 21  1  0
 16 22  1  0
 17 23  1  0
 18 24  1  0
 25 19  1  0
 19 26  1  6
 23 27  1  0
 23 28  1  0
 24 29  1  0
 24 30  1  0
 25 31  1  0
 32 30  1  0
 33 31  1  0
 31 34  1  1
 32 35  1  0
 33 36  1  6
 36 37  1  0
 37 38  1  0
 38 39  1  0
 38 40  1  0
M  CHG  1  40  -1
A    2
 C3 
A    3
 N1 
A    4
 C1 
A    5
 C1 
A    6
 N1 
A    7
 O1 
A    8
 C3 
A    9
 O1 
A   10
 C3 
A   11
 N1 
A   12
 C5 
A   13
 C5 
A   14
 C38
A   15
 C1 
A   16
 C6 
A   17
 C6 
A   18
 C39
A   19
 C3 
A   20
 O1 
A   21
 C7 
A   22
 C8 
A   23
 C13
A   24
 C40
A   25
 N1 
A   26
 C5 
A   27
 N7 
A   28
 O4 
A   29
 O10
A   30
 O11
A   31
 C1 
A   32
 C36
A   34
 O1 
A   35
 C37
A   36
 C5 
A   37
 C6 
A   38
 C13
A   39
 O4 
A   40
 O5 
M  END
>  <XChem_code>  (965) 
polymer

>  <Occupancy>  (965) 
[1.0, 1.0, 1.0, 1.0, 1.0, 1.0, 1.0, 1.0, 1.0, 1.0, 1.0, 1.0, 1.0, 1.0, 1.0, 1.0, 1.0, 1.0, 1.0, 1.0, 1.0, 1.0, 1.0, 1.0, 1.0, 1.0, 1.0, 1.0, 1.0, 1.0, 1.0, 1.0, 1.0, 1.0, 1.0, 1.0, 1.0, 1.0, 1.0, 1.0, 1.0, 1.0, 1.0, 1.0, 1.0, 1.0, 1.0, 1.0, 1.0, 1.0, 1.0, 1.0, 1.0, 1.0, 1.0, 1.0, 1.0, 1.0]

>  <TempFactor>  (965) 
[0.0, 0.0, 0.0, 0.0, 0.0, 0.0, 0.0, 0.0, 0.0, 0.0, 0.0, 0.0, 0.0, 0.0, 0.0, 0.0, 0.0, 0.0, 0.0, 0.0, 0.0, 0.0, 0.0, 0.0, 0.0, 0.0, 0.0, 0.0, 0.0, 0.0, 0.0, 0.0, 0.0, 0.0, 0.0, 0.0, 0.0, 0.0, 0.0, 0.0, 0.0, 0.0, 0.0, 0.0, 0.0, 0.0, 0.0, 0.0, 0.0, 0.0, 0.0, 0.0, 0.0, 0.0, 0.0, 0.0, 0.0, 0.0]

>  <base_name>  (965) 
2b0f

>  <lig_resn>  (965) 
None

>  <lig_resi>  (965) 
1

>  <lig_chain>  (965) 
B

>  <lig_segi>  (965) 


>  <lig_alt>  (965) 


>  <polymer_chain>  (965) 
A

>  <single_smiles>  (965) 
None

$$$$
polymerS75
     RDKit          3D

 31 30  0  0  0  0  0  0  0  0999 V2000
   -9.8560   12.2790  -36.2650 C   0  0  0  0  0  0  0  0  0  0  0  0
   -9.7190   12.5240  -34.7630 C   0  0  2  0  0  0  0  0  0  0  0  0
   -9.6030   13.9290  -34.4410 N   0  0  0  0  0  0  0  0  0  0  0  0
   -8.4470   11.8470  -34.2880 C   0  0  0  0  0  0  0  0  0  0  0  0
   -9.4760   14.3090  -33.1760 C   0  0  0  0  0  0  0  0  0  0  0  0
   -8.5240   10.6110  -33.8090 N   0  0  0  0  0  0  0  0  0  0  0  0
   -7.3750   12.4480  -34.3620 O   0  0  0  0  0  0  0  0  0  0  0  0
   -9.2690   15.7910  -32.9510 C   0  0  1  0  0  0  0  0  0  0  0  0
   -9.5290   13.5200  -32.2290 O   0  0  0  0  0  0  0  0  0  0  0  0
   -7.3190    9.9670  -33.3460 C   0  0  1  0  0  0  0  0  0  0  0  0
   -9.7350   16.2520  -31.6700 N   0  0  0  0  0  0  0  0  0  0  0  0
   -7.7900   16.0900  -33.0900 C   0  0  0  0  0  0  0  0  0  0  0  0
   -7.3310    9.8470  -31.8170 C   0  0  0  0  0  0  0  0  0  0  0  0
   -7.0030    8.6240  -34.0690 C   0  0  0  0  0  0  0  0  0  0  0  0
  -10.8520   16.9140  -31.5780 C   0  0  0  0  0  0  0  0  0  0  0  0
   -7.1690   15.4980  -34.3400 C   0  0  0  0  0  0  0  0  0  0  0  0
   -7.1160   11.1980  -31.1200 C   0  0  0  0  0  0  0  0  0  0  0  0
   -5.9970    8.9560  -35.1740 C   0  0  0  0  0  0  0  0  0  0  0  0
  -11.2320   17.4190  -30.2140 C   0  0  0  0  0  0  0  0  0  0  0  0
  -11.5590   17.1540  -32.5510 O   0  0  0  0  0  0  0  0  0  0  0  0
   -7.6760   16.2470  -35.5700 C   0  0  0  0  0  0  0  0  0  0  0  0
   -5.6520   15.5520  -34.2470 C   0  0  0  0  0  0  0  0  0  0  0  0
   -7.1690   11.1210  -29.6010 C   0  0  0  0  0  0  0  0  0  0  0  0
   -5.3280    7.7460  -35.7790 C   0  0  0  0  0  0  0  0  0  0  0  0
  -12.0320   16.4040  -29.4200 C   0  0  0  0  0  0  0  0  0  0  0  0
   -6.5930   12.1190  -28.9300 N   0  0  0  0  0  0  0  0  0  0  0  0
   -7.7330   10.1910  -29.0350 O   0  0  0  0  0  0  0  0  0  0  0  0
   -5.6140    6.6180  -35.3820 O   0  0  0  0  0  0  0  0  0  0  0  0
   -4.4850    7.9540  -36.6840 O   0  0  0  0  0  0  0  0  0  0  0  0
   -3.6950    6.8460  -37.4040 C   0  0  0  0  0  0  0  0  0  0  0  0
   -2.6800    7.1950  -38.4770 C   0  0  0  0  0  0  0  0  0  0  0  0
  2  1  1  6
  3  2  1  0
  2  4  1  0
  3  5  1  0
  6  4  1  0
  4  7  1  0
  8  5  1  0
  5  9  1  0
  6 10  1  0
 11  8  1  0
  8 12  1  1
 10 13  1  1
 10 14  1  0
 11 15  1  0
 12 16  1  0
 13 17  1  0
 14 18  1  0
 19 15  1  0
 15 20  1  0
 16 21  1  0
 16 22  1  0
 17 23  1  0
 18 24  1  0
 19 25  1  6
 23 26  1  0
 23 27  1  0
 24 28  1  0
 24 29  1  0
 30 29  1  0
 30 31  1  0
A    2
 C3 
A    3
 N1 
A    4
 C1 
A    5
 C1 
A    6
 N1 
A    7
 O1 
A    8
 C3 
A    9
 O1 
A   10
 C3 
A   11
 N1 
A   12
 C5 
A   13
 C5 
A   14
 C38
A   15
 C1 
A   16
 C6 
A   17
 C6 
A   18
 C39
A   20
 O1 
A   21
 C7 
A   22
 C8 
A   23
 C13
A   24
 C40
A   25
 C5 
A   26
 N7 
A   27
 O4 
A   28
 O10
A   29
 O11
A   30
 C36
A   31
 C37
M  END
>  <XChem_code>  (966) 
polymer

>  <Occupancy>  (966) 
[1.0, 1.0, 1.0, 1.0, 1.0, 1.0, 1.0, 1.0, 1.0, 1.0, 1.0, 1.0, 1.0, 1.0, 1.0, 1.0, 1.0, 1.0, 1.0, 1.0, 1.0, 1.0, 1.0, 1.0, 1.0, 1.0, 1.0, 1.0, 1.0, 1.0, 1.0, 1.0, 1.0, 1.0, 1.0, 1.0, 1.0, 1.0, 1.0, 1.0, 1.0, 1.0, 1.0, 1.0, 1.0, 1.0, 1.0, 1.0, 1.0, 1.0, 1.0, 1.0, 1.0, 1.0, 1.0, 1.0, 1.0, 1.0]

>  <TempFactor>  (966) 
[0.0, 0.0, 0.0, 0.0, 0.0, 0.0, 0.0, 0.0, 0.0, 0.0, 0.0, 0.0, 0.0, 0.0, 0.0, 0.0, 0.0, 0.0, 0.0, 0.0, 0.0, 0.0, 0.0, 0.0, 0.0, 0.0, 0.0, 0.0, 0.0, 0.0, 0.0, 0.0, 0.0, 0.0, 0.0, 0.0, 0.0, 0.0, 0.0, 0.0, 0.0, 0.0, 0.0, 0.0, 0.0, 0.0, 0.0, 0.0, 0.0, 0.0, 0.0, 0.0, 0.0, 0.0, 0.0, 0.0, 0.0, 0.0]

>  <base_name>  (966) 
2b0f

>  <lig_resn>  (966) 
None

>  <lig_resi>  (966) 
1

>  <lig_chain>  (966) 
B

>  <lig_segi>  (966) 


>  <lig_alt>  (966) 


>  <polymer_chain>  (966) 
A

>  <single_smiles>  (966) 
None

$$$$
polymerS76
     RDKit          3D

 26 25  0  0  0  0  0  0  0  0999 V2000
   -9.8560   12.2790  -36.2650 C   0  0  0  0  0  0  0  0  0  0  0  0
   -9.7190   12.5240  -34.7630 C   0  0  2  0  0  0  0  0  0  0  0  0
   -9.6030   13.9290  -34.4410 N   0  0  0  0  0  0  0  0  0  0  0  0
   -8.4470   11.8470  -34.2880 C   0  0  0  0  0  0  0  0  0  0  0  0
   -9.4760   14.3090  -33.1760 C   0  0  0  0  0  0  0  0  0  0  0  0
   -8.5240   10.6110  -33.8090 N   0  0  0  0  0  0  0  0  0  0  0  0
   -7.3750   12.4480  -34.3620 O   0  0  0  0  0  0  0  0  0  0  0  0
   -9.2690   15.7910  -32.9510 C   0  0  0  0  0  0  0  0  0  0  0  0
   -9.5290   13.5200  -32.2290 O   0  0  0  0  0  0  0  0  0  0  0  0
   -7.3190    9.9670  -33.3460 C   0  0  1  0  0  0  0  0  0  0  0  0
   -7.7900   16.0900  -33.0900 C   0  0  0  0  0  0  0  0  0  0  0  0
   -7.3310    9.8470  -31.8170 C   0  0  0  0  0  0  0  0  0  0  0  0
   -7.0030    8.6240  -34.0690 C   0  0  0  0  0  0  0  0  0  0  0  0
   -7.1690   15.4980  -34.3400 C   0  0  0  0  0  0  0  0  0  0  0  0
   -7.1160   11.1980  -31.1200 C   0  0  0  0  0  0  0  0  0  0  0  0
   -5.9970    8.9560  -35.1740 C   0  0  0  0  0  0  0  0  0  0  0  0
   -7.6760   16.2470  -35.5700 C   0  0  0  0  0  0  0  0  0  0  0  0
   -5.6520   15.5520  -34.2470 C   0  0  0  0  0  0  0  0  0  0  0  0
   -7.1690   11.1210  -29.6010 C   0  0  0  0  0  0  0  0  0  0  0  0
   -5.3280    7.7460  -35.7790 C   0  0  0  0  0  0  0  0  0  0  0  0
   -6.5930   12.1190  -28.9300 N   0  0  0  0  0  0  0  0  0  0  0  0
   -7.7330   10.1910  -29.0350 O   0  0  0  0  0  0  0  0  0  0  0  0
   -5.6140    6.6180  -35.3820 O   0  0  0  0  0  0  0  0  0  0  0  0
   -4.4850    7.9540  -36.6840 O   0  0  0  0  0  0  0  0  0  0  0  0
   -3.6950    6.8460  -37.4040 C   0  0  0  0  0  0  0  0  0  0  0  0
   -2.6800    7.1950  -38.4770 C   0  0  0  0  0  0  0  0  0  0  0  0
  2  1  1  6
  3  2  1  0
  2  4  1  0
  3  5  1  0
  6  4  1  0
  4  7  1  0
  8  5  1  0
  5  9  1  0
  6 10  1  0
  8 11  1  6
 10 12  1  1
 10 13  1  0
 11 14  1  0
 12 15  1  0
 13 16  1  0
 14 17  1  0
 14 18  1  0
 15 19  1  0
 16 20  1  0
 19 21  1  0
 19 22  1  0
 20 23  1  0
 20 24  1  0
 25 24  1  0
 25 26  1  0
A    2
 C3 
A    3
 N1 
A    4
 C1 
A    5
 C1 
A    6
 N1 
A    7
 O1 
A    9
 O1 
A   10
 C3 
A   11
 C5 
A   12
 C5 
A   13
 C38
A   14
 C6 
A   15
 C6 
A   16
 C39
A   17
 C7 
A   18
 C8 
A   19
 C13
A   20
 C40
A   21
 N7 
A   22
 O4 
A   23
 O10
A   24
 O11
A   25
 C36
A   26
 C37
M  END
>  <XChem_code>  (967) 
polymer

>  <Occupancy>  (967) 
[1.0, 1.0, 1.0, 1.0, 1.0, 1.0, 1.0, 1.0, 1.0, 1.0, 1.0, 1.0, 1.0, 1.0, 1.0, 1.0, 1.0, 1.0, 1.0, 1.0, 1.0, 1.0, 1.0, 1.0, 1.0, 1.0, 1.0, 1.0, 1.0, 1.0, 1.0, 1.0, 1.0, 1.0, 1.0, 1.0, 1.0, 1.0, 1.0, 1.0, 1.0, 1.0, 1.0, 1.0, 1.0, 1.0, 1.0, 1.0, 1.0, 1.0, 1.0, 1.0, 1.0, 1.0, 1.0, 1.0, 1.0, 1.0]

>  <TempFactor>  (967) 
[0.0, 0.0, 0.0, 0.0, 0.0, 0.0, 0.0, 0.0, 0.0, 0.0, 0.0, 0.0, 0.0, 0.0, 0.0, 0.0, 0.0, 0.0, 0.0, 0.0, 0.0, 0.0, 0.0, 0.0, 0.0, 0.0, 0.0, 0.0, 0.0, 0.0, 0.0, 0.0, 0.0, 0.0, 0.0, 0.0, 0.0, 0.0, 0.0, 0.0, 0.0, 0.0, 0.0, 0.0, 0.0, 0.0, 0.0, 0.0, 0.0, 0.0, 0.0, 0.0, 0.0, 0.0, 0.0, 0.0, 0.0, 0.0]

>  <base_name>  (967) 
2b0f

>  <lig_resn>  (967) 
None

>  <lig_resi>  (967) 
1

>  <lig_chain>  (967) 
B

>  <lig_segi>  (967) 


>  <lig_alt>  (967) 


>  <polymer_chain>  (967) 
A

>  <single_smiles>  (967) 
None

$$$$
polymerS77
     RDKit          3D

 18 17  0  0  0  0  0  0  0  0999 V2000
   -9.8560   12.2790  -36.2650 C   0  0  0  0  0  0  0  0  0  0  0  0
   -9.7190   12.5240  -34.7630 C   0  0  0  0  0  0  0  0  0  0  0  0
   -8.4470   11.8470  -34.2880 C   0  0  0  0  0  0  0  0  0  0  0  0
   -8.5240   10.6110  -33.8090 N   0  0  0  0  0  0  0  0  0  0  0  0
   -7.3750   12.4480  -34.3620 O   0  0  0  0  0  0  0  0  0  0  0  0
   -7.3190    9.9670  -33.3460 C   0  0  1  0  0  0  0  0  0  0  0  0
   -7.3310    9.8470  -31.8170 C   0  0  0  0  0  0  0  0  0  0  0  0
   -7.0030    8.6240  -34.0690 C   0  0  0  0  0  0  0  0  0  0  0  0
   -7.1160   11.1980  -31.1200 C   0  0  0  0  0  0  0  0  0  0  0  0
   -5.9970    8.9560  -35.1740 C   0  0  0  0  0  0  0  0  0  0  0  0
   -7.1690   11.1210  -29.6010 C   0  0  0  0  0  0  0  0  0  0  0  0
   -5.3280    7.7460  -35.7790 C   0  0  0  0  0  0  0  0  0  0  0  0
   -6.5930   12.1190  -28.9300 N   0  0  0  0  0  0  0  0  0  0  0  0
   -7.7330   10.1910  -29.0350 O   0  0  0  0  0  0  0  0  0  0  0  0
   -5.6140    6.6180  -35.3820 O   0  0  0  0  0  0  0  0  0  0  0  0
   -4.4850    7.9540  -36.6840 O   0  0  0  0  0  0  0  0  0  0  0  0
   -3.6950    6.8460  -37.4040 C   0  0  0  0  0  0  0  0  0  0  0  0
   -2.6800    7.1950  -38.4770 C   0  0  0  0  0  0  0  0  0  0  0  0
  2  1  1  6
  2  3  1  0
  4  3  1  0
  3  5  1  0
  4  6  1  0
  6  7  1  1
  6  8  1  0
  7  9  1  0
  8 10  1  0
  9 11  1  0
 10 12  1  0
 11 13  1  0
 11 14  1  0
 12 15  1  0
 12 16  1  0
 17 16  1  0
 17 18  1  0
A    3
 C1 
A    4
 N1 
A    5
 O1 
A    6
 C3 
A    7
 C5 
A    8
 C38
A    9
 C6 
A   10
 C39
A   11
 C13
A   12
 C40
A   13
 N7 
A   14
 O4 
A   15
 O10
A   16
 O11
A   17
 C36
A   18
 C37
M  END
>  <XChem_code>  (968) 
polymer

>  <Occupancy>  (968) 
[1.0, 1.0, 1.0, 1.0, 1.0, 1.0, 1.0, 1.0, 1.0, 1.0, 1.0, 1.0, 1.0, 1.0, 1.0, 1.0, 1.0, 1.0, 1.0, 1.0, 1.0, 1.0, 1.0, 1.0, 1.0, 1.0, 1.0, 1.0, 1.0, 1.0, 1.0, 1.0, 1.0, 1.0, 1.0, 1.0, 1.0, 1.0, 1.0, 1.0, 1.0, 1.0, 1.0, 1.0, 1.0, 1.0, 1.0, 1.0, 1.0, 1.0, 1.0, 1.0, 1.0, 1.0, 1.0, 1.0, 1.0, 1.0]

>  <TempFactor>  (968) 
[0.0, 0.0, 0.0, 0.0, 0.0, 0.0, 0.0, 0.0, 0.0, 0.0, 0.0, 0.0, 0.0, 0.0, 0.0, 0.0, 0.0, 0.0, 0.0, 0.0, 0.0, 0.0, 0.0, 0.0, 0.0, 0.0, 0.0, 0.0, 0.0, 0.0, 0.0, 0.0, 0.0, 0.0, 0.0, 0.0, 0.0, 0.0, 0.0, 0.0, 0.0, 0.0, 0.0, 0.0, 0.0, 0.0, 0.0, 0.0, 0.0, 0.0, 0.0, 0.0, 0.0, 0.0, 0.0, 0.0, 0.0, 0.0]

>  <base_name>  (968) 
2b0f

>  <lig_resn>  (968) 
None

>  <lig_resi>  (968) 
1

>  <lig_chain>  (968) 
B

>  <lig_segi>  (968) 


>  <lig_alt>  (968) 


>  <polymer_chain>  (968) 
A

>  <single_smiles>  (968) 
None

$$$$
polymerS78
     RDKit          3D

 39 38  0  0  0  0  0  0  0  0999 V2000
   -9.8560   12.2790  -36.2650 C   0  0  0  0  0  0  0  0  0  0  0  0
   -9.7190   12.5240  -34.7630 C   0  0  1  0  0  0  0  0  0  0  0  0
   -8.4470   11.8470  -34.2880 C   0  0  0  0  0  0  0  0  0  0  0  0
   -9.6030   13.9290  -34.4410 N   0  0  0  0  0  0  0  0  0  0  0  0
   -8.5240   10.6110  -33.8090 N   0  0  0  0  0  0  0  0  0  0  0  0
   -7.3750   12.4480  -34.3620 O   0  0  0  0  0  0  0  0  0  0  0  0
   -9.4760   14.3090  -33.1760 C   0  0  0  0  0  0  0  0  0  0  0  0
   -9.2690   15.7910  -32.9510 C   0  0  1  0  0  0  0  0  0  0  0  0
   -9.5290   13.5200  -32.2290 O   0  0  0  0  0  0  0  0  0  0  0  0
   -9.7350   16.2520  -31.6700 N   0  0  0  0  0  0  0  0  0  0  0  0
   -7.7900   16.0900  -33.0900 C   0  0  0  0  0  0  0  0  0  0  0  0
  -10.8520   16.9140  -31.5780 C   0  0  0  0  0  0  0  0  0  0  0  0
   -7.1690   15.4980  -34.3400 C   0  0  0  0  0  0  0  0  0  0  0  0
  -11.2320   17.4190  -30.2140 C   0  0  1  0  0  0  0  0  0  0  0  0
  -11.5590   17.1540  -32.5510 O   0  0  0  0  0  0  0  0  0  0  0  0
   -7.6760   16.2470  -35.5700 C   0  0  0  0  0  0  0  0  0  0  0  0
   -5.6520   15.5520  -34.2470 C   0  0  0  0  0  0  0  0  0  0  0  0
  -11.9720   18.6270  -30.4030 N   0  0  0  0  0  0  0  0  0  0  0  0
  -12.0320   16.4040  -29.4200 C   0  0  0  0  0  0  0  0  0  0  0  0
  -11.3450   19.7670  -30.6210 C   0  0  1  0  0  0  0  0  0  0  0  0
  -12.2360   20.9510  -30.8060 C   0  0  1  0  0  0  0  0  0  0  0  0
  -10.1190   19.8830  -30.5960 O   0  0  0  0  0  0  0  0  0  0  0  0
  -12.5790   21.3540  -29.4810 N   0  0  0  0  0  0  0  0  0  0  0  0
  -11.5450   22.0000  -31.6560 C   0  0  0  0  0  0  0  0  0  0  0  0
  -13.8200   21.2840  -29.0930 C   0  0  0  0  0  0  0  0  0  0  0  0
  -11.2540   21.4640  -33.0520 C   0  0  0  0  0  0  0  0  0  0  0  0
  -14.0680   21.5380  -27.6320 C   0  0  1  0  0  0  0  0  0  0  0  0
  -14.7460   21.0290  -29.8620 O   0  0  0  0  0  0  0  0  0  0  0  0
  -10.4830   22.4400  -33.9180 C   0  0  0  0  0  0  0  0  0  0  0  0
  -15.3620   22.1790  -27.4390 N   0  0  0  0  0  0  0  0  0  0  0  0
  -13.9740   20.1330  -27.0070 C   0  0  0  0  0  0  0  0  0  0  0  0
  -11.1230   23.2880  -34.5660 O   0  0  0  0  0  0  0  0  0  0  0  0
   -9.2440   22.3600  -33.9420 O   0  0  0  0  0  0  0  0  0  0  0  0
  -15.4630   23.2690  -26.7060 C   0  0  1  0  0  0  0  0  0  0  0  0
  -14.0270   19.9780  -25.4860 C   0  0  0  0  0  0  0  0  0  0  0  0
  -14.4890   23.9180  -26.3430 O   0  0  0  0  0  0  0  0  0  0  0  0
  -16.8540   23.8480  -26.6190 C   0  0  0  0  0  0  0  0  0  0  0  0
  -13.2440   21.0650  -24.7650 C   0  0  0  0  0  0  0  0  0  0  0  0
  -15.4650   19.9240  -25.0200 C   0  0  0  0  0  0  0  0  0  0  0  0
  2  1  1  6
  2  3  1  0
  4  2  1  0
  5  3  1  0
  3  6  1  0
  4  7  1  0
  8  7  1  0
  7  9  1  0
 10  8  1  0
  8 11  1  1
 10 12  1  0
 11 13  1  0
 14 12  1  0
 12 15  1  0
 13 16  1  0
 13 17  1  0
 18 14  1  0
 14 19  1  6
 18 20  1  0
 21 20  1  0
 20 22  1  1
 23 21  1  0
 21 24  1  1
 23 25  1  0
 24 26  1  0
 27 25  1  0
 25 28  1  0
 26 29  1  0
 30 27  1  0
 27 31  1  1
 29 32  1  0
 29 33  1  0
 30 34  1  0
 31 35  1  0
 34 36  1  0
 34 37  1  6
 35 38  1  0
 35 39  1  0
M  CHG  1  33  -1
A    2
 C3 
A    3
 C1 
A    4
 N1 
A    6
 O1 
A    7
 C1 
A    8
 C3 
A    9
 O1 
A   10
 N1 
A   11
 C5 
A   12
 C1 
A   13
 C6 
A   14
 C3 
A   15
 O1 
A   16
 C7 
A   17
 C8 
A   18
 N1 
A   19
 C5 
A   20
 C1 
A   21
 C3 
A   22
 O1 
A   23
 N1 
A   24
 C5 
A   25
 C1 
A   26
 C6 
A   27
 C3 
A   28
 O1 
A   29
 C13
A   30
 N1 
A   31
 C5 
A   32
 O4 
A   33
 O5 
A   34
 C1 
A   35
 C6 
A   36
 O1 
A   37
 C2 
A   38
 C7 
A   39
 C8 
M  END
>  <XChem_code>  (969) 
polymer

>  <Occupancy>  (969) 
[1.0, 1.0, 1.0, 1.0, 1.0, 1.0, 1.0, 1.0, 1.0, 1.0, 1.0, 1.0, 1.0, 1.0, 1.0, 1.0, 1.0, 1.0, 1.0, 1.0, 1.0, 1.0, 1.0, 1.0, 1.0, 1.0, 1.0, 1.0, 1.0, 1.0, 1.0, 1.0, 1.0, 1.0, 1.0, 1.0, 1.0, 1.0, 1.0, 1.0, 1.0, 1.0, 1.0, 1.0, 1.0, 1.0, 1.0, 1.0, 1.0, 1.0, 1.0, 1.0, 1.0, 1.0, 1.0, 1.0, 1.0, 1.0]

>  <TempFactor>  (969) 
[0.0, 0.0, 0.0, 0.0, 0.0, 0.0, 0.0, 0.0, 0.0, 0.0, 0.0, 0.0, 0.0, 0.0, 0.0, 0.0, 0.0, 0.0, 0.0, 0.0, 0.0, 0.0, 0.0, 0.0, 0.0, 0.0, 0.0, 0.0, 0.0, 0.0, 0.0, 0.0, 0.0, 0.0, 0.0, 0.0, 0.0, 0.0, 0.0, 0.0, 0.0, 0.0, 0.0, 0.0, 0.0, 0.0, 0.0, 0.0, 0.0, 0.0, 0.0, 0.0, 0.0, 0.0, 0.0, 0.0, 0.0, 0.0]

>  <base_name>  (969) 
2b0f

>  <lig_resn>  (969) 
None

>  <lig_resi>  (969) 
1

>  <lig_chain>  (969) 
B

>  <lig_segi>  (969) 


>  <lig_alt>  (969) 


>  <polymer_chain>  (969) 
A

>  <single_smiles>  (969) 
None

$$$$
polymerS79
     RDKit          3D

 41 40  0  0  0  0  0  0  0  0999 V2000
   -9.8560   12.2790  -36.2650 C   0  0  0  0  0  0  0  0  0  0  0  0
   -9.7190   12.5240  -34.7630 C   0  0  2  0  0  0  0  0  0  0  0  0
   -9.6030   13.9290  -34.4410 N   0  0  0  0  0  0  0  0  0  0  0  0
   -8.4470   11.8470  -34.2880 C   0  0  0  0  0  0  0  0  0  0  0  0
   -9.4760   14.3090  -33.1760 C   0  0  0  0  0  0  0  0  0  0  0  0
   -8.5240   10.6110  -33.8090 N   0  0  0  0  0  0  0  0  0  0  0  0
   -7.3750   12.4480  -34.3620 O   0  0  0  0  0  0  0  0  0  0  0  0
   -9.2690   15.7910  -32.9510 C   0  0  1  0  0  0  0  0  0  0  0  0
   -9.5290   13.5200  -32.2290 O   0  0  0  0  0  0  0  0  0  0  0  0
   -7.3190    9.9670  -33.3460 C   0  0  1  0  0  0  0  0  0  0  0  0
   -9.7350   16.2520  -31.6700 N   0  0  0  0  0  0  0  0  0  0  0  0
   -7.7900   16.0900  -33.0900 C   0  0  0  0  0  0  0  0  0  0  0  0
   -7.3310    9.8470  -31.8170 C   0  0  0  0  0  0  0  0  0  0  0  0
   -7.0030    8.6240  -34.0690 C   0  0  0  0  0  0  0  0  0  0  0  0
  -10.8520   16.9140  -31.5780 C   0  0  0  0  0  0  0  0  0  0  0  0
   -7.1690   15.4980  -34.3400 C   0  0  0  0  0  0  0  0  0  0  0  0
   -7.1160   11.1980  -31.1200 C   0  0  0  0  0  0  0  0  0  0  0  0
   -5.9970    8.9560  -35.1740 C   0  0  0  0  0  0  0  0  0  0  0  0
  -11.2320   17.4190  -30.2140 C   0  0  1  0  0  0  0  0  0  0  0  0
  -11.5590   17.1540  -32.5510 O   0  0  0  0  0  0  0  0  0  0  0  0
   -7.6760   16.2470  -35.5700 C   0  0  0  0  0  0  0  0  0  0  0  0
   -5.6520   15.5520  -34.2470 C   0  0  0  0  0  0  0  0  0  0  0  0
   -7.1690   11.1210  -29.6010 C   0  0  0  0  0  0  0  0  0  0  0  0
   -5.3280    7.7460  -35.7790 C   0  0  0  0  0  0  0  0  0  0  0  0
  -11.9720   18.6270  -30.4030 N   0  0  0  0  0  0  0  0  0  0  0  0
  -12.0320   16.4040  -29.4200 C   0  0  0  0  0  0  0  0  0  0  0  0
   -6.5930   12.1190  -28.9300 N   0  0  0  0  0  0  0  0  0  0  0  0
   -7.7330   10.1910  -29.0350 O   0  0  0  0  0  0  0  0  0  0  0  0
   -5.6140    6.6180  -35.3820 O   0  0  0  0  0  0  0  0  0  0  0  0
   -4.4850    7.9540  -36.6840 O   0  0  0  0  0  0  0  0  0  0  0  0
  -11.3450   19.7670  -30.6210 C   0  0  1  0  0  0  0  0  0  0  0  0
   -3.6950    6.8460  -37.4040 C   0  0  0  0  0  0  0  0  0  0  0  0
  -12.2360   20.9510  -30.8060 C   0  0  1  0  0  0  0  0  0  0  0  0
  -10.1190   19.8830  -30.5960 O   0  0  0  0  0  0  0  0  0  0  0  0
   -2.6800    7.1950  -38.4770 C   0  0  0  0  0  0  0  0  0  0  0  0
  -12.5790   21.3540  -29.4810 N   0  0  0  0  0  0  0  0  0  0  0  0
  -11.5450   22.0000  -31.6560 C   0  0  0  0  0  0  0  0  0  0  0  0
  -11.2540   21.4640  -33.0520 C   0  0  0  0  0  0  0  0  0  0  0  0
  -10.4830   22.4400  -33.9180 C   0  0  0  0  0  0  0  0  0  0  0  0
  -11.1230   23.2880  -34.5660 O   0  0  0  0  0  0  0  0  0  0  0  0
   -9.2440   22.3600  -33.9420 O   0  0  0  0  0  0  0  0  0  0  0  0
  2  1  1  6
  3  2  1  0
  2  4  1  0
  3  5  1  0
  6  4  1  0
  4  7  1  0
  8  5  1  0
  5  9  1  0
  6 10  1  0
 11  8  1  0
  8 12  1  1
 10 13  1  1
 10 14  1  0
 11 15  1  0
 12 16  1  0
 13 17  1  0
 14 18  1  0
 19 15  1  0
 15 20  1  0
 16 21  1  0
 16 22  1  0
 17 23  1  0
 18 24  1  0
 25 19  1  0
 19 26  1  6
 23 27  1  0
 23 28  1  0
 24 29  1  0
 24 30  1  0
 25 31  1  0
 32 30  1  0
 33 31  1  0
 31 34  1  1
 32 35  1  0
 33 36  1  1
 33 37  1  0
 37 38  1  0
 38 39  1  0
 39 40  1  0
 39 41  1  0
M  CHG  1  41  -1
A    2
 C3 
A    3
 N1 
A    4
 C1 
A    5
 C1 
A    6
 N1 
A    7
 O1 
A    8
 C3 
A    9
 O1 
A   10
 C3 
A   11
 N1 
A   12
 C5 
A   13
 C5 
A   14
 C38
A   15
 C1 
A   16
 C6 
A   17
 C6 
A   18
 C39
A   19
 C3 
A   20
 O1 
A   21
 C7 
A   22
 C8 
A   23
 C13
A   24
 C40
A   25
 N1 
A   26
 C5 
A   27
 N7 
A   28
 O4 
A   29
 O10
A   30
 O11
A   31
 C1 
A   32
 C36
A   33
 C3 
A   34
 O1 
A   35
 C37
A   37
 C5 
A   38
 C6 
A   39
 C13
A   40
 O4 
A   41
 O5 
M  END
>  <XChem_code>  (970) 
polymer

>  <Occupancy>  (970) 
[1.0, 1.0, 1.0, 1.0, 1.0, 1.0, 1.0, 1.0, 1.0, 1.0, 1.0, 1.0, 1.0, 1.0, 1.0, 1.0, 1.0, 1.0, 1.0, 1.0, 1.0, 1.0, 1.0, 1.0, 1.0, 1.0, 1.0, 1.0, 1.0, 1.0, 1.0, 1.0, 1.0, 1.0, 1.0, 1.0, 1.0, 1.0, 1.0, 1.0, 1.0, 1.0, 1.0, 1.0, 1.0, 1.0, 1.0, 1.0, 1.0, 1.0, 1.0, 1.0, 1.0, 1.0, 1.0, 1.0, 1.0, 1.0]

>  <TempFactor>  (970) 
[0.0, 0.0, 0.0, 0.0, 0.0, 0.0, 0.0, 0.0, 0.0, 0.0, 0.0, 0.0, 0.0, 0.0, 0.0, 0.0, 0.0, 0.0, 0.0, 0.0, 0.0, 0.0, 0.0, 0.0, 0.0, 0.0, 0.0, 0.0, 0.0, 0.0, 0.0, 0.0, 0.0, 0.0, 0.0, 0.0, 0.0, 0.0, 0.0, 0.0, 0.0, 0.0, 0.0, 0.0, 0.0, 0.0, 0.0, 0.0, 0.0, 0.0, 0.0, 0.0, 0.0, 0.0, 0.0, 0.0, 0.0, 0.0]

>  <base_name>  (970) 
2b0f

>  <lig_resn>  (970) 
None

>  <lig_resi>  (970) 
1

>  <lig_chain>  (970) 
B

>  <lig_segi>  (970) 


>  <lig_alt>  (970) 


>  <polymer_chain>  (970) 
A

>  <single_smiles>  (970) 
None

$$$$
polymerS80
     RDKit          3D

 32 31  0  0  0  0  0  0  0  0999 V2000
   -9.8560   12.2790  -36.2650 C   0  0  0  0  0  0  0  0  0  0  0  0
   -9.7190   12.5240  -34.7630 C   0  0  2  0  0  0  0  0  0  0  0  0
   -9.6030   13.9290  -34.4410 N   0  0  0  0  0  0  0  0  0  0  0  0
   -8.4470   11.8470  -34.2880 C   0  0  0  0  0  0  0  0  0  0  0  0
   -9.4760   14.3090  -33.1760 C   0  0  0  0  0  0  0  0  0  0  0  0
   -8.5240   10.6110  -33.8090 N   0  0  0  0  0  0  0  0  0  0  0  0
   -7.3750   12.4480  -34.3620 O   0  0  0  0  0  0  0  0  0  0  0  0
   -9.2690   15.7910  -32.9510 C   0  0  1  0  0  0  0  0  0  0  0  0
   -9.5290   13.5200  -32.2290 O   0  0  0  0  0  0  0  0  0  0  0  0
   -7.3190    9.9670  -33.3460 C   0  0  1  0  0  0  0  0  0  0  0  0
   -9.7350   16.2520  -31.6700 N   0  0  0  0  0  0  0  0  0  0  0  0
   -7.7900   16.0900  -33.0900 C   0  0  0  0  0  0  0  0  0  0  0  0
   -7.3310    9.8470  -31.8170 C   0  0  0  0  0  0  0  0  0  0  0  0
   -7.0030    8.6240  -34.0690 C   0  0  0  0  0  0  0  0  0  0  0  0
  -10.8520   16.9140  -31.5780 C   0  0  0  0  0  0  0  0  0  0  0  0
   -7.1690   15.4980  -34.3400 C   0  0  0  0  0  0  0  0  0  0  0  0
   -7.1160   11.1980  -31.1200 C   0  0  0  0  0  0  0  0  0  0  0  0
   -5.9970    8.9560  -35.1740 C   0  0  0  0  0  0  0  0  0  0  0  0
  -11.2320   17.4190  -30.2140 C   0  0  1  0  0  0  0  0  0  0  0  0
  -11.5590   17.1540  -32.5510 O   0  0  0  0  0  0  0  0  0  0  0  0
   -7.6760   16.2470  -35.5700 C   0  0  0  0  0  0  0  0  0  0  0  0
   -5.6520   15.5520  -34.2470 C   0  0  0  0  0  0  0  0  0  0  0  0
   -7.1690   11.1210  -29.6010 C   0  0  0  0  0  0  0  0  0  0  0  0
   -5.3280    7.7460  -35.7790 C   0  0  0  0  0  0  0  0  0  0  0  0
  -11.9720   18.6270  -30.4030 N   0  0  0  0  0  0  0  0  0  0  0  0
  -12.0320   16.4040  -29.4200 C   0  0  0  0  0  0  0  0  0  0  0  0
   -6.5930   12.1190  -28.9300 N   0  0  0  0  0  0  0  0  0  0  0  0
   -7.7330   10.1910  -29.0350 O   0  0  0  0  0  0  0  0  0  0  0  0
   -5.6140    6.6180  -35.3820 O   0  0  0  0  0  0  0  0  0  0  0  0
   -4.4850    7.9540  -36.6840 O   0  0  0  0  0  0  0  0  0  0  0  0
   -3.6950    6.8460  -37.4040 C   0  0  0  0  0  0  0  0  0  0  0  0
   -2.6800    7.1950  -38.4770 C   0  0  0  0  0  0  0  0  0  0  0  0
  2  1  1  6
  3  2  1  0
  2  4  1  0
  3  5  1  0
  6  4  1  0
  4  7  1  0
  8  5  1  0
  5  9  1  0
  6 10  1  0
 11  8  1  0
  8 12  1  1
 10 13  1  1
 10 14  1  0
 11 15  1  0
 12 16  1  0
 13 17  1  0
 14 18  1  0
 19 15  1  0
 15 20  1  0
 16 21  1  0
 16 22  1  0
 17 23  1  0
 18 24  1  0
 25 19  1  0
 19 26  1  6
 23 27  1  0
 23 28  1  0
 24 29  1  0
 24 30  1  0
 31 30  1  0
 31 32  1  0
A    2
 C3 
A    3
 N1 
A    4
 C1 
A    5
 C1 
A    6
 N1 
A    7
 O1 
A    8
 C3 
A    9
 O1 
A   10
 C3 
A   11
 N1 
A   12
 C5 
A   13
 C5 
A   14
 C38
A   15
 C1 
A   16
 C6 
A   17
 C6 
A   18
 C39
A   19
 C3 
A   20
 O1 
A   21
 C7 
A   22
 C8 
A   23
 C13
A   24
 C40
A   26
 C5 
A   27
 N7 
A   28
 O4 
A   29
 O10
A   30
 O11
A   31
 C36
A   32
 C37
M  END
>  <XChem_code>  (971) 
polymer

>  <Occupancy>  (971) 
[1.0, 1.0, 1.0, 1.0, 1.0, 1.0, 1.0, 1.0, 1.0, 1.0, 1.0, 1.0, 1.0, 1.0, 1.0, 1.0, 1.0, 1.0, 1.0, 1.0, 1.0, 1.0, 1.0, 1.0, 1.0, 1.0, 1.0, 1.0, 1.0, 1.0, 1.0, 1.0, 1.0, 1.0, 1.0, 1.0, 1.0, 1.0, 1.0, 1.0, 1.0, 1.0, 1.0, 1.0, 1.0, 1.0, 1.0, 1.0, 1.0, 1.0, 1.0, 1.0, 1.0, 1.0, 1.0, 1.0, 1.0, 1.0]

>  <TempFactor>  (971) 
[0.0, 0.0, 0.0, 0.0, 0.0, 0.0, 0.0, 0.0, 0.0, 0.0, 0.0, 0.0, 0.0, 0.0, 0.0, 0.0, 0.0, 0.0, 0.0, 0.0, 0.0, 0.0, 0.0, 0.0, 0.0, 0.0, 0.0, 0.0, 0.0, 0.0, 0.0, 0.0, 0.0, 0.0, 0.0, 0.0, 0.0, 0.0, 0.0, 0.0, 0.0, 0.0, 0.0, 0.0, 0.0, 0.0, 0.0, 0.0, 0.0, 0.0, 0.0, 0.0, 0.0, 0.0, 0.0, 0.0, 0.0, 0.0]

>  <base_name>  (971) 
2b0f

>  <lig_resn>  (971) 
None

>  <lig_resi>  (971) 
1

>  <lig_chain>  (971) 
B

>  <lig_segi>  (971) 


>  <lig_alt>  (971) 


>  <polymer_chain>  (971) 
A

>  <single_smiles>  (971) 
None

$$$$
polymerS81
     RDKit          3D

 27 26  0  0  0  0  0  0  0  0999 V2000
   -9.8560   12.2790  -36.2650 C   0  0  0  0  0  0  0  0  0  0  0  0
   -9.7190   12.5240  -34.7630 C   0  0  2  0  0  0  0  0  0  0  0  0
   -9.6030   13.9290  -34.4410 N   0  0  0  0  0  0  0  0  0  0  0  0
   -8.4470   11.8470  -34.2880 C   0  0  0  0  0  0  0  0  0  0  0  0
   -9.4760   14.3090  -33.1760 C   0  0  0  0  0  0  0  0  0  0  0  0
   -8.5240   10.6110  -33.8090 N   0  0  0  0  0  0  0  0  0  0  0  0
   -7.3750   12.4480  -34.3620 O   0  0  0  0  0  0  0  0  0  0  0  0
   -9.2690   15.7910  -32.9510 C   0  0  1  0  0  0  0  0  0  0  0  0
   -9.5290   13.5200  -32.2290 O   0  0  0  0  0  0  0  0  0  0  0  0
   -7.3190    9.9670  -33.3460 C   0  0  1  0  0  0  0  0  0  0  0  0
   -9.7350   16.2520  -31.6700 N   0  0  0  0  0  0  0  0  0  0  0  0
   -7.7900   16.0900  -33.0900 C   0  0  0  0  0  0  0  0  0  0  0  0
   -7.3310    9.8470  -31.8170 C   0  0  0  0  0  0  0  0  0  0  0  0
   -7.0030    8.6240  -34.0690 C   0  0  0  0  0  0  0  0  0  0  0  0
   -7.1690   15.4980  -34.3400 C   0  0  0  0  0  0  0  0  0  0  0  0
   -7.1160   11.1980  -31.1200 C   0  0  0  0  0  0  0  0  0  0  0  0
   -5.9970    8.9560  -35.1740 C   0  0  0  0  0  0  0  0  0  0  0  0
   -7.6760   16.2470  -35.5700 C   0  0  0  0  0  0  0  0  0  0  0  0
   -5.6520   15.5520  -34.2470 C   0  0  0  0  0  0  0  0  0  0  0  0
   -7.1690   11.1210  -29.6010 C   0  0  0  0  0  0  0  0  0  0  0  0
   -5.3280    7.7460  -35.7790 C   0  0  0  0  0  0  0  0  0  0  0  0
   -6.5930   12.1190  -28.9300 N   0  0  0  0  0  0  0  0  0  0  0  0
   -7.7330   10.1910  -29.0350 O   0  0  0  0  0  0  0  0  0  0  0  0
   -5.6140    6.6180  -35.3820 O   0  0  0  0  0  0  0  0  0  0  0  0
   -4.4850    7.9540  -36.6840 O   0  0  0  0  0  0  0  0  0  0  0  0
   -3.6950    6.8460  -37.4040 C   0  0  0  0  0  0  0  0  0  0  0  0
   -2.6800    7.1950  -38.4770 C   0  0  0  0  0  0  0  0  0  0  0  0
  2  1  1  6
  3  2  1  0
  2  4  1  0
  3  5  1  0
  6  4  1  0
  4  7  1  0
  8  5  1  0
  5  9  1  0
  6 10  1  0
  8 11  1  1
  8 12  1  0
 10 13  1  1
 10 14  1  0
 12 15  1  0
 13 16  1  0
 14 17  1  0
 15 18  1  0
 15 19  1  0
 16 20  1  0
 17 21  1  0
 20 22  1  0
 20 23  1  0
 21 24  1  0
 21 25  1  0
 26 25  1  0
 26 27  1  0
A    2
 C3 
A    3
 N1 
A    4
 C1 
A    5
 C1 
A    6
 N1 
A    7
 O1 
A    8
 C3 
A    9
 O1 
A   10
 C3 
A   12
 C5 
A   13
 C5 
A   14
 C38
A   15
 C6 
A   16
 C6 
A   17
 C39
A   18
 C7 
A   19
 C8 
A   20
 C13
A   21
 C40
A   22
 N7 
A   23
 O4 
A   24
 O10
A   25
 O11
A   26
 C36
A   27
 C37
M  END
>  <XChem_code>  (972) 
polymer

>  <Occupancy>  (972) 
[1.0, 1.0, 1.0, 1.0, 1.0, 1.0, 1.0, 1.0, 1.0, 1.0, 1.0, 1.0, 1.0, 1.0, 1.0, 1.0, 1.0, 1.0, 1.0, 1.0, 1.0, 1.0, 1.0, 1.0, 1.0, 1.0, 1.0, 1.0, 1.0, 1.0, 1.0, 1.0, 1.0, 1.0, 1.0, 1.0, 1.0, 1.0, 1.0, 1.0, 1.0, 1.0, 1.0, 1.0, 1.0, 1.0, 1.0, 1.0, 1.0, 1.0, 1.0, 1.0, 1.0, 1.0, 1.0, 1.0, 1.0, 1.0]

>  <TempFactor>  (972) 
[0.0, 0.0, 0.0, 0.0, 0.0, 0.0, 0.0, 0.0, 0.0, 0.0, 0.0, 0.0, 0.0, 0.0, 0.0, 0.0, 0.0, 0.0, 0.0, 0.0, 0.0, 0.0, 0.0, 0.0, 0.0, 0.0, 0.0, 0.0, 0.0, 0.0, 0.0, 0.0, 0.0, 0.0, 0.0, 0.0, 0.0, 0.0, 0.0, 0.0, 0.0, 0.0, 0.0, 0.0, 0.0, 0.0, 0.0, 0.0, 0.0, 0.0, 0.0, 0.0, 0.0, 0.0, 0.0, 0.0, 0.0, 0.0]

>  <base_name>  (972) 
2b0f

>  <lig_resn>  (972) 
None

>  <lig_resi>  (972) 
1

>  <lig_chain>  (972) 
B

>  <lig_segi>  (972) 


>  <lig_alt>  (972) 


>  <polymer_chain>  (972) 
A

>  <single_smiles>  (972) 
None

$$$$
polymerS82
     RDKit          3D

 19 18  0  0  0  0  0  0  0  0999 V2000
   -9.8560   12.2790  -36.2650 C   0  0  0  0  0  0  0  0  0  0  0  0
   -9.7190   12.5240  -34.7630 C   0  0  2  0  0  0  0  0  0  0  0  0
   -9.6030   13.9290  -34.4410 N   0  0  0  0  0  0  0  0  0  0  0  0
   -8.4470   11.8470  -34.2880 C   0  0  0  0  0  0  0  0  0  0  0  0
   -8.5240   10.6110  -33.8090 N   0  0  0  0  0  0  0  0  0  0  0  0
   -7.3750   12.4480  -34.3620 O   0  0  0  0  0  0  0  0  0  0  0  0
   -7.3190    9.9670  -33.3460 C   0  0  1  0  0  0  0  0  0  0  0  0
   -7.3310    9.8470  -31.8170 C   0  0  0  0  0  0  0  0  0  0  0  0
   -7.0030    8.6240  -34.0690 C   0  0  0  0  0  0  0  0  0  0  0  0
   -7.1160   11.1980  -31.1200 C   0  0  0  0  0  0  0  0  0  0  0  0
   -5.9970    8.9560  -35.1740 C   0  0  0  0  0  0  0  0  0  0  0  0
   -7.1690   11.1210  -29.6010 C   0  0  0  0  0  0  0  0  0  0  0  0
   -5.3280    7.7460  -35.7790 C   0  0  0  0  0  0  0  0  0  0  0  0
   -6.5930   12.1190  -28.9300 N   0  0  0  0  0  0  0  0  0  0  0  0
   -7.7330   10.1910  -29.0350 O   0  0  0  0  0  0  0  0  0  0  0  0
   -5.6140    6.6180  -35.3820 O   0  0  0  0  0  0  0  0  0  0  0  0
   -4.4850    7.9540  -36.6840 O   0  0  0  0  0  0  0  0  0  0  0  0
   -3.6950    6.8460  -37.4040 C   0  0  0  0  0  0  0  0  0  0  0  0
   -2.6800    7.1950  -38.4770 C   0  0  0  0  0  0  0  0  0  0  0  0
  2  1  1  6
  3  2  1  0
  2  4  1  0
  5  4  1  0
  4  6  1  0
  5  7  1  0
  7  8  1  1
  7  9  1  0
  8 10  1  0
  9 11  1  0
 10 12  1  0
 11 13  1  0
 12 14  1  0
 12 15  1  0
 13 16  1  0
 13 17  1  0
 18 17  1  0
 18 19  1  0
A    2
 C3 
A    4
 C1 
A    5
 N1 
A    6
 O1 
A    7
 C3 
A    8
 C5 
A    9
 C38
A   10
 C6 
A   11
 C39
A   12
 C13
A   13
 C40
A   14
 N7 
A   15
 O4 
A   16
 O10
A   17
 O11
A   18
 C36
A   19
 C37
M  END
>  <XChem_code>  (973) 
polymer

>  <Occupancy>  (973) 
[1.0, 1.0, 1.0, 1.0, 1.0, 1.0, 1.0, 1.0, 1.0, 1.0, 1.0, 1.0, 1.0, 1.0, 1.0, 1.0, 1.0, 1.0, 1.0, 1.0, 1.0, 1.0, 1.0, 1.0, 1.0, 1.0, 1.0, 1.0, 1.0, 1.0, 1.0, 1.0, 1.0, 1.0, 1.0, 1.0, 1.0, 1.0, 1.0, 1.0, 1.0, 1.0, 1.0, 1.0, 1.0, 1.0, 1.0, 1.0, 1.0, 1.0, 1.0, 1.0, 1.0, 1.0, 1.0, 1.0, 1.0, 1.0]

>  <TempFactor>  (973) 
[0.0, 0.0, 0.0, 0.0, 0.0, 0.0, 0.0, 0.0, 0.0, 0.0, 0.0, 0.0, 0.0, 0.0, 0.0, 0.0, 0.0, 0.0, 0.0, 0.0, 0.0, 0.0, 0.0, 0.0, 0.0, 0.0, 0.0, 0.0, 0.0, 0.0, 0.0, 0.0, 0.0, 0.0, 0.0, 0.0, 0.0, 0.0, 0.0, 0.0, 0.0, 0.0, 0.0, 0.0, 0.0, 0.0, 0.0, 0.0, 0.0, 0.0, 0.0, 0.0, 0.0, 0.0, 0.0, 0.0, 0.0, 0.0]

>  <base_name>  (973) 
2b0f

>  <lig_resn>  (973) 
None

>  <lig_resi>  (973) 
1

>  <lig_chain>  (973) 
B

>  <lig_segi>  (973) 


>  <lig_alt>  (973) 


>  <polymer_chain>  (973) 
A

>  <single_smiles>  (973) 
None

$$$$
polymerS83
     RDKit          3D

 38 37  0  0  0  0  0  0  0  0999 V2000
   -9.8560   12.2790  -36.2650 C   0  0  0  0  0  0  0  0  0  0  0  0
   -9.7190   12.5240  -34.7630 C   0  0  1  0  0  0  0  0  0  0  0  0
   -8.4470   11.8470  -34.2880 C   0  0  0  0  0  0  0  0  0  0  0  0
   -9.6030   13.9290  -34.4410 N   0  0  0  0  0  0  0  0  0  0  0  0
   -7.3750   12.4480  -34.3620 O   0  0  0  0  0  0  0  0  0  0  0  0
   -9.4760   14.3090  -33.1760 C   0  0  0  0  0  0  0  0  0  0  0  0
   -9.2690   15.7910  -32.9510 C   0  0  1  0  0  0  0  0  0  0  0  0
   -9.5290   13.5200  -32.2290 O   0  0  0  0  0  0  0  0  0  0  0  0
   -9.7350   16.2520  -31.6700 N   0  0  0  0  0  0  0  0  0  0  0  0
   -7.7900   16.0900  -33.0900 C   0  0  0  0  0  0  0  0  0  0  0  0
  -10.8520   16.9140  -31.5780 C   0  0  0  0  0  0  0  0  0  0  0  0
   -7.1690   15.4980  -34.3400 C   0  0  0  0  0  0  0  0  0  0  0  0
  -11.2320   17.4190  -30.2140 C   0  0  1  0  0  0  0  0  0  0  0  0
  -11.5590   17.1540  -32.5510 O   0  0  0  0  0  0  0  0  0  0  0  0
   -7.6760   16.2470  -35.5700 C   0  0  0  0  0  0  0  0  0  0  0  0
   -5.6520   15.5520  -34.2470 C   0  0  0  0  0  0  0  0  0  0  0  0
  -11.9720   18.6270  -30.4030 N   0  0  0  0  0  0  0  0  0  0  0  0
  -12.0320   16.4040  -29.4200 C   0  0  0  0  0  0  0  0  0  0  0  0
  -11.3450   19.7670  -30.6210 C   0  0  1  0  0  0  0  0  0  0  0  0
  -12.2360   20.9510  -30.8060 C   0  0  1  0  0  0  0  0  0  0  0  0
  -10.1190   19.8830  -30.5960 O   0  0  0  0  0  0  0  0  0  0  0  0
  -12.5790   21.3540  -29.4810 N   0  0  0  0  0  0  0  0  0  0  0  0
  -11.5450   22.0000  -31.6560 C   0  0  0  0  0  0  0  0  0  0  0  0
  -13.8200   21.2840  -29.0930 C   0  0  0  0  0  0  0  0  0  0  0  0
  -11.2540   21.4640  -33.0520 C   0  0  0  0  0  0  0  0  0  0  0  0
  -14.0680   21.5380  -27.6320 C   0  0  1  0  0  0  0  0  0  0  0  0
  -14.7460   21.0290  -29.8620 O   0  0  0  0  0  0  0  0  0  0  0  0
  -10.4830   22.4400  -33.9180 C   0  0  0  0  0  0  0  0  0  0  0  0
  -15.3620   22.1790  -27.4390 N   0  0  0  0  0  0  0  0  0  0  0  0
  -13.9740   20.1330  -27.0070 C   0  0  0  0  0  0  0  0  0  0  0  0
  -11.1230   23.2880  -34.5660 O   0  0  0  0  0  0  0  0  0  0  0  0
   -9.2440   22.3600  -33.9420 O   0  0  0  0  0  0  0  0  0  0  0  0
  -15.4630   23.2690  -26.7060 C   0  0  1  0  0  0  0  0  0  0  0  0
  -14.0270   19.9780  -25.4860 C   0  0  0  0  0  0  0  0  0  0  0  0
  -14.4890   23.9180  -26.3430 O   0  0  0  0  0  0  0  0  0  0  0  0
  -16.8540   23.8480  -26.6190 C   0  0  0  0  0  0  0  0  0  0  0  0
  -13.2440   21.0650  -24.7650 C   0  0  0  0  0  0  0  0  0  0  0  0
  -15.4650   19.9240  -25.0200 C   0  0  0  0  0  0  0  0  0  0  0  0
  2  1  1  6
  2  3  1  0
  4  2  1  0
  3  5  1  0
  4  6  1  0
  7  6  1  0
  6  8  1  0
  9  7  1  0
  7 10  1  1
  9 11  1  0
 10 12  1  0
 13 11  1  0
 11 14  1  0
 12 15  1  0
 12 16  1  0
 17 13  1  0
 13 18  1  6
 17 19  1  0
 20 19  1  0
 19 21  1  1
 22 20  1  0
 20 23  1  1
 22 24  1  0
 23 25  1  0
 26 24  1  0
 24 27  1  0
 25 28  1  0
 29 26  1  0
 26 30  1  1
 28 31  1  0
 28 32  1  0
 29 33  1  0
 30 34  1  0
 33 35  1  0
 33 36  1  6
 34 37  1  0
 34 38  1  0
M  CHG  1  32  -1
A    2
 C3 
A    4
 N1 
A    5
 O1 
A    6
 C1 
A    7
 C3 
A    8
 O1 
A    9
 N1 
A   10
 C5 
A   11
 C1 
A   12
 C6 
A   13
 C3 
A   14
 O1 
A   15
 C7 
A   16
 C8 
A   17
 N1 
A   18
 C5 
A   19
 C1 
A   20
 C3 
A   21
 O1 
A   22
 N1 
A   23
 C5 
A   24
 C1 
A   25
 C6 
A   26
 C3 
A   27
 O1 
A   28
 C13
A   29
 N1 
A   30
 C5 
A   31
 O4 
A   32
 O5 
A   33
 C1 
A   34
 C6 
A   35
 O1 
A   36
 C2 
A   37
 C7 
A   38
 C8 
M  END
>  <XChem_code>  (974) 
polymer

>  <Occupancy>  (974) 
[1.0, 1.0, 1.0, 1.0, 1.0, 1.0, 1.0, 1.0, 1.0, 1.0, 1.0, 1.0, 1.0, 1.0, 1.0, 1.0, 1.0, 1.0, 1.0, 1.0, 1.0, 1.0, 1.0, 1.0, 1.0, 1.0, 1.0, 1.0, 1.0, 1.0, 1.0, 1.0, 1.0, 1.0, 1.0, 1.0, 1.0, 1.0, 1.0, 1.0, 1.0, 1.0, 1.0, 1.0, 1.0, 1.0, 1.0, 1.0, 1.0, 1.0, 1.0, 1.0, 1.0, 1.0, 1.0, 1.0, 1.0, 1.0]

>  <TempFactor>  (974) 
[0.0, 0.0, 0.0, 0.0, 0.0, 0.0, 0.0, 0.0, 0.0, 0.0, 0.0, 0.0, 0.0, 0.0, 0.0, 0.0, 0.0, 0.0, 0.0, 0.0, 0.0, 0.0, 0.0, 0.0, 0.0, 0.0, 0.0, 0.0, 0.0, 0.0, 0.0, 0.0, 0.0, 0.0, 0.0, 0.0, 0.0, 0.0, 0.0, 0.0, 0.0, 0.0, 0.0, 0.0, 0.0, 0.0, 0.0, 0.0, 0.0, 0.0, 0.0, 0.0, 0.0, 0.0, 0.0, 0.0, 0.0, 0.0]

>  <base_name>  (974) 
2b0f

>  <lig_resn>  (974) 
None

>  <lig_resi>  (974) 
1

>  <lig_chain>  (974) 
B

>  <lig_segi>  (974) 


>  <lig_alt>  (974) 


>  <polymer_chain>  (974) 
A

>  <single_smiles>  (974) 
None

$$$$
polymerS84
     RDKit          3D

 34 33  0  0  0  0  0  0  0  0999 V2000
   -9.8560   12.2790  -36.2650 C   0  0  0  0  0  0  0  0  0  0  0  0
   -9.7190   12.5240  -34.7630 C   0  0  1  0  0  0  0  0  0  0  0  0
   -8.4470   11.8470  -34.2880 C   0  0  0  0  0  0  0  0  0  0  0  0
   -9.6030   13.9290  -34.4410 N   0  0  0  0  0  0  0  0  0  0  0  0
   -7.3750   12.4480  -34.3620 O   0  0  0  0  0  0  0  0  0  0  0  0
   -9.4760   14.3090  -33.1760 C   0  0  0  0  0  0  0  0  0  0  0  0
   -9.2690   15.7910  -32.9510 C   0  0  1  0  0  0  0  0  0  0  0  0
   -9.5290   13.5200  -32.2290 O   0  0  0  0  0  0  0  0  0  0  0  0
   -9.7350   16.2520  -31.6700 N   0  0  0  0  0  0  0  0  0  0  0  0
   -7.7900   16.0900  -33.0900 C   0  0  0  0  0  0  0  0  0  0  0  0
  -10.8520   16.9140  -31.5780 C   0  0  0  0  0  0  0  0  0  0  0  0
   -7.1690   15.4980  -34.3400 C   0  0  0  0  0  0  0  0  0  0  0  0
  -11.2320   17.4190  -30.2140 C   0  0  1  0  0  0  0  0  0  0  0  0
  -11.5590   17.1540  -32.5510 O   0  0  0  0  0  0  0  0  0  0  0  0
   -7.6760   16.2470  -35.5700 C   0  0  0  0  0  0  0  0  0  0  0  0
   -5.6520   15.5520  -34.2470 C   0  0  0  0  0  0  0  0  0  0  0  0
  -11.9720   18.6270  -30.4030 N   0  0  0  0  0  0  0  0  0  0  0  0
  -12.0320   16.4040  -29.4200 C   0  0  0  0  0  0  0  0  0  0  0  0
  -11.3450   19.7670  -30.6210 C   0  0  1  0  0  0  0  0  0  0  0  0
  -12.2360   20.9510  -30.8060 C   0  0  1  0  0  0  0  0  0  0  0  0
  -10.1190   19.8830  -30.5960 O   0  0  0  0  0  0  0  0  0  0  0  0
  -12.5790   21.3540  -29.4810 N   0  0  0  0  0  0  0  0  0  0  0  0
  -11.5450   22.0000  -31.6560 C   0  0  0  0  0  0  0  0  0  0  0  0
  -13.8200   21.2840  -29.0930 C   0  0  0  0  0  0  0  0  0  0  0  0
  -11.2540   21.4640  -33.0520 C   0  0  0  0  0  0  0  0  0  0  0  0
  -14.0680   21.5380  -27.6320 C   0  0  0  0  0  0  0  0  0  0  0  0
  -14.7460   21.0290  -29.8620 O   0  0  0  0  0  0  0  0  0  0  0  0
  -10.4830   22.4400  -33.9180 C   0  0  0  0  0  0  0  0  0  0  0  0
  -13.9740   20.1330  -27.0070 C   0  0  0  0  0  0  0  0  0  0  0  0
  -11.1230   23.2880  -34.5660 O   0  0  0  0  0  0  0  0  0  0  0  0
   -9.2440   22.3600  -33.9420 O   0  0  0  0  0  0  0  0  0  0  0  0
  -14.0270   19.9780  -25.4860 C   0  0  0  0  0  0  0  0  0  0  0  0
  -13.2440   21.0650  -24.7650 C   0  0  0  0  0  0  0  0  0  0  0  0
  -15.4650   19.9240  -25.0200 C   0  0  0  0  0  0  0  0  0  0  0  0
  2  1  1  6
  2  3  1  0
  4  2  1  0
  3  5  1  0
  4  6  1  0
  7  6  1  0
  6  8  1  0
  9  7  1  0
  7 10  1  1
  9 11  1  0
 10 12  1  0
 13 11  1  0
 11 14  1  0
 12 15  1  0
 12 16  1  0
 17 13  1  0
 13 18  1  6
 17 19  1  0
 20 19  1  0
 19 21  1  1
 22 20  1  0
 20 23  1  1
 22 24  1  0
 23 25  1  0
 26 24  1  0
 24 27  1  0
 25 28  1  0
 26 29  1  6
 28 30  1  0
 28 31  1  0
 29 32  1  0
 32 33  1  0
 32 34  1  0
M  CHG  1  31  -1
A    2
 C3 
A    4
 N1 
A    5
 O1 
A    6
 C1 
A    7
 C3 
A    8
 O1 
A    9
 N1 
A   10
 C5 
A   11
 C1 
A   12
 C6 
A   13
 C3 
A   14
 O1 
A   15
 C7 
A   16
 C8 
A   17
 N1 
A   18
 C5 
A   19
 C1 
A   20
 C3 
A   21
 O1 
A   22
 N1 
A   23
 C5 
A   24
 C1 
A   25
 C6 
A   27
 O1 
A   28
 C13
A   29
 C5 
A   30
 O4 
A   31
 O5 
A   32
 C6 
A   33
 C7 
A   34
 C8 
M  END
>  <XChem_code>  (975) 
polymer

>  <Occupancy>  (975) 
[1.0, 1.0, 1.0, 1.0, 1.0, 1.0, 1.0, 1.0, 1.0, 1.0, 1.0, 1.0, 1.0, 1.0, 1.0, 1.0, 1.0, 1.0, 1.0, 1.0, 1.0, 1.0, 1.0, 1.0, 1.0, 1.0, 1.0, 1.0, 1.0, 1.0, 1.0, 1.0, 1.0, 1.0, 1.0, 1.0, 1.0, 1.0, 1.0, 1.0, 1.0, 1.0, 1.0, 1.0, 1.0, 1.0, 1.0, 1.0, 1.0, 1.0, 1.0, 1.0, 1.0, 1.0, 1.0, 1.0, 1.0, 1.0]

>  <TempFactor>  (975) 
[0.0, 0.0, 0.0, 0.0, 0.0, 0.0, 0.0, 0.0, 0.0, 0.0, 0.0, 0.0, 0.0, 0.0, 0.0, 0.0, 0.0, 0.0, 0.0, 0.0, 0.0, 0.0, 0.0, 0.0, 0.0, 0.0, 0.0, 0.0, 0.0, 0.0, 0.0, 0.0, 0.0, 0.0, 0.0, 0.0, 0.0, 0.0, 0.0, 0.0, 0.0, 0.0, 0.0, 0.0, 0.0, 0.0, 0.0, 0.0, 0.0, 0.0, 0.0, 0.0, 0.0, 0.0, 0.0, 0.0, 0.0, 0.0]

>  <base_name>  (975) 
2b0f

>  <lig_resn>  (975) 
None

>  <lig_resi>  (975) 
1

>  <lig_chain>  (975) 
B

>  <lig_segi>  (975) 


>  <lig_alt>  (975) 


>  <polymer_chain>  (975) 
A

>  <single_smiles>  (975) 
None

$$$$
polymerS85
     RDKit          3D

 35 34  0  0  0  0  0  0  0  0999 V2000
   -9.8560   12.2790  -36.2650 C   0  0  0  0  0  0  0  0  0  0  0  0
   -9.7190   12.5240  -34.7630 C   0  0  1  0  0  0  0  0  0  0  0  0
   -8.4470   11.8470  -34.2880 C   0  0  0  0  0  0  0  0  0  0  0  0
   -9.6030   13.9290  -34.4410 N   0  0  0  0  0  0  0  0  0  0  0  0
   -8.5240   10.6110  -33.8090 N   0  0  0  0  0  0  0  0  0  0  0  0
   -7.3750   12.4480  -34.3620 O   0  0  0  0  0  0  0  0  0  0  0  0
   -9.4760   14.3090  -33.1760 C   0  0  0  0  0  0  0  0  0  0  0  0
   -9.2690   15.7910  -32.9510 C   0  0  1  0  0  0  0  0  0  0  0  0
   -9.5290   13.5200  -32.2290 O   0  0  0  0  0  0  0  0  0  0  0  0
   -9.7350   16.2520  -31.6700 N   0  0  0  0  0  0  0  0  0  0  0  0
   -7.7900   16.0900  -33.0900 C   0  0  0  0  0  0  0  0  0  0  0  0
  -10.8520   16.9140  -31.5780 C   0  0  0  0  0  0  0  0  0  0  0  0
   -7.1690   15.4980  -34.3400 C   0  0  0  0  0  0  0  0  0  0  0  0
  -11.2320   17.4190  -30.2140 C   0  0  1  0  0  0  0  0  0  0  0  0
  -11.5590   17.1540  -32.5510 O   0  0  0  0  0  0  0  0  0  0  0  0
   -7.6760   16.2470  -35.5700 C   0  0  0  0  0  0  0  0  0  0  0  0
   -5.6520   15.5520  -34.2470 C   0  0  0  0  0  0  0  0  0  0  0  0
  -11.9720   18.6270  -30.4030 N   0  0  0  0  0  0  0  0  0  0  0  0
  -12.0320   16.4040  -29.4200 C   0  0  0  0  0  0  0  0  0  0  0  0
  -11.3450   19.7670  -30.6210 C   0  0  1  0  0  0  0  0  0  0  0  0
  -12.2360   20.9510  -30.8060 C   0  0  1  0  0  0  0  0  0  0  0  0
  -10.1190   19.8830  -30.5960 O   0  0  0  0  0  0  0  0  0  0  0  0
  -12.5790   21.3540  -29.4810 N   0  0  0  0  0  0  0  0  0  0  0  0
  -11.5450   22.0000  -31.6560 C   0  0  0  0  0  0  0  0  0  0  0  0
  -13.8200   21.2840  -29.0930 C   0  0  0  0  0  0  0  0  0  0  0  0
  -11.2540   21.4640  -33.0520 C   0  0  0  0  0  0  0  0  0  0  0  0
  -14.0680   21.5380  -27.6320 C   0  0  0  0  0  0  0  0  0  0  0  0
  -14.7460   21.0290  -29.8620 O   0  0  0  0  0  0  0  0  0  0  0  0
  -10.4830   22.4400  -33.9180 C   0  0  0  0  0  0  0  0  0  0  0  0
  -13.9740   20.1330  -27.0070 C   0  0  0  0  0  0  0  0  0  0  0  0
  -11.1230   23.2880  -34.5660 O   0  0  0  0  0  0  0  0  0  0  0  0
   -9.2440   22.3600  -33.9420 O   0  0  0  0  0  0  0  0  0  0  0  0
  -14.0270   19.9780  -25.4860 C   0  0  0  0  0  0  0  0  0  0  0  0
  -13.2440   21.0650  -24.7650 C   0  0  0  0  0  0  0  0  0  0  0  0
  -15.4650   19.9240  -25.0200 C   0  0  0  0  0  0  0  0  0  0  0  0
  2  1  1  6
  2  3  1  0
  4  2  1  0
  5  3  1  0
  3  6  1  0
  4  7  1  0
  8  7  1  0
  7  9  1  0
 10  8  1  0
  8 11  1  1
 10 12  1  0
 11 13  1  0
 14 12  1  0
 12 15  1  0
 13 16  1  0
 13 17  1  0
 18 14  1  0
 14 19  1  6
 18 20  1  0
 21 20  1  0
 20 22  1  1
 23 21  1  0
 21 24  1  1
 23 25  1  0
 24 26  1  0
 27 25  1  0
 25 28  1  0
 26 29  1  0
 27 30  1  6
 29 31  1  0
 29 32  1  0
 30 33  1  0
 33 34  1  0
 33 35  1  0
M  CHG  1  32  -1
A    2
 C3 
A    3
 C1 
A    4
 N1 
A    6
 O1 
A    7
 C1 
A    8
 C3 
A    9
 O1 
A   10
 N1 
A   11
 C5 
A   12
 C1 
A   13
 C6 
A   14
 C3 
A   15
 O1 
A   16
 C7 
A   17
 C8 
A   18
 N1 
A   19
 C5 
A   20
 C1 
A   21
 C3 
A   22
 O1 
A   23
 N1 
A   24
 C5 
A   25
 C1 
A   26
 C6 
A   28
 O1 
A   29
 C13
A   30
 C5 
A   31
 O4 
A   32
 O5 
A   33
 C6 
A   34
 C7 
A   35
 C8 
M  END
>  <XChem_code>  (976) 
polymer

>  <Occupancy>  (976) 
[1.0, 1.0, 1.0, 1.0, 1.0, 1.0, 1.0, 1.0, 1.0, 1.0, 1.0, 1.0, 1.0, 1.0, 1.0, 1.0, 1.0, 1.0, 1.0, 1.0, 1.0, 1.0, 1.0, 1.0, 1.0, 1.0, 1.0, 1.0, 1.0, 1.0, 1.0, 1.0, 1.0, 1.0, 1.0, 1.0, 1.0, 1.0, 1.0, 1.0, 1.0, 1.0, 1.0, 1.0, 1.0, 1.0, 1.0, 1.0, 1.0, 1.0, 1.0, 1.0, 1.0, 1.0, 1.0, 1.0, 1.0, 1.0]

>  <TempFactor>  (976) 
[0.0, 0.0, 0.0, 0.0, 0.0, 0.0, 0.0, 0.0, 0.0, 0.0, 0.0, 0.0, 0.0, 0.0, 0.0, 0.0, 0.0, 0.0, 0.0, 0.0, 0.0, 0.0, 0.0, 0.0, 0.0, 0.0, 0.0, 0.0, 0.0, 0.0, 0.0, 0.0, 0.0, 0.0, 0.0, 0.0, 0.0, 0.0, 0.0, 0.0, 0.0, 0.0, 0.0, 0.0, 0.0, 0.0, 0.0, 0.0, 0.0, 0.0, 0.0, 0.0, 0.0, 0.0, 0.0, 0.0, 0.0, 0.0]

>  <base_name>  (976) 
2b0f

>  <lig_resn>  (976) 
None

>  <lig_resi>  (976) 
1

>  <lig_chain>  (976) 
B

>  <lig_segi>  (976) 


>  <lig_alt>  (976) 


>  <polymer_chain>  (976) 
A

>  <single_smiles>  (976) 
None

$$$$
polymerS86
     RDKit          3D

 26 25  0  0  0  0  0  0  0  0999 V2000
   -9.8560   12.2790  -36.2650 C   0  0  0  0  0  0  0  0  0  0  0  0
   -9.7190   12.5240  -34.7630 C   0  0  1  0  0  0  0  0  0  0  0  0
   -8.4470   11.8470  -34.2880 C   0  0  0  0  0  0  0  0  0  0  0  0
   -9.6030   13.9290  -34.4410 N   0  0  0  0  0  0  0  0  0  0  0  0
   -7.3750   12.4480  -34.3620 O   0  0  0  0  0  0  0  0  0  0  0  0
   -9.4760   14.3090  -33.1760 C   0  0  0  0  0  0  0  0  0  0  0  0
   -9.2690   15.7910  -32.9510 C   0  0  1  0  0  0  0  0  0  0  0  0
   -9.5290   13.5200  -32.2290 O   0  0  0  0  0  0  0  0  0  0  0  0
   -9.7350   16.2520  -31.6700 N   0  0  0  0  0  0  0  0  0  0  0  0
   -7.7900   16.0900  -33.0900 C   0  0  0  0  0  0  0  0  0  0  0  0
  -10.8520   16.9140  -31.5780 C   0  0  0  0  0  0  0  0  0  0  0  0
   -7.1690   15.4980  -34.3400 C   0  0  0  0  0  0  0  0  0  0  0  0
  -11.2320   17.4190  -30.2140 C   0  0  1  0  0  0  0  0  0  0  0  0
  -11.5590   17.1540  -32.5510 O   0  0  0  0  0  0  0  0  0  0  0  0
   -7.6760   16.2470  -35.5700 C   0  0  0  0  0  0  0  0  0  0  0  0
   -5.6520   15.5520  -34.2470 C   0  0  0  0  0  0  0  0  0  0  0  0
  -11.9720   18.6270  -30.4030 N   0  0  0  0  0  0  0  0  0  0  0  0
  -12.0320   16.4040  -29.4200 C   0  0  0  0  0  0  0  0  0  0  0  0
  -11.3450   19.7670  -30.6210 C   0  0  1  0  0  0  0  0  0  0  0  0
  -12.2360   20.9510  -30.8060 C   0  0  0  0  0  0  0  0  0  0  0  0
  -10.1190   19.8830  -30.5960 O   0  0  0  0  0  0  0  0  0  0  0  0
  -11.5450   22.0000  -31.6560 C   0  0  0  0  0  0  0  0  0  0  0  0
  -11.2540   21.4640  -33.0520 C   0  0  0  0  0  0  0  0  0  0  0  0
  -10.4830   22.4400  -33.9180 C   0  0  0  0  0  0  0  0  0  0  0  0
  -11.1230   23.2880  -34.5660 O   0  0  0  0  0  0  0  0  0  0  0  0
   -9.2440   22.3600  -33.9420 O   0  0  0  0  0  0  0  0  0  0  0  0
  2  1  1  6
  2  3  1  0
  4  2  1  0
  3  5  1  0
  4  6  1  0
  7  6  1  0
  6  8  1  0
  9  7  1  0
  7 10  1  1
  9 11  1  0
 10 12  1  0
 13 11  1  0
 11 14  1  0
 12 15  1  0
 12 16  1  0
 17 13  1  0
 13 18  1  6
 17 19  1  0
 20 19  1  0
 19 21  1  1
 20 22  1  6
 22 23  1  0
 23 24  1  0
 24 25  1  0
 24 26  1  0
M  CHG  1  26  -1
A    2
 C3 
A    4
 N1 
A    5
 O1 
A    6
 C1 
A    7
 C3 
A    8
 O1 
A    9
 N1 
A   10
 C5 
A   11
 C1 
A   12
 C6 
A   13
 C3 
A   14
 O1 
A   15
 C7 
A   16
 C8 
A   17
 N1 
A   18
 C5 
A   19
 C1 
A   21
 O1 
A   22
 C5 
A   23
 C6 
A   24
 C13
A   25
 O4 
A   26
 O5 
M  END
>  <XChem_code>  (977) 
polymer

>  <Occupancy>  (977) 
[1.0, 1.0, 1.0, 1.0, 1.0, 1.0, 1.0, 1.0, 1.0, 1.0, 1.0, 1.0, 1.0, 1.0, 1.0, 1.0, 1.0, 1.0, 1.0, 1.0, 1.0, 1.0, 1.0, 1.0, 1.0, 1.0, 1.0, 1.0, 1.0, 1.0, 1.0, 1.0, 1.0, 1.0, 1.0, 1.0, 1.0, 1.0, 1.0, 1.0, 1.0, 1.0, 1.0, 1.0, 1.0, 1.0, 1.0, 1.0, 1.0, 1.0, 1.0, 1.0, 1.0, 1.0, 1.0, 1.0, 1.0, 1.0]

>  <TempFactor>  (977) 
[0.0, 0.0, 0.0, 0.0, 0.0, 0.0, 0.0, 0.0, 0.0, 0.0, 0.0, 0.0, 0.0, 0.0, 0.0, 0.0, 0.0, 0.0, 0.0, 0.0, 0.0, 0.0, 0.0, 0.0, 0.0, 0.0, 0.0, 0.0, 0.0, 0.0, 0.0, 0.0, 0.0, 0.0, 0.0, 0.0, 0.0, 0.0, 0.0, 0.0, 0.0, 0.0, 0.0, 0.0, 0.0, 0.0, 0.0, 0.0, 0.0, 0.0, 0.0, 0.0, 0.0, 0.0, 0.0, 0.0, 0.0, 0.0]

>  <base_name>  (977) 
2b0f

>  <lig_resn>  (977) 
None

>  <lig_resi>  (977) 
1

>  <lig_chain>  (977) 
B

>  <lig_segi>  (977) 


>  <lig_alt>  (977) 


>  <polymer_chain>  (977) 
A

>  <single_smiles>  (977) 
None

$$$$
polymerS87
     RDKit          3D

 27 26  0  0  0  0  0  0  0  0999 V2000
   -9.8560   12.2790  -36.2650 C   0  0  0  0  0  0  0  0  0  0  0  0
   -9.7190   12.5240  -34.7630 C   0  0  1  0  0  0  0  0  0  0  0  0
   -8.4470   11.8470  -34.2880 C   0  0  0  0  0  0  0  0  0  0  0  0
   -9.6030   13.9290  -34.4410 N   0  0  0  0  0  0  0  0  0  0  0  0
   -8.5240   10.6110  -33.8090 N   0  0  0  0  0  0  0  0  0  0  0  0
   -7.3750   12.4480  -34.3620 O   0  0  0  0  0  0  0  0  0  0  0  0
   -9.4760   14.3090  -33.1760 C   0  0  0  0  0  0  0  0  0  0  0  0
   -9.2690   15.7910  -32.9510 C   0  0  1  0  0  0  0  0  0  0  0  0
   -9.5290   13.5200  -32.2290 O   0  0  0  0  0  0  0  0  0  0  0  0
   -9.7350   16.2520  -31.6700 N   0  0  0  0  0  0  0  0  0  0  0  0
   -7.7900   16.0900  -33.0900 C   0  0  0  0  0  0  0  0  0  0  0  0
  -10.8520   16.9140  -31.5780 C   0  0  0  0  0  0  0  0  0  0  0  0
   -7.1690   15.4980  -34.3400 C   0  0  0  0  0  0  0  0  0  0  0  0
  -11.2320   17.4190  -30.2140 C   0  0  1  0  0  0  0  0  0  0  0  0
  -11.5590   17.1540  -32.5510 O   0  0  0  0  0  0  0  0  0  0  0  0
   -7.6760   16.2470  -35.5700 C   0  0  0  0  0  0  0  0  0  0  0  0
   -5.6520   15.5520  -34.2470 C   0  0  0  0  0  0  0  0  0  0  0  0
  -11.9720   18.6270  -30.4030 N   0  0  0  0  0  0  0  0  0  0  0  0
  -12.0320   16.4040  -29.4200 C   0  0  0  0  0  0  0  0  0  0  0  0
  -11.3450   19.7670  -30.6210 C   0  0  1  0  0  0  0  0  0  0  0  0
  -12.2360   20.9510  -30.8060 C   0  0  0  0  0  0  0  0  0  0  0  0
  -10.1190   19.8830  -30.5960 O   0  0  0  0  0  0  0  0  0  0  0  0
  -11.5450   22.0000  -31.6560 C   0  0  0  0  0  0  0  0  0  0  0  0
  -11.2540   21.4640  -33.0520 C   0  0  0  0  0  0  0  0  0  0  0  0
  -10.4830   22.4400  -33.9180 C   0  0  0  0  0  0  0  0  0  0  0  0
  -11.1230   23.2880  -34.5660 O   0  0  0  0  0  0  0  0  0  0  0  0
   -9.2440   22.3600  -33.9420 O   0  0  0  0  0  0  0  0  0  0  0  0
  2  1  1  6
  2  3  1  0
  4  2  1  0
  5  3  1  0
  3  6  1  0
  4  7  1  0
  8  7  1  0
  7  9  1  0
 10  8  1  0
  8 11  1  1
 10 12  1  0
 11 13  1  0
 14 12  1  0
 12 15  1  0
 13 16  1  0
 13 17  1  0
 18 14  1  0
 14 19  1  6
 18 20  1  0
 21 20  1  0
 20 22  1  1
 21 23  1  6
 23 24  1  0
 24 25  1  0
 25 26  1  0
 25 27  1  0
M  CHG  1  27  -1
A    2
 C3 
A    3
 C1 
A    4
 N1 
A    6
 O1 
A    7
 C1 
A    8
 C3 
A    9
 O1 
A   10
 N1 
A   11
 C5 
A   12
 C1 
A   13
 C6 
A   14
 C3 
A   15
 O1 
A   16
 C7 
A   17
 C8 
A   18
 N1 
A   19
 C5 
A   20
 C1 
A   22
 O1 
A   23
 C5 
A   24
 C6 
A   25
 C13
A   26
 O4 
A   27
 O5 
M  END
>  <XChem_code>  (978) 
polymer

>  <Occupancy>  (978) 
[1.0, 1.0, 1.0, 1.0, 1.0, 1.0, 1.0, 1.0, 1.0, 1.0, 1.0, 1.0, 1.0, 1.0, 1.0, 1.0, 1.0, 1.0, 1.0, 1.0, 1.0, 1.0, 1.0, 1.0, 1.0, 1.0, 1.0, 1.0, 1.0, 1.0, 1.0, 1.0, 1.0, 1.0, 1.0, 1.0, 1.0, 1.0, 1.0, 1.0, 1.0, 1.0, 1.0, 1.0, 1.0, 1.0, 1.0, 1.0, 1.0, 1.0, 1.0, 1.0, 1.0, 1.0, 1.0, 1.0, 1.0, 1.0]

>  <TempFactor>  (978) 
[0.0, 0.0, 0.0, 0.0, 0.0, 0.0, 0.0, 0.0, 0.0, 0.0, 0.0, 0.0, 0.0, 0.0, 0.0, 0.0, 0.0, 0.0, 0.0, 0.0, 0.0, 0.0, 0.0, 0.0, 0.0, 0.0, 0.0, 0.0, 0.0, 0.0, 0.0, 0.0, 0.0, 0.0, 0.0, 0.0, 0.0, 0.0, 0.0, 0.0, 0.0, 0.0, 0.0, 0.0, 0.0, 0.0, 0.0, 0.0, 0.0, 0.0, 0.0, 0.0, 0.0, 0.0, 0.0, 0.0, 0.0, 0.0]

>  <base_name>  (978) 
2b0f

>  <lig_resn>  (978) 
None

>  <lig_resi>  (978) 
1

>  <lig_chain>  (978) 
B

>  <lig_segi>  (978) 


>  <lig_alt>  (978) 


>  <polymer_chain>  (978) 
A

>  <single_smiles>  (978) 
None

$$$$
polymerS88
     RDKit          3D

 17 16  0  0  0  0  0  0  0  0999 V2000
   -9.8560   12.2790  -36.2650 C   0  0  0  0  0  0  0  0  0  0  0  0
   -9.7190   12.5240  -34.7630 C   0  0  1  0  0  0  0  0  0  0  0  0
   -8.4470   11.8470  -34.2880 C   0  0  0  0  0  0  0  0  0  0  0  0
   -9.6030   13.9290  -34.4410 N   0  0  0  0  0  0  0  0  0  0  0  0
   -7.3750   12.4480  -34.3620 O   0  0  0  0  0  0  0  0  0  0  0  0
   -9.4760   14.3090  -33.1760 C   0  0  0  0  0  0  0  0  0  0  0  0
   -9.2690   15.7910  -32.9510 C   0  0  1  0  0  0  0  0  0  0  0  0
   -9.5290   13.5200  -32.2290 O   0  0  0  0  0  0  0  0  0  0  0  0
   -9.7350   16.2520  -31.6700 N   0  0  0  0  0  0  0  0  0  0  0  0
   -7.7900   16.0900  -33.0900 C   0  0  0  0  0  0  0  0  0  0  0  0
  -10.8520   16.9140  -31.5780 C   0  0  0  0  0  0  0  0  0  0  0  0
   -7.1690   15.4980  -34.3400 C   0  0  0  0  0  0  0  0  0  0  0  0
  -11.2320   17.4190  -30.2140 C   0  0  0  0  0  0  0  0  0  0  0  0
  -11.5590   17.1540  -32.5510 O   0  0  0  0  0  0  0  0  0  0  0  0
   -7.6760   16.2470  -35.5700 C   0  0  0  0  0  0  0  0  0  0  0  0
   -5.6520   15.5520  -34.2470 C   0  0  0  0  0  0  0  0  0  0  0  0
  -12.0320   16.4040  -29.4200 C   0  0  0  0  0  0  0  0  0  0  0  0
  2  1  1  6
  2  3  1  0
  4  2  1  0
  3  5  1  0
  4  6  1  0
  7  6  1  0
  6  8  1  0
  9  7  1  0
  7 10  1  1
  9 11  1  0
 10 12  1  0
 13 11  1  0
 11 14  1  0
 12 15  1  0
 12 16  1  0
 13 17  1  6
A    2
 C3 
A    4
 N1 
A    5
 O1 
A    6
 C1 
A    7
 C3 
A    8
 O1 
A    9
 N1 
A   10
 C5 
A   11
 C1 
A   12
 C6 
A   14
 O1 
A   15
 C7 
A   16
 C8 
A   17
 C5 
M  END
>  <XChem_code>  (979) 
polymer

>  <Occupancy>  (979) 
[1.0, 1.0, 1.0, 1.0, 1.0, 1.0, 1.0, 1.0, 1.0, 1.0, 1.0, 1.0, 1.0, 1.0, 1.0, 1.0, 1.0, 1.0, 1.0, 1.0, 1.0, 1.0, 1.0, 1.0, 1.0, 1.0, 1.0, 1.0, 1.0, 1.0, 1.0, 1.0, 1.0, 1.0, 1.0, 1.0, 1.0, 1.0, 1.0, 1.0, 1.0, 1.0, 1.0, 1.0, 1.0, 1.0, 1.0, 1.0, 1.0, 1.0, 1.0, 1.0, 1.0, 1.0, 1.0, 1.0, 1.0, 1.0]

>  <TempFactor>  (979) 
[0.0, 0.0, 0.0, 0.0, 0.0, 0.0, 0.0, 0.0, 0.0, 0.0, 0.0, 0.0, 0.0, 0.0, 0.0, 0.0, 0.0, 0.0, 0.0, 0.0, 0.0, 0.0, 0.0, 0.0, 0.0, 0.0, 0.0, 0.0, 0.0, 0.0, 0.0, 0.0, 0.0, 0.0, 0.0, 0.0, 0.0, 0.0, 0.0, 0.0, 0.0, 0.0, 0.0, 0.0, 0.0, 0.0, 0.0, 0.0, 0.0, 0.0, 0.0, 0.0, 0.0, 0.0, 0.0, 0.0, 0.0, 0.0]

>  <base_name>  (979) 
2b0f

>  <lig_resn>  (979) 
None

>  <lig_resi>  (979) 
1

>  <lig_chain>  (979) 
B

>  <lig_segi>  (979) 


>  <lig_alt>  (979) 


>  <polymer_chain>  (979) 
A

>  <single_smiles>  (979) 
None

$$$$
polymerS89
     RDKit          3D

 18 17  0  0  0  0  0  0  0  0999 V2000
   -9.8560   12.2790  -36.2650 C   0  0  0  0  0  0  0  0  0  0  0  0
   -9.7190   12.5240  -34.7630 C   0  0  1  0  0  0  0  0  0  0  0  0
   -8.4470   11.8470  -34.2880 C   0  0  0  0  0  0  0  0  0  0  0  0
   -9.6030   13.9290  -34.4410 N   0  0  0  0  0  0  0  0  0  0  0  0
   -8.5240   10.6110  -33.8090 N   0  0  0  0  0  0  0  0  0  0  0  0
   -7.3750   12.4480  -34.3620 O   0  0  0  0  0  0  0  0  0  0  0  0
   -9.4760   14.3090  -33.1760 C   0  0  0  0  0  0  0  0  0  0  0  0
   -9.2690   15.7910  -32.9510 C   0  0  1  0  0  0  0  0  0  0  0  0
   -9.5290   13.5200  -32.2290 O   0  0  0  0  0  0  0  0  0  0  0  0
   -9.7350   16.2520  -31.6700 N   0  0  0  0  0  0  0  0  0  0  0  0
   -7.7900   16.0900  -33.0900 C   0  0  0  0  0  0  0  0  0  0  0  0
  -10.8520   16.9140  -31.5780 C   0  0  0  0  0  0  0  0  0  0  0  0
   -7.1690   15.4980  -34.3400 C   0  0  0  0  0  0  0  0  0  0  0  0
  -11.2320   17.4190  -30.2140 C   0  0  0  0  0  0  0  0  0  0  0  0
  -11.5590   17.1540  -32.5510 O   0  0  0  0  0  0  0  0  0  0  0  0
   -7.6760   16.2470  -35.5700 C   0  0  0  0  0  0  0  0  0  0  0  0
   -5.6520   15.5520  -34.2470 C   0  0  0  0  0  0  0  0  0  0  0  0
  -12.0320   16.4040  -29.4200 C   0  0  0  0  0  0  0  0  0  0  0  0
  2  1  1  6
  2  3  1  0
  4  2  1  0
  5  3  1  0
  3  6  1  0
  4  7  1  0
  8  7  1  0
  7  9  1  0
 10  8  1  0
  8 11  1  1
 10 12  1  0
 11 13  1  0
 14 12  1  0
 12 15  1  0
 13 16  1  0
 13 17  1  0
 14 18  1  6
A    2
 C3 
A    3
 C1 
A    4
 N1 
A    6
 O1 
A    7
 C1 
A    8
 C3 
A    9
 O1 
A   10
 N1 
A   11
 C5 
A   12
 C1 
A   13
 C6 
A   15
 O1 
A   16
 C7 
A   17
 C8 
A   18
 C5 
M  END
>  <XChem_code>  (980) 
polymer

>  <Occupancy>  (980) 
[1.0, 1.0, 1.0, 1.0, 1.0, 1.0, 1.0, 1.0, 1.0, 1.0, 1.0, 1.0, 1.0, 1.0, 1.0, 1.0, 1.0, 1.0, 1.0, 1.0, 1.0, 1.0, 1.0, 1.0, 1.0, 1.0, 1.0, 1.0, 1.0, 1.0, 1.0, 1.0, 1.0, 1.0, 1.0, 1.0, 1.0, 1.0, 1.0, 1.0, 1.0, 1.0, 1.0, 1.0, 1.0, 1.0, 1.0, 1.0, 1.0, 1.0, 1.0, 1.0, 1.0, 1.0, 1.0, 1.0, 1.0, 1.0]

>  <TempFactor>  (980) 
[0.0, 0.0, 0.0, 0.0, 0.0, 0.0, 0.0, 0.0, 0.0, 0.0, 0.0, 0.0, 0.0, 0.0, 0.0, 0.0, 0.0, 0.0, 0.0, 0.0, 0.0, 0.0, 0.0, 0.0, 0.0, 0.0, 0.0, 0.0, 0.0, 0.0, 0.0, 0.0, 0.0, 0.0, 0.0, 0.0, 0.0, 0.0, 0.0, 0.0, 0.0, 0.0, 0.0, 0.0, 0.0, 0.0, 0.0, 0.0, 0.0, 0.0, 0.0, 0.0, 0.0, 0.0, 0.0, 0.0, 0.0, 0.0]

>  <base_name>  (980) 
2b0f

>  <lig_resn>  (980) 
None

>  <lig_resi>  (980) 
1

>  <lig_chain>  (980) 
B

>  <lig_segi>  (980) 


>  <lig_alt>  (980) 


>  <polymer_chain>  (980) 
A

>  <single_smiles>  (980) 
None

$$$$
polymerS90
     RDKit          3D

 12 11  0  0  0  0  0  0  0  0999 V2000
   -9.8560   12.2790  -36.2650 C   0  0  0  0  0  0  0  0  0  0  0  0
   -9.7190   12.5240  -34.7630 C   0  0  1  0  0  0  0  0  0  0  0  0
   -8.4470   11.8470  -34.2880 C   0  0  0  0  0  0  0  0  0  0  0  0
   -9.6030   13.9290  -34.4410 N   0  0  0  0  0  0  0  0  0  0  0  0
   -7.3750   12.4480  -34.3620 O   0  0  0  0  0  0  0  0  0  0  0  0
   -9.4760   14.3090  -33.1760 C   0  0  0  0  0  0  0  0  0  0  0  0
   -9.2690   15.7910  -32.9510 C   0  0  0  0  0  0  0  0  0  0  0  0
   -9.5290   13.5200  -32.2290 O   0  0  0  0  0  0  0  0  0  0  0  0
   -7.7900   16.0900  -33.0900 C   0  0  0  0  0  0  0  0  0  0  0  0
   -7.1690   15.4980  -34.3400 C   0  0  0  0  0  0  0  0  0  0  0  0
   -7.6760   16.2470  -35.5700 C   0  0  0  0  0  0  0  0  0  0  0  0
   -5.6520   15.5520  -34.2470 C   0  0  0  0  0  0  0  0  0  0  0  0
  2  1  1  6
  2  3  1  0
  4  2  1  0
  3  5  1  0
  4  6  1  0
  7  6  1  0
  6  8  1  0
  7  9  1  6
  9 10  1  0
 10 11  1  0
 10 12  1  0
A    2
 C3 
A    4
 N1 
A    5
 O1 
A    6
 C1 
A    8
 O1 
A    9
 C5 
A   10
 C6 
A   11
 C7 
A   12
 C8 
M  END
>  <XChem_code>  (981) 
polymer

>  <Occupancy>  (981) 
[1.0, 1.0, 1.0, 1.0, 1.0, 1.0, 1.0, 1.0, 1.0, 1.0, 1.0, 1.0, 1.0, 1.0, 1.0, 1.0, 1.0, 1.0, 1.0, 1.0, 1.0, 1.0, 1.0, 1.0, 1.0, 1.0, 1.0, 1.0, 1.0, 1.0, 1.0, 1.0, 1.0, 1.0, 1.0, 1.0, 1.0, 1.0, 1.0, 1.0, 1.0, 1.0, 1.0, 1.0, 1.0, 1.0, 1.0, 1.0, 1.0, 1.0, 1.0, 1.0, 1.0, 1.0, 1.0, 1.0, 1.0, 1.0]

>  <TempFactor>  (981) 
[0.0, 0.0, 0.0, 0.0, 0.0, 0.0, 0.0, 0.0, 0.0, 0.0, 0.0, 0.0, 0.0, 0.0, 0.0, 0.0, 0.0, 0.0, 0.0, 0.0, 0.0, 0.0, 0.0, 0.0, 0.0, 0.0, 0.0, 0.0, 0.0, 0.0, 0.0, 0.0, 0.0, 0.0, 0.0, 0.0, 0.0, 0.0, 0.0, 0.0, 0.0, 0.0, 0.0, 0.0, 0.0, 0.0, 0.0, 0.0, 0.0, 0.0, 0.0, 0.0, 0.0, 0.0, 0.0, 0.0, 0.0, 0.0]

>  <base_name>  (981) 
2b0f

>  <lig_resn>  (981) 
None

>  <lig_resi>  (981) 
1

>  <lig_chain>  (981) 
B

>  <lig_segi>  (981) 


>  <lig_alt>  (981) 


>  <polymer_chain>  (981) 
A

>  <single_smiles>  (981) 
None

$$$$
polymerS91
     RDKit          3D

 13 12  0  0  0  0  0  0  0  0999 V2000
   -9.8560   12.2790  -36.2650 C   0  0  0  0  0  0  0  0  0  0  0  0
   -9.7190   12.5240  -34.7630 C   0  0  1  0  0  0  0  0  0  0  0  0
   -8.4470   11.8470  -34.2880 C   0  0  0  0  0  0  0  0  0  0  0  0
   -9.6030   13.9290  -34.4410 N   0  0  0  0  0  0  0  0  0  0  0  0
   -8.5240   10.6110  -33.8090 N   0  0  0  0  0  0  0  0  0  0  0  0
   -7.3750   12.4480  -34.3620 O   0  0  0  0  0  0  0  0  0  0  0  0
   -9.4760   14.3090  -33.1760 C   0  0  0  0  0  0  0  0  0  0  0  0
   -9.2690   15.7910  -32.9510 C   0  0  0  0  0  0  0  0  0  0  0  0
   -9.5290   13.5200  -32.2290 O   0  0  0  0  0  0  0  0  0  0  0  0
   -7.7900   16.0900  -33.0900 C   0  0  0  0  0  0  0  0  0  0  0  0
   -7.1690   15.4980  -34.3400 C   0  0  0  0  0  0  0  0  0  0  0  0
   -7.6760   16.2470  -35.5700 C   0  0  0  0  0  0  0  0  0  0  0  0
   -5.6520   15.5520  -34.2470 C   0  0  0  0  0  0  0  0  0  0  0  0
  2  1  1  6
  2  3  1  0
  4  2  1  0
  5  3  1  0
  3  6  1  0
  4  7  1  0
  8  7  1  0
  7  9  1  0
  8 10  1  6
 10 11  1  0
 11 12  1  0
 11 13  1  0
A    2
 C3 
A    3
 C1 
A    4
 N1 
A    6
 O1 
A    7
 C1 
A    9
 O1 
A   10
 C5 
A   11
 C6 
A   12
 C7 
A   13
 C8 
M  END
>  <XChem_code>  (982) 
polymer

>  <Occupancy>  (982) 
[1.0, 1.0, 1.0, 1.0, 1.0, 1.0, 1.0, 1.0, 1.0, 1.0, 1.0, 1.0, 1.0, 1.0, 1.0, 1.0, 1.0, 1.0, 1.0, 1.0, 1.0, 1.0, 1.0, 1.0, 1.0, 1.0, 1.0, 1.0, 1.0, 1.0, 1.0, 1.0, 1.0, 1.0, 1.0, 1.0, 1.0, 1.0, 1.0, 1.0, 1.0, 1.0, 1.0, 1.0, 1.0, 1.0, 1.0, 1.0, 1.0, 1.0, 1.0, 1.0, 1.0, 1.0, 1.0, 1.0, 1.0, 1.0]

>  <TempFactor>  (982) 
[0.0, 0.0, 0.0, 0.0, 0.0, 0.0, 0.0, 0.0, 0.0, 0.0, 0.0, 0.0, 0.0, 0.0, 0.0, 0.0, 0.0, 0.0, 0.0, 0.0, 0.0, 0.0, 0.0, 0.0, 0.0, 0.0, 0.0, 0.0, 0.0, 0.0, 0.0, 0.0, 0.0, 0.0, 0.0, 0.0, 0.0, 0.0, 0.0, 0.0, 0.0, 0.0, 0.0, 0.0, 0.0, 0.0, 0.0, 0.0, 0.0, 0.0, 0.0, 0.0, 0.0, 0.0, 0.0, 0.0, 0.0, 0.0]

>  <base_name>  (982) 
2b0f

>  <lig_resn>  (982) 
None

>  <lig_resi>  (982) 
1

>  <lig_chain>  (982) 
B

>  <lig_segi>  (982) 


>  <lig_alt>  (982) 


>  <polymer_chain>  (982) 
A

>  <single_smiles>  (982) 
None

$$$$
polymerS92
     RDKit          3D

  4  3  0  0  0  0  0  0  0  0999 V2000
   -9.8560   12.2790  -36.2650 C   0  0  0  0  0  0  0  0  0  0  0  0
   -9.7190   12.5240  -34.7630 C   0  0  0  0  0  0  0  0  0  0  0  0
   -8.4470   11.8470  -34.2880 C   0  0  0  0  0  0  0  0  0  0  0  0
   -7.3750   12.4480  -34.3620 O   0  0  0  0  0  0  0  0  0  0  0  0
  2  1  1  6
  2  3  1  0
  3  4  1  0
A    4
 O1 
M  END
>  <XChem_code>  (983) 
polymer

>  <Occupancy>  (983) 
[1.0, 1.0, 1.0, 1.0, 1.0, 1.0, 1.0, 1.0, 1.0, 1.0, 1.0, 1.0, 1.0, 1.0, 1.0, 1.0, 1.0, 1.0, 1.0, 1.0, 1.0, 1.0, 1.0, 1.0, 1.0, 1.0, 1.0, 1.0, 1.0, 1.0, 1.0, 1.0, 1.0, 1.0, 1.0, 1.0, 1.0, 1.0, 1.0, 1.0, 1.0, 1.0, 1.0, 1.0, 1.0, 1.0, 1.0, 1.0, 1.0, 1.0, 1.0, 1.0, 1.0, 1.0, 1.0, 1.0, 1.0, 1.0]

>  <TempFactor>  (983) 
[0.0, 0.0, 0.0, 0.0, 0.0, 0.0, 0.0, 0.0, 0.0, 0.0, 0.0, 0.0, 0.0, 0.0, 0.0, 0.0, 0.0, 0.0, 0.0, 0.0, 0.0, 0.0, 0.0, 0.0, 0.0, 0.0, 0.0, 0.0, 0.0, 0.0, 0.0, 0.0, 0.0, 0.0, 0.0, 0.0, 0.0, 0.0, 0.0, 0.0, 0.0, 0.0, 0.0, 0.0, 0.0, 0.0, 0.0, 0.0, 0.0, 0.0, 0.0, 0.0, 0.0, 0.0, 0.0, 0.0, 0.0, 0.0]

>  <base_name>  (983) 
2b0f

>  <lig_resn>  (983) 
None

>  <lig_resi>  (983) 
1

>  <lig_chain>  (983) 
B

>  <lig_segi>  (983) 


>  <lig_alt>  (983) 


>  <polymer_chain>  (983) 
A

>  <single_smiles>  (983) 
None

$$$$
polymerS93
     RDKit          3D

  5  4  0  0  0  0  0  0  0  0999 V2000
   -9.8560   12.2790  -36.2650 C   0  0  0  0  0  0  0  0  0  0  0  0
   -9.7190   12.5240  -34.7630 C   0  0  0  0  0  0  0  0  0  0  0  0
   -8.4470   11.8470  -34.2880 C   0  0  0  0  0  0  0  0  0  0  0  0
   -8.5240   10.6110  -33.8090 N   0  0  0  0  0  0  0  0  0  0  0  0
   -7.3750   12.4480  -34.3620 O   0  0  0  0  0  0  0  0  0  0  0  0
  2  1  1  6
  2  3  1  0
  4  3  1  0
  3  5  1  0
A    3
 C1 
A    5
 O1 
M  END
>  <XChem_code>  (984) 
polymer

>  <Occupancy>  (984) 
[1.0, 1.0, 1.0, 1.0, 1.0, 1.0, 1.0, 1.0, 1.0, 1.0, 1.0, 1.0, 1.0, 1.0, 1.0, 1.0, 1.0, 1.0, 1.0, 1.0, 1.0, 1.0, 1.0, 1.0, 1.0, 1.0, 1.0, 1.0, 1.0, 1.0, 1.0, 1.0, 1.0, 1.0, 1.0, 1.0, 1.0, 1.0, 1.0, 1.0, 1.0, 1.0, 1.0, 1.0, 1.0, 1.0, 1.0, 1.0, 1.0, 1.0, 1.0, 1.0, 1.0, 1.0, 1.0, 1.0, 1.0, 1.0]

>  <TempFactor>  (984) 
[0.0, 0.0, 0.0, 0.0, 0.0, 0.0, 0.0, 0.0, 0.0, 0.0, 0.0, 0.0, 0.0, 0.0, 0.0, 0.0, 0.0, 0.0, 0.0, 0.0, 0.0, 0.0, 0.0, 0.0, 0.0, 0.0, 0.0, 0.0, 0.0, 0.0, 0.0, 0.0, 0.0, 0.0, 0.0, 0.0, 0.0, 0.0, 0.0, 0.0, 0.0, 0.0, 0.0, 0.0, 0.0, 0.0, 0.0, 0.0, 0.0, 0.0, 0.0, 0.0, 0.0, 0.0, 0.0, 0.0, 0.0, 0.0]

>  <base_name>  (984) 
2b0f

>  <lig_resn>  (984) 
None

>  <lig_resi>  (984) 
1

>  <lig_chain>  (984) 
B

>  <lig_segi>  (984) 


>  <lig_alt>  (984) 


>  <polymer_chain>  (984) 
A

>  <single_smiles>  (984) 
None

$$$$
polymerS94
     RDKit          3D

  6  5  0  0  0  0  0  0  0  0999 V2000
   -9.8560   12.2790  -36.2650 C   0  0  0  0  0  0  0  0  0  0  0  0
   -9.7190   12.5240  -34.7630 C   0  0  2  0  0  0  0  0  0  0  0  0
   -9.6030   13.9290  -34.4410 N   0  0  0  0  0  0  0  0  0  0  0  0
   -8.4470   11.8470  -34.2880 C   0  0  0  0  0  0  0  0  0  0  0  0
   -8.5240   10.6110  -33.8090 N   0  0  0  0  0  0  0  0  0  0  0  0
   -7.3750   12.4480  -34.3620 O   0  0  0  0  0  0  0  0  0  0  0  0
  2  1  1  6
  3  2  1  0
  2  4  1  0
  5  4  1  0
  4  6  1  0
A    2
 C3 
A    4
 C1 
A    6
 O1 
M  END
>  <XChem_code>  (985) 
polymer

>  <Occupancy>  (985) 
[1.0, 1.0, 1.0, 1.0, 1.0, 1.0, 1.0, 1.0, 1.0, 1.0, 1.0, 1.0, 1.0, 1.0, 1.0, 1.0, 1.0, 1.0, 1.0, 1.0, 1.0, 1.0, 1.0, 1.0, 1.0, 1.0, 1.0, 1.0, 1.0, 1.0, 1.0, 1.0, 1.0, 1.0, 1.0, 1.0, 1.0, 1.0, 1.0, 1.0, 1.0, 1.0, 1.0, 1.0, 1.0, 1.0, 1.0, 1.0, 1.0, 1.0, 1.0, 1.0, 1.0, 1.0, 1.0, 1.0, 1.0, 1.0]

>  <TempFactor>  (985) 
[0.0, 0.0, 0.0, 0.0, 0.0, 0.0, 0.0, 0.0, 0.0, 0.0, 0.0, 0.0, 0.0, 0.0, 0.0, 0.0, 0.0, 0.0, 0.0, 0.0, 0.0, 0.0, 0.0, 0.0, 0.0, 0.0, 0.0, 0.0, 0.0, 0.0, 0.0, 0.0, 0.0, 0.0, 0.0, 0.0, 0.0, 0.0, 0.0, 0.0, 0.0, 0.0, 0.0, 0.0, 0.0, 0.0, 0.0, 0.0, 0.0, 0.0, 0.0, 0.0, 0.0, 0.0, 0.0, 0.0, 0.0, 0.0]

>  <base_name>  (985) 
2b0f

>  <lig_resn>  (985) 
None

>  <lig_resi>  (985) 
1

>  <lig_chain>  (985) 
B

>  <lig_segi>  (985) 


>  <lig_alt>  (985) 


>  <polymer_chain>  (985) 
A

>  <single_smiles>  (985) 
None

$$$$
polymerS95
     RDKit          3D

 14 13  0  0  0  0  0  0  0  0999 V2000
   -9.8560   12.2790  -36.2650 C   0  0  0  0  0  0  0  0  0  0  0  0
   -9.7190   12.5240  -34.7630 C   0  0  2  0  0  0  0  0  0  0  0  0
   -9.6030   13.9290  -34.4410 N   0  0  0  0  0  0  0  0  0  0  0  0
   -8.4470   11.8470  -34.2880 C   0  0  0  0  0  0  0  0  0  0  0  0
   -9.4760   14.3090  -33.1760 C   0  0  0  0  0  0  0  0  0  0  0  0
   -8.5240   10.6110  -33.8090 N   0  0  0  0  0  0  0  0  0  0  0  0
   -7.3750   12.4480  -34.3620 O   0  0  0  0  0  0  0  0  0  0  0  0
   -9.2690   15.7910  -32.9510 C   0  0  1  0  0  0  0  0  0  0  0  0
   -9.5290   13.5200  -32.2290 O   0  0  0  0  0  0  0  0  0  0  0  0
   -9.7350   16.2520  -31.6700 N   0  0  0  0  0  0  0  0  0  0  0  0
   -7.7900   16.0900  -33.0900 C   0  0  0  0  0  0  0  0  0  0  0  0
   -7.1690   15.4980  -34.3400 C   0  0  0  0  0  0  0  0  0  0  0  0
   -7.6760   16.2470  -35.5700 C   0  0  0  0  0  0  0  0  0  0  0  0
   -5.6520   15.5520  -34.2470 C   0  0  0  0  0  0  0  0  0  0  0  0
  2  1  1  6
  3  2  1  0
  2  4  1  0
  3  5  1  0
  6  4  1  0
  4  7  1  0
  8  5  1  0
  5  9  1  0
  8 10  1  1
  8 11  1  0
 11 12  1  0
 12 13  1  0
 12 14  1  0
A    2
 C3 
A    3
 N1 
A    4
 C1 
A    5
 C1 
A    7
 O1 
A    8
 C3 
A    9
 O1 
A   11
 C5 
A   12
 C6 
A   13
 C7 
A   14
 C8 
M  END
>  <XChem_code>  (986) 
polymer

>  <Occupancy>  (986) 
[1.0, 1.0, 1.0, 1.0, 1.0, 1.0, 1.0, 1.0, 1.0, 1.0, 1.0, 1.0, 1.0, 1.0, 1.0, 1.0, 1.0, 1.0, 1.0, 1.0, 1.0, 1.0, 1.0, 1.0, 1.0, 1.0, 1.0, 1.0, 1.0, 1.0, 1.0, 1.0, 1.0, 1.0, 1.0, 1.0, 1.0, 1.0, 1.0, 1.0, 1.0, 1.0, 1.0, 1.0, 1.0, 1.0, 1.0, 1.0, 1.0, 1.0, 1.0, 1.0, 1.0, 1.0, 1.0, 1.0, 1.0, 1.0]

>  <TempFactor>  (986) 
[0.0, 0.0, 0.0, 0.0, 0.0, 0.0, 0.0, 0.0, 0.0, 0.0, 0.0, 0.0, 0.0, 0.0, 0.0, 0.0, 0.0, 0.0, 0.0, 0.0, 0.0, 0.0, 0.0, 0.0, 0.0, 0.0, 0.0, 0.0, 0.0, 0.0, 0.0, 0.0, 0.0, 0.0, 0.0, 0.0, 0.0, 0.0, 0.0, 0.0, 0.0, 0.0, 0.0, 0.0, 0.0, 0.0, 0.0, 0.0, 0.0, 0.0, 0.0, 0.0, 0.0, 0.0, 0.0, 0.0, 0.0, 0.0]

>  <base_name>  (986) 
2b0f

>  <lig_resn>  (986) 
None

>  <lig_resi>  (986) 
1

>  <lig_chain>  (986) 
B

>  <lig_segi>  (986) 


>  <lig_alt>  (986) 


>  <polymer_chain>  (986) 
A

>  <single_smiles>  (986) 
None

$$$$
polymerS96
     RDKit          3D

 19 18  0  0  0  0  0  0  0  0999 V2000
   -9.8560   12.2790  -36.2650 C   0  0  0  0  0  0  0  0  0  0  0  0
   -9.7190   12.5240  -34.7630 C   0  0  2  0  0  0  0  0  0  0  0  0
   -9.6030   13.9290  -34.4410 N   0  0  0  0  0  0  0  0  0  0  0  0
   -8.4470   11.8470  -34.2880 C   0  0  0  0  0  0  0  0  0  0  0  0
   -9.4760   14.3090  -33.1760 C   0  0  0  0  0  0  0  0  0  0  0  0
   -8.5240   10.6110  -33.8090 N   0  0  0  0  0  0  0  0  0  0  0  0
   -7.3750   12.4480  -34.3620 O   0  0  0  0  0  0  0  0  0  0  0  0
   -9.2690   15.7910  -32.9510 C   0  0  1  0  0  0  0  0  0  0  0  0
   -9.5290   13.5200  -32.2290 O   0  0  0  0  0  0  0  0  0  0  0  0
   -9.7350   16.2520  -31.6700 N   0  0  0  0  0  0  0  0  0  0  0  0
   -7.7900   16.0900  -33.0900 C   0  0  0  0  0  0  0  0  0  0  0  0
  -10.8520   16.9140  -31.5780 C   0  0  0  0  0  0  0  0  0  0  0  0
   -7.1690   15.4980  -34.3400 C   0  0  0  0  0  0  0  0  0  0  0  0
  -11.2320   17.4190  -30.2140 C   0  0  1  0  0  0  0  0  0  0  0  0
  -11.5590   17.1540  -32.5510 O   0  0  0  0  0  0  0  0  0  0  0  0
   -7.6760   16.2470  -35.5700 C   0  0  0  0  0  0  0  0  0  0  0  0
   -5.6520   15.5520  -34.2470 C   0  0  0  0  0  0  0  0  0  0  0  0
  -11.9720   18.6270  -30.4030 N   0  0  0  0  0  0  0  0  0  0  0  0
  -12.0320   16.4040  -29.4200 C   0  0  0  0  0  0  0  0  0  0  0  0
  2  1  1  6
  3  2  1  0
  2  4  1  0
  3  5  1  0
  6  4  1  0
  4  7  1  0
  8  5  1  0
  5  9  1  0
 10  8  1  0
  8 11  1  1
 10 12  1  0
 11 13  1  0
 14 12  1  0
 12 15  1  0
 13 16  1  0
 13 17  1  0
 18 14  1  0
 14 19  1  6
A    2
 C3 
A    3
 N1 
A    4
 C1 
A    5
 C1 
A    7
 O1 
A    8
 C3 
A    9
 O1 
A   10
 N1 
A   11
 C5 
A   12
 C1 
A   13
 C6 
A   14
 C3 
A   15
 O1 
A   16
 C7 
A   17
 C8 
A   19
 C5 
M  END
>  <XChem_code>  (987) 
polymer

>  <Occupancy>  (987) 
[1.0, 1.0, 1.0, 1.0, 1.0, 1.0, 1.0, 1.0, 1.0, 1.0, 1.0, 1.0, 1.0, 1.0, 1.0, 1.0, 1.0, 1.0, 1.0, 1.0, 1.0, 1.0, 1.0, 1.0, 1.0, 1.0, 1.0, 1.0, 1.0, 1.0, 1.0, 1.0, 1.0, 1.0, 1.0, 1.0, 1.0, 1.0, 1.0, 1.0, 1.0, 1.0, 1.0, 1.0, 1.0, 1.0, 1.0, 1.0, 1.0, 1.0, 1.0, 1.0, 1.0, 1.0, 1.0, 1.0, 1.0, 1.0]

>  <TempFactor>  (987) 
[0.0, 0.0, 0.0, 0.0, 0.0, 0.0, 0.0, 0.0, 0.0, 0.0, 0.0, 0.0, 0.0, 0.0, 0.0, 0.0, 0.0, 0.0, 0.0, 0.0, 0.0, 0.0, 0.0, 0.0, 0.0, 0.0, 0.0, 0.0, 0.0, 0.0, 0.0, 0.0, 0.0, 0.0, 0.0, 0.0, 0.0, 0.0, 0.0, 0.0, 0.0, 0.0, 0.0, 0.0, 0.0, 0.0, 0.0, 0.0, 0.0, 0.0, 0.0, 0.0, 0.0, 0.0, 0.0, 0.0, 0.0, 0.0]

>  <base_name>  (987) 
2b0f

>  <lig_resn>  (987) 
None

>  <lig_resi>  (987) 
1

>  <lig_chain>  (987) 
B

>  <lig_segi>  (987) 


>  <lig_alt>  (987) 


>  <polymer_chain>  (987) 
A

>  <single_smiles>  (987) 
None

$$$$
polymerS97
     RDKit          3D

 28 27  0  0  0  0  0  0  0  0999 V2000
   -9.8560   12.2790  -36.2650 C   0  0  0  0  0  0  0  0  0  0  0  0
   -9.7190   12.5240  -34.7630 C   0  0  2  0  0  0  0  0  0  0  0  0
   -9.6030   13.9290  -34.4410 N   0  0  0  0  0  0  0  0  0  0  0  0
   -8.4470   11.8470  -34.2880 C   0  0  0  0  0  0  0  0  0  0  0  0
   -9.4760   14.3090  -33.1760 C   0  0  0  0  0  0  0  0  0  0  0  0
   -8.5240   10.6110  -33.8090 N   0  0  0  0  0  0  0  0  0  0  0  0
   -7.3750   12.4480  -34.3620 O   0  0  0  0  0  0  0  0  0  0  0  0
   -9.2690   15.7910  -32.9510 C   0  0  1  0  0  0  0  0  0  0  0  0
   -9.5290   13.5200  -32.2290 O   0  0  0  0  0  0  0  0  0  0  0  0
   -9.7350   16.2520  -31.6700 N   0  0  0  0  0  0  0  0  0  0  0  0
   -7.7900   16.0900  -33.0900 C   0  0  0  0  0  0  0  0  0  0  0  0
  -10.8520   16.9140  -31.5780 C   0  0  0  0  0  0  0  0  0  0  0  0
   -7.1690   15.4980  -34.3400 C   0  0  0  0  0  0  0  0  0  0  0  0
  -11.2320   17.4190  -30.2140 C   0  0  1  0  0  0  0  0  0  0  0  0
  -11.5590   17.1540  -32.5510 O   0  0  0  0  0  0  0  0  0  0  0  0
   -7.6760   16.2470  -35.5700 C   0  0  0  0  0  0  0  0  0  0  0  0
   -5.6520   15.5520  -34.2470 C   0  0  0  0  0  0  0  0  0  0  0  0
  -11.9720   18.6270  -30.4030 N   0  0  0  0  0  0  0  0  0  0  0  0
  -12.0320   16.4040  -29.4200 C   0  0  0  0  0  0  0  0  0  0  0  0
  -11.3450   19.7670  -30.6210 C   0  0  1  0  0  0  0  0  0  0  0  0
  -12.2360   20.9510  -30.8060 C   0  0  1  0  0  0  0  0  0  0  0  0
  -10.1190   19.8830  -30.5960 O   0  0  0  0  0  0  0  0  0  0  0  0
  -12.5790   21.3540  -29.4810 N   0  0  0  0  0  0  0  0  0  0  0  0
  -11.5450   22.0000  -31.6560 C   0  0  0  0  0  0  0  0  0  0  0  0
  -11.2540   21.4640  -33.0520 C   0  0  0  0  0  0  0  0  0  0  0  0
  -10.4830   22.4400  -33.9180 C   0  0  0  0  0  0  0  0  0  0  0  0
  -11.1230   23.2880  -34.5660 O   0  0  0  0  0  0  0  0  0  0  0  0
   -9.2440   22.3600  -33.9420 O   0  0  0  0  0  0  0  0  0  0  0  0
  2  1  1  6
  3  2  1  0
  2  4  1  0
  3  5  1  0
  6  4  1  0
  4  7  1  0
  8  5  1  0
  5  9  1  0
 10  8  1  0
  8 11  1  1
 10 12  1  0
 11 13  1  0
 14 12  1  0
 12 15  1  0
 13 16  1  0
 13 17  1  0
 18 14  1  0
 14 19  1  6
 18 20  1  0
 21 20  1  0
 20 22  1  1
 21 23  1  1
 21 24  1  0
 24 25  1  0
 25 26  1  0
 26 27  1  0
 26 28  1  0
M  CHG  1  28  -1
A    2
 C3 
A    3
 N1 
A    4
 C1 
A    5
 C1 
A    7
 O1 
A    8
 C3 
A    9
 O1 
A   10
 N1 
A   11
 C5 
A   12
 C1 
A   13
 C6 
A   14
 C3 
A   15
 O1 
A   16
 C7 
A   17
 C8 
A   18
 N1 
A   19
 C5 
A   20
 C1 
A   21
 C3 
A   22
 O1 
A   24
 C5 
A   25
 C6 
A   26
 C13
A   27
 O4 
A   28
 O5 
M  END
>  <XChem_code>  (988) 
polymer

>  <Occupancy>  (988) 
[1.0, 1.0, 1.0, 1.0, 1.0, 1.0, 1.0, 1.0, 1.0, 1.0, 1.0, 1.0, 1.0, 1.0, 1.0, 1.0, 1.0, 1.0, 1.0, 1.0, 1.0, 1.0, 1.0, 1.0, 1.0, 1.0, 1.0, 1.0, 1.0, 1.0, 1.0, 1.0, 1.0, 1.0, 1.0, 1.0, 1.0, 1.0, 1.0, 1.0, 1.0, 1.0, 1.0, 1.0, 1.0, 1.0, 1.0, 1.0, 1.0, 1.0, 1.0, 1.0, 1.0, 1.0, 1.0, 1.0, 1.0, 1.0]

>  <TempFactor>  (988) 
[0.0, 0.0, 0.0, 0.0, 0.0, 0.0, 0.0, 0.0, 0.0, 0.0, 0.0, 0.0, 0.0, 0.0, 0.0, 0.0, 0.0, 0.0, 0.0, 0.0, 0.0, 0.0, 0.0, 0.0, 0.0, 0.0, 0.0, 0.0, 0.0, 0.0, 0.0, 0.0, 0.0, 0.0, 0.0, 0.0, 0.0, 0.0, 0.0, 0.0, 0.0, 0.0, 0.0, 0.0, 0.0, 0.0, 0.0, 0.0, 0.0, 0.0, 0.0, 0.0, 0.0, 0.0, 0.0, 0.0, 0.0, 0.0]

>  <base_name>  (988) 
2b0f

>  <lig_resn>  (988) 
None

>  <lig_resi>  (988) 
1

>  <lig_chain>  (988) 
B

>  <lig_segi>  (988) 


>  <lig_alt>  (988) 


>  <polymer_chain>  (988) 
A

>  <single_smiles>  (988) 
None

$$$$
polymerS98
     RDKit          3D

 27 26  0  0  0  0  0  0  0  0999 V2000
   -9.8560   12.2790  -36.2650 C   0  0  0  0  0  0  0  0  0  0  0  0
   -9.7190   12.5240  -34.7630 C   0  0  1  0  0  0  0  0  0  0  0  0
   -8.4470   11.8470  -34.2880 C   0  0  0  0  0  0  0  0  0  0  0  0
   -9.6030   13.9290  -34.4410 N   0  0  0  0  0  0  0  0  0  0  0  0
   -7.3750   12.4480  -34.3620 O   0  0  0  0  0  0  0  0  0  0  0  0
   -9.4760   14.3090  -33.1760 C   0  0  0  0  0  0  0  0  0  0  0  0
   -9.2690   15.7910  -32.9510 C   0  0  1  0  0  0  0  0  0  0  0  0
   -9.5290   13.5200  -32.2290 O   0  0  0  0  0  0  0  0  0  0  0  0
   -9.7350   16.2520  -31.6700 N   0  0  0  0  0  0  0  0  0  0  0  0
   -7.7900   16.0900  -33.0900 C   0  0  0  0  0  0  0  0  0  0  0  0
  -10.8520   16.9140  -31.5780 C   0  0  0  0  0  0  0  0  0  0  0  0
   -7.1690   15.4980  -34.3400 C   0  0  0  0  0  0  0  0  0  0  0  0
  -11.2320   17.4190  -30.2140 C   0  0  1  0  0  0  0  0  0  0  0  0
  -11.5590   17.1540  -32.5510 O   0  0  0  0  0  0  0  0  0  0  0  0
   -7.6760   16.2470  -35.5700 C   0  0  0  0  0  0  0  0  0  0  0  0
   -5.6520   15.5520  -34.2470 C   0  0  0  0  0  0  0  0  0  0  0  0
  -11.9720   18.6270  -30.4030 N   0  0  0  0  0  0  0  0  0  0  0  0
  -12.0320   16.4040  -29.4200 C   0  0  0  0  0  0  0  0  0  0  0  0
  -11.3450   19.7670  -30.6210 C   0  0  1  0  0  0  0  0  0  0  0  0
  -12.2360   20.9510  -30.8060 C   0  0  1  0  0  0  0  0  0  0  0  0
  -10.1190   19.8830  -30.5960 O   0  0  0  0  0  0  0  0  0  0  0  0
  -12.5790   21.3540  -29.4810 N   0  0  0  0  0  0  0  0  0  0  0  0
  -11.5450   22.0000  -31.6560 C   0  0  0  0  0  0  0  0  0  0  0  0
  -11.2540   21.4640  -33.0520 C   0  0  0  0  0  0  0  0  0  0  0  0
  -10.4830   22.4400  -33.9180 C   0  0  0  0  0  0  0  0  0  0  0  0
  -11.1230   23.2880  -34.5660 O   0  0  0  0  0  0  0  0  0  0  0  0
   -9.2440   22.3600  -33.9420 O   0  0  0  0  0  0  0  0  0  0  0  0
  2  1  1  6
  2  3  1  0
  4  2  1  0
  3  5  1  0
  4  6  1  0
  7  6  1  0
  6  8  1  0
  9  7  1  0
  7 10  1  1
  9 11  1  0
 10 12  1  0
 13 11  1  0
 11 14  1  0
 12 15  1  0
 12 16  1  0
 17 13  1  0
 13 18  1  6
 17 19  1  0
 20 19  1  0
 19 21  1  1
 20 22  1  1
 20 23  1  0
 23 24  1  0
 24 25  1  0
 25 26  1  0
 25 27  1  0
M  CHG  1  27  -1
A    2
 C3 
A    4
 N1 
A    5
 O1 
A    6
 C1 
A    7
 C3 
A    8
 O1 
A    9
 N1 
A   10
 C5 
A   11
 C1 
A   12
 C6 
A   13
 C3 
A   14
 O1 
A   15
 C7 
A   16
 C8 
A   17
 N1 
A   18
 C5 
A   19
 C1 
A   20
 C3 
A   21
 O1 
A   23
 C5 
A   24
 C6 
A   25
 C13
A   26
 O4 
A   27
 O5 
M  END
>  <XChem_code>  (989) 
polymer

>  <Occupancy>  (989) 
[1.0, 1.0, 1.0, 1.0, 1.0, 1.0, 1.0, 1.0, 1.0, 1.0, 1.0, 1.0, 1.0, 1.0, 1.0, 1.0, 1.0, 1.0, 1.0, 1.0, 1.0, 1.0, 1.0, 1.0, 1.0, 1.0, 1.0, 1.0, 1.0, 1.0, 1.0, 1.0, 1.0, 1.0, 1.0, 1.0, 1.0, 1.0, 1.0, 1.0, 1.0, 1.0, 1.0, 1.0, 1.0, 1.0, 1.0, 1.0, 1.0, 1.0, 1.0, 1.0, 1.0, 1.0, 1.0, 1.0, 1.0, 1.0]

>  <TempFactor>  (989) 
[0.0, 0.0, 0.0, 0.0, 0.0, 0.0, 0.0, 0.0, 0.0, 0.0, 0.0, 0.0, 0.0, 0.0, 0.0, 0.0, 0.0, 0.0, 0.0, 0.0, 0.0, 0.0, 0.0, 0.0, 0.0, 0.0, 0.0, 0.0, 0.0, 0.0, 0.0, 0.0, 0.0, 0.0, 0.0, 0.0, 0.0, 0.0, 0.0, 0.0, 0.0, 0.0, 0.0, 0.0, 0.0, 0.0, 0.0, 0.0, 0.0, 0.0, 0.0, 0.0, 0.0, 0.0, 0.0, 0.0, 0.0, 0.0]

>  <base_name>  (989) 
2b0f

>  <lig_resn>  (989) 
None

>  <lig_resi>  (989) 
1

>  <lig_chain>  (989) 
B

>  <lig_segi>  (989) 


>  <lig_alt>  (989) 


>  <polymer_chain>  (989) 
A

>  <single_smiles>  (989) 
None

$$$$
polymerS99
     RDKit          3D

 18 17  0  0  0  0  0  0  0  0999 V2000
   -9.8560   12.2790  -36.2650 C   0  0  0  0  0  0  0  0  0  0  0  0
   -9.7190   12.5240  -34.7630 C   0  0  1  0  0  0  0  0  0  0  0  0
   -8.4470   11.8470  -34.2880 C   0  0  0  0  0  0  0  0  0  0  0  0
   -9.6030   13.9290  -34.4410 N   0  0  0  0  0  0  0  0  0  0  0  0
   -7.3750   12.4480  -34.3620 O   0  0  0  0  0  0  0  0  0  0  0  0
   -9.4760   14.3090  -33.1760 C   0  0  0  0  0  0  0  0  0  0  0  0
   -9.2690   15.7910  -32.9510 C   0  0  1  0  0  0  0  0  0  0  0  0
   -9.5290   13.5200  -32.2290 O   0  0  0  0  0  0  0  0  0  0  0  0
   -9.7350   16.2520  -31.6700 N   0  0  0  0  0  0  0  0  0  0  0  0
   -7.7900   16.0900  -33.0900 C   0  0  0  0  0  0  0  0  0  0  0  0
  -10.8520   16.9140  -31.5780 C   0  0  0  0  0  0  0  0  0  0  0  0
   -7.1690   15.4980  -34.3400 C   0  0  0  0  0  0  0  0  0  0  0  0
  -11.2320   17.4190  -30.2140 C   0  0  1  0  0  0  0  0  0  0  0  0
  -11.5590   17.1540  -32.5510 O   0  0  0  0  0  0  0  0  0  0  0  0
   -7.6760   16.2470  -35.5700 C   0  0  0  0  0  0  0  0  0  0  0  0
   -5.6520   15.5520  -34.2470 C   0  0  0  0  0  0  0  0  0  0  0  0
  -11.9720   18.6270  -30.4030 N   0  0  0  0  0  0  0  0  0  0  0  0
  -12.0320   16.4040  -29.4200 C   0  0  0  0  0  0  0  0  0  0  0  0
  2  1  1  6
  2  3  1  0
  4  2  1  0
  3  5  1  0
  4  6  1  0
  7  6  1  0
  6  8  1  0
  9  7  1  0
  7 10  1  1
  9 11  1  0
 10 12  1  0
 13 11  1  0
 11 14  1  0
 12 15  1  0
 12 16  1  0
 17 13  1  0
 13 18  1  6
A    2
 C3 
A    4
 N1 
A    5
 O1 
A    6
 C1 
A    7
 C3 
A    8
 O1 
A    9
 N1 
A   10
 C5 
A   11
 C1 
A   12
 C6 
A   13
 C3 
A   14
 O1 
A   15
 C7 
A   16
 C8 
A   18
 C5 
M  END
>  <XChem_code>  (990) 
polymer

>  <Occupancy>  (990) 
[1.0, 1.0, 1.0, 1.0, 1.0, 1.0, 1.0, 1.0, 1.0, 1.0, 1.0, 1.0, 1.0, 1.0, 1.0, 1.0, 1.0, 1.0, 1.0, 1.0, 1.0, 1.0, 1.0, 1.0, 1.0, 1.0, 1.0, 1.0, 1.0, 1.0, 1.0, 1.0, 1.0, 1.0, 1.0, 1.0, 1.0, 1.0, 1.0, 1.0, 1.0, 1.0, 1.0, 1.0, 1.0, 1.0, 1.0, 1.0, 1.0, 1.0, 1.0, 1.0, 1.0, 1.0, 1.0, 1.0, 1.0, 1.0]

>  <TempFactor>  (990) 
[0.0, 0.0, 0.0, 0.0, 0.0, 0.0, 0.0, 0.0, 0.0, 0.0, 0.0, 0.0, 0.0, 0.0, 0.0, 0.0, 0.0, 0.0, 0.0, 0.0, 0.0, 0.0, 0.0, 0.0, 0.0, 0.0, 0.0, 0.0, 0.0, 0.0, 0.0, 0.0, 0.0, 0.0, 0.0, 0.0, 0.0, 0.0, 0.0, 0.0, 0.0, 0.0, 0.0, 0.0, 0.0, 0.0, 0.0, 0.0, 0.0, 0.0, 0.0, 0.0, 0.0, 0.0, 0.0, 0.0, 0.0, 0.0]

>  <base_name>  (990) 
2b0f

>  <lig_resn>  (990) 
None

>  <lig_resi>  (990) 
1

>  <lig_chain>  (990) 
B

>  <lig_segi>  (990) 


>  <lig_alt>  (990) 


>  <polymer_chain>  (990) 
A

>  <single_smiles>  (990) 
None

$$$$
polymerS100
     RDKit          3D

 13 12  0  0  0  0  0  0  0  0999 V2000
   -9.8560   12.2790  -36.2650 C   0  0  0  0  0  0  0  0  0  0  0  0
   -9.7190   12.5240  -34.7630 C   0  0  1  0  0  0  0  0  0  0  0  0
   -8.4470   11.8470  -34.2880 C   0  0  0  0  0  0  0  0  0  0  0  0
   -9.6030   13.9290  -34.4410 N   0  0  0  0  0  0  0  0  0  0  0  0
   -7.3750   12.4480  -34.3620 O   0  0  0  0  0  0  0  0  0  0  0  0
   -9.4760   14.3090  -33.1760 C   0  0  0  0  0  0  0  0  0  0  0  0
   -9.2690   15.7910  -32.9510 C   0  0  1  0  0  0  0  0  0  0  0  0
   -9.5290   13.5200  -32.2290 O   0  0  0  0  0  0  0  0  0  0  0  0
   -9.7350   16.2520  -31.6700 N   0  0  0  0  0  0  0  0  0  0  0  0
   -7.7900   16.0900  -33.0900 C   0  0  0  0  0  0  0  0  0  0  0  0
   -7.1690   15.4980  -34.3400 C   0  0  0  0  0  0  0  0  0  0  0  0
   -7.6760   16.2470  -35.5700 C   0  0  0  0  0  0  0  0  0  0  0  0
   -5.6520   15.5520  -34.2470 C   0  0  0  0  0  0  0  0  0  0  0  0
  2  1  1  6
  2  3  1  0
  4  2  1  0
  3  5  1  0
  4  6  1  0
  7  6  1  0
  6  8  1  0
  7  9  1  1
  7 10  1  0
 10 11  1  0
 11 12  1  0
 11 13  1  0
A    2
 C3 
A    4
 N1 
A    5
 O1 
A    6
 C1 
A    7
 C3 
A    8
 O1 
A   10
 C5 
A   11
 C6 
A   12
 C7 
A   13
 C8 
M  END
>  <XChem_code>  (991) 
polymer

>  <Occupancy>  (991) 
[1.0, 1.0, 1.0, 1.0, 1.0, 1.0, 1.0, 1.0, 1.0, 1.0, 1.0, 1.0, 1.0, 1.0, 1.0, 1.0, 1.0, 1.0, 1.0, 1.0, 1.0, 1.0, 1.0, 1.0, 1.0, 1.0, 1.0, 1.0, 1.0, 1.0, 1.0, 1.0, 1.0, 1.0, 1.0, 1.0, 1.0, 1.0, 1.0, 1.0, 1.0, 1.0, 1.0, 1.0, 1.0, 1.0, 1.0, 1.0, 1.0, 1.0, 1.0, 1.0, 1.0, 1.0, 1.0, 1.0, 1.0, 1.0]

>  <TempFactor>  (991) 
[0.0, 0.0, 0.0, 0.0, 0.0, 0.0, 0.0, 0.0, 0.0, 0.0, 0.0, 0.0, 0.0, 0.0, 0.0, 0.0, 0.0, 0.0, 0.0, 0.0, 0.0, 0.0, 0.0, 0.0, 0.0, 0.0, 0.0, 0.0, 0.0, 0.0, 0.0, 0.0, 0.0, 0.0, 0.0, 0.0, 0.0, 0.0, 0.0, 0.0, 0.0, 0.0, 0.0, 0.0, 0.0, 0.0, 0.0, 0.0, 0.0, 0.0, 0.0, 0.0, 0.0, 0.0, 0.0, 0.0, 0.0, 0.0]

>  <base_name>  (991) 
2b0f

>  <lig_resn>  (991) 
None

>  <lig_resi>  (991) 
1

>  <lig_chain>  (991) 
B

>  <lig_segi>  (991) 


>  <lig_alt>  (991) 


>  <polymer_chain>  (991) 
A

>  <single_smiles>  (991) 
None

$$$$
polymerS101
     RDKit          3D

  5  4  0  0  0  0  0  0  0  0999 V2000
   -9.8560   12.2790  -36.2650 C   0  0  0  0  0  0  0  0  0  0  0  0
   -9.7190   12.5240  -34.7630 C   0  0  1  0  0  0  0  0  0  0  0  0
   -8.4470   11.8470  -34.2880 C   0  0  0  0  0  0  0  0  0  0  0  0
   -9.6030   13.9290  -34.4410 N   0  0  0  0  0  0  0  0  0  0  0  0
   -7.3750   12.4480  -34.3620 O   0  0  0  0  0  0  0  0  0  0  0  0
  2  1  1  6
  2  3  1  0
  4  2  1  0
  3  5  1  0
A    2
 C3 
A    5
 O1 
M  END
>  <XChem_code>  (992) 
polymer

>  <Occupancy>  (992) 
[1.0, 1.0, 1.0, 1.0, 1.0, 1.0, 1.0, 1.0, 1.0, 1.0, 1.0, 1.0, 1.0, 1.0, 1.0, 1.0, 1.0, 1.0, 1.0, 1.0, 1.0, 1.0, 1.0, 1.0, 1.0, 1.0, 1.0, 1.0, 1.0, 1.0, 1.0, 1.0, 1.0, 1.0, 1.0, 1.0, 1.0, 1.0, 1.0, 1.0, 1.0, 1.0, 1.0, 1.0, 1.0, 1.0, 1.0, 1.0, 1.0, 1.0, 1.0, 1.0, 1.0, 1.0, 1.0, 1.0, 1.0, 1.0]

>  <TempFactor>  (992) 
[0.0, 0.0, 0.0, 0.0, 0.0, 0.0, 0.0, 0.0, 0.0, 0.0, 0.0, 0.0, 0.0, 0.0, 0.0, 0.0, 0.0, 0.0, 0.0, 0.0, 0.0, 0.0, 0.0, 0.0, 0.0, 0.0, 0.0, 0.0, 0.0, 0.0, 0.0, 0.0, 0.0, 0.0, 0.0, 0.0, 0.0, 0.0, 0.0, 0.0, 0.0, 0.0, 0.0, 0.0, 0.0, 0.0, 0.0, 0.0, 0.0, 0.0, 0.0, 0.0, 0.0, 0.0, 0.0, 0.0, 0.0, 0.0]

>  <base_name>  (992) 
2b0f

>  <lig_resn>  (992) 
None

>  <lig_resi>  (992) 
1

>  <lig_chain>  (992) 
B

>  <lig_segi>  (992) 


>  <lig_alt>  (992) 


>  <polymer_chain>  (992) 
A

>  <single_smiles>  (992) 
None

$$$$
