x0133_1B§1
     RDKit          3D

 13 13  0  0  0  0  0  0  0  0999 V2000
  -31.0960    1.1720  -39.4080 N   0  0  0  0  0  0  0  0  0  0  0  0
  -25.1480    1.1940  -44.7150 C   0  0  0  0  0  0  0  0  0  0  0  0
  -31.3780   -0.8160  -40.8230 O   0  0  0  0  0  0  0  0  0  0  0  0
  -26.2590    0.9030  -43.7390 C   0  0  0  0  0  0  0  0  0  0  0  0
  -30.7180    1.3410  -41.8280 O   0  0  0  0  0  0  0  0  0  0  0  0
  -26.8400    1.9180  -42.9860 C   0  0  0  0  0  0  0  0  0  0  0  0
  -27.7290    1.6390  -41.9650 C   0  0  0  0  0  0  0  0  0  0  0  0
  -28.0770    0.3320  -41.6610 C   0  0  0  0  0  0  0  0  0  0  0  0
  -28.9300    0.0230  -40.4650 C   0  0  0  0  0  0  0  0  0  0  0  0
  -27.5500   -0.6910  -42.4430 C   0  0  0  0  0  0  0  0  0  0  0  0
  -26.6670   -0.3790  -43.4470 C   0  0  0  0  0  0  0  0  0  0  0  0
  -26.1550   -1.3850  -44.1930 F   0  0  0  0  0  0  0  0  0  0  0  0
  -30.6520    0.4130  -40.7470 S   0  0  1  0  0  0  0  0  0  0  0  0
 13  1  1  1
  2  4  1  0
  3 13  2  0
  4  6  2  0
  4 11  1  0
  5 13  2  0
  6  7  1  0
  7  8  2  0
  8  9  1  0
  8 10  1  0
  9 13  1  0
 10 11  2  0
 11 12  1  0
A    1
 N  
A    2
 C  
A    3
 O  
A    4
 C1 
A    5
 O1 
A    6
 C2 
A    7
 C3 
A    8
 C4 
A    9
 C5 
A   10
 C6 
A   11
 C7 
A   12
 F  
A   13
 S  
M  END
>  <XChem_code>  (1) 
D68EV3CPROA-x0133

>  <Occupancy>  (1) 
[0.34, 0.34, 0.34, 0.34, 0.34, 0.34, 0.34, 0.34, 0.34, 0.34, 0.34, 0.34, 0.34]

>  <TempFactor>  (1) 
[64.94, 49.37, 65.75, 49.61, 66.72, 50.14, 51.77, 52.5, 56.76, 50.14, 50.05, 46.49, 64.5]

>  <RealCrystalName>  (1) 
D68EV3CPROA-x0133

>  <smiles>  (1) 
Cc1ccc(CS(=O)(=O)N)cc1F

>  <new_smiles>  (1) 
Cc1ccc(CS(=O)(=O)N)cc1F

>  <alternate_name>  (1) 
Z1143279263

>  <site_name>  (1) 
4

>  <pdb_entry>  (1) 
nan

>  <mol>  (1) 
<rdkit.Chem.rdchem.Mol object at 0x13a1a2ce0>

>  <single_smiles>  (1) 
Cc1ccc(CS(N)(=O)=O)cc1F

>  <base_name>  (1) 
D68EV3CPROA-x0133_1B

>  <lig_resn>  (1) 
LIG

>  <lig_resi>  (1) 
201

>  <lig_chain>  (1) 
B

>  <lig_segi>  (1) 


>  <lig_alt>  (1) 
B

>  <polymer_chain>  (1) 
B

$$$$
x0133_1B§2
     RDKit          3D

 13 13  0  0  0  0  0  0  0  0999 V2000
  -31.1470    1.1010  -39.5710 N   0  0  0  0  0  0  0  0  0  0  0  0
  -25.4000    0.6780  -44.8940 C   0  0  0  0  0  0  0  0  0  0  0  0
  -31.2170   -1.2550  -40.2640 O   0  0  0  0  0  0  0  0  0  0  0  0
  -26.3890    0.4850  -43.7740 C   0  0  0  0  0  0  0  0  0  0  0  0
  -30.8060    0.5170  -41.9350 O   0  0  0  0  0  0  0  0  0  0  0  0
  -26.7170   -0.7890  -43.3190 C   0  0  0  0  0  0  0  0  0  0  0  0
  -27.5380   -0.9740  -42.2230 C   0  0  0  0  0  0  0  0  0  0  0  0
  -28.0620    0.1090  -41.5370 C   0  0  0  0  0  0  0  0  0  0  0  0
  -28.8780   -0.0910  -40.2910 C   0  0  0  0  0  0  0  0  0  0  0  0
  -27.7780    1.3880  -42.0000 C   0  0  0  0  0  0  0  0  0  0  0  0
  -26.9630    1.5380  -43.0960 C   0  0  0  0  0  0  0  0  0  0  0  0
  -26.7260    2.7900  -43.5450 F   0  0  0  0  0  0  0  0  0  0  0  0
  -30.6340    0.0000  -40.6150 S   0  0  1  0  0  0  0  0  0  0  0  0
 13  1  1  1
  2  4  1  0
  3 13  2  0
  4  6  2  0
  4 11  1  0
  5 13  2  0
  6  7  1  0
  7  8  2  0
  8  9  1  0
  8 10  1  0
  9 13  1  0
 10 11  2  0
 11 12  1  0
A    1
 N  
A    2
 C  
A    3
 O  
A    4
 C1 
A    5
 O1 
A    6
 C2 
A    7
 C3 
A    8
 C4 
A    9
 C5 
A   10
 C6 
A   11
 C7 
A   12
 F  
A   13
 S  
M  END
>  <XChem_code>  (2) 
D68EV3CPROA-x0133

>  <Occupancy>  (2) 
[0.35, 0.35, 0.35, 0.35, 0.35, 0.35, 0.35, 0.35, 0.35, 0.35, 0.35, 0.35, 0.35]

>  <TempFactor>  (2) 
[84.63, 63.16, 85.93, 62.82, 85.97, 63.93, 63.71, 65.58, 72.43, 63.72, 61.62, 60.02, 84.86]

>  <RealCrystalName>  (2) 
D68EV3CPROA-x0133

>  <smiles>  (2) 
Cc1ccc(CS(=O)(=O)N)cc1F

>  <new_smiles>  (2) 
Cc1ccc(CS(=O)(=O)N)cc1F

>  <alternate_name>  (2) 
Z1143279263

>  <site_name>  (2) 
4

>  <pdb_entry>  (2) 
nan

>  <mol>  (2) 
<rdkit.Chem.rdchem.Mol object at 0x13a1a2ce0>

>  <single_smiles>  (2) 
Cc1ccc(CS(N)(=O)=O)cc1F

>  <base_name>  (2) 
D68EV3CPROA-x0133_1B

>  <lig_resn>  (2) 
LIG

>  <lig_resi>  (2) 
201

>  <lig_chain>  (2) 
B

>  <lig_segi>  (2) 


>  <lig_alt>  (2) 
A

>  <polymer_chain>  (2) 
B

$$$$
x0128_0A§1
     RDKit          3D

 11 11  0  0  0  0  0  0  0  0999 V2000
    1.3410    3.9530  -24.4280 N   0  0  0  0  0  0  0  0  0  0  0  0
    1.1670    1.8960  -25.6860 C   0  0  0  0  0  0  0  0  0  0  0  0
    2.9040    2.3280  -24.1070 O   0  0  0  0  0  0  0  0  0  0  0  0
    1.8760    2.7230  -24.6580 C   0  0  0  0  0  0  0  0  0  0  0  0
   -2.0650    4.7720  -25.6870 N   0  0  0  0  0  0  0  0  0  0  0  0
    0.0030    4.4370  -24.4780 C   0  0  0  0  0  0  0  0  0  0  0  0
   -0.8710    4.1910  -25.5420 C   0  0  0  0  0  0  0  0  0  0  0  0
   -2.4370    5.6410  -24.7470 C   0  0  0  0  0  0  0  0  0  0  0  0
   -1.6690    5.9390  -23.6400 C   0  0  0  0  0  0  0  0  0  0  0  0
   -0.4250    5.3330  -23.4760 C   0  0  0  0  0  0  0  0  0  0  0  0
    0.4230    5.6450  -22.2680 C   0  0  0  0  0  0  0  0  0  0  0  0
  1  4  1  0
  1  6  1  0
  2  4  1  0
  3  4  2  0
  5  7  2  0
  5  8  1  0
  6  7  1  0
  6 10  2  0
  8  9  2  0
  9 10  1  0
 10 11  1  0
A    1
 N  
A    2
 C  
A    3
 O  
A    4
 C1 
A    5
 N1 
A    6
 C2 
A    7
 C3 
A    8
 C4 
A    9
 C5 
A   10
 C6 
A   11
 C7 
M  END
>  <XChem_code>  (3) 
D68EV3CPROA-x0128

>  <Occupancy>  (3) 
[0.54, 0.54, 0.54, 0.54, 0.54, 0.54, 0.54, 0.54, 0.54, 0.54, 0.54]

>  <TempFactor>  (3) 
[44.46, 43.88, 44.93, 45.19, 42.07, 44.0, 42.36, 42.05, 43.96, 44.05, 44.62]

>  <RealCrystalName>  (3) 
D68EV3CPROA-x0128

>  <smiles>  (3) 
CC(=O)Nc1cnccc1C

>  <new_smiles>  (3) 
CC(=O)Nc1cnccc1C

>  <alternate_name>  (3) 
Z1129283193

>  <site_name>  (3) 
3

>  <pdb_entry>  (3) 
nan

>  <mol>  (3) 
<rdkit.Chem.rdchem.Mol object at 0x13a1a2b20>

>  <single_smiles>  (3) 
CC(=O)Nc1cnccc1C

>  <base_name>  (3) 
D68EV3CPROA-x0128_0A

>  <lig_resn>  (3) 
LIG

>  <lig_resi>  (3) 
201

>  <lig_chain>  (3) 
A

>  <lig_segi>  (3) 


>  <lig_alt>  (3) 


>  <polymer_chain>  (3) 
A

$$$$
x0128_0A§2
     RDKit          3D

 11 11  0  0  0  0  0  0  0  0999 V2000
  -12.2990   -0.5380  -14.2430 N   0  0  0  0  0  0  0  0  0  0  0  0
  -11.5170   -2.5780  -15.2780 C   0  0  0  0  0  0  0  0  0  0  0  0
  -13.6320   -1.5830  -15.7650 O   0  0  0  0  0  0  0  0  0  0  0  0
  -12.5710   -1.5230  -15.1420 C   0  0  0  0  0  0  0  0  0  0  0  0
   -8.8500   -0.1380  -12.8990 N   0  0  0  0  0  0  0  0  0  0  0  0
  -11.0770    0.0600  -13.8230 C   0  0  0  0  0  0  0  0  0  0  0  0
   -9.9440   -0.6710  -13.4550 C   0  0  0  0  0  0  0  0  0  0  0  0
   -8.8540    1.1770  -12.6890 C   0  0  0  0  0  0  0  0  0  0  0  0
   -9.9050    2.0000  -13.0390 C   0  0  0  0  0  0  0  0  0  0  0  0
  -11.0470    1.4570  -13.6250 C   0  0  0  0  0  0  0  0  0  0  0  0
  -12.2000    2.3450  -14.0170 C   0  0  0  0  0  0  0  0  0  0  0  0
  1  4  1  0
  1  6  1  0
  2  4  1  0
  3  4  2  0
  5  7  2  0
  5  8  1  0
  6  7  1  0
  6 10  2  0
  8  9  2  0
  9 10  1  0
 10 11  1  0
A    1
 N  
A    2
 C  
A    3
 O  
A    4
 C1 
A    5
 N1 
A    6
 C2 
A    7
 C3 
A    8
 C4 
A    9
 C5 
A   10
 C6 
A   11
 C7 
M  END
>  <XChem_code>  (4) 
D68EV3CPROA-x0128

>  <Occupancy>  (4) 
[0.54, 0.54, 0.54, 0.54, 0.54, 0.54, 0.54, 0.54, 0.54, 0.54, 0.54]

>  <TempFactor>  (4) 
[44.46, 43.88, 44.93, 45.19, 42.07, 44.0, 42.36, 42.05, 43.96, 44.05, 44.62]

>  <RealCrystalName>  (4) 
D68EV3CPROA-x0128

>  <smiles>  (4) 
CC(=O)Nc1cnccc1C

>  <new_smiles>  (4) 
CC(=O)Nc1cnccc1C

>  <alternate_name>  (4) 
Z1129283193

>  <site_name>  (4) 
3

>  <pdb_entry>  (4) 
nan

>  <mol>  (4) 
<rdkit.Chem.rdchem.Mol object at 0x13a1a2b20>

>  <single_smiles>  (4) 
CC(=O)Nc1cnccc1C

>  <base_name>  (4) 
D68EV3CPROA-x0128_0A

>  <lig_resn>  (4) 
LIG

>  <lig_resi>  (4) 
201

>  <lig_chain>  (4) 
A

>  <lig_segi>  (4) 


>  <lig_alt>  (4) 


>  <polymer_chain>  (4) 
B

$$$$
x1052_0A§1
     RDKit          3D

 14 14  0  0  0  0  0  0  0  0999 V2000
  -22.4830   19.3570  -21.6960 N   0  0  0  0  0  0  0  0  0  0  0  0
  -19.0560   18.5470  -19.4690 C   0  0  0  0  0  0  0  0  0  0  0  0
  -19.4060   19.8540  -19.9950 O   0  0  0  0  0  0  0  0  0  0  0  0
  -20.1420   19.9030  -21.1170 C   0  0  0  0  0  0  0  0  0  0  0  0
  -25.5790   17.5940  -21.6130 N   0  0  0  0  0  0  0  0  0  0  0  0
  -19.9330   20.6790  -22.0150 O   0  0  0  0  0  0  0  0  0  0  0  0
  -21.2590   18.8890  -21.0800 C   0  0  0  0  0  0  0  0  0  0  0  0
  -23.9810   19.2820  -20.0090 O   0  0  0  0  0  0  0  0  0  0  0  0
  -23.6750   19.0450  -21.1800 C   0  0  0  0  0  0  0  0  0  0  0  0
  -26.2290   17.0810  -22.7590 O   0  0  0  0  0  0  0  0  0  0  0  0
  -24.6190   18.3580  -22.0940 C   0  0  0  0  0  0  0  0  0  0  0  0
  -24.6110   18.3810  -23.4960 C   0  0  0  0  0  0  0  0  0  0  0  0
  -25.6200   17.5750  -23.8590 C   0  0  0  0  0  0  0  0  0  0  0  0
  -26.1770   17.1370  -25.1640 C   0  0  0  0  0  0  0  0  0  0  0  0
  1  7  1  0
  1  9  1  0
  2  3  1  0
  3  4  1  0
  4  6  2  0
  4  7  1  0
  5 10  1  0
  5 11  2  0
  8  9  2  0
  9 11  1  0
 10 13  1  0
 11 12  1  0
 12 13  2  0
 13 14  1  0
A    1
 N  
A    2
 C  
A    3
 O  
A    4
 C1 
A    5
 N1 
A    6
 O1 
A    7
 C2 
A    8
 O2 
A    9
 C3 
A   10
 O3 
A   11
 C4 
A   12
 C5 
A   13
 C6 
A   14
 C7 
M  END
>  <XChem_code>  (5) 
D68EV3CPROA-x1052

>  <Occupancy>  (5) 
[0.7, 0.7, 0.7, 0.7, 0.7, 0.7, 0.7, 0.7, 0.7, 0.7, 0.7, 0.7, 0.7, 0.7]

>  <TempFactor>  (5) 
[61.03, 58.77, 61.05, 60.8, 56.63, 59.18, 60.15, 64.17, 60.74, 58.66, 59.2, 56.56, 57.51, 54.82]

>  <RealCrystalName>  (5) 
D68EV3CPROA-x1052

>  <smiles>  (5) 
COC(=O)CNC(=O)c1cc(C)on1

>  <new_smiles>  (5) 
COC(=O)CNC(=O)c1cc(C)on1

>  <alternate_name>  (5) 
Z375990520

>  <site_name>  (5) 
5

>  <pdb_entry>  (5) 
nan

>  <mol>  (5) 
<rdkit.Chem.rdchem.Mol object at 0x13a1a3e60>

>  <single_smiles>  (5) 
COC(=O)CNC(=O)c1cc(C)on1

>  <base_name>  (5) 
D68EV3CPROA-x1052_0A

>  <lig_resn>  (5) 
LIG

>  <lig_resi>  (5) 
301

>  <lig_chain>  (5) 
A

>  <lig_segi>  (5) 


>  <lig_alt>  (5) 


>  <polymer_chain>  (5) 
A

$$$$
x1532_0B§1
     RDKit          3D

  6  6  0  0  0  0  0  0  0  0999 V2000
   -9.2580    1.0120  -51.0240 N   0  0  0  0  0  0  0  0  0  0  0  0
   -8.1930    0.9330  -50.2390 C   0  0  0  0  0  0  0  0  0  0  0  0
   -6.9400    1.4520  -50.5510 C   0  0  0  0  0  0  0  0  0  0  0  0
   -6.9480    0.4700  -48.6050 N   0  0  0  0  0  0  0  0  0  0  0  0
   -6.1700    1.1300  -49.4710 C   0  0  0  0  0  0  0  0  0  0  0  0
   -8.2120    0.3370  -49.0630 N   0  0  0  0  0  0  0  0  0  0  0  0
  1  2  1  0
  2  3  1  0
  2  6  2  0
  3  5  2  0
  4  6  1  0
  4  5  1  0
A    1
 N  
A    2
 C  
A    3
 C1 
A    4
 N1 
A    5
 C2 
A    6
 N2 
M  END
>  <XChem_code>  (6) 
D68EV3CPROA-x1532

>  <Occupancy>  (6) 
[0.82, 0.82, 0.82, 0.82, 0.82, 0.82]

>  <TempFactor>  (6) 
[32.43, 33.34, 31.86, 33.32, 32.87, 33.44]

>  <RealCrystalName>  (6) 
D68EV3CPROA-x1532

>  <smiles>  (6) 
NC=1C=CNN1

>  <new_smiles>  (6) 
NC=1C=CNN1

>  <alternate_name>  (6) 
Z241119328

>  <site_name>  (6) 
2

>  <pdb_entry>  (6) 
nan

>  <mol>  (6) 
<rdkit.Chem.rdchem.Mol object at 0x13a26d380>

>  <single_smiles>  (6) 
Nc1cc[nH]n1

>  <base_name>  (6) 
D68EV3CPROA-x1532_0B

>  <lig_resn>  (6) 
LIG

>  <lig_resi>  (6) 
201

>  <lig_chain>  (6) 
B

>  <lig_segi>  (6) 


>  <lig_alt>  (6) 


>  <polymer_chain>  (6) 
B

$$$$
x0878_0B§1
     RDKit          3D

 14 14  0  0  0  0  0  0  0  0999 V2000
  -22.3980    3.6710  -50.6540 N   0  0  0  0  0  0  0  0  0  0  0  0
  -18.4980    4.0340  -50.1430 C   0  0  0  0  0  0  0  0  0  0  0  0
  -19.7920    4.0960  -50.7330 O   0  0  0  0  0  0  0  0  0  0  0  0
  -20.2240    3.0040  -51.4380 C   0  0  0  0  0  0  0  0  0  0  0  0
  -24.6420    6.1030  -52.2180 N   0  0  0  0  0  0  0  0  0  0  0  0
  -22.5340    5.9370  -50.4710 O   0  0  0  0  0  0  0  0  0  0  0  0
  -19.4020    2.1410  -52.1310 C   0  0  0  0  0  0  0  0  0  0  0  0
  -19.9630    1.1580  -52.9270 C   0  0  0  0  0  0  0  0  0  0  0  0
  -21.3410    1.0230  -53.0540 C   0  0  0  0  0  0  0  0  0  0  0  0
  -21.9340   -0.0030  -53.9890 C   0  0  0  0  0  0  0  0  0  0  0  0
  -22.1610    1.8780  -52.3280 C   0  0  0  0  0  0  0  0  0  0  0  0
  -21.6180    2.8600  -51.5060 C   0  0  0  0  0  0  0  0  0  0  0  0
  -22.9630    4.8660  -50.9050 C   0  0  0  0  0  0  0  0  0  0  0  0
  -24.2160    4.7820  -51.7950 C   0  0  0  0  0  0  0  0  0  0  0  0
  1 12  1  0
  1 13  1  0
  2  3  1  0
  3  4  1  0
  4  7  2  0
  4 12  1  0
  5 14  1  0
  6 13  2  0
  7  8  1  0
  8  9  2  0
  9 10  1  0
  9 11  1  0
 11 12  2  0
 13 14  1  0
A    1
 N  
A    2
 C  
A    3
 O  
A    4
 C1 
A    5
 N1 
A    6
 O1 
A    7
 C2 
A    8
 C3 
A    9
 C4 
A   10
 C5 
A   11
 C6 
A   12
 C7 
A   13
 C8 
A   14
 C9 
M  END
>  <XChem_code>  (7) 
D68EV3CPROA-x0878

>  <Occupancy>  (7) 
[0.72, 0.72, 0.72, 0.72, 0.72, 0.72, 0.72, 0.72, 0.72, 0.72, 0.72, 0.72, 0.72, 0.72]

>  <TempFactor>  (7) 
[69.11, 54.6, 58.56, 59.82, 79.07, 72.61, 58.24, 58.05, 60.67, 61.0, 59.9, 63.53, 73.06, 76.88]

>  <RealCrystalName>  (7) 
D68EV3CPROA-x0878

>  <smiles>  (7) 
Cl.COc1ccc(C)cc1NC(=O)CN

>  <new_smiles>  (7) 
Cl.COc1ccc(C)cc1NC(=O)CN

>  <alternate_name>  (7) 
Z235341991

>  <site_name>  (7) 
2

>  <pdb_entry>  (7) 
nan

>  <mol>  (7) 
<rdkit.Chem.rdchem.Mol object at 0x13a1a3a00>

>  <single_smiles>  (7) 
COc1ccc(C)cc1NC(=O)CN

>  <base_name>  (7) 
D68EV3CPROA-x0878_0B

>  <lig_resn>  (7) 
LIG

>  <lig_resi>  (7) 
201

>  <lig_chain>  (7) 
A

>  <lig_segi>  (7) 


>  <lig_alt>  (7) 


>  <polymer_chain>  (7) 
A

$$$$
x1300_0A§1
     RDKit          3D

 10 10  0  0  0  0  0  0  0  0999 V2000
   -2.6870    5.2580  -25.0490 N   0  0  0  0  0  0  0  0  0  0  0  0
    2.4300    1.6560  -24.9220 C   0  0  0  0  0  0  0  0  0  0  0  0
    0.8140    3.1850  -24.0530 O   0  0  0  0  0  0  0  0  0  0  0  0
    2.2030    2.7420  -23.9460 C   0  0  0  0  0  0  0  0  0  0  0  0
   -2.4410    6.2900  -24.2090 N   0  0  0  0  0  0  0  0  0  0  0  0
    1.1720    4.8340  -22.5590 O   0  0  0  0  0  0  0  0  0  0  0  0
    0.4950    4.3280  -23.4220 C   0  0  0  0  0  0  0  0  0  0  0  0
   -0.7790    4.8980  -23.9090 C   0  0  0  0  0  0  0  0  0  0  0  0
   -1.6800    4.4080  -24.8720 C   0  0  0  0  0  0  0  0  0  0  0  0
   -1.3170    6.1140  -23.5080 C   0  0  0  0  0  0  0  0  0  0  0  0
  1  5  1  0
  1  9  2  0
  2  4  1  0
  3  4  1  0
  3  7  1  0
  5 10  1  0
  6  7  2  0
  7  8  1  0
  8  9  1  0
  8 10  2  0
A    1
 N  
A    2
 C  
A    3
 O  
A    4
 C1 
A    5
 N1 
A    6
 O1 
A    7
 C2 
A    8
 C3 
A    9
 C4 
A   10
 C5 
M  END
>  <XChem_code>  (8) 
D68EV3CPROA-x1300

>  <Occupancy>  (8) 
[0.56, 0.56, 0.56, 0.56, 0.56, 0.56, 0.56, 0.56, 0.56, 0.56]

>  <TempFactor>  (8) 
[37.59, 37.53, 36.99, 36.9, 38.21, 36.39, 37.18, 36.78, 36.22, 37.38]

>  <RealCrystalName>  (8) 
D68EV3CPROA-x1300

>  <smiles>  (8) 
CCOC(=O)c1cn[nH]c1

>  <new_smiles>  (8) 
CCOC(=O)c1cn[nH]c1

>  <alternate_name>  (8) 
Z975817026

>  <site_name>  (8) 
3

>  <pdb_entry>  (8) 
nan

>  <mol>  (8) 
<rdkit.Chem.rdchem.Mol object at 0x13a26ca50>

>  <single_smiles>  (8) 
CCOC(=O)c1cn[nH]c1

>  <base_name>  (8) 
D68EV3CPROA-x1300_0A

>  <lig_resn>  (8) 
LIG

>  <lig_resi>  (8) 
201

>  <lig_chain>  (8) 
A

>  <lig_segi>  (8) 


>  <lig_alt>  (8) 


>  <polymer_chain>  (8) 
A

$$$$
x1495_0B§1
     RDKit          3D

  8  8  0  0  0  0  0  0  0  0999 V2000
   -4.8120    0.3590  -49.6420 C   0  0  0  0  0  0  0  0  0  0  0  0
   -4.1210    0.7230  -50.7140 O   0  0  0  0  0  0  0  0  0  0  0  0
   -6.3060    0.4900  -49.7440 C   0  0  0  0  0  0  0  0  0  0  0  0
   -4.2940   -0.1000  -48.5980 O   0  0  0  0  0  0  0  0  0  0  0  0
   -7.1060    0.8460  -50.8900 C   0  0  0  0  0  0  0  0  0  0  0  0
   -8.4370    0.7550  -50.6720 C   0  0  0  0  0  0  0  0  0  0  0  0
   -7.0890    0.1400  -48.6750 C   0  0  0  0  0  0  0  0  0  0  0  0
   -8.7370    0.2070  -49.0330 S   0  0  0  0  0  0  0  0  0  0  0  0
  1  2  2  0
  1  3  1  0
  1  4  1  0
  3  5  1  0
  3  7  2  0
  5  6  2  0
  6  8  1  0
  7  8  1  0
A    1
 C  
A    2
 O  
A    3
 C1 
A    4
 O1 
A    5
 C2 
A    6
 C3 
A    7
 C4 
A    8
 S  
M  END
>  <XChem_code>  (9) 
D68EV3CPROA-x1495

>  <Occupancy>  (9) 
[0.84, 0.84, 0.84, 0.84, 0.84, 0.84, 0.84, 0.84]

>  <TempFactor>  (9) 
[46.72, 52.55, 36.72, 50.79, 33.61, 30.81, 31.55, 28.27]

>  <RealCrystalName>  (9) 
D68EV3CPROA-x1495

>  <smiles>  (9) 
OC(=O)C=1C=CSC1

>  <new_smiles>  (9) 
OC(=O)C=1C=CSC1

>  <alternate_name>  (9) 
Z166605460

>  <site_name>  (9) 
5

>  <pdb_entry>  (9) 
nan

>  <mol>  (9) 
<rdkit.Chem.rdchem.Mol object at 0x13a26d0e0>

>  <single_smiles>  (9) 
O=C(O)c1ccsc1

>  <base_name>  (9) 
D68EV3CPROA-x1495_0B

>  <lig_resn>  (9) 
LIG

>  <lig_resi>  (9) 
201

>  <lig_chain>  (9) 
B

>  <lig_segi>  (9) 


>  <lig_alt>  (9) 


>  <polymer_chain>  (9) 
B

$$$$
x1585_0B§1
     RDKit          3D

 15 17  0  0  0  0  0  0  0  0999 V2000
  -28.5250    1.0250  -40.4450 N   0  0  0  0  0  0  0  0  0  0  0  0
  -28.3990   -0.3190  -40.7540 C   0  0  0  0  0  0  0  0  0  0  0  0
  -28.5550   -1.2420  -39.9610 O   0  0  0  0  0  0  0  0  0  0  0  0
  -28.2690    1.8170  -41.5280 C   0  0  0  0  0  0  0  0  0  0  0  0
  -28.0630   -0.4090  -42.0630 N   0  0  0  0  0  0  0  0  0  0  0  0
  -28.3570    3.0390  -41.5790 O   0  0  0  0  0  0  0  0  0  0  0  0
  -27.8760    0.8920  -42.6960 C   0  0  2  0  0  0  0  0  0  0  0  0
  -26.4000    1.1370  -43.1020 C   0  0  0  0  0  0  0  0  0  0  0  0
  -26.3730    1.4980  -44.5860 C   0  0  0  0  0  0  0  0  0  0  0  0
  -27.8180    1.5980  -44.9910 C   0  0  0  0  0  0  0  0  0  0  0  0
  -28.3670    1.9940  -46.2090 C   0  0  0  0  0  0  0  0  0  0  0  0
  -29.7390    1.9440  -46.3990 C   0  0  0  0  0  0  0  0  0  0  0  0
  -30.5650    1.5030  -45.3820 C   0  0  0  0  0  0  0  0  0  0  0  0
  -30.0280    1.1170  -44.1590 C   0  0  0  0  0  0  0  0  0  0  0  0
  -28.6540    1.1750  -43.9650 C   0  0  0  0  0  0  0  0  0  0  0  0
  1  2  1  0
  1  4  1  0
  2  3  2  0
  2  5  1  0
  4  6  2  0
  4  7  1  0
  5  7  1  0
  7  8  1  6
  7 15  1  0
  8  9  1  0
  9 10  1  0
 10 11  1  0
 10 15  2  0
 11 12  2  0
 12 13  1  0
 13 14  2  0
 14 15  1  0
A    1
 N  
A    2
 C  
A    3
 O  
A    4
 C1 
A    5
 N1 
A    6
 O1 
A    7
 C2 
A    8
 C3 
A    9
 C4 
A   10
 C5 
A   11
 C6 
A   12
 C7 
A   13
 C8 
A   14
 C9 
A   15
 C10
M  END
>  <XChem_code>  (10) 
D68EV3CPROA-x1585

>  <Occupancy>  (10) 
[0.77, 0.77, 0.77, 0.77, 0.77, 0.77, 0.77, 0.77, 0.77, 0.77, 0.77, 0.77, 0.77, 0.77, 0.77]

>  <TempFactor>  (10) 
[47.06, 46.09, 42.91, 54.42, 51.75, 54.2, 55.82, 58.69, 60.73, 63.11, 65.62, 66.27, 67.0, 64.36, 61.89]

>  <RealCrystalName>  (10) 
D68EV3CPROA-x1585

>  <smiles>  (10) 
O=C1NC(=O)C2(CCC=3C=CC=CC32)N1

>  <new_smiles>  (10) 
O=C1NC(=O)C2(CCC=3C=CC=CC32)N1

>  <alternate_name>  (10) 
Z56862798

>  <site_name>  (10) 
4

>  <pdb_entry>  (10) 
nan

>  <mol>  (10) 
<rdkit.Chem.rdchem.Mol object at 0x13a26d7e0>

>  <single_smiles>  (10) 
O=C1NC(=O)C2(CCc3ccccc32)N1

>  <base_name>  (10) 
D68EV3CPROA-x1585_0B

>  <lig_resn>  (10) 
LIG

>  <lig_resi>  (10) 
301

>  <lig_chain>  (10) 
B

>  <lig_segi>  (10) 


>  <lig_alt>  (10) 


>  <polymer_chain>  (10) 
B

$$$$
x1576_0B§1
     RDKit          3D

 12 13  0  0  0  0  0  0  0  0999 V2000
   -6.0620    3.2180  -51.5250 N   0  0  0  0  0  0  0  0  0  0  0  0
   -4.6460    3.4880  -51.7540 C   0  0  0  0  0  0  0  0  0  0  0  0
   -7.0460    6.1950  -52.7240 O   0  0  0  0  0  0  0  0  0  0  0  0
   -7.1510    3.8240  -52.1070 C   0  0  0  0  0  0  0  0  0  0  0  0
   -8.2970    3.3450  -51.6800 N   0  0  0  0  0  0  0  0  0  0  0  0
   -7.0380    4.8760  -53.2180 C   0  0  0  0  0  0  0  0  0  0  0  0
   -7.9530    2.3370  -50.7770 C   0  0  0  0  0  0  0  0  0  0  0  0
   -8.7630    1.4620  -50.0550 C   0  0  0  0  0  0  0  0  0  0  0  0
   -8.1620    0.5210  -49.2340 C   0  0  0  0  0  0  0  0  0  0  0  0
   -6.7700    0.4470  -49.1290 C   0  0  0  0  0  0  0  0  0  0  0  0
   -5.9530    1.3120  -49.8490 C   0  0  0  0  0  0  0  0  0  0  0  0
   -6.5690    2.2470  -50.6640 C   0  0  0  0  0  0  0  0  0  0  0  0
  1  2  1  0
  1  4  1  0
  1 12  1  0
  3  6  1  0
  4  5  2  0
  4  6  1  0
  5  7  1  0
  7  8  1  0
  7 12  2  0
  8  9  2  0
  9 10  1  0
 10 11  2  0
 11 12  1  0
A    1
 N  
A    2
 C  
A    3
 O  
A    4
 C1 
A    5
 N1 
A    6
 C2 
A    7
 C3 
A    8
 C4 
A    9
 C5 
A   10
 C6 
A   11
 C7 
A   12
 C8 
M  END
>  <XChem_code>  (11) 
D68EV3CPROA-x1576

>  <Occupancy>  (11) 
[0.92, 0.92, 0.92, 0.92, 0.92, 0.92, 0.92, 0.92, 0.92, 0.92, 0.92, 0.92]

>  <TempFactor>  (11) 
[45.44, 46.76, 51.47, 47.84, 44.21, 48.33, 42.17, 40.3, 39.49, 41.21, 41.36, 44.04]

>  <RealCrystalName>  (11) 
D68EV3CPROA-x1576

>  <smiles>  (11) 
CN1C(CO)=NC=2C=CC=CC12

>  <new_smiles>  (11) 
CN1C(CO)=NC=2C=CC=CC12

>  <alternate_name>  (11) 
Z57299966

>  <site_name>  (11) 
2

>  <pdb_entry>  (11) 
nan

>  <mol>  (11) 
<rdkit.Chem.rdchem.Mol object at 0x13a26d690>

>  <single_smiles>  (11) 
Cn1c(CO)nc2ccccc21

>  <base_name>  (11) 
D68EV3CPROA-x1576_0B

>  <lig_resn>  (11) 
LIG

>  <lig_resi>  (11) 
201

>  <lig_chain>  (11) 
B

>  <lig_segi>  (11) 


>  <lig_alt>  (11) 


>  <polymer_chain>  (11) 
B

$$$$
x1498_0A§1
     RDKit          3D

  7  7  0  0  0  0  0  0  0  0999 V2000
   -5.6760   11.4090  -29.8020 N   0  0  0  0  0  0  0  0  0  0  0  0
   -6.5010   10.3800  -30.1470 C   0  0  0  0  0  0  0  0  0  0  0  0
   -7.1160    9.7560  -29.1800 O   0  0  0  0  0  0  0  0  0  0  0  0
   -6.7610   10.0140  -31.4690 C   0  0  0  0  0  0  0  0  0  0  0  0
   -6.1610   10.7590  -32.4710 C   0  0  0  0  0  0  0  0  0  0  0  0
   -5.3260   11.8150  -32.1470 C   0  0  0  0  0  0  0  0  0  0  0  0
   -5.1130   12.0970  -30.8080 C   0  0  0  0  0  0  0  0  0  0  0  0
  1  2  2  0
  1  7  1  0
  2  3  1  0
  2  4  1  0
  4  5  2  0
  5  6  1  0
  6  7  2  0
A    1
 N  
A    2
 C  
A    3
 O  
A    4
 C1 
A    5
 C2 
A    6
 C3 
A    7
 C4 
M  END
>  <XChem_code>  (12) 
D68EV3CPROA-x1498

>  <Occupancy>  (12) 
[0.88, 0.88, 0.88, 0.88, 0.88, 0.88, 0.88]

>  <TempFactor>  (12) 
[42.68, 37.56, 35.8, 40.47, 43.12, 43.66, 44.2]

>  <RealCrystalName>  (12) 
D68EV3CPROA-x1498

>  <smiles>  (12) 
OC=1C=CC=CN1

>  <new_smiles>  (12) 
OC=1C=CC=CN1

>  <alternate_name>  (12) 
Z1741982125

>  <site_name>  (12) 
1

>  <pdb_entry>  (12) 
nan

>  <mol>  (12) 
<rdkit.Chem.rdchem.Mol object at 0x13a26d1c0>

>  <single_smiles>  (12) 
Oc1ccccn1

>  <base_name>  (12) 
D68EV3CPROA-x1498_0A

>  <lig_resn>  (12) 
LIG

>  <lig_resi>  (12) 
201

>  <lig_chain>  (12) 
A

>  <lig_segi>  (12) 


>  <lig_alt>  (12) 


>  <polymer_chain>  (12) 
A

$$$$
x1498_0A§2
     RDKit          3D

  7  7  0  0  0  0  0  0  0  0999 V2000
  -18.2580   19.9450  -20.8390 N   0  0  0  0  0  0  0  0  0  0  0  0
  -19.3030   19.1730  -21.2740 C   0  0  0  0  0  0  0  0  0  0  0  0
  -19.7950   18.2350  -20.4300 O   0  0  0  0  0  0  0  0  0  0  0  0
  -19.8620   19.3270  -22.5430 C   0  0  0  0  0  0  0  0  0  0  0  0
  -19.3240   20.2810  -23.3900 C   0  0  0  0  0  0  0  0  0  0  0  0
  -18.2770   21.0700  -22.9690 C   0  0  0  0  0  0  0  0  0  0  0  0
  -17.7820   20.8710  -21.6940 C   0  0  0  0  0  0  0  0  0  0  0  0
  1  2  2  0
  1  7  1  0
  2  3  1  0
  2  4  1  0
  4  5  2  0
  5  6  1  0
  6  7  2  0
A    1
 N  
A    2
 C  
A    3
 O  
A    4
 C1 
A    5
 C2 
A    6
 C3 
A    7
 C4 
M  END
>  <XChem_code>  (13) 
D68EV3CPROA-x1498

>  <Occupancy>  (13) 
[0.88, 0.88, 0.88, 0.88, 0.88, 0.88, 0.88]

>  <TempFactor>  (13) 
[53.3, 52.52, 51.54, 47.0, 49.42, 50.99, 52.44]

>  <RealCrystalName>  (13) 
D68EV3CPROA-x1498

>  <smiles>  (13) 
OC=1C=CC=CN1

>  <new_smiles>  (13) 
OC=1C=CC=CN1

>  <alternate_name>  (13) 
Z1741982125

>  <site_name>  (13) 
1

>  <pdb_entry>  (13) 
nan

>  <mol>  (13) 
<rdkit.Chem.rdchem.Mol object at 0x13a26d1c0>

>  <single_smiles>  (13) 
Oc1ccccn1

>  <base_name>  (13) 
D68EV3CPROA-x1498_0A

>  <lig_resn>  (13) 
LIG

>  <lig_resi>  (13) 
201

>  <lig_chain>  (13) 
B

>  <lig_segi>  (13) 


>  <lig_alt>  (13) 


>  <polymer_chain>  (13) 
B

$$$$
x1498_0A§3
     RDKit          3D

  7  7  0  0  0  0  0  0  0  0999 V2000
  -25.7720  -12.6800  -37.0900 N   0  0  0  0  0  0  0  0  0  0  0  0
  -27.0190  -12.3010  -37.4870 C   0  0  0  0  0  0  0  0  0  0  0  0
  -27.2540  -10.9840  -37.6450 O   0  0  0  0  0  0  0  0  0  0  0  0
  -28.0390  -13.2250  -37.7230 C   0  0  0  0  0  0  0  0  0  0  0  0
  -27.7590  -14.5720  -37.5430 C   0  0  0  0  0  0  0  0  0  0  0  0
  -26.5050  -14.9720  -37.1300 C   0  0  0  0  0  0  0  0  0  0  0  0
  -25.5470  -13.9970  -36.9200 C   0  0  0  0  0  0  0  0  0  0  0  0
  1  2  2  0
  1  7  1  0
  2  3  1  0
  2  4  1  0
  4  5  2  0
  5  6  1  0
  6  7  2  0
A    1
 N  
A    2
 C  
A    3
 O  
A    4
 C1 
A    5
 C2 
A    6
 C3 
A    7
 C4 
M  END
>  <XChem_code>  (14) 
D68EV3CPROA-x1498

>  <Occupancy>  (14) 
[0.62, 0.62, 0.62, 0.62, 0.62, 0.62, 0.62]

>  <TempFactor>  (14) 
[32.45, 33.25, 31.28, 30.67, 32.17, 31.98, 32.5]

>  <RealCrystalName>  (14) 
D68EV3CPROA-x1498

>  <smiles>  (14) 
OC=1C=CC=CN1

>  <new_smiles>  (14) 
OC=1C=CC=CN1

>  <alternate_name>  (14) 
Z1741982125

>  <site_name>  (14) 
1

>  <pdb_entry>  (14) 
nan

>  <mol>  (14) 
<rdkit.Chem.rdchem.Mol object at 0x13a26d1c0>

>  <single_smiles>  (14) 
Oc1ccccn1

>  <base_name>  (14) 
D68EV3CPROA-x1498_0A

>  <lig_resn>  (14) 
LIG

>  <lig_resi>  (14) 
301

>  <lig_chain>  (14) 
B

>  <lig_segi>  (14) 


>  <lig_alt>  (14) 


>  <polymer_chain>  (14) 
B

$$$$
x1649_0A§1
     RDKit          3D

 11 12  0  0  0  0  0  0  0  0999 V2000
   -1.2320    5.9560  -23.6320 N   0  0  0  0  0  0  0  0  0  0  0  0
   -1.5070    6.5780  -21.2380 C   0  0  0  0  0  0  0  0  0  0  0  0
   -0.9360    6.9660  -22.5660 C   0  0  0  0  0  0  0  0  0  0  0  0
   -2.2730    4.9460  -25.3440 N   0  0  0  0  0  0  0  0  0  0  0  0
   -2.3020    5.9290  -24.4760 C   0  0  0  0  0  0  0  0  0  0  0  0
   -1.0880    4.2640  -25.0530 C   0  0  0  0  0  0  0  0  0  0  0  0
   -0.5160    3.1510  -25.6680 C   0  0  0  0  0  0  0  0  0  0  0  0
    0.7020    2.6750  -25.1940 C   0  0  0  0  0  0  0  0  0  0  0  0
    1.3530    3.3060  -24.1320 C   0  0  0  0  0  0  0  0  0  0  0  0
    0.7980    4.4260  -23.5200 C   0  0  0  0  0  0  0  0  0  0  0  0
   -0.4300    4.8790  -23.9880 C   0  0  0  0  0  0  0  0  0  0  0  0
  1  3  1  0
  1  5  1  0
  1 11  1  0
  2  3  1  0
  4  5  2  0
  4  6  1  0
  6  7  1  0
  6 11  2  0
  7  8  2  0
  8  9  1  0
  9 10  2  0
 10 11  1  0
A    1
 N  
A    2
 C  
A    3
 C1 
A    4
 N1 
A    5
 C2 
A    6
 C3 
A    7
 C4 
A    8
 C5 
A    9
 C6 
A   10
 C7 
A   11
 C8 
M  END
>  <XChem_code>  (15) 
D68EV3CPROA-x1649

>  <Occupancy>  (15) 
[0.78, 0.78, 0.78, 0.78, 0.78, 0.78, 0.78, 0.78, 0.78, 0.78, 0.78]

>  <TempFactor>  (15) 
[48.54, 45.3, 46.26, 47.61, 47.28, 44.87, 43.5, 45.73, 46.05, 48.86, 46.81]

>  <RealCrystalName>  (15) 
D68EV3CPROA-x1649

>  <smiles>  (15) 
CCN1C=NC=2C=CC=CC12

>  <new_smiles>  (15) 
CCN1C=NC=2C=CC=CC12

>  <alternate_name>  (15) 
Z53833304

>  <site_name>  (15) 
3

>  <pdb_entry>  (15) 
nan

>  <mol>  (15) 
<rdkit.Chem.rdchem.Mol object at 0x13a26dbd0>

>  <single_smiles>  (15) 
CCn1cnc2ccccc21

>  <base_name>  (15) 
D68EV3CPROA-x1649_0A

>  <lig_resn>  (15) 
LIG

>  <lig_resi>  (15) 
201

>  <lig_chain>  (15) 
A

>  <lig_segi>  (15) 


>  <lig_alt>  (15) 


>  <polymer_chain>  (15) 
A

$$$$
x0818_0B§1
     RDKit          3D

 14 14  0  0  0  0  0  0  0  0999 V2000
   -7.6410    3.6130  -53.8350 N   0  0  0  0  0  0  0  0  0  0  0  0
   -6.8560    4.8280  -54.0620 C   0  0  0  0  0  0  0  0  0  0  0  0
   -8.8820    2.3690  -52.4440 O   0  0  0  0  0  0  0  0  0  0  0  0
   -8.1170    2.9570  -55.0550 C   0  0  0  0  0  0  0  0  0  0  0  0
   -6.1620    2.3990  -51.1500 O   0  0  0  0  0  0  0  0  0  0  0  0
   -7.9280    3.1120  -52.6200 C   0  0  0  0  0  0  0  0  0  0  0  0
   -7.0490    3.4750  -51.4310 C   0  0  0  0  0  0  0  0  0  0  0  0
   -6.5280    1.5440  -50.1470 C   0  0  0  0  0  0  0  0  0  0  0  0
   -5.5680    1.0500  -49.2810 C   0  0  0  0  0  0  0  0  0  0  0  0
   -5.9630    0.2400  -48.2320 C   0  0  0  0  0  0  0  0  0  0  0  0
   -7.2920   -0.0940  -48.0580 C   0  0  0  0  0  0  0  0  0  0  0  0
   -8.2010    0.4030  -48.9470 C   0  0  0  0  0  0  0  0  0  0  0  0
   -7.8690    1.2210  -49.9900 C   0  0  0  0  0  0  0  0  0  0  0  0
   -9.5020    0.0550  -48.8090 F   0  0  0  0  0  0  0  0  0  0  0  0
  1  2  1  0
  1  4  1  0
  1  6  1  0
  3  6  2  0
  5  7  1  0
  5  8  1  0
  6  7  1  0
  8  9  2  0
  8 13  1  0
  9 10  1  0
 10 11  2  0
 11 12  1  0
 12 13  2  0
 12 14  1  0
A    1
 N  
A    2
 C  
A    3
 O  
A    4
 C1 
A    5
 O1 
A    6
 C2 
A    7
 C3 
A    8
 C4 
A    9
 C5 
A   10
 C6 
A   11
 C7 
A   12
 C8 
A   13
 C9 
A   14
 F  
M  END
>  <XChem_code>  (16) 
D68EV3CPROA-x0818

>  <Occupancy>  (16) 
[0.68, 0.68, 0.68, 0.68, 0.68, 0.68, 0.68, 0.68, 0.68, 0.68, 0.68, 0.68, 0.68, 0.68]

>  <TempFactor>  (16) 
[74.66, 70.74, 84.12, 71.46, 69.92, 77.4, 74.2, 65.21, 64.01, 63.41, 62.77, 62.29, 63.9, 62.79]

>  <RealCrystalName>  (16) 
D68EV3CPROA-x0818

>  <smiles>  (16) 
CN(C)C(=O)COc1cccc(F)c1

>  <new_smiles>  (16) 
CN(C)C(=O)COc1cccc(F)c1

>  <alternate_name>  (16) 
Z19755216

>  <site_name>  (16) 
2

>  <pdb_entry>  (16) 
nan

>  <mol>  (16) 
<rdkit.Chem.rdchem.Mol object at 0x13a1a3760>

>  <single_smiles>  (16) 
CN(C)C(=O)COc1cccc(F)c1

>  <base_name>  (16) 
D68EV3CPROA-x0818_0B

>  <lig_resn>  (16) 
LIG

>  <lig_resi>  (16) 
201

>  <lig_chain>  (16) 
B

>  <lig_segi>  (16) 


>  <lig_alt>  (16) 


>  <polymer_chain>  (16) 
B

$$$$
x1374_0A§1
     RDKit          3D

 14 14  0  0  0  0  0  0  0  0999 V2000
  -28.0210    0.2670  -42.7610 N   0  0  0  0  0  0  0  0  0  0  0  0
  -29.3430    2.3580  -42.5030 C   0  0  0  0  0  0  0  0  0  0  0  0
  -31.6360    0.5690  -43.3280 O   0  0  0  0  0  0  0  0  0  0  0  0
  -29.4000    0.8300  -42.5410 C   0  0  1  0  0  0  0  0  0  0  0  0
  -30.0030   -0.2230  -44.6300 O   0  0  0  0  0  0  0  0  0  0  0  0
  -30.3600    0.3300  -43.6290 C   0  0  0  0  0  0  0  0  0  0  0  0
  -27.6400    1.0900  -45.0530 O   0  0  0  0  0  0  0  0  0  0  0  0
  -32.5890   -0.4370  -43.7500 C   0  0  0  0  0  0  0  0  0  0  0  0
  -26.0230    1.6140  -43.2810 O   0  0  0  0  0  0  0  0  0  0  0  0
  -26.0100   -0.7660  -44.2930 C   0  0  0  0  0  0  0  0  0  0  0  0
  -27.6840   -0.7200  -41.7120 C   0  0  0  0  0  0  0  0  0  0  0  0
  -28.4830   -0.2110  -40.5400 C   0  0  0  0  0  0  0  0  0  0  0  0
  -29.8010    0.2390  -41.1680 C   0  0  0  0  0  0  0  0  0  0  0  0
  -26.9150    0.6830  -43.8930 S   0  0  1  0  0  0  0  0  0  0  0  0
  1  4  1  0
  1 11  1  0
  1 14  1  0
  4  2  1  1
  3  6  1  0
  3  8  1  0
  4  6  1  0
  4 13  1  0
  5  6  2  0
  7 14  2  0
  9 14  2  0
 14 10  1  6
 11 12  1  0
 12 13  1  0
A    1
 N  
A    2
 C  
A    3
 O  
A    4
 C1 
A    5
 O1 
A    6
 C2 
A    7
 O2 
A    8
 C3 
A    9
 O3 
A   10
 C4 
A   11
 C5 
A   12
 C6 
A   13
 C7 
A   14
 S  
M  END
>  <XChem_code>  (17) 
D68EV3CPROA-x1374

>  <Occupancy>  (17) 
[0.82, 0.82, 0.82, 0.82, 0.82, 0.82, 0.82, 0.82, 0.82, 0.82, 0.82, 0.82, 0.82, 0.82]

>  <TempFactor>  (17) 
[149.65, 140.09, 130.19, 141.61, 127.65, 134.49, 167.95, 126.45, 158.02, 154.65, 141.41, 136.38, 138.79, 162.21]

>  <RealCrystalName>  (17) 
D68EV3CPROA-x1374

>  <smiles>  (17) 
CC1(C(OC)=O)N(S(=O)(C)=O)CCC1

>  <new_smiles>  (17) 
CC1(C(OC)=O)N(S(=O)(C)=O)CCC1

>  <alternate_name>  (17) 
POB0008

>  <site_name>  (17) 
4

>  <pdb_entry>  (17) 
nan

>  <mol>  (17) 
<rdkit.Chem.rdchem.Mol object at 0x13a26cc80>

>  <single_smiles>  (17) 
COC(=O)C1(C)CCCN1S(C)(=O)=O

>  <base_name>  (17) 
D68EV3CPROA-x1374_0A

>  <lig_resn>  (17) 
LIG

>  <lig_resi>  (17) 
201

>  <lig_chain>  (17) 
A

>  <lig_segi>  (17) 


>  <lig_alt>  (17) 


>  <polymer_chain>  (17) 
A

$$$$
x0232_0B§1
     RDKit          3D

 13 14  0  0  0  0  0  0  0  0999 V2000
  -28.9430    5.1370  -43.6670 N   0  0  0  0  0  0  0  0  0  0  0  0
  -27.9720    2.8620  -42.5090 C   0  0  0  0  0  0  0  0  0  0  0  0
  -27.1950    5.2630  -41.9620 O   0  0  0  0  0  0  0  0  0  0  0  0
  -28.6530    1.8670  -41.8130 C   0  0  0  0  0  0  0  0  0  0  0  0
  -26.8540   -1.0940  -43.1930 N   0  0  0  0  0  0  0  0  0  0  0  0
  -29.4900    4.6060  -41.3390 O   0  0  0  0  0  0  0  0  0  0  0  0
  -25.3950    0.5280  -44.5860 S   0  0  0  0  0  0  0  0  0  0  0  0
  -28.3200    0.5350  -42.0120 C   0  0  0  0  0  0  0  0  0  0  0  0
  -27.3000    0.1970  -42.9010 C   0  0  0  0  0  0  0  0  0  0  0  0
  -25.8830   -1.0430  -44.0380 C   0  0  0  0  0  0  0  0  0  0  0  0
  -26.6240    1.2180  -43.5770 C   0  0  0  0  0  0  0  0  0  0  0  0
  -26.9510    2.5530  -43.3950 C   0  0  0  0  0  0  0  0  0  0  0  0
  -28.4030    4.5580  -42.2720 S   0  0  1  0  0  0  0  0  0  0  0  0
 13  1  1  6
  2  4  2  0
  2 12  1  0
  2 13  1  0
  3 13  2  0
  4  8  1  0
  5  9  1  0
  5 10  2  0
  6 13  2  0
  7 10  1  0
  7 11  1  0
  8  9  2  0
  9 11  1  0
 11 12  2  0
A    1
 N  
A    2
 C  
A    3
 O  
A    4
 C1 
A    5
 N1 
A    6
 O1 
A    7
 S1 
A    8
 C2 
A    9
 C3 
A   10
 C4 
A   11
 C5 
A   12
 C6 
A   13
 S  
M  END
>  <XChem_code>  (18) 
D68EV3CPROA-x0232

>  <Occupancy>  (18) 
[0.66, 0.66, 0.66, 0.66, 0.66, 0.66, 0.66, 0.66, 0.66, 0.66, 0.66, 0.66, 0.66]

>  <TempFactor>  (18) 
[60.8, 58.09, 60.48, 59.46, 56.24, 55.39, 51.37, 58.49, 56.62, 54.25, 55.45, 56.25, 62.86]

>  <RealCrystalName>  (18) 
D68EV3CPROA-x0232

>  <smiles>  (18) 
NS(=O)(=O)c1ccc2ncsc2c1

>  <new_smiles>  (18) 
NS(=O)(=O)c1ccc2ncsc2c1

>  <alternate_name>  (18) 
Z1269184613

>  <site_name>  (18) 
4

>  <pdb_entry>  (18) 
nan

>  <mol>  (18) 
<rdkit.Chem.rdchem.Mol object at 0x13a1a31b0>

>  <single_smiles>  (18) 
NS(=O)(=O)c1ccc2ncsc2c1

>  <base_name>  (18) 
D68EV3CPROA-x0232_0B

>  <lig_resn>  (18) 
LIG

>  <lig_resi>  (18) 
202

>  <lig_chain>  (18) 
B

>  <lig_segi>  (18) 


>  <lig_alt>  (18) 


>  <polymer_chain>  (18) 
B

$$$$
x0771_1A§1
     RDKit          3D

 12 13  0  0  0  0  0  0  0  0999 V2000
   -5.6790   11.9310  -29.3990 N   0  0  0  0  0  0  0  0  0  0  0  0
   -6.3840   10.8960  -29.8420 C   0  0  0  0  0  0  0  0  0  0  0  0
   -6.9430   10.0880  -29.0820 O   0  0  0  0  0  0  0  0  0  0  0  0
   -6.5020   10.7170  -31.3270 C   0  0  0  0  0  0  0  0  0  0  0  0
   -6.7520   10.0160  -35.4110 N   0  0  0  0  0  0  0  0  0  0  0  0
   -6.5570   11.8360  -32.1720 C   0  0  0  0  0  0  0  0  0  0  0  0
   -6.6430   11.6880  -33.5490 C   0  0  0  0  0  0  0  0  0  0  0  0
   -6.6470   10.3990  -34.0790 C   0  0  0  0  0  0  0  0  0  0  0  0
   -6.3200    8.6230  -35.5550 C   0  0  0  0  0  0  0  0  0  0  0  0
   -6.4470    8.0560  -34.1300 C   0  0  0  0  0  0  0  0  0  0  0  0
   -6.5640    9.2800  -33.2630 C   0  0  0  0  0  0  0  0  0  0  0  0
   -6.5210    9.4400  -31.8850 C   0  0  0  0  0  0  0  0  0  0  0  0
  1  2  1  0
  2  3  2  0
  2  4  1  0
  4  6  2  0
  4 12  1  0
  5  8  1  0
  5  9  1  0
  6  7  1  0
  7  8  2  0
  8 11  1  0
  9 10  1  0
 10 11  1  0
 11 12  2  0
A    1
 N  
A    2
 C  
A    3
 O  
A    4
 C1 
A    5
 N1 
A    6
 C2 
A    7
 C3 
A    8
 C4 
A    9
 C5 
A   10
 C6 
A   11
 C7 
A   12
 C8 
M  END
>  <XChem_code>  (19) 
D68EV3CPROA-x0771

>  <Occupancy>  (19) 
[0.64, 0.64, 0.64, 0.64, 0.64, 0.64, 0.64, 0.64, 0.64, 0.64, 0.64, 0.64]

>  <TempFactor>  (19) 
[49.02, 50.98, 46.17, 54.1, 60.3, 56.33, 58.38, 60.28, 61.4, 60.15, 59.84, 57.61]

>  <RealCrystalName>  (19) 
D68EV3CPROA-x0771

>  <smiles>  (19) 
Cl.NC(=O)c1ccc2NCCc2c1

>  <new_smiles>  (19) 
Cl.NC(=O)c1ccc2NCCc2c1

>  <alternate_name>  (19) 
Z1696091761

>  <site_name>  (19) 
3

>  <pdb_entry>  (19) 
nan

>  <mol>  (19) 
<rdkit.Chem.rdchem.Mol object at 0x13a1a3680>

>  <single_smiles>  (19) 
NC(=O)c1ccc2c(c1)CCN2

>  <base_name>  (19) 
D68EV3CPROA-x0771_1A

>  <lig_resn>  (19) 
LIG

>  <lig_resi>  (19) 
301

>  <lig_chain>  (19) 
A

>  <lig_segi>  (19) 


>  <lig_alt>  (19) 


>  <polymer_chain>  (19) 
A

$$$$
x0771_1A§2
     RDKit          3D

 12 13  0  0  0  0  0  0  0  0999 V2000
   -2.6830    5.4030  -25.0080 N   0  0  0  0  0  0  0  0  0  0  0  0
   -1.7550    5.7130  -24.1080 C   0  0  0  0  0  0  0  0  0  0  0  0
   -1.7930    6.7610  -23.4370 O   0  0  0  0  0  0  0  0  0  0  0  0
   -0.6140    4.7500  -23.9150 C   0  0  0  0  0  0  0  0  0  0  0  0
    2.6400    2.1790  -23.7060 N   0  0  0  0  0  0  0  0  0  0  0  0
    0.1500    4.7670  -22.7340 C   0  0  0  0  0  0  0  0  0  0  0  0
    1.2330    3.9130  -22.5710 C   0  0  0  0  0  0  0  0  0  0  0  0
    1.5550    3.0420  -23.6100 C   0  0  0  0  0  0  0  0  0  0  0  0
    2.7380    1.6080  -25.0490 C   0  0  0  0  0  0  0  0  0  0  0  0
    1.3730    1.9370  -25.6830 C   0  0  0  0  0  0  0  0  0  0  0  0
    0.8020    2.9910  -24.7740 C   0  0  0  0  0  0  0  0  0  0  0  0
   -0.2840    3.8470  -24.9270 C   0  0  0  0  0  0  0  0  0  0  0  0
  1  2  1  0
  2  3  2  0
  2  4  1  0
  4  6  2  0
  4 12  1  0
  5  8  1  0
  5  9  1  0
  6  7  1  0
  7  8  2  0
  8 11  1  0
  9 10  1  0
 10 11  1  0
 11 12  2  0
A    1
 N  
A    2
 C  
A    3
 O  
A    4
 C1 
A    5
 N1 
A    6
 C2 
A    7
 C3 
A    8
 C4 
A    9
 C5 
A   10
 C6 
A   11
 C7 
A   12
 C8 
M  END
>  <XChem_code>  (20) 
D68EV3CPROA-x0771

>  <Occupancy>  (20) 
[0.64, 0.64, 0.64, 0.64, 0.64, 0.64, 0.64, 0.64, 0.64, 0.64, 0.64, 0.64]

>  <TempFactor>  (20) 
[53.92, 56.89, 55.28, 56.68, 57.15, 58.7, 57.68, 56.24, 55.33, 55.38, 56.13, 56.56]

>  <RealCrystalName>  (20) 
D68EV3CPROA-x0771

>  <smiles>  (20) 
Cl.NC(=O)c1ccc2NCCc2c1

>  <new_smiles>  (20) 
Cl.NC(=O)c1ccc2NCCc2c1

>  <alternate_name>  (20) 
Z1696091761

>  <site_name>  (20) 
3

>  <pdb_entry>  (20) 
nan

>  <mol>  (20) 
<rdkit.Chem.rdchem.Mol object at 0x13a1a3680>

>  <single_smiles>  (20) 
NC(=O)c1ccc2c(c1)CCN2

>  <base_name>  (20) 
D68EV3CPROA-x0771_1A

>  <lig_resn>  (20) 
LIG

>  <lig_resi>  (20) 
201

>  <lig_chain>  (20) 
A

>  <lig_segi>  (20) 


>  <lig_alt>  (20) 


>  <polymer_chain>  (20) 
A

$$$$
x1686_0B§1
     RDKit          3D

  6  6  0  0  0  0  0  0  0  0999 V2000
   -9.3050    0.5180  -50.0960 N   0  0  0  0  0  0  0  0  0  0  0  0
   -7.2170    0.6990  -49.5700 C   0  0  0  0  0  0  0  0  0  0  0  0
   -8.3110   -0.0840  -49.3930 C   0  0  0  0  0  0  0  0  0  0  0  0
   -7.5110    1.7820  -50.3480 N   0  0  0  0  0  0  0  0  0  0  0  0
   -8.7930    1.6230  -50.6430 C   0  0  0  0  0  0  0  0  0  0  0  0
   -5.3120    0.3570  -48.8360 I   0  0  0  0  0  0  0  0  0  0  0  0
  1  3  1  0
  1  5  1  0
  2  3  2  0
  2  4  1  0
  2  6  1  0
  4  5  2  0
A    1
 N  
A    2
 C  
A    3
 C1 
A    4
 N1 
A    5
 C2 
A    6
 I  
M  END
>  <XChem_code>  (21) 
D68EV3CPROA-x1686

>  <Occupancy>  (21) 
[0.32, 0.32, 0.32, 0.32, 0.32, 0.32]

>  <TempFactor>  (21) 
[31.28, 35.4, 33.07, 34.43, 32.39, 41.9]

>  <RealCrystalName>  (21) 
D68EV3CPROA-x1686

>  <smiles>  (21) 
IC1=CNC=N1

>  <new_smiles>  (21) 
IC1=CNC=N1

>  <alternate_name>  (21) 
Z1201621250

>  <site_name>  (21) 
2

>  <pdb_entry>  (21) 
nan

>  <mol>  (21) 
<rdkit.Chem.rdchem.Mol object at 0x13a26dd20>

>  <single_smiles>  (21) 
Ic1c[nH]cn1

>  <base_name>  (21) 
D68EV3CPROA-x1686_0B

>  <lig_resn>  (21) 
LIG

>  <lig_resi>  (21) 
201

>  <lig_chain>  (21) 
B

>  <lig_segi>  (21) 


>  <lig_alt>  (21) 


>  <polymer_chain>  (21) 
B

$$$$
x1457_0B§1
     RDKit          3D

 12 11  0  0  0  0  0  0  0  0999 V2000
  -27.0550    2.1370  -43.6170 N   0  0  0  0  0  0  0  0  0  0  0  0
  -28.4130    3.6310  -44.9130 C   0  0  0  0  0  0  0  0  0  0  0  0
  -27.7710    4.0140  -42.6420 O   0  0  0  0  0  0  0  0  0  0  0  0
  -27.7210    3.2850  -43.6280 C   0  0  0  0  0  0  0  0  0  0  0  0
  -25.9830    0.1600  -45.1350 N   0  0  0  0  0  0  0  0  0  0  0  0
  -24.0080    1.2290  -45.2930 O   0  0  0  0  0  0  0  0  0  0  0  0
  -25.6180    2.1020  -43.7620 C   0  0  0  0  0  0  0  0  0  0  0  0
  -25.1270    1.1200  -44.8030 C   0  0  0  0  0  0  0  0  0  0  0  0
  -26.1110   -1.0510  -44.3390 C   0  0  0  0  0  0  0  0  0  0  0  0
  -26.9230   -0.8710  -43.1300 C   0  0  0  0  0  0  0  0  0  0  0  0
  -27.5230   -0.6040  -42.1540 C   0  0  0  0  0  0  0  0  0  0  0  0
  -28.4040   -0.1050  -40.6690 Br  0  0  0  0  0  0  0  0  0  0  0  0
  1  4  1  0
  1  7  1  0
  2  4  1  0
  3  4  2  0
  5  8  1  0
  5  9  1  0
  6  8  2  0
  7  8  1  0
  9 10  1  0
 10 11  3  0
 11 12  1  0
A    1
 N  
A    2
 C  
A    3
 O  
A    4
 C1 
A    5
 N1 
A    6
 O1 
A    7
 C2 
A    8
 C3 
A    9
 C4 
A   10
 C5 
A   11
 C6 
A   12
BR  
M  END
>  <XChem_code>  (22) 
D68EV3CPROA-x1457

>  <Occupancy>  (22) 
[0.52, 0.52, 0.52, 0.52, 0.52, 0.52, 0.52, 0.52, 0.52, 0.52, 0.52, 0.52]

>  <TempFactor>  (22) 
[51.58, 51.12, 51.56, 51.8, 56.17, 55.44, 54.06, 54.19, 53.97, 54.52, 55.45, 59.88]

>  <RealCrystalName>  (22) 
D68EV3CPROA-x1457

>  <smiles>  (22) 
CC(=O)NCC(=O)NCC#CBr

>  <new_smiles>  (22) 
CC(=O)NCC(=O)NCC#CBr

>  <alternate_name>  (22) 
NCL-00025345

>  <site_name>  (22) 
4

>  <pdb_entry>  (22) 
nan

>  <mol>  (22) 
<rdkit.Chem.rdchem.Mol object at 0x13a26d000>

>  <single_smiles>  (22) 
CC(=O)NCC(=O)NCC#CBr

>  <base_name>  (22) 
D68EV3CPROA-x1457_0B

>  <lig_resn>  (22) 
LIG

>  <lig_resi>  (22) 
201

>  <lig_chain>  (22) 
B

>  <lig_segi>  (22) 


>  <lig_alt>  (22) 


>  <polymer_chain>  (22) 
B

$$$$
x0865_0A§1
     RDKit          3D

 15 16  0  0  0  0  0  0  0  0999 V2000
    0.7100    3.7070  -24.7720 N   0  0  0  0  0  0  0  0  0  0  0  0
    2.0780    1.2180  -27.1090 C   0  0  0  0  0  0  0  0  0  0  0  0
    3.4040    1.6190  -23.6190 O   0  0  0  0  0  0  0  0  0  0  0  0
    2.1240    2.6510  -26.6100 C   0  0  2  0  0  0  0  0  0  0  0  0
    3.0690    2.7290  -25.5310 N   0  0  0  0  0  0  0  0  0  0  0  0
    0.6710    3.1540  -26.1300 C   0  0  0  0  0  0  0  0  0  0  0  0
    0.3610    5.6590  -23.5340 N   0  0  0  0  0  0  0  0  0  0  0  0
    1.4320    2.9300  -23.7680 C   0  0  0  0  0  0  0  0  0  0  0  0
    2.7240    2.3810  -24.2940 C   0  0  0  0  0  0  0  0  0  0  0  0
   -0.1420    4.7300  -24.3690 C   0  0  0  0  0  0  0  0  0  0  0  0
   -0.4410    6.6450  -23.0980 C   0  0  0  0  0  0  0  0  0  0  0  0
   -1.7670    6.7680  -23.4530 C   0  0  0  0  0  0  0  0  0  0  0  0
   -2.3090    5.8380  -24.3220 C   0  0  0  0  0  0  0  0  0  0  0  0
   -1.5000    4.8240  -24.7750 C   0  0  0  0  0  0  0  0  0  0  0  0
   -2.0210    3.9230  -25.6340 F   0  0  0  0  0  0  0  0  0  0  0  0
  1  6  1  0
  1  8  1  0
  1 10  1  0
  4  2  1  1
  3  9  2  0
  4  5  1  0
  4  6  1  0
  5  9  1  0
  7 10  2  0
  7 11  1  0
  8  9  1  0
 10 14  1  0
 11 12  2  0
 12 13  1  0
 13 14  2  0
 14 15  1  0
A    1
 N  
A    2
 C  
A    3
 O  
A    4
 C1 
A    5
 N1 
A    6
 C2 
A    7
 N2 
A    8
 C3 
A    9
 C4 
A   10
 C5 
A   11
 C6 
A   12
 C7 
A   13
 C8 
A   14
 C9 
A   15
 F  
M  END
>  <XChem_code>  (23) 
D68EV3CPROA-x0865

>  <Occupancy>  (23) 
[0.5, 0.5, 0.5, 0.5, 0.5, 0.5, 0.5, 0.5, 0.5, 0.5, 0.5, 0.5, 0.5, 0.5, 0.5]

>  <TempFactor>  (23) 
[43.35, 46.76, 44.95, 45.67, 45.52, 44.53, 41.67, 42.66, 43.77, 43.04, 41.13, 40.87, 42.18, 44.01, 46.92]

>  <RealCrystalName>  (23) 
D68EV3CPROA-x0865

>  <smiles>  (23) 
CC1CN(CC(=O)N1)c2ncccc2F

>  <new_smiles>  (23) 
CC1CN(CC(=O)N1)c2ncccc2F

>  <alternate_name>  (23) 
Z2273972081

>  <site_name>  (23) 
3

>  <pdb_entry>  (23) 
nan

>  <mol>  (23) 
<rdkit.Chem.rdchem.Mol object at 0x13a1a3920>

>  <single_smiles>  (23) 
CC1CN(c2ncccc2F)CC(=O)N1

>  <base_name>  (23) 
D68EV3CPROA-x0865_0A

>  <lig_resn>  (23) 
LIG

>  <lig_resi>  (23) 
201

>  <lig_chain>  (23) 
A

>  <lig_segi>  (23) 


>  <lig_alt>  (23) 


>  <polymer_chain>  (23) 
A

$$$$
x0865_0A§2
     RDKit          3D

 15 16  0  0  0  0  0  0  0  0999 V2000
  -11.7210   -0.9580  -14.1330 N   0  0  0  0  0  0  0  0  0  0  0  0
  -12.0650   -4.5190  -14.9860 C   0  0  0  0  0  0  0  0  0  0  0  0
  -14.2600   -1.8800  -16.5100 O   0  0  0  0  0  0  0  0  0  0  0  0
  -12.4550   -3.3960  -14.0410 C   0  0  2  0  0  0  0  0  0  0  0  0
  -13.6380   -2.7600  -14.5510 N   0  0  0  0  0  0  0  0  0  0  0  0
  -11.2620   -2.3260  -13.8750 C   0  0  0  0  0  0  0  0  0  0  0  0
  -11.9960    1.1440  -13.1450 N   0  0  0  0  0  0  0  0  0  0  0  0
  -12.5400   -0.7540  -15.3240 C   0  0  0  0  0  0  0  0  0  0  0  0
  -13.5600   -1.8370  -15.5060 C   0  0  0  0  0  0  0  0  0  0  0  0
  -11.1650    0.1400  -13.4850 C   0  0  0  0  0  0  0  0  0  0  0  0
  -11.4900    2.2340  -12.5450 C   0  0  0  0  0  0  0  0  0  0  0  0
  -10.1530    2.3970  -12.2540 C   0  0  0  0  0  0  0  0  0  0  0  0
   -9.2760    1.3780  -12.5770 C   0  0  0  0  0  0  0  0  0  0  0  0
   -9.7800    0.2570  -13.1900 C   0  0  0  0  0  0  0  0  0  0  0  0
   -8.9300   -0.7460  -13.4930 F   0  0  0  0  0  0  0  0  0  0  0  0
  1  6  1  0
  1  8  1  0
  1 10  1  0
  4  2  1  6
  3  9  2  0
  4  5  1  0
  4  6  1  0
  5  9  1  0
  7 10  2  0
  7 11  1  0
  8  9  1  0
 10 14  1  0
 11 12  2  0
 12 13  1  0
 13 14  2  0
 14 15  1  0
A    1
 N  
A    2
 C  
A    3
 O  
A    4
 C1 
A    5
 N1 
A    6
 C2 
A    7
 N2 
A    8
 C3 
A    9
 C4 
A   10
 C5 
A   11
 C6 
A   12
 C7 
A   13
 C8 
A   14
 C9 
A   15
 F  
M  END
>  <XChem_code>  (24) 
D68EV3CPROA-x0865

>  <Occupancy>  (24) 
[0.5, 0.5, 0.5, 0.5, 0.5, 0.5, 0.5, 0.5, 0.5, 0.5, 0.5, 0.5, 0.5, 0.5, 0.5]

>  <TempFactor>  (24) 
[43.35, 46.76, 44.95, 45.67, 45.52, 44.53, 41.67, 42.66, 43.77, 43.04, 41.13, 40.87, 42.18, 44.01, 46.92]

>  <RealCrystalName>  (24) 
D68EV3CPROA-x0865

>  <smiles>  (24) 
CC1CN(CC(=O)N1)c2ncccc2F

>  <new_smiles>  (24) 
CC1CN(CC(=O)N1)c2ncccc2F

>  <alternate_name>  (24) 
Z2273972081

>  <site_name>  (24) 
3

>  <pdb_entry>  (24) 
nan

>  <mol>  (24) 
<rdkit.Chem.rdchem.Mol object at 0x13a1a3920>

>  <single_smiles>  (24) 
CC1CN(c2ncccc2F)CC(=O)N1

>  <base_name>  (24) 
D68EV3CPROA-x0865_0A

>  <lig_resn>  (24) 
LIG

>  <lig_resi>  (24) 
201

>  <lig_chain>  (24) 
A

>  <lig_segi>  (24) 


>  <lig_alt>  (24) 


>  <polymer_chain>  (24) 
B

$$$$
x0698_0B§1
     RDKit          3D

 15 16  0  0  0  0  0  0  0  0999 V2000
   -5.4580   -3.7620  -54.8830 N   0  0  0  0  0  0  0  0  0  0  0  0
   -7.2180   -3.6720  -56.5530 C   0  0  0  0  0  0  0  0  0  0  0  0
   -8.5750   -1.8180  -54.9020 O   0  0  0  0  0  0  0  0  0  0  0  0
   -6.9000   -3.5830  -55.0640 C   0  0  2  0  0  0  0  0  0  0  0  0
   -6.8020   -1.5050  -53.6420 N   0  0  0  0  0  0  0  0  0  0  0  0
   -7.3990   -2.2960  -54.4700 C   0  0  0  0  0  0  0  0  0  0  0  0
   -8.7300   -0.5490  -54.2930 N   0  0  0  0  0  0  0  0  0  0  0  0
   -7.6500   -0.4300  -53.5850 C   0  0  0  0  0  0  0  0  0  0  0  0
   -7.2880    0.8170  -52.8430 C   0  0  0  0  0  0  0  0  0  0  0  0
   -7.2590    0.6530  -51.3430 C   0  0  0  0  0  0  0  0  0  0  0  0
   -8.4320    0.4820  -50.6230 C   0  0  0  0  0  0  0  0  0  0  0  0
   -8.3980    0.2810  -49.2520 C   0  0  0  0  0  0  0  0  0  0  0  0
   -7.1950    0.2600  -48.5880 C   0  0  0  0  0  0  0  0  0  0  0  0
   -6.0260    0.4460  -49.2860 C   0  0  0  0  0  0  0  0  0  0  0  0
   -6.0550    0.6350  -50.6550 C   0  0  0  0  0  0  0  0  0  0  0  0
  1  4  1  0
  4  2  1  6
  3  6  1  0
  3  7  1  0
  4  6  1  0
  5  6  2  0
  5  8  1  0
  7  8  2  0
  8  9  1  0
  9 10  1  0
 10 11  2  0
 10 15  1  0
 11 12  1  0
 12 13  2  0
 13 14  1  0
 14 15  2  0
A    1
 N  
A    2
 C  
A    3
 O  
A    4
 C1 
A    5
 N1 
A    6
 C2 
A    7
 N2 
A    8
 C3 
A    9
 C4 
A   10
 C5 
A   11
 C6 
A   12
 C7 
A   13
 C8 
A   14
 C9 
A   15
 C10
M  END
>  <XChem_code>  (25) 
D68EV3CPROA-x0698

>  <Occupancy>  (25) 
[0.62, 0.62, 0.62, 0.62, 0.62, 0.62, 0.62, 0.62, 0.62, 0.62, 0.62, 0.62, 0.62, 0.62, 0.62]

>  <TempFactor>  (25) 
[46.22, 44.12, 45.17, 45.42, 41.39, 43.48, 41.25, 39.31, 37.8, 35.12, 33.96, 32.96, 32.07, 33.52, 34.44]

>  <RealCrystalName>  (25) 
D68EV3CPROA-x0698

>  <smiles>  (25) 
Cl.CC(N)c1nc(Cc2ccccc2)no1

>  <new_smiles>  (25) 
Cl.CC(N)c1nc(Cc2ccccc2)no1

>  <alternate_name>  (25) 
Z1398461996

>  <site_name>  (25) 
2

>  <pdb_entry>  (25) 
nan

>  <mol>  (25) 
<rdkit.Chem.rdchem.Mol object at 0x13a1a3450>

>  <single_smiles>  (25) 
CC(N)c1nc(Cc2ccccc2)no1

>  <base_name>  (25) 
D68EV3CPROA-x0698_0B

>  <lig_resn>  (25) 
LIG

>  <lig_resi>  (25) 
201

>  <lig_chain>  (25) 
B

>  <lig_segi>  (25) 


>  <lig_alt>  (25) 


>  <polymer_chain>  (25) 
B

$$$$
x1315_0A§1
     RDKit          3D

 10 11  0  0  0  0  0  0  0  0999 V2000
  -28.0620    0.8940  -41.7670 N   0  0  0  0  0  0  0  0  0  0  0  0
  -27.5050   -1.4590  -42.3440 C   0  0  0  0  0  0  0  0  0  0  0  0
  -27.5350    0.0070  -42.5680 C   0  0  0  0  0  0  0  0  0  0  0  0
  -27.9070    2.1420  -42.3710 N   0  0  0  0  0  0  0  0  0  0  0  0
  -27.3020    1.9400  -43.5160 C   0  0  0  0  0  0  0  0  0  0  0  0
  -25.9890    2.3900  -45.6330 N   0  0  0  0  0  0  0  0  0  0  0  0
  -26.9920    2.8480  -44.6640 C   0  0  0  0  0  0  0  0  0  0  0  0
  -27.0210    0.6150  -43.6700 N   0  0  0  0  0  0  0  0  0  0  0  0
  -25.2530    1.1980  -45.1580 C   0  0  0  0  0  0  0  0  0  0  0  0
  -26.2200    0.0980  -44.7950 C   0  0  0  0  0  0  0  0  0  0  0  0
  1  3  2  0
  1  4  1  0
  2  3  1  0
  3  8  1  0
  4  5  2  0
  5  7  1  0
  5  8  1  0
  6  7  1  0
  6  9  1  0
  8 10  1  0
  9 10  1  0
A    1
 N  
A    2
 C  
A    3
 C1 
A    4
 N1 
A    5
 C2 
A    6
 N2 
A    7
 C3 
A    8
 N3 
A    9
 C4 
A   10
 C5 
M  END
>  <XChem_code>  (26) 
D68EV3CPROA-x1315

>  <Occupancy>  (26) 
[0.44, 0.44, 0.44, 0.44, 0.44, 0.44, 0.44, 0.44, 0.44, 0.44]

>  <TempFactor>  (26) 
[26.41, 26.09, 26.14, 25.63, 26.66, 27.61, 27.35, 26.47, 26.4, 27.65]

>  <RealCrystalName>  (26) 
D68EV3CPROA-x1315

>  <smiles>  (26) 
Cc1nnc2CNCCn12

>  <new_smiles>  (26) 
Cc1nnc2CNCCn12

>  <alternate_name>  (26) 
Z992916756

>  <site_name>  (26) 
4

>  <pdb_entry>  (26) 
nan

>  <mol>  (26) 
<rdkit.Chem.rdchem.Mol object at 0x13a26cb30>

>  <single_smiles>  (26) 
Cc1nnc2n1CCNC2

>  <base_name>  (26) 
D68EV3CPROA-x1315_0A

>  <lig_resn>  (26) 
LIG

>  <lig_resi>  (26) 
201

>  <lig_chain>  (26) 
A

>  <lig_segi>  (26) 


>  <lig_alt>  (26) 


>  <polymer_chain>  (26) 
A

$$$$
x1315_0A§2
     RDKit          3D

 10 11  0  0  0  0  0  0  0  0999 V2000
  -26.9990    2.6790  -43.8920 N   0  0  0  0  0  0  0  0  0  0  0  0
  -25.6470    1.0160  -45.1510 C   0  0  0  0  0  0  0  0  0  0  0  0
  -26.6280    1.4480  -44.1240 C   0  0  0  0  0  0  0  0  0  0  0  0
  -27.8630    2.6550  -42.7980 N   0  0  0  0  0  0  0  0  0  0  0  0
  -27.9740    1.4040  -42.4180 C   0  0  0  0  0  0  0  0  0  0  0  0
  -28.0900   -0.4730  -40.8680 N   0  0  0  0  0  0  0  0  0  0  0  0
  -28.6970    0.7990  -41.2610 C   0  0  0  0  0  0  0  0  0  0  0  0
  -27.2200    0.5970  -43.2380 N   0  0  0  0  0  0  0  0  0  0  0  0
  -28.0170   -1.3880  -42.0150 C   0  0  0  0  0  0  0  0  0  0  0  0
  -27.1100   -0.8670  -43.1060 C   0  0  0  0  0  0  0  0  0  0  0  0
  1  3  2  0
  1  4  1  0
  2  3  1  0
  3  8  1  0
  4  5  2  0
  5  7  1  0
  5  8  1  0
  6  7  1  0
  6  9  1  0
  8 10  1  0
  9 10  1  0
A    1
 N  
A    2
 C  
A    3
 C1 
A    4
 N1 
A    5
 C2 
A    6
 N2 
A    7
 C3 
A    8
 N3 
A    9
 C4 
A   10
 C5 
M  END
>  <XChem_code>  (27) 
D68EV3CPROA-x1315

>  <Occupancy>  (27) 
[0.64, 0.64, 0.64, 0.64, 0.64, 0.64, 0.64, 0.64, 0.64, 0.64]

>  <TempFactor>  (27) 
[36.85, 39.49, 38.25, 39.99, 38.82, 40.56, 40.77, 38.82, 41.45, 39.55]

>  <RealCrystalName>  (27) 
D68EV3CPROA-x1315

>  <smiles>  (27) 
Cc1nnc2CNCCn12

>  <new_smiles>  (27) 
Cc1nnc2CNCCn12

>  <alternate_name>  (27) 
Z992916756

>  <site_name>  (27) 
4

>  <pdb_entry>  (27) 
nan

>  <mol>  (27) 
<rdkit.Chem.rdchem.Mol object at 0x13a26cb30>

>  <single_smiles>  (27) 
Cc1nnc2n1CCNC2

>  <base_name>  (27) 
D68EV3CPROA-x1315_0A

>  <lig_resn>  (27) 
LIG

>  <lig_resi>  (27) 
201

>  <lig_chain>  (27) 
B

>  <lig_segi>  (27) 


>  <lig_alt>  (27) 


>  <polymer_chain>  (27) 
B

$$$$
x0980_0B§1
     RDKit          3D

 17 18  0  0  0  0  0  0  0  0999 V2000
   -4.3660   13.8820  -31.0770 N   0  0  0  0  0  0  0  0  0  0  0  0
   -2.8990   13.8130  -33.5730 C   0  0  0  0  0  0  0  0  0  0  0  0
   -2.8790   12.5190  -30.0510 O   0  0  0  0  0  0  0  0  0  0  0  0
   -2.7490   14.9250  -32.5660 C   0  0  0  0  0  0  0  0  0  0  0  0
   -7.1710    9.9370  -29.6620 N   0  0  0  0  0  0  0  0  0  0  0  0
   -1.8480   15.9640  -32.7910 C   0  0  0  0  0  0  0  0  0  0  0  0
   -1.6300   16.9590  -31.8560 C   0  0  0  0  0  0  0  0  0  0  0  0
   -2.3440   16.9140  -30.6860 C   0  0  0  0  0  0  0  0  0  0  0  0
   -3.2680   15.9380  -30.4090 C   0  0  0  0  0  0  0  0  0  0  0  0
   -3.4680   14.9320  -31.3550 C   0  0  0  0  0  0  0  0  0  0  0  0
   -4.0230   12.7490  -30.4300 C   0  0  0  0  0  0  0  0  0  0  0  0
   -5.1320   11.7810  -30.1740 C   0  0  0  0  0  0  0  0  0  0  0  0
   -5.8670   11.2200  -31.2140 C   0  0  0  0  0  0  0  0  0  0  0  0
   -6.8630   10.3130  -30.9100 C   0  0  0  0  0  0  0  0  0  0  0  0
   -6.4560   10.4850  -28.6720 C   0  0  0  0  0  0  0  0  0  0  0  0
   -5.4400   11.4000  -28.8740 C   0  0  0  0  0  0  0  0  0  0  0  0
   -2.1100   17.8670  -29.7410 F   0  0  0  0  0  0  0  0  0  0  0  0
  1 10  1  0
  1 11  1  0
  2  4  1  0
  3 11  2  0
  4  6  2  0
  4 10  1  0
  5 14  2  0
  5 15  1  0
  6  7  1  0
  7  8  2  0
  8  9  1  0
  8 17  1  0
  9 10  2  0
 11 12  1  0
 12 13  2  0
 12 16  1  0
 13 14  1  0
 15 16  2  0
A    1
 N  
A    2
 C  
A    3
 O  
A    4
 C1 
A    5
 N1 
A    6
 C2 
A    7
 C3 
A    8
 C4 
A    9
 C5 
A   10
 C6 
A   11
 C7 
A   12
 C8 
A   13
 C9 
A   14
 C10
A   15
 C11
A   16
 C12
A   17
 F  
M  END
>  <XChem_code>  (28) 
D68EV3CPROA-x0980

>  <Occupancy>  (28) 
[0.62, 0.62, 0.62, 0.62, 0.62, 0.62, 0.62, 0.62, 0.62, 0.62, 0.62, 0.62, 0.62, 0.62, 0.62, 0.62, 0.62]

>  <TempFactor>  (28) 
[63.79, 74.68, 53.61, 73.53, 45.77, 75.37, 78.48, 80.64, 76.38, 71.86, 57.46, 53.08, 49.42, 49.52, 51.16, 51.21, 87.9]

>  <RealCrystalName>  (28) 
D68EV3CPROA-x0980

>  <smiles>  (28) 
Cc1ccc(F)cc1NC(=O)c2ccncc2

>  <new_smiles>  (28) 
Cc1ccc(F)cc1NC(=O)c2ccncc2

>  <alternate_name>  (28) 
Z30904160

>  <site_name>  (28) 
1

>  <pdb_entry>  (28) 
nan

>  <mol>  (28) 
<rdkit.Chem.rdchem.Mol object at 0x13a1a3d10>

>  <single_smiles>  (28) 
Cc1ccc(F)cc1NC(=O)c1ccncc1

>  <base_name>  (28) 
D68EV3CPROA-x0980_0B

>  <lig_resn>  (28) 
LIG

>  <lig_resi>  (28) 
201

>  <lig_chain>  (28) 
B

>  <lig_segi>  (28) 


>  <lig_alt>  (28) 


>  <polymer_chain>  (28) 
B

$$$$
x0147_0A§1
     RDKit          3D

  9 10  0  0  0  0  0  0  0  0999 V2000
   -7.2300    9.6790  -30.3200 N   0  0  0  0  0  0  0  0  0  0  0  0
   -6.6340   10.0970  -31.4020 C   0  0  0  0  0  0  0  0  0  0  0  0
   -5.8950   11.3220  -29.7400 C   0  0  0  0  0  0  0  0  0  0  0  0
   -6.7690   10.4490  -29.2520 N   0  0  0  0  0  0  0  0  0  0  0  0
   -5.0960   12.3520  -29.1780 C   0  0  0  0  0  0  0  0  0  0  0  0
   -4.2700   13.0910  -29.8760 N   0  0  0  0  0  0  0  0  0  0  0  0
   -4.1850   12.8380  -31.2230 C   0  0  0  0  0  0  0  0  0  0  0  0
   -5.7810   11.1200  -31.1120 N   0  0  0  0  0  0  0  0  0  0  0  0
   -4.9040   11.8930  -31.8620 C   0  0  0  0  0  0  0  0  0  0  0  0
  1  2  2  0
  1  4  1  0
  2  8  1  0
  3  4  2  0
  3  5  1  0
  3  8  1  0
  5  6  2  0
  6  7  1  0
  7  9  2  0
  8  9  1  0
A    1
 N  
A    2
 C  
A    3
 C1 
A    4
 N1 
A    5
 C2 
A    6
 N2 
A    7
 C3 
A    8
 N3 
A    9
 C4 
M  END
>  <XChem_code>  (29) 
D68EV3CPROA-x0147

>  <Occupancy>  (29) 
[0.66, 0.66, 0.66, 0.66, 0.66, 0.66, 0.66, 0.66, 0.66]

>  <TempFactor>  (29) 
[40.37, 43.04, 42.99, 41.58, 44.34, 44.94, 44.77, 45.02, 45.86]

>  <RealCrystalName>  (29) 
D68EV3CPROA-x0147

>  <smiles>  (29) 
c1nnc2cnccn12

>  <new_smiles>  (29) 
c1nnc2cnccn12

>  <alternate_name>  (29) 
Z1182328459

>  <site_name>  (29) 
1

>  <pdb_entry>  (29) 
nan

>  <mol>  (29) 
<rdkit.Chem.rdchem.Mol object at 0x13a1a2d50>

>  <single_smiles>  (29) 
c1cn2cnnc2cn1

>  <base_name>  (29) 
D68EV3CPROA-x0147_0A

>  <lig_resn>  (29) 
LIG

>  <lig_resi>  (29) 
201

>  <lig_chain>  (29) 
A

>  <lig_segi>  (29) 


>  <lig_alt>  (29) 


>  <polymer_chain>  (29) 
A

$$$$
x1108_0A§1
     RDKit          3D

 14 15  0  0  0  0  0  0  0  0999 V2000
    0.8370    3.2570  -24.0870 N   0  0  0  0  0  0  0  0  0  0  0  0
    1.8500    2.9830  -24.9490 C   0  0  0  0  0  0  0  0  0  0  0  0
    1.7710    3.2010  -26.1470 O   0  0  0  0  0  0  0  0  0  0  0  0
   -0.4080    3.8320  -24.4130 C   0  0  0  0  0  0  0  0  0  0  0  0
    2.9740    2.4530  -24.3960 N   0  0  0  0  0  0  0  0  0  0  0  0
   -1.1280    3.3960  -25.5150 C   0  0  0  0  0  0  0  0  0  0  0  0
   -2.3400    3.9800  -25.8200 C   0  0  0  0  0  0  0  0  0  0  0  0
   -2.8400    5.0000  -25.0410 C   0  0  0  0  0  0  0  0  0  0  0  0
   -2.1330    5.4340  -23.9460 C   0  0  0  0  0  0  0  0  0  0  0  0
   -0.9180    4.8550  -23.6250 C   0  0  0  0  0  0  0  0  0  0  0  0
    4.2450    2.2740  -25.1010 C   0  0  0  0  0  0  0  0  0  0  0  0
    5.1070    1.5330  -24.0970 C   0  0  0  0  0  0  0  0  0  0  0  0
    4.5600    1.8860  -22.7770 C   0  0  0  0  0  0  0  0  0  0  0  0
    3.0750    2.0260  -23.0010 C   0  0  0  0  0  0  0  0  0  0  0  0
  1  2  1  0
  1  4  1  0
  2  3  2  0
  2  5  1  0
  4  6  2  0
  4 10  1  0
  5 11  1  0
  5 14  1  0
  6  7  1  0
  7  8  2  0
  8  9  1  0
  9 10  2  0
 11 12  1  0
 12 13  1  0
 13 14  1  0
A    1
 N  
A    2
 C  
A    3
 O  
A    4
 C1 
A    5
 N1 
A    6
 C2 
A    7
 C3 
A    8
 C4 
A    9
 C5 
A   10
 C6 
A   11
 C7 
A   12
 C8 
A   13
 C9 
A   14
 C10
M  END
>  <XChem_code>  (30) 
D68EV3CPROA-x1108

>  <Occupancy>  (30) 
[0.5, 0.5, 0.5, 0.5, 0.5, 0.5, 0.5, 0.5, 0.5, 0.5, 0.5, 0.5, 0.5, 0.5]

>  <TempFactor>  (30) 
[34.79, 37.77, 40.08, 34.89, 38.35, 33.53, 34.2, 33.38, 35.08, 33.64, 40.46, 40.73, 40.08, 39.79]

>  <RealCrystalName>  (30) 
D68EV3CPROA-x1108

>  <smiles>  (30) 
O=C(Nc1ccccc1)N2CCCC2

>  <new_smiles>  (30) 
O=C(Nc1ccccc1)N2CCCC2

>  <alternate_name>  (30) 
Z44585777

>  <site_name>  (30) 
3

>  <pdb_entry>  (30) 
nan

>  <mol>  (30) 
<rdkit.Chem.rdchem.Mol object at 0x13a26c270>

>  <single_smiles>  (30) 
O=C(Nc1ccccc1)N1CCCC1

>  <base_name>  (30) 
D68EV3CPROA-x1108_0A

>  <lig_resn>  (30) 
LIG

>  <lig_resi>  (30) 
201

>  <lig_chain>  (30) 
A

>  <lig_segi>  (30) 


>  <lig_alt>  (30) 


>  <polymer_chain>  (30) 
A

$$$$
x1285_0B§1
     RDKit          3D

 13 14  0  0  0  0  0  0  0  0999 V2000
  -10.6520   19.6760  -30.1380 N   0  0  0  0  0  0  0  0  0  0  0  0
   -9.9820   17.1800  -31.2410 C   0  0  1  0  0  0  0  0  0  0  0  0
  -10.9250   16.5330  -30.3940 O   0  0  0  0  0  0  0  0  0  0  0  0
  -10.6930   18.1730  -32.1210 C   0  0  0  0  0  0  0  0  0  0  0  0
  -11.4430   19.1980  -31.2830 C   0  0  0  0  0  0  0  0  0  0  0  0
  -10.8780   21.1100  -29.9290 C   0  0  0  0  0  0  0  0  0  0  0  0
  -11.3020   21.5050  -28.5370 C   0  0  0  0  0  0  0  0  0  0  0  0
  -11.2000   22.8270  -27.9980 C   0  0  0  0  0  0  0  0  0  0  0  0
  -11.6850   22.9370  -26.7200 C   0  0  0  0  0  0  0  0  0  0  0  0
  -11.8630   20.6350  -27.6410 C   0  0  0  0  0  0  0  0  0  0  0  0
   -9.2200   19.3860  -30.3540 C   0  0  0  0  0  0  0  0  0  0  0  0
   -8.9480   17.8850  -30.4010 C   0  0  0  0  0  0  0  0  0  0  0  0
  -12.2700   21.3910  -26.1670 S   0  0  0  0  0  0  0  0  0  0  0  0
  1  5  1  0
  1  6  1  0
  1 11  1  0
  2  3  1  1
  2  4  1  0
  2 12  1  0
  4  5  1  0
  6  7  1  0
  7  8  1  0
  7 10  2  0
  8  9  2  0
  9 13  1  0
 10 13  1  0
 11 12  1  0
A    1
 N  
A    2
 C  
A    3
 O  
A    4
 C1 
A    5
 C2 
A    6
 C3 
A    7
 C4 
A    8
 C5 
A    9
 C6 
A   10
 C7 
A   11
 C8 
A   12
 C9 
A   13
 S  
M  END
>  <XChem_code>  (31) 
D68EV3CPROA-x1285

>  <Occupancy>  (31) 
[0.98, 0.98, 0.98, 0.98, 0.98, 0.98, 0.98, 0.98, 0.98, 0.98, 0.98, 0.98, 0.98]

>  <TempFactor>  (31) 
[62.92, 53.85, 55.84, 55.42, 59.07, 67.89, 75.42, 75.35, 79.39, 78.53, 58.69, 54.38, 86.51]

>  <RealCrystalName>  (31) 
D68EV3CPROA-x1285

>  <smiles>  (31) 
OC1CCN(Cc2ccsc2)CC1

>  <new_smiles>  (31) 
OC1CCN(Cc2ccsc2)CC1

>  <alternate_name>  (31) 
Z905434478

>  <site_name>  (31) 
5

>  <pdb_entry>  (31) 
nan

>  <mol>  (31) 
<rdkit.Chem.rdchem.Mol object at 0x13a26c970>

>  <single_smiles>  (31) 
OC1CCN(Cc2ccsc2)CC1

>  <base_name>  (31) 
D68EV3CPROA-x1285_0B

>  <lig_resn>  (31) 
LIG

>  <lig_resi>  (31) 
301

>  <lig_chain>  (31) 
B

>  <lig_segi>  (31) 


>  <lig_alt>  (31) 


>  <polymer_chain>  (31) 
B

$$$$
x0957_0B§1
     RDKit          3D

 12 12  0  0  0  0  0  0  0  0999 V2000
   -0.3520    4.3450  -26.1550 N   0  0  0  0  0  0  0  0  0  0  0  0
   -1.7200    4.0460  -26.4980 C   0  0  0  0  0  0  0  0  0  0  0  0
   -0.0380    4.9120  -21.7640 O   0  0  0  0  0  0  0  0  0  0  0  0
    0.4190    3.5140  -25.4000 C   0  0  0  0  0  0  0  0  0  0  0  0
   -0.1610    6.2160  -23.8440 O   0  0  0  0  0  0  0  0  0  0  0  0
    1.1780    2.5080  -25.9960 C   0  0  0  0  0  0  0  0  0  0  0  0
    2.0420    1.7390  -25.2340 C   0  0  0  0  0  0  0  0  0  0  0  0
    2.1480    1.9460  -23.8780 C   0  0  0  0  0  0  0  0  0  0  0  0
    1.3840    2.9170  -23.2510 C   0  0  0  0  0  0  0  0  0  0  0  0
    0.5270    3.7050  -24.0090 C   0  0  0  0  0  0  0  0  0  0  0  0
   -2.0640    4.5400  -23.3310 C   0  0  0  0  0  0  0  0  0  0  0  0
   -0.3760    4.9750  -23.1560 S   0  0  1  0  0  0  0  0  0  0  0  0
  1  2  1  0
  1  4  1  0
  3 12  2  0
  4  6  2  0
  4 10  1  0
  5 12  2  0
  6  7  1  0
  7  8  2  0
  8  9  1  0
  9 10  2  0
 10 12  1  0
 12 11  1  1
A    1
 N  
A    2
 C  
A    3
 O  
A    4
 C1 
A    5
 O1 
A    6
 C2 
A    7
 C3 
A    8
 C4 
A    9
 C5 
A   10
 C6 
A   11
 C7 
A   12
 S  
M  END
>  <XChem_code>  (32) 
D68EV3CPROA-x0957

>  <Occupancy>  (32) 
[0.51, 0.51, 0.51, 0.51, 0.51, 0.51, 0.51, 0.51, 0.51, 0.51, 0.51, 0.51]

>  <TempFactor>  (32) 
[72.04, 70.39, 79.79, 74.12, 84.07, 72.48, 72.26, 74.06, 74.3, 77.29, 77.97, 81.75]

>  <RealCrystalName>  (32) 
D68EV3CPROA-x0957

>  <smiles>  (32) 
CNc1ccccc1S(=O)(=O)C

>  <new_smiles>  (32) 
CNc1ccccc1S(=O)(=O)C

>  <alternate_name>  (32) 
Z285782452

>  <site_name>  (32) 
4

>  <pdb_entry>  (32) 
nan

>  <mol>  (32) 
<rdkit.Chem.rdchem.Mol object at 0x13a1a3c30>

>  <single_smiles>  (32) 
CNc1ccccc1S(C)(=O)=O

>  <base_name>  (32) 
D68EV3CPROA-x0957_0B

>  <lig_resn>  (32) 
LIG

>  <lig_resi>  (32) 
201

>  <lig_chain>  (32) 
A

>  <lig_segi>  (32) 


>  <lig_alt>  (32) 


>  <polymer_chain>  (32) 
A

$$$$
x0957_0B§2
     RDKit          3D

 12 12  0  0  0  0  0  0  0  0999 V2000
   -5.4220    2.3750  -51.4220 N   0  0  0  0  0  0  0  0  0  0  0  0
   -4.9990    3.7500  -51.2740 C   0  0  0  0  0  0  0  0  0  0  0  0
   -3.8180    1.6870  -49.0300 O   0  0  0  0  0  0  0  0  0  0  0  0
   -6.4560    1.8220  -50.7040 C   0  0  0  0  0  0  0  0  0  0  0  0
   -4.6290   -0.4210  -48.0620 O   0  0  0  0  0  0  0  0  0  0  0  0
   -7.7830    2.1290  -51.0030 C   0  0  0  0  0  0  0  0  0  0  0  0
   -8.8190    1.5030  -50.3260 C   0  0  0  0  0  0  0  0  0  0  0  0
   -8.5520    0.5750  -49.3420 C   0  0  0  0  0  0  0  0  0  0  0  0
   -7.2470    0.2580  -49.0160 C   0  0  0  0  0  0  0  0  0  0  0  0
   -6.2010    0.8780  -49.6900 C   0  0  0  0  0  0  0  0  0  0  0  0
   -3.8820   -0.4170  -50.5450 C   0  0  0  0  0  0  0  0  0  0  0  0
   -4.5530    0.4640  -49.1870 S   0  0  1  0  0  0  0  0  0  0  0  0
  1  2  1  0
  1  4  1  0
  3 12  2  0
  4  6  2  0
  4 10  1  0
  5 12  2  0
  6  7  1  0
  7  8  2  0
  8  9  1  0
  9 10  2  0
 10 12  1  0
 12 11  1  6
A    1
 N  
A    2
 C  
A    3
 O  
A    4
 C1 
A    5
 O1 
A    6
 C2 
A    7
 C3 
A    8
 C4 
A    9
 C5 
A   10
 C6 
A   11
 C7 
A   12
 S  
M  END
>  <XChem_code>  (33) 
D68EV3CPROA-x0957

>  <Occupancy>  (33) 
[0.7, 0.7, 0.7, 0.7, 0.7, 0.7, 0.7, 0.7, 0.7, 0.7, 0.7, 0.7]

>  <TempFactor>  (33) 
[45.09, 47.61, 45.08, 43.37, 40.28, 39.38, 39.51, 36.23, 40.27, 41.26, 41.32, 43.18]

>  <RealCrystalName>  (33) 
D68EV3CPROA-x0957

>  <smiles>  (33) 
CNc1ccccc1S(=O)(=O)C

>  <new_smiles>  (33) 
CNc1ccccc1S(=O)(=O)C

>  <alternate_name>  (33) 
Z285782452

>  <site_name>  (33) 
4

>  <pdb_entry>  (33) 
nan

>  <mol>  (33) 
<rdkit.Chem.rdchem.Mol object at 0x13a1a3c30>

>  <single_smiles>  (33) 
CNc1ccccc1S(C)(=O)=O

>  <base_name>  (33) 
D68EV3CPROA-x0957_0B

>  <lig_resn>  (33) 
LIG

>  <lig_resi>  (33) 
201

>  <lig_chain>  (33) 
B

>  <lig_segi>  (33) 


>  <lig_alt>  (33) 


>  <polymer_chain>  (33) 
B

$$$$
x0881_0B§1
     RDKit          3D

 17 19  0  0  0  0  0  0  0  0999 V2000
    0.6370    4.4500  -23.3650 N   0  0  0  0  0  0  0  0  0  0  0  0
    5.0670    0.9770  -24.1510 C   0  0  0  0  0  0  0  0  0  0  0  0
    5.7470    0.6380  -22.9390 O   0  0  0  0  0  0  0  0  0  0  0  0
    3.8640    1.8530  -23.9670 C   0  0  0  0  0  0  0  0  0  0  0  0
   -0.5610    6.0600  -22.3650 N   0  0  0  0  0  0  0  0  0  0  0  0
    3.1390    1.8280  -22.7850 C   0  0  0  0  0  0  0  0  0  0  0  0
    2.0570    2.6630  -22.5920 C   0  0  0  0  0  0  0  0  0  0  0  0
    1.6850    3.5490  -23.5850 C   0  0  0  0  0  0  0  0  0  0  0  0
    2.3870    3.5730  -24.7840 C   0  0  0  0  0  0  0  0  0  0  0  0
    3.4650    2.7280  -24.9660 C   0  0  0  0  0  0  0  0  0  0  0  0
    0.5270    5.3330  -22.3360 C   0  0  0  0  0  0  0  0  0  0  0  0
   -1.2290    5.6350  -23.5150 C   0  0  0  0  0  0  0  0  0  0  0  0
   -2.4160    6.0870  -24.0830 C   0  0  0  0  0  0  0  0  0  0  0  0
   -2.8410    5.5180  -25.2780 C   0  0  0  0  0  0  0  0  0  0  0  0
   -2.1010    4.5120  -25.8990 C   0  0  0  0  0  0  0  0  0  0  0  0
   -0.9220    4.0450  -25.3360 C   0  0  0  0  0  0  0  0  0  0  0  0
   -0.5020    4.6280  -24.1490 C   0  0  0  0  0  0  0  0  0  0  0  0
  1  8  1  0
  1 11  1  0
  1 17  1  0
  2  3  1  0
  2  4  1  0
  4  6  2  0
  4 10  1  0
  5 11  2  0
  5 12  1  0
  6  7  1  0
  7  8  2  0
  8  9  1  0
  9 10  2  0
 12 13  2  0
 12 17  1  0
 13 14  1  0
 14 15  2  0
 15 16  1  0
 16 17  2  0
A    1
 N  
A    2
 C  
A    3
 O  
A    4
 C1 
A    5
 N1 
A    6
 C2 
A    7
 C3 
A    8
 C4 
A    9
 C5 
A   10
 C6 
A   11
 C7 
A   12
 C8 
A   13
 C9 
A   14
 C10
A   15
 C11
A   16
 C12
A   17
 C13
M  END
>  <XChem_code>  (34) 
D68EV3CPROA-x0881

>  <Occupancy>  (34) 
[0.52, 0.52, 0.52, 0.52, 0.52, 0.52, 0.52, 0.52, 0.52, 0.52, 0.52, 0.52, 0.52, 0.52, 0.52, 0.52, 0.52]

>  <TempFactor>  (34) 
[49.53, 50.93, 50.7, 49.75, 49.56, 49.88, 49.44, 50.22, 49.77, 50.09, 49.47, 48.9, 48.93, 48.35, 47.35, 46.49, 48.61]

>  <RealCrystalName>  (34) 
D68EV3CPROA-x0881

>  <smiles>  (34) 
OCc1ccc(cc1)n2cnc3ccccc23

>  <new_smiles>  (34) 
OCc1ccc(cc1)n2cnc3ccccc23

>  <alternate_name>  (34) 
Z235449082

>  <site_name>  (34) 
3

>  <pdb_entry>  (34) 
nan

>  <mol>  (34) 
<rdkit.Chem.rdchem.Mol object at 0x13a1a3ae0>

>  <single_smiles>  (34) 
OCc1ccc(-n2cnc3ccccc32)cc1

>  <base_name>  (34) 
D68EV3CPROA-x0881_0B

>  <lig_resn>  (34) 
LIG

>  <lig_resi>  (34) 
201

>  <lig_chain>  (34) 
B

>  <lig_segi>  (34) 


>  <lig_alt>  (34) 


>  <polymer_chain>  (34) 
A

$$$$
x0881_0B§2
     RDKit          3D

 17 19  0  0  0  0  0  0  0  0999 V2000
  -11.9070    0.9220  -14.1730 N   0  0  0  0  0  0  0  0  0  0  0  0
  -15.4440   -2.8370  -16.5520 C   0  0  0  0  0  0  0  0  0  0  0  0
  -16.3490   -2.2520  -17.4930 O   0  0  0  0  0  0  0  0  0  0  0  0
  -14.4660   -1.8760  -15.9450 C   0  0  0  0  0  0  0  0  0  0  0  0
  -11.2450    2.9230  -13.4080 N   0  0  0  0  0  0  0  0  0  0  0  0
  -14.0640   -0.7400  -16.6340 C   0  0  0  0  0  0  0  0  0  0  0  0
  -13.1990    0.1720  -16.0630 C   0  0  0  0  0  0  0  0  0  0  0  0
  -12.7240   -0.0370  -14.7830 C   0  0  0  0  0  0  0  0  0  0  0  0
  -13.1000   -1.1790  -14.0870 C   0  0  0  0  0  0  0  0  0  0  0  0
  -13.9620   -2.0870  -14.6710 C   0  0  0  0  0  0  0  0  0  0  0  0
  -12.1880    2.2430  -14.0100 C   0  0  0  0  0  0  0  0  0  0  0  0
  -10.2560    1.9750  -13.1360 C   0  0  0  0  0  0  0  0  0  0  0  0
   -9.0440    2.1080  -12.4660 C   0  0  0  0  0  0  0  0  0  0  0  0
   -8.2560    0.9770  -12.2850 C   0  0  0  0  0  0  0  0  0  0  0  0
   -8.6620   -0.2670  -12.7670 C   0  0  0  0  0  0  0  0  0  0  0  0
   -9.8630   -0.4090  -13.4460 C   0  0  0  0  0  0  0  0  0  0  0  0
  -10.6460    0.7240  -13.6100 C   0  0  0  0  0  0  0  0  0  0  0  0
  1  8  1  0
  1 11  1  0
  1 17  1  0
  2  3  1  0
  2  4  1  0
  4  6  2  0
  4 10  1  0
  5 11  2  0
  5 12  1  0
  6  7  1  0
  7  8  2  0
  8  9  1  0
  9 10  2  0
 12 13  2  0
 12 17  1  0
 13 14  1  0
 14 15  2  0
 15 16  1  0
 16 17  2  0
A    1
 N  
A    2
 C  
A    3
 O  
A    4
 C1 
A    5
 N1 
A    6
 C2 
A    7
 C3 
A    8
 C4 
A    9
 C5 
A   10
 C6 
A   11
 C7 
A   12
 C8 
A   13
 C9 
A   14
 C10
A   15
 C11
A   16
 C12
A   17
 C13
M  END
>  <XChem_code>  (35) 
D68EV3CPROA-x0881

>  <Occupancy>  (35) 
[0.52, 0.52, 0.52, 0.52, 0.52, 0.52, 0.52, 0.52, 0.52, 0.52, 0.52, 0.52, 0.52, 0.52, 0.52, 0.52, 0.52]

>  <TempFactor>  (35) 
[49.53, 50.93, 50.7, 49.75, 49.56, 49.88, 49.44, 50.22, 49.77, 50.09, 49.47, 48.9, 48.93, 48.35, 47.35, 46.49, 48.61]

>  <RealCrystalName>  (35) 
D68EV3CPROA-x0881

>  <smiles>  (35) 
OCc1ccc(cc1)n2cnc3ccccc23

>  <new_smiles>  (35) 
OCc1ccc(cc1)n2cnc3ccccc23

>  <alternate_name>  (35) 
Z235449082

>  <site_name>  (35) 
3

>  <pdb_entry>  (35) 
nan

>  <mol>  (35) 
<rdkit.Chem.rdchem.Mol object at 0x13a1a3ae0>

>  <single_smiles>  (35) 
OCc1ccc(-n2cnc3ccccc32)cc1

>  <base_name>  (35) 
D68EV3CPROA-x0881_0B

>  <lig_resn>  (35) 
LIG

>  <lig_resi>  (35) 
201

>  <lig_chain>  (35) 
B

>  <lig_segi>  (35) 


>  <lig_alt>  (35) 


>  <polymer_chain>  (35) 
B

$$$$
x1498_1B§1
     RDKit          3D

  7  7  0  0  0  0  0  0  0  0999 V2000
   -5.6770   11.4110  -29.8030 N   0  0  0  0  0  0  0  0  0  0  0  0
   -6.5030   10.3810  -30.1480 C   0  0  0  0  0  0  0  0  0  0  0  0
   -7.1170    9.7570  -29.1810 O   0  0  0  0  0  0  0  0  0  0  0  0
   -6.7630   10.0140  -31.4690 C   0  0  0  0  0  0  0  0  0  0  0  0
   -6.1620   10.7610  -32.4710 C   0  0  0  0  0  0  0  0  0  0  0  0
   -5.3280   11.8160  -32.1480 C   0  0  0  0  0  0  0  0  0  0  0  0
   -5.1140   12.0970  -30.8080 C   0  0  0  0  0  0  0  0  0  0  0  0
  1  2  2  0
  1  7  1  0
  2  3  1  0
  2  4  1  0
  4  5  2  0
  5  6  1  0
  6  7  2  0
A    1
 N  
A    2
 C  
A    3
 O  
A    4
 C1 
A    5
 C2 
A    6
 C3 
A    7
 C4 
M  END
>  <XChem_code>  (36) 
D68EV3CPROA-x1498

>  <Occupancy>  (36) 
[0.88, 0.88, 0.88, 0.88, 0.88, 0.88, 0.88]

>  <TempFactor>  (36) 
[42.68, 37.56, 35.8, 40.47, 43.12, 43.66, 44.2]

>  <RealCrystalName>  (36) 
D68EV3CPROA-x1498

>  <smiles>  (36) 
OC=1C=CC=CN1

>  <new_smiles>  (36) 
OC=1C=CC=CN1

>  <alternate_name>  (36) 
Z1741982125

>  <site_name>  (36) 
5

>  <pdb_entry>  (36) 
nan

>  <mol>  (36) 
<rdkit.Chem.rdchem.Mol object at 0x13a26d2a0>

>  <single_smiles>  (36) 
Oc1ccccn1

>  <base_name>  (36) 
D68EV3CPROA-x1498_1B

>  <lig_resn>  (36) 
LIG

>  <lig_resi>  (36) 
201

>  <lig_chain>  (36) 
A

>  <lig_segi>  (36) 


>  <lig_alt>  (36) 


>  <polymer_chain>  (36) 
A

$$$$
x1498_1B§2
     RDKit          3D

  7  7  0  0  0  0  0  0  0  0999 V2000
  -18.2570   19.9470  -20.8410 N   0  0  0  0  0  0  0  0  0  0  0  0
  -19.3030   19.1750  -21.2760 C   0  0  0  0  0  0  0  0  0  0  0  0
  -19.7950   18.2360  -20.4320 O   0  0  0  0  0  0  0  0  0  0  0  0
  -19.8620   19.3290  -22.5450 C   0  0  0  0  0  0  0  0  0  0  0  0
  -19.3230   20.2830  -23.3930 C   0  0  0  0  0  0  0  0  0  0  0  0
  -18.2760   21.0720  -22.9710 C   0  0  0  0  0  0  0  0  0  0  0  0
  -17.7810   20.8730  -21.6970 C   0  0  0  0  0  0  0  0  0  0  0  0
  1  2  2  0
  1  7  1  0
  2  3  1  0
  2  4  1  0
  4  5  2  0
  5  6  1  0
  6  7  2  0
A    1
 N  
A    2
 C  
A    3
 O  
A    4
 C1 
A    5
 C2 
A    6
 C3 
A    7
 C4 
M  END
>  <XChem_code>  (37) 
D68EV3CPROA-x1498

>  <Occupancy>  (37) 
[0.88, 0.88, 0.88, 0.88, 0.88, 0.88, 0.88]

>  <TempFactor>  (37) 
[53.3, 52.52, 51.54, 47.0, 49.42, 50.99, 52.44]

>  <RealCrystalName>  (37) 
D68EV3CPROA-x1498

>  <smiles>  (37) 
OC=1C=CC=CN1

>  <new_smiles>  (37) 
OC=1C=CC=CN1

>  <alternate_name>  (37) 
Z1741982125

>  <site_name>  (37) 
5

>  <pdb_entry>  (37) 
nan

>  <mol>  (37) 
<rdkit.Chem.rdchem.Mol object at 0x13a26d2a0>

>  <single_smiles>  (37) 
Oc1ccccn1

>  <base_name>  (37) 
D68EV3CPROA-x1498_1B

>  <lig_resn>  (37) 
LIG

>  <lig_resi>  (37) 
201

>  <lig_chain>  (37) 
B

>  <lig_segi>  (37) 


>  <lig_alt>  (37) 


>  <polymer_chain>  (37) 
B

$$$$
x1498_1B§3
     RDKit          3D

  7  7  0  0  0  0  0  0  0  0999 V2000
  -25.7700  -12.6800  -37.0880 N   0  0  0  0  0  0  0  0  0  0  0  0
  -27.0180  -12.3010  -37.4850 C   0  0  0  0  0  0  0  0  0  0  0  0
  -27.2530  -10.9840  -37.6430 O   0  0  0  0  0  0  0  0  0  0  0  0
  -28.0380  -13.2260  -37.7200 C   0  0  0  0  0  0  0  0  0  0  0  0
  -27.7580  -14.5720  -37.5410 C   0  0  0  0  0  0  0  0  0  0  0  0
  -26.5040  -14.9720  -37.1280 C   0  0  0  0  0  0  0  0  0  0  0  0
  -25.5460  -13.9970  -36.9170 C   0  0  0  0  0  0  0  0  0  0  0  0
  1  2  2  0
  1  7  1  0
  2  3  1  0
  2  4  1  0
  4  5  2  0
  5  6  1  0
  6  7  2  0
A    1
 N  
A    2
 C  
A    3
 O  
A    4
 C1 
A    5
 C2 
A    6
 C3 
A    7
 C4 
M  END
>  <XChem_code>  (38) 
D68EV3CPROA-x1498

>  <Occupancy>  (38) 
[0.62, 0.62, 0.62, 0.62, 0.62, 0.62, 0.62]

>  <TempFactor>  (38) 
[32.45, 33.25, 31.28, 30.67, 32.17, 31.98, 32.5]

>  <RealCrystalName>  (38) 
D68EV3CPROA-x1498

>  <smiles>  (38) 
OC=1C=CC=CN1

>  <new_smiles>  (38) 
OC=1C=CC=CN1

>  <alternate_name>  (38) 
Z1741982125

>  <site_name>  (38) 
5

>  <pdb_entry>  (38) 
nan

>  <mol>  (38) 
<rdkit.Chem.rdchem.Mol object at 0x13a26d2a0>

>  <single_smiles>  (38) 
Oc1ccccn1

>  <base_name>  (38) 
D68EV3CPROA-x1498_1B

>  <lig_resn>  (38) 
LIG

>  <lig_resi>  (38) 
301

>  <lig_chain>  (38) 
B

>  <lig_segi>  (38) 


>  <lig_alt>  (38) 


>  <polymer_chain>  (38) 
B

$$$$
x1262_0B§1
     RDKit          3D

 15 15  0  0  0  0  0  0  0  0999 V2000
   -1.4580    0.0070  -49.5940 N   0  0  0  0  0  0  0  0  0  0  0  0
   -1.0980    0.9360  -48.5210 C   0  0  0  0  0  0  0  0  0  0  0  0
   -2.8910   -1.4160  -50.5770 O   0  0  0  0  0  0  0  0  0  0  0  0
   -0.4310   -0.1540  -50.6190 C   0  0  0  0  0  0  0  0  0  0  0  0
   -9.1350    0.6370  -51.2380 N   0  0  0  0  0  0  0  0  0  0  0  0
   -4.2750    0.7640  -48.6120 O   0  0  0  0  0  0  0  0  0  0  0  0
   -2.6260   -0.6610  -49.6550 C   0  0  0  0  0  0  0  0  0  0  0  0
   -3.6240   -0.4900  -48.5340 C   0  0  0  0  0  0  0  0  0  0  0  0
   -5.4990    0.7620  -49.2230 C   0  0  0  0  0  0  0  0  0  0  0  0
   -5.5540    1.0990  -50.5650 C   0  0  0  0  0  0  0  0  0  0  0  0
   -6.7650    1.0650  -51.2280 C   0  0  0  0  0  0  0  0  0  0  0  0
   -7.9420    0.6990  -50.5710 C   0  0  0  0  0  0  0  0  0  0  0  0
   -7.8410    0.3850  -49.2240 C   0  0  0  0  0  0  0  0  0  0  0  0
   -6.6500    0.4020  -48.5340 C   0  0  0  0  0  0  0  0  0  0  0  0
   -8.9760    0.0680  -48.5680 F   0  0  0  0  0  0  0  0  0  0  0  0
  1  2  1  0
  1  4  1  0
  1  7  1  0
  3  7  2  0
  5 12  1  0
  6  8  1  0
  6  9  1  0
  7  8  1  0
  9 10  2  0
  9 14  1  0
 10 11  1  0
 11 12  2  0
 12 13  1  0
 13 14  2  0
 13 15  1  0
A    1
 N  
A    2
 C  
A    3
 O  
A    4
 C1 
A    5
 N1 
A    6
 O1 
A    7
 C2 
A    8
 C3 
A    9
 C4 
A   10
 C5 
A   11
 C6 
A   12
 C7 
A   13
 C8 
A   14
 C9 
A   15
 F  
M  END
>  <XChem_code>  (39) 
D68EV3CPROA-x1262

>  <Occupancy>  (39) 
[0.54, 0.54, 0.54, 0.54, 0.54, 0.54, 0.54, 0.54, 0.54, 0.54, 0.54, 0.54, 0.54, 0.54, 0.54]

>  <TempFactor>  (39) 
[78.68, 77.88, 72.09, 79.57, 74.65, 69.04, 74.61, 71.91, 69.87, 68.46, 68.66, 69.22, 69.04, 70.85, 61.26]

>  <RealCrystalName>  (39) 
D68EV3CPROA-x1262

>  <smiles>  (39) 
CN(C)C(=O)COc1ccc(N)c(F)c1

>  <new_smiles>  (39) 
CN(C)C(=O)COc1ccc(N)c(F)c1

>  <alternate_name>  (39) 
Z839157334

>  <site_name>  (39) 
2

>  <pdb_entry>  (39) 
nan

>  <mol>  (39) 
<rdkit.Chem.rdchem.Mol object at 0x13a26c890>

>  <single_smiles>  (39) 
CN(C)C(=O)COc1ccc(N)c(F)c1

>  <base_name>  (39) 
D68EV3CPROA-x1262_0B

>  <lig_resn>  (39) 
LIG

>  <lig_resi>  (39) 
201

>  <lig_chain>  (39) 
B

>  <lig_segi>  (39) 


>  <lig_alt>  (39) 


>  <polymer_chain>  (39) 
B

$$$$
x1246_0B§1
     RDKit          3D

 12 13  0  0  0  0  0  0  0  0999 V2000
   -2.8880    5.0890  -25.0790 N   0  0  0  0  0  0  0  0  0  0  0  0
   -1.6420    4.4980  -24.9900 C   0  0  0  0  0  0  0  0  0  0  0  0
    2.4590    1.5930  -25.4710 O   0  0  0  0  0  0  0  0  0  0  0  0
   -0.7560    4.8470  -23.9690 C   0  0  0  0  0  0  0  0  0  0  0  0
    3.2120    3.0250  -23.9740 N   0  0  0  0  0  0  0  0  0  0  0  0
    0.4890    4.2510  -23.8800 C   0  0  0  0  0  0  0  0  0  0  0  0
    3.8130    1.2570  -25.2370 N   0  0  0  0  0  0  0  0  0  0  0  0
    0.8820    3.2790  -24.7940 C   0  0  0  0  0  0  0  0  0  0  0  0
    0.0050    2.9320  -25.8160 C   0  0  0  0  0  0  0  0  0  0  0  0
   -1.2370    3.5330  -25.9160 C   0  0  0  0  0  0  0  0  0  0  0  0
    2.1980    2.6530  -24.6890 C   0  0  0  0  0  0  0  0  0  0  0  0
    4.2080    2.1750  -24.3230 C   0  0  0  0  0  0  0  0  0  0  0  0
  1  2  1  0
  2  4  2  0
  2 10  1  0
  3  7  1  0
  3 11  1  0
  4  6  1  0
  5 11  2  0
  5 12  1  0
  6  8  2  0
  7 12  2  0
  8  9  1  0
  8 11  1  0
  9 10  2  0
A    1
 N  
A    2
 C  
A    3
 O  
A    4
 C1 
A    5
 N1 
A    6
 C2 
A    7
 N2 
A    8
 C3 
A    9
 C4 
A   10
 C5 
A   11
 C6 
A   12
 C7 
M  END
>  <XChem_code>  (40) 
D68EV3CPROA-x1246

>  <Occupancy>  (40) 
[0.69, 0.69, 0.69, 0.69, 0.69, 0.69, 0.69, 0.69, 0.69, 0.69, 0.69, 0.69]

>  <TempFactor>  (40) 
[45.26, 44.93, 49.72, 45.72, 50.84, 48.35, 46.4, 47.87, 46.28, 45.51, 49.57, 49.21]

>  <RealCrystalName>  (40) 
D68EV3CPROA-x1246

>  <smiles>  (40) 
Nc1ccc(cc1)c2ncno2

>  <new_smiles>  (40) 
Nc1ccc(cc1)c2ncno2

>  <alternate_name>  (40) 
Z760031264

>  <site_name>  (40) 
3

>  <pdb_entry>  (40) 
nan

>  <mol>  (40) 
<rdkit.Chem.rdchem.Mol object at 0x13a26c6d0>

>  <single_smiles>  (40) 
Nc1ccc(-c2ncno2)cc1

>  <base_name>  (40) 
D68EV3CPROA-x1246_0B

>  <lig_resn>  (40) 
LIG

>  <lig_resi>  (40) 
201

>  <lig_chain>  (40) 
B

>  <lig_segi>  (40) 


>  <lig_alt>  (40) 


>  <polymer_chain>  (40) 
A

$$$$
x0188_0B§1
     RDKit          3D

 16 17  0  0  0  0  0  0  0  0999 V2000
   -6.1770   -0.7420  -54.3010 N   0  0  0  0  0  0  0  0  0  0  0  0
   -4.8790   -2.0160  -52.7180 C   0  0  0  0  0  0  0  0  0  0  0  0
   -6.9970   -2.7080  -53.5950 O   0  0  0  0  0  0  0  0  0  0  0  0
   -6.1080   -1.8560  -53.5670 C   0  0  0  0  0  0  0  0  0  0  0  0
   -9.1490    0.6770  -51.2630 N   0  0  0  0  0  0  0  0  0  0  0  0
   -5.4420    0.4790  -53.9730 C   0  0  0  0  0  0  0  0  0  0  0  0
   -6.3590    1.6030  -53.5130 C   0  0  0  0  0  0  0  0  0  0  0  0
   -7.2900    1.1970  -52.4060 C   0  0  0  0  0  0  0  0  0  0  0  0
   -8.6450    1.0520  -52.4790 C   0  0  0  0  0  0  0  0  0  0  0  0
   -8.1160    0.5630  -50.3670 C   0  0  0  0  0  0  0  0  0  0  0  0
   -8.1180    0.1770  -49.0330 C   0  0  0  0  0  0  0  0  0  0  0  0
   -6.9080    0.1050  -48.3610 C   0  0  0  0  0  0  0  0  0  0  0  0
   -5.7530    0.4270  -49.0410 C   0  0  0  0  0  0  0  0  0  0  0  0
   -5.7170    0.8250  -50.3610 C   0  0  0  0  0  0  0  0  0  0  0  0
   -6.9270    0.8870  -51.0470 C   0  0  0  0  0  0  0  0  0  0  0  0
   -4.5750    0.3360  -48.3720 F   0  0  0  0  0  0  0  0  0  0  0  0
  1  4  1  0
  1  6  1  0
  2  4  1  0
  3  4  2  0
  5  9  1  0
  5 10  1  0
  6  7  1  0
  7  8  1  0
  8  9  2  0
  8 15  1  0
 10 11  2  0
 10 15  1  0
 11 12  1  0
 12 13  2  0
 13 16  1  0
 13 14  1  0
 14 15  2  0
A    1
 N  
A    2
 C  
A    3
 O  
A    4
 C1 
A    5
 N1 
A    6
 C2 
A    7
 C3 
A    8
 C4 
A    9
 C5 
A   10
 C6 
A   11
 C7 
A   12
 C8 
A   13
 C9 
A   14
 C10
A   15
 C11
A   16
 F  
M  END
>  <XChem_code>  (41) 
D68EV3CPROA-x0188

>  <Occupancy>  (41) 
[0.7, 0.7, 0.7, 0.7, 0.7, 0.7, 0.7, 0.7, 0.7, 0.7, 0.7, 0.7, 0.7, 0.7, 0.7, 0.7]

>  <TempFactor>  (41) 
[43.29, 44.29, 42.29, 44.25, 40.55, 41.75, 41.15, 41.0, 41.66, 40.64, 39.68, 40.87, 41.32, 40.83, 40.49, 38.41]

>  <RealCrystalName>  (41) 
D68EV3CPROA-x0188

>  <smiles>  (41) 
CC(=O)NCCc1c[nH]c2ccc(F)cc12

>  <new_smiles>  (41) 
CC(=O)NCCc1c[nH]c2ccc(F)cc12

>  <alternate_name>  (41) 
Z1220452176

>  <site_name>  (41) 
2

>  <pdb_entry>  (41) 
nan

>  <mol>  (41) 
<rdkit.Chem.rdchem.Mol object at 0x13a1a3060>

>  <single_smiles>  (41) 
CC(=O)NCCc1c[nH]c2ccc(F)cc12

>  <base_name>  (41) 
D68EV3CPROA-x0188_0B

>  <lig_resn>  (41) 
LIG

>  <lig_resi>  (41) 
201

>  <lig_chain>  (41) 
B

>  <lig_segi>  (41) 


>  <lig_alt>  (41) 


>  <polymer_chain>  (41) 
B

$$$$
x0988_0A§1
     RDKit          3D

 14 15  0  0  0  0  0  0  0  0999 V2000
  -21.8040  -15.1370  -19.9720 N   0  0  0  0  0  0  0  0  0  0  0  0
  -21.4300  -16.5580  -20.0610 C   0  0  0  0  0  0  0  0  0  0  0  0
  -22.9520  -12.7740  -24.3120 O   0  0  0  0  0  0  0  0  0  0  0  0
  -20.7550  -14.2830  -20.5330 C   0  0  0  0  0  0  0  0  0  0  0  0
  -22.1080  -13.3930  -22.3360 N   0  0  0  0  0  0  0  0  0  0  0  0
  -21.2480  -10.4020  -23.2670 O   0  0  0  0  0  0  0  0  0  0  0  0
  -21.3460  -13.0360  -21.1400 C   0  0  0  0  0  0  0  0  0  0  0  0
  -22.8610  -14.6360  -22.1420 C   0  0  0  0  0  0  0  0  0  0  0  0
  -23.0760  -14.8880  -20.6540 C   0  0  0  0  0  0  0  0  0  0  0  0
  -22.0800  -12.6750  -23.4690 C   0  0  0  0  0  0  0  0  0  0  0  0
  -20.8970  -11.7290  -23.6740 C   0  0  1  0  0  0  0  0  0  0  0  0
  -20.4580  -11.6730  -25.0920 C   0  0  0  0  0  0  0  0  0  0  0  0
  -20.7190  -10.2480  -25.5300 C   0  0  0  0  0  0  0  0  0  0  0  0
  -20.7160   -9.5070  -24.2500 C   0  0  0  0  0  0  0  0  0  0  0  0
  1  2  1  0
  1  4  1  0
  1  9  1  0
  3 10  2  0
  4  7  1  0
  5  7  1  0
  5  8  1  0
  5 10  1  0
  6 11  1  0
  6 14  1  0
  8  9  1  0
 11 10  1  6
 11 12  1  0
 12 13  1  0
 13 14  1  0
A    1
 N  
A    2
 C  
A    3
 O  
A    4
 C1 
A    5
 N1 
A    6
 O1 
A    7
 C2 
A    8
 C3 
A    9
 C4 
A   10
 C5 
A   11
 C6 
A   12
 C7 
A   13
 C8 
A   14
 C9 
M  END
>  <XChem_code>  (42) 
D68EV3CPROA-x0988

>  <Occupancy>  (42) 
[0.74, 0.74, 0.74, 0.74, 0.74, 0.74, 0.74, 0.74, 0.74, 0.74, 0.74, 0.74, 0.74, 0.74]

>  <TempFactor>  (42) 
[84.22, 83.92, 58.48, 80.64, 73.07, 52.68, 75.34, 79.34, 83.58, 62.93, 54.65, 53.31, 51.28, 53.22]

>  <RealCrystalName>  (42) 
D68EV3CPROA-x0988

>  <smiles>  (42) 
CN1CCN(CC1)C(=O)C2CCCO2

>  <new_smiles>  (42) 
CN1CCN(CC1)C(=O)C2CCCO2

>  <alternate_name>  (42) 
Z31432964

>  <site_name>  (42) 
5

>  <pdb_entry>  (42) 
nan

>  <mol>  (42) 
<rdkit.Chem.rdchem.Mol object at 0x13a1a3d80>

>  <single_smiles>  (42) 
CN1CCN(C(=O)C2CCCO2)CC1

>  <base_name>  (42) 
D68EV3CPROA-x0988_0A

>  <lig_resn>  (42) 
LIG

>  <lig_resi>  (42) 
201

>  <lig_chain>  (42) 
A

>  <lig_segi>  (42) 


>  <lig_alt>  (42) 


>  <polymer_chain>  (42) 
A

$$$$
x1583_0A§1
     RDKit          3D

 14 15  0  0  0  0  0  0  0  0999 V2000
  -12.4180   -0.5290  -15.0890 N   0  0  0  0  0  0  0  0  0  0  0  0
  -14.3100   -3.7670  -14.9850 C   0  0  0  0  0  0  0  0  0  0  0  0
  -13.8110   -4.9510  -14.6140 O   0  0  0  0  0  0  0  0  0  0  0  0
  -13.4240   -2.6060  -14.8060 C   0  0  0  0  0  0  0  0  0  0  0  0
  -15.4460   -3.6170  -15.4520 O   0  0  0  0  0  0  0  0  0  0  0  0
  -13.4090   -1.4140  -15.4460 C   0  0  0  0  0  0  0  0  0  0  0  0
  -11.6500   -1.0430  -14.1630 C   0  0  0  0  0  0  0  0  0  0  0  0
  -10.4510   -0.3790  -13.6280 C   0  0  0  0  0  0  0  0  0  0  0  0
  -10.4920    0.9610  -13.2590 C   0  0  0  0  0  0  0  0  0  0  0  0
   -9.3750    1.5740  -12.7070 C   0  0  0  0  0  0  0  0  0  0  0  0
   -8.2140    0.8600  -12.5170 C   0  0  0  0  0  0  0  0  0  0  0  0
   -8.1580   -0.4700  -12.8830 C   0  0  0  0  0  0  0  0  0  0  0  0
   -9.2690   -1.0890  -13.4420 C   0  0  0  0  0  0  0  0  0  0  0  0
  -12.1210   -2.6340  -13.6530 S   0  0  0  0  0  0  0  0  0  0  0  0
  1  6  1  0
  1  7  2  0
  2  3  2  0
  2  4  1  0
  2  5  1  0
  4  6  2  0
  4 14  1  0
  7  8  1  0
  7 14  1  0
  8  9  2  0
  8 13  1  0
  9 10  1  0
 10 11  2  0
 11 12  1  0
 12 13  2  0
A    1
 N  
A    2
 C  
A    3
 O  
A    4
 C1 
A    5
 O1 
A    6
 C2 
A    7
 C3 
A    8
 C4 
A    9
 C5 
A   10
 C6 
A   11
 C7 
A   12
 C8 
A   13
 C9 
A   14
 S  
M  END
>  <XChem_code>  (43) 
D68EV3CPROA-x1583

>  <Occupancy>  (43) 
[0.72, 0.72, 0.72, 0.72, 0.72, 0.72, 0.72, 0.72, 0.72, 0.72, 0.72, 0.72, 0.72, 0.72]

>  <TempFactor>  (43) 
[36.69, 42.14, 41.39, 38.57, 39.42, 38.04, 37.86, 36.39, 36.98, 37.92, 34.59, 35.99, 36.48, 38.22]

>  <RealCrystalName>  (43) 
D68EV3CPROA-x1583

>  <smiles>  (43) 
OC(=O)C1=CN=C(S1)C=2C=CC=CC2

>  <new_smiles>  (43) 
OC(=O)C1=CN=C(S1)C=2C=CC=CC2

>  <alternate_name>  (43) 
Z315923746

>  <site_name>  (43) 
3

>  <pdb_entry>  (43) 
nan

>  <mol>  (43) 
<rdkit.Chem.rdchem.Mol object at 0x13a26d770>

>  <single_smiles>  (43) 
O=C(O)c1cnc(-c2ccccc2)s1

>  <base_name>  (43) 
D68EV3CPROA-x1583_0A

>  <lig_resn>  (43) 
LIG

>  <lig_resi>  (43) 
201

>  <lig_chain>  (43) 
A

>  <lig_segi>  (43) 


>  <lig_alt>  (43) 


>  <polymer_chain>  (43) 
B

$$$$
x0878_1A§1
     RDKit          3D

 14 14  0  0  0  0  0  0  0  0999 V2000
  -22.3990    3.6710  -50.6530 N   0  0  0  0  0  0  0  0  0  0  0  0
  -18.5000    4.0340  -50.1420 C   0  0  0  0  0  0  0  0  0  0  0  0
  -19.7930    4.0940  -50.7330 O   0  0  0  0  0  0  0  0  0  0  0  0
  -20.2250    3.0040  -51.4370 C   0  0  0  0  0  0  0  0  0  0  0  0
  -24.6430    6.1030  -52.2170 N   0  0  0  0  0  0  0  0  0  0  0  0
  -22.5350    5.9360  -50.4700 O   0  0  0  0  0  0  0  0  0  0  0  0
  -19.4030    2.1410  -52.1310 C   0  0  0  0  0  0  0  0  0  0  0  0
  -19.9640    1.1580  -52.9270 C   0  0  0  0  0  0  0  0  0  0  0  0
  -21.3430    1.0230  -53.0530 C   0  0  0  0  0  0  0  0  0  0  0  0
  -21.9350   -0.0020  -53.9890 C   0  0  0  0  0  0  0  0  0  0  0  0
  -22.1620    1.8780  -52.3280 C   0  0  0  0  0  0  0  0  0  0  0  0
  -21.6190    2.8600  -51.5050 C   0  0  0  0  0  0  0  0  0  0  0  0
  -22.9650    4.8660  -50.9050 C   0  0  0  0  0  0  0  0  0  0  0  0
  -24.2170    4.7820  -51.7940 C   0  0  0  0  0  0  0  0  0  0  0  0
  1 12  1  0
  1 13  1  0
  2  3  1  0
  3  4  1  0
  4  7  2  0
  4 12  1  0
  5 14  1  0
  6 13  2  0
  7  8  1  0
  8  9  2  0
  9 10  1  0
  9 11  1  0
 11 12  2  0
 13 14  1  0
A    1
 N  
A    2
 C  
A    3
 O  
A    4
 C1 
A    5
 N1 
A    6
 O1 
A    7
 C2 
A    8
 C3 
A    9
 C4 
A   10
 C5 
A   11
 C6 
A   12
 C7 
A   13
 C8 
A   14
 C9 
M  END
>  <XChem_code>  (44) 
D68EV3CPROA-x0878

>  <Occupancy>  (44) 
[0.72, 0.72, 0.72, 0.72, 0.72, 0.72, 0.72, 0.72, 0.72, 0.72, 0.72, 0.72, 0.72, 0.72]

>  <TempFactor>  (44) 
[69.11, 54.6, 58.56, 59.82, 79.07, 72.61, 58.24, 58.05, 60.67, 61.0, 59.9, 63.53, 73.06, 76.88]

>  <RealCrystalName>  (44) 
D68EV3CPROA-x0878

>  <smiles>  (44) 
Cl.COc1ccc(C)cc1NC(=O)CN

>  <new_smiles>  (44) 
Cl.COc1ccc(C)cc1NC(=O)CN

>  <alternate_name>  (44) 
Z235341991

>  <site_name>  (44) 
4

>  <pdb_entry>  (44) 
nan

>  <mol>  (44) 
<rdkit.Chem.rdchem.Mol object at 0x13a1a3a70>

>  <single_smiles>  (44) 
COc1ccc(C)cc1NC(=O)CN

>  <base_name>  (44) 
D68EV3CPROA-x0878_1A

>  <lig_resn>  (44) 
LIG

>  <lig_resi>  (44) 
201

>  <lig_chain>  (44) 
A

>  <lig_segi>  (44) 


>  <lig_alt>  (44) 


>  <polymer_chain>  (44) 
A

$$$$
x0117_0A§1
     RDKit          3D

 15 16  0  0  0  0  0  0  0  0999 V2000
  -30.8690   -1.7900  -25.0980 N   0  0  0  0  0  0  0  0  0  0  0  0
  -31.5670   -2.8970  -25.7770 C   0  0  1  0  0  0  0  0  0  0  0  0
  -30.0570   -0.4180  -23.1980 O   0  0  0  0  0  0  0  0  0  0  0  0
  -33.0460   -3.0320  -25.4300 C   0  0  0  0  0  0  0  0  0  0  0  0
  -32.1990   -1.6410  -23.0080 O   0  0  0  0  0  0  0  0  0  0  0  0
  -33.6390   -3.8360  -26.5800 C   0  0  0  0  0  0  0  0  0  0  0  0
  -27.8950   -4.0320  -21.1910 O   0  0  0  0  0  0  0  0  0  0  0  0
  -32.6830   -3.6920  -27.7540 C   0  0  0  0  0  0  0  0  0  0  0  0
  -31.5860   -2.7460  -27.2910 C   0  0  0  0  0  0  0  0  0  0  0  0
  -29.9840   -3.0190  -22.8960 C   0  0  1  0  0  0  0  0  0  0  0  0
  -28.5040   -2.9330  -23.2660 C   0  0  0  0  0  0  0  0  0  0  0  0
  -27.7460   -4.0590  -22.6120 C   0  0  0  0  0  0  0  0  0  0  0  0
  -29.2660   -4.2010  -20.8250 C   0  0  0  0  0  0  0  0  0  0  0  0
  -30.1240   -3.0880  -21.3750 C   0  0  0  0  0  0  0  0  0  0  0  0
  -30.8460   -1.5790  -23.4850 S   0  0  1  0  0  0  0  0  0  0  0  0
  2  1  1  1
 15  1  1  6
  2  4  1  0
  2  9  1  0
  3 15  2  0
  4  6  1  0
  5 15  2  0
  6  8  1  0
  7 12  1  0
  7 13  1  0
  8  9  1  0
 10 11  1  1
 10 14  1  0
 10 15  1  0
 11 12  1  0
 13 14  1  0
A    1
 N  
A    2
 C  
A    3
 O  
A    4
 C1 
A    5
 O1 
A    6
 C2 
A    7
 O2 
A    8
 C3 
A    9
 C4 
A   10
 C5 
A   11
 C6 
A   12
 C7 
A   13
 C8 
A   14
 C9 
A   15
 S  
M  END
>  <XChem_code>  (45) 
D68EV3CPROA-x0117

>  <Occupancy>  (45) 
[0.66, 0.66, 0.66, 0.66, 0.66, 0.66, 0.66, 0.66, 0.66, 0.66, 0.66, 0.66, 0.66, 0.66, 0.66]

>  <TempFactor>  (45) 
[74.3, 72.1, 72.98, 71.68, 75.89, 73.01, 67.27, 72.12, 72.22, 70.77, 67.14, 67.0, 68.88, 69.26, 73.98]

>  <RealCrystalName>  (45) 
D68EV3CPROA-x0117

>  <smiles>  (45) 
O=S(=O)(NC1CCCC1)C2CCOCC2

>  <new_smiles>  (45) 
O=S(=O)(NC1CCCC1)C2CCOCC2

>  <alternate_name>  (45) 
Z1082839290

>  <site_name>  (45) 
5

>  <pdb_entry>  (45) 
nan

>  <mol>  (45) 
<rdkit.Chem.rdchem.Mol object at 0x13a1a2a40>

>  <single_smiles>  (45) 
O=S(=O)(NC1CCCC1)C1CCOCC1

>  <base_name>  (45) 
D68EV3CPROA-x0117_0A

>  <lig_resn>  (45) 
LIG

>  <lig_resi>  (45) 
201

>  <lig_chain>  (45) 
A

>  <lig_segi>  (45) 


>  <lig_alt>  (45) 


>  <polymer_chain>  (45) 
A

$$$$
x1399_0A§1
     RDKit          3D

 13 13  0  0  0  0  0  0  0  0999 V2000
   -5.6830   -1.1110  -54.5780 N   0  0  0  0  0  0  0  0  0  0  0  0
   -6.8640   -4.7460  -54.3300 C   0  0  0  0  0  0  0  0  0  0  0  0
   -4.1480   -3.9580  -52.8950 O   0  0  0  0  0  0  0  0  0  0  0  0
   -6.7720   -3.2980  -54.7890 C   0  0  2  0  0  0  0  0  0  0  0  0
   -4.0090   -0.4340  -52.9220 O   0  0  0  0  0  0  0  0  0  0  0  0
   -5.7350   -2.4890  -54.0200 C   0  0  1  0  0  0  0  0  0  0  0  0
   -4.7660    1.1680  -54.6280 O   0  0  0  0  0  0  0  0  0  0  0  0
   -4.4090   -3.2350  -54.0950 C   0  0  0  0  0  0  0  0  0  0  0  0
   -3.0940   -0.6630  -55.3350 C   0  0  0  0  0  0  0  0  0  0  0  0
   -6.9860   -0.3700  -54.6090 C   0  0  0  0  0  0  0  0  0  0  0  0
   -8.0800   -1.1850  -55.2720 C   0  0  0  0  0  0  0  0  0  0  0  0
   -8.1260   -2.6000  -54.7100 C   0  0  0  0  0  0  0  0  0  0  0  0
   -4.3950   -0.1660  -54.2700 S   0  0  2  0  0  0  0  0  0  0  0  0
  1  6  1  0
  1 10  1  0
  1 13  1  0
  4  2  1  1
  3  8  1  0
  4  6  1  0
  4 12  1  0
  5 13  2  0
  6  8  1  6
  7 13  2  0
 13  9  1  6
 10 11  1  0
 11 12  1  0
A    1
 N  
A    2
 C  
A    3
 O  
A    4
 C1 
A    5
 O1 
A    6
 C2 
A    7
 O2 
A    8
 C3 
A    9
 C4 
A   10
 C5 
A   11
 C6 
A   12
 C7 
A   13
 S  
M  END
>  <XChem_code>  (46) 
D68EV3CPROA-x1399

>  <Occupancy>  (46) 
[0.56, 0.56, 0.56, 0.56, 0.56, 0.56, 0.56, 0.56, 0.56, 0.56, 0.56, 0.56, 0.56]

>  <TempFactor>  (46) 
[39.2, 43.39, 44.23, 41.84, 31.97, 40.02, 32.04, 42.49, 36.79, 39.82, 38.83, 38.94, 35.13]

>  <RealCrystalName>  (46) 
D68EV3CPROA-x1399

>  <smiles>  (46) 
C[C@@H]1[C@@H](CO)N(S(C)(=O)=O)CCC1

>  <new_smiles>  (46) 
C[C@@H]1[C@@H](CO)N(S(C)(=O)=O)CCC1

>  <alternate_name>  (46) 
POB0026

>  <site_name>  (46) 
5

>  <pdb_entry>  (46) 
nan

>  <mol>  (46) 
<rdkit.Chem.rdchem.Mol object at 0x13a26cdd0>

>  <single_smiles>  (46) 
C[C@H]1CCCN(S(C)(=O)=O)[C@@H]1CO

>  <base_name>  (46) 
D68EV3CPROA-x1399_0A

>  <lig_resn>  (46) 
LIG

>  <lig_resi>  (46) 
201

>  <lig_chain>  (46) 
A

>  <lig_segi>  (46) 


>  <lig_alt>  (46) 


>  <polymer_chain>  (46) 
A

$$$$
x0191_0A§1
     RDKit          3D

 14 15  0  0  0  0  0  0  0  0999 V2000
  -21.2760  -10.6670  -20.6060 N   0  0  0  0  0  0  0  0  0  0  0  0
  -21.6070  -11.8600  -24.0770 C   0  0  0  0  0  0  0  0  0  0  0  0
  -22.8670  -12.2020  -24.1440 O   0  0  0  0  0  0  0  0  0  0  0  0
  -21.2080  -11.5190  -22.7170 C   0  0  0  0  0  0  0  0  0  0  0  0
  -21.9830  -10.9040  -21.7570 N   0  0  0  0  0  0  0  0  0  0  0  0
  -20.8310  -11.8560  -25.0380 O   0  0  0  0  0  0  0  0  0  0  0  0
  -19.9630  -11.6970  -22.1440 C   0  0  0  0  0  0  0  0  0  0  0  0
  -25.6910   -9.6080  -20.2800 O   0  0  0  0  0  0  0  0  0  0  0  0
  -20.0680  -11.1540  -20.8670 C   0  0  0  0  0  0  0  0  0  0  0  0
  -23.4020  -10.4960  -21.7580 C   0  0  1  0  0  0  0  0  0  0  0  0
  -24.2270  -11.4450  -20.8970 C   0  0  0  0  0  0  0  0  0  0  0  0
  -25.6450  -10.9400  -20.7920 C   0  0  0  0  0  0  0  0  0  0  0  0
  -25.0060   -8.7120  -21.1500 C   0  0  0  0  0  0  0  0  0  0  0  0
  -23.5430   -9.0610  -21.2570 C   0  0  0  0  0  0  0  0  0  0  0  0
  1  5  1  0
  1  9  2  0
  2  3  2  0
  2  4  1  0
  2  6  1  0
  4  5  1  0
  4  7  2  0
 10  5  1  1
  7  9  1  0
  8 12  1  0
  8 13  1  0
 10 11  1  0
 10 14  1  0
 11 12  1  0
 13 14  1  0
A    1
 N  
A    2
 C  
A    3
 O  
A    4
 C1 
A    5
 N1 
A    6
 O1 
A    7
 C2 
A    8
 O2 
A    9
 C3 
A   10
 C4 
A   11
 C5 
A   12
 C6 
A   13
 C7 
A   14
 C8 
M  END
>  <XChem_code>  (47) 
D68EV3CPROA-x0191

>  <Occupancy>  (47) 
[0.62, 0.62, 0.62, 0.62, 0.62, 0.62, 0.62, 0.62, 0.62, 0.62, 0.62, 0.62, 0.62, 0.62]

>  <TempFactor>  (47) 
[39.9, 39.52, 38.68, 40.67, 40.01, 46.35, 38.94, 43.78, 39.31, 41.63, 43.0, 44.3, 42.52, 40.87]

>  <RealCrystalName>  (47) 
D68EV3CPROA-x0191

>  <smiles>  (47) 
OC(=O)c1ccnn1C2CCOCC2

>  <new_smiles>  (47) 
OC(=O)c1ccnn1C2CCOCC2

>  <alternate_name>  (47) 
Z1230013388

>  <site_name>  (47) 
5

>  <pdb_entry>  (47) 
nan

>  <mol>  (47) 
<rdkit.Chem.rdchem.Mol object at 0x13a1a30d0>

>  <single_smiles>  (47) 
O=C(O)c1ccnn1C1CCOCC1

>  <base_name>  (47) 
D68EV3CPROA-x0191_0A

>  <lig_resn>  (47) 
LIG

>  <lig_resi>  (47) 
201

>  <lig_chain>  (47) 
A

>  <lig_segi>  (47) 


>  <lig_alt>  (47) 


>  <polymer_chain>  (47) 
A

$$$$
x0133_0A§1
     RDKit          3D

 13 13  0  0  0  0  0  0  0  0999 V2000
  -31.0960    1.1720  -39.4090 N   0  0  0  0  0  0  0  0  0  0  0  0
  -25.1480    1.1930  -44.7150 C   0  0  0  0  0  0  0  0  0  0  0  0
  -31.3780   -0.8160  -40.8240 O   0  0  0  0  0  0  0  0  0  0  0  0
  -26.2590    0.9040  -43.7380 C   0  0  0  0  0  0  0  0  0  0  0  0
  -30.7180    1.3410  -41.8290 O   0  0  0  0  0  0  0  0  0  0  0  0
  -26.8410    1.9180  -42.9860 C   0  0  0  0  0  0  0  0  0  0  0  0
  -27.7290    1.6390  -41.9650 C   0  0  0  0  0  0  0  0  0  0  0  0
  -28.0770    0.3310  -41.6620 C   0  0  0  0  0  0  0  0  0  0  0  0
  -28.9310    0.0230  -40.4650 C   0  0  0  0  0  0  0  0  0  0  0  0
  -27.5510   -0.6910  -42.4440 C   0  0  0  0  0  0  0  0  0  0  0  0
  -26.6670   -0.3790  -43.4470 C   0  0  0  0  0  0  0  0  0  0  0  0
  -26.1560   -1.3850  -44.1930 F   0  0  0  0  0  0  0  0  0  0  0  0
  -30.6530    0.4130  -40.7470 S   0  0  1  0  0  0  0  0  0  0  0  0
 13  1  1  1
  2  4  1  0
  3 13  2  0
  4  6  2  0
  4 11  1  0
  5 13  2  0
  6  7  1  0
  7  8  2  0
  8  9  1  0
  8 10  1  0
  9 13  1  0
 10 11  2  0
 11 12  1  0
A    1
 N  
A    2
 C  
A    3
 O  
A    4
 C1 
A    5
 O1 
A    6
 C2 
A    7
 C3 
A    8
 C4 
A    9
 C5 
A   10
 C6 
A   11
 C7 
A   12
 F  
A   13
 S  
M  END
>  <XChem_code>  (48) 
D68EV3CPROA-x0133

>  <Occupancy>  (48) 
[0.34, 0.34, 0.34, 0.34, 0.34, 0.34, 0.34, 0.34, 0.34, 0.34, 0.34, 0.34, 0.34]

>  <TempFactor>  (48) 
[64.94, 49.37, 65.75, 49.61, 66.72, 50.14, 51.77, 52.5, 56.76, 50.14, 50.05, 46.49, 64.5]

>  <RealCrystalName>  (48) 
D68EV3CPROA-x0133

>  <smiles>  (48) 
Cc1ccc(CS(=O)(=O)N)cc1F

>  <new_smiles>  (48) 
Cc1ccc(CS(=O)(=O)N)cc1F

>  <alternate_name>  (48) 
Z1143279263

>  <site_name>  (48) 
4

>  <pdb_entry>  (48) 
nan

>  <mol>  (48) 
<rdkit.Chem.rdchem.Mol object at 0x13a1a2c00>

>  <single_smiles>  (48) 
Cc1ccc(CS(N)(=O)=O)cc1F

>  <base_name>  (48) 
D68EV3CPROA-x0133_0A

>  <lig_resn>  (48) 
LIG

>  <lig_resi>  (48) 
201

>  <lig_chain>  (48) 
B

>  <lig_segi>  (48) 


>  <lig_alt>  (48) 
B

>  <polymer_chain>  (48) 
B

$$$$
x0133_0A§2
     RDKit          3D

 13 13  0  0  0  0  0  0  0  0999 V2000
  -31.1460    1.1010  -39.5720 N   0  0  0  0  0  0  0  0  0  0  0  0
  -25.3990    0.6770  -44.8940 C   0  0  0  0  0  0  0  0  0  0  0  0
  -31.2160   -1.2550  -40.2650 O   0  0  0  0  0  0  0  0  0  0  0  0
  -26.3890    0.4850  -43.7750 C   0  0  0  0  0  0  0  0  0  0  0  0
  -30.8060    0.5170  -41.9340 O   0  0  0  0  0  0  0  0  0  0  0  0
  -26.7170   -0.7890  -43.3190 C   0  0  0  0  0  0  0  0  0  0  0  0
  -27.5380   -0.9740  -42.2220 C   0  0  0  0  0  0  0  0  0  0  0  0
  -28.0620    0.1080  -41.5370 C   0  0  0  0  0  0  0  0  0  0  0  0
  -28.8780   -0.0920  -40.2910 C   0  0  0  0  0  0  0  0  0  0  0  0
  -27.7770    1.3890  -42.0000 C   0  0  0  0  0  0  0  0  0  0  0  0
  -26.9630    1.5380  -43.0970 C   0  0  0  0  0  0  0  0  0  0  0  0
  -26.7260    2.7890  -43.5450 F   0  0  0  0  0  0  0  0  0  0  0  0
  -30.6340    0.0000  -40.6150 S   0  0  1  0  0  0  0  0  0  0  0  0
 13  1  1  1
  2  4  1  0
  3 13  2  0
  4  6  2  0
  4 11  1  0
  5 13  2  0
  6  7  1  0
  7  8  2  0
  8  9  1  0
  8 10  1  0
  9 13  1  0
 10 11  2  0
 11 12  1  0
A    1
 N  
A    2
 C  
A    3
 O  
A    4
 C1 
A    5
 O1 
A    6
 C2 
A    7
 C3 
A    8
 C4 
A    9
 C5 
A   10
 C6 
A   11
 C7 
A   12
 F  
A   13
 S  
M  END
>  <XChem_code>  (49) 
D68EV3CPROA-x0133

>  <Occupancy>  (49) 
[0.35, 0.35, 0.35, 0.35, 0.35, 0.35, 0.35, 0.35, 0.35, 0.35, 0.35, 0.35, 0.35]

>  <TempFactor>  (49) 
[84.63, 63.16, 85.93, 62.82, 85.97, 63.93, 63.71, 65.58, 72.43, 63.72, 61.62, 60.02, 84.86]

>  <RealCrystalName>  (49) 
D68EV3CPROA-x0133

>  <smiles>  (49) 
Cc1ccc(CS(=O)(=O)N)cc1F

>  <new_smiles>  (49) 
Cc1ccc(CS(=O)(=O)N)cc1F

>  <alternate_name>  (49) 
Z1143279263

>  <site_name>  (49) 
4

>  <pdb_entry>  (49) 
nan

>  <mol>  (49) 
<rdkit.Chem.rdchem.Mol object at 0x13a1a2c00>

>  <single_smiles>  (49) 
Cc1ccc(CS(N)(=O)=O)cc1F

>  <base_name>  (49) 
D68EV3CPROA-x0133_0A

>  <lig_resn>  (49) 
LIG

>  <lig_resi>  (49) 
201

>  <lig_chain>  (49) 
B

>  <lig_segi>  (49) 


>  <lig_alt>  (49) 
A

>  <polymer_chain>  (49) 
B

$$$$
x0878_0A§1
     RDKit          3D

 14 14  0  0  0  0  0  0  0  0999 V2000
  -22.3990    3.6710  -50.6530 N   0  0  0  0  0  0  0  0  0  0  0  0
  -18.5000    4.0340  -50.1420 C   0  0  0  0  0  0  0  0  0  0  0  0
  -19.7930    4.0940  -50.7330 O   0  0  0  0  0  0  0  0  0  0  0  0
  -20.2250    3.0040  -51.4370 C   0  0  0  0  0  0  0  0  0  0  0  0
  -24.6430    6.1030  -52.2170 N   0  0  0  0  0  0  0  0  0  0  0  0
  -22.5350    5.9360  -50.4700 O   0  0  0  0  0  0  0  0  0  0  0  0
  -19.4030    2.1410  -52.1310 C   0  0  0  0  0  0  0  0  0  0  0  0
  -19.9640    1.1580  -52.9270 C   0  0  0  0  0  0  0  0  0  0  0  0
  -21.3430    1.0230  -53.0530 C   0  0  0  0  0  0  0  0  0  0  0  0
  -21.9350   -0.0020  -53.9890 C   0  0  0  0  0  0  0  0  0  0  0  0
  -22.1620    1.8780  -52.3280 C   0  0  0  0  0  0  0  0  0  0  0  0
  -21.6190    2.8600  -51.5050 C   0  0  0  0  0  0  0  0  0  0  0  0
  -22.9650    4.8660  -50.9050 C   0  0  0  0  0  0  0  0  0  0  0  0
  -24.2170    4.7820  -51.7940 C   0  0  0  0  0  0  0  0  0  0  0  0
  1 12  1  0
  1 13  1  0
  2  3  1  0
  3  4  1  0
  4  7  2  0
  4 12  1  0
  5 14  1  0
  6 13  2  0
  7  8  1  0
  8  9  2  0
  9 10  1  0
  9 11  1  0
 11 12  2  0
 13 14  1  0
A    1
 N  
A    2
 C  
A    3
 O  
A    4
 C1 
A    5
 N1 
A    6
 O1 
A    7
 C2 
A    8
 C3 
A    9
 C4 
A   10
 C5 
A   11
 C6 
A   12
 C7 
A   13
 C8 
A   14
 C9 
M  END
>  <XChem_code>  (50) 
D68EV3CPROA-x0878

>  <Occupancy>  (50) 
[0.72, 0.72, 0.72, 0.72, 0.72, 0.72, 0.72, 0.72, 0.72, 0.72, 0.72, 0.72, 0.72, 0.72]

>  <TempFactor>  (50) 
[69.11, 54.6, 58.56, 59.82, 79.07, 72.61, 58.24, 58.05, 60.67, 61.0, 59.9, 63.53, 73.06, 76.88]

>  <RealCrystalName>  (50) 
D68EV3CPROA-x0878

>  <smiles>  (50) 
Cl.COc1ccc(C)cc1NC(=O)CN

>  <new_smiles>  (50) 
Cl.COc1ccc(C)cc1NC(=O)CN

>  <alternate_name>  (50) 
Z235341991

>  <site_name>  (50) 
5

>  <pdb_entry>  (50) 
nan

>  <mol>  (50) 
<rdkit.Chem.rdchem.Mol object at 0x13a1a3990>

>  <single_smiles>  (50) 
COc1ccc(C)cc1NC(=O)CN

>  <base_name>  (50) 
D68EV3CPROA-x0878_0A

>  <lig_resn>  (50) 
LIG

>  <lig_resi>  (50) 
201

>  <lig_chain>  (50) 
A

>  <lig_segi>  (50) 


>  <lig_alt>  (50) 


>  <polymer_chain>  (50) 
A

$$$$
x1136_0B§1
     RDKit          3D

 13 13  0  0  0  0  0  0  0  0999 V2000
   -4.4370    1.0470  -49.9240 N   0  0  0  0  0  0  0  0  0  0  0  0
   -3.3310    0.2460  -52.5090 C   0  0  0  0  0  0  0  0  0  0  0  0
   -3.9900   -1.2350  -49.0800 O   0  0  0  0  0  0  0  0  0  0  0  0
   -3.0480   -0.7870  -51.4440 C   0  0  0  0  0  0  0  0  0  0  0  0
   -2.1470    0.3980  -49.2960 O   0  0  0  0  0  0  0  0  0  0  0  0
   -5.8560    0.9110  -49.9320 C   0  0  0  0  0  0  0  0  0  0  0  0
   -6.5510    0.3120  -48.8780 C   0  0  0  0  0  0  0  0  0  0  0  0
   -7.9330    0.1950  -48.9340 C   0  0  0  0  0  0  0  0  0  0  0  0
   -8.6320    0.6650  -50.0250 C   0  0  0  0  0  0  0  0  0  0  0  0
   -7.9660    1.2690  -51.0750 C   0  0  0  0  0  0  0  0  0  0  0  0
   -6.6000    1.3840  -51.0010 C   0  0  0  0  0  0  0  0  0  0  0  0
   -5.9390    2.0200  -51.9950 F   0  0  0  0  0  0  0  0  0  0  0  0
   -3.3580   -0.1750  -49.8040 S   0  0  1  0  0  0  0  0  0  0  0  0
  1  6  1  0
  1 13  1  0
  2  4  1  0
  3 13  2  0
 13  4  1  6
  5 13  2  0
  6  7  2  0
  6 11  1  0
  7  8  1  0
  8  9  2  0
  9 10  1  0
 10 11  2  0
 11 12  1  0
A    1
 N  
A    2
 C  
A    3
 O  
A    4
 C1 
A    5
 O1 
A    6
 C2 
A    7
 C3 
A    8
 C4 
A    9
 C5 
A   10
 C6 
A   11
 C7 
A   12
 F  
A   13
 S  
M  END
>  <XChem_code>  (51) 
D68EV3CPROA-x1136

>  <Occupancy>  (51) 
[0.7, 0.7, 0.7, 0.7, 0.7, 0.7, 0.7, 0.7, 0.7, 0.7, 0.7, 0.7, 0.7]

>  <TempFactor>  (51) 
[104.68, 108.76, 108.97, 108.58, 115.08, 93.82, 88.25, 82.92, 82.12, 85.33, 89.89, 93.33, 109.7]

>  <RealCrystalName>  (51) 
D68EV3CPROA-x1136

>  <smiles>  (51) 
CCS(=O)(=O)Nc1ccccc1F

>  <new_smiles>  (51) 
CCS(=O)(=O)Nc1ccccc1F

>  <alternate_name>  (51) 
Z53825177

>  <site_name>  (51) 
2

>  <pdb_entry>  (51) 
nan

>  <mol>  (51) 
<rdkit.Chem.rdchem.Mol object at 0x13a26c4a0>

>  <single_smiles>  (51) 
CCS(=O)(=O)Nc1ccccc1F

>  <base_name>  (51) 
D68EV3CPROA-x1136_0B

>  <lig_resn>  (51) 
LIG

>  <lig_resi>  (51) 
201

>  <lig_chain>  (51) 
B

>  <lig_segi>  (51) 


>  <lig_alt>  (51) 


>  <polymer_chain>  (51) 
B

$$$$
x1184_0B§1
     RDKit          3D

 12 12  0  0  0  0  0  0  0  0999 V2000
  -10.8340    2.8560  -52.3180 C   0  0  0  0  0  0  0  0  0  0  0  0
  -11.9410    2.4590  -52.9150 O   0  0  0  0  0  0  0  0  0  0  0  0
   -9.6230    2.0570  -52.7260 C   0  0  0  0  0  0  0  0  0  0  0  0
  -10.7620    3.7910  -51.5300 O   0  0  0  0  0  0  0  0  0  0  0  0
   -7.9980    1.7320  -50.9620 C   0  0  0  0  0  0  0  0  0  0  0  0
   -8.4720    2.5000  -51.9940 O   0  0  0  0  0  0  0  0  0  0  0  0
   -8.7250    0.9240  -50.1010 C   0  0  0  0  0  0  0  0  0  0  0  0
   -8.0930    0.3160  -49.0330 C   0  0  0  0  0  0  0  0  0  0  0  0
   -6.7530    0.5380  -48.8610 C   0  0  0  0  0  0  0  0  0  0  0  0
   -6.0020    1.2880  -49.7240 C   0  0  0  0  0  0  0  0  0  0  0  0
   -6.6400    1.9010  -50.7860 C   0  0  0  0  0  0  0  0  0  0  0  0
   -6.1560    0.0670  -47.7370 F   0  0  0  0  0  0  0  0  0  0  0  0
  1  2  2  0
  1  3  1  0
  1  4  1  0
  3  6  1  0
  5  6  1  0
  5  7  2  0
  5 11  1  0
  7  8  1  0
  8  9  2  0
  9 10  1  0
  9 12  1  0
 10 11  2  0
A    1
 C  
A    2
 O  
A    3
 C1 
A    4
 O1 
A    5
 C2 
A    6
 O2 
A    7
 C3 
A    8
 C4 
A    9
 C5 
A   10
 C6 
A   11
 C7 
A   12
 F  
M  END
>  <XChem_code>  (52) 
D68EV3CPROA-x1184

>  <Occupancy>  (52) 
[0.66, 0.66, 0.66, 0.66, 0.66, 0.66, 0.66, 0.66, 0.66, 0.66, 0.66, 0.66]

>  <TempFactor>  (52) 
[39.03, 36.01, 42.14, 35.56, 39.58, 41.73, 38.45, 38.43, 38.5, 39.21, 39.15, 38.4]

>  <RealCrystalName>  (52) 
D68EV3CPROA-x1184

>  <smiles>  (52) 
OC(=O)COc1ccc(F)cc1

>  <new_smiles>  (52) 
OC(=O)COc1ccc(F)cc1

>  <alternate_name>  (52) 
Z56978034

>  <site_name>  (52) 
2

>  <pdb_entry>  (52) 
nan

>  <mol>  (52) 
<rdkit.Chem.rdchem.Mol object at 0x13a26c580>

>  <single_smiles>  (52) 
O=C(O)COc1ccc(F)cc1

>  <base_name>  (52) 
D68EV3CPROA-x1184_0B

>  <lig_resn>  (52) 
LIG

>  <lig_resi>  (52) 
201

>  <lig_chain>  (52) 
B

>  <lig_segi>  (52) 


>  <lig_alt>  (52) 


>  <polymer_chain>  (52) 
B

$$$$
x1594_0A§1
     RDKit          3D

 10 11  0  0  0  0  0  0  0  0999 V2000
   -6.8740    9.8340  -32.5350 N   0  0  0  0  0  0  0  0  0  0  0  0
   -6.6660   10.2800  -31.2910 C   0  0  0  0  0  0  0  0  0  0  0  0
   -5.8820   11.4760  -29.6270 C   0  0  0  0  0  0  0  0  0  0  0  0
   -7.1990    9.8070  -30.1740 N   0  0  0  0  0  0  0  0  0  0  0  0
   -5.0830   12.4690  -29.0140 C   0  0  0  0  0  0  0  0  0  0  0  0
   -6.7030   10.5680  -29.1130 N   0  0  0  0  0  0  0  0  0  0  0  0
   -4.2680   13.2420  -29.7830 C   0  0  0  0  0  0  0  0  0  0  0  0
   -5.8120   11.3450  -31.0120 N   0  0  0  0  0  0  0  0  0  0  0  0
   -4.2110   13.0710  -31.1840 C   0  0  0  0  0  0  0  0  0  0  0  0
   -4.9820   12.1370  -31.7840 C   0  0  0  0  0  0  0  0  0  0  0  0
  1  2  1  0
  2  4  2  0
  2  8  1  0
  3  5  1  0
  3  6  2  0
  3  8  1  0
  4  6  1  0
  5  7  2  0
  7  9  1  0
  8 10  1  0
  9 10  2  0
A    1
 N  
A    2
 C  
A    3
 C1 
A    4
 N1 
A    5
 C2 
A    6
 N2 
A    7
 C3 
A    8
 N3 
A    9
 C4 
A   10
 C5 
M  END
>  <XChem_code>  (53) 
D68EV3CPROA-x1594

>  <Occupancy>  (53) 
[0.66, 0.66, 0.66, 0.66, 0.66, 0.66, 0.66, 0.66, 0.66, 0.66]

>  <TempFactor>  (53) 
[32.44, 31.86, 32.44, 29.37, 32.27, 30.89, 34.56, 32.15, 34.73, 34.07]

>  <RealCrystalName>  (53) 
D68EV3CPROA-x1594

>  <smiles>  (53) 
NC1=NN=C2C=CC=CN12

>  <new_smiles>  (53) 
NC1=NN=C2C=CC=CN12

>  <alternate_name>  (53) 
Z362020366

>  <site_name>  (53) 
1

>  <pdb_entry>  (53) 
nan

>  <mol>  (53) 
<rdkit.Chem.rdchem.Mol object at 0x13a26d930>

>  <single_smiles>  (53) 
Nc1nnc2ccccn12

>  <base_name>  (53) 
D68EV3CPROA-x1594_0A

>  <lig_resn>  (53) 
LIG

>  <lig_resi>  (53) 
201

>  <lig_chain>  (53) 
A

>  <lig_segi>  (53) 


>  <lig_alt>  (53) 


>  <polymer_chain>  (53) 
A

$$$$
x1264_0B§1
     RDKit          3D

 19 20  0  0  0  0  0  0  0  0999 V2000
  -28.1690    0.1410  -43.1810 N   0  0  0  0  0  0  0  0  0  0  0  0
  -25.5220    1.8560  -44.9240 C   0  0  1  0  0  0  0  0  0  0  0  0
  -27.1050   -1.2220  -44.6020 O   0  0  0  0  0  0  0  0  0  0  0  0
  -26.7690    1.7780  -45.7660 C   0  0  0  0  0  0  0  0  0  0  0  0
  -28.2830    0.9470  -40.5260 N   0  0  0  0  0  0  0  0  0  0  0  0
  -28.4480   -1.1590  -39.8180 O   0  0  0  0  0  0  0  0  0  0  0  0
  -26.9410    2.6940  -46.7990 C   0  0  0  0  0  0  0  0  0  0  0  0
  -28.1140    2.7000  -47.5380 C   0  0  0  0  0  0  0  0  0  0  0  0
  -29.1210    1.8030  -47.2570 C   0  0  0  0  0  0  0  0  0  0  0  0
  -28.9690    0.8780  -46.2380 C   0  0  0  0  0  0  0  0  0  0  0  0
  -27.7920    0.8540  -45.4880 C   0  0  0  0  0  0  0  0  0  0  0  0
  -27.6670   -0.1650  -44.3890 C   0  0  0  0  0  0  0  0  0  0  0  0
  -28.8790    1.3840  -42.8470 C   0  0  0  0  0  0  0  0  0  0  0  0
  -28.3570    1.9730  -41.5590 C   0  0  0  0  0  0  0  0  0  0  0  0
  -28.2550   -0.3570  -40.7270 C   0  0  0  0  0  0  0  0  0  0  0  0
  -27.9930   -0.8480  -42.1200 C   0  0  0  0  0  0  0  0  0  0  0  0
  -25.7510    2.4490  -43.7550 F   0  0  0  0  0  0  0  0  0  0  0  0
  -25.0270    0.6590  -44.6300 F   0  0  0  0  0  0  0  0  0  0  0  0
  -24.5230    2.5030  -45.5240 F   0  0  0  0  0  0  0  0  0  0  0  0
  1 12  1  0
  1 13  1  0
  1 16  1  0
  2  4  1  0
  2 17  1  1
  2 18  1  0
  2 19  1  0
  3 12  2  0
  4  7  2  0
  4 11  1  0
  5 14  1  0
  5 15  1  0
  6 15  2  0
  7  8  1  0
  8  9  2  0
  9 10  1  0
 10 11  2  0
 11 12  1  0
 13 14  1  0
 15 16  1  0
A    1
 N  
A    2
 C  
A    3
 O  
A    4
 C1 
A    5
 N1 
A    6
 O1 
A    7
 C2 
A    8
 C3 
A    9
 C4 
A   10
 C5 
A   11
 C6 
A   12
 C7 
A   13
 C8 
A   14
 C9 
A   15
 C10
A   16
 C11
A   17
 F  
A   18
 F1 
A   19
 F2 
M  END
>  <XChem_code>  (54) 
D68EV3CPROA-x1264

>  <Occupancy>  (54) 
[0.72, 0.72, 0.72, 0.72, 0.72, 0.72, 0.72, 0.72, 0.72, 0.72, 0.72, 0.72, 0.72, 0.72, 0.72, 0.72, 0.72, 0.72, 0.72]

>  <TempFactor>  (54) 
[28.51, 32.32, 34.75, 32.38, 25.54, 26.96, 32.91, 33.57, 33.49, 34.21, 32.38, 31.62, 27.37, 26.61, 25.5, 27.95, 31.81, 33.64, 30.12]

>  <RealCrystalName>  (54) 
D68EV3CPROA-x1264

>  <smiles>  (54) 
FC(F)(F)c1ccccc1C(=O)N2CCNC(=O)C2

>  <new_smiles>  (54) 
FC(F)(F)c1ccccc1C(=O)N2CCNC(=O)C2

>  <alternate_name>  (54) 
Z85249949

>  <site_name>  (54) 
4

>  <pdb_entry>  (54) 
nan

>  <mol>  (54) 
<rdkit.Chem.rdchem.Mol object at 0x13a26c900>

>  <single_smiles>  (54) 
O=C1CN(C(=O)c2ccccc2C(F)(F)F)CCN1

>  <base_name>  (54) 
D68EV3CPROA-x1264_0B

>  <lig_resn>  (54) 
LIG

>  <lig_resi>  (54) 
201

>  <lig_chain>  (54) 
B

>  <lig_segi>  (54) 


>  <lig_alt>  (54) 


>  <polymer_chain>  (54) 
B

$$$$
x1056_0B§1
     RDKit          3D

 15 16  0  0  0  0  0  0  0  0999 V2000
   -5.1660    1.5320  -48.8910 N   0  0  0  0  0  0  0  0  0  0  0  0
   -4.3730    0.6880  -48.1850 C   0  0  0  0  0  0  0  0  0  0  0  0
   -4.6430   -0.4840  -47.9420 O   0  0  0  0  0  0  0  0  0  0  0  0
   -6.4390    1.2950  -49.4320 C   0  0  0  0  0  0  0  0  0  0  0  0
   -6.7390    2.0980  -50.4620 N   0  0  0  0  0  0  0  0  0  0  0  0
   -1.2860    2.8730  -48.1080 O   0  0  0  0  0  0  0  0  0  0  0  0
   -7.3650    0.4110  -48.8660 C   0  0  0  0  0  0  0  0  0  0  0  0
   -3.2150    1.7810  -46.3680 O   0  0  0  0  0  0  0  0  0  0  0  0
   -8.6500    0.4010  -49.3820 C   0  0  0  0  0  0  0  0  0  0  0  0
   -8.9780    1.2360  -50.4210 C   0  0  0  0  0  0  0  0  0  0  0  0
   -7.9960    2.0590  -50.9320 C   0  0  0  0  0  0  0  0  0  0  0  0
   -3.0500    1.2740  -47.7010 C   0  0  2  0  0  0  0  0  0  0  0  0
   -2.5340    2.3770  -48.5990 C   0  0  0  0  0  0  0  0  0  0  0  0
   -1.4380    3.3550  -46.7690 C   0  0  0  0  0  0  0  0  0  0  0  0
   -1.9720    2.2920  -45.8570 C   0  0  0  0  0  0  0  0  0  0  0  0
  1  2  1  0
  1  4  1  0
  2  3  2  0
 12  2  1  6
  4  5  2  0
  4  7  1  0
  5 11  1  0
  6 13  1  0
  6 14  1  0
  7  9  2  0
  8 12  1  0
  8 15  1  0
  9 10  1  0
 10 11  2  0
 12 13  1  0
 14 15  1  0
A    1
 N  
A    2
 C  
A    3
 O  
A    4
 C1 
A    5
 N1 
A    6
 O1 
A    7
 C2 
A    8
 O2 
A    9
 C3 
A   10
 C4 
A   11
 C5 
A   12
 C6 
A   13
 C7 
A   14
 C8 
A   15
 C9 
M  END
>  <XChem_code>  (55) 
D68EV3CPROA-x1056

>  <Occupancy>  (55) 
[0.84, 0.84, 0.84, 0.84, 0.84, 0.84, 0.84, 0.84, 0.84, 0.84, 0.84, 0.84, 0.84, 0.84, 0.84]

>  <TempFactor>  (55) 
[47.25, 48.84, 49.46, 41.81, 39.76, 56.79, 39.35, 51.64, 37.34, 37.02, 37.78, 51.62, 53.79, 55.75, 52.8]

>  <RealCrystalName>  (55) 
D68EV3CPROA-x1056

>  <smiles>  (55) 
O=C(Nc1ccccn1)C2COCCO2

>  <new_smiles>  (55) 
O=C(Nc1ccccn1)C2COCCO2

>  <alternate_name>  (55) 
Z381474098

>  <site_name>  (55) 
2

>  <pdb_entry>  (55) 
nan

>  <mol>  (55) 
<rdkit.Chem.rdchem.Mol object at 0x13a1a3f40>

>  <single_smiles>  (55) 
O=C(Nc1ccccn1)C1COCCO1

>  <base_name>  (55) 
D68EV3CPROA-x1056_0B

>  <lig_resn>  (55) 
LIG

>  <lig_resi>  (55) 
201

>  <lig_chain>  (55) 
B

>  <lig_segi>  (55) 


>  <lig_alt>  (55) 


>  <polymer_chain>  (55) 
B

$$$$
x1495_0A§1
     RDKit          3D

  8  8  0  0  0  0  0  0  0  0999 V2000
   -4.8120    0.3600  -49.6430 C   0  0  0  0  0  0  0  0  0  0  0  0
   -4.1220    0.7230  -50.7140 O   0  0  0  0  0  0  0  0  0  0  0  0
   -6.3050    0.4900  -49.7450 C   0  0  0  0  0  0  0  0  0  0  0  0
   -4.2950   -0.1000  -48.5980 O   0  0  0  0  0  0  0  0  0  0  0  0
   -7.1060    0.8460  -50.8900 C   0  0  0  0  0  0  0  0  0  0  0  0
   -8.4360    0.7550  -50.6720 C   0  0  0  0  0  0  0  0  0  0  0  0
   -7.0900    0.1390  -48.6750 C   0  0  0  0  0  0  0  0  0  0  0  0
   -8.7370    0.2070  -49.0330 S   0  0  0  0  0  0  0  0  0  0  0  0
  1  2  2  0
  1  3  1  0
  1  4  1  0
  3  5  1  0
  3  7  2  0
  5  6  2  0
  6  8  1  0
  7  8  1  0
A    1
 C  
A    2
 O  
A    3
 C1 
A    4
 O1 
A    5
 C2 
A    6
 C3 
A    7
 C4 
A    8
 S  
M  END
>  <XChem_code>  (56) 
D68EV3CPROA-x1495

>  <Occupancy>  (56) 
[0.84, 0.84, 0.84, 0.84, 0.84, 0.84, 0.84, 0.84]

>  <TempFactor>  (56) 
[46.72, 52.55, 36.72, 50.79, 33.61, 30.81, 31.55, 28.27]

>  <RealCrystalName>  (56) 
D68EV3CPROA-x1495

>  <smiles>  (56) 
OC(=O)C=1C=CSC1

>  <new_smiles>  (56) 
OC(=O)C=1C=CSC1

>  <alternate_name>  (56) 
Z166605460

>  <site_name>  (56) 
5

>  <pdb_entry>  (56) 
nan

>  <mol>  (56) 
<rdkit.Chem.rdchem.Mol object at 0x13a26d070>

>  <single_smiles>  (56) 
O=C(O)c1ccsc1

>  <base_name>  (56) 
D68EV3CPROA-x1495_0A

>  <lig_resn>  (56) 
LIG

>  <lig_resi>  (56) 
201

>  <lig_chain>  (56) 
B

>  <lig_segi>  (56) 


>  <lig_alt>  (56) 


>  <polymer_chain>  (56) 
B

$$$$
x1537_0A§1
     RDKit          3D

  6  6  0  0  0  0  0  0  0  0999 V2000
   -6.1610   11.4540  -31.1560 N   0  0  0  0  0  0  0  0  0  0  0  0
   -5.0770   12.6190  -29.2410 C   0  0  0  0  0  0  0  0  0  0  0  0
   -6.0060   11.6350  -29.8650 C   0  0  0  0  0  0  0  0  0  0  0  0
   -7.0430   10.4260  -31.2910 N   0  0  0  0  0  0  0  0  0  0  0  0
   -7.4280    9.9910  -30.1340 N   0  0  0  0  0  0  0  0  0  0  0  0
   -6.7910   10.7450  -29.2200 N   0  0  0  0  0  0  0  0  0  0  0  0
  1  3  2  0
  1  4  1  0
  2  3  1  0
  3  6  1  0
  4  5  2  0
  5  6  1  0
A    1
 N  
A    2
 C  
A    3
 C1 
A    4
 N1 
A    5
 N2 
A    6
 N3 
M  END
>  <XChem_code>  (57) 
D68EV3CPROA-x1537

>  <Occupancy>  (57) 
[0.67, 0.67, 0.67, 0.67, 0.67, 0.67]

>  <TempFactor>  (57) 
[19.84, 19.74, 18.86, 19.5, 17.53, 18.3]

>  <RealCrystalName>  (57) 
D68EV3CPROA-x1537

>  <smiles>  (57) 
CC1=NN=NN1

>  <new_smiles>  (57) 
CC1=NN=NN1

>  <alternate_name>  (57) 
Z56761437

>  <site_name>  (57) 
1

>  <pdb_entry>  (57) 
nan

>  <mol>  (57) 
<rdkit.Chem.rdchem.Mol object at 0x13a26d3f0>

>  <single_smiles>  (57) 
Cc1nnn[nH]1

>  <base_name>  (57) 
D68EV3CPROA-x1537_0A

>  <lig_resn>  (57) 
LIG

>  <lig_resi>  (57) 
201

>  <lig_chain>  (57) 
A

>  <lig_segi>  (57) 


>  <lig_alt>  (57) 


>  <polymer_chain>  (57) 
A

$$$$
x1604_0A§1
     RDKit          3D

 15 16  0  0  0  0  0  0  0  0999 V2000
   -2.2250   15.0480  -29.0690 C   0  0  0  0  0  0  0  0  0  0  0  0
   -2.5240   13.6820  -31.0050 O   0  0  0  0  0  0  0  0  0  0  0  0
   -3.2430   14.3520  -29.9410 C   0  0  2  0  0  0  0  0  0  0  0  0
   -2.7250   12.4690  -32.8290 O   0  0  0  0  0  0  0  0  0  0  0  0
   -4.2730   15.2990  -30.5210 C   0  0  0  0  0  0  0  0  0  0  0  0
   -7.3450   10.1200  -29.0680 O   0  0  0  0  0  0  0  0  0  0  0  0
   -3.1620   12.7220  -31.7330 C   0  0  0  0  0  0  0  0  0  0  0  0
   -3.9100   13.3750  -29.1090 O   0  0  0  0  0  0  0  0  0  0  0  0
   -4.3010   12.0730  -31.0890 C   0  0  0  0  0  0  0  0  0  0  0  0
   -5.0350   11.0750  -31.7270 C   0  0  0  0  0  0  0  0  0  0  0  0
   -6.0580   10.4410  -31.0390 C   0  0  0  0  0  0  0  0  0  0  0  0
   -6.3750   10.7900  -29.7310 C   0  0  0  0  0  0  0  0  0  0  0  0
   -5.6600   11.8040  -29.1130 C   0  0  0  0  0  0  0  0  0  0  0  0
   -4.6330   12.4240  -29.7900 C   0  0  0  0  0  0  0  0  0  0  0  0
   -7.0310    9.0590  -31.8950 Br  0  0  0  0  0  0  0  0  0  0  0  0
  3  1  1  1
  2  3  1  0
  2  7  1  0
  3  5  1  0
  3  8  1  0
  4  7  2  0
  6 12  1  0
  7  9  1  0
  8 14  1  0
  9 10  2  0
  9 14  1  0
 10 11  1  0
 11 12  2  0
 11 15  1  0
 12 13  1  0
 13 14  2  0
A    1
 C  
A    2
 O  
A    3
 C1 
A    4
 O1 
A    5
 C2 
A    6
 O2 
A    7
 C3 
A    8
 O3 
A    9
 C4 
A   10
 C5 
A   11
 C6 
A   12
 C7 
A   13
 C8 
A   14
 C9 
A   15
BR  
M  END
>  <XChem_code>  (58) 
D68EV3CPROA-x1604

>  <Occupancy>  (58) 
[0.7, 0.7, 0.7, 0.7, 0.7, 0.7, 0.7, 0.7, 0.7, 0.7, 0.7, 0.7, 0.7, 0.7, 0.7]

>  <TempFactor>  (58) 
[72.3, 77.66, 74.79, 71.79, 72.05, 62.52, 75.7, 75.21, 75.25, 76.05, 72.74, 67.77, 70.53, 72.83, 84.1]

>  <RealCrystalName>  (58) 
D68EV3CPROA-x1604

>  <smiles>  (58) 
CC1(C)OC(=O)C=2C=C(Br)C(O)=CC2O1

>  <new_smiles>  (58) 
CC1(C)OC(=O)C=2C=C(Br)C(O)=CC2O1

>  <alternate_name>  (58) 
Z1509711879

>  <site_name>  (58) 
1

>  <pdb_entry>  (58) 
nan

>  <mol>  (58) 
<rdkit.Chem.rdchem.Mol object at 0x13a26da10>

>  <single_smiles>  (58) 
CC1(C)OC(=O)c2cc(Br)c(O)cc2O1

>  <base_name>  (58) 
D68EV3CPROA-x1604_0A

>  <lig_resn>  (58) 
LIG

>  <lig_resi>  (58) 
201

>  <lig_chain>  (58) 
A

>  <lig_segi>  (58) 


>  <lig_alt>  (58) 


>  <polymer_chain>  (58) 
A

$$$$
x1498_0B§1
     RDKit          3D

  7  7  0  0  0  0  0  0  0  0999 V2000
   -5.6770   11.4110  -29.8030 N   0  0  0  0  0  0  0  0  0  0  0  0
   -6.5030   10.3810  -30.1480 C   0  0  0  0  0  0  0  0  0  0  0  0
   -7.1170    9.7570  -29.1810 O   0  0  0  0  0  0  0  0  0  0  0  0
   -6.7630   10.0140  -31.4690 C   0  0  0  0  0  0  0  0  0  0  0  0
   -6.1620   10.7610  -32.4710 C   0  0  0  0  0  0  0  0  0  0  0  0
   -5.3280   11.8160  -32.1480 C   0  0  0  0  0  0  0  0  0  0  0  0
   -5.1140   12.0970  -30.8080 C   0  0  0  0  0  0  0  0  0  0  0  0
  1  2  2  0
  1  7  1  0
  2  3  1  0
  2  4  1  0
  4  5  2  0
  5  6  1  0
  6  7  2  0
A    1
 N  
A    2
 C  
A    3
 O  
A    4
 C1 
A    5
 C2 
A    6
 C3 
A    7
 C4 
M  END
>  <XChem_code>  (59) 
D68EV3CPROA-x1498

>  <Occupancy>  (59) 
[0.88, 0.88, 0.88, 0.88, 0.88, 0.88, 0.88]

>  <TempFactor>  (59) 
[42.68, 37.56, 35.8, 40.47, 43.12, 43.66, 44.2]

>  <RealCrystalName>  (59) 
D68EV3CPROA-x1498

>  <smiles>  (59) 
OC=1C=CC=CN1

>  <new_smiles>  (59) 
OC=1C=CC=CN1

>  <alternate_name>  (59) 
Z1741982125

>  <site_name>  (59) 
5

>  <pdb_entry>  (59) 
nan

>  <mol>  (59) 
<rdkit.Chem.rdchem.Mol object at 0x13a26d230>

>  <single_smiles>  (59) 
Oc1ccccn1

>  <base_name>  (59) 
D68EV3CPROA-x1498_0B

>  <lig_resn>  (59) 
LIG

>  <lig_resi>  (59) 
201

>  <lig_chain>  (59) 
A

>  <lig_segi>  (59) 


>  <lig_alt>  (59) 


>  <polymer_chain>  (59) 
A

$$$$
x1498_0B§2
     RDKit          3D

  7  7  0  0  0  0  0  0  0  0999 V2000
  -18.2570   19.9470  -20.8410 N   0  0  0  0  0  0  0  0  0  0  0  0
  -19.3030   19.1750  -21.2760 C   0  0  0  0  0  0  0  0  0  0  0  0
  -19.7950   18.2360  -20.4320 O   0  0  0  0  0  0  0  0  0  0  0  0
  -19.8620   19.3290  -22.5450 C   0  0  0  0  0  0  0  0  0  0  0  0
  -19.3230   20.2830  -23.3930 C   0  0  0  0  0  0  0  0  0  0  0  0
  -18.2760   21.0720  -22.9710 C   0  0  0  0  0  0  0  0  0  0  0  0
  -17.7810   20.8730  -21.6970 C   0  0  0  0  0  0  0  0  0  0  0  0
  1  2  2  0
  1  7  1  0
  2  3  1  0
  2  4  1  0
  4  5  2  0
  5  6  1  0
  6  7  2  0
A    1
 N  
A    2
 C  
A    3
 O  
A    4
 C1 
A    5
 C2 
A    6
 C3 
A    7
 C4 
M  END
>  <XChem_code>  (60) 
D68EV3CPROA-x1498

>  <Occupancy>  (60) 
[0.88, 0.88, 0.88, 0.88, 0.88, 0.88, 0.88]

>  <TempFactor>  (60) 
[53.3, 52.52, 51.54, 47.0, 49.42, 50.99, 52.44]

>  <RealCrystalName>  (60) 
D68EV3CPROA-x1498

>  <smiles>  (60) 
OC=1C=CC=CN1

>  <new_smiles>  (60) 
OC=1C=CC=CN1

>  <alternate_name>  (60) 
Z1741982125

>  <site_name>  (60) 
5

>  <pdb_entry>  (60) 
nan

>  <mol>  (60) 
<rdkit.Chem.rdchem.Mol object at 0x13a26d230>

>  <single_smiles>  (60) 
Oc1ccccn1

>  <base_name>  (60) 
D68EV3CPROA-x1498_0B

>  <lig_resn>  (60) 
LIG

>  <lig_resi>  (60) 
201

>  <lig_chain>  (60) 
B

>  <lig_segi>  (60) 


>  <lig_alt>  (60) 


>  <polymer_chain>  (60) 
B

$$$$
x1498_0B§3
     RDKit          3D

  7  7  0  0  0  0  0  0  0  0999 V2000
  -25.7700  -12.6800  -37.0880 N   0  0  0  0  0  0  0  0  0  0  0  0
  -27.0180  -12.3010  -37.4850 C   0  0  0  0  0  0  0  0  0  0  0  0
  -27.2530  -10.9840  -37.6430 O   0  0  0  0  0  0  0  0  0  0  0  0
  -28.0380  -13.2260  -37.7200 C   0  0  0  0  0  0  0  0  0  0  0  0
  -27.7580  -14.5720  -37.5410 C   0  0  0  0  0  0  0  0  0  0  0  0
  -26.5040  -14.9720  -37.1280 C   0  0  0  0  0  0  0  0  0  0  0  0
  -25.5460  -13.9970  -36.9170 C   0  0  0  0  0  0  0  0  0  0  0  0
  1  2  2  0
  1  7  1  0
  2  3  1  0
  2  4  1  0
  4  5  2  0
  5  6  1  0
  6  7  2  0
A    1
 N  
A    2
 C  
A    3
 O  
A    4
 C1 
A    5
 C2 
A    6
 C3 
A    7
 C4 
M  END
>  <XChem_code>  (61) 
D68EV3CPROA-x1498

>  <Occupancy>  (61) 
[0.62, 0.62, 0.62, 0.62, 0.62, 0.62, 0.62]

>  <TempFactor>  (61) 
[32.45, 33.25, 31.28, 30.67, 32.17, 31.98, 32.5]

>  <RealCrystalName>  (61) 
D68EV3CPROA-x1498

>  <smiles>  (61) 
OC=1C=CC=CN1

>  <new_smiles>  (61) 
OC=1C=CC=CN1

>  <alternate_name>  (61) 
Z1741982125

>  <site_name>  (61) 
5

>  <pdb_entry>  (61) 
nan

>  <mol>  (61) 
<rdkit.Chem.rdchem.Mol object at 0x13a26d230>

>  <single_smiles>  (61) 
Oc1ccccn1

>  <base_name>  (61) 
D68EV3CPROA-x1498_0B

>  <lig_resn>  (61) 
LIG

>  <lig_resi>  (61) 
301

>  <lig_chain>  (61) 
B

>  <lig_segi>  (61) 


>  <lig_alt>  (61) 


>  <polymer_chain>  (61) 
B

$$$$
x0170_0A§1
     RDKit          3D

 12 13  0  0  0  0  0  0  0  0999 V2000
   -0.9740    7.0580  -21.6660 N   0  0  0  0  0  0  0  0  0  0  0  0
   -1.0200    6.2930  -22.5150 C   0  0  0  0  0  0  0  0  0  0  0  0
    0.6730    2.3700  -25.0190 O   0  0  0  0  0  0  0  0  0  0  0  0
   -1.0470    5.3130  -23.5700 C   0  0  0  0  0  0  0  0  0  0  0  0
   -2.1800    4.5440  -25.5700 N   0  0  0  0  0  0  0  0  0  0  0  0
   -2.0600    5.3770  -24.5310 C   0  0  0  0  0  0  0  0  0  0  0  0
    0.9380    4.1020  -22.8380 N   0  0  0  0  0  0  0  0  0  0  0  0
   -1.2640    3.5800  -25.7010 C   0  0  0  0  0  0  0  0  0  0  0  0
   -0.2170    3.3990  -24.8210 C   0  0  0  0  0  0  0  0  0  0  0  0
    1.9530    2.5460  -24.3830 C   0  0  0  0  0  0  0  0  0  0  0  0
    1.7900    2.9330  -22.9490 C   0  0  0  0  0  0  0  0  0  0  0  0
   -0.0990    4.2770  -23.7320 C   0  0  0  0  0  0  0  0  0  0  0  0
  1  2  3  0
  2  4  1  0
  3  9  1  0
  3 10  1  0
  4  6  1  0
  4 12  2  0
  5  6  2  0
  5  8  1  0
  7 11  1  0
  7 12  1  0
  8  9  2  0
  9 12  1  0
 10 11  1  0
A    1
 N  
A    2
 C  
A    3
 O  
A    4
 C1 
A    5
 N1 
A    6
 C2 
A    7
 N2 
A    8
 C3 
A    9
 C4 
A   10
 C5 
A   11
 C6 
A   12
 C7 
M  END
>  <XChem_code>  (62) 
D68EV3CPROA-x0170

>  <Occupancy>  (62) 
[0.58, 0.58, 0.58, 0.58, 0.58, 0.58, 0.58, 0.58, 0.58, 0.58, 0.58, 0.58]

>  <TempFactor>  (62) 
[43.61, 43.36, 38.05, 42.36, 41.32, 42.97, 41.75, 38.88, 40.06, 38.75, 39.46, 41.11]

>  <RealCrystalName>  (62) 
D68EV3CPROA-x0170

>  <smiles>  (62) 
N#Cc1cncc2OCCNc12

>  <new_smiles>  (62) 
N#Cc1cncc2OCCNc12

>  <alternate_name>  (62) 
Z1201628402

>  <site_name>  (62) 
3

>  <pdb_entry>  (62) 
nan

>  <mol>  (62) 
<rdkit.Chem.rdchem.Mol object at 0x13a1a2f10>

>  <single_smiles>  (62) 
N#Cc1cncc2c1NCCO2

>  <base_name>  (62) 
D68EV3CPROA-x0170_0A

>  <lig_resn>  (62) 
LIG

>  <lig_resi>  (62) 
201

>  <lig_chain>  (62) 
A

>  <lig_segi>  (62) 


>  <lig_alt>  (62) 


>  <polymer_chain>  (62) 
A

$$$$
x0170_0A§2
     RDKit          3D

 12 13  0  0  0  0  0  0  0  0999 V2000
  -11.3330    3.7460  -13.1090 N   0  0  0  0  0  0  0  0  0  0  0  0
  -10.9600    2.6800  -13.2960 C   0  0  0  0  0  0  0  0  0  0  0  0
  -11.3530   -1.8540  -15.2490 O   0  0  0  0  0  0  0  0  0  0  0  0
  -10.5220    1.3330  -13.5540 C   0  0  0  0  0  0  0  0  0  0  0  0
   -8.8260   -0.3440  -13.1270 N   0  0  0  0  0  0  0  0  0  0  0  0
   -9.3260    0.8870  -12.9850 C   0  0  0  0  0  0  0  0  0  0  0  0
  -12.4140    0.7190  -14.9640 N   0  0  0  0  0  0  0  0  0  0  0  0
   -9.5200   -1.2140  -13.8670 C   0  0  0  0  0  0  0  0  0  0  0  0
  -10.7110   -0.9040  -14.4900 C   0  0  0  0  0  0  0  0  0  0  0  0
  -12.7620   -1.6240  -15.4400 C   0  0  0  0  0  0  0  0  0  0  0  0
  -13.0200   -0.2220  -15.8870 C   0  0  0  0  0  0  0  0  0  0  0  0
  -11.2280    0.3920  -14.3370 C   0  0  0  0  0  0  0  0  0  0  0  0
  1  2  3  0
  2  4  1  0
  3  9  1  0
  3 10  1  0
  4  6  1  0
  4 12  2  0
  5  6  2  0
  5  8  1  0
  7 11  1  0
  7 12  1  0
  8  9  2  0
  9 12  1  0
 10 11  1  0
A    1
 N  
A    2
 C  
A    3
 O  
A    4
 C1 
A    5
 N1 
A    6
 C2 
A    7
 N2 
A    8
 C3 
A    9
 C4 
A   10
 C5 
A   11
 C6 
A   12
 C7 
M  END
>  <XChem_code>  (63) 
D68EV3CPROA-x0170

>  <Occupancy>  (63) 
[0.58, 0.58, 0.58, 0.58, 0.58, 0.58, 0.58, 0.58, 0.58, 0.58, 0.58, 0.58]

>  <TempFactor>  (63) 
[43.61, 43.36, 38.05, 42.36, 41.32, 42.97, 41.75, 38.88, 40.06, 38.75, 39.46, 41.11]

>  <RealCrystalName>  (63) 
D68EV3CPROA-x0170

>  <smiles>  (63) 
N#Cc1cncc2OCCNc12

>  <new_smiles>  (63) 
N#Cc1cncc2OCCNc12

>  <alternate_name>  (63) 
Z1201628402

>  <site_name>  (63) 
3

>  <pdb_entry>  (63) 
nan

>  <mol>  (63) 
<rdkit.Chem.rdchem.Mol object at 0x13a1a2f10>

>  <single_smiles>  (63) 
N#Cc1cncc2c1NCCO2

>  <base_name>  (63) 
D68EV3CPROA-x0170_0A

>  <lig_resn>  (63) 
LIG

>  <lig_resi>  (63) 
201

>  <lig_chain>  (63) 
A

>  <lig_segi>  (63) 


>  <lig_alt>  (63) 


>  <polymer_chain>  (63) 
B

$$$$
x1251_0B§1
     RDKit          3D

 12 12  0  0  0  0  0  0  0  0999 V2000
   -4.8170    0.0370  -50.0350 N   0  0  0  0  0  0  0  0  0  0  0  0
   -2.9470   -1.4470  -50.7130 C   0  0  0  0  0  0  0  0  0  0  0  0
   -3.9950   -0.4680  -47.9400 O   0  0  0  0  0  0  0  0  0  0  0  0
   -3.6110   -0.0850  -50.8580 C   0  0  0  0  0  0  0  0  0  0  0  0
   -6.0270    0.2870  -50.6210 N   0  0  0  0  0  0  0  0  0  0  0  0
   -6.8940    0.3430  -49.6800 C   0  0  0  0  0  0  0  0  0  0  0  0
   -6.3260    0.2040  -48.3050 C   0  0  0  0  0  0  0  0  0  0  0  0
   -4.9050   -0.1230  -48.6740 C   0  0  0  0  0  0  0  0  0  0  0  0
   -8.3720    0.5480  -49.8450 C   0  0  1  0  0  0  0  0  0  0  0  0
   -9.0160   -0.6020  -49.8550 F   0  0  0  0  0  0  0  0  0  0  0  0
   -8.8920    1.2610  -48.8860 F   0  0  0  0  0  0  0  0  0  0  0  0
   -8.6580    1.1790  -50.9420 F   0  0  0  0  0  0  0  0  0  0  0  0
  1  4  1  0
  1  5  1  0
  1  8  1  0
  2  4  1  0
  3  8  2  0
  5  6  2  0
  6  7  1  0
  6  9  1  0
  7  8  1  0
  9 10  1  6
  9 11  1  0
  9 12  1  0
A    1
 N  
A    2
 C  
A    3
 O  
A    4
 C1 
A    5
 N1 
A    6
 C2 
A    7
 C3 
A    8
 C4 
A    9
 C5 
A   10
 F  
A   11
 F1 
A   12
 F2 
M  END
>  <XChem_code>  (64) 
D68EV3CPROA-x1251

>  <Occupancy>  (64) 
[0.7, 0.7, 0.7, 0.7, 0.7, 0.7, 0.7, 0.7, 0.7, 0.7, 0.7, 0.7]

>  <TempFactor>  (64) 
[43.23, 46.67, 38.88, 44.96, 43.16, 39.21, 39.88, 39.57, 39.22, 42.08, 36.63, 39.5]

>  <RealCrystalName>  (64) 
D68EV3CPROA-x1251

>  <smiles>  (64) 
CCN1N=C(CC1=O)C(F)(F)F

>  <new_smiles>  (64) 
CCN1N=C(CC1=O)C(F)(F)F

>  <alternate_name>  (64) 
Z802540802

>  <site_name>  (64) 
2

>  <pdb_entry>  (64) 
nan

>  <mol>  (64) 
<rdkit.Chem.rdchem.Mol object at 0x13a26c7b0>

>  <single_smiles>  (64) 
CCN1N=C(C(F)(F)F)CC1=O

>  <base_name>  (64) 
D68EV3CPROA-x1251_0B

>  <lig_resn>  (64) 
LIG

>  <lig_resi>  (64) 
201

>  <lig_chain>  (64) 
B

>  <lig_segi>  (64) 


>  <lig_alt>  (64) 


>  <polymer_chain>  (64) 
B

$$$$
x1200_0B§1
     RDKit          3D

 16 16  0  0  0  0  0  0  0  0999 V2000
   -3.6510    3.2970  -51.3860 N   0  0  0  0  0  0  0  0  0  0  0  0
   -1.6980    4.3770  -52.3600 C   0  0  0  0  0  0  0  0  0  0  0  0
   -2.5620    4.4200  -49.2730 O   0  0  0  0  0  0  0  0  0  0  0  0
   -3.0450    4.6080  -51.6800 C   0  0  2  0  0  0  0  0  0  0  0  0
   -5.2210    1.7640  -50.7770 N   0  0  0  0  0  0  0  0  0  0  0  0
   -3.3100    6.3940  -53.3800 O   0  0  0  0  0  0  0  0  0  0  0  0
   -2.8500    5.3150  -50.3410 C   0  0  0  0  0  0  0  0  0  0  0  0
   -5.7880    3.9650  -50.9720 O   0  0  0  0  0  0  0  0  0  0  0  0
   -3.9690    5.4190  -52.5860 C   0  0  0  0  0  0  0  0  0  0  0  0
   -4.9380    3.0780  -51.0290 C   0  0  0  0  0  0  0  0  0  0  0  0
   -6.4540    1.2450  -50.3420 C   0  0  0  0  0  0  0  0  0  0  0  0
   -7.6370    1.4260  -51.0440 C   0  0  0  0  0  0  0  0  0  0  0  0
   -8.8230    0.9280  -50.5340 C   0  0  0  0  0  0  0  0  0  0  0  0
   -8.8350    0.2550  -49.3310 C   0  0  0  0  0  0  0  0  0  0  0  0
   -7.6650    0.0780  -48.6340 C   0  0  0  0  0  0  0  0  0  0  0  0
   -6.4720    0.5640  -49.1330 C   0  0  0  0  0  0  0  0  0  0  0  0
  1  4  1  0
  1 10  1  0
  4  2  1  6
  3  7  1  0
  4  7  1  0
  4  9  1  0
  5 10  1  0
  5 11  1  0
  6  9  1  0
  8 10  2  0
 11 12  2  0
 11 16  1  0
 12 13  1  0
 13 14  2  0
 14 15  1  0
 15 16  2  0
A    1
 N  
A    2
 C  
A    3
 O  
A    4
 C1 
A    5
 N1 
A    6
 O1 
A    7
 C2 
A    8
 O2 
A    9
 C3 
A   10
 C4 
A   11
 C5 
A   12
 C6 
A   13
 C7 
A   14
 C8 
A   15
 C9 
A   16
 C10
M  END
>  <XChem_code>  (65) 
D68EV3CPROA-x1200

>  <Occupancy>  (65) 
[0.66, 0.66, 0.66, 0.66, 0.66, 0.66, 0.66, 0.66, 0.66, 0.66, 0.66, 0.66, 0.66, 0.66, 0.66, 0.66]

>  <TempFactor>  (65) 
[66.33, 68.9, 64.01, 69.19, 59.78, 75.43, 67.44, 63.43, 72.71, 63.25, 53.01, 50.16, 48.49, 47.26, 48.01, 50.11]

>  <RealCrystalName>  (65) 
D68EV3CPROA-x1200

>  <smiles>  (65) 
CC(CO)(CO)NC(=O)Nc1ccccc1

>  <new_smiles>  (65) 
CC(CO)(CO)NC(=O)Nc1ccccc1

>  <alternate_name>  (65) 
Z57472297

>  <site_name>  (65) 
2

>  <pdb_entry>  (65) 
nan

>  <mol>  (65) 
<rdkit.Chem.rdchem.Mol object at 0x13a26c660>

>  <single_smiles>  (65) 
CC(CO)(CO)NC(=O)Nc1ccccc1

>  <base_name>  (65) 
D68EV3CPROA-x1200_0B

>  <lig_resn>  (65) 
LIG

>  <lig_resi>  (65) 
201

>  <lig_chain>  (65) 
B

>  <lig_segi>  (65) 


>  <lig_alt>  (65) 


>  <polymer_chain>  (65) 
B

$$$$
x1339_0A§1
     RDKit          3D

 13 13  0  0  0  0  0  0  0  0999 V2000
  -21.3440  -11.8000  -21.2770 N   0  0  0  0  0  0  0  0  0  0  0  0
  -19.0490  -11.8050  -20.3870 C   0  0  0  0  0  0  0  0  0  0  0  0
  -19.9620  -13.4920  -21.7920 O   0  0  0  0  0  0  0  0  0  0  0  0
  -20.1390  -12.4370  -21.2040 C   0  0  0  0  0  0  0  0  0  0  0  0
  -21.1300  -12.2520  -24.7150 O   0  0  0  0  0  0  0  0  0  0  0  0
  -22.0700  -11.7720  -22.5490 C   0  0  1  0  0  0  0  0  0  0  0  0
  -20.5730  -10.3480  -23.7020 O   0  0  0  0  0  0  0  0  0  0  0  0
  -23.1030  -10.6710  -22.3160 C   0  0  0  0  0  0  0  0  0  0  0  0
  -23.4450  -10.8300  -20.8300 C   0  0  0  0  0  0  0  0  0  0  0  0
  -22.1120  -11.1790  -20.1670 C   0  0  2  0  0  0  0  0  0  0  0  0
  -21.4090   -9.9650  -19.5730 C   0  0  0  0  0  0  0  0  0  0  0  0
  -21.2140  -11.5070  -23.7810 C   0  0  0  0  0  0  0  0  0  0  0  0
  -20.3910   -9.6310  -24.9510 C   0  0  0  0  0  0  0  0  0  0  0  0
  1  4  1  0
  1  6  1  0
  1 10  1  0
  2  4  1  0
  3  4  2  0
  5 12  2  0
  6  8  1  0
  6 12  1  6
  7 12  1  0
  7 13  1  0
  8  9  1  0
  9 10  1  0
 10 11  1  6
A    1
 N  
A    2
 C  
A    3
 O  
A    4
 C1 
A    5
 O1 
A    6
 C2 
A    7
 O2 
A    8
 C3 
A    9
 C4 
A   10
 C5 
A   11
 C6 
A   12
 C7 
A   13
 C8 
M  END
>  <XChem_code>  (66) 
D68EV3CPROA-x1339

>  <Occupancy>  (66) 
[0.82, 0.82, 0.82, 0.82, 0.82, 0.82, 0.82, 0.82, 0.82, 0.82, 0.82, 0.82, 0.82]

>  <TempFactor>  (66) 
[61.29, 59.89, 61.02, 61.27, 45.03, 57.85, 48.16, 62.1, 64.93, 66.09, 66.09, 49.66, 44.77]

>  <RealCrystalName>  (66) 
D68EV3CPROA-x1339

>  <smiles>  (66) 
CC(=O)N1[C@@H](CC[C@@H]1C)C(=O)OC

>  <new_smiles>  (66) 
CC(=O)N1[C@@H](CC[C@@H]1C)C(=O)OC

>  <alternate_name>  (66) 
POB0050

>  <site_name>  (66) 
5

>  <pdb_entry>  (66) 
nan

>  <mol>  (66) 
<rdkit.Chem.rdchem.Mol object at 0x13a26cc10>

>  <single_smiles>  (66) 
COC(=O)[C@@H]1CC[C@H](C)N1C(C)=O

>  <base_name>  (66) 
D68EV3CPROA-x1339_0A

>  <lig_resn>  (66) 
LIG

>  <lig_resi>  (66) 
201

>  <lig_chain>  (66) 
A

>  <lig_segi>  (66) 


>  <lig_alt>  (66) 


>  <polymer_chain>  (66) 
A

$$$$
x0105_0A§1
     RDKit          3D

 15 15  0  0  0  0  0  0  0  0999 V2000
  -24.9810  -11.6150  -19.7150 C   0  0  0  0  0  0  0  0  0  0  0  0
  -24.0790  -10.5320  -19.9430 O   0  0  0  0  0  0  0  0  0  0  0  0
  -22.9460  -10.7960  -20.6590 C   0  0  0  0  0  0  0  0  0  0  0  0
  -19.3970  -10.8230  -19.8590 O   0  0  0  0  0  0  0  0  0  0  0  0
  -22.9420  -11.2110  -21.9780 C   0  0  0  0  0  0  0  0  0  0  0  0
  -21.7410  -10.1640  -18.6730 O   0  0  0  0  0  0  0  0  0  0  0  0
  -21.7380  -11.5000  -22.6160 C   0  0  0  0  0  0  0  0  0  0  0  0
  -20.7650  -11.7980  -24.7630 O   0  0  0  0  0  0  0  0  0  0  0  0
  -20.5340  -11.3810  -21.9270 C   0  0  0  0  0  0  0  0  0  0  0  0
  -22.8560  -12.4920  -24.4300 O   0  0  0  0  0  0  0  0  0  0  0  0
  -20.5300  -10.9590  -20.6090 C   0  0  0  0  0  0  0  0  0  0  0  0
  -18.4980  -11.9320  -19.8100 C   0  0  0  0  0  0  0  0  0  0  0  0
  -21.7380  -10.6490  -19.9670 C   0  0  0  0  0  0  0  0  0  0  0  0
  -21.9950   -8.7660  -18.5430 C   0  0  0  0  0  0  0  0  0  0  0  0
  -21.7400  -11.9380  -24.0380 C   0  0  0  0  0  0  0  0  0  0  0  0
  1  2  1  0
  2  3  1  0
  3  5  2  0
  3 13  1  0
  4 11  1  0
  4 12  1  0
  5  7  1  0
  6 13  1  0
  6 14  1  0
  7  9  2  0
  7 15  1  0
  8 15  2  0
  9 11  1  0
 10 15  1  0
 11 13  2  0
A    1
 C  
A    2
 O  
A    3
 C1 
A    4
 O1 
A    5
 C2 
A    6
 O2 
A    7
 C3 
A    8
 O3 
A    9
 C4 
A   10
 O4 
A   11
 C5 
A   12
 C6 
A   13
 C7 
A   14
 C8 
A   15
 C9 
M  END
>  <XChem_code>  (67) 
D68EV3CPROA-x0105

>  <Occupancy>  (67) 
[0.78, 0.78, 0.78, 0.78, 0.78, 0.78, 0.78, 0.78, 0.78, 0.78, 0.78, 0.78, 0.78, 0.78, 0.78]

>  <TempFactor>  (67) 
[62.14, 64.33, 59.57, 48.43, 55.19, 56.29, 51.28, 41.65, 52.9, 47.4, 54.08, 49.83, 58.36, 55.73, 47.82]

>  <RealCrystalName>  (67) 
D68EV3CPROA-x0105

>  <smiles>  (67) 
COc1cc(cc(OC)c1OC)C(=O)O

>  <new_smiles>  (67) 
COc1cc(cc(OC)c1OC)C(=O)O

>  <alternate_name>  (67) 
Z104475702

>  <site_name>  (67) 
5

>  <pdb_entry>  (67) 
nan

>  <mol>  (67) 
<rdkit.Chem.rdchem.Mol object at 0x13a1a29d0>

>  <single_smiles>  (67) 
COc1cc(C(=O)O)cc(OC)c1OC

>  <base_name>  (67) 
D68EV3CPROA-x0105_0A

>  <lig_resn>  (67) 
LIG

>  <lig_resi>  (67) 
201

>  <lig_chain>  (67) 
A

>  <lig_segi>  (67) 


>  <lig_alt>  (67) 


>  <polymer_chain>  (67) 
A

$$$$
x1599_0B§1
     RDKit          3D

 16 17  0  0  0  0  0  0  0  0999 V2000
  -28.9330    9.1630  -39.5310 N   0  0  0  0  0  0  0  0  0  0  0  0
  -31.0500    8.9360  -35.1150 C   0  0  0  0  0  0  0  0  0  0  0  0
  -31.8090    8.1930  -34.3240 O   0  0  0  0  0  0  0  0  0  0  0  0
  -30.7500    8.3270  -36.4320 C   0  0  0  0  0  0  0  0  0  0  0  0
  -29.4000    8.1430  -41.5720 N   0  0  0  0  0  0  0  0  0  0  0  0
  -30.5930   10.0290  -34.8010 O   0  0  0  0  0  0  0  0  0  0  0  0
  -31.2840    7.0840  -36.7730 C   0  0  0  0  0  0  0  0  0  0  0  0
  -27.7430    9.8690  -41.3400 N   0  0  0  0  0  0  0  0  0  0  0  0
  -30.9990    6.5140  -37.9990 C   0  0  0  0  0  0  0  0  0  0  0  0
  -30.2030    7.1900  -38.9110 C   0  0  0  0  0  0  0  0  0  0  0  0
  -29.6950    8.4460  -38.5930 C   0  0  0  0  0  0  0  0  0  0  0  0
  -28.6560    9.0120  -40.8570 C   0  0  0  0  0  0  0  0  0  0  0  0
  -29.1900    8.1640  -42.8940 C   0  0  0  0  0  0  0  0  0  0  0  0
  -28.2680    8.9930  -43.5040 C   0  0  0  0  0  0  0  0  0  0  0  0
  -27.5540    9.8280  -42.6660 C   0  0  0  0  0  0  0  0  0  0  0  0
  -29.9310    8.9950  -37.3400 C   0  0  0  0  0  0  0  0  0  0  0  0
  1 11  1  0
  1 12  1  0
  2  3  2  0
  2  4  1  0
  2  6  1  0
  4  7  2  0
  4 16  1  0
  5 12  2  0
  5 13  1  0
  7  9  1  0
  8 12  1  0
  8 15  2  0
  9 10  2  0
 10 11  1  0
 11 16  2  0
 13 14  2  0
 14 15  1  0
A    1
 N  
A    2
 C  
A    3
 O  
A    4
 C1 
A    5
 N1 
A    6
 O1 
A    7
 C2 
A    8
 N2 
A    9
 C3 
A   10
 C4 
A   11
 C5 
A   12
 C6 
A   13
 C7 
A   14
 C8 
A   15
 C9 
A   16
 C10
M  END
>  <XChem_code>  (68) 
D68EV3CPROA-x1599

>  <Occupancy>  (68) 
[0.69, 0.69, 0.69, 0.69, 0.69, 0.69, 0.69, 0.69, 0.69, 0.69, 0.69, 0.69, 0.69, 0.69, 0.69, 0.69]

>  <TempFactor>  (68) 
[26.33, 28.7, 30.37, 28.37, 23.39, 26.2, 27.0, 21.59, 27.1, 26.54, 26.12, 24.31, 23.1, 24.59, 23.78, 25.74]

>  <RealCrystalName>  (68) 
D68EV3CPROA-x1599

>  <smiles>  (68) 
OC(=O)C=1C=CC=C(NC=2N=CC=CN2)C1

>  <new_smiles>  (68) 
OC(=O)C=1C=CC=C(NC=2N=CC=CN2)C1

>  <alternate_name>  (68) 
Z228589380

>  <site_name>  (68) 
4

>  <pdb_entry>  (68) 
nan

>  <mol>  (68) 
<rdkit.Chem.rdchem.Mol object at 0x13a26d9a0>

>  <single_smiles>  (68) 
O=C(O)c1cccc(Nc2ncccn2)c1

>  <base_name>  (68) 
D68EV3CPROA-x1599_0B

>  <lig_resn>  (68) 
LIG

>  <lig_resi>  (68) 
201

>  <lig_chain>  (68) 
B

>  <lig_segi>  (68) 


>  <lig_alt>  (68) 


>  <polymer_chain>  (68) 
B

$$$$
x1527_0A§1
     RDKit          3D

  7  7  0  0  0  0  0  0  0  0999 V2000
  -18.1760  -12.4040  -50.5660 N   0  0  0  0  0  0  0  0  0  0  0  0
  -19.3270  -12.8880  -50.8870 C   0  0  0  0  0  0  0  0  0  0  0  0
  -20.7090  -14.9270  -51.2440 C   0  0  0  0  0  0  0  0  0  0  0  0
  -19.4410  -14.2420  -50.9820 N   0  0  0  0  0  0  0  0  0  0  0  0
  -21.6740  -14.0220  -51.9670 C   0  0  0  0  0  0  0  0  0  0  0  0
  -20.4310  -12.1260  -51.0700 N   0  0  0  0  0  0  0  0  0  0  0  0
  -21.7520  -12.6680  -51.3540 C   0  0  0  0  0  0  0  0  0  0  0  0
  1  2  2  0
  2  4  1  0
  2  6  1  0
  3  4  1  0
  3  5  1  0
  5  7  1  0
  6  7  1  0
A    1
 N  
A    2
 C  
A    3
 C1 
A    4
 N1 
A    5
 C2 
A    6
 N2 
A    7
 C3 
M  END
>  <XChem_code>  (69) 
D68EV3CPROA-x1527

>  <Occupancy>  (69) 
[0.59, 0.59, 0.59, 0.59, 0.59, 0.59, 0.59]

>  <TempFactor>  (69) 
[27.32, 24.96, 25.84, 25.65, 26.06, 24.78, 25.03]

>  <RealCrystalName>  (69) 
D68EV3CPROA-x1527

>  <smiles>  (69) 
Cl.N=C1NCCCN1

>  <new_smiles>  (69) 
Cl.N=C1NCCCN1

>  <alternate_name>  (69) 
Z1954800348

>  <site_name>  (69) 
5

>  <pdb_entry>  (69) 
nan

>  <mol>  (69) 
<rdkit.Chem.rdchem.Mol object at 0x13a26d310>

>  <single_smiles>  (69) 
N=C1NCCCN1

>  <base_name>  (69) 
D68EV3CPROA-x1527_0A

>  <lig_resn>  (69) 
LIG

>  <lig_resi>  (69) 
201

>  <lig_chain>  (69) 
A

>  <lig_segi>  (69) 


>  <lig_alt>  (69) 


>  <polymer_chain>  (69) 
A

$$$$
x0789_0A§1
     RDKit          3D

 14 15  0  0  0  0  0  0  0  0999 V2000
   -5.0840   12.5720  -31.8370 N   0  0  0  0  0  0  0  0  0  0  0  0
   -2.2140   12.6440  -32.8890 C   0  0  0  0  0  0  0  0  0  0  0  0
   -3.2670   15.7120  -32.3610 O   0  0  0  0  0  0  0  0  0  0  0  0
   -3.0400   13.7050  -33.6190 C   0  0  2  0  0  0  0  0  0  0  0  0
   -6.3400   10.6340  -29.0490 N   0  0  0  0  0  0  0  0  0  0  0  0
   -4.5700   14.3130  -30.4410 O   0  0  0  0  0  0  0  0  0  0  0  0
   -2.1950   14.7940  -34.2650 C   0  0  0  0  0  0  0  0  0  0  0  0
   -6.8740    9.8470  -29.9140 N   0  0  0  0  0  0  0  0  0  0  0  0
   -2.0740   15.8090  -33.1560 C   0  0  0  0  0  0  0  0  0  0  0  0
   -4.0140   14.5500  -32.7700 C   0  0  1  0  0  0  0  0  0  0  0  0
   -4.5740   13.8060  -31.5620 C   0  0  0  0  0  0  0  0  0  0  0  0
   -5.6560   11.7000  -30.9130 C   0  0  0  0  0  0  0  0  0  0  0  0
   -5.6500   11.6820  -29.5590 C   0  0  0  0  0  0  0  0  0  0  0  0
   -6.5580   10.3550  -31.4830 S   0  0  0  0  0  0  0  0  0  0  0  0
  1 11  1  0
  1 12  1  0
  4  2  1  1
  3  9  1  0
  3 10  1  0
  4  7  1  0
  4 10  1  0
  5  8  2  0
  5 13  1  0
  6 11  2  0
  7  9  1  0
  8 14  1  0
 10 11  1  1
 12 13  2  0
 12 14  1  0
A    1
 N  
A    2
 C  
A    3
 O  
A    4
 C1 
A    5
 N1 
A    6
 O1 
A    7
 C2 
A    8
 N2 
A    9
 C3 
A   10
 C4 
A   11
 C5 
A   12
 C6 
A   13
 C7 
A   14
 S  
M  END
>  <XChem_code>  (70) 
D68EV3CPROA-x0789

>  <Occupancy>  (70) 
[0.7, 0.7, 0.7, 0.7, 0.7, 0.7, 0.7, 0.7, 0.7, 0.7, 0.7, 0.7, 0.7, 0.7]

>  <TempFactor>  (70) 
[56.59, 66.21, 67.77, 68.43, 44.39, 60.91, 69.25, 42.57, 69.8, 66.66, 61.67, 48.87, 42.82, 49.48]

>  <RealCrystalName>  (70) 
D68EV3CPROA-x0789

>  <smiles>  (70) 
CC1CCOC1C(=O)Nc2cnns2

>  <new_smiles>  (70) 
CC1CCOC1C(=O)Nc2cnns2

>  <alternate_name>  (70) 
Z1827602749

>  <site_name>  (70) 
1

>  <pdb_entry>  (70) 
nan

>  <mol>  (70) 
<rdkit.Chem.rdchem.Mol object at 0x13a1a36f0>

>  <single_smiles>  (70) 
CC1CCOC1C(=O)Nc1cnns1

>  <base_name>  (70) 
D68EV3CPROA-x0789_0A

>  <lig_resn>  (70) 
LIG

>  <lig_resi>  (70) 
201

>  <lig_chain>  (70) 
A

>  <lig_segi>  (70) 


>  <lig_alt>  (70) 


>  <polymer_chain>  (70) 
A

$$$$
x1315_0B§1
     RDKit          3D

 10 11  0  0  0  0  0  0  0  0999 V2000
  -28.0630    0.8940  -41.7670 N   0  0  0  0  0  0  0  0  0  0  0  0
  -27.5050   -1.4600  -42.3440 C   0  0  0  0  0  0  0  0  0  0  0  0
  -27.5350    0.0070  -42.5680 C   0  0  0  0  0  0  0  0  0  0  0  0
  -27.9070    2.1430  -42.3710 N   0  0  0  0  0  0  0  0  0  0  0  0
  -27.3020    1.9410  -43.5160 C   0  0  0  0  0  0  0  0  0  0  0  0
  -25.9890    2.3900  -45.6330 N   0  0  0  0  0  0  0  0  0  0  0  0
  -26.9910    2.8480  -44.6640 C   0  0  0  0  0  0  0  0  0  0  0  0
  -27.0210    0.6150  -43.6710 N   0  0  0  0  0  0  0  0  0  0  0  0
  -25.2530    1.1980  -45.1580 C   0  0  0  0  0  0  0  0  0  0  0  0
  -26.2200    0.0990  -44.7950 C   0  0  0  0  0  0  0  0  0  0  0  0
  1  3  2  0
  1  4  1  0
  2  3  1  0
  3  8  1  0
  4  5  2  0
  5  7  1  0
  5  8  1  0
  6  7  1  0
  6  9  1  0
  8 10  1  0
  9 10  1  0
A    1
 N  
A    2
 C  
A    3
 C1 
A    4
 N1 
A    5
 C2 
A    6
 N2 
A    7
 C3 
A    8
 N3 
A    9
 C4 
A   10
 C5 
M  END
>  <XChem_code>  (71) 
D68EV3CPROA-x1315

>  <Occupancy>  (71) 
[0.44, 0.44, 0.44, 0.44, 0.44, 0.44, 0.44, 0.44, 0.44, 0.44]

>  <TempFactor>  (71) 
[26.41, 26.09, 26.14, 25.63, 26.66, 27.61, 27.35, 26.47, 26.4, 27.65]

>  <RealCrystalName>  (71) 
D68EV3CPROA-x1315

>  <smiles>  (71) 
Cc1nnc2CNCCn12

>  <new_smiles>  (71) 
Cc1nnc2CNCCn12

>  <alternate_name>  (71) 
Z992916756

>  <site_name>  (71) 
4

>  <pdb_entry>  (71) 
nan

>  <mol>  (71) 
<rdkit.Chem.rdchem.Mol object at 0x13a26cba0>

>  <single_smiles>  (71) 
Cc1nnc2n1CCNC2

>  <base_name>  (71) 
D68EV3CPROA-x1315_0B

>  <lig_resn>  (71) 
LIG

>  <lig_resi>  (71) 
201

>  <lig_chain>  (71) 
A

>  <lig_segi>  (71) 


>  <lig_alt>  (71) 


>  <polymer_chain>  (71) 
A

$$$$
x1315_0B§2
     RDKit          3D

 10 11  0  0  0  0  0  0  0  0999 V2000
  -26.9980    2.6780  -43.8920 N   0  0  0  0  0  0  0  0  0  0  0  0
  -25.6470    1.0160  -45.1510 C   0  0  0  0  0  0  0  0  0  0  0  0
  -26.6290    1.4480  -44.1230 C   0  0  0  0  0  0  0  0  0  0  0  0
  -27.8630    2.6550  -42.7980 N   0  0  0  0  0  0  0  0  0  0  0  0
  -27.9740    1.4030  -42.4180 C   0  0  0  0  0  0  0  0  0  0  0  0
  -28.0900   -0.4730  -40.8680 N   0  0  0  0  0  0  0  0  0  0  0  0
  -28.6970    0.8000  -41.2610 C   0  0  0  0  0  0  0  0  0  0  0  0
  -27.2200    0.5970  -43.2370 N   0  0  0  0  0  0  0  0  0  0  0  0
  -28.0170   -1.3880  -42.0150 C   0  0  0  0  0  0  0  0  0  0  0  0
  -27.1110   -0.8680  -43.1050 C   0  0  0  0  0  0  0  0  0  0  0  0
  1  3  2  0
  1  4  1  0
  2  3  1  0
  3  8  1  0
  4  5  2  0
  5  7  1  0
  5  8  1  0
  6  7  1  0
  6  9  1  0
  8 10  1  0
  9 10  1  0
A    1
 N  
A    2
 C  
A    3
 C1 
A    4
 N1 
A    5
 C2 
A    6
 N2 
A    7
 C3 
A    8
 N3 
A    9
 C4 
A   10
 C5 
M  END
>  <XChem_code>  (72) 
D68EV3CPROA-x1315

>  <Occupancy>  (72) 
[0.64, 0.64, 0.64, 0.64, 0.64, 0.64, 0.64, 0.64, 0.64, 0.64]

>  <TempFactor>  (72) 
[36.85, 39.49, 38.25, 39.99, 38.82, 40.56, 40.77, 38.82, 41.45, 39.55]

>  <RealCrystalName>  (72) 
D68EV3CPROA-x1315

>  <smiles>  (72) 
Cc1nnc2CNCCn12

>  <new_smiles>  (72) 
Cc1nnc2CNCCn12

>  <alternate_name>  (72) 
Z992916756

>  <site_name>  (72) 
4

>  <pdb_entry>  (72) 
nan

>  <mol>  (72) 
<rdkit.Chem.rdchem.Mol object at 0x13a26cba0>

>  <single_smiles>  (72) 
Cc1nnc2n1CCNC2

>  <base_name>  (72) 
D68EV3CPROA-x1315_0B

>  <lig_resn>  (72) 
LIG

>  <lig_resi>  (72) 
201

>  <lig_chain>  (72) 
B

>  <lig_segi>  (72) 


>  <lig_alt>  (72) 


>  <polymer_chain>  (72) 
B

$$$$
x0174_0A§1
     RDKit          3D

 11 11  0  0  0  0  0  0  0  0999 V2000
  -20.8090  -10.8320  -23.1750 N   0  0  0  0  0  0  0  0  0  0  0  0
  -20.4680   -9.7600  -24.1110 C   0  0  0  0  0  0  0  0  0  0  0  0
  -21.0970  -12.2410  -24.8650 O   0  0  0  0  0  0  0  0  0  0  0  0
  -21.0680  -12.0690  -23.6410 C   0  0  0  0  0  0  0  0  0  0  0  0
  -19.5790  -10.3610  -19.6940 N   0  0  0  0  0  0  0  0  0  0  0  0
  -21.2520  -13.1650  -22.6230 C   0  0  0  0  0  0  0  0  0  0  0  0
  -20.8080  -10.5480  -21.7620 C   0  0  0  0  0  0  0  0  0  0  0  0
  -21.9570  -10.0730  -21.1380 C   0  0  0  0  0  0  0  0  0  0  0  0
  -21.9000   -9.7350  -19.7930 C   0  0  0  0  0  0  0  0  0  0  0  0
  -20.6940   -9.8840  -19.1200 C   0  0  0  0  0  0  0  0  0  0  0  0
  -19.6500  -10.6920  -20.9920 C   0  0  0  0  0  0  0  0  0  0  0  0
  1  2  1  0
  1  4  1  0
  1  7  1  0
  3  4  2  0
  4  6  1  0
  5 10  2  0
  5 11  1  0
  7  8  1  0
  7 11  2  0
  8  9  2  0
  9 10  1  0
A    1
 N  
A    2
 C  
A    3
 O  
A    4
 C1 
A    5
 N1 
A    6
 C2 
A    7
 C3 
A    8
 C4 
A    9
 C5 
A   10
 C6 
A   11
 C7 
M  END
>  <XChem_code>  (73) 
D68EV3CPROA-x0174

>  <Occupancy>  (73) 
[0.8, 0.8, 0.8, 0.8, 0.8, 0.8, 0.8, 0.8, 0.8, 0.8, 0.8]

>  <TempFactor>  (73) 
[38.86, 40.1, 32.76, 39.32, 41.79, 38.01, 42.64, 46.0, 45.61, 44.28, 41.1]

>  <RealCrystalName>  (73) 
D68EV3CPROA-x0174

>  <smiles>  (73) 
CN(C(=O)C)c1cccnc1

>  <new_smiles>  (73) 
CN(C(=O)C)c1cccnc1

>  <alternate_name>  (73) 
Z1203252645

>  <site_name>  (73) 
5

>  <pdb_entry>  (73) 
nan

>  <mol>  (73) 
<rdkit.Chem.rdchem.Mol object at 0x13a1a2f80>

>  <single_smiles>  (73) 
CC(=O)N(C)c1cccnc1

>  <base_name>  (73) 
D68EV3CPROA-x0174_0A

>  <lig_resn>  (73) 
LIG

>  <lig_resi>  (73) 
201

>  <lig_chain>  (73) 
A

>  <lig_segi>  (73) 


>  <lig_alt>  (73) 


>  <polymer_chain>  (73) 
A

$$$$
x1285_1B§1
     RDKit          3D

 13 14  0  0  0  0  0  0  0  0999 V2000
  -10.6520   19.6760  -30.1380 N   0  0  0  0  0  0  0  0  0  0  0  0
   -9.9820   17.1800  -31.2410 C   0  0  1  0  0  0  0  0  0  0  0  0
  -10.9250   16.5330  -30.3940 O   0  0  0  0  0  0  0  0  0  0  0  0
  -10.6930   18.1730  -32.1210 C   0  0  0  0  0  0  0  0  0  0  0  0
  -11.4430   19.1980  -31.2830 C   0  0  0  0  0  0  0  0  0  0  0  0
  -10.8780   21.1100  -29.9290 C   0  0  0  0  0  0  0  0  0  0  0  0
  -11.3020   21.5050  -28.5370 C   0  0  0  0  0  0  0  0  0  0  0  0
  -11.2000   22.8270  -27.9980 C   0  0  0  0  0  0  0  0  0  0  0  0
  -11.6850   22.9370  -26.7200 C   0  0  0  0  0  0  0  0  0  0  0  0
  -11.8630   20.6350  -27.6410 C   0  0  0  0  0  0  0  0  0  0  0  0
   -9.2200   19.3860  -30.3540 C   0  0  0  0  0  0  0  0  0  0  0  0
   -8.9480   17.8850  -30.4010 C   0  0  0  0  0  0  0  0  0  0  0  0
  -12.2700   21.3910  -26.1670 S   0  0  0  0  0  0  0  0  0  0  0  0
  1  5  1  0
  1  6  1  0
  1 11  1  0
  2  3  1  1
  2  4  1  0
  2 12  1  0
  4  5  1  0
  6  7  1  0
  7  8  1  0
  7 10  2  0
  8  9  2  0
  9 13  1  0
 10 13  1  0
 11 12  1  0
A    1
 N  
A    2
 C  
A    3
 O  
A    4
 C1 
A    5
 C2 
A    6
 C3 
A    7
 C4 
A    8
 C5 
A    9
 C6 
A   10
 C7 
A   11
 C8 
A   12
 C9 
A   13
 S  
M  END
>  <XChem_code>  (74) 
D68EV3CPROA-x1285

>  <Occupancy>  (74) 
[0.98, 0.98, 0.98, 0.98, 0.98, 0.98, 0.98, 0.98, 0.98, 0.98, 0.98, 0.98, 0.98]

>  <TempFactor>  (74) 
[62.92, 53.85, 55.84, 55.42, 59.07, 67.89, 75.42, 75.35, 79.39, 78.53, 58.69, 54.38, 86.51]

>  <RealCrystalName>  (74) 
D68EV3CPROA-x1285

>  <smiles>  (74) 
OC1CCN(Cc2ccsc2)CC1

>  <new_smiles>  (74) 
OC1CCN(Cc2ccsc2)CC1

>  <alternate_name>  (74) 
Z905434478

>  <site_name>  (74) 
2

>  <pdb_entry>  (74) 
nan

>  <mol>  (74) 
<rdkit.Chem.rdchem.Mol object at 0x13a26c9e0>

>  <single_smiles>  (74) 
OC1CCN(Cc2ccsc2)CC1

>  <base_name>  (74) 
D68EV3CPROA-x1285_1B

>  <lig_resn>  (74) 
LIG

>  <lig_resi>  (74) 
301

>  <lig_chain>  (74) 
B

>  <lig_segi>  (74) 


>  <lig_alt>  (74) 


>  <polymer_chain>  (74) 
B

$$$$
x1305_0B§1
     RDKit          3D

 13 14  0  0  0  0  0  0  0  0999 V2000
  -13.2820   14.1010  -38.5020 N   0  0  0  0  0  0  0  0  0  0  0  0
  -14.6500   13.0400  -40.8950 C   0  0  0  0  0  0  0  0  0  0  0  0
  -13.3650   16.1330  -39.3370 O   0  0  0  0  0  0  0  0  0  0  0  0
  -14.7440   14.4950  -40.4990 C   0  0  1  0  0  0  0  0  0  0  0  0
  -12.4120   16.1650  -38.2940 N   0  0  0  0  0  0  0  0  0  0  0  0
  -16.1590   14.8330  -40.1060 C   0  0  0  0  0  0  0  0  0  0  0  0
  -10.4200   13.5300  -37.3880 N   0  0  0  0  0  0  0  0  0  0  0  0
  -13.8120   14.8680  -39.3940 C   0  0  0  0  0  0  0  0  0  0  0  0
  -12.4080   14.9380  -37.8620 C   0  0  0  0  0  0  0  0  0  0  0  0
  -11.4670   14.3920  -36.8230 C   0  0  2  0  0  0  0  0  0  0  0  0
  -10.6800   15.4890  -36.0930 C   0  0  0  0  0  0  0  0  0  0  0  0
   -9.4290   15.6740  -36.9460 C   0  0  0  0  0  0  0  0  0  0  0  0
   -9.1590   14.2890  -37.5220 C   0  0  0  0  0  0  0  0  0  0  0  0
  1  8  2  0
  1  9  1  0
  4  2  1  1
  3  5  1  0
  3  8  1  0
  4  6  1  0
  4  8  1  0
  5  9  2  0
  7 10  1  0
  7 13  1  0
 10  9  1  6
 10 11  1  0
 11 12  1  0
 12 13  1  0
A    1
 N  
A    2
 C  
A    3
 O  
A    4
 C1 
A    5
 N1 
A    6
 C2 
A    7
 N2 
A    8
 C3 
A    9
 C4 
A   10
 C5 
A   11
 C6 
A   12
 C7 
A   13
 C8 
M  END
>  <XChem_code>  (75) 
D68EV3CPROA-x1305

>  <Occupancy>  (75) 
[0.4, 0.4, 0.4, 0.4, 0.4, 0.4, 0.4, 0.4, 0.4, 0.4, 0.4, 0.4, 0.4]

>  <TempFactor>  (75) 
[35.95, 35.27, 35.89, 35.43, 37.1, 34.72, 40.22, 36.12, 37.53, 39.88, 41.17, 41.72, 42.18]

>  <RealCrystalName>  (75) 
D68EV3CPROA-x1305

>  <smiles>  (75) 
CC(C)c1nc(no1)C2CCCN2

>  <new_smiles>  (75) 
CC(C)c1nc(no1)C2CCCN2

>  <alternate_name>  (75) 
Z979742720

>  <site_name>  (75) 
1

>  <pdb_entry>  (75) 
nan

>  <mol>  (75) 
<rdkit.Chem.rdchem.Mol object at 0x13a26cac0>

>  <single_smiles>  (75) 
CC(C)c1nc(C2CCCN2)no1

>  <base_name>  (75) 
D68EV3CPROA-x1305_0B

>  <lig_resn>  (75) 
LIG

>  <lig_resi>  (75) 
201

>  <lig_chain>  (75) 
B

>  <lig_segi>  (75) 


>  <lig_alt>  (75) 


>  <polymer_chain>  (75) 
B

$$$$
x0957_1B§1
     RDKit          3D

 12 12  0  0  0  0  0  0  0  0999 V2000
   -0.3520    4.3450  -26.1550 N   0  0  0  0  0  0  0  0  0  0  0  0
   -1.7200    4.0460  -26.4980 C   0  0  0  0  0  0  0  0  0  0  0  0
   -0.0380    4.9120  -21.7640 O   0  0  0  0  0  0  0  0  0  0  0  0
    0.4190    3.5140  -25.4000 C   0  0  0  0  0  0  0  0  0  0  0  0
   -0.1610    6.2160  -23.8440 O   0  0  0  0  0  0  0  0  0  0  0  0
    1.1780    2.5080  -25.9960 C   0  0  0  0  0  0  0  0  0  0  0  0
    2.0420    1.7390  -25.2340 C   0  0  0  0  0  0  0  0  0  0  0  0
    2.1480    1.9460  -23.8780 C   0  0  0  0  0  0  0  0  0  0  0  0
    1.3840    2.9170  -23.2510 C   0  0  0  0  0  0  0  0  0  0  0  0
    0.5270    3.7050  -24.0090 C   0  0  0  0  0  0  0  0  0  0  0  0
   -2.0640    4.5400  -23.3310 C   0  0  0  0  0  0  0  0  0  0  0  0
   -0.3760    4.9750  -23.1560 S   0  0  1  0  0  0  0  0  0  0  0  0
  1  2  1  0
  1  4  1  0
  3 12  2  0
  4  6  2  0
  4 10  1  0
  5 12  2  0
  6  7  1  0
  7  8  2  0
  8  9  1  0
  9 10  2  0
 10 12  1  0
 12 11  1  1
A    1
 N  
A    2
 C  
A    3
 O  
A    4
 C1 
A    5
 O1 
A    6
 C2 
A    7
 C3 
A    8
 C4 
A    9
 C5 
A   10
 C6 
A   11
 C7 
A   12
 S  
M  END
>  <XChem_code>  (76) 
D68EV3CPROA-x0957

>  <Occupancy>  (76) 
[0.51, 0.51, 0.51, 0.51, 0.51, 0.51, 0.51, 0.51, 0.51, 0.51, 0.51, 0.51]

>  <TempFactor>  (76) 
[72.04, 70.39, 79.79, 74.12, 84.07, 72.48, 72.26, 74.06, 74.3, 77.29, 77.97, 81.75]

>  <RealCrystalName>  (76) 
D68EV3CPROA-x0957

>  <smiles>  (76) 
CNc1ccccc1S(=O)(=O)C

>  <new_smiles>  (76) 
CNc1ccccc1S(=O)(=O)C

>  <alternate_name>  (76) 
Z285782452

>  <site_name>  (76) 
2

>  <pdb_entry>  (76) 
nan

>  <mol>  (76) 
<rdkit.Chem.rdchem.Mol object at 0x13a1a3ca0>

>  <single_smiles>  (76) 
CNc1ccccc1S(C)(=O)=O

>  <base_name>  (76) 
D68EV3CPROA-x0957_1B

>  <lig_resn>  (76) 
LIG

>  <lig_resi>  (76) 
201

>  <lig_chain>  (76) 
A

>  <lig_segi>  (76) 


>  <lig_alt>  (76) 


>  <polymer_chain>  (76) 
A

$$$$
x0957_1B§2
     RDKit          3D

 12 12  0  0  0  0  0  0  0  0999 V2000
   -5.4220    2.3750  -51.4220 N   0  0  0  0  0  0  0  0  0  0  0  0
   -4.9990    3.7500  -51.2740 C   0  0  0  0  0  0  0  0  0  0  0  0
   -3.8180    1.6870  -49.0300 O   0  0  0  0  0  0  0  0  0  0  0  0
   -6.4560    1.8220  -50.7040 C   0  0  0  0  0  0  0  0  0  0  0  0
   -4.6290   -0.4210  -48.0620 O   0  0  0  0  0  0  0  0  0  0  0  0
   -7.7830    2.1290  -51.0030 C   0  0  0  0  0  0  0  0  0  0  0  0
   -8.8190    1.5030  -50.3260 C   0  0  0  0  0  0  0  0  0  0  0  0
   -8.5520    0.5750  -49.3420 C   0  0  0  0  0  0  0  0  0  0  0  0
   -7.2470    0.2580  -49.0160 C   0  0  0  0  0  0  0  0  0  0  0  0
   -6.2010    0.8780  -49.6900 C   0  0  0  0  0  0  0  0  0  0  0  0
   -3.8820   -0.4170  -50.5450 C   0  0  0  0  0  0  0  0  0  0  0  0
   -4.5530    0.4640  -49.1870 S   0  0  1  0  0  0  0  0  0  0  0  0
  1  2  1  0
  1  4  1  0
  3 12  2  0
  4  6  2  0
  4 10  1  0
  5 12  2  0
  6  7  1  0
  7  8  2  0
  8  9  1  0
  9 10  2  0
 10 12  1  0
 12 11  1  6
A    1
 N  
A    2
 C  
A    3
 O  
A    4
 C1 
A    5
 O1 
A    6
 C2 
A    7
 C3 
A    8
 C4 
A    9
 C5 
A   10
 C6 
A   11
 C7 
A   12
 S  
M  END
>  <XChem_code>  (77) 
D68EV3CPROA-x0957

>  <Occupancy>  (77) 
[0.7, 0.7, 0.7, 0.7, 0.7, 0.7, 0.7, 0.7, 0.7, 0.7, 0.7, 0.7]

>  <TempFactor>  (77) 
[45.09, 47.61, 45.08, 43.37, 40.28, 39.38, 39.51, 36.23, 40.27, 41.26, 41.32, 43.18]

>  <RealCrystalName>  (77) 
D68EV3CPROA-x0957

>  <smiles>  (77) 
CNc1ccccc1S(=O)(=O)C

>  <new_smiles>  (77) 
CNc1ccccc1S(=O)(=O)C

>  <alternate_name>  (77) 
Z285782452

>  <site_name>  (77) 
2

>  <pdb_entry>  (77) 
nan

>  <mol>  (77) 
<rdkit.Chem.rdchem.Mol object at 0x13a1a3ca0>

>  <single_smiles>  (77) 
CNc1ccccc1S(C)(=O)=O

>  <base_name>  (77) 
D68EV3CPROA-x0957_1B

>  <lig_resn>  (77) 
LIG

>  <lig_resi>  (77) 
201

>  <lig_chain>  (77) 
B

>  <lig_segi>  (77) 


>  <lig_alt>  (77) 


>  <polymer_chain>  (77) 
B

$$$$
x1686_0A§1
     RDKit          3D

  6  6  0  0  0  0  0  0  0  0999 V2000
   -9.3050    0.5190  -50.0970 N   0  0  0  0  0  0  0  0  0  0  0  0
   -7.2170    0.6990  -49.5700 C   0  0  0  0  0  0  0  0  0  0  0  0
   -8.3110   -0.0830  -49.3940 C   0  0  0  0  0  0  0  0  0  0  0  0
   -7.5110    1.7820  -50.3480 N   0  0  0  0  0  0  0  0  0  0  0  0
   -8.7920    1.6230  -50.6430 C   0  0  0  0  0  0  0  0  0  0  0  0
   -5.3130    0.3570  -48.8360 I   0  0  0  0  0  0  0  0  0  0  0  0
  1  3  1  0
  1  5  1  0
  2  3  2  0
  2  4  1  0
  2  6  1  0
  4  5  2  0
A    1
 N  
A    2
 C  
A    3
 C1 
A    4
 N1 
A    5
 C2 
A    6
 I  
M  END
>  <XChem_code>  (78) 
D68EV3CPROA-x1686

>  <Occupancy>  (78) 
[0.32, 0.32, 0.32, 0.32, 0.32, 0.32]

>  <TempFactor>  (78) 
[31.28, 35.4, 33.07, 34.43, 32.39, 41.9]

>  <RealCrystalName>  (78) 
D68EV3CPROA-x1686

>  <smiles>  (78) 
IC1=CNC=N1

>  <new_smiles>  (78) 
IC1=CNC=N1

>  <alternate_name>  (78) 
Z1201621250

>  <site_name>  (78) 
3

>  <pdb_entry>  (78) 
nan

>  <mol>  (78) 
<rdkit.Chem.rdchem.Mol object at 0x13a26dcb0>

>  <single_smiles>  (78) 
Ic1c[nH]cn1

>  <base_name>  (78) 
D68EV3CPROA-x1686_0A

>  <lig_resn>  (78) 
LIG

>  <lig_resi>  (78) 
201

>  <lig_chain>  (78) 
B

>  <lig_segi>  (78) 


>  <lig_alt>  (78) 


>  <polymer_chain>  (78) 
B

$$$$
x0232_1B§1
     RDKit          3D

 13 14  0  0  0  0  0  0  0  0999 V2000
  -28.9430    5.1370  -43.6670 N   0  0  0  0  0  0  0  0  0  0  0  0
  -27.9720    2.8620  -42.5090 C   0  0  0  0  0  0  0  0  0  0  0  0
  -27.1950    5.2630  -41.9620 O   0  0  0  0  0  0  0  0  0  0  0  0
  -28.6530    1.8670  -41.8130 C   0  0  0  0  0  0  0  0  0  0  0  0
  -26.8540   -1.0940  -43.1930 N   0  0  0  0  0  0  0  0  0  0  0  0
  -29.4900    4.6060  -41.3390 O   0  0  0  0  0  0  0  0  0  0  0  0
  -25.3950    0.5280  -44.5860 S   0  0  0  0  0  0  0  0  0  0  0  0
  -28.3200    0.5350  -42.0120 C   0  0  0  0  0  0  0  0  0  0  0  0
  -27.3000    0.1970  -42.9010 C   0  0  0  0  0  0  0  0  0  0  0  0
  -25.8830   -1.0430  -44.0380 C   0  0  0  0  0  0  0  0  0  0  0  0
  -26.6240    1.2180  -43.5770 C   0  0  0  0  0  0  0  0  0  0  0  0
  -26.9510    2.5530  -43.3950 C   0  0  0  0  0  0  0  0  0  0  0  0
  -28.4030    4.5580  -42.2720 S   0  0  1  0  0  0  0  0  0  0  0  0
 13  1  1  6
  2  4  2  0
  2 12  1  0
  2 13  1  0
  3 13  2  0
  4  8  1  0
  5  9  1  0
  5 10  2  0
  6 13  2  0
  7 10  1  0
  7 11  1  0
  8  9  2  0
  9 11  1  0
 11 12  2  0
A    1
 N  
A    2
 C  
A    3
 O  
A    4
 C1 
A    5
 N1 
A    6
 O1 
A    7
 S1 
A    8
 C2 
A    9
 C3 
A   10
 C4 
A   11
 C5 
A   12
 C6 
A   13
 S  
M  END
>  <XChem_code>  (79) 
D68EV3CPROA-x0232

>  <Occupancy>  (79) 
[0.66, 0.66, 0.66, 0.66, 0.66, 0.66, 0.66, 0.66, 0.66, 0.66, 0.66, 0.66, 0.66]

>  <TempFactor>  (79) 
[60.8, 58.09, 60.48, 59.46, 56.24, 55.39, 51.37, 58.49, 56.62, 54.25, 55.45, 56.25, 62.86]

>  <RealCrystalName>  (79) 
D68EV3CPROA-x0232

>  <smiles>  (79) 
NS(=O)(=O)c1ccc2ncsc2c1

>  <new_smiles>  (79) 
NS(=O)(=O)c1ccc2ncsc2c1

>  <alternate_name>  (79) 
Z1269184613

>  <site_name>  (79) 
1

>  <pdb_entry>  (79) 
nan

>  <mol>  (79) 
<rdkit.Chem.rdchem.Mol object at 0x13a1a3220>

>  <single_smiles>  (79) 
NS(=O)(=O)c1ccc2ncsc2c1

>  <base_name>  (79) 
D68EV3CPROA-x0232_1B

>  <lig_resn>  (79) 
LIG

>  <lig_resi>  (79) 
202

>  <lig_chain>  (79) 
B

>  <lig_segi>  (79) 


>  <lig_alt>  (79) 


>  <polymer_chain>  (79) 
B

$$$$
x0708_0B§1
     RDKit          3D

 14 15  0  0  0  0  0  0  0  0999 V2000
  -12.1310   -1.0990  -14.1250 N   0  0  0  0  0  0  0  0  0  0  0  0
  -13.5000   -4.3590  -15.5160 C   0  0  0  0  0  0  0  0  0  0  0  0
  -11.3790   -3.3530  -15.3750 O   0  0  0  0  0  0  0  0  0  0  0  0
  -12.6380   -3.4120  -14.7160 C   0  0  1  0  0  0  0  0  0  0  0  0
  -11.3610    1.1040  -13.9430 N   0  0  0  0  0  0  0  0  0  0  0  0
  -10.3640   -2.6890  -14.5990 C   0  0  0  0  0  0  0  0  0  0  0  0
  -12.0380    2.2710  -15.8330 N   0  0  0  0  0  0  0  0  0  0  0  0
  -10.9740   -1.7920  -13.5520 C   0  0  0  0  0  0  0  0  0  0  0  0
  -13.2020   -1.9970  -14.6060 C   0  0  1  0  0  0  0  0  0  0  0  0
  -14.4310   -1.9530  -13.7130 C   0  0  0  0  0  0  0  0  0  0  0  0
  -12.0160    0.1600  -14.5820 C   0  0  0  0  0  0  0  0  0  0  0  0
  -11.4060    2.2610  -14.6820 C   0  0  0  0  0  0  0  0  0  0  0  0
  -10.7730    3.5170  -14.1990 C   0  0  0  0  0  0  0  0  0  0  0  0
  -12.6720    0.7440  -16.0850 S   0  0  0  0  0  0  0  0  0  0  0  0
  1  8  1  0
  1  9  1  0
  1 11  1  0
  4  2  1  6
  3  4  1  0
  3  6  1  0
  4  9  1  0
  5 11  2  0
  5 12  1  0
  6  8  1  0
  7 14  1  0
  7 12  2  0
  9 10  1  1
 11 14  1  0
 12 13  1  0
A    1
 N  
A    2
 C  
A    3
 O  
A    4
 C1 
A    5
 N1 
A    6
 C2 
A    7
 N2 
A    8
 C3 
A    9
 C4 
A   10
 C5 
A   11
 C6 
A   12
 C7 
A   13
 C8 
A   14
 S  
M  END
>  <XChem_code>  (80) 
D68EV3CPROA-x0708

>  <Occupancy>  (80) 
[0.62, 0.62, 0.62, 0.62, 0.62, 0.62, 0.62, 0.62, 0.62, 0.62, 0.62, 0.62, 0.62, 0.62]

>  <TempFactor>  (80) 
[72.85, 71.6, 74.64, 73.37, 70.74, 74.81, 69.69, 72.63, 73.18, 73.2, 71.59, 69.67, 68.33, 68.95]

>  <RealCrystalName>  (80) 
D68EV3CPROA-x0708

>  <smiles>  (80) 
CC1OCCN(C1C)c2nc(C)ns2

>  <new_smiles>  (80) 
CC1OCCN(C1C)c2nc(C)ns2

>  <alternate_name>  (80) 
Z1439422127

>  <site_name>  (80) 
3

>  <pdb_entry>  (80) 
nan

>  <mol>  (80) 
<rdkit.Chem.rdchem.Mol object at 0x13a1a34c0>

>  <single_smiles>  (80) 
Cc1nsc(N2CCOC(C)C2C)n1

>  <base_name>  (80) 
D68EV3CPROA-x0708_0B

>  <lig_resn>  (80) 
LIG

>  <lig_resi>  (80) 
201

>  <lig_chain>  (80) 
B

>  <lig_segi>  (80) 


>  <lig_alt>  (80) 


>  <polymer_chain>  (80) 
B

$$$$
x0771_0A§1
     RDKit          3D

 12 13  0  0  0  0  0  0  0  0999 V2000
   -5.6790   11.9310  -29.3990 N   0  0  0  0  0  0  0  0  0  0  0  0
   -6.3840   10.8960  -29.8420 C   0  0  0  0  0  0  0  0  0  0  0  0
   -6.9430   10.0880  -29.0820 O   0  0  0  0  0  0  0  0  0  0  0  0
   -6.5020   10.7170  -31.3270 C   0  0  0  0  0  0  0  0  0  0  0  0
   -6.7520   10.0160  -35.4110 N   0  0  0  0  0  0  0  0  0  0  0  0
   -6.5570   11.8360  -32.1720 C   0  0  0  0  0  0  0  0  0  0  0  0
   -6.6430   11.6880  -33.5490 C   0  0  0  0  0  0  0  0  0  0  0  0
   -6.6470   10.3990  -34.0790 C   0  0  0  0  0  0  0  0  0  0  0  0
   -6.3200    8.6230  -35.5550 C   0  0  0  0  0  0  0  0  0  0  0  0
   -6.4470    8.0560  -34.1300 C   0  0  0  0  0  0  0  0  0  0  0  0
   -6.5640    9.2800  -33.2630 C   0  0  0  0  0  0  0  0  0  0  0  0
   -6.5210    9.4400  -31.8850 C   0  0  0  0  0  0  0  0  0  0  0  0
  1  2  1  0
  2  3  2  0
  2  4  1  0
  4  6  2  0
  4 12  1  0
  5  8  1  0
  5  9  1  0
  6  7  1  0
  7  8  2  0
  8 11  1  0
  9 10  1  0
 10 11  1  0
 11 12  2  0
A    1
 N  
A    2
 C  
A    3
 O  
A    4
 C1 
A    5
 N1 
A    6
 C2 
A    7
 C3 
A    8
 C4 
A    9
 C5 
A   10
 C6 
A   11
 C7 
A   12
 C8 
M  END
>  <XChem_code>  (81) 
D68EV3CPROA-x0771

>  <Occupancy>  (81) 
[0.64, 0.64, 0.64, 0.64, 0.64, 0.64, 0.64, 0.64, 0.64, 0.64, 0.64, 0.64]

>  <TempFactor>  (81) 
[49.02, 50.98, 46.17, 54.1, 60.3, 56.33, 58.38, 60.28, 61.4, 60.15, 59.84, 57.61]

>  <RealCrystalName>  (81) 
D68EV3CPROA-x0771

>  <smiles>  (81) 
Cl.NC(=O)c1ccc2NCCc2c1

>  <new_smiles>  (81) 
Cl.NC(=O)c1ccc2NCCc2c1

>  <alternate_name>  (81) 
Z1696091761

>  <site_name>  (81) 
1

>  <pdb_entry>  (81) 
nan

>  <mol>  (81) 
<rdkit.Chem.rdchem.Mol object at 0x13a1a3610>

>  <single_smiles>  (81) 
NC(=O)c1ccc2c(c1)CCN2

>  <base_name>  (81) 
D68EV3CPROA-x0771_0A

>  <lig_resn>  (81) 
LIG

>  <lig_resi>  (81) 
301

>  <lig_chain>  (81) 
A

>  <lig_segi>  (81) 


>  <lig_alt>  (81) 


>  <polymer_chain>  (81) 
A

$$$$
x0771_0A§2
     RDKit          3D

 12 13  0  0  0  0  0  0  0  0999 V2000
   -2.6830    5.4030  -25.0080 N   0  0  0  0  0  0  0  0  0  0  0  0
   -1.7550    5.7130  -24.1080 C   0  0  0  0  0  0  0  0  0  0  0  0
   -1.7930    6.7610  -23.4370 O   0  0  0  0  0  0  0  0  0  0  0  0
   -0.6140    4.7500  -23.9150 C   0  0  0  0  0  0  0  0  0  0  0  0
    2.6400    2.1790  -23.7060 N   0  0  0  0  0  0  0  0  0  0  0  0
    0.1500    4.7670  -22.7340 C   0  0  0  0  0  0  0  0  0  0  0  0
    1.2330    3.9130  -22.5710 C   0  0  0  0  0  0  0  0  0  0  0  0
    1.5550    3.0420  -23.6100 C   0  0  0  0  0  0  0  0  0  0  0  0
    2.7380    1.6080  -25.0490 C   0  0  0  0  0  0  0  0  0  0  0  0
    1.3730    1.9370  -25.6830 C   0  0  0  0  0  0  0  0  0  0  0  0
    0.8020    2.9910  -24.7740 C   0  0  0  0  0  0  0  0  0  0  0  0
   -0.2840    3.8470  -24.9270 C   0  0  0  0  0  0  0  0  0  0  0  0
  1  2  1  0
  2  3  2  0
  2  4  1  0
  4  6  2  0
  4 12  1  0
  5  8  1  0
  5  9  1  0
  6  7  1  0
  7  8  2  0
  8 11  1  0
  9 10  1  0
 10 11  1  0
 11 12  2  0
A    1
 N  
A    2
 C  
A    3
 O  
A    4
 C1 
A    5
 N1 
A    6
 C2 
A    7
 C3 
A    8
 C4 
A    9
 C5 
A   10
 C6 
A   11
 C7 
A   12
 C8 
M  END
>  <XChem_code>  (82) 
D68EV3CPROA-x0771

>  <Occupancy>  (82) 
[0.64, 0.64, 0.64, 0.64, 0.64, 0.64, 0.64, 0.64, 0.64, 0.64, 0.64, 0.64]

>  <TempFactor>  (82) 
[53.92, 56.89, 55.28, 56.68, 57.15, 58.7, 57.68, 56.24, 55.33, 55.38, 56.13, 56.56]

>  <RealCrystalName>  (82) 
D68EV3CPROA-x0771

>  <smiles>  (82) 
Cl.NC(=O)c1ccc2NCCc2c1

>  <new_smiles>  (82) 
Cl.NC(=O)c1ccc2NCCc2c1

>  <alternate_name>  (82) 
Z1696091761

>  <site_name>  (82) 
1

>  <pdb_entry>  (82) 
nan

>  <mol>  (82) 
<rdkit.Chem.rdchem.Mol object at 0x13a1a3610>

>  <single_smiles>  (82) 
NC(=O)c1ccc2c(c1)CCN2

>  <base_name>  (82) 
D68EV3CPROA-x0771_0A

>  <lig_resn>  (82) 
LIG

>  <lig_resi>  (82) 
201

>  <lig_chain>  (82) 
A

>  <lig_segi>  (82) 


>  <lig_alt>  (82) 


>  <polymer_chain>  (82) 
A

$$$$
x0957_0A§1
     RDKit          3D

 12 12  0  0  0  0  0  0  0  0999 V2000
   -0.3510    4.3450  -26.1550 N   0  0  0  0  0  0  0  0  0  0  0  0
   -1.7210    4.0470  -26.4980 C   0  0  0  0  0  0  0  0  0  0  0  0
   -0.0370    4.9120  -21.7640 O   0  0  0  0  0  0  0  0  0  0  0  0
    0.4190    3.5140  -25.4000 C   0  0  0  0  0  0  0  0  0  0  0  0
   -0.1610    6.2170  -23.8440 O   0  0  0  0  0  0  0  0  0  0  0  0
    1.1780    2.5080  -25.9960 C   0  0  0  0  0  0  0  0  0  0  0  0
    2.0410    1.7400  -25.2340 C   0  0  0  0  0  0  0  0  0  0  0  0
    2.1490    1.9470  -23.8780 C   0  0  0  0  0  0  0  0  0  0  0  0
    1.3840    2.9170  -23.2510 C   0  0  0  0  0  0  0  0  0  0  0  0
    0.5270    3.7050  -24.0100 C   0  0  0  0  0  0  0  0  0  0  0  0
   -2.0640    4.5410  -23.3310 C   0  0  0  0  0  0  0  0  0  0  0  0
   -0.3760    4.9750  -23.1560 S   0  0  1  0  0  0  0  0  0  0  0  0
  1  2  1  0
  1  4  1  0
  3 12  2  0
  4  6  2  0
  4 10  1  0
  5 12  2  0
  6  7  1  0
  7  8  2  0
  8  9  1  0
  9 10  2  0
 10 12  1  0
 12 11  1  1
A    1
 N  
A    2
 C  
A    3
 O  
A    4
 C1 
A    5
 O1 
A    6
 C2 
A    7
 C3 
A    8
 C4 
A    9
 C5 
A   10
 C6 
A   11
 C7 
A   12
 S  
M  END
>  <XChem_code>  (83) 
D68EV3CPROA-x0957

>  <Occupancy>  (83) 
[0.51, 0.51, 0.51, 0.51, 0.51, 0.51, 0.51, 0.51, 0.51, 0.51, 0.51, 0.51]

>  <TempFactor>  (83) 
[72.04, 70.39, 79.79, 74.12, 84.07, 72.48, 72.26, 74.06, 74.3, 77.29, 77.97, 81.75]

>  <RealCrystalName>  (83) 
D68EV3CPROA-x0957

>  <smiles>  (83) 
CNc1ccccc1S(=O)(=O)C

>  <new_smiles>  (83) 
CNc1ccccc1S(=O)(=O)C

>  <alternate_name>  (83) 
Z285782452

>  <site_name>  (83) 
3

>  <pdb_entry>  (83) 
nan

>  <mol>  (83) 
<rdkit.Chem.rdchem.Mol object at 0x13a1a3bc0>

>  <single_smiles>  (83) 
CNc1ccccc1S(C)(=O)=O

>  <base_name>  (83) 
D68EV3CPROA-x0957_0A

>  <lig_resn>  (83) 
LIG

>  <lig_resi>  (83) 
201

>  <lig_chain>  (83) 
A

>  <lig_segi>  (83) 


>  <lig_alt>  (83) 


>  <polymer_chain>  (83) 
A

$$$$
x0957_0A§2
     RDKit          3D

 12 12  0  0  0  0  0  0  0  0999 V2000
   -5.4210    2.3740  -51.4210 N   0  0  0  0  0  0  0  0  0  0  0  0
   -4.9990    3.7490  -51.2740 C   0  0  0  0  0  0  0  0  0  0  0  0
   -3.8180    1.6860  -49.0300 O   0  0  0  0  0  0  0  0  0  0  0  0
   -6.4560    1.8210  -50.7040 C   0  0  0  0  0  0  0  0  0  0  0  0
   -4.6290   -0.4210  -48.0620 O   0  0  0  0  0  0  0  0  0  0  0  0
   -7.7840    2.1290  -51.0030 C   0  0  0  0  0  0  0  0  0  0  0  0
   -8.8190    1.5030  -50.3260 C   0  0  0  0  0  0  0  0  0  0  0  0
   -8.5530    0.5750  -49.3420 C   0  0  0  0  0  0  0  0  0  0  0  0
   -7.2460    0.2580  -49.0160 C   0  0  0  0  0  0  0  0  0  0  0  0
   -6.2020    0.8780  -49.6900 C   0  0  0  0  0  0  0  0  0  0  0  0
   -3.8830   -0.4170  -50.5460 C   0  0  0  0  0  0  0  0  0  0  0  0
   -4.5520    0.4650  -49.1860 S   0  0  1  0  0  0  0  0  0  0  0  0
  1  2  1  0
  1  4  1  0
  3 12  2  0
  4  6  2  0
  4 10  1  0
  5 12  2  0
  6  7  1  0
  7  8  2  0
  8  9  1  0
  9 10  2  0
 10 12  1  0
 12 11  1  6
A    1
 N  
A    2
 C  
A    3
 O  
A    4
 C1 
A    5
 O1 
A    6
 C2 
A    7
 C3 
A    8
 C4 
A    9
 C5 
A   10
 C6 
A   11
 C7 
A   12
 S  
M  END
>  <XChem_code>  (84) 
D68EV3CPROA-x0957

>  <Occupancy>  (84) 
[0.7, 0.7, 0.7, 0.7, 0.7, 0.7, 0.7, 0.7, 0.7, 0.7, 0.7, 0.7]

>  <TempFactor>  (84) 
[45.09, 47.61, 45.08, 43.37, 40.28, 39.38, 39.51, 36.23, 40.27, 41.26, 41.32, 43.18]

>  <RealCrystalName>  (84) 
D68EV3CPROA-x0957

>  <smiles>  (84) 
CNc1ccccc1S(=O)(=O)C

>  <new_smiles>  (84) 
CNc1ccccc1S(=O)(=O)C

>  <alternate_name>  (84) 
Z285782452

>  <site_name>  (84) 
3

>  <pdb_entry>  (84) 
nan

>  <mol>  (84) 
<rdkit.Chem.rdchem.Mol object at 0x13a1a3bc0>

>  <single_smiles>  (84) 
CNc1ccccc1S(C)(=O)=O

>  <base_name>  (84) 
D68EV3CPROA-x0957_0A

>  <lig_resn>  (84) 
LIG

>  <lig_resi>  (84) 
201

>  <lig_chain>  (84) 
B

>  <lig_segi>  (84) 


>  <lig_alt>  (84) 


>  <polymer_chain>  (84) 
B

$$$$
x1083_0A§1
     RDKit          3D

 11 11  0  0  0  0  0  0  0  0999 V2000
  -11.0190   15.1770  -37.5360 N   0  0  0  0  0  0  0  0  0  0  0  0
   -9.1670   13.2040  -37.2360 C   0  0  0  0  0  0  0  0  0  0  0  0
  -10.1710   14.5990  -35.2970 O   0  0  0  0  0  0  0  0  0  0  0  0
  -10.7570   15.7650  -38.8640 C   0  0  0  0  0  0  0  0  0  0  0  0
   -8.7000   15.7280  -36.9110 O   0  0  0  0  0  0  0  0  0  0  0  0
  -12.0220   16.4240  -39.4010 C   0  0  0  0  0  0  0  0  0  0  0  0
  -14.3580   16.0450  -39.9370 O   0  0  0  0  0  0  0  0  0  0  0  0
  -13.1620   15.4330  -39.4530 C   0  0  2  0  0  0  0  0  0  0  0  0
  -13.3930   14.8470  -38.0810 C   0  0  0  0  0  0  0  0  0  0  0  0
  -12.1210   14.1950  -37.5610 C   0  0  0  0  0  0  0  0  0  0  0  0
   -9.7170   14.7620  -36.6420 S   0  0  2  0  0  0  0  0  0  0  0  0
  1  4  1  0
  1 10  1  0
  1 11  1  0
 11  2  1  6
  3 11  2  0
  4  6  1  0
  5 11  2  0
  6  8  1  0
  8  7  1  1
  8  9  1  0
  9 10  1  0
A    1
 N  
A    2
 C  
A    3
 O  
A    4
 C1 
A    5
 O1 
A    6
 C2 
A    7
 O2 
A    8
 C3 
A    9
 C4 
A   10
 C5 
A   11
 S  
M  END
>  <XChem_code>  (85) 
D68EV3CPROA-x1083

>  <Occupancy>  (85) 
[0.88, 0.88, 0.88, 0.88, 0.88, 0.88, 0.88, 0.88, 0.88, 0.88, 0.88]

>  <TempFactor>  (85) 
[71.89, 65.62, 69.14, 69.53, 73.16, 68.13, 65.29, 67.13, 67.96, 69.22, 68.91]

>  <RealCrystalName>  (85) 
D68EV3CPROA-x1083

>  <smiles>  (85) 
CS(=O)(=O)N1CCC(O)CC1

>  <new_smiles>  (85) 
CS(=O)(=O)N1CCC(O)CC1

>  <alternate_name>  (85) 
Z425757818

>  <site_name>  (85) 
1

>  <pdb_entry>  (85) 
nan

>  <mol>  (85) 
<rdkit.Chem.rdchem.Mol object at 0x13a26c190>

>  <single_smiles>  (85) 
CS(=O)(=O)N1CCC(O)CC1

>  <base_name>  (85) 
D68EV3CPROA-x1083_0A

>  <lig_resn>  (85) 
LIG

>  <lig_resi>  (85) 
201

>  <lig_chain>  (85) 
A

>  <lig_segi>  (85) 


>  <lig_alt>  (85) 


>  <polymer_chain>  (85) 
A

$$$$
x0153_0B§1
     RDKit          3D

 10 10  0  0  0  0  0  0  0  0999 V2000
    2.6360    2.2570  -24.7190 N   0  0  0  0  0  0  0  0  0  0  0  0
    4.5650    2.2060  -26.2710 C   0  0  0  0  0  0  0  0  0  0  0  0
    4.0360    1.8660  -24.8990 C   0  0  0  0  0  0  0  0  0  0  0  0
   -1.5580    3.6850  -25.7640 N   0  0  0  0  0  0  0  0  0  0  0  0
    2.0710    2.7940  -23.6240 C   0  0  0  0  0  0  0  0  0  0  0  0
    1.7470    2.1080  -25.7300 N   0  0  0  0  0  0  0  0  0  0  0  0
    0.7640    3.0180  -23.9200 C   0  0  0  0  0  0  0  0  0  0  0  0
    0.6010    2.5830  -25.2280 C   0  0  0  0  0  0  0  0  0  0  0  0
   -0.6330    2.5960  -26.0710 C   0  0  0  0  0  0  0  0  0  0  0  0
   -2.5940    3.2830  -24.8140 C   0  0  0  0  0  0  0  0  0  0  0  0
  1  3  1  0
  1  5  1  0
  1  6  1  0
  2  3  1  0
  4  9  1  0
  4 10  1  0
  5  7  2  0
  6  8  2  0
  7  8  1  0
  8  9  1  0
A    1
 N  
A    2
 C  
A    3
 C1 
A    4
 N1 
A    5
 C2 
A    6
 N2 
A    7
 C3 
A    8
 C4 
A    9
 C5 
A   10
 C6 
M  END
>  <XChem_code>  (86) 
D68EV3CPROA-x0153

>  <Occupancy>  (86) 
[0.46, 0.46, 0.46, 0.46, 0.46, 0.46, 0.46, 0.46, 0.46, 0.46]

>  <TempFactor>  (86) 
[33.0, 35.27, 33.79, 37.02, 31.33, 34.18, 32.57, 33.21, 35.59, 37.18]

>  <RealCrystalName>  (86) 
D68EV3CPROA-x0153

>  <smiles>  (86) 
CCn1ccc(CNC)n1

>  <new_smiles>  (86) 
CCn1ccc(CNC)n1

>  <alternate_name>  (86) 
Z1198162455

>  <site_name>  (86) 
3

>  <pdb_entry>  (86) 
nan

>  <mol>  (86) 
<rdkit.Chem.rdchem.Mol object at 0x13a1a2dc0>

>  <single_smiles>  (86) 
CCn1ccc(CNC)n1

>  <base_name>  (86) 
D68EV3CPROA-x0153_0B

>  <lig_resn>  (86) 
LIG

>  <lig_resi>  (86) 
301

>  <lig_chain>  (86) 
B

>  <lig_segi>  (86) 


>  <lig_alt>  (86) 


>  <polymer_chain>  (86) 
A

$$$$
x1585_1B§1
     RDKit          3D

 15 17  0  0  0  0  0  0  0  0999 V2000
  -28.5250    1.0250  -40.4450 N   0  0  0  0  0  0  0  0  0  0  0  0
  -28.3990   -0.3190  -40.7540 C   0  0  0  0  0  0  0  0  0  0  0  0
  -28.5550   -1.2420  -39.9610 O   0  0  0  0  0  0  0  0  0  0  0  0
  -28.2690    1.8170  -41.5280 C   0  0  0  0  0  0  0  0  0  0  0  0
  -28.0630   -0.4090  -42.0630 N   0  0  0  0  0  0  0  0  0  0  0  0
  -28.3570    3.0390  -41.5790 O   0  0  0  0  0  0  0  0  0  0  0  0
  -27.8760    0.8920  -42.6960 C   0  0  2  0  0  0  0  0  0  0  0  0
  -26.4000    1.1370  -43.1020 C   0  0  0  0  0  0  0  0  0  0  0  0
  -26.3730    1.4980  -44.5860 C   0  0  0  0  0  0  0  0  0  0  0  0
  -27.8180    1.5980  -44.9910 C   0  0  0  0  0  0  0  0  0  0  0  0
  -28.3670    1.9940  -46.2090 C   0  0  0  0  0  0  0  0  0  0  0  0
  -29.7390    1.9440  -46.3990 C   0  0  0  0  0  0  0  0  0  0  0  0
  -30.5650    1.5030  -45.3820 C   0  0  0  0  0  0  0  0  0  0  0  0
  -30.0280    1.1170  -44.1590 C   0  0  0  0  0  0  0  0  0  0  0  0
  -28.6540    1.1750  -43.9650 C   0  0  0  0  0  0  0  0  0  0  0  0
  1  2  1  0
  1  4  1  0
  2  3  2  0
  2  5  1  0
  4  6  2  0
  4  7  1  0
  5  7  1  0
  7  8  1  6
  7 15  1  0
  8  9  1  0
  9 10  1  0
 10 11  1  0
 10 15  2  0
 11 12  2  0
 12 13  1  0
 13 14  2  0
 14 15  1  0
A    1
 N  
A    2
 C  
A    3
 O  
A    4
 C1 
A    5
 N1 
A    6
 O1 
A    7
 C2 
A    8
 C3 
A    9
 C4 
A   10
 C5 
A   11
 C6 
A   12
 C7 
A   13
 C8 
A   14
 C9 
A   15
 C10
M  END
>  <XChem_code>  (87) 
D68EV3CPROA-x1585

>  <Occupancy>  (87) 
[0.77, 0.77, 0.77, 0.77, 0.77, 0.77, 0.77, 0.77, 0.77, 0.77, 0.77, 0.77, 0.77, 0.77, 0.77]

>  <TempFactor>  (87) 
[47.06, 46.09, 42.91, 54.42, 51.75, 54.2, 55.82, 58.69, 60.73, 63.11, 65.62, 66.27, 67.0, 64.36, 61.89]

>  <RealCrystalName>  (87) 
D68EV3CPROA-x1585

>  <smiles>  (87) 
O=C1NC(=O)C2(CCC=3C=CC=CC32)N1

>  <new_smiles>  (87) 
O=C1NC(=O)C2(CCC=3C=CC=CC32)N1

>  <alternate_name>  (87) 
Z56862798

>  <site_name>  (87) 
2

>  <pdb_entry>  (87) 
nan

>  <mol>  (87) 
<rdkit.Chem.rdchem.Mol object at 0x13a26d850>

>  <single_smiles>  (87) 
O=C1NC(=O)C2(CCc3ccccc32)N1

>  <base_name>  (87) 
D68EV3CPROA-x1585_1B

>  <lig_resn>  (87) 
LIG

>  <lig_resi>  (87) 
301

>  <lig_chain>  (87) 
B

>  <lig_segi>  (87) 


>  <lig_alt>  (87) 


>  <polymer_chain>  (87) 
B

$$$$
x0765_0A§1
     RDKit          3D

 15 17  0  0  0  0  0  0  0  0999 V2000
   -0.8890    3.1180  -26.4400 N   0  0  0  0  0  0  0  0  0  0  0  0
    0.4680    3.1970  -25.9080 C   0  0  0  0  0  0  0  0  0  0  0  0
   -1.6500    4.6120  -22.5210 O   0  0  0  0  0  0  0  0  0  0  0  0
   -1.2090    2.6710  -27.7010 C   0  0  0  0  0  0  0  0  0  0  0  0
   -3.1010    3.2510  -26.6440 N   0  0  0  0  0  0  0  0  0  0  0  0
   -2.5540    2.7590  -27.8050 C   0  0  0  0  0  0  0  0  0  0  0  0
   -1.1080    4.1250  -23.7380 N   0  0  0  0  0  0  0  0  0  0  0  0
   -2.0700    3.4560  -25.8380 C   0  0  0  0  0  0  0  0  0  0  0  0
   -3.3550    4.3040  -23.8810 N   0  0  0  0  0  0  0  0  0  0  0  0
   -2.1660    3.9670  -24.4810 C   0  0  0  0  0  0  0  0  0  0  0  0
   -2.9790    4.6820  -22.7060 C   0  0  0  0  0  0  0  0  0  0  0  0
   -3.8040    5.1630  -21.5820 C   0  0  2  0  0  0  0  0  0  0  0  0
   -3.2070    6.3710  -20.8470 C   0  0  0  0  0  0  0  0  0  0  0  0
   -3.4820    5.6590  -19.5190 C   0  0  0  0  0  0  0  0  0  0  0  0
   -3.6300    4.3410  -20.3000 C   0  0  0  0  0  0  0  0  0  0  0  0
  1  2  1  0
  1  4  1  0
  1  8  1  0
  3  7  1  0
  3 11  1  0
  4  6  2  0
  5  6  1  0
  5  8  2  0
  7 10  2  0
  8 10  1  0
  9 10  1  0
  9 11  2  0
 12 11  1  6
 12 13  1  0
 12 15  1  0
 13 14  1  0
 14 15  1  0
A    1
 N  
A    2
 C  
A    3
 O  
A    4
 C1 
A    5
 N1 
A    6
 C2 
A    7
 N2 
A    8
 C3 
A    9
 N3 
A   10
 C4 
A   11
 C5 
A   12
 C6 
A   13
 C7 
A   14
 C8 
A   15
 C9 
M  END
>  <XChem_code>  (88) 
D68EV3CPROA-x0765

>  <Occupancy>  (88) 
[0.51, 0.51, 0.51, 0.51, 0.51, 0.51, 0.51, 0.51, 0.51, 0.51, 0.51, 0.51, 0.51, 0.51, 0.51]

>  <TempFactor>  (88) 
[46.94, 47.7, 45.68, 46.48, 46.84, 46.35, 45.62, 46.45, 45.23, 45.96, 45.15, 44.84, 44.78, 44.35, 44.06]

>  <RealCrystalName>  (88) 
D68EV3CPROA-x0765

>  <smiles>  (88) 
Cn1ccnc1c2noc(n2)C3CCC3

>  <new_smiles>  (88) 
Cn1ccnc1c2noc(n2)C3CCC3

>  <alternate_name>  (88) 
Z1685106505

>  <site_name>  (88) 
3

>  <pdb_entry>  (88) 
nan

>  <mol>  (88) 
<rdkit.Chem.rdchem.Mol object at 0x13a1a35a0>

>  <single_smiles>  (88) 
Cn1ccnc1-c1noc(C2CCC2)n1

>  <base_name>  (88) 
D68EV3CPROA-x0765_0A

>  <lig_resn>  (88) 
LIG

>  <lig_resi>  (88) 
201

>  <lig_chain>  (88) 
A

>  <lig_segi>  (88) 


>  <lig_alt>  (88) 


>  <polymer_chain>  (88) 
A

$$$$
x1444_0B§1
     RDKit          3D

 10 10  0  0  0  0  0  0  0  0999 V2000
  -32.2060   15.0080  -32.7460 N   0  0  0  0  0  0  0  0  0  0  0  0
  -32.9000   11.9840  -34.2620 C   0  0  0  0  0  0  0  0  0  0  0  0
  -31.5560   12.1680  -34.5900 O   0  0  0  0  0  0  0  0  0  0  0  0
  -33.5510   12.9370  -33.4600 C   0  0  0  0  0  0  0  0  0  0  0  0
  -32.8150   14.0930  -33.0290 C   0  0  0  0  0  0  0  0  0  0  0  0
  -34.9170   12.8130  -33.1690 C   0  0  0  0  0  0  0  0  0  0  0  0
  -35.6240   11.7550  -33.7140 C   0  0  0  0  0  0  0  0  0  0  0  0
  -34.9980   10.7890  -34.4820 C   0  0  0  0  0  0  0  0  0  0  0  0
  -33.6440   10.8990  -34.7480 C   0  0  0  0  0  0  0  0  0  0  0  0
  -37.5270   11.7050  -33.5480 Br  0  0  0  0  0  0  0  0  0  0  0  0
  1  5  3  0
  2  3  1  0
  2  4  2  0
  2  9  1  0
  4  5  1  0
  4  6  1  0
  6  7  2  0
  7  8  1  0
  7 10  1  0
  8  9  2  0
A    1
 N  
A    2
 C  
A    3
 O  
A    4
 C1 
A    5
 C2 
A    6
 C3 
A    7
 C4 
A    8
 C5 
A    9
 C6 
A   10
BR  
M  END
>  <XChem_code>  (89) 
D68EV3CPROA-x1444

>  <Occupancy>  (89) 
[0.5, 0.5, 0.5, 0.5, 0.5, 0.5, 0.5, 0.5, 0.5, 0.5]

>  <TempFactor>  (89) 
[7.11, 9.48, 13.6, 9.37, 8.24, 10.14, 10.76, 10.73, 9.83, 15.19]

>  <RealCrystalName>  (89) 
D68EV3CPROA-x1444

>  <smiles>  (89) 
OC1=C(C#N)C=C(Br)C=C1

>  <new_smiles>  (89) 
OC1=C(C#N)C=C(Br)C=C1

>  <alternate_name>  (89) 
NCL-00024661

>  <site_name>  (89) 
5

>  <pdb_entry>  (89) 
nan

>  <mol>  (89) 
<rdkit.Chem.rdchem.Mol object at 0x13a26ceb0>

>  <single_smiles>  (89) 
N#Cc1cc(Br)ccc1O

>  <base_name>  (89) 
D68EV3CPROA-x1444_0B

>  <lig_resn>  (89) 
LIG

>  <lig_resi>  (89) 
201

>  <lig_chain>  (89) 
B

>  <lig_segi>  (89) 


>  <lig_alt>  (89) 


>  <polymer_chain>  (89) 
B

$$$$
x1695_0B§1
     RDKit          3D

  6  6  0  0  0  0  0  0  0  0999 V2000
   -8.9330    2.1150  -50.7230 N   0  0  0  0  0  0  0  0  0  0  0  0
   -7.4300    0.6840  -49.9310 C   0  0  0  0  0  0  0  0  0  0  0  0
   -8.4860   -0.0550  -50.3830 C   0  0  0  0  0  0  0  0  0  0  0  0
   -7.7120    1.9920  -50.1400 N   0  0  0  0  0  0  0  0  0  0  0  0
   -9.3900    0.8800  -50.8730 C   0  0  0  0  0  0  0  0  0  0  0  0
   -5.6390    0.1230  -49.0850 I   0  0  0  0  0  0  0  0  0  0  0  0
  1  4  1  0
  1  5  2  0
  2  3  2  0
  2  4  1  0
  2  6  1  0
  3  5  1  0
A    1
 N  
A    2
 C  
A    3
 C1 
A    4
 N1 
A    5
 C2 
A    6
 I  
M  END
>  <XChem_code>  (90) 
D68EV3CPROA-x1695

>  <Occupancy>  (90) 
[0.4, 0.4, 0.4, 0.4, 0.4, 0.4]

>  <TempFactor>  (90) 
[60.56, 64.07, 61.38, 61.75, 60.07, 85.55]

>  <RealCrystalName>  (90) 
D68EV3CPROA-x1695

>  <smiles>  (90) 
IC1=CC=NN1

>  <new_smiles>  (90) 
IC1=CC=NN1

>  <alternate_name>  (90) 
Z3227118860

>  <site_name>  (90) 
2

>  <pdb_entry>  (90) 
nan

>  <mol>  (90) 
<rdkit.Chem.rdchem.Mol object at 0x13a26dd90>

>  <single_smiles>  (90) 
Ic1ccn[nH]1

>  <base_name>  (90) 
D68EV3CPROA-x1695_0B

>  <lig_resn>  (90) 
LIG

>  <lig_resi>  (90) 
201

>  <lig_chain>  (90) 
B

>  <lig_segi>  (90) 


>  <lig_alt>  (90) 


>  <polymer_chain>  (90) 
B

$$$$
x1068_0B§1
     RDKit          3D

 15 16  0  0  0  0  0  0  0  0999 V2000
  -31.2870   15.7500  -31.8250 N   0  0  0  0  0  0  0  0  0  0  0  0
  -28.5400   15.2080  -30.9690 C   0  0  0  0  0  0  0  0  0  0  0  0
  -31.5470   12.6830  -34.7600 O   0  0  0  0  0  0  0  0  0  0  0  0
  -29.1890   16.5640  -30.8550 C   0  0  0  0  0  0  0  0  0  0  0  0
  -32.8440   14.2720  -31.8110 N   0  0  0  0  0  0  0  0  0  0  0  0
  -33.4030   12.2710  -33.5960 O   0  0  0  0  0  0  0  0  0  0  0  0
  -28.4860   17.6340  -30.3000 C   0  0  0  0  0  0  0  0  0  0  0  0
  -32.3460   15.2750  -31.1260 N   0  0  0  0  0  0  0  0  0  0  0  0
  -29.0620   18.8850  -30.1700 C   0  0  0  0  0  0  0  0  0  0  0  0
  -30.3550   19.0960  -30.5870 C   0  0  0  0  0  0  0  0  0  0  0  0
  -31.0860   18.0600  -31.1470 C   0  0  0  0  0  0  0  0  0  0  0  0
  -30.4980   16.8070  -31.2790 C   0  0  0  0  0  0  0  0  0  0  0  0
  -31.1270   15.0550  -32.9720 C   0  0  0  0  0  0  0  0  0  0  0  0
  -32.1030   14.0960  -32.9410 C   0  0  0  0  0  0  0  0  0  0  0  0
  -32.3230   12.9600  -33.8590 C   0  0  0  0  0  0  0  0  0  0  0  0
  1  8  1  0
  1 12  1  0
  1 13  1  0
  2  4  1  0
  3 15  2  0
  4  7  2  0
  4 12  1  0
  5  8  2  0
  5 14  1  0
  6 15  1  0
  7  9  1  0
  9 10  2  0
 10 11  1  0
 11 12  2  0
 13 14  2  0
 14 15  1  0
A    1
 N  
A    2
 C  
A    3
 O  
A    4
 C1 
A    5
 N1 
A    6
 O1 
A    7
 C2 
A    8
 N2 
A    9
 C3 
A   10
 C4 
A   11
 C5 
A   12
 C6 
A   13
 C7 
A   14
 C8 
A   15
 C9 
M  END
>  <XChem_code>  (91) 
D68EV3CPROA-x1068

>  <Occupancy>  (91) 
[0.72, 0.72, 0.72, 0.72, 0.72, 0.72, 0.72, 0.72, 0.72, 0.72, 0.72, 0.72, 0.72, 0.72, 0.72]

>  <TempFactor>  (91) 
[22.66, 20.74, 21.4, 21.95, 24.49, 22.51, 22.37, 23.46, 22.04, 22.32, 22.21, 22.08, 22.84, 23.17, 23.32]

>  <RealCrystalName>  (91) 
D68EV3CPROA-x1068

>  <smiles>  (91) 
Cc1ccccc1n2cc(nn2)C(=O)O

>  <new_smiles>  (91) 
Cc1ccccc1n2cc(nn2)C(=O)O

>  <alternate_name>  (91) 
Z401437758

>  <site_name>  (91) 
5

>  <pdb_entry>  (91) 
nan

>  <mol>  (91) 
<rdkit.Chem.rdchem.Mol object at 0x13a26c120>

>  <single_smiles>  (91) 
Cc1ccccc1-n1cc(C(=O)O)nn1

>  <base_name>  (91) 
D68EV3CPROA-x1068_0B

>  <lig_resn>  (91) 
LIG

>  <lig_resi>  (91) 
201

>  <lig_chain>  (91) 
B

>  <lig_segi>  (91) 


>  <lig_alt>  (91) 


>  <polymer_chain>  (91) 
B

$$$$
x1247_0A§1
     RDKit          3D

 15 16  0  0  0  0  0  0  0  0999 V2000
  -10.5260   15.7430  -40.5350 N   0  0  0  0  0  0  0  0  0  0  0  0
   -6.9170   14.4620  -43.1680 C   0  0  0  0  0  0  0  0  0  0  0  0
  -12.5510   16.8430  -40.6540 O   0  0  0  0  0  0  0  0  0  0  0  0
   -8.2730   15.0850  -43.1210 C   0  0  0  0  0  0  0  0  0  0  0  0
  -11.8400   14.3240  -38.2560 N   0  0  0  0  0  0  0  0  0  0  0  0
   -8.9610   15.4340  -44.2800 C   0  0  0  0  0  0  0  0  0  0  0  0
   -8.7860   15.3070  -41.9030 N   0  0  0  0  0  0  0  0  0  0  0  0
  -10.1980   16.0390  -44.1710 C   0  0  0  0  0  0  0  0  0  0  0  0
  -10.7300   16.2860  -42.9200 C   0  0  0  0  0  0  0  0  0  0  0  0
   -9.9960   15.8680  -41.8180 C   0  0  0  0  0  0  0  0  0  0  0  0
  -11.7080   16.1850  -40.0490 C   0  0  0  0  0  0  0  0  0  0  0  0
  -11.9620   15.7230  -38.6590 C   0  0  1  0  0  0  0  0  0  0  0  0
  -13.0570   16.4330  -37.8990 C   0  0  0  0  0  0  0  0  0  0  0  0
  -13.9300   15.2810  -37.4610 C   0  0  0  0  0  0  0  0  0  0  0  0
  -12.9410   14.1170  -37.2950 C   0  0  0  0  0  0  0  0  0  0  0  0
  1 10  1  0
  1 11  1  0
  2  4  1  0
  3 11  2  0
  4  6  2  0
  4  7  1  0
  5 12  1  0
  5 15  1  0
  6  8  1  0
  7 10  2  0
  8  9  2  0
  9 10  1  0
 12 11  1  6
 12 13  1  0
 13 14  1  0
 14 15  1  0
A    1
 N  
A    2
 C  
A    3
 O  
A    4
 C1 
A    5
 N1 
A    6
 C2 
A    7
 N2 
A    8
 C3 
A    9
 C4 
A   10
 C5 
A   11
 C6 
A   12
 C7 
A   13
 C8 
A   14
 C9 
A   15
 C10
M  END
>  <XChem_code>  (92) 
D68EV3CPROA-x1247

>  <Occupancy>  (92) 
[0.86, 0.86, 0.86, 0.86, 0.86, 0.86, 0.86, 0.86, 0.86, 0.86, 0.86, 0.86, 0.86, 0.86, 0.86]

>  <TempFactor>  (92) 
[17.15, 19.7, 14.92, 19.7, 19.21, 19.17, 18.3, 19.2, 18.34, 17.39, 17.02, 17.11, 16.88, 17.4, 17.37]

>  <RealCrystalName>  (92) 
D68EV3CPROA-x1247

>  <smiles>  (92) 
Cc1cccc(NC(=O)[C@@H]2CCCN2)n1

>  <new_smiles>  (92) 
Cc1cccc(NC(=O)[C@@H]2CCCN2)n1

>  <alternate_name>  (92) 
Z760048004

>  <site_name>  (92) 
1

>  <pdb_entry>  (92) 
nan

>  <mol>  (92) 
<rdkit.Chem.rdchem.Mol object at 0x13a26c740>

>  <single_smiles>  (92) 
Cc1cccc(NC(=O)[C@@H]2CCCN2)n1

>  <base_name>  (92) 
D68EV3CPROA-x1247_0A

>  <lig_resn>  (92) 
LIG

>  <lig_resi>  (92) 
201

>  <lig_chain>  (92) 
A

>  <lig_segi>  (92) 


>  <lig_alt>  (92) 


>  <polymer_chain>  (92) 
A

$$$$
x1495_1B§1
     RDKit          3D

  8  8  0  0  0  0  0  0  0  0999 V2000
   -4.8120    0.3590  -49.6420 C   0  0  0  0  0  0  0  0  0  0  0  0
   -4.1210    0.7230  -50.7140 O   0  0  0  0  0  0  0  0  0  0  0  0
   -6.3060    0.4900  -49.7440 C   0  0  0  0  0  0  0  0  0  0  0  0
   -4.2940   -0.1000  -48.5980 O   0  0  0  0  0  0  0  0  0  0  0  0
   -7.1060    0.8460  -50.8900 C   0  0  0  0  0  0  0  0  0  0  0  0
   -8.4370    0.7550  -50.6720 C   0  0  0  0  0  0  0  0  0  0  0  0
   -7.0890    0.1400  -48.6750 C   0  0  0  0  0  0  0  0  0  0  0  0
   -8.7370    0.2070  -49.0330 S   0  0  0  0  0  0  0  0  0  0  0  0
  1  2  2  0
  1  3  1  0
  1  4  1  0
  3  5  1  0
  3  7  2  0
  5  6  2  0
  6  8  1  0
  7  8  1  0
A    1
 C  
A    2
 O  
A    3
 C1 
A    4
 O1 
A    5
 C2 
A    6
 C3 
A    7
 C4 
A    8
 S  
M  END
>  <XChem_code>  (93) 
D68EV3CPROA-x1495

>  <Occupancy>  (93) 
[0.84, 0.84, 0.84, 0.84, 0.84, 0.84, 0.84, 0.84]

>  <TempFactor>  (93) 
[46.72, 52.55, 36.72, 50.79, 33.61, 30.81, 31.55, 28.27]

>  <RealCrystalName>  (93) 
D68EV3CPROA-x1495

>  <smiles>  (93) 
OC(=O)C=1C=CSC1

>  <new_smiles>  (93) 
OC(=O)C=1C=CSC1

>  <alternate_name>  (93) 
Z166605460

>  <site_name>  (93) 
2

>  <pdb_entry>  (93) 
nan

>  <mol>  (93) 
<rdkit.Chem.rdchem.Mol object at 0x13a26d150>

>  <single_smiles>  (93) 
O=C(O)c1ccsc1

>  <base_name>  (93) 
D68EV3CPROA-x1495_1B

>  <lig_resn>  (93) 
LIG

>  <lig_resi>  (93) 
201

>  <lig_chain>  (93) 
B

>  <lig_segi>  (93) 


>  <lig_alt>  (93) 


>  <polymer_chain>  (93) 
B

$$$$
x0853_0A§1
     RDKit          3D

 14 15  0  0  0  0  0  0  0  0999 V2000
  -22.3640  -11.6470  -22.7500 N   0  0  0  0  0  0  0  0  0  0  0  0
  -22.7980  -13.0830  -20.8410 C   0  0  0  0  0  0  0  0  0  0  0  0
  -21.5090  -12.1000  -24.7860 O   0  0  0  0  0  0  0  0  0  0  0  0
  -22.6050  -13.0440  -22.3540 C   0  0  1  0  0  0  0  0  0  0  0  0
  -25.8000  -13.4690  -24.3880 N   0  0  0  0  0  0  0  0  0  0  0  0
  -21.7380  -11.3070  -23.8820 C   0  0  0  0  0  0  0  0  0  0  0  0
  -21.3720   -9.8860  -24.0020 C   0  0  1  0  0  0  0  0  0  0  0  0
  -20.2120   -9.5490  -24.9010 C   0  0  0  0  0  0  0  0  0  0  0  0
  -21.5900   -9.2450  -25.3460 C   0  0  0  0  0  0  0  0  0  0  0  0
  -23.7580  -13.6970  -23.1170 C   0  0  0  0  0  0  0  0  0  0  0  0
  -23.9300  -15.0810  -23.1210 C   0  0  0  0  0  0  0  0  0  0  0  0
  -25.0440  -15.6450  -23.7270 C   0  0  0  0  0  0  0  0  0  0  0  0
  -25.9550  -14.8050  -24.3390 C   0  0  0  0  0  0  0  0  0  0  0  0
  -24.7260  -12.9490  -23.7800 C   0  0  0  0  0  0  0  0  0  0  0  0
  1  4  1  0
  1  6  1  0
  4  2  1  1
  3  6  2  0
  4 10  1  0
  5 13  2  0
  5 14  1  0
  7  6  1  6
  7  8  1  0
  7  9  1  0
  8  9  1  0
 10 11  1  0
 10 14  2  0
 11 12  2  0
 12 13  1  0
A    1
 N  
A    2
 C  
A    3
 O  
A    4
 C1 
A    5
 N1 
A    6
 C2 
A    7
 C3 
A    8
 C4 
A    9
 C5 
A   10
 C6 
A   11
 C7 
A   12
 C8 
A   13
 C9 
A   14
 C10
M  END
>  <XChem_code>  (94) 
D68EV3CPROA-x0853

>  <Occupancy>  (94) 
[0.82, 0.82, 0.82, 0.82, 0.82, 0.82, 0.82, 0.82, 0.82, 0.82, 0.82, 0.82, 0.82, 0.82]

>  <TempFactor>  (94) 
[38.75, 40.14, 38.87, 39.66, 31.89, 38.06, 42.21, 41.41, 44.06, 37.47, 34.42, 33.47, 34.15, 33.37]

>  <RealCrystalName>  (94) 
D68EV3CPROA-x0853

>  <smiles>  (94) 
CC(NC(=O)C1CC1)c2cccnc2

>  <new_smiles>  (94) 
CC(NC(=O)C1CC1)c2cccnc2

>  <alternate_name>  (94) 
Z220996120

>  <site_name>  (94) 
5

>  <pdb_entry>  (94) 
nan

>  <mol>  (94) 
<rdkit.Chem.rdchem.Mol object at 0x13a1a38b0>

>  <single_smiles>  (94) 
CC(NC(=O)C1CC1)c1cccnc1

>  <base_name>  (94) 
D68EV3CPROA-x0853_0A

>  <lig_resn>  (94) 
LIG

>  <lig_resi>  (94) 
201

>  <lig_chain>  (94) 
A

>  <lig_segi>  (94) 


>  <lig_alt>  (94) 


>  <polymer_chain>  (94) 
A

$$$$
x1135_0A§1
     RDKit          3D

 14 14  0  0  0  0  0  0  0  0999 V2000
  -20.5320  -10.6280  -19.9960 N   0  0  0  0  0  0  0  0  0  0  0  0
  -19.6180  -10.3120  -16.0350 C   0  0  0  0  0  0  0  0  0  0  0  0
  -20.7390   -8.6040  -18.5970 O   0  0  0  0  0  0  0  0  0  0  0  0
  -20.2940  -10.8270  -17.2870 C   0  0  0  0  0  0  0  0  0  0  0  0
  -18.5500   -9.6880  -18.8620 O   0  0  0  0  0  0  0  0  0  0  0  0
  -19.6530  -11.5630  -20.7250 C   0  0  0  0  0  0  0  0  0  0  0  0
  -22.9710  -12.2860  -23.9850 O   0  0  0  0  0  0  0  0  0  0  0  0
  -19.9470  -11.4680  -22.2150 C   0  0  0  0  0  0  0  0  0  0  0  0
  -20.9070  -11.8310  -24.6390 O   0  0  0  0  0  0  0  0  0  0  0  0
  -21.4430  -11.2460  -22.4590 C   0  0  2  0  0  0  0  0  0  0  0  0
  -22.2470  -11.8330  -21.2960 C   0  0  0  0  0  0  0  0  0  0  0  0
  -21.9430  -11.0590  -20.0150 C   0  0  0  0  0  0  0  0  0  0  0  0
  -21.8620  -11.8470  -23.7730 C   0  0  0  0  0  0  0  0  0  0  0  0
  -19.9640   -9.8000  -18.7020 S   0  0  1  0  0  0  0  0  0  0  0  0
  1  6  1  0
  1 12  1  0
  1 14  1  0
  2  4  1  0
  3 14  2  0
 14  4  1  1
  5 14  2  0
  6  8  1  0
  7 13  2  0
  8 10  1  0
  9 13  1  0
 10 11  1  0
 10 13  1  6
 11 12  1  0
A    1
 N  
A    2
 C  
A    3
 O  
A    4
 C1 
A    5
 O1 
A    6
 C2 
A    7
 O2 
A    8
 C3 
A    9
 O3 
A   10
 C4 
A   11
 C5 
A   12
 C6 
A   13
 C7 
A   14
 S  
M  END
>  <XChem_code>  (95) 
D68EV3CPROA-x1135

>  <Occupancy>  (95) 
[0.8, 0.8, 0.8, 0.8, 0.8, 0.8, 0.8, 0.8, 0.8, 0.8, 0.8, 0.8, 0.8, 0.8]

>  <TempFactor>  (95) 
[122.68, 132.71, 133.52, 134.8, 130.85, 111.73, 94.09, 106.83, 81.03, 101.43, 111.15, 119.54, 90.92, 134.95]

>  <RealCrystalName>  (95) 
D68EV3CPROA-x1135

>  <smiles>  (95) 
CCS(=O)(=O)N1CCC(CC1)C(=O)O

>  <new_smiles>  (95) 
CCS(=O)(=O)N1CCC(CC1)C(=O)O

>  <alternate_name>  (95) 
Z53825020

>  <site_name>  (95) 
5

>  <pdb_entry>  (95) 
nan

>  <mol>  (95) 
<rdkit.Chem.rdchem.Mol object at 0x13a26c430>

>  <single_smiles>  (95) 
CCS(=O)(=O)N1CCC(C(=O)O)CC1

>  <base_name>  (95) 
D68EV3CPROA-x1135_0A

>  <lig_resn>  (95) 
LIG

>  <lig_resi>  (95) 
201

>  <lig_chain>  (95) 
A

>  <lig_segi>  (95) 


>  <lig_alt>  (95) 


>  <polymer_chain>  (95) 
A

$$$$
x0228_0A§1
     RDKit          3D

 12 13  0  0  0  0  0  0  0  0999 V2000
  -26.5560    1.0500  -43.5780 N   0  0  0  0  0  0  0  0  0  0  0  0
  -27.3310    1.3620  -42.5270 C   0  0  0  0  0  0  0  0  0  0  0  0
  -27.7260    2.5040  -42.3140 O   0  0  0  0  0  0  0  0  0  0  0  0
  -25.9880   -0.2610  -43.9410 C   0  0  0  0  0  0  0  0  0  0  0  0
  -28.1090   -0.8620  -39.7010 N   0  0  0  0  0  0  0  0  0  0  0  0
  -25.2030    0.0290  -45.2100 C   0  0  0  0  0  0  0  0  0  0  0  0
  -28.4710   -1.5780  -40.7830 N   0  0  0  0  0  0  0  0  0  0  0  0
  -24.9050    1.4950  -45.1550 C   0  0  0  0  0  0  0  0  0  0  0  0
  -26.1490    2.0820  -44.5360 C   0  0  0  0  0  0  0  0  0  0  0  0
  -27.7130    0.3110  -41.5850 C   0  0  0  0  0  0  0  0  0  0  0  0
  -27.6510    0.2860  -40.1800 C   0  0  0  0  0  0  0  0  0  0  0  0
  -28.2490   -0.9210  -41.9240 C   0  0  0  0  0  0  0  0  0  0  0  0
  1  2  1  0
  1  4  1  0
  1  9  1  0
  2  3  2  0
  2 10  1  0
  4  6  1  0
  5  7  1  0
  5 11  2  0
  6  8  1  0
  7 12  1  0
  8  9  1  0
 10 11  1  0
 10 12  2  0
A    1
 N  
A    2
 C  
A    3
 O  
A    4
 C1 
A    5
 N1 
A    6
 C2 
A    7
 N2 
A    8
 C3 
A    9
 C4 
A   10
 C5 
A   11
 C6 
A   12
 C7 
M  END
>  <XChem_code>  (96) 
D68EV3CPROA-x0228

>  <Occupancy>  (96) 
[0.48, 0.48, 0.48, 0.48, 0.48, 0.48, 0.48, 0.48, 0.48, 0.48, 0.48, 0.48]

>  <TempFactor>  (96) 
[38.31, 36.28, 36.84, 38.19, 33.92, 38.12, 33.84, 37.99, 38.12, 35.15, 34.76, 35.42]

>  <RealCrystalName>  (96) 
D68EV3CPROA-x0228

>  <smiles>  (96) 
Cl.O=C(N1CCCC1)c2cn[nH]c2

>  <new_smiles>  (96) 
Cl.O=C(N1CCCC1)c2cn[nH]c2

>  <alternate_name>  (96) 
Z1266933824

>  <site_name>  (96) 
4

>  <pdb_entry>  (96) 
nan

>  <mol>  (96) 
<rdkit.Chem.rdchem.Mol object at 0x13a1a3140>

>  <single_smiles>  (96) 
O=C(c1cn[nH]c1)N1CCCC1

>  <base_name>  (96) 
D68EV3CPROA-x0228_0A

>  <lig_resn>  (96) 
LIG

>  <lig_resi>  (96) 
201

>  <lig_chain>  (96) 
A

>  <lig_segi>  (96) 


>  <lig_alt>  (96) 


>  <polymer_chain>  (96) 
A

$$$$
x0133_0B§1
     RDKit          3D

 13 13  0  0  0  0  0  0  0  0999 V2000
  -31.0960    1.1720  -39.4080 N   0  0  0  0  0  0  0  0  0  0  0  0
  -25.1480    1.1940  -44.7150 C   0  0  0  0  0  0  0  0  0  0  0  0
  -31.3780   -0.8160  -40.8230 O   0  0  0  0  0  0  0  0  0  0  0  0
  -26.2590    0.9030  -43.7390 C   0  0  0  0  0  0  0  0  0  0  0  0
  -30.7180    1.3410  -41.8280 O   0  0  0  0  0  0  0  0  0  0  0  0
  -26.8400    1.9180  -42.9860 C   0  0  0  0  0  0  0  0  0  0  0  0
  -27.7290    1.6390  -41.9650 C   0  0  0  0  0  0  0  0  0  0  0  0
  -28.0770    0.3320  -41.6610 C   0  0  0  0  0  0  0  0  0  0  0  0
  -28.9300    0.0230  -40.4650 C   0  0  0  0  0  0  0  0  0  0  0  0
  -27.5500   -0.6910  -42.4430 C   0  0  0  0  0  0  0  0  0  0  0  0
  -26.6670   -0.3790  -43.4470 C   0  0  0  0  0  0  0  0  0  0  0  0
  -26.1550   -1.3850  -44.1930 F   0  0  0  0  0  0  0  0  0  0  0  0
  -30.6520    0.4130  -40.7470 S   0  0  1  0  0  0  0  0  0  0  0  0
 13  1  1  1
  2  4  1  0
  3 13  2  0
  4  6  2  0
  4 11  1  0
  5 13  2  0
  6  7  1  0
  7  8  2  0
  8  9  1  0
  8 10  1  0
  9 13  1  0
 10 11  2  0
 11 12  1  0
A    1
 N  
A    2
 C  
A    3
 O  
A    4
 C1 
A    5
 O1 
A    6
 C2 
A    7
 C3 
A    8
 C4 
A    9
 C5 
A   10
 C6 
A   11
 C7 
A   12
 F  
A   13
 S  
M  END
>  <XChem_code>  (97) 
D68EV3CPROA-x0133

>  <Occupancy>  (97) 
[0.34, 0.34, 0.34, 0.34, 0.34, 0.34, 0.34, 0.34, 0.34, 0.34, 0.34, 0.34, 0.34]

>  <TempFactor>  (97) 
[64.94, 49.37, 65.75, 49.61, 66.72, 50.14, 51.77, 52.5, 56.76, 50.14, 50.05, 46.49, 64.5]

>  <RealCrystalName>  (97) 
D68EV3CPROA-x0133

>  <smiles>  (97) 
Cc1ccc(CS(=O)(=O)N)cc1F

>  <new_smiles>  (97) 
Cc1ccc(CS(=O)(=O)N)cc1F

>  <alternate_name>  (97) 
Z1143279263

>  <site_name>  (97) 
4

>  <pdb_entry>  (97) 
nan

>  <mol>  (97) 
<rdkit.Chem.rdchem.Mol object at 0x13a1a2c70>

>  <single_smiles>  (97) 
Cc1ccc(CS(N)(=O)=O)cc1F

>  <base_name>  (97) 
D68EV3CPROA-x0133_0B

>  <lig_resn>  (97) 
LIG

>  <lig_resi>  (97) 
201

>  <lig_chain>  (97) 
B

>  <lig_segi>  (97) 


>  <lig_alt>  (97) 
B

>  <polymer_chain>  (97) 
B

$$$$
x0133_0B§2
     RDKit          3D

 13 13  0  0  0  0  0  0  0  0999 V2000
  -31.1470    1.1010  -39.5710 N   0  0  0  0  0  0  0  0  0  0  0  0
  -25.4000    0.6780  -44.8940 C   0  0  0  0  0  0  0  0  0  0  0  0
  -31.2170   -1.2550  -40.2640 O   0  0  0  0  0  0  0  0  0  0  0  0
  -26.3890    0.4850  -43.7740 C   0  0  0  0  0  0  0  0  0  0  0  0
  -30.8060    0.5170  -41.9350 O   0  0  0  0  0  0  0  0  0  0  0  0
  -26.7170   -0.7890  -43.3190 C   0  0  0  0  0  0  0  0  0  0  0  0
  -27.5380   -0.9740  -42.2230 C   0  0  0  0  0  0  0  0  0  0  0  0
  -28.0620    0.1090  -41.5370 C   0  0  0  0  0  0  0  0  0  0  0  0
  -28.8780   -0.0910  -40.2910 C   0  0  0  0  0  0  0  0  0  0  0  0
  -27.7780    1.3880  -42.0000 C   0  0  0  0  0  0  0  0  0  0  0  0
  -26.9630    1.5380  -43.0960 C   0  0  0  0  0  0  0  0  0  0  0  0
  -26.7260    2.7900  -43.5450 F   0  0  0  0  0  0  0  0  0  0  0  0
  -30.6340    0.0000  -40.6150 S   0  0  1  0  0  0  0  0  0  0  0  0
 13  1  1  1
  2  4  1  0
  3 13  2  0
  4  6  2  0
  4 11  1  0
  5 13  2  0
  6  7  1  0
  7  8  2  0
  8  9  1  0
  8 10  1  0
  9 13  1  0
 10 11  2  0
 11 12  1  0
A    1
 N  
A    2
 C  
A    3
 O  
A    4
 C1 
A    5
 O1 
A    6
 C2 
A    7
 C3 
A    8
 C4 
A    9
 C5 
A   10
 C6 
A   11
 C7 
A   12
 F  
A   13
 S  
M  END
>  <XChem_code>  (98) 
D68EV3CPROA-x0133

>  <Occupancy>  (98) 
[0.35, 0.35, 0.35, 0.35, 0.35, 0.35, 0.35, 0.35, 0.35, 0.35, 0.35, 0.35, 0.35]

>  <TempFactor>  (98) 
[84.63, 63.16, 85.93, 62.82, 85.97, 63.93, 63.71, 65.58, 72.43, 63.72, 61.62, 60.02, 84.86]

>  <RealCrystalName>  (98) 
D68EV3CPROA-x0133

>  <smiles>  (98) 
Cc1ccc(CS(=O)(=O)N)cc1F

>  <new_smiles>  (98) 
Cc1ccc(CS(=O)(=O)N)cc1F

>  <alternate_name>  (98) 
Z1143279263

>  <site_name>  (98) 
4

>  <pdb_entry>  (98) 
nan

>  <mol>  (98) 
<rdkit.Chem.rdchem.Mol object at 0x13a1a2c70>

>  <single_smiles>  (98) 
Cc1ccc(CS(N)(=O)=O)cc1F

>  <base_name>  (98) 
D68EV3CPROA-x0133_0B

>  <lig_resn>  (98) 
LIG

>  <lig_resi>  (98) 
201

>  <lig_chain>  (98) 
B

>  <lig_segi>  (98) 


>  <lig_alt>  (98) 
A

>  <polymer_chain>  (98) 
B

$$$$
x1052_1A§1
     RDKit          3D

 14 14  0  0  0  0  0  0  0  0999 V2000
  -22.4830   19.3570  -21.6960 N   0  0  0  0  0  0  0  0  0  0  0  0
  -19.0560   18.5470  -19.4690 C   0  0  0  0  0  0  0  0  0  0  0  0
  -19.4060   19.8540  -19.9950 O   0  0  0  0  0  0  0  0  0  0  0  0
  -20.1420   19.9030  -21.1170 C   0  0  0  0  0  0  0  0  0  0  0  0
  -25.5790   17.5940  -21.6130 N   0  0  0  0  0  0  0  0  0  0  0  0
  -19.9330   20.6790  -22.0150 O   0  0  0  0  0  0  0  0  0  0  0  0
  -21.2590   18.8890  -21.0800 C   0  0  0  0  0  0  0  0  0  0  0  0
  -23.9810   19.2820  -20.0090 O   0  0  0  0  0  0  0  0  0  0  0  0
  -23.6750   19.0450  -21.1800 C   0  0  0  0  0  0  0  0  0  0  0  0
  -26.2290   17.0810  -22.7590 O   0  0  0  0  0  0  0  0  0  0  0  0
  -24.6190   18.3580  -22.0940 C   0  0  0  0  0  0  0  0  0  0  0  0
  -24.6110   18.3810  -23.4960 C   0  0  0  0  0  0  0  0  0  0  0  0
  -25.6200   17.5750  -23.8590 C   0  0  0  0  0  0  0  0  0  0  0  0
  -26.1770   17.1370  -25.1640 C   0  0  0  0  0  0  0  0  0  0  0  0
  1  7  1  0
  1  9  1  0
  2  3  1  0
  3  4  1  0
  4  6  2  0
  4  7  1  0
  5 10  1  0
  5 11  2  0
  8  9  2  0
  9 11  1  0
 10 13  1  0
 11 12  1  0
 12 13  2  0
 13 14  1  0
A    1
 N  
A    2
 C  
A    3
 O  
A    4
 C1 
A    5
 N1 
A    6
 O1 
A    7
 C2 
A    8
 O2 
A    9
 C3 
A   10
 O3 
A   11
 C4 
A   12
 C5 
A   13
 C6 
A   14
 C7 
M  END
>  <XChem_code>  (99) 
D68EV3CPROA-x1052

>  <Occupancy>  (99) 
[0.7, 0.7, 0.7, 0.7, 0.7, 0.7, 0.7, 0.7, 0.7, 0.7, 0.7, 0.7, 0.7, 0.7]

>  <TempFactor>  (99) 
[61.03, 58.77, 61.05, 60.8, 56.63, 59.18, 60.15, 64.17, 60.74, 58.66, 59.2, 56.56, 57.51, 54.82]

>  <RealCrystalName>  (99) 
D68EV3CPROA-x1052

>  <smiles>  (99) 
COC(=O)CNC(=O)c1cc(C)on1

>  <new_smiles>  (99) 
COC(=O)CNC(=O)c1cc(C)on1

>  <alternate_name>  (99) 
Z375990520

>  <site_name>  (99) 
1

>  <pdb_entry>  (99) 
nan

>  <mol>  (99) 
<rdkit.Chem.rdchem.Mol object at 0x13a1a3ed0>

>  <single_smiles>  (99) 
COC(=O)CNC(=O)c1cc(C)on1

>  <base_name>  (99) 
D68EV3CPROA-x1052_1A

>  <lig_resn>  (99) 
LIG

>  <lig_resi>  (99) 
301

>  <lig_chain>  (99) 
A

>  <lig_segi>  (99) 


>  <lig_alt>  (99) 


>  <polymer_chain>  (99) 
A

$$$$
x1707_0B§1
     RDKit          3D

  6  6  0  0  0  0  0  0  0  0999 V2000
   -9.0690    1.2550  -50.3830 N   0  0  0  0  0  0  0  0  0  0  0  0
   -7.1020    0.9350  -49.4500 C   0  0  0  0  0  0  0  0  0  0  0  0
   -5.7830    0.3470  -48.4990 Cl  0  0  0  0  0  0  0  0  0  0  0  0
   -8.4300    0.4980  -49.4410 C   0  0  0  0  0  0  0  0  0  0  0  0
   -6.9610    1.9280  -50.3670 N   0  0  0  0  0  0  0  0  0  0  0  0
   -8.1590    2.0890  -50.9090 C   0  0  0  0  0  0  0  0  0  0  0  0
  1  4  1  0
  1  6  1  0
  2  3  1  0
  2  4  2  0
  2  5  1  0
  5  6  2  0
A    1
 N  
A    2
 C  
A    3
CL  
A    4
 C1 
A    5
 N1 
A    6
 C2 
M  END
>  <XChem_code>  (100) 
D68EV3CPROA-x1707

>  <Occupancy>  (100) 
[0.72, 0.72, 0.72, 0.72, 0.72, 0.72]

>  <TempFactor>  (100) 
[35.74, 38.31, 46.26, 36.25, 37.0, 35.7]

>  <RealCrystalName>  (100) 
D68EV3CPROA-x1707

>  <smiles>  (100) 
ClC1=CNC=N1

>  <new_smiles>  (100) 
ClC1=CNC=N1

>  <alternate_name>  (100) 
Z1198183601

>  <site_name>  (100) 
2

>  <pdb_entry>  (100) 
nan

>  <mol>  (100) 
<rdkit.Chem.rdchem.Mol object at 0x13a26de70>

>  <single_smiles>  (100) 
Clc1c[nH]cn1

>  <base_name>  (100) 
D68EV3CPROA-x1707_0B

>  <lig_resn>  (100) 
LIG

>  <lig_resi>  (100) 
201

>  <lig_chain>  (100) 
B

>  <lig_segi>  (100) 


>  <lig_alt>  (100) 


>  <polymer_chain>  (100) 
B

$$$$
x1064_0B§1
     RDKit          3D

 14 14  0  0  0  0  0  0  0  0999 V2000
   -2.9430    4.2360  -24.5810 N   0  0  0  0  0  0  0  0  0  0  0  0
   -0.3370    3.7940  -25.2670 C   0  0  0  0  0  0  0  0  0  0  0  0
   -1.4980    6.0990  -25.2140 O   0  0  0  0  0  0  0  0  0  0  0  0
    0.1750    3.0130  -26.2920 C   0  0  0  0  0  0  0  0  0  0  0  0
   -2.2420    4.4530  -26.9110 O   0  0  0  0  0  0  0  0  0  0  0  0
    1.2460    2.1750  -26.0340 C   0  0  0  0  0  0  0  0  0  0  0  0
   -0.3440    4.5600  -23.0420 O   0  0  0  0  0  0  0  0  0  0  0  0
    1.8140    2.1320  -24.7780 C   0  0  0  0  0  0  0  0  0  0  0  0
    1.3230    2.9270  -23.7550 C   0  0  0  0  0  0  0  0  0  0  0  0
    0.2420    3.7640  -23.9910 C   0  0  0  0  0  0  0  0  0  0  0  0
    0.4260    5.3810  -22.3720 C   0  0  1  0  0  0  0  0  0  0  0  0
   -0.0970    6.6000  -22.3530 F   0  0  0  0  0  0  0  0  0  0  0  0
    0.1910    4.6350  -21.3270 F   0  0  0  0  0  0  0  0  0  0  0  0
   -1.7990    4.7440  -25.5760 S   0  0  2  0  0  0  0  0  0  0  0  0
 14  1  1  1
  2  4  2  0
  2 10  1  0
  2 14  1  0
  3 14  2  0
  4  6  1  0
  5 14  2  0
  6  8  2  0
  7 10  1  0
  7 11  1  0
  8  9  1  0
  9 10  2  0
 11 12  1  1
 11 13  1  0
A    1
 N  
A    2
 C  
A    3
 O  
A    4
 C1 
A    5
 O1 
A    6
 C2 
A    7
 O2 
A    8
 C3 
A    9
 C4 
A   10
 C5 
A   11
 C6 
A   12
 F  
A   13
 F1 
A   14
 S  
M  END
>  <XChem_code>  (101) 
D68EV3CPROA-x1064

>  <Occupancy>  (101) 
[0.6, 0.6, 0.6, 0.6, 0.6, 0.6, 0.6, 0.6, 0.6, 0.6, 0.6, 0.6, 0.6, 0.6]

>  <TempFactor>  (101) 
[40.5, 39.08, 44.55, 37.78, 42.75, 37.25, 37.51, 36.67, 35.55, 38.41, 36.35, 40.3, 37.28, 46.25]

>  <RealCrystalName>  (101) 
D68EV3CPROA-x1064

>  <smiles>  (101) 
NS(=O)(=O)c1ccccc1OC(F)F

>  <new_smiles>  (101) 
NS(=O)(=O)c1ccccc1OC(F)F

>  <alternate_name>  (101) 
Z385450668

>  <site_name>  (101) 
3

>  <pdb_entry>  (101) 
nan

>  <mol>  (101) 
<rdkit.Chem.rdchem.Mol object at 0x13a26c040>

>  <single_smiles>  (101) 
NS(=O)(=O)c1ccccc1OC(F)F

>  <base_name>  (101) 
D68EV3CPROA-x1064_0B

>  <lig_resn>  (101) 
LIG

>  <lig_resi>  (101) 
301

>  <lig_chain>  (101) 
B

>  <lig_segi>  (101) 


>  <lig_alt>  (101) 


>  <polymer_chain>  (101) 
A

$$$$
x1064_0B§2
     RDKit          3D

 14 14  0  0  0  0  0  0  0  0999 V2000
   -8.3650    0.6420  -13.8810 N   0  0  0  0  0  0  0  0  0  0  0  0
  -10.6210   -0.8990  -13.8770 C   0  0  0  0  0  0  0  0  0  0  0  0
   -9.8930    0.6900  -11.9770 O   0  0  0  0  0  0  0  0  0  0  0  0
  -10.7350   -2.2770  -13.9690 C   0  0  0  0  0  0  0  0  0  0  0  0
   -8.5030   -1.3130  -12.4220 O   0  0  0  0  0  0  0  0  0  0  0  0
  -11.6880   -2.8220  -14.8120 C   0  0  0  0  0  0  0  0  0  0  0  0
  -11.2780    1.2850  -14.4550 O   0  0  0  0  0  0  0  0  0  0  0  0
  -12.5300   -2.0050  -15.5360 C   0  0  0  0  0  0  0  0  0  0  0  0
  -12.4360   -0.6270  -15.4320 C   0  0  0  0  0  0  0  0  0  0  0  0
  -11.4800   -0.0620  -14.6010 C   0  0  0  0  0  0  0  0  0  0  0  0
  -12.3090    2.0270  -14.1360 C   0  0  1  0  0  0  0  0  0  0  0  0
  -12.0090    2.8340  -13.1260 F   0  0  0  0  0  0  0  0  0  0  0  0
  -12.2190    2.5410  -15.3330 F   0  0  0  0  0  0  0  0  0  0  0  0
   -9.2990   -0.2220  -12.9110 S   0  0  2  0  0  0  0  0  0  0  0  0
 14  1  1  6
  2  4  2  0
  2 10  1  0
  2 14  1  0
  3 14  2  0
  4  6  1  0
  5 14  2  0
  6  8  2  0
  7 10  1  0
  7 11  1  0
  8  9  1  0
  9 10  2  0
 11 12  1  1
 11 13  1  0
A    1
 N  
A    2
 C  
A    3
 O  
A    4
 C1 
A    5
 O1 
A    6
 C2 
A    7
 O2 
A    8
 C3 
A    9
 C4 
A   10
 C5 
A   11
 C6 
A   12
 F  
A   13
 F1 
A   14
 S  
M  END
>  <XChem_code>  (102) 
D68EV3CPROA-x1064

>  <Occupancy>  (102) 
[0.6, 0.6, 0.6, 0.6, 0.6, 0.6, 0.6, 0.6, 0.6, 0.6, 0.6, 0.6, 0.6, 0.6]

>  <TempFactor>  (102) 
[40.5, 39.08, 44.55, 37.78, 42.75, 37.25, 37.51, 36.67, 35.55, 38.41, 36.35, 40.3, 37.28, 46.25]

>  <RealCrystalName>  (102) 
D68EV3CPROA-x1064

>  <smiles>  (102) 
NS(=O)(=O)c1ccccc1OC(F)F

>  <new_smiles>  (102) 
NS(=O)(=O)c1ccccc1OC(F)F

>  <alternate_name>  (102) 
Z385450668

>  <site_name>  (102) 
3

>  <pdb_entry>  (102) 
nan

>  <mol>  (102) 
<rdkit.Chem.rdchem.Mol object at 0x13a26c040>

>  <single_smiles>  (102) 
NS(=O)(=O)c1ccccc1OC(F)F

>  <base_name>  (102) 
D68EV3CPROA-x1064_0B

>  <lig_resn>  (102) 
LIG

>  <lig_resi>  (102) 
301

>  <lig_chain>  (102) 
B

>  <lig_segi>  (102) 


>  <lig_alt>  (102) 


>  <polymer_chain>  (102) 
B

$$$$
x1064_1B§1
     RDKit          3D

 14 14  0  0  0  0  0  0  0  0999 V2000
   -2.9430    4.2360  -24.5810 N   0  0  0  0  0  0  0  0  0  0  0  0
   -0.3370    3.7940  -25.2670 C   0  0  0  0  0  0  0  0  0  0  0  0
   -1.4980    6.0990  -25.2140 O   0  0  0  0  0  0  0  0  0  0  0  0
    0.1750    3.0130  -26.2920 C   0  0  0  0  0  0  0  0  0  0  0  0
   -2.2420    4.4530  -26.9110 O   0  0  0  0  0  0  0  0  0  0  0  0
    1.2460    2.1750  -26.0340 C   0  0  0  0  0  0  0  0  0  0  0  0
   -0.3440    4.5600  -23.0420 O   0  0  0  0  0  0  0  0  0  0  0  0
    1.8140    2.1320  -24.7780 C   0  0  0  0  0  0  0  0  0  0  0  0
    1.3230    2.9270  -23.7550 C   0  0  0  0  0  0  0  0  0  0  0  0
    0.2420    3.7640  -23.9910 C   0  0  0  0  0  0  0  0  0  0  0  0
    0.4260    5.3810  -22.3720 C   0  0  1  0  0  0  0  0  0  0  0  0
   -0.0970    6.6000  -22.3530 F   0  0  0  0  0  0  0  0  0  0  0  0
    0.1910    4.6350  -21.3270 F   0  0  0  0  0  0  0  0  0  0  0  0
   -1.7990    4.7440  -25.5760 S   0  0  2  0  0  0  0  0  0  0  0  0
 14  1  1  1
  2  4  2  0
  2 10  1  0
  2 14  1  0
  3 14  2  0
  4  6  1  0
  5 14  2  0
  6  8  2  0
  7 10  1  0
  7 11  1  0
  8  9  1  0
  9 10  2  0
 11 12  1  1
 11 13  1  0
A    1
 N  
A    2
 C  
A    3
 O  
A    4
 C1 
A    5
 O1 
A    6
 C2 
A    7
 O2 
A    8
 C3 
A    9
 C4 
A   10
 C5 
A   11
 C6 
A   12
 F  
A   13
 F1 
A   14
 S  
M  END
>  <XChem_code>  (103) 
D68EV3CPROA-x1064

>  <Occupancy>  (103) 
[0.6, 0.6, 0.6, 0.6, 0.6, 0.6, 0.6, 0.6, 0.6, 0.6, 0.6, 0.6, 0.6, 0.6]

>  <TempFactor>  (103) 
[40.5, 39.08, 44.55, 37.78, 42.75, 37.25, 37.51, 36.67, 35.55, 38.41, 36.35, 40.3, 37.28, 46.25]

>  <RealCrystalName>  (103) 
D68EV3CPROA-x1064

>  <smiles>  (103) 
NS(=O)(=O)c1ccccc1OC(F)F

>  <new_smiles>  (103) 
NS(=O)(=O)c1ccccc1OC(F)F

>  <alternate_name>  (103) 
Z385450668

>  <site_name>  (103) 
2

>  <pdb_entry>  (103) 
nan

>  <mol>  (103) 
<rdkit.Chem.rdchem.Mol object at 0x13a26c0b0>

>  <single_smiles>  (103) 
NS(=O)(=O)c1ccccc1OC(F)F

>  <base_name>  (103) 
D68EV3CPROA-x1064_1B

>  <lig_resn>  (103) 
LIG

>  <lig_resi>  (103) 
301

>  <lig_chain>  (103) 
B

>  <lig_segi>  (103) 


>  <lig_alt>  (103) 


>  <polymer_chain>  (103) 
A

$$$$
x1064_1B§2
     RDKit          3D

 14 14  0  0  0  0  0  0  0  0999 V2000
   -8.3650    0.6420  -13.8810 N   0  0  0  0  0  0  0  0  0  0  0  0
  -10.6210   -0.8990  -13.8770 C   0  0  0  0  0  0  0  0  0  0  0  0
   -9.8930    0.6900  -11.9770 O   0  0  0  0  0  0  0  0  0  0  0  0
  -10.7350   -2.2770  -13.9690 C   0  0  0  0  0  0  0  0  0  0  0  0
   -8.5030   -1.3130  -12.4220 O   0  0  0  0  0  0  0  0  0  0  0  0
  -11.6880   -2.8220  -14.8120 C   0  0  0  0  0  0  0  0  0  0  0  0
  -11.2780    1.2850  -14.4550 O   0  0  0  0  0  0  0  0  0  0  0  0
  -12.5300   -2.0050  -15.5360 C   0  0  0  0  0  0  0  0  0  0  0  0
  -12.4360   -0.6270  -15.4320 C   0  0  0  0  0  0  0  0  0  0  0  0
  -11.4800   -0.0620  -14.6010 C   0  0  0  0  0  0  0  0  0  0  0  0
  -12.3090    2.0270  -14.1360 C   0  0  1  0  0  0  0  0  0  0  0  0
  -12.0090    2.8340  -13.1260 F   0  0  0  0  0  0  0  0  0  0  0  0
  -12.2190    2.5410  -15.3330 F   0  0  0  0  0  0  0  0  0  0  0  0
   -9.2990   -0.2220  -12.9110 S   0  0  2  0  0  0  0  0  0  0  0  0
 14  1  1  6
  2  4  2  0
  2 10  1  0
  2 14  1  0
  3 14  2  0
  4  6  1  0
  5 14  2  0
  6  8  2  0
  7 10  1  0
  7 11  1  0
  8  9  1  0
  9 10  2  0
 11 12  1  1
 11 13  1  0
A    1
 N  
A    2
 C  
A    3
 O  
A    4
 C1 
A    5
 O1 
A    6
 C2 
A    7
 O2 
A    8
 C3 
A    9
 C4 
A   10
 C5 
A   11
 C6 
A   12
 F  
A   13
 F1 
A   14
 S  
M  END
>  <XChem_code>  (104) 
D68EV3CPROA-x1064

>  <Occupancy>  (104) 
[0.6, 0.6, 0.6, 0.6, 0.6, 0.6, 0.6, 0.6, 0.6, 0.6, 0.6, 0.6, 0.6, 0.6]

>  <TempFactor>  (104) 
[40.5, 39.08, 44.55, 37.78, 42.75, 37.25, 37.51, 36.67, 35.55, 38.41, 36.35, 40.3, 37.28, 46.25]

>  <RealCrystalName>  (104) 
D68EV3CPROA-x1064

>  <smiles>  (104) 
NS(=O)(=O)c1ccccc1OC(F)F

>  <new_smiles>  (104) 
NS(=O)(=O)c1ccccc1OC(F)F

>  <alternate_name>  (104) 
Z385450668

>  <site_name>  (104) 
2

>  <pdb_entry>  (104) 
nan

>  <mol>  (104) 
<rdkit.Chem.rdchem.Mol object at 0x13a26c0b0>

>  <single_smiles>  (104) 
NS(=O)(=O)c1ccccc1OC(F)F

>  <base_name>  (104) 
D68EV3CPROA-x1064_1B

>  <lig_resn>  (104) 
LIG

>  <lig_resi>  (104) 
301

>  <lig_chain>  (104) 
B

>  <lig_segi>  (104) 


>  <lig_alt>  (104) 


>  <polymer_chain>  (104) 
B

$$$$
