AG7ยง1
     RDKit          3D

 44 46  0  0  0  0  0  0  0  0999 V2000
   -8.9670   15.1660  -33.5270 C   0  0  0  0  0  0  0  0  0  0  0  0
  -10.3610   18.2920  -30.2190 C   0  0  0  0  0  0  0  0  0  0  0  0
   -9.3780   14.8340  -34.9810 C   0  0  0  0  0  0  0  0  0  0  0  0
  -11.4490   19.0700  -29.8790 C   0  0  0  0  0  0  0  0  0  0  0  0
  -11.4560   19.2030  -28.5220 C   0  0  0  0  0  0  0  0  0  0  0  0
   -9.0670   14.3600  -32.6690 O   0  0  0  0  0  0  0  0  0  0  0  0
   -9.6070   13.3430  -35.1580 C   0  0  1  0  0  0  0  0  0  0  0  0
  -12.4800   19.9840  -27.6840 C   0  0  0  0  0  0  0  0  0  0  0  0
  -10.4040   18.5290  -28.0300 O   0  0  0  0  0  0  0  0  0  0  0  0
   -9.8220   13.0040  -36.6320 C   0  0  0  0  0  0  0  0  0  0  0  0
   -9.7220   17.9610  -29.0990 N   0  0  0  0  0  0  0  0  0  0  0  0
  -10.9810   13.8390  -37.2650 C   0  0  0  0  0  0  0  0  0  0  0  0
  -12.4340   13.3870  -37.0950 C   0  0  0  0  0  0  0  0  0  0  0  0
  -13.5670   14.2110  -37.7240 C   0  0  0  0  0  0  0  0  0  0  0  0
  -13.2350   15.4760  -38.5200 C   0  0  0  0  0  0  0  0  0  0  0  0
  -11.7870   15.9270  -38.6960 C   0  0  0  0  0  0  0  0  0  0  0  0
  -10.6550   15.1030  -38.0670 C   0  0  0  0  0  0  0  0  0  0  0  0
   -8.6560   11.1530  -34.1940 N   0  0  0  0  0  0  0  0  0  0  0  0
   -7.5720   10.2480  -33.8100 C   0  0  1  0  0  0  0  0  0  0  0  0
   -7.4790   10.1100  -32.3050 C   0  0  0  0  0  0  0  0  0  0  0  0
   -6.9650   11.3310  -31.6770 C   0  0  1  0  0  0  0  0  0  0  0  0
   -6.7630   11.0640  -30.1170 C   0  0  0  0  0  0  0  0  0  0  0  0
   -5.5900   11.6330  -29.7910 N   0  0  0  0  0  0  0  0  0  0  0  0
   -7.4890   10.4750  -29.3970 O   0  0  0  0  0  0  0  0  0  0  0  0
   -7.9420    8.8790  -34.3950 C   0  0  2  0  0  0  0  0  0  0  0  0
   -8.0380    8.7560  -35.9460 C   0  0  0  0  0  0  0  0  0  0  0  0
   -6.7120    9.1220  -36.6620 C   0  0  0  0  0  0  0  0  0  0  0  0
   -6.6630    9.2000  -38.0780 O   0  0  0  0  0  0  0  0  0  0  0  0
   -5.7350    9.3330  -36.0330 O   0  0  0  0  0  0  0  0  0  0  0  0
   -8.3860   12.4890  -34.7650 C   0  0  0  0  0  0  0  0  0  0  0  0
   -7.2780   12.8740  -34.9380 O   0  0  0  0  0  0  0  0  0  0  0  0
   -7.2150   10.3580  -38.6790 C   0  0  0  0  0  0  0  0  0  0  0  0
   -6.0980   11.1210  -39.4160 C   0  0  0  0  0  0  0  0  0  0  0  0
   -8.4270   16.5590  -33.1920 C   0  0  1  0  0  0  0  0  0  0  0  0
   -8.8290   16.9260  -31.8420 N   0  0  0  0  0  0  0  0  0  0  0  0
   -9.9310   17.8800  -31.6460 C   0  0  0  0  0  0  0  0  0  0  0  0
  -10.4920   18.3500  -32.5750 O   0  0  0  0  0  0  0  0  0  0  0  0
   -6.9070   16.5400  -33.3360 C   0  0  2  0  0  0  0  0  0  0  0  0
   -6.3050   15.3610  -32.5860 C   0  0  0  0  0  0  0  0  0  0  0  0
   -6.3080   17.8490  -32.7930 C   0  0  0  0  0  0  0  0  0  0  0  0
   -4.9760   12.2950  -31.0880 C   0  0  0  0  0  0  0  0  0  0  0  0
   -5.5720   11.6820  -32.1610 C   0  0  0  0  0  0  0  0  0  0  0  0
   -9.4950    8.1700  -33.9330 R   0  0  0  0  0  0  0  0  0  0  0  0
  -14.2410   16.2030  -39.0780 F   0  0  0  0  0  0  0  0  0  0  0  0
  1  3  1  0
  1  6  2  0
  1 34  1  0
  2  4  1  0
  2 11  2  0
  2 36  1  0
  7  3  1  6
  4  5  2  0
  5  8  1  0
  5  9  1  0
  7 10  1  0
  7 30  1  0
  9 11  1  0
 10 12  1  0
 12 13  2  0
 12 17  1  0
 13 14  1  0
 14 15  2  0
 15 16  1  0
 15 44  1  0
 16 17  2  0
 18 19  1  0
 18 30  1  0
 19 20  1  1
 19 25  1  0
 21 20  1  6
 21 22  1  0
 21 42  1  0
 22 23  1  0
 22 24  2  0
 23 41  1  0
 25 26  1  0
 25 43  1  1
 26 27  1  0
 27 28  1  0
 27 29  2  0
 28 32  1  0
 30 31  2  0
 32 33  1  0
 34 35  1  1
 34 38  1  0
 35 36  1  0
 36 37  2  0
 38 39  1  1
 38 40  1  0
 41 42  1  0
A    1
 C01
A    2
 C1 
A    3
 C02
A    4
 C2 
A    5
 C3 
A    6
 O03
A    7
 C04
A    8
 C4 
A    9
 O4 
A   10
 C05
A   11
 N5 
A   12
 C06
A   13
 C07
A   14
 C08
A   15
 C09
A   16
 C10
A   17
 C11
A   18
 N12
A   19
 C13
A   20
 C14
A   21
 C15
A   22
 C16
A   23
 N17
A   24
 O18
A   25
 C19
A   26
 C20
A   27
 C21
A   28
 O22
A   29
 O23
A   30
 C47
A   31
 O48
A   32
 C50
A   33
 C53
A   34
 C57
A   35
 N58
A   36
 C59
A   37
 O60
A   38
 C78
A   39
 C81
A   40
 C82
A   41
 C83
A   42
 C84
A   43
 X  
A   44
 F1 
M  END
>  <XChem_code>  (1) 
AG7ยง1

>  <Occupancy>  (1) 
[1.0, 1.0, 1.0, 1.0, 1.0, 1.0, 1.0, 1.0, 1.0, 1.0, 1.0, 1.0, 1.0, 1.0, 1.0, 1.0, 1.0, 1.0, 1.0, 1.0, 1.0, 1.0, 1.0, 1.0, 1.0, 1.0, 1.0, 1.0, 1.0, 1.0, 1.0, 1.0, 1.0, 1.0, 1.0, 1.0, 1.0, 1.0, 1.0, 1.0, 1.0, 1.0, 1.0, 1.0]

>  <TempFactor>  (1) 
[27.43, 24.24, 28.92, 30.71, 25.26, 31.62, 25.98, 30.07, 31.48, 26.52, 28.51, 32.53, 36.38, 29.74, 29.67, 29.92, 32.9, 28.44, 30.67, 27.23, 22.26, 24.15, 27.42, 27.01, 29.05, 33.89, 30.31, 32.23, 39.3, 25.88, 27.54, 34.34, 31.54, 28.56, 32.59, 25.05, 28.93, 29.93, 36.51, 31.26, 26.19, 27.65, 26.83, 43.14]

>  <accession>  (1) 
7L8H_A

>  <description>  (1) 
Chain A, 3C Protease [enterovirus D68]

>  <evalue>  (1) 
8.33054e-132

>  <pdb_code>  (1) 
7L8H

>  <chain>  (1) 
A

>  <ligands>  (1) 
[{'chain_id': 'A', 'author_residue_number': 201, 'author_insertion_code': '', 'chem_comp_id': 'AG7', 'alternate_conformers': 0, 'entity_id': 2, 'struct_asym_id': 'C', 'residue_number': 1, 'chem_comp_name': '4-{2-(4-FLUORO-BENZYL)-6-METHYL-5-[(5-METHYL-ISOXAZOLE-3-CARBONYL)-AMINO]-4-OXO-HEPTANOYLAMINO}-5-(2-OXO-PYRROLIDIN-3-YL)-PENTANOIC ACID ETHYL ESTER', 'weight': 600.678, 'carbohydrate_polymer': False, 'branch_name': ''}, {'chain_id': 'B', 'author_residue_number': 201, 'author_insertion_code': '', 'chem_comp_id': 'AG7', 'alternate_conformers': 0, 'entity_id': 2, 'struct_asym_id': 'D', 'residue_number': 1, 'chem_comp_name': '4-{2-(4-FLUORO-BENZYL)-6-METHYL-5-[(5-METHYL-ISOXAZOLE-3-CARBONYL)-AMINO]-4-OXO-HEPTANOYLAMINO}-5-(2-OXO-PYRROLIDIN-3-YL)-PENTANOIC ACID ETHYL ESTER', 'weight': 600.678, 'carbohydrate_polymer': False, 'branch_name': ''}]

>  <ligand_codes>  (1) 
['AG7', 'AG7']

>  <cofactor_codes>  (1) 
[]

>  <has_cofactor>  (1) 
False

>  <covalent>  (1) 
True

>  <base_name>  (1) 
7L8H

>  <lig_resn>  (1) 
AG7

>  <lig_resi>  (1) 
201

>  <lig_chain>  (1) 
A

>  <lig_segi>  (1) 
C

>  <lig_alt>  (1) 


>  <polymer_chain>  (1) 
A

>  <single_smiles>  (1) 
CCOC(=O)CC[C@H](C[C@@H]1CCNC1=O)NC(=O)[C@@H](CC(=O)[C@@H](NC(=O)c2cc(C)on2)C(C)C)Cc3ccc(F)cc3

$$$$
AG7ยง2
     RDKit          3D

 44 46  0  0  0  0  0  0  0  0999 V2000
   15.1120   -7.9580  -28.9450 C   0  0  0  0  0  0  0  0  0  0  0  0
   14.8060  -12.3300  -30.7570 C   0  0  0  0  0  0  0  0  0  0  0  0
   16.1220   -7.1750  -28.0830 C   0  0  0  0  0  0  0  0  0  0  0  0
   15.2160  -13.6410  -30.5680 C   0  0  0  0  0  0  0  0  0  0  0  0
   14.1950  -14.4560  -30.9800 C   0  0  0  0  0  0  0  0  0  0  0  0
   14.0210   -8.1600  -28.5410 O   0  0  0  0  0  0  0  0  0  0  0  0
   15.4170   -6.5200  -26.9070 C   0  0  1  0  0  0  0  0  0  0  0  0
   14.1380  -15.9920  -30.9890 C   0  0  0  0  0  0  0  0  0  0  0  0
   13.1920  -13.6750  -31.3960 O   0  0  0  0  0  0  0  0  0  0  0  0
   16.3890   -5.6300  -26.1400 C   0  0  0  0  0  0  0  0  0  0  0  0
   13.5740  -12.3490  -31.2560 N   0  0  0  0  0  0  0  0  0  0  0  0
   17.6460   -6.4600  -25.7470 C   0  0  0  0  0  0  0  0  0  0  0  0
   18.9070   -6.3740  -26.6090 C   0  0  0  0  0  0  0  0  0  0  0  0
   20.1420   -7.1960  -26.2270 C   0  0  0  0  0  0  0  0  0  0  0  0
   20.0970   -8.0940  -24.9890 C   0  0  0  0  0  0  0  0  0  0  0  0
   18.8360   -8.1830  -24.1310 C   0  0  0  0  0  0  0  0  0  0  0  0
   17.5970   -7.3620  -24.5150 C   0  0  0  0  0  0  0  0  0  0  0  0
   13.1110   -5.4510  -26.4450 N   0  0  0  0  0  0  0  0  0  0  0  0
   11.9760   -4.5760  -26.7670 C   0  0  1  0  0  0  0  0  0  0  0  0
   10.7400   -5.3940  -27.0450 C   0  0  0  0  0  0  0  0  0  0  0  0
   10.8840   -6.1190  -28.3110 C   0  0  1  0  0  0  0  0  0  0  0  0
    9.5040   -6.8540  -28.6270 C   0  0  0  0  0  0  0  0  0  0  0  0
    9.2760   -6.6680  -29.9380 N   0  0  0  0  0  0  0  0  0  0  0  0
    8.8150   -7.4300  -27.8590 O   0  0  0  0  0  0  0  0  0  0  0  0
   11.7750   -3.6820  -25.5340 C   0  0  2  0  0  0  0  0  0  0  0  0
   13.1220   -3.0950  -25.0300 C   0  0  0  0  0  0  0  0  0  0  0  0
   13.7900   -2.3030  -26.1810 C   0  0  0  0  0  0  0  0  0  0  0  0
   15.1440   -1.8950  -26.0990 O   0  0  0  0  0  0  0  0  0  0  0  0
   13.1600   -2.0110  -27.1350 O   0  0  0  0  0  0  0  0  0  0  0  0
   14.2710   -5.5910  -27.3490 C   0  0  0  0  0  0  0  0  0  0  0  0
   14.3250   -4.9990  -28.3710 O   0  0  0  0  0  0  0  0  0  0  0  0
   15.5180   -1.2360  -24.9040 C   0  0  0  0  0  0  0  0  0  0  0  0
   16.6490   -0.2430  -25.2330 C   0  0  0  0  0  0  0  0  0  0  0  0
   15.5530   -8.4890  -30.3160 C   0  0  1  0  0  0  0  0  0  0  0  0
   14.8710   -9.7430  -30.6000 N   0  0  0  0  0  0  0  0  0  0  0  0
   15.5780  -11.0250  -30.4480 C   0  0  0  0  0  0  0  0  0  0  0  0
   16.7040  -11.0580  -30.0950 O   0  0  0  0  0  0  0  0  0  0  0  0
   15.2600   -7.4360  -31.3820 C   0  0  1  0  0  0  0  0  0  0  0  0
   15.7340   -7.9620  -32.7290 C   0  0  0  0  0  0  0  0  0  0  0  0
   13.7670   -7.0920  -31.4870 C   0  0  0  0  0  0  0  0  0  0  0  0
   10.4750   -5.8310  -30.5410 C   0  0  0  0  0  0  0  0  0  0  0  0
   11.0730   -5.1870  -29.4870 C   0  0  0  0  0  0  0  0  0  0  0  0
   11.4750   -4.6480  -24.0840 R   0  0  0  0  0  0  0  0  0  0  0  0
   21.1930   -8.8210  -24.6480 F   0  0  0  0  0  0  0  0  0  0  0  0
  1  3  1  0
  1  6  2  0
  1 34  1  0
  2  4  1  0
  2 11  2  0
  2 36  1  0
  7  3  1  6
  4  5  2  0
  5  8  1  0
  5  9  1  0
  7 10  1  0
  7 30  1  0
  9 11  1  0
 10 12  1  0
 12 13  2  0
 12 17  1  0
 13 14  1  0
 14 15  2  0
 15 16  1  0
 15 44  1  0
 16 17  2  0
 18 19  1  0
 18 30  1  0
 19 20  1  1
 19 25  1  0
 21 20  1  1
 21 22  1  0
 21 42  1  0
 22 23  1  0
 22 24  2  0
 23 41  1  0
 25 26  1  0
 25 43  1  1
 26 27  1  0
 27 28  1  0
 27 29  2  0
 28 32  1  0
 30 31  2  0
 32 33  1  0
 34 35  1  6
 34 38  1  0
 35 36  1  0
 36 37  2  0
 38 39  1  6
 38 40  1  0
 41 42  1  0
A    1
 C01
A    2
 C1 
A    3
 C02
A    4
 C2 
A    5
 C3 
A    6
 O03
A    7
 C04
A    8
 C4 
A    9
 O4 
A   10
 C05
A   11
 N5 
A   12
 C06
A   13
 C07
A   14
 C08
A   15
 C09
A   16
 C10
A   17
 C11
A   18
 N12
A   19
 C13
A   20
 C14
A   21
 C15
A   22
 C16
A   23
 N17
A   24
 O18
A   25
 C19
A   26
 C20
A   27
 C21
A   28
 O22
A   29
 O23
A   30
 C47
A   31
 O48
A   32
 C50
A   33
 C53
A   34
 C57
A   35
 N58
A   36
 C59
A   37
 O60
A   38
 C78
A   39
 C81
A   40
 C82
A   41
 C83
A   42
 C84
A   43
 X  
A   44
 F1 
M  END
>  <XChem_code>  (2) 
AG7ยง2

>  <Occupancy>  (2) 
[1.0, 1.0, 1.0, 1.0, 1.0, 1.0, 1.0, 1.0, 1.0, 1.0, 1.0, 1.0, 1.0, 1.0, 1.0, 1.0, 1.0, 1.0, 1.0, 1.0, 1.0, 1.0, 1.0, 1.0, 1.0, 1.0, 1.0, 1.0, 1.0, 1.0, 1.0, 1.0, 1.0, 1.0, 1.0, 1.0, 1.0, 1.0, 1.0, 1.0, 1.0, 1.0, 1.0, 1.0]

>  <TempFactor>  (2) 
[22.17, 24.34, 26.14, 24.97, 26.27, 25.3, 26.24, 29.5, 29.79, 28.4, 27.77, 29.47, 32.14, 31.45, 29.94, 33.14, 34.84, 32.18, 32.68, 26.99, 23.58, 26.15, 30.91, 28.99, 31.25, 28.39, 30.22, 37.67, 34.97, 26.1, 27.4, 40.04, 44.71, 29.43, 32.49, 24.04, 28.31, 30.54, 37.66, 34.76, 30.15, 28.15, 24.65, 43.84]

>  <accession>  (2) 
7L8H_A

>  <description>  (2) 
Chain A, 3C Protease [enterovirus D68]

>  <evalue>  (2) 
8.33054e-132

>  <pdb_code>  (2) 
7L8H

>  <chain>  (2) 
A

>  <ligands>  (2) 
[{'chain_id': 'A', 'author_residue_number': 201, 'author_insertion_code': '', 'chem_comp_id': 'AG7', 'alternate_conformers': 0, 'entity_id': 2, 'struct_asym_id': 'C', 'residue_number': 1, 'chem_comp_name': '4-{2-(4-FLUORO-BENZYL)-6-METHYL-5-[(5-METHYL-ISOXAZOLE-3-CARBONYL)-AMINO]-4-OXO-HEPTANOYLAMINO}-5-(2-OXO-PYRROLIDIN-3-YL)-PENTANOIC ACID ETHYL ESTER', 'weight': 600.678, 'carbohydrate_polymer': False, 'branch_name': ''}, {'chain_id': 'B', 'author_residue_number': 201, 'author_insertion_code': '', 'chem_comp_id': 'AG7', 'alternate_conformers': 0, 'entity_id': 2, 'struct_asym_id': 'D', 'residue_number': 1, 'chem_comp_name': '4-{2-(4-FLUORO-BENZYL)-6-METHYL-5-[(5-METHYL-ISOXAZOLE-3-CARBONYL)-AMINO]-4-OXO-HEPTANOYLAMINO}-5-(2-OXO-PYRROLIDIN-3-YL)-PENTANOIC ACID ETHYL ESTER', 'weight': 600.678, 'carbohydrate_polymer': False, 'branch_name': ''}]

>  <ligand_codes>  (2) 
['AG7', 'AG7']

>  <cofactor_codes>  (2) 
[]

>  <has_cofactor>  (2) 
False

>  <covalent>  (2) 
True

>  <base_name>  (2) 
7L8H

>  <lig_resn>  (2) 
AG7

>  <lig_resi>  (2) 
201

>  <lig_chain>  (2) 
B

>  <lig_segi>  (2) 
D

>  <lig_alt>  (2) 


>  <polymer_chain>  (2) 
A

>  <single_smiles>  (2) 
CCOC(=O)CC[C@H](C[C@@H]1CCNC1=O)NC(=O)[C@@H](CC(=O)[C@@H](NC(=O)c2cc(C)on2)C(C)C)Cc3ccc(F)cc3

$$$$
GOLยง1
     RDKit          3D

  6  5  0  0  0  0  0  0  0  0999 V2000
  -26.9130   23.9310  -33.6030 C   0  0  0  0  0  0  0  0  0  0  0  0
  -26.0790   23.1560  -32.7680 O   0  0  0  0  0  0  0  0  0  0  0  0
  -27.7260   23.0380  -34.5390 C   0  0  1  0  0  0  0  0  0  0  0  0
  -28.6870   22.2710  -33.8350 O   0  0  0  0  0  0  0  0  0  0  0  0
  -28.4410   23.9950  -35.4930 C   0  0  0  0  0  0  0  0  0  0  0  0
  -29.3750   23.3670  -36.3440 O   0  0  0  0  0  0  0  0  0  0  0  0
  1  2  1  0
  1  3  1  0
  3  4  1  1
  3  5  1  0
  5  6  1  0
A    1
 C1 
A    2
 O1 
A    3
 C2 
A    4
 O2 
A    5
 C3 
A    6
 O3 
M  END
>  <XChem_code>  (3) 
GOLยง1

>  <Occupancy>  (3) 
[1.0, 1.0, 1.0, 1.0, 1.0, 1.0]

>  <TempFactor>  (3) 
[31.51, 30.63, 33.73, 34.13, 36.32, 38.21]

>  <accession>  (3) 
3ZYD_A

>  <description>  (3) 
Chain A, 3C PROTEINASE [Coxsackievirus B3]

>  <evalue>  (3) 
1.14373e-89

>  <pdb_code>  (3) 
3ZYD

>  <chain>  (3) 
A

>  <ligands>  (3) 
[{'chain_id': 'A', 'author_residue_number': 1181, 'author_insertion_code': '', 'chem_comp_id': 'GOL', 'alternate_conformers': 0, 'entity_id': 2, 'struct_asym_id': 'B', 'residue_number': 1, 'chem_comp_name': 'GLYCEROL', 'weight': 92.094, 'carbohydrate_polymer': False, 'branch_name': ''}]

>  <ligand_codes>  (3) 
['GOL']

>  <cofactor_codes>  (3) 
[]

>  <has_cofactor>  (3) 
False

>  <covalent>  (3) 
False

>  <base_name>  (3) 
3ZYD

>  <lig_resn>  (3) 
GOL

>  <lig_resi>  (3) 
1181

>  <lig_chain>  (3) 
A

>  <lig_segi>  (3) 
B

>  <lig_alt>  (3) 


>  <polymer_chain>  (3) 
A

>  <single_smiles>  (3) 
OCC(O)CO

$$$$
I70ยง1
     RDKit          3D

 40 42  0  0  0  0  0  0  0  0999 V2000
   -6.7100    7.5940  -35.0980 C   0  0  0  0  0  0  0  0  0  0  0  0
   -5.7690    7.4620  -36.2130 N   0  0  0  0  0  0  0  0  0  0  0  0
   -6.5030    6.9520  -34.0860 O   0  0  0  0  0  0  0  0  0  0  0  0
  -10.2720   19.4140  -30.9250 C   0  0  1  0  0  0  0  0  0  0  0  0
   -7.9070    8.5330  -35.2310 C   0  0  2  0  0  0  0  0  0  0  0  0
   -9.3150   18.6410  -31.7230 N   0  0  0  0  0  0  0  0  0  0  0  0
   -9.5750   17.8270  -32.7770 C   0  0  0  0  0  0  0  0  0  0  0  0
   -8.2130    8.7260  -36.6160 O   0  0  0  0  0  0  0  0  0  0  0  0
   -8.9660   16.6250  -32.7020 N   0  0  0  0  0  0  0  0  0  0  0  0
   -8.3630   16.0030  -33.8690 C   0  0  2  0  0  0  0  0  0  0  0  0
   -9.0070   14.6310  -34.0940 C   0  0  0  0  0  0  0  0  0  0  0  0
   -9.2580   15.2350  -36.5040 C   0  0  0  0  0  0  0  0  0  0  0  0
   -9.2900   14.2880  -35.3720 N   0  0  0  0  0  0  0  0  0  0  0  0
   -9.6500   12.9180  -35.7630 C   0  0  2  0  0  0  0  0  0  0  0  0
   -8.4570   11.9880  -35.5730 C   0  0  0  0  0  0  0  0  0  0  0  0
   -9.7390   14.4350  -37.6990 C   0  0  2  0  0  0  0  0  0  0  0  0
   -8.6950   10.8790  -34.8670 N   0  0  0  0  0  0  0  0  0  0  0  0
   -7.6460    9.8980  -34.5540 C   0  0  1  0  0  0  0  0  0  0  0  0
  -11.1540   13.9060  -37.6990 C   0  0  1  0  0  0  0  0  0  0  0  0
   -7.5160    9.8180  -33.0360 C   0  0  0  0  0  0  0  0  0  0  0  0
   -6.8770   11.0810  -32.4750 C   0  0  2  0  0  0  0  0  0  0  0  0
   -5.4440   11.3950  -32.9000 C   0  0  0  0  0  0  0  0  0  0  0  0
   -4.7930   12.0080  -31.6580 C   0  0  0  0  0  0  0  0  0  0  0  0
  -12.1980   14.3060  -36.6810 C   0  0  0  0  0  0  0  0  0  0  0  0
   -5.7180   11.6730  -30.5800 N   0  0  0  0  0  0  0  0  0  0  0  0
   -6.7630   10.9530  -30.9740 C   0  0  0  0  0  0  0  0  0  0  0  0
  -11.7390   13.8010  -39.0890 C   0  0  0  0  0  0  0  0  0  0  0  0
   -6.1840   15.2770  -34.9440 C   0  0  0  0  0  0  0  0  0  0  0  0
   -7.5140   10.2610  -30.2510 O   0  0  0  0  0  0  0  0  0  0  0  0
  -10.6940   20.3840  -32.0240 C   0  0  0  0  0  0  0  0  0  0  0  0
  -11.5630   18.7460  -30.5020 C   0  0  0  0  0  0  0  0  0  0  0  0
   -9.7000   20.3340  -29.8730 C   0  0  0  0  0  0  0  0  0  0  0  0
  -10.2600   18.1440  -33.7750 O   0  0  0  0  0  0  0  0  0  0  0  0
   -6.8280   15.9940  -33.7560 C   0  0  1  0  0  0  0  0  0  0  0  0
   -6.3140   17.4370  -33.7470 C   0  0  0  0  0  0  0  0  0  0  0  0
   -6.3720   15.3070  -32.4630 C   0  0  0  0  0  0  0  0  0  0  0  0
   -9.2830   13.8960  -33.1310 O   0  0  0  0  0  0  0  0  0  0  0  0
  -10.0130   13.0150  -37.2410 C   0  0  2  0  0  0  0  0  0  0  0  0
   -7.3460   12.2960  -36.0060 O   0  0  0  0  0  0  0  0  0  0  0  0
   -9.3180    7.9910  -34.2220 R   0  0  0  0  0  0  0  0  0  0  0  0
  1  2  1  0
  1  3  1  0
  1  5  1  0
  4  6  1  0
  4 30  1  6
  4 31  1  0
  4 32  1  0
  5  8  1  0
  5 18  1  0
  5 40  1  1
  6  7  1  0
  7  9  1  0
  7 33  1  0
 10  9  1  1
 10 11  1  0
 10 34  1  0
 11 13  1  0
 11 37  1  0
 12 13  1  0
 16 12  1  1
 13 14  1  0
 14 15  1  6
 38 14  1  1
 15 17  1  0
 15 39  1  0
 16 19  1  0
 16 38  1  0
 17 18  1  0
 18 20  1  1
 19 24  1  1
 19 27  1  0
 19 38  1  0
 21 20  1  6
 21 22  1  0
 21 26  1  0
 22 23  1  0
 23 25  1  0
 25 26  1  0
 26 29  1  0
 34 28  1  6
 34 35  1  0
 34 36  1  0
A    1
 C1 
A    2
 N2 
A    3
 O5 
A    4
 C7 
A    5
 C8 
A    6
 N8 
A    7
 C9 
A    8
 O9 
A    9
 N10
A   10
 C11
A   11
 C12
A   12
 C13
A   13
 N13
A   14
 C14
A   15
 C15
A   16
 C16
A   17
 N16
A   18
 C17
A   19
 C18
A   20
 C19
A   21
 C20
A   22
 C21
A   23
 C22
A   24
 C23
A   25
 N23
A   26
 C24
A   27
 C25
A   28
 C26
A   29
 O26
A   30
 C27
A   31
 C28
A   32
 C29
A   33
 O29
A   34
 C30
A   35
 C31
A   36
 C32
A   37
 O33
A   38
 C34
A   39
 O38
A   40
 X  
M  END
>  <XChem_code>  (4) 
I70ยง1

>  <Occupancy>  (4) 
[1.0, 1.0, 1.0, 1.0, 1.0, 1.0, 1.0, 1.0, 1.0, 1.0, 1.0, 1.0, 1.0, 1.0, 1.0, 1.0, 1.0, 1.0, 1.0, 1.0, 1.0, 1.0, 1.0, 1.0, 1.0, 1.0, 1.0, 1.0, 1.0, 1.0, 1.0, 1.0, 1.0, 1.0, 1.0, 1.0, 1.0, 1.0, 1.0, 1.0]

>  <TempFactor>  (4) 
[63.58, 69.08, 56.96, 91.85, 58.99, 85.97, 82.0, 52.36, 73.05, 70.66, 67.47, 64.86, 62.73, 58.1, 56.76, 63.59, 54.89, 58.5, 61.5, 60.05, 60.39, 63.68, 62.48, 49.52, 61.26, 62.28, 64.93, 65.54, 55.79, 95.6, 91.48, 91.79, 68.22, 64.56, 72.88, 62.05, 61.78, 61.48, 53.44, 57.91]

>  <accession>  (4) 
7QUW_AAA

>  <description>  (4) 
Chain AAA, Protease 3C [Coxsackievirus B3]

>  <evalue>  (4) 
7.40103e-88

>  <pdb_code>  (4) 
7QUW

>  <chain>  (4) 
AAA

>  <ligands>  (4) 
[{'chain_id': 'AAA', 'author_residue_number': 201, 'author_insertion_code': '', 'chem_comp_id': 'I70', 'alternate_conformers': 0, 'entity_id': 2, 'struct_asym_id': 'B', 'residue_number': 1, 'chem_comp_name': '(1R,2S,5S)-N-{(2S,3R)-4-amino-3-hydroxy-4-oxo-1-[(3S)-2-oxopyrrolidin-3-yl]butan-2-yl}-3-[N-(tert-butylcarbamoyl)-3-methyl-L-valyl]-6,6-dimethyl-3-azabicyclo[3.1.0]hexane-2-carboxamide', 'weight': 550.691, 'carbohydrate_polymer': False, 'branch_name': ''}]

>  <ligand_codes>  (4) 
['I70']

>  <cofactor_codes>  (4) 
[]

>  <has_cofactor>  (4) 
False

>  <covalent>  (4) 
True

>  <base_name>  (4) 
7QUW

>  <lig_resn>  (4) 
I70

>  <lig_resi>  (4) 
201

>  <lig_chain>  (4) 
AAA

>  <lig_segi>  (4) 
B

>  <lig_alt>  (4) 


>  <polymer_chain>  (4) 
A

>  <single_smiles>  (4) 
CC(C)(C)NC(=O)N[C@H](C(=O)N1C[C@H]2[C@@H]([C@H]1C(=O)N[C@@H](C[C@@H]3CCNC3=O)[C@@H](O)C(N)=O)C2(C)C)C(C)(C)C

$$$$
EDOยง1
     RDKit          3D

  4  3  0  0  0  0  0  0  0  0999 V2000
  -28.2650   -0.7980  -41.0470 C   0  0  0  0  0  0  0  0  0  0  0  0
  -29.3710   -0.8200  -40.1370 O   0  0  0  0  0  0  0  0  0  0  0  0
  -28.0930    0.5990  -41.6340 C   0  0  0  0  0  0  0  0  0  0  0  0
  -29.3190    1.0330  -42.2330 O   0  0  0  0  0  0  0  0  0  0  0  0
  1  2  1  0
  1  3  1  0
  3  4  1  0
A    1
 C1 
A    2
 O1 
A    3
 C2 
A    4
 O2 
M  END
>  <XChem_code>  (5) 
EDOยง1

>  <Occupancy>  (5) 
[0.3, 0.3, 0.3, 0.3]

>  <TempFactor>  (5) 
[40.44, 36.25, 41.9, 38.98]

>  <accession>  (5) 
3Q3Y_A

>  <description>  (5) 
Chain A, HEVB EV93 3C protease [Enterovirus B]

>  <evalue>  (5) 
1.14606e-87

>  <pdb_code>  (5) 
3Q3Y

>  <chain>  (5) 
A

>  <ligands>  (5) 
[{'chain_id': 'A', 'author_residue_number': 190, 'author_insertion_code': '', 'chem_comp_id': 'XNV', 'alternate_conformers': 2, 'entity_id': 2, 'struct_asym_id': 'C', 'residue_number': 1, 'chem_comp_name': 'ethyl (4R)-4-({(2S)-2-[3-{[(5-methyl-1,2-oxazol-3-yl)carbonyl]amino}-2-oxopyridin-1(2H)-yl]pent-4-ynoyl}amino)-5-[(3S)-2-oxopyrrolidin-3-yl]pentanoate', 'weight': 525.554, 'carbohydrate_polymer': False, 'branch_name': ''}, {'chain_id': 'B', 'author_residue_number': 190, 'author_insertion_code': '', 'chem_comp_id': 'XNV', 'alternate_conformers': 2, 'entity_id': 2, 'struct_asym_id': 'L', 'residue_number': 1, 'chem_comp_name': 'ethyl (4R)-4-({(2S)-2-[3-{[(5-methyl-1,2-oxazol-3-yl)carbonyl]amino}-2-oxopyridin-1(2H)-yl]pent-4-ynoyl}amino)-5-[(3S)-2-oxopyrrolidin-3-yl]pentanoate', 'weight': 525.554, 'carbohydrate_polymer': False, 'branch_name': ''}, {'chain_id': 'A', 'author_residue_number': 191, 'author_insertion_code': '', 'chem_comp_id': 'EDO', 'alternate_conformers': 2, 'entity_id': 3, 'struct_asym_id': 'D', 'residue_number': 1, 'chem_comp_name': '1,2-ETHANEDIOL', 'weight': 62.068, 'carbohydrate_polymer': False, 'branch_name': ''}, {'chain_id': 'A', 'author_residue_number': 192, 'author_insertion_code': '', 'chem_comp_id': 'EDO', 'alternate_conformers': 2, 'entity_id': 3, 'struct_asym_id': 'E', 'residue_number': 1, 'chem_comp_name': '1,2-ETHANEDIOL', 'weight': 62.068, 'carbohydrate_polymer': False, 'branch_name': ''}, {'chain_id': 'A', 'author_residue_number': 193, 'author_insertion_code': '', 'chem_comp_id': 'EDO', 'alternate_conformers': 0, 'entity_id': 3, 'struct_asym_id': 'F', 'residue_number': 1, 'chem_comp_name': '1,2-ETHANEDIOL', 'weight': 62.068, 'carbohydrate_polymer': False, 'branch_name': ''}, {'chain_id': 'A', 'author_residue_number': 194, 'author_insertion_code': '', 'chem_comp_id': 'EDO', 'alternate_conformers': 1, 'entity_id': 3, 'struct_asym_id': 'G', 'residue_number': 1, 'chem_comp_name': '1,2-ETHANEDIOL', 'weight': 62.068, 'carbohydrate_polymer': False, 'branch_name': ''}, {'chain_id': 'B', 'author_residue_number': 191, 'author_insertion_code': '', 'chem_comp_id': 'EDO', 'alternate_conformers': 2, 'entity_id': 3, 'struct_asym_id': 'M', 'residue_number': 1, 'chem_comp_name': '1,2-ETHANEDIOL', 'weight': 62.068, 'carbohydrate_polymer': False, 'branch_name': ''}, {'chain_id': 'B', 'author_residue_number': 192, 'author_insertion_code': '', 'chem_comp_id': 'EDO', 'alternate_conformers': 0, 'entity_id': 3, 'struct_asym_id': 'N', 'residue_number': 1, 'chem_comp_name': '1,2-ETHANEDIOL', 'weight': 62.068, 'carbohydrate_polymer': False, 'branch_name': ''}, {'chain_id': 'B', 'author_residue_number': 193, 'author_insertion_code': '', 'chem_comp_id': 'EDO', 'alternate_conformers': 2, 'entity_id': 3, 'struct_asym_id': 'O', 'residue_number': 1, 'chem_comp_name': '1,2-ETHANEDIOL', 'weight': 62.068, 'carbohydrate_polymer': False, 'branch_name': ''}, {'chain_id': 'B', 'author_residue_number': 194, 'author_insertion_code': '', 'chem_comp_id': 'EDO', 'alternate_conformers': 1, 'entity_id': 3, 'struct_asym_id': 'P', 'residue_number': 1, 'chem_comp_name': '1,2-ETHANEDIOL', 'weight': 62.068, 'carbohydrate_polymer': False, 'branch_name': ''}, {'chain_id': 'A', 'author_residue_number': 195, 'author_insertion_code': '', 'chem_comp_id': 'PI', 'alternate_conformers': 1, 'entity_id': 4, 'struct_asym_id': 'H', 'residue_number': 1, 'chem_comp_name': 'HYDROGENPHOSPHATE ION', 'weight': 95.979, 'carbohydrate_polymer': False, 'branch_name': ''}, {'chain_id': 'A', 'author_residue_number': 196, 'author_insertion_code': '', 'chem_comp_id': 'PI', 'alternate_conformers': 1, 'entity_id': 4, 'struct_asym_id': 'I', 'residue_number': 1, 'chem_comp_name': 'HYDROGENPHOSPHATE ION', 'weight': 95.979, 'carbohydrate_polymer': False, 'branch_name': ''}, {'chain_id': 'B', 'author_residue_number': 195, 'author_insertion_code': '', 'chem_comp_id': 'PI', 'alternate_conformers': 1, 'entity_id': 4, 'struct_asym_id': 'Q', 'residue_number': 1, 'chem_comp_name': 'HYDROGENPHOSPHATE ION', 'weight': 95.979, 'carbohydrate_polymer': False, 'branch_name': ''}, {'chain_id': 'A', 'author_residue_number': 197, 'author_insertion_code': '', 'chem_comp_id': 'NH4', 'alternate_conformers': 2, 'entity_id': 5, 'struct_asym_id': 'J', 'residue_number': 1, 'chem_comp_name': 'AMMONIUM ION', 'weight': 18.038, 'carbohydrate_polymer': False, 'branch_name': ''}, {'chain_id': 'A', 'author_residue_number': 198, 'author_insertion_code': '', 'chem_comp_id': 'NH4', 'alternate_conformers': 0, 'entity_id': 5, 'struct_asym_id': 'K', 'residue_number': 1, 'chem_comp_name': 'AMMONIUM ION', 'weight': 18.038, 'carbohydrate_polymer': False, 'branch_name': ''}]

>  <ligand_codes>  (5) 
['XNV', 'XNV', 'EDO', 'EDO', 'EDO', 'EDO', 'EDO', 'EDO', 'EDO', 'EDO', 'PI', 'PI', 'PI', 'NH4', 'NH4']

>  <cofactor_codes>  (5) 
[]

>  <has_cofactor>  (5) 
False

>  <covalent>  (5) 
False

>  <base_name>  (5) 
3Q3Y

>  <lig_resn>  (5) 
EDO

>  <lig_resi>  (5) 
191

>  <lig_chain>  (5) 
A

>  <lig_segi>  (5) 
D

>  <lig_alt>  (5) 
B

>  <polymer_chain>  (5) 
A

>  <single_smiles>  (5) 
OCCO

$$$$
EDOยง2
     RDKit          3D

  4  3  0  0  0  0  0  0  0  0999 V2000
   17.7490   -4.2240    1.4990 C   0  0  0  0  0  0  0  0  0  0  0  0
   18.6970   -4.7890    0.5790 O   0  0  0  0  0  0  0  0  0  0  0  0
   18.0300   -4.7900    2.8860 C   0  0  0  0  0  0  0  0  0  0  0  0
   16.8730   -5.4610    3.4060 O   0  0  0  0  0  0  0  0  0  0  0  0
  1  2  1  0
  1  3  1  0
  3  4  1  0
A    1
 C1 
A    2
 O1 
A    3
 C2 
A    4
 O2 
M  END
>  <XChem_code>  (6) 
EDOยง2

>  <Occupancy>  (6) 
[0.5, 0.5, 0.5, 0.5]

>  <TempFactor>  (6) 
[20.23, 20.27, 20.25, 20.2]

>  <accession>  (6) 
3Q3Y_A

>  <description>  (6) 
Chain A, HEVB EV93 3C protease [Enterovirus B]

>  <evalue>  (6) 
1.14606e-87

>  <pdb_code>  (6) 
3Q3Y

>  <chain>  (6) 
A

>  <ligands>  (6) 
[{'chain_id': 'A', 'author_residue_number': 190, 'author_insertion_code': '', 'chem_comp_id': 'XNV', 'alternate_conformers': 2, 'entity_id': 2, 'struct_asym_id': 'C', 'residue_number': 1, 'chem_comp_name': 'ethyl (4R)-4-({(2S)-2-[3-{[(5-methyl-1,2-oxazol-3-yl)carbonyl]amino}-2-oxopyridin-1(2H)-yl]pent-4-ynoyl}amino)-5-[(3S)-2-oxopyrrolidin-3-yl]pentanoate', 'weight': 525.554, 'carbohydrate_polymer': False, 'branch_name': ''}, {'chain_id': 'B', 'author_residue_number': 190, 'author_insertion_code': '', 'chem_comp_id': 'XNV', 'alternate_conformers': 2, 'entity_id': 2, 'struct_asym_id': 'L', 'residue_number': 1, 'chem_comp_name': 'ethyl (4R)-4-({(2S)-2-[3-{[(5-methyl-1,2-oxazol-3-yl)carbonyl]amino}-2-oxopyridin-1(2H)-yl]pent-4-ynoyl}amino)-5-[(3S)-2-oxopyrrolidin-3-yl]pentanoate', 'weight': 525.554, 'carbohydrate_polymer': False, 'branch_name': ''}, {'chain_id': 'A', 'author_residue_number': 191, 'author_insertion_code': '', 'chem_comp_id': 'EDO', 'alternate_conformers': 2, 'entity_id': 3, 'struct_asym_id': 'D', 'residue_number': 1, 'chem_comp_name': '1,2-ETHANEDIOL', 'weight': 62.068, 'carbohydrate_polymer': False, 'branch_name': ''}, {'chain_id': 'A', 'author_residue_number': 192, 'author_insertion_code': '', 'chem_comp_id': 'EDO', 'alternate_conformers': 2, 'entity_id': 3, 'struct_asym_id': 'E', 'residue_number': 1, 'chem_comp_name': '1,2-ETHANEDIOL', 'weight': 62.068, 'carbohydrate_polymer': False, 'branch_name': ''}, {'chain_id': 'A', 'author_residue_number': 193, 'author_insertion_code': '', 'chem_comp_id': 'EDO', 'alternate_conformers': 0, 'entity_id': 3, 'struct_asym_id': 'F', 'residue_number': 1, 'chem_comp_name': '1,2-ETHANEDIOL', 'weight': 62.068, 'carbohydrate_polymer': False, 'branch_name': ''}, {'chain_id': 'A', 'author_residue_number': 194, 'author_insertion_code': '', 'chem_comp_id': 'EDO', 'alternate_conformers': 1, 'entity_id': 3, 'struct_asym_id': 'G', 'residue_number': 1, 'chem_comp_name': '1,2-ETHANEDIOL', 'weight': 62.068, 'carbohydrate_polymer': False, 'branch_name': ''}, {'chain_id': 'B', 'author_residue_number': 191, 'author_insertion_code': '', 'chem_comp_id': 'EDO', 'alternate_conformers': 2, 'entity_id': 3, 'struct_asym_id': 'M', 'residue_number': 1, 'chem_comp_name': '1,2-ETHANEDIOL', 'weight': 62.068, 'carbohydrate_polymer': False, 'branch_name': ''}, {'chain_id': 'B', 'author_residue_number': 192, 'author_insertion_code': '', 'chem_comp_id': 'EDO', 'alternate_conformers': 0, 'entity_id': 3, 'struct_asym_id': 'N', 'residue_number': 1, 'chem_comp_name': '1,2-ETHANEDIOL', 'weight': 62.068, 'carbohydrate_polymer': False, 'branch_name': ''}, {'chain_id': 'B', 'author_residue_number': 193, 'author_insertion_code': '', 'chem_comp_id': 'EDO', 'alternate_conformers': 2, 'entity_id': 3, 'struct_asym_id': 'O', 'residue_number': 1, 'chem_comp_name': '1,2-ETHANEDIOL', 'weight': 62.068, 'carbohydrate_polymer': False, 'branch_name': ''}, {'chain_id': 'B', 'author_residue_number': 194, 'author_insertion_code': '', 'chem_comp_id': 'EDO', 'alternate_conformers': 1, 'entity_id': 3, 'struct_asym_id': 'P', 'residue_number': 1, 'chem_comp_name': '1,2-ETHANEDIOL', 'weight': 62.068, 'carbohydrate_polymer': False, 'branch_name': ''}, {'chain_id': 'A', 'author_residue_number': 195, 'author_insertion_code': '', 'chem_comp_id': 'PI', 'alternate_conformers': 1, 'entity_id': 4, 'struct_asym_id': 'H', 'residue_number': 1, 'chem_comp_name': 'HYDROGENPHOSPHATE ION', 'weight': 95.979, 'carbohydrate_polymer': False, 'branch_name': ''}, {'chain_id': 'A', 'author_residue_number': 196, 'author_insertion_code': '', 'chem_comp_id': 'PI', 'alternate_conformers': 1, 'entity_id': 4, 'struct_asym_id': 'I', 'residue_number': 1, 'chem_comp_name': 'HYDROGENPHOSPHATE ION', 'weight': 95.979, 'carbohydrate_polymer': False, 'branch_name': ''}, {'chain_id': 'B', 'author_residue_number': 195, 'author_insertion_code': '', 'chem_comp_id': 'PI', 'alternate_conformers': 1, 'entity_id': 4, 'struct_asym_id': 'Q', 'residue_number': 1, 'chem_comp_name': 'HYDROGENPHOSPHATE ION', 'weight': 95.979, 'carbohydrate_polymer': False, 'branch_name': ''}, {'chain_id': 'A', 'author_residue_number': 197, 'author_insertion_code': '', 'chem_comp_id': 'NH4', 'alternate_conformers': 2, 'entity_id': 5, 'struct_asym_id': 'J', 'residue_number': 1, 'chem_comp_name': 'AMMONIUM ION', 'weight': 18.038, 'carbohydrate_polymer': False, 'branch_name': ''}, {'chain_id': 'A', 'author_residue_number': 198, 'author_insertion_code': '', 'chem_comp_id': 'NH4', 'alternate_conformers': 0, 'entity_id': 5, 'struct_asym_id': 'K', 'residue_number': 1, 'chem_comp_name': 'AMMONIUM ION', 'weight': 18.038, 'carbohydrate_polymer': False, 'branch_name': ''}]

>  <ligand_codes>  (6) 
['XNV', 'XNV', 'EDO', 'EDO', 'EDO', 'EDO', 'EDO', 'EDO', 'EDO', 'EDO', 'PI', 'PI', 'PI', 'NH4', 'NH4']

>  <cofactor_codes>  (6) 
[]

>  <has_cofactor>  (6) 
False

>  <covalent>  (6) 
False

>  <base_name>  (6) 
3Q3Y

>  <lig_resn>  (6) 
EDO

>  <lig_resi>  (6) 
193

>  <lig_chain>  (6) 
B

>  <lig_segi>  (6) 
O

>  <lig_alt>  (6) 
A

>  <polymer_chain>  (6) 
A

>  <single_smiles>  (6) 
OCCO

$$$$
EDOยง3
     RDKit          3D

  4  3  0  0  0  0  0  0  0  0999 V2000
  -23.1810   -9.3730  -20.8750 C   0  0  0  0  0  0  0  0  0  0  0  0
  -22.5400  -10.6490  -21.0510 O   0  0  0  0  0  0  0  0  0  0  0  0
  -24.6650   -9.4600  -21.2240 C   0  0  0  0  0  0  0  0  0  0  0  0
  -25.3680   -8.2630  -20.8540 O   0  0  0  0  0  0  0  0  0  0  0  0
  1  2  1  0
  1  3  1  0
  3  4  1  0
A    1
 C1 
A    2
 O1 
A    3
 C2 
A    4
 O2 
M  END
>  <XChem_code>  (7) 
EDOยง3

>  <Occupancy>  (7) 
[0.62, 0.62, 0.62, 0.62]

>  <TempFactor>  (7) 
[34.98, 34.76, 36.44, 35.42]

>  <accession>  (7) 
3Q3Y_A

>  <description>  (7) 
Chain A, HEVB EV93 3C protease [Enterovirus B]

>  <evalue>  (7) 
1.14606e-87

>  <pdb_code>  (7) 
3Q3Y

>  <chain>  (7) 
A

>  <ligands>  (7) 
[{'chain_id': 'A', 'author_residue_number': 190, 'author_insertion_code': '', 'chem_comp_id': 'XNV', 'alternate_conformers': 2, 'entity_id': 2, 'struct_asym_id': 'C', 'residue_number': 1, 'chem_comp_name': 'ethyl (4R)-4-({(2S)-2-[3-{[(5-methyl-1,2-oxazol-3-yl)carbonyl]amino}-2-oxopyridin-1(2H)-yl]pent-4-ynoyl}amino)-5-[(3S)-2-oxopyrrolidin-3-yl]pentanoate', 'weight': 525.554, 'carbohydrate_polymer': False, 'branch_name': ''}, {'chain_id': 'B', 'author_residue_number': 190, 'author_insertion_code': '', 'chem_comp_id': 'XNV', 'alternate_conformers': 2, 'entity_id': 2, 'struct_asym_id': 'L', 'residue_number': 1, 'chem_comp_name': 'ethyl (4R)-4-({(2S)-2-[3-{[(5-methyl-1,2-oxazol-3-yl)carbonyl]amino}-2-oxopyridin-1(2H)-yl]pent-4-ynoyl}amino)-5-[(3S)-2-oxopyrrolidin-3-yl]pentanoate', 'weight': 525.554, 'carbohydrate_polymer': False, 'branch_name': ''}, {'chain_id': 'A', 'author_residue_number': 191, 'author_insertion_code': '', 'chem_comp_id': 'EDO', 'alternate_conformers': 2, 'entity_id': 3, 'struct_asym_id': 'D', 'residue_number': 1, 'chem_comp_name': '1,2-ETHANEDIOL', 'weight': 62.068, 'carbohydrate_polymer': False, 'branch_name': ''}, {'chain_id': 'A', 'author_residue_number': 192, 'author_insertion_code': '', 'chem_comp_id': 'EDO', 'alternate_conformers': 2, 'entity_id': 3, 'struct_asym_id': 'E', 'residue_number': 1, 'chem_comp_name': '1,2-ETHANEDIOL', 'weight': 62.068, 'carbohydrate_polymer': False, 'branch_name': ''}, {'chain_id': 'A', 'author_residue_number': 193, 'author_insertion_code': '', 'chem_comp_id': 'EDO', 'alternate_conformers': 0, 'entity_id': 3, 'struct_asym_id': 'F', 'residue_number': 1, 'chem_comp_name': '1,2-ETHANEDIOL', 'weight': 62.068, 'carbohydrate_polymer': False, 'branch_name': ''}, {'chain_id': 'A', 'author_residue_number': 194, 'author_insertion_code': '', 'chem_comp_id': 'EDO', 'alternate_conformers': 1, 'entity_id': 3, 'struct_asym_id': 'G', 'residue_number': 1, 'chem_comp_name': '1,2-ETHANEDIOL', 'weight': 62.068, 'carbohydrate_polymer': False, 'branch_name': ''}, {'chain_id': 'B', 'author_residue_number': 191, 'author_insertion_code': '', 'chem_comp_id': 'EDO', 'alternate_conformers': 2, 'entity_id': 3, 'struct_asym_id': 'M', 'residue_number': 1, 'chem_comp_name': '1,2-ETHANEDIOL', 'weight': 62.068, 'carbohydrate_polymer': False, 'branch_name': ''}, {'chain_id': 'B', 'author_residue_number': 192, 'author_insertion_code': '', 'chem_comp_id': 'EDO', 'alternate_conformers': 0, 'entity_id': 3, 'struct_asym_id': 'N', 'residue_number': 1, 'chem_comp_name': '1,2-ETHANEDIOL', 'weight': 62.068, 'carbohydrate_polymer': False, 'branch_name': ''}, {'chain_id': 'B', 'author_residue_number': 193, 'author_insertion_code': '', 'chem_comp_id': 'EDO', 'alternate_conformers': 2, 'entity_id': 3, 'struct_asym_id': 'O', 'residue_number': 1, 'chem_comp_name': '1,2-ETHANEDIOL', 'weight': 62.068, 'carbohydrate_polymer': False, 'branch_name': ''}, {'chain_id': 'B', 'author_residue_number': 194, 'author_insertion_code': '', 'chem_comp_id': 'EDO', 'alternate_conformers': 1, 'entity_id': 3, 'struct_asym_id': 'P', 'residue_number': 1, 'chem_comp_name': '1,2-ETHANEDIOL', 'weight': 62.068, 'carbohydrate_polymer': False, 'branch_name': ''}, {'chain_id': 'A', 'author_residue_number': 195, 'author_insertion_code': '', 'chem_comp_id': 'PI', 'alternate_conformers': 1, 'entity_id': 4, 'struct_asym_id': 'H', 'residue_number': 1, 'chem_comp_name': 'HYDROGENPHOSPHATE ION', 'weight': 95.979, 'carbohydrate_polymer': False, 'branch_name': ''}, {'chain_id': 'A', 'author_residue_number': 196, 'author_insertion_code': '', 'chem_comp_id': 'PI', 'alternate_conformers': 1, 'entity_id': 4, 'struct_asym_id': 'I', 'residue_number': 1, 'chem_comp_name': 'HYDROGENPHOSPHATE ION', 'weight': 95.979, 'carbohydrate_polymer': False, 'branch_name': ''}, {'chain_id': 'B', 'author_residue_number': 195, 'author_insertion_code': '', 'chem_comp_id': 'PI', 'alternate_conformers': 1, 'entity_id': 4, 'struct_asym_id': 'Q', 'residue_number': 1, 'chem_comp_name': 'HYDROGENPHOSPHATE ION', 'weight': 95.979, 'carbohydrate_polymer': False, 'branch_name': ''}, {'chain_id': 'A', 'author_residue_number': 197, 'author_insertion_code': '', 'chem_comp_id': 'NH4', 'alternate_conformers': 2, 'entity_id': 5, 'struct_asym_id': 'J', 'residue_number': 1, 'chem_comp_name': 'AMMONIUM ION', 'weight': 18.038, 'carbohydrate_polymer': False, 'branch_name': ''}, {'chain_id': 'A', 'author_residue_number': 198, 'author_insertion_code': '', 'chem_comp_id': 'NH4', 'alternate_conformers': 0, 'entity_id': 5, 'struct_asym_id': 'K', 'residue_number': 1, 'chem_comp_name': 'AMMONIUM ION', 'weight': 18.038, 'carbohydrate_polymer': False, 'branch_name': ''}]

>  <ligand_codes>  (7) 
['XNV', 'XNV', 'EDO', 'EDO', 'EDO', 'EDO', 'EDO', 'EDO', 'EDO', 'EDO', 'PI', 'PI', 'PI', 'NH4', 'NH4']

>  <cofactor_codes>  (7) 
[]

>  <has_cofactor>  (7) 
False

>  <covalent>  (7) 
False

>  <base_name>  (7) 
3Q3Y

>  <lig_resn>  (7) 
EDO

>  <lig_resi>  (7) 
194

>  <lig_chain>  (7) 
A

>  <lig_segi>  (7) 
G

>  <lig_alt>  (7) 
A

>  <polymer_chain>  (7) 
A

>  <single_smiles>  (7) 
OCCO

$$$$
EDOยง4
     RDKit          3D

  4  3  0  0  0  0  0  0  0  0999 V2000
   17.9110   -5.1530    1.8610 C   0  0  0  0  0  0  0  0  0  0  0  0
   18.4950   -4.3100    0.8650 O   0  0  0  0  0  0  0  0  0  0  0  0
   16.4430   -4.7610    1.9700 C   0  0  0  0  0  0  0  0  0  0  0  0
   15.6390   -5.7800    2.5570 O   0  0  0  0  0  0  0  0  0  0  0  0
  1  2  1  0
  1  3  1  0
  3  4  1  0
A    1
 C1 
A    2
 O1 
A    3
 C2 
A    4
 O2 
M  END
>  <XChem_code>  (8) 
EDOยง4

>  <Occupancy>  (8) 
[0.5, 0.5, 0.5, 0.5]

>  <TempFactor>  (8) 
[20.2, 20.27, 20.23, 20.22]

>  <accession>  (8) 
3Q3Y_A

>  <description>  (8) 
Chain A, HEVB EV93 3C protease [Enterovirus B]

>  <evalue>  (8) 
1.14606e-87

>  <pdb_code>  (8) 
3Q3Y

>  <chain>  (8) 
A

>  <ligands>  (8) 
[{'chain_id': 'A', 'author_residue_number': 190, 'author_insertion_code': '', 'chem_comp_id': 'XNV', 'alternate_conformers': 2, 'entity_id': 2, 'struct_asym_id': 'C', 'residue_number': 1, 'chem_comp_name': 'ethyl (4R)-4-({(2S)-2-[3-{[(5-methyl-1,2-oxazol-3-yl)carbonyl]amino}-2-oxopyridin-1(2H)-yl]pent-4-ynoyl}amino)-5-[(3S)-2-oxopyrrolidin-3-yl]pentanoate', 'weight': 525.554, 'carbohydrate_polymer': False, 'branch_name': ''}, {'chain_id': 'B', 'author_residue_number': 190, 'author_insertion_code': '', 'chem_comp_id': 'XNV', 'alternate_conformers': 2, 'entity_id': 2, 'struct_asym_id': 'L', 'residue_number': 1, 'chem_comp_name': 'ethyl (4R)-4-({(2S)-2-[3-{[(5-methyl-1,2-oxazol-3-yl)carbonyl]amino}-2-oxopyridin-1(2H)-yl]pent-4-ynoyl}amino)-5-[(3S)-2-oxopyrrolidin-3-yl]pentanoate', 'weight': 525.554, 'carbohydrate_polymer': False, 'branch_name': ''}, {'chain_id': 'A', 'author_residue_number': 191, 'author_insertion_code': '', 'chem_comp_id': 'EDO', 'alternate_conformers': 2, 'entity_id': 3, 'struct_asym_id': 'D', 'residue_number': 1, 'chem_comp_name': '1,2-ETHANEDIOL', 'weight': 62.068, 'carbohydrate_polymer': False, 'branch_name': ''}, {'chain_id': 'A', 'author_residue_number': 192, 'author_insertion_code': '', 'chem_comp_id': 'EDO', 'alternate_conformers': 2, 'entity_id': 3, 'struct_asym_id': 'E', 'residue_number': 1, 'chem_comp_name': '1,2-ETHANEDIOL', 'weight': 62.068, 'carbohydrate_polymer': False, 'branch_name': ''}, {'chain_id': 'A', 'author_residue_number': 193, 'author_insertion_code': '', 'chem_comp_id': 'EDO', 'alternate_conformers': 0, 'entity_id': 3, 'struct_asym_id': 'F', 'residue_number': 1, 'chem_comp_name': '1,2-ETHANEDIOL', 'weight': 62.068, 'carbohydrate_polymer': False, 'branch_name': ''}, {'chain_id': 'A', 'author_residue_number': 194, 'author_insertion_code': '', 'chem_comp_id': 'EDO', 'alternate_conformers': 1, 'entity_id': 3, 'struct_asym_id': 'G', 'residue_number': 1, 'chem_comp_name': '1,2-ETHANEDIOL', 'weight': 62.068, 'carbohydrate_polymer': False, 'branch_name': ''}, {'chain_id': 'B', 'author_residue_number': 191, 'author_insertion_code': '', 'chem_comp_id': 'EDO', 'alternate_conformers': 2, 'entity_id': 3, 'struct_asym_id': 'M', 'residue_number': 1, 'chem_comp_name': '1,2-ETHANEDIOL', 'weight': 62.068, 'carbohydrate_polymer': False, 'branch_name': ''}, {'chain_id': 'B', 'author_residue_number': 192, 'author_insertion_code': '', 'chem_comp_id': 'EDO', 'alternate_conformers': 0, 'entity_id': 3, 'struct_asym_id': 'N', 'residue_number': 1, 'chem_comp_name': '1,2-ETHANEDIOL', 'weight': 62.068, 'carbohydrate_polymer': False, 'branch_name': ''}, {'chain_id': 'B', 'author_residue_number': 193, 'author_insertion_code': '', 'chem_comp_id': 'EDO', 'alternate_conformers': 2, 'entity_id': 3, 'struct_asym_id': 'O', 'residue_number': 1, 'chem_comp_name': '1,2-ETHANEDIOL', 'weight': 62.068, 'carbohydrate_polymer': False, 'branch_name': ''}, {'chain_id': 'B', 'author_residue_number': 194, 'author_insertion_code': '', 'chem_comp_id': 'EDO', 'alternate_conformers': 1, 'entity_id': 3, 'struct_asym_id': 'P', 'residue_number': 1, 'chem_comp_name': '1,2-ETHANEDIOL', 'weight': 62.068, 'carbohydrate_polymer': False, 'branch_name': ''}, {'chain_id': 'A', 'author_residue_number': 195, 'author_insertion_code': '', 'chem_comp_id': 'PI', 'alternate_conformers': 1, 'entity_id': 4, 'struct_asym_id': 'H', 'residue_number': 1, 'chem_comp_name': 'HYDROGENPHOSPHATE ION', 'weight': 95.979, 'carbohydrate_polymer': False, 'branch_name': ''}, {'chain_id': 'A', 'author_residue_number': 196, 'author_insertion_code': '', 'chem_comp_id': 'PI', 'alternate_conformers': 1, 'entity_id': 4, 'struct_asym_id': 'I', 'residue_number': 1, 'chem_comp_name': 'HYDROGENPHOSPHATE ION', 'weight': 95.979, 'carbohydrate_polymer': False, 'branch_name': ''}, {'chain_id': 'B', 'author_residue_number': 195, 'author_insertion_code': '', 'chem_comp_id': 'PI', 'alternate_conformers': 1, 'entity_id': 4, 'struct_asym_id': 'Q', 'residue_number': 1, 'chem_comp_name': 'HYDROGENPHOSPHATE ION', 'weight': 95.979, 'carbohydrate_polymer': False, 'branch_name': ''}, {'chain_id': 'A', 'author_residue_number': 197, 'author_insertion_code': '', 'chem_comp_id': 'NH4', 'alternate_conformers': 2, 'entity_id': 5, 'struct_asym_id': 'J', 'residue_number': 1, 'chem_comp_name': 'AMMONIUM ION', 'weight': 18.038, 'carbohydrate_polymer': False, 'branch_name': ''}, {'chain_id': 'A', 'author_residue_number': 198, 'author_insertion_code': '', 'chem_comp_id': 'NH4', 'alternate_conformers': 0, 'entity_id': 5, 'struct_asym_id': 'K', 'residue_number': 1, 'chem_comp_name': 'AMMONIUM ION', 'weight': 18.038, 'carbohydrate_polymer': False, 'branch_name': ''}]

>  <ligand_codes>  (8) 
['XNV', 'XNV', 'EDO', 'EDO', 'EDO', 'EDO', 'EDO', 'EDO', 'EDO', 'EDO', 'PI', 'PI', 'PI', 'NH4', 'NH4']

>  <cofactor_codes>  (8) 
[]

>  <has_cofactor>  (8) 
False

>  <covalent>  (8) 
False

>  <base_name>  (8) 
3Q3Y

>  <lig_resn>  (8) 
EDO

>  <lig_resi>  (8) 
193

>  <lig_chain>  (8) 
B

>  <lig_segi>  (8) 
O

>  <lig_alt>  (8) 
B

>  <polymer_chain>  (8) 
A

>  <single_smiles>  (8) 
OCCO

$$$$
EDOยง5
     RDKit          3D

  4  3  0  0  0  0  0  0  0  0999 V2000
   -9.2720   15.7960  -39.3710 C   0  0  0  0  0  0  0  0  0  0  0  0
  -10.6280   16.2660  -39.3400 O   0  0  0  0  0  0  0  0  0  0  0  0
   -9.1810   14.3120  -39.1120 C   0  0  0  0  0  0  0  0  0  0  0  0
   -7.8180   13.8590  -39.0590 O   0  0  0  0  0  0  0  0  0  0  0  0
  1  2  1  0
  1  3  1  0
  3  4  1  0
A    1
 C1 
A    2
 O1 
A    3
 C2 
A    4
 O2 
M  END
>  <XChem_code>  (9) 
EDOยง5

>  <Occupancy>  (9) 
[0.65, 0.65, 0.65, 0.65]

>  <TempFactor>  (9) 
[32.81, 31.23, 32.84, 28.15]

>  <accession>  (9) 
3Q3Y_A

>  <description>  (9) 
Chain A, HEVB EV93 3C protease [Enterovirus B]

>  <evalue>  (9) 
1.14606e-87

>  <pdb_code>  (9) 
3Q3Y

>  <chain>  (9) 
A

>  <ligands>  (9) 
[{'chain_id': 'A', 'author_residue_number': 190, 'author_insertion_code': '', 'chem_comp_id': 'XNV', 'alternate_conformers': 2, 'entity_id': 2, 'struct_asym_id': 'C', 'residue_number': 1, 'chem_comp_name': 'ethyl (4R)-4-({(2S)-2-[3-{[(5-methyl-1,2-oxazol-3-yl)carbonyl]amino}-2-oxopyridin-1(2H)-yl]pent-4-ynoyl}amino)-5-[(3S)-2-oxopyrrolidin-3-yl]pentanoate', 'weight': 525.554, 'carbohydrate_polymer': False, 'branch_name': ''}, {'chain_id': 'B', 'author_residue_number': 190, 'author_insertion_code': '', 'chem_comp_id': 'XNV', 'alternate_conformers': 2, 'entity_id': 2, 'struct_asym_id': 'L', 'residue_number': 1, 'chem_comp_name': 'ethyl (4R)-4-({(2S)-2-[3-{[(5-methyl-1,2-oxazol-3-yl)carbonyl]amino}-2-oxopyridin-1(2H)-yl]pent-4-ynoyl}amino)-5-[(3S)-2-oxopyrrolidin-3-yl]pentanoate', 'weight': 525.554, 'carbohydrate_polymer': False, 'branch_name': ''}, {'chain_id': 'A', 'author_residue_number': 191, 'author_insertion_code': '', 'chem_comp_id': 'EDO', 'alternate_conformers': 2, 'entity_id': 3, 'struct_asym_id': 'D', 'residue_number': 1, 'chem_comp_name': '1,2-ETHANEDIOL', 'weight': 62.068, 'carbohydrate_polymer': False, 'branch_name': ''}, {'chain_id': 'A', 'author_residue_number': 192, 'author_insertion_code': '', 'chem_comp_id': 'EDO', 'alternate_conformers': 2, 'entity_id': 3, 'struct_asym_id': 'E', 'residue_number': 1, 'chem_comp_name': '1,2-ETHANEDIOL', 'weight': 62.068, 'carbohydrate_polymer': False, 'branch_name': ''}, {'chain_id': 'A', 'author_residue_number': 193, 'author_insertion_code': '', 'chem_comp_id': 'EDO', 'alternate_conformers': 0, 'entity_id': 3, 'struct_asym_id': 'F', 'residue_number': 1, 'chem_comp_name': '1,2-ETHANEDIOL', 'weight': 62.068, 'carbohydrate_polymer': False, 'branch_name': ''}, {'chain_id': 'A', 'author_residue_number': 194, 'author_insertion_code': '', 'chem_comp_id': 'EDO', 'alternate_conformers': 1, 'entity_id': 3, 'struct_asym_id': 'G', 'residue_number': 1, 'chem_comp_name': '1,2-ETHANEDIOL', 'weight': 62.068, 'carbohydrate_polymer': False, 'branch_name': ''}, {'chain_id': 'B', 'author_residue_number': 191, 'author_insertion_code': '', 'chem_comp_id': 'EDO', 'alternate_conformers': 2, 'entity_id': 3, 'struct_asym_id': 'M', 'residue_number': 1, 'chem_comp_name': '1,2-ETHANEDIOL', 'weight': 62.068, 'carbohydrate_polymer': False, 'branch_name': ''}, {'chain_id': 'B', 'author_residue_number': 192, 'author_insertion_code': '', 'chem_comp_id': 'EDO', 'alternate_conformers': 0, 'entity_id': 3, 'struct_asym_id': 'N', 'residue_number': 1, 'chem_comp_name': '1,2-ETHANEDIOL', 'weight': 62.068, 'carbohydrate_polymer': False, 'branch_name': ''}, {'chain_id': 'B', 'author_residue_number': 193, 'author_insertion_code': '', 'chem_comp_id': 'EDO', 'alternate_conformers': 2, 'entity_id': 3, 'struct_asym_id': 'O', 'residue_number': 1, 'chem_comp_name': '1,2-ETHANEDIOL', 'weight': 62.068, 'carbohydrate_polymer': False, 'branch_name': ''}, {'chain_id': 'B', 'author_residue_number': 194, 'author_insertion_code': '', 'chem_comp_id': 'EDO', 'alternate_conformers': 1, 'entity_id': 3, 'struct_asym_id': 'P', 'residue_number': 1, 'chem_comp_name': '1,2-ETHANEDIOL', 'weight': 62.068, 'carbohydrate_polymer': False, 'branch_name': ''}, {'chain_id': 'A', 'author_residue_number': 195, 'author_insertion_code': '', 'chem_comp_id': 'PI', 'alternate_conformers': 1, 'entity_id': 4, 'struct_asym_id': 'H', 'residue_number': 1, 'chem_comp_name': 'HYDROGENPHOSPHATE ION', 'weight': 95.979, 'carbohydrate_polymer': False, 'branch_name': ''}, {'chain_id': 'A', 'author_residue_number': 196, 'author_insertion_code': '', 'chem_comp_id': 'PI', 'alternate_conformers': 1, 'entity_id': 4, 'struct_asym_id': 'I', 'residue_number': 1, 'chem_comp_name': 'HYDROGENPHOSPHATE ION', 'weight': 95.979, 'carbohydrate_polymer': False, 'branch_name': ''}, {'chain_id': 'B', 'author_residue_number': 195, 'author_insertion_code': '', 'chem_comp_id': 'PI', 'alternate_conformers': 1, 'entity_id': 4, 'struct_asym_id': 'Q', 'residue_number': 1, 'chem_comp_name': 'HYDROGENPHOSPHATE ION', 'weight': 95.979, 'carbohydrate_polymer': False, 'branch_name': ''}, {'chain_id': 'A', 'author_residue_number': 197, 'author_insertion_code': '', 'chem_comp_id': 'NH4', 'alternate_conformers': 2, 'entity_id': 5, 'struct_asym_id': 'J', 'residue_number': 1, 'chem_comp_name': 'AMMONIUM ION', 'weight': 18.038, 'carbohydrate_polymer': False, 'branch_name': ''}, {'chain_id': 'A', 'author_residue_number': 198, 'author_insertion_code': '', 'chem_comp_id': 'NH4', 'alternate_conformers': 0, 'entity_id': 5, 'struct_asym_id': 'K', 'residue_number': 1, 'chem_comp_name': 'AMMONIUM ION', 'weight': 18.038, 'carbohydrate_polymer': False, 'branch_name': ''}]

>  <ligand_codes>  (9) 
['XNV', 'XNV', 'EDO', 'EDO', 'EDO', 'EDO', 'EDO', 'EDO', 'EDO', 'EDO', 'PI', 'PI', 'PI', 'NH4', 'NH4']

>  <cofactor_codes>  (9) 
[]

>  <has_cofactor>  (9) 
False

>  <covalent>  (9) 
False

>  <base_name>  (9) 
3Q3Y

>  <lig_resn>  (9) 
EDO

>  <lig_resi>  (9) 
193

>  <lig_chain>  (9) 
A

>  <lig_segi>  (9) 
F

>  <lig_alt>  (9) 


>  <polymer_chain>  (9) 
A

>  <single_smiles>  (9) 
OCCO

$$$$
EDOยง6
     RDKit          3D

  4  3  0  0  0  0  0  0  0  0999 V2000
   17.3910    8.2260  -19.1140 C   0  0  0  0  0  0  0  0  0  0  0  0
   17.1210    9.5540  -19.5710 O   0  0  0  0  0  0  0  0  0  0  0  0
   17.7360    8.2360  -17.6370 C   0  0  0  0  0  0  0  0  0  0  0  0
   19.1590    8.2730  -17.5020 O   0  0  0  0  0  0  0  0  0  0  0  0
  1  2  1  0
  1  3  1  0
  3  4  1  0
A    1
 C1 
A    2
 O1 
A    3
 C2 
A    4
 O2 
M  END
>  <XChem_code>  (10) 
EDOยง6

>  <Occupancy>  (10) 
[1.0, 1.0, 1.0, 1.0]

>  <TempFactor>  (10) 
[60.98, 54.23, 63.98, 55.61]

>  <accession>  (10) 
3Q3Y_A

>  <description>  (10) 
Chain A, HEVB EV93 3C protease [Enterovirus B]

>  <evalue>  (10) 
1.14606e-87

>  <pdb_code>  (10) 
3Q3Y

>  <chain>  (10) 
A

>  <ligands>  (10) 
[{'chain_id': 'A', 'author_residue_number': 190, 'author_insertion_code': '', 'chem_comp_id': 'XNV', 'alternate_conformers': 2, 'entity_id': 2, 'struct_asym_id': 'C', 'residue_number': 1, 'chem_comp_name': 'ethyl (4R)-4-({(2S)-2-[3-{[(5-methyl-1,2-oxazol-3-yl)carbonyl]amino}-2-oxopyridin-1(2H)-yl]pent-4-ynoyl}amino)-5-[(3S)-2-oxopyrrolidin-3-yl]pentanoate', 'weight': 525.554, 'carbohydrate_polymer': False, 'branch_name': ''}, {'chain_id': 'B', 'author_residue_number': 190, 'author_insertion_code': '', 'chem_comp_id': 'XNV', 'alternate_conformers': 2, 'entity_id': 2, 'struct_asym_id': 'L', 'residue_number': 1, 'chem_comp_name': 'ethyl (4R)-4-({(2S)-2-[3-{[(5-methyl-1,2-oxazol-3-yl)carbonyl]amino}-2-oxopyridin-1(2H)-yl]pent-4-ynoyl}amino)-5-[(3S)-2-oxopyrrolidin-3-yl]pentanoate', 'weight': 525.554, 'carbohydrate_polymer': False, 'branch_name': ''}, {'chain_id': 'A', 'author_residue_number': 191, 'author_insertion_code': '', 'chem_comp_id': 'EDO', 'alternate_conformers': 2, 'entity_id': 3, 'struct_asym_id': 'D', 'residue_number': 1, 'chem_comp_name': '1,2-ETHANEDIOL', 'weight': 62.068, 'carbohydrate_polymer': False, 'branch_name': ''}, {'chain_id': 'A', 'author_residue_number': 192, 'author_insertion_code': '', 'chem_comp_id': 'EDO', 'alternate_conformers': 2, 'entity_id': 3, 'struct_asym_id': 'E', 'residue_number': 1, 'chem_comp_name': '1,2-ETHANEDIOL', 'weight': 62.068, 'carbohydrate_polymer': False, 'branch_name': ''}, {'chain_id': 'A', 'author_residue_number': 193, 'author_insertion_code': '', 'chem_comp_id': 'EDO', 'alternate_conformers': 0, 'entity_id': 3, 'struct_asym_id': 'F', 'residue_number': 1, 'chem_comp_name': '1,2-ETHANEDIOL', 'weight': 62.068, 'carbohydrate_polymer': False, 'branch_name': ''}, {'chain_id': 'A', 'author_residue_number': 194, 'author_insertion_code': '', 'chem_comp_id': 'EDO', 'alternate_conformers': 1, 'entity_id': 3, 'struct_asym_id': 'G', 'residue_number': 1, 'chem_comp_name': '1,2-ETHANEDIOL', 'weight': 62.068, 'carbohydrate_polymer': False, 'branch_name': ''}, {'chain_id': 'B', 'author_residue_number': 191, 'author_insertion_code': '', 'chem_comp_id': 'EDO', 'alternate_conformers': 2, 'entity_id': 3, 'struct_asym_id': 'M', 'residue_number': 1, 'chem_comp_name': '1,2-ETHANEDIOL', 'weight': 62.068, 'carbohydrate_polymer': False, 'branch_name': ''}, {'chain_id': 'B', 'author_residue_number': 192, 'author_insertion_code': '', 'chem_comp_id': 'EDO', 'alternate_conformers': 0, 'entity_id': 3, 'struct_asym_id': 'N', 'residue_number': 1, 'chem_comp_name': '1,2-ETHANEDIOL', 'weight': 62.068, 'carbohydrate_polymer': False, 'branch_name': ''}, {'chain_id': 'B', 'author_residue_number': 193, 'author_insertion_code': '', 'chem_comp_id': 'EDO', 'alternate_conformers': 2, 'entity_id': 3, 'struct_asym_id': 'O', 'residue_number': 1, 'chem_comp_name': '1,2-ETHANEDIOL', 'weight': 62.068, 'carbohydrate_polymer': False, 'branch_name': ''}, {'chain_id': 'B', 'author_residue_number': 194, 'author_insertion_code': '', 'chem_comp_id': 'EDO', 'alternate_conformers': 1, 'entity_id': 3, 'struct_asym_id': 'P', 'residue_number': 1, 'chem_comp_name': '1,2-ETHANEDIOL', 'weight': 62.068, 'carbohydrate_polymer': False, 'branch_name': ''}, {'chain_id': 'A', 'author_residue_number': 195, 'author_insertion_code': '', 'chem_comp_id': 'PI', 'alternate_conformers': 1, 'entity_id': 4, 'struct_asym_id': 'H', 'residue_number': 1, 'chem_comp_name': 'HYDROGENPHOSPHATE ION', 'weight': 95.979, 'carbohydrate_polymer': False, 'branch_name': ''}, {'chain_id': 'A', 'author_residue_number': 196, 'author_insertion_code': '', 'chem_comp_id': 'PI', 'alternate_conformers': 1, 'entity_id': 4, 'struct_asym_id': 'I', 'residue_number': 1, 'chem_comp_name': 'HYDROGENPHOSPHATE ION', 'weight': 95.979, 'carbohydrate_polymer': False, 'branch_name': ''}, {'chain_id': 'B', 'author_residue_number': 195, 'author_insertion_code': '', 'chem_comp_id': 'PI', 'alternate_conformers': 1, 'entity_id': 4, 'struct_asym_id': 'Q', 'residue_number': 1, 'chem_comp_name': 'HYDROGENPHOSPHATE ION', 'weight': 95.979, 'carbohydrate_polymer': False, 'branch_name': ''}, {'chain_id': 'A', 'author_residue_number': 197, 'author_insertion_code': '', 'chem_comp_id': 'NH4', 'alternate_conformers': 2, 'entity_id': 5, 'struct_asym_id': 'J', 'residue_number': 1, 'chem_comp_name': 'AMMONIUM ION', 'weight': 18.038, 'carbohydrate_polymer': False, 'branch_name': ''}, {'chain_id': 'A', 'author_residue_number': 198, 'author_insertion_code': '', 'chem_comp_id': 'NH4', 'alternate_conformers': 0, 'entity_id': 5, 'struct_asym_id': 'K', 'residue_number': 1, 'chem_comp_name': 'AMMONIUM ION', 'weight': 18.038, 'carbohydrate_polymer': False, 'branch_name': ''}]

>  <ligand_codes>  (10) 
['XNV', 'XNV', 'EDO', 'EDO', 'EDO', 'EDO', 'EDO', 'EDO', 'EDO', 'EDO', 'PI', 'PI', 'PI', 'NH4', 'NH4']

>  <cofactor_codes>  (10) 
[]

>  <has_cofactor>  (10) 
False

>  <covalent>  (10) 
False

>  <base_name>  (10) 
3Q3Y

>  <lig_resn>  (10) 
EDO

>  <lig_resi>  (10) 
192

>  <lig_chain>  (10) 
B

>  <lig_segi>  (10) 
N

>  <lig_alt>  (10) 


>  <polymer_chain>  (10) 
A

>  <single_smiles>  (10) 
OCCO

$$$$
EDOยง7
     RDKit          3D

  4  3  0  0  0  0  0  0  0  0999 V2000
   11.9700   16.5070  -11.3630 C   0  0  0  0  0  0  0  0  0  0  0  0
   10.6510   16.4870  -10.8100 O   0  0  0  0  0  0  0  0  0  0  0  0
   12.0070   17.2420  -12.6950 C   0  0  0  0  0  0  0  0  0  0  0  0
   11.7320   16.3370  -13.7600 O   0  0  0  0  0  0  0  0  0  0  0  0
  1  2  1  0
  1  3  1  0
  3  4  1  0
A    1
 C1 
A    2
 O1 
A    3
 C2 
A    4
 O2 
M  END
>  <XChem_code>  (11) 
EDOยง7

>  <Occupancy>  (11) 
[0.52, 0.52, 0.52, 0.52]

>  <TempFactor>  (11) 
[20.23, 20.07, 20.17, 20.21]

>  <accession>  (11) 
3Q3Y_A

>  <description>  (11) 
Chain A, HEVB EV93 3C protease [Enterovirus B]

>  <evalue>  (11) 
1.14606e-87

>  <pdb_code>  (11) 
3Q3Y

>  <chain>  (11) 
A

>  <ligands>  (11) 
[{'chain_id': 'A', 'author_residue_number': 190, 'author_insertion_code': '', 'chem_comp_id': 'XNV', 'alternate_conformers': 2, 'entity_id': 2, 'struct_asym_id': 'C', 'residue_number': 1, 'chem_comp_name': 'ethyl (4R)-4-({(2S)-2-[3-{[(5-methyl-1,2-oxazol-3-yl)carbonyl]amino}-2-oxopyridin-1(2H)-yl]pent-4-ynoyl}amino)-5-[(3S)-2-oxopyrrolidin-3-yl]pentanoate', 'weight': 525.554, 'carbohydrate_polymer': False, 'branch_name': ''}, {'chain_id': 'B', 'author_residue_number': 190, 'author_insertion_code': '', 'chem_comp_id': 'XNV', 'alternate_conformers': 2, 'entity_id': 2, 'struct_asym_id': 'L', 'residue_number': 1, 'chem_comp_name': 'ethyl (4R)-4-({(2S)-2-[3-{[(5-methyl-1,2-oxazol-3-yl)carbonyl]amino}-2-oxopyridin-1(2H)-yl]pent-4-ynoyl}amino)-5-[(3S)-2-oxopyrrolidin-3-yl]pentanoate', 'weight': 525.554, 'carbohydrate_polymer': False, 'branch_name': ''}, {'chain_id': 'A', 'author_residue_number': 191, 'author_insertion_code': '', 'chem_comp_id': 'EDO', 'alternate_conformers': 2, 'entity_id': 3, 'struct_asym_id': 'D', 'residue_number': 1, 'chem_comp_name': '1,2-ETHANEDIOL', 'weight': 62.068, 'carbohydrate_polymer': False, 'branch_name': ''}, {'chain_id': 'A', 'author_residue_number': 192, 'author_insertion_code': '', 'chem_comp_id': 'EDO', 'alternate_conformers': 2, 'entity_id': 3, 'struct_asym_id': 'E', 'residue_number': 1, 'chem_comp_name': '1,2-ETHANEDIOL', 'weight': 62.068, 'carbohydrate_polymer': False, 'branch_name': ''}, {'chain_id': 'A', 'author_residue_number': 193, 'author_insertion_code': '', 'chem_comp_id': 'EDO', 'alternate_conformers': 0, 'entity_id': 3, 'struct_asym_id': 'F', 'residue_number': 1, 'chem_comp_name': '1,2-ETHANEDIOL', 'weight': 62.068, 'carbohydrate_polymer': False, 'branch_name': ''}, {'chain_id': 'A', 'author_residue_number': 194, 'author_insertion_code': '', 'chem_comp_id': 'EDO', 'alternate_conformers': 1, 'entity_id': 3, 'struct_asym_id': 'G', 'residue_number': 1, 'chem_comp_name': '1,2-ETHANEDIOL', 'weight': 62.068, 'carbohydrate_polymer': False, 'branch_name': ''}, {'chain_id': 'B', 'author_residue_number': 191, 'author_insertion_code': '', 'chem_comp_id': 'EDO', 'alternate_conformers': 2, 'entity_id': 3, 'struct_asym_id': 'M', 'residue_number': 1, 'chem_comp_name': '1,2-ETHANEDIOL', 'weight': 62.068, 'carbohydrate_polymer': False, 'branch_name': ''}, {'chain_id': 'B', 'author_residue_number': 192, 'author_insertion_code': '', 'chem_comp_id': 'EDO', 'alternate_conformers': 0, 'entity_id': 3, 'struct_asym_id': 'N', 'residue_number': 1, 'chem_comp_name': '1,2-ETHANEDIOL', 'weight': 62.068, 'carbohydrate_polymer': False, 'branch_name': ''}, {'chain_id': 'B', 'author_residue_number': 193, 'author_insertion_code': '', 'chem_comp_id': 'EDO', 'alternate_conformers': 2, 'entity_id': 3, 'struct_asym_id': 'O', 'residue_number': 1, 'chem_comp_name': '1,2-ETHANEDIOL', 'weight': 62.068, 'carbohydrate_polymer': False, 'branch_name': ''}, {'chain_id': 'B', 'author_residue_number': 194, 'author_insertion_code': '', 'chem_comp_id': 'EDO', 'alternate_conformers': 1, 'entity_id': 3, 'struct_asym_id': 'P', 'residue_number': 1, 'chem_comp_name': '1,2-ETHANEDIOL', 'weight': 62.068, 'carbohydrate_polymer': False, 'branch_name': ''}, {'chain_id': 'A', 'author_residue_number': 195, 'author_insertion_code': '', 'chem_comp_id': 'PI', 'alternate_conformers': 1, 'entity_id': 4, 'struct_asym_id': 'H', 'residue_number': 1, 'chem_comp_name': 'HYDROGENPHOSPHATE ION', 'weight': 95.979, 'carbohydrate_polymer': False, 'branch_name': ''}, {'chain_id': 'A', 'author_residue_number': 196, 'author_insertion_code': '', 'chem_comp_id': 'PI', 'alternate_conformers': 1, 'entity_id': 4, 'struct_asym_id': 'I', 'residue_number': 1, 'chem_comp_name': 'HYDROGENPHOSPHATE ION', 'weight': 95.979, 'carbohydrate_polymer': False, 'branch_name': ''}, {'chain_id': 'B', 'author_residue_number': 195, 'author_insertion_code': '', 'chem_comp_id': 'PI', 'alternate_conformers': 1, 'entity_id': 4, 'struct_asym_id': 'Q', 'residue_number': 1, 'chem_comp_name': 'HYDROGENPHOSPHATE ION', 'weight': 95.979, 'carbohydrate_polymer': False, 'branch_name': ''}, {'chain_id': 'A', 'author_residue_number': 197, 'author_insertion_code': '', 'chem_comp_id': 'NH4', 'alternate_conformers': 2, 'entity_id': 5, 'struct_asym_id': 'J', 'residue_number': 1, 'chem_comp_name': 'AMMONIUM ION', 'weight': 18.038, 'carbohydrate_polymer': False, 'branch_name': ''}, {'chain_id': 'A', 'author_residue_number': 198, 'author_insertion_code': '', 'chem_comp_id': 'NH4', 'alternate_conformers': 0, 'entity_id': 5, 'struct_asym_id': 'K', 'residue_number': 1, 'chem_comp_name': 'AMMONIUM ION', 'weight': 18.038, 'carbohydrate_polymer': False, 'branch_name': ''}]

>  <ligand_codes>  (11) 
['XNV', 'XNV', 'EDO', 'EDO', 'EDO', 'EDO', 'EDO', 'EDO', 'EDO', 'EDO', 'PI', 'PI', 'PI', 'NH4', 'NH4']

>  <cofactor_codes>  (11) 
[]

>  <has_cofactor>  (11) 
False

>  <covalent>  (11) 
False

>  <base_name>  (11) 
3Q3Y

>  <lig_resn>  (11) 
EDO

>  <lig_resi>  (11) 
194

>  <lig_chain>  (11) 
B

>  <lig_segi>  (11) 
P

>  <lig_alt>  (11) 
A

>  <polymer_chain>  (11) 
A

>  <single_smiles>  (11) 
OCCO

$$$$
EDOยง8
     RDKit          3D

  4  3  0  0  0  0  0  0  0  0999 V2000
   16.2430   -7.2690   -2.7180 C   0  0  0  0  0  0  0  0  0  0  0  0
   15.8570   -7.7890   -1.4450 O   0  0  0  0  0  0  0  0  0  0  0  0
   17.3720   -8.1090   -3.2980 C   0  0  0  0  0  0  0  0  0  0  0  0
   18.4870   -8.1000   -2.4020 O   0  0  0  0  0  0  0  0  0  0  0  0
  1  2  1  0
  1  3  1  0
  3  4  1  0
A    1
 C1 
A    2
 O1 
A    3
 C2 
A    4
 O2 
M  END
>  <XChem_code>  (12) 
EDOยง8

>  <Occupancy>  (12) 
[0.54, 0.54, 0.54, 0.54]

>  <TempFactor>  (12) 
[45.2, 35.76, 48.93, 46.59]

>  <accession>  (12) 
3Q3Y_A

>  <description>  (12) 
Chain A, HEVB EV93 3C protease [Enterovirus B]

>  <evalue>  (12) 
1.14606e-87

>  <pdb_code>  (12) 
3Q3Y

>  <chain>  (12) 
A

>  <ligands>  (12) 
[{'chain_id': 'A', 'author_residue_number': 190, 'author_insertion_code': '', 'chem_comp_id': 'XNV', 'alternate_conformers': 2, 'entity_id': 2, 'struct_asym_id': 'C', 'residue_number': 1, 'chem_comp_name': 'ethyl (4R)-4-({(2S)-2-[3-{[(5-methyl-1,2-oxazol-3-yl)carbonyl]amino}-2-oxopyridin-1(2H)-yl]pent-4-ynoyl}amino)-5-[(3S)-2-oxopyrrolidin-3-yl]pentanoate', 'weight': 525.554, 'carbohydrate_polymer': False, 'branch_name': ''}, {'chain_id': 'B', 'author_residue_number': 190, 'author_insertion_code': '', 'chem_comp_id': 'XNV', 'alternate_conformers': 2, 'entity_id': 2, 'struct_asym_id': 'L', 'residue_number': 1, 'chem_comp_name': 'ethyl (4R)-4-({(2S)-2-[3-{[(5-methyl-1,2-oxazol-3-yl)carbonyl]amino}-2-oxopyridin-1(2H)-yl]pent-4-ynoyl}amino)-5-[(3S)-2-oxopyrrolidin-3-yl]pentanoate', 'weight': 525.554, 'carbohydrate_polymer': False, 'branch_name': ''}, {'chain_id': 'A', 'author_residue_number': 191, 'author_insertion_code': '', 'chem_comp_id': 'EDO', 'alternate_conformers': 2, 'entity_id': 3, 'struct_asym_id': 'D', 'residue_number': 1, 'chem_comp_name': '1,2-ETHANEDIOL', 'weight': 62.068, 'carbohydrate_polymer': False, 'branch_name': ''}, {'chain_id': 'A', 'author_residue_number': 192, 'author_insertion_code': '', 'chem_comp_id': 'EDO', 'alternate_conformers': 2, 'entity_id': 3, 'struct_asym_id': 'E', 'residue_number': 1, 'chem_comp_name': '1,2-ETHANEDIOL', 'weight': 62.068, 'carbohydrate_polymer': False, 'branch_name': ''}, {'chain_id': 'A', 'author_residue_number': 193, 'author_insertion_code': '', 'chem_comp_id': 'EDO', 'alternate_conformers': 0, 'entity_id': 3, 'struct_asym_id': 'F', 'residue_number': 1, 'chem_comp_name': '1,2-ETHANEDIOL', 'weight': 62.068, 'carbohydrate_polymer': False, 'branch_name': ''}, {'chain_id': 'A', 'author_residue_number': 194, 'author_insertion_code': '', 'chem_comp_id': 'EDO', 'alternate_conformers': 1, 'entity_id': 3, 'struct_asym_id': 'G', 'residue_number': 1, 'chem_comp_name': '1,2-ETHANEDIOL', 'weight': 62.068, 'carbohydrate_polymer': False, 'branch_name': ''}, {'chain_id': 'B', 'author_residue_number': 191, 'author_insertion_code': '', 'chem_comp_id': 'EDO', 'alternate_conformers': 2, 'entity_id': 3, 'struct_asym_id': 'M', 'residue_number': 1, 'chem_comp_name': '1,2-ETHANEDIOL', 'weight': 62.068, 'carbohydrate_polymer': False, 'branch_name': ''}, {'chain_id': 'B', 'author_residue_number': 192, 'author_insertion_code': '', 'chem_comp_id': 'EDO', 'alternate_conformers': 0, 'entity_id': 3, 'struct_asym_id': 'N', 'residue_number': 1, 'chem_comp_name': '1,2-ETHANEDIOL', 'weight': 62.068, 'carbohydrate_polymer': False, 'branch_name': ''}, {'chain_id': 'B', 'author_residue_number': 193, 'author_insertion_code': '', 'chem_comp_id': 'EDO', 'alternate_conformers': 2, 'entity_id': 3, 'struct_asym_id': 'O', 'residue_number': 1, 'chem_comp_name': '1,2-ETHANEDIOL', 'weight': 62.068, 'carbohydrate_polymer': False, 'branch_name': ''}, {'chain_id': 'B', 'author_residue_number': 194, 'author_insertion_code': '', 'chem_comp_id': 'EDO', 'alternate_conformers': 1, 'entity_id': 3, 'struct_asym_id': 'P', 'residue_number': 1, 'chem_comp_name': '1,2-ETHANEDIOL', 'weight': 62.068, 'carbohydrate_polymer': False, 'branch_name': ''}, {'chain_id': 'A', 'author_residue_number': 195, 'author_insertion_code': '', 'chem_comp_id': 'PI', 'alternate_conformers': 1, 'entity_id': 4, 'struct_asym_id': 'H', 'residue_number': 1, 'chem_comp_name': 'HYDROGENPHOSPHATE ION', 'weight': 95.979, 'carbohydrate_polymer': False, 'branch_name': ''}, {'chain_id': 'A', 'author_residue_number': 196, 'author_insertion_code': '', 'chem_comp_id': 'PI', 'alternate_conformers': 1, 'entity_id': 4, 'struct_asym_id': 'I', 'residue_number': 1, 'chem_comp_name': 'HYDROGENPHOSPHATE ION', 'weight': 95.979, 'carbohydrate_polymer': False, 'branch_name': ''}, {'chain_id': 'B', 'author_residue_number': 195, 'author_insertion_code': '', 'chem_comp_id': 'PI', 'alternate_conformers': 1, 'entity_id': 4, 'struct_asym_id': 'Q', 'residue_number': 1, 'chem_comp_name': 'HYDROGENPHOSPHATE ION', 'weight': 95.979, 'carbohydrate_polymer': False, 'branch_name': ''}, {'chain_id': 'A', 'author_residue_number': 197, 'author_insertion_code': '', 'chem_comp_id': 'NH4', 'alternate_conformers': 2, 'entity_id': 5, 'struct_asym_id': 'J', 'residue_number': 1, 'chem_comp_name': 'AMMONIUM ION', 'weight': 18.038, 'carbohydrate_polymer': False, 'branch_name': ''}, {'chain_id': 'A', 'author_residue_number': 198, 'author_insertion_code': '', 'chem_comp_id': 'NH4', 'alternate_conformers': 0, 'entity_id': 5, 'struct_asym_id': 'K', 'residue_number': 1, 'chem_comp_name': 'AMMONIUM ION', 'weight': 18.038, 'carbohydrate_polymer': False, 'branch_name': ''}]

>  <ligand_codes>  (12) 
['XNV', 'XNV', 'EDO', 'EDO', 'EDO', 'EDO', 'EDO', 'EDO', 'EDO', 'EDO', 'PI', 'PI', 'PI', 'NH4', 'NH4']

>  <cofactor_codes>  (12) 
[]

>  <has_cofactor>  (12) 
False

>  <covalent>  (12) 
False

>  <base_name>  (12) 
3Q3Y

>  <lig_resn>  (12) 
EDO

>  <lig_resi>  (12) 
191

>  <lig_chain>  (12) 
B

>  <lig_segi>  (12) 
M

>  <lig_alt>  (12) 
A

>  <polymer_chain>  (12) 
A

>  <single_smiles>  (12) 
OCCO

$$$$
EDOยง9
     RDKit          3D

  4  3  0  0  0  0  0  0  0  0999 V2000
   -6.9000   -0.0740  -47.8320 C   0  0  0  0  0  0  0  0  0  0  0  0
   -8.1170   -0.0040  -48.5750 O   0  0  0  0  0  0  0  0  0  0  0  0
   -5.7150   -0.1350  -48.7860 C   0  0  0  0  0  0  0  0  0  0  0  0
   -4.5020   -0.3300  -48.0460 O   0  0  0  0  0  0  0  0  0  0  0  0
  1  2  1  0
  1  3  1  0
  3  4  1  0
A    1
 C1 
A    2
 O1 
A    3
 C2 
A    4
 O2 
M  END
>  <XChem_code>  (13) 
EDOยง9

>  <Occupancy>  (13) 
[0.7, 0.7, 0.7, 0.7]

>  <TempFactor>  (13) 
[49.42, 41.16, 52.8, 49.06]

>  <accession>  (13) 
3Q3Y_A

>  <description>  (13) 
Chain A, HEVB EV93 3C protease [Enterovirus B]

>  <evalue>  (13) 
1.14606e-87

>  <pdb_code>  (13) 
3Q3Y

>  <chain>  (13) 
A

>  <ligands>  (13) 
[{'chain_id': 'A', 'author_residue_number': 190, 'author_insertion_code': '', 'chem_comp_id': 'XNV', 'alternate_conformers': 2, 'entity_id': 2, 'struct_asym_id': 'C', 'residue_number': 1, 'chem_comp_name': 'ethyl (4R)-4-({(2S)-2-[3-{[(5-methyl-1,2-oxazol-3-yl)carbonyl]amino}-2-oxopyridin-1(2H)-yl]pent-4-ynoyl}amino)-5-[(3S)-2-oxopyrrolidin-3-yl]pentanoate', 'weight': 525.554, 'carbohydrate_polymer': False, 'branch_name': ''}, {'chain_id': 'B', 'author_residue_number': 190, 'author_insertion_code': '', 'chem_comp_id': 'XNV', 'alternate_conformers': 2, 'entity_id': 2, 'struct_asym_id': 'L', 'residue_number': 1, 'chem_comp_name': 'ethyl (4R)-4-({(2S)-2-[3-{[(5-methyl-1,2-oxazol-3-yl)carbonyl]amino}-2-oxopyridin-1(2H)-yl]pent-4-ynoyl}amino)-5-[(3S)-2-oxopyrrolidin-3-yl]pentanoate', 'weight': 525.554, 'carbohydrate_polymer': False, 'branch_name': ''}, {'chain_id': 'A', 'author_residue_number': 191, 'author_insertion_code': '', 'chem_comp_id': 'EDO', 'alternate_conformers': 2, 'entity_id': 3, 'struct_asym_id': 'D', 'residue_number': 1, 'chem_comp_name': '1,2-ETHANEDIOL', 'weight': 62.068, 'carbohydrate_polymer': False, 'branch_name': ''}, {'chain_id': 'A', 'author_residue_number': 192, 'author_insertion_code': '', 'chem_comp_id': 'EDO', 'alternate_conformers': 2, 'entity_id': 3, 'struct_asym_id': 'E', 'residue_number': 1, 'chem_comp_name': '1,2-ETHANEDIOL', 'weight': 62.068, 'carbohydrate_polymer': False, 'branch_name': ''}, {'chain_id': 'A', 'author_residue_number': 193, 'author_insertion_code': '', 'chem_comp_id': 'EDO', 'alternate_conformers': 0, 'entity_id': 3, 'struct_asym_id': 'F', 'residue_number': 1, 'chem_comp_name': '1,2-ETHANEDIOL', 'weight': 62.068, 'carbohydrate_polymer': False, 'branch_name': ''}, {'chain_id': 'A', 'author_residue_number': 194, 'author_insertion_code': '', 'chem_comp_id': 'EDO', 'alternate_conformers': 1, 'entity_id': 3, 'struct_asym_id': 'G', 'residue_number': 1, 'chem_comp_name': '1,2-ETHANEDIOL', 'weight': 62.068, 'carbohydrate_polymer': False, 'branch_name': ''}, {'chain_id': 'B', 'author_residue_number': 191, 'author_insertion_code': '', 'chem_comp_id': 'EDO', 'alternate_conformers': 2, 'entity_id': 3, 'struct_asym_id': 'M', 'residue_number': 1, 'chem_comp_name': '1,2-ETHANEDIOL', 'weight': 62.068, 'carbohydrate_polymer': False, 'branch_name': ''}, {'chain_id': 'B', 'author_residue_number': 192, 'author_insertion_code': '', 'chem_comp_id': 'EDO', 'alternate_conformers': 0, 'entity_id': 3, 'struct_asym_id': 'N', 'residue_number': 1, 'chem_comp_name': '1,2-ETHANEDIOL', 'weight': 62.068, 'carbohydrate_polymer': False, 'branch_name': ''}, {'chain_id': 'B', 'author_residue_number': 193, 'author_insertion_code': '', 'chem_comp_id': 'EDO', 'alternate_conformers': 2, 'entity_id': 3, 'struct_asym_id': 'O', 'residue_number': 1, 'chem_comp_name': '1,2-ETHANEDIOL', 'weight': 62.068, 'carbohydrate_polymer': False, 'branch_name': ''}, {'chain_id': 'B', 'author_residue_number': 194, 'author_insertion_code': '', 'chem_comp_id': 'EDO', 'alternate_conformers': 1, 'entity_id': 3, 'struct_asym_id': 'P', 'residue_number': 1, 'chem_comp_name': '1,2-ETHANEDIOL', 'weight': 62.068, 'carbohydrate_polymer': False, 'branch_name': ''}, {'chain_id': 'A', 'author_residue_number': 195, 'author_insertion_code': '', 'chem_comp_id': 'PI', 'alternate_conformers': 1, 'entity_id': 4, 'struct_asym_id': 'H', 'residue_number': 1, 'chem_comp_name': 'HYDROGENPHOSPHATE ION', 'weight': 95.979, 'carbohydrate_polymer': False, 'branch_name': ''}, {'chain_id': 'A', 'author_residue_number': 196, 'author_insertion_code': '', 'chem_comp_id': 'PI', 'alternate_conformers': 1, 'entity_id': 4, 'struct_asym_id': 'I', 'residue_number': 1, 'chem_comp_name': 'HYDROGENPHOSPHATE ION', 'weight': 95.979, 'carbohydrate_polymer': False, 'branch_name': ''}, {'chain_id': 'B', 'author_residue_number': 195, 'author_insertion_code': '', 'chem_comp_id': 'PI', 'alternate_conformers': 1, 'entity_id': 4, 'struct_asym_id': 'Q', 'residue_number': 1, 'chem_comp_name': 'HYDROGENPHOSPHATE ION', 'weight': 95.979, 'carbohydrate_polymer': False, 'branch_name': ''}, {'chain_id': 'A', 'author_residue_number': 197, 'author_insertion_code': '', 'chem_comp_id': 'NH4', 'alternate_conformers': 2, 'entity_id': 5, 'struct_asym_id': 'J', 'residue_number': 1, 'chem_comp_name': 'AMMONIUM ION', 'weight': 18.038, 'carbohydrate_polymer': False, 'branch_name': ''}, {'chain_id': 'A', 'author_residue_number': 198, 'author_insertion_code': '', 'chem_comp_id': 'NH4', 'alternate_conformers': 0, 'entity_id': 5, 'struct_asym_id': 'K', 'residue_number': 1, 'chem_comp_name': 'AMMONIUM ION', 'weight': 18.038, 'carbohydrate_polymer': False, 'branch_name': ''}]

>  <ligand_codes>  (13) 
['XNV', 'XNV', 'EDO', 'EDO', 'EDO', 'EDO', 'EDO', 'EDO', 'EDO', 'EDO', 'PI', 'PI', 'PI', 'NH4', 'NH4']

>  <cofactor_codes>  (13) 
[]

>  <has_cofactor>  (13) 
False

>  <covalent>  (13) 
False

>  <base_name>  (13) 
3Q3Y

>  <lig_resn>  (13) 
EDO

>  <lig_resi>  (13) 
192

>  <lig_chain>  (13) 
A

>  <lig_segi>  (13) 
E

>  <lig_alt>  (13) 
A

>  <polymer_chain>  (13) 
A

>  <single_smiles>  (13) 
OCCO

$$$$
EDOยง10
     RDKit          3D

  4  3  0  0  0  0  0  0  0  0999 V2000
   16.3800   -7.1430   -2.6130 C   0  0  0  0  0  0  0  0  0  0  0  0
   16.0160   -7.9350   -1.4800 O   0  0  0  0  0  0  0  0  0  0  0  0
   17.5650   -7.7560   -3.3510 C   0  0  0  0  0  0  0  0  0  0  0  0
   17.6050   -9.1750   -3.1670 O   0  0  0  0  0  0  0  0  0  0  0  0
  1  2  1  0
  1  3  1  0
  3  4  1  0
A    1
 C1 
A    2
 O1 
A    3
 C2 
A    4
 O2 
M  END
>  <XChem_code>  (14) 
EDOยง10

>  <Occupancy>  (14) 
[0.46, 0.46, 0.46, 0.46]

>  <TempFactor>  (14) 
[49.25, 43.77, 50.03, 45.57]

>  <accession>  (14) 
3Q3Y_A

>  <description>  (14) 
Chain A, HEVB EV93 3C protease [Enterovirus B]

>  <evalue>  (14) 
1.14606e-87

>  <pdb_code>  (14) 
3Q3Y

>  <chain>  (14) 
A

>  <ligands>  (14) 
[{'chain_id': 'A', 'author_residue_number': 190, 'author_insertion_code': '', 'chem_comp_id': 'XNV', 'alternate_conformers': 2, 'entity_id': 2, 'struct_asym_id': 'C', 'residue_number': 1, 'chem_comp_name': 'ethyl (4R)-4-({(2S)-2-[3-{[(5-methyl-1,2-oxazol-3-yl)carbonyl]amino}-2-oxopyridin-1(2H)-yl]pent-4-ynoyl}amino)-5-[(3S)-2-oxopyrrolidin-3-yl]pentanoate', 'weight': 525.554, 'carbohydrate_polymer': False, 'branch_name': ''}, {'chain_id': 'B', 'author_residue_number': 190, 'author_insertion_code': '', 'chem_comp_id': 'XNV', 'alternate_conformers': 2, 'entity_id': 2, 'struct_asym_id': 'L', 'residue_number': 1, 'chem_comp_name': 'ethyl (4R)-4-({(2S)-2-[3-{[(5-methyl-1,2-oxazol-3-yl)carbonyl]amino}-2-oxopyridin-1(2H)-yl]pent-4-ynoyl}amino)-5-[(3S)-2-oxopyrrolidin-3-yl]pentanoate', 'weight': 525.554, 'carbohydrate_polymer': False, 'branch_name': ''}, {'chain_id': 'A', 'author_residue_number': 191, 'author_insertion_code': '', 'chem_comp_id': 'EDO', 'alternate_conformers': 2, 'entity_id': 3, 'struct_asym_id': 'D', 'residue_number': 1, 'chem_comp_name': '1,2-ETHANEDIOL', 'weight': 62.068, 'carbohydrate_polymer': False, 'branch_name': ''}, {'chain_id': 'A', 'author_residue_number': 192, 'author_insertion_code': '', 'chem_comp_id': 'EDO', 'alternate_conformers': 2, 'entity_id': 3, 'struct_asym_id': 'E', 'residue_number': 1, 'chem_comp_name': '1,2-ETHANEDIOL', 'weight': 62.068, 'carbohydrate_polymer': False, 'branch_name': ''}, {'chain_id': 'A', 'author_residue_number': 193, 'author_insertion_code': '', 'chem_comp_id': 'EDO', 'alternate_conformers': 0, 'entity_id': 3, 'struct_asym_id': 'F', 'residue_number': 1, 'chem_comp_name': '1,2-ETHANEDIOL', 'weight': 62.068, 'carbohydrate_polymer': False, 'branch_name': ''}, {'chain_id': 'A', 'author_residue_number': 194, 'author_insertion_code': '', 'chem_comp_id': 'EDO', 'alternate_conformers': 1, 'entity_id': 3, 'struct_asym_id': 'G', 'residue_number': 1, 'chem_comp_name': '1,2-ETHANEDIOL', 'weight': 62.068, 'carbohydrate_polymer': False, 'branch_name': ''}, {'chain_id': 'B', 'author_residue_number': 191, 'author_insertion_code': '', 'chem_comp_id': 'EDO', 'alternate_conformers': 2, 'entity_id': 3, 'struct_asym_id': 'M', 'residue_number': 1, 'chem_comp_name': '1,2-ETHANEDIOL', 'weight': 62.068, 'carbohydrate_polymer': False, 'branch_name': ''}, {'chain_id': 'B', 'author_residue_number': 192, 'author_insertion_code': '', 'chem_comp_id': 'EDO', 'alternate_conformers': 0, 'entity_id': 3, 'struct_asym_id': 'N', 'residue_number': 1, 'chem_comp_name': '1,2-ETHANEDIOL', 'weight': 62.068, 'carbohydrate_polymer': False, 'branch_name': ''}, {'chain_id': 'B', 'author_residue_number': 193, 'author_insertion_code': '', 'chem_comp_id': 'EDO', 'alternate_conformers': 2, 'entity_id': 3, 'struct_asym_id': 'O', 'residue_number': 1, 'chem_comp_name': '1,2-ETHANEDIOL', 'weight': 62.068, 'carbohydrate_polymer': False, 'branch_name': ''}, {'chain_id': 'B', 'author_residue_number': 194, 'author_insertion_code': '', 'chem_comp_id': 'EDO', 'alternate_conformers': 1, 'entity_id': 3, 'struct_asym_id': 'P', 'residue_number': 1, 'chem_comp_name': '1,2-ETHANEDIOL', 'weight': 62.068, 'carbohydrate_polymer': False, 'branch_name': ''}, {'chain_id': 'A', 'author_residue_number': 195, 'author_insertion_code': '', 'chem_comp_id': 'PI', 'alternate_conformers': 1, 'entity_id': 4, 'struct_asym_id': 'H', 'residue_number': 1, 'chem_comp_name': 'HYDROGENPHOSPHATE ION', 'weight': 95.979, 'carbohydrate_polymer': False, 'branch_name': ''}, {'chain_id': 'A', 'author_residue_number': 196, 'author_insertion_code': '', 'chem_comp_id': 'PI', 'alternate_conformers': 1, 'entity_id': 4, 'struct_asym_id': 'I', 'residue_number': 1, 'chem_comp_name': 'HYDROGENPHOSPHATE ION', 'weight': 95.979, 'carbohydrate_polymer': False, 'branch_name': ''}, {'chain_id': 'B', 'author_residue_number': 195, 'author_insertion_code': '', 'chem_comp_id': 'PI', 'alternate_conformers': 1, 'entity_id': 4, 'struct_asym_id': 'Q', 'residue_number': 1, 'chem_comp_name': 'HYDROGENPHOSPHATE ION', 'weight': 95.979, 'carbohydrate_polymer': False, 'branch_name': ''}, {'chain_id': 'A', 'author_residue_number': 197, 'author_insertion_code': '', 'chem_comp_id': 'NH4', 'alternate_conformers': 2, 'entity_id': 5, 'struct_asym_id': 'J', 'residue_number': 1, 'chem_comp_name': 'AMMONIUM ION', 'weight': 18.038, 'carbohydrate_polymer': False, 'branch_name': ''}, {'chain_id': 'A', 'author_residue_number': 198, 'author_insertion_code': '', 'chem_comp_id': 'NH4', 'alternate_conformers': 0, 'entity_id': 5, 'struct_asym_id': 'K', 'residue_number': 1, 'chem_comp_name': 'AMMONIUM ION', 'weight': 18.038, 'carbohydrate_polymer': False, 'branch_name': ''}]

>  <ligand_codes>  (14) 
['XNV', 'XNV', 'EDO', 'EDO', 'EDO', 'EDO', 'EDO', 'EDO', 'EDO', 'EDO', 'PI', 'PI', 'PI', 'NH4', 'NH4']

>  <cofactor_codes>  (14) 
[]

>  <has_cofactor>  (14) 
False

>  <covalent>  (14) 
False

>  <base_name>  (14) 
3Q3Y

>  <lig_resn>  (14) 
EDO

>  <lig_resi>  (14) 
191

>  <lig_chain>  (14) 
B

>  <lig_segi>  (14) 
M

>  <lig_alt>  (14) 
B

>  <polymer_chain>  (14) 
A

>  <single_smiles>  (14) 
OCCO

$$$$
EDOยง11
     RDKit          3D

  4  3  0  0  0  0  0  0  0  0999 V2000
   -6.9770   -0.2300  -47.8300 C   0  0  0  0  0  0  0  0  0  0  0  0
   -8.1430    0.0660  -48.6030 O   0  0  0  0  0  0  0  0  0  0  0  0
   -5.7300    0.0760  -48.6490 C   0  0  0  0  0  0  0  0  0  0  0  0
   -5.6170    1.4890  -48.8420 O   0  0  0  0  0  0  0  0  0  0  0  0
  1  2  1  0
  1  3  1  0
  3  4  1  0
A    1
 C1 
A    2
 O1 
A    3
 C2 
A    4
 O2 
M  END
>  <XChem_code>  (15) 
EDOยง11

>  <Occupancy>  (15) 
[0.3, 0.3, 0.3, 0.3]

>  <TempFactor>  (15) 
[52.27, 47.31, 53.14, 49.04]

>  <accession>  (15) 
3Q3Y_A

>  <description>  (15) 
Chain A, HEVB EV93 3C protease [Enterovirus B]

>  <evalue>  (15) 
1.14606e-87

>  <pdb_code>  (15) 
3Q3Y

>  <chain>  (15) 
A

>  <ligands>  (15) 
[{'chain_id': 'A', 'author_residue_number': 190, 'author_insertion_code': '', 'chem_comp_id': 'XNV', 'alternate_conformers': 2, 'entity_id': 2, 'struct_asym_id': 'C', 'residue_number': 1, 'chem_comp_name': 'ethyl (4R)-4-({(2S)-2-[3-{[(5-methyl-1,2-oxazol-3-yl)carbonyl]amino}-2-oxopyridin-1(2H)-yl]pent-4-ynoyl}amino)-5-[(3S)-2-oxopyrrolidin-3-yl]pentanoate', 'weight': 525.554, 'carbohydrate_polymer': False, 'branch_name': ''}, {'chain_id': 'B', 'author_residue_number': 190, 'author_insertion_code': '', 'chem_comp_id': 'XNV', 'alternate_conformers': 2, 'entity_id': 2, 'struct_asym_id': 'L', 'residue_number': 1, 'chem_comp_name': 'ethyl (4R)-4-({(2S)-2-[3-{[(5-methyl-1,2-oxazol-3-yl)carbonyl]amino}-2-oxopyridin-1(2H)-yl]pent-4-ynoyl}amino)-5-[(3S)-2-oxopyrrolidin-3-yl]pentanoate', 'weight': 525.554, 'carbohydrate_polymer': False, 'branch_name': ''}, {'chain_id': 'A', 'author_residue_number': 191, 'author_insertion_code': '', 'chem_comp_id': 'EDO', 'alternate_conformers': 2, 'entity_id': 3, 'struct_asym_id': 'D', 'residue_number': 1, 'chem_comp_name': '1,2-ETHANEDIOL', 'weight': 62.068, 'carbohydrate_polymer': False, 'branch_name': ''}, {'chain_id': 'A', 'author_residue_number': 192, 'author_insertion_code': '', 'chem_comp_id': 'EDO', 'alternate_conformers': 2, 'entity_id': 3, 'struct_asym_id': 'E', 'residue_number': 1, 'chem_comp_name': '1,2-ETHANEDIOL', 'weight': 62.068, 'carbohydrate_polymer': False, 'branch_name': ''}, {'chain_id': 'A', 'author_residue_number': 193, 'author_insertion_code': '', 'chem_comp_id': 'EDO', 'alternate_conformers': 0, 'entity_id': 3, 'struct_asym_id': 'F', 'residue_number': 1, 'chem_comp_name': '1,2-ETHANEDIOL', 'weight': 62.068, 'carbohydrate_polymer': False, 'branch_name': ''}, {'chain_id': 'A', 'author_residue_number': 194, 'author_insertion_code': '', 'chem_comp_id': 'EDO', 'alternate_conformers': 1, 'entity_id': 3, 'struct_asym_id': 'G', 'residue_number': 1, 'chem_comp_name': '1,2-ETHANEDIOL', 'weight': 62.068, 'carbohydrate_polymer': False, 'branch_name': ''}, {'chain_id': 'B', 'author_residue_number': 191, 'author_insertion_code': '', 'chem_comp_id': 'EDO', 'alternate_conformers': 2, 'entity_id': 3, 'struct_asym_id': 'M', 'residue_number': 1, 'chem_comp_name': '1,2-ETHANEDIOL', 'weight': 62.068, 'carbohydrate_polymer': False, 'branch_name': ''}, {'chain_id': 'B', 'author_residue_number': 192, 'author_insertion_code': '', 'chem_comp_id': 'EDO', 'alternate_conformers': 0, 'entity_id': 3, 'struct_asym_id': 'N', 'residue_number': 1, 'chem_comp_name': '1,2-ETHANEDIOL', 'weight': 62.068, 'carbohydrate_polymer': False, 'branch_name': ''}, {'chain_id': 'B', 'author_residue_number': 193, 'author_insertion_code': '', 'chem_comp_id': 'EDO', 'alternate_conformers': 2, 'entity_id': 3, 'struct_asym_id': 'O', 'residue_number': 1, 'chem_comp_name': '1,2-ETHANEDIOL', 'weight': 62.068, 'carbohydrate_polymer': False, 'branch_name': ''}, {'chain_id': 'B', 'author_residue_number': 194, 'author_insertion_code': '', 'chem_comp_id': 'EDO', 'alternate_conformers': 1, 'entity_id': 3, 'struct_asym_id': 'P', 'residue_number': 1, 'chem_comp_name': '1,2-ETHANEDIOL', 'weight': 62.068, 'carbohydrate_polymer': False, 'branch_name': ''}, {'chain_id': 'A', 'author_residue_number': 195, 'author_insertion_code': '', 'chem_comp_id': 'PI', 'alternate_conformers': 1, 'entity_id': 4, 'struct_asym_id': 'H', 'residue_number': 1, 'chem_comp_name': 'HYDROGENPHOSPHATE ION', 'weight': 95.979, 'carbohydrate_polymer': False, 'branch_name': ''}, {'chain_id': 'A', 'author_residue_number': 196, 'author_insertion_code': '', 'chem_comp_id': 'PI', 'alternate_conformers': 1, 'entity_id': 4, 'struct_asym_id': 'I', 'residue_number': 1, 'chem_comp_name': 'HYDROGENPHOSPHATE ION', 'weight': 95.979, 'carbohydrate_polymer': False, 'branch_name': ''}, {'chain_id': 'B', 'author_residue_number': 195, 'author_insertion_code': '', 'chem_comp_id': 'PI', 'alternate_conformers': 1, 'entity_id': 4, 'struct_asym_id': 'Q', 'residue_number': 1, 'chem_comp_name': 'HYDROGENPHOSPHATE ION', 'weight': 95.979, 'carbohydrate_polymer': False, 'branch_name': ''}, {'chain_id': 'A', 'author_residue_number': 197, 'author_insertion_code': '', 'chem_comp_id': 'NH4', 'alternate_conformers': 2, 'entity_id': 5, 'struct_asym_id': 'J', 'residue_number': 1, 'chem_comp_name': 'AMMONIUM ION', 'weight': 18.038, 'carbohydrate_polymer': False, 'branch_name': ''}, {'chain_id': 'A', 'author_residue_number': 198, 'author_insertion_code': '', 'chem_comp_id': 'NH4', 'alternate_conformers': 0, 'entity_id': 5, 'struct_asym_id': 'K', 'residue_number': 1, 'chem_comp_name': 'AMMONIUM ION', 'weight': 18.038, 'carbohydrate_polymer': False, 'branch_name': ''}]

>  <ligand_codes>  (15) 
['XNV', 'XNV', 'EDO', 'EDO', 'EDO', 'EDO', 'EDO', 'EDO', 'EDO', 'EDO', 'PI', 'PI', 'PI', 'NH4', 'NH4']

>  <cofactor_codes>  (15) 
[]

>  <has_cofactor>  (15) 
False

>  <covalent>  (15) 
False

>  <base_name>  (15) 
3Q3Y

>  <lig_resn>  (15) 
EDO

>  <lig_resi>  (15) 
192

>  <lig_chain>  (15) 
A

>  <lig_segi>  (15) 
E

>  <lig_alt>  (15) 
B

>  <polymer_chain>  (15) 
A

>  <single_smiles>  (15) 
OCCO

$$$$
EDOยง12
     RDKit          3D

  4  3  0  0  0  0  0  0  0  0999 V2000
  -28.4080   -0.6220  -41.2870 C   0  0  0  0  0  0  0  0  0  0  0  0
  -29.2370   -1.0550  -40.2070 O   0  0  0  0  0  0  0  0  0  0  0  0
  -27.7690    0.7260  -40.9930 C   0  0  0  0  0  0  0  0  0  0  0  0
  -28.7790    1.7240  -40.7780 O   0  0  0  0  0  0  0  0  0  0  0  0
  1  2  1  0
  1  3  1  0
  3  4  1  0
A    1
 C1 
A    2
 O1 
A    3
 C2 
A    4
 O2 
M  END
>  <XChem_code>  (16) 
EDOยง12

>  <Occupancy>  (16) 
[0.7, 0.7, 0.7, 0.7]

>  <TempFactor>  (16) 
[24.74, 18.34, 32.59, 30.56]

>  <accession>  (16) 
3Q3Y_A

>  <description>  (16) 
Chain A, HEVB EV93 3C protease [Enterovirus B]

>  <evalue>  (16) 
1.14606e-87

>  <pdb_code>  (16) 
3Q3Y

>  <chain>  (16) 
A

>  <ligands>  (16) 
[{'chain_id': 'A', 'author_residue_number': 190, 'author_insertion_code': '', 'chem_comp_id': 'XNV', 'alternate_conformers': 2, 'entity_id': 2, 'struct_asym_id': 'C', 'residue_number': 1, 'chem_comp_name': 'ethyl (4R)-4-({(2S)-2-[3-{[(5-methyl-1,2-oxazol-3-yl)carbonyl]amino}-2-oxopyridin-1(2H)-yl]pent-4-ynoyl}amino)-5-[(3S)-2-oxopyrrolidin-3-yl]pentanoate', 'weight': 525.554, 'carbohydrate_polymer': False, 'branch_name': ''}, {'chain_id': 'B', 'author_residue_number': 190, 'author_insertion_code': '', 'chem_comp_id': 'XNV', 'alternate_conformers': 2, 'entity_id': 2, 'struct_asym_id': 'L', 'residue_number': 1, 'chem_comp_name': 'ethyl (4R)-4-({(2S)-2-[3-{[(5-methyl-1,2-oxazol-3-yl)carbonyl]amino}-2-oxopyridin-1(2H)-yl]pent-4-ynoyl}amino)-5-[(3S)-2-oxopyrrolidin-3-yl]pentanoate', 'weight': 525.554, 'carbohydrate_polymer': False, 'branch_name': ''}, {'chain_id': 'A', 'author_residue_number': 191, 'author_insertion_code': '', 'chem_comp_id': 'EDO', 'alternate_conformers': 2, 'entity_id': 3, 'struct_asym_id': 'D', 'residue_number': 1, 'chem_comp_name': '1,2-ETHANEDIOL', 'weight': 62.068, 'carbohydrate_polymer': False, 'branch_name': ''}, {'chain_id': 'A', 'author_residue_number': 192, 'author_insertion_code': '', 'chem_comp_id': 'EDO', 'alternate_conformers': 2, 'entity_id': 3, 'struct_asym_id': 'E', 'residue_number': 1, 'chem_comp_name': '1,2-ETHANEDIOL', 'weight': 62.068, 'carbohydrate_polymer': False, 'branch_name': ''}, {'chain_id': 'A', 'author_residue_number': 193, 'author_insertion_code': '', 'chem_comp_id': 'EDO', 'alternate_conformers': 0, 'entity_id': 3, 'struct_asym_id': 'F', 'residue_number': 1, 'chem_comp_name': '1,2-ETHANEDIOL', 'weight': 62.068, 'carbohydrate_polymer': False, 'branch_name': ''}, {'chain_id': 'A', 'author_residue_number': 194, 'author_insertion_code': '', 'chem_comp_id': 'EDO', 'alternate_conformers': 1, 'entity_id': 3, 'struct_asym_id': 'G', 'residue_number': 1, 'chem_comp_name': '1,2-ETHANEDIOL', 'weight': 62.068, 'carbohydrate_polymer': False, 'branch_name': ''}, {'chain_id': 'B', 'author_residue_number': 191, 'author_insertion_code': '', 'chem_comp_id': 'EDO', 'alternate_conformers': 2, 'entity_id': 3, 'struct_asym_id': 'M', 'residue_number': 1, 'chem_comp_name': '1,2-ETHANEDIOL', 'weight': 62.068, 'carbohydrate_polymer': False, 'branch_name': ''}, {'chain_id': 'B', 'author_residue_number': 192, 'author_insertion_code': '', 'chem_comp_id': 'EDO', 'alternate_conformers': 0, 'entity_id': 3, 'struct_asym_id': 'N', 'residue_number': 1, 'chem_comp_name': '1,2-ETHANEDIOL', 'weight': 62.068, 'carbohydrate_polymer': False, 'branch_name': ''}, {'chain_id': 'B', 'author_residue_number': 193, 'author_insertion_code': '', 'chem_comp_id': 'EDO', 'alternate_conformers': 2, 'entity_id': 3, 'struct_asym_id': 'O', 'residue_number': 1, 'chem_comp_name': '1,2-ETHANEDIOL', 'weight': 62.068, 'carbohydrate_polymer': False, 'branch_name': ''}, {'chain_id': 'B', 'author_residue_number': 194, 'author_insertion_code': '', 'chem_comp_id': 'EDO', 'alternate_conformers': 1, 'entity_id': 3, 'struct_asym_id': 'P', 'residue_number': 1, 'chem_comp_name': '1,2-ETHANEDIOL', 'weight': 62.068, 'carbohydrate_polymer': False, 'branch_name': ''}, {'chain_id': 'A', 'author_residue_number': 195, 'author_insertion_code': '', 'chem_comp_id': 'PI', 'alternate_conformers': 1, 'entity_id': 4, 'struct_asym_id': 'H', 'residue_number': 1, 'chem_comp_name': 'HYDROGENPHOSPHATE ION', 'weight': 95.979, 'carbohydrate_polymer': False, 'branch_name': ''}, {'chain_id': 'A', 'author_residue_number': 196, 'author_insertion_code': '', 'chem_comp_id': 'PI', 'alternate_conformers': 1, 'entity_id': 4, 'struct_asym_id': 'I', 'residue_number': 1, 'chem_comp_name': 'HYDROGENPHOSPHATE ION', 'weight': 95.979, 'carbohydrate_polymer': False, 'branch_name': ''}, {'chain_id': 'B', 'author_residue_number': 195, 'author_insertion_code': '', 'chem_comp_id': 'PI', 'alternate_conformers': 1, 'entity_id': 4, 'struct_asym_id': 'Q', 'residue_number': 1, 'chem_comp_name': 'HYDROGENPHOSPHATE ION', 'weight': 95.979, 'carbohydrate_polymer': False, 'branch_name': ''}, {'chain_id': 'A', 'author_residue_number': 197, 'author_insertion_code': '', 'chem_comp_id': 'NH4', 'alternate_conformers': 2, 'entity_id': 5, 'struct_asym_id': 'J', 'residue_number': 1, 'chem_comp_name': 'AMMONIUM ION', 'weight': 18.038, 'carbohydrate_polymer': False, 'branch_name': ''}, {'chain_id': 'A', 'author_residue_number': 198, 'author_insertion_code': '', 'chem_comp_id': 'NH4', 'alternate_conformers': 0, 'entity_id': 5, 'struct_asym_id': 'K', 'residue_number': 1, 'chem_comp_name': 'AMMONIUM ION', 'weight': 18.038, 'carbohydrate_polymer': False, 'branch_name': ''}]

>  <ligand_codes>  (16) 
['XNV', 'XNV', 'EDO', 'EDO', 'EDO', 'EDO', 'EDO', 'EDO', 'EDO', 'EDO', 'PI', 'PI', 'PI', 'NH4', 'NH4']

>  <cofactor_codes>  (16) 
[]

>  <has_cofactor>  (16) 
False

>  <covalent>  (16) 
False

>  <base_name>  (16) 
3Q3Y

>  <lig_resn>  (16) 
EDO

>  <lig_resi>  (16) 
191

>  <lig_chain>  (16) 
A

>  <lig_segi>  (16) 
D

>  <lig_alt>  (16) 
A

>  <polymer_chain>  (16) 
A

>  <single_smiles>  (16) 
OCCO

$$$$
XNVยง1
     RDKit          3D

  6  5  0  0  0  0  0  0  0  0999 V2000
   -6.4370    5.4350  -38.6720 C   0  0  0  0  0  0  0  0  0  0  0  0
   -6.9670    6.7070  -37.9880 C   0  0  0  0  0  0  0  0  0  0  0  0
   -5.9500    7.3430  -37.2070 O   0  0  0  0  0  0  0  0  0  0  0  0
   -6.2390    8.3590  -36.3130 C   0  0  2  0  0  0  0  0  0  0  0  0
   -5.3090    8.7040  -35.6100 O   0  0  0  0  0  0  0  0  0  0  0  0
   -7.7310    8.3810  -35.9230 R   0  0  0  0  0  0  0  0  0  0  0  0
  1  2  1  0
  2  3  1  0
  3  4  1  0
  4  5  1  0
  4  6  1  1
A    1
 C01
A    2
 C02
A    3
 O03
A    4
 C04
A    5
 O38
A    6
 X  
M  END
>  <XChem_code>  (17) 
XNVยง1

>  <Occupancy>  (17) 
[0.31, 0.31, 0.31, 0.31, 0.31, 1.0]

>  <TempFactor>  (17) 
[61.0, 49.21, 32.51, 21.28, 18.23, 12.55]

>  <accession>  (17) 
3Q3Y_A

>  <description>  (17) 
Chain A, HEVB EV93 3C protease [Enterovirus B]

>  <evalue>  (17) 
1.14606e-87

>  <pdb_code>  (17) 
3Q3Y

>  <chain>  (17) 
A

>  <ligands>  (17) 
[{'chain_id': 'A', 'author_residue_number': 190, 'author_insertion_code': '', 'chem_comp_id': 'XNV', 'alternate_conformers': 2, 'entity_id': 2, 'struct_asym_id': 'C', 'residue_number': 1, 'chem_comp_name': 'ethyl (4R)-4-({(2S)-2-[3-{[(5-methyl-1,2-oxazol-3-yl)carbonyl]amino}-2-oxopyridin-1(2H)-yl]pent-4-ynoyl}amino)-5-[(3S)-2-oxopyrrolidin-3-yl]pentanoate', 'weight': 525.554, 'carbohydrate_polymer': False, 'branch_name': ''}, {'chain_id': 'B', 'author_residue_number': 190, 'author_insertion_code': '', 'chem_comp_id': 'XNV', 'alternate_conformers': 2, 'entity_id': 2, 'struct_asym_id': 'L', 'residue_number': 1, 'chem_comp_name': 'ethyl (4R)-4-({(2S)-2-[3-{[(5-methyl-1,2-oxazol-3-yl)carbonyl]amino}-2-oxopyridin-1(2H)-yl]pent-4-ynoyl}amino)-5-[(3S)-2-oxopyrrolidin-3-yl]pentanoate', 'weight': 525.554, 'carbohydrate_polymer': False, 'branch_name': ''}, {'chain_id': 'A', 'author_residue_number': 191, 'author_insertion_code': '', 'chem_comp_id': 'EDO', 'alternate_conformers': 2, 'entity_id': 3, 'struct_asym_id': 'D', 'residue_number': 1, 'chem_comp_name': '1,2-ETHANEDIOL', 'weight': 62.068, 'carbohydrate_polymer': False, 'branch_name': ''}, {'chain_id': 'A', 'author_residue_number': 192, 'author_insertion_code': '', 'chem_comp_id': 'EDO', 'alternate_conformers': 2, 'entity_id': 3, 'struct_asym_id': 'E', 'residue_number': 1, 'chem_comp_name': '1,2-ETHANEDIOL', 'weight': 62.068, 'carbohydrate_polymer': False, 'branch_name': ''}, {'chain_id': 'A', 'author_residue_number': 193, 'author_insertion_code': '', 'chem_comp_id': 'EDO', 'alternate_conformers': 0, 'entity_id': 3, 'struct_asym_id': 'F', 'residue_number': 1, 'chem_comp_name': '1,2-ETHANEDIOL', 'weight': 62.068, 'carbohydrate_polymer': False, 'branch_name': ''}, {'chain_id': 'A', 'author_residue_number': 194, 'author_insertion_code': '', 'chem_comp_id': 'EDO', 'alternate_conformers': 1, 'entity_id': 3, 'struct_asym_id': 'G', 'residue_number': 1, 'chem_comp_name': '1,2-ETHANEDIOL', 'weight': 62.068, 'carbohydrate_polymer': False, 'branch_name': ''}, {'chain_id': 'B', 'author_residue_number': 191, 'author_insertion_code': '', 'chem_comp_id': 'EDO', 'alternate_conformers': 2, 'entity_id': 3, 'struct_asym_id': 'M', 'residue_number': 1, 'chem_comp_name': '1,2-ETHANEDIOL', 'weight': 62.068, 'carbohydrate_polymer': False, 'branch_name': ''}, {'chain_id': 'B', 'author_residue_number': 192, 'author_insertion_code': '', 'chem_comp_id': 'EDO', 'alternate_conformers': 0, 'entity_id': 3, 'struct_asym_id': 'N', 'residue_number': 1, 'chem_comp_name': '1,2-ETHANEDIOL', 'weight': 62.068, 'carbohydrate_polymer': False, 'branch_name': ''}, {'chain_id': 'B', 'author_residue_number': 193, 'author_insertion_code': '', 'chem_comp_id': 'EDO', 'alternate_conformers': 2, 'entity_id': 3, 'struct_asym_id': 'O', 'residue_number': 1, 'chem_comp_name': '1,2-ETHANEDIOL', 'weight': 62.068, 'carbohydrate_polymer': False, 'branch_name': ''}, {'chain_id': 'B', 'author_residue_number': 194, 'author_insertion_code': '', 'chem_comp_id': 'EDO', 'alternate_conformers': 1, 'entity_id': 3, 'struct_asym_id': 'P', 'residue_number': 1, 'chem_comp_name': '1,2-ETHANEDIOL', 'weight': 62.068, 'carbohydrate_polymer': False, 'branch_name': ''}, {'chain_id': 'A', 'author_residue_number': 195, 'author_insertion_code': '', 'chem_comp_id': 'PI', 'alternate_conformers': 1, 'entity_id': 4, 'struct_asym_id': 'H', 'residue_number': 1, 'chem_comp_name': 'HYDROGENPHOSPHATE ION', 'weight': 95.979, 'carbohydrate_polymer': False, 'branch_name': ''}, {'chain_id': 'A', 'author_residue_number': 196, 'author_insertion_code': '', 'chem_comp_id': 'PI', 'alternate_conformers': 1, 'entity_id': 4, 'struct_asym_id': 'I', 'residue_number': 1, 'chem_comp_name': 'HYDROGENPHOSPHATE ION', 'weight': 95.979, 'carbohydrate_polymer': False, 'branch_name': ''}, {'chain_id': 'B', 'author_residue_number': 195, 'author_insertion_code': '', 'chem_comp_id': 'PI', 'alternate_conformers': 1, 'entity_id': 4, 'struct_asym_id': 'Q', 'residue_number': 1, 'chem_comp_name': 'HYDROGENPHOSPHATE ION', 'weight': 95.979, 'carbohydrate_polymer': False, 'branch_name': ''}, {'chain_id': 'A', 'author_residue_number': 197, 'author_insertion_code': '', 'chem_comp_id': 'NH4', 'alternate_conformers': 2, 'entity_id': 5, 'struct_asym_id': 'J', 'residue_number': 1, 'chem_comp_name': 'AMMONIUM ION', 'weight': 18.038, 'carbohydrate_polymer': False, 'branch_name': ''}, {'chain_id': 'A', 'author_residue_number': 198, 'author_insertion_code': '', 'chem_comp_id': 'NH4', 'alternate_conformers': 0, 'entity_id': 5, 'struct_asym_id': 'K', 'residue_number': 1, 'chem_comp_name': 'AMMONIUM ION', 'weight': 18.038, 'carbohydrate_polymer': False, 'branch_name': ''}]

>  <ligand_codes>  (17) 
['XNV', 'XNV', 'EDO', 'EDO', 'EDO', 'EDO', 'EDO', 'EDO', 'EDO', 'EDO', 'PI', 'PI', 'PI', 'NH4', 'NH4']

>  <cofactor_codes>  (17) 
[]

>  <has_cofactor>  (17) 
False

>  <covalent>  (17) 
True

>  <base_name>  (17) 
3Q3Y

>  <lig_resn>  (17) 
XNV

>  <lig_resi>  (17) 
190

>  <lig_chain>  (17) 
A

>  <lig_segi>  (17) 
C

>  <lig_alt>  (17) 
B

>  <polymer_chain>  (17) 
A

>  <single_smiles>  (17) 
CCOC(=O)CC[C@H](C[C@@H]1CCNC1=O)NC(=O)[C@H](CC#C)N2C=CC=C(NC(=O)c3cc(C)on3)C2=O

$$$$
XNVยง2
     RDKit          3D

 44 46  0  0  0  0  0  0  0  0999 V2000
   13.7420   -2.5780  -29.2090 C   0  0  0  0  0  0  0  0  0  0  0  0
   12.6050    0.6110  -25.3330 C   0  0  0  0  0  0  0  0  0  0  0  0
   13.7820   -1.9540  -27.8000 C   0  0  0  0  0  0  0  0  0  0  0  0
   12.6050   -0.7440  -24.6050 C   0  0  0  0  0  0  0  0  0  0  0  0
   13.6850   -2.9200  -26.7390 O   0  0  0  0  0  0  0  0  0  0  0  0
   12.0370   -1.7660  -25.4310 O   0  0  0  0  0  0  0  0  0  0  0  0
   12.5610   -2.8850  -25.9500 C   0  0  0  0  0  0  0  0  0  0  0  0
   12.7310   -2.8550  -25.9230 C   0  0  1  0  0  0  0  0  0  0  0  0
   12.5720   -4.0130  -24.9410 C   0  0  2  0  0  0  0  0  0  0  0  0
   11.3910   -5.0160  -25.0540 C   0  0  1  0  0  0  0  0  0  0  0  0
   11.6210   -6.0140  -26.2160 C   0  0  1  0  0  0  0  0  0  0  0  0
   12.7500   -6.8860  -25.8550 N   0  0  0  0  0  0  0  0  0  0  0  0
   13.7890   -7.1460  -26.7220 C   0  0  0  0  0  0  0  0  0  0  0  0
   14.8750   -8.1080  -26.1960 C   0  0  1  0  0  0  0  0  0  0  0  0
   15.4640   -8.8620  -27.3030 N   0  0  0  0  0  0  0  0  0  0  0  0
   14.6540   -9.9450  -27.7370 C   0  0  0  0  0  0  0  0  0  0  0  0
   15.1800  -10.8110  -28.7820 C   0  0  0  0  0  0  0  0  0  0  0  0
   14.3820  -11.9380  -29.0850 N   0  0  0  0  0  0  0  0  0  0  0  0
   14.9150  -13.2420  -29.0740 C   0  0  0  0  0  0  0  0  0  0  0  0
   13.8630  -14.2910  -29.2360 C   0  0  0  0  0  0  0  0  0  0  0  0
   12.5700  -14.0350  -29.2980 N   0  0  0  0  0  0  0  0  0  0  0  0
   11.9440  -15.2190  -29.4060 O   0  0  0  0  0  0  0  0  0  0  0  0
   12.8460  -16.2510  -29.4440 C   0  0  0  0  0  0  0  0  0  0  0  0
   12.4270  -17.6690  -29.5810 C   0  0  0  0  0  0  0  0  0  0  0  0
   14.0930  -15.7020  -29.3300 C   0  0  0  0  0  0  0  0  0  0  0  0
   16.1000  -13.4820  -29.0430 O   0  0  0  0  0  0  0  0  0  0  0  0
   16.3970  -10.5210  -29.3320 C   0  0  0  0  0  0  0  0  0  0  0  0
   17.1620   -9.3920  -28.9010 C   0  0  0  0  0  0  0  0  0  0  0  0
   16.6900   -8.6010  -27.9060 C   0  0  0  0  0  0  0  0  0  0  0  0
   13.5030  -10.1000  -27.2760 O   0  0  0  0  0  0  0  0  0  0  0  0
   15.9240   -7.3020  -25.3960 C   0  0  0  0  0  0  0  0  0  0  0  0
   16.9190   -8.1750  -24.8550 C   0  0  0  0  0  0  0  0  0  0  0  0
   17.7400   -8.8890  -24.4070 C   0  0  0  0  0  0  0  0  0  0  0  0
   13.8960   -6.5840  -27.8030 O   0  0  0  0  0  0  0  0  0  0  0  0
   10.3170   -6.8220  -26.5110 C   0  0  0  0  0  0  0  0  0  0  0  0
   10.4350   -7.7070  -27.7340 C   0  0  2  0  0  0  0  0  0  0  0  0
   10.6620   -6.9680  -29.0860 C   0  0  0  0  0  0  0  0  0  0  0  0
   10.0050   -7.8790  -30.1160 C   0  0  0  0  0  0  0  0  0  0  0  0
    8.9920   -8.5600  -29.3240 N   0  0  0  0  0  0  0  0  0  0  0  0
    9.1710   -8.4770  -27.9750 C   0  0  0  0  0  0  0  0  0  0  0  0
    8.4540   -8.9770  -27.1120 O   0  0  0  0  0  0  0  0  0  0  0  0
   11.5550   -2.4220  -26.4160 O   0  0  0  0  0  0  0  0  0  0  0  0
   12.8070   -2.9340  -27.1200 O   0  0  0  0  0  0  0  0  0  0  0  0
   11.1870   -5.9250  -23.5380 R   0  0  0  0  0  0  0  0  0  0  0  0
  1  3  1  0
  2  4  1  0
  3  5  1  0
  4  6  1  0
  5  7  1  0
  6  8  1  0
  9  7  1  1
  7 42  2  0
  8  9  1  0
  8 43  1  6
  9 10  1  0
 10 11  1  0
 10 44  1  1
 11 12  1  0
 11 35  1  1
 12 13  1  0
 13 14  1  0
 13 34  2  0
 14 15  1  0
 14 31  1  6
 15 16  1  0
 15 29  1  0
 16 17  1  0
 16 30  2  0
 17 18  1  0
 17 27  2  0
 18 19  1  0
 19 20  1  0
 19 26  2  0
 20 21  2  0
 20 25  1  0
 21 22  1  0
 22 23  1  0
 23 24  1  0
 23 25  2  0
 27 28  1  0
 28 29  2  0
 31 32  1  0
 32 33  3  0
 36 35  1  1
 36 37  1  0
 36 40  1  0
 37 38  1  0
 38 39  1  0
 39 40  1  0
 40 41  2  0
A    1
 C01
A    2
 C01
A    3
 C02
A    4
 C02
A    5
 O03
A    6
 O03
A    7
 C04
A    8
 C04
A    9
 C05
A   10
 C06
A   11
 C07
A   12
 N08
A   13
 C09
A   14
 C10
A   15
 N11
A   16
 C12
A   17
 C13
A   18
 N14
A   19
 C15
A   20
 C16
A   21
 N17
A   22
 O18
A   23
 C19
A   24
 C20
A   25
 C21
A   26
 O22
A   27
 C23
A   28
 C24
A   29
 C25
A   30
 O26
A   31
 C27
A   32
 C28
A   33
 C29
A   34
 O30
A   35
 C31
A   36
 C32
A   37
 C33
A   38
 C34
A   39
 N35
A   40
 C36
A   41
 O37
A   42
 O38
A   43
 O38
A   44
 X  
M  END
>  <XChem_code>  (18) 
XNVยง2

>  <Occupancy>  (18) 
[0.66, 0.34, 0.66, 0.34, 0.66, 0.34, 0.66, 0.34, 1.0, 1.0, 1.0, 1.0, 1.0, 1.0, 1.0, 1.0, 1.0, 1.0, 1.0, 1.0, 1.0, 1.0, 1.0, 1.0, 1.0, 1.0, 1.0, 1.0, 1.0, 1.0, 1.0, 1.0, 1.0, 1.0, 1.0, 1.0, 1.0, 1.0, 1.0, 1.0, 1.0, 0.66, 0.34, 1.0]

>  <TempFactor>  (18) 
[54.5, 48.07, 41.69, 38.69, 22.45, 26.86, 17.92, 20.81, 12.6, 9.45, 9.05, 8.47, 8.64, 8.16, 9.17, 8.79, 9.87, 9.2, 10.41, 10.55, 12.96, 13.71, 15.95, 20.24, 13.07, 12.24, 10.25, 10.03, 8.83, 8.39, 9.11, 9.76, 14.15, 10.23, 7.91, 7.66, 9.19, 9.37, 7.86, 7.41, 8.72, 16.97, 20.7, 7.46]

>  <accession>  (18) 
3Q3Y_A

>  <description>  (18) 
Chain A, HEVB EV93 3C protease [Enterovirus B]

>  <evalue>  (18) 
1.14606e-87

>  <pdb_code>  (18) 
3Q3Y

>  <chain>  (18) 
A

>  <ligands>  (18) 
[{'chain_id': 'A', 'author_residue_number': 190, 'author_insertion_code': '', 'chem_comp_id': 'XNV', 'alternate_conformers': 2, 'entity_id': 2, 'struct_asym_id': 'C', 'residue_number': 1, 'chem_comp_name': 'ethyl (4R)-4-({(2S)-2-[3-{[(5-methyl-1,2-oxazol-3-yl)carbonyl]amino}-2-oxopyridin-1(2H)-yl]pent-4-ynoyl}amino)-5-[(3S)-2-oxopyrrolidin-3-yl]pentanoate', 'weight': 525.554, 'carbohydrate_polymer': False, 'branch_name': ''}, {'chain_id': 'B', 'author_residue_number': 190, 'author_insertion_code': '', 'chem_comp_id': 'XNV', 'alternate_conformers': 2, 'entity_id': 2, 'struct_asym_id': 'L', 'residue_number': 1, 'chem_comp_name': 'ethyl (4R)-4-({(2S)-2-[3-{[(5-methyl-1,2-oxazol-3-yl)carbonyl]amino}-2-oxopyridin-1(2H)-yl]pent-4-ynoyl}amino)-5-[(3S)-2-oxopyrrolidin-3-yl]pentanoate', 'weight': 525.554, 'carbohydrate_polymer': False, 'branch_name': ''}, {'chain_id': 'A', 'author_residue_number': 191, 'author_insertion_code': '', 'chem_comp_id': 'EDO', 'alternate_conformers': 2, 'entity_id': 3, 'struct_asym_id': 'D', 'residue_number': 1, 'chem_comp_name': '1,2-ETHANEDIOL', 'weight': 62.068, 'carbohydrate_polymer': False, 'branch_name': ''}, {'chain_id': 'A', 'author_residue_number': 192, 'author_insertion_code': '', 'chem_comp_id': 'EDO', 'alternate_conformers': 2, 'entity_id': 3, 'struct_asym_id': 'E', 'residue_number': 1, 'chem_comp_name': '1,2-ETHANEDIOL', 'weight': 62.068, 'carbohydrate_polymer': False, 'branch_name': ''}, {'chain_id': 'A', 'author_residue_number': 193, 'author_insertion_code': '', 'chem_comp_id': 'EDO', 'alternate_conformers': 0, 'entity_id': 3, 'struct_asym_id': 'F', 'residue_number': 1, 'chem_comp_name': '1,2-ETHANEDIOL', 'weight': 62.068, 'carbohydrate_polymer': False, 'branch_name': ''}, {'chain_id': 'A', 'author_residue_number': 194, 'author_insertion_code': '', 'chem_comp_id': 'EDO', 'alternate_conformers': 1, 'entity_id': 3, 'struct_asym_id': 'G', 'residue_number': 1, 'chem_comp_name': '1,2-ETHANEDIOL', 'weight': 62.068, 'carbohydrate_polymer': False, 'branch_name': ''}, {'chain_id': 'B', 'author_residue_number': 191, 'author_insertion_code': '', 'chem_comp_id': 'EDO', 'alternate_conformers': 2, 'entity_id': 3, 'struct_asym_id': 'M', 'residue_number': 1, 'chem_comp_name': '1,2-ETHANEDIOL', 'weight': 62.068, 'carbohydrate_polymer': False, 'branch_name': ''}, {'chain_id': 'B', 'author_residue_number': 192, 'author_insertion_code': '', 'chem_comp_id': 'EDO', 'alternate_conformers': 0, 'entity_id': 3, 'struct_asym_id': 'N', 'residue_number': 1, 'chem_comp_name': '1,2-ETHANEDIOL', 'weight': 62.068, 'carbohydrate_polymer': False, 'branch_name': ''}, {'chain_id': 'B', 'author_residue_number': 193, 'author_insertion_code': '', 'chem_comp_id': 'EDO', 'alternate_conformers': 2, 'entity_id': 3, 'struct_asym_id': 'O', 'residue_number': 1, 'chem_comp_name': '1,2-ETHANEDIOL', 'weight': 62.068, 'carbohydrate_polymer': False, 'branch_name': ''}, {'chain_id': 'B', 'author_residue_number': 194, 'author_insertion_code': '', 'chem_comp_id': 'EDO', 'alternate_conformers': 1, 'entity_id': 3, 'struct_asym_id': 'P', 'residue_number': 1, 'chem_comp_name': '1,2-ETHANEDIOL', 'weight': 62.068, 'carbohydrate_polymer': False, 'branch_name': ''}, {'chain_id': 'A', 'author_residue_number': 195, 'author_insertion_code': '', 'chem_comp_id': 'PI', 'alternate_conformers': 1, 'entity_id': 4, 'struct_asym_id': 'H', 'residue_number': 1, 'chem_comp_name': 'HYDROGENPHOSPHATE ION', 'weight': 95.979, 'carbohydrate_polymer': False, 'branch_name': ''}, {'chain_id': 'A', 'author_residue_number': 196, 'author_insertion_code': '', 'chem_comp_id': 'PI', 'alternate_conformers': 1, 'entity_id': 4, 'struct_asym_id': 'I', 'residue_number': 1, 'chem_comp_name': 'HYDROGENPHOSPHATE ION', 'weight': 95.979, 'carbohydrate_polymer': False, 'branch_name': ''}, {'chain_id': 'B', 'author_residue_number': 195, 'author_insertion_code': '', 'chem_comp_id': 'PI', 'alternate_conformers': 1, 'entity_id': 4, 'struct_asym_id': 'Q', 'residue_number': 1, 'chem_comp_name': 'HYDROGENPHOSPHATE ION', 'weight': 95.979, 'carbohydrate_polymer': False, 'branch_name': ''}, {'chain_id': 'A', 'author_residue_number': 197, 'author_insertion_code': '', 'chem_comp_id': 'NH4', 'alternate_conformers': 2, 'entity_id': 5, 'struct_asym_id': 'J', 'residue_number': 1, 'chem_comp_name': 'AMMONIUM ION', 'weight': 18.038, 'carbohydrate_polymer': False, 'branch_name': ''}, {'chain_id': 'A', 'author_residue_number': 198, 'author_insertion_code': '', 'chem_comp_id': 'NH4', 'alternate_conformers': 0, 'entity_id': 5, 'struct_asym_id': 'K', 'residue_number': 1, 'chem_comp_name': 'AMMONIUM ION', 'weight': 18.038, 'carbohydrate_polymer': False, 'branch_name': ''}]

>  <ligand_codes>  (18) 
['XNV', 'XNV', 'EDO', 'EDO', 'EDO', 'EDO', 'EDO', 'EDO', 'EDO', 'EDO', 'PI', 'PI', 'PI', 'NH4', 'NH4']

>  <cofactor_codes>  (18) 
[]

>  <has_cofactor>  (18) 
False

>  <covalent>  (18) 
True

>  <base_name>  (18) 
3Q3Y

>  <lig_resn>  (18) 
XNV

>  <lig_resi>  (18) 
190

>  <lig_chain>  (18) 
B

>  <lig_segi>  (18) 
L

>  <lig_alt>  (18) 


>  <polymer_chain>  (18) 
A

>  <single_smiles>  (18) 
CCOC(=O)CC[C@H](C[C@@H]1CCNC1=O)NC(=O)[C@H](CC#C)N2C=CC=C(NC(=O)c3cc(C)on3)C2=O

$$$$
XNVยง3
     RDKit          3D

  6  5  0  0  0  0  0  0  0  0999 V2000
   13.7420   -2.5780  -29.2090 C   0  0  0  0  0  0  0  0  0  0  0  0
   13.7820   -1.9540  -27.8000 C   0  0  0  0  0  0  0  0  0  0  0  0
   13.6850   -2.9200  -26.7390 O   0  0  0  0  0  0  0  0  0  0  0  0
   12.5610   -2.8850  -25.9500 C   0  0  1  0  0  0  0  0  0  0  0  0
   11.5550   -2.4220  -26.4160 O   0  0  0  0  0  0  0  0  0  0  0  0
   12.5720   -4.0130  -24.9410 R   0  0  0  0  0  0  0  0  0  0  0  0
  1  2  1  0
  2  3  1  0
  3  4  1  0
  4  5  1  0
  4  6  1  6
A    1
 C01
A    2
 C02
A    3
 O03
A    4
 C04
A    5
 O38
A    6
 X  
M  END
>  <XChem_code>  (19) 
XNVยง3

>  <Occupancy>  (19) 
[0.66, 0.66, 0.66, 0.66, 0.66, 1.0]

>  <TempFactor>  (19) 
[54.5, 41.69, 22.45, 17.92, 16.97, 12.6]

>  <accession>  (19) 
3Q3Y_A

>  <description>  (19) 
Chain A, HEVB EV93 3C protease [Enterovirus B]

>  <evalue>  (19) 
1.14606e-87

>  <pdb_code>  (19) 
3Q3Y

>  <chain>  (19) 
A

>  <ligands>  (19) 
[{'chain_id': 'A', 'author_residue_number': 190, 'author_insertion_code': '', 'chem_comp_id': 'XNV', 'alternate_conformers': 2, 'entity_id': 2, 'struct_asym_id': 'C', 'residue_number': 1, 'chem_comp_name': 'ethyl (4R)-4-({(2S)-2-[3-{[(5-methyl-1,2-oxazol-3-yl)carbonyl]amino}-2-oxopyridin-1(2H)-yl]pent-4-ynoyl}amino)-5-[(3S)-2-oxopyrrolidin-3-yl]pentanoate', 'weight': 525.554, 'carbohydrate_polymer': False, 'branch_name': ''}, {'chain_id': 'B', 'author_residue_number': 190, 'author_insertion_code': '', 'chem_comp_id': 'XNV', 'alternate_conformers': 2, 'entity_id': 2, 'struct_asym_id': 'L', 'residue_number': 1, 'chem_comp_name': 'ethyl (4R)-4-({(2S)-2-[3-{[(5-methyl-1,2-oxazol-3-yl)carbonyl]amino}-2-oxopyridin-1(2H)-yl]pent-4-ynoyl}amino)-5-[(3S)-2-oxopyrrolidin-3-yl]pentanoate', 'weight': 525.554, 'carbohydrate_polymer': False, 'branch_name': ''}, {'chain_id': 'A', 'author_residue_number': 191, 'author_insertion_code': '', 'chem_comp_id': 'EDO', 'alternate_conformers': 2, 'entity_id': 3, 'struct_asym_id': 'D', 'residue_number': 1, 'chem_comp_name': '1,2-ETHANEDIOL', 'weight': 62.068, 'carbohydrate_polymer': False, 'branch_name': ''}, {'chain_id': 'A', 'author_residue_number': 192, 'author_insertion_code': '', 'chem_comp_id': 'EDO', 'alternate_conformers': 2, 'entity_id': 3, 'struct_asym_id': 'E', 'residue_number': 1, 'chem_comp_name': '1,2-ETHANEDIOL', 'weight': 62.068, 'carbohydrate_polymer': False, 'branch_name': ''}, {'chain_id': 'A', 'author_residue_number': 193, 'author_insertion_code': '', 'chem_comp_id': 'EDO', 'alternate_conformers': 0, 'entity_id': 3, 'struct_asym_id': 'F', 'residue_number': 1, 'chem_comp_name': '1,2-ETHANEDIOL', 'weight': 62.068, 'carbohydrate_polymer': False, 'branch_name': ''}, {'chain_id': 'A', 'author_residue_number': 194, 'author_insertion_code': '', 'chem_comp_id': 'EDO', 'alternate_conformers': 1, 'entity_id': 3, 'struct_asym_id': 'G', 'residue_number': 1, 'chem_comp_name': '1,2-ETHANEDIOL', 'weight': 62.068, 'carbohydrate_polymer': False, 'branch_name': ''}, {'chain_id': 'B', 'author_residue_number': 191, 'author_insertion_code': '', 'chem_comp_id': 'EDO', 'alternate_conformers': 2, 'entity_id': 3, 'struct_asym_id': 'M', 'residue_number': 1, 'chem_comp_name': '1,2-ETHANEDIOL', 'weight': 62.068, 'carbohydrate_polymer': False, 'branch_name': ''}, {'chain_id': 'B', 'author_residue_number': 192, 'author_insertion_code': '', 'chem_comp_id': 'EDO', 'alternate_conformers': 0, 'entity_id': 3, 'struct_asym_id': 'N', 'residue_number': 1, 'chem_comp_name': '1,2-ETHANEDIOL', 'weight': 62.068, 'carbohydrate_polymer': False, 'branch_name': ''}, {'chain_id': 'B', 'author_residue_number': 193, 'author_insertion_code': '', 'chem_comp_id': 'EDO', 'alternate_conformers': 2, 'entity_id': 3, 'struct_asym_id': 'O', 'residue_number': 1, 'chem_comp_name': '1,2-ETHANEDIOL', 'weight': 62.068, 'carbohydrate_polymer': False, 'branch_name': ''}, {'chain_id': 'B', 'author_residue_number': 194, 'author_insertion_code': '', 'chem_comp_id': 'EDO', 'alternate_conformers': 1, 'entity_id': 3, 'struct_asym_id': 'P', 'residue_number': 1, 'chem_comp_name': '1,2-ETHANEDIOL', 'weight': 62.068, 'carbohydrate_polymer': False, 'branch_name': ''}, {'chain_id': 'A', 'author_residue_number': 195, 'author_insertion_code': '', 'chem_comp_id': 'PI', 'alternate_conformers': 1, 'entity_id': 4, 'struct_asym_id': 'H', 'residue_number': 1, 'chem_comp_name': 'HYDROGENPHOSPHATE ION', 'weight': 95.979, 'carbohydrate_polymer': False, 'branch_name': ''}, {'chain_id': 'A', 'author_residue_number': 196, 'author_insertion_code': '', 'chem_comp_id': 'PI', 'alternate_conformers': 1, 'entity_id': 4, 'struct_asym_id': 'I', 'residue_number': 1, 'chem_comp_name': 'HYDROGENPHOSPHATE ION', 'weight': 95.979, 'carbohydrate_polymer': False, 'branch_name': ''}, {'chain_id': 'B', 'author_residue_number': 195, 'author_insertion_code': '', 'chem_comp_id': 'PI', 'alternate_conformers': 1, 'entity_id': 4, 'struct_asym_id': 'Q', 'residue_number': 1, 'chem_comp_name': 'HYDROGENPHOSPHATE ION', 'weight': 95.979, 'carbohydrate_polymer': False, 'branch_name': ''}, {'chain_id': 'A', 'author_residue_number': 197, 'author_insertion_code': '', 'chem_comp_id': 'NH4', 'alternate_conformers': 2, 'entity_id': 5, 'struct_asym_id': 'J', 'residue_number': 1, 'chem_comp_name': 'AMMONIUM ION', 'weight': 18.038, 'carbohydrate_polymer': False, 'branch_name': ''}, {'chain_id': 'A', 'author_residue_number': 198, 'author_insertion_code': '', 'chem_comp_id': 'NH4', 'alternate_conformers': 0, 'entity_id': 5, 'struct_asym_id': 'K', 'residue_number': 1, 'chem_comp_name': 'AMMONIUM ION', 'weight': 18.038, 'carbohydrate_polymer': False, 'branch_name': ''}]

>  <ligand_codes>  (19) 
['XNV', 'XNV', 'EDO', 'EDO', 'EDO', 'EDO', 'EDO', 'EDO', 'EDO', 'EDO', 'PI', 'PI', 'PI', 'NH4', 'NH4']

>  <cofactor_codes>  (19) 
[]

>  <has_cofactor>  (19) 
False

>  <covalent>  (19) 
True

>  <base_name>  (19) 
3Q3Y

>  <lig_resn>  (19) 
XNV

>  <lig_resi>  (19) 
190

>  <lig_chain>  (19) 
B

>  <lig_segi>  (19) 
L

>  <lig_alt>  (19) 
A

>  <polymer_chain>  (19) 
A

>  <single_smiles>  (19) 
CCOC(=O)CC[C@H](C[C@@H]1CCNC1=O)NC(=O)[C@H](CC#C)N2C=CC=C(NC(=O)c3cc(C)on3)C2=O

$$$$
XNVยง4
     RDKit          3D

  6  5  0  0  0  0  0  0  0  0999 V2000
   12.6050    0.6110  -25.3330 C   0  0  0  0  0  0  0  0  0  0  0  0
   12.6050   -0.7440  -24.6050 C   0  0  0  0  0  0  0  0  0  0  0  0
   12.0370   -1.7660  -25.4310 O   0  0  0  0  0  0  0  0  0  0  0  0
   12.7310   -2.8550  -25.9230 C   0  0  2  0  0  0  0  0  0  0  0  0
   12.8070   -2.9340  -27.1200 O   0  0  0  0  0  0  0  0  0  0  0  0
   12.5720   -4.0130  -24.9410 R   0  0  0  0  0  0  0  0  0  0  0  0
  1  2  1  0
  2  3  1  0
  3  4  1  0
  4  5  1  0
  4  6  1  6
A    1
 C01
A    2
 C02
A    3
 O03
A    4
 C04
A    5
 O38
A    6
 X  
M  END
>  <XChem_code>  (20) 
XNVยง4

>  <Occupancy>  (20) 
[0.34, 0.34, 0.34, 0.34, 0.34, 1.0]

>  <TempFactor>  (20) 
[48.07, 38.69, 26.86, 20.81, 20.7, 12.6]

>  <accession>  (20) 
3Q3Y_A

>  <description>  (20) 
Chain A, HEVB EV93 3C protease [Enterovirus B]

>  <evalue>  (20) 
1.14606e-87

>  <pdb_code>  (20) 
3Q3Y

>  <chain>  (20) 
A

>  <ligands>  (20) 
[{'chain_id': 'A', 'author_residue_number': 190, 'author_insertion_code': '', 'chem_comp_id': 'XNV', 'alternate_conformers': 2, 'entity_id': 2, 'struct_asym_id': 'C', 'residue_number': 1, 'chem_comp_name': 'ethyl (4R)-4-({(2S)-2-[3-{[(5-methyl-1,2-oxazol-3-yl)carbonyl]amino}-2-oxopyridin-1(2H)-yl]pent-4-ynoyl}amino)-5-[(3S)-2-oxopyrrolidin-3-yl]pentanoate', 'weight': 525.554, 'carbohydrate_polymer': False, 'branch_name': ''}, {'chain_id': 'B', 'author_residue_number': 190, 'author_insertion_code': '', 'chem_comp_id': 'XNV', 'alternate_conformers': 2, 'entity_id': 2, 'struct_asym_id': 'L', 'residue_number': 1, 'chem_comp_name': 'ethyl (4R)-4-({(2S)-2-[3-{[(5-methyl-1,2-oxazol-3-yl)carbonyl]amino}-2-oxopyridin-1(2H)-yl]pent-4-ynoyl}amino)-5-[(3S)-2-oxopyrrolidin-3-yl]pentanoate', 'weight': 525.554, 'carbohydrate_polymer': False, 'branch_name': ''}, {'chain_id': 'A', 'author_residue_number': 191, 'author_insertion_code': '', 'chem_comp_id': 'EDO', 'alternate_conformers': 2, 'entity_id': 3, 'struct_asym_id': 'D', 'residue_number': 1, 'chem_comp_name': '1,2-ETHANEDIOL', 'weight': 62.068, 'carbohydrate_polymer': False, 'branch_name': ''}, {'chain_id': 'A', 'author_residue_number': 192, 'author_insertion_code': '', 'chem_comp_id': 'EDO', 'alternate_conformers': 2, 'entity_id': 3, 'struct_asym_id': 'E', 'residue_number': 1, 'chem_comp_name': '1,2-ETHANEDIOL', 'weight': 62.068, 'carbohydrate_polymer': False, 'branch_name': ''}, {'chain_id': 'A', 'author_residue_number': 193, 'author_insertion_code': '', 'chem_comp_id': 'EDO', 'alternate_conformers': 0, 'entity_id': 3, 'struct_asym_id': 'F', 'residue_number': 1, 'chem_comp_name': '1,2-ETHANEDIOL', 'weight': 62.068, 'carbohydrate_polymer': False, 'branch_name': ''}, {'chain_id': 'A', 'author_residue_number': 194, 'author_insertion_code': '', 'chem_comp_id': 'EDO', 'alternate_conformers': 1, 'entity_id': 3, 'struct_asym_id': 'G', 'residue_number': 1, 'chem_comp_name': '1,2-ETHANEDIOL', 'weight': 62.068, 'carbohydrate_polymer': False, 'branch_name': ''}, {'chain_id': 'B', 'author_residue_number': 191, 'author_insertion_code': '', 'chem_comp_id': 'EDO', 'alternate_conformers': 2, 'entity_id': 3, 'struct_asym_id': 'M', 'residue_number': 1, 'chem_comp_name': '1,2-ETHANEDIOL', 'weight': 62.068, 'carbohydrate_polymer': False, 'branch_name': ''}, {'chain_id': 'B', 'author_residue_number': 192, 'author_insertion_code': '', 'chem_comp_id': 'EDO', 'alternate_conformers': 0, 'entity_id': 3, 'struct_asym_id': 'N', 'residue_number': 1, 'chem_comp_name': '1,2-ETHANEDIOL', 'weight': 62.068, 'carbohydrate_polymer': False, 'branch_name': ''}, {'chain_id': 'B', 'author_residue_number': 193, 'author_insertion_code': '', 'chem_comp_id': 'EDO', 'alternate_conformers': 2, 'entity_id': 3, 'struct_asym_id': 'O', 'residue_number': 1, 'chem_comp_name': '1,2-ETHANEDIOL', 'weight': 62.068, 'carbohydrate_polymer': False, 'branch_name': ''}, {'chain_id': 'B', 'author_residue_number': 194, 'author_insertion_code': '', 'chem_comp_id': 'EDO', 'alternate_conformers': 1, 'entity_id': 3, 'struct_asym_id': 'P', 'residue_number': 1, 'chem_comp_name': '1,2-ETHANEDIOL', 'weight': 62.068, 'carbohydrate_polymer': False, 'branch_name': ''}, {'chain_id': 'A', 'author_residue_number': 195, 'author_insertion_code': '', 'chem_comp_id': 'PI', 'alternate_conformers': 1, 'entity_id': 4, 'struct_asym_id': 'H', 'residue_number': 1, 'chem_comp_name': 'HYDROGENPHOSPHATE ION', 'weight': 95.979, 'carbohydrate_polymer': False, 'branch_name': ''}, {'chain_id': 'A', 'author_residue_number': 196, 'author_insertion_code': '', 'chem_comp_id': 'PI', 'alternate_conformers': 1, 'entity_id': 4, 'struct_asym_id': 'I', 'residue_number': 1, 'chem_comp_name': 'HYDROGENPHOSPHATE ION', 'weight': 95.979, 'carbohydrate_polymer': False, 'branch_name': ''}, {'chain_id': 'B', 'author_residue_number': 195, 'author_insertion_code': '', 'chem_comp_id': 'PI', 'alternate_conformers': 1, 'entity_id': 4, 'struct_asym_id': 'Q', 'residue_number': 1, 'chem_comp_name': 'HYDROGENPHOSPHATE ION', 'weight': 95.979, 'carbohydrate_polymer': False, 'branch_name': ''}, {'chain_id': 'A', 'author_residue_number': 197, 'author_insertion_code': '', 'chem_comp_id': 'NH4', 'alternate_conformers': 2, 'entity_id': 5, 'struct_asym_id': 'J', 'residue_number': 1, 'chem_comp_name': 'AMMONIUM ION', 'weight': 18.038, 'carbohydrate_polymer': False, 'branch_name': ''}, {'chain_id': 'A', 'author_residue_number': 198, 'author_insertion_code': '', 'chem_comp_id': 'NH4', 'alternate_conformers': 0, 'entity_id': 5, 'struct_asym_id': 'K', 'residue_number': 1, 'chem_comp_name': 'AMMONIUM ION', 'weight': 18.038, 'carbohydrate_polymer': False, 'branch_name': ''}]

>  <ligand_codes>  (20) 
['XNV', 'XNV', 'EDO', 'EDO', 'EDO', 'EDO', 'EDO', 'EDO', 'EDO', 'EDO', 'PI', 'PI', 'PI', 'NH4', 'NH4']

>  <cofactor_codes>  (20) 
[]

>  <has_cofactor>  (20) 
False

>  <covalent>  (20) 
True

>  <base_name>  (20) 
3Q3Y

>  <lig_resn>  (20) 
XNV

>  <lig_resi>  (20) 
190

>  <lig_chain>  (20) 
B

>  <lig_segi>  (20) 
L

>  <lig_alt>  (20) 
B

>  <polymer_chain>  (20) 
A

>  <single_smiles>  (20) 
CCOC(=O)CC[C@H](C[C@@H]1CCNC1=O)NC(=O)[C@H](CC#C)N2C=CC=C(NC(=O)c3cc(C)on3)C2=O

$$$$
XNVยง5
     RDKit          3D

 44 46  0  0  0  0  0  0  0  0999 V2000
   -4.2700   11.1150  -37.7120 C   0  0  0  0  0  0  0  0  0  0  0  0
   -6.4370    5.4350  -38.6720 C   0  0  0  0  0  0  0  0  0  0  0  0
   -4.5680    9.6340  -37.4070 C   0  0  0  0  0  0  0  0  0  0  0  0
   -6.9670    6.7070  -37.9880 C   0  0  0  0  0  0  0  0  0  0  0  0
   -5.9620    9.3890  -37.1520 O   0  0  0  0  0  0  0  0  0  0  0  0
   -5.9500    7.3430  -37.2070 O   0  0  0  0  0  0  0  0  0  0  0  0
   -6.2830    8.2890  -36.3860 C   0  0  1  0  0  0  0  0  0  0  0  0
   -6.2390    8.3590  -36.3130 C   0  0  2  0  0  0  0  0  0  0  0  0
   -8.0140    8.4320  -34.3930 C   0  0  1  0  0  0  0  0  0  0  0  0
   -7.6700    9.8230  -33.7780 C   0  0  1  0  0  0  0  0  0  0  0  0
   -8.6960   10.7850  -34.1610 N   0  0  0  0  0  0  0  0  0  0  0  0
   -8.3660   11.9860  -34.7380 C   0  0  0  0  0  0  0  0  0  0  0  0
   -9.5440   12.8720  -35.1700 C   0  0  1  0  0  0  0  0  0  0  0  0
   -9.2290   14.2940  -34.9840 N   0  0  0  0  0  0  0  0  0  0  0  0
   -9.2700   14.7400  -33.6260 C   0  0  0  0  0  0  0  0  0  0  0  0
   -9.0490   16.1590  -33.3600 C   0  0  0  0  0  0  0  0  0  0  0  0
   -9.2490   16.5750  -32.0350 N   0  0  0  0  0  0  0  0  0  0  0  0
  -10.0950   17.6650  -31.7210 C   0  0  0  0  0  0  0  0  0  0  0  0
  -10.3340   17.8140  -30.2530 C   0  0  0  0  0  0  0  0  0  0  0  0
   -9.8210   17.0290  -29.3110 N   0  0  0  0  0  0  0  0  0  0  0  0
  -10.2850   17.4780  -28.1290 O   0  0  0  0  0  0  0  0  0  0  0  0
  -11.0580   18.5830  -28.2730 C   0  0  0  0  0  0  0  0  0  0  0  0
  -11.6710   19.3000  -27.1340 C   0  0  0  0  0  0  0  0  0  0  0  0
  -11.1330   18.8400  -29.6240 C   0  0  0  0  0  0  0  0  0  0  0  0
  -10.5810   18.4340  -32.5450 O   0  0  0  0  0  0  0  0  0  0  0  0
   -8.7180   16.9980  -34.4080 C   0  0  0  0  0  0  0  0  0  0  0  0
   -8.6520   16.4840  -35.7260 C   0  0  0  0  0  0  0  0  0  0  0  0
   -8.8880   15.1740  -35.9880 C   0  0  0  0  0  0  0  0  0  0  0  0
   -9.5210   13.9120  -32.7390 O   0  0  0  0  0  0  0  0  0  0  0  0
   -9.9610   12.5320  -36.6040 C   0  0  0  0  0  0  0  0  0  0  0  0
  -11.1420   13.3100  -36.9200 C   0  0  0  0  0  0  0  0  0  0  0  0
  -12.1000   13.9360  -37.1800 C   0  0  0  0  0  0  0  0  0  0  0  0
   -7.2170   12.3540  -34.9210 O   0  0  0  0  0  0  0  0  0  0  0  0
   -7.5070    9.7730  -32.2370 C   0  0  0  0  0  0  0  0  0  0  0  0
   -7.1020   11.0700  -31.5740 C   0  0  2  0  0  0  0  0  0  0  0  0
   -5.6570   11.5300  -31.9370 C   0  0  0  0  0  0  0  0  0  0  0  0
   -5.2110   12.3590  -30.7450 C   0  0  0  0  0  0  0  0  0  0  0  0
   -5.9230   11.6850  -29.6600 N   0  0  0  0  0  0  0  0  0  0  0  0
   -7.0130   10.9790  -30.0830 C   0  0  0  0  0  0  0  0  0  0  0  0
   -7.8230   10.4100  -29.3700 O   0  0  0  0  0  0  0  0  0  0  0  0
   -5.3980    7.7430  -35.7710 O   0  0  0  0  0  0  0  0  0  0  0  0
   -5.3090    8.7040  -35.6100 O   0  0  0  0  0  0  0  0  0  0  0  0
   -9.6590    8.0130  -33.9280 R   0  0  0  0  0  0  0  0  0  0  0  0
   -7.7310    8.3810  -35.9230 R   0  0  0  0  0  0  0  0  0  0  0  0
  1  3  1  0
  2  4  1  0
  3  5  1  0
  4  6  1  0
  5  7  1  0
  6  8  1  0
  7 41  1  1
  7 44  1  0
  8 42  1  1
  8 44  1  0
  9 10  1  0
  9 43  1  6
  9 44  1  0
 10 11  1  0
 10 34  1  1
 11 12  1  0
 12 13  1  0
 12 33  1  0
 13 14  1  0
 13 30  1  6
 14 15  1  0
 14 28  1  0
 15 16  1  0
 15 29  1  0
 16 17  1  0
 16 26  1  0
 17 18  1  0
 18 19  1  0
 18 25  1  0
 19 20  1  0
 19 24  1  0
 20 21  1  0
 21 22  1  0
 22 23  1  0
 22 24  1  0
 26 27  1  0
 27 28  1  0
 30 31  1  0
 31 32  1  0
 35 34  1  6
 35 36  1  0
 35 39  1  0
 36 37  1  0
 37 38  1  0
 38 39  1  0
 39 40  1  0
A    1
 C01
A    2
 C01
A    3
 C02
A    4
 C02
A    5
 O03
A    6
 O03
A    7
 C04
A    8
 C04
A    9
 C06
A   10
 C07
A   11
 N08
A   12
 C09
A   13
 C10
A   14
 N11
A   15
 C12
A   16
 C13
A   17
 N14
A   18
 C15
A   19
 C16
A   20
 N17
A   21
 O18
A   22
 C19
A   23
 C20
A   24
 C21
A   25
 O22
A   26
 C23
A   27
 C24
A   28
 C25
A   29
 O26
A   30
 C27
A   31
 C28
A   32
 C29
A   33
 O30
A   34
 C31
A   35
 C32
A   36
 C33
A   37
 C34
A   38
 N35
A   39
 C36
A   40
 O37
A   41
 O38
A   42
 O38
A   43
 X  
A   44
 X  
M  END
>  <XChem_code>  (21) 
XNVยง5

>  <Occupancy>  (21) 
[0.69, 0.31, 0.69, 0.31, 0.69, 0.31, 0.69, 0.31, 1.0, 1.0, 1.0, 1.0, 1.0, 1.0, 1.0, 1.0, 1.0, 1.0, 1.0, 1.0, 1.0, 1.0, 1.0, 1.0, 1.0, 1.0, 1.0, 1.0, 1.0, 1.0, 1.0, 1.0, 1.0, 1.0, 1.0, 1.0, 1.0, 1.0, 1.0, 1.0, 0.69, 0.31, 1.0, 1.0]

>  <TempFactor>  (21) 
[53.57, 61.0, 41.59, 49.21, 23.74, 32.51, 19.1, 21.28, 7.6, 8.11, 8.4, 9.74, 8.05, 8.56, 8.33, 8.16, 7.98, 7.67, 8.77, 11.26, 12.79, 12.84, 16.26, 10.81, 9.75, 8.32, 9.11, 8.82, 8.1, 8.86, 9.21, 10.73, 9.43, 7.8, 6.74, 9.87, 8.87, 8.14, 7.89, 8.51, 19.72, 18.23, 7.31, 12.55]

>  <accession>  (21) 
3Q3Y_A

>  <description>  (21) 
Chain A, HEVB EV93 3C protease [Enterovirus B]

>  <evalue>  (21) 
1.14606e-87

>  <pdb_code>  (21) 
3Q3Y

>  <chain>  (21) 
A

>  <ligands>  (21) 
[{'chain_id': 'A', 'author_residue_number': 190, 'author_insertion_code': '', 'chem_comp_id': 'XNV', 'alternate_conformers': 2, 'entity_id': 2, 'struct_asym_id': 'C', 'residue_number': 1, 'chem_comp_name': 'ethyl (4R)-4-({(2S)-2-[3-{[(5-methyl-1,2-oxazol-3-yl)carbonyl]amino}-2-oxopyridin-1(2H)-yl]pent-4-ynoyl}amino)-5-[(3S)-2-oxopyrrolidin-3-yl]pentanoate', 'weight': 525.554, 'carbohydrate_polymer': False, 'branch_name': ''}, {'chain_id': 'B', 'author_residue_number': 190, 'author_insertion_code': '', 'chem_comp_id': 'XNV', 'alternate_conformers': 2, 'entity_id': 2, 'struct_asym_id': 'L', 'residue_number': 1, 'chem_comp_name': 'ethyl (4R)-4-({(2S)-2-[3-{[(5-methyl-1,2-oxazol-3-yl)carbonyl]amino}-2-oxopyridin-1(2H)-yl]pent-4-ynoyl}amino)-5-[(3S)-2-oxopyrrolidin-3-yl]pentanoate', 'weight': 525.554, 'carbohydrate_polymer': False, 'branch_name': ''}, {'chain_id': 'A', 'author_residue_number': 191, 'author_insertion_code': '', 'chem_comp_id': 'EDO', 'alternate_conformers': 2, 'entity_id': 3, 'struct_asym_id': 'D', 'residue_number': 1, 'chem_comp_name': '1,2-ETHANEDIOL', 'weight': 62.068, 'carbohydrate_polymer': False, 'branch_name': ''}, {'chain_id': 'A', 'author_residue_number': 192, 'author_insertion_code': '', 'chem_comp_id': 'EDO', 'alternate_conformers': 2, 'entity_id': 3, 'struct_asym_id': 'E', 'residue_number': 1, 'chem_comp_name': '1,2-ETHANEDIOL', 'weight': 62.068, 'carbohydrate_polymer': False, 'branch_name': ''}, {'chain_id': 'A', 'author_residue_number': 193, 'author_insertion_code': '', 'chem_comp_id': 'EDO', 'alternate_conformers': 0, 'entity_id': 3, 'struct_asym_id': 'F', 'residue_number': 1, 'chem_comp_name': '1,2-ETHANEDIOL', 'weight': 62.068, 'carbohydrate_polymer': False, 'branch_name': ''}, {'chain_id': 'A', 'author_residue_number': 194, 'author_insertion_code': '', 'chem_comp_id': 'EDO', 'alternate_conformers': 1, 'entity_id': 3, 'struct_asym_id': 'G', 'residue_number': 1, 'chem_comp_name': '1,2-ETHANEDIOL', 'weight': 62.068, 'carbohydrate_polymer': False, 'branch_name': ''}, {'chain_id': 'B', 'author_residue_number': 191, 'author_insertion_code': '', 'chem_comp_id': 'EDO', 'alternate_conformers': 2, 'entity_id': 3, 'struct_asym_id': 'M', 'residue_number': 1, 'chem_comp_name': '1,2-ETHANEDIOL', 'weight': 62.068, 'carbohydrate_polymer': False, 'branch_name': ''}, {'chain_id': 'B', 'author_residue_number': 192, 'author_insertion_code': '', 'chem_comp_id': 'EDO', 'alternate_conformers': 0, 'entity_id': 3, 'struct_asym_id': 'N', 'residue_number': 1, 'chem_comp_name': '1,2-ETHANEDIOL', 'weight': 62.068, 'carbohydrate_polymer': False, 'branch_name': ''}, {'chain_id': 'B', 'author_residue_number': 193, 'author_insertion_code': '', 'chem_comp_id': 'EDO', 'alternate_conformers': 2, 'entity_id': 3, 'struct_asym_id': 'O', 'residue_number': 1, 'chem_comp_name': '1,2-ETHANEDIOL', 'weight': 62.068, 'carbohydrate_polymer': False, 'branch_name': ''}, {'chain_id': 'B', 'author_residue_number': 194, 'author_insertion_code': '', 'chem_comp_id': 'EDO', 'alternate_conformers': 1, 'entity_id': 3, 'struct_asym_id': 'P', 'residue_number': 1, 'chem_comp_name': '1,2-ETHANEDIOL', 'weight': 62.068, 'carbohydrate_polymer': False, 'branch_name': ''}, {'chain_id': 'A', 'author_residue_number': 195, 'author_insertion_code': '', 'chem_comp_id': 'PI', 'alternate_conformers': 1, 'entity_id': 4, 'struct_asym_id': 'H', 'residue_number': 1, 'chem_comp_name': 'HYDROGENPHOSPHATE ION', 'weight': 95.979, 'carbohydrate_polymer': False, 'branch_name': ''}, {'chain_id': 'A', 'author_residue_number': 196, 'author_insertion_code': '', 'chem_comp_id': 'PI', 'alternate_conformers': 1, 'entity_id': 4, 'struct_asym_id': 'I', 'residue_number': 1, 'chem_comp_name': 'HYDROGENPHOSPHATE ION', 'weight': 95.979, 'carbohydrate_polymer': False, 'branch_name': ''}, {'chain_id': 'B', 'author_residue_number': 195, 'author_insertion_code': '', 'chem_comp_id': 'PI', 'alternate_conformers': 1, 'entity_id': 4, 'struct_asym_id': 'Q', 'residue_number': 1, 'chem_comp_name': 'HYDROGENPHOSPHATE ION', 'weight': 95.979, 'carbohydrate_polymer': False, 'branch_name': ''}, {'chain_id': 'A', 'author_residue_number': 197, 'author_insertion_code': '', 'chem_comp_id': 'NH4', 'alternate_conformers': 2, 'entity_id': 5, 'struct_asym_id': 'J', 'residue_number': 1, 'chem_comp_name': 'AMMONIUM ION', 'weight': 18.038, 'carbohydrate_polymer': False, 'branch_name': ''}, {'chain_id': 'A', 'author_residue_number': 198, 'author_insertion_code': '', 'chem_comp_id': 'NH4', 'alternate_conformers': 0, 'entity_id': 5, 'struct_asym_id': 'K', 'residue_number': 1, 'chem_comp_name': 'AMMONIUM ION', 'weight': 18.038, 'carbohydrate_polymer': False, 'branch_name': ''}]

>  <ligand_codes>  (21) 
['XNV', 'XNV', 'EDO', 'EDO', 'EDO', 'EDO', 'EDO', 'EDO', 'EDO', 'EDO', 'PI', 'PI', 'PI', 'NH4', 'NH4']

>  <cofactor_codes>  (21) 
[]

>  <has_cofactor>  (21) 
False

>  <covalent>  (21) 
True

>  <base_name>  (21) 
3Q3Y

>  <lig_resn>  (21) 
XNV

>  <lig_resi>  (21) 
190

>  <lig_chain>  (21) 
A

>  <lig_segi>  (21) 
C

>  <lig_alt>  (21) 


>  <polymer_chain>  (21) 
A

>  <single_smiles>  (21) 
CCOC(=O)CC[C@H](C[C@@H]1CCNC1=O)NC(=O)[C@H](CC#C)N2C=CC=C(NC(=O)c3cc(C)on3)C2=O

$$$$
XNVยง6
     RDKit          3D

  6  5  0  0  0  0  0  0  0  0999 V2000
   -4.2700   11.1150  -37.7120 C   0  0  0  0  0  0  0  0  0  0  0  0
   -4.5680    9.6340  -37.4070 C   0  0  0  0  0  0  0  0  0  0  0  0
   -5.9620    9.3890  -37.1520 O   0  0  0  0  0  0  0  0  0  0  0  0
   -6.2830    8.2890  -36.3860 C   0  0  1  0  0  0  0  0  0  0  0  0
   -5.3980    7.7430  -35.7710 O   0  0  0  0  0  0  0  0  0  0  0  0
   -7.7310    8.3810  -35.9230 R   0  0  0  0  0  0  0  0  0  0  0  0
  1  2  1  0
  2  3  1  0
  3  4  1  0
  4  5  1  0
  4  6  1  1
A    1
 C01
A    2
 C02
A    3
 O03
A    4
 C04
A    5
 O38
A    6
 X  
M  END
>  <XChem_code>  (22) 
XNVยง6

>  <Occupancy>  (22) 
[0.69, 0.69, 0.69, 0.69, 0.69, 1.0]

>  <TempFactor>  (22) 
[53.57, 41.59, 23.74, 19.1, 19.72, 12.55]

>  <accession>  (22) 
3Q3Y_A

>  <description>  (22) 
Chain A, HEVB EV93 3C protease [Enterovirus B]

>  <evalue>  (22) 
1.14606e-87

>  <pdb_code>  (22) 
3Q3Y

>  <chain>  (22) 
A

>  <ligands>  (22) 
[{'chain_id': 'A', 'author_residue_number': 190, 'author_insertion_code': '', 'chem_comp_id': 'XNV', 'alternate_conformers': 2, 'entity_id': 2, 'struct_asym_id': 'C', 'residue_number': 1, 'chem_comp_name': 'ethyl (4R)-4-({(2S)-2-[3-{[(5-methyl-1,2-oxazol-3-yl)carbonyl]amino}-2-oxopyridin-1(2H)-yl]pent-4-ynoyl}amino)-5-[(3S)-2-oxopyrrolidin-3-yl]pentanoate', 'weight': 525.554, 'carbohydrate_polymer': False, 'branch_name': ''}, {'chain_id': 'B', 'author_residue_number': 190, 'author_insertion_code': '', 'chem_comp_id': 'XNV', 'alternate_conformers': 2, 'entity_id': 2, 'struct_asym_id': 'L', 'residue_number': 1, 'chem_comp_name': 'ethyl (4R)-4-({(2S)-2-[3-{[(5-methyl-1,2-oxazol-3-yl)carbonyl]amino}-2-oxopyridin-1(2H)-yl]pent-4-ynoyl}amino)-5-[(3S)-2-oxopyrrolidin-3-yl]pentanoate', 'weight': 525.554, 'carbohydrate_polymer': False, 'branch_name': ''}, {'chain_id': 'A', 'author_residue_number': 191, 'author_insertion_code': '', 'chem_comp_id': 'EDO', 'alternate_conformers': 2, 'entity_id': 3, 'struct_asym_id': 'D', 'residue_number': 1, 'chem_comp_name': '1,2-ETHANEDIOL', 'weight': 62.068, 'carbohydrate_polymer': False, 'branch_name': ''}, {'chain_id': 'A', 'author_residue_number': 192, 'author_insertion_code': '', 'chem_comp_id': 'EDO', 'alternate_conformers': 2, 'entity_id': 3, 'struct_asym_id': 'E', 'residue_number': 1, 'chem_comp_name': '1,2-ETHANEDIOL', 'weight': 62.068, 'carbohydrate_polymer': False, 'branch_name': ''}, {'chain_id': 'A', 'author_residue_number': 193, 'author_insertion_code': '', 'chem_comp_id': 'EDO', 'alternate_conformers': 0, 'entity_id': 3, 'struct_asym_id': 'F', 'residue_number': 1, 'chem_comp_name': '1,2-ETHANEDIOL', 'weight': 62.068, 'carbohydrate_polymer': False, 'branch_name': ''}, {'chain_id': 'A', 'author_residue_number': 194, 'author_insertion_code': '', 'chem_comp_id': 'EDO', 'alternate_conformers': 1, 'entity_id': 3, 'struct_asym_id': 'G', 'residue_number': 1, 'chem_comp_name': '1,2-ETHANEDIOL', 'weight': 62.068, 'carbohydrate_polymer': False, 'branch_name': ''}, {'chain_id': 'B', 'author_residue_number': 191, 'author_insertion_code': '', 'chem_comp_id': 'EDO', 'alternate_conformers': 2, 'entity_id': 3, 'struct_asym_id': 'M', 'residue_number': 1, 'chem_comp_name': '1,2-ETHANEDIOL', 'weight': 62.068, 'carbohydrate_polymer': False, 'branch_name': ''}, {'chain_id': 'B', 'author_residue_number': 192, 'author_insertion_code': '', 'chem_comp_id': 'EDO', 'alternate_conformers': 0, 'entity_id': 3, 'struct_asym_id': 'N', 'residue_number': 1, 'chem_comp_name': '1,2-ETHANEDIOL', 'weight': 62.068, 'carbohydrate_polymer': False, 'branch_name': ''}, {'chain_id': 'B', 'author_residue_number': 193, 'author_insertion_code': '', 'chem_comp_id': 'EDO', 'alternate_conformers': 2, 'entity_id': 3, 'struct_asym_id': 'O', 'residue_number': 1, 'chem_comp_name': '1,2-ETHANEDIOL', 'weight': 62.068, 'carbohydrate_polymer': False, 'branch_name': ''}, {'chain_id': 'B', 'author_residue_number': 194, 'author_insertion_code': '', 'chem_comp_id': 'EDO', 'alternate_conformers': 1, 'entity_id': 3, 'struct_asym_id': 'P', 'residue_number': 1, 'chem_comp_name': '1,2-ETHANEDIOL', 'weight': 62.068, 'carbohydrate_polymer': False, 'branch_name': ''}, {'chain_id': 'A', 'author_residue_number': 195, 'author_insertion_code': '', 'chem_comp_id': 'PI', 'alternate_conformers': 1, 'entity_id': 4, 'struct_asym_id': 'H', 'residue_number': 1, 'chem_comp_name': 'HYDROGENPHOSPHATE ION', 'weight': 95.979, 'carbohydrate_polymer': False, 'branch_name': ''}, {'chain_id': 'A', 'author_residue_number': 196, 'author_insertion_code': '', 'chem_comp_id': 'PI', 'alternate_conformers': 1, 'entity_id': 4, 'struct_asym_id': 'I', 'residue_number': 1, 'chem_comp_name': 'HYDROGENPHOSPHATE ION', 'weight': 95.979, 'carbohydrate_polymer': False, 'branch_name': ''}, {'chain_id': 'B', 'author_residue_number': 195, 'author_insertion_code': '', 'chem_comp_id': 'PI', 'alternate_conformers': 1, 'entity_id': 4, 'struct_asym_id': 'Q', 'residue_number': 1, 'chem_comp_name': 'HYDROGENPHOSPHATE ION', 'weight': 95.979, 'carbohydrate_polymer': False, 'branch_name': ''}, {'chain_id': 'A', 'author_residue_number': 197, 'author_insertion_code': '', 'chem_comp_id': 'NH4', 'alternate_conformers': 2, 'entity_id': 5, 'struct_asym_id': 'J', 'residue_number': 1, 'chem_comp_name': 'AMMONIUM ION', 'weight': 18.038, 'carbohydrate_polymer': False, 'branch_name': ''}, {'chain_id': 'A', 'author_residue_number': 198, 'author_insertion_code': '', 'chem_comp_id': 'NH4', 'alternate_conformers': 0, 'entity_id': 5, 'struct_asym_id': 'K', 'residue_number': 1, 'chem_comp_name': 'AMMONIUM ION', 'weight': 18.038, 'carbohydrate_polymer': False, 'branch_name': ''}]

>  <ligand_codes>  (22) 
['XNV', 'XNV', 'EDO', 'EDO', 'EDO', 'EDO', 'EDO', 'EDO', 'EDO', 'EDO', 'PI', 'PI', 'PI', 'NH4', 'NH4']

>  <cofactor_codes>  (22) 
[]

>  <has_cofactor>  (22) 
False

>  <covalent>  (22) 
True

>  <base_name>  (22) 
3Q3Y

>  <lig_resn>  (22) 
XNV

>  <lig_resi>  (22) 
190

>  <lig_chain>  (22) 
A

>  <lig_segi>  (22) 
C

>  <lig_alt>  (22) 
A

>  <polymer_chain>  (22) 
A

>  <single_smiles>  (22) 
CCOC(=O)CC[C@H](C[C@@H]1CCNC1=O)NC(=O)[C@H](CC#C)N2C=CC=C(NC(=O)c3cc(C)on3)C2=O

$$$$
G83ยง1
     RDKit          3D

 50 52  0  0  0  0  0  0  0  0999 V2000
   -9.7810   20.9510  -26.7880 C   0  0  0  0  0  0  0  0  0  0  0  0
   -6.4670   17.7660  -34.5460 O   0  0  0  0  0  0  0  0  0  0  0  0
   -9.6890   20.8420  -28.1960 C   0  0  0  0  0  0  0  0  0  0  0  0
   -5.3760   17.6500  -32.4930 O   0  0  0  0  0  0  0  0  0  0  0  0
   -5.3610   10.2030  -38.0740 C   0  0  0  0  0  0  0  0  0  0  0  0
  -10.4040   19.8340  -28.8340 C   0  0  0  0  0  0  0  0  0  0  0  0
   -4.5750    9.1110  -38.7950 C   0  0  0  0  0  0  0  0  0  0  0  0
  -11.1970   18.9310  -28.1220 C   0  0  0  0  0  0  0  0  0  0  0  0
  -13.4670   14.3010  -36.6620 C   0  0  0  0  0  0  0  0  0  0  0  0
  -11.3130   19.0390  -26.7440 C   0  0  0  0  0  0  0  0  0  0  0  0
  -13.4100   15.2640  -37.6860 C   0  0  0  0  0  0  0  0  0  0  0  0
  -10.5960   20.0640  -26.0750 C   0  0  0  0  0  0  0  0  0  0  0  0
  -12.1840   15.4150  -38.3560 C   0  0  0  0  0  0  0  0  0  0  0  0
   -3.6770   16.1600  -33.5370 C   0  0  0  0  0  0  0  0  0  0  0  0
  -10.3020   19.6950  -30.3210 C   0  0  0  0  0  0  0  0  0  0  0  0
   -6.3360   17.1850  -33.4620 C   0  0  0  0  0  0  0  0  0  0  0  0
   -9.9650   18.3270  -30.5810 O   0  0  0  0  0  0  0  0  0  0  0  0
   -9.6140   17.8180  -31.9050 C   0  0  0  0  0  0  0  0  0  0  0  0
   -9.9760   18.4340  -32.9180 O   0  0  0  0  0  0  0  0  0  0  0  0
   -8.9270   16.6710  -31.9560 N   0  0  0  0  0  0  0  0  0  0  0  0
   -8.5890   16.1350  -33.2460 C   0  0  1  0  0  0  0  0  0  0  0  0
   -7.0940   15.9700  -33.0860 C   0  0  0  0  0  0  0  0  0  0  0  0
   -4.0330   17.1570  -32.4230 C   0  0  2  0  0  0  0  0  0  0  0  0
   -9.0700   14.7310  -33.4520 C   0  0  0  0  0  0  0  0  0  0  0  0
   -9.2610   14.3500  -34.7310 N   0  0  0  0  0  0  0  0  0  0  0  0
   -9.1660   13.9920  -32.4630 O   0  0  0  0  0  0  0  0  0  0  0  0
   -9.6510   12.9770  -35.0820 C   0  0  2  0  0  0  0  0  0  0  0  0
   -8.4620   12.0930  -34.7840 C   0  0  0  0  0  0  0  0  0  0  0  0
   -9.8940   12.8970  -36.5940 C   0  0  0  0  0  0  0  0  0  0  0  0
   -3.9520   16.4650  -31.0680 C   0  0  0  0  0  0  0  0  0  0  0  0
   -3.0820   18.3540  -32.5240 C   0  0  0  0  0  0  0  0  0  0  0  0
   -7.3180   12.4750  -35.0590 O   0  0  0  0  0  0  0  0  0  0  0  0
   -8.7450   10.9170  -34.2200 N   0  0  0  0  0  0  0  0  0  0  0  0
  -11.1210   13.7000  -36.9770 C   0  0  0  0  0  0  0  0  0  0  0  0
  -12.3400   13.5180  -36.3250 C   0  0  0  0  0  0  0  0  0  0  0  0
  -11.0320   14.6580  -38.0030 C   0  0  0  0  0  0  0  0  0  0  0  0
   -7.7310    9.9410  -33.8290 C   0  0  1  0  0  0  0  0  0  0  0  0
   -7.6750    9.9230  -32.2970 C   0  0  0  0  0  0  0  0  0  0  0  0
   -7.2530   11.2580  -31.6380 C   0  0  1  0  0  0  0  0  0  0  0  0
   -8.1830    8.5770  -34.4040 C   0  0  2  0  0  0  0  0  0  0  0  0
   -7.1040   11.1020  -30.1450 C   0  0  0  0  0  0  0  0  0  0  0  0
   -7.8010   10.3100  -29.5070 O   0  0  0  0  0  0  0  0  0  0  0  0
   -6.2280   11.9150  -29.7100 N   0  0  0  0  0  0  0  0  0  0  0  0
   -5.4330   12.6240  -30.7080 C   0  0  0  0  0  0  0  0  0  0  0  0
   -5.9010   11.8850  -31.9840 C   0  0  0  0  0  0  0  0  0  0  0  0
   -8.1980    8.6230  -35.9360 C   0  0  0  0  0  0  0  0  0  0  0  0
   -6.8090    8.9220  -36.4600 C   0  0  0  0  0  0  0  0  0  0  0  0
   -6.6580    9.7290  -37.6550 O   0  0  0  0  0  0  0  0  0  0  0  0
   -5.8080    8.4980  -35.8980 O   0  0  0  0  0  0  0  0  0  0  0  0
   -9.8310    8.1200  -33.8380 R   0  0  0  0  0  0  0  0  0  0  0  0
  1  3  2  0
  1 12  1  0
  2 16  2  0
  3  6  1  0
  4 23  1  0
  4 16  1  0
  5  7  1  0
  5 48  1  0
  6  8  2  0
  6 15  1  0
  8 10  1  0
  9 11  2  0
  9 35  1  0
 10 12  2  0
 11 13  1  0
 13 36  2  0
 23 14  1  6
 15 17  1  0
 16 22  1  0
 17 18  1  0
 18 20  1  0
 18 19  2  0
 20 21  1  0
 21 22  1  1
 21 24  1  0
 23 30  1  0
 23 31  1  0
 24 25  1  0
 24 26  2  0
 25 27  1  0
 27 28  1  0
 27 29  1  6
 28 32  2  0
 28 33  1  0
 29 34  1  0
 33 37  1  0
 34 35  2  0
 34 36  1  0
 37 38  1  1
 37 40  1  0
 39 38  1  6
 39 41  1  0
 39 45  1  0
 40 46  1  0
 40 50  1  1
 41 42  2  0
 41 43  1  0
 43 44  1  0
 44 45  1  0
 46 47  1  0
 47 48  1  0
 47 49  2  0
A    1
 C1 
A    2
 O1 
A    3
 C2 
A    4
 O2 
A    5
 C3 
A    6
 C4 
A    7
 C5 
A    8
 C6 
A    9
 C7 
A   10
 C8 
A   11
 C9 
A   12
 C10
A   13
 C11
A   14
 C12
A   15
 C13
A   16
 C14
A   17
 O15
A   18
 C17
A   19
 O19
A   20
 N21
A   21
 C23
A   22
 C25
A   23
 C29
A   24
 C31
A   25
 N33
A   26
 O35
A   27
 C37
A   28
 C39
A   29
 C41
A   30
 C43
A   31
 C45
A   32
 O47
A   33
 N49
A   34
 C51
A   35
 C53
A   36
 C55
A   37
 C57
A   38
 C59
A   39
 C61
A   40
 C63
A   41
 C65
A   42
 O66
A   43
 N69
A   44
 C71
A   45
 C73
A   46
 C82
A   47
 C84
A   48
 O86
A   49
 O88
A   50
 X  
M  END
>  <XChem_code>  (23) 
G83ยง1

>  <Occupancy>  (23) 
[1.0, 1.0, 1.0, 1.0, 1.0, 1.0, 1.0, 1.0, 1.0, 1.0, 1.0, 1.0, 1.0, 1.0, 1.0, 1.0, 1.0, 1.0, 1.0, 1.0, 1.0, 1.0, 1.0, 1.0, 1.0, 1.0, 1.0, 1.0, 1.0, 1.0, 1.0, 1.0, 1.0, 1.0, 1.0, 1.0, 1.0, 1.0, 1.0, 1.0, 1.0, 1.0, 1.0, 1.0, 1.0, 1.0, 1.0, 1.0, 1.0, 1.0]

>  <TempFactor>  (23) 
[21.5, 44.89, 24.36, 42.16, 38.25, 23.95, 40.64, 20.41, 29.29, 22.5, 27.31, 23.15, 28.56, 41.84, 29.6, 38.53, 33.37, 31.58, 30.86, 27.88, 28.97, 31.52, 43.05, 27.66, 27.42, 21.95, 25.67, 24.02, 25.01, 43.36, 43.87, 19.31, 17.05, 26.62, 26.73, 28.95, 20.4, 17.34, 20.74, 21.57, 21.69, 20.06, 20.47, 18.67, 21.64, 27.5, 29.51, 35.17, 31.37, 18.86]

>  <accession>  (23) 
3ZZC_A

>  <description>  (23) 
Chain A, 3C PROTEINASE [Coxsackievirus B3]

>  <evalue>  (23) 
7.48654e-87

>  <pdb_code>  (23) 
3ZZC

>  <chain>  (23) 
A

>  <ligands>  (23) 
[{'chain_id': 'A', 'author_residue_number': 1181, 'author_insertion_code': '', 'chem_comp_id': 'G83', 'alternate_conformers': 0, 'entity_id': 2, 'struct_asym_id': 'B', 'residue_number': 1, 'chem_comp_name': 'ETHYL (5S,8S,11R)-8-BENZYL-5-(2-TERT-BUTOXY-2-OXOETHYL)-3,6,9-TRIOXO-11-{[(3S)-2-OXOPYRROLIDIN-3-YL]METHYL}-1-PHENYL-2-OXA-4,7,10-TRIAZATETRADECAN-14-OATE', 'weight': 680.788, 'carbohydrate_polymer': False, 'branch_name': ''}]

>  <ligand_codes>  (23) 
['G83']

>  <cofactor_codes>  (23) 
[]

>  <has_cofactor>  (23) 
False

>  <covalent>  (23) 
True

>  <base_name>  (23) 
3ZZC

>  <lig_resn>  (23) 
G83

>  <lig_resi>  (23) 
1181

>  <lig_chain>  (23) 
A

>  <lig_segi>  (23) 
B

>  <lig_alt>  (23) 


>  <polymer_chain>  (23) 
A

>  <single_smiles>  (23) 
CCOC(=O)CC[C@H](C[C@@H]1CCNC1=O)NC(=O)[C@H](Cc2ccccc2)NC(=O)[C@H](CC(=O)OC(C)(C)C)NC(=O)OCc3ccccc3

$$$$
GOLยง2
     RDKit          3D

  6  5  0  0  0  0  0  0  0  0999 V2000
   15.4750   -8.0150   -2.1260 C   0  0  0  0  0  0  0  0  0  0  0  0
   15.9380   -9.2170   -2.7030 O   0  0  0  0  0  0  0  0  0  0  0  0
   15.4150   -8.2310   -0.6350 C   0  0  1  0  0  0  0  0  0  0  0  0
   14.3720   -9.0680   -0.3230 O   0  0  0  0  0  0  0  0  0  0  0  0
   16.6430   -8.9190   -0.2140 C   0  0  0  0  0  0  0  0  0  0  0  0
   16.4090  -10.2810   -0.4480 O   0  0  0  0  0  0  0  0  0  0  0  0
  1  2  1  0
  1  3  1  0
  3  4  1  6
  3  5  1  0
  5  6  1  0
A    1
 C1 
A    2
 O1 
A    3
 C2 
A    4
 O2 
A    5
 C3 
A    6
 O3 
M  END
>  <XChem_code>  (24) 
GOLยง2

>  <Occupancy>  (24) 
[1.0, 1.0, 1.0, 1.0, 1.0, 1.0]

>  <TempFactor>  (24) 
[25.22, 30.58, 20.21, 17.88, 23.82, 30.2]

>  <accession>  (24) 
3Q3X_A

>  <description>  (24) 
Chain A, HEVB EV93 3C protease [Enterovirus B]

>  <evalue>  (24) 
3.37945e-86

>  <pdb_code>  (24) 
3Q3X

>  <chain>  (24) 
A

>  <ligands>  (24) 
[{'chain_id': 'A', 'author_residue_number': 190, 'author_insertion_code': '', 'chem_comp_id': 'GOL', 'alternate_conformers': 0, 'entity_id': 2, 'struct_asym_id': 'C', 'residue_number': 1, 'chem_comp_name': 'GLYCEROL', 'weight': 92.094, 'carbohydrate_polymer': False, 'branch_name': ''}, {'chain_id': 'A', 'author_residue_number': 191, 'author_insertion_code': '', 'chem_comp_id': 'GOL', 'alternate_conformers': 0, 'entity_id': 2, 'struct_asym_id': 'D', 'residue_number': 1, 'chem_comp_name': 'GLYCEROL', 'weight': 92.094, 'carbohydrate_polymer': False, 'branch_name': ''}, {'chain_id': 'A', 'author_residue_number': 192, 'author_insertion_code': '', 'chem_comp_id': 'GOL', 'alternate_conformers': 0, 'entity_id': 2, 'struct_asym_id': 'E', 'residue_number': 1, 'chem_comp_name': 'GLYCEROL', 'weight': 92.094, 'carbohydrate_polymer': False, 'branch_name': ''}, {'chain_id': 'B', 'author_residue_number': 192, 'author_insertion_code': '', 'chem_comp_id': 'GOL', 'alternate_conformers': 0, 'entity_id': 2, 'struct_asym_id': 'H', 'residue_number': 1, 'chem_comp_name': 'GLYCEROL', 'weight': 92.094, 'carbohydrate_polymer': False, 'branch_name': ''}, {'chain_id': 'B', 'author_residue_number': 193, 'author_insertion_code': '', 'chem_comp_id': 'GOL', 'alternate_conformers': 0, 'entity_id': 2, 'struct_asym_id': 'I', 'residue_number': 1, 'chem_comp_name': 'GLYCEROL', 'weight': 92.094, 'carbohydrate_polymer': False, 'branch_name': ''}, {'chain_id': 'B', 'author_residue_number': 194, 'author_insertion_code': '', 'chem_comp_id': 'GOL', 'alternate_conformers': 0, 'entity_id': 2, 'struct_asym_id': 'J', 'residue_number': 1, 'chem_comp_name': 'GLYCEROL', 'weight': 92.094, 'carbohydrate_polymer': False, 'branch_name': ''}, {'chain_id': 'B', 'author_residue_number': 190, 'author_insertion_code': '', 'chem_comp_id': 'MG', 'alternate_conformers': 0, 'entity_id': 3, 'struct_asym_id': 'F', 'residue_number': 1, 'chem_comp_name': 'MAGNESIUM ION', 'weight': 24.305, 'carbohydrate_polymer': False, 'branch_name': ''}, {'chain_id': 'B', 'author_residue_number': 191, 'author_insertion_code': '', 'chem_comp_id': 'MG', 'alternate_conformers': 0, 'entity_id': 3, 'struct_asym_id': 'G', 'residue_number': 1, 'chem_comp_name': 'MAGNESIUM ION', 'weight': 24.305, 'carbohydrate_polymer': False, 'branch_name': ''}]

>  <ligand_codes>  (24) 
['GOL', 'GOL', 'GOL', 'GOL', 'GOL', 'GOL', 'MG', 'MG']

>  <cofactor_codes>  (24) 
['MG', 'MG']

>  <has_cofactor>  (24) 
True

>  <covalent>  (24) 
False

>  <base_name>  (24) 
3Q3X

>  <lig_resn>  (24) 
GOL

>  <lig_resi>  (24) 
194

>  <lig_chain>  (24) 
B

>  <lig_segi>  (24) 
J

>  <lig_alt>  (24) 


>  <polymer_chain>  (24) 
A

>  <single_smiles>  (24) 
OCC(O)CO

$$$$
GOLยง3
     RDKit          3D

  6  5  0  0  0  0  0  0  0  0999 V2000
  -12.9370  -11.2700  -38.9340 C   0  0  0  0  0  0  0  0  0  0  0  0
  -12.1710  -12.4490  -39.0230 O   0  0  0  0  0  0  0  0  0  0  0  0
  -13.9040  -11.3990  -37.7680 C   0  0  2  0  0  0  0  0  0  0  0  0
  -14.6320  -12.5940  -37.9220 O   0  0  0  0  0  0  0  0  0  0  0  0
  -14.8770  -10.2270  -37.7070 C   0  0  0  0  0  0  0  0  0  0  0  0
  -15.9440  -10.5970  -36.8660 O   0  0  0  0  0  0  0  0  0  0  0  0
  1  2  1  0
  1  3  1  0
  3  4  1  6
  3  5  1  0
  5  6  1  0
A    1
 C1 
A    2
 O1 
A    3
 C2 
A    4
 O2 
A    5
 C3 
A    6
 O3 
M  END
>  <XChem_code>  (25) 
GOLยง3

>  <Occupancy>  (25) 
[1.0, 1.0, 1.0, 1.0, 1.0, 1.0]

>  <TempFactor>  (25) 
[33.78, 32.81, 32.86, 34.18, 32.43, 31.47]

>  <accession>  (25) 
3Q3X_A

>  <description>  (25) 
Chain A, HEVB EV93 3C protease [Enterovirus B]

>  <evalue>  (25) 
3.37945e-86

>  <pdb_code>  (25) 
3Q3X

>  <chain>  (25) 
A

>  <ligands>  (25) 
[{'chain_id': 'A', 'author_residue_number': 190, 'author_insertion_code': '', 'chem_comp_id': 'GOL', 'alternate_conformers': 0, 'entity_id': 2, 'struct_asym_id': 'C', 'residue_number': 1, 'chem_comp_name': 'GLYCEROL', 'weight': 92.094, 'carbohydrate_polymer': False, 'branch_name': ''}, {'chain_id': 'A', 'author_residue_number': 191, 'author_insertion_code': '', 'chem_comp_id': 'GOL', 'alternate_conformers': 0, 'entity_id': 2, 'struct_asym_id': 'D', 'residue_number': 1, 'chem_comp_name': 'GLYCEROL', 'weight': 92.094, 'carbohydrate_polymer': False, 'branch_name': ''}, {'chain_id': 'A', 'author_residue_number': 192, 'author_insertion_code': '', 'chem_comp_id': 'GOL', 'alternate_conformers': 0, 'entity_id': 2, 'struct_asym_id': 'E', 'residue_number': 1, 'chem_comp_name': 'GLYCEROL', 'weight': 92.094, 'carbohydrate_polymer': False, 'branch_name': ''}, {'chain_id': 'B', 'author_residue_number': 192, 'author_insertion_code': '', 'chem_comp_id': 'GOL', 'alternate_conformers': 0, 'entity_id': 2, 'struct_asym_id': 'H', 'residue_number': 1, 'chem_comp_name': 'GLYCEROL', 'weight': 92.094, 'carbohydrate_polymer': False, 'branch_name': ''}, {'chain_id': 'B', 'author_residue_number': 193, 'author_insertion_code': '', 'chem_comp_id': 'GOL', 'alternate_conformers': 0, 'entity_id': 2, 'struct_asym_id': 'I', 'residue_number': 1, 'chem_comp_name': 'GLYCEROL', 'weight': 92.094, 'carbohydrate_polymer': False, 'branch_name': ''}, {'chain_id': 'B', 'author_residue_number': 194, 'author_insertion_code': '', 'chem_comp_id': 'GOL', 'alternate_conformers': 0, 'entity_id': 2, 'struct_asym_id': 'J', 'residue_number': 1, 'chem_comp_name': 'GLYCEROL', 'weight': 92.094, 'carbohydrate_polymer': False, 'branch_name': ''}, {'chain_id': 'B', 'author_residue_number': 190, 'author_insertion_code': '', 'chem_comp_id': 'MG', 'alternate_conformers': 0, 'entity_id': 3, 'struct_asym_id': 'F', 'residue_number': 1, 'chem_comp_name': 'MAGNESIUM ION', 'weight': 24.305, 'carbohydrate_polymer': False, 'branch_name': ''}, {'chain_id': 'B', 'author_residue_number': 191, 'author_insertion_code': '', 'chem_comp_id': 'MG', 'alternate_conformers': 0, 'entity_id': 3, 'struct_asym_id': 'G', 'residue_number': 1, 'chem_comp_name': 'MAGNESIUM ION', 'weight': 24.305, 'carbohydrate_polymer': False, 'branch_name': ''}]

>  <ligand_codes>  (25) 
['GOL', 'GOL', 'GOL', 'GOL', 'GOL', 'GOL', 'MG', 'MG']

>  <cofactor_codes>  (25) 
['MG', 'MG']

>  <has_cofactor>  (25) 
True

>  <covalent>  (25) 
False

>  <base_name>  (25) 
3Q3X

>  <lig_resn>  (25) 
GOL

>  <lig_resi>  (25) 
192

>  <lig_chain>  (25) 
A

>  <lig_segi>  (25) 
E

>  <lig_alt>  (25) 


>  <polymer_chain>  (25) 
A

>  <single_smiles>  (25) 
OCC(O)CO

$$$$
GOLยง4
     RDKit          3D

  6  5  0  0  0  0  0  0  0  0999 V2000
   17.5650    7.7420  -16.6040 C   0  0  0  0  0  0  0  0  0  0  0  0
   17.7210    7.1730  -17.8630 O   0  0  0  0  0  0  0  0  0  0  0  0
   18.8160    8.5180  -16.2070 C   0  0  2  0  0  0  0  0  0  0  0  0
   19.9130    7.7120  -16.0330 O   0  0  0  0  0  0  0  0  0  0  0  0
   18.6190    9.1210  -14.8430 C   0  0  0  0  0  0  0  0  0  0  0  0
   18.9890   10.4490  -14.8150 O   0  0  0  0  0  0  0  0  0  0  0  0
  1  2  1  0
  1  3  1  0
  3  4  1  1
  3  5  1  0
  5  6  1  0
A    1
 C1 
A    2
 O1 
A    3
 C2 
A    4
 O2 
A    5
 C3 
A    6
 O3 
M  END
>  <XChem_code>  (26) 
GOLยง4

>  <Occupancy>  (26) 
[1.0, 1.0, 1.0, 1.0, 1.0, 1.0]

>  <TempFactor>  (26) 
[39.56, 40.33, 39.4, 38.87, 38.83, 39.73]

>  <accession>  (26) 
3Q3X_A

>  <description>  (26) 
Chain A, HEVB EV93 3C protease [Enterovirus B]

>  <evalue>  (26) 
3.37945e-86

>  <pdb_code>  (26) 
3Q3X

>  <chain>  (26) 
A

>  <ligands>  (26) 
[{'chain_id': 'A', 'author_residue_number': 190, 'author_insertion_code': '', 'chem_comp_id': 'GOL', 'alternate_conformers': 0, 'entity_id': 2, 'struct_asym_id': 'C', 'residue_number': 1, 'chem_comp_name': 'GLYCEROL', 'weight': 92.094, 'carbohydrate_polymer': False, 'branch_name': ''}, {'chain_id': 'A', 'author_residue_number': 191, 'author_insertion_code': '', 'chem_comp_id': 'GOL', 'alternate_conformers': 0, 'entity_id': 2, 'struct_asym_id': 'D', 'residue_number': 1, 'chem_comp_name': 'GLYCEROL', 'weight': 92.094, 'carbohydrate_polymer': False, 'branch_name': ''}, {'chain_id': 'A', 'author_residue_number': 192, 'author_insertion_code': '', 'chem_comp_id': 'GOL', 'alternate_conformers': 0, 'entity_id': 2, 'struct_asym_id': 'E', 'residue_number': 1, 'chem_comp_name': 'GLYCEROL', 'weight': 92.094, 'carbohydrate_polymer': False, 'branch_name': ''}, {'chain_id': 'B', 'author_residue_number': 192, 'author_insertion_code': '', 'chem_comp_id': 'GOL', 'alternate_conformers': 0, 'entity_id': 2, 'struct_asym_id': 'H', 'residue_number': 1, 'chem_comp_name': 'GLYCEROL', 'weight': 92.094, 'carbohydrate_polymer': False, 'branch_name': ''}, {'chain_id': 'B', 'author_residue_number': 193, 'author_insertion_code': '', 'chem_comp_id': 'GOL', 'alternate_conformers': 0, 'entity_id': 2, 'struct_asym_id': 'I', 'residue_number': 1, 'chem_comp_name': 'GLYCEROL', 'weight': 92.094, 'carbohydrate_polymer': False, 'branch_name': ''}, {'chain_id': 'B', 'author_residue_number': 194, 'author_insertion_code': '', 'chem_comp_id': 'GOL', 'alternate_conformers': 0, 'entity_id': 2, 'struct_asym_id': 'J', 'residue_number': 1, 'chem_comp_name': 'GLYCEROL', 'weight': 92.094, 'carbohydrate_polymer': False, 'branch_name': ''}, {'chain_id': 'B', 'author_residue_number': 190, 'author_insertion_code': '', 'chem_comp_id': 'MG', 'alternate_conformers': 0, 'entity_id': 3, 'struct_asym_id': 'F', 'residue_number': 1, 'chem_comp_name': 'MAGNESIUM ION', 'weight': 24.305, 'carbohydrate_polymer': False, 'branch_name': ''}, {'chain_id': 'B', 'author_residue_number': 191, 'author_insertion_code': '', 'chem_comp_id': 'MG', 'alternate_conformers': 0, 'entity_id': 3, 'struct_asym_id': 'G', 'residue_number': 1, 'chem_comp_name': 'MAGNESIUM ION', 'weight': 24.305, 'carbohydrate_polymer': False, 'branch_name': ''}]

>  <ligand_codes>  (26) 
['GOL', 'GOL', 'GOL', 'GOL', 'GOL', 'GOL', 'MG', 'MG']

>  <cofactor_codes>  (26) 
['MG', 'MG']

>  <has_cofactor>  (26) 
True

>  <covalent>  (26) 
False

>  <base_name>  (26) 
3Q3X

>  <lig_resn>  (26) 
GOL

>  <lig_resi>  (26) 
193

>  <lig_chain>  (26) 
B

>  <lig_segi>  (26) 
I

>  <lig_alt>  (26) 


>  <polymer_chain>  (26) 
A

>  <single_smiles>  (26) 
OCC(O)CO

$$$$
GOLยง5
     RDKit          3D

  6  5  0  0  0  0  0  0  0  0999 V2000
    7.6320    8.5570   -8.8480 C   0  0  0  0  0  0  0  0  0  0  0  0
    6.3840    9.0770   -9.2780 O   0  0  0  0  0  0  0  0  0  0  0  0
    8.0130    9.0220   -7.4350 C   0  0  1  0  0  0  0  0  0  0  0  0
    7.1530    8.3690   -6.5390 O   0  0  0  0  0  0  0  0  0  0  0  0
    9.4560    8.6530   -7.1000 C   0  0  0  0  0  0  0  0  0  0  0  0
    9.6700    8.5550   -5.7030 O   0  0  0  0  0  0  0  0  0  0  0  0
  1  2  1  0
  1  3  1  0
  3  4  1  1
  3  5  1  0
  5  6  1  0
A    1
 C1 
A    2
 O1 
A    3
 C2 
A    4
 O2 
A    5
 C3 
A    6
 O3 
M  END
>  <XChem_code>  (27) 
GOLยง5

>  <Occupancy>  (27) 
[1.0, 1.0, 1.0, 1.0, 1.0, 1.0]

>  <TempFactor>  (27) 
[13.25, 12.55, 13.0, 12.76, 15.83, 15.92]

>  <accession>  (27) 
3Q3X_A

>  <description>  (27) 
Chain A, HEVB EV93 3C protease [Enterovirus B]

>  <evalue>  (27) 
3.37945e-86

>  <pdb_code>  (27) 
3Q3X

>  <chain>  (27) 
A

>  <ligands>  (27) 
[{'chain_id': 'A', 'author_residue_number': 190, 'author_insertion_code': '', 'chem_comp_id': 'GOL', 'alternate_conformers': 0, 'entity_id': 2, 'struct_asym_id': 'C', 'residue_number': 1, 'chem_comp_name': 'GLYCEROL', 'weight': 92.094, 'carbohydrate_polymer': False, 'branch_name': ''}, {'chain_id': 'A', 'author_residue_number': 191, 'author_insertion_code': '', 'chem_comp_id': 'GOL', 'alternate_conformers': 0, 'entity_id': 2, 'struct_asym_id': 'D', 'residue_number': 1, 'chem_comp_name': 'GLYCEROL', 'weight': 92.094, 'carbohydrate_polymer': False, 'branch_name': ''}, {'chain_id': 'A', 'author_residue_number': 192, 'author_insertion_code': '', 'chem_comp_id': 'GOL', 'alternate_conformers': 0, 'entity_id': 2, 'struct_asym_id': 'E', 'residue_number': 1, 'chem_comp_name': 'GLYCEROL', 'weight': 92.094, 'carbohydrate_polymer': False, 'branch_name': ''}, {'chain_id': 'B', 'author_residue_number': 192, 'author_insertion_code': '', 'chem_comp_id': 'GOL', 'alternate_conformers': 0, 'entity_id': 2, 'struct_asym_id': 'H', 'residue_number': 1, 'chem_comp_name': 'GLYCEROL', 'weight': 92.094, 'carbohydrate_polymer': False, 'branch_name': ''}, {'chain_id': 'B', 'author_residue_number': 193, 'author_insertion_code': '', 'chem_comp_id': 'GOL', 'alternate_conformers': 0, 'entity_id': 2, 'struct_asym_id': 'I', 'residue_number': 1, 'chem_comp_name': 'GLYCEROL', 'weight': 92.094, 'carbohydrate_polymer': False, 'branch_name': ''}, {'chain_id': 'B', 'author_residue_number': 194, 'author_insertion_code': '', 'chem_comp_id': 'GOL', 'alternate_conformers': 0, 'entity_id': 2, 'struct_asym_id': 'J', 'residue_number': 1, 'chem_comp_name': 'GLYCEROL', 'weight': 92.094, 'carbohydrate_polymer': False, 'branch_name': ''}, {'chain_id': 'B', 'author_residue_number': 190, 'author_insertion_code': '', 'chem_comp_id': 'MG', 'alternate_conformers': 0, 'entity_id': 3, 'struct_asym_id': 'F', 'residue_number': 1, 'chem_comp_name': 'MAGNESIUM ION', 'weight': 24.305, 'carbohydrate_polymer': False, 'branch_name': ''}, {'chain_id': 'B', 'author_residue_number': 191, 'author_insertion_code': '', 'chem_comp_id': 'MG', 'alternate_conformers': 0, 'entity_id': 3, 'struct_asym_id': 'G', 'residue_number': 1, 'chem_comp_name': 'MAGNESIUM ION', 'weight': 24.305, 'carbohydrate_polymer': False, 'branch_name': ''}]

>  <ligand_codes>  (27) 
['GOL', 'GOL', 'GOL', 'GOL', 'GOL', 'GOL', 'MG', 'MG']

>  <cofactor_codes>  (27) 
['MG', 'MG']

>  <has_cofactor>  (27) 
True

>  <covalent>  (27) 
False

>  <base_name>  (27) 
3Q3X

>  <lig_resn>  (27) 
GOL

>  <lig_resi>  (27) 
192

>  <lig_chain>  (27) 
B

>  <lig_segi>  (27) 
H

>  <lig_alt>  (27) 


>  <polymer_chain>  (27) 
A

>  <single_smiles>  (27) 
OCC(O)CO

$$$$
GOLยง6
     RDKit          3D

  6  5  0  0  0  0  0  0  0  0999 V2000
  -29.6520   -0.3320  -42.3390 C   0  0  0  0  0  0  0  0  0  0  0  0
  -30.4920   -1.4330  -42.6470 O   0  0  0  0  0  0  0  0  0  0  0  0
  -28.7110   -0.7400  -41.2160 C   0  0  2  0  0  0  0  0  0  0  0  0
  -29.4660   -1.1350  -40.0930 O   0  0  0  0  0  0  0  0  0  0  0  0
  -27.8130    0.4460  -40.8750 C   0  0  0  0  0  0  0  0  0  0  0  0
  -28.6160    1.5590  -40.5100 O   0  0  0  0  0  0  0  0  0  0  0  0
  1  2  1  0
  1  3  1  0
  3  4  1  1
  3  5  1  0
  5  6  1  0
A    1
 C1 
A    2
 O1 
A    3
 C2 
A    4
 O2 
A    5
 C3 
A    6
 O3 
M  END
>  <XChem_code>  (28) 
GOLยง6

>  <Occupancy>  (28) 
[1.0, 1.0, 1.0, 1.0, 1.0, 1.0]

>  <TempFactor>  (28) 
[26.28, 29.88, 25.07, 21.99, 25.14, 24.73]

>  <accession>  (28) 
3Q3X_A

>  <description>  (28) 
Chain A, HEVB EV93 3C protease [Enterovirus B]

>  <evalue>  (28) 
3.37945e-86

>  <pdb_code>  (28) 
3Q3X

>  <chain>  (28) 
A

>  <ligands>  (28) 
[{'chain_id': 'A', 'author_residue_number': 190, 'author_insertion_code': '', 'chem_comp_id': 'GOL', 'alternate_conformers': 0, 'entity_id': 2, 'struct_asym_id': 'C', 'residue_number': 1, 'chem_comp_name': 'GLYCEROL', 'weight': 92.094, 'carbohydrate_polymer': False, 'branch_name': ''}, {'chain_id': 'A', 'author_residue_number': 191, 'author_insertion_code': '', 'chem_comp_id': 'GOL', 'alternate_conformers': 0, 'entity_id': 2, 'struct_asym_id': 'D', 'residue_number': 1, 'chem_comp_name': 'GLYCEROL', 'weight': 92.094, 'carbohydrate_polymer': False, 'branch_name': ''}, {'chain_id': 'A', 'author_residue_number': 192, 'author_insertion_code': '', 'chem_comp_id': 'GOL', 'alternate_conformers': 0, 'entity_id': 2, 'struct_asym_id': 'E', 'residue_number': 1, 'chem_comp_name': 'GLYCEROL', 'weight': 92.094, 'carbohydrate_polymer': False, 'branch_name': ''}, {'chain_id': 'B', 'author_residue_number': 192, 'author_insertion_code': '', 'chem_comp_id': 'GOL', 'alternate_conformers': 0, 'entity_id': 2, 'struct_asym_id': 'H', 'residue_number': 1, 'chem_comp_name': 'GLYCEROL', 'weight': 92.094, 'carbohydrate_polymer': False, 'branch_name': ''}, {'chain_id': 'B', 'author_residue_number': 193, 'author_insertion_code': '', 'chem_comp_id': 'GOL', 'alternate_conformers': 0, 'entity_id': 2, 'struct_asym_id': 'I', 'residue_number': 1, 'chem_comp_name': 'GLYCEROL', 'weight': 92.094, 'carbohydrate_polymer': False, 'branch_name': ''}, {'chain_id': 'B', 'author_residue_number': 194, 'author_insertion_code': '', 'chem_comp_id': 'GOL', 'alternate_conformers': 0, 'entity_id': 2, 'struct_asym_id': 'J', 'residue_number': 1, 'chem_comp_name': 'GLYCEROL', 'weight': 92.094, 'carbohydrate_polymer': False, 'branch_name': ''}, {'chain_id': 'B', 'author_residue_number': 190, 'author_insertion_code': '', 'chem_comp_id': 'MG', 'alternate_conformers': 0, 'entity_id': 3, 'struct_asym_id': 'F', 'residue_number': 1, 'chem_comp_name': 'MAGNESIUM ION', 'weight': 24.305, 'carbohydrate_polymer': False, 'branch_name': ''}, {'chain_id': 'B', 'author_residue_number': 191, 'author_insertion_code': '', 'chem_comp_id': 'MG', 'alternate_conformers': 0, 'entity_id': 3, 'struct_asym_id': 'G', 'residue_number': 1, 'chem_comp_name': 'MAGNESIUM ION', 'weight': 24.305, 'carbohydrate_polymer': False, 'branch_name': ''}]

>  <ligand_codes>  (28) 
['GOL', 'GOL', 'GOL', 'GOL', 'GOL', 'GOL', 'MG', 'MG']

>  <cofactor_codes>  (28) 
['MG', 'MG']

>  <has_cofactor>  (28) 
True

>  <covalent>  (28) 
False

>  <base_name>  (28) 
3Q3X

>  <lig_resn>  (28) 
GOL

>  <lig_resi>  (28) 
191

>  <lig_chain>  (28) 
A

>  <lig_segi>  (28) 
D

>  <lig_alt>  (28) 


>  <polymer_chain>  (28) 
A

>  <single_smiles>  (28) 
OCC(O)CO

$$$$
GOLยง7
     RDKit          3D

  6  5  0  0  0  0  0  0  0  0999 V2000
  -29.1690   23.5700  -35.9990 C   0  0  0  0  0  0  0  0  0  0  0  0
  -30.5080   23.1450  -36.1110 O   0  0  0  0  0  0  0  0  0  0  0  0
  -28.4290   22.7720  -34.9290 C   0  0  2  0  0  0  0  0  0  0  0  0
  -29.3440   22.2440  -34.0030 O   0  0  0  0  0  0  0  0  0  0  0  0
  -27.4440   23.6900  -34.2140 C   0  0  0  0  0  0  0  0  0  0  0  0
  -26.7530   22.9940  -33.1920 O   0  0  0  0  0  0  0  0  0  0  0  0
  1  2  1  0
  1  3  1  0
  3  4  1  1
  3  5  1  0
  5  6  1  0
A    1
 C1 
A    2
 O1 
A    3
 C2 
A    4
 O2 
A    5
 C3 
A    6
 O3 
M  END
>  <XChem_code>  (29) 
GOLยง7

>  <Occupancy>  (29) 
[1.0, 1.0, 1.0, 1.0, 1.0, 1.0]

>  <TempFactor>  (29) 
[18.58, 20.1, 16.66, 14.89, 16.66, 14.4]

>  <accession>  (29) 
3Q3X_A

>  <description>  (29) 
Chain A, HEVB EV93 3C protease [Enterovirus B]

>  <evalue>  (29) 
3.37945e-86

>  <pdb_code>  (29) 
3Q3X

>  <chain>  (29) 
A

>  <ligands>  (29) 
[{'chain_id': 'A', 'author_residue_number': 190, 'author_insertion_code': '', 'chem_comp_id': 'GOL', 'alternate_conformers': 0, 'entity_id': 2, 'struct_asym_id': 'C', 'residue_number': 1, 'chem_comp_name': 'GLYCEROL', 'weight': 92.094, 'carbohydrate_polymer': False, 'branch_name': ''}, {'chain_id': 'A', 'author_residue_number': 191, 'author_insertion_code': '', 'chem_comp_id': 'GOL', 'alternate_conformers': 0, 'entity_id': 2, 'struct_asym_id': 'D', 'residue_number': 1, 'chem_comp_name': 'GLYCEROL', 'weight': 92.094, 'carbohydrate_polymer': False, 'branch_name': ''}, {'chain_id': 'A', 'author_residue_number': 192, 'author_insertion_code': '', 'chem_comp_id': 'GOL', 'alternate_conformers': 0, 'entity_id': 2, 'struct_asym_id': 'E', 'residue_number': 1, 'chem_comp_name': 'GLYCEROL', 'weight': 92.094, 'carbohydrate_polymer': False, 'branch_name': ''}, {'chain_id': 'B', 'author_residue_number': 192, 'author_insertion_code': '', 'chem_comp_id': 'GOL', 'alternate_conformers': 0, 'entity_id': 2, 'struct_asym_id': 'H', 'residue_number': 1, 'chem_comp_name': 'GLYCEROL', 'weight': 92.094, 'carbohydrate_polymer': False, 'branch_name': ''}, {'chain_id': 'B', 'author_residue_number': 193, 'author_insertion_code': '', 'chem_comp_id': 'GOL', 'alternate_conformers': 0, 'entity_id': 2, 'struct_asym_id': 'I', 'residue_number': 1, 'chem_comp_name': 'GLYCEROL', 'weight': 92.094, 'carbohydrate_polymer': False, 'branch_name': ''}, {'chain_id': 'B', 'author_residue_number': 194, 'author_insertion_code': '', 'chem_comp_id': 'GOL', 'alternate_conformers': 0, 'entity_id': 2, 'struct_asym_id': 'J', 'residue_number': 1, 'chem_comp_name': 'GLYCEROL', 'weight': 92.094, 'carbohydrate_polymer': False, 'branch_name': ''}, {'chain_id': 'B', 'author_residue_number': 190, 'author_insertion_code': '', 'chem_comp_id': 'MG', 'alternate_conformers': 0, 'entity_id': 3, 'struct_asym_id': 'F', 'residue_number': 1, 'chem_comp_name': 'MAGNESIUM ION', 'weight': 24.305, 'carbohydrate_polymer': False, 'branch_name': ''}, {'chain_id': 'B', 'author_residue_number': 191, 'author_insertion_code': '', 'chem_comp_id': 'MG', 'alternate_conformers': 0, 'entity_id': 3, 'struct_asym_id': 'G', 'residue_number': 1, 'chem_comp_name': 'MAGNESIUM ION', 'weight': 24.305, 'carbohydrate_polymer': False, 'branch_name': ''}]

>  <ligand_codes>  (29) 
['GOL', 'GOL', 'GOL', 'GOL', 'GOL', 'GOL', 'MG', 'MG']

>  <cofactor_codes>  (29) 
['MG', 'MG']

>  <has_cofactor>  (29) 
True

>  <covalent>  (29) 
False

>  <base_name>  (29) 
3Q3X

>  <lig_resn>  (29) 
GOL

>  <lig_resi>  (29) 
190

>  <lig_chain>  (29) 
A

>  <lig_segi>  (29) 
C

>  <lig_alt>  (29) 


>  <polymer_chain>  (29) 
A

>  <single_smiles>  (29) 
OCC(O)CO

$$$$
E22ยง1
     RDKit          3D

 35 37  0  0  0  0  0  0  0  0999 V2000
   -9.9190   12.9430  -35.2650 C   0  0  1  0  0  0  0  0  0  0  0  0
   -9.5160   14.2860  -34.9670 N   0  0  0  0  0  0  0  0  0  0  0  0
   -7.7360   12.1130  -35.7460 O   0  0  0  0  0  0  0  0  0  0  0  0
  -10.4120   12.8110  -36.6940 C   0  0  0  0  0  0  0  0  0  0  0  0
   -6.6380    6.9450  -34.6150 N   0  0  0  0  0  0  0  0  0  0  0  0
   -9.3150   13.9250  -32.7120 O   0  0  0  0  0  0  0  0  0  0  0  0
   -8.7700   11.9720  -35.1380 C   0  0  0  0  0  0  0  0  0  0  0  0
   -8.8710   10.8540  -34.2980 N   0  0  0  0  0  0  0  0  0  0  0  0
   -7.8270    9.3530  -36.4740 O   0  0  0  0  0  0  0  0  0  0  0  0
   -9.1480   20.8220  -30.9950 C   0  0  0  0  0  0  0  0  0  0  0  0
   -6.1930   11.9110  -29.6060 N   0  0  0  0  0  0  0  0  0  0  0  0
   -7.6220    9.9280  -29.8110 O   0  0  0  0  0  0  0  0  0  0  0  0
   -9.2290   14.7180  -33.6340 C   0  0  0  0  0  0  0  0  0  0  0  0
   -5.5830   13.0950  -31.6740 C   0  0  0  0  0  0  0  0  0  0  0  0
  -11.6540   13.6210  -36.9560 C   0  0  0  0  0  0  0  0  0  0  0  0
  -10.4320   20.2770  -30.9840 C   0  0  0  0  0  0  0  0  0  0  0  0
   -8.8010   16.1560  -33.3590 C   0  0  0  0  0  0  0  0  0  0  0  0
   -8.1180   20.1680  -31.6780 C   0  0  0  0  0  0  0  0  0  0  0  0
   -7.7760   10.0440  -34.2160 C   0  0  1  0  0  0  0  0  0  0  0  0
  -11.6660   14.5500  -37.9930 C   0  0  0  0  0  0  0  0  0  0  0  0
   -6.1370   11.9120  -32.4520 C   0  0  0  0  0  0  0  0  0  0  0  0
  -10.6660   19.0760  -31.6610 C   0  0  0  0  0  0  0  0  0  0  0  0
   -7.0220   10.9800  -30.3480 C   0  0  0  0  0  0  0  0  0  0  0  0
   -9.9570   17.1090  -33.0820 C   0  0  0  0  0  0  0  0  0  0  0  0
   -7.5860    9.9340  -32.5820 C   0  0  0  0  0  0  0  0  0  0  0  0
  -12.7700   13.4400  -36.1440 C   0  0  0  0  0  0  0  0  0  0  0  0
   -7.2430    7.7760  -34.8330 C   0  0  0  0  0  0  0  0  0  0  0  0
  -13.9340   15.1220  -37.4080 C   0  0  0  0  0  0  0  0  0  0  0  0
   -9.6410   18.4120  -32.3490 C   0  0  0  0  0  0  0  0  0  0  0  0
  -12.8090   15.3130  -38.2220 C   0  0  0  0  0  0  0  0  0  0  0  0
  -13.9210   14.1890  -36.3740 C   0  0  0  0  0  0  0  0  0  0  0  0
   -8.0510    8.9360  -35.1760 C   0  0  2  0  0  0  0  0  0  0  0  0
   -7.1210   11.2530  -31.8690 C   0  0  2  0  0  0  0  0  0  0  0  0
   -8.3610   18.9710  -32.3500 C   0  0  0  0  0  0  0  0  0  0  0  0
   -5.1120   12.6510  -30.2840 C   0  0  0  0  0  0  0  0  0  0  0  0
  1  4  1  6
  1  7  1  0
  1  2  1  0
  2 13  1  0
  3  7  2  0
  4 15  1  0
  5 27  3  0
  6 13  2  0
  7  8  1  0
  8 19  1  0
 32  9  1  6
 10 18  2  0
 10 16  1  0
 11 23  1  0
 11 35  1  0
 12 23  2  0
 13 17  1  0
 14 21  1  0
 14 35  1  0
 15 20  2  0
 15 26  1  0
 16 22  2  0
 17 24  2  3
 18 34  1  0
 19 25  1  1
 19 32  1  0
 20 30  1  0
 21 33  1  0
 22 29  1  0
 23 33  1  0
 24 29  1  0
 33 25  1  6
 26 31  2  0
 27 32  1  0
 28 30  2  0
 28 31  1  0
 29 34  2  0
A    1
 C1 
A    2
 N1 
A    3
 O1 
A    4
 C2 
A    5
 N2 
A    6
 O2 
A    7
 C3 
A    8
 N3 
A    9
 O3 
A   10
 C4 
A   11
 N4 
A   12
 O4 
A   13
 C5 
A   14
 C6 
A   15
 C7 
A   16
 C8 
A   17
 C9 
A   18
 C10
A   19
 C11
A   20
 C12
A   21
 C13
A   22
 C14
A   23
 C15
A   24
 C16
A   25
 C17
A   26
 C18
A   27
 C19
A   28
 C20
A   29
 C21
A   30
 C22
A   31
 C23
A   32
 C24
A   33
 C25
A   34
 C26
A   35
 C27
M  END
>  <XChem_code>  (30) 
E22ยง1

>  <Occupancy>  (30) 
[1.0, 1.0, 1.0, 1.0, 1.0, 1.0, 1.0, 1.0, 1.0, 1.0, 1.0, 1.0, 1.0, 1.0, 1.0, 1.0, 1.0, 1.0, 1.0, 1.0, 1.0, 1.0, 1.0, 1.0, 1.0, 1.0, 1.0, 1.0, 1.0, 1.0, 1.0, 1.0, 1.0, 1.0, 1.0]

>  <TempFactor>  (30) 
[44.77, 46.95, 43.33, 43.58, 47.51, 47.9, 43.96, 46.53, 46.69, 77.84, 47.13, 39.22, 49.9, 43.36, 42.16, 75.89, 55.22, 72.09, 44.14, 43.03, 43.28, 76.01, 44.2, 62.42, 42.91, 44.07, 47.42, 45.41, 69.71, 44.62, 43.66, 46.14, 44.31, 70.66, 44.24]

>  <accession>  (30) 
5BPE_A

>  <description>  (30) 
Chain A, EV71 3Cpro [Enterovirus A71]

>  <evalue>  (30) 
1.30231e-85

>  <pdb_code>  (30) 
5BPE

>  <chain>  (30) 
A

>  <ligands>  (30) 
[{'chain_id': 'A', 'author_residue_number': 201, 'author_insertion_code': '', 'chem_comp_id': 'E22', 'alternate_conformers': 0, 'entity_id': 2, 'struct_asym_id': 'B', 'residue_number': 1, 'chem_comp_name': '(2~{S})-~{N}-[(1~{R},2~{S})-1-cyano-1-oxidanyl-3-[(3~{S})-2-oxidanylidenepiperidin-3-yl]propan-2-yl]-3-phenyl-2-[[(~{E})-3-phenylprop-2-enoyl]amino]propanamide', 'weight': 474.552, 'carbohydrate_polymer': False, 'branch_name': ''}]

>  <ligand_codes>  (30) 
['E22']

>  <cofactor_codes>  (30) 
[]

>  <has_cofactor>  (30) 
False

>  <covalent>  (30) 
False

>  <base_name>  (30) 
5BPE

>  <lig_resn>  (30) 
E22

>  <lig_resi>  (30) 
201

>  <lig_chain>  (30) 
A

>  <lig_segi>  (30) 
B

>  <lig_alt>  (30) 


>  <polymer_chain>  (30) 
A

>  <single_smiles>  (30) 
O[C@@H](C#N)[C@H](C[C@@H]1CCCNC1=O)NC(=O)[C@H](Cc2ccccc2)NC(=O)\C=C\c3ccccc3

$$$$
DTTยง1
     RDKit          3D

  4  3  0  0  0  0  0  0  0  0999 V2000
   -9.3360  -15.1280  -12.5130 C   0  0  0  0  0  0  0  0  0  0  0  0
  -10.0550  -13.9340  -13.6670 S   0  0  0  0  0  0  0  0  0  0  0  0
  -10.1980  -15.3320  -11.2720 C   0  0  0  0  0  0  0  0  0  0  0  0
   -9.4150  -15.0810  -10.1000 O   0  0  0  0  0  0  0  0  0  0  0  0
  1  3  1  0
  1  2  1  0
  3  4  1  0
A    1
 C1 
A    2
 S1 
A    3
 C2 
A    4
 O2 
M  END
>  <XChem_code>  (31) 
DTTยง1

>  <Occupancy>  (31) 
[1.0, 1.0, 1.0, 1.0]

>  <TempFactor>  (31) 
[39.59, 47.42, 33.22, 43.95]

>  <accession>  (31) 
4DCD_A

>  <description>  (31) 
Chain A, Genome polyprotein [Human poliovirus 1 Mahoney]

>  <evalue>  (31) 
1.35829e-82

>  <pdb_code>  (31) 
4DCD

>  <chain>  (31) 
A

>  <ligands>  (31) 
[{'chain_id': 'A', 'author_residue_number': 201, 'author_insertion_code': '', 'chem_comp_id': 'DTT', 'alternate_conformers': 0, 'entity_id': 2, 'struct_asym_id': 'B', 'residue_number': 1, 'chem_comp_name': '2,3-DIHYDROXY-1,4-DITHIOBUTANE', 'weight': 154.251, 'carbohydrate_polymer': False, 'branch_name': ''}, {'chain_id': 'A', 'author_residue_number': 202, 'author_insertion_code': '', 'chem_comp_id': 'K36', 'alternate_conformers': 0, 'entity_id': 3, 'struct_asym_id': 'C', 'residue_number': 1, 'chem_comp_name': '(1S,2S)-2-({N-[(benzyloxy)carbonyl]-L-leucyl}amino)-1-hydroxy-3-[(3S)-2-oxopyrrolidin-3-yl]propane-1-sulfonic acid', 'weight': 485.551, 'carbohydrate_polymer': False, 'branch_name': ''}, {'chain_id': 'A', 'author_residue_number': 203, 'author_insertion_code': '', 'chem_comp_id': 'SO4', 'alternate_conformers': 0, 'entity_id': 4, 'struct_asym_id': 'D', 'residue_number': 1, 'chem_comp_name': 'SULFATE ION', 'weight': 96.063, 'carbohydrate_polymer': False, 'branch_name': ''}, {'chain_id': 'A', 'author_residue_number': 204, 'author_insertion_code': '', 'chem_comp_id': 'SO4', 'alternate_conformers': 0, 'entity_id': 4, 'struct_asym_id': 'E', 'residue_number': 1, 'chem_comp_name': 'SULFATE ION', 'weight': 96.063, 'carbohydrate_polymer': False, 'branch_name': ''}]

>  <ligand_codes>  (31) 
['DTT', 'K36', 'SO4', 'SO4']

>  <cofactor_codes>  (31) 
[]

>  <has_cofactor>  (31) 
False

>  <covalent>  (31) 
False

>  <base_name>  (31) 
4DCD

>  <lig_resn>  (31) 
DTT

>  <lig_resi>  (31) 
201

>  <lig_chain>  (31) 
A

>  <lig_segi>  (31) 
B

>  <lig_alt>  (31) 


>  <polymer_chain>  (31) 
A

>  <single_smiles>  (31) 
O[C@@H](CS)[C@@H](O)CS

$$$$
K36ยง1
     RDKit          3D

 30 31  0  0  0  0  0  0  0  0999 V2000
   -8.9700   17.5750  -31.0090 C   0  0  0  0  0  0  0  0  0  0  0  0
  -10.0590   16.9670  -30.4140 C   0  0  0  0  0  0  0  0  0  0  0  0
  -10.8920   17.7010  -29.5780 C   0  0  0  0  0  0  0  0  0  0  0  0
  -10.6400   19.0530  -29.3700 C   0  0  0  0  0  0  0  0  0  0  0  0
   -9.5570   19.6690  -29.9800 C   0  0  0  0  0  0  0  0  0  0  0  0
   -8.7130   18.9270  -30.8020 C   0  0  0  0  0  0  0  0  0  0  0  0
   -8.0750   16.7460  -31.8990 C   0  0  0  0  0  0  0  0  0  0  0  0
   -8.7990   16.3920  -33.0860 O   0  0  0  0  0  0  0  0  0  0  0  0
   -9.2260   15.0230  -33.2570 C   0  0  0  0  0  0  0  0  0  0  0  0
   -9.1610   14.2130  -32.3370 O   0  0  0  0  0  0  0  0  0  0  0  0
   -9.7150   14.7080  -34.4900 N   0  0  0  0  0  0  0  0  0  0  0  0
   -9.8030   13.3470  -35.0110 C   0  0  1  0  0  0  0  0  0  0  0  0
  -10.5080   13.1720  -36.3590 C   0  0  0  0  0  0  0  0  0  0  0  0
  -11.7110   14.0930  -36.5420 C   0  0  1  0  0  0  0  0  0  0  0  0
  -11.9690   14.3320  -38.0230 C   0  0  0  0  0  0  0  0  0  0  0  0
  -12.9410   13.5180  -35.8720 C   0  0  0  0  0  0  0  0  0  0  0  0
   -8.7060   12.3590  -34.7330 C   0  0  2  0  0  0  0  0  0  0  0  0
   -7.5560   12.6800  -35.0200 O   0  0  0  0  0  0  0  0  0  0  0  0
   -9.0120   11.1150  -34.2520 N   0  0  0  0  0  0  0  0  0  0  0  0
   -7.9480   10.1300  -33.9570 C   0  0  2  0  0  0  0  0  0  0  0  0
   -8.2670    8.7510  -34.5240 C   0  0  2  0  0  0  0  0  0  0  0  0
   -8.3190    8.8070  -35.9490 O   0  0  0  0  0  0  0  0  0  0  0  0
   -7.8060    9.9810  -32.4450 C   0  0  0  0  0  0  0  0  0  0  0  0
   -7.3520   11.2620  -31.7920 C   0  0  2  0  0  0  0  0  0  0  0  0
   -5.9980   11.7790  -32.2540 C   0  0  0  0  0  0  0  0  0  0  0  0
   -5.3830   12.4060  -31.0100 C   0  0  0  0  0  0  0  0  0  0  0  0
   -6.0060   11.7100  -29.8810 N   0  0  0  0  0  0  0  0  0  0  0  0
   -7.1020   11.0560  -30.3450 C   0  0  0  0  0  0  0  0  0  0  0  0
   -7.7710   10.3460  -29.6020 O   0  0  0  0  0  0  0  0  0  0  0  0
  -10.0160    8.3280  -33.9520 R   0  0  0  0  0  0  0  0  0  0  0  0
  1  2  1  0
  1  6  1  0
  1  7  1  0
  2  3  1  0
  3  4  1  0
  4  5  1  0
  5  6  1  0
  7  8  1  0
  8  9  1  0
  9 10  1  0
  9 11  1  0
 11 12  1  0
 12 13  1  6
 12 17  1  0
 13 14  1  0
 14 15  1  6
 14 16  1  0
 17 18  1  6
 17 19  1  0
 19 20  1  0
 20 21  1  0
 20 23  1  1
 21 22  1  0
 21 30  1  1
 24 23  1  6
 24 25  1  0
 24 28  1  0
 25 26  1  0
 26 27  1  0
 27 28  1  0
 28 29  1  0
A    1
 C1 
A    2
 C2 
A    3
 C3 
A    4
 C4 
A    5
 C5 
A    6
 C6 
A    7
 C7 
A    8
 O8 
A    9
 C9 
A   10
 O10
A   11
 N11
A   12
 C12
A   13
 C13
A   14
 C14
A   15
 C15
A   16
 C16
A   17
 C17
A   18
 O18
A   19
 N19
A   20
 C20
A   21
 C21
A   22
 O22
A   23
 C24
A   24
 C25
A   25
 C26
A   26
 C27
A   27
 N28
A   28
 C29
A   29
 O30
A   30
 X  
M  END
>  <XChem_code>  (32) 
K36ยง1

>  <Occupancy>  (32) 
[1.0, 1.0, 1.0, 1.0, 1.0, 1.0, 1.0, 1.0, 1.0, 1.0, 1.0, 1.0, 1.0, 1.0, 1.0, 1.0, 1.0, 1.0, 1.0, 1.0, 1.0, 1.0, 1.0, 1.0, 1.0, 1.0, 1.0, 1.0, 1.0, 1.0]

>  <TempFactor>  (32) 
[30.71, 25.76, 25.55, 30.93, 32.73, 33.09, 29.57, 27.45, 21.78, 20.1, 18.64, 16.74, 17.68, 18.03, 20.27, 18.93, 19.19, 22.15, 19.34, 15.88, 17.48, 19.25, 14.06, 14.56, 14.66, 16.75, 19.27, 15.98, 17.08, 17.2]

>  <accession>  (32) 
4DCD_A

>  <description>  (32) 
Chain A, Genome polyprotein [Human poliovirus 1 Mahoney]

>  <evalue>  (32) 
1.35829e-82

>  <pdb_code>  (32) 
4DCD

>  <chain>  (32) 
A

>  <ligands>  (32) 
[{'chain_id': 'A', 'author_residue_number': 201, 'author_insertion_code': '', 'chem_comp_id': 'DTT', 'alternate_conformers': 0, 'entity_id': 2, 'struct_asym_id': 'B', 'residue_number': 1, 'chem_comp_name': '2,3-DIHYDROXY-1,4-DITHIOBUTANE', 'weight': 154.251, 'carbohydrate_polymer': False, 'branch_name': ''}, {'chain_id': 'A', 'author_residue_number': 202, 'author_insertion_code': '', 'chem_comp_id': 'K36', 'alternate_conformers': 0, 'entity_id': 3, 'struct_asym_id': 'C', 'residue_number': 1, 'chem_comp_name': '(1S,2S)-2-({N-[(benzyloxy)carbonyl]-L-leucyl}amino)-1-hydroxy-3-[(3S)-2-oxopyrrolidin-3-yl]propane-1-sulfonic acid', 'weight': 485.551, 'carbohydrate_polymer': False, 'branch_name': ''}, {'chain_id': 'A', 'author_residue_number': 203, 'author_insertion_code': '', 'chem_comp_id': 'SO4', 'alternate_conformers': 0, 'entity_id': 4, 'struct_asym_id': 'D', 'residue_number': 1, 'chem_comp_name': 'SULFATE ION', 'weight': 96.063, 'carbohydrate_polymer': False, 'branch_name': ''}, {'chain_id': 'A', 'author_residue_number': 204, 'author_insertion_code': '', 'chem_comp_id': 'SO4', 'alternate_conformers': 0, 'entity_id': 4, 'struct_asym_id': 'E', 'residue_number': 1, 'chem_comp_name': 'SULFATE ION', 'weight': 96.063, 'carbohydrate_polymer': False, 'branch_name': ''}]

>  <ligand_codes>  (32) 
['DTT', 'K36', 'SO4', 'SO4']

>  <cofactor_codes>  (32) 
[]

>  <has_cofactor>  (32) 
False

>  <covalent>  (32) 
True

>  <base_name>  (32) 
4DCD

>  <lig_resn>  (32) 
K36

>  <lig_resi>  (32) 
202

>  <lig_chain>  (32) 
A

>  <lig_segi>  (32) 
C

>  <lig_alt>  (32) 


>  <polymer_chain>  (32) 
A

>  <single_smiles>  (32) 
CC(C)C[C@H](NC(=O)OCc1ccccc1)C(=O)N[C@@H](C[C@@H]2CCNC2=O)[C@@H](O)[S](O)(=O)=O

$$$$
AG7ยง3
     RDKit          3D

 44 46  0  0  0  0  0  0  0  0999 V2000
   25.8670   -6.8470  -69.3410 C   0  0  0  0  0  0  0  0  0  0  0  0
   21.5920   -6.0880  -71.0180 C   0  0  0  0  0  0  0  0  0  0  0  0
   26.5230   -6.6760  -67.9710 C   0  0  0  0  0  0  0  0  0  0  0  0
   20.0860   -5.7190  -70.9110 C   0  0  0  0  0  0  0  0  0  0  0  0
   19.7210   -5.0420  -72.1420 C   0  0  0  0  0  0  0  0  0  0  0  0
   26.1650   -6.0980  -70.2440 O   0  0  0  0  0  0  0  0  0  0  0  0
   27.8900   -6.0020  -67.9530 C   0  0  1  0  0  0  0  0  0  0  0  0
   18.3640   -4.4980  -72.4980 C   0  0  0  0  0  0  0  0  0  0  0  0
   20.8830   -4.9790  -72.9790 O   0  0  0  0  0  0  0  0  0  0  0  0
   28.6140   -6.0230  -66.6140 C   0  0  0  0  0  0  0  0  0  0  0  0
   22.0480   -5.6440  -72.2310 N   0  0  0  0  0  0  0  0  0  0  0  0
   27.8120   -5.5960  -65.4100 C   0  0  0  0  0  0  0  0  0  0  0  0
   27.4820   -4.1670  -65.2240 C   0  0  0  0  0  0  0  0  0  0  0  0
   26.6920   -3.7390  -64.0380 C   0  0  0  0  0  0  0  0  0  0  0  0
   26.2660   -4.6920  -63.1140 C   0  0  0  0  0  0  0  0  0  0  0  0
   26.5990   -6.1430  -63.3070 C   0  0  0  0  0  0  0  0  0  0  0  0
   27.3770   -6.5680  -64.4790 C   0  0  0  0  0  0  0  0  0  0  0  0
   29.3850   -5.3660  -69.9380 N   0  0  0  0  0  0  0  0  0  0  0  0
   30.4670   -5.6280  -70.9040 C   0  0  1  0  0  0  0  0  0  0  0  0
   30.0220   -5.3060  -72.3230 C   0  0  0  0  0  0  0  0  0  0  0  0
   28.8880   -6.2170  -72.8150 C   0  0  1  0  0  0  0  0  0  0  0  0
   28.1610   -5.8820  -74.1330 C   0  0  0  0  0  0  0  0  0  0  0  0
   27.9520   -7.1790  -74.8880 N   0  0  0  0  0  0  0  0  0  0  0  0
   28.4690   -4.7430  -74.8120 O   0  0  0  0  0  0  0  0  0  0  0  0
   31.8020   -5.0100  -70.5420 C   0  0  2  0  0  0  0  0  0  0  0  0
   32.4630   -5.5020  -69.2570 C   0  0  0  0  0  0  0  0  0  0  0  0
   32.9310   -6.9510  -69.2520 C   0  0  0  0  0  0  0  0  0  0  0  0
   33.0680   -7.5780  -68.1200 O   0  0  0  0  0  0  0  0  0  0  0  0
   33.0050   -7.5720  -70.3380 O   0  0  0  0  0  0  0  0  0  0  0  0
   28.8090   -6.4280  -69.1090 C   0  0  0  0  0  0  0  0  0  0  0  0
   29.2100   -7.5800  -69.1760 O   0  0  0  0  0  0  0  0  0  0  0  0
   33.6970   -8.8290  -68.0630 C   0  0  0  0  0  0  0  0  0  0  0  0
   34.2270   -9.2750  -66.7200 C   0  0  0  0  0  0  0  0  0  0  0  0
   24.7440   -7.8720  -69.5780 C   0  0  1  0  0  0  0  0  0  0  0  0
   23.7370   -7.3250  -70.4860 N   0  0  0  0  0  0  0  0  0  0  0  0
   22.4790   -6.7840  -70.0080 C   0  0  0  0  0  0  0  0  0  0  0  0
   22.1880   -6.8220  -68.8180 O   0  0  0  0  0  0  0  0  0  0  0  0
   25.2270   -9.2410  -70.0220 C   0  0  2  0  0  0  0  0  0  0  0  0
   26.1560   -9.2000  -71.2000 C   0  0  0  0  0  0  0  0  0  0  0  0
   24.0950  -10.2030  -70.2240 C   0  0  0  0  0  0  0  0  0  0  0  0
   28.2250   -8.2960  -73.9170 C   0  0  0  0  0  0  0  0  0  0  0  0
   29.0520   -7.7180  -72.7560 C   0  0  0  0  0  0  0  0  0  0  0  0
   31.3240   -3.2870  -70.2940 R   0  0  0  0  0  0  0  0  0  0  0  0
   25.5580   -4.3170  -62.0490 F   0  0  0  0  0  0  0  0  0  0  0  0
  1  3  1  0
  1  6  2  0
  1 34  1  0
  2  4  1  0
  2 11  2  0
  2 36  1  0
  7  3  1  1
  4  5  2  0
  5  8  1  0
  5  9  1  0
  7 10  1  0
  7 30  1  0
  9 11  1  0
 10 12  1  0
 12 13  2  0
 12 17  1  0
 13 14  1  0
 14 15  2  0
 15 16  1  0
 15 44  1  0
 16 17  2  0
 18 19  1  0
 18 30  1  0
 19 20  1  6
 19 25  1  0
 21 20  1  6
 21 22  1  0
 21 42  1  0
 22 23  1  0
 22 24  2  0
 23 41  1  0
 25 26  1  0
 25 43  1  1
 26 27  1  0
 27 28  1  0
 27 29  2  0
 28 32  1  0
 30 31  2  0
 32 33  1  0
 34 35  1  6
 34 38  1  0
 35 36  1  0
 36 37  2  0
 38 39  1  6
 38 40  1  0
 41 42  1  0
A    1
 C01
A    2
 C1 
A    3
 C02
A    4
 C2 
A    5
 C3 
A    6
 O03
A    7
 C04
A    8
 C4 
A    9
 O4 
A   10
 C05
A   11
 N5 
A   12
 C06
A   13
 C07
A   14
 C08
A   15
 C09
A   16
 C10
A   17
 C11
A   18
 N12
A   19
 C13
A   20
 C14
A   21
 C15
A   22
 C16
A   23
 N17
A   24
 O18
A   25
 C19
A   26
 C20
A   27
 C21
A   28
 O22
A   29
 O23
A   30
 C47
A   31
 O48
A   32
 C50
A   33
 C53
A   34
 C57
A   35
 N58
A   36
 C59
A   37
 O60
A   38
 C78
A   39
 C81
A   40
 C82
A   41
 C83
A   42
 C84
A   43
 X  
A   44
 F1 
M  END
>  <XChem_code>  (33) 
AG7ยง3

>  <Occupancy>  (33) 
[1.0, 1.0, 1.0, 1.0, 1.0, 1.0, 1.0, 1.0, 1.0, 1.0, 1.0, 1.0, 1.0, 1.0, 1.0, 1.0, 1.0, 1.0, 1.0, 1.0, 1.0, 1.0, 1.0, 1.0, 1.0, 1.0, 1.0, 1.0, 1.0, 1.0, 1.0, 1.0, 1.0, 1.0, 1.0, 1.0, 1.0, 1.0, 1.0, 1.0, 1.0, 1.0, 1.0, 1.0]

>  <TempFactor>  (33) 
[25.88, 31.08, 29.88, 35.06, 36.26, 23.95, 27.81, 39.16, 37.45, 30.14, 36.91, 34.12, 30.74, 35.91, 34.1, 36.74, 36.21, 28.43, 28.46, 25.34, 28.56, 26.53, 24.64, 24.49, 25.27, 28.35, 33.43, 41.32, 27.3, 31.54, 29.7, 40.32, 38.41, 30.68, 27.93, 30.36, 31.05, 34.32, 35.86, 41.93, 31.01, 30.04, 22.5, 38.36]

>  <accession>  (33) 
3SJO_A

>  <description>  (33) 
Chain A, 3C protease [Enterovirus A71]

>  <evalue>  (33) 
1.0179e-70

>  <pdb_code>  (33) 
3SJO

>  <chain>  (33) 
A

>  <ligands>  (33) 
[{'chain_id': 'A', 'author_residue_number': 501, 'author_insertion_code': '', 'chem_comp_id': 'AG7', 'alternate_conformers': 0, 'entity_id': 2, 'struct_asym_id': 'I', 'residue_number': 1, 'chem_comp_name': '4-{2-(4-FLUORO-BENZYL)-6-METHYL-5-[(5-METHYL-ISOXAZOLE-3-CARBONYL)-AMINO]-4-OXO-HEPTANOYLAMINO}-5-(2-OXO-PYRROLIDIN-3-YL)-PENTANOIC ACID ETHYL ESTER', 'weight': 600.678, 'carbohydrate_polymer': False, 'branch_name': ''}, {'chain_id': 'B', 'author_residue_number': 501, 'author_insertion_code': '', 'chem_comp_id': 'AG7', 'alternate_conformers': 0, 'entity_id': 2, 'struct_asym_id': 'J', 'residue_number': 1, 'chem_comp_name': '4-{2-(4-FLUORO-BENZYL)-6-METHYL-5-[(5-METHYL-ISOXAZOLE-3-CARBONYL)-AMINO]-4-OXO-HEPTANOYLAMINO}-5-(2-OXO-PYRROLIDIN-3-YL)-PENTANOIC ACID ETHYL ESTER', 'weight': 600.678, 'carbohydrate_polymer': False, 'branch_name': ''}, {'chain_id': 'C', 'author_residue_number': 501, 'author_insertion_code': '', 'chem_comp_id': 'AG7', 'alternate_conformers': 0, 'entity_id': 2, 'struct_asym_id': 'K', 'residue_number': 1, 'chem_comp_name': '4-{2-(4-FLUORO-BENZYL)-6-METHYL-5-[(5-METHYL-ISOXAZOLE-3-CARBONYL)-AMINO]-4-OXO-HEPTANOYLAMINO}-5-(2-OXO-PYRROLIDIN-3-YL)-PENTANOIC ACID ETHYL ESTER', 'weight': 600.678, 'carbohydrate_polymer': False, 'branch_name': ''}, {'chain_id': 'D', 'author_residue_number': 501, 'author_insertion_code': '', 'chem_comp_id': 'AG7', 'alternate_conformers': 0, 'entity_id': 2, 'struct_asym_id': 'L', 'residue_number': 1, 'chem_comp_name': '4-{2-(4-FLUORO-BENZYL)-6-METHYL-5-[(5-METHYL-ISOXAZOLE-3-CARBONYL)-AMINO]-4-OXO-HEPTANOYLAMINO}-5-(2-OXO-PYRROLIDIN-3-YL)-PENTANOIC ACID ETHYL ESTER', 'weight': 600.678, 'carbohydrate_polymer': False, 'branch_name': ''}, {'chain_id': 'E', 'author_residue_number': 501, 'author_insertion_code': '', 'chem_comp_id': 'AG7', 'alternate_conformers': 0, 'entity_id': 2, 'struct_asym_id': 'M', 'residue_number': 1, 'chem_comp_name': '4-{2-(4-FLUORO-BENZYL)-6-METHYL-5-[(5-METHYL-ISOXAZOLE-3-CARBONYL)-AMINO]-4-OXO-HEPTANOYLAMINO}-5-(2-OXO-PYRROLIDIN-3-YL)-PENTANOIC ACID ETHYL ESTER', 'weight': 600.678, 'carbohydrate_polymer': False, 'branch_name': ''}, {'chain_id': 'F', 'author_residue_number': 501, 'author_insertion_code': '', 'chem_comp_id': 'AG7', 'alternate_conformers': 0, 'entity_id': 2, 'struct_asym_id': 'N', 'residue_number': 1, 'chem_comp_name': '4-{2-(4-FLUORO-BENZYL)-6-METHYL-5-[(5-METHYL-ISOXAZOLE-3-CARBONYL)-AMINO]-4-OXO-HEPTANOYLAMINO}-5-(2-OXO-PYRROLIDIN-3-YL)-PENTANOIC ACID ETHYL ESTER', 'weight': 600.678, 'carbohydrate_polymer': False, 'branch_name': ''}, {'chain_id': 'G', 'author_residue_number': 501, 'author_insertion_code': '', 'chem_comp_id': 'AG7', 'alternate_conformers': 0, 'entity_id': 2, 'struct_asym_id': 'O', 'residue_number': 1, 'chem_comp_name': '4-{2-(4-FLUORO-BENZYL)-6-METHYL-5-[(5-METHYL-ISOXAZOLE-3-CARBONYL)-AMINO]-4-OXO-HEPTANOYLAMINO}-5-(2-OXO-PYRROLIDIN-3-YL)-PENTANOIC ACID ETHYL ESTER', 'weight': 600.678, 'carbohydrate_polymer': False, 'branch_name': ''}, {'chain_id': 'H', 'author_residue_number': 501, 'author_insertion_code': '', 'chem_comp_id': 'AG7', 'alternate_conformers': 0, 'entity_id': 2, 'struct_asym_id': 'P', 'residue_number': 1, 'chem_comp_name': '4-{2-(4-FLUORO-BENZYL)-6-METHYL-5-[(5-METHYL-ISOXAZOLE-3-CARBONYL)-AMINO]-4-OXO-HEPTANOYLAMINO}-5-(2-OXO-PYRROLIDIN-3-YL)-PENTANOIC ACID ETHYL ESTER', 'weight': 600.678, 'carbohydrate_polymer': False, 'branch_name': ''}]

>  <ligand_codes>  (33) 
['AG7', 'AG7', 'AG7', 'AG7', 'AG7', 'AG7', 'AG7', 'AG7']

>  <cofactor_codes>  (33) 
[]

>  <has_cofactor>  (33) 
False

>  <covalent>  (33) 
True

>  <base_name>  (33) 
3SJO

>  <lig_resn>  (33) 
AG7

>  <lig_resi>  (33) 
501

>  <lig_chain>  (33) 
B

>  <lig_segi>  (33) 
J

>  <lig_alt>  (33) 


>  <polymer_chain>  (33) 
A

>  <single_smiles>  (33) 
CCOC(=O)CC[C@H](C[C@@H]1CCNC1=O)NC(=O)[C@@H](CC(=O)[C@@H](NC(=O)c2cc(C)on2)C(C)C)Cc3ccc(F)cc3

$$$$
AG7ยง4
     RDKit          3D

 44 46  0  0  0  0  0  0  0  0999 V2000
   29.6550  -61.1510  -39.3970 C   0  0  0  0  0  0  0  0  0  0  0  0
   25.5260  -61.3210  -36.9910 C   0  0  0  0  0  0  0  0  0  0  0  0
   30.6740  -60.1070  -39.8390 C   0  0  0  0  0  0  0  0  0  0  0  0
   24.4000  -60.6850  -36.1360 C   0  0  0  0  0  0  0  0  0  0  0  0
   23.2020  -61.4730  -36.3370 C   0  0  0  0  0  0  0  0  0  0  0  0
   28.9580  -61.7010  -40.2330 O   0  0  0  0  0  0  0  0  0  0  0  0
   31.1000  -60.1290  -41.3000 C   0  0  1  0  0  0  0  0  0  0  0  0
   21.8610  -61.2130  -35.7140 C   0  0  0  0  0  0  0  0  0  0  0  0
   23.5100  -62.5380  -37.2510 O   0  0  0  0  0  0  0  0  0  0  0  0
   32.1360  -59.1010  -41.7280 C   0  0  0  0  0  0  0  0  0  0  0  0
   24.9950  -62.4070  -37.6450 N   0  0  0  0  0  0  0  0  0  0  0  0
   31.8600  -57.6810  -41.3160 C   0  0  0  0  0  0  0  0  0  0  0  0
   30.8030  -56.9290  -42.0220 C   0  0  0  0  0  0  0  0  0  0  0  0
   30.5020  -55.5320  -41.6040 C   0  0  0  0  0  0  0  0  0  0  0  0
   31.2180  -54.9580  -40.5500 C   0  0  0  0  0  0  0  0  0  0  0  0
   32.2950  -55.7270  -39.8410 C   0  0  0  0  0  0  0  0  0  0  0  0
   32.5940  -57.1030  -40.2520 C   0  0  0  0  0  0  0  0  0  0  0  0
   30.8960  -62.0050  -43.0300 N   0  0  0  0  0  0  0  0  0  0  0  0
   31.4600  -63.1640  -43.7400 C   0  0  1  0  0  0  0  0  0  0  0  0
   30.5310  -64.3750  -43.7490 C   0  0  0  0  0  0  0  0  0  0  0  0
   30.0320  -64.7790  -42.3570 C   0  0  1  0  0  0  0  0  0  0  0  0
   28.7990  -65.6910  -42.2380 C   0  0  0  0  0  0  0  0  0  0  0  0
   29.2010  -66.8350  -41.3290 N   0  0  0  0  0  0  0  0  0  0  0  0
   28.0090  -65.9220  -43.3350 O   0  0  0  0  0  0  0  0  0  0  0  0
   32.0450  -62.7740  -45.0840 C   0  0  2  0  0  0  0  0  0  0  0  0
   33.3950  -62.0770  -44.9990 C   0  0  0  0  0  0  0  0  0  0  0  0
   34.4980  -62.8690  -44.3040 C   0  0  0  0  0  0  0  0  0  0  0  0
   35.2550  -62.3160  -43.4050 O   0  0  0  0  0  0  0  0  0  0  0  0
   34.5710  -64.1060  -44.5070 O   0  0  0  0  0  0  0  0  0  0  0  0
   31.4930  -61.5280  -41.7870 C   0  0  0  0  0  0  0  0  0  0  0  0
   32.4630  -62.0750  -41.3040 O   0  0  0  0  0  0  0  0  0  0  0  0
   36.1230  -63.1340  -42.6700 C   0  0  0  0  0  0  0  0  0  0  0  0
   37.5200  -62.6320  -42.3860 C   0  0  0  0  0  0  0  0  0  0  0  0
   29.3140  -61.3090  -37.9050 C   0  0  1  0  0  0  0  0  0  0  0  0
   27.9370  -61.7460  -37.6920 N   0  0  0  0  0  0  0  0  0  0  0  0
   26.9560  -60.8490  -37.1250 C   0  0  0  0  0  0  0  0  0  0  0  0
   27.2790  -59.7150  -36.7900 O   0  0  0  0  0  0  0  0  0  0  0  0
   30.3200  -62.0990  -37.0870 C   0  0  2  0  0  0  0  0  0  0  0  0
   30.8930  -63.2890  -37.7930 C   0  0  0  0  0  0  0  0  0  0  0  0
   29.8000  -62.4080  -35.7150 C   0  0  0  0  0  0  0  0  0  0  0  0
   30.3630  -66.3540  -40.5120 C   0  0  0  0  0  0  0  0  0  0  0  0
   31.0260  -65.2160  -41.3050 C   0  0  0  0  0  0  0  0  0  0  0  0
   30.7800  -61.8250  -45.9490 R   0  0  0  0  0  0  0  0  0  0  0  0
   30.9480  -53.7110  -40.1570 F   0  0  0  0  0  0  0  0  0  0  0  0
  1  3  1  0
  1  6  2  0
  1 34  1  0
  2  4  1  0
  2 11  2  0
  2 36  1  0
  7  3  1  1
  4  5  2  0
  5  8  1  0
  5  9  1  0
  7 10  1  0
  7 30  1  0
  9 11  1  0
 10 12  1  0
 12 13  2  0
 12 17  1  0
 13 14  1  0
 14 15  2  0
 15 16  1  0
 15 44  1  0
 16 17  2  0
 18 19  1  0
 18 30  1  0
 19 20  1  6
 19 25  1  0
 21 20  1  6
 21 22  1  0
 21 42  1  0
 22 23  1  0
 22 24  2  0
 23 41  1  0
 25 26  1  0
 25 43  1  1
 26 27  1  0
 27 28  1  0
 27 29  2  0
 28 32  1  0
 30 31  2  0
 32 33  1  0
 34 35  1  6
 34 38  1  0
 35 36  1  0
 36 37  2  0
 38 39  1  6
 38 40  1  0
 41 42  1  0
A    1
 C01
A    2
 C1 
A    3
 C02
A    4
 C2 
A    5
 C3 
A    6
 O03
A    7
 C04
A    8
 C4 
A    9
 O4 
A   10
 C05
A   11
 N5 
A   12
 C06
A   13
 C07
A   14
 C08
A   15
 C09
A   16
 C10
A   17
 C11
A   18
 N12
A   19
 C13
A   20
 C14
A   21
 C15
A   22
 C16
A   23
 N17
A   24
 O18
A   25
 C19
A   26
 C20
A   27
 C21
A   28
 O22
A   29
 O23
A   30
 C47
A   31
 O48
A   32
 C50
A   33
 C53
A   34
 C57
A   35
 N58
A   36
 C59
A   37
 O60
A   38
 C78
A   39
 C81
A   40
 C82
A   41
 C83
A   42
 C84
A   43
 X  
A   44
 F1 
M  END
>  <XChem_code>  (34) 
AG7ยง4

>  <Occupancy>  (34) 
[1.0, 1.0, 1.0, 1.0, 1.0, 1.0, 1.0, 1.0, 1.0, 1.0, 1.0, 1.0, 1.0, 1.0, 1.0, 1.0, 1.0, 1.0, 1.0, 1.0, 1.0, 1.0, 1.0, 1.0, 1.0, 1.0, 1.0, 1.0, 1.0, 1.0, 1.0, 1.0, 1.0, 1.0, 1.0, 1.0, 1.0, 1.0, 1.0, 1.0, 1.0, 1.0, 1.0, 1.0]

>  <TempFactor>  (34) 
[21.96, 24.39, 21.73, 26.24, 29.35, 18.33, 19.17, 32.27, 29.29, 20.38, 29.17, 23.28, 24.95, 22.31, 27.76, 29.05, 27.23, 18.6, 18.29, 16.69, 21.47, 19.58, 23.87, 18.44, 20.75, 20.07, 25.82, 25.59, 24.31, 18.4, 21.28, 29.93, 33.18, 24.75, 25.89, 25.25, 28.05, 27.21, 27.48, 32.97, 19.57, 21.63, 17.25, 28.5]

>  <accession>  (34) 
3SJO_A

>  <description>  (34) 
Chain A, 3C protease [Enterovirus A71]

>  <evalue>  (34) 
1.0179e-70

>  <pdb_code>  (34) 
3SJO

>  <chain>  (34) 
A

>  <ligands>  (34) 
[{'chain_id': 'A', 'author_residue_number': 501, 'author_insertion_code': '', 'chem_comp_id': 'AG7', 'alternate_conformers': 0, 'entity_id': 2, 'struct_asym_id': 'I', 'residue_number': 1, 'chem_comp_name': '4-{2-(4-FLUORO-BENZYL)-6-METHYL-5-[(5-METHYL-ISOXAZOLE-3-CARBONYL)-AMINO]-4-OXO-HEPTANOYLAMINO}-5-(2-OXO-PYRROLIDIN-3-YL)-PENTANOIC ACID ETHYL ESTER', 'weight': 600.678, 'carbohydrate_polymer': False, 'branch_name': ''}, {'chain_id': 'B', 'author_residue_number': 501, 'author_insertion_code': '', 'chem_comp_id': 'AG7', 'alternate_conformers': 0, 'entity_id': 2, 'struct_asym_id': 'J', 'residue_number': 1, 'chem_comp_name': '4-{2-(4-FLUORO-BENZYL)-6-METHYL-5-[(5-METHYL-ISOXAZOLE-3-CARBONYL)-AMINO]-4-OXO-HEPTANOYLAMINO}-5-(2-OXO-PYRROLIDIN-3-YL)-PENTANOIC ACID ETHYL ESTER', 'weight': 600.678, 'carbohydrate_polymer': False, 'branch_name': ''}, {'chain_id': 'C', 'author_residue_number': 501, 'author_insertion_code': '', 'chem_comp_id': 'AG7', 'alternate_conformers': 0, 'entity_id': 2, 'struct_asym_id': 'K', 'residue_number': 1, 'chem_comp_name': '4-{2-(4-FLUORO-BENZYL)-6-METHYL-5-[(5-METHYL-ISOXAZOLE-3-CARBONYL)-AMINO]-4-OXO-HEPTANOYLAMINO}-5-(2-OXO-PYRROLIDIN-3-YL)-PENTANOIC ACID ETHYL ESTER', 'weight': 600.678, 'carbohydrate_polymer': False, 'branch_name': ''}, {'chain_id': 'D', 'author_residue_number': 501, 'author_insertion_code': '', 'chem_comp_id': 'AG7', 'alternate_conformers': 0, 'entity_id': 2, 'struct_asym_id': 'L', 'residue_number': 1, 'chem_comp_name': '4-{2-(4-FLUORO-BENZYL)-6-METHYL-5-[(5-METHYL-ISOXAZOLE-3-CARBONYL)-AMINO]-4-OXO-HEPTANOYLAMINO}-5-(2-OXO-PYRROLIDIN-3-YL)-PENTANOIC ACID ETHYL ESTER', 'weight': 600.678, 'carbohydrate_polymer': False, 'branch_name': ''}, {'chain_id': 'E', 'author_residue_number': 501, 'author_insertion_code': '', 'chem_comp_id': 'AG7', 'alternate_conformers': 0, 'entity_id': 2, 'struct_asym_id': 'M', 'residue_number': 1, 'chem_comp_name': '4-{2-(4-FLUORO-BENZYL)-6-METHYL-5-[(5-METHYL-ISOXAZOLE-3-CARBONYL)-AMINO]-4-OXO-HEPTANOYLAMINO}-5-(2-OXO-PYRROLIDIN-3-YL)-PENTANOIC ACID ETHYL ESTER', 'weight': 600.678, 'carbohydrate_polymer': False, 'branch_name': ''}, {'chain_id': 'F', 'author_residue_number': 501, 'author_insertion_code': '', 'chem_comp_id': 'AG7', 'alternate_conformers': 0, 'entity_id': 2, 'struct_asym_id': 'N', 'residue_number': 1, 'chem_comp_name': '4-{2-(4-FLUORO-BENZYL)-6-METHYL-5-[(5-METHYL-ISOXAZOLE-3-CARBONYL)-AMINO]-4-OXO-HEPTANOYLAMINO}-5-(2-OXO-PYRROLIDIN-3-YL)-PENTANOIC ACID ETHYL ESTER', 'weight': 600.678, 'carbohydrate_polymer': False, 'branch_name': ''}, {'chain_id': 'G', 'author_residue_number': 501, 'author_insertion_code': '', 'chem_comp_id': 'AG7', 'alternate_conformers': 0, 'entity_id': 2, 'struct_asym_id': 'O', 'residue_number': 1, 'chem_comp_name': '4-{2-(4-FLUORO-BENZYL)-6-METHYL-5-[(5-METHYL-ISOXAZOLE-3-CARBONYL)-AMINO]-4-OXO-HEPTANOYLAMINO}-5-(2-OXO-PYRROLIDIN-3-YL)-PENTANOIC ACID ETHYL ESTER', 'weight': 600.678, 'carbohydrate_polymer': False, 'branch_name': ''}, {'chain_id': 'H', 'author_residue_number': 501, 'author_insertion_code': '', 'chem_comp_id': 'AG7', 'alternate_conformers': 0, 'entity_id': 2, 'struct_asym_id': 'P', 'residue_number': 1, 'chem_comp_name': '4-{2-(4-FLUORO-BENZYL)-6-METHYL-5-[(5-METHYL-ISOXAZOLE-3-CARBONYL)-AMINO]-4-OXO-HEPTANOYLAMINO}-5-(2-OXO-PYRROLIDIN-3-YL)-PENTANOIC ACID ETHYL ESTER', 'weight': 600.678, 'carbohydrate_polymer': False, 'branch_name': ''}]

>  <ligand_codes>  (34) 
['AG7', 'AG7', 'AG7', 'AG7', 'AG7', 'AG7', 'AG7', 'AG7']

>  <cofactor_codes>  (34) 
[]

>  <has_cofactor>  (34) 
False

>  <covalent>  (34) 
True

>  <base_name>  (34) 
3SJO

>  <lig_resn>  (34) 
AG7

>  <lig_resi>  (34) 
501

>  <lig_chain>  (34) 
C

>  <lig_segi>  (34) 
K

>  <lig_alt>  (34) 


>  <polymer_chain>  (34) 
A

>  <single_smiles>  (34) 
CCOC(=O)CC[C@H](C[C@@H]1CCNC1=O)NC(=O)[C@@H](CC(=O)[C@@H](NC(=O)c2cc(C)on2)C(C)C)Cc3ccc(F)cc3

$$$$
AG7ยง5
     RDKit          3D

 44 46  0  0  0  0  0  0  0  0999 V2000
    2.7950   46.9980  -61.0830 C   0  0  0  0  0  0  0  0  0  0  0  0
    1.6080   49.7800  -57.6000 C   0  0  0  0  0  0  0  0  0  0  0  0
    2.2810   46.6730  -62.4860 C   0  0  0  0  0  0  0  0  0  0  0  0
    0.7460   50.8740  -56.9120 C   0  0  0  0  0  0  0  0  0  0  0  0
    0.6250   50.5070  -55.5130 C   0  0  0  0  0  0  0  0  0  0  0  0
    2.7040   46.1660  -60.2050 O   0  0  0  0  0  0  0  0  0  0  0  0
    2.2010   45.2040  -62.8920 C   0  0  1  0  0  0  0  0  0  0  0  0
   -0.1270   51.2610  -54.4500 C   0  0  0  0  0  0  0  0  0  0  0  0
    1.3410   49.2820  -55.3070 O   0  0  0  0  0  0  0  0  0  0  0  0
    1.9170   44.9610  -64.3670 C   0  0  0  0  0  0  0  0  0  0  0  0
    1.9440   48.8520  -56.6530 N   0  0  0  0  0  0  0  0  0  0  0  0
    0.8060   45.7910  -64.9600 C   0  0  0  0  0  0  0  0  0  0  0  0
   -0.5820   45.5700  -64.5050 C   0  0  0  0  0  0  0  0  0  0  0  0
   -1.6870   46.3910  -65.0760 C   0  0  0  0  0  0  0  0  0  0  0  0
   -1.4040   47.3570  -66.0410 C   0  0  0  0  0  0  0  0  0  0  0  0
    0.0100   47.5790  -66.5010 C   0  0  0  0  0  0  0  0  0  0  0  0
    1.1020   46.7740  -65.9340 C   0  0  0  0  0  0  0  0  0  0  0  0
    2.9980   43.1430  -61.6060 N   0  0  0  0  0  0  0  0  0  0  0  0
    3.9680   42.0750  -61.2970 C   0  0  1  0  0  0  0  0  0  0  0  0
    4.1810   41.9360  -59.7970 C   0  0  0  0  0  0  0  0  0  0  0  0
    4.7820   43.1940  -59.1600 C   0  0  1  0  0  0  0  0  0  0  0  0
    4.8150   43.3080  -57.6230 C   0  0  0  0  0  0  0  0  0  0  0  0
    6.1680   43.8630  -57.2250 N   0  0  0  0  0  0  0  0  0  0  0  0
    4.2300   42.3370  -56.8650 O   0  0  0  0  0  0  0  0  0  0  0  0
    3.6760   40.7510  -61.9700 C   0  0  2  0  0  0  0  0  0  0  0  0
    3.7280   40.7320  -63.4890 C   0  0  0  0  0  0  0  0  0  0  0  0
    5.0950   40.9970  -64.1000 C   0  0  0  0  0  0  0  0  0  0  0  0
    5.1580   41.5280  -65.2820 O   0  0  0  0  0  0  0  0  0  0  0  0
    6.1190   40.8750  -63.3860 O   0  0  0  0  0  0  0  0  0  0  0  0
    3.3560   44.3320  -62.3830 C   0  0  0  0  0  0  0  0  0  0  0  0
    4.4740   44.4680  -62.8560 O   0  0  0  0  0  0  0  0  0  0  0  0
    6.3690   41.6100  -65.9800 C   0  0  0  0  0  0  0  0  0  0  0  0
    6.2700   41.7660  -67.4800 C   0  0  0  0  0  0  0  0  0  0  0  0
    3.3900   48.3790  -60.7590 C   0  0  1  0  0  0  0  0  0  0  0  0
    3.1290   48.7880  -59.3770 N   0  0  0  0  0  0  0  0  0  0  0  0
    2.0130   49.6550  -59.0540 C   0  0  0  0  0  0  0  0  0  0  0  0
    1.3770   50.2110  -59.9400 O   0  0  0  0  0  0  0  0  0  0  0  0
    4.8460   48.5070  -61.1570 C   0  0  2  0  0  0  0  0  0  0  0  0
    5.7880   47.8460  -60.1940 C   0  0  0  0  0  0  0  0  0  0  0  0
    5.2300   49.9050  -61.5460 C   0  0  0  0  0  0  0  0  0  0  0  0
    6.8430   44.3320  -58.4860 C   0  0  0  0  0  0  0  0  0  0  0  0
    6.0820   43.7510  -59.6900 C   0  0  0  0  0  0  0  0  0  0  0  0
    1.9650   40.4440  -61.4970 R   0  0  0  0  0  0  0  0  0  0  0  0
   -2.3920   48.0950  -66.5540 F   0  0  0  0  0  0  0  0  0  0  0  0
  1  3  1  0
  1  6  2  0
  1 34  1  0
  2  4  1  0
  2 11  2  0
  2 36  1  0
  7  3  1  6
  4  5  2  0
  5  8  1  0
  5  9  1  0
  7 10  1  0
  7 30  1  0
  9 11  1  0
 10 12  1  0
 12 13  2  0
 12 17  1  0
 13 14  1  0
 14 15  2  0
 15 16  1  0
 15 44  1  0
 16 17  2  0
 18 19  1  0
 18 30  1  0
 19 20  1  1
 19 25  1  0
 21 20  1  1
 21 22  1  0
 21 42  1  0
 22 23  1  0
 22 24  2  0
 23 41  1  0
 25 26  1  0
 25 43  1  6
 26 27  1  0
 27 28  1  0
 27 29  2  0
 28 32  1  0
 30 31  2  0
 32 33  1  0
 34 35  1  1
 34 38  1  0
 35 36  1  0
 36 37  2  0
 38 39  1  1
 38 40  1  0
 41 42  1  0
A    1
 C01
A    2
 C1 
A    3
 C02
A    4
 C2 
A    5
 C3 
A    6
 O03
A    7
 C04
A    8
 C4 
A    9
 O4 
A   10
 C05
A   11
 N5 
A   12
 C06
A   13
 C07
A   14
 C08
A   15
 C09
A   16
 C10
A   17
 C11
A   18
 N12
A   19
 C13
A   20
 C14
A   21
 C15
A   22
 C16
A   23
 N17
A   24
 O18
A   25
 C19
A   26
 C20
A   27
 C21
A   28
 O22
A   29
 O23
A   30
 C47
A   31
 O48
A   32
 C50
A   33
 C53
A   34
 C57
A   35
 N58
A   36
 C59
A   37
 O60
A   38
 C78
A   39
 C81
A   40
 C82
A   41
 C83
A   42
 C84
A   43
 X  
A   44
 F1 
M  END
>  <XChem_code>  (35) 
AG7ยง5

>  <Occupancy>  (35) 
[1.0, 1.0, 1.0, 1.0, 1.0, 1.0, 1.0, 1.0, 1.0, 1.0, 1.0, 1.0, 1.0, 1.0, 1.0, 1.0, 1.0, 1.0, 1.0, 1.0, 1.0, 1.0, 1.0, 1.0, 1.0, 1.0, 1.0, 1.0, 1.0, 1.0, 1.0, 1.0, 1.0, 1.0, 1.0, 1.0, 1.0, 1.0, 1.0, 1.0, 1.0, 1.0, 1.0, 1.0]

>  <TempFactor>  (35) 
[25.14, 32.48, 27.52, 36.3, 34.68, 23.03, 24.86, 37.42, 37.71, 30.08, 35.08, 33.25, 29.06, 34.37, 32.08, 37.79, 35.51, 24.64, 25.51, 24.3, 24.39, 24.61, 25.7, 23.64, 21.44, 24.02, 30.54, 37.41, 24.82, 29.18, 28.28, 33.93, 33.88, 28.03, 28.99, 29.81, 31.24, 30.03, 32.94, 36.47, 30.31, 26.95, 26.95, 37.15]

>  <accession>  (35) 
3SJO_A

>  <description>  (35) 
Chain A, 3C protease [Enterovirus A71]

>  <evalue>  (35) 
1.0179e-70

>  <pdb_code>  (35) 
3SJO

>  <chain>  (35) 
A

>  <ligands>  (35) 
[{'chain_id': 'A', 'author_residue_number': 501, 'author_insertion_code': '', 'chem_comp_id': 'AG7', 'alternate_conformers': 0, 'entity_id': 2, 'struct_asym_id': 'I', 'residue_number': 1, 'chem_comp_name': '4-{2-(4-FLUORO-BENZYL)-6-METHYL-5-[(5-METHYL-ISOXAZOLE-3-CARBONYL)-AMINO]-4-OXO-HEPTANOYLAMINO}-5-(2-OXO-PYRROLIDIN-3-YL)-PENTANOIC ACID ETHYL ESTER', 'weight': 600.678, 'carbohydrate_polymer': False, 'branch_name': ''}, {'chain_id': 'B', 'author_residue_number': 501, 'author_insertion_code': '', 'chem_comp_id': 'AG7', 'alternate_conformers': 0, 'entity_id': 2, 'struct_asym_id': 'J', 'residue_number': 1, 'chem_comp_name': '4-{2-(4-FLUORO-BENZYL)-6-METHYL-5-[(5-METHYL-ISOXAZOLE-3-CARBONYL)-AMINO]-4-OXO-HEPTANOYLAMINO}-5-(2-OXO-PYRROLIDIN-3-YL)-PENTANOIC ACID ETHYL ESTER', 'weight': 600.678, 'carbohydrate_polymer': False, 'branch_name': ''}, {'chain_id': 'C', 'author_residue_number': 501, 'author_insertion_code': '', 'chem_comp_id': 'AG7', 'alternate_conformers': 0, 'entity_id': 2, 'struct_asym_id': 'K', 'residue_number': 1, 'chem_comp_name': '4-{2-(4-FLUORO-BENZYL)-6-METHYL-5-[(5-METHYL-ISOXAZOLE-3-CARBONYL)-AMINO]-4-OXO-HEPTANOYLAMINO}-5-(2-OXO-PYRROLIDIN-3-YL)-PENTANOIC ACID ETHYL ESTER', 'weight': 600.678, 'carbohydrate_polymer': False, 'branch_name': ''}, {'chain_id': 'D', 'author_residue_number': 501, 'author_insertion_code': '', 'chem_comp_id': 'AG7', 'alternate_conformers': 0, 'entity_id': 2, 'struct_asym_id': 'L', 'residue_number': 1, 'chem_comp_name': '4-{2-(4-FLUORO-BENZYL)-6-METHYL-5-[(5-METHYL-ISOXAZOLE-3-CARBONYL)-AMINO]-4-OXO-HEPTANOYLAMINO}-5-(2-OXO-PYRROLIDIN-3-YL)-PENTANOIC ACID ETHYL ESTER', 'weight': 600.678, 'carbohydrate_polymer': False, 'branch_name': ''}, {'chain_id': 'E', 'author_residue_number': 501, 'author_insertion_code': '', 'chem_comp_id': 'AG7', 'alternate_conformers': 0, 'entity_id': 2, 'struct_asym_id': 'M', 'residue_number': 1, 'chem_comp_name': '4-{2-(4-FLUORO-BENZYL)-6-METHYL-5-[(5-METHYL-ISOXAZOLE-3-CARBONYL)-AMINO]-4-OXO-HEPTANOYLAMINO}-5-(2-OXO-PYRROLIDIN-3-YL)-PENTANOIC ACID ETHYL ESTER', 'weight': 600.678, 'carbohydrate_polymer': False, 'branch_name': ''}, {'chain_id': 'F', 'author_residue_number': 501, 'author_insertion_code': '', 'chem_comp_id': 'AG7', 'alternate_conformers': 0, 'entity_id': 2, 'struct_asym_id': 'N', 'residue_number': 1, 'chem_comp_name': '4-{2-(4-FLUORO-BENZYL)-6-METHYL-5-[(5-METHYL-ISOXAZOLE-3-CARBONYL)-AMINO]-4-OXO-HEPTANOYLAMINO}-5-(2-OXO-PYRROLIDIN-3-YL)-PENTANOIC ACID ETHYL ESTER', 'weight': 600.678, 'carbohydrate_polymer': False, 'branch_name': ''}, {'chain_id': 'G', 'author_residue_number': 501, 'author_insertion_code': '', 'chem_comp_id': 'AG7', 'alternate_conformers': 0, 'entity_id': 2, 'struct_asym_id': 'O', 'residue_number': 1, 'chem_comp_name': '4-{2-(4-FLUORO-BENZYL)-6-METHYL-5-[(5-METHYL-ISOXAZOLE-3-CARBONYL)-AMINO]-4-OXO-HEPTANOYLAMINO}-5-(2-OXO-PYRROLIDIN-3-YL)-PENTANOIC ACID ETHYL ESTER', 'weight': 600.678, 'carbohydrate_polymer': False, 'branch_name': ''}, {'chain_id': 'H', 'author_residue_number': 501, 'author_insertion_code': '', 'chem_comp_id': 'AG7', 'alternate_conformers': 0, 'entity_id': 2, 'struct_asym_id': 'P', 'residue_number': 1, 'chem_comp_name': '4-{2-(4-FLUORO-BENZYL)-6-METHYL-5-[(5-METHYL-ISOXAZOLE-3-CARBONYL)-AMINO]-4-OXO-HEPTANOYLAMINO}-5-(2-OXO-PYRROLIDIN-3-YL)-PENTANOIC ACID ETHYL ESTER', 'weight': 600.678, 'carbohydrate_polymer': False, 'branch_name': ''}]

>  <ligand_codes>  (35) 
['AG7', 'AG7', 'AG7', 'AG7', 'AG7', 'AG7', 'AG7', 'AG7']

>  <cofactor_codes>  (35) 
[]

>  <has_cofactor>  (35) 
False

>  <covalent>  (35) 
True

>  <base_name>  (35) 
3SJO

>  <lig_resn>  (35) 
AG7

>  <lig_resi>  (35) 
501

>  <lig_chain>  (35) 
F

>  <lig_segi>  (35) 
N

>  <lig_alt>  (35) 


>  <polymer_chain>  (35) 
A

>  <single_smiles>  (35) 
CCOC(=O)CC[C@H](C[C@@H]1CCNC1=O)NC(=O)[C@@H](CC(=O)[C@@H](NC(=O)c2cc(C)on2)C(C)C)Cc3ccc(F)cc3

$$$$
AG7ยง6
     RDKit          3D

 44 46  0  0  0  0  0  0  0  0999 V2000
   -5.7970   -1.5210  -81.4710 C   0  0  0  0  0  0  0  0  0  0  0  0
   -7.9690    2.7060  -81.8760 C   0  0  0  0  0  0  0  0  0  0  0  0
   -6.2210   -2.9620  -81.2140 C   0  0  0  0  0  0  0  0  0  0  0  0
   -9.2600    3.5550  -81.9500 C   0  0  0  0  0  0  0  0  0  0  0  0
   -8.9310    4.8920  -81.5030 C   0  0  0  0  0  0  0  0  0  0  0  0
   -5.2030   -0.8980  -80.6050 O   0  0  0  0  0  0  0  0  0  0  0  0
   -5.4310   -3.7660  -80.1880 C   0  0  1  0  0  0  0  0  0  0  0  0
   -9.8960    6.0400  -81.3970 C   0  0  0  0  0  0  0  0  0  0  0  0
   -7.5360    4.9230  -81.1620 O   0  0  0  0  0  0  0  0  0  0  0  0
   -5.7900   -5.2370  -80.0650 C   0  0  0  0  0  0  0  0  0  0  0  0
   -6.9600    3.5110  -81.4100 N   0  0  0  0  0  0  0  0  0  0  0  0
   -7.2510   -5.5210  -79.8590 C   0  0  0  0  0  0  0  0  0  0  0  0
   -7.8590   -5.1710  -78.5620 C   0  0  0  0  0  0  0  0  0  0  0  0
   -9.3100   -5.4240  -78.3460 C   0  0  0  0  0  0  0  0  0  0  0  0
  -10.0700   -5.9810  -79.3800 C   0  0  0  0  0  0  0  0  0  0  0  0
   -9.4430   -6.3320  -80.6970 C   0  0  0  0  0  0  0  0  0  0  0  0
   -8.0140   -6.0850  -80.9110 C   0  0  0  0  0  0  0  0  0  0  0  0
   -3.2000   -3.1980  -79.1030 N   0  0  0  0  0  0  0  0  0  0  0  0
   -1.7400   -3.3570  -79.0610 C   0  0  1  0  0  0  0  0  0  0  0  0
   -1.0110   -2.0160  -78.9740 C   0  0  0  0  0  0  0  0  0  0  0  0
   -1.3920   -0.9930  -80.0510 C   0  0  1  0  0  0  0  0  0  0  0  0
   -1.0640    0.4950  -79.8210 C   0  0  0  0  0  0  0  0  0  0  0  0
   -0.3270    0.9730  -81.0520 N   0  0  0  0  0  0  0  0  0  0  0  0
   -0.6710    0.9270  -78.5840 O   0  0  0  0  0  0  0  0  0  0  0  0
   -1.3150   -4.3980  -78.0410 C   0  0  2  0  0  0  0  0  0  0  0  0
   -1.4930   -5.8420  -78.4860 C   0  0  0  0  0  0  0  0  0  0  0  0
   -0.7000   -6.2480  -79.7270 C   0  0  0  0  0  0  0  0  0  0  0  0
   -1.2570   -6.9090  -80.6960 O   0  0  0  0  0  0  0  0  0  0  0  0
    0.4480   -5.7730  -79.8870 O   0  0  0  0  0  0  0  0  0  0  0  0
   -3.9160   -3.5890  -80.3130 C   0  0  0  0  0  0  0  0  0  0  0  0
   -3.3250   -4.1290  -81.2310 O   0  0  0  0  0  0  0  0  0  0  0  0
   -0.5080   -7.1690  -81.8500 C   0  0  0  0  0  0  0  0  0  0  0  0
   -1.0550   -8.1550  -82.8600 C   0  0  0  0  0  0  0  0  0  0  0  0
   -6.3700   -0.7710  -82.6900 C   0  0  1  0  0  0  0  0  0  0  0  0
   -6.5260    0.6640  -82.4490 N   0  0  0  0  0  0  0  0  0  0  0  0
   -7.8380    1.2400  -82.2280 C   0  0  0  0  0  0  0  0  0  0  0  0
   -8.8410    0.5470  -82.3360 O   0  0  0  0  0  0  0  0  0  0  0  0
   -5.7030   -1.0920  -84.0170 C   0  0  1  0  0  0  0  0  0  0  0  0
   -6.0260   -0.0870  -85.0870 C   0  0  0  0  0  0  0  0  0  0  0  0
   -4.2420   -1.3820  -83.8960 C   0  0  0  0  0  0  0  0  0  0  0  0
   -0.6710    0.0270  -82.1630 C   0  0  0  0  0  0  0  0  0  0  0  0
   -1.0740   -1.3000  -81.4970 C   0  0  0  0  0  0  0  0  0  0  0  0
   -2.1240   -4.0140  -76.4760 R   0  0  0  0  0  0  0  0  0  0  0  0
  -11.3730   -6.2110  -79.2050 F   0  0  0  0  0  0  0  0  0  0  0  0
  1  3  1  0
  1  6  2  0
  1 34  1  0
  2  4  1  0
  2 11  2  0
  2 36  1  0
  7  3  1  6
  4  5  2  0
  5  8  1  0
  5  9  1  0
  7 10  1  0
  7 30  1  0
  9 11  1  0
 10 12  1  0
 12 13  2  0
 12 17  1  0
 13 14  1  0
 14 15  2  0
 15 16  1  0
 15 44  1  0
 16 17  2  0
 18 19  1  0
 18 30  1  0
 19 20  1  1
 19 25  1  0
 21 20  1  1
 21 22  1  0
 21 42  1  0
 22 23  1  0
 22 24  2  0
 23 41  1  0
 25 26  1  0
 25 43  1  1
 26 27  1  0
 27 28  1  0
 27 29  2  0
 28 32  1  0
 30 31  2  0
 32 33  1  0
 34 35  1  1
 34 38  1  0
 35 36  1  0
 36 37  2  0
 38 39  1  6
 38 40  1  0
 41 42  1  0
A    1
 C01
A    2
 C1 
A    3
 C02
A    4
 C2 
A    5
 C3 
A    6
 O03
A    7
 C04
A    8
 C4 
A    9
 O4 
A   10
 C05
A   11
 N5 
A   12
 C06
A   13
 C07
A   14
 C08
A   15
 C09
A   16
 C10
A   17
 C11
A   18
 N12
A   19
 C13
A   20
 C14
A   21
 C15
A   22
 C16
A   23
 N17
A   24
 O18
A   25
 C19
A   26
 C20
A   27
 C21
A   28
 O22
A   29
 O23
A   30
 C47
A   31
 O48
A   32
 C50
A   33
 C53
A   34
 C57
A   35
 N58
A   36
 C59
A   37
 O60
A   38
 C78
A   39
 C81
A   40
 C82
A   41
 C83
A   42
 C84
A   43
 X  
A   44
 F1 
M  END
>  <XChem_code>  (36) 
AG7ยง6

>  <Occupancy>  (36) 
[1.0, 1.0, 1.0, 1.0, 1.0, 1.0, 1.0, 1.0, 1.0, 1.0, 1.0, 1.0, 1.0, 1.0, 1.0, 1.0, 1.0, 1.0, 1.0, 1.0, 1.0, 1.0, 1.0, 1.0, 1.0, 1.0, 1.0, 1.0, 1.0, 1.0, 1.0, 1.0, 1.0, 1.0, 1.0, 1.0, 1.0, 1.0, 1.0, 1.0, 1.0, 1.0, 1.0, 1.0]

>  <TempFactor>  (36) 
[23.5, 30.57, 24.11, 31.77, 32.33, 22.76, 21.85, 39.34, 33.39, 25.02, 32.58, 25.45, 24.9, 24.62, 30.8, 31.51, 30.34, 19.73, 18.63, 17.53, 21.16, 20.88, 23.58, 21.17, 18.29, 19.86, 24.39, 26.73, 23.62, 19.41, 23.45, 32.64, 32.91, 25.19, 29.96, 25.48, 31.04, 29.45, 34.93, 31.44, 21.74, 21.38, 18.99, 32.96]

>  <accession>  (36) 
3SJO_A

>  <description>  (36) 
Chain A, 3C protease [Enterovirus A71]

>  <evalue>  (36) 
1.0179e-70

>  <pdb_code>  (36) 
3SJO

>  <chain>  (36) 
A

>  <ligands>  (36) 
[{'chain_id': 'A', 'author_residue_number': 501, 'author_insertion_code': '', 'chem_comp_id': 'AG7', 'alternate_conformers': 0, 'entity_id': 2, 'struct_asym_id': 'I', 'residue_number': 1, 'chem_comp_name': '4-{2-(4-FLUORO-BENZYL)-6-METHYL-5-[(5-METHYL-ISOXAZOLE-3-CARBONYL)-AMINO]-4-OXO-HEPTANOYLAMINO}-5-(2-OXO-PYRROLIDIN-3-YL)-PENTANOIC ACID ETHYL ESTER', 'weight': 600.678, 'carbohydrate_polymer': False, 'branch_name': ''}, {'chain_id': 'B', 'author_residue_number': 501, 'author_insertion_code': '', 'chem_comp_id': 'AG7', 'alternate_conformers': 0, 'entity_id': 2, 'struct_asym_id': 'J', 'residue_number': 1, 'chem_comp_name': '4-{2-(4-FLUORO-BENZYL)-6-METHYL-5-[(5-METHYL-ISOXAZOLE-3-CARBONYL)-AMINO]-4-OXO-HEPTANOYLAMINO}-5-(2-OXO-PYRROLIDIN-3-YL)-PENTANOIC ACID ETHYL ESTER', 'weight': 600.678, 'carbohydrate_polymer': False, 'branch_name': ''}, {'chain_id': 'C', 'author_residue_number': 501, 'author_insertion_code': '', 'chem_comp_id': 'AG7', 'alternate_conformers': 0, 'entity_id': 2, 'struct_asym_id': 'K', 'residue_number': 1, 'chem_comp_name': '4-{2-(4-FLUORO-BENZYL)-6-METHYL-5-[(5-METHYL-ISOXAZOLE-3-CARBONYL)-AMINO]-4-OXO-HEPTANOYLAMINO}-5-(2-OXO-PYRROLIDIN-3-YL)-PENTANOIC ACID ETHYL ESTER', 'weight': 600.678, 'carbohydrate_polymer': False, 'branch_name': ''}, {'chain_id': 'D', 'author_residue_number': 501, 'author_insertion_code': '', 'chem_comp_id': 'AG7', 'alternate_conformers': 0, 'entity_id': 2, 'struct_asym_id': 'L', 'residue_number': 1, 'chem_comp_name': '4-{2-(4-FLUORO-BENZYL)-6-METHYL-5-[(5-METHYL-ISOXAZOLE-3-CARBONYL)-AMINO]-4-OXO-HEPTANOYLAMINO}-5-(2-OXO-PYRROLIDIN-3-YL)-PENTANOIC ACID ETHYL ESTER', 'weight': 600.678, 'carbohydrate_polymer': False, 'branch_name': ''}, {'chain_id': 'E', 'author_residue_number': 501, 'author_insertion_code': '', 'chem_comp_id': 'AG7', 'alternate_conformers': 0, 'entity_id': 2, 'struct_asym_id': 'M', 'residue_number': 1, 'chem_comp_name': '4-{2-(4-FLUORO-BENZYL)-6-METHYL-5-[(5-METHYL-ISOXAZOLE-3-CARBONYL)-AMINO]-4-OXO-HEPTANOYLAMINO}-5-(2-OXO-PYRROLIDIN-3-YL)-PENTANOIC ACID ETHYL ESTER', 'weight': 600.678, 'carbohydrate_polymer': False, 'branch_name': ''}, {'chain_id': 'F', 'author_residue_number': 501, 'author_insertion_code': '', 'chem_comp_id': 'AG7', 'alternate_conformers': 0, 'entity_id': 2, 'struct_asym_id': 'N', 'residue_number': 1, 'chem_comp_name': '4-{2-(4-FLUORO-BENZYL)-6-METHYL-5-[(5-METHYL-ISOXAZOLE-3-CARBONYL)-AMINO]-4-OXO-HEPTANOYLAMINO}-5-(2-OXO-PYRROLIDIN-3-YL)-PENTANOIC ACID ETHYL ESTER', 'weight': 600.678, 'carbohydrate_polymer': False, 'branch_name': ''}, {'chain_id': 'G', 'author_residue_number': 501, 'author_insertion_code': '', 'chem_comp_id': 'AG7', 'alternate_conformers': 0, 'entity_id': 2, 'struct_asym_id': 'O', 'residue_number': 1, 'chem_comp_name': '4-{2-(4-FLUORO-BENZYL)-6-METHYL-5-[(5-METHYL-ISOXAZOLE-3-CARBONYL)-AMINO]-4-OXO-HEPTANOYLAMINO}-5-(2-OXO-PYRROLIDIN-3-YL)-PENTANOIC ACID ETHYL ESTER', 'weight': 600.678, 'carbohydrate_polymer': False, 'branch_name': ''}, {'chain_id': 'H', 'author_residue_number': 501, 'author_insertion_code': '', 'chem_comp_id': 'AG7', 'alternate_conformers': 0, 'entity_id': 2, 'struct_asym_id': 'P', 'residue_number': 1, 'chem_comp_name': '4-{2-(4-FLUORO-BENZYL)-6-METHYL-5-[(5-METHYL-ISOXAZOLE-3-CARBONYL)-AMINO]-4-OXO-HEPTANOYLAMINO}-5-(2-OXO-PYRROLIDIN-3-YL)-PENTANOIC ACID ETHYL ESTER', 'weight': 600.678, 'carbohydrate_polymer': False, 'branch_name': ''}]

>  <ligand_codes>  (36) 
['AG7', 'AG7', 'AG7', 'AG7', 'AG7', 'AG7', 'AG7', 'AG7']

>  <cofactor_codes>  (36) 
[]

>  <has_cofactor>  (36) 
False

>  <covalent>  (36) 
True

>  <base_name>  (36) 
3SJO

>  <lig_resn>  (36) 
AG7

>  <lig_resi>  (36) 
501

>  <lig_chain>  (36) 
E

>  <lig_segi>  (36) 
M

>  <lig_alt>  (36) 


>  <polymer_chain>  (36) 
A

>  <single_smiles>  (36) 
CCOC(=O)CC[C@H](C[C@@H]1CCNC1=O)NC(=O)[C@@H](CC(=O)[C@@H](NC(=O)c2cc(C)on2)C(C)C)Cc3ccc(F)cc3

$$$$
AG7ยง7
     RDKit          3D

 44 46  0  0  0  0  0  0  0  0999 V2000
   16.0140  -34.7750  -44.8940 C   0  0  0  0  0  0  0  0  0  0  0  0
   11.5470  -33.9640  -46.5090 C   0  0  0  0  0  0  0  0  0  0  0  0
   16.7820  -34.7190  -43.5750 C   0  0  0  0  0  0  0  0  0  0  0  0
   10.1060  -33.4610  -46.2410 C   0  0  0  0  0  0  0  0  0  0  0  0
    9.5840  -32.9500  -47.4930 C   0  0  0  0  0  0  0  0  0  0  0  0
   16.2990  -34.0240  -45.8050 O   0  0  0  0  0  0  0  0  0  0  0  0
   18.1310  -34.0230  -43.5930 C   0  0  1  0  0  0  0  0  0  0  0  0
    8.2190  -32.3590  -47.7140 C   0  0  0  0  0  0  0  0  0  0  0  0
   10.6020  -33.0950  -48.4920 O   0  0  0  0  0  0  0  0  0  0  0  0
   18.9250  -34.1730  -42.3030 C   0  0  0  0  0  0  0  0  0  0  0  0
   11.8300  -33.7330  -47.8300 N   0  0  0  0  0  0  0  0  0  0  0  0
   18.1600  -33.8480  -41.0510 C   0  0  0  0  0  0  0  0  0  0  0  0
   17.8700  -32.4330  -40.7390 C   0  0  0  0  0  0  0  0  0  0  0  0
   17.1050  -32.0980  -39.5170 C   0  0  0  0  0  0  0  0  0  0  0  0
   16.6610  -33.1190  -38.6750 C   0  0  0  0  0  0  0  0  0  0  0  0
   16.9550  -34.5570  -38.9920 C   0  0  0  0  0  0  0  0  0  0  0  0
   17.7090  -34.8910  -40.2060 C   0  0  0  0  0  0  0  0  0  0  0  0
   19.5230  -33.2730  -45.6070 N   0  0  0  0  0  0  0  0  0  0  0  0
   20.5880  -33.5060  -46.5890 C   0  0  1  0  0  0  0  0  0  0  0  0
   20.1440  -33.1710  -48.0060 C   0  0  0  0  0  0  0  0  0  0  0  0
   18.9250  -33.9940  -48.4370 C   0  0  1  0  0  0  0  0  0  0  0  0
   18.1160  -33.5650  -49.6740 C   0  0  0  0  0  0  0  0  0  0  0  0
   17.8180  -34.8170  -50.4760 N   0  0  0  0  0  0  0  0  0  0  0  0
   18.4130  -32.3990  -50.3220 O   0  0  0  0  0  0  0  0  0  0  0  0
   21.8930  -32.8630  -46.1790 C   0  0  2  0  0  0  0  0  0  0  0  0
   22.5730  -33.5850  -45.0270 C   0  0  0  0  0  0  0  0  0  0  0  0
   22.9210  -35.0310  -45.3470 C   0  0  0  0  0  0  0  0  0  0  0  0
   22.6620  -35.9680  -44.4980 O   0  0  0  0  0  0  0  0  0  0  0  0
   23.3700  -35.3150  -46.4840 O   0  0  0  0  0  0  0  0  0  0  0  0
   18.9720  -34.3700  -44.8210 C   0  0  0  0  0  0  0  0  0  0  0  0
   19.1590  -35.5320  -45.1400 O   0  0  0  0  0  0  0  0  0  0  0  0
   23.0020  -37.2900  -44.8090 C   0  0  0  0  0  0  0  0  0  0  0  0
   22.2000  -38.3790  -44.1280 C   0  0  0  0  0  0  0  0  0  0  0  0
   14.7430  -35.6350  -44.9970 C   0  0  1  0  0  0  0  0  0  0  0  0
   13.7800  -35.0920  -45.9450 N   0  0  0  0  0  0  0  0  0  0  0  0
   12.5000  -34.5860  -45.5050 C   0  0  0  0  0  0  0  0  0  0  0  0
   12.1320  -34.7710  -44.3550 O   0  0  0  0  0  0  0  0  0  0  0  0
   14.9810  -37.1190  -45.2020 C   0  0  1  0  0  0  0  0  0  0  0  0
   13.7140  -37.9070  -45.0400 C   0  0  0  0  0  0  0  0  0  0  0  0
   15.6990  -37.4370  -46.4760 C   0  0  0  0  0  0  0  0  0  0  0  0
   18.0270  -35.9630  -49.5250 C   0  0  0  0  0  0  0  0  0  0  0  0
   19.0570  -35.4990  -48.4910 C   0  0  0  0  0  0  0  0  0  0  0  0
   21.4550  -31.1530  -45.8090 R   0  0  0  0  0  0  0  0  0  0  0  0
   15.9870  -32.7970  -37.5720 F   0  0  0  0  0  0  0  0  0  0  0  0
  1  3  1  0
  1  6  2  0
  1 34  1  0
  2  4  1  0
  2 11  2  0
  2 36  1  0
  7  3  1  1
  4  5  2  0
  5  8  1  0
  5  9  1  0
  7 10  1  0
  7 30  1  0
  9 11  1  0
 10 12  1  0
 12 13  2  0
 12 17  1  0
 13 14  1  0
 14 15  2  0
 15 16  1  0
 15 44  1  0
 16 17  2  0
 18 19  1  0
 18 30  1  0
 19 20  1  6
 19 25  1  0
 21 20  1  6
 21 22  1  0
 21 42  1  0
 22 23  1  0
 22 24  2  0
 23 41  1  0
 25 26  1  0
 25 43  1  1
 26 27  1  0
 27 28  1  0
 27 29  2  0
 28 32  1  0
 30 31  2  0
 32 33  1  0
 34 35  1  6
 34 38  1  0
 35 36  1  0
 36 37  2  0
 38 39  1  6
 38 40  1  0
 41 42  1  0
A    1
 C01
A    2
 C1 
A    3
 C02
A    4
 C2 
A    5
 C3 
A    6
 O03
A    7
 C04
A    8
 C4 
A    9
 O4 
A   10
 C05
A   11
 N5 
A   12
 C06
A   13
 C07
A   14
 C08
A   15
 C09
A   16
 C10
A   17
 C11
A   18
 N12
A   19
 C13
A   20
 C14
A   21
 C15
A   22
 C16
A   23
 N17
A   24
 O18
A   25
 C19
A   26
 C20
A   27
 C21
A   28
 O22
A   29
 O23
A   30
 C47
A   31
 O48
A   32
 C50
A   33
 C53
A   34
 C57
A   35
 N58
A   36
 C59
A   37
 O60
A   38
 C78
A   39
 C81
A   40
 C82
A   41
 C83
A   42
 C84
A   43
 X  
A   44
 F1 
M  END
>  <XChem_code>  (37) 
AG7ยง7

>  <Occupancy>  (37) 
[1.0, 1.0, 1.0, 1.0, 1.0, 1.0, 1.0, 1.0, 1.0, 1.0, 1.0, 1.0, 1.0, 1.0, 1.0, 1.0, 1.0, 1.0, 1.0, 1.0, 1.0, 1.0, 1.0, 1.0, 1.0, 1.0, 1.0, 1.0, 1.0, 1.0, 1.0, 1.0, 1.0, 1.0, 1.0, 1.0, 1.0, 1.0, 1.0, 1.0, 1.0, 1.0, 1.0, 1.0]

>  <TempFactor>  (37) 
[17.23, 22.41, 16.68, 22.15, 24.82, 17.22, 16.04, 30.23, 26.2, 13.98, 23.21, 18.52, 20.24, 18.55, 20.26, 21.62, 20.24, 14.7, 13.81, 12.54, 13.89, 16.51, 15.34, 13.81, 14.22, 15.25, 16.23, 20.08, 18.09, 15.15, 17.91, 22.24, 24.64, 19.25, 16.45, 16.57, 21.48, 20.62, 24.17, 16.48, 17.21, 18.14, 14.38, 24.54]

>  <accession>  (37) 
3SJO_A

>  <description>  (37) 
Chain A, 3C protease [Enterovirus A71]

>  <evalue>  (37) 
1.0179e-70

>  <pdb_code>  (37) 
3SJO

>  <chain>  (37) 
A

>  <ligands>  (37) 
[{'chain_id': 'A', 'author_residue_number': 501, 'author_insertion_code': '', 'chem_comp_id': 'AG7', 'alternate_conformers': 0, 'entity_id': 2, 'struct_asym_id': 'I', 'residue_number': 1, 'chem_comp_name': '4-{2-(4-FLUORO-BENZYL)-6-METHYL-5-[(5-METHYL-ISOXAZOLE-3-CARBONYL)-AMINO]-4-OXO-HEPTANOYLAMINO}-5-(2-OXO-PYRROLIDIN-3-YL)-PENTANOIC ACID ETHYL ESTER', 'weight': 600.678, 'carbohydrate_polymer': False, 'branch_name': ''}, {'chain_id': 'B', 'author_residue_number': 501, 'author_insertion_code': '', 'chem_comp_id': 'AG7', 'alternate_conformers': 0, 'entity_id': 2, 'struct_asym_id': 'J', 'residue_number': 1, 'chem_comp_name': '4-{2-(4-FLUORO-BENZYL)-6-METHYL-5-[(5-METHYL-ISOXAZOLE-3-CARBONYL)-AMINO]-4-OXO-HEPTANOYLAMINO}-5-(2-OXO-PYRROLIDIN-3-YL)-PENTANOIC ACID ETHYL ESTER', 'weight': 600.678, 'carbohydrate_polymer': False, 'branch_name': ''}, {'chain_id': 'C', 'author_residue_number': 501, 'author_insertion_code': '', 'chem_comp_id': 'AG7', 'alternate_conformers': 0, 'entity_id': 2, 'struct_asym_id': 'K', 'residue_number': 1, 'chem_comp_name': '4-{2-(4-FLUORO-BENZYL)-6-METHYL-5-[(5-METHYL-ISOXAZOLE-3-CARBONYL)-AMINO]-4-OXO-HEPTANOYLAMINO}-5-(2-OXO-PYRROLIDIN-3-YL)-PENTANOIC ACID ETHYL ESTER', 'weight': 600.678, 'carbohydrate_polymer': False, 'branch_name': ''}, {'chain_id': 'D', 'author_residue_number': 501, 'author_insertion_code': '', 'chem_comp_id': 'AG7', 'alternate_conformers': 0, 'entity_id': 2, 'struct_asym_id': 'L', 'residue_number': 1, 'chem_comp_name': '4-{2-(4-FLUORO-BENZYL)-6-METHYL-5-[(5-METHYL-ISOXAZOLE-3-CARBONYL)-AMINO]-4-OXO-HEPTANOYLAMINO}-5-(2-OXO-PYRROLIDIN-3-YL)-PENTANOIC ACID ETHYL ESTER', 'weight': 600.678, 'carbohydrate_polymer': False, 'branch_name': ''}, {'chain_id': 'E', 'author_residue_number': 501, 'author_insertion_code': '', 'chem_comp_id': 'AG7', 'alternate_conformers': 0, 'entity_id': 2, 'struct_asym_id': 'M', 'residue_number': 1, 'chem_comp_name': '4-{2-(4-FLUORO-BENZYL)-6-METHYL-5-[(5-METHYL-ISOXAZOLE-3-CARBONYL)-AMINO]-4-OXO-HEPTANOYLAMINO}-5-(2-OXO-PYRROLIDIN-3-YL)-PENTANOIC ACID ETHYL ESTER', 'weight': 600.678, 'carbohydrate_polymer': False, 'branch_name': ''}, {'chain_id': 'F', 'author_residue_number': 501, 'author_insertion_code': '', 'chem_comp_id': 'AG7', 'alternate_conformers': 0, 'entity_id': 2, 'struct_asym_id': 'N', 'residue_number': 1, 'chem_comp_name': '4-{2-(4-FLUORO-BENZYL)-6-METHYL-5-[(5-METHYL-ISOXAZOLE-3-CARBONYL)-AMINO]-4-OXO-HEPTANOYLAMINO}-5-(2-OXO-PYRROLIDIN-3-YL)-PENTANOIC ACID ETHYL ESTER', 'weight': 600.678, 'carbohydrate_polymer': False, 'branch_name': ''}, {'chain_id': 'G', 'author_residue_number': 501, 'author_insertion_code': '', 'chem_comp_id': 'AG7', 'alternate_conformers': 0, 'entity_id': 2, 'struct_asym_id': 'O', 'residue_number': 1, 'chem_comp_name': '4-{2-(4-FLUORO-BENZYL)-6-METHYL-5-[(5-METHYL-ISOXAZOLE-3-CARBONYL)-AMINO]-4-OXO-HEPTANOYLAMINO}-5-(2-OXO-PYRROLIDIN-3-YL)-PENTANOIC ACID ETHYL ESTER', 'weight': 600.678, 'carbohydrate_polymer': False, 'branch_name': ''}, {'chain_id': 'H', 'author_residue_number': 501, 'author_insertion_code': '', 'chem_comp_id': 'AG7', 'alternate_conformers': 0, 'entity_id': 2, 'struct_asym_id': 'P', 'residue_number': 1, 'chem_comp_name': '4-{2-(4-FLUORO-BENZYL)-6-METHYL-5-[(5-METHYL-ISOXAZOLE-3-CARBONYL)-AMINO]-4-OXO-HEPTANOYLAMINO}-5-(2-OXO-PYRROLIDIN-3-YL)-PENTANOIC ACID ETHYL ESTER', 'weight': 600.678, 'carbohydrate_polymer': False, 'branch_name': ''}]

>  <ligand_codes>  (37) 
['AG7', 'AG7', 'AG7', 'AG7', 'AG7', 'AG7', 'AG7', 'AG7']

>  <cofactor_codes>  (37) 
[]

>  <has_cofactor>  (37) 
False

>  <covalent>  (37) 
True

>  <base_name>  (37) 
3SJO

>  <lig_resn>  (37) 
AG7

>  <lig_resi>  (37) 
501

>  <lig_chain>  (37) 
D

>  <lig_segi>  (37) 
L

>  <lig_alt>  (37) 


>  <polymer_chain>  (37) 
A

>  <single_smiles>  (37) 
CCOC(=O)CC[C@H](C[C@@H]1CCNC1=O)NC(=O)[C@@H](CC(=O)[C@@H](NC(=O)c2cc(C)on2)C(C)C)Cc3ccc(F)cc3

$$$$
AG7ยง8
     RDKit          3D

 44 46  0  0  0  0  0  0  0  0999 V2000
   -8.7340   14.8750  -33.6330 C   0  0  0  0  0  0  0  0  0  0  0  0
  -10.1690   17.8670  -30.1510 C   0  0  0  0  0  0  0  0  0  0  0  0
   -9.1250   14.5600  -35.0710 C   0  0  0  0  0  0  0  0  0  0  0  0
  -11.1420   18.9430  -29.6030 C   0  0  0  0  0  0  0  0  0  0  0  0
  -11.1970   18.7860  -28.1620 C   0  0  0  0  0  0  0  0  0  0  0  0
   -8.9120   14.0500  -32.7640 O   0  0  0  0  0  0  0  0  0  0  0  0
   -9.2650   13.0870  -35.4210 C   0  0  1  0  0  0  0  0  0  0  0  0
  -12.0110   19.6150  -27.2080 C   0  0  0  0  0  0  0  0  0  0  0  0
  -10.3350   17.7020  -27.7930 O   0  0  0  0  0  0  0  0  0  0  0  0
   -9.4060   12.8260  -36.9090 C   0  0  0  0  0  0  0  0  0  0  0  0
   -9.7110   17.1440  -29.0800 N   0  0  0  0  0  0  0  0  0  0  0  0
  -10.4680   13.6500  -37.5900 C   0  0  0  0  0  0  0  0  0  0  0  0
  -11.8920   13.3740  -37.3060 C   0  0  0  0  0  0  0  0  0  0  0  0
  -12.9410   14.1870  -37.9670 C   0  0  0  0  0  0  0  0  0  0  0  0
  -12.5760   15.2200  -38.8370 C   0  0  0  0  0  0  0  0  0  0  0  0
  -11.1310   15.5040  -39.1190 C   0  0  0  0  0  0  0  0  0  0  0  0
  -10.0960   14.6950  -38.4660 C   0  0  0  0  0  0  0  0  0  0  0  0
   -8.6690   10.9670  -34.0900 N   0  0  0  0  0  0  0  0  0  0  0  0
   -7.6950    9.9410  -33.7020 C   0  0  1  0  0  0  0  0  0  0  0  0
   -7.5680    9.8350  -32.1900 C   0  0  0  0  0  0  0  0  0  0  0  0
   -7.0030   11.1120  -31.5690 C   0  0  1  0  0  0  0  0  0  0  0  0
   -7.1160   11.2790  -30.0480 C   0  0  0  0  0  0  0  0  0  0  0  0
   -5.8140   11.8640  -29.5400 N   0  0  0  0  0  0  0  0  0  0  0  0
   -7.7570   10.3380  -29.3000 O   0  0  0  0  0  0  0  0  0  0  0  0
   -7.9440    8.6270  -34.4090 C   0  0  2  0  0  0  0  0  0  0  0  0
   -7.6890    8.6920  -35.9030 C   0  0  0  0  0  0  0  0  0  0  0  0
   -6.2280    8.9610  -36.2420 C   0  0  0  0  0  0  0  0  0  0  0  0
   -5.9130    9.9450  -37.0170 O   0  0  0  0  0  0  0  0  0  0  0  0
   -5.3400    8.4630  -35.5080 O   0  0  0  0  0  0  0  0  0  0  0  0
   -8.2190   12.1920  -34.7470 C   0  0  0  0  0  0  0  0  0  0  0  0
   -7.0310   12.4100  -34.8930 O   0  0  0  0  0  0  0  0  0  0  0  0
   -4.5540   10.2290  -37.2100 C   0  0  0  0  0  0  0  0  0  0  0  0
   -4.2040   11.6040  -37.7340 C   0  0  0  0  0  0  0  0  0  0  0  0
   -8.3660   16.3160  -33.2440 C   0  0  1  0  0  0  0  0  0  0  0  0
   -8.7350   16.6450  -31.8730 N   0  0  0  0  0  0  0  0  0  0  0  0
   -9.7620   17.6260  -31.5940 C   0  0  0  0  0  0  0  0  0  0  0  0
  -10.2070   18.3220  -32.4960 O   0  0  0  0  0  0  0  0  0  0  0  0
   -6.9450   16.7440  -33.5590 C   0  0  1  0  0  0  0  0  0  0  0  0
   -6.7430   18.1960  -33.2420 C   0  0  0  0  0  0  0  0  0  0  0  0
   -5.9160   15.8690  -32.9170 C   0  0  0  0  0  0  0  0  0  0  0  0
   -5.1080   12.3840  -30.7640 C   0  0  0  0  0  0  0  0  0  0  0  0
   -5.6150   11.5640  -31.9570 C   0  0  0  0  0  0  0  0  0  0  0  0
   -9.6990    8.3690  -34.0940 R   0  0  0  0  0  0  0  0  0  0  0  0
  -13.5230   15.9340  -39.4430 F   0  0  0  0  0  0  0  0  0  0  0  0
  1  3  1  0
  1  6  2  0
  1 34  1  0
  2  4  1  0
  2 11  2  0
  2 36  1  0
  7  3  1  6
  4  5  2  0
  5  8  1  0
  5  9  1  0
  7 10  1  0
  7 30  1  0
  9 11  1  0
 10 12  1  0
 12 13  2  0
 12 17  1  0
 13 14  1  0
 14 15  2  0
 15 16  1  0
 15 44  1  0
 16 17  2  0
 18 19  1  0
 18 30  1  0
 19 20  1  1
 19 25  1  0
 21 20  1  1
 21 22  1  0
 21 42  1  0
 22 23  1  0
 22 24  2  0
 23 41  1  0
 25 26  1  0
 25 43  1  6
 26 27  1  0
 27 28  1  0
 27 29  2  0
 28 32  1  0
 30 31  2  0
 32 33  1  0
 34 35  1  1
 34 38  1  0
 35 36  1  0
 36 37  2  0
 38 39  1  1
 38 40  1  0
 41 42  1  0
A    1
 C01
A    2
 C1 
A    3
 C02
A    4
 C2 
A    5
 C3 
A    6
 O03
A    7
 C04
A    8
 C4 
A    9
 O4 
A   10
 C05
A   11
 N5 
A   12
 C06
A   13
 C07
A   14
 C08
A   15
 C09
A   16
 C10
A   17
 C11
A   18
 N12
A   19
 C13
A   20
 C14
A   21
 C15
A   22
 C16
A   23
 N17
A   24
 O18
A   25
 C19
A   26
 C20
A   27
 C21
A   28
 O22
A   29
 O23
A   30
 C47
A   31
 O48
A   32
 C50
A   33
 C53
A   34
 C57
A   35
 N58
A   36
 C59
A   37
 O60
A   38
 C78
A   39
 C81
A   40
 C82
A   41
 C83
A   42
 C84
A   43
 X  
A   44
 F1 
M  END
>  <XChem_code>  (38) 
AG7ยง8

>  <Occupancy>  (38) 
[1.0, 1.0, 1.0, 1.0, 1.0, 1.0, 1.0, 1.0, 1.0, 1.0, 1.0, 1.0, 1.0, 1.0, 1.0, 1.0, 1.0, 1.0, 1.0, 1.0, 1.0, 1.0, 1.0, 1.0, 1.0, 1.0, 1.0, 1.0, 1.0, 1.0, 1.0, 1.0, 1.0, 1.0, 1.0, 1.0, 1.0, 1.0, 1.0, 1.0, 1.0, 1.0, 1.0, 1.0]

>  <TempFactor>  (38) 
[18.81, 27.66, 18.42, 28.47, 31.3, 19.86, 18.0, 36.49, 33.82, 16.63, 29.4, 22.13, 22.68, 21.54, 23.87, 26.44, 24.22, 19.0, 15.21, 18.33, 16.27, 19.18, 19.0, 17.13, 14.73, 16.04, 18.83, 23.76, 19.63, 17.66, 18.54, 25.52, 26.09, 23.51, 21.61, 23.49, 26.81, 22.53, 27.37, 21.38, 21.53, 22.61, 16.29, 28.88]

>  <accession>  (38) 
3SJO_A

>  <description>  (38) 
Chain A, 3C protease [Enterovirus A71]

>  <evalue>  (38) 
1.0179e-70

>  <pdb_code>  (38) 
3SJO

>  <chain>  (38) 
A

>  <ligands>  (38) 
[{'chain_id': 'A', 'author_residue_number': 501, 'author_insertion_code': '', 'chem_comp_id': 'AG7', 'alternate_conformers': 0, 'entity_id': 2, 'struct_asym_id': 'I', 'residue_number': 1, 'chem_comp_name': '4-{2-(4-FLUORO-BENZYL)-6-METHYL-5-[(5-METHYL-ISOXAZOLE-3-CARBONYL)-AMINO]-4-OXO-HEPTANOYLAMINO}-5-(2-OXO-PYRROLIDIN-3-YL)-PENTANOIC ACID ETHYL ESTER', 'weight': 600.678, 'carbohydrate_polymer': False, 'branch_name': ''}, {'chain_id': 'B', 'author_residue_number': 501, 'author_insertion_code': '', 'chem_comp_id': 'AG7', 'alternate_conformers': 0, 'entity_id': 2, 'struct_asym_id': 'J', 'residue_number': 1, 'chem_comp_name': '4-{2-(4-FLUORO-BENZYL)-6-METHYL-5-[(5-METHYL-ISOXAZOLE-3-CARBONYL)-AMINO]-4-OXO-HEPTANOYLAMINO}-5-(2-OXO-PYRROLIDIN-3-YL)-PENTANOIC ACID ETHYL ESTER', 'weight': 600.678, 'carbohydrate_polymer': False, 'branch_name': ''}, {'chain_id': 'C', 'author_residue_number': 501, 'author_insertion_code': '', 'chem_comp_id': 'AG7', 'alternate_conformers': 0, 'entity_id': 2, 'struct_asym_id': 'K', 'residue_number': 1, 'chem_comp_name': '4-{2-(4-FLUORO-BENZYL)-6-METHYL-5-[(5-METHYL-ISOXAZOLE-3-CARBONYL)-AMINO]-4-OXO-HEPTANOYLAMINO}-5-(2-OXO-PYRROLIDIN-3-YL)-PENTANOIC ACID ETHYL ESTER', 'weight': 600.678, 'carbohydrate_polymer': False, 'branch_name': ''}, {'chain_id': 'D', 'author_residue_number': 501, 'author_insertion_code': '', 'chem_comp_id': 'AG7', 'alternate_conformers': 0, 'entity_id': 2, 'struct_asym_id': 'L', 'residue_number': 1, 'chem_comp_name': '4-{2-(4-FLUORO-BENZYL)-6-METHYL-5-[(5-METHYL-ISOXAZOLE-3-CARBONYL)-AMINO]-4-OXO-HEPTANOYLAMINO}-5-(2-OXO-PYRROLIDIN-3-YL)-PENTANOIC ACID ETHYL ESTER', 'weight': 600.678, 'carbohydrate_polymer': False, 'branch_name': ''}, {'chain_id': 'E', 'author_residue_number': 501, 'author_insertion_code': '', 'chem_comp_id': 'AG7', 'alternate_conformers': 0, 'entity_id': 2, 'struct_asym_id': 'M', 'residue_number': 1, 'chem_comp_name': '4-{2-(4-FLUORO-BENZYL)-6-METHYL-5-[(5-METHYL-ISOXAZOLE-3-CARBONYL)-AMINO]-4-OXO-HEPTANOYLAMINO}-5-(2-OXO-PYRROLIDIN-3-YL)-PENTANOIC ACID ETHYL ESTER', 'weight': 600.678, 'carbohydrate_polymer': False, 'branch_name': ''}, {'chain_id': 'F', 'author_residue_number': 501, 'author_insertion_code': '', 'chem_comp_id': 'AG7', 'alternate_conformers': 0, 'entity_id': 2, 'struct_asym_id': 'N', 'residue_number': 1, 'chem_comp_name': '4-{2-(4-FLUORO-BENZYL)-6-METHYL-5-[(5-METHYL-ISOXAZOLE-3-CARBONYL)-AMINO]-4-OXO-HEPTANOYLAMINO}-5-(2-OXO-PYRROLIDIN-3-YL)-PENTANOIC ACID ETHYL ESTER', 'weight': 600.678, 'carbohydrate_polymer': False, 'branch_name': ''}, {'chain_id': 'G', 'author_residue_number': 501, 'author_insertion_code': '', 'chem_comp_id': 'AG7', 'alternate_conformers': 0, 'entity_id': 2, 'struct_asym_id': 'O', 'residue_number': 1, 'chem_comp_name': '4-{2-(4-FLUORO-BENZYL)-6-METHYL-5-[(5-METHYL-ISOXAZOLE-3-CARBONYL)-AMINO]-4-OXO-HEPTANOYLAMINO}-5-(2-OXO-PYRROLIDIN-3-YL)-PENTANOIC ACID ETHYL ESTER', 'weight': 600.678, 'carbohydrate_polymer': False, 'branch_name': ''}, {'chain_id': 'H', 'author_residue_number': 501, 'author_insertion_code': '', 'chem_comp_id': 'AG7', 'alternate_conformers': 0, 'entity_id': 2, 'struct_asym_id': 'P', 'residue_number': 1, 'chem_comp_name': '4-{2-(4-FLUORO-BENZYL)-6-METHYL-5-[(5-METHYL-ISOXAZOLE-3-CARBONYL)-AMINO]-4-OXO-HEPTANOYLAMINO}-5-(2-OXO-PYRROLIDIN-3-YL)-PENTANOIC ACID ETHYL ESTER', 'weight': 600.678, 'carbohydrate_polymer': False, 'branch_name': ''}]

>  <ligand_codes>  (38) 
['AG7', 'AG7', 'AG7', 'AG7', 'AG7', 'AG7', 'AG7', 'AG7']

>  <cofactor_codes>  (38) 
[]

>  <has_cofactor>  (38) 
False

>  <covalent>  (38) 
True

>  <base_name>  (38) 
3SJO

>  <lig_resn>  (38) 
AG7

>  <lig_resi>  (38) 
501

>  <lig_chain>  (38) 
A

>  <lig_segi>  (38) 
I

>  <lig_alt>  (38) 


>  <polymer_chain>  (38) 
A

>  <single_smiles>  (38) 
CCOC(=O)CC[C@H](C[C@@H]1CCNC1=O)NC(=O)[C@@H](CC(=O)[C@@H](NC(=O)c2cc(C)on2)C(C)C)Cc3ccc(F)cc3

$$$$
AG7ยง9
     RDKit          3D

 44 46  0  0  0  0  0  0  0  0999 V2000
   43.1760  -30.1450  -64.7890 C   0  0  0  0  0  0  0  0  0  0  0  0
   39.2900  -30.9280  -62.0740 C   0  0  0  0  0  0  0  0  0  0  0  0
   43.9880  -28.9650  -65.3130 C   0  0  0  0  0  0  0  0  0  0  0  0
   38.1330  -30.3630  -61.2070 C   0  0  0  0  0  0  0  0  0  0  0  0
   37.0260  -31.2940  -61.2930 C   0  0  0  0  0  0  0  0  0  0  0  0
   42.6610  -30.9090  -65.5870 O   0  0  0  0  0  0  0  0  0  0  0  0
   44.3610  -29.0340  -66.7850 C   0  0  1  0  0  0  0  0  0  0  0  0
   35.6910  -31.1460  -60.6100 C   0  0  0  0  0  0  0  0  0  0  0  0
   37.4210  -32.3740  -62.1440 O   0  0  0  0  0  0  0  0  0  0  0  0
   45.2500  -27.9050  -67.2870 C   0  0  0  0  0  0  0  0  0  0  0  0
   38.8590  -32.1130  -62.6270 N   0  0  0  0  0  0  0  0  0  0  0  0
   44.8490  -26.5160  -66.8610 C   0  0  0  0  0  0  0  0  0  0  0  0
   43.7100  -25.8630  -67.5400 C   0  0  0  0  0  0  0  0  0  0  0  0
   43.3050  -24.4910  -67.1310 C   0  0  0  0  0  0  0  0  0  0  0  0
   44.0070  -23.8450  -66.1110 C   0  0  0  0  0  0  0  0  0  0  0  0
   45.1600  -24.5170  -65.4220 C   0  0  0  0  0  0  0  0  0  0  0  0
   45.5610  -25.8710  -65.8250 C   0  0  0  0  0  0  0  0  0  0  0  0
   44.3190  -30.9590  -68.4790 N   0  0  0  0  0  0  0  0  0  0  0  0
   44.9530  -32.0960  -69.1810 C   0  0  1  0  0  0  0  0  0  0  0  0
   44.1160  -33.3770  -69.1760 C   0  0  0  0  0  0  0  0  0  0  0  0
   43.7740  -33.9320  -67.7890 C   0  0  1  0  0  0  0  0  0  0  0  0
   42.9300  -35.2170  -67.7080 C   0  0  0  0  0  0  0  0  0  0  0  0
   43.0430  -35.7040  -66.2800 N   0  0  0  0  0  0  0  0  0  0  0  0
   41.7620  -35.3140  -68.4190 O   0  0  0  0  0  0  0  0  0  0  0  0
   45.4660  -31.7110  -70.5560 C   0  0  2  0  0  0  0  0  0  0  0  0
   46.7000  -30.8200  -70.5600 C   0  0  0  0  0  0  0  0  0  0  0  0
   47.9780  -31.4420  -70.0000 C   0  0  0  0  0  0  0  0  0  0  0  0
   48.7830  -30.7420  -69.2540 O   0  0  0  0  0  0  0  0  0  0  0  0
   48.2230  -32.6550  -70.2280 O   0  0  0  0  0  0  0  0  0  0  0  0
   44.8850  -30.4030  -67.2450 C   0  0  0  0  0  0  0  0  0  0  0  0
   45.9400  -30.8100  -66.7880 O   0  0  0  0  0  0  0  0  0  0  0  0
   49.9130  -31.3480  -68.6900 C   0  0  0  0  0  0  0  0  0  0  0  0
   50.8830  -30.4670  -67.9390 C   0  0  0  0  0  0  0  0  0  0  0  0
   42.9610  -30.3160  -63.2770 C   0  0  1  0  0  0  0  0  0  0  0  0
   41.7050  -30.9920  -62.9560 N   0  0  0  0  0  0  0  0  0  0  0  0
   40.6390  -30.2700  -62.2960 C   0  0  0  0  0  0  0  0  0  0  0  0
   40.8490  -29.1440  -61.8640 O   0  0  0  0  0  0  0  0  0  0  0  0
   44.1840  -30.8390  -62.5350 C   0  0  1  0  0  0  0  0  0  0  0  0
   44.0610  -30.8360  -61.0360 C   0  0  0  0  0  0  0  0  0  0  0  0
   44.7360  -32.1170  -63.0920 C   0  0  0  0  0  0  0  0  0  0  0  0
   44.3830  -35.2150  -65.7930 C   0  0  0  0  0  0  0  0  0  0  0  0
   44.8590  -34.1070  -66.7580 C   0  0  0  0  0  0  0  0  0  0  0  0
   44.0500  -30.9560  -71.3680 R   0  0  0  0  0  0  0  0  0  0  0  0
   43.6460  -22.6240  -65.7300 F   0  0  0  0  0  0  0  0  0  0  0  0
  1  3  1  0
  1  6  2  0
  1 34  1  0
  2  4  1  0
  2 11  2  0
  2 36  1  0
  7  3  1  1
  4  5  2  0
  5  8  1  0
  5  9  1  0
  7 10  1  0
  7 30  1  0
  9 11  1  0
 10 12  1  0
 12 13  2  0
 12 17  1  0
 13 14  1  0
 14 15  2  0
 15 16  1  0
 15 44  1  0
 16 17  2  0
 18 19  1  0
 18 30  1  0
 19 20  1  6
 19 25  1  0
 21 20  1  6
 21 22  1  0
 21 42  1  0
 22 23  1  0
 22 24  2  0
 23 41  1  0
 25 26  1  0
 25 43  1  1
 26 27  1  0
 27 28  1  0
 27 29  2  0
 28 32  1  0
 30 31  2  0
 32 33  1  0
 34 35  1  6
 34 38  1  0
 35 36  1  0
 36 37  2  0
 38 39  1  1
 38 40  1  0
 41 42  1  0
A    1
 C01
A    2
 C1 
A    3
 C02
A    4
 C2 
A    5
 C3 
A    6
 O03
A    7
 C04
A    8
 C4 
A    9
 O4 
A   10
 C05
A   11
 N5 
A   12
 C06
A   13
 C07
A   14
 C08
A   15
 C09
A   16
 C10
A   17
 C11
A   18
 N12
A   19
 C13
A   20
 C14
A   21
 C15
A   22
 C16
A   23
 N17
A   24
 O18
A   25
 C19
A   26
 C20
A   27
 C21
A   28
 O22
A   29
 O23
A   30
 C47
A   31
 O48
A   32
 C50
A   33
 C53
A   34
 C57
A   35
 N58
A   36
 C59
A   37
 O60
A   38
 C78
A   39
 C81
A   40
 C82
A   41
 C83
A   42
 C84
A   43
 X  
A   44
 F1 
M  END
>  <XChem_code>  (39) 
AG7ยง9

>  <Occupancy>  (39) 
[1.0, 1.0, 1.0, 1.0, 1.0, 1.0, 1.0, 1.0, 1.0, 1.0, 1.0, 1.0, 1.0, 1.0, 1.0, 1.0, 1.0, 1.0, 1.0, 1.0, 1.0, 1.0, 1.0, 1.0, 1.0, 1.0, 1.0, 1.0, 1.0, 1.0, 1.0, 1.0, 1.0, 1.0, 1.0, 1.0, 1.0, 1.0, 1.0, 1.0, 1.0, 1.0, 1.0, 1.0]

>  <TempFactor>  (39) 
[27.03, 31.75, 30.14, 28.46, 32.29, 24.46, 27.64, 36.66, 33.2, 27.75, 34.05, 28.74, 28.09, 32.35, 35.27, 37.73, 28.83, 24.65, 24.03, 24.78, 26.14, 20.42, 24.87, 21.3, 21.5, 26.6, 30.74, 29.36, 27.92, 25.06, 26.14, 32.74, 34.03, 26.91, 25.18, 29.7, 27.32, 29.62, 27.05, 27.48, 22.74, 24.39, 28.28, 33.39]

>  <accession>  (39) 
3SJO_A

>  <description>  (39) 
Chain A, 3C protease [Enterovirus A71]

>  <evalue>  (39) 
1.0179e-70

>  <pdb_code>  (39) 
3SJO

>  <chain>  (39) 
A

>  <ligands>  (39) 
[{'chain_id': 'A', 'author_residue_number': 501, 'author_insertion_code': '', 'chem_comp_id': 'AG7', 'alternate_conformers': 0, 'entity_id': 2, 'struct_asym_id': 'I', 'residue_number': 1, 'chem_comp_name': '4-{2-(4-FLUORO-BENZYL)-6-METHYL-5-[(5-METHYL-ISOXAZOLE-3-CARBONYL)-AMINO]-4-OXO-HEPTANOYLAMINO}-5-(2-OXO-PYRROLIDIN-3-YL)-PENTANOIC ACID ETHYL ESTER', 'weight': 600.678, 'carbohydrate_polymer': False, 'branch_name': ''}, {'chain_id': 'B', 'author_residue_number': 501, 'author_insertion_code': '', 'chem_comp_id': 'AG7', 'alternate_conformers': 0, 'entity_id': 2, 'struct_asym_id': 'J', 'residue_number': 1, 'chem_comp_name': '4-{2-(4-FLUORO-BENZYL)-6-METHYL-5-[(5-METHYL-ISOXAZOLE-3-CARBONYL)-AMINO]-4-OXO-HEPTANOYLAMINO}-5-(2-OXO-PYRROLIDIN-3-YL)-PENTANOIC ACID ETHYL ESTER', 'weight': 600.678, 'carbohydrate_polymer': False, 'branch_name': ''}, {'chain_id': 'C', 'author_residue_number': 501, 'author_insertion_code': '', 'chem_comp_id': 'AG7', 'alternate_conformers': 0, 'entity_id': 2, 'struct_asym_id': 'K', 'residue_number': 1, 'chem_comp_name': '4-{2-(4-FLUORO-BENZYL)-6-METHYL-5-[(5-METHYL-ISOXAZOLE-3-CARBONYL)-AMINO]-4-OXO-HEPTANOYLAMINO}-5-(2-OXO-PYRROLIDIN-3-YL)-PENTANOIC ACID ETHYL ESTER', 'weight': 600.678, 'carbohydrate_polymer': False, 'branch_name': ''}, {'chain_id': 'D', 'author_residue_number': 501, 'author_insertion_code': '', 'chem_comp_id': 'AG7', 'alternate_conformers': 0, 'entity_id': 2, 'struct_asym_id': 'L', 'residue_number': 1, 'chem_comp_name': '4-{2-(4-FLUORO-BENZYL)-6-METHYL-5-[(5-METHYL-ISOXAZOLE-3-CARBONYL)-AMINO]-4-OXO-HEPTANOYLAMINO}-5-(2-OXO-PYRROLIDIN-3-YL)-PENTANOIC ACID ETHYL ESTER', 'weight': 600.678, 'carbohydrate_polymer': False, 'branch_name': ''}, {'chain_id': 'E', 'author_residue_number': 501, 'author_insertion_code': '', 'chem_comp_id': 'AG7', 'alternate_conformers': 0, 'entity_id': 2, 'struct_asym_id': 'M', 'residue_number': 1, 'chem_comp_name': '4-{2-(4-FLUORO-BENZYL)-6-METHYL-5-[(5-METHYL-ISOXAZOLE-3-CARBONYL)-AMINO]-4-OXO-HEPTANOYLAMINO}-5-(2-OXO-PYRROLIDIN-3-YL)-PENTANOIC ACID ETHYL ESTER', 'weight': 600.678, 'carbohydrate_polymer': False, 'branch_name': ''}, {'chain_id': 'F', 'author_residue_number': 501, 'author_insertion_code': '', 'chem_comp_id': 'AG7', 'alternate_conformers': 0, 'entity_id': 2, 'struct_asym_id': 'N', 'residue_number': 1, 'chem_comp_name': '4-{2-(4-FLUORO-BENZYL)-6-METHYL-5-[(5-METHYL-ISOXAZOLE-3-CARBONYL)-AMINO]-4-OXO-HEPTANOYLAMINO}-5-(2-OXO-PYRROLIDIN-3-YL)-PENTANOIC ACID ETHYL ESTER', 'weight': 600.678, 'carbohydrate_polymer': False, 'branch_name': ''}, {'chain_id': 'G', 'author_residue_number': 501, 'author_insertion_code': '', 'chem_comp_id': 'AG7', 'alternate_conformers': 0, 'entity_id': 2, 'struct_asym_id': 'O', 'residue_number': 1, 'chem_comp_name': '4-{2-(4-FLUORO-BENZYL)-6-METHYL-5-[(5-METHYL-ISOXAZOLE-3-CARBONYL)-AMINO]-4-OXO-HEPTANOYLAMINO}-5-(2-OXO-PYRROLIDIN-3-YL)-PENTANOIC ACID ETHYL ESTER', 'weight': 600.678, 'carbohydrate_polymer': False, 'branch_name': ''}, {'chain_id': 'H', 'author_residue_number': 501, 'author_insertion_code': '', 'chem_comp_id': 'AG7', 'alternate_conformers': 0, 'entity_id': 2, 'struct_asym_id': 'P', 'residue_number': 1, 'chem_comp_name': '4-{2-(4-FLUORO-BENZYL)-6-METHYL-5-[(5-METHYL-ISOXAZOLE-3-CARBONYL)-AMINO]-4-OXO-HEPTANOYLAMINO}-5-(2-OXO-PYRROLIDIN-3-YL)-PENTANOIC ACID ETHYL ESTER', 'weight': 600.678, 'carbohydrate_polymer': False, 'branch_name': ''}]

>  <ligand_codes>  (39) 
['AG7', 'AG7', 'AG7', 'AG7', 'AG7', 'AG7', 'AG7', 'AG7']

>  <cofactor_codes>  (39) 
[]

>  <has_cofactor>  (39) 
False

>  <covalent>  (39) 
True

>  <base_name>  (39) 
3SJO

>  <lig_resn>  (39) 
AG7

>  <lig_resi>  (39) 
501

>  <lig_chain>  (39) 
H

>  <lig_segi>  (39) 
P

>  <lig_alt>  (39) 


>  <polymer_chain>  (39) 
A

>  <single_smiles>  (39) 
CCOC(=O)CC[C@H](C[C@@H]1CCNC1=O)NC(=O)[C@@H](CC(=O)[C@@H](NC(=O)c2cc(C)on2)C(C)C)Cc3ccc(F)cc3

$$$$
AG7ยง10
     RDKit          3D

 44 46  0  0  0  0  0  0  0  0999 V2000
  -17.1070  -34.0380  -56.8030 C   0  0  0  0  0  0  0  0  0  0  0  0
  -18.7670  -29.6560  -57.6610 C   0  0  0  0  0  0  0  0  0  0  0  0
  -17.5770  -35.4340  -56.4010 C   0  0  0  0  0  0  0  0  0  0  0  0
  -19.9200  -28.6280  -57.7990 C   0  0  0  0  0  0  0  0  0  0  0  0
  -19.3880  -27.3270  -57.4430 C   0  0  0  0  0  0  0  0  0  0  0  0
  -16.2550  -33.4720  -56.1430 O   0  0  0  0  0  0  0  0  0  0  0  0
  -16.8020  -36.1180  -55.2880 C   0  0  1  0  0  0  0  0  0  0  0  0
  -20.1580  -26.0330  -57.4320 C   0  0  0  0  0  0  0  0  0  0  0  0
  -18.0070  -27.4890  -57.1000 O   0  0  0  0  0  0  0  0  0  0  0  0
  -17.2630  -37.5290  -54.9380 C   0  0  0  0  0  0  0  0  0  0  0  0
  -17.6460  -28.9800  -57.2430 N   0  0  0  0  0  0  0  0  0  0  0  0
  -18.7500  -37.7360  -54.7840 C   0  0  0  0  0  0  0  0  0  0  0  0
  -19.4470  -37.1490  -53.6190 C   0  0  0  0  0  0  0  0  0  0  0  0
  -20.9160  -37.3420  -53.4600 C   0  0  0  0  0  0  0  0  0  0  0  0
  -21.6210  -38.0730  -54.4200 C   0  0  0  0  0  0  0  0  0  0  0  0
  -20.9090  -38.6660  -55.6050 C   0  0  0  0  0  0  0  0  0  0  0  0
  -19.4580  -38.4750  -55.7620 C   0  0  0  0  0  0  0  0  0  0  0  0
  -14.4820  -35.5920  -54.3030 N   0  0  0  0  0  0  0  0  0  0  0  0
  -13.0190  -35.7910  -54.2580 C   0  0  1  0  0  0  0  0  0  0  0  0
  -12.2230  -34.4880  -54.1730 C   0  0  0  0  0  0  0  0  0  0  0  0
  -12.3830  -33.5600  -55.3800 C   0  0  1  0  0  0  0  0  0  0  0  0
  -11.5900  -32.2420  -55.4100 C   0  0  0  0  0  0  0  0  0  0  0  0
  -11.7360  -31.7180  -56.8230 N   0  0  0  0  0  0  0  0  0  0  0  0
  -11.5970  -31.3980  -54.3240 O   0  0  0  0  0  0  0  0  0  0  0  0
  -12.6190  -36.8160  -53.2170 C   0  0  2  0  0  0  0  0  0  0  0  0
  -13.0500  -38.2380  -53.5250 C   0  0  0  0  0  0  0  0  0  0  0  0
  -12.2990  -38.9060  -54.6730 C   0  0  0  0  0  0  0  0  0  0  0  0
  -12.9110  -39.7490  -55.4530 O   0  0  0  0  0  0  0  0  0  0  0  0
  -11.1070  -38.5700  -54.9100 O   0  0  0  0  0  0  0  0  0  0  0  0
  -15.2760  -36.0430  -55.4500 C   0  0  0  0  0  0  0  0  0  0  0  0
  -14.7580  -36.5760  -56.4170 O   0  0  0  0  0  0  0  0  0  0  0  0
  -12.2290  -40.3080  -56.5420 C   0  0  0  0  0  0  0  0  0  0  0  0
  -12.9520  -41.3540  -57.3560 C   0  0  0  0  0  0  0  0  0  0  0  0
  -17.6750  -33.3830  -58.0730 C   0  0  1  0  0  0  0  0  0  0  0  0
  -17.6360  -31.9230  -58.0250 N   0  0  0  0  0  0  0  0  0  0  0  0
  -18.8530  -31.1500  -57.9090 C   0  0  0  0  0  0  0  0  0  0  0  0
  -19.9380  -31.6830  -58.1100 O   0  0  0  0  0  0  0  0  0  0  0  0
  -17.1410  -33.9850  -59.3640 C   0  0  1  0  0  0  0  0  0  0  0  0
  -17.8610  -33.5170  -60.5960 C   0  0  0  0  0  0  0  0  0  0  0  0
  -15.6470  -33.9400  -59.4830 C   0  0  0  0  0  0  0  0  0  0  0  0
  -11.9130  -32.9350  -57.6910 C   0  0  0  0  0  0  0  0  0  0  0  0
  -12.2690  -34.1230  -56.7730 C   0  0  0  0  0  0  0  0  0  0  0  0
  -13.3370  -36.1720  -51.6970 R   0  0  0  0  0  0  0  0  0  0  0  0
  -22.9340  -38.2480  -54.2940 F   0  0  0  0  0  0  0  0  0  0  0  0
  1  3  1  0
  1  6  2  0
  1 34  1  0
  2  4  1  0
  2 11  2  0
  2 36  1  0
  7  3  1  6
  4  5  2  0
  5  8  1  0
  5  9  1  0
  7 10  1  0
  7 30  1  0
  9 11  1  0
 10 12  1  0
 12 13  2  0
 12 17  1  0
 13 14  1  0
 14 15  2  0
 15 16  1  0
 15 44  1  0
 16 17  2  0
 18 19  1  0
 18 30  1  0
 19 20  1  1
 19 25  1  0
 21 20  1  1
 21 22  1  0
 21 42  1  0
 22 23  1  0
 22 24  2  0
 23 41  1  0
 25 26  1  0
 25 43  1  1
 26 27  1  0
 27 28  1  0
 27 29  2  0
 28 32  1  0
 30 31  2  0
 32 33  1  0
 34 35  1  1
 34 38  1  0
 35 36  1  0
 36 37  2  0
 38 39  1  6
 38 40  1  0
 41 42  1  0
A    1
 C01
A    2
 C1 
A    3
 C02
A    4
 C2 
A    5
 C3 
A    6
 O03
A    7
 C04
A    8
 C4 
A    9
 O4 
A   10
 C05
A   11
 N5 
A   12
 C06
A   13
 C07
A   14
 C08
A   15
 C09
A   16
 C10
A   17
 C11
A   18
 N12
A   19
 C13
A   20
 C14
A   21
 C15
A   22
 C16
A   23
 N17
A   24
 O18
A   25
 C19
A   26
 C20
A   27
 C21
A   28
 O22
A   29
 O23
A   30
 C47
A   31
 O48
A   32
 C50
A   33
 C53
A   34
 C57
A   35
 N58
A   36
 C59
A   37
 O60
A   38
 C78
A   39
 C81
A   40
 C82
A   41
 C83
A   42
 C84
A   43
 X  
A   44
 F1 
M  END
>  <XChem_code>  (40) 
AG7ยง10

>  <Occupancy>  (40) 
[1.0, 1.0, 1.0, 1.0, 1.0, 1.0, 1.0, 1.0, 1.0, 1.0, 1.0, 1.0, 1.0, 1.0, 1.0, 1.0, 1.0, 1.0, 1.0, 1.0, 1.0, 1.0, 1.0, 1.0, 1.0, 1.0, 1.0, 1.0, 1.0, 1.0, 1.0, 1.0, 1.0, 1.0, 1.0, 1.0, 1.0, 1.0, 1.0, 1.0, 1.0, 1.0, 1.0, 1.0]

>  <TempFactor>  (40) 
[28.27, 31.15, 28.36, 29.69, 30.62, 24.84, 26.2, 38.2, 37.78, 26.46, 34.66, 27.62, 30.25, 34.82, 35.41, 35.85, 29.93, 25.11, 24.8, 23.49, 23.61, 19.17, 23.74, 20.72, 20.72, 23.28, 29.75, 28.6, 25.79, 23.47, 25.83, 27.52, 28.35, 27.45, 24.58, 29.7, 29.5, 32.2, 30.45, 25.73, 19.54, 22.24, 21.93, 33.51]

>  <accession>  (40) 
3SJO_A

>  <description>  (40) 
Chain A, 3C protease [Enterovirus A71]

>  <evalue>  (40) 
1.0179e-70

>  <pdb_code>  (40) 
3SJO

>  <chain>  (40) 
A

>  <ligands>  (40) 
[{'chain_id': 'A', 'author_residue_number': 501, 'author_insertion_code': '', 'chem_comp_id': 'AG7', 'alternate_conformers': 0, 'entity_id': 2, 'struct_asym_id': 'I', 'residue_number': 1, 'chem_comp_name': '4-{2-(4-FLUORO-BENZYL)-6-METHYL-5-[(5-METHYL-ISOXAZOLE-3-CARBONYL)-AMINO]-4-OXO-HEPTANOYLAMINO}-5-(2-OXO-PYRROLIDIN-3-YL)-PENTANOIC ACID ETHYL ESTER', 'weight': 600.678, 'carbohydrate_polymer': False, 'branch_name': ''}, {'chain_id': 'B', 'author_residue_number': 501, 'author_insertion_code': '', 'chem_comp_id': 'AG7', 'alternate_conformers': 0, 'entity_id': 2, 'struct_asym_id': 'J', 'residue_number': 1, 'chem_comp_name': '4-{2-(4-FLUORO-BENZYL)-6-METHYL-5-[(5-METHYL-ISOXAZOLE-3-CARBONYL)-AMINO]-4-OXO-HEPTANOYLAMINO}-5-(2-OXO-PYRROLIDIN-3-YL)-PENTANOIC ACID ETHYL ESTER', 'weight': 600.678, 'carbohydrate_polymer': False, 'branch_name': ''}, {'chain_id': 'C', 'author_residue_number': 501, 'author_insertion_code': '', 'chem_comp_id': 'AG7', 'alternate_conformers': 0, 'entity_id': 2, 'struct_asym_id': 'K', 'residue_number': 1, 'chem_comp_name': '4-{2-(4-FLUORO-BENZYL)-6-METHYL-5-[(5-METHYL-ISOXAZOLE-3-CARBONYL)-AMINO]-4-OXO-HEPTANOYLAMINO}-5-(2-OXO-PYRROLIDIN-3-YL)-PENTANOIC ACID ETHYL ESTER', 'weight': 600.678, 'carbohydrate_polymer': False, 'branch_name': ''}, {'chain_id': 'D', 'author_residue_number': 501, 'author_insertion_code': '', 'chem_comp_id': 'AG7', 'alternate_conformers': 0, 'entity_id': 2, 'struct_asym_id': 'L', 'residue_number': 1, 'chem_comp_name': '4-{2-(4-FLUORO-BENZYL)-6-METHYL-5-[(5-METHYL-ISOXAZOLE-3-CARBONYL)-AMINO]-4-OXO-HEPTANOYLAMINO}-5-(2-OXO-PYRROLIDIN-3-YL)-PENTANOIC ACID ETHYL ESTER', 'weight': 600.678, 'carbohydrate_polymer': False, 'branch_name': ''}, {'chain_id': 'E', 'author_residue_number': 501, 'author_insertion_code': '', 'chem_comp_id': 'AG7', 'alternate_conformers': 0, 'entity_id': 2, 'struct_asym_id': 'M', 'residue_number': 1, 'chem_comp_name': '4-{2-(4-FLUORO-BENZYL)-6-METHYL-5-[(5-METHYL-ISOXAZOLE-3-CARBONYL)-AMINO]-4-OXO-HEPTANOYLAMINO}-5-(2-OXO-PYRROLIDIN-3-YL)-PENTANOIC ACID ETHYL ESTER', 'weight': 600.678, 'carbohydrate_polymer': False, 'branch_name': ''}, {'chain_id': 'F', 'author_residue_number': 501, 'author_insertion_code': '', 'chem_comp_id': 'AG7', 'alternate_conformers': 0, 'entity_id': 2, 'struct_asym_id': 'N', 'residue_number': 1, 'chem_comp_name': '4-{2-(4-FLUORO-BENZYL)-6-METHYL-5-[(5-METHYL-ISOXAZOLE-3-CARBONYL)-AMINO]-4-OXO-HEPTANOYLAMINO}-5-(2-OXO-PYRROLIDIN-3-YL)-PENTANOIC ACID ETHYL ESTER', 'weight': 600.678, 'carbohydrate_polymer': False, 'branch_name': ''}, {'chain_id': 'G', 'author_residue_number': 501, 'author_insertion_code': '', 'chem_comp_id': 'AG7', 'alternate_conformers': 0, 'entity_id': 2, 'struct_asym_id': 'O', 'residue_number': 1, 'chem_comp_name': '4-{2-(4-FLUORO-BENZYL)-6-METHYL-5-[(5-METHYL-ISOXAZOLE-3-CARBONYL)-AMINO]-4-OXO-HEPTANOYLAMINO}-5-(2-OXO-PYRROLIDIN-3-YL)-PENTANOIC ACID ETHYL ESTER', 'weight': 600.678, 'carbohydrate_polymer': False, 'branch_name': ''}, {'chain_id': 'H', 'author_residue_number': 501, 'author_insertion_code': '', 'chem_comp_id': 'AG7', 'alternate_conformers': 0, 'entity_id': 2, 'struct_asym_id': 'P', 'residue_number': 1, 'chem_comp_name': '4-{2-(4-FLUORO-BENZYL)-6-METHYL-5-[(5-METHYL-ISOXAZOLE-3-CARBONYL)-AMINO]-4-OXO-HEPTANOYLAMINO}-5-(2-OXO-PYRROLIDIN-3-YL)-PENTANOIC ACID ETHYL ESTER', 'weight': 600.678, 'carbohydrate_polymer': False, 'branch_name': ''}]

>  <ligand_codes>  (40) 
['AG7', 'AG7', 'AG7', 'AG7', 'AG7', 'AG7', 'AG7', 'AG7']

>  <cofactor_codes>  (40) 
[]

>  <has_cofactor>  (40) 
False

>  <covalent>  (40) 
True

>  <base_name>  (40) 
3SJO

>  <lig_resn>  (40) 
AG7

>  <lig_resi>  (40) 
501

>  <lig_chain>  (40) 
G

>  <lig_segi>  (40) 
O

>  <lig_alt>  (40) 


>  <polymer_chain>  (40) 
A

>  <single_smiles>  (40) 
CCOC(=O)CC[C@H](C[C@@H]1CCNC1=O)NC(=O)[C@@H](CC(=O)[C@@H](NC(=O)c2cc(C)on2)C(C)C)Cc3ccc(F)cc3

$$$$
5E9ยง1
     RDKit          3D

 36 37  0  0  0  0  0  0  0  0999 V2000
   -8.6860   11.0770  -34.0170 N   0  0  0  0  0  0  0  0  0  0  0  0
   -8.6810   15.0160  -33.2280 C   0  0  0  0  0  0  0  0  0  0  0  0
   -8.6940   14.1780  -32.3210 O   0  0  0  0  0  0  0  0  0  0  0  0
   -5.8400   11.7270  -29.4300 N   0  0  0  0  0  0  0  0  0  0  0  0
   -7.6850   10.3310  -29.2400 O   0  0  0  0  0  0  0  0  0  0  0  0
   -9.3410   13.2140  -35.0270 C   0  0  1  0  0  0  0  0  0  0  0  0
   -8.2120   16.6720  -31.3740 N   0  0  0  0  0  0  0  0  0  0  0  0
   -6.0430   10.0350  -37.0530 O   0  0  0  0  0  0  0  0  0  0  0  0
   -9.5570   12.9440  -36.5080 C   0  0  0  0  0  0  0  0  0  0  0  0
   -5.5150    8.4070  -35.5500 O   0  0  0  0  0  0  0  0  0  0  0  0
  -10.6910   13.6950  -37.1830 C   0  0  0  0  0  0  0  0  0  0  0  0
   -7.0840   12.5120  -34.7360 O   0  0  0  0  0  0  0  0  0  0  0  0
  -10.3980   14.6980  -38.1120 C   0  0  0  0  0  0  0  0  0  0  0  0
  -11.4100   15.3950  -38.7580 C   0  0  0  0  0  0  0  0  0  0  0  0
  -12.7450   15.1100  -38.4840 C   0  0  0  0  0  0  0  0  0  0  0  0
  -13.0440   14.0840  -37.5690 C   0  0  0  0  0  0  0  0  0  0  0  0
  -12.0110   13.3850  -36.9280 C   0  0  0  0  0  0  0  0  0  0  0  0
   -7.6770   10.0790  -33.5580 C   0  0  1  0  0  0  0  0  0  0  0  0
   -7.6060    9.9880  -32.0610 C   0  0  0  0  0  0  0  0  0  0  0  0
   -7.0900   11.2740  -31.3660 C   0  0  1  0  0  0  0  0  0  0  0  0
   -6.9280   11.0630  -29.8890 C   0  0  0  0  0  0  0  0  0  0  0  0
   -8.1030    8.7640  -34.2130 C   0  0  0  0  0  0  0  0  0  0  0  0
   -7.8720    8.8940  -35.7110 C   0  0  0  0  0  0  0  0  0  0  0  0
   -6.4110    9.0680  -36.0560 C   0  0  0  0  0  0  0  0  0  0  0  0
   -8.2730   12.2270  -34.5900 C   0  0  0  0  0  0  0  0  0  0  0  0
   -5.0600    9.5580  -37.9640 C   0  0  0  0  0  0  0  0  0  0  0  0
   -5.6800    8.4450  -38.8020 C   0  0  0  0  0  0  0  0  0  0  0  0
   -8.2690   16.4470  -32.8570 C   0  0  1  0  0  0  0  0  0  0  0  0
   -8.9980   14.6950  -34.6930 C   0  0  0  0  0  0  0  0  0  0  0  0
   -6.8960   16.7890  -33.4690 C   0  0  1  0  0  0  0  0  0  0  0  0
   -6.4380   18.1830  -33.0660 C   0  0  0  0  0  0  0  0  0  0  0  0
   -5.8350   15.7520  -33.1000 C   0  0  0  0  0  0  0  0  0  0  0  0
   -5.0120   12.2750  -30.4960 C   0  0  0  0  0  0  0  0  0  0  0  0
   -5.6970   11.7410  -31.7720 C   0  0  0  0  0  0  0  0  0  0  0  0
   -9.7950    8.3550  -33.9060 R   0  0  0  0  0  0  0  0  0  0  0  0
  -13.7370   15.7770  -39.1250 F   0  0  0  0  0  0  0  0  0  0  0  0
  1 18  1  0
  1 25  1  0
  2  3  2  0
  2 28  1  0
  2 29  1  0
  4 21  1  0
  4 33  1  0
  5 21  2  0
  6  9  1  6
  6 25  1  0
  6 29  1  0
 28  7  1  1
  8 26  1  0
  8 24  1  0
  9 11  1  0
 10 24  2  0
 11 13  2  0
 11 17  1  0
 12 25  2  0
 13 14  1  0
 14 15  2  0
 15 16  1  0
 15 36  1  0
 16 17  2  0
 18 19  1  1
 18 22  1  0
 20 19  1  6
 20 21  1  0
 20 34  1  0
 22 23  2  3
 22 35  1  0
 23 24  1  0
 26 27  1  0
 28 30  1  0
 30 31  1  1
 30 32  1  0
 33 34  1  0
A    1
 N  
A    2
 C  
A    3
 O  
A    4
 N1 
A    5
 O1 
A    6
 C2 
A    7
 N2 
A    8
 O2 
A    9
 C3 
A   10
 O3 
A   11
 C4 
A   12
 O4 
A   13
 C5 
A   14
 C6 
A   15
 C7 
A   16
 C8 
A   17
 C9 
A   18
 C10
A   19
 C11
A   20
 C12
A   21
 C13
A   22
 C14
A   23
 C15
A   24
 C16
A   25
 C17
A   26
 C18
A   27
 C19
A   28
 C20
A   29
 C21
A   30
 C22
A   31
 C23
A   32
 C24
A   33
 C25
A   34
 C26
A   35
 X  
A   36
 F1 
M  END
>  <XChem_code>  (41) 
5E9ยง1

>  <Occupancy>  (41) 
[1.0, 1.0, 1.0, 1.0, 1.0, 1.0, 1.0, 1.0, 1.0, 1.0, 1.0, 1.0, 1.0, 1.0, 1.0, 1.0, 1.0, 1.0, 1.0, 1.0, 1.0, 1.0, 1.0, 1.0, 1.0, 1.0, 1.0, 1.0, 1.0, 1.0, 1.0, 1.0, 1.0, 1.0, 1.0, 1.0]

>  <TempFactor>  (41) 
[22.12, 29.54, 27.79, 22.79, 27.7, 25.48, 34.28, 30.31, 25.63, 28.02, 25.53, 25.12, 26.39, 27.1, 28.54, 27.02, 25.43, 21.61, 21.08, 22.98, 23.89, 22.26, 25.01, 26.4, 24.85, 30.29, 29.11, 33.7, 26.49, 36.07, 37.0, 35.62, 22.45, 21.88, 20.92, 29.67]

>  <accession>  (41) 
5DP5_A

>  <description>  (41) 
Chain A, 3C proteinase [Enterovirus A71]

>  <evalue>  (41) 
1.13719e-70

>  <pdb_code>  (41) 
5DP5

>  <chain>  (41) 
A

>  <ligands>  (41) 
[{'chain_id': 'A', 'author_residue_number': 201, 'author_insertion_code': '', 'chem_comp_id': '5E9', 'alternate_conformers': 0, 'entity_id': 2, 'struct_asym_id': 'B', 'residue_number': 1, 'chem_comp_name': 'ethyl (2Z,4S)-4-{[(2R,5S)-5-amino-2-(4-fluorobenzyl)-6-methyl-4-oxoheptanoyl]amino}-5-[(3S)-2-oxopyrrolidin-3-yl]pent-2-enoate', 'weight': 489.58, 'carbohydrate_polymer': False, 'branch_name': ''}]

>  <ligand_codes>  (41) 
['5E9']

>  <cofactor_codes>  (41) 
[]

>  <has_cofactor>  (41) 
False

>  <covalent>  (41) 
True

>  <base_name>  (41) 
5DP5

>  <lig_resn>  (41) 
5E9

>  <lig_resi>  (41) 
201

>  <lig_chain>  (41) 
A

>  <lig_segi>  (41) 
B

>  <lig_alt>  (41) 


>  <polymer_chain>  (41) 
A

>  <single_smiles>  (41) 
CCOC(=O)\C=C/[C@H](C[C@@H]1CCNC1=O)NC(=O)[C@@H](CC(=O)[C@@H](N)C(C)C)Cc2ccc(F)cc2

$$$$
AG7ยง11
     RDKit          3D

 43 45  0  0  0  0  0  0  0  0999 V2000
   -8.8720   15.0590  -33.3180 C   0  0  0  0  0  0  0  0  0  0  0  0
  -10.4440   17.9520  -29.9660 C   0  0  0  0  0  0  0  0  0  0  0  0
   -9.1810   14.8030  -34.8550 C   0  0  0  0  0  0  0  0  0  0  0  0
  -11.4110   18.8010  -29.4820 C   0  0  0  0  0  0  0  0  0  0  0  0
  -11.4910   18.5870  -28.1420 C   0  0  0  0  0  0  0  0  0  0  0  0
   -9.0100   14.2010  -32.4750 O   0  0  0  0  0  0  0  0  0  0  0  0
   -9.5290   13.3210  -35.1020 C   0  0  1  0  0  0  0  0  0  0  0  0
  -12.4230   19.2850  -27.1830 C   0  0  0  0  0  0  0  0  0  0  0  0
  -10.5980   17.6410  -27.8030 O   0  0  0  0  0  0  0  0  0  0  0  0
   -9.8470   13.1350  -36.6200 C   0  0  0  0  0  0  0  0  0  0  0  0
   -9.9480   17.2570  -28.9540 N   0  0  0  0  0  0  0  0  0  0  0  0
  -11.3050   13.7450  -36.8440 C   0  0  0  0  0  0  0  0  0  0  0  0
  -11.4560   14.8940  -37.6190 C   0  0  0  0  0  0  0  0  0  0  0  0
  -12.7230   15.4330  -37.8170 C   0  0  0  0  0  0  0  0  0  0  0  0
  -13.8400   14.8240  -37.2230 C   0  0  0  0  0  0  0  0  0  0  0  0
  -13.6950   13.6860  -36.4410 C   0  0  0  0  0  0  0  0  0  0  0  0
  -12.4130   13.1380  -36.2460 C   0  0  0  0  0  0  0  0  0  0  0  0
   -8.6990   11.1710  -34.0830 N   0  0  0  0  0  0  0  0  0  0  0  0
   -7.4890   10.3990  -33.7670 C   0  0  1  0  0  0  0  0  0  0  0  0
   -7.5780   10.0040  -32.2880 C   0  0  0  0  0  0  0  0  0  0  0  0
   -7.0990   11.3020  -31.5750 C   0  0  1  0  0  0  0  0  0  0  0  0
   -7.0230   11.0800  -29.9920 C   0  0  0  0  0  0  0  0  0  0  0  0
   -6.0040   11.8370  -29.5430 N   0  0  0  0  0  0  0  0  0  0  0  0
   -7.7390   10.4060  -29.3120 O   0  0  0  0  0  0  0  0  0  0  0  0
   -7.1540    9.1680  -34.5770 C   0  0  0  0  0  0  0  0  0  0  0  0
   -7.7230    9.1470  -35.9980 C   0  0  0  0  0  0  0  0  0  0  0  0
   -6.3230    9.0840  -36.5380 C   0  0  0  0  0  0  0  0  0  0  0  0
   -5.9850    9.6770  -37.7640 O   0  0  0  0  0  0  0  0  0  0  0  0
   -5.5070    8.5210  -35.8520 O   0  0  0  0  0  0  0  0  0  0  0  0
   -8.3810   12.4340  -34.7380 C   0  0  0  0  0  0  0  0  0  0  0  0
   -7.2420   12.6600  -34.9610 O   0  0  0  0  0  0  0  0  0  0  0  0
   -5.1320    8.8350  -38.5250 C   0  0  0  0  0  0  0  0  0  0  0  0
   -5.9370    8.4030  -39.7220 C   0  0  0  0  0  0  0  0  0  0  0  0
   -8.3700   16.4840  -32.8990 C   0  0  1  0  0  0  0  0  0  0  0  0
   -8.9490   16.7850  -31.6390 N   0  0  0  0  0  0  0  0  0  0  0  0
   -9.9620   17.8050  -31.4360 C   0  0  0  0  0  0  0  0  0  0  0  0
  -10.3840   18.4690  -32.3160 O   0  0  0  0  0  0  0  0  0  0  0  0
   -6.8180   16.5090  -32.7420 C   0  0  1  0  0  0  0  0  0  0  0  0
   -6.0760   16.0030  -34.0320 C   0  0  0  0  0  0  0  0  0  0  0  0
   -6.4180   17.9810  -32.4960 C   0  0  0  0  0  0  0  0  0  0  0  0
   -5.3380   12.5560  -30.7120 C   0  0  0  0  0  0  0  0  0  0  0  0
   -5.8440   11.7210  -31.9680 C   0  0  0  0  0  0  0  0  0  0  0  0
  -15.0840   15.3590  -37.4180 F   0  0  0  0  0  0  0  0  0  0  0  0
  1  3  1  0
  1  6  2  0
  1 34  1  0
  2  4  1  0
  2 11  2  0
  2 36  1  0
  7  3  1  6
  4  5  2  0
  5  8  1  0
  5  9  1  0
  7 10  1  0
  7 30  1  0
  9 11  1  0
 10 12  1  0
 12 13  2  0
 12 17  1  0
 13 14  1  0
 14 15  2  0
 15 16  1  0
 15 43  1  0
 16 17  2  0
 18 19  1  0
 18 30  1  0
 19 20  1  1
 19 25  1  0
 21 20  1  6
 21 22  1  0
 21 42  1  0
 22 23  1  0
 22 24  2  0
 23 41  1  0
 25 26  1  0
 26 27  1  0
 27 28  1  0
 27 29  2  0
 28 32  1  0
 30 31  2  0
 32 33  1  0
 34 35  1  1
 34 38  1  0
 35 36  1  0
 36 37  2  0
 38 39  1  6
 38 40  1  0
 41 42  1  0
A    1
 C01
A    2
 C1 
A    3
 C02
A    4
 C2 
A    5
 C3 
A    6
 O03
A    7
 C04
A    8
 C4 
A    9
 O4 
A   10
 C05
A   11
 N5 
A   12
 C06
A   13
 C07
A   14
 C08
A   15
 C09
A   16
 C10
A   17
 C11
A   18
 N12
A   19
 C13
A   20
 C14
A   21
 C15
A   22
 C16
A   23
 N17
A   24
 O18
A   25
 C19
A   26
 C20
A   27
 C21
A   28
 O22
A   29
 O23
A   30
 C47
A   31
 O48
A   32
 C50
A   33
 C53
A   34
 C57
A   35
 N58
A   36
 C59
A   37
 O60
A   38
 C78
A   39
 C81
A   40
 C82
A   41
 C83
A   42
 C84
A   43
 F1 
M  END
>  <XChem_code>  (42) 
AG7ยง11

>  <Occupancy>  (42) 
[1.0, 1.0, 1.0, 1.0, 1.0, 1.0, 1.0, 1.0, 1.0, 1.0, 1.0, 1.0, 1.0, 1.0, 1.0, 1.0, 1.0, 1.0, 1.0, 1.0, 1.0, 1.0, 1.0, 1.0, 1.0, 1.0, 1.0, 1.0, 1.0, 1.0, 1.0, 1.0, 1.0, 1.0, 1.0, 1.0, 1.0, 1.0, 1.0, 1.0, 1.0, 1.0, 1.0]

>  <TempFactor>  (42) 
[11.58, 15.03, 11.83, 16.25, 16.92, 12.34, 10.54, 20.22, 18.19, 14.53, 16.52, 20.55, 23.87, 20.72, 31.66, 32.21, 24.48, 11.55, 13.92, 10.24, 11.44, 10.75, 11.87, 10.52, 48.42, 14.67, 18.9, 51.51, 20.99, 12.24, 12.71, 37.77, 32.69, 13.62, 12.02, 16.3, 16.59, 14.61, 20.42, 22.35, 13.24, 10.96, 27.55]

>  <accession>  (42) 
5HXF_A

>  <description>  (42) 
Chain A, 3C protease [Enterovirus A71]

>  <evalue>  (42) 
1.33118e-69

>  <pdb_code>  (42) 
5HXF

>  <chain>  (42) 
A

>  <ligands>  (42) 
[{'chain_id': 'A', 'author_residue_number': 201, 'author_insertion_code': '', 'chem_comp_id': 'AG7', 'alternate_conformers': 0, 'entity_id': 2, 'struct_asym_id': 'B', 'residue_number': 1, 'chem_comp_name': '4-{2-(4-FLUORO-BENZYL)-6-METHYL-5-[(5-METHYL-ISOXAZOLE-3-CARBONYL)-AMINO]-4-OXO-HEPTANOYLAMINO}-5-(2-OXO-PYRROLIDIN-3-YL)-PENTANOIC ACID ETHYL ESTER', 'weight': 600.678, 'carbohydrate_polymer': False, 'branch_name': ''}, {'chain_id': 'A', 'author_residue_number': 202, 'author_insertion_code': '', 'chem_comp_id': 'SO4', 'alternate_conformers': 0, 'entity_id': 3, 'struct_asym_id': 'C', 'residue_number': 1, 'chem_comp_name': 'SULFATE ION', 'weight': 96.063, 'carbohydrate_polymer': False, 'branch_name': ''}, {'chain_id': 'A', 'author_residue_number': 203, 'author_insertion_code': '', 'chem_comp_id': 'SO4', 'alternate_conformers': 0, 'entity_id': 3, 'struct_asym_id': 'D', 'residue_number': 1, 'chem_comp_name': 'SULFATE ION', 'weight': 96.063, 'carbohydrate_polymer': False, 'branch_name': ''}]

>  <ligand_codes>  (42) 
['AG7', 'SO4', 'SO4']

>  <cofactor_codes>  (42) 
[]

>  <has_cofactor>  (42) 
False

>  <covalent>  (42) 
False

>  <base_name>  (42) 
5HXF

>  <lig_resn>  (42) 
AG7

>  <lig_resi>  (42) 
201

>  <lig_chain>  (42) 
A

>  <lig_segi>  (42) 
B

>  <lig_alt>  (42) 


>  <polymer_chain>  (42) 
A

>  <single_smiles>  (42) 
CCOC(=O)CC[C@H](C[C@@H]1CCNC1=O)NC(=O)[C@@H](CC(=O)[C@@H](NC(=O)c2cc(C)on2)C(C)C)Cc3ccc(F)cc3

$$$$
FHRยง1
     RDKit          3D

 34 37  0  0  0  0  0  0  0  0999 V2000
   -8.8740   14.1120  -32.4470 O   0  0  0  0  0  0  0  0  0  0  0  0
   -8.8010   14.8950  -33.4010 C   0  0  0  0  0  0  0  0  0  0  0  0
   -8.1570   16.2030  -33.2710 C   0  0  0  0  0  0  0  0  0  0  0  0
   -8.0490   17.2730  -34.1240 C   0  0  0  0  0  0  0  0  0  0  0  0
   -7.2790   18.2580  -33.4560 C   0  0  0  0  0  0  0  0  0  0  0  0
   -6.8210   19.5470  -33.7830 C   0  0  0  0  0  0  0  0  0  0  0  0
   -6.0720   20.2410  -32.8640 C   0  0  0  0  0  0  0  0  0  0  0  0
   -5.7460   19.6920  -31.6270 C   0  0  0  0  0  0  0  0  0  0  0  0
   -6.1770   18.4360  -31.2640 C   0  0  0  0  0  0  0  0  0  0  0  0
   -6.9430   17.7290  -32.1870 C   0  0  0  0  0  0  0  0  0  0  0  0
   -7.4890   16.4770  -32.1010 N   0  0  0  0  0  0  0  0  0  0  0  0
   -9.2450   14.5580  -34.6270 N   0  0  0  0  0  0  0  0  0  0  0  0
   -9.7320   13.2190  -34.8780 C   0  0  1  0  0  0  0  0  0  0  0  0
  -10.3440   13.1100  -36.2770 C   0  0  0  0  0  0  0  0  0  0  0  0
  -11.6180   13.9040  -36.4220 C   0  0  0  0  0  0  0  0  0  0  0  0
  -12.7470   13.5850  -35.6890 C   0  0  0  0  0  0  0  0  0  0  0  0
  -13.9180   14.3150  -35.8260 C   0  0  0  0  0  0  0  0  0  0  0  0
  -13.9760   15.3680  -36.7080 C   0  0  0  0  0  0  0  0  0  0  0  0
  -12.8650   15.6960  -37.4450 C   0  0  0  0  0  0  0  0  0  0  0  0
  -11.6930   14.9670  -37.3080 C   0  0  0  0  0  0  0  0  0  0  0  0
   -8.5900   12.2250  -34.7110 C   0  0  0  0  0  0  0  0  0  0  0  0
   -8.9070   11.0690  -34.1230 N   0  0  0  0  0  0  0  0  0  0  0  0
   -7.9330   10.0300  -33.8370 C   0  0  1  0  0  0  0  0  0  0  0  0
   -7.6710    9.8790  -32.3370 C   0  0  0  0  0  0  0  0  0  0  0  0
   -7.0900   11.1330  -31.6650 C   0  0  2  0  0  0  0  0  0  0  0  0
   -5.7320   11.6370  -32.1410 C   0  0  0  0  0  0  0  0  0  0  0  0
   -5.1740   12.3620  -30.9250 C   0  0  0  0  0  0  0  0  0  0  0  0
   -5.7790   11.6220  -29.8190 N   0  0  0  0  0  0  0  0  0  0  0  0
   -6.8730   10.9530  -30.1760 C   0  0  0  0  0  0  0  0  0  0  0  0
   -7.6010   10.2890  -29.4180 O   0  0  0  0  0  0  0  0  0  0  0  0
   -8.3950    8.7250  -34.5150 C   0  0  0  0  0  0  0  0  0  0  0  0
   -8.2950    8.6890  -35.7580 O   0  0  0  0  0  0  0  0  0  0  0  0
   -7.4610   12.4990  -35.1080 O   0  0  0  0  0  0  0  0  0  0  0  0
   -9.9400    8.2440  -33.7820 R   0  0  0  0  0  0  0  0  0  0  0  0
  1  2  2  0
  2  3  1  0
  2 12  1  0
  3 11  1  0
  3  4  2  0
  4  5  1  0
  5  6  2  0
  5 10  1  0
  6  7  1  0
  7  8  2  0
  8  9  1  0
  9 10  2  0
 10 11  1  0
 12 13  1  0
 13 14  1  6
 13 21  1  0
 14 15  1  0
 15 16  1  0
 15 20  1  0
 16 17  1  0
 17 18  1  0
 18 19  1  0
 19 20  1  0
 21 22  1  0
 21 33  2  0
 22 23  1  0
 23 31  1  0
 23 24  1  1
 25 24  1  6
 25 26  1  0
 25 29  1  0
 26 27  1  0
 27 28  1  0
 28 29  1  0
 29 30  2  0
 31 32  2  0
 31 34  1  0
A    1
 O01
A    2
 C02
A    3
 C03
A    4
 C04
A    5
 C05
A    6
 C06
A    7
 C07
A    8
 C08
A    9
 C09
A   10
 C10
A   11
 N11
A   12
 N12
A   13
 C13
A   14
 C14
A   15
 C15
A   16
 C16
A   17
 C17
A   18
 C18
A   19
 C19
A   20
 C20
A   21
 C21
A   22
 N22
A   23
 C23
A   24
 C24
A   25
 C25
A   26
 C26
A   27
 C27
A   28
 N28
A   29
 C29
A   30
 O30
A   31
 C31
A   32
 O32
A   33
 O33
A   34
 X  
M  END
>  <XChem_code>  (43) 
FHRยง1

>  <Occupancy>  (43) 
[1.0, 1.0, 1.0, 1.0, 1.0, 1.0, 1.0, 1.0, 1.0, 1.0, 1.0, 1.0, 1.0, 1.0, 1.0, 1.0, 1.0, 1.0, 1.0, 1.0, 1.0, 1.0, 1.0, 1.0, 1.0, 1.0, 1.0, 1.0, 1.0, 1.0, 1.0, 1.0, 1.0, 1.0]

>  <TempFactor>  (43) 
[12.8, 12.28, 12.67, 12.86, 13.41, 14.29, 15.58, 14.39, 13.97, 13.17, 13.23, 12.4, 11.86, 13.21, 13.36, 14.53, 14.53, 16.76, 17.82, 15.62, 11.61, 11.88, 12.06, 12.52, 13.0, 13.86, 15.8, 14.81, 13.31, 13.03, 12.29, 12.97, 13.13, 12.32]

>  <accession>  (43) 
7DNC_A

>  <description>  (43) 
Chain A, 3C protease [Enterovirus A71]

>  <evalue>  (43) 
1.33148e-69

>  <pdb_code>  (43) 
7DNC

>  <chain>  (43) 
A

>  <ligands>  (43) 
[{'chain_id': 'A', 'author_residue_number': 201, 'author_insertion_code': '', 'chem_comp_id': 'FHR', 'alternate_conformers': 0, 'entity_id': 2, 'struct_asym_id': 'B', 'residue_number': 1, 'chem_comp_name': '~{N}-[(2~{S})-3-cyclohexyl-1-oxidanylidene-1-[[(2~{S})-1-oxidanylidene-3-[(3~{S})-2-oxidanylidenepyrrolidin-3-yl]propan-2-yl]amino]propan-2-yl]-1~{H}-indole-2-carboxamide', 'weight': 452.546, 'carbohydrate_polymer': False, 'branch_name': ''}]

>  <ligand_codes>  (43) 
['FHR']

>  <cofactor_codes>  (43) 
[]

>  <has_cofactor>  (43) 
False

>  <covalent>  (43) 
True

>  <base_name>  (43) 
7DNC

>  <lig_resn>  (43) 
FHR

>  <lig_resi>  (43) 
201

>  <lig_chain>  (43) 
A

>  <lig_segi>  (43) 
B

>  <lig_alt>  (43) 


>  <polymer_chain>  (43) 
A

>  <single_smiles>  (43) 
O=C[C@H](C[C@@H]1CCNC1=O)NC(=O)[C@H](CC2CCCCC2)NC(=O)c3[nH]c4ccccc4c3

$$$$
I70ยง2
     RDKit          3D

 40 42  0  0  0  0  0  0  0  0999 V2000
   -6.7240    7.5570  -34.8770 C   0  0  0  0  0  0  0  0  0  0  0  0
   -6.3550    7.0790  -36.1900 N   0  0  0  0  0  0  0  0  0  0  0  0
   -6.1940    7.0820  -33.8870 O   0  0  0  0  0  0  0  0  0  0  0  0
  -11.1620   17.0450  -29.9270 C   0  0  1  0  0  0  0  0  0  0  0  0
   -7.7790    8.6510  -34.8260 C   0  0  2  0  0  0  0  0  0  0  0  0
   -9.7590   17.0040  -30.3830 N   0  0  0  0  0  0  0  0  0  0  0  0
   -9.3350   16.7390  -31.6320 C   0  0  0  0  0  0  0  0  0  0  0  0
   -8.0200    9.1050  -36.1750 O   0  0  0  0  0  0  0  0  0  0  0  0
   -8.0120   16.5180  -31.7410 N   0  0  0  0  0  0  0  0  0  0  0  0
   -7.4390   15.9640  -32.9440 C   0  0  2  0  0  0  0  0  0  0  0  0
   -8.1630   14.6430  -33.1990 C   0  0  0  0  0  0  0  0  0  0  0  0
   -8.5470   15.4100  -35.5660 C   0  0  0  0  0  0  0  0  0  0  0  0
   -8.5930   14.4450  -34.4520 N   0  0  0  0  0  0  0  0  0  0  0  0
   -9.0890   13.1220  -34.8270 C   0  0  2  0  0  0  0  0  0  0  0  0
   -7.9540   12.1060  -34.7500 C   0  0  2  0  0  0  0  0  0  0  0  0
   -9.2540   14.6710  -36.7020 C   0  0  2  0  0  0  0  0  0  0  0  0
   -8.3060   10.9400  -34.2130 N   0  0  0  0  0  0  0  0  0  0  0  0
   -7.3450    9.8640  -33.9670 C   0  0  1  0  0  0  0  0  0  0  0  0
  -10.6930   14.2350  -36.5490 C   0  0  1  0  0  0  0  0  0  0  0  0
   -7.2620    9.6380  -32.4590 C   0  0  0  0  0  0  0  0  0  0  0  0
   -6.5460   10.7690  -31.7170 C   0  0  2  0  0  0  0  0  0  0  0  0
   -5.1080   11.0020  -32.1640 C   0  0  0  0  0  0  0  0  0  0  0  0
   -4.3360   11.3780  -30.9010 C   0  0  0  0  0  0  0  0  0  0  0  0
  -11.5310   14.7790  -35.4150 C   0  0  0  0  0  0  0  0  0  0  0  0
   -5.2360   10.9640  -29.8330 N   0  0  0  0  0  0  0  0  0  0  0  0
   -6.4130   10.4980  -30.2370 C   0  0  0  0  0  0  0  0  0  0  0  0
  -11.5090   14.0530  -37.8150 C   0  0  0  0  0  0  0  0  0  0  0  0
   -5.2670   15.5850  -34.2610 C   0  0  0  0  0  0  0  0  0  0  0  0
   -7.2810    9.9600  -29.5060 O   0  0  0  0  0  0  0  0  0  0  0  0
  -11.7910   15.6780  -30.1870 C   0  0  0  0  0  0  0  0  0  0  0  0
  -11.0840   17.3350  -28.4360 C   0  0  0  0  0  0  0  0  0  0  0  0
  -11.9540   18.1520  -30.6230 C   0  0  0  0  0  0  0  0  0  0  0  0
  -10.0780   16.7320  -32.6140 O   0  0  0  0  0  0  0  0  0  0  0  0
   -5.8860   15.9050  -32.8920 C   0  0  1  0  0  0  0  0  0  0  0  0
   -5.3590   17.2790  -32.4720 C   0  0  0  0  0  0  0  0  0  0  0  0
   -5.4200   14.8480  -31.8910 C   0  0  0  0  0  0  0  0  0  0  0  0
   -8.3310   13.7970  -32.3050 O   0  0  0  0  0  0  0  0  0  0  0  0
   -9.5800   13.2630  -36.2440 C   0  0  2  0  0  0  0  0  0  0  0  0
   -6.7960   12.4060  -35.0600 O   0  0  0  0  0  0  0  0  0  0  0  0
   -9.3380    8.0100  -34.0010 R   0  0  0  0  0  0  0  0  0  0  0  0
  1  2  1  0
  1  3  1  0
  1  5  1  0
  4  6  1  0
  4 30  1  1
  4 31  1  0
  4 32  1  0
  5  8  1  0
  5 18  1  0
  5 40  1  1
  6  7  1  0
  7  9  1  0
  7 33  1  0
 10  9  1  1
 10 11  1  0
 10 34  1  0
 11 13  1  0
 11 37  1  0
 12 13  1  0
 16 12  1  1
 14 13  1  6
 14 15  1  0
 38 14  1  1
 15 17  1  0
 15 39  1  1
 16 19  1  0
 16 38  1  0
 17 18  1  0
 18 20  1  1
 19 24  1  1
 19 27  1  0
 19 38  1  0
 21 20  1  6
 21 22  1  0
 21 26  1  0
 22 23  1  0
 23 25  1  0
 25 26  1  0
 26 29  1  0
 34 28  1  6
 34 35  1  0
 34 36  1  0
A    1
 C1 
A    2
 N2 
A    3
 O5 
A    4
 C7 
A    5
 C8 
A    6
 N8 
A    7
 C9 
A    8
 O9 
A    9
 N10
A   10
 C11
A   11
 C12
A   12
 C13
A   13
 N13
A   14
 C14
A   15
 C15
A   16
 C16
A   17
 N16
A   18
 C17
A   19
 C18
A   20
 C19
A   21
 C20
A   22
 C21
A   23
 C22
A   24
 C23
A   25
 N23
A   26
 C24
A   27
 C25
A   28
 C26
A   29
 O26
A   30
 C27
A   31
 C28
A   32
 C29
A   33
 O29
A   34
 C30
A   35
 C31
A   36
 C32
A   37
 O33
A   38
 C34
A   39
 O38
A   40
 X  
M  END
>  <XChem_code>  (44) 
I70ยง2

>  <Occupancy>  (44) 
[1.0, 1.0, 1.0, 1.0, 1.0, 1.0, 1.0, 1.0, 1.0, 1.0, 1.0, 1.0, 1.0, 1.0, 1.0, 1.0, 1.0, 1.0, 1.0, 1.0, 1.0, 1.0, 1.0, 1.0, 1.0, 1.0, 1.0, 1.0, 1.0, 1.0, 1.0, 1.0, 1.0, 1.0, 1.0, 1.0, 1.0, 1.0, 1.0, 1.0]

>  <TempFactor>  (44) 
[39.88, 47.74, 47.6, 43.34, 41.2, 42.74, 42.84, 38.8, 38.28, 38.23, 36.42, 38.13, 35.96, 39.12, 39.61, 36.63, 35.46, 36.02, 40.94, 36.31, 36.8, 36.42, 33.49, 36.18, 34.36, 34.04, 41.73, 36.81, 34.52, 42.38, 42.33, 41.2, 40.48, 37.29, 39.85, 36.54, 36.22, 35.85, 36.77, 46.54]

>  <accession>  (44) 
7QUB_AAA

>  <description>  (44) 
Chain AAA, Protease 3C [Enterovirus A71]

>  <evalue>  (44) 
7.05e-68

>  <pdb_code>  (44) 
7QUB

>  <chain>  (44) 
AAA

>  <ligands>  (44) 
[{'chain_id': 'AAA', 'author_residue_number': 201, 'author_insertion_code': '', 'chem_comp_id': 'I70', 'alternate_conformers': 0, 'entity_id': 2, 'struct_asym_id': 'B', 'residue_number': 1, 'chem_comp_name': '(1R,2S,5S)-N-{(2S,3R)-4-amino-3-hydroxy-4-oxo-1-[(3S)-2-oxopyrrolidin-3-yl]butan-2-yl}-3-[N-(tert-butylcarbamoyl)-3-methyl-L-valyl]-6,6-dimethyl-3-azabicyclo[3.1.0]hexane-2-carboxamide', 'weight': 550.691, 'carbohydrate_polymer': False, 'branch_name': ''}, {'chain_id': 'AAA', 'author_residue_number': 202, 'author_insertion_code': '', 'chem_comp_id': 'NA', 'alternate_conformers': 0, 'entity_id': 3, 'struct_asym_id': 'C', 'residue_number': 1, 'chem_comp_name': 'SODIUM ION', 'weight': 22.99, 'carbohydrate_polymer': False, 'branch_name': ''}]

>  <ligand_codes>  (44) 
['I70', 'NA']

>  <cofactor_codes>  (44) 
[]

>  <has_cofactor>  (44) 
False

>  <covalent>  (44) 
True

>  <base_name>  (44) 
7QUB

>  <lig_resn>  (44) 
I70

>  <lig_resi>  (44) 
201

>  <lig_chain>  (44) 
AAA

>  <lig_segi>  (44) 
B

>  <lig_alt>  (44) 


>  <polymer_chain>  (44) 
A

>  <single_smiles>  (44) 
CC(C)(C)NC(=O)N[C@H](C(=O)N1C[C@H]2[C@@H]([C@H]1C(=O)N[C@@H](C[C@@H]3CCNC3=O)[C@@H](O)C(N)=O)C2(C)C)C(C)(C)C

$$$$
AG7ยง12
     RDKit          3D

 38 39  0  0  0  0  0  0  0  0999 V2000
   -8.5670   14.4320  -33.7110 C   0  0  0  0  0  0  0  0  0  0  0  0
   -8.9960   18.0230  -30.7400 C   0  0  0  0  0  0  0  0  0  0  0  0
   -8.6930   13.9260  -35.1370 C   0  0  0  0  0  0  0  0  0  0  0  0
   -8.6070   13.7560  -32.7230 O   0  0  0  0  0  0  0  0  0  0  0  0
   -9.3130   12.5410  -35.2750 C   0  0  1  0  0  0  0  0  0  0  0  0
   -9.7000   12.4750  -36.7420 C   0  0  0  0  0  0  0  0  0  0  0  0
  -11.0210   13.2200  -36.9910 C   0  0  0  0  0  0  0  0  0  0  0  0
  -12.1300   12.9450  -36.2050 C   0  0  0  0  0  0  0  0  0  0  0  0
  -13.3220   13.6160  -36.4240 C   0  0  0  0  0  0  0  0  0  0  0  0
  -13.4160   14.5720  -37.4290 C   0  0  0  0  0  0  0  0  0  0  0  0
  -12.3090   14.8520  -38.2170 C   0  0  0  0  0  0  0  0  0  0  0  0
  -11.1130   14.1790  -37.9990 C   0  0  0  0  0  0  0  0  0  0  0  0
   -8.4720   10.3790  -34.0520 N   0  0  0  0  0  0  0  0  0  0  0  0
   -7.3030    9.5660  -33.6750 C   0  0  1  0  0  0  0  0  0  0  0  0
   -7.3990    9.4630  -32.1610 C   0  0  0  0  0  0  0  0  0  0  0  0
   -6.9980   10.8370  -31.5010 C   0  0  1  0  0  0  0  0  0  0  0  0
   -6.7450   10.5870  -29.9270 C   0  0  0  0  0  0  0  0  0  0  0  0
   -5.7030   11.3120  -29.5520 N   0  0  0  0  0  0  0  0  0  0  0  0
   -7.3960    9.8790  -29.2360 O   0  0  0  0  0  0  0  0  0  0  0  0
   -7.0890    8.1890  -34.3170 C   0  0  0  0  0  0  0  0  0  0  0  0
   -7.6300    8.1640  -35.7550 C   0  0  0  0  0  0  0  0  0  0  0  0
   -6.3370    8.3890  -36.5060 C   0  0  0  0  0  0  0  0  0  0  0  0
   -6.2970    9.1800  -37.6510 O   0  0  0  0  0  0  0  0  0  0  0  0
   -5.3570    7.9030  -36.0570 O   0  0  0  0  0  0  0  0  0  0  0  0
   -8.2170   11.5620  -34.8560 C   0  0  0  0  0  0  0  0  0  0  0  0
   -7.1000   11.7820  -35.1800 O   0  0  0  0  0  0  0  0  0  0  0  0
   -4.9980    9.2960  -38.1470 C   0  0  0  0  0  0  0  0  0  0  0  0
   -5.0760    9.8510  -39.5680 C   0  0  0  0  0  0  0  0  0  0  0  0
   -8.3750   15.9370  -33.7070 C   0  0  1  0  0  0  0  0  0  0  0  0
   -8.4690   16.4220  -32.3850 N   0  0  0  0  0  0  0  0  0  0  0  0
   -9.0480   17.7050  -32.1870 C   0  0  0  0  0  0  0  0  0  0  0  0
   -9.4860   18.4290  -33.0250 O   0  0  0  0  0  0  0  0  0  0  0  0
   -6.9790   16.3080  -34.2120 C   0  0  1  0  0  0  0  0  0  0  0  0
   -6.7970   17.8160  -34.4290 C   0  0  0  0  0  0  0  0  0  0  0  0
   -5.9310   15.7820  -33.2260 C   0  0  0  0  0  0  0  0  0  0  0  0
   -5.1560   12.0710  -30.7490 C   0  0  0  0  0  0  0  0  0  0  0  0
   -5.8480   11.3340  -31.9880 C   0  0  0  0  0  0  0  0  0  0  0  0
  -14.5980   15.2330  -37.6340 F   0  0  0  0  0  0  0  0  0  0  0  0
  1  3  1  0
  1  4  1  0
  1 29  1  0
  2 31  1  0
  5  3  1  6
  5  6  1  0
  5 25  1  0
  6  7  1  0
  7  8  1  0
  7 12  1  0
  8  9  1  0
  9 10  1  0
 10 11  1  0
 10 38  1  0
 11 12  1  0
 13 14  1  0
 13 25  1  0
 14 15  1  1
 14 20  1  0
 16 15  1  6
 16 17  1  0
 16 37  1  0
 17 18  1  0
 17 19  1  0
 18 36  1  0
 20 21  1  0
 21 22  1  0
 22 23  1  0
 22 24  1  0
 23 27  1  0
 25 26  1  0
 27 28  1  0
 29 30  1  1
 29 33  1  0
 30 31  1  0
 31 32  1  0
 33 34  1  1
 33 35  1  0
 36 37  1  0
A    1
 C01
A    2
 C1 
A    3
 C02
A    4
 O03
A    5
 C04
A    6
 C05
A    7
 C06
A    8
 C07
A    9
 C08
A   10
 C09
A   11
 C10
A   12
 C11
A   13
 N12
A   14
 C13
A   15
 C14
A   16
 C15
A   17
 C16
A   18
 N17
A   19
 O18
A   20
 C19
A   21
 C20
A   22
 C21
A   23
 O22
A   24
 O23
A   25
 C47
A   26
 O48
A   27
 C50
A   28
 C53
A   29
 C57
A   30
 N58
A   31
 C59
A   32
 O60
A   33
 C78
A   34
 C81
A   35
 C82
A   36
 C83
A   37
 C84
A   38
 F1 
M  END
>  <XChem_code>  (45) 
AG7ยง12

>  <Occupancy>  (45) 
[1.0, 1.0, 1.0, 1.0, 1.0, 1.0, 1.0, 1.0, 1.0, 1.0, 1.0, 1.0, 1.0, 1.0, 1.0, 1.0, 1.0, 1.0, 1.0, 1.0, 1.0, 1.0, 1.0, 1.0, 1.0, 1.0, 1.0, 1.0, 1.0, 1.0, 1.0, 1.0, 1.0, 1.0, 1.0, 1.0, 1.0, 1.0]

>  <TempFactor>  (45) 
[56.87, 76.17, 55.13, 39.03, 48.62, 52.58, 47.89, 46.71, 48.3, 47.91, 49.6, 49.69, 42.73, 41.63, 39.08, 34.68, 26.06, 30.82, 26.95, 46.9, 46.82, 50.79, 56.24, 49.99, 47.58, 46.28, 59.41, 58.23, 62.42, 63.63, 73.33, 77.2, 64.57, 66.68, 74.14, 34.72, 36.83, 48.64]

>  <accession>  (45) 
6KU8_A

>  <description>  (45) 
Chain A, Genome polyprotein [Rhinovirus C]

>  <evalue>  (45) 
6.10813e-61

>  <pdb_code>  (45) 
6KU8

>  <chain>  (45) 
A

>  <ligands>  (45) 
[{'chain_id': 'A', 'author_residue_number': 501, 'author_insertion_code': '', 'chem_comp_id': 'AG7', 'alternate_conformers': 0, 'entity_id': 2, 'struct_asym_id': 'B', 'residue_number': 1, 'chem_comp_name': '4-{2-(4-FLUORO-BENZYL)-6-METHYL-5-[(5-METHYL-ISOXAZOLE-3-CARBONYL)-AMINO]-4-OXO-HEPTANOYLAMINO}-5-(2-OXO-PYRROLIDIN-3-YL)-PENTANOIC ACID ETHYL ESTER', 'weight': 600.678, 'carbohydrate_polymer': False, 'branch_name': ''}]

>  <ligand_codes>  (45) 
['AG7']

>  <cofactor_codes>  (45) 
[]

>  <has_cofactor>  (45) 
False

>  <covalent>  (45) 
False

>  <base_name>  (45) 
6KU8

>  <lig_resn>  (45) 
AG7

>  <lig_resi>  (45) 
501

>  <lig_chain>  (45) 
A

>  <lig_segi>  (45) 
B

>  <lig_alt>  (45) 


>  <polymer_chain>  (45) 
A

>  <single_smiles>  (45) 
CCOC(=O)CC[C@H](C[C@@H]1CCNC1=O)NC(=O)[C@@H](CC(=O)[C@@H](NC(=O)c2cc(C)on2)C(C)C)Cc3ccc(F)cc3

$$$$
AG7ยง13
     RDKit          3D

 44 46  0  0  0  0  0  0  0  0999 V2000
  -29.2370   24.7180  -11.0830 C   0  0  0  0  0  0  0  0  0  0  0  0
  -26.0490   21.7310  -13.0690 C   0  0  0  0  0  0  0  0  0  0  0  0
  -30.7270   25.0890  -11.1590 C   0  0  0  0  0  0  0  0  0  0  0  0
  -25.6980   20.8060  -14.1480 C   0  0  0  0  0  0  0  0  0  0  0  0
  -24.2830   21.0030  -14.3200 C   0  0  0  0  0  0  0  0  0  0  0  0
  -28.3400   25.5260  -11.2980 O   0  0  0  0  0  0  0  0  0  0  0  0
  -30.9230   26.6000  -11.3480 C   0  0  1  0  0  0  0  0  0  0  0  0
  -23.4020   20.2930  -15.3110 C   0  0  0  0  0  0  0  0  0  0  0  0
  -23.9180   21.9310  -13.4420 O   0  0  0  0  0  0  0  0  0  0  0  0
  -32.4080   26.9140  -11.3420 C   0  0  0  0  0  0  0  0  0  0  0  0
  -24.9370   22.3570  -12.7160 N   0  0  0  0  0  0  0  0  0  0  0  0
  -33.0420   26.3340  -12.6010 C   0  0  0  0  0  0  0  0  0  0  0  0
  -32.6590   26.7990  -13.8500 C   0  0  0  0  0  0  0  0  0  0  0  0
  -33.2410   26.2550  -15.0020 C   0  0  0  0  0  0  0  0  0  0  0  0
  -34.2030   25.2460  -14.8830 C   0  0  0  0  0  0  0  0  0  0  0  0
  -34.5890   24.7770  -13.6340 C   0  0  0  0  0  0  0  0  0  0  0  0
  -34.0080   25.3230  -12.4820 C   0  0  0  0  0  0  0  0  0  0  0  0
  -29.5200   28.6690  -10.6530 N   0  0  0  0  0  0  0  0  0  0  0  0
  -29.0140   29.5740   -9.6060 C   0  0  1  0  0  0  0  0  0  0  0  0
  -27.4900   29.5950   -9.5790 C   0  0  0  0  0  0  0  0  0  0  0  0
  -26.9390   28.2060   -9.3080 C   0  0  1  0  0  0  0  0  0  0  0  0
  -25.4500   28.2350   -9.2630 C   0  0  0  0  0  0  0  0  0  0  0  0
  -25.0210   27.4050   -8.1920 N   0  0  0  0  0  0  0  0  0  0  0  0
  -24.6990   28.8970   -9.9640 O   0  0  0  0  0  0  0  0  0  0  0  0
  -29.5940   30.9760   -9.7700 C   0  0  2  0  0  0  0  0  0  0  0  0
  -31.1030   30.8940   -9.7620 C   0  0  0  0  0  0  0  0  0  0  0  0
  -31.5690   30.6730   -8.3300 C   0  0  0  0  0  0  0  0  0  0  0  0
  -32.6440   30.0120   -8.0980 O   0  0  0  0  0  0  0  0  0  0  0  0
  -30.8310   31.0020   -7.3720 O   0  0  0  0  0  0  0  0  0  0  0  0
  -30.2670   27.4600  -10.2740 C   0  0  0  0  0  0  0  0  0  0  0  0
  -30.4760   27.2150   -9.0960 O   0  0  0  0  0  0  0  0  0  0  0  0
  -32.9120   29.5800   -6.7980 C   0  0  0  0  0  0  0  0  0  0  0  0
  -34.0750   28.6220   -6.8290 C   0  0  0  0  0  0  0  0  0  0  0  0
  -28.9050   23.2190  -10.8990 C   0  0  1  0  0  0  0  0  0  0  0  0
  -27.5740   22.9260  -11.4160 N   0  0  0  0  0  0  0  0  0  0  0  0
  -27.4200   21.9390  -12.4730 C   0  0  0  0  0  0  0  0  0  0  0  0
  -28.3730   21.3210  -12.9070 O   0  0  0  0  0  0  0  0  0  0  0  0
  -29.0890   22.7330   -9.4620 C   0  0  1  0  0  0  0  0  0  0  0  0
  -28.8000   21.2600   -9.3940 C   0  0  0  0  0  0  0  0  0  0  0  0
  -28.1960   23.4870   -8.5340 C   0  0  0  0  0  0  0  0  0  0  0  0
  -26.1860   26.7420   -7.6500 C   0  0  0  0  0  0  0  0  0  0  0  0
  -27.3600   27.6410   -7.9830 C   0  0  0  0  0  0  0  0  0  0  0  0
  -29.3480   31.4250  -11.6950 R   0  0  0  0  0  0  0  0  0  0  0  0
  -34.7540   24.7320  -15.9840 F   0  0  0  0  0  0  0  0  0  0  0  0
  1  3  1  0
  1  6  2  0
  1 34  1  0
  2  4  1  0
  2 11  2  0
  2 36  1  0
  7  3  1  1
  4  5  2  0
  5  8  1  0
  5  9  1  0
  7 10  1  0
  7 30  1  0
  9 11  1  0
 10 12  1  0
 12 13  2  0
 12 17  1  0
 13 14  1  0
 14 15  2  0
 15 16  1  0
 15 44  1  0
 16 17  2  0
 18 19  1  0
 18 30  1  0
 19 20  1  6
 19 25  1  0
 21 20  1  1
 21 22  1  0
 21 42  1  0
 22 23  1  0
 22 24  2  0
 23 41  1  0
 25 26  1  0
 25 43  1  6
 26 27  1  0
 27 28  1  0
 27 29  2  0
 28 32  1  0
 30 31  2  0
 32 33  1  0
 34 35  1  1
 34 38  1  0
 35 36  1  0
 36 37  2  0
 38 39  1  6
 38 40  1  0
 41 42  1  0
A    1
 C01
A    2
 C1 
A    3
 C02
A    4
 C2 
A    5
 C3 
A    6
 O03
A    7
 C04
A    8
 C4 
A    9
 O4 
A   10
 C05
A   11
 N5 
A   12
 C06
A   13
 C07
A   14
 C08
A   15
 C09
A   16
 C10
A   17
 C11
A   18
 N12
A   19
 C13
A   20
 C14
A   21
 C15
A   22
 C16
A   23
 N17
A   24
 O18
A   25
 C19
A   26
 C20
A   27
 C21
A   28
 O22
A   29
 O23
A   30
 C47
A   31
 O48
A   32
 C50
A   33
 C53
A   34
 C57
A   35
 N58
A   36
 C59
A   37
 O60
A   38
 C78
A   39
 C81
A   40
 C82
A   41
 C83
A   42
 C84
A   43
 X  
A   44
 F1 
M  END
>  <XChem_code>  (46) 
AG7ยง13

>  <Occupancy>  (46) 
[1.0, 1.0, 1.0, 1.0, 1.0, 1.0, 1.0, 1.0, 1.0, 1.0, 1.0, 1.0, 1.0, 1.0, 1.0, 1.0, 1.0, 1.0, 1.0, 1.0, 1.0, 1.0, 1.0, 1.0, 1.0, 1.0, 1.0, 1.0, 1.0, 1.0, 1.0, 1.0, 1.0, 1.0, 1.0, 1.0, 1.0, 1.0, 1.0, 1.0, 1.0, 1.0, 1.0, 1.0]

>  <TempFactor>  (46) 
[17.87, 19.11, 19.67, 21.29, 25.45, 16.03, 17.46, 29.83, 27.32, 20.2, 22.21, 33.49, 40.84, 48.49, 46.27, 40.5, 40.49, 16.03, 14.91, 14.23, 13.22, 13.21, 13.42, 12.65, 18.61, 19.37, 20.5, 32.44, 18.77, 14.56, 15.74, 41.71, 50.93, 16.03, 15.79, 19.0, 17.56, 16.24, 18.73, 18.81, 17.22, 14.26, 15.26, 50.17]

>  <accession>  (46) 
3QZQ_A

>  <description>  (46) 
Chain A, 3C protein [Enterovirus A71]

>  <evalue>  (46) 
7.17784e-59

>  <pdb_code>  (46) 
3QZQ

>  <chain>  (46) 
A

>  <ligands>  (46) 
[{'chain_id': 'A', 'author_residue_number': 501, 'author_insertion_code': '', 'chem_comp_id': 'AG7', 'alternate_conformers': 0, 'entity_id': 2, 'struct_asym_id': 'E', 'residue_number': 1, 'chem_comp_name': '4-{2-(4-FLUORO-BENZYL)-6-METHYL-5-[(5-METHYL-ISOXAZOLE-3-CARBONYL)-AMINO]-4-OXO-HEPTANOYLAMINO}-5-(2-OXO-PYRROLIDIN-3-YL)-PENTANOIC ACID ETHYL ESTER', 'weight': 600.678, 'carbohydrate_polymer': False, 'branch_name': ''}, {'chain_id': 'B', 'author_residue_number': 501, 'author_insertion_code': '', 'chem_comp_id': 'AG7', 'alternate_conformers': 0, 'entity_id': 2, 'struct_asym_id': 'F', 'residue_number': 1, 'chem_comp_name': '4-{2-(4-FLUORO-BENZYL)-6-METHYL-5-[(5-METHYL-ISOXAZOLE-3-CARBONYL)-AMINO]-4-OXO-HEPTANOYLAMINO}-5-(2-OXO-PYRROLIDIN-3-YL)-PENTANOIC ACID ETHYL ESTER', 'weight': 600.678, 'carbohydrate_polymer': False, 'branch_name': ''}, {'chain_id': 'C', 'author_residue_number': 501, 'author_insertion_code': '', 'chem_comp_id': 'AG7', 'alternate_conformers': 0, 'entity_id': 2, 'struct_asym_id': 'G', 'residue_number': 1, 'chem_comp_name': '4-{2-(4-FLUORO-BENZYL)-6-METHYL-5-[(5-METHYL-ISOXAZOLE-3-CARBONYL)-AMINO]-4-OXO-HEPTANOYLAMINO}-5-(2-OXO-PYRROLIDIN-3-YL)-PENTANOIC ACID ETHYL ESTER', 'weight': 600.678, 'carbohydrate_polymer': False, 'branch_name': ''}, {'chain_id': 'D', 'author_residue_number': 501, 'author_insertion_code': '', 'chem_comp_id': 'AG7', 'alternate_conformers': 0, 'entity_id': 2, 'struct_asym_id': 'H', 'residue_number': 1, 'chem_comp_name': '4-{2-(4-FLUORO-BENZYL)-6-METHYL-5-[(5-METHYL-ISOXAZOLE-3-CARBONYL)-AMINO]-4-OXO-HEPTANOYLAMINO}-5-(2-OXO-PYRROLIDIN-3-YL)-PENTANOIC ACID ETHYL ESTER', 'weight': 600.678, 'carbohydrate_polymer': False, 'branch_name': ''}]

>  <ligand_codes>  (46) 
['AG7', 'AG7', 'AG7', 'AG7']

>  <cofactor_codes>  (46) 
[]

>  <has_cofactor>  (46) 
False

>  <covalent>  (46) 
True

>  <base_name>  (46) 
3QZQ

>  <lig_resn>  (46) 
AG7

>  <lig_resi>  (46) 
501

>  <lig_chain>  (46) 
B

>  <lig_segi>  (46) 
F

>  <lig_alt>  (46) 


>  <polymer_chain>  (46) 
A

>  <single_smiles>  (46) 
CCOC(=O)CC[C@H](C[C@@H]1CCNC1=O)NC(=O)[C@@H](CC(=O)[C@@H](NC(=O)c2cc(C)on2)C(C)C)Cc3ccc(F)cc3

$$$$
AG7ยง14
     RDKit          3D

 44 46  0  0  0  0  0  0  0  0999 V2000
   -8.5080   14.9300  -33.3220 C   0  0  0  0  0  0  0  0  0  0  0  0
  -10.0180   17.8700  -29.8390 C   0  0  0  0  0  0  0  0  0  0  0  0
   -9.0470   14.7330  -34.7430 C   0  0  0  0  0  0  0  0  0  0  0  0
  -10.9400   18.9000  -29.3490 C   0  0  0  0  0  0  0  0  0  0  0  0
  -11.0910   18.5810  -27.9530 C   0  0  0  0  0  0  0  0  0  0  0  0
   -8.8050   14.1230  -32.4480 O   0  0  0  0  0  0  0  0  0  0  0  0
   -8.8530   13.2790  -35.2310 C   0  0  1  0  0  0  0  0  0  0  0  0
  -11.9400   19.3230  -26.9590 C   0  0  0  0  0  0  0  0  0  0  0  0
  -10.3500   17.5030  -27.7220 O   0  0  0  0  0  0  0  0  0  0  0  0
   -9.1730   12.9400  -36.6820 C   0  0  0  0  0  0  0  0  0  0  0  0
   -9.7280   17.0810  -28.8080 N   0  0  0  0  0  0  0  0  0  0  0  0
  -10.3460   13.7680  -37.1900 C   0  0  0  0  0  0  0  0  0  0  0  0
  -11.6330   13.4790  -36.7590 C   0  0  0  0  0  0  0  0  0  0  0  0
  -12.7160   14.2140  -37.2600 C   0  0  0  0  0  0  0  0  0  0  0  0
  -12.4920   15.2320  -38.1910 C   0  0  0  0  0  0  0  0  0  0  0  0
  -11.2050   15.5220  -38.6290 C   0  0  0  0  0  0  0  0  0  0  0  0
  -10.1200   14.7840  -38.1310 C   0  0  0  0  0  0  0  0  0  0  0  0
   -8.5060   11.1100  -33.8920 N   0  0  0  0  0  0  0  0  0  0  0  0
   -7.7300    9.9240  -33.4360 C   0  0  1  0  0  0  0  0  0  0  0  0
   -7.3190    9.7870  -31.9670 C   0  0  0  0  0  0  0  0  0  0  0  0
   -6.9490   11.1100  -31.3440 C   0  0  1  0  0  0  0  0  0  0  0  0
   -6.8820   10.9740  -29.8610 C   0  0  0  0  0  0  0  0  0  0  0  0
   -5.7440   11.6850  -29.4030 N   0  0  0  0  0  0  0  0  0  0  0  0
   -7.6250   10.3230  -29.1430 O   0  0  0  0  0  0  0  0  0  0  0  0
   -7.7770    8.6160  -34.2440 C   0  0  2  0  0  0  0  0  0  0  0  0
   -7.7810    8.8240  -35.7420 C   0  0  0  0  0  0  0  0  0  0  0  0
   -6.3340    8.9960  -36.1790 C   0  0  0  0  0  0  0  0  0  0  0  0
   -6.0510    9.6750  -37.2240 O   0  0  0  0  0  0  0  0  0  0  0  0
   -5.4140    8.5070  -35.4860 O   0  0  0  0  0  0  0  0  0  0  0  0
   -7.9150   12.2780  -34.5490 C   0  0  0  0  0  0  0  0  0  0  0  0
   -6.7310   12.3310  -34.8040 O   0  0  0  0  0  0  0  0  0  0  0  0
   -4.7230    9.9930  -37.5080 C   0  0  0  0  0  0  0  0  0  0  0  0
   -4.6910   10.8400  -38.7540 C   0  0  0  0  0  0  0  0  0  0  0  0
   -8.1450   16.3840  -32.9140 C   0  0  1  0  0  0  0  0  0  0  0  0
   -8.5860   16.6350  -31.5420 N   0  0  0  0  0  0  0  0  0  0  0  0
   -9.5070   17.7220  -31.2510 C   0  0  0  0  0  0  0  0  0  0  0  0
   -9.9070   18.4670  -32.1230 O   0  0  0  0  0  0  0  0  0  0  0  0
   -6.6630   16.7160  -33.0960 C   0  0  1  0  0  0  0  0  0  0  0  0
   -6.3990   18.1350  -32.6670 C   0  0  0  0  0  0  0  0  0  0  0  0
   -5.8390   15.7750  -32.2840 C   0  0  0  0  0  0  0  0  0  0  0  0
   -5.1300   12.3330  -30.5440 C   0  0  0  0  0  0  0  0  0  0  0  0
   -5.5910   11.5700  -31.7670 C   0  0  0  0  0  0  0  0  0  0  0  0
   -9.7150    8.3890  -33.9240 R   0  0  0  0  0  0  0  0  0  0  0  0
  -13.5350   15.9120  -38.6740 F   0  0  0  0  0  0  0  0  0  0  0  0
  1  3  1  0
  1  6  2  0
  1 34  1  0
  2  4  1  0
  2 11  2  0
  2 36  1  0
  7  3  1  6
  4  5  2  0
  5  8  1  0
  5  9  1  0
  7 10  1  0
  7 30  1  0
  9 11  1  0
 10 12  1  0
 12 13  2  0
 12 17  1  0
 13 14  1  0
 14 15  2  0
 15 16  1  0
 15 44  1  0
 16 17  2  0
 18 19  1  0
 18 30  1  0
 19 20  1  1
 19 25  1  0
 21 20  1  6
 21 22  1  0
 21 42  1  0
 22 23  1  0
 22 24  2  0
 23 41  1  0
 25 26  1  0
 25 43  1  1
 26 27  1  0
 27 28  1  0
 27 29  2  0
 28 32  1  0
 30 31  2  0
 32 33  1  0
 34 35  1  1
 34 38  1  0
 35 36  1  0
 36 37  2  0
 38 39  1  1
 38 40  1  0
 41 42  1  0
A    1
 C01
A    2
 C1 
A    3
 C02
A    4
 C2 
A    5
 C3 
A    6
 O03
A    7
 C04
A    8
 C4 
A    9
 O4 
A   10
 C05
A   11
 N5 
A   12
 C06
A   13
 C07
A   14
 C08
A   15
 C09
A   16
 C10
A   17
 C11
A   18
 N12
A   19
 C13
A   20
 C14
A   21
 C15
A   22
 C16
A   23
 N17
A   24
 O18
A   25
 C19
A   26
 C20
A   27
 C21
A   28
 O22
A   29
 O23
A   30
 C47
A   31
 O48
A   32
 C50
A   33
 C53
A   34
 C57
A   35
 N58
A   36
 C59
A   37
 O60
A   38
 C78
A   39
 C81
A   40
 C82
A   41
 C83
A   42
 C84
A   43
 X  
A   44
 F1 
M  END
>  <XChem_code>  (47) 
AG7ยง14

>  <Occupancy>  (47) 
[1.0, 1.0, 1.0, 1.0, 1.0, 1.0, 1.0, 1.0, 1.0, 1.0, 1.0, 1.0, 1.0, 1.0, 1.0, 1.0, 1.0, 1.0, 1.0, 1.0, 1.0, 1.0, 1.0, 1.0, 1.0, 1.0, 1.0, 1.0, 1.0, 1.0, 1.0, 1.0, 1.0, 1.0, 1.0, 1.0, 1.0, 1.0, 1.0, 1.0, 1.0, 1.0, 1.0, 1.0]

>  <TempFactor>  (47) 
[18.65, 18.72, 21.92, 17.65, 24.86, 15.28, 18.72, 30.43, 27.21, 19.54, 23.37, 32.17, 36.23, 46.57, 43.77, 41.12, 38.94, 15.18, 15.28, 13.93, 16.17, 15.35, 15.96, 15.01, 19.51, 19.89, 20.9, 31.74, 18.14, 17.75, 18.83, 41.08, 57.06, 15.9, 16.12, 18.19, 20.0, 16.9, 18.42, 18.16, 18.76, 20.9, 15.53, 47.08]

>  <accession>  (47) 
3QZQ_A

>  <description>  (47) 
Chain A, 3C protein [Enterovirus A71]

>  <evalue>  (47) 
7.17784e-59

>  <pdb_code>  (47) 
3QZQ

>  <chain>  (47) 
A

>  <ligands>  (47) 
[{'chain_id': 'A', 'author_residue_number': 501, 'author_insertion_code': '', 'chem_comp_id': 'AG7', 'alternate_conformers': 0, 'entity_id': 2, 'struct_asym_id': 'E', 'residue_number': 1, 'chem_comp_name': '4-{2-(4-FLUORO-BENZYL)-6-METHYL-5-[(5-METHYL-ISOXAZOLE-3-CARBONYL)-AMINO]-4-OXO-HEPTANOYLAMINO}-5-(2-OXO-PYRROLIDIN-3-YL)-PENTANOIC ACID ETHYL ESTER', 'weight': 600.678, 'carbohydrate_polymer': False, 'branch_name': ''}, {'chain_id': 'B', 'author_residue_number': 501, 'author_insertion_code': '', 'chem_comp_id': 'AG7', 'alternate_conformers': 0, 'entity_id': 2, 'struct_asym_id': 'F', 'residue_number': 1, 'chem_comp_name': '4-{2-(4-FLUORO-BENZYL)-6-METHYL-5-[(5-METHYL-ISOXAZOLE-3-CARBONYL)-AMINO]-4-OXO-HEPTANOYLAMINO}-5-(2-OXO-PYRROLIDIN-3-YL)-PENTANOIC ACID ETHYL ESTER', 'weight': 600.678, 'carbohydrate_polymer': False, 'branch_name': ''}, {'chain_id': 'C', 'author_residue_number': 501, 'author_insertion_code': '', 'chem_comp_id': 'AG7', 'alternate_conformers': 0, 'entity_id': 2, 'struct_asym_id': 'G', 'residue_number': 1, 'chem_comp_name': '4-{2-(4-FLUORO-BENZYL)-6-METHYL-5-[(5-METHYL-ISOXAZOLE-3-CARBONYL)-AMINO]-4-OXO-HEPTANOYLAMINO}-5-(2-OXO-PYRROLIDIN-3-YL)-PENTANOIC ACID ETHYL ESTER', 'weight': 600.678, 'carbohydrate_polymer': False, 'branch_name': ''}, {'chain_id': 'D', 'author_residue_number': 501, 'author_insertion_code': '', 'chem_comp_id': 'AG7', 'alternate_conformers': 0, 'entity_id': 2, 'struct_asym_id': 'H', 'residue_number': 1, 'chem_comp_name': '4-{2-(4-FLUORO-BENZYL)-6-METHYL-5-[(5-METHYL-ISOXAZOLE-3-CARBONYL)-AMINO]-4-OXO-HEPTANOYLAMINO}-5-(2-OXO-PYRROLIDIN-3-YL)-PENTANOIC ACID ETHYL ESTER', 'weight': 600.678, 'carbohydrate_polymer': False, 'branch_name': ''}]

>  <ligand_codes>  (47) 
['AG7', 'AG7', 'AG7', 'AG7']

>  <cofactor_codes>  (47) 
[]

>  <has_cofactor>  (47) 
False

>  <covalent>  (47) 
True

>  <base_name>  (47) 
3QZQ

>  <lig_resn>  (47) 
AG7

>  <lig_resi>  (47) 
501

>  <lig_chain>  (47) 
A

>  <lig_segi>  (47) 
E

>  <lig_alt>  (47) 


>  <polymer_chain>  (47) 
A

>  <single_smiles>  (47) 
CCOC(=O)CC[C@H](C[C@@H]1CCNC1=O)NC(=O)[C@@H](CC(=O)[C@@H](NC(=O)c2cc(C)on2)C(C)C)Cc3ccc(F)cc3

$$$$
AG7ยง15
     RDKit          3D

 44 46  0  0  0  0  0  0  0  0999 V2000
  -52.5940   24.2230  -32.6030 C   0  0  0  0  0  0  0  0  0  0  0  0
  -50.1280   24.9480  -36.5980 C   0  0  0  0  0  0  0  0  0  0  0  0
  -52.6030   24.4460  -31.0820 C   0  0  0  0  0  0  0  0  0  0  0  0
  -48.8860   25.2160  -37.3290 C   0  0  0  0  0  0  0  0  0  0  0  0
  -49.0450   24.4730  -38.5500 C   0  0  0  0  0  0  0  0  0  0  0  0
  -52.8330   23.1520  -33.1150 O   0  0  0  0  0  0  0  0  0  0  0  0
  -52.8200   23.1250  -30.3250 C   0  0  1  0  0  0  0  0  0  0  0  0
  -48.0510   24.3880  -39.6730 C   0  0  0  0  0  0  0  0  0  0  0  0
  -50.2320   23.8790  -38.4840 O   0  0  0  0  0  0  0  0  0  0  0  0
  -52.7550   23.3340  -28.8220 C   0  0  0  0  0  0  0  0  0  0  0  0
  -50.8650   24.1530  -37.3590 N   0  0  0  0  0  0  0  0  0  0  0  0
  -51.3420   23.7230  -28.3980 C   0  0  0  0  0  0  0  0  0  0  0  0
  -50.2690   22.8830  -28.6540 C   0  0  0  0  0  0  0  0  0  0  0  0
  -48.9810   23.2590  -28.2480 C   0  0  0  0  0  0  0  0  0  0  0  0
  -48.7810   24.4780  -27.5940 C   0  0  0  0  0  0  0  0  0  0  0  0
  -49.8550   25.3220  -27.3390 C   0  0  0  0  0  0  0  0  0  0  0  0
  -51.1440   24.9450  -27.7400 C   0  0  0  0  0  0  0  0  0  0  0  0
  -54.3170   21.0630  -30.8790 N   0  0  0  0  0  0  0  0  0  0  0  0
  -55.6730   20.4980  -31.0540 C   0  0  1  0  0  0  0  0  0  0  0  0
  -55.8170   19.8990  -32.4440 C   0  0  0  0  0  0  0  0  0  0  0  0
  -55.7030   20.9820  -33.5010 C   0  0  1  0  0  0  0  0  0  0  0  0
  -56.0340   20.4450  -34.8490 C   0  0  0  0  0  0  0  0  0  0  0  0
  -56.8360   21.4040  -35.5260 N   0  0  0  0  0  0  0  0  0  0  0  0
  -55.7120   19.3560  -35.3070 O   0  0  0  0  0  0  0  0  0  0  0  0
  -55.9720   19.4850  -29.9530 C   0  0  2  0  0  0  0  0  0  0  0  0
  -55.7770   20.1250  -28.5950 C   0  0  0  0  0  0  0  0  0  0  0  0
  -56.9930   20.9850  -28.2890 C   0  0  0  0  0  0  0  0  0  0  0  0
  -56.8710   22.0770  -27.6150 O   0  0  0  0  0  0  0  0  0  0  0  0
  -58.0850   20.6960  -28.8240 O   0  0  0  0  0  0  0  0  0  0  0  0
  -54.1810   22.4990  -30.6090 C   0  0  0  0  0  0  0  0  0  0  0  0
  -55.1780   23.1950  -30.5750 O   0  0  0  0  0  0  0  0  0  0  0  0
  -57.9100   23.0100  -27.6160 C   0  0  0  0  0  0  0  0  0  0  0  0
  -57.3990   24.3080  -27.0430 C   0  0  0  0  0  0  0  0  0  0  0  0
  -52.5170   25.4080  -33.5870 C   0  0  1  0  0  0  0  0  0  0  0  0
  -51.8890   25.1050  -34.8690 N   0  0  0  0  0  0  0  0  0  0  0  0
  -50.5490   25.4720  -35.2450 C   0  0  0  0  0  0  0  0  0  0  0  0
  -49.8530   26.2040  -34.5800 O   0  0  0  0  0  0  0  0  0  0  0  0
  -53.5310   26.5590  -33.5210 C   0  0  1  0  0  0  0  0  0  0  0  0
  -53.1330   27.6650  -34.4640 C   0  0  0  0  0  0  0  0  0  0  0  0
  -54.8750   26.0160  -33.9020 C   0  0  0  0  0  0  0  0  0  0  0  0
  -56.9340   22.5890  -34.6960 C   0  0  0  0  0  0  0  0  0  0  0  0
  -56.6610   22.1160  -33.2820 C   0  0  0  0  0  0  0  0  0  0  0  0
  -54.3280   18.3090  -29.9560 R   0  0  0  0  0  0  0  0  0  0  0  0
  -47.5520   24.8300  -27.2080 F   0  0  0  0  0  0  0  0  0  0  0  0
  1  3  1  0
  1  6  2  0
  1 34  1  0
  2  4  1  0
  2 11  2  0
  2 36  1  0
  7  3  1  6
  4  5  2  0
  5  8  1  0
  5  9  1  0
  7 10  1  0
  7 30  1  0
  9 11  1  0
 10 12  1  0
 12 13  2  0
 12 17  1  0
 13 14  1  0
 14 15  2  0
 15 16  1  0
 15 44  1  0
 16 17  2  0
 18 19  1  0
 18 30  1  0
 19 20  1  6
 19 25  1  0
 21 20  1  1
 21 22  1  0
 21 42  1  0
 22 23  1  0
 22 24  2  0
 23 41  1  0
 25 26  1  0
 25 43  1  6
 26 27  1  0
 27 28  1  0
 27 29  2  0
 28 32  1  0
 30 31  2  0
 32 33  1  0
 34 35  1  6
 34 38  1  0
 35 36  1  0
 36 37  2  0
 38 39  1  6
 38 40  1  0
 41 42  1  0
A    1
 C01
A    2
 C1 
A    3
 C02
A    4
 C2 
A    5
 C3 
A    6
 O03
A    7
 C04
A    8
 C4 
A    9
 O4 
A   10
 C05
A   11
 N5 
A   12
 C06
A   13
 C07
A   14
 C08
A   15
 C09
A   16
 C10
A   17
 C11
A   18
 N12
A   19
 C13
A   20
 C14
A   21
 C15
A   22
 C16
A   23
 N17
A   24
 O18
A   25
 C19
A   26
 C20
A   27
 C21
A   28
 O22
A   29
 O23
A   30
 C47
A   31
 O48
A   32
 C50
A   33
 C53
A   34
 C57
A   35
 N58
A   36
 C59
A   37
 O60
A   38
 C78
A   39
 C81
A   40
 C82
A   41
 C83
A   42
 C84
A   43
 X  
A   44
 F1 
M  END
>  <XChem_code>  (48) 
AG7ยง15

>  <Occupancy>  (48) 
[1.0, 1.0, 1.0, 1.0, 1.0, 1.0, 1.0, 1.0, 1.0, 1.0, 1.0, 1.0, 1.0, 1.0, 1.0, 1.0, 1.0, 1.0, 1.0, 1.0, 1.0, 1.0, 1.0, 1.0, 1.0, 1.0, 1.0, 1.0, 1.0, 1.0, 1.0, 1.0, 1.0, 1.0, 1.0, 1.0, 1.0, 1.0, 1.0, 1.0, 1.0, 1.0, 1.0, 1.0]

>  <TempFactor>  (48) 
[12.98, 15.43, 16.61, 19.69, 23.89, 14.12, 16.1, 34.07, 24.15, 23.6, 19.8, 36.41, 43.64, 51.31, 50.86, 49.57, 44.51, 14.55, 14.73, 14.75, 11.27, 13.85, 16.4, 13.19, 18.09, 14.92, 20.22, 29.9, 19.24, 15.6, 19.99, 41.65, 55.38, 12.33, 11.52, 17.24, 18.4, 14.94, 20.05, 17.99, 17.18, 16.04, 15.49, 50.95]

>  <accession>  (48) 
3QZQ_A

>  <description>  (48) 
Chain A, 3C protein [Enterovirus A71]

>  <evalue>  (48) 
7.17784e-59

>  <pdb_code>  (48) 
3QZQ

>  <chain>  (48) 
A

>  <ligands>  (48) 
[{'chain_id': 'A', 'author_residue_number': 501, 'author_insertion_code': '', 'chem_comp_id': 'AG7', 'alternate_conformers': 0, 'entity_id': 2, 'struct_asym_id': 'E', 'residue_number': 1, 'chem_comp_name': '4-{2-(4-FLUORO-BENZYL)-6-METHYL-5-[(5-METHYL-ISOXAZOLE-3-CARBONYL)-AMINO]-4-OXO-HEPTANOYLAMINO}-5-(2-OXO-PYRROLIDIN-3-YL)-PENTANOIC ACID ETHYL ESTER', 'weight': 600.678, 'carbohydrate_polymer': False, 'branch_name': ''}, {'chain_id': 'B', 'author_residue_number': 501, 'author_insertion_code': '', 'chem_comp_id': 'AG7', 'alternate_conformers': 0, 'entity_id': 2, 'struct_asym_id': 'F', 'residue_number': 1, 'chem_comp_name': '4-{2-(4-FLUORO-BENZYL)-6-METHYL-5-[(5-METHYL-ISOXAZOLE-3-CARBONYL)-AMINO]-4-OXO-HEPTANOYLAMINO}-5-(2-OXO-PYRROLIDIN-3-YL)-PENTANOIC ACID ETHYL ESTER', 'weight': 600.678, 'carbohydrate_polymer': False, 'branch_name': ''}, {'chain_id': 'C', 'author_residue_number': 501, 'author_insertion_code': '', 'chem_comp_id': 'AG7', 'alternate_conformers': 0, 'entity_id': 2, 'struct_asym_id': 'G', 'residue_number': 1, 'chem_comp_name': '4-{2-(4-FLUORO-BENZYL)-6-METHYL-5-[(5-METHYL-ISOXAZOLE-3-CARBONYL)-AMINO]-4-OXO-HEPTANOYLAMINO}-5-(2-OXO-PYRROLIDIN-3-YL)-PENTANOIC ACID ETHYL ESTER', 'weight': 600.678, 'carbohydrate_polymer': False, 'branch_name': ''}, {'chain_id': 'D', 'author_residue_number': 501, 'author_insertion_code': '', 'chem_comp_id': 'AG7', 'alternate_conformers': 0, 'entity_id': 2, 'struct_asym_id': 'H', 'residue_number': 1, 'chem_comp_name': '4-{2-(4-FLUORO-BENZYL)-6-METHYL-5-[(5-METHYL-ISOXAZOLE-3-CARBONYL)-AMINO]-4-OXO-HEPTANOYLAMINO}-5-(2-OXO-PYRROLIDIN-3-YL)-PENTANOIC ACID ETHYL ESTER', 'weight': 600.678, 'carbohydrate_polymer': False, 'branch_name': ''}]

>  <ligand_codes>  (48) 
['AG7', 'AG7', 'AG7', 'AG7']

>  <cofactor_codes>  (48) 
[]

>  <has_cofactor>  (48) 
False

>  <covalent>  (48) 
True

>  <base_name>  (48) 
3QZQ

>  <lig_resn>  (48) 
AG7

>  <lig_resi>  (48) 
501

>  <lig_chain>  (48) 
D

>  <lig_segi>  (48) 
H

>  <lig_alt>  (48) 


>  <polymer_chain>  (48) 
A

>  <single_smiles>  (48) 
CCOC(=O)CC[C@H](C[C@@H]1CCNC1=O)NC(=O)[C@@H](CC(=O)[C@@H](NC(=O)c2cc(C)on2)C(C)C)Cc3ccc(F)cc3

$$$$
AG7ยง16
     RDKit          3D

 44 46  0  0  0  0  0  0  0  0999 V2000
  -30.4400   19.5590  -55.8400 C   0  0  0  0  0  0  0  0  0  0  0  0
  -34.4530   18.8980  -53.3520 C   0  0  0  0  0  0  0  0  0  0  0  0
  -28.9320   19.2810  -55.8560 C   0  0  0  0  0  0  0  0  0  0  0  0
  -35.1500   18.5240  -52.1190 C   0  0  0  0  0  0  0  0  0  0  0  0
  -36.2980   19.3940  -52.1060 C   0  0  0  0  0  0  0  0  0  0  0  0
  -30.9080   20.6900  -55.8820 O   0  0  0  0  0  0  0  0  0  0  0  0
  -28.1320   20.5800  -56.0130 C   0  0  1  0  0  0  0  0  0  0  0  0
  -37.3720   19.4370  -51.0570 C   0  0  0  0  0  0  0  0  0  0  0  0
  -36.2170   20.1500  -53.1960 O   0  0  0  0  0  0  0  0  0  0  0  0
  -26.6420   20.2950  -56.0660 C   0  0  0  0  0  0  0  0  0  0  0  0
  -35.1530   19.8700  -53.9210 N   0  0  0  0  0  0  0  0  0  0  0  0
  -26.1890   19.7820  -54.7080 C   0  0  0  0  0  0  0  0  0  0  0  0
  -26.2810   20.5960  -53.5890 C   0  0  0  0  0  0  0  0  0  0  0  0
  -25.8570   20.1130  -52.3440 C   0  0  0  0  0  0  0  0  0  0  0  0
  -25.3560   18.8120  -52.2330 C   0  0  0  0  0  0  0  0  0  0  0  0
  -25.2650   17.9940  -53.3560 C   0  0  0  0  0  0  0  0  0  0  0  0
  -25.6830   18.4780  -54.6040 C   0  0  0  0  0  0  0  0  0  0  0  0
  -28.5630   22.7790  -57.2940 N   0  0  0  0  0  0  0  0  0  0  0  0
  -28.6750   23.4880  -58.5860 C   0  0  1  0  0  0  0  0  0  0  0  0
  -30.0200   24.1910  -58.7160 C   0  0  0  0  0  0  0  0  0  0  0  0
  -31.1670   23.1940  -58.6480 C   0  0  1  0  0  0  0  0  0  0  0  0
  -32.4840   23.8680  -58.8290 C   0  0  0  0  0  0  0  0  0  0  0  0
  -33.2930   23.0420  -59.6570 N   0  0  0  0  0  0  0  0  0  0  0  0
  -32.8380   24.9400  -58.3600 O   0  0  0  0  0  0  0  0  0  0  0  0
  -27.5080   24.4570  -58.8010 C   0  0  2  0  0  0  0  0  0  0  0  0
  -26.1680   23.7390  -58.7980 C   0  0  0  0  0  0  0  0  0  0  0  0
  -26.0530   22.9090  -60.0690 C   0  0  0  0  0  0  0  0  0  0  0  0
  -25.2940   21.8680  -60.1060 O   0  0  0  0  0  0  0  0  0  0  0  0
  -26.6030   23.3250  -61.1160 O   0  0  0  0  0  0  0  0  0  0  0  0
  -28.4660   21.3210  -57.2940 C   0  0  0  0  0  0  0  0  0  0  0  0
  -28.4570   20.7170  -58.3500 O   0  0  0  0  0  0  0  0  0  0  0  0
  -25.2630   21.0530  -61.2420 C   0  0  0  0  0  0  0  0  0  0  0  0
  -26.4100   20.0750  -61.2060 C   0  0  0  0  0  0  0  0  0  0  0  0
  -31.3850   18.3490  -55.6640 C   0  0  1  0  0  0  0  0  0  0  0  0
  -32.6670   18.8110  -55.1440 N   0  0  0  0  0  0  0  0  0  0  0  0
  -33.1700   18.3100  -53.8800 C   0  0  0  0  0  0  0  0  0  0  0  0
  -32.5250   17.5460  -53.1900 O   0  0  0  0  0  0  0  0  0  0  0  0
  -31.5460   17.5230  -56.9390 C   0  0  1  0  0  0  0  0  0  0  0  0
  -32.5310   16.4120  -56.6770 C   0  0  0  0  0  0  0  0  0  0  0  0
  -32.0270   18.3730  -58.0680 C   0  0  0  0  0  0  0  0  0  0  0  0
  -32.5700   21.8140  -59.9340 C   0  0  0  0  0  0  0  0  0  0  0  0
  -31.1130   22.1800  -59.7480 C   0  0  0  0  0  0  0  0  0  0  0  0
  -27.4210   25.4460  -57.1130 R   0  0  0  0  0  0  0  0  0  0  0  0
  -24.9610   18.3580  -51.0410 F   0  0  0  0  0  0  0  0  0  0  0  0
  1  3  1  0
  1  6  2  0
  1 34  1  0
  2  4  1  0
  2 11  2  0
  2 36  1  0
  7  3  1  6
  4  5  2  0
  5  8  1  0
  5  9  1  0
  7 10  1  0
  7 30  1  0
  9 11  1  0
 10 12  1  0
 12 13  2  0
 12 17  1  0
 13 14  1  0
 14 15  2  0
 15 16  1  0
 15 44  1  0
 16 17  2  0
 18 19  1  0
 18 30  1  0
 19 20  1  1
 19 25  1  0
 21 20  1  6
 21 22  1  0
 21 42  1  0
 22 23  1  0
 22 24  2  0
 23 41  1  0
 25 26  1  0
 25 43  1  1
 26 27  1  0
 27 28  1  0
 27 29  2  0
 28 32  1  0
 30 31  2  0
 32 33  1  0
 34 35  1  6
 34 38  1  0
 35 36  1  0
 36 37  2  0
 38 39  1  1
 38 40  1  0
 41 42  1  0
A    1
 C01
A    2
 C1 
A    3
 C02
A    4
 C2 
A    5
 C3 
A    6
 O03
A    7
 C04
A    8
 C4 
A    9
 O4 
A   10
 C05
A   11
 N5 
A   12
 C06
A   13
 C07
A   14
 C08
A   15
 C09
A   16
 C10
A   17
 C11
A   18
 N12
A   19
 C13
A   20
 C14
A   21
 C15
A   22
 C16
A   23
 N17
A   24
 O18
A   25
 C19
A   26
 C20
A   27
 C21
A   28
 O22
A   29
 O23
A   30
 C47
A   31
 O48
A   32
 C50
A   33
 C53
A   34
 C57
A   35
 N58
A   36
 C59
A   37
 O60
A   38
 C78
A   39
 C81
A   40
 C82
A   41
 C83
A   42
 C84
A   43
 X  
A   44
 F1 
M  END
>  <XChem_code>  (49) 
AG7ยง16

>  <Occupancy>  (49) 
[1.0, 1.0, 1.0, 1.0, 1.0, 1.0, 1.0, 1.0, 1.0, 1.0, 1.0, 1.0, 1.0, 1.0, 1.0, 1.0, 1.0, 1.0, 1.0, 1.0, 1.0, 1.0, 1.0, 1.0, 1.0, 1.0, 1.0, 1.0, 1.0, 1.0, 1.0, 1.0, 1.0, 1.0, 1.0, 1.0, 1.0, 1.0, 1.0, 1.0, 1.0, 1.0, 1.0, 1.0]

>  <TempFactor>  (49) 
[14.62, 14.46, 17.04, 19.15, 23.7, 13.27, 17.43, 29.85, 24.44, 22.81, 19.42, 29.72, 34.05, 39.35, 40.16, 39.98, 34.77, 14.26, 15.43, 13.55, 13.23, 13.71, 16.28, 13.94, 20.49, 18.47, 22.12, 30.11, 20.47, 17.58, 19.93, 41.78, 47.97, 12.51, 13.47, 15.86, 17.26, 14.02, 15.29, 19.15, 16.68, 18.54, 15.25, 42.65]

>  <accession>  (49) 
3QZQ_A

>  <description>  (49) 
Chain A, 3C protein [Enterovirus A71]

>  <evalue>  (49) 
7.17784e-59

>  <pdb_code>  (49) 
3QZQ

>  <chain>  (49) 
A

>  <ligands>  (49) 
[{'chain_id': 'A', 'author_residue_number': 501, 'author_insertion_code': '', 'chem_comp_id': 'AG7', 'alternate_conformers': 0, 'entity_id': 2, 'struct_asym_id': 'E', 'residue_number': 1, 'chem_comp_name': '4-{2-(4-FLUORO-BENZYL)-6-METHYL-5-[(5-METHYL-ISOXAZOLE-3-CARBONYL)-AMINO]-4-OXO-HEPTANOYLAMINO}-5-(2-OXO-PYRROLIDIN-3-YL)-PENTANOIC ACID ETHYL ESTER', 'weight': 600.678, 'carbohydrate_polymer': False, 'branch_name': ''}, {'chain_id': 'B', 'author_residue_number': 501, 'author_insertion_code': '', 'chem_comp_id': 'AG7', 'alternate_conformers': 0, 'entity_id': 2, 'struct_asym_id': 'F', 'residue_number': 1, 'chem_comp_name': '4-{2-(4-FLUORO-BENZYL)-6-METHYL-5-[(5-METHYL-ISOXAZOLE-3-CARBONYL)-AMINO]-4-OXO-HEPTANOYLAMINO}-5-(2-OXO-PYRROLIDIN-3-YL)-PENTANOIC ACID ETHYL ESTER', 'weight': 600.678, 'carbohydrate_polymer': False, 'branch_name': ''}, {'chain_id': 'C', 'author_residue_number': 501, 'author_insertion_code': '', 'chem_comp_id': 'AG7', 'alternate_conformers': 0, 'entity_id': 2, 'struct_asym_id': 'G', 'residue_number': 1, 'chem_comp_name': '4-{2-(4-FLUORO-BENZYL)-6-METHYL-5-[(5-METHYL-ISOXAZOLE-3-CARBONYL)-AMINO]-4-OXO-HEPTANOYLAMINO}-5-(2-OXO-PYRROLIDIN-3-YL)-PENTANOIC ACID ETHYL ESTER', 'weight': 600.678, 'carbohydrate_polymer': False, 'branch_name': ''}, {'chain_id': 'D', 'author_residue_number': 501, 'author_insertion_code': '', 'chem_comp_id': 'AG7', 'alternate_conformers': 0, 'entity_id': 2, 'struct_asym_id': 'H', 'residue_number': 1, 'chem_comp_name': '4-{2-(4-FLUORO-BENZYL)-6-METHYL-5-[(5-METHYL-ISOXAZOLE-3-CARBONYL)-AMINO]-4-OXO-HEPTANOYLAMINO}-5-(2-OXO-PYRROLIDIN-3-YL)-PENTANOIC ACID ETHYL ESTER', 'weight': 600.678, 'carbohydrate_polymer': False, 'branch_name': ''}]

>  <ligand_codes>  (49) 
['AG7', 'AG7', 'AG7', 'AG7']

>  <cofactor_codes>  (49) 
[]

>  <has_cofactor>  (49) 
False

>  <covalent>  (49) 
True

>  <base_name>  (49) 
3QZQ

>  <lig_resn>  (49) 
AG7

>  <lig_resi>  (49) 
501

>  <lig_chain>  (49) 
C

>  <lig_segi>  (49) 
G

>  <lig_alt>  (49) 


>  <polymer_chain>  (49) 
A

>  <single_smiles>  (49) 
CCOC(=O)CC[C@H](C[C@@H]1CCNC1=O)NC(=O)[C@@H](CC(=O)[C@@H](NC(=O)c2cc(C)on2)C(C)C)Cc3ccc(F)cc3

$$$$
AG7ยง17
     RDKit          3D

 43 45  0  0  0  0  0  0  0  0999 V2000
   -8.8710   15.0620  -33.3170 C   0  0  0  0  0  0  0  0  0  0  0  0
  -10.4440   17.9550  -29.9640 C   0  0  0  0  0  0  0  0  0  0  0  0
   -9.1800   14.8060  -34.8540 C   0  0  0  0  0  0  0  0  0  0  0  0
  -11.4110   18.8030  -29.4810 C   0  0  0  0  0  0  0  0  0  0  0  0
  -11.4910   18.5900  -28.1400 C   0  0  0  0  0  0  0  0  0  0  0  0
   -9.0090   14.2040  -32.4740 O   0  0  0  0  0  0  0  0  0  0  0  0
   -9.5280   13.3240  -35.1010 C   0  0  1  0  0  0  0  0  0  0  0  0
  -12.4230   19.2880  -27.1820 C   0  0  0  0  0  0  0  0  0  0  0  0
  -10.5980   17.6430  -27.8020 O   0  0  0  0  0  0  0  0  0  0  0  0
   -9.8460   13.1390  -36.6190 C   0  0  0  0  0  0  0  0  0  0  0  0
   -9.9470   17.2590  -28.9530 N   0  0  0  0  0  0  0  0  0  0  0  0
  -11.3040   13.7480  -36.8430 C   0  0  0  0  0  0  0  0  0  0  0  0
  -11.4550   14.8980  -37.6180 C   0  0  0  0  0  0  0  0  0  0  0  0
  -12.7210   15.4360  -37.8160 C   0  0  0  0  0  0  0  0  0  0  0  0
  -13.8390   14.8280  -37.2230 C   0  0  0  0  0  0  0  0  0  0  0  0
  -13.6940   13.6900  -36.4410 C   0  0  0  0  0  0  0  0  0  0  0  0
  -12.4120   13.1420  -36.2450 C   0  0  0  0  0  0  0  0  0  0  0  0
   -8.6980   11.1750  -34.0820 N   0  0  0  0  0  0  0  0  0  0  0  0
   -7.4890   10.4020  -33.7670 C   0  0  1  0  0  0  0  0  0  0  0  0
   -7.5780   10.0070  -32.2880 C   0  0  0  0  0  0  0  0  0  0  0  0
   -7.0980   11.3050  -31.5740 C   0  0  1  0  0  0  0  0  0  0  0  0
   -7.0220   11.0820  -29.9910 C   0  0  0  0  0  0  0  0  0  0  0  0
   -6.0040   11.8390  -29.5420 N   0  0  0  0  0  0  0  0  0  0  0  0
   -7.7390   10.4090  -29.3110 O   0  0  0  0  0  0  0  0  0  0  0  0
   -7.1530    9.1720  -34.5770 C   0  0  0  0  0  0  0  0  0  0  0  0
   -7.7220    9.1500  -35.9970 C   0  0  0  0  0  0  0  0  0  0  0  0
   -6.3220    9.0870  -36.5370 C   0  0  0  0  0  0  0  0  0  0  0  0
   -5.9840    9.6800  -37.7630 O   0  0  0  0  0  0  0  0  0  0  0  0
   -5.5050    8.5250  -35.8520 O   0  0  0  0  0  0  0  0  0  0  0  0
   -8.3800   12.4380  -34.7380 C   0  0  0  0  0  0  0  0  0  0  0  0
   -7.2410   12.6640  -34.9600 O   0  0  0  0  0  0  0  0  0  0  0  0
   -5.1310    8.8390  -38.5240 C   0  0  0  0  0  0  0  0  0  0  0  0
   -5.9360    8.4070  -39.7210 C   0  0  0  0  0  0  0  0  0  0  0  0
   -8.3700   16.4870  -32.8980 C   0  0  1  0  0  0  0  0  0  0  0  0
   -8.9480   16.7880  -31.6380 N   0  0  0  0  0  0  0  0  0  0  0  0
   -9.9620   17.8080  -31.4350 C   0  0  0  0  0  0  0  0  0  0  0  0
  -10.3830   18.4720  -32.3140 O   0  0  0  0  0  0  0  0  0  0  0  0
   -6.8170   16.5120  -32.7400 C   0  0  1  0  0  0  0  0  0  0  0  0
   -6.0760   16.0060  -34.0310 C   0  0  0  0  0  0  0  0  0  0  0  0
   -6.4170   17.9840  -32.4950 C   0  0  0  0  0  0  0  0  0  0  0  0
   -5.3380   12.5590  -30.7110 C   0  0  0  0  0  0  0  0  0  0  0  0
   -5.8430   11.7240  -31.9670 C   0  0  0  0  0  0  0  0  0  0  0  0
  -15.0820   15.3630  -37.4180 F   0  0  0  0  0  0  0  0  0  0  0  0
  1  3  1  0
  1  6  2  0
  1 34  1  0
  2  4  1  0
  2 11  2  0
  2 36  1  0
  7  3  1  6
  4  5  2  0
  5  8  1  0
  5  9  1  0
  7 10  1  0
  7 30  1  0
  9 11  1  0
 10 12  1  0
 12 13  2  0
 12 17  1  0
 13 14  1  0
 14 15  2  0
 15 16  1  0
 15 43  1  0
 16 17  2  0
 18 19  1  0
 18 30  1  0
 19 20  1  1
 19 25  1  0
 21 20  1  6
 21 22  1  0
 21 42  1  0
 22 23  1  0
 22 24  2  0
 23 41  1  0
 25 26  1  0
 26 27  1  0
 27 28  1  0
 27 29  2  0
 28 32  1  0
 30 31  2  0
 32 33  1  0
 34 35  1  1
 34 38  1  0
 35 36  1  0
 36 37  2  0
 38 39  1  6
 38 40  1  0
 41 42  1  0
A    1
 C01
A    2
 C1 
A    3
 C02
A    4
 C2 
A    5
 C3 
A    6
 O03
A    7
 C04
A    8
 C4 
A    9
 O4 
A   10
 C05
A   11
 N5 
A   12
 C06
A   13
 C07
A   14
 C08
A   15
 C09
A   16
 C10
A   17
 C11
A   18
 N12
A   19
 C13
A   20
 C14
A   21
 C15
A   22
 C16
A   23
 N17
A   24
 O18
A   25
 C19
A   26
 C20
A   27
 C21
A   28
 O22
A   29
 O23
A   30
 C47
A   31
 O48
A   32
 C50
A   33
 C53
A   34
 C57
A   35
 N58
A   36
 C59
A   37
 O60
A   38
 C78
A   39
 C81
A   40
 C82
A   41
 C83
A   42
 C84
A   43
 F1 
M  END
>  <XChem_code>  (50) 
AG7ยง17

>  <Occupancy>  (50) 
[1.0, 1.0, 1.0, 1.0, 1.0, 1.0, 1.0, 1.0, 1.0, 1.0, 1.0, 1.0, 1.0, 1.0, 1.0, 1.0, 1.0, 1.0, 1.0, 1.0, 1.0, 1.0, 1.0, 1.0, 1.0, 1.0, 1.0, 1.0, 1.0, 1.0, 1.0, 1.0, 1.0, 1.0, 1.0, 1.0, 1.0, 1.0, 1.0, 1.0, 1.0, 1.0, 1.0]

>  <TempFactor>  (50) 
[11.58, 15.03, 11.83, 16.25, 16.92, 12.34, 10.54, 20.22, 18.19, 14.53, 16.52, 20.55, 23.87, 20.72, 31.66, 32.21, 24.48, 11.55, 13.92, 10.24, 11.44, 10.75, 11.87, 10.52, 48.42, 14.67, 18.9, 51.51, 20.99, 12.24, 12.71, 37.77, 32.69, 13.62, 12.02, 16.3, 16.59, 14.61, 20.42, 22.35, 13.24, 10.96, 27.55]

>  <accession>  (50) 
5WQ2_A

>  <description>  (50) 
Chain A, 3C protein [Enterovirus A71]

>  <evalue>  (50) 
1.45212e-58

>  <pdb_code>  (50) 
5WQ2

>  <chain>  (50) 
A

>  <ligands>  (50) 
[{'chain_id': 'A', 'author_residue_number': 301, 'author_insertion_code': '', 'chem_comp_id': 'AG7', 'alternate_conformers': 0, 'entity_id': 2, 'struct_asym_id': 'B', 'residue_number': 1, 'chem_comp_name': '4-{2-(4-FLUORO-BENZYL)-6-METHYL-5-[(5-METHYL-ISOXAZOLE-3-CARBONYL)-AMINO]-4-OXO-HEPTANOYLAMINO}-5-(2-OXO-PYRROLIDIN-3-YL)-PENTANOIC ACID ETHYL ESTER', 'weight': 600.678, 'carbohydrate_polymer': False, 'branch_name': ''}, {'chain_id': 'A', 'author_residue_number': 302, 'author_insertion_code': '', 'chem_comp_id': 'SO4', 'alternate_conformers': 0, 'entity_id': 3, 'struct_asym_id': 'C', 'residue_number': 1, 'chem_comp_name': 'SULFATE ION', 'weight': 96.063, 'carbohydrate_polymer': False, 'branch_name': ''}, {'chain_id': 'A', 'author_residue_number': 303, 'author_insertion_code': '', 'chem_comp_id': 'SO4', 'alternate_conformers': 0, 'entity_id': 3, 'struct_asym_id': 'D', 'residue_number': 1, 'chem_comp_name': 'SULFATE ION', 'weight': 96.063, 'carbohydrate_polymer': False, 'branch_name': ''}]

>  <ligand_codes>  (50) 
['AG7', 'SO4', 'SO4']

>  <cofactor_codes>  (50) 
[]

>  <has_cofactor>  (50) 
False

>  <covalent>  (50) 
False

>  <base_name>  (50) 
5WQ2

>  <lig_resn>  (50) 
AG7

>  <lig_resi>  (50) 
301

>  <lig_chain>  (50) 
A

>  <lig_segi>  (50) 
B

>  <lig_alt>  (50) 


>  <polymer_chain>  (50) 
A

>  <single_smiles>  (50) 
CCOC(=O)CC[C@H](C[C@@H]1CCNC1=O)NC(=O)[C@@H](CC(=O)[C@@H](NC(=O)c2cc(C)on2)C(C)C)Cc3ccc(F)cc3

$$$$
EDOยง13
     RDKit          3D

  4  3  0  0  0  0  0  0  0  0999 V2000
  -58.7040   21.7830  -24.9810 C   0  0  0  0  0  0  0  0  0  0  0  0
  -58.7500   20.6840  -25.8900 O   0  0  0  0  0  0  0  0  0  0  0  0
  -60.1120   22.3640  -24.8390 C   0  0  0  0  0  0  0  0  0  0  0  0
  -61.0110   21.4740  -24.1530 O   0  0  0  0  0  0  0  0  0  0  0  0
  1  2  1  0
  1  3  1  0
  3  4  1  0
A    1
 C1 
A    2
 O1 
A    3
 C2 
A    4
 O2 
M  END
>  <XChem_code>  (51) 
EDOยง13

>  <Occupancy>  (51) 
[1.0, 1.0, 1.0, 1.0]

>  <TempFactor>  (51) 
[20.0, 20.0, 20.0, 20.0]

>  <accession>  (51) 
3QZR_A

>  <description>  (51) 
Chain A, 3C protein [Enterovirus A71]

>  <evalue>  (51) 
1.4913e-58

>  <pdb_code>  (51) 
3QZR

>  <chain>  (51) 
A

>  <ligands>  (51) 
[{'chain_id': 'A', 'author_residue_number': 501, 'author_insertion_code': '', 'chem_comp_id': 'AG7', 'alternate_conformers': 0, 'entity_id': 2, 'struct_asym_id': 'C', 'residue_number': 1, 'chem_comp_name': '4-{2-(4-FLUORO-BENZYL)-6-METHYL-5-[(5-METHYL-ISOXAZOLE-3-CARBONYL)-AMINO]-4-OXO-HEPTANOYLAMINO}-5-(2-OXO-PYRROLIDIN-3-YL)-PENTANOIC ACID ETHYL ESTER', 'weight': 600.678, 'carbohydrate_polymer': False, 'branch_name': ''}, {'chain_id': 'B', 'author_residue_number': 501, 'author_insertion_code': '', 'chem_comp_id': 'AG7', 'alternate_conformers': 0, 'entity_id': 2, 'struct_asym_id': 'E', 'residue_number': 1, 'chem_comp_name': '4-{2-(4-FLUORO-BENZYL)-6-METHYL-5-[(5-METHYL-ISOXAZOLE-3-CARBONYL)-AMINO]-4-OXO-HEPTANOYLAMINO}-5-(2-OXO-PYRROLIDIN-3-YL)-PENTANOIC ACID ETHYL ESTER', 'weight': 600.678, 'carbohydrate_polymer': False, 'branch_name': ''}, {'chain_id': 'A', 'author_residue_number': 184, 'author_insertion_code': '', 'chem_comp_id': 'EDO', 'alternate_conformers': 0, 'entity_id': 3, 'struct_asym_id': 'D', 'residue_number': 1, 'chem_comp_name': '1,2-ETHANEDIOL', 'weight': 62.068, 'carbohydrate_polymer': False, 'branch_name': ''}, {'chain_id': 'B', 'author_residue_number': 184, 'author_insertion_code': '', 'chem_comp_id': 'EDO', 'alternate_conformers': 0, 'entity_id': 3, 'struct_asym_id': 'F', 'residue_number': 1, 'chem_comp_name': '1,2-ETHANEDIOL', 'weight': 62.068, 'carbohydrate_polymer': False, 'branch_name': ''}]

>  <ligand_codes>  (51) 
['AG7', 'AG7', 'EDO', 'EDO']

>  <cofactor_codes>  (51) 
[]

>  <has_cofactor>  (51) 
False

>  <covalent>  (51) 
False

>  <base_name>  (51) 
3QZR

>  <lig_resn>  (51) 
EDO

>  <lig_resi>  (51) 
184

>  <lig_chain>  (51) 
B

>  <lig_segi>  (51) 
F

>  <lig_alt>  (51) 


>  <polymer_chain>  (51) 
A

>  <single_smiles>  (51) 
OCCO

$$$$
EDOยง14
     RDKit          3D

  4  3  0  0  0  0  0  0  0  0999 V2000
   -3.5240    6.1840  -39.1480 C   0  0  0  0  0  0  0  0  0  0  0  0
   -3.0550    4.8290  -39.2730 O   0  0  0  0  0  0  0  0  0  0  0  0
   -5.0220    6.2950  -38.8410 C   0  0  0  0  0  0  0  0  0  0  0  0
   -5.3830    5.7350  -37.5790 O   0  0  0  0  0  0  0  0  0  0  0  0
  1  2  1  0
  1  3  1  0
  3  4  1  0
A    1
 C1 
A    2
 O1 
A    3
 C2 
A    4
 O2 
M  END
>  <XChem_code>  (52) 
EDOยง14

>  <Occupancy>  (52) 
[1.0, 1.0, 1.0, 1.0]

>  <TempFactor>  (52) 
[20.0, 20.0, 20.0, 20.0]

>  <accession>  (52) 
3QZR_A

>  <description>  (52) 
Chain A, 3C protein [Enterovirus A71]

>  <evalue>  (52) 
1.4913e-58

>  <pdb_code>  (52) 
3QZR

>  <chain>  (52) 
A

>  <ligands>  (52) 
[{'chain_id': 'A', 'author_residue_number': 501, 'author_insertion_code': '', 'chem_comp_id': 'AG7', 'alternate_conformers': 0, 'entity_id': 2, 'struct_asym_id': 'C', 'residue_number': 1, 'chem_comp_name': '4-{2-(4-FLUORO-BENZYL)-6-METHYL-5-[(5-METHYL-ISOXAZOLE-3-CARBONYL)-AMINO]-4-OXO-HEPTANOYLAMINO}-5-(2-OXO-PYRROLIDIN-3-YL)-PENTANOIC ACID ETHYL ESTER', 'weight': 600.678, 'carbohydrate_polymer': False, 'branch_name': ''}, {'chain_id': 'B', 'author_residue_number': 501, 'author_insertion_code': '', 'chem_comp_id': 'AG7', 'alternate_conformers': 0, 'entity_id': 2, 'struct_asym_id': 'E', 'residue_number': 1, 'chem_comp_name': '4-{2-(4-FLUORO-BENZYL)-6-METHYL-5-[(5-METHYL-ISOXAZOLE-3-CARBONYL)-AMINO]-4-OXO-HEPTANOYLAMINO}-5-(2-OXO-PYRROLIDIN-3-YL)-PENTANOIC ACID ETHYL ESTER', 'weight': 600.678, 'carbohydrate_polymer': False, 'branch_name': ''}, {'chain_id': 'A', 'author_residue_number': 184, 'author_insertion_code': '', 'chem_comp_id': 'EDO', 'alternate_conformers': 0, 'entity_id': 3, 'struct_asym_id': 'D', 'residue_number': 1, 'chem_comp_name': '1,2-ETHANEDIOL', 'weight': 62.068, 'carbohydrate_polymer': False, 'branch_name': ''}, {'chain_id': 'B', 'author_residue_number': 184, 'author_insertion_code': '', 'chem_comp_id': 'EDO', 'alternate_conformers': 0, 'entity_id': 3, 'struct_asym_id': 'F', 'residue_number': 1, 'chem_comp_name': '1,2-ETHANEDIOL', 'weight': 62.068, 'carbohydrate_polymer': False, 'branch_name': ''}]

>  <ligand_codes>  (52) 
['AG7', 'AG7', 'EDO', 'EDO']

>  <cofactor_codes>  (52) 
[]

>  <has_cofactor>  (52) 
False

>  <covalent>  (52) 
False

>  <base_name>  (52) 
3QZR

>  <lig_resn>  (52) 
EDO

>  <lig_resi>  (52) 
184

>  <lig_chain>  (52) 
A

>  <lig_segi>  (52) 
D

>  <lig_alt>  (52) 


>  <polymer_chain>  (52) 
A

>  <single_smiles>  (52) 
OCCO

$$$$
AG7ยง18
     RDKit          3D

 44 46  0  0  0  0  0  0  0  0999 V2000
  -52.2970   25.8660  -32.5850 C   0  0  0  0  0  0  0  0  0  0  0  0
  -50.0000   26.6120  -36.6650 C   0  0  0  0  0  0  0  0  0  0  0  0
  -52.1910   26.0590  -31.0710 C   0  0  0  0  0  0  0  0  0  0  0  0
  -48.7760   26.8860  -37.4160 C   0  0  0  0  0  0  0  0  0  0  0  0
  -48.9190   26.2960  -38.5880 C   0  0  0  0  0  0  0  0  0  0  0  0
  -52.5390   24.7960  -33.1000 O   0  0  0  0  0  0  0  0  0  0  0  0
  -52.4600   24.7690  -30.2940 C   0  0  1  0  0  0  0  0  0  0  0  0
  -47.8860   26.2350  -39.6830 C   0  0  0  0  0  0  0  0  0  0  0  0
  -50.1200   25.5980  -38.5570 O   0  0  0  0  0  0  0  0  0  0  0  0
  -52.3810   24.9460  -28.7940 C   0  0  0  0  0  0  0  0  0  0  0  0
  -50.7820   25.8230  -37.3900 N   0  0  0  0  0  0  0  0  0  0  0  0
  -51.0110   25.4260  -28.3880 C   0  0  0  0  0  0  0  0  0  0  0  0
  -49.9550   24.5820  -28.4300 C   0  0  0  0  0  0  0  0  0  0  0  0
  -48.6070   25.0650  -27.9950 C   0  0  0  0  0  0  0  0  0  0  0  0
  -48.4590   26.3380  -27.5610 C   0  0  0  0  0  0  0  0  0  0  0  0
  -49.6290   27.2560  -27.4840 C   0  0  0  0  0  0  0  0  0  0  0  0
  -50.8480   26.8320  -27.9120 C   0  0  0  0  0  0  0  0  0  0  0  0
  -53.9670   22.8260  -30.7870 N   0  0  0  0  0  0  0  0  0  0  0  0
  -55.2950   22.2030  -30.8320 C   0  0  1  0  0  0  0  0  0  0  0  0
  -55.5550   21.6480  -32.2220 C   0  0  0  0  0  0  0  0  0  0  0  0
  -55.4900   22.7270  -33.3170 C   0  0  1  0  0  0  0  0  0  0  0  0
  -55.7510   22.1490  -34.6430 C   0  0  0  0  0  0  0  0  0  0  0  0
  -56.4830   23.1170  -35.4040 N   0  0  0  0  0  0  0  0  0  0  0  0
  -55.4310   21.0480  -35.0510 O   0  0  0  0  0  0  0  0  0  0  0  0
  -55.3980   21.1600  -29.7160 C   0  0  2  0  0  0  0  0  0  0  0  0
  -55.3830   21.7230  -28.3040 C   0  0  0  0  0  0  0  0  0  0  0  0
  -56.5360   22.6760  -28.1170 C   0  0  0  0  0  0  0  0  0  0  0  0
  -56.3130   23.8030  -27.5480 O   0  0  0  0  0  0  0  0  0  0  0  0
  -57.6490   22.4070  -28.5950 O   0  0  0  0  0  0  0  0  0  0  0  0
  -53.8440   24.2710  -30.6170 C   0  0  0  0  0  0  0  0  0  0  0  0
  -54.8290   24.9800  -30.5210 O   0  0  0  0  0  0  0  0  0  0  0  0
  -57.3210   24.7360  -27.3700 C   0  0  0  0  0  0  0  0  0  0  0  0
  -56.6840   26.0990  -27.1840 C   0  0  0  0  0  0  0  0  0  0  0  0
  -52.0190   27.1220  -33.4380 C   0  0  1  0  0  0  0  0  0  0  0  0
  -51.6360   26.7680  -34.7850 N   0  0  0  0  0  0  0  0  0  0  0  0
  -50.3280   27.1140  -35.2910 C   0  0  0  0  0  0  0  0  0  0  0  0
  -49.5560   27.7870  -34.6390 O   0  0  0  0  0  0  0  0  0  0  0  0
  -53.1680   28.1270  -33.4400 C   0  0  1  0  0  0  0  0  0  0  0  0
  -52.8520   29.2930  -34.3730 C   0  0  0  0  0  0  0  0  0  0  0  0
  -54.4660   27.4580  -33.8330 C   0  0  0  0  0  0  0  0  0  0  0  0
  -56.6990   24.3160  -34.6060 C   0  0  0  0  0  0  0  0  0  0  0  0
  -56.5160   23.8170  -33.1810 C   0  0  0  0  0  0  0  0  0  0  0  0
  -53.9250   20.0160  -29.8960 R   0  0  0  0  0  0  0  0  0  0  0  0
  -47.2690   26.7560  -27.1700 F   0  0  0  0  0  0  0  0  0  0  0  0
  1  3  1  0
  1  6  2  0
  1 34  1  0
  2  4  1  0
  2 11  2  0
  2 36  1  0
  7  3  1  6
  4  5  2  0
  5  8  1  0
  5  9  1  0
  7 10  1  0
  7 30  1  0
  9 11  1  0
 10 12  1  0
 12 13  2  0
 12 17  1  0
 13 14  1  0
 14 15  2  0
 15 16  1  0
 15 44  1  0
 16 17  2  0
 18 19  1  0
 18 30  1  0
 19 20  1  6
 19 25  1  0
 21 20  1  1
 21 22  1  0
 21 42  1  0
 22 23  1  0
 22 24  2  0
 23 41  1  0
 25 26  1  0
 25 43  1  1
 26 27  1  0
 27 28  1  0
 27 29  2  0
 28 32  1  0
 30 31  2  0
 32 33  1  0
 34 35  1  6
 34 38  1  0
 35 36  1  0
 36 37  2  0
 38 39  1  6
 38 40  1  0
 41 42  1  0
A    1
 C01
A    2
 C1 
A    3
 C02
A    4
 C2 
A    5
 C3 
A    6
 O03
A    7
 C04
A    8
 C4 
A    9
 O4 
A   10
 C05
A   11
 N5 
A   12
 C06
A   13
 C07
A   14
 C08
A   15
 C09
A   16
 C10
A   17
 C11
A   18
 N12
A   19
 C13
A   20
 C14
A   21
 C15
A   22
 C16
A   23
 N17
A   24
 O18
A   25
 C19
A   26
 C20
A   27
 C21
A   28
 O22
A   29
 O23
A   30
 C47
A   31
 O48
A   32
 C50
A   33
 C53
A   34
 C57
A   35
 N58
A   36
 C59
A   37
 O60
A   38
 C78
A   39
 C81
A   40
 C82
A   41
 C83
A   42
 C84
A   43
 X  
A   44
 F1 
M  END
>  <XChem_code>  (53) 
AG7ยง18

>  <Occupancy>  (53) 
[1.0, 1.0, 1.0, 1.0, 1.0, 1.0, 1.0, 0.79, 0.7, 1.0, 0.85, 0.99, 1.0, 0.86, 1.0, 0.87, 0.92, 1.0, 1.0, 1.0, 1.0, 1.0, 1.0, 0.87, 1.0, 1.0, 0.98, 0.94, 0.9, 1.0, 0.94, 0.95, 0.82, 1.0, 1.0, 1.0, 0.95, 1.0, 1.0, 1.0, 1.0, 1.0, 1.0, 0.69]

>  <TempFactor>  (53) 
[9.48, 14.29, 10.87, 16.46, 18.13, 9.12, 11.49, 21.42, 18.44, 13.15, 16.83, 15.37, 16.7, 18.54, 19.11, 18.97, 17.73, 9.44, 9.49, 9.68, 9.34, 8.89, 10.39, 7.42, 9.6, 11.68, 13.49, 16.09, 12.64, 10.43, 11.51, 20.17, 22.68, 9.83, 10.94, 12.33, 13.55, 11.54, 13.25, 13.0, 11.3, 10.49, 9.16, 21.06]

>  <accession>  (53) 
3QZR_A

>  <description>  (53) 
Chain A, 3C protein [Enterovirus A71]

>  <evalue>  (53) 
1.4913e-58

>  <pdb_code>  (53) 
3QZR

>  <chain>  (53) 
A

>  <ligands>  (53) 
[{'chain_id': 'A', 'author_residue_number': 501, 'author_insertion_code': '', 'chem_comp_id': 'AG7', 'alternate_conformers': 0, 'entity_id': 2, 'struct_asym_id': 'C', 'residue_number': 1, 'chem_comp_name': '4-{2-(4-FLUORO-BENZYL)-6-METHYL-5-[(5-METHYL-ISOXAZOLE-3-CARBONYL)-AMINO]-4-OXO-HEPTANOYLAMINO}-5-(2-OXO-PYRROLIDIN-3-YL)-PENTANOIC ACID ETHYL ESTER', 'weight': 600.678, 'carbohydrate_polymer': False, 'branch_name': ''}, {'chain_id': 'B', 'author_residue_number': 501, 'author_insertion_code': '', 'chem_comp_id': 'AG7', 'alternate_conformers': 0, 'entity_id': 2, 'struct_asym_id': 'E', 'residue_number': 1, 'chem_comp_name': '4-{2-(4-FLUORO-BENZYL)-6-METHYL-5-[(5-METHYL-ISOXAZOLE-3-CARBONYL)-AMINO]-4-OXO-HEPTANOYLAMINO}-5-(2-OXO-PYRROLIDIN-3-YL)-PENTANOIC ACID ETHYL ESTER', 'weight': 600.678, 'carbohydrate_polymer': False, 'branch_name': ''}, {'chain_id': 'A', 'author_residue_number': 184, 'author_insertion_code': '', 'chem_comp_id': 'EDO', 'alternate_conformers': 0, 'entity_id': 3, 'struct_asym_id': 'D', 'residue_number': 1, 'chem_comp_name': '1,2-ETHANEDIOL', 'weight': 62.068, 'carbohydrate_polymer': False, 'branch_name': ''}, {'chain_id': 'B', 'author_residue_number': 184, 'author_insertion_code': '', 'chem_comp_id': 'EDO', 'alternate_conformers': 0, 'entity_id': 3, 'struct_asym_id': 'F', 'residue_number': 1, 'chem_comp_name': '1,2-ETHANEDIOL', 'weight': 62.068, 'carbohydrate_polymer': False, 'branch_name': ''}]

>  <ligand_codes>  (53) 
['AG7', 'AG7', 'EDO', 'EDO']

>  <cofactor_codes>  (53) 
[]

>  <has_cofactor>  (53) 
False

>  <covalent>  (53) 
True

>  <base_name>  (53) 
3QZR

>  <lig_resn>  (53) 
AG7

>  <lig_resi>  (53) 
501

>  <lig_chain>  (53) 
B

>  <lig_segi>  (53) 
E

>  <lig_alt>  (53) 


>  <polymer_chain>  (53) 
A

>  <single_smiles>  (53) 
CCOC(=O)CC[C@H](C[C@@H]1CCNC1=O)NC(=O)[C@@H](CC(=O)[C@@H](NC(=O)c2cc(C)on2)C(C)C)Cc3ccc(F)cc3

$$$$
AG7ยง19
     RDKit          3D

 44 46  0  0  0  0  0  0  0  0999 V2000
   -8.6230   14.9040  -33.3450 C   0  0  0  0  0  0  0  0  0  0  0  0
  -10.2350   17.7380  -29.9200 C   0  0  0  0  0  0  0  0  0  0  0  0
   -8.7610   14.6330  -34.8480 C   0  0  0  0  0  0  0  0  0  0  0  0
  -11.1830   18.7320  -29.4090 C   0  0  0  0  0  0  0  0  0  0  0  0
  -11.2610   18.5430  -28.1050 C   0  0  0  0  0  0  0  0  0  0  0  0
   -8.8100   14.0450  -32.5010 O   0  0  0  0  0  0  0  0  0  0  0  0
   -9.0610   13.1510  -35.1400 C   0  0  1  0  0  0  0  0  0  0  0  0
  -12.1530   19.2960  -27.1450 C   0  0  0  0  0  0  0  0  0  0  0  0
  -10.4800   17.4310  -27.8070 O   0  0  0  0  0  0  0  0  0  0  0  0
   -9.1160   12.8370  -36.6190 C   0  0  0  0  0  0  0  0  0  0  0  0
   -9.8640   16.9490  -28.9170 N   0  0  0  0  0  0  0  0  0  0  0  0
  -10.1920   13.6740  -37.2710 C   0  0  0  0  0  0  0  0  0  0  0  0
  -11.5030   13.4290  -37.0200 C   0  0  0  0  0  0  0  0  0  0  0  0
  -12.5530   14.2540  -37.7000 C   0  0  0  0  0  0  0  0  0  0  0  0
  -12.1760   15.2480  -38.5460 C   0  0  0  0  0  0  0  0  0  0  0  0
  -10.7360   15.4850  -38.8530 C   0  0  0  0  0  0  0  0  0  0  0  0
   -9.7790   14.7490  -38.2190 C   0  0  0  0  0  0  0  0  0  0  0  0
   -8.4740   11.0120  -33.9140 N   0  0  0  0  0  0  0  0  0  0  0  0
   -7.5070    9.9600  -33.5600 C   0  0  1  0  0  0  0  0  0  0  0  0
   -7.4170    9.7980  -32.0510 C   0  0  0  0  0  0  0  0  0  0  0  0
   -6.9710   11.0950  -31.3590 C   0  0  1  0  0  0  0  0  0  0  0  0
   -6.8990   10.8960  -29.8990 C   0  0  0  0  0  0  0  0  0  0  0  0
   -5.7720   11.6390  -29.4080 N   0  0  0  0  0  0  0  0  0  0  0  0
   -7.6530   10.2300  -29.2060 O   0  0  0  0  0  0  0  0  0  0  0  0
   -7.8680    8.6790  -34.3150 C   0  0  2  0  0  0  0  0  0  0  0  0
   -7.7390    8.7380  -35.8290 C   0  0  0  0  0  0  0  0  0  0  0  0
   -6.3020    9.0130  -36.2080 C   0  0  0  0  0  0  0  0  0  0  0  0
   -6.0500    9.8390  -37.1600 O   0  0  0  0  0  0  0  0  0  0  0  0
   -5.3750    8.4590  -35.5800 O   0  0  0  0  0  0  0  0  0  0  0  0
   -8.0020   12.2570  -34.5340 C   0  0  0  0  0  0  0  0  0  0  0  0
   -6.8200   12.4370  -34.7580 O   0  0  0  0  0  0  0  0  0  0  0  0
   -4.7460   10.1970  -37.4660 C   0  0  0  0  0  0  0  0  0  0  0  0
   -4.7740   11.5170  -38.2110 C   0  0  0  0  0  0  0  0  0  0  0  0
   -8.3200   16.3610  -32.9460 C   0  0  1  0  0  0  0  0  0  0  0  0
   -8.7210   16.6270  -31.5860 N   0  0  0  0  0  0  0  0  0  0  0  0
   -9.7810   17.5780  -31.3410 C   0  0  0  0  0  0  0  0  0  0  0  0
  -10.2100   18.2950  -32.2350 O   0  0  0  0  0  0  0  0  0  0  0  0
   -6.8620   16.7390  -33.1570 C   0  0  1  0  0  0  0  0  0  0  0  0
   -6.6030   18.1760  -32.7090 C   0  0  0  0  0  0  0  0  0  0  0  0
   -5.9650   15.7790  -32.4070 C   0  0  0  0  0  0  0  0  0  0  0  0
   -5.1520   12.3480  -30.5140 C   0  0  0  0  0  0  0  0  0  0  0  0
   -5.5910   11.5560  -31.7360 C   0  0  0  0  0  0  0  0  0  0  0  0
   -9.7020    8.3680  -33.9610 R   0  0  0  0  0  0  0  0  0  0  0  0
  -13.0940   15.9620  -39.1740 F   0  0  0  0  0  0  0  0  0  0  0  0
  1  3  1  0
  1  6  2  0
  1 34  1  0
  2  4  1  0
  2 11  2  0
  2 36  1  0
  7  3  1  6
  4  5  2  0
  5  8  1  0
  5  9  1  0
  7 10  1  0
  7 30  1  0
  9 11  1  0
 10 12  1  0
 12 13  2  0
 12 17  1  0
 13 14  1  0
 14 15  2  0
 15 16  1  0
 15 44  1  0
 16 17  2  0
 18 19  1  0
 18 30  1  0
 19 20  1  1
 19 25  1  0
 21 20  1  6
 21 22  1  0
 21 42  1  0
 22 23  1  0
 22 24  2  0
 23 41  1  0
 25 26  1  0
 25 43  1  6
 26 27  1  0
 27 28  1  0
 27 29  2  0
 28 32  1  0
 30 31  2  0
 32 33  1  0
 34 35  1  1
 34 38  1  0
 35 36  1  0
 36 37  2  0
 38 39  1  1
 38 40  1  0
 41 42  1  0
A    1
 C01
A    2
 C1 
A    3
 C02
A    4
 C2 
A    5
 C3 
A    6
 O03
A    7
 C04
A    8
 C4 
A    9
 O4 
A   10
 C05
A   11
 N5 
A   12
 C06
A   13
 C07
A   14
 C08
A   15
 C09
A   16
 C10
A   17
 C11
A   18
 N12
A   19
 C13
A   20
 C14
A   21
 C15
A   22
 C16
A   23
 N17
A   24
 O18
A   25
 C19
A   26
 C20
A   27
 C21
A   28
 O22
A   29
 O23
A   30
 C47
A   31
 O48
A   32
 C50
A   33
 C53
A   34
 C57
A   35
 N58
A   36
 C59
A   37
 O60
A   38
 C78
A   39
 C81
A   40
 C82
A   41
 C83
A   42
 C84
A   43
 X  
A   44
 F1 
M  END
>  <XChem_code>  (54) 
AG7ยง19

>  <Occupancy>  (54) 
[1.0, 1.0, 1.0, 1.0, 1.0, 1.0, 1.0, 0.81, 0.67, 1.0, 0.9, 1.0, 0.99, 0.82, 1.0, 0.97, 0.92, 1.0, 1.0, 1.0, 1.0, 1.0, 1.0, 1.0, 1.0, 1.0, 0.96, 0.94, 0.88, 1.0, 0.97, 0.96, 0.82, 1.0, 1.0, 1.0, 0.94, 1.0, 1.0, 1.0, 1.0, 1.0, 1.0, 0.57]

>  <TempFactor>  (54) 
[8.55, 14.09, 10.4, 16.23, 18.11, 8.39, 11.04, 21.62, 18.04, 14.04, 16.09, 16.2, 18.25, 20.07, 20.39, 19.45, 18.39, 8.91, 9.58, 9.49, 9.06, 8.98, 10.12, 8.25, 10.26, 13.73, 15.91, 18.52, 15.13, 10.09, 11.37, 22.17, 24.58, 9.1, 9.37, 11.23, 12.49, 10.87, 13.0, 11.61, 11.25, 10.85, 9.88, 22.44]

>  <accession>  (54) 
3QZR_A

>  <description>  (54) 
Chain A, 3C protein [Enterovirus A71]

>  <evalue>  (54) 
1.4913e-58

>  <pdb_code>  (54) 
3QZR

>  <chain>  (54) 
A

>  <ligands>  (54) 
[{'chain_id': 'A', 'author_residue_number': 501, 'author_insertion_code': '', 'chem_comp_id': 'AG7', 'alternate_conformers': 0, 'entity_id': 2, 'struct_asym_id': 'C', 'residue_number': 1, 'chem_comp_name': '4-{2-(4-FLUORO-BENZYL)-6-METHYL-5-[(5-METHYL-ISOXAZOLE-3-CARBONYL)-AMINO]-4-OXO-HEPTANOYLAMINO}-5-(2-OXO-PYRROLIDIN-3-YL)-PENTANOIC ACID ETHYL ESTER', 'weight': 600.678, 'carbohydrate_polymer': False, 'branch_name': ''}, {'chain_id': 'B', 'author_residue_number': 501, 'author_insertion_code': '', 'chem_comp_id': 'AG7', 'alternate_conformers': 0, 'entity_id': 2, 'struct_asym_id': 'E', 'residue_number': 1, 'chem_comp_name': '4-{2-(4-FLUORO-BENZYL)-6-METHYL-5-[(5-METHYL-ISOXAZOLE-3-CARBONYL)-AMINO]-4-OXO-HEPTANOYLAMINO}-5-(2-OXO-PYRROLIDIN-3-YL)-PENTANOIC ACID ETHYL ESTER', 'weight': 600.678, 'carbohydrate_polymer': False, 'branch_name': ''}, {'chain_id': 'A', 'author_residue_number': 184, 'author_insertion_code': '', 'chem_comp_id': 'EDO', 'alternate_conformers': 0, 'entity_id': 3, 'struct_asym_id': 'D', 'residue_number': 1, 'chem_comp_name': '1,2-ETHANEDIOL', 'weight': 62.068, 'carbohydrate_polymer': False, 'branch_name': ''}, {'chain_id': 'B', 'author_residue_number': 184, 'author_insertion_code': '', 'chem_comp_id': 'EDO', 'alternate_conformers': 0, 'entity_id': 3, 'struct_asym_id': 'F', 'residue_number': 1, 'chem_comp_name': '1,2-ETHANEDIOL', 'weight': 62.068, 'carbohydrate_polymer': False, 'branch_name': ''}]

>  <ligand_codes>  (54) 
['AG7', 'AG7', 'EDO', 'EDO']

>  <cofactor_codes>  (54) 
[]

>  <has_cofactor>  (54) 
False

>  <covalent>  (54) 
True

>  <base_name>  (54) 
3QZR

>  <lig_resn>  (54) 
AG7

>  <lig_resi>  (54) 
501

>  <lig_chain>  (54) 
A

>  <lig_segi>  (54) 
C

>  <lig_alt>  (54) 


>  <polymer_chain>  (54) 
A

>  <single_smiles>  (54) 
CCOC(=O)CC[C@H](C[C@@H]1CCNC1=O)NC(=O)[C@@H](CC(=O)[C@@H](NC(=O)c2cc(C)on2)C(C)C)Cc3ccc(F)cc3

$$$$
5GIยง1
     RDKit          3D

 32 34  0  0  0  0  0  0  0  0999 V2000
   -6.5680   55.4520  -63.8460 C   0  0  1  0  0  0  0  0  0  0  0  0
   -6.7590   56.8620  -63.9170 N   0  0  0  0  0  0  0  0  0  0  0  0
   -7.6300   61.2820  -63.5860 O   0  0  0  0  0  0  0  0  0  0  0  0
   -6.6640   54.9090  -65.2700 C   0  0  0  0  0  0  0  0  0  0  0  0
   -7.6700   59.9820  -63.8720 N   0  0  0  0  0  0  0  0  0  0  0  0
   -2.3790   53.2670  -63.8580 O   0  0  0  0  0  0  0  0  0  0  0  0
   -5.1390   55.5340  -63.3760 C   0  0  0  0  0  0  0  0  0  0  0  0
   -4.1810   57.1790  -58.1710 N   0  0  0  0  0  0  0  0  0  0  0  0
   -4.5300   56.5460  -63.6940 O   0  0  0  0  0  0  0  0  0  0  0  0
   -6.9570   62.8400  -61.7140 C   0  0  0  0  0  0  0  0  0  0  0  0
   -4.3980   54.5940  -62.6100 N   0  0  0  0  0  0  0  0  0  0  0  0
   -7.2490   57.1290  -61.6820 O   0  0  0  0  0  0  0  0  0  0  0  0
   -8.1200   54.6410  -65.7150 C   0  0  0  0  0  0  0  0  0  0  0  0
   -4.3400   54.8450  -58.2990 O   0  0  0  0  0  0  0  0  0  0  0  0
   -8.9370   53.9280  -64.8800 C   0  0  0  0  0  0  0  0  0  0  0  0
   -8.6100   55.1390  -66.9410 C   0  0  0  0  0  0  0  0  0  0  0  0
  -10.2520   53.6950  -65.2390 C   0  0  0  0  0  0  0  0  0  0  0  0
  -10.7390   54.1910  -66.4540 C   0  0  0  0  0  0  0  0  0  0  0  0
   -9.9240   54.9050  -67.2950 C   0  0  0  0  0  0  0  0  0  0  0  0
   -7.0920   57.6700  -62.7750 C   0  0  0  0  0  0  0  0  0  0  0  0
   -7.2300   59.2260  -62.8640 C   0  0  0  0  0  0  0  0  0  0  0  0
   -3.6170   58.4060  -58.7700 C   0  0  0  0  0  0  0  0  0  0  0  0
   -6.8590   60.1760  -61.8300 C   0  0  0  0  0  0  0  0  0  0  0  0
   -2.0420   54.2280  -63.0960 C   0  0  0  0  0  0  0  0  0  0  0  0
   -7.1520   61.4860  -62.3800 C   0  0  0  0  0  0  0  0  0  0  0  0
   -3.8600   58.5180  -60.2540 C   0  0  0  0  0  0  0  0  0  0  0  0
   -3.0530   55.1420  -62.4090 C   0  0  2  0  0  0  0  0  0  0  0  0
   -2.7310   55.1530  -60.9310 C   0  0  0  0  0  0  0  0  0  0  0  0
   -3.7630   56.0560  -60.3360 C   0  0  1  0  0  0  0  0  0  0  0  0
   -3.6790   55.9610  -58.8220 C   0  0  0  0  0  0  0  0  0  0  0  0
   -3.3080   57.3510  -60.9100 C   0  0  0  0  0  0  0  0  0  0  0  0
  -12.0160   53.9610  -66.7950 F   0  0  0  0  0  0  0  0  0  0  0  0
  1  2  1  0
  1  4  1  6
  1  7  1  0
  2 20  1  0
  3  5  1  0
  3 25  1  0
  4 13  1  0
  5 21  2  0
  6 24  2  0
  7  9  2  0
  7 11  1  0
  8 22  1  0
  8 30  1  0
 10 25  1  0
 11 27  1  0
 12 20  2  0
 13 15  2  0
 13 16  1  0
 14 30  2  0
 15 17  1  0
 16 19  2  0
 17 18  2  0
 18 19  1  0
 18 32  1  0
 20 21  1  0
 21 23  1  0
 22 26  1  0
 23 25  2  0
 24 27  1  0
 26 31  1  0
 27 28  1  1
 29 28  1  6
 29 30  1  0
 29 31  1  0
A    1
 C1 
A    2
 N1 
A    3
 O1 
A    4
 C2 
A    5
 N2 
A    6
 O2 
A    7
 C3 
A    8
 N3 
A    9
 O3 
A   10
 C4 
A   11
 N4 
A   12
 O4 
A   13
 C5 
A   14
 O5 
A   15
 C6 
A   16
 C7 
A   17
 C8 
A   18
 C9 
A   19
 C10
A   20
 C11
A   21
 C12
A   22
 C13
A   23
 C14
A   24
 C15
A   25
 C16
A   26
 C17
A   27
 C18
A   28
 C19
A   29
 C20
A   30
 C21
A   31
 C22
A   32
 F1 
M  END
>  <XChem_code>  (55) 
5GIยง1

>  <Occupancy>  (55) 
[1.0, 1.0, 1.0, 1.0, 1.0, 1.0, 1.0, 1.0, 1.0, 1.0, 1.0, 1.0, 1.0, 1.0, 1.0, 1.0, 1.0, 1.0, 1.0, 1.0, 1.0, 1.0, 1.0, 1.0, 1.0, 1.0, 1.0, 1.0, 1.0, 1.0, 1.0, 1.0]

>  <TempFactor>  (55) 
[52.58, 53.2, 64.14, 51.18, 63.67, 58.79, 53.66, 47.91, 53.79, 64.89, 54.21, 53.97, 49.71, 47.52, 49.01, 49.68, 49.1, 49.51, 49.79, 54.24, 63.03, 48.1, 63.66, 57.31, 64.27, 48.47, 54.7, 52.32, 49.65, 48.1, 48.83, 49.96]

>  <accession>  (55) 
5GSW_A

>  <description>  (55) 
Chain A, 3C protein [Enterovirus A71]

>  <evalue>  (55) 
4.66342e-58

>  <pdb_code>  (55) 
5GSW

>  <chain>  (55) 
A

>  <ligands>  (55) 
[{'chain_id': 'A', 'author_residue_number': 201, 'author_insertion_code': '', 'chem_comp_id': '5GI', 'alternate_conformers': 0, 'entity_id': 2, 'struct_asym_id': 'F', 'residue_number': 1, 'chem_comp_name': '~{N}-[(2~{S})-3-(4-fluorophenyl)-1-oxidanylidene-1-[[(2~{S})-1-oxidanylidene-3-[(3~{S})-2-oxidanylidenepiperidin-3-yl]propan-2-yl]amino]propan-2-yl]-5-methyl-1,2-oxazole-3-carboxamide', 'weight': 444.456, 'carbohydrate_polymer': False, 'branch_name': ''}, {'chain_id': 'B', 'author_residue_number': 201, 'author_insertion_code': '', 'chem_comp_id': '5GI', 'alternate_conformers': 0, 'entity_id': 2, 'struct_asym_id': 'G', 'residue_number': 1, 'chem_comp_name': '~{N}-[(2~{S})-3-(4-fluorophenyl)-1-oxidanylidene-1-[[(2~{S})-1-oxidanylidene-3-[(3~{S})-2-oxidanylidenepiperidin-3-yl]propan-2-yl]amino]propan-2-yl]-5-methyl-1,2-oxazole-3-carboxamide', 'weight': 444.456, 'carbohydrate_polymer': False, 'branch_name': ''}, {'chain_id': 'C', 'author_residue_number': 201, 'author_insertion_code': '', 'chem_comp_id': '5GI', 'alternate_conformers': 0, 'entity_id': 2, 'struct_asym_id': 'H', 'residue_number': 1, 'chem_comp_name': '~{N}-[(2~{S})-3-(4-fluorophenyl)-1-oxidanylidene-1-[[(2~{S})-1-oxidanylidene-3-[(3~{S})-2-oxidanylidenepiperidin-3-yl]propan-2-yl]amino]propan-2-yl]-5-methyl-1,2-oxazole-3-carboxamide', 'weight': 444.456, 'carbohydrate_polymer': False, 'branch_name': ''}, {'chain_id': 'D', 'author_residue_number': 201, 'author_insertion_code': '', 'chem_comp_id': '5GI', 'alternate_conformers': 0, 'entity_id': 2, 'struct_asym_id': 'I', 'residue_number': 1, 'chem_comp_name': '~{N}-[(2~{S})-3-(4-fluorophenyl)-1-oxidanylidene-1-[[(2~{S})-1-oxidanylidene-3-[(3~{S})-2-oxidanylidenepiperidin-3-yl]propan-2-yl]amino]propan-2-yl]-5-methyl-1,2-oxazole-3-carboxamide', 'weight': 444.456, 'carbohydrate_polymer': False, 'branch_name': ''}, {'chain_id': 'E', 'author_residue_number': 201, 'author_insertion_code': '', 'chem_comp_id': '5GI', 'alternate_conformers': 0, 'entity_id': 2, 'struct_asym_id': 'J', 'residue_number': 1, 'chem_comp_name': '~{N}-[(2~{S})-3-(4-fluorophenyl)-1-oxidanylidene-1-[[(2~{S})-1-oxidanylidene-3-[(3~{S})-2-oxidanylidenepiperidin-3-yl]propan-2-yl]amino]propan-2-yl]-5-methyl-1,2-oxazole-3-carboxamide', 'weight': 444.456, 'carbohydrate_polymer': False, 'branch_name': ''}]

>  <ligand_codes>  (55) 
['5GI', '5GI', '5GI', '5GI', '5GI']

>  <cofactor_codes>  (55) 
[]

>  <has_cofactor>  (55) 
False

>  <covalent>  (55) 
False

>  <base_name>  (55) 
5GSW

>  <lig_resn>  (55) 
5GI

>  <lig_resi>  (55) 
201

>  <lig_chain>  (55) 
C

>  <lig_segi>  (55) 
H

>  <lig_alt>  (55) 


>  <polymer_chain>  (55) 
A

>  <single_smiles>  (55) 
Cc1onc(c1)C(=O)N[C@@H](Cc2ccc(F)cc2)C(=O)N[C@@H](C[C@@H]3CCCNC3=O)C=O

$$$$
5GIยง2
     RDKit          3D

 33 36  0  0  0  0  0  0  0  0999 V2000
   -9.6710   13.3510  -34.9850 C   0  0  1  0  0  0  0  0  0  0  0  0
   -8.9930   14.5510  -34.7960 N   0  0  0  0  0  0  0  0  0  0  0  0
   -7.1670   18.2380  -33.5600 O   0  0  0  0  0  0  0  0  0  0  0  0
  -10.1810   13.2340  -36.3950 C   0  0  0  0  0  0  0  0  0  0  0  0
   -7.9700   17.3240  -34.0490 N   0  0  0  0  0  0  0  0  0  0  0  0
   -8.2950    8.5760  -35.9070 O   0  0  0  0  0  0  0  0  0  0  0  0
   -8.6310   12.3040  -34.7780 C   0  0  0  0  0  0  0  0  0  0  0  0
   -6.1150   11.6600  -29.5560 N   0  0  0  0  0  0  0  0  0  0  0  0
   -7.4990   12.5560  -35.0400 O   0  0  0  0  0  0  0  0  0  0  0  0
   -5.6040   18.6070  -31.6530 C   0  0  0  0  0  0  0  0  0  0  0  0
   -9.0340   11.0510  -34.2690 N   0  0  0  0  0  0  0  0  0  0  0  0
   -9.1710   14.3940  -32.5200 O   0  0  0  0  0  0  0  0  0  0  0  0
  -11.5500   13.8850  -36.5470 C   0  0  0  0  0  0  0  0  0  0  0  0
   -7.8430   10.1480  -29.7250 O   0  0  0  0  0  0  0  0  0  0  0  0
  -12.5600   13.5520  -35.7150 C   0  0  0  0  0  0  0  0  0  0  0  0
  -11.7250   14.8280  -37.5440 C   0  0  0  0  0  0  0  0  0  0  0  0
  -13.7800   14.1620  -35.8710 C   0  0  0  0  0  0  0  0  0  0  0  0
  -13.9420   15.1070  -36.8650 C   0  0  0  0  0  0  0  0  0  0  0  0
  -12.9370   15.4400  -37.6840 C   0  0  0  0  0  0  0  0  0  0  0  0
   -8.7720   15.0010  -33.4870 C   0  0  0  0  0  0  0  0  0  0  0  0
   -7.9860   16.2730  -33.2750 C   0  0  0  0  0  0  0  0  0  0  0  0
   -5.2060   12.5720  -30.2480 C   0  0  0  0  0  0  0  0  0  0  0  0
   -7.0900   16.5190  -32.1990 C   0  0  0  0  0  0  0  0  0  0  0  0
   -8.6530    8.7000  -34.7540 C   0  0  1  0  0  0  0  0  0  0  0  0
   -6.5960   17.8330  -32.4710 C   0  0  0  0  0  0  0  0  0  0  0  0
   -5.7020   13.0220  -31.6100 C   0  0  0  0  0  0  0  0  0  0  0  0
   -8.1730    9.9490  -34.0130 C   0  0  1  0  0  0  0  0  0  0  0  0
   -7.8050    9.9270  -32.5350 C   0  0  0  0  0  0  0  0  0  0  0  0
   -7.2790   11.1660  -31.7440 C   0  0  1  0  0  0  0  0  0  0  0  0
   -6.7840   10.6750  -30.4020 C   0  0  1  0  0  0  0  0  0  0  0  0
   -6.1590   11.8760  -32.4020 C   0  0  0  0  0  0  0  0  0  0  0  0
   -9.6480    8.6280  -34.0830 R   0  0  0  0  0  0  0  0  0  0  0  0
  -15.0890   15.7090  -37.0320 F   0  0  0  0  0  0  0  0  0  0  0  0
  1  2  1  0
  1  4  1  6
  1  7  1  0
  2 20  1  0
  3  5  1  0
  3 25  1  0
  4 13  1  0
  5 21  1  0
 24  6  1  6
  7  9  1  0
  7 11  1  0
  8 22  1  0
  8 30  1  0
 10 25  1  0
 11 27  1  0
 12 20  1  0
 13 15  1  0
 13 16  1  0
 30 14  1  1
 15 17  1  0
 16 19  1  0
 17 18  1  0
 18 19  1  0
 18 33  1  0
 20 21  1  0
 21 23  1  0
 22 26  1  0
 23 25  1  0
 24 27  1  0
 24 32  1  0
 26 31  1  0
 27 28  1  6
 27 32  1  0
 29 28  1  6
 29 30  1  0
 29 31  1  0
A    1
 C1 
A    2
 N1 
A    3
 O1 
A    4
 C2 
A    5
 N2 
A    6
 O2 
A    7
 C3 
A    8
 N3 
A    9
 O3 
A   10
 C4 
A   11
 N4 
A   12
 O4 
A   13
 C5 
A   14
 O5 
A   15
 C6 
A   16
 C7 
A   17
 C8 
A   18
 C9 
A   19
 C10
A   20
 C11
A   21
 C12
A   22
 C13
A   23
 C14
A   24
 C15
A   25
 C16
A   26
 C17
A   27
 C18
A   28
 C19
A   29
 C20
A   30
 C21
A   31
 C22
A   32
 X  
A   33
 F1 
M  END
>  <XChem_code>  (56) 
5GIยง2

>  <Occupancy>  (56) 
[1.0, 1.0, 1.0, 1.0, 1.0, 1.0, 1.0, 1.0, 1.0, 1.0, 1.0, 1.0, 1.0, 1.0, 1.0, 1.0, 1.0, 1.0, 1.0, 1.0, 1.0, 1.0, 1.0, 1.0, 1.0, 1.0, 1.0, 1.0, 1.0, 1.0, 1.0, 1.0, 1.0]

>  <TempFactor>  (56) 
[49.16, 50.65, 59.43, 46.46, 58.44, 57.93, 50.07, 43.93, 50.57, 60.46, 51.52, 50.9, 45.67, 43.54, 43.98, 44.86, 44.03, 44.64, 44.87, 49.8, 58.55, 43.97, 57.73, 55.84, 59.19, 44.52, 53.05, 49.04, 46.38, 44.56, 45.51, 26.59, 45.13]

>  <accession>  (56) 
5GSW_A

>  <description>  (56) 
Chain A, 3C protein [Enterovirus A71]

>  <evalue>  (56) 
4.66342e-58

>  <pdb_code>  (56) 
5GSW

>  <chain>  (56) 
A

>  <ligands>  (56) 
[{'chain_id': 'A', 'author_residue_number': 201, 'author_insertion_code': '', 'chem_comp_id': '5GI', 'alternate_conformers': 0, 'entity_id': 2, 'struct_asym_id': 'F', 'residue_number': 1, 'chem_comp_name': '~{N}-[(2~{S})-3-(4-fluorophenyl)-1-oxidanylidene-1-[[(2~{S})-1-oxidanylidene-3-[(3~{S})-2-oxidanylidenepiperidin-3-yl]propan-2-yl]amino]propan-2-yl]-5-methyl-1,2-oxazole-3-carboxamide', 'weight': 444.456, 'carbohydrate_polymer': False, 'branch_name': ''}, {'chain_id': 'B', 'author_residue_number': 201, 'author_insertion_code': '', 'chem_comp_id': '5GI', 'alternate_conformers': 0, 'entity_id': 2, 'struct_asym_id': 'G', 'residue_number': 1, 'chem_comp_name': '~{N}-[(2~{S})-3-(4-fluorophenyl)-1-oxidanylidene-1-[[(2~{S})-1-oxidanylidene-3-[(3~{S})-2-oxidanylidenepiperidin-3-yl]propan-2-yl]amino]propan-2-yl]-5-methyl-1,2-oxazole-3-carboxamide', 'weight': 444.456, 'carbohydrate_polymer': False, 'branch_name': ''}, {'chain_id': 'C', 'author_residue_number': 201, 'author_insertion_code': '', 'chem_comp_id': '5GI', 'alternate_conformers': 0, 'entity_id': 2, 'struct_asym_id': 'H', 'residue_number': 1, 'chem_comp_name': '~{N}-[(2~{S})-3-(4-fluorophenyl)-1-oxidanylidene-1-[[(2~{S})-1-oxidanylidene-3-[(3~{S})-2-oxidanylidenepiperidin-3-yl]propan-2-yl]amino]propan-2-yl]-5-methyl-1,2-oxazole-3-carboxamide', 'weight': 444.456, 'carbohydrate_polymer': False, 'branch_name': ''}, {'chain_id': 'D', 'author_residue_number': 201, 'author_insertion_code': '', 'chem_comp_id': '5GI', 'alternate_conformers': 0, 'entity_id': 2, 'struct_asym_id': 'I', 'residue_number': 1, 'chem_comp_name': '~{N}-[(2~{S})-3-(4-fluorophenyl)-1-oxidanylidene-1-[[(2~{S})-1-oxidanylidene-3-[(3~{S})-2-oxidanylidenepiperidin-3-yl]propan-2-yl]amino]propan-2-yl]-5-methyl-1,2-oxazole-3-carboxamide', 'weight': 444.456, 'carbohydrate_polymer': False, 'branch_name': ''}, {'chain_id': 'E', 'author_residue_number': 201, 'author_insertion_code': '', 'chem_comp_id': '5GI', 'alternate_conformers': 0, 'entity_id': 2, 'struct_asym_id': 'J', 'residue_number': 1, 'chem_comp_name': '~{N}-[(2~{S})-3-(4-fluorophenyl)-1-oxidanylidene-1-[[(2~{S})-1-oxidanylidene-3-[(3~{S})-2-oxidanylidenepiperidin-3-yl]propan-2-yl]amino]propan-2-yl]-5-methyl-1,2-oxazole-3-carboxamide', 'weight': 444.456, 'carbohydrate_polymer': False, 'branch_name': ''}]

>  <ligand_codes>  (56) 
['5GI', '5GI', '5GI', '5GI', '5GI']

>  <cofactor_codes>  (56) 
[]

>  <has_cofactor>  (56) 
False

>  <covalent>  (56) 
True

>  <base_name>  (56) 
5GSW

>  <lig_resn>  (56) 
5GI

>  <lig_resi>  (56) 
201

>  <lig_chain>  (56) 
A

>  <lig_segi>  (56) 
F

>  <lig_alt>  (56) 


>  <polymer_chain>  (56) 
A

>  <single_smiles>  (56) 
Cc1onc(c1)C(=O)N[C@@H](Cc2ccc(F)cc2)C(=O)N[C@@H](C[C@@H]3CCCNC3=O)C=O

$$$$
5GIยง3
     RDKit          3D

 32 34  0  0  0  0  0  0  0  0999 V2000
   -0.4800   -8.8270  -76.7840 C   0  0  1  0  0  0  0  0  0  0  0  0
    0.6690   -8.0770  -76.3900 N   0  0  0  0  0  0  0  0  0  0  0  0
    4.1500   -5.8950  -74.5250 O   0  0  0  0  0  0  0  0  0  0  0  0
   -1.1000   -8.1340  -78.0020 C   0  0  0  0  0  0  0  0  0  0  0  0
    2.9730   -6.2270  -75.0540 N   0  0  0  0  0  0  0  0  0  0  0  0
   -0.7070  -12.5570  -79.3810 O   0  0  0  0  0  0  0  0  0  0  0  0
    0.2320  -10.1150  -77.1200 C   0  0  0  0  0  0  0  0  0  0  0  0
    2.6840  -13.4100  -73.1160 N   0  0  0  0  0  0  0  0  0  0  0  0
    1.3830  -10.0000  -77.4900 O   0  0  0  0  0  0  0  0  0  0  0  0
    5.9480   -6.8500  -73.0350 C   0  0  0  0  0  0  0  0  0  0  0  0
   -0.2630  -11.4460  -77.0360 N   0  0  0  0  0  0  0  0  0  0  0  0
    0.8230   -9.0450  -74.3010 O   0  0  0  0  0  0  0  0  0  0  0  0
   -2.0740   -7.0110  -77.5710 C   0  0  0  0  0  0  0  0  0  0  0  0
    0.4920  -14.1080  -73.4200 O   0  0  0  0  0  0  0  0  0  0  0  0
   -3.0210   -7.2890  -76.6220 C   0  0  0  0  0  0  0  0  0  0  0  0
   -1.9640   -5.7240  -78.1270 C   0  0  0  0  0  0  0  0  0  0  0  0
   -3.8820   -6.2920  -76.2070 C   0  0  0  0  0  0  0  0  0  0  0  0
   -3.7730   -5.0110  -76.7610 C   0  0  0  0  0  0  0  0  0  0  0  0
   -2.8230   -4.7300  -77.7100 C   0  0  0  0  0  0  0  0  0  0  0  0
    1.2950   -8.2360  -75.1010 C   0  0  0  0  0  0  0  0  0  0  0  0
    2.5850   -7.4520  -74.6950 C   0  0  0  0  0  0  0  0  0  0  0  0
    3.8980  -12.8440  -73.7470 C   0  0  0  0  0  0  0  0  0  0  0  0
    3.6560   -7.9450  -73.8480 C   0  0  0  0  0  0  0  0  0  0  0  0
    0.2910  -13.0010  -78.7530 C   0  0  0  0  0  0  0  0  0  0  0  0
    4.6290   -6.8710  -73.7890 C   0  0  0  0  0  0  0  0  0  0  0  0
    3.5360  -11.6950  -74.6590 C   0  0  0  0  0  0  0  0  0  0  0  0
    0.7410  -12.4200  -77.4340 C   0  0  2  0  0  0  0  0  0  0  0  0
    0.8200  -13.5050  -76.3690 C   0  0  0  0  0  0  0  0  0  0  0  0
    1.4020  -12.8040  -75.1500 C   0  0  1  0  0  0  0  0  0  0  0  0
    1.6790  -13.8520  -74.0930 C   0  0  0  0  0  0  0  0  0  0  0  0
    2.6280  -12.1600  -75.6910 C   0  0  0  0  0  0  0  0  0  0  0  0
   -4.6130   -4.0510  -76.3510 F   0  0  0  0  0  0  0  0  0  0  0  0
  1  2  1  0
  1  4  1  6
  1  7  1  0
  2 20  1  0
  3  5  1  0
  3 25  1  0
  4 13  1  0
  5 21  2  0
  6 24  2  0
  7  9  2  0
  7 11  1  0
  8 22  1  0
  8 30  1  0
 10 25  1  0
 11 27  1  0
 12 20  2  0
 13 15  2  0
 13 16  1  0
 14 30  2  0
 15 17  1  0
 16 19  2  0
 17 18  2  0
 18 19  1  0
 18 32  1  0
 20 21  1  0
 21 23  1  0
 22 26  1  0
 23 25  2  0
 24 27  1  0
 26 31  1  0
 27 28  1  1
 29 28  1  6
 29 30  1  0
 29 31  1  0
A    1
 C1 
A    2
 N1 
A    3
 O1 
A    4
 C2 
A    5
 N2 
A    6
 O2 
A    7
 C3 
A    8
 N3 
A    9
 O3 
A   10
 C4 
A   11
 N4 
A   12
 O4 
A   13
 C5 
A   14
 O5 
A   15
 C6 
A   16
 C7 
A   17
 C8 
A   18
 C9 
A   19
 C10
A   20
 C11
A   21
 C12
A   22
 C13
A   23
 C14
A   24
 C15
A   25
 C16
A   26
 C17
A   27
 C18
A   28
 C19
A   29
 C20
A   30
 C21
A   31
 C22
A   32
 F1 
M  END
>  <XChem_code>  (57) 
5GIยง3

>  <Occupancy>  (57) 
[1.0, 1.0, 1.0, 1.0, 1.0, 1.0, 1.0, 1.0, 1.0, 1.0, 1.0, 1.0, 1.0, 1.0, 1.0, 1.0, 1.0, 1.0, 1.0, 1.0, 1.0, 1.0, 1.0, 1.0, 1.0, 1.0, 1.0, 1.0, 1.0, 1.0, 1.0, 1.0]

>  <TempFactor>  (57) 
[55.23, 55.77, 66.32, 54.19, 66.0, 61.08, 56.07, 49.37, 56.13, 66.73, 56.43, 56.09, 52.93, 48.98, 52.11, 53.18, 52.37, 53.07, 53.47, 56.53, 65.25, 49.62, 65.65, 59.34, 66.27, 50.16, 56.68, 54.01, 51.34, 49.58, 50.57, 53.67]

>  <accession>  (57) 
5GSW_A

>  <description>  (57) 
Chain A, 3C protein [Enterovirus A71]

>  <evalue>  (57) 
4.66342e-58

>  <pdb_code>  (57) 
5GSW

>  <chain>  (57) 
A

>  <ligands>  (57) 
[{'chain_id': 'A', 'author_residue_number': 201, 'author_insertion_code': '', 'chem_comp_id': '5GI', 'alternate_conformers': 0, 'entity_id': 2, 'struct_asym_id': 'F', 'residue_number': 1, 'chem_comp_name': '~{N}-[(2~{S})-3-(4-fluorophenyl)-1-oxidanylidene-1-[[(2~{S})-1-oxidanylidene-3-[(3~{S})-2-oxidanylidenepiperidin-3-yl]propan-2-yl]amino]propan-2-yl]-5-methyl-1,2-oxazole-3-carboxamide', 'weight': 444.456, 'carbohydrate_polymer': False, 'branch_name': ''}, {'chain_id': 'B', 'author_residue_number': 201, 'author_insertion_code': '', 'chem_comp_id': '5GI', 'alternate_conformers': 0, 'entity_id': 2, 'struct_asym_id': 'G', 'residue_number': 1, 'chem_comp_name': '~{N}-[(2~{S})-3-(4-fluorophenyl)-1-oxidanylidene-1-[[(2~{S})-1-oxidanylidene-3-[(3~{S})-2-oxidanylidenepiperidin-3-yl]propan-2-yl]amino]propan-2-yl]-5-methyl-1,2-oxazole-3-carboxamide', 'weight': 444.456, 'carbohydrate_polymer': False, 'branch_name': ''}, {'chain_id': 'C', 'author_residue_number': 201, 'author_insertion_code': '', 'chem_comp_id': '5GI', 'alternate_conformers': 0, 'entity_id': 2, 'struct_asym_id': 'H', 'residue_number': 1, 'chem_comp_name': '~{N}-[(2~{S})-3-(4-fluorophenyl)-1-oxidanylidene-1-[[(2~{S})-1-oxidanylidene-3-[(3~{S})-2-oxidanylidenepiperidin-3-yl]propan-2-yl]amino]propan-2-yl]-5-methyl-1,2-oxazole-3-carboxamide', 'weight': 444.456, 'carbohydrate_polymer': False, 'branch_name': ''}, {'chain_id': 'D', 'author_residue_number': 201, 'author_insertion_code': '', 'chem_comp_id': '5GI', 'alternate_conformers': 0, 'entity_id': 2, 'struct_asym_id': 'I', 'residue_number': 1, 'chem_comp_name': '~{N}-[(2~{S})-3-(4-fluorophenyl)-1-oxidanylidene-1-[[(2~{S})-1-oxidanylidene-3-[(3~{S})-2-oxidanylidenepiperidin-3-yl]propan-2-yl]amino]propan-2-yl]-5-methyl-1,2-oxazole-3-carboxamide', 'weight': 444.456, 'carbohydrate_polymer': False, 'branch_name': ''}, {'chain_id': 'E', 'author_residue_number': 201, 'author_insertion_code': '', 'chem_comp_id': '5GI', 'alternate_conformers': 0, 'entity_id': 2, 'struct_asym_id': 'J', 'residue_number': 1, 'chem_comp_name': '~{N}-[(2~{S})-3-(4-fluorophenyl)-1-oxidanylidene-1-[[(2~{S})-1-oxidanylidene-3-[(3~{S})-2-oxidanylidenepiperidin-3-yl]propan-2-yl]amino]propan-2-yl]-5-methyl-1,2-oxazole-3-carboxamide', 'weight': 444.456, 'carbohydrate_polymer': False, 'branch_name': ''}]

>  <ligand_codes>  (57) 
['5GI', '5GI', '5GI', '5GI', '5GI']

>  <cofactor_codes>  (57) 
[]

>  <has_cofactor>  (57) 
False

>  <covalent>  (57) 
False

>  <base_name>  (57) 
5GSW

>  <lig_resn>  (57) 
5GI

>  <lig_resi>  (57) 
201

>  <lig_chain>  (57) 
D

>  <lig_segi>  (57) 
I

>  <lig_alt>  (57) 


>  <polymer_chain>  (57) 
A

>  <single_smiles>  (57) 
Cc1onc(c1)C(=O)N[C@@H](Cc2ccc(F)cc2)C(=O)N[C@@H](C[C@@H]3CCCNC3=O)C=O

$$$$
5GIยง4
     RDKit          3D

 32 34  0  0  0  0  0  0  0  0999 V2000
   22.2180   -0.6430  -59.8480 C   0  0  1  0  0  0  0  0  0  0  0  0
   23.4600   -1.3330  -59.9600 N   0  0  0  0  0  0  0  0  0  0  0  0
   27.2020   -3.8040  -59.8830 O   0  0  0  0  0  0  0  0  0  0  0  0
   22.5070    0.8130  -60.1980 C   0  0  0  0  0  0  0  0  0  0  0  0
   26.2850   -2.8650  -59.6710 N   0  0  0  0  0  0  0  0  0  0  0  0
   19.0330   -0.4090  -63.0780 O   0  0  0  0  0  0  0  0  0  0  0  0
   21.4740   -1.4030  -60.9280 C   0  0  0  0  0  0  0  0  0  0  0  0
   20.1060   -6.9660  -60.3460 N   0  0  0  0  0  0  0  0  0  0  0  0
   22.1830   -1.8140  -61.8190 O   0  0  0  0  0  0  0  0  0  0  0  0
   27.3840   -6.3000  -60.2080 C   0  0  0  0  0  0  0  0  0  0  0  0
   20.0840   -1.7430  -61.0350 N   0  0  0  0  0  0  0  0  0  0  0  0
   22.7980   -3.1950  -58.7730 O   0  0  0  0  0  0  0  0  0  0  0  0
   22.9230    1.6160  -58.9480 C   0  0  0  0  0  0  0  0  0  0  0  0
   18.3950   -5.6450  -59.4950 O   0  0  0  0  0  0  0  0  0  0  0  0
   22.2230    1.4720  -57.7790 C   0  0  0  0  0  0  0  0  0  0  0  0
   24.0330    2.4720  -59.0360 C   0  0  0  0  0  0  0  0  0  0  0  0
   22.6150    2.1900  -56.6660 C   0  0  0  0  0  0  0  0  0  0  0  0
   23.7230    3.0420  -56.7530 C   0  0  0  0  0  0  0  0  0  0  0  0
   24.4230    3.1800  -57.9240 C   0  0  0  0  0  0  0  0  0  0  0  0
   23.7000   -2.6310  -59.3870 C   0  0  0  0  0  0  0  0  0  0  0  0
   25.0570   -3.3770  -59.5870 C   0  0  0  0  0  0  0  0  0  0  0  0
   21.1940   -7.0760  -61.3440 C   0  0  0  0  0  0  0  0  0  0  0  0
   25.2250   -4.8050  -59.7880 C   0  0  0  0  0  0  0  0  0  0  0  0
   19.0490   -1.6290  -63.2130 C   0  0  0  0  0  0  0  0  0  0  0  0
   26.6490   -4.9930  -59.9670 C   0  0  0  0  0  0  0  0  0  0  0  0
   21.9810   -5.7880  -61.4330 C   0  0  0  0  0  0  0  0  0  0  0  0
   19.7530   -2.5150  -62.2210 C   0  0  2  0  0  0  0  0  0  0  0  0
   18.9260   -3.7020  -61.7400 C   0  0  0  0  0  0  0  0  0  0  0  0
   19.9080   -4.5520  -60.9330 C   0  0  1  0  0  0  0  0  0  0  0  0
   19.1880   -5.8490  -60.6190 C   0  0  0  0  0  0  0  0  0  0  0  0
   21.1010   -4.6980  -61.8140 C   0  0  0  0  0  0  0  0  0  0  0  0
   24.1050    3.7350  -55.6710 F   0  0  0  0  0  0  0  0  0  0  0  0
  1  2  1  0
  1  4  1  6
  1  7  1  0
  2 20  1  0
  3  5  1  0
  3 25  1  0
  4 13  1  0
  5 21  2  0
  6 24  2  0
  7  9  2  0
  7 11  1  0
  8 22  1  0
  8 30  1  0
 10 25  1  0
 11 27  1  0
 12 20  2  0
 13 15  2  0
 13 16  1  0
 14 30  2  0
 15 17  1  0
 16 19  2  0
 17 18  2  0
 18 19  1  0
 18 32  1  0
 20 21  1  0
 21 23  1  0
 22 26  1  0
 23 25  2  0
 24 27  1  0
 26 31  1  0
 27 28  1  1
 29 28  1  6
 29 30  1  0
 29 31  1  0
A    1
 C1 
A    2
 N1 
A    3
 O1 
A    4
 C2 
A    5
 N2 
A    6
 O2 
A    7
 C3 
A    8
 N3 
A    9
 O3 
A   10
 C4 
A   11
 N4 
A   12
 O4 
A   13
 C5 
A   14
 O5 
A   15
 C6 
A   16
 C7 
A   17
 C8 
A   18
 C9 
A   19
 C10
A   20
 C11
A   21
 C12
A   22
 C13
A   23
 C14
A   24
 C15
A   25
 C16
A   26
 C17
A   27
 C18
A   28
 C19
A   29
 C20
A   30
 C21
A   31
 C22
A   32
 F1 
M  END
>  <XChem_code>  (58) 
5GIยง4

>  <Occupancy>  (58) 
[1.0, 1.0, 1.0, 1.0, 1.0, 1.0, 1.0, 1.0, 1.0, 1.0, 1.0, 1.0, 1.0, 1.0, 1.0, 1.0, 1.0, 1.0, 1.0, 1.0, 1.0, 1.0, 1.0, 1.0, 1.0, 1.0, 1.0, 1.0, 1.0, 1.0, 1.0, 1.0]

>  <TempFactor>  (58) 
[55.04, 55.75, 66.74, 53.81, 66.34, 60.89, 55.95, 50.16, 56.12, 67.22, 56.34, 56.33, 52.53, 49.57, 51.7, 52.81, 52.01, 52.81, 53.19, 56.72, 65.57, 50.41, 66.08, 59.39, 66.72, 50.72, 56.8, 54.36, 51.77, 50.25, 51.03, 53.55]

>  <accession>  (58) 
5GSW_A

>  <description>  (58) 
Chain A, 3C protein [Enterovirus A71]

>  <evalue>  (58) 
4.66342e-58

>  <pdb_code>  (58) 
5GSW

>  <chain>  (58) 
A

>  <ligands>  (58) 
[{'chain_id': 'A', 'author_residue_number': 201, 'author_insertion_code': '', 'chem_comp_id': '5GI', 'alternate_conformers': 0, 'entity_id': 2, 'struct_asym_id': 'F', 'residue_number': 1, 'chem_comp_name': '~{N}-[(2~{S})-3-(4-fluorophenyl)-1-oxidanylidene-1-[[(2~{S})-1-oxidanylidene-3-[(3~{S})-2-oxidanylidenepiperidin-3-yl]propan-2-yl]amino]propan-2-yl]-5-methyl-1,2-oxazole-3-carboxamide', 'weight': 444.456, 'carbohydrate_polymer': False, 'branch_name': ''}, {'chain_id': 'B', 'author_residue_number': 201, 'author_insertion_code': '', 'chem_comp_id': '5GI', 'alternate_conformers': 0, 'entity_id': 2, 'struct_asym_id': 'G', 'residue_number': 1, 'chem_comp_name': '~{N}-[(2~{S})-3-(4-fluorophenyl)-1-oxidanylidene-1-[[(2~{S})-1-oxidanylidene-3-[(3~{S})-2-oxidanylidenepiperidin-3-yl]propan-2-yl]amino]propan-2-yl]-5-methyl-1,2-oxazole-3-carboxamide', 'weight': 444.456, 'carbohydrate_polymer': False, 'branch_name': ''}, {'chain_id': 'C', 'author_residue_number': 201, 'author_insertion_code': '', 'chem_comp_id': '5GI', 'alternate_conformers': 0, 'entity_id': 2, 'struct_asym_id': 'H', 'residue_number': 1, 'chem_comp_name': '~{N}-[(2~{S})-3-(4-fluorophenyl)-1-oxidanylidene-1-[[(2~{S})-1-oxidanylidene-3-[(3~{S})-2-oxidanylidenepiperidin-3-yl]propan-2-yl]amino]propan-2-yl]-5-methyl-1,2-oxazole-3-carboxamide', 'weight': 444.456, 'carbohydrate_polymer': False, 'branch_name': ''}, {'chain_id': 'D', 'author_residue_number': 201, 'author_insertion_code': '', 'chem_comp_id': '5GI', 'alternate_conformers': 0, 'entity_id': 2, 'struct_asym_id': 'I', 'residue_number': 1, 'chem_comp_name': '~{N}-[(2~{S})-3-(4-fluorophenyl)-1-oxidanylidene-1-[[(2~{S})-1-oxidanylidene-3-[(3~{S})-2-oxidanylidenepiperidin-3-yl]propan-2-yl]amino]propan-2-yl]-5-methyl-1,2-oxazole-3-carboxamide', 'weight': 444.456, 'carbohydrate_polymer': False, 'branch_name': ''}, {'chain_id': 'E', 'author_residue_number': 201, 'author_insertion_code': '', 'chem_comp_id': '5GI', 'alternate_conformers': 0, 'entity_id': 2, 'struct_asym_id': 'J', 'residue_number': 1, 'chem_comp_name': '~{N}-[(2~{S})-3-(4-fluorophenyl)-1-oxidanylidene-1-[[(2~{S})-1-oxidanylidene-3-[(3~{S})-2-oxidanylidenepiperidin-3-yl]propan-2-yl]amino]propan-2-yl]-5-methyl-1,2-oxazole-3-carboxamide', 'weight': 444.456, 'carbohydrate_polymer': False, 'branch_name': ''}]

>  <ligand_codes>  (58) 
['5GI', '5GI', '5GI', '5GI', '5GI']

>  <cofactor_codes>  (58) 
[]

>  <has_cofactor>  (58) 
False

>  <covalent>  (58) 
False

>  <base_name>  (58) 
5GSW

>  <lig_resn>  (58) 
5GI

>  <lig_resi>  (58) 
201

>  <lig_chain>  (58) 
B

>  <lig_segi>  (58) 
G

>  <lig_alt>  (58) 


>  <polymer_chain>  (58) 
A

>  <single_smiles>  (58) 
Cc1onc(c1)C(=O)N[C@@H](Cc2ccc(F)cc2)C(=O)N[C@@H](C[C@@H]3CCCNC3=O)C=O

$$$$
5GIยง5
     RDKit          3D

 32 34  0  0  0  0  0  0  0  0999 V2000
    2.1340   36.0490  -21.9070 C   0  0  1  0  0  0  0  0  0  0  0  0
    3.5430   36.1020  -21.7220 N   0  0  0  0  0  0  0  0  0  0  0  0
    7.8670   36.0430  -20.5560 O   0  0  0  0  0  0  0  0  0  0  0  0
    1.6910   37.1960  -22.8100 C   0  0  0  0  0  0  0  0  0  0  0  0
    6.6020   36.3840  -20.7820 N   0  0  0  0  0  0  0  0  0  0  0  0
   -0.0370   33.2560  -25.2350 O   0  0  0  0  0  0  0  0  0  0  0  0
    2.0710   34.7320  -22.6090 C   0  0  0  0  0  0  0  0  0  0  0  0
    3.3050   29.8400  -19.9920 N   0  0  0  0  0  0  0  0  0  0  0  0
    3.0700   34.3750  -23.2110 O   0  0  0  0  0  0  0  0  0  0  0  0
    9.2370   34.0500  -19.8250 C   0  0  0  0  0  0  0  0  0  0  0  0
    0.9550   33.8520  -22.6360 N   0  0  0  0  0  0  0  0  0  0  0  0
    3.5480   34.6590  -19.9120 O   0  0  0  0  0  0  0  0  0  0  0  0
    1.4750   38.4730  -21.9710 C   0  0  0  0  0  0  0  0  0  0  0  0
    0.9820   30.0700  -19.9310 O   0  0  0  0  0  0  0  0  0  0  0  0
    0.7070   38.3840  -20.8460 C   0  0  0  0  0  0  0  0  0  0  0  0
    2.0660   39.6980  -22.3370 C   0  0  0  0  0  0  0  0  0  0  0  0
    0.5030   39.5000  -20.0580 C   0  0  0  0  0  0  0  0  0  0  0  0
    1.0860   40.7210  -20.4160 C   0  0  0  0  0  0  0  0  0  0  0  0
    1.8610   40.8140  -21.5460 C   0  0  0  0  0  0  0  0  0  0  0  0
    4.2090   35.3510  -20.6920 C   0  0  0  0  0  0  0  0  0  0  0  0
    5.7610   35.3820  -20.5450 C   0  0  0  0  0  0  0  0  0  0  0  0
    4.5430   29.9620  -20.7950 C   0  0  0  0  0  0  0  0  0  0  0  0
    6.5990   34.2760  -20.1340 C   0  0  0  0  0  0  0  0  0  0  0  0
    0.5340   32.3660  -24.6160 C   0  0  0  0  0  0  0  0  0  0  0  0
    7.9540   34.7920  -20.1660 C   0  0  0  0  0  0  0  0  0  0  0  0
    4.6650   31.2750  -21.5430 C   0  0  0  0  0  0  0  0  0  0  0  0
    1.3470   32.6420  -23.3880 C   0  0  2  0  0  0  0  0  0  0  0  0
    1.0690   31.4690  -22.4490 C   0  0  0  0  0  0  0  0  0  0  0  0
    2.2340   31.4220  -21.4760 C   0  0  1  0  0  0  0  0  0  0  0  0
    2.0960   30.1030  -20.7690 C   0  0  0  0  0  0  0  0  0  0  0  0
    3.4550   31.5160  -22.3210 C   0  0  0  0  0  0  0  0  0  0  0  0
    0.8860   41.8040  -19.6490 F   0  0  0  0  0  0  0  0  0  0  0  0
  1  2  1  0
  1  4  1  6
  1  7  1  0
  2 20  1  0
  3  5  1  0
  3 25  1  0
  4 13  1  0
  5 21  2  0
  6 24  2  0
  7  9  2  0
  7 11  1  0
  8 22  1  0
  8 30  1  0
 10 25  1  0
 11 27  1  0
 12 20  2  0
 13 15  2  0
 13 16  1  0
 14 30  2  0
 15 17  1  0
 16 19  2  0
 17 18  2  0
 18 19  1  0
 18 32  1  0
 20 21  1  0
 21 23  1  0
 22 26  1  0
 23 25  2  0
 24 27  1  0
 26 31  1  0
 27 28  1  1
 29 28  1  6
 29 30  1  0
 29 31  1  0
A    1
 C1 
A    2
 N1 
A    3
 O1 
A    4
 C2 
A    5
 N2 
A    6
 O2 
A    7
 C3 
A    8
 N3 
A    9
 O3 
A   10
 C4 
A   11
 N4 
A   12
 O4 
A   13
 C5 
A   14
 O5 
A   15
 C6 
A   16
 C7 
A   17
 C8 
A   18
 C9 
A   19
 C10
A   20
 C11
A   21
 C12
A   22
 C13
A   23
 C14
A   24
 C15
A   25
 C16
A   26
 C17
A   27
 C18
A   28
 C19
A   29
 C20
A   30
 C21
A   31
 C22
A   32
 F1 
M  END
>  <XChem_code>  (59) 
5GIยง5

>  <Occupancy>  (59) 
[1.0, 1.0, 1.0, 1.0, 1.0, 1.0, 1.0, 1.0, 1.0, 1.0, 1.0, 1.0, 1.0, 1.0, 1.0, 1.0, 1.0, 1.0, 1.0, 1.0, 1.0, 1.0, 1.0, 1.0, 1.0, 1.0, 1.0, 1.0, 1.0, 1.0, 1.0, 1.0]

>  <TempFactor>  (59) 
[59.92, 60.75, 72.19, 58.85, 71.67, 64.79, 60.55, 53.4, 60.68, 72.5, 60.63, 60.94, 57.74, 52.67, 56.81, 58.21, 57.17, 58.1, 58.62, 61.58, 70.6, 53.86, 70.98, 63.06, 71.94, 54.62, 60.74, 57.92, 55.47, 53.47, 54.86, 58.79]

>  <accession>  (59) 
5GSW_A

>  <description>  (59) 
Chain A, 3C protein [Enterovirus A71]

>  <evalue>  (59) 
4.66342e-58

>  <pdb_code>  (59) 
5GSW

>  <chain>  (59) 
A

>  <ligands>  (59) 
[{'chain_id': 'A', 'author_residue_number': 201, 'author_insertion_code': '', 'chem_comp_id': '5GI', 'alternate_conformers': 0, 'entity_id': 2, 'struct_asym_id': 'F', 'residue_number': 1, 'chem_comp_name': '~{N}-[(2~{S})-3-(4-fluorophenyl)-1-oxidanylidene-1-[[(2~{S})-1-oxidanylidene-3-[(3~{S})-2-oxidanylidenepiperidin-3-yl]propan-2-yl]amino]propan-2-yl]-5-methyl-1,2-oxazole-3-carboxamide', 'weight': 444.456, 'carbohydrate_polymer': False, 'branch_name': ''}, {'chain_id': 'B', 'author_residue_number': 201, 'author_insertion_code': '', 'chem_comp_id': '5GI', 'alternate_conformers': 0, 'entity_id': 2, 'struct_asym_id': 'G', 'residue_number': 1, 'chem_comp_name': '~{N}-[(2~{S})-3-(4-fluorophenyl)-1-oxidanylidene-1-[[(2~{S})-1-oxidanylidene-3-[(3~{S})-2-oxidanylidenepiperidin-3-yl]propan-2-yl]amino]propan-2-yl]-5-methyl-1,2-oxazole-3-carboxamide', 'weight': 444.456, 'carbohydrate_polymer': False, 'branch_name': ''}, {'chain_id': 'C', 'author_residue_number': 201, 'author_insertion_code': '', 'chem_comp_id': '5GI', 'alternate_conformers': 0, 'entity_id': 2, 'struct_asym_id': 'H', 'residue_number': 1, 'chem_comp_name': '~{N}-[(2~{S})-3-(4-fluorophenyl)-1-oxidanylidene-1-[[(2~{S})-1-oxidanylidene-3-[(3~{S})-2-oxidanylidenepiperidin-3-yl]propan-2-yl]amino]propan-2-yl]-5-methyl-1,2-oxazole-3-carboxamide', 'weight': 444.456, 'carbohydrate_polymer': False, 'branch_name': ''}, {'chain_id': 'D', 'author_residue_number': 201, 'author_insertion_code': '', 'chem_comp_id': '5GI', 'alternate_conformers': 0, 'entity_id': 2, 'struct_asym_id': 'I', 'residue_number': 1, 'chem_comp_name': '~{N}-[(2~{S})-3-(4-fluorophenyl)-1-oxidanylidene-1-[[(2~{S})-1-oxidanylidene-3-[(3~{S})-2-oxidanylidenepiperidin-3-yl]propan-2-yl]amino]propan-2-yl]-5-methyl-1,2-oxazole-3-carboxamide', 'weight': 444.456, 'carbohydrate_polymer': False, 'branch_name': ''}, {'chain_id': 'E', 'author_residue_number': 201, 'author_insertion_code': '', 'chem_comp_id': '5GI', 'alternate_conformers': 0, 'entity_id': 2, 'struct_asym_id': 'J', 'residue_number': 1, 'chem_comp_name': '~{N}-[(2~{S})-3-(4-fluorophenyl)-1-oxidanylidene-1-[[(2~{S})-1-oxidanylidene-3-[(3~{S})-2-oxidanylidenepiperidin-3-yl]propan-2-yl]amino]propan-2-yl]-5-methyl-1,2-oxazole-3-carboxamide', 'weight': 444.456, 'carbohydrate_polymer': False, 'branch_name': ''}]

>  <ligand_codes>  (59) 
['5GI', '5GI', '5GI', '5GI', '5GI']

>  <cofactor_codes>  (59) 
[]

>  <has_cofactor>  (59) 
False

>  <covalent>  (59) 
False

>  <base_name>  (59) 
5GSW

>  <lig_resn>  (59) 
5GI

>  <lig_resi>  (59) 
201

>  <lig_chain>  (59) 
E

>  <lig_segi>  (59) 
J

>  <lig_alt>  (59) 


>  <polymer_chain>  (59) 
A

>  <single_smiles>  (59) 
Cc1onc(c1)C(=O)N[C@@H](Cc2ccc(F)cc2)C(=O)N[C@@H](C[C@@H]3CCCNC3=O)C=O

$$$$
EDOยง15
     RDKit          3D

  4  3  0  0  0  0  0  0  0  0999 V2000
   -4.9320    6.3010  -38.7580 C   0  0  0  0  0  0  0  0  0  0  0  0
   -5.2750    5.6540  -37.5260 O   0  0  0  0  0  0  0  0  0  0  0  0
   -3.4330    6.1390  -39.0240 C   0  0  0  0  0  0  0  0  0  0  0  0
   -3.0690    4.7830  -39.3660 O   0  0  0  0  0  0  0  0  0  0  0  0
  1  2  1  0
  1  3  1  0
  3  4  1  0
A    1
 C1 
A    2
 O1 
A    3
 C2 
A    4
 O2 
M  END
>  <XChem_code>  (60) 
EDOยง15

>  <Occupancy>  (60) 
[1.0, 1.0, 1.0, 1.0]

>  <TempFactor>  (60) 
[22.14, 21.87, 22.21, 21.34]

>  <accession>  (60) 
3R0F_A

>  <description>  (60) 
Chain A, 3C protein [Enterovirus A71]

>  <evalue>  (60) 
6.09465e-58

>  <pdb_code>  (60) 
3R0F

>  <chain>  (60) 
A

>  <ligands>  (60) 
[{'chain_id': 'A', 'author_residue_number': 501, 'author_insertion_code': '', 'chem_comp_id': 'AG7', 'alternate_conformers': 0, 'entity_id': 2, 'struct_asym_id': 'C', 'residue_number': 1, 'chem_comp_name': '4-{2-(4-FLUORO-BENZYL)-6-METHYL-5-[(5-METHYL-ISOXAZOLE-3-CARBONYL)-AMINO]-4-OXO-HEPTANOYLAMINO}-5-(2-OXO-PYRROLIDIN-3-YL)-PENTANOIC ACID ETHYL ESTER', 'weight': 600.678, 'carbohydrate_polymer': False, 'branch_name': ''}, {'chain_id': 'B', 'author_residue_number': 501, 'author_insertion_code': '', 'chem_comp_id': 'AG7', 'alternate_conformers': 0, 'entity_id': 2, 'struct_asym_id': 'F', 'residue_number': 1, 'chem_comp_name': '4-{2-(4-FLUORO-BENZYL)-6-METHYL-5-[(5-METHYL-ISOXAZOLE-3-CARBONYL)-AMINO]-4-OXO-HEPTANOYLAMINO}-5-(2-OXO-PYRROLIDIN-3-YL)-PENTANOIC ACID ETHYL ESTER', 'weight': 600.678, 'carbohydrate_polymer': False, 'branch_name': ''}, {'chain_id': 'A', 'author_residue_number': 184, 'author_insertion_code': '', 'chem_comp_id': 'EDO', 'alternate_conformers': 0, 'entity_id': 3, 'struct_asym_id': 'D', 'residue_number': 1, 'chem_comp_name': '1,2-ETHANEDIOL', 'weight': 62.068, 'carbohydrate_polymer': False, 'branch_name': ''}, {'chain_id': 'A', 'author_residue_number': 185, 'author_insertion_code': '', 'chem_comp_id': 'EDO', 'alternate_conformers': 0, 'entity_id': 3, 'struct_asym_id': 'E', 'residue_number': 1, 'chem_comp_name': '1,2-ETHANEDIOL', 'weight': 62.068, 'carbohydrate_polymer': False, 'branch_name': ''}, {'chain_id': 'B', 'author_residue_number': 184, 'author_insertion_code': '', 'chem_comp_id': 'EDO', 'alternate_conformers': 0, 'entity_id': 3, 'struct_asym_id': 'G', 'residue_number': 1, 'chem_comp_name': '1,2-ETHANEDIOL', 'weight': 62.068, 'carbohydrate_polymer': False, 'branch_name': ''}, {'chain_id': 'B', 'author_residue_number': 185, 'author_insertion_code': '', 'chem_comp_id': 'EDO', 'alternate_conformers': 0, 'entity_id': 3, 'struct_asym_id': 'H', 'residue_number': 1, 'chem_comp_name': '1,2-ETHANEDIOL', 'weight': 62.068, 'carbohydrate_polymer': False, 'branch_name': ''}]

>  <ligand_codes>  (60) 
['AG7', 'AG7', 'EDO', 'EDO', 'EDO', 'EDO']

>  <cofactor_codes>  (60) 
[]

>  <has_cofactor>  (60) 
False

>  <covalent>  (60) 
False

>  <base_name>  (60) 
3R0F

>  <lig_resn>  (60) 
EDO

>  <lig_resi>  (60) 
185

>  <lig_chain>  (60) 
A

>  <lig_segi>  (60) 
E

>  <lig_alt>  (60) 


>  <polymer_chain>  (60) 
A

>  <single_smiles>  (60) 
OCCO

$$$$
EDOยง16
     RDKit          3D

  4  3  0  0  0  0  0  0  0  0999 V2000
  -62.9760   12.8370  -19.3370 C   0  0  0  0  0  0  0  0  0  0  0  0
  -63.1590   11.4130  -19.3910 O   0  0  0  0  0  0  0  0  0  0  0  0
  -61.9270   13.1830  -18.2920 C   0  0  0  0  0  0  0  0  0  0  0  0
  -62.5500   13.0940  -17.0000 O   0  0  0  0  0  0  0  0  0  0  0  0
  1  2  1  0
  1  3  1  0
  3  4  1  0
A    1
 C1 
A    2
 O1 
A    3
 C2 
A    4
 O2 
M  END
>  <XChem_code>  (61) 
EDOยง16

>  <Occupancy>  (61) 
[1.0, 1.0, 1.0, 1.0]

>  <TempFactor>  (61) 
[23.65, 26.75, 21.1, 25.17]

>  <accession>  (61) 
3R0F_A

>  <description>  (61) 
Chain A, 3C protein [Enterovirus A71]

>  <evalue>  (61) 
6.09465e-58

>  <pdb_code>  (61) 
3R0F

>  <chain>  (61) 
A

>  <ligands>  (61) 
[{'chain_id': 'A', 'author_residue_number': 501, 'author_insertion_code': '', 'chem_comp_id': 'AG7', 'alternate_conformers': 0, 'entity_id': 2, 'struct_asym_id': 'C', 'residue_number': 1, 'chem_comp_name': '4-{2-(4-FLUORO-BENZYL)-6-METHYL-5-[(5-METHYL-ISOXAZOLE-3-CARBONYL)-AMINO]-4-OXO-HEPTANOYLAMINO}-5-(2-OXO-PYRROLIDIN-3-YL)-PENTANOIC ACID ETHYL ESTER', 'weight': 600.678, 'carbohydrate_polymer': False, 'branch_name': ''}, {'chain_id': 'B', 'author_residue_number': 501, 'author_insertion_code': '', 'chem_comp_id': 'AG7', 'alternate_conformers': 0, 'entity_id': 2, 'struct_asym_id': 'F', 'residue_number': 1, 'chem_comp_name': '4-{2-(4-FLUORO-BENZYL)-6-METHYL-5-[(5-METHYL-ISOXAZOLE-3-CARBONYL)-AMINO]-4-OXO-HEPTANOYLAMINO}-5-(2-OXO-PYRROLIDIN-3-YL)-PENTANOIC ACID ETHYL ESTER', 'weight': 600.678, 'carbohydrate_polymer': False, 'branch_name': ''}, {'chain_id': 'A', 'author_residue_number': 184, 'author_insertion_code': '', 'chem_comp_id': 'EDO', 'alternate_conformers': 0, 'entity_id': 3, 'struct_asym_id': 'D', 'residue_number': 1, 'chem_comp_name': '1,2-ETHANEDIOL', 'weight': 62.068, 'carbohydrate_polymer': False, 'branch_name': ''}, {'chain_id': 'A', 'author_residue_number': 185, 'author_insertion_code': '', 'chem_comp_id': 'EDO', 'alternate_conformers': 0, 'entity_id': 3, 'struct_asym_id': 'E', 'residue_number': 1, 'chem_comp_name': '1,2-ETHANEDIOL', 'weight': 62.068, 'carbohydrate_polymer': False, 'branch_name': ''}, {'chain_id': 'B', 'author_residue_number': 184, 'author_insertion_code': '', 'chem_comp_id': 'EDO', 'alternate_conformers': 0, 'entity_id': 3, 'struct_asym_id': 'G', 'residue_number': 1, 'chem_comp_name': '1,2-ETHANEDIOL', 'weight': 62.068, 'carbohydrate_polymer': False, 'branch_name': ''}, {'chain_id': 'B', 'author_residue_number': 185, 'author_insertion_code': '', 'chem_comp_id': 'EDO', 'alternate_conformers': 0, 'entity_id': 3, 'struct_asym_id': 'H', 'residue_number': 1, 'chem_comp_name': '1,2-ETHANEDIOL', 'weight': 62.068, 'carbohydrate_polymer': False, 'branch_name': ''}]

>  <ligand_codes>  (61) 
['AG7', 'AG7', 'EDO', 'EDO', 'EDO', 'EDO']

>  <cofactor_codes>  (61) 
[]

>  <has_cofactor>  (61) 
False

>  <covalent>  (61) 
False

>  <base_name>  (61) 
3R0F

>  <lig_resn>  (61) 
EDO

>  <lig_resi>  (61) 
184

>  <lig_chain>  (61) 
B

>  <lig_segi>  (61) 
G

>  <lig_alt>  (61) 


>  <polymer_chain>  (61) 
A

>  <single_smiles>  (61) 
OCCO

$$$$
EDOยง17
     RDKit          3D

  4  3  0  0  0  0  0  0  0  0999 V2000
   -5.3970   -5.1800  -41.0150 C   0  0  0  0  0  0  0  0  0  0  0  0
   -5.6640   -6.5530  -40.6950 O   0  0  0  0  0  0  0  0  0  0  0  0
   -6.1610   -4.7980  -42.2700 C   0  0  0  0  0  0  0  0  0  0  0  0
   -5.7060   -5.6110  -43.3510 O   0  0  0  0  0  0  0  0  0  0  0  0
  1  2  1  0
  1  3  1  0
  3  4  1  0
A    1
 C1 
A    2
 O1 
A    3
 C2 
A    4
 O2 
M  END
>  <XChem_code>  (62) 
EDOยง17

>  <Occupancy>  (62) 
[1.0, 1.0, 1.0, 1.0]

>  <TempFactor>  (62) 
[22.85, 24.59, 21.41, 23.0]

>  <accession>  (62) 
3R0F_A

>  <description>  (62) 
Chain A, 3C protein [Enterovirus A71]

>  <evalue>  (62) 
6.09465e-58

>  <pdb_code>  (62) 
3R0F

>  <chain>  (62) 
A

>  <ligands>  (62) 
[{'chain_id': 'A', 'author_residue_number': 501, 'author_insertion_code': '', 'chem_comp_id': 'AG7', 'alternate_conformers': 0, 'entity_id': 2, 'struct_asym_id': 'C', 'residue_number': 1, 'chem_comp_name': '4-{2-(4-FLUORO-BENZYL)-6-METHYL-5-[(5-METHYL-ISOXAZOLE-3-CARBONYL)-AMINO]-4-OXO-HEPTANOYLAMINO}-5-(2-OXO-PYRROLIDIN-3-YL)-PENTANOIC ACID ETHYL ESTER', 'weight': 600.678, 'carbohydrate_polymer': False, 'branch_name': ''}, {'chain_id': 'B', 'author_residue_number': 501, 'author_insertion_code': '', 'chem_comp_id': 'AG7', 'alternate_conformers': 0, 'entity_id': 2, 'struct_asym_id': 'F', 'residue_number': 1, 'chem_comp_name': '4-{2-(4-FLUORO-BENZYL)-6-METHYL-5-[(5-METHYL-ISOXAZOLE-3-CARBONYL)-AMINO]-4-OXO-HEPTANOYLAMINO}-5-(2-OXO-PYRROLIDIN-3-YL)-PENTANOIC ACID ETHYL ESTER', 'weight': 600.678, 'carbohydrate_polymer': False, 'branch_name': ''}, {'chain_id': 'A', 'author_residue_number': 184, 'author_insertion_code': '', 'chem_comp_id': 'EDO', 'alternate_conformers': 0, 'entity_id': 3, 'struct_asym_id': 'D', 'residue_number': 1, 'chem_comp_name': '1,2-ETHANEDIOL', 'weight': 62.068, 'carbohydrate_polymer': False, 'branch_name': ''}, {'chain_id': 'A', 'author_residue_number': 185, 'author_insertion_code': '', 'chem_comp_id': 'EDO', 'alternate_conformers': 0, 'entity_id': 3, 'struct_asym_id': 'E', 'residue_number': 1, 'chem_comp_name': '1,2-ETHANEDIOL', 'weight': 62.068, 'carbohydrate_polymer': False, 'branch_name': ''}, {'chain_id': 'B', 'author_residue_number': 184, 'author_insertion_code': '', 'chem_comp_id': 'EDO', 'alternate_conformers': 0, 'entity_id': 3, 'struct_asym_id': 'G', 'residue_number': 1, 'chem_comp_name': '1,2-ETHANEDIOL', 'weight': 62.068, 'carbohydrate_polymer': False, 'branch_name': ''}, {'chain_id': 'B', 'author_residue_number': 185, 'author_insertion_code': '', 'chem_comp_id': 'EDO', 'alternate_conformers': 0, 'entity_id': 3, 'struct_asym_id': 'H', 'residue_number': 1, 'chem_comp_name': '1,2-ETHANEDIOL', 'weight': 62.068, 'carbohydrate_polymer': False, 'branch_name': ''}]

>  <ligand_codes>  (62) 
['AG7', 'AG7', 'EDO', 'EDO', 'EDO', 'EDO']

>  <cofactor_codes>  (62) 
[]

>  <has_cofactor>  (62) 
False

>  <covalent>  (62) 
False

>  <base_name>  (62) 
3R0F

>  <lig_resn>  (62) 
EDO

>  <lig_resi>  (62) 
184

>  <lig_chain>  (62) 
A

>  <lig_segi>  (62) 
D

>  <lig_alt>  (62) 


>  <polymer_chain>  (62) 
A

>  <single_smiles>  (62) 
OCCO

$$$$
EDOยง18
     RDKit          3D

  4  3  0  0  0  0  0  0  0  0999 V2000
  -59.8410   22.7230  -24.9540 C   0  0  0  0  0  0  0  0  0  0  0  0
  -60.7490   21.8350  -24.2710 O   0  0  0  0  0  0  0  0  0  0  0  0
  -58.4430   22.1030  -25.0740 C   0  0  0  0  0  0  0  0  0  0  0  0
  -58.4570   21.0230  -26.0050 O   0  0  0  0  0  0  0  0  0  0  0  0
  1  2  1  0
  1  3  1  0
  3  4  1  0
A    1
 C1 
A    2
 O1 
A    3
 C2 
A    4
 O2 
M  END
>  <XChem_code>  (63) 
EDOยง18

>  <Occupancy>  (63) 
[1.0, 1.0, 1.0, 1.0]

>  <TempFactor>  (63) 
[22.12, 20.81, 22.06, 20.77]

>  <accession>  (63) 
3R0F_A

>  <description>  (63) 
Chain A, 3C protein [Enterovirus A71]

>  <evalue>  (63) 
6.09465e-58

>  <pdb_code>  (63) 
3R0F

>  <chain>  (63) 
A

>  <ligands>  (63) 
[{'chain_id': 'A', 'author_residue_number': 501, 'author_insertion_code': '', 'chem_comp_id': 'AG7', 'alternate_conformers': 0, 'entity_id': 2, 'struct_asym_id': 'C', 'residue_number': 1, 'chem_comp_name': '4-{2-(4-FLUORO-BENZYL)-6-METHYL-5-[(5-METHYL-ISOXAZOLE-3-CARBONYL)-AMINO]-4-OXO-HEPTANOYLAMINO}-5-(2-OXO-PYRROLIDIN-3-YL)-PENTANOIC ACID ETHYL ESTER', 'weight': 600.678, 'carbohydrate_polymer': False, 'branch_name': ''}, {'chain_id': 'B', 'author_residue_number': 501, 'author_insertion_code': '', 'chem_comp_id': 'AG7', 'alternate_conformers': 0, 'entity_id': 2, 'struct_asym_id': 'F', 'residue_number': 1, 'chem_comp_name': '4-{2-(4-FLUORO-BENZYL)-6-METHYL-5-[(5-METHYL-ISOXAZOLE-3-CARBONYL)-AMINO]-4-OXO-HEPTANOYLAMINO}-5-(2-OXO-PYRROLIDIN-3-YL)-PENTANOIC ACID ETHYL ESTER', 'weight': 600.678, 'carbohydrate_polymer': False, 'branch_name': ''}, {'chain_id': 'A', 'author_residue_number': 184, 'author_insertion_code': '', 'chem_comp_id': 'EDO', 'alternate_conformers': 0, 'entity_id': 3, 'struct_asym_id': 'D', 'residue_number': 1, 'chem_comp_name': '1,2-ETHANEDIOL', 'weight': 62.068, 'carbohydrate_polymer': False, 'branch_name': ''}, {'chain_id': 'A', 'author_residue_number': 185, 'author_insertion_code': '', 'chem_comp_id': 'EDO', 'alternate_conformers': 0, 'entity_id': 3, 'struct_asym_id': 'E', 'residue_number': 1, 'chem_comp_name': '1,2-ETHANEDIOL', 'weight': 62.068, 'carbohydrate_polymer': False, 'branch_name': ''}, {'chain_id': 'B', 'author_residue_number': 184, 'author_insertion_code': '', 'chem_comp_id': 'EDO', 'alternate_conformers': 0, 'entity_id': 3, 'struct_asym_id': 'G', 'residue_number': 1, 'chem_comp_name': '1,2-ETHANEDIOL', 'weight': 62.068, 'carbohydrate_polymer': False, 'branch_name': ''}, {'chain_id': 'B', 'author_residue_number': 185, 'author_insertion_code': '', 'chem_comp_id': 'EDO', 'alternate_conformers': 0, 'entity_id': 3, 'struct_asym_id': 'H', 'residue_number': 1, 'chem_comp_name': '1,2-ETHANEDIOL', 'weight': 62.068, 'carbohydrate_polymer': False, 'branch_name': ''}]

>  <ligand_codes>  (63) 
['AG7', 'AG7', 'EDO', 'EDO', 'EDO', 'EDO']

>  <cofactor_codes>  (63) 
[]

>  <has_cofactor>  (63) 
False

>  <covalent>  (63) 
False

>  <base_name>  (63) 
3R0F

>  <lig_resn>  (63) 
EDO

>  <lig_resi>  (63) 
185

>  <lig_chain>  (63) 
B

>  <lig_segi>  (63) 
H

>  <lig_alt>  (63) 


>  <polymer_chain>  (63) 
A

>  <single_smiles>  (63) 
OCCO

$$$$
AG7ยง20
     RDKit          3D

 44 46  0  0  0  0  0  0  0  0999 V2000
  -51.8500   26.1360  -32.6470 C   0  0  0  0  0  0  0  0  0  0  0  0
  -49.6000   26.9170  -36.7790 C   0  0  0  0  0  0  0  0  0  0  0  0
  -51.8520   26.3160  -31.1240 C   0  0  0  0  0  0  0  0  0  0  0  0
  -48.3690   27.2520  -37.4960 C   0  0  0  0  0  0  0  0  0  0  0  0
  -48.4210   26.6330  -38.6570 C   0  0  0  0  0  0  0  0  0  0  0  0
  -52.1180   25.0740  -33.1680 O   0  0  0  0  0  0  0  0  0  0  0  0
  -52.0890   24.9770  -30.4060 C   0  0  1  0  0  0  0  0  0  0  0  0
  -47.3560   26.6560  -39.7260 C   0  0  0  0  0  0  0  0  0  0  0  0
  -49.5840   25.8790  -38.6680 O   0  0  0  0  0  0  0  0  0  0  0  0
  -51.9520   25.0560  -28.8950 C   0  0  0  0  0  0  0  0  0  0  0  0
  -50.2820   26.0430  -37.5160 N   0  0  0  0  0  0  0  0  0  0  0  0
  -50.5700   25.5380  -28.4840 C   0  0  0  0  0  0  0  0  0  0  0  0
  -49.4740   24.7690  -28.7110 C   0  0  0  0  0  0  0  0  0  0  0  0
  -48.1240   25.2460  -28.2640 C   0  0  0  0  0  0  0  0  0  0  0  0
  -48.0070   26.4370  -27.6310 C   0  0  0  0  0  0  0  0  0  0  0  0
  -49.2130   27.2730  -27.3610 C   0  0  0  0  0  0  0  0  0  0  0  0
  -50.4410   26.8470  -27.7770 C   0  0  0  0  0  0  0  0  0  0  0  0
  -53.6610   23.0340  -30.9680 N   0  0  0  0  0  0  0  0  0  0  0  0
  -55.0210   22.4600  -31.0350 C   0  0  1  0  0  0  0  0  0  0  0  0
  -55.2920   21.8900  -32.4180 C   0  0  0  0  0  0  0  0  0  0  0  0
  -55.1560   22.9760  -33.4990 C   0  0  1  0  0  0  0  0  0  0  0  0
  -55.4120   22.4280  -34.8470 C   0  0  0  0  0  0  0  0  0  0  0  0
  -56.1750   23.4070  -35.5690 N   0  0  0  0  0  0  0  0  0  0  0  0
  -55.1200   21.3200  -35.2550 O   0  0  0  0  0  0  0  0  0  0  0  0
  -55.2030   21.4440  -29.9050 C   0  0  2  0  0  0  0  0  0  0  0  0
  -55.1200   21.9550  -28.4770 C   0  0  0  0  0  0  0  0  0  0  0  0
  -56.2360   22.9470  -28.2650 C   0  0  0  0  0  0  0  0  0  0  0  0
  -55.9890   24.0730  -27.7100 O   0  0  0  0  0  0  0  0  0  0  0  0
  -57.3690   22.7200  -28.7430 O   0  0  0  0  0  0  0  0  0  0  0  0
  -53.4780   24.4800  -30.7600 C   0  0  0  0  0  0  0  0  0  0  0  0
  -54.4350   25.2140  -30.6790 O   0  0  0  0  0  0  0  0  0  0  0  0
  -57.0160   24.9850  -27.5390 C   0  0  0  0  0  0  0  0  0  0  0  0
  -56.4270   26.3330  -27.1840 C   0  0  0  0  0  0  0  0  0  0  0  0
  -51.5990   27.3910  -33.5130 C   0  0  1  0  0  0  0  0  0  0  0  0
  -51.2680   27.0160  -34.8660 N   0  0  0  0  0  0  0  0  0  0  0  0
  -49.9830   27.4050  -35.4090 C   0  0  0  0  0  0  0  0  0  0  0  0
  -49.2080   28.0860  -34.7500 O   0  0  0  0  0  0  0  0  0  0  0  0
  -52.7650   28.3610  -33.4950 C   0  0  1  0  0  0  0  0  0  0  0  0
  -52.4870   29.6020  -34.3230 C   0  0  0  0  0  0  0  0  0  0  0  0
  -53.9960   27.6670  -34.0170 C   0  0  0  0  0  0  0  0  0  0  0  0
  -56.3280   24.5910  -34.7480 C   0  0  0  0  0  0  0  0  0  0  0  0
  -56.1760   24.0650  -33.3320 C   0  0  0  0  0  0  0  0  0  0  0  0
  -53.6900   20.1840  -30.1230 R   0  0  0  0  0  0  0  0  0  0  0  0
  -46.8220   26.8560  -27.2270 F   0  0  0  0  0  0  0  0  0  0  0  0
  1  3  1  0
  1  6  2  0
  1 34  1  0
  2  4  1  0
  2 11  2  0
  2 36  1  0
  7  3  1  6
  4  5  2  0
  5  8  1  0
  5  9  1  0
  7 10  1  0
  7 30  1  0
  9 11  1  0
 10 12  1  0
 12 13  2  0
 12 17  1  0
 13 14  1  0
 14 15  2  0
 15 16  1  0
 15 44  1  0
 16 17  2  0
 18 19  1  0
 18 30  1  0
 19 20  1  6
 19 25  1  0
 21 20  1  1
 21 22  1  0
 21 42  1  0
 22 23  1  0
 22 24  2  0
 23 41  1  0
 25 26  1  0
 25 43  1  1
 26 27  1  0
 27 28  1  0
 27 29  2  0
 28 32  1  0
 30 31  2  0
 32 33  1  0
 34 35  1  6
 34 38  1  0
 35 36  1  0
 36 37  2  0
 38 39  1  6
 38 40  1  0
 41 42  1  0
A    1
 C01
A    2
 C1 
A    3
 C02
A    4
 C2 
A    5
 C3 
A    6
 O03
A    7
 C04
A    8
 C4 
A    9
 O4 
A   10
 C05
A   11
 N5 
A   12
 C06
A   13
 C07
A   14
 C08
A   15
 C09
A   16
 C10
A   17
 C11
A   18
 N12
A   19
 C13
A   20
 C14
A   21
 C15
A   22
 C16
A   23
 N17
A   24
 O18
A   25
 C19
A   26
 C20
A   27
 C21
A   28
 O22
A   29
 O23
A   30
 C47
A   31
 O48
A   32
 C50
A   33
 C53
A   34
 C57
A   35
 N58
A   36
 C59
A   37
 O60
A   38
 C78
A   39
 C81
A   40
 C82
A   41
 C83
A   42
 C84
A   43
 X  
A   44
 F1 
M  END
>  <XChem_code>  (64) 
AG7ยง20

>  <Occupancy>  (64) 
[1.0, 1.0, 1.0, 1.0, 1.0, 1.0, 1.0, 1.0, 1.0, 1.0, 1.0, 1.0, 1.0, 1.0, 1.0, 1.0, 1.0, 1.0, 1.0, 1.0, 1.0, 1.0, 1.0, 1.0, 1.0, 1.0, 1.0, 1.0, 1.0, 1.0, 1.0, 1.0, 1.0, 1.0, 1.0, 1.0, 1.0, 1.0, 1.0, 1.0, 1.0, 1.0, 1.0, 1.0]

>  <TempFactor>  (64) 
[12.52, 20.94, 11.96, 24.19, 29.68, 10.74, 12.5, 33.31, 33.65, 13.76, 26.63, 17.37, 20.02, 24.78, 26.22, 24.79, 21.11, 11.09, 11.56, 10.11, 11.12, 14.72, 11.74, 10.57, 11.88, 13.62, 16.88, 19.64, 15.25, 12.35, 13.19, 26.15, 33.82, 11.25, 13.01, 16.02, 16.7, 14.65, 17.75, 16.48, 12.17, 10.98, 9.88, 29.3]

>  <accession>  (64) 
3R0F_A

>  <description>  (64) 
Chain A, 3C protein [Enterovirus A71]

>  <evalue>  (64) 
6.09465e-58

>  <pdb_code>  (64) 
3R0F

>  <chain>  (64) 
A

>  <ligands>  (64) 
[{'chain_id': 'A', 'author_residue_number': 501, 'author_insertion_code': '', 'chem_comp_id': 'AG7', 'alternate_conformers': 0, 'entity_id': 2, 'struct_asym_id': 'C', 'residue_number': 1, 'chem_comp_name': '4-{2-(4-FLUORO-BENZYL)-6-METHYL-5-[(5-METHYL-ISOXAZOLE-3-CARBONYL)-AMINO]-4-OXO-HEPTANOYLAMINO}-5-(2-OXO-PYRROLIDIN-3-YL)-PENTANOIC ACID ETHYL ESTER', 'weight': 600.678, 'carbohydrate_polymer': False, 'branch_name': ''}, {'chain_id': 'B', 'author_residue_number': 501, 'author_insertion_code': '', 'chem_comp_id': 'AG7', 'alternate_conformers': 0, 'entity_id': 2, 'struct_asym_id': 'F', 'residue_number': 1, 'chem_comp_name': '4-{2-(4-FLUORO-BENZYL)-6-METHYL-5-[(5-METHYL-ISOXAZOLE-3-CARBONYL)-AMINO]-4-OXO-HEPTANOYLAMINO}-5-(2-OXO-PYRROLIDIN-3-YL)-PENTANOIC ACID ETHYL ESTER', 'weight': 600.678, 'carbohydrate_polymer': False, 'branch_name': ''}, {'chain_id': 'A', 'author_residue_number': 184, 'author_insertion_code': '', 'chem_comp_id': 'EDO', 'alternate_conformers': 0, 'entity_id': 3, 'struct_asym_id': 'D', 'residue_number': 1, 'chem_comp_name': '1,2-ETHANEDIOL', 'weight': 62.068, 'carbohydrate_polymer': False, 'branch_name': ''}, {'chain_id': 'A', 'author_residue_number': 185, 'author_insertion_code': '', 'chem_comp_id': 'EDO', 'alternate_conformers': 0, 'entity_id': 3, 'struct_asym_id': 'E', 'residue_number': 1, 'chem_comp_name': '1,2-ETHANEDIOL', 'weight': 62.068, 'carbohydrate_polymer': False, 'branch_name': ''}, {'chain_id': 'B', 'author_residue_number': 184, 'author_insertion_code': '', 'chem_comp_id': 'EDO', 'alternate_conformers': 0, 'entity_id': 3, 'struct_asym_id': 'G', 'residue_number': 1, 'chem_comp_name': '1,2-ETHANEDIOL', 'weight': 62.068, 'carbohydrate_polymer': False, 'branch_name': ''}, {'chain_id': 'B', 'author_residue_number': 185, 'author_insertion_code': '', 'chem_comp_id': 'EDO', 'alternate_conformers': 0, 'entity_id': 3, 'struct_asym_id': 'H', 'residue_number': 1, 'chem_comp_name': '1,2-ETHANEDIOL', 'weight': 62.068, 'carbohydrate_polymer': False, 'branch_name': ''}]

>  <ligand_codes>  (64) 
['AG7', 'AG7', 'EDO', 'EDO', 'EDO', 'EDO']

>  <cofactor_codes>  (64) 
[]

>  <has_cofactor>  (64) 
False

>  <covalent>  (64) 
True

>  <base_name>  (64) 
3R0F

>  <lig_resn>  (64) 
AG7

>  <lig_resi>  (64) 
501

>  <lig_chain>  (64) 
B

>  <lig_segi>  (64) 
F

>  <lig_alt>  (64) 


>  <polymer_chain>  (64) 
A

>  <single_smiles>  (64) 
CCOC(=O)CC[C@H](C[C@@H]1CCNC1=O)NC(=O)[C@@H](CC(=O)[C@@H](NC(=O)c2cc(C)on2)C(C)C)Cc3ccc(F)cc3

$$$$
AG7ยง21
     RDKit          3D

 44 46  0  0  0  0  0  0  0  0999 V2000
   -8.6380   14.8860  -33.2600 C   0  0  0  0  0  0  0  0  0  0  0  0
  -10.1380   17.8080  -29.8610 C   0  0  0  0  0  0  0  0  0  0  0  0
   -8.6730   14.5850  -34.7520 C   0  0  0  0  0  0  0  0  0  0  0  0
  -11.1190   18.7800  -29.4370 C   0  0  0  0  0  0  0  0  0  0  0  0
  -11.2290   18.6960  -28.1430 C   0  0  0  0  0  0  0  0  0  0  0  0
   -8.8080   14.0630  -32.4060 O   0  0  0  0  0  0  0  0  0  0  0  0
   -9.0190   13.1280  -35.0570 C   0  0  1  0  0  0  0  0  0  0  0  0
  -12.1640   19.5270  -27.3100 C   0  0  0  0  0  0  0  0  0  0  0  0
  -10.5080   17.5930  -27.7590 O   0  0  0  0  0  0  0  0  0  0  0  0
   -9.1080   12.8250  -36.5400 C   0  0  0  0  0  0  0  0  0  0  0  0
   -9.8870   17.0260  -28.8310 N   0  0  0  0  0  0  0  0  0  0  0  0
  -10.1500   13.6920  -37.2180 C   0  0  0  0  0  0  0  0  0  0  0  0
  -11.4610   13.5630  -36.9490 C   0  0  0  0  0  0  0  0  0  0  0  0
  -12.4610   14.3840  -37.6880 C   0  0  0  0  0  0  0  0  0  0  0  0
  -12.0490   15.2290  -38.6420 C   0  0  0  0  0  0  0  0  0  0  0  0
  -10.6060   15.3460  -38.9640 C   0  0  0  0  0  0  0  0  0  0  0  0
   -9.6910   14.5990  -38.2790 C   0  0  0  0  0  0  0  0  0  0  0  0
   -8.3980   11.0090  -33.8670 N   0  0  0  0  0  0  0  0  0  0  0  0
   -7.4250    9.9840  -33.4820 C   0  0  1  0  0  0  0  0  0  0  0  0
   -7.3730    9.8180  -31.9860 C   0  0  0  0  0  0  0  0  0  0  0  0
   -6.9020   11.0990  -31.2870 C   0  0  1  0  0  0  0  0  0  0  0  0
   -6.8840   10.9300  -29.8210 C   0  0  0  0  0  0  0  0  0  0  0  0
   -5.7340   11.6000  -29.3140 N   0  0  0  0  0  0  0  0  0  0  0  0
   -7.5830   10.2190  -29.1600 O   0  0  0  0  0  0  0  0  0  0  0  0
   -7.8000    8.7080  -34.2240 C   0  0  2  0  0  0  0  0  0  0  0  0
   -7.6930    8.7200  -35.7320 C   0  0  0  0  0  0  0  0  0  0  0  0
   -6.2700    8.9490  -36.1640 C   0  0  0  0  0  0  0  0  0  0  0  0
   -6.0890    9.7380  -37.1470 O   0  0  0  0  0  0  0  0  0  0  0  0
   -5.3370    8.3840  -35.5820 O   0  0  0  0  0  0  0  0  0  0  0  0
   -7.9420   12.2650  -34.4580 C   0  0  0  0  0  0  0  0  0  0  0  0
   -6.7840   12.4330  -34.6620 O   0  0  0  0  0  0  0  0  0  0  0  0
   -4.7970   10.0720  -37.5320 C   0  0  0  0  0  0  0  0  0  0  0  0
   -4.8460   11.4130  -38.2360 C   0  0  0  0  0  0  0  0  0  0  0  0
   -8.3120   16.3420  -32.8970 C   0  0  1  0  0  0  0  0  0  0  0  0
   -8.7060   16.6300  -31.5470 N   0  0  0  0  0  0  0  0  0  0  0  0
   -9.7630   17.5740  -31.2860 C   0  0  0  0  0  0  0  0  0  0  0  0
  -10.1690   18.3250  -32.1460 O   0  0  0  0  0  0  0  0  0  0  0  0
   -6.8540   16.7080  -33.1340 C   0  0  1  0  0  0  0  0  0  0  0  0
   -6.6180   18.1230  -32.6450 C   0  0  0  0  0  0  0  0  0  0  0  0
   -5.9260   15.8060  -32.3870 C   0  0  0  0  0  0  0  0  0  0  0  0
   -5.0970   12.3000  -30.4180 C   0  0  0  0  0  0  0  0  0  0  0  0
   -5.5070   11.5250  -31.6520 C   0  0  0  0  0  0  0  0  0  0  0  0
   -9.6610    8.3310  -33.8000 R   0  0  0  0  0  0  0  0  0  0  0  0
  -12.9270   15.9490  -39.3140 F   0  0  0  0  0  0  0  0  0  0  0  0
  1  3  1  0
  1  6  2  0
  1 34  1  0
  2  4  1  0
  2 11  2  0
  2 36  1  0
  7  3  1  6
  4  5  2  0
  5  8  1  0
  5  9  1  0
  7 10  1  0
  7 30  1  0
  9 11  1  0
 10 12  1  0
 12 13  2  0
 12 17  1  0
 13 14  1  0
 14 15  2  0
 15 16  1  0
 15 44  1  0
 16 17  2  0
 18 19  1  0
 18 30  1  0
 19 20  1  1
 19 25  1  0
 21 20  1  6
 21 22  1  0
 21 42  1  0
 22 23  1  0
 22 24  2  0
 23 41  1  0
 25 26  1  0
 25 43  1  6
 26 27  1  0
 27 28  1  0
 27 29  2  0
 28 32  1  0
 30 31  2  0
 32 33  1  0
 34 35  1  1
 34 38  1  0
 35 36  1  0
 36 37  2  0
 38 39  1  1
 38 40  1  0
 41 42  1  0
A    1
 C01
A    2
 C1 
A    3
 C02
A    4
 C2 
A    5
 C3 
A    6
 O03
A    7
 C04
A    8
 C4 
A    9
 O4 
A   10
 C05
A   11
 N5 
A   12
 C06
A   13
 C07
A   14
 C08
A   15
 C09
A   16
 C10
A   17
 C11
A   18
 N12
A   19
 C13
A   20
 C14
A   21
 C15
A   22
 C16
A   23
 N17
A   24
 O18
A   25
 C19
A   26
 C20
A   27
 C21
A   28
 O22
A   29
 O23
A   30
 C47
A   31
 O48
A   32
 C50
A   33
 C53
A   34
 C57
A   35
 N58
A   36
 C59
A   37
 O60
A   38
 C78
A   39
 C81
A   40
 C82
A   41
 C83
A   42
 C84
A   43
 X  
A   44
 F1 
M  END
>  <XChem_code>  (65) 
AG7ยง21

>  <Occupancy>  (65) 
[1.0, 1.0, 1.0, 1.0, 1.0, 1.0, 1.0, 1.0, 1.0, 1.0, 1.0, 1.0, 1.0, 1.0, 1.0, 1.0, 1.0, 1.0, 1.0, 1.0, 1.0, 1.0, 1.0, 1.0, 1.0, 1.0, 1.0, 1.0, 1.0, 1.0, 1.0, 1.0, 1.0, 1.0, 1.0, 1.0, 1.0, 1.0, 1.0, 1.0, 1.0, 1.0, 1.0, 1.0]

>  <TempFactor>  (65) 
[11.1, 20.91, 12.33, 21.54, 28.02, 10.23, 11.74, 33.15, 31.53, 14.67, 25.91, 17.57, 20.17, 22.48, 24.62, 23.23, 20.48, 10.14, 10.8, 10.98, 11.96, 13.14, 11.93, 10.58, 15.79, 15.3, 17.28, 19.56, 15.73, 11.53, 12.15, 23.48, 27.32, 11.33, 13.47, 17.51, 18.05, 14.14, 15.23, 13.92, 11.83, 10.72, 9.75, 27.35]

>  <accession>  (65) 
3R0F_A

>  <description>  (65) 
Chain A, 3C protein [Enterovirus A71]

>  <evalue>  (65) 
6.09465e-58

>  <pdb_code>  (65) 
3R0F

>  <chain>  (65) 
A

>  <ligands>  (65) 
[{'chain_id': 'A', 'author_residue_number': 501, 'author_insertion_code': '', 'chem_comp_id': 'AG7', 'alternate_conformers': 0, 'entity_id': 2, 'struct_asym_id': 'C', 'residue_number': 1, 'chem_comp_name': '4-{2-(4-FLUORO-BENZYL)-6-METHYL-5-[(5-METHYL-ISOXAZOLE-3-CARBONYL)-AMINO]-4-OXO-HEPTANOYLAMINO}-5-(2-OXO-PYRROLIDIN-3-YL)-PENTANOIC ACID ETHYL ESTER', 'weight': 600.678, 'carbohydrate_polymer': False, 'branch_name': ''}, {'chain_id': 'B', 'author_residue_number': 501, 'author_insertion_code': '', 'chem_comp_id': 'AG7', 'alternate_conformers': 0, 'entity_id': 2, 'struct_asym_id': 'F', 'residue_number': 1, 'chem_comp_name': '4-{2-(4-FLUORO-BENZYL)-6-METHYL-5-[(5-METHYL-ISOXAZOLE-3-CARBONYL)-AMINO]-4-OXO-HEPTANOYLAMINO}-5-(2-OXO-PYRROLIDIN-3-YL)-PENTANOIC ACID ETHYL ESTER', 'weight': 600.678, 'carbohydrate_polymer': False, 'branch_name': ''}, {'chain_id': 'A', 'author_residue_number': 184, 'author_insertion_code': '', 'chem_comp_id': 'EDO', 'alternate_conformers': 0, 'entity_id': 3, 'struct_asym_id': 'D', 'residue_number': 1, 'chem_comp_name': '1,2-ETHANEDIOL', 'weight': 62.068, 'carbohydrate_polymer': False, 'branch_name': ''}, {'chain_id': 'A', 'author_residue_number': 185, 'author_insertion_code': '', 'chem_comp_id': 'EDO', 'alternate_conformers': 0, 'entity_id': 3, 'struct_asym_id': 'E', 'residue_number': 1, 'chem_comp_name': '1,2-ETHANEDIOL', 'weight': 62.068, 'carbohydrate_polymer': False, 'branch_name': ''}, {'chain_id': 'B', 'author_residue_number': 184, 'author_insertion_code': '', 'chem_comp_id': 'EDO', 'alternate_conformers': 0, 'entity_id': 3, 'struct_asym_id': 'G', 'residue_number': 1, 'chem_comp_name': '1,2-ETHANEDIOL', 'weight': 62.068, 'carbohydrate_polymer': False, 'branch_name': ''}, {'chain_id': 'B', 'author_residue_number': 185, 'author_insertion_code': '', 'chem_comp_id': 'EDO', 'alternate_conformers': 0, 'entity_id': 3, 'struct_asym_id': 'H', 'residue_number': 1, 'chem_comp_name': '1,2-ETHANEDIOL', 'weight': 62.068, 'carbohydrate_polymer': False, 'branch_name': ''}]

>  <ligand_codes>  (65) 
['AG7', 'AG7', 'EDO', 'EDO', 'EDO', 'EDO']

>  <cofactor_codes>  (65) 
[]

>  <has_cofactor>  (65) 
False

>  <covalent>  (65) 
True

>  <base_name>  (65) 
3R0F

>  <lig_resn>  (65) 
AG7

>  <lig_resi>  (65) 
501

>  <lig_chain>  (65) 
A

>  <lig_segi>  (65) 
C

>  <lig_alt>  (65) 


>  <polymer_chain>  (65) 
A

>  <single_smiles>  (65) 
CCOC(=O)CC[C@H](C[C@@H]1CCNC1=O)NC(=O)[C@@H](CC(=O)[C@@H](NC(=O)c2cc(C)on2)C(C)C)Cc3ccc(F)cc3

$$$$
7L4ยง1
     RDKit          3D

 17 19  0  0  0  0  0  0  0  0999 V2000
   -2.6370   15.4740  -29.2610 C   0  0  0  0  0  0  0  0  0  0  0  0
   -2.5800   14.1600  -28.8210 C   0  0  0  0  0  0  0  0  0  0  0  0
   -3.5050   13.2150  -29.2710 C   0  0  0  0  0  0  0  0  0  0  0  0
   -4.4900   13.5890  -30.1810 C   0  0  0  0  0  0  0  0  0  0  0  0
   -4.5620   14.9050  -30.6260 C   0  0  0  0  0  0  0  0  0  0  0  0
   -3.6350   15.8330  -30.1710 C   0  0  0  0  0  0  0  0  0  0  0  0
   -5.4690   12.6020  -30.6730 C   0  0  0  0  0  0  0  0  0  0  0  0
   -6.1210   11.7660  -29.7400 C   0  0  0  0  0  0  0  0  0  0  0  0
   -7.0440   10.8630  -30.2020 C   0  0  0  0  0  0  0  0  0  0  0  0
   -7.3170   10.8020  -31.5910 C   0  0  0  0  0  0  0  0  0  0  0  0
   -8.2360    9.8870  -32.1020 C   0  0  0  0  0  0  0  0  0  0  0  0
   -8.4900    9.8320  -33.4510 C   0  0  0  0  0  0  0  0  0  0  0  0
   -7.8020   10.6740  -34.3220 C   0  0  0  0  0  0  0  0  0  0  0  0
   -6.9060   11.5910  -33.8410 C   0  0  0  0  0  0  0  0  0  0  0  0
   -6.6340   11.6730  -32.4740 C   0  0  0  0  0  0  0  0  0  0  0  0
   -5.7360   12.5480  -31.9840 N   0  0  0  0  0  0  0  0  0  0  0  0
   -7.6750   10.0180  -29.3440 O   0  0  0  0  0  0  0  0  0  0  0  0
  1  2  2  0
  1  6  1  0
  2  3  1  0
  3  4  2  0
  4  5  1  0
  4  7  1  0
  5  6  2  0
  7  8  2  0
  7 16  1  0
  8  9  1  0
  9 10  2  0
  9 17  1  0
 10 11  1  0
 10 15  1  0
 11 12  2  0
 12 13  1  0
 13 14  2  0
 14 15  1  0
 15 16  2  0
A    1
 C1 
A    2
 C2 
A    3
 C3 
A    4
 C4 
A    5
 C5 
A    6
 C6 
A    7
 C7 
A    8
 C8 
A    9
 C9 
A   10
 C10
A   11
 C11
A   12
 C12
A   13
 C13
A   14
 C14
A   15
 C15
A   16
 N16
A   17
 O17
M  END
>  <XChem_code>  (66) 
7L4ยง1

>  <Occupancy>  (66) 
[1.0, 1.0, 1.0, 1.0, 1.0, 1.0, 1.0, 1.0, 1.0, 1.0, 1.0, 1.0, 1.0, 1.0, 1.0, 1.0, 1.0]

>  <TempFactor>  (66) 
[32.31, 34.48, 32.79, 30.49, 33.31, 34.74, 31.46, 28.75, 29.66, 28.63, 30.13, 29.65, 29.04, 29.23, 27.71, 30.29, 31.62]

>  <accession>  (66) 
2XYA_A

>  <description>  (66) 
Chain A, Picornain 3c [Human rhinovirus sp.]

>  <evalue>  (66) 
9.59605e-58

>  <pdb_code>  (66) 
2XYA

>  <chain>  (66) 
A

>  <ligands>  (66) 
[{'chain_id': 'A', 'author_residue_number': 1181, 'author_insertion_code': '', 'chem_comp_id': '7L4', 'alternate_conformers': 0, 'entity_id': 2, 'struct_asym_id': 'B', 'residue_number': 1, 'chem_comp_name': '2-PHENYLQUINOLIN-4-OL', 'weight': 221.254, 'carbohydrate_polymer': False, 'branch_name': ''}]

>  <ligand_codes>  (66) 
['7L4']

>  <cofactor_codes>  (66) 
[]

>  <has_cofactor>  (66) 
False

>  <covalent>  (66) 
False

>  <base_name>  (66) 
2XYA

>  <lig_resn>  (66) 
7L4

>  <lig_resi>  (66) 
1181

>  <lig_chain>  (66) 
A

>  <lig_segi>  (66) 
B

>  <lig_alt>  (66) 


>  <polymer_chain>  (66) 
A

>  <single_smiles>  (66) 
Oc1cc(nc2ccccc12)c3ccccc3

$$$$
AG7ยง22
     RDKit          3D

 44 46  0  0  0  0  0  0  0  0999 V2000
   -8.5840   14.6720  -33.4310 C   0  0  0  0  0  0  0  0  0  0  0  0
  -10.0630   17.4900  -30.2480 C   0  0  0  0  0  0  0  0  0  0  0  0
   -8.5890   14.3230  -34.9280 C   0  0  0  0  0  0  0  0  0  0  0  0
  -11.1890   18.2730  -30.0350 C   0  0  0  0  0  0  0  0  0  0  0  0
  -11.4230   18.1130  -28.6670 C   0  0  0  0  0  0  0  0  0  0  0  0
   -8.9950   13.8610  -32.6090 O   0  0  0  0  0  0  0  0  0  0  0  0
   -9.0560   12.8810  -35.1610 C   0  0  1  0  0  0  0  0  0  0  0  0
  -12.5130   18.7590  -27.8190 C   0  0  0  0  0  0  0  0  0  0  0  0
  -10.5110   17.3020  -28.1260 O   0  0  0  0  0  0  0  0  0  0  0  0
   -9.2680   12.7230  -36.6650 C   0  0  0  0  0  0  0  0  0  0  0  0
   -9.6280   16.9280  -29.1140 N   0  0  0  0  0  0  0  0  0  0  0  0
  -10.5280   13.3650  -37.0000 C   0  0  0  0  0  0  0  0  0  0  0  0
  -11.7240   12.8990  -36.4350 C   0  0  0  0  0  0  0  0  0  0  0  0
  -12.9320   13.5180  -36.7470 C   0  0  0  0  0  0  0  0  0  0  0  0
  -12.9510   14.6100  -37.6100 C   0  0  0  0  0  0  0  0  0  0  0  0
  -11.7810   15.0780  -38.1630 C   0  0  0  0  0  0  0  0  0  0  0  0
  -10.5610   14.4560  -37.8460 C   0  0  0  0  0  0  0  0  0  0  0  0
   -8.4650   10.8310  -33.9180 N   0  0  0  0  0  0  0  0  0  0  0  0
   -7.5030    9.8280  -33.4300 C   0  0  1  0  0  0  0  0  0  0  0  0
   -7.3880    9.7920  -31.9090 C   0  0  0  0  0  0  0  0  0  0  0  0
   -6.7420   11.0650  -31.3380 C   0  0  1  0  0  0  0  0  0  0  0  0
   -6.5610   11.0160  -29.8480 C   0  0  0  0  0  0  0  0  0  0  0  0
   -5.5900   11.7760  -29.4540 N   0  0  0  0  0  0  0  0  0  0  0  0
   -7.1850   10.2960  -29.0840 O   0  0  0  0  0  0  0  0  0  0  0  0
   -7.8280    8.4080  -34.0100 C   0  0  2  0  0  0  0  0  0  0  0  0
   -7.5620    8.3420  -35.5410 C   0  0  0  0  0  0  0  0  0  0  0  0
   -6.8410    7.0270  -35.9420 C   0  0  0  0  0  0  0  0  0  0  0  0
   -6.6320    6.9000  -37.2340 O   0  0  0  0  0  0  0  0  0  0  0  0
   -6.4740    6.2040  -35.1210 O   0  0  0  0  0  0  0  0  0  0  0  0
   -8.0530   11.8650  -34.6340 C   0  0  0  0  0  0  0  0  0  0  0  0
   -6.8480   12.0120  -34.8210 O   0  0  0  0  0  0  0  0  0  0  0  0
   -5.8650    5.7760  -37.7420 C   0  0  0  0  0  0  0  0  0  0  0  0
   -5.3170    6.1500  -39.1310 C   0  0  0  0  0  0  0  0  0  0  0  0
   -8.0860   16.0830  -33.0110 C   0  0  1  0  0  0  0  0  0  0  0  0
   -8.6290   16.3950  -31.6970 N   0  0  0  0  0  0  0  0  0  0  0  0
   -9.5640   17.2990  -31.5320 C   0  0  0  0  0  0  0  0  0  0  0  0
   -9.9690   17.8730  -32.5270 O   0  0  0  0  0  0  0  0  0  0  0  0
   -6.5580   16.1960  -32.8000 C   0  0  2  0  0  0  0  0  0  0  0  0
   -6.1440   17.6450  -33.1050 C   0  0  0  0  0  0  0  0  0  0  0  0
   -5.6460   15.2180  -33.5500 C   0  0  0  0  0  0  0  0  0  0  0  0
   -4.7450   12.2020  -30.5760 C   0  0  0  0  0  0  0  0  0  0  0  0
   -5.3020   11.3840  -31.7700 C   0  0  0  0  0  0  0  0  0  0  0  0
   -9.5770    7.9760  -33.7580 R   0  0  0  0  0  0  0  0  0  0  0  0
  -14.1050   15.1750  -37.9340 F   0  0  0  0  0  0  0  0  0  0  0  0
  1  3  1  0
  1  6  2  0
  1 34  1  0
  2  4  1  0
  2 11  2  0
  2 36  1  0
  7  3  1  6
  4  5  2  0
  5  8  1  0
  5  9  1  0
  7 10  1  0
  7 30  1  0
  9 11  1  0
 10 12  1  0
 12 13  2  0
 12 17  1  0
 13 14  1  0
 14 15  2  0
 15 16  1  0
 15 44  1  0
 16 17  2  0
 18 19  1  0
 18 30  1  0
 19 20  1  1
 19 25  1  0
 21 20  1  6
 21 22  1  0
 21 42  1  0
 22 23  1  0
 22 24  2  0
 23 41  1  0
 25 26  1  0
 25 43  1  6
 26 27  1  0
 27 28  1  0
 27 29  2  0
 28 32  1  0
 30 31  2  0
 32 33  1  0
 34 35  1  1
 34 38  1  0
 35 36  1  0
 36 37  2  0
 38 39  1  6
 38 40  1  0
 41 42  1  0
A    1
 C01
A    2
 C1 
A    3
 C02
A    4
 C2 
A    5
 C3 
A    6
 O03
A    7
 C04
A    8
 C4 
A    9
 O4 
A   10
 C05
A   11
 N5 
A   12
 C06
A   13
 C07
A   14
 C08
A   15
 C09
A   16
 C10
A   17
 C11
A   18
 N12
A   19
 C13
A   20
 C14
A   21
 C15
A   22
 C16
A   23
 N17
A   24
 O18
A   25
 C19
A   26
 C20
A   27
 C21
A   28
 O22
A   29
 O23
A   30
 C47
A   31
 O48
A   32
 C50
A   33
 C53
A   34
 C57
A   35
 N58
A   36
 C59
A   37
 O60
A   38
 C78
A   39
 C81
A   40
 C82
A   41
 C83
A   42
 C84
A   43
 X  
A   44
 F1 
M  END
>  <XChem_code>  (67) 
AG7ยง22

>  <Occupancy>  (67) 
[1.0, 1.0, 1.0, 1.0, 1.0, 1.0, 1.0, 1.0, 1.0, 1.0, 1.0, 1.0, 1.0, 1.0, 1.0, 1.0, 1.0, 1.0, 1.0, 1.0, 1.0, 1.0, 1.0, 1.0, 1.0, 1.0, 1.0, 1.0, 1.0, 1.0, 1.0, 1.0, 1.0, 1.0, 1.0, 1.0, 1.0, 1.0, 1.0, 1.0, 1.0, 1.0, 1.0, 1.0]

>  <TempFactor>  (67) 
[16.99, 17.37, 15.03, 17.27, 16.93, 17.74, 13.17, 18.44, 18.15, 13.03, 17.26, 13.64, 14.2, 14.77, 14.96, 13.35, 14.45, 12.48, 12.74, 12.98, 14.81, 13.66, 14.93, 16.5, 11.73, 10.42, 13.5, 14.67, 11.98, 13.75, 16.69, 15.21, 15.78, 16.7, 16.34, 17.46, 18.53, 17.19, 17.7, 18.6, 16.97, 15.33, 12.99, 18.88]

>  <accession>  (67) 
1CQQ_A

>  <description>  (67) 
Chain A, TYPE 2 RHINOVIRUS 3C PROTEASE [rhinovirus A2]

>  <evalue>  (67) 
1.03838e-57

>  <pdb_code>  (67) 
1CQQ

>  <chain>  (67) 
A

>  <ligands>  (67) 
[{'chain_id': 'A', 'author_residue_number': 501, 'author_insertion_code': '', 'chem_comp_id': 'AG7', 'alternate_conformers': 0, 'entity_id': 2, 'struct_asym_id': 'B', 'residue_number': 1, 'chem_comp_name': '4-{2-(4-FLUORO-BENZYL)-6-METHYL-5-[(5-METHYL-ISOXAZOLE-3-CARBONYL)-AMINO]-4-OXO-HEPTANOYLAMINO}-5-(2-OXO-PYRROLIDIN-3-YL)-PENTANOIC ACID ETHYL ESTER', 'weight': 600.678, 'carbohydrate_polymer': False, 'branch_name': ''}]

>  <ligand_codes>  (67) 
['AG7']

>  <cofactor_codes>  (67) 
[]

>  <has_cofactor>  (67) 
False

>  <covalent>  (67) 
True

>  <base_name>  (67) 
1CQQ

>  <lig_resn>  (67) 
AG7

>  <lig_resi>  (67) 
501

>  <lig_chain>  (67) 
A

>  <lig_segi>  (67) 
B

>  <lig_alt>  (67) 


>  <polymer_chain>  (67) 
A

>  <single_smiles>  (67) 
CCOC(=O)CC[C@H](C[C@@H]1CCNC1=O)NC(=O)[C@@H](CC(=O)[C@@H](NC(=O)c2cc(C)on2)C(C)C)Cc3ccc(F)cc3

$$$$
polymer
     RDKit          3D

 58 58  0  0  0  0  0  0  0  0999 V2000
  -15.3620   22.1790  -27.4390 N   0  0  0  0  0  0  0  0  0  0  0  0
  -12.5790   21.3540  -29.4810 N   0  0  0  0  0  0  0  0  0  0  0  0
  -11.9720   18.6270  -30.4030 N   0  0  0  0  0  0  0  0  0  0  0  0
   -9.7350   16.2520  -31.6700 N   0  0  0  0  0  0  0  0  0  0  0  0
   -9.6030   13.9290  -34.4410 N   0  0  0  0  0  0  0  0  0  0  0  0
   -8.5240   10.6110  -33.8090 N   0  0  0  0  0  0  0  0  0  0  0  0
  -14.0680   21.5380  -27.6320 C   0  0  2  0  0  0  0  0  0  0  0  0
  -12.2360   20.9510  -30.8060 C   0  0  2  0  0  0  0  0  0  0  0  0
  -11.2320   17.4190  -30.2140 C   0  0  2  0  0  0  0  0  0  0  0  0
   -9.2690   15.7910  -32.9510 C   0  0  2  0  0  0  0  0  0  0  0  0
   -9.7190   12.5240  -34.7630 C   0  0  2  0  0  0  0  0  0  0  0  0
   -7.3190    9.9670  -33.3460 C   0  0  1  0  0  0  0  0  0  0  0  0
  -15.4630   23.2690  -26.7060 C   0  0  1  0  0  0  0  0  0  0  0  0
  -13.8200   21.2840  -29.0930 C   0  0  0  0  0  0  0  0  0  0  0  0
  -11.3450   19.7670  -30.6210 C   0  0  1  0  0  0  0  0  0  0  0  0
  -10.8520   16.9140  -31.5780 C   0  0  0  0  0  0  0  0  0  0  0  0
   -9.4760   14.3090  -33.1760 C   0  0  0  0  0  0  0  0  0  0  0  0
   -8.4470   11.8470  -34.2880 C   0  0  0  0  0  0  0  0  0  0  0  0
  -14.4890   23.9180  -26.3430 O   0  0  0  0  0  0  0  0  0  0  0  0
  -14.7460   21.0290  -29.8620 O   0  0  0  0  0  0  0  0  0  0  0  0
  -10.1190   19.8830  -30.5960 O   0  0  0  0  0  0  0  0  0  0  0  0
  -11.5590   17.1540  -32.5510 O   0  0  0  0  0  0  0  0  0  0  0  0
   -9.5290   13.5200  -32.2290 O   0  0  0  0  0  0  0  0  0  0  0  0
   -7.3750   12.4480  -34.3620 O   0  0  0  0  0  0  0  0  0  0  0  0
  -13.9740   20.1330  -27.0070 C   0  0  0  0  0  0  0  0  0  0  0  0
  -11.5450   22.0000  -31.6560 C   0  0  0  0  0  0  0  0  0  0  0  0
  -12.0320   16.4040  -29.4200 C   0  0  0  0  0  0  0  0  0  0  0  0
   -7.7900   16.0900  -33.0900 C   0  0  0  0  0  0  0  0  0  0  0  0
   -9.8560   12.2790  -36.2650 C   0  0  0  0  0  0  0  0  0  0  0  0
   -7.3310    9.8470  -31.8170 C   0  0  0  0  0  0  0  0  0  0  0  0
  -14.0270   19.9780  -25.4860 C   0  0  1  0  0  0  0  0  0  0  0  0
  -11.2540   21.4640  -33.0520 C   0  0  0  0  0  0  0  0  0  0  0  0
   -7.1690   15.4980  -34.3400 C   0  0  1  0  0  0  0  0  0  0  0  0
  -11.0400   12.9250  -36.9220 C   0  0  0  0  0  0  0  0  0  0  0  0
   -7.1160   11.1980  -31.1200 C   0  0  0  0  0  0  0  0  0  0  0  0
  -10.4830   22.4400  -33.9180 C   0  0  0  0  0  0  0  0  0  0  0  0
   -7.1690   11.1210  -29.6010 C   0  0  0  0  0  0  0  0  0  0  0  0
  -13.2440   21.0650  -24.7650 C   0  0  0  0  0  0  0  0  0  0  0  0
   -7.6760   16.2470  -35.5700 C   0  0  0  0  0  0  0  0  0  0  0  0
  -12.3100   12.8260  -36.3750 C   0  0  0  0  0  0  0  0  0  0  0  0
  -15.4650   19.9240  -25.0200 C   0  0  0  0  0  0  0  0  0  0  0  0
   -5.6520   15.5520  -34.2470 C   0  0  0  0  0  0  0  0  0  0  0  0
  -10.8770   13.6090  -38.1140 C   0  0  0  0  0  0  0  0  0  0  0  0
  -13.3920   13.4040  -37.0080 C   0  0  0  0  0  0  0  0  0  0  0  0
  -11.9550   14.1810  -38.7530 C   0  0  0  0  0  0  0  0  0  0  0  0
   -6.5930   12.1190  -28.9300 N   0  0  0  0  0  0  0  0  0  0  0  0
  -11.1230   23.2880  -34.5660 O   0  0  0  0  0  0  0  0  0  0  0  0
   -7.7330   10.1910  -29.0350 O   0  0  0  0  0  0  0  0  0  0  0  0
   -9.2440   22.3600  -33.9420 O   0  0  0  0  0  0  0  0  0  0  0  0
  -13.2150   14.0820  -38.2020 C   0  0  0  0  0  0  0  0  0  0  0  0
  -16.8540   23.8480  -26.6190 C   0  0  0  0  0  0  0  0  0  0  0  0
   -3.6950    6.8460  -37.4040 C   0  0  0  0  0  0  0  0  0  0  0  0
   -2.6800    7.1950  -38.4770 C   0  0  0  0  0  0  0  0  0  0  0  0
   -7.0030    8.6240  -34.0690 C   0  0  0  0  0  0  0  0  0  0  0  0
   -5.9970    8.9560  -35.1740 C   0  0  0  0  0  0  0  0  0  0  0  0
   -5.3280    7.7460  -35.7790 C   0  0  0  0  0  0  0  0  0  0  0  0
   -5.6140    6.6180  -35.3820 O   0  0  0  0  0  0  0  0  0  0  0  0
   -4.4850    7.9540  -36.6840 O   0  0  0  0  0  0  0  0  0  0  0  0
  1  7  1  0
  1 13  1  0
  2  8  1  0
  2 14  1  0
  3  9  1  0
  3 15  1  0
  4 10  1  0
  4 16  1  0
  5 11  1  0
  5 17  1  0
  6 12  1  0
  6 18  1  0
  7 14  1  0
  7 25  1  1
  8 15  1  0
  8 26  1  1
  9 16  1  0
  9 27  1  6
 10 17  1  0
 10 28  1  1
 11 18  1  0
 11 29  1  6
 12 30  1  1
 12 54  1  0
 13 19  1  0
 13 51  1  6
 14 20  1  0
 15 21  1  1
 16 22  1  0
 17 23  1  0
 18 24  1  0
 25 31  1  0
 26 32  1  0
 28 33  1  0
 29 34  1  0
 30 35  1  0
 31 38  1  1
 31 41  1  0
 32 36  1  0
 33 39  1  6
 33 42  1  0
 34 40  1  0
 34 43  1  0
 35 37  1  0
 36 47  1  0
 36 49  1  0
 37 46  1  0
 37 48  1  0
 40 44  1  0
 43 45  1  0
 44 50  1  0
 45 50  1  0
 52 53  1  0
 52 58  1  0
 54 55  1  0
 55 56  1  0
 56 57  1  0
 56 58  1  0
M  CHG  1  49  -1
A    1
 N1 
A    2
 N1 
A    3
 N1 
A    4
 N1 
A    5
 N1 
A    6
 N1 
A    7
 C3 
A    8
 C3 
A    9
 C3 
A   10
 C3 
A   11
 C3 
A   12
 C3 
A   13
 C1 
A   14
 C1 
A   15
 C1 
A   16
 C1 
A   17
 C1 
A   18
 C1 
A   19
 O1 
A   20
 O1 
A   21
 O1 
A   22
 O1 
A   23
 O1 
A   24
 O1 
A   25
 C5 
A   26
 C5 
A   27
 C5 
A   28
 C5 
A   29
 C5 
A   30
 C5 
A   31
 C6 
A   32
 C6 
A   33
 C6 
A   34
 C6 
A   35
 C6 
A   36
 C13
A   37
 C13
A   38
 C7 
A   39
 C7 
A   40
 C7 
A   41
 C8 
A   42
 C8 
A   43
 C8 
A   44
 C29
A   45
 C30
A   46
 N7 
A   47
 O4 
A   48
 O4 
A   49
 O5 
A   50
 C31
A   51
 C2 
A   52
 C36
A   53
 C37
A   54
 C38
A   55
 C39
A   56
 C40
A   57
 O10
A   58
 O11
M  END
>  <XChem_code>  (68) 
polymer

>  <Occupancy>  (68) 
[1.0, 1.0, 1.0, 1.0, 1.0, 1.0, 1.0, 1.0, 1.0, 1.0, 1.0, 1.0, 1.0, 1.0, 1.0, 1.0, 1.0, 1.0, 1.0, 1.0, 1.0, 1.0, 1.0, 1.0, 1.0, 1.0, 1.0, 1.0, 1.0, 1.0, 1.0, 1.0, 1.0, 1.0, 1.0, 1.0, 1.0, 1.0, 1.0, 1.0, 1.0, 1.0, 1.0, 1.0, 1.0, 1.0, 1.0, 1.0, 1.0, 1.0, 1.0, 1.0, 1.0, 1.0, 1.0, 1.0, 1.0, 1.0]

>  <TempFactor>  (68) 
[0.0, 0.0, 0.0, 0.0, 0.0, 0.0, 0.0, 0.0, 0.0, 0.0, 0.0, 0.0, 0.0, 0.0, 0.0, 0.0, 0.0, 0.0, 0.0, 0.0, 0.0, 0.0, 0.0, 0.0, 0.0, 0.0, 0.0, 0.0, 0.0, 0.0, 0.0, 0.0, 0.0, 0.0, 0.0, 0.0, 0.0, 0.0, 0.0, 0.0, 0.0, 0.0, 0.0, 0.0, 0.0, 0.0, 0.0, 0.0, 0.0, 0.0, 0.0, 0.0, 0.0, 0.0, 0.0, 0.0, 0.0, 0.0]

>  <base_name>  (68) 
2b0f

>  <lig_resn>  (68) 
None

>  <lig_resi>  (68) 
1

>  <lig_chain>  (68) 
B

>  <lig_segi>  (68) 


>  <lig_alt>  (68) 


>  <polymer_chain>  (68) 
A

>  <single_smiles>  (68) 
None

$$$$
