untitled-dbase-1143_22
     RDKit          3D

 12 12  0  0  0  0  0  0  0  0999 V2000
   -4.7617   12.6613  -30.3308 C   0  0  0  0  0  0  0  0  0  0  0  0
   -5.0936   10.9283  -31.9812 C   0  0  0  0  0  0  0  0  0  0  0  0
   -5.6996   12.0491  -29.4994 C   0  0  0  0  0  0  0  0  0  0  0  0
   -6.3345   10.8765  -29.9088 C   0  0  0  0  0  0  0  0  0  0  0  0
   -4.4587   12.1009  -31.5717 C   0  0  0  0  0  0  0  0  0  0  0  0
   -6.0315   10.3161  -31.1498 C   0  0  0  0  0  0  0  0  0  0  0  0
   -6.0092   12.6658  -28.1748 C   0  0  0  0  0  0  0  0  0  0  0  0
   -5.7627   11.7189  -26.9996 C   0  0  0  0  0  0  0  0  0  0  0  0
   -7.2499   10.2896  -29.0842 O   0  0  0  0  0  0  0  0  0  0  0  0
   -6.1136   12.3655  -25.7828 O   0  0  0  0  0  0  0  0  0  0  0  0
   -3.3015   12.8568  -32.5973 Cl  0  0  0  0  0  0  0  0  0  0  0  0
   -6.8733    8.7236  -31.7414 Br  0  0  0  0  0  0  0  0  0  0  0  0
  1  3  2  0
  1  5  1  0
  2  5  2  0
  2  6  1  0
  3  4  1  0
  3  7  1  0
  4  6  2  0
  4  9  1  0
  5 11  1  0
  6 12  1  0
  7  8  1  0
  8 10  1  0
M  END
>  <id>  (1) 
EN300-1922585

>  <smiles>  (1) 
OCCC=1C=C(Cl)C=C(Br)C1O

>  <IUPAC Name>  (1) 
2-bromo-4-chloro-6-(2-hydroxyethyl)phenol

>  <CAS>  (1) 
1260169-11-6

>  <URL>  (1) 
https://www.enaminestore.com/catalog/EN300-1922585

>  <ROCS_ShapeQuery>  (1) 
_x1604L0AP1_x0771L0AP1

>  <ROCS_TanimotoCombo>  (1) 
1.029 

>  <ROCS_ShapeTanimoto>  (1) 
0.450 

>  <ROCS_ColorTanimoto>  (1) 
0.579 

>  <ROCS_RefTversky>  (1) 
0.412 

>  <ROCS_RefColorTversky>  (1) 
0.569 

>  <ROCS_RefTverskyCombo>  (1) 
0.981 

>  <ROCS_FitTversky>  (1) 
1.257 

>  <ROCS_FitColorTversky>  (1) 
1.033 

>  <ROCS_FitTverskyCombo>  (1) 
2.290 

>  <ROCS_ColorScore>  (1) 
-6.492

>  <ROCS_Overlap>  (1) 
697.373

>  <ROCS_Rank>  (1) 
1                   

$$$$
untitled-dbase-828_5
     RDKit          3D

 13 13  0  0  1  0  0  0  0  0999 V2000
   -4.8654   12.7233  -30.2483 C   0  0  0  0  0  0  0  0  0  0  0  0
   -5.0380   10.9676  -31.8990 C   0  0  0  0  0  0  0  0  0  0  0  0
   -5.8196   12.0778  -29.4619 C   0  0  0  0  0  0  0  0  0  0  0  0
   -6.3830   10.8772  -29.8940 C   0  0  0  0  0  0  0  0  0  0  0  0
   -4.4747   12.1683  -31.4669 C   0  0  0  0  0  0  0  0  0  0  0  0
   -5.9922   10.3221  -31.1125 C   0  0  0  0  0  0  0  0  0  0  0  0
   -4.0393   12.9778  -26.9018 C   0  0  0  0  0  0  0  0  0  0  0  0
   -6.2237   12.6894  -28.1606 C   0  0  0  0  0  0  0  0  0  0  0  0
   -5.3542   12.2127  -26.9828 C   0  0  2  0  0  0  0  0  0  0  0  0
   -7.3154   10.2577  -29.1133 O   0  0  0  0  0  0  0  0  0  0  0  0
   -6.0600   12.4001  -25.7574 O   0  0  0  0  0  0  0  0  0  0  0  0
   -3.2973   12.9654  -32.4370 Cl  0  0  0  0  0  0  0  0  0  0  0  0
   -6.7351    8.6921  -31.7338 Br  0  0  0  0  0  0  0  0  0  0  0  0
  1  3  2  0
  1  5  1  0
  2  5  2  0
  2  6  1  0
  3  4  1  0
  3  8  1  0
  4  6  2  0
  4 10  1  0
  5 12  1  0
  6 13  1  0
  9  7  1  1
  8  9  1  0
  9 11  1  0
M  END
>  <id>  (2) 
EN300-1922603

>  <smiles>  (2) 
C[C@@H](O)CC=1C=C(Cl)C=C(Br)C1O

>  <IUPAC Name>  (2) 
2-bromo-4-chloro-6-[(2R)-2-hydroxypropyl]phenol

>  <CAS>  (2) 
2227696-46-8

>  <URL>  (2) 
https://www.enaminestore.com/catalog/EN300-1922603

>  <ROCS_ShapeQuery>  (2) 
_x1604L0AP1_x0771L0AP1

>  <ROCS_TanimotoCombo>  (2) 
1.012 

>  <ROCS_ShapeTanimoto>  (2) 
0.439 

>  <ROCS_ColorTanimoto>  (2) 
0.573 

>  <ROCS_RefTversky>  (2) 
0.412 

>  <ROCS_RefColorTversky>  (2) 
0.565 

>  <ROCS_RefTverskyCombo>  (2) 
0.977 

>  <ROCS_FitTversky>  (2) 
1.175 

>  <ROCS_FitColorTversky>  (2) 
1.026 

>  <ROCS_FitTverskyCombo>  (2) 
2.200 

>  <ROCS_ColorScore>  (2) 
-6.447

>  <ROCS_Overlap>  (2) 
698.105

>  <ROCS_Rank>  (2) 
3                   

$$$$
untitled-dbase-1272_22
     RDKit          3D

 11 11  0  0  0  0  0  0  0  0999 V2000
   -4.4702   12.1094  -31.5774 C   0  0  0  0  0  0  0  0  0  0  0  0
   -4.7724   12.6690  -30.3360 C   0  0  0  0  0  0  0  0  0  0  0  0
   -5.1018   10.9344  -31.9851 C   0  0  0  0  0  0  0  0  0  0  0  0
   -5.7061   12.0536  -29.5022 C   0  0  0  0  0  0  0  0  0  0  0  0
   -6.3376   10.8786  -29.9099 C   0  0  0  0  0  0  0  0  0  0  0  0
   -6.0354   10.3190  -31.1513 C   0  0  0  0  0  0  0  0  0  0  0  0
   -6.0140   12.6691  -28.1768 C   0  0  0  0  0  0  0  0  0  0  0  0
   -5.7612   11.7229  -27.0023 C   0  0  0  0  0  0  0  0  0  0  0  0
   -7.2477   10.2874  -29.0823 O   0  0  0  0  0  0  0  0  0  0  0  0
   -6.1108   12.3683  -25.7845 O   0  0  0  0  0  0  0  0  0  0  0  0
   -6.8727    8.7239  -31.7420 Br  0  0  0  0  0  0  0  0  0  0  0  0
  1  2  2  0
  1  3  1  0
  2  4  1  0
  3  6  2  0
  4  5  2  0
  4  7  1  0
  5  6  1  0
  5  9  1  0
  6 11  1  0
  7  8  1  0
  8 10  1  0
M  END
>  <id>  (3) 
EN300-1923122

>  <smiles>  (3) 
OCCC=1C=CC=C(Br)C1O

>  <MDLNUMBER>  (3) 
MFCD33420479

>  <IUPAC Name>  (3) 
2-bromo-6-(2-hydroxyethyl)phenol

>  <CAS>  (3) 
1523358-30-6

>  <URL>  (3) 
https://www.enaminestore.com/catalog/EN300-1923122

>  <ROCS_ShapeQuery>  (3) 
_x1604L0AP1_x0771L0AP1

>  <ROCS_TanimotoCombo>  (3) 
1.001 

>  <ROCS_ShapeTanimoto>  (3) 
0.422 

>  <ROCS_ColorTanimoto>  (3) 
0.579 

>  <ROCS_RefTversky>  (3) 
0.388 

>  <ROCS_RefColorTversky>  (3) 
0.569 

>  <ROCS_RefTverskyCombo>  (3) 
0.957 

>  <ROCS_FitTversky>  (3) 
1.260 

>  <ROCS_FitColorTversky>  (3) 
1.033 

>  <ROCS_FitTverskyCombo>  (3) 
2.293 

>  <ROCS_ColorScore>  (3) 
-6.493

>  <ROCS_Overlap>  (3) 
656.361

>  <ROCS_Rank>  (3) 
6                   

$$$$
untitled-dbase-1009_134
     RDKit          3D

 14 14  0  0  0  0  0  0  0  0999 V2000
   -4.6127   12.5839  -30.4515 C   0  0  0  0  0  0  0  0  0  0  0  0
   -5.1638   10.8740  -32.0669 C   0  0  0  0  0  0  0  0  0  0  0  0
   -5.5203   12.0260  -29.5512 C   0  0  0  0  0  0  0  0  0  0  0  0
   -6.2496   10.8920  -29.9087 C   0  0  0  0  0  0  0  0  0  0  0  0
   -4.4345   12.0080  -31.7094 C   0  0  0  0  0  0  0  0  0  0  0  0
   -6.0714   10.3160  -31.1665 C   0  0  0  0  0  0  0  0  0  0  0  0
   -6.0836   11.6265  -27.1494 C   0  0  0  0  0  0  0  0  0  0  0  0
   -5.6957   12.6585  -28.2097 C   0  0  0  0  0  0  0  0  0  0  0  0
   -7.1339   10.3579  -29.0168 O   0  0  0  0  0  0  0  0  0  0  0  0
   -6.2190   12.2724  -25.8887 O   0  0  0  0  0  0  0  0  0  0  0  0
   -4.5623   13.2933  -27.7709 F   0  0  0  0  0  0  0  0  0  0  0  0
   -6.6593   13.6341  -28.2061 F   0  0  0  0  0  0  0  0  0  0  0  0
   -3.3145   12.6970  -32.8200 Cl  0  0  0  0  0  0  0  0  0  0  0  0
   -7.0443    8.7748  -31.6890 Br  0  0  0  0  0  0  0  0  0  0  0  0
  1  3  2  0
  1  5  1  0
  2  5  2  0
  2  6  1  0
  3  4  1  0
  3  8  1  0
  4  6  2  0
  4  9  1  0
  5 13  1  0
  6 14  1  0
  7  8  1  0
  7 10  1  0
  8 11  1  0
  8 12  1  0
M  END
>  <id>  (4) 
EN300-1941361

>  <smiles>  (4) 
OCC(F)(F)C=1C=C(Cl)C=C(Br)C1O

>  <IUPAC Name>  (4) 
2-bromo-4-chloro-6-(1,1-difluoro-2-hydroxyethyl)phenol

>  <CAS>  (4) 
2229444-74-8

>  <URL>  (4) 
https://www.enaminestore.com/catalog/EN300-1941361

>  <ROCS_ShapeQuery>  (4) 
_x1604L0AP1_x0771L0AP1

>  <ROCS_TanimotoCombo>  (4) 
1.000 

>  <ROCS_ShapeTanimoto>  (4) 
0.446 

>  <ROCS_ColorTanimoto>  (4) 
0.554 

>  <ROCS_RefTversky>  (4) 
0.428 

>  <ROCS_RefColorTversky>  (4) 
0.553 

>  <ROCS_RefTverskyCombo>  (4) 
0.981 

>  <ROCS_FitTversky>  (4) 
1.106 

>  <ROCS_FitColorTversky>  (4) 
1.000 

>  <ROCS_FitTverskyCombo>  (4) 
2.106 

>  <ROCS_ColorScore>  (4) 
-6.311

>  <ROCS_Overlap>  (4) 
726.137

>  <ROCS_Rank>  (4) 
7                   

$$$$
untitled-dbase-706_10
     RDKit          3D

 13 13  0  0  1  0  0  0  0  0999 V2000
   -4.1007   11.9320  -30.0597 C   0  0  0  0  0  0  0  0  0  0  0  0
   -5.1335   10.9294  -32.0001 C   0  0  0  0  0  0  0  0  0  0  0  0
   -5.0983   11.3907  -29.2490 C   0  0  0  0  0  0  0  0  0  0  0  0
   -6.1135   10.6187  -29.8137 C   0  0  0  0  0  0  0  0  0  0  0  0
   -4.1183   11.7014  -31.4353 C   0  0  0  0  0  0  0  0  0  0  0  0
   -6.1311   10.3880  -31.1893 C   0  0  0  0  0  0  0  0  0  0  0  0
   -6.4756   13.7517  -27.9157 C   0  0  0  0  0  0  0  0  0  0  0  0
   -5.0605   11.6499  -27.7786 C   0  0  0  0  0  0  0  0  0  0  0  0
   -6.3165   12.3809  -27.2701 C   0  0  1  0  0  0  0  0  0  0  0  0
   -7.0825   10.0960  -29.0072 O   0  0  0  0  0  0  0  0  0  0  0  0
   -6.2322   12.5563  -25.8570 O   0  0  0  0  0  0  0  0  0  0  0  0
   -2.8872   12.3698  -32.4354 Cl  0  0  0  0  0  0  0  0  0  0  0  0
   -7.4942    9.3443  -31.9939 Br  0  0  0  0  0  0  0  0  0  0  0  0
  1  3  2  0
  1  5  1  0
  2  5  2  0
  2  6  1  0
  3  4  1  0
  3  8  1  0
  4  6  2  0
  4 10  1  0
  5 12  1  0
  6 13  1  0
  9  7  1  6
  8  9  1  0
  9 11  1  0
M  END
>  <id>  (5) 
EN300-1922600

>  <smiles>  (5) 
C[C@H](O)CC=1C=C(Cl)C=C(Br)C1O

>  <IUPAC Name>  (5) 
2-bromo-4-chloro-6-[(2S)-2-hydroxypropyl]phenol

>  <CAS>  (5) 
2227900-00-5

>  <URL>  (5) 
https://www.enaminestore.com/catalog/EN300-1922600

>  <ROCS_ShapeQuery>  (5) 
_x1604L0AP1_x0771L0AP1

>  <ROCS_TanimotoCombo>  (5) 
0.988 

>  <ROCS_ShapeTanimoto>  (5) 
0.424 

>  <ROCS_ColorTanimoto>  (5) 
0.564 

>  <ROCS_RefTversky>  (5) 
0.402 

>  <ROCS_RefColorTversky>  (5) 
0.559 

>  <ROCS_RefTverskyCombo>  (5) 
0.961 

>  <ROCS_FitTversky>  (5) 
1.147 

>  <ROCS_FitColorTversky>  (5) 
1.015 

>  <ROCS_FitTverskyCombo>  (5) 
2.162 

>  <ROCS_ColorScore>  (5) 
-6.380

>  <ROCS_Overlap>  (5) 
681.601

>  <ROCS_Rank>  (5) 
14                  

$$$$
untitled-dbase-1339_10
     RDKit          3D

 13 13  0  0  1  0  0  0  0  0999 V2000
   -4.1007   11.9320  -30.0597 C   0  0  0  0  0  0  0  0  0  0  0  0
   -5.1335   10.9294  -32.0001 C   0  0  0  0  0  0  0  0  0  0  0  0
   -5.0983   11.3907  -29.2490 C   0  0  0  0  0  0  0  0  0  0  0  0
   -6.1135   10.6187  -29.8137 C   0  0  0  0  0  0  0  0  0  0  0  0
   -4.1183   11.7014  -31.4353 C   0  0  0  0  0  0  0  0  0  0  0  0
   -6.1311   10.3880  -31.1893 C   0  0  0  0  0  0  0  0  0  0  0  0
   -6.4756   13.7517  -27.9157 C   0  0  0  0  0  0  0  0  0  0  0  0
   -5.0605   11.6499  -27.7786 C   0  0  0  0  0  0  0  0  0  0  0  0
   -6.3165   12.3809  -27.2701 C   0  0  1  0  0  0  0  0  0  0  0  0
   -7.0825   10.0960  -29.0072 O   0  0  0  0  0  0  0  0  0  0  0  0
   -6.2322   12.5563  -25.8570 O   0  0  0  0  0  0  0  0  0  0  0  0
   -2.8872   12.3698  -32.4354 Cl  0  0  0  0  0  0  0  0  0  0  0  0
   -7.4942    9.3443  -31.9939 Br  0  0  0  0  0  0  0  0  0  0  0  0
  1  3  2  0
  1  5  1  0
  2  5  2  0
  2  6  1  0
  3  4  1  0
  3  8  1  0
  4  6  2  0
  4 10  1  0
  5 12  1  0
  6 13  1  0
  9  7  1  6
  8  9  1  0
  9 11  1  0
M  END
>  <id>  (6) 
EN300-1922588

>  <smiles>  (6) 
CC(O)CC=1C=C(Cl)C=C(Br)C1O

>  <IUPAC Name>  (6) 
2-bromo-4-chloro-6-(2-hydroxypropyl)phenol

>  <CAS>  (6) 
2228166-53-6

>  <URL>  (6) 
https://www.enaminestore.com/catalog/EN300-1922588

>  <ROCS_ShapeQuery>  (6) 
_x1604L0AP1_x0771L0AP1

>  <ROCS_TanimotoCombo>  (6) 
0.988 

>  <ROCS_ShapeTanimoto>  (6) 
0.424 

>  <ROCS_ColorTanimoto>  (6) 
0.564 

>  <ROCS_RefTversky>  (6) 
0.402 

>  <ROCS_RefColorTversky>  (6) 
0.559 

>  <ROCS_RefTverskyCombo>  (6) 
0.961 

>  <ROCS_FitTversky>  (6) 
1.147 

>  <ROCS_FitColorTversky>  (6) 
1.015 

>  <ROCS_FitTverskyCombo>  (6) 
2.162 

>  <ROCS_ColorScore>  (6) 
-6.380

>  <ROCS_Overlap>  (6) 
681.601

>  <ROCS_Rank>  (6) 
15                  

$$$$
untitled-dbase-2004_0
     RDKit          3D

 13 13  0  0  0  0  0  0  0  0999 V2000
   -5.5636   11.7900  -29.1675 C   0  0  0  0  0  0  0  0  0  0  0  0
   -5.0838   11.1219  -31.8333 C   0  0  0  0  0  0  0  0  0  0  0  0
   -4.5938   12.4792  -29.8956 C   0  0  0  0  0  0  0  0  0  0  0  0
   -6.2934   10.7667  -29.7723 C   0  0  0  0  0  0  0  0  0  0  0  0
   -4.3539   12.1452  -31.2284 C   0  0  0  0  0  0  0  0  0  0  0  0
   -6.0536   10.4326  -31.1052 C   0  0  0  0  0  0  0  0  0  0  0  0
   -3.8142   13.5725  -29.2464 C   0  0  0  0  0  0  0  0  0  0  0  0
   -7.2334   10.1119  -29.0333 O   0  0  0  0  0  0  0  0  0  0  0  0
   -3.4220   12.8000  -31.9352 F   0  0  0  0  0  0  0  0  0  0  0  0
   -4.1557   13.7881  -27.9415 F   0  0  0  0  0  0  0  0  0  0  0  0
   -2.4671   13.3477  -29.2294 F   0  0  0  0  0  0  0  0  0  0  0  0
   -3.9768   14.7754  -29.8707 F   0  0  0  0  0  0  0  0  0  0  0  0
   -7.0224    9.0453  -31.9588 Br  0  0  0  0  0  0  0  0  0  0  0  0
  1  3  2  0
  1  4  1  0
  2  5  2  0
  2  6  1  0
  3  5  1  0
  3  7  1  0
  4  6  2  0
  4  8  1  0
  5  9  1  0
  6 13  1  0
  7 10  1  0
  7 11  1  0
  7 12  1  0
M  END
>  <id>  (7) 
EN300-7432603

>  <smiles>  (7) 
OC=1C=C(C(F)=CC1Br)C(F)(F)F

>  <MDLNUMBER>  (7) 
MFCD22414732

>  <IUPAC Name>  (7) 
2-bromo-4-fluoro-5-(trifluoromethyl)phenol

>  <CAS>  (7) 
1805498-61-6

>  <Purity>  (7) 
95

>  <URL>  (7) 
https://www.enaminestore.com/catalog/EN300-7432603

>  <ROCS_ShapeQuery>  (7) 
_x1604L0AP1_x0771L0AP1

>  <ROCS_TanimotoCombo>  (7) 
0.982 

>  <ROCS_ShapeTanimoto>  (7) 
0.532 

>  <ROCS_ColorTanimoto>  (7) 
0.451 

>  <ROCS_RefTversky>  (7) 
0.476 

>  <ROCS_RefColorTversky>  (7) 
0.431 

>  <ROCS_RefTverskyCombo>  (7) 
0.907 

>  <ROCS_FitTversky>  (7) 
1.280 

>  <ROCS_FitColorTversky>  (7) 
1.112 

>  <ROCS_FitTverskyCombo>  (7) 
2.392 

>  <ROCS_ColorScore>  (7) 
-4.877

>  <ROCS_Overlap>  (7) 
807.917

>  <ROCS_Rank>  (7) 
16                  

$$$$
untitled-dbase-923_117
     RDKit          3D

 12 12  0  0  0  0  0  0  0  0999 V2000
   -4.3903   11.9324  -31.7005 C   0  0  0  0  0  0  0  0  0  0  0  0
   -4.5238   12.3789  -30.3859 C   0  0  0  0  0  0  0  0  0  0  0  0
   -5.1846   10.8841  -32.1651 C   0  0  0  0  0  0  0  0  0  0  0  0
   -5.4515   11.7771  -29.5357 C   0  0  0  0  0  0  0  0  0  0  0  0
   -6.2458   10.7287  -30.0002 C   0  0  0  0  0  0  0  0  0  0  0  0
   -6.1123   10.2822  -31.3150 C   0  0  0  0  0  0  0  0  0  0  0  0
   -5.5683   12.2655  -28.1678 C   0  0  0  0  0  0  0  0  0  0  0  0
   -6.4097   13.2340  -27.7443 C   0  0  0  0  0  0  0  0  0  0  0  0
   -6.5046   13.6919  -26.3242 C   0  0  0  0  0  0  0  0  0  0  0  0
   -7.1519   10.1426  -29.1628 O   0  0  0  0  0  0  0  0  0  0  0  0
   -6.1535   12.6108  -25.4717 O   0  0  0  0  0  0  0  0  0  0  0  0
   -7.1739    8.8618  -31.9865 Br  0  0  0  0  0  0  0  0  0  0  0  0
  1  2  2  0
  1  3  1  0
  2  4  1  0
  3  6  2  0
  4  5  2  0
  4  7  1  0
  5  6  1  0
  5 10  1  0
  6 12  1  0
  7  8  2  3
  8  9  1  0
  9 11  1  0
M  END
>  <id>  (8) 
EN300-1923404

>  <smiles>  (8) 
OCC=CC=1C=CC=C(Br)C1O

>  <IUPAC Name>  (8) 
2-bromo-6-(3-hydroxyprop-1-en-1-yl)phenol

>  <CAS>  (8) 
2229662-41-1

>  <URL>  (8) 
https://www.enaminestore.com/catalog/EN300-1923404

>  <ROCS_ShapeQuery>  (8) 
_x1604L0AP1_x0771L0AP1

>  <ROCS_TanimotoCombo>  (8) 
0.980 

>  <ROCS_ShapeTanimoto>  (8) 
0.429 

>  <ROCS_ColorTanimoto>  (8) 
0.551 

>  <ROCS_RefTversky>  (8) 
0.399 

>  <ROCS_RefColorTversky>  (8) 
0.551 

>  <ROCS_RefTverskyCombo>  (8) 
0.950 

>  <ROCS_FitTversky>  (8) 
1.205 

>  <ROCS_FitColorTversky>  (8) 
1.000 

>  <ROCS_FitTverskyCombo>  (8) 
2.205 

>  <ROCS_ColorScore>  (8) 
-6.289

>  <ROCS_Overlap>  (8) 
676.024

>  <ROCS_Rank>  (8) 
17                  

$$$$
untitled-dbase-2209_135
     RDKit          3D

 13 13  0  0  0  0  0  0  0  0999 V2000
   -4.4564   12.0199  -31.7195 C   0  0  0  0  0  0  0  0  0  0  0  0
   -4.6325   12.5953  -30.4611 C   0  0  0  0  0  0  0  0  0  0  0  0
   -5.1809   10.8817  -32.0736 C   0  0  0  0  0  0  0  0  0  0  0  0
   -5.5330   12.0325  -29.5568 C   0  0  0  0  0  0  0  0  0  0  0  0
   -6.2575   10.8943  -29.9108 C   0  0  0  0  0  0  0  0  0  0  0  0
   -6.0814   10.3189  -31.1692 C   0  0  0  0  0  0  0  0  0  0  0  0
   -6.0829   11.6298  -27.1523 C   0  0  0  0  0  0  0  0  0  0  0  0
   -5.7053   12.6639  -28.2144 C   0  0  0  0  0  0  0  0  0  0  0  0
   -7.1336   10.3543  -29.0144 O   0  0  0  0  0  0  0  0  0  0  0  0
   -6.2157   12.2748  -25.8909 O   0  0  0  0  0  0  0  0  0  0  0  0
   -4.5730   13.3043  -27.7808 F   0  0  0  0  0  0  0  0  0  0  0  0
   -6.6738   13.6345  -28.2061 F   0  0  0  0  0  0  0  0  0  0  0  0
   -7.0478    8.7727  -31.6885 Br  0  0  0  0  0  0  0  0  0  0  0  0
  1  2  2  0
  1  3  1  0
  2  4  1  0
  3  6  2  0
  4  5  2  0
  4  8  1  0
  5  6  1  0
  5  9  1  0
  6 13  1  0
  7  8  1  0
  7 10  1  0
  8 11  1  0
  8 12  1  0
M  END
>  <id>  (9) 
EN300-1963233

>  <smiles>  (9) 
OCC(F)(F)C=1C=CC=C(Br)C1O

>  <IUPAC Name>  (9) 
2-bromo-6-(1,1-difluoro-2-hydroxyethyl)phenol

>  <CAS>  (9) 
2228764-48-3

>  <URL>  (9) 
https://www.enaminestore.com/catalog/EN300-1963233

>  <ROCS_ShapeQuery>  (9) 
_x1604L0AP1_x0771L0AP1

>  <ROCS_TanimotoCombo>  (9) 
0.977 

>  <ROCS_ShapeTanimoto>  (9) 
0.423 

>  <ROCS_ColorTanimoto>  (9) 
0.554 

>  <ROCS_RefTversky>  (9) 
0.406 

>  <ROCS_RefColorTversky>  (9) 
0.553 

>  <ROCS_RefTverskyCombo>  (9) 
0.959 

>  <ROCS_FitTversky>  (9) 
1.106 

>  <ROCS_FitColorTversky>  (9) 
1.000 

>  <ROCS_FitTverskyCombo>  (9) 
2.106 

>  <ROCS_ColorScore>  (9) 
-6.312

>  <ROCS_Overlap>  (9) 
688.997

>  <ROCS_Rank>  (9) 
19                  

$$$$
untitled-dbase-884_37
     RDKit          3D

 12 12  0  0  0  0  0  0  0  0999 V2000
   -4.6067   12.4938  -29.8542 C   0  0  0  0  0  0  0  0  0  0  0  0
   -4.3577   12.1787  -31.1899 C   0  0  0  0  0  0  0  0  0  0  0  0
   -5.5752   11.7882  -29.1400 C   0  0  0  0  0  0  0  0  0  0  0  0
   -5.0771   11.1582  -31.8116 C   0  0  0  0  0  0  0  0  0  0  0  0
   -6.2946   10.7677  -29.7617 C   0  0  0  0  0  0  0  0  0  0  0  0
   -6.0456   10.4526  -31.0975 C   0  0  0  0  0  0  0  0  0  0  0  0
   -4.7728   10.8598  -33.2446 C   0  0  0  0  0  0  0  0  0  0  0  0
   -6.6792    9.0052  -35.1985 N   0  0  0  0  0  0  0  0  0  0  0  0
   -5.9563   10.9936  -34.1009 N   0  0  0  0  0  0  0  0  0  0  0  0
   -6.3292    9.9541  -34.6710 N   0  0  0  0  0  0  0  0  0  0  0  0
   -7.2337   10.1005  -29.0323 O   0  0  0  0  0  0  0  0  0  0  0  0
   -7.0332    9.0582  -31.9349 Br  0  0  0  0  0  0  0  0  0  0  0  0
  1  2  2  0
  1  3  1  0
  2  4  1  0
  3  5  2  0
  4  6  2  0
  4  7  1  0
  5  6  1  0
  5 11  1  0
  6 12  1  0
  7  9  1  0
  8 10  2  0
  9 10  2  0
M  CHG  2   8  -1  10   1
M  END
>  <id>  (10) 
EN300-1904552

>  <smiles>  (10) 
OC=1C=CC=C(CN=[N+]=[N-])C1Br

>  <IUPAC Name>  (10) 
3-(azidomethyl)-2-bromophenol

>  <CAS>  (10) 
2228616-06-4

>  <URL>  (10) 
https://www.enaminestore.com/catalog/EN300-1904552

>  <ROCS_ShapeQuery>  (10) 
_x1604L0AP1_x0771L0AP1

>  <ROCS_TanimotoCombo>  (10) 
0.975 

>  <ROCS_ShapeTanimoto>  (10) 
0.523 

>  <ROCS_ColorTanimoto>  (10) 
0.451 

>  <ROCS_RefTversky>  (10) 
0.459 

>  <ROCS_RefColorTversky>  (10) 
0.431 

>  <ROCS_RefTverskyCombo>  (10) 
0.890 

>  <ROCS_FitTversky>  (10) 
1.365 

>  <ROCS_FitColorTversky>  (10) 
1.113 

>  <ROCS_FitTverskyCombo>  (10) 
2.478 

>  <ROCS_ColorScore>  (10) 
-4.882

>  <ROCS_Overlap>  (10) 
777.119

>  <ROCS_Rank>  (10) 
20                  

$$$$
untitled-dbase-1136_68
     RDKit          3D

 12 12  0  0  1  0  0  0  0  0999 V2000
   -4.4780   12.0582  -31.6942 C   0  0  0  0  0  0  0  0  0  0  0  0
   -4.7087   12.6549  -30.4547 C   0  0  0  0  0  0  0  0  0  0  0  0
   -5.1539   10.8885  -32.0418 C   0  0  0  0  0  0  0  0  0  0  0  0
   -5.6153   12.0820  -29.5628 C   0  0  0  0  0  0  0  0  0  0  0  0
   -6.2912   10.9124  -29.9103 C   0  0  0  0  0  0  0  0  0  0  0  0
   -6.0604   10.3156  -31.1498 C   0  0  0  0  0  0  0  0  0  0  0  0
   -4.0033   11.8172  -26.7582 C   0  0  0  0  0  0  0  0  0  0  0  0
   -5.8464   12.7367  -28.2406 C   0  0  0  0  0  0  0  0  0  0  0  0
   -5.4980   11.8207  -27.0531 C   0  0  2  0  0  0  0  0  0  0  0  0
   -7.1738   10.3630  -29.0263 O   0  0  0  0  0  0  0  0  0  0  0  0
   -6.1860   12.2651  -25.8852 O   0  0  0  0  0  0  0  0  0  0  0  0
   -6.9597    8.7265  -31.6598 Br  0  0  0  0  0  0  0  0  0  0  0  0
  1  2  2  0
  1  3  1  0
  2  4  1  0
  3  6  2  0
  4  5  2  0
  4  8  1  0
  5  6  1  0
  5 10  1  0
  6 12  1  0
  9  7  1  1
  8  9  1  0
  9 11  1  0
M  END
>  <id>  (11) 
EN300-1923422

>  <smiles>  (11) 
C[C@@H](O)CC=1C=CC=C(Br)C1O

>  <IUPAC Name>  (11) 
2-bromo-6-[(2R)-2-hydroxypropyl]phenol

>  <CAS>  (11) 
2227725-36-0

>  <URL>  (11) 
https://www.enaminestore.com/catalog/EN300-1923422

>  <ROCS_ShapeQuery>  (11) 
_x1604L0AP1_x0771L0AP1

>  <ROCS_TanimotoCombo>  (11) 
0.965 

>  <ROCS_ShapeTanimoto>  (11) 
0.414 

>  <ROCS_ColorTanimoto>  (11) 
0.550 

>  <ROCS_RefTversky>  (11) 
0.390 

>  <ROCS_RefColorTversky>  (11) 
0.551 

>  <ROCS_RefTverskyCombo>  (11) 
0.940 

>  <ROCS_FitTversky>  (11) 
1.178 

>  <ROCS_FitColorTversky>  (11) 
1.000 

>  <ROCS_FitTverskyCombo>  (11) 
2.178 

>  <ROCS_ColorScore>  (11) 
-6.284

>  <ROCS_Overlap>  (11) 
660.018

>  <ROCS_Rank>  (11) 
25                  

$$$$
untitled-dbase-726_80
     RDKit          3D

 11 11  0  0  0  0  0  0  0  0999 V2000
   -4.5930   12.4711  -29.8342 C   0  0  0  0  0  0  0  0  0  0  0  0
   -5.5727   11.7751  -29.1262 C   0  0  0  0  0  0  0  0  0  0  0  0
   -5.0611   11.1372  -31.7935 C   0  0  0  0  0  0  0  0  0  0  0  0
   -4.3372   12.1523  -31.1679 C   0  0  0  0  0  0  0  0  0  0  0  0
   -6.2965   10.7600  -29.7518 C   0  0  0  0  0  0  0  0  0  0  0  0
   -6.0407   10.4411  -31.0855 C   0  0  0  0  0  0  0  0  0  0  0  0
   -3.2895   12.8970  -31.9238 C   0  0  0  0  0  0  0  0  0  0  0  0
   -3.1872   14.8299  -30.6469 N   0  0  0  0  0  0  0  0  0  0  0  0
   -7.2459   10.0977  -29.0318 O   0  0  0  0  0  0  0  0  0  0  0  0
   -2.4708   13.6179  -31.0109 O   0  0  0  0  0  0  0  0  0  0  0  0
   -7.0038    9.0668  -31.9668 Br  0  0  0  0  0  0  0  0  0  0  0  0
  1  2  2  0
  1  4  1  0
  2  5  1  0
  3  4  2  0
  3  6  1  0
  4  7  1  0
  5  6  2  0
  5  9  1  0
  6 11  1  0
  7 10  1  0
  8 10  1  0
M  END
>  <id>  (12) 
EN300-1915285

>  <smiles>  (12) 
NOCC=1C=CC(O)=C(Br)C1

>  <MDLNUMBER>  (12) 
MFCD24721151

>  <IUPAC Name>  (12) 
4-[(aminooxy)methyl]-2-bromophenol

>  <CAS>  (12) 
1836-79-9

>  <URL>  (12) 
https://www.enaminestore.com/catalog/EN300-1915285

>  <ROCS_ShapeQuery>  (12) 
_x1604L0AP1_x0771L0AP1

>  <ROCS_TanimotoCombo>  (12) 
0.965 

>  <ROCS_ShapeTanimoto>  (12) 
0.514 

>  <ROCS_ColorTanimoto>  (12) 
0.451 

>  <ROCS_RefTversky>  (12) 
0.444 

>  <ROCS_RefColorTversky>  (12) 
0.431 

>  <ROCS_RefTverskyCombo>  (12) 
0.875 

>  <ROCS_FitTversky>  (12) 
1.441 

>  <ROCS_FitColorTversky>  (12) 
1.112 

>  <ROCS_FitTverskyCombo>  (12) 
2.553 

>  <ROCS_ColorScore>  (12) 
-4.878

>  <ROCS_Overlap>  (12) 
750.760

>  <ROCS_Rank>  (12) 
26                  

$$$$
untitled-dbase-337_80
     RDKit          3D

 11 11  0  0  0  0  0  0  0  0999 V2000
   -4.3667   12.1674  -31.2102 C   0  0  0  0  0  0  0  0  0  0  0  0
   -5.0876   11.1415  -31.8213 C   0  0  0  0  0  0  0  0  0  0  0  0
   -5.5801   11.7956  -29.1544 C   0  0  0  0  0  0  0  0  0  0  0  0
   -4.6129   12.4944  -29.8767 C   0  0  0  0  0  0  0  0  0  0  0  0
   -6.3011   10.7697  -29.7655 C   0  0  0  0  0  0  0  0  0  0  0  0
   -6.0548   10.4427  -31.0990 C   0  0  0  0  0  0  0  0  0  0  0  0
   -3.8417   13.5904  -29.2228 C   0  0  0  0  0  0  0  0  0  0  0  0
   -1.9849   13.6426  -30.6106 N   0  0  0  0  0  0  0  0  0  0  0  0
   -7.2372   10.1039  -29.0315 O   0  0  0  0  0  0  0  0  0  0  0  0
   -3.1844   14.3649  -30.2185 O   0  0  0  0  0  0  0  0  0  0  0  0
   -7.0150    9.0553  -31.9623 Br  0  0  0  0  0  0  0  0  0  0  0  0
  1  2  2  0
  1  4  1  0
  2  6  1  0
  3  4  2  0
  3  5  1  0
  4  7  1  0
  5  6  2  0
  5  9  1  0
  6 11  1  0
  7 10  1  0
  8 10  1  0
M  END
>  <id>  (13) 
EN300-211634

>  <smiles>  (13) 
NOCC=1C=CC(Br)=C(O)C1

>  <MDLNUMBER>  (13) 
MFCD00867521

>  <IUPAC Name>  (13) 
5-[(aminooxy)methyl]-2-bromophenol

>  <CAS>  (13) 
555-65-7

>  <URL>  (13) 
https://www.enaminestore.com/catalog/EN300-211634

>  <ROCS_ShapeQuery>  (13) 
_x1604L0AP1_x0771L0AP1

>  <ROCS_TanimotoCombo>  (13) 
0.964 

>  <ROCS_ShapeTanimoto>  (13) 
0.514 

>  <ROCS_ColorTanimoto>  (13) 
0.451 

>  <ROCS_RefTversky>  (13) 
0.444 

>  <ROCS_RefColorTversky>  (13) 
0.431 

>  <ROCS_RefTverskyCombo>  (13) 
0.875 

>  <ROCS_FitTversky>  (13) 
1.440 

>  <ROCS_FitColorTversky>  (13) 
1.112 

>  <ROCS_FitTverskyCombo>  (13) 
2.553 

>  <ROCS_ColorScore>  (13) 
-4.878

>  <ROCS_Overlap>  (13) 
750.529

>  <ROCS_Rank>  (13) 
27                  

$$$$
untitled-dbase-2088_80
     RDKit          3D

 11 11  0  0  0  0  0  0  0  0999 V2000
   -4.3667   12.1674  -31.2102 C   0  0  0  0  0  0  0  0  0  0  0  0
   -5.0876   11.1415  -31.8213 C   0  0  0  0  0  0  0  0  0  0  0  0
   -5.5801   11.7956  -29.1544 C   0  0  0  0  0  0  0  0  0  0  0  0
   -4.6129   12.4944  -29.8767 C   0  0  0  0  0  0  0  0  0  0  0  0
   -6.3011   10.7697  -29.7655 C   0  0  0  0  0  0  0  0  0  0  0  0
   -6.0548   10.4427  -31.0990 C   0  0  0  0  0  0  0  0  0  0  0  0
   -3.8417   13.5904  -29.2228 C   0  0  0  0  0  0  0  0  0  0  0  0
   -1.9849   13.6426  -30.6106 N   0  0  0  0  0  0  0  0  0  0  0  0
   -7.2372   10.1039  -29.0315 O   0  0  0  0  0  0  0  0  0  0  0  0
   -3.1844   14.3649  -30.2185 O   0  0  0  0  0  0  0  0  0  0  0  0
   -7.0150    9.0553  -31.9623 Br  0  0  0  0  0  0  0  0  0  0  0  0
  1  2  2  0
  1  4  1  0
  2  6  1  0
  3  4  2  0
  3  5  1  0
  4  7  1  0
  5  6  2  0
  5  9  1  0
  6 11  1  0
  7 10  1  0
  8 10  1  0
M  END
>  <id>  (14) 
EN300-210717

>  <smiles>  (14) 
Cl.NOCC=1C=CC(Br)=C(O)C1

>  <MDLNUMBER>  (14) 
MFCD28397721

>  <IUPAC Name>  (14) 
5-[(aminooxy)methyl]-2-bromophenol hydrochloride

>  <CAS>  (14) 
91468-63-2

>  <Purity>  (14) 
95

>  <URL>  (14) 
https://www.enaminestore.com/catalog/EN300-210717

>  <Saltdate>  (14) 
Cl

>  <ROCS_ShapeQuery>  (14) 
_x1604L0AP1_x0771L0AP1

>  <ROCS_TanimotoCombo>  (14) 
0.964 

>  <ROCS_ShapeTanimoto>  (14) 
0.514 

>  <ROCS_ColorTanimoto>  (14) 
0.451 

>  <ROCS_RefTversky>  (14) 
0.444 

>  <ROCS_RefColorTversky>  (14) 
0.431 

>  <ROCS_RefTverskyCombo>  (14) 
0.875 

>  <ROCS_FitTversky>  (14) 
1.440 

>  <ROCS_FitColorTversky>  (14) 
1.112 

>  <ROCS_FitTverskyCombo>  (14) 
2.553 

>  <ROCS_ColorScore>  (14) 
-4.878

>  <ROCS_Overlap>  (14) 
750.529

>  <ROCS_Rank>  (14) 
28                  

$$$$
untitled-dbase-2223_466
     RDKit          3D

 14 14  0  0  1  0  0  0  0  0999 V2000
   -4.4776   12.0625  -31.6842 C   0  0  0  0  0  0  0  0  0  0  0  0
   -4.7153   12.6574  -30.4452 C   0  0  0  0  0  0  0  0  0  0  0  0
   -5.1484   10.8910  -32.0356 C   0  0  0  0  0  0  0  0  0  0  0  0
   -5.6237   12.0807  -29.5575 C   0  0  0  0  0  0  0  0  0  0  0  0
   -6.2944   10.9092  -29.9088 C   0  0  0  0  0  0  0  0  0  0  0  0
   -6.0567   10.3143  -31.1479 C   0  0  0  0  0  0  0  0  0  0  0  0
   -5.5273   11.8068  -27.0560 C   0  0  0  0  0  0  0  0  0  0  0  0
   -5.8623   12.7335  -28.2357 C   0  0  2  0  0  0  0  0  0  0  0  0
   -8.6904   12.7392  -29.9367 N   0  0  0  0  0  0  0  0  0  0  0  0
   -7.2683   13.1688  -28.0801 N   0  0  0  0  0  0  0  0  0  0  0  0
   -7.9998   12.9408  -29.0516 N   0  0  0  0  0  0  0  0  0  0  0  0
   -7.1789   10.3562  -29.0289 O   0  0  0  0  0  0  0  0  0  0  0  0
   -6.1784   12.2711  -25.8782 O   0  0  0  0  0  0  0  0  0  0  0  0
   -6.9487    8.7228  -31.6629 Br  0  0  0  0  0  0  0  0  0  0  0  0
  1  2  2  0
  1  3  1  0
  2  4  1  0
  3  6  2  0
  4  5  2  0
  4  8  1  0
  5  6  1  0
  5 12  1  0
  6 14  1  0
  8  7  1  1
  7 13  1  0
  8 10  1  0
  9 11  2  0
 10 11  2  0
M  CHG  2   9  -1  11   1
M  END
>  <id>  (15) 
EN300-1923148

>  <smiles>  (15) 
OCC(N=[N+]=[N-])C=1C=CC=C(Br)C1O

>  <IUPAC Name>  (15) 
2-(1-azido-2-hydroxyethyl)-6-bromophenol

>  <CAS>  (15) 
2228645-26-7

>  <URL>  (15) 
https://www.enaminestore.com/catalog/EN300-1923148

>  <ROCS_ShapeQuery>  (15) 
_x1604L0AP1_x0771L0AP1

>  <ROCS_TanimotoCombo>  (15) 
0.954 

>  <ROCS_ShapeTanimoto>  (15) 
0.401 

>  <ROCS_ColorTanimoto>  (15) 
0.553 

>  <ROCS_RefTversky>  (15) 
0.396 

>  <ROCS_RefColorTversky>  (15) 
0.552 

>  <ROCS_RefTverskyCombo>  (15) 
0.948 

>  <ROCS_FitTversky>  (15) 
1.031 

>  <ROCS_FitColorTversky>  (15) 
1.000 

>  <ROCS_FitTverskyCombo>  (15) 
2.031 

>  <ROCS_ColorScore>  (15) 
-6.304

>  <ROCS_Overlap>  (15) 
672.337

>  <ROCS_Rank>  (15) 
40                  

$$$$
untitled-dbase-450_3
     RDKit          3D

 13 13  0  0  0  0  0  0  0  0999 V2000
   -4.3434   12.1397  -31.2119 C   0  0  0  0  0  0  0  0  0  0  0  0
   -5.0736   11.1201  -31.8224 C   0  0  0  0  0  0  0  0  0  0  0  0
   -5.5614   11.7812  -29.1564 C   0  0  0  0  0  0  0  0  0  0  0  0
   -4.5873   12.4703  -29.8789 C   0  0  0  0  0  0  0  0  0  0  0  0
   -6.2916   10.7616  -29.7669 C   0  0  0  0  0  0  0  0  0  0  0  0
   -6.0477   10.4310  -31.1000 C   0  0  0  0  0  0  0  0  0  0  0  0
   -3.4468   15.2735  -30.8686 C   0  0  0  0  0  0  0  0  0  0  0  0
   -3.4326   12.9162  -26.9453 C   0  0  0  0  0  0  0  0  0  0  0  0
   -2.8353   14.2238  -30.0043 C   0  0  0  0  0  0  0  0  0  0  0  0
   -4.1045   13.8622  -27.8814 C   0  0  0  0  0  0  0  0  0  0  0  0
   -3.8491   13.5017  -29.2619 N   0  0  0  0  0  0  0  0  0  0  0  0
   -7.2364   10.1073  -29.0337 O   0  0  0  0  0  0  0  0  0  0  0  0
   -7.0206    9.0517  -31.9620 Br  0  0  0  0  0  0  0  0  0  0  0  0
  1  2  2  0
  1  4  1  0
  2  6  1  0
  3  4  2  0
  3  5  1  0
  4 11  1  0
  5  6  2  0
  5 12  1  0
  6 13  1  0
  7  9  1  0
  8 10  1  0
  9 11  1  0
 10 11  1  0
M  END
>  <id>  (16) 
EN300-1926804

>  <smiles>  (16) 
CCN(CC)C=1C=CC(Br)=C(O)C1

>  <IUPAC Name>  (16) 
2-bromo-5-(diethylamino)phenol

>  <CAS>  (16) 
2229002-72-4

>  <URL>  (16) 
https://www.enaminestore.com/catalog/EN300-1926804

>  <ROCS_ShapeQuery>  (16) 
_x1604L0AP1_x0771L0AP1

>  <ROCS_TanimotoCombo>  (16) 
0.954 

>  <ROCS_ShapeTanimoto>  (16) 
0.503 

>  <ROCS_ColorTanimoto>  (16) 
0.451 

>  <ROCS_RefTversky>  (16) 
0.454 

>  <ROCS_RefColorTversky>  (16) 
0.431 

>  <ROCS_RefTverskyCombo>  (16) 
0.885 

>  <ROCS_FitTversky>  (16) 
1.278 

>  <ROCS_FitColorTversky>  (16) 
1.113 

>  <ROCS_FitTverskyCombo>  (16) 
2.390 

>  <ROCS_ColorScore>  (16) 
-4.878

>  <ROCS_Overlap>  (16) 
768.588

>  <ROCS_Rank>  (16) 
41                  

$$$$
untitled-dbase-227_0
     RDKit          3D

 11 11  0  0  0  0  0  0  0  0999 V2000
   -5.8632   12.0878  -27.5848 C   0  0  0  0  0  0  0  0  0  0  0  0
   -4.6006   12.5116  -29.6239 C   0  0  0  0  0  0  0  0  0  0  0  0
   -5.0256   11.2405  -31.6341 C   0  0  0  0  0  0  0  0  0  0  0  0
   -5.5908   11.7894  -28.9579 C   0  0  0  0  0  0  0  0  0  0  0  0
   -4.3180   12.2372  -30.9620 C   0  0  0  0  0  0  0  0  0  0  0  0
   -6.2984   10.7928  -29.6300 C   0  0  0  0  0  0  0  0  0  0  0  0
   -6.0158   10.5183  -30.9681 C   0  0  0  0  0  0  0  0  0  0  0  0
   -3.2594   13.0100  -31.6738 C   0  0  0  0  0  0  0  0  0  0  0  0
   -6.0840   12.3298  -26.4715 N   0  0  0  0  0  0  0  0  0  0  0  0
   -7.2687   10.0902  -28.9736 O   0  0  0  0  0  0  0  0  0  0  0  0
   -6.9529    9.1705  -31.9171 Br  0  0  0  0  0  0  0  0  0  0  0  0
  1  4  1  0
  1  9  3  0
  2  4  2  0
  2  5  1  0
  3  5  2  0
  3  7  1  0
  4  6  1  0
  5  8  1  0
  6  7  2  0
  6 10  1  0
  7 11  1  0
M  END
>  <id>  (17) 
EN300-1615109

>  <smiles>  (17) 
CC=1C=C(Br)C(O)=C(C#N)C1

>  <MDLNUMBER>  (17) 
MFCD08457443

>  <IUPAC Name>  (17) 
3-bromo-2-hydroxy-5-methylbenzonitrile

>  <CAS>  (17) 
1032506-48-1

>  <URL>  (17) 
https://www.enaminestore.com/catalog/EN300-1615109

>  <ROCS_ShapeQuery>  (17) 
_x1604L0AP1_x0771L0AP1

>  <ROCS_TanimotoCombo>  (17) 
0.953 

>  <ROCS_ShapeTanimoto>  (17) 
0.462 

>  <ROCS_ColorTanimoto>  (17) 
0.491 

>  <ROCS_RefTversky>  (17) 
0.415 

>  <ROCS_RefColorTversky>  (17) 
0.484 

>  <ROCS_RefTverskyCombo>  (17) 
0.899 

>  <ROCS_FitTversky>  (17) 
1.327 

>  <ROCS_FitColorTversky>  (17) 
1.030 

>  <ROCS_FitTverskyCombo>  (17) 
2.357 

>  <ROCS_ColorScore>  (17) 
-5.497

>  <ROCS_Overlap>  (17) 
701.412

>  <ROCS_Rank>  (17) 
43                  

$$$$
untitled-dbase-1428_1
     RDKit          3D

 13 13  0  0  0  0  0  0  0  0999 V2000
   -4.5787   12.4753  -29.8329 C   0  0  0  0  0  0  0  0  0  0  0  0
   -5.0544   11.1343  -31.7854 C   0  0  0  0  0  0  0  0  0  0  0  0
   -6.2878   10.7702  -29.7402 C   0  0  0  0  0  0  0  0  0  0  0  0
   -4.3261   12.1497  -31.1655 C   0  0  0  0  0  0  0  0  0  0  0  0
   -5.5596   11.7855  -29.1202 C   0  0  0  0  0  0  0  0  0  0  0  0
   -6.0353   10.4446  -31.0728 C   0  0  0  0  0  0  0  0  0  0  0  0
   -3.4023   12.8869  -33.4684 O   0  0  0  0  0  0  0  0  0  0  0  0
   -2.9010   14.2964  -31.4131 O   0  0  0  0  0  0  0  0  0  0  0  0
   -7.2477   10.0979  -29.0396 O   0  0  0  0  0  0  0  0  0  0  0  0
   -1.7275   12.2320  -31.8556 F   0  0  0  0  0  0  0  0  0  0  0  0
   -3.0969   13.0117  -32.0564 S   0  0  0  0  0  0  0  0  0  0  0  0
   -5.8458   12.2109  -27.4726 Cl  0  0  0  0  0  0  0  0  0  0  0  0
   -7.0036    9.0715  -31.9520 Br  0  0  0  0  0  0  0  0  0  0  0  0
  1  4  2  0
  1  5  1  0
  2  4  1  0
  2  6  2  0
  3  5  2  0
  3  6  1  0
  3  9  1  0
  4 11  1  0
  5 12  1  0
  6 13  1  0
  7 11  2  0
  8 11  2  0
 10 11  1  0
M  END
>  <id>  (18) 
EN300-36596275

>  <smiles>  (18) 
OC=1C(Cl)=CC(=CC1Br)S(=O)(=O)F

>  <IUPAC Name>  (18) 
3-bromo-5-chloro-4-hydroxybenzene-1-sulfonyl fluoride

>  <CAS>  (18) 
2757906-45-7

>  <URL>  (18) 
https://www.enaminestore.com/catalog/EN300-36596275

>  <ROCS_ShapeQuery>  (18) 
_x1604L0AP1_x0771L0AP1

>  <ROCS_TanimotoCombo>  (18) 
0.950 

>  <ROCS_ShapeTanimoto>  (18) 
0.499 

>  <ROCS_ColorTanimoto>  (18) 
0.451 

>  <ROCS_RefTversky>  (18) 
0.449 

>  <ROCS_RefColorTversky>  (18) 
0.431 

>  <ROCS_RefTverskyCombo>  (18) 
0.881 

>  <ROCS_FitTversky>  (18) 
1.288 

>  <ROCS_FitColorTversky>  (18) 
1.113 

>  <ROCS_FitTverskyCombo>  (18) 
2.401 

>  <ROCS_ColorScore>  (18) 
-4.881

>  <ROCS_Overlap>  (18) 
760.933

>  <ROCS_Rank>  (18) 
46                  

$$$$
untitled-dbase-1094_113
     RDKit          3D

 14 14  0  0  0  0  0  0  0  0999 V2000
   -4.3602   12.1879  -31.1775 C   0  0  0  0  0  0  0  0  0  0  0  0
   -4.6123   12.5040  -29.8425 C   0  0  0  0  0  0  0  0  0  0  0  0
   -5.0760   11.1648  -31.7992 C   0  0  0  0  0  0  0  0  0  0  0  0
   -5.5802   11.7969  -29.1292 C   0  0  0  0  0  0  0  0  0  0  0  0
   -6.2960   10.7737  -29.7509 C   0  0  0  0  0  0  0  0  0  0  0  0
   -6.0439   10.4576  -31.0859 C   0  0  0  0  0  0  0  0  0  0  0  0
   -5.0386   13.1761  -27.2691 C   0  0  0  0  0  0  0  0  0  0  0  0
   -4.7686   10.8665  -33.2316 C   0  0  0  0  0  0  0  0  0  0  0  0
   -6.6666    9.0053  -35.1874 N   0  0  0  0  0  0  0  0  0  0  0  0
   -5.9513   10.9964  -34.0896 N   0  0  0  0  0  0  0  0  0  0  0  0
   -6.3203    9.9554  -34.6598 N   0  0  0  0  0  0  0  0  0  0  0  0
   -7.2380   10.0966  -29.0321 O   0  0  0  0  0  0  0  0  0  0  0  0
   -5.8151   12.1174  -27.8260 O   0  0  0  0  0  0  0  0  0  0  0  0
   -7.0316    9.0661  -31.9291 Br  0  0  0  0  0  0  0  0  0  0  0  0
  1  2  2  0
  1  3  1  0
  2  4  1  0
  3  6  2  0
  3  8  1  0
  4  5  2  0
  4 13  1  0
  5  6  1  0
  5 12  1  0
  6 14  1  0
  7 13  1  0
  8 10  1  0
  9 11  2  0
 10 11  2  0
M  CHG  2   9  -1  11   1
M  END
>  <id>  (19) 
EN300-1935945

>  <smiles>  (19) 
COC=1C=CC(CN=[N+]=[N-])=C(Br)C1O

>  <IUPAC Name>  (19) 
3-(azidomethyl)-2-bromo-6-methoxyphenol

>  <CAS>  (19) 
2229478-92-4

>  <URL>  (19) 
https://www.enaminestore.com/catalog/EN300-1935945

>  <ROCS_ShapeQuery>  (19) 
_x1604L0AP1_x0771L0AP1

>  <ROCS_TanimotoCombo>  (19) 
0.950 

>  <ROCS_ShapeTanimoto>  (19) 
0.535 

>  <ROCS_ColorTanimoto>  (19) 
0.415 

>  <ROCS_RefTversky>  (19) 
0.483 

>  <ROCS_RefColorTversky>  (19) 
0.431 

>  <ROCS_RefTverskyCombo>  (19) 
0.914 

>  <ROCS_FitTversky>  (19) 
1.250 

>  <ROCS_FitColorTversky>  (19) 
0.919 

>  <ROCS_FitTverskyCombo>  (19) 
2.169 

>  <ROCS_ColorScore>  (19) 
-4.901

>  <ROCS_Overlap>  (19) 
820.193

>  <ROCS_Rank>  (19) 
47                  

$$$$
untitled-dbase-965_68
     RDKit          3D

 12 12  0  0  1  0  0  0  0  0999 V2000
   -4.2640   11.8545  -31.6096 C   0  0  0  0  0  0  0  0  0  0  0  0
   -4.1904   12.1565  -30.2499 C   0  0  0  0  0  0  0  0  0  0  0  0
   -5.2485   10.9846  -32.0786 C   0  0  0  0  0  0  0  0  0  0  0  0
   -5.1011   11.5885  -29.3590 C   0  0  0  0  0  0  0  0  0  0  0  0
   -6.0855   10.7185  -29.8280 C   0  0  0  0  0  0  0  0  0  0  0  0
   -6.1592   10.4166  -31.1878 C   0  0  0  0  0  0  0  0  0  0  0  0
   -6.3227   14.0798  -27.6757 C   0  0  0  0  0  0  0  0  0  0  0  0
   -5.0036   11.9244  -27.9072 C   0  0  0  0  0  0  0  0  0  0  0  0
   -6.2809   12.5895  -27.3624 C   0  0  1  0  0  0  0  0  0  0  0  0
   -6.9683   10.1695  -28.9438 O   0  0  0  0  0  0  0  0  0  0  0  0
   -6.3427   12.4256  -25.9467 O   0  0  0  0  0  0  0  0  0  0  0  0
   -7.4827    9.2401  -31.8645 Br  0  0  0  0  0  0  0  0  0  0  0  0
  1  2  2  0
  1  3  1  0
  2  4  1  0
  3  6  2  0
  4  5  2  0
  4  8  1  0
  5  6  1  0
  5 10  1  0
  6 12  1  0
  9  7  1  1
  8  9  1  0
  9 11  1  0
M  END
>  <id>  (20) 
EN300-1923419

>  <smiles>  (20) 
C[C@H](O)CC=1C=CC=C(Br)C1O

>  <IUPAC Name>  (20) 
2-bromo-6-[(2S)-2-hydroxypropyl]phenol

>  <CAS>  (20) 
2227723-97-7

>  <URL>  (20) 
https://www.enaminestore.com/catalog/EN300-1923419

>  <ROCS_ShapeQuery>  (20) 
_x1604L0AP1_x0771L0AP1

>  <ROCS_TanimotoCombo>  (20) 
0.950 

>  <ROCS_ShapeTanimoto>  (20) 
0.410 

>  <ROCS_ColorTanimoto>  (20) 
0.541 

>  <ROCS_RefTversky>  (20) 
0.387 

>  <ROCS_RefColorTversky>  (20) 
0.544 

>  <ROCS_RefTverskyCombo>  (20) 
0.931 

>  <ROCS_FitTversky>  (20) 
1.168 

>  <ROCS_FitColorTversky>  (20) 
0.988 

>  <ROCS_FitTverskyCombo>  (20) 
2.156 

>  <ROCS_ColorScore>  (20) 
-6.211

>  <ROCS_Overlap>  (20) 
654.608

>  <ROCS_Rank>  (20) 
48                  

$$$$
untitled-dbase-1431_68
     RDKit          3D

 12 12  0  0  1  0  0  0  0  0999 V2000
   -4.2640   11.8545  -31.6096 C   0  0  0  0  0  0  0  0  0  0  0  0
   -4.1904   12.1565  -30.2499 C   0  0  0  0  0  0  0  0  0  0  0  0
   -5.2485   10.9846  -32.0786 C   0  0  0  0  0  0  0  0  0  0  0  0
   -5.1011   11.5885  -29.3590 C   0  0  0  0  0  0  0  0  0  0  0  0
   -6.0855   10.7185  -29.8280 C   0  0  0  0  0  0  0  0  0  0  0  0
   -6.1592   10.4166  -31.1878 C   0  0  0  0  0  0  0  0  0  0  0  0
   -6.3227   14.0798  -27.6757 C   0  0  0  0  0  0  0  0  0  0  0  0
   -5.0036   11.9244  -27.9072 C   0  0  0  0  0  0  0  0  0  0  0  0
   -6.2809   12.5895  -27.3624 C   0  0  1  0  0  0  0  0  0  0  0  0
   -6.9683   10.1695  -28.9438 O   0  0  0  0  0  0  0  0  0  0  0  0
   -6.3427   12.4256  -25.9467 O   0  0  0  0  0  0  0  0  0  0  0  0
   -7.4827    9.2401  -31.8645 Br  0  0  0  0  0  0  0  0  0  0  0  0
  1  2  2  0
  1  3  1  0
  2  4  1  0
  3  6  2  0
  4  5  2  0
  4  8  1  0
  5  6  1  0
  5 10  1  0
  6 12  1  0
  9  7  1  1
  8  9  1  0
  9 11  1  0
M  END
>  <id>  (21) 
EN300-1923125

>  <smiles>  (21) 
CC(O)CC=1C=CC=C(Br)C1O

>  <IUPAC Name>  (21) 
2-bromo-6-(2-hydroxypropyl)phenol

>  <CAS>  (21) 
1517312-54-7

>  <URL>  (21) 
https://www.enaminestore.com/catalog/EN300-1923125

>  <ROCS_ShapeQuery>  (21) 
_x1604L0AP1_x0771L0AP1

>  <ROCS_TanimotoCombo>  (21) 
0.950 

>  <ROCS_ShapeTanimoto>  (21) 
0.410 

>  <ROCS_ColorTanimoto>  (21) 
0.541 

>  <ROCS_RefTversky>  (21) 
0.387 

>  <ROCS_RefColorTversky>  (21) 
0.544 

>  <ROCS_RefTverskyCombo>  (21) 
0.931 

>  <ROCS_FitTversky>  (21) 
1.168 

>  <ROCS_FitColorTversky>  (21) 
0.988 

>  <ROCS_FitTverskyCombo>  (21) 
2.156 

>  <ROCS_ColorScore>  (21) 
-6.211

>  <ROCS_Overlap>  (21) 
654.608

>  <ROCS_Rank>  (21) 
49                  

$$$$
untitled-dbase-112_3
     RDKit          3D

 11 11  0  0  0  0  0  0  0  0999 V2000
   -4.3552   12.1474  -31.2292 C   0  0  0  0  0  0  0  0  0  0  0  0
   -5.0835   11.1228  -31.8337 C   0  0  0  0  0  0  0  0  0  0  0  0
   -5.5660   11.7926  -29.1689 C   0  0  0  0  0  0  0  0  0  0  0  0
   -4.5964   12.4823  -29.8968 C   0  0  0  0  0  0  0  0  0  0  0  0
   -6.2943   10.7680  -29.7733 C   0  0  0  0  0  0  0  0  0  0  0  0
   -6.0530   10.4331  -31.1057 C   0  0  0  0  0  0  0  0  0  0  0  0
   -3.8173   13.5770  -29.2500 C   0  0  0  0  0  0  0  0  0  0  0  0
   -7.2326   10.1112  -29.0339 O   0  0  0  0  0  0  0  0  0  0  0  0
   -4.4288   14.7774  -29.4296 F   0  0  0  0  0  0  0  0  0  0  0  0
   -2.5830   13.6865  -29.8081 F   0  0  0  0  0  0  0  0  0  0  0  0
   -7.0233    9.0472  -31.9601 Br  0  0  0  0  0  0  0  0  0  0  0  0
  1  2  2  0
  1  4  1  0
  2  6  1  0
  3  4  2  0
  3  5  1  0
  4  7  1  0
  5  6  2  0
  5  8  1  0
  6 11  1  0
  7  9  1  0
  7 10  1  0
M  END
>  <id>  (22) 
EN300-382862

>  <smiles>  (22) 
OC=1C=C(C=CC1Br)C(F)F

>  <MDLNUMBER>  (22) 
MFCD18391147

>  <IUPAC Name>  (22) 
2-bromo-5-(difluoromethyl)phenol

>  <CAS>  (22) 
1261760-40-0

>  <Purity>  (22) 
95

>  <URL>  (22) 
https://www.enaminestore.com/catalog/EN300-382862

>  <ROCS_ShapeQuery>  (22) 
_x1604L0AP1_x0771L0AP1

>  <ROCS_TanimotoCombo>  (22) 
0.949 

>  <ROCS_ShapeTanimoto>  (22) 
0.498 

>  <ROCS_ColorTanimoto>  (22) 
0.451 

>  <ROCS_RefTversky>  (22) 
0.437 

>  <ROCS_RefColorTversky>  (22) 
0.431 

>  <ROCS_RefTverskyCombo>  (22) 
0.868 

>  <ROCS_FitTversky>  (22) 
1.389 

>  <ROCS_FitColorTversky>  (22) 
1.112 

>  <ROCS_FitTverskyCombo>  (22) 
2.501 

>  <ROCS_ColorScore>  (22) 
-4.877

>  <ROCS_Overlap>  (22) 
739.028

>  <ROCS_Rank>  (22) 
50                  

$$$$
untitled-dbase-1970_0
     RDKit          3D

 14 14  0  0  0  0  0  0  0  0999 V2000
   -4.7112   12.4973  -29.4092 C   0  0  0  0  0  0  0  0  0  0  0  0
   -4.9926   11.3259  -31.5034 C   0  0  0  0  0  0  0  0  0  0  0  0
   -5.7200   11.7208  -28.8393 C   0  0  0  0  0  0  0  0  0  0  0  0
   -4.3475   12.2999  -30.7414 C   0  0  0  0  0  0  0  0  0  0  0  0
   -6.3652   10.7468  -29.6014 C   0  0  0  0  0  0  0  0  0  0  0  0
   -6.0015   10.5493  -30.9335 C   0  0  0  0  0  0  0  0  0  0  0  0
   -6.0810   11.9459  -27.4463 C   0  0  0  0  0  0  0  0  0  0  0  0
   -3.2691   13.1306  -31.3506 C   0  0  0  0  0  0  0  0  0  0  0  0
   -5.5343   12.7956  -26.7397 O   0  0  0  0  0  0  0  0  0  0  0  0
   -7.3506    9.9931  -29.0319 O   0  0  0  0  0  0  0  0  0  0  0  0
   -2.7277   14.0423  -30.4894 F   0  0  0  0  0  0  0  0  0  0  0  0
   -2.2093   12.4006  -31.8085 F   0  0  0  0  0  0  0  0  0  0  0  0
   -3.7057   13.8541  -32.4224 F   0  0  0  0  0  0  0  0  0  0  0  0
   -6.8535    9.2347  -32.0015 Br  0  0  0  0  0  0  0  0  0  0  0  0
  1  3  2  0
  1  4  1  0
  2  4  2  0
  2  6  1  0
  3  5  1  0
  3  7  1  0
  4  8  1  0
  5  6  2  0
  5 10  1  0
  6 14  1  0
  7  9  2  0
  8 11  1  0
  8 12  1  0
  8 13  1  0
M  END
>  <id>  (23) 
EN300-3529444

>  <smiles>  (23) 
OC=1C(Br)=CC(=CC1C=O)C(F)(F)F

>  <MDLNUMBER>  (23) 
MFCD04039295

>  <IUPAC Name>  (23) 
3-bromo-2-hydroxy-5-(trifluoromethyl)benzaldehyde

>  <CAS>  (23) 
886762-43-2

>  <Purity>  (23) 
95

>  <URL>  (23) 
https://www.enaminestore.com/catalog/EN300-3529444

>  <ROCS_ShapeQuery>  (23) 
_x1604L0AP1_x0771L0AP1

>  <ROCS_TanimotoCombo>  (23) 
0.947 

>  <ROCS_ShapeTanimoto>  (23) 
0.522 

>  <ROCS_ColorTanimoto>  (23) 
0.425 

>  <ROCS_RefTversky>  (23) 
0.478 

>  <ROCS_RefColorTversky>  (23) 
0.438 

>  <ROCS_RefTverskyCombo>  (23) 
0.916 

>  <ROCS_FitTversky>  (23) 
1.213 

>  <ROCS_FitColorTversky>  (23) 
0.933 

>  <ROCS_FitTverskyCombo>  (23) 
2.146 

>  <ROCS_ColorScore>  (23) 
-4.979

>  <ROCS_Overlap>  (23) 
812.044

>  <ROCS_Rank>  (23) 
52                  

$$$$
untitled-dbase-1417_525
     RDKit          3D

 14 14  0  0  0  0  0  0  0  0999 V2000
   -4.6007   12.4860  -29.8269 C   0  0  0  0  0  0  0  0  0  0  0  0
   -5.0653   11.1505  -31.7859 C   0  0  0  0  0  0  0  0  0  0  0  0
   -4.3447   12.1682  -31.1607 C   0  0  0  0  0  0  0  0  0  0  0  0
   -5.5773   11.7862  -29.1182 C   0  0  0  0  0  0  0  0  0  0  0  0
   -6.2978   10.7685  -29.7434 C   0  0  0  0  0  0  0  0  0  0  0  0
   -6.0418   10.4507  -31.0772 C   0  0  0  0  0  0  0  0  0  0  0  0
   -5.0346   13.1614  -27.2554 C   0  0  0  0  0  0  0  0  0  0  0  0
   -3.3012   12.9173  -31.9183 C   0  0  0  0  0  0  0  0  0  0  0  0
   -3.1293   14.3606  -31.4402 C   0  0  0  0  0  0  0  0  0  0  0  0
   -1.2861   14.1039  -30.0569 N   0  0  0  0  0  0  0  0  0  0  0  0
   -7.2497   10.0961  -29.0338 O   0  0  0  0  0  0  0  0  0  0  0  0
   -5.8163   12.1086  -27.8163 O   0  0  0  0  0  0  0  0  0  0  0  0
   -2.7162   14.3671  -30.0796 O   0  0  0  0  0  0  0  0  0  0  0  0
   -7.0006    9.0743  -31.9606 Br  0  0  0  0  0  0  0  0  0  0  0  0
  1  3  2  0
  1  4  1  0
  2  3  1  0
  2  6  2  0
  3  8  1  0
  4  5  2  0
  4 12  1  0
  5  6  1  0
  5 11  1  0
  6 14  1  0
  7 12  1  0
  8  9  1  0
  9 13  1  0
 10 13  1  0
M  END
>  <id>  (24) 
EN300-1926996

>  <smiles>  (24) 
COC=1C=C(CCON)C=C(Br)C1O

>  <IUPAC Name>  (24) 
4-[2-(aminooxy)ethyl]-2-bromo-6-methoxyphenol

>  <CAS>  (24) 
2228419-19-8

>  <URL>  (24) 
https://www.enaminestore.com/catalog/EN300-1926996

>  <ROCS_ShapeQuery>  (24) 
_x1604L0AP1_x0771L0AP1

>  <ROCS_TanimotoCombo>  (24) 
0.944 

>  <ROCS_ShapeTanimoto>  (24) 
0.529 

>  <ROCS_ColorTanimoto>  (24) 
0.415 

>  <ROCS_RefTversky>  (24) 
0.477 

>  <ROCS_RefColorTversky>  (24) 
0.431 

>  <ROCS_RefTverskyCombo>  (24) 
0.908 

>  <ROCS_FitTversky>  (24) 
1.258 

>  <ROCS_FitColorTversky>  (24) 
0.918 

>  <ROCS_FitTverskyCombo>  (24) 
2.176 

>  <ROCS_ColorScore>  (24) 
-4.898

>  <ROCS_Overlap>  (24) 
810.224

>  <ROCS_Rank>  (24) 
54                  

$$$$
untitled-dbase-1060_5
     RDKit          3D

 13 13  0  0  1  0  0  0  0  0999 V2000
   -4.7844   12.6650  -30.2851 C   0  0  0  0  0  0  0  0  0  0  0  0
   -5.0658   10.9372  -31.9502 C   0  0  0  0  0  0  0  0  0  0  0  0
   -5.7348   12.0410  -29.4770 C   0  0  0  0  0  0  0  0  0  0  0  0
   -6.3507   10.8651  -29.9055 C   0  0  0  0  0  0  0  0  0  0  0  0
   -4.4499   12.1131  -31.5217 C   0  0  0  0  0  0  0  0  0  0  0  0
   -6.0162   10.3132  -31.1421 C   0  0  0  0  0  0  0  0  0  0  0  0
   -5.7502   11.7352  -26.9668 C   0  0  0  0  0  0  0  0  0  0  0  0
   -6.0782   12.6488  -28.1567 C   0  0  1  0  0  0  0  0  0  0  0  0
   -7.2788   10.2666  -29.1036 O   0  0  0  0  0  0  0  0  0  0  0  0
   -6.0848   12.3937  -25.7534 O   0  0  0  0  0  0  0  0  0  0  0  0
   -5.3661   13.8817  -28.0002 O   0  0  0  0  0  0  0  0  0  0  0  0
   -3.2771   12.8835  -32.5185 Cl  0  0  0  0  0  0  0  0  0  0  0  0
   -6.8315    8.7165  -31.7591 Br  0  0  0  0  0  0  0  0  0  0  0  0
  1  3  2  0
  1  5  1  0
  2  5  2  0
  2  6  1  0
  3  4  1  0
  3  8  1  0
  4  6  2  0
  4  9  1  0
  5 12  1  0
  6 13  1  0
  7  8  1  0
  7 10  1  0
  8 11  1  1
M  END
>  <id>  (25) 
EN300-1922900

>  <smiles>  (25) 
OCC(O)C=1C=C(Cl)C=C(Br)C1O

>  <MDLNUMBER>  (25) 
MFCD32488160

>  <IUPAC Name>  (25) 
1-(3-bromo-5-chloro-2-hydroxyphenyl)ethane-1,2-diol

>  <CAS>  (25) 
2229636-95-5

>  <URL>  (25) 
https://www.enaminestore.com/catalog/EN300-1922900

>  <ROCS_ShapeQuery>  (25) 
_x1604L0AP1_x0771L0AP1

>  <ROCS_TanimotoCombo>  (25) 
0.943 

>  <ROCS_ShapeTanimoto>  (25) 
0.449 

>  <ROCS_ColorTanimoto>  (25) 
0.493 

>  <ROCS_RefTversky>  (25) 
0.420 

>  <ROCS_RefColorTversky>  (25) 
0.565 

>  <ROCS_RefTverskyCombo>  (25) 
0.985 

>  <ROCS_FitTversky>  (25) 
1.188 

>  <ROCS_FitColorTversky>  (25) 
0.795 

>  <ROCS_FitTverskyCombo>  (25) 
1.983 

>  <ROCS_ColorScore>  (25) 
-6.508

>  <ROCS_Overlap>  (25) 
710.945

>  <ROCS_Rank>  (25) 
55                  

$$$$
untitled-dbase-1017_951
     RDKit          3D

 15 15  0  0  0  0  0  0  0  0999 V2000
   -4.5915   12.4721  -29.8063 C   0  0  0  0  0  0  0  0  0  0  0  0
   -5.0515   11.1430  -31.7706 C   0  0  0  0  0  0  0  0  0  0  0  0
   -4.3295   12.1557  -31.1393 C   0  0  0  0  0  0  0  0  0  0  0  0
   -5.5754   11.7756  -29.1045 C   0  0  0  0  0  0  0  0  0  0  0  0
   -6.2975   10.7628  -29.7358 C   0  0  0  0  0  0  0  0  0  0  0  0
   -6.0356   10.4465  -31.0689 C   0  0  0  0  0  0  0  0  0  0  0  0
   -5.1981   12.9087  -25.6387 C   0  0  0  0  0  0  0  0  0  0  0  0
   -3.2781   12.9013  -31.8894 C   0  0  0  0  0  0  0  0  0  0  0  0
   -4.7237   12.5998  -27.0427 C   0  0  0  0  0  0  0  0  0  0  0  0
   -3.2100   15.8966  -30.5056 N   0  0  0  0  0  0  0  0  0  0  0  0
   -2.4245   13.7026  -31.0034 N   0  0  0  0  0  0  0  0  0  0  0  0
   -2.8387   14.8455  -30.7473 N   0  0  0  0  0  0  0  0  0  0  0  0
   -7.2567   10.0937  -29.0330 O   0  0  0  0  0  0  0  0  0  0  0  0
   -5.8202   12.0966  -27.8033 O   0  0  0  0  0  0  0  0  0  0  0  0
   -6.9961    9.0767  -31.9605 Br  0  0  0  0  0  0  0  0  0  0  0  0
  1  3  2  0
  1  4  1  0
  2  3  1  0
  2  6  2  0
  3  8  1  0
  4  5  2  0
  4 14  1  0
  5  6  1  0
  5 13  1  0
  6 15  1  0
  7  9  1  0
  8 11  1  0
  9 14  1  0
 10 12  2  0
 11 12  2  0
M  CHG  2  10  -1  12   1
M  END
>  <id>  (26) 
EN300-1920269

>  <smiles>  (26) 
CCOC=1C=C(CN=[N+]=[N-])C=C(Br)C1O

>  <IUPAC Name>  (26) 
4-(azidomethyl)-2-bromo-6-ethoxyphenol

>  <CAS>  (26) 
2229349-97-5

>  <URL>  (26) 
https://www.enaminestore.com/catalog/EN300-1920269

>  <ROCS_ShapeQuery>  (26) 
_x1604L0AP1_x0771L0AP1

>  <ROCS_TanimotoCombo>  (26) 
0.941 

>  <ROCS_ShapeTanimoto>  (26) 
0.526 

>  <ROCS_ColorTanimoto>  (26) 
0.415 

>  <ROCS_RefTversky>  (26) 
0.485 

>  <ROCS_RefColorTversky>  (26) 
0.431 

>  <ROCS_RefTverskyCombo>  (26) 
0.916 

>  <ROCS_FitTversky>  (26) 
1.191 

>  <ROCS_FitColorTversky>  (26) 
0.918 

>  <ROCS_FitTverskyCombo>  (26) 
2.109 

>  <ROCS_ColorScore>  (26) 
-4.898

>  <ROCS_Overlap>  (26) 
823.872

>  <ROCS_Rank>  (26) 
58                  

$$$$
untitled-dbase-1564_34
     RDKit          3D

 13 13  0  0  1  0  0  0  0  0999 V2000
   -4.7701   12.6601  -30.3180 C   0  0  0  0  0  0  0  0  0  0  0  0
   -5.0794   10.9247  -31.9702 C   0  0  0  0  0  0  0  0  0  0  0  0
   -5.7143   12.0455  -29.4956 C   0  0  0  0  0  0  0  0  0  0  0  0
   -6.3409   10.8703  -29.9104 C   0  0  0  0  0  0  0  0  0  0  0  0
   -4.4527   12.0998  -31.5553 C   0  0  0  0  0  0  0  0  0  0  0  0
   -6.0235   10.3099  -31.1477 C   0  0  0  0  0  0  0  0  0  0  0  0
   -5.7340   11.7372  -26.9836 C   0  0  0  0  0  0  0  0  0  0  0  0
   -6.0393   12.6622  -28.1748 C   0  0  1  0  0  0  0  0  0  0  0  0
   -5.3584   13.9354  -27.9987 N   0  0  0  0  0  0  0  0  0  0  0  0
   -7.2626   10.2809  -29.0945 O   0  0  0  0  0  0  0  0  0  0  0  0
   -6.0992   12.3784  -25.7658 O   0  0  0  0  0  0  0  0  0  0  0  0
   -3.2877   12.8589  -32.5699 Cl  0  0  0  0  0  0  0  0  0  0  0  0
   -6.8538    8.7141  -31.7465 Br  0  0  0  0  0  0  0  0  0  0  0  0
  1  3  2  0
  1  5  1  0
  2  5  2  0
  2  6  1  0
  3  4  1  0
  3  8  1  0
  4  6  2  0
  4 10  1  0
  5 12  1  0
  6 13  1  0
  7  8  1  0
  7 11  1  0
  8  9  1  1
M  END
>  <id>  (27) 
EN300-1912084

>  <smiles>  (27) 
N[C@H](CO)C=1C=C(Cl)C=C(Br)C1O

>  <MDLNUMBER>  (27) 
MFCD09253943

>  <IUPAC Name>  (27) 
2-[(1S)-1-amino-2-hydroxyethyl]-6-bromo-4-chlorophenol

>  <CAS>  (27) 
1213032-67-7

>  <URL>  (27) 
https://www.enaminestore.com/catalog/EN300-1912084

>  <ROCS_ShapeQuery>  (27) 
_x1604L0AP1_x0771L0AP1

>  <ROCS_TanimotoCombo>  (27) 
0.940 

>  <ROCS_ShapeTanimoto>  (27) 
0.448 

>  <ROCS_ColorTanimoto>  (27) 
0.491 

>  <ROCS_RefTversky>  (27) 
0.419 

>  <ROCS_RefColorTversky>  (27) 
0.564 

>  <ROCS_RefTverskyCombo>  (27) 
0.983 

>  <ROCS_FitTversky>  (27) 
1.186 

>  <ROCS_FitColorTversky>  (27) 
0.793 

>  <ROCS_FitTverskyCombo>  (27) 
1.979 

>  <ROCS_ColorScore>  (27) 
-6.492

>  <ROCS_Overlap>  (27) 
709.713

>  <ROCS_Rank>  (27) 
60                  

$$$$
untitled-dbase-1746_34
     RDKit          3D

 13 13  0  0  1  0  0  0  0  0999 V2000
   -4.7701   12.6601  -30.3180 C   0  0  0  0  0  0  0  0  0  0  0  0
   -5.0794   10.9247  -31.9702 C   0  0  0  0  0  0  0  0  0  0  0  0
   -5.7143   12.0455  -29.4956 C   0  0  0  0  0  0  0  0  0  0  0  0
   -6.3409   10.8703  -29.9104 C   0  0  0  0  0  0  0  0  0  0  0  0
   -4.4527   12.0998  -31.5553 C   0  0  0  0  0  0  0  0  0  0  0  0
   -6.0235   10.3099  -31.1477 C   0  0  0  0  0  0  0  0  0  0  0  0
   -5.7340   11.7372  -26.9836 C   0  0  0  0  0  0  0  0  0  0  0  0
   -6.0393   12.6622  -28.1748 C   0  0  1  0  0  0  0  0  0  0  0  0
   -5.3584   13.9354  -27.9987 N   0  0  0  0  0  0  0  0  0  0  0  0
   -7.2626   10.2809  -29.0945 O   0  0  0  0  0  0  0  0  0  0  0  0
   -6.0992   12.3784  -25.7658 O   0  0  0  0  0  0  0  0  0  0  0  0
   -3.2877   12.8589  -32.5699 Cl  0  0  0  0  0  0  0  0  0  0  0  0
   -6.8538    8.7141  -31.7465 Br  0  0  0  0  0  0  0  0  0  0  0  0
  1  3  2  0
  1  5  1  0
  2  5  2  0
  2  6  1  0
  3  4  1  0
  3  8  1  0
  4  6  2  0
  4 10  1  0
  5 12  1  0
  6 13  1  0
  7  8  1  0
  7 11  1  0
  8  9  1  1
M  END
>  <id>  (28) 
EN300-1897165

>  <smiles>  (28) 
NC(CO)C=1C=C(Cl)C=C(Br)C1O

>  <MDLNUMBER>  (28) 
MFCD24521116

>  <IUPAC Name>  (28) 
2-(1-amino-2-hydroxyethyl)-6-bromo-4-chlorophenol

>  <CAS>  (28) 
1337256-91-3

>  <URL>  (28) 
https://www.enaminestore.com/catalog/EN300-1897165

>  <ROCS_ShapeQuery>  (28) 
_x1604L0AP1_x0771L0AP1

>  <ROCS_TanimotoCombo>  (28) 
0.940 

>  <ROCS_ShapeTanimoto>  (28) 
0.448 

>  <ROCS_ColorTanimoto>  (28) 
0.491 

>  <ROCS_RefTversky>  (28) 
0.419 

>  <ROCS_RefColorTversky>  (28) 
0.564 

>  <ROCS_RefTverskyCombo>  (28) 
0.983 

>  <ROCS_FitTversky>  (28) 
1.186 

>  <ROCS_FitColorTversky>  (28) 
0.793 

>  <ROCS_FitTverskyCombo>  (28) 
1.979 

>  <ROCS_ColorScore>  (28) 
-6.492

>  <ROCS_Overlap>  (28) 
709.713

>  <ROCS_Rank>  (28) 
61                  

$$$$
untitled-dbase-1941_156
     RDKit          3D

 14 14  0  0  0  0  0  0  0  0999 V2000
   -4.5648   12.4449  -29.7793 C   0  0  0  0  0  0  0  0  0  0  0  0
   -5.0237   11.1294  -31.7531 C   0  0  0  0  0  0  0  0  0  0  0  0
   -4.2948   12.1306  -31.1112 C   0  0  0  0  0  0  0  0  0  0  0  0
   -5.5636   11.7578  -29.0893 C   0  0  0  0  0  0  0  0  0  0  0  0
   -6.2924   10.7566  -29.7312 C   0  0  0  0  0  0  0  0  0  0  0  0
   -6.0224   10.4424  -31.0631 C   0  0  0  0  0  0  0  0  0  0  0  0
   -6.7891   13.0908  -27.5475 C   0  0  0  0  0  0  0  0  0  0  0  0
   -3.2276   12.8661  -31.8488 C   0  0  0  0  0  0  0  0  0  0  0  0
   -3.1349   15.8548  -30.4521 N   0  0  0  0  0  0  0  0  0  0  0  0
   -2.3721   13.6532  -30.9519 N   0  0  0  0  0  0  0  0  0  0  0  0
   -2.7745   14.8001  -30.6949 N   0  0  0  0  0  0  0  0  0  0  0  0
   -7.2660   10.0965  -29.0397 O   0  0  0  0  0  0  0  0  0  0  0  0
   -5.8160   12.0765  -27.7889 O   0  0  0  0  0  0  0  0  0  0  0  0
   -6.9918    9.0882  -31.9690 Br  0  0  0  0  0  0  0  0  0  0  0  0
  1  3  2  0
  1  4  1  0
  2  3  1  0
  2  6  2  0
  3  8  1  0
  4  5  2  0
  4 13  1  0
  5  6  1  0
  5 12  1  0
  6 14  1  0
  7 13  1  0
  8 10  1  0
  9 11  2  0
 10 11  2  0
M  CHG  2   9  -1  11   1
M  END
>  <id>  (29) 
EN300-2004352

>  <smiles>  (29) 
COC=1C=C(CN=[N+]=[N-])C=C(Br)C1O

>  <IUPAC Name>  (29) 
4-(azidomethyl)-2-bromo-6-methoxyphenol

>  <CAS>  (29) 
2228518-45-2

>  <URL>  (29) 
https://www.enaminestore.com/catalog/EN300-2004352

>  <ROCS_ShapeQuery>  (29) 
_x1604L0AP1_x0771L0AP1

>  <ROCS_TanimotoCombo>  (29) 
0.940 

>  <ROCS_ShapeTanimoto>  (29) 
0.525 

>  <ROCS_ColorTanimoto>  (29) 
0.415 

>  <ROCS_RefTversky>  (29) 
0.477 

>  <ROCS_RefColorTversky>  (29) 
0.431 

>  <ROCS_RefTverskyCombo>  (29) 
0.908 

>  <ROCS_FitTversky>  (29) 
1.237 

>  <ROCS_FitColorTversky>  (29) 
0.917 

>  <ROCS_FitTverskyCombo>  (29) 
2.154 

>  <ROCS_ColorScore>  (29) 
-4.895

>  <ROCS_Overlap>  (29) 
809.721

>  <ROCS_Rank>  (29) 
63                  

$$$$
untitled-dbase-149_0
     RDKit          3D

 12 12  0  0  0  0  0  0  0  0999 V2000
   -5.0495   11.1262  -31.7907 C   0  0  0  0  0  0  0  0  0  0  0  0
   -5.5641   11.7720  -29.1260 C   0  0  0  0  0  0  0  0  0  0  0  0
   -4.3217   12.1386  -31.1654 C   0  0  0  0  0  0  0  0  0  0  0  0
   -6.2919   10.7596  -29.7513 C   0  0  0  0  0  0  0  0  0  0  0  0
   -4.5790   12.4615  -29.8330 C   0  0  0  0  0  0  0  0  0  0  0  0
   -6.0346   10.4367  -31.0837 C   0  0  0  0  0  0  0  0  0  0  0  0
   -3.2964   12.8563  -31.9064 C   0  0  0  0  0  0  0  0  0  0  0  0
   -3.0339   14.2833  -31.5219 C   0  0  0  0  0  0  0  0  0  0  0  0
   -2.6300   12.3829  -32.8292 O   0  0  0  0  0  0  0  0  0  0  0  0
   -7.2475   10.1048  -29.0327 O   0  0  0  0  0  0  0  0  0  0  0  0
   -3.8867   13.4338  -29.2225 F   0  0  0  0  0  0  0  0  0  0  0  0
   -7.0053    9.0685  -31.9658 Br  0  0  0  0  0  0  0  0  0  0  0  0
  1  3  2  0
  1  6  1  0
  2  4  1  0
  2  5  2  0
  3  5  1  0
  3  7  1  0
  4  6  2  0
  4 10  1  0
  5 11  1  0
  6 12  1  0
  7  8  1  0
  7  9  2  0
M  END
>  <id>  (30) 
EN300-1276899

>  <smiles>  (30) 
CC(=O)C=1C=C(Br)C(O)=CC1F

>  <MDLNUMBER>  (30) 
MFCD24122855

>  <IUPAC Name>  (30) 
1-(5-bromo-2-fluoro-4-hydroxyphenyl)ethan-1-one

>  <CAS>  (30) 
1503357-95-6

>  <URL>  (30) 
https://www.enaminestore.com/catalog/EN300-1276899

>  <ROCS_ShapeQuery>  (30) 
_x1604L0AP1_x0771L0AP1

>  <ROCS_TanimotoCombo>  (30) 
0.940 

>  <ROCS_ShapeTanimoto>  (30) 
0.527 

>  <ROCS_ColorTanimoto>  (30) 
0.413 

>  <ROCS_RefTversky>  (30) 
0.463 

>  <ROCS_RefColorTversky>  (30) 
0.429 

>  <ROCS_RefTverskyCombo>  (30) 
0.892 

>  <ROCS_FitTversky>  (30) 
1.357 

>  <ROCS_FitColorTversky>  (30) 
0.914 

>  <ROCS_FitTverskyCombo>  (30) 
2.271 

>  <ROCS_ColorScore>  (30) 
-4.878

>  <ROCS_Overlap>  (30) 
783.673

>  <ROCS_Rank>  (30) 
64                  

$$$$
untitled-dbase-949_38
     RDKit          3D

 14 15  0  0  0  0  0  0  0  0999 V2000
   -4.6114   12.4974  -29.8513 C   0  0  0  0  0  0  0  0  0  0  0  0
   -4.3560   12.1790  -31.1851 C   0  0  0  0  0  0  0  0  0  0  0  0
   -5.5810   11.7914  -29.1391 C   0  0  0  0  0  0  0  0  0  0  0  0
   -5.0701   11.1547  -31.8068 C   0  0  0  0  0  0  0  0  0  0  0  0
   -6.2951   10.7671  -29.7608 C   0  0  0  0  0  0  0  0  0  0  0  0
   -6.0397   10.4487  -31.0946 C   0  0  0  0  0  0  0  0  0  0  0  0
   -4.2731    9.4582  -33.5757 C   0  0  0  0  0  0  0  0  0  0  0  0
   -3.3143   10.6068  -33.6119 C   0  0  0  0  0  0  0  0  0  0  0  0
   -4.7627   10.8526  -33.2379 C   0  0  0  0  0  0  0  0  0  0  0  0
   -5.6407   11.5537  -34.2341 C   0  0  0  0  0  0  0  0  0  0  0  0
   -6.6525    9.7180  -35.2256 N   0  0  0  0  0  0  0  0  0  0  0  0
   -7.2367   10.1014  -29.0332 O   0  0  0  0  0  0  0  0  0  0  0  0
   -6.8768   10.8570  -34.3504 O   0  0  0  0  0  0  0  0  0  0  0  0
   -7.0264    9.0523  -31.9316 Br  0  0  0  0  0  0  0  0  0  0  0  0
  1  2  2  0
  1  3  1  0
  2  4  1  0
  3  5  2  0
  4  6  2  0
  4  9  1  0
  5  6  1  0
  5 12  1  0
  6 14  1  0
  7  8  1  0
  7  9  1  0
  8  9  1  0
  9 10  1  0
 10 13  1  0
 11 13  1  0
M  END
>  <id>  (31) 
EN300-1904527

>  <smiles>  (31) 
NOCC1(CC1)C=2C=CC=C(O)C2Br

>  <IUPAC Name>  (31) 
3-{1-[(aminooxy)methyl]cyclopropyl}-2-bromophenol

>  <CAS>  (31) 
2228963-77-5

>  <URL>  (31) 
https://www.enaminestore.com/catalog/EN300-1904527

>  <ROCS_ShapeQuery>  (31) 
_x1604L0AP1_x0771L0AP1

>  <ROCS_TanimotoCombo>  (31) 
0.939 

>  <ROCS_ShapeTanimoto>  (31) 
0.488 

>  <ROCS_ColorTanimoto>  (31) 
0.451 

>  <ROCS_RefTversky>  (31) 
0.454 

>  <ROCS_RefColorTversky>  (31) 
0.432 

>  <ROCS_RefTverskyCombo>  (31) 
0.886 

>  <ROCS_FitTversky>  (31) 
1.180 

>  <ROCS_FitColorTversky>  (31) 
1.113 

>  <ROCS_FitTverskyCombo>  (31) 
2.293 

>  <ROCS_ColorScore>  (31) 
-4.883

>  <ROCS_Overlap>  (31) 
771.134

>  <ROCS_Rank>  (31) 
65                  

$$$$
untitled-dbase-666_6
     RDKit          3D

 12 12  0  0  1  0  0  0  0  0999 V2000
   -4.5828   12.4647  -29.8257 C   0  0  0  0  0  0  0  0  0  0  0  0
   -5.5649   11.7699  -29.1199 C   0  0  0  0  0  0  0  0  0  0  0  0
   -5.0564   11.1395  -31.7894 C   0  0  0  0  0  0  0  0  0  0  0  0
   -4.3285   12.1495  -31.1605 C   0  0  0  0  0  0  0  0  0  0  0  0
   -6.2928   10.7599  -29.7488 C   0  0  0  0  0  0  0  0  0  0  0  0
   -6.0386   10.4446  -31.0836 C   0  0  0  0  0  0  0  0  0  0  0  0
   -1.8865   12.2747  -31.7686 C   0  0  0  0  0  0  0  0  0  0  0  0
   -3.2780   12.8929  -31.9140 C   0  0  2  0  0  0  0  0  0  0  0  0
   -4.3103   14.9640  -32.0609 N   0  0  0  0  0  0  0  0  0  0  0  0
   -7.2446   10.0987  -29.0309 O   0  0  0  0  0  0  0  0  0  0  0  0
   -3.2211   14.2403  -31.4316 O   0  0  0  0  0  0  0  0  0  0  0  0
   -7.0071    9.0772  -31.9696 Br  0  0  0  0  0  0  0  0  0  0  0  0
  1  2  2  0
  1  4  1  0
  2  5  1  0
  3  4  2  0
  3  6  1  0
  4  8  1  0
  5  6  2  0
  5 10  1  0
  6 12  1  0
  8  7  1  1
  8 11  1  0
  9 11  1  0
M  END
>  <id>  (32) 
EN300-1906349

>  <smiles>  (32) 
CC(ON)C=1C=CC(O)=C(Br)C1

>  <IUPAC Name>  (32) 
4-[1-(aminooxy)ethyl]-2-bromophenol

>  <CAS>  (32) 
2228145-03-5

>  <URL>  (32) 
https://www.enaminestore.com/catalog/EN300-1906349

>  <ROCS_ShapeQuery>  (32) 
_x1604L0AP1_x0771L0AP1

>  <ROCS_TanimotoCombo>  (32) 
0.939 

>  <ROCS_ShapeTanimoto>  (32) 
0.488 

>  <ROCS_ColorTanimoto>  (32) 
0.451 

>  <ROCS_RefTversky>  (32) 
0.437 

>  <ROCS_RefColorTversky>  (32) 
0.431 

>  <ROCS_RefTverskyCombo>  (32) 
0.868 

>  <ROCS_FitTversky>  (32) 
1.314 

>  <ROCS_FitColorTversky>  (32) 
1.112 

>  <ROCS_FitTverskyCombo>  (32) 
2.426 

>  <ROCS_ColorScore>  (32) 
-4.878

>  <ROCS_Overlap>  (32) 
739.889

>  <ROCS_Rank>  (32) 
66                  

$$$$
untitled-dbase-120_0
     RDKit          3D

 11 11  0  0  1  0  0  0  0  0999 V2000
   -4.3637   12.1564  -31.2273 C   0  0  0  0  0  0  0  0  0  0  0  0
   -5.0895   11.1295  -31.8309 C   0  0  0  0  0  0  0  0  0  0  0  0
   -5.5713   11.7981  -29.1656 C   0  0  0  0  0  0  0  0  0  0  0  0
   -6.2971   10.7712  -29.7692 C   0  0  0  0  0  0  0  0  0  0  0  0
   -4.6046   12.4907  -29.8946 C   0  0  0  0  0  0  0  0  0  0  0  0
   -6.0562   10.4369  -31.1018 C   0  0  0  0  0  0  0  0  0  0  0  0
   -2.2976   13.3982  -29.2006 O   0  0  0  0  0  0  0  0  0  0  0  0
   -4.1693   15.0220  -29.7208 O   0  0  0  0  0  0  0  0  0  0  0  0
   -7.2354   10.1143  -29.0300 O   0  0  0  0  0  0  0  0  0  0  0  0
   -3.6979   13.7777  -29.1395 S   0  0  0  0  0  0  0  0  0  0  0  0
   -7.0230    9.0478  -31.9550 Br  0  0  0  0  0  0  0  0  0  0  0  0
  1  2  2  0
  1  5  1  0
  2  6  1  0
  3  4  1  0
  3  5  2  0
  4  6  2  0
  4  9  1  0
  5 10  1  0
  6 11  1  0
 10  7  1  6
  8 10  2  0
M  CHG  1   7  -1
M  END
>  <id>  (33) 
EN300-724388

>  <smiles>  (33) 
[Na+].OC=1C=C(C=CC1Br)S(=O)[O-]

>  <MDLNUMBER>  (33) 
MFCD31442498

>  <IUPAC Name>  (33) 
sodium 4-bromo-3-hydroxybenzene-1-sulfinate

>  <CAS>  (33) 
2137989-65-0

>  <URL>  (33) 
https://www.enaminestore.com/catalog/EN300-724388

>  <Saltdate>  (33) 
[Na+]

>  <ROCS_ShapeQuery>  (33) 
_x1604L0AP1_x0771L0AP1

>  <ROCS_TanimotoCombo>  (33) 
0.938 

>  <ROCS_ShapeTanimoto>  (33) 
0.488 

>  <ROCS_ColorTanimoto>  (33) 
0.451 

>  <ROCS_RefTversky>  (33) 
0.428 

>  <ROCS_RefColorTversky>  (33) 
0.431 

>  <ROCS_RefTverskyCombo>  (33) 
0.859 

>  <ROCS_FitTversky>  (33) 
1.406 

>  <ROCS_FitColorTversky>  (33) 
1.112 

>  <ROCS_FitTverskyCombo>  (33) 
2.518 

>  <ROCS_ColorScore>  (33) 
-4.877

>  <ROCS_Overlap>  (33) 
722.599

>  <ROCS_Rank>  (33) 
67                  

$$$$
untitled-dbase-1609_90
     RDKit          3D

 13 13  0  0  0  0  0  0  0  0999 V2000
   -4.6082   12.4917  -29.8768 C   0  0  0  0  0  0  0  0  0  0  0  0
   -4.3738   12.1756  -31.2149 C   0  0  0  0  0  0  0  0  0  0  0  0
   -5.5694   11.7872  -29.1517 C   0  0  0  0  0  0  0  0  0  0  0  0
   -5.1005   11.1551  -31.8281 C   0  0  0  0  0  0  0  0  0  0  0  0
   -6.2961   10.7667  -29.7649 C   0  0  0  0  0  0  0  0  0  0  0  0
   -6.0617   10.4506  -31.1031 C   0  0  0  0  0  0  0  0  0  0  0  0
   -4.8118   10.8555  -33.2640 C   0  0  0  0  0  0  0  0  0  0  0  0
   -6.0448   10.9550  -34.1674 C   0  0  0  0  0  0  0  0  0  0  0  0
   -5.8601    8.3286  -36.1572 N   0  0  0  0  0  0  0  0  0  0  0  0
   -5.6762   10.6260  -35.5470 N   0  0  0  0  0  0  0  0  0  0  0  0
   -5.7735    9.4267  -35.8610 N   0  0  0  0  0  0  0  0  0  0  0  0
   -7.2277   10.1006  -29.0250 O   0  0  0  0  0  0  0  0  0  0  0  0
   -7.0591    9.0562  -31.9289 Br  0  0  0  0  0  0  0  0  0  0  0  0
  1  2  2  0
  1  3  1  0
  2  4  1  0
  3  5  2  0
  4  6  2  0
  4  7  1  0
  5  6  1  0
  5 12  1  0
  6 13  1  0
  7  8  1  0
  8 10  1  0
  9 11  2  0
 10 11  2  0
M  CHG  2   9  -1  11   1
M  END
>  <id>  (34) 
EN300-1904624

>  <smiles>  (34) 
OC=1C=CC=C(CCN=[N+]=[N-])C1Br

>  <IUPAC Name>  (34) 
3-(2-azidoethyl)-2-bromophenol

>  <CAS>  (34) 
2228160-44-7

>  <URL>  (34) 
https://www.enaminestore.com/catalog/EN300-1904624

>  <ROCS_ShapeQuery>  (34) 
_x1604L0AP1_x0771L0AP1

>  <ROCS_TanimotoCombo>  (34) 
0.938 

>  <ROCS_ShapeTanimoto>  (34) 
0.487 

>  <ROCS_ColorTanimoto>  (34) 
0.451 

>  <ROCS_RefTversky>  (34) 
0.444 

>  <ROCS_RefColorTversky>  (34) 
0.431 

>  <ROCS_RefTverskyCombo>  (34) 
0.876 

>  <ROCS_FitTversky>  (34) 
1.245 

>  <ROCS_FitColorTversky>  (34) 
1.113 

>  <ROCS_FitTverskyCombo>  (34) 
2.357 

>  <ROCS_ColorScore>  (34) 
-4.879

>  <ROCS_Overlap>  (34) 
753.182

>  <ROCS_Rank>  (34) 
70                  

$$$$
untitled-dbase-174_6
     RDKit          3D

 12 12  0  0  0  0  0  0  0  0999 V2000
   -5.0550   11.1299  -31.7944 C   0  0  0  0  0  0  0  0  0  0  0  0
   -5.5669   11.7763  -29.1293 C   0  0  0  0  0  0  0  0  0  0  0  0
   -4.3288   12.1446  -31.1711 C   0  0  0  0  0  0  0  0  0  0  0  0
   -4.5847   12.4678  -29.8385 C   0  0  0  0  0  0  0  0  0  0  0  0
   -6.2931   10.7616  -29.7528 C   0  0  0  0  0  0  0  0  0  0  0  0
   -6.0372   10.4384  -31.0853 C   0  0  0  0  0  0  0  0  0  0  0  0
   -3.3094   12.8516  -31.9343 C   0  0  0  0  0  0  0  0  0  0  0  0
   -3.8229   13.5511  -29.1474 C   0  0  0  0  0  0  0  0  0  0  0  0
   -3.1030   12.4376  -33.3613 C   0  0  0  0  0  0  0  0  0  0  0  0
   -2.6028   13.7590  -31.4938 O   0  0  0  0  0  0  0  0  0  0  0  0
   -7.2463   10.1048  -29.0327 O   0  0  0  0  0  0  0  0  0  0  0  0
   -7.0048    9.0659  -31.9641 Br  0  0  0  0  0  0  0  0  0  0  0  0
  1  3  2  0
  1  6  1  0
  2  4  2  0
  2  5  1  0
  3  4  1  0
  3  7  1  0
  4  8  1  0
  5  6  2  0
  5 11  1  0
  6 12  1  0
  7  9  1  0
  7 10  2  0
M  END
>  <id>  (35) 
EN300-1276832

>  <smiles>  (35) 
CC(=O)C=1C=C(Br)C(O)=CC1C

>  <IUPAC Name>  (35) 
1-(5-bromo-4-hydroxy-2-methylphenyl)ethan-1-one

>  <CAS>  (35) 
1783644-44-9

>  <URL>  (35) 
https://www.enaminestore.com/catalog/EN300-1276832

>  <ROCS_ShapeQuery>  (35) 
_x1604L0AP1_x0771L0AP1

>  <ROCS_TanimotoCombo>  (35) 
0.938 

>  <ROCS_ShapeTanimoto>  (35) 
0.525 

>  <ROCS_ColorTanimoto>  (35) 
0.413 

>  <ROCS_RefTversky>  (35) 
0.460 

>  <ROCS_RefColorTversky>  (35) 
0.429 

>  <ROCS_RefTverskyCombo>  (35) 
0.889 

>  <ROCS_FitTversky>  (35) 
1.366 

>  <ROCS_FitColorTversky>  (35) 
0.914 

>  <ROCS_FitTverskyCombo>  (35) 
2.281 

>  <ROCS_ColorScore>  (35) 
-4.879

>  <ROCS_Overlap>  (35) 
778.958

>  <ROCS_Rank>  (35) 
71                  

$$$$
untitled-dbase-2094_1471
     RDKit          3D

 14 14  0  0  0  0  0  0  0  0999 V2000
   -4.5957   12.4814  -29.8196 C   0  0  0  0  0  0  0  0  0  0  0  0
   -5.0582   11.1470  -31.7797 C   0  0  0  0  0  0  0  0  0  0  0  0
   -4.3369   12.1630  -31.1527 C   0  0  0  0  0  0  0  0  0  0  0  0
   -5.5756   11.7837  -29.1134 C   0  0  0  0  0  0  0  0  0  0  0  0
   -6.2969   10.7677  -29.7404 C   0  0  0  0  0  0  0  0  0  0  0  0
   -6.0382   10.4493  -31.0736 C   0  0  0  0  0  0  0  0  0  0  0  0
   -4.9091   12.2415  -25.6010 C   0  0  0  0  0  0  0  0  0  0  0  0
   -3.2898   12.9098  -31.9076 C   0  0  0  0  0  0  0  0  0  0  0  0
   -4.7198   12.6144  -27.0559 C   0  0  0  0  0  0  0  0  0  0  0  0
   -3.1937   14.8434  -30.6315 N   0  0  0  0  0  0  0  0  0  0  0  0
   -7.2521   10.0974  -29.0333 O   0  0  0  0  0  0  0  0  0  0  0  0
   -5.8173   12.1067  -27.8121 O   0  0  0  0  0  0  0  0  0  0  0  0
   -2.4741   13.6329  -30.9940 O   0  0  0  0  0  0  0  0  0  0  0  0
   -6.9977    9.0751  -31.9595 Br  0  0  0  0  0  0  0  0  0  0  0  0
  1  3  2  0
  1  4  1  0
  2  3  1  0
  2  6  2  0
  3  8  1  0
  4  5  2  0
  4 12  1  0
  5  6  1  0
  5 11  1  0
  6 14  1  0
  7  9  1  0
  8 13  1  0
  9 12  1  0
 10 13  1  0
M  END
>  <id>  (36) 
EN300-1920281

>  <smiles>  (36) 
CCOC=1C=C(CON)C=C(Br)C1O

>  <IUPAC Name>  (36) 
4-[(aminooxy)methyl]-2-bromo-6-ethoxyphenol

>  <CAS>  (36) 
2229470-14-6

>  <URL>  (36) 
https://www.enaminestore.com/catalog/EN300-1920281

>  <ROCS_ShapeQuery>  (36) 
_x1604L0AP1_x0771L0AP1

>  <ROCS_TanimotoCombo>  (36) 
0.937 

>  <ROCS_ShapeTanimoto>  (36) 
0.522 

>  <ROCS_ColorTanimoto>  (36) 
0.415 

>  <ROCS_RefTversky>  (36) 
0.473 

>  <ROCS_RefColorTversky>  (36) 
0.431 

>  <ROCS_RefTverskyCombo>  (36) 
0.904 

>  <ROCS_FitTversky>  (36) 
1.246 

>  <ROCS_FitColorTversky>  (36) 
0.918 

>  <ROCS_FitTverskyCombo>  (36) 
2.164 

>  <ROCS_ColorScore>  (36) 
-4.898

>  <ROCS_Overlap>  (36) 
802.867

>  <ROCS_Rank>  (36) 
72                  

$$$$
untitled-dbase-2187_418
     RDKit          3D

 15 15  0  0  0  0  0  0  0  0999 V2000
   -4.5606   12.4485  -29.7960 C   0  0  0  0  0  0  0  0  0  0  0  0
   -5.0349   11.1301  -31.7642 C   0  0  0  0  0  0  0  0  0  0  0  0
   -4.3014   12.1326  -31.1296 C   0  0  0  0  0  0  0  0  0  0  0  0
   -5.5533   11.7619  -29.0968 C   0  0  0  0  0  0  0  0  0  0  0  0
   -6.2868   10.7595  -29.7313 C   0  0  0  0  0  0  0  0  0  0  0  0
   -6.0277   10.4435  -31.0650 C   0  0  0  0  0  0  0  0  0  0  0  0
   -5.0537   11.3730  -26.8045 C   0  0  0  0  0  0  0  0  0  0  0  0
   -3.2406   12.8675  -31.8770 C   0  0  0  0  0  0  0  0  0  0  0  0
   -2.5284   13.9360  -31.0393 C   0  0  0  0  0  0  0  0  0  0  0  0
   -5.4059   15.2699  -31.9517 N   0  0  0  0  0  0  0  0  0  0  0  0
   -3.5036   14.9183  -30.5581 N   0  0  0  0  0  0  0  0  0  0  0  0
   -4.4941   15.0986  -31.2881 N   0  0  0  0  0  0  0  0  0  0  0  0
   -7.2544   10.0999  -29.0310 O   0  0  0  0  0  0  0  0  0  0  0  0
   -5.7952   12.0823  -27.7949 O   0  0  0  0  0  0  0  0  0  0  0  0
   -7.0037    9.0876  -31.9610 Br  0  0  0  0  0  0  0  0  0  0  0  0
  1  3  2  0
  1  4  1  0
  2  3  1  0
  2  6  2  0
  3  8  1  0
  4  5  2  0
  4 14  1  0
  5  6  1  0
  5 13  1  0
  6 15  1  0
  7 14  1  0
  8  9  1  0
  9 11  1  0
 10 12  2  0
 11 12  2  0
M  CHG  2  10  -1  12   1
M  END
>  <id>  (37) 
EN300-1925671

>  <smiles>  (37) 
COC=1C=C(CCN=[N+]=[N-])C=C(Br)C1O

>  <IUPAC Name>  (37) 
4-(2-azidoethyl)-2-bromo-6-methoxyphenol

>  <CAS>  (37) 
2228242-76-8

>  <URL>  (37) 
https://www.enaminestore.com/catalog/EN300-1925671

>  <ROCS_ShapeQuery>  (37) 
_x1604L0AP1_x0771L0AP1

>  <ROCS_TanimotoCombo>  (37) 
0.936 

>  <ROCS_ShapeTanimoto>  (37) 
0.521 

>  <ROCS_ColorTanimoto>  (37) 
0.415 

>  <ROCS_RefTversky>  (37) 
0.482 

>  <ROCS_RefColorTversky>  (37) 
0.431 

>  <ROCS_RefTverskyCombo>  (37) 
0.912 

>  <ROCS_FitTversky>  (37) 
1.185 

>  <ROCS_FitColorTversky>  (37) 
0.918 

>  <ROCS_FitTverskyCombo>  (37) 
2.103 

>  <ROCS_ColorScore>  (37) 
-4.897

>  <ROCS_Overlap>  (37) 
818.324

>  <ROCS_Rank>  (37) 
74                  

$$$$
untitled-dbase-228_0
     RDKit          3D

 10 10  0  0  0  0  0  0  0  0999 V2000
   -5.5640   11.7822  -29.1418 C   0  0  0  0  0  0  0  0  0  0  0  0
   -5.0631   11.1299  -31.8076 C   0  0  0  0  0  0  0  0  0  0  0  0
   -6.2906   10.7640  -29.7590 C   0  0  0  0  0  0  0  0  0  0  0  0
   -4.5870   12.4744  -29.8575 C   0  0  0  0  0  0  0  0  0  0  0  0
   -4.3365   12.1481  -31.1903 C   0  0  0  0  0  0  0  0  0  0  0  0
   -6.0401   10.4378  -31.0919 C   0  0  0  0  0  0  0  0  0  0  0  0
   -7.2390   10.1075  -29.0325 O   0  0  0  0  0  0  0  0  0  0  0  0
   -3.8907   13.4537  -29.2657 F   0  0  0  0  0  0  0  0  0  0  0  0
   -3.3992   12.8141  -31.8775 F   0  0  0  0  0  0  0  0  0  0  0  0
   -7.0081    9.0609  -31.9631 Br  0  0  0  0  0  0  0  0  0  0  0  0
  1  3  2  0
  1  4  1  0
  2  5  1  0
  2  6  2  0
  3  6  1  0
  3  7  1  0
  4  5  2  0
  4  8  1  0
  5  9  1  0
  6 10  1  0
M  END
>  <id>  (38) 
EN300-224945

>  <smiles>  (38) 
OC=1C=C(F)C(F)=CC1Br

>  <MDLNUMBER>  (38) 
MFCD00070751

>  <IUPAC Name>  (38) 
2-bromo-4,5-difluorophenol

>  <CAS>  (38) 
166281-37-4

>  <Purity>  (38) 
95

>  <URL>  (38) 
https://www.enaminestore.com/catalog/EN300-224945

>  <ROCS_ShapeQuery>  (38) 
_x1604L0AP1_x0771L0AP1

>  <ROCS_TanimotoCombo>  (38) 
0.935 

>  <ROCS_ShapeTanimoto>  (38) 
0.484 

>  <ROCS_ColorTanimoto>  (38) 
0.451 

>  <ROCS_RefTversky>  (38) 
0.421 

>  <ROCS_RefColorTversky>  (38) 
0.431 

>  <ROCS_RefTverskyCombo>  (38) 
0.853 

>  <ROCS_FitTversky>  (38) 
1.442 

>  <ROCS_FitColorTversky>  (38) 
1.113 

>  <ROCS_FitTverskyCombo>  (38) 
2.555 

>  <ROCS_ColorScore>  (38) 
-4.879

>  <ROCS_Overlap>  (38) 
711.682

>  <ROCS_Rank>  (38) 
77                  

$$$$
untitled-dbase-1753_253
     RDKit          3D

 14 14  0  0  1  0  0  0  0  0999 V2000
   -4.5795   12.4646  -29.8151 C   0  0  0  0  0  0  0  0  0  0  0  0
   -5.0575   11.1425  -31.7799 C   0  0  0  0  0  0  0  0  0  0  0  0
   -4.3274   12.1507  -31.1506 C   0  0  0  0  0  0  0  0  0  0  0  0
   -5.5617   11.7702  -29.1089 C   0  0  0  0  0  0  0  0  0  0  0  0
   -6.2919   10.7620  -29.7382 C   0  0  0  0  0  0  0  0  0  0  0  0
   -6.0398   10.4481  -31.0737 C   0  0  0  0  0  0  0  0  0  0  0  0
   -1.8952   12.8001  -31.2582 C   0  0  0  0  0  0  0  0  0  0  0  0
   -5.0052   13.1318  -27.2401 C   0  0  0  0  0  0  0  0  0  0  0  0
   -3.2778   12.8940  -31.9056 C   0  0  2  0  0  0  0  0  0  0  0  0
   -3.2841   14.8799  -30.7085 N   0  0  0  0  0  0  0  0  0  0  0  0
   -7.2492   10.0949  -29.0309 O   0  0  0  0  0  0  0  0  0  0  0  0
   -5.7968   12.0887  -27.8053 O   0  0  0  0  0  0  0  0  0  0  0  0
   -3.6444   14.2767  -31.9783 O   0  0  0  0  0  0  0  0  0  0  0  0
   -7.0115    9.0845  -31.9627 Br  0  0  0  0  0  0  0  0  0  0  0  0
  1  3  2  0
  1  4  1  0
  2  3  1  0
  2  6  2  0
  3  9  1  0
  4  5  2  0
  4 12  1  0
  5  6  1  0
  5 11  1  0
  6 14  1  0
  9  7  1  1
  8 12  1  0
  9 13  1  0
 10 13  1  0
M  END
>  <id>  (39) 
EN300-1927005

>  <smiles>  (39) 
COC=1C=C(C=C(Br)C1O)C(C)ON

>  <IUPAC Name>  (39) 
4-[1-(aminooxy)ethyl]-2-bromo-6-methoxyphenol

>  <CAS>  (39) 
2228424-95-9

>  <URL>  (39) 
https://www.enaminestore.com/catalog/EN300-1927005

>  <ROCS_ShapeQuery>  (39) 
_x1604L0AP1_x0771L0AP1

>  <ROCS_TanimotoCombo>  (39) 
0.935 

>  <ROCS_ShapeTanimoto>  (39) 
0.520 

>  <ROCS_ColorTanimoto>  (39) 
0.415 

>  <ROCS_RefTversky>  (39) 
0.473 

>  <ROCS_RefColorTversky>  (39) 
0.431 

>  <ROCS_RefTverskyCombo>  (39) 
0.904 

>  <ROCS_FitTversky>  (39) 
1.236 

>  <ROCS_FitColorTversky>  (39) 
0.918 

>  <ROCS_FitTverskyCombo>  (39) 
2.154 

>  <ROCS_ColorScore>  (39) 
-4.898

>  <ROCS_Overlap>  (39) 
802.352

>  <ROCS_Rank>  (39) 
78                  

$$$$
untitled-dbase-1482_0
     RDKit          3D

 10 10  0  0  0  0  0  0  0  0999 V2000
   -5.0663   11.1273  -31.8124 C   0  0  0  0  0  0  0  0  0  0  0  0
   -5.5644   11.7844  -29.1472 C   0  0  0  0  0  0  0  0  0  0  0  0
   -4.3394   12.1469  -31.1979 C   0  0  0  0  0  0  0  0  0  0  0  0
   -6.2913   10.7648  -29.7618 C   0  0  0  0  0  0  0  0  0  0  0  0
   -4.5884   12.4755  -29.8653 C   0  0  0  0  0  0  0  0  0  0  0  0
   -6.0423   10.4362  -31.0943 C   0  0  0  0  0  0  0  0  0  0  0  0
   -3.3021   12.8629  -32.0012 C   0  0  0  0  0  0  0  0  0  0  0  0
   -7.2378   10.1079  -29.0330 O   0  0  0  0  0  0  0  0  0  0  0  0
   -3.7093   13.7310  -29.0721 Cl  0  0  0  0  0  0  0  0  0  0  0  0
   -7.0104    9.0559  -31.9609 Br  0  0  0  0  0  0  0  0  0  0  0  0
  1  3  2  0
  1  6  1  0
  2  4  1  0
  2  5  2  0
  3  5  1  0
  3  7  1  0
  4  6  2  0
  4  8  1  0
  5  9  1  0
  6 10  1  0
M  END
>  <id>  (40) 
EN300-248208

>  <smiles>  (40) 
CC=1C=C(Br)C(O)=CC1Cl

>  <MDLNUMBER>  (40) 
MFCD11894407

>  <IUPAC Name>  (40) 
2-bromo-5-chloro-4-methylphenol

>  <CAS>  (40) 
1175754-49-0

>  <Purity>  (40) 
95

>  <URL>  (40) 
https://www.enaminestore.com/catalog/EN300-248208

>  <ROCS_ShapeQuery>  (40) 
_x1604L0AP1_x0771L0AP1

>  <ROCS_TanimotoCombo>  (40) 
0.934 

>  <ROCS_ShapeTanimoto>  (40) 
0.483 

>  <ROCS_ColorTanimoto>  (40) 
0.451 

>  <ROCS_RefTversky>  (40) 
0.418 

>  <ROCS_RefColorTversky>  (40) 
0.431 

>  <ROCS_RefTverskyCombo>  (40) 
0.849 

>  <ROCS_FitTversky>  (40) 
1.479 

>  <ROCS_FitColorTversky>  (40) 
1.113 

>  <ROCS_FitTverskyCombo>  (40) 
2.592 

>  <ROCS_ColorScore>  (40) 
-4.879

>  <ROCS_Overlap>  (40) 
704.803

>  <ROCS_Rank>  (40) 
79                  

$$$$
untitled-dbase-462_1369
     RDKit          3D

 14 14  0  0  0  0  0  0  0  0999 V2000
   -4.5825   12.4683  -29.8158 C   0  0  0  0  0  0  0  0  0  0  0  0
   -5.0497   11.1371  -31.7770 C   0  0  0  0  0  0  0  0  0  0  0  0
   -4.3237   12.1489  -31.1486 C   0  0  0  0  0  0  0  0  0  0  0  0
   -5.5673   11.7758  -29.1112 C   0  0  0  0  0  0  0  0  0  0  0  0
   -6.2933   10.7641  -29.7395 C   0  0  0  0  0  0  0  0  0  0  0  0
   -6.0345   10.4447  -31.0725 C   0  0  0  0  0  0  0  0  0  0  0  0
   -4.9030   12.2288  -25.5977 C   0  0  0  0  0  0  0  0  0  0  0  0
   -3.2714   12.8900  -31.9018 C   0  0  0  0  0  0  0  0  0  0  0  0
   -4.7097   12.6011  -27.0522 C   0  0  0  0  0  0  0  0  0  0  0  0
   -2.5430   13.9805  -31.0985 C   0  0  0  0  0  0  0  0  0  0  0  0
   -7.2532   10.0989  -29.0339 O   0  0  0  0  0  0  0  0  0  0  0  0
   -5.8089   12.0997  -27.8101 O   0  0  0  0  0  0  0  0  0  0  0  0
   -3.6772   15.2577  -30.4715 S   0  0  0  0  0  0  0  0  0  0  0  0
   -7.0005    9.0761  -31.9602 Br  0  0  0  0  0  0  0  0  0  0  0  0
  1  3  2  0
  1  4  1  0
  2  3  1  0
  2  6  2  0
  3  8  1  0
  4  5  2  0
  4 12  1  0
  5  6  1  0
  5 11  1  0
  6 14  1  0
  7  9  1  0
  8 10  1  0
  9 12  1  0
 10 13  1  0
M  END
>  <id>  (41) 
EN300-1920582

>  <smiles>  (41) 
CCOC=1C=C(CCS)C=C(Br)C1O

>  <IUPAC Name>  (41) 
2-bromo-6-ethoxy-4-(2-sulfanylethyl)phenol

>  <CAS>  (41) 
2229367-79-5

>  <URL>  (41) 
https://www.enaminestore.com/catalog/EN300-1920582

>  <ROCS_ShapeQuery>  (41) 
_x1604L0AP1_x0771L0AP1

>  <ROCS_TanimotoCombo>  (41) 
0.933 

>  <ROCS_ShapeTanimoto>  (41) 
0.518 

>  <ROCS_ColorTanimoto>  (41) 
0.415 

>  <ROCS_RefTversky>  (41) 
0.468 

>  <ROCS_RefColorTversky>  (41) 
0.431 

>  <ROCS_RefTverskyCombo>  (41) 
0.899 

>  <ROCS_FitTversky>  (41) 
1.258 

>  <ROCS_FitColorTversky>  (41) 
0.918 

>  <ROCS_FitTverskyCombo>  (41) 
2.176 

>  <ROCS_ColorScore>  (41) 
-4.898

>  <ROCS_Overlap>  (41) 
794.547

>  <ROCS_Rank>  (41) 
82                  

$$$$
untitled-dbase-2278_5
     RDKit          3D

 12 12  0  0  0  0  0  0  0  0999 V2000
   -5.5792   11.7916  -29.1419 C   0  0  0  0  0  0  0  0  0  0  0  0
   -4.3636   12.1762  -31.1940 C   0  0  0  0  0  0  0  0  0  0  0  0
   -6.2985   10.7686  -29.7596 C   0  0  0  0  0  0  0  0  0  0  0  0
   -4.6118   12.4955  -29.8591 C   0  0  0  0  0  0  0  0  0  0  0  0
   -5.0828   11.1531  -31.8118 C   0  0  0  0  0  0  0  0  0  0  0  0
   -6.0503   10.4493  -31.0945 C   0  0  0  0  0  0  0  0  0  0  0  0
   -3.3544   12.9114  -31.9403 C   0  0  0  0  0  0  0  0  0  0  0  0
   -2.1699   12.5689  -31.9888 O   0  0  0  0  0  0  0  0  0  0  0  0
   -7.2375   10.1013  -29.0305 O   0  0  0  0  0  0  0  0  0  0  0  0
   -3.9277   13.4777  -29.2553 F   0  0  0  0  0  0  0  0  0  0  0  0
   -4.8363   10.8516  -33.0962 F   0  0  0  0  0  0  0  0  0  0  0  0
   -7.0133    9.0609  -31.9560 Br  0  0  0  0  0  0  0  0  0  0  0  0
  1  3  2  0
  1  4  1  0
  2  4  2  0
  2  5  1  0
  2  7  1  0
  3  6  1  0
  3  9  1  0
  4 10  1  0
  5  6  2  0
  5 11  1  0
  6 12  1  0
  7  8  2  0
M  END
>  <id>  (42) 
EN300-29234197

>  <smiles>  (42) 
OC=1C=C(F)C(C=O)=C(F)C1Br

>  <IUPAC Name>  (42) 
3-bromo-2,6-difluoro-4-hydroxybenzaldehyde

>  <CAS>  (42) 
1780889-40-8

>  <Purity>  (42) 
95

>  <URL>  (42) 
https://www.enaminestore.com/catalog/EN300-29234197

>  <ROCS_ShapeQuery>  (42) 
_x1604L0AP1_x0771L0AP1

>  <ROCS_TanimotoCombo>  (42) 
0.932 

>  <ROCS_ShapeTanimoto>  (42) 
0.519 

>  <ROCS_ColorTanimoto>  (42) 
0.413 

>  <ROCS_RefTversky>  (42) 
0.459 

>  <ROCS_RefColorTversky>  (42) 
0.429 

>  <ROCS_RefTverskyCombo>  (42) 
0.889 

>  <ROCS_FitTversky>  (42) 
1.333 

>  <ROCS_FitColorTversky>  (42) 
0.915 

>  <ROCS_FitTverskyCombo>  (42) 
2.248 

>  <ROCS_ColorScore>  (42) 
-4.879

>  <ROCS_Overlap>  (42) 
778.178

>  <ROCS_Rank>  (42) 
86                  

$$$$
untitled-dbase-599_5
     RDKit          3D

 15 15  0  0  0  0  0  0  0  0999 V2000
   -4.6066   12.4900  -29.8698 C   0  0  0  0  0  0  0  0  0  0  0  0
   -4.3593   12.1656  -31.2036 C   0  0  0  0  0  0  0  0  0  0  0  0
   -5.5744   11.7897  -29.1495 C   0  0  0  0  0  0  0  0  0  0  0  0
   -5.0798   11.1410  -31.8173 C   0  0  0  0  0  0  0  0  0  0  0  0
   -6.2949   10.7650  -29.7633 C   0  0  0  0  0  0  0  0  0  0  0  0
   -6.0476   10.4407  -31.0972 C   0  0  0  0  0  0  0  0  0  0  0  0
   -5.9776   10.9691  -34.1722 C   0  0  0  0  0  0  0  0  0  0  0  0
   -4.7772   10.8326  -33.2485 C   0  0  0  0  0  0  0  0  0  0  0  0
   -6.0284   10.0339  -35.3471 C   0  0  0  0  0  0  0  0  0  0  0  0
   -6.8680   11.7974  -33.9865 O   0  0  0  0  0  0  0  0  0  0  0  0
   -7.2332   10.1032  -29.0281 O   0  0  0  0  0  0  0  0  0  0  0  0
   -4.9563    9.2031  -35.3776 F   0  0  0  0  0  0  0  0  0  0  0  0
   -7.1347    9.2485  -35.3291 F   0  0  0  0  0  0  0  0  0  0  0  0
   -6.0422   10.7065  -36.5252 F   0  0  0  0  0  0  0  0  0  0  0  0
   -7.0365    9.0407  -31.9236 Br  0  0  0  0  0  0  0  0  0  0  0  0
  1  2  2  0
  1  3  1  0
  2  4  1  0
  3  5  2  0
  4  6  2  0
  4  8  1  0
  5  6  1  0
  5 11  1  0
  6 15  1  0
  7  8  1  0
  7  9  1  0
  7 10  2  0
  9 12  1  0
  9 13  1  0
  9 14  1  0
M  END
>  <id>  (43) 
EN300-1950763

>  <smiles>  (43) 
OC=1C=CC=C(CC(=O)C(F)(F)F)C1Br

>  <IUPAC Name>  (43) 
3-(2-bromo-3-hydroxyphenyl)-1,1,1-trifluoropropan-2-one

>  <CAS>  (43) 
2228581-72-2

>  <URL>  (43) 
https://www.enaminestore.com/catalog/EN300-1950763

>  <ROCS_ShapeQuery>  (43) 
_x1604L0AP1_x0771L0AP1

>  <ROCS_TanimotoCombo>  (43) 
0.931 

>  <ROCS_ShapeTanimoto>  (43) 
0.518 

>  <ROCS_ColorTanimoto>  (43) 
0.413 

>  <ROCS_RefTversky>  (43) 
0.483 

>  <ROCS_RefColorTversky>  (43) 
0.429 

>  <ROCS_RefTverskyCombo>  (43) 
0.913 

>  <ROCS_FitTversky>  (43) 
1.163 

>  <ROCS_FitColorTversky>  (43) 
0.915 

>  <ROCS_FitTverskyCombo>  (43) 
2.078 

>  <ROCS_ColorScore>  (43) 
-4.881

>  <ROCS_Overlap>  (43) 
821.699

>  <ROCS_Rank>  (43) 
87                  

$$$$
untitled-dbase-788_47
     RDKit          3D

 11 11  0  0  0  0  0  0  0  0999 V2000
   -4.5602   12.4450  -29.8168 C   0  0  0  0  0  0  0  0  0  0  0  0
   -5.5532   11.7614  -29.1152 C   0  0  0  0  0  0  0  0  0  0  0  0
   -5.0342   11.1189  -31.7799 C   0  0  0  0  0  0  0  0  0  0  0  0
   -4.3007   12.1238  -31.1492 C   0  0  0  0  0  0  0  0  0  0  0  0
   -6.2866   10.7565  -29.7459 C   0  0  0  0  0  0  0  0  0  0  0  0
   -6.0272   10.4352  -31.0783 C   0  0  0  0  0  0  0  0  0  0  0  0
   -3.2387   12.8552  -31.8982 C   0  0  0  0  0  0  0  0  0  0  0  0
   -3.0095   14.3080  -31.4491 C   0  0  0  0  0  0  0  0  0  0  0  0
   -7.2490   10.1063  -29.0321 O   0  0  0  0  0  0  0  0  0  0  0  0
   -4.5055   15.3310  -31.6115 S   0  0  0  0  0  0  0  0  0  0  0  0
   -7.0030    9.0745  -31.9664 Br  0  0  0  0  0  0  0  0  0  0  0  0
  1  2  2  0
  1  4  1  0
  2  5  1  0
  3  4  2  0
  3  6  1  0
  4  7  1  0
  5  6  2  0
  5  9  1  0
  6 11  1  0
  7  8  1  0
  8 10  1  0
M  END
>  <id>  (44) 
EN300-1905156

>  <smiles>  (44) 
OC=1C=CC(CCS)=CC1Br

>  <MDLNUMBER>  (44) 
MFCD33499939

>  <IUPAC Name>  (44) 
2-bromo-4-(2-sulfanylethyl)phenol

>  <CAS>  (44) 
2229360-45-4

>  <URL>  (44) 
https://www.enaminestore.com/catalog/EN300-1905156

>  <ROCS_ShapeQuery>  (44) 
_x1604L0AP1_x0771L0AP1

>  <ROCS_TanimotoCombo>  (44) 
0.931 

>  <ROCS_ShapeTanimoto>  (44) 
0.481 

>  <ROCS_ColorTanimoto>  (44) 
0.451 

>  <ROCS_RefTversky>  (44) 
0.422 

>  <ROCS_RefColorTversky>  (44) 
0.431 

>  <ROCS_RefTverskyCombo>  (44) 
0.853 

>  <ROCS_FitTversky>  (44) 
1.403 

>  <ROCS_FitColorTversky>  (44) 
1.112 

>  <ROCS_FitTverskyCombo>  (44) 
2.516 

>  <ROCS_ColorScore>  (44) 
-4.878

>  <ROCS_Overlap>  (44) 
713.511

>  <ROCS_Rank>  (44) 
88                  

$$$$
untitled-dbase-913_61
     RDKit          3D

 14 15  0  0  1  0  0  0  0  0999 V2000
   -4.4477   12.0032  -31.7401 C   0  0  0  0  0  0  0  0  0  0  0  0
   -4.6056   12.5995  -30.4891 C   0  0  0  0  0  0  0  0  0  0  0  0
   -5.1846   10.8652  -32.0683 C   0  0  0  0  0  0  0  0  0  0  0  0
   -5.5004   12.0579  -29.5662 C   0  0  0  0  0  0  0  0  0  0  0  0
   -6.2372   10.9199  -29.8944 C   0  0  0  0  0  0  0  0  0  0  0  0
   -6.0793   10.3235  -31.1455 C   0  0  0  0  0  0  0  0  0  0  0  0
   -6.7048   13.7960  -28.0929 C   0  0  0  0  0  0  0  0  0  0  0  0
   -5.2554   14.1690  -28.1086 C   0  0  0  0  0  0  0  0  0  0  0  0
   -5.6542   12.7107  -28.2328 C   0  0  0  0  0  0  0  0  0  0  0  0
   -3.9559   11.8412  -26.5861 C   0  0  0  0  0  0  0  0  0  0  0  0
   -5.4101   11.8107  -27.0548 C   0  0  1  0  0  0  0  0  0  0  0  0
   -7.1077   10.3990  -28.9812 O   0  0  0  0  0  0  0  0  0  0  0  0
   -6.2475   12.2001  -25.9621 O   0  0  0  0  0  0  0  0  0  0  0  0
   -7.0608    8.7752  -31.6289 Br  0  0  0  0  0  0  0  0  0  0  0  0
  1  2  2  0
  1  3  1  0
  2  4  1  0
  3  6  2  0
  4  5  2  0
  4  9  1  0
  5  6  1  0
  5 12  1  0
  6 14  1  0
  7  8  1  0
  7  9  1  0
  8  9  1  0
  9 11  1  0
 11 10  1  1
 11 13  1  0
M  END
>  <id>  (45) 
EN300-1923450

>  <smiles>  (45) 
CC(O)C1(CC1)C=2C=CC=C(Br)C2O

>  <IUPAC Name>  (45) 
2-bromo-6-[1-(1-hydroxyethyl)cyclopropyl]phenol

>  <CAS>  (45) 
2228263-59-8

>  <URL>  (45) 
https://www.enaminestore.com/catalog/EN300-1923450

>  <ROCS_ShapeQuery>  (45) 
_x1604L0AP1_x0771L0AP1

>  <ROCS_TanimotoCombo>  (45) 
0.931 

>  <ROCS_ShapeTanimoto>  (45) 
0.406 

>  <ROCS_ColorTanimoto>  (45) 
0.526 

>  <ROCS_RefTversky>  (45) 
0.401 

>  <ROCS_RefColorTversky>  (45) 
0.534 

>  <ROCS_RefTverskyCombo>  (45) 
0.935 

>  <ROCS_FitTversky>  (45) 
1.033 

>  <ROCS_FitColorTversky>  (45) 
0.970 

>  <ROCS_FitTverskyCombo>  (45) 
2.003 

>  <ROCS_ColorScore>  (45) 
-6.098

>  <ROCS_Overlap>  (45) 
679.948

>  <ROCS_Rank>  (45) 
89                  

$$$$
untitled-dbase-143_33
     RDKit          3D

 10 10  0  0  0  0  0  0  0  0999 V2000
   -4.6014   12.4831  -29.8488 C   0  0  0  0  0  0  0  0  0  0  0  0
   -5.5762   11.7849  -29.1361 C   0  0  0  0  0  0  0  0  0  0  0  0
   -5.0703   11.1427  -31.8034 C   0  0  0  0  0  0  0  0  0  0  0  0
   -4.3485   12.1620  -31.1824 C   0  0  0  0  0  0  0  0  0  0  0  0
   -6.2981   10.7655  -29.7571 C   0  0  0  0  0  0  0  0  0  0  0  0
   -6.0451   10.4444  -31.0907 C   0  0  0  0  0  0  0  0  0  0  0  0
   -3.3060   12.9090  -31.9433 C   0  0  0  0  0  0  0  0  0  0  0  0
   -7.2427   10.1013  -29.0326 O   0  0  0  0  0  0  0  0  0  0  0  0
   -2.2320   13.9025  -30.8625 S   0  0  0  0  0  0  0  0  0  0  0  0
   -7.0055    9.0644  -31.9658 Br  0  0  0  0  0  0  0  0  0  0  0  0
  1  2  2  0
  1  4  1  0
  2  5  1  0
  3  4  2  0
  3  6  1  0
  4  7  1  0
  5  6  2  0
  5  8  1  0
  6 10  1  0
  7  9  1  0
M  END
>  <id>  (46) 
EN300-1288750

>  <smiles>  (46) 
OC=1C=CC(CS)=CC1Br

>  <MDLNUMBER>  (46) 
MFCD33493935

>  <IUPAC Name>  (46) 
2-bromo-4-(sulfanylmethyl)phenol

>  <CAS>  (46) 
1895992-66-1

>  <URL>  (46) 
https://www.enaminestore.com/catalog/EN300-1288750

>  <ROCS_ShapeQuery>  (46) 
_x1604L0AP1_x0771L0AP1

>  <ROCS_TanimotoCombo>  (46) 
0.930 

>  <ROCS_ShapeTanimoto>  (46) 
0.479 

>  <ROCS_ColorTanimoto>  (46) 
0.451 

>  <ROCS_RefTversky>  (46) 
0.414 

>  <ROCS_RefColorTversky>  (46) 
0.431 

>  <ROCS_RefTverskyCombo>  (46) 
0.846 

>  <ROCS_FitTversky>  (46) 
1.480 

>  <ROCS_FitColorTversky>  (46) 
1.113 

>  <ROCS_FitTverskyCombo>  (46) 
2.593 

>  <ROCS_ColorScore>  (46) 
-4.878

>  <ROCS_Overlap>  (46) 
699.544

>  <ROCS_Rank>  (46) 
91                  

$$$$
untitled-dbase-1259_58
     RDKit          3D

 14 14  0  0  0  0  0  0  0  0999 V2000
   -4.3703   12.3805  -30.4966 C   0  0  0  0  0  0  0  0  0  0  0  0
   -5.2420   10.8483  -32.1487 C   0  0  0  0  0  0  0  0  0  0  0  0
   -5.2530   11.8615  -29.5495 C   0  0  0  0  0  0  0  0  0  0  0  0
   -6.1301   10.8358  -29.9019 C   0  0  0  0  0  0  0  0  0  0  0  0
   -4.3649   11.8740  -31.7963 C   0  0  0  0  0  0  0  0  0  0  0  0
   -6.1247   10.3292  -31.2016 C   0  0  0  0  0  0  0  0  0  0  0  0
   -3.8800   12.2843  -27.4011 C   0  0  0  0  0  0  0  0  0  0  0  0
   -5.5523   13.9490  -28.1815 C   0  0  0  0  0  0  0  0  0  0  0  0
   -6.3250   11.7423  -27.2543 C   0  0  0  0  0  0  0  0  0  0  0  0
   -5.2420   12.4358  -28.1203 C   0  0  0  0  0  0  0  0  0  0  0  0
   -6.9878   10.3386  -28.9640 O   0  0  0  0  0  0  0  0  0  0  0  0
   -6.3356   12.2801  -25.9361 O   0  0  0  0  0  0  0  0  0  0  0  0
   -3.2756   12.5150  -32.9647 Cl  0  0  0  0  0  0  0  0  0  0  0  0
   -7.3018    8.9357  -31.7186 Br  0  0  0  0  0  0  0  0  0  0  0  0
  1  3  2  0
  1  5  1  0
  2  5  2  0
  2  6  1  0
  3  4  1  0
  3 10  1  0
  4  6  2  0
  4 11  1  0
  5 13  1  0
  6 14  1  0
  7 10  1  0
  8 10  1  0
  9 10  1  0
  9 12  1  0
M  END
>  <id>  (47) 
EN300-1922598

>  <smiles>  (47) 
CC(C)(CO)C=1C=C(Cl)C=C(Br)C1O

>  <IUPAC Name>  (47) 
2-bromo-4-chloro-6-(1-hydroxy-2-methylpropan-2-yl)phenol

>  <CAS>  (47) 
2228239-92-5

>  <URL>  (47) 
https://www.enaminestore.com/catalog/EN300-1922598

>  <ROCS_ShapeQuery>  (47) 
_x1604L0AP1_x0771L0AP1

>  <ROCS_TanimotoCombo>  (47) 
0.929 

>  <ROCS_ShapeTanimoto>  (47) 
0.446 

>  <ROCS_ColorTanimoto>  (47) 
0.483 

>  <ROCS_RefTversky>  (47) 
0.425 

>  <ROCS_RefColorTversky>  (47) 
0.531 

>  <ROCS_RefTverskyCombo>  (47) 
0.956 

>  <ROCS_FitTversky>  (47) 
1.129 

>  <ROCS_FitColorTversky>  (47) 
0.842 

>  <ROCS_FitTverskyCombo>  (47) 
1.971 

>  <ROCS_ColorScore>  (47) 
-6.092

>  <ROCS_Overlap>  (47) 
720.421

>  <ROCS_Rank>  (47) 
92                  

$$$$
untitled-dbase-465_242
     RDKit          3D

 13 13  0  0  0  0  0  0  0  0999 V2000
   -4.7504   12.6212  -29.8766 C   0  0  0  0  0  0  0  0  0  0  0  0
   -5.1642   11.2465  -31.8197 C   0  0  0  0  0  0  0  0  0  0  0  0
   -4.5005   12.3133  -31.2139 C   0  0  0  0  0  0  0  0  0  0  0  0
   -5.6640   11.8623  -29.1451 C   0  0  0  0  0  0  0  0  0  0  0  0
   -6.3277   10.7955  -29.7509 C   0  0  0  0  0  0  0  0  0  0  0  0
   -6.0778   10.4876  -31.0883 C   0  0  0  0  0  0  0  0  0  0  0  0
   -5.0745   11.5413  -26.8636 C   0  0  0  0  0  0  0  0  0  0  0  0
   -3.5243   13.1255  -31.9958 C   0  0  0  0  0  0  0  0  0  0  0  0
   -3.5324   15.0689  -30.7309 N   0  0  0  0  0  0  0  0  0  0  0  0
   -7.2185   10.0656  -29.0192 O   0  0  0  0  0  0  0  0  0  0  0  0
   -5.8979   12.1757  -27.8401 O   0  0  0  0  0  0  0  0  0  0  0  0
   -2.7397   13.9083  -31.1043 O   0  0  0  0  0  0  0  0  0  0  0  0
   -6.9605    9.0456  -31.9459 Br  0  0  0  0  0  0  0  0  0  0  0  0
  1  3  2  0
  1  4  1  0
  2  3  1  0
  2  6  2  0
  3  8  1  0
  4  5  2  0
  4 11  1  0
  5  6  1  0
  5 10  1  0
  6 13  1  0
  7 11  1  0
  8 12  1  0
  9 12  1  0
M  END
>  <id>  (48) 
EN300-1926992

>  <smiles>  (48) 
COC=1C=C(CON)C=C(Br)C1O

>  <IUPAC Name>  (48) 
4-[(aminooxy)methyl]-2-bromo-6-methoxyphenol

>  <CAS>  (48) 
2229002-57-5

>  <URL>  (48) 
https://www.enaminestore.com/catalog/EN300-1926992

>  <ROCS_ShapeQuery>  (48) 
_x1604L0AP1_x0771L0AP1

>  <ROCS_TanimotoCombo>  (48) 
0.929 

>  <ROCS_ShapeTanimoto>  (48) 
0.517 

>  <ROCS_ColorTanimoto>  (48) 
0.412 

>  <ROCS_RefTversky>  (48) 
0.463 

>  <ROCS_RefColorTversky>  (48) 
0.428 

>  <ROCS_RefTverskyCombo>  (48) 
0.891 

>  <ROCS_FitTversky>  (48) 
1.293 

>  <ROCS_FitColorTversky>  (48) 
0.913 

>  <ROCS_FitTverskyCombo>  (48) 
2.205 

>  <ROCS_ColorScore>  (48) 
-4.869

>  <ROCS_Overlap>  (48) 
784.714

>  <ROCS_Rank>  (48) 
93                  

$$$$
untitled-dbase-502_26
     RDKit          3D

 13 13  0  0  1  0  0  0  0  0999 V2000
   -4.8759   12.7101  -30.1913 C   0  0  0  0  0  0  0  0  0  0  0  0
   -5.0244   10.9861  -31.8774 C   0  0  0  0  0  0  0  0  0  0  0  0
   -5.8400   12.0490  -29.4304 C   0  0  0  0  0  0  0  0  0  0  0  0
   -6.3962   10.8564  -29.8929 C   0  0  0  0  0  0  0  0  0  0  0  0
   -4.4681   12.1787  -31.4149 C   0  0  0  0  0  0  0  0  0  0  0  0
   -5.9884   10.3249  -31.1164 C   0  0  0  0  0  0  0  0  0  0  0  0
   -6.0166   11.6973  -26.9285 C   0  0  0  0  0  0  0  0  0  0  0  0
   -6.2623   12.6353  -28.1233 C   0  0  2  0  0  0  0  0  0  0  0  0
   -7.6616   13.0322  -28.1369 N   0  0  0  0  0  0  0  0  0  0  0  0
   -7.3385   10.2214  -29.1369 O   0  0  0  0  0  0  0  0  0  0  0  0
   -6.0280   12.4437  -25.7160 O   0  0  0  0  0  0  0  0  0  0  0  0
   -3.2786   12.9951  -32.3536 Cl  0  0  0  0  0  0  0  0  0  0  0  0
   -6.7212    8.7065  -31.7786 Br  0  0  0  0  0  0  0  0  0  0  0  0
  1  3  2  0
  1  5  1  0
  2  5  2  0
  2  6  1  0
  3  4  1  0
  3  8  1  0
  4  6  2  0
  4 10  1  0
  5 12  1  0
  6 13  1  0
  7  8  1  0
  7 11  1  0
  8  9  1  6
M  END
>  <id>  (49) 
EN300-1914424

>  <smiles>  (49) 
N[C@@H](CO)C=1C=C(Cl)C=C(Br)C1O

>  <MDLNUMBER>  (49) 
MFCD09253944

>  <IUPAC Name>  (49) 
2-[(1R)-1-amino-2-hydroxyethyl]-6-bromo-4-chlorophenol

>  <CAS>  (49) 
1212807-06-1

>  <URL>  (49) 
https://www.enaminestore.com/catalog/EN300-1914424

>  <ROCS_ShapeQuery>  (49) 
_x1604L0AP1_x0771L0AP1

>  <ROCS_TanimotoCombo>  (49) 
0.928 

>  <ROCS_ShapeTanimoto>  (49) 
0.440 

>  <ROCS_ColorTanimoto>  (49) 
0.488 

>  <ROCS_RefTversky>  (49) 
0.414 

>  <ROCS_RefColorTversky>  (49) 
0.561 

>  <ROCS_RefTverskyCombo>  (49) 
0.975 

>  <ROCS_FitTversky>  (49) 
1.171 

>  <ROCS_FitColorTversky>  (49) 
0.789 

>  <ROCS_FitTverskyCombo>  (49) 
1.961 

>  <ROCS_ColorScore>  (49) 
-6.460

>  <ROCS_Overlap>  (49) 
700.903

>  <ROCS_Rank>  (49) 
95                  

$$$$
untitled-dbase-1514_2
     RDKit          3D

 11 11  0  0  0  0  0  0  0  0999 V2000
   -5.0640   11.1290  -31.8052 C   0  0  0  0  0  0  0  0  0  0  0  0
   -5.5678   11.7795  -29.1396 C   0  0  0  0  0  0  0  0  0  0  0  0
   -4.3382   12.1468  -31.1866 C   0  0  0  0  0  0  0  0  0  0  0  0
   -6.2937   10.7617  -29.7583 C   0  0  0  0  0  0  0  0  0  0  0  0
   -4.5900   12.4721  -29.8538 C   0  0  0  0  0  0  0  0  0  0  0  0
   -6.0418   10.4364  -31.0911 C   0  0  0  0  0  0  0  0  0  0  0  0
   -3.3204   12.8677  -31.9350 C   0  0  0  0  0  0  0  0  0  0  0  0
   -2.6441   13.7777  -31.4479 O   0  0  0  0  0  0  0  0  0  0  0  0
   -7.2421   10.1040  -29.0328 O   0  0  0  0  0  0  0  0  0  0  0  0
   -3.8995   13.4496  -29.2496 F   0  0  0  0  0  0  0  0  0  0  0  0
   -7.0101    9.0608  -31.9642 Br  0  0  0  0  0  0  0  0  0  0  0  0
  1  3  2  0
  1  6  1  0
  2  4  1  0
  2  5  2  0
  3  5  1  0
  3  7  1  0
  4  6  2  0
  4  9  1  0
  5 10  1  0
  6 11  1  0
  7  8  2  0
M  END
>  <id>  (50) 
EN300-1276385

>  <smiles>  (50) 
OC=1C=C(F)C(C=O)=CC1Br

>  <MDLNUMBER>  (50) 
MFCD22036550

>  <IUPAC Name>  (50) 
5-bromo-2-fluoro-4-hydroxybenzaldehyde

>  <CAS>  (50) 
914397-21-0

>  <Purity>  (50) 
95

>  <URL>  (50) 
https://www.enaminestore.com/catalog/EN300-1276385

>  <ROCS_ShapeQuery>  (50) 
_x1604L0AP1_x0771L0AP1

>  <ROCS_TanimotoCombo>  (50) 
0.927 

>  <ROCS_ShapeTanimoto>  (50) 
0.515 

>  <ROCS_ColorTanimoto>  (50) 
0.413 

>  <ROCS_RefTversky>  (50) 
0.447 

>  <ROCS_RefColorTversky>  (50) 
0.429 

>  <ROCS_RefTverskyCombo>  (50) 
0.876 

>  <ROCS_FitTversky>  (50) 
1.416 

>  <ROCS_FitColorTversky>  (50) 
0.915 

>  <ROCS_FitTverskyCombo>  (50) 
2.331 

>  <ROCS_ColorScore>  (50) 
-4.879

>  <ROCS_Overlap>  (50) 
756.070

>  <ROCS_Rank>  (50) 
97                  

$$$$
untitled-dbase-1440_400
     RDKit          3D

 15 15  0  0  1  0  0  0  0  0999 V2000
   -4.6193   12.5002  -29.8158 C   0  0  0  0  0  0  0  0  0  0  0  0
   -5.0724   11.1655  -31.7779 C   0  0  0  0  0  0  0  0  0  0  0  0
   -4.3596   12.1868  -31.1499 C   0  0  0  0  0  0  0  0  0  0  0  0
   -5.5918   11.7922  -29.1095 C   0  0  0  0  0  0  0  0  0  0  0  0
   -6.3046   10.7709  -29.7375 C   0  0  0  0  0  0  0  0  0  0  0  0
   -6.0450   10.4575  -31.0717 C   0  0  0  0  0  0  0  0  0  0  0  0
   -2.6968   12.1031  -33.0364 C   0  0  0  0  0  0  0  0  0  0  0  0
   -5.0606   13.1673  -27.2434 C   0  0  0  0  0  0  0  0  0  0  0  0
   -2.1996   13.5010  -30.9969 C   0  0  0  0  0  0  0  0  0  0  0  0
   -3.3205   12.9446  -31.9048 C   0  0  2  0  0  0  0  0  0  0  0  0
   -1.5660   15.1974  -29.5488 N   0  0  0  0  0  0  0  0  0  0  0  0
   -7.2526   10.0905  -29.0304 O   0  0  0  0  0  0  0  0  0  0  0  0
   -5.8345   12.1104  -27.8072 O   0  0  0  0  0  0  0  0  0  0  0  0
   -2.6457   14.7092  -30.3911 O   0  0  0  0  0  0  0  0  0  0  0  0
   -6.9932    9.0763  -31.9590 Br  0  0  0  0  0  0  0  0  0  0  0  0
  1  3  2  0
  1  4  1  0
  2  3  1  0
  2  6  2  0
  3 10  1  0
  4  5  2  0
  4 13  1  0
  5  6  1  0
  5 12  1  0
  6 15  1  0
 10  7  1  6
  8 13  1  0
  9 10  1  0
  9 14  1  0
 11 14  1  0
M  END
>  <id>  (51) 
EN300-1927002

>  <smiles>  (51) 
COC=1C=C(C=C(Br)C1O)C(C)CON

>  <IUPAC Name>  (51) 
4-[1-(aminooxy)propan-2-yl]-2-bromo-6-methoxyphenol

>  <CAS>  (51) 
2229368-29-8

>  <URL>  (51) 
https://www.enaminestore.com/catalog/EN300-1927002

>  <ROCS_ShapeQuery>  (51) 
_x1604L0AP1_x0771L0AP1

>  <ROCS_TanimotoCombo>  (51) 
0.927 

>  <ROCS_ShapeTanimoto>  (51) 
0.544 

>  <ROCS_ColorTanimoto>  (51) 
0.382 

>  <ROCS_RefTversky>  (51) 
0.494 

>  <ROCS_RefColorTversky>  (51) 
0.429 

>  <ROCS_RefTverskyCombo>  (51) 
0.923 

>  <ROCS_FitTversky>  (51) 
1.229 

>  <ROCS_FitColorTversky>  (51) 
0.779 

>  <ROCS_FitTverskyCombo>  (51) 
2.008 

>  <ROCS_ColorScore>  (51) 
-4.897

>  <ROCS_Overlap>  (51) 
839.548

>  <ROCS_Rank>  (51) 
101                 

$$$$
untitled-dbase-1222_141
     RDKit          3D

 14 15  0  0  0  0  0  0  0  0999 V2000
   -4.6113   12.4920  -29.8400 C   0  0  0  0  0  0  0  0  0  0  0  0
   -5.5842   11.7893  -29.1292 C   0  0  0  0  0  0  0  0  0  0  0  0
   -5.0725   11.1516  -31.7965 C   0  0  0  0  0  0  0  0  0  0  0  0
   -4.3555   12.1732  -31.1736 C   0  0  0  0  0  0  0  0  0  0  0  0
   -6.3013   10.7677  -29.7520 C   0  0  0  0  0  0  0  0  0  0  0  0
   -6.0454   10.4489  -31.0857 C   0  0  0  0  0  0  0  0  0  0  0  0
   -1.8937   12.3944  -31.9041 C   0  0  0  0  0  0  0  0  0  0  0  0
   -2.2339   13.6358  -31.1402 C   0  0  0  0  0  0  0  0  0  0  0  0
   -3.3160   12.9244  -31.9324 C   0  0  0  0  0  0  0  0  0  0  0  0
   -3.7981   13.5723  -33.2006 C   0  0  0  0  0  0  0  0  0  0  0  0
   -3.1453   11.9606  -34.7345 N   0  0  0  0  0  0  0  0  0  0  0  0
   -7.2450   10.1001  -29.0295 O   0  0  0  0  0  0  0  0  0  0  0  0
   -4.2927   12.5722  -34.0840 O   0  0  0  0  0  0  0  0  0  0  0  0
   -7.0002    9.0670  -31.9641 Br  0  0  0  0  0  0  0  0  0  0  0  0
  1  2  2  0
  1  4  1  0
  2  5  1  0
  3  4  2  0
  3  6  1  0
  4  9  1  0
  5  6  2  0
  5 12  1  0
  6 14  1  0
  7  8  1  0
  7  9  1  0
  8  9  1  0
  9 10  1  0
 10 13  1  0
 11 13  1  0
M  END
>  <id>  (52) 
EN300-1906344

>  <smiles>  (52) 
NOCC1(CC1)C=2C=CC(O)=C(Br)C2

>  <IUPAC Name>  (52) 
4-{1-[(aminooxy)methyl]cyclopropyl}-2-bromophenol

>  <CAS>  (52) 
2229616-29-7

>  <URL>  (52) 
https://www.enaminestore.com/catalog/EN300-1906344

>  <ROCS_ShapeQuery>  (52) 
_x1604L0AP1_x0771L0AP1

>  <ROCS_TanimotoCombo>  (52) 
0.926 

>  <ROCS_ShapeTanimoto>  (52) 
0.476 

>  <ROCS_ColorTanimoto>  (52) 
0.451 

>  <ROCS_RefTversky>  (52) 
0.446 

>  <ROCS_RefColorTversky>  (52) 
0.431 

>  <ROCS_RefTverskyCombo>  (52) 
0.877 

>  <ROCS_FitTversky>  (52) 
1.161 

>  <ROCS_FitColorTversky>  (52) 
1.112 

>  <ROCS_FitTverskyCombo>  (52) 
2.273 

>  <ROCS_ColorScore>  (52) 
-4.878

>  <ROCS_Overlap>  (52) 
757.494

>  <ROCS_Rank>  (52) 
102                 

$$$$
untitled-dbase-1269_169
     RDKit          3D

 12 12  0  0  0  0  0  0  0  0999 V2000
   -4.5565   12.4399  -29.8073 C   0  0  0  0  0  0  0  0  0  0  0  0
   -5.5516   11.7561  -29.1090 C   0  0  0  0  0  0  0  0  0  0  0  0
   -5.0305   11.1206  -31.7749 C   0  0  0  0  0  0  0  0  0  0  0  0
   -4.2960   12.1222  -31.1403 C   0  0  0  0  0  0  0  0  0  0  0  0
   -6.2862   10.7545  -29.7436 C   0  0  0  0  0  0  0  0  0  0  0  0
   -6.0256   10.4367  -31.0766 C   0  0  0  0  0  0  0  0  0  0  0  0
   -3.2316   12.8539  -31.8858 C   0  0  0  0  0  0  0  0  0  0  0  0
   -3.0365   14.2920  -31.4010 C   0  0  0  0  0  0  0  0  0  0  0  0
   -4.8699   14.6064  -32.7852 N   0  0  0  0  0  0  0  0  0  0  0  0
   -7.2506   10.1040  -29.0329 O   0  0  0  0  0  0  0  0  0  0  0  0
   -4.2576   15.0091  -31.5291 O   0  0  0  0  0  0  0  0  0  0  0  0
   -7.0030    9.0805  -31.9700 Br  0  0  0  0  0  0  0  0  0  0  0  0
  1  2  2  0
  1  4  1  0
  2  5  1  0
  3  4  2  0
  3  6  1  0
  4  7  1  0
  5  6  2  0
  5 10  1  0
  6 12  1  0
  7  8  1  0
  8 11  1  0
  9 11  1  0
M  END
>  <id>  (53) 
EN300-1906339

>  <smiles>  (53) 
NOCCC=1C=CC(O)=C(Br)C1

>  <IUPAC Name>  (53) 
4-[2-(aminooxy)ethyl]-2-bromophenol

>  <CAS>  (53) 
1891556-17-4

>  <URL>  (53) 
https://www.enaminestore.com/catalog/EN300-1906339

>  <ROCS_ShapeQuery>  (53) 
_x1604L0AP1_x0771L0AP1

>  <ROCS_TanimotoCombo>  (53) 
0.926 

>  <ROCS_ShapeTanimoto>  (53) 
0.476 

>  <ROCS_ColorTanimoto>  (53) 
0.451 

>  <ROCS_RefTversky>  (53) 
0.429 

>  <ROCS_RefColorTversky>  (53) 
0.431 

>  <ROCS_RefTverskyCombo>  (53) 
0.860 

>  <ROCS_FitTversky>  (53) 
1.300 

>  <ROCS_FitColorTversky>  (53) 
1.112 

>  <ROCS_FitTverskyCombo>  (53) 
2.412 

>  <ROCS_ColorScore>  (53) 
-4.877

>  <ROCS_Overlap>  (53) 
725.468

>  <ROCS_Rank>  (53) 
104                 

$$$$
untitled-dbase-1481_0
     RDKit          3D

 13 13  0  0  0  0  0  0  0  0999 V2000
   -5.5730   11.7818  -29.1279 C   0  0  0  0  0  0  0  0  0  0  0  0
   -4.5990   12.4870  -29.8348 C   0  0  0  0  0  0  0  0  0  0  0  0
   -5.0652   11.1611  -31.7999 C   0  0  0  0  0  0  0  0  0  0  0  0
   -6.2930   10.7661  -29.7570 C   0  0  0  0  0  0  0  0  0  0  0  0
   -4.3452   12.1767  -31.1708 C   0  0  0  0  0  0  0  0  0  0  0  0
   -6.0391   10.4558  -31.0930 C   0  0  0  0  0  0  0  0  0  0  0  0
   -4.7583   10.8642  -33.2328 C   0  0  0  0  0  0  0  0  0  0  0  0
   -7.2371   10.0989  -29.0342 O   0  0  0  0  0  0  0  0  0  0  0  0
   -3.4073   12.8616  -31.8402 F   0  0  0  0  0  0  0  0  0  0  0  0
   -3.7773   11.6564  -33.7542 F   0  0  0  0  0  0  0  0  0  0  0  0
   -4.3362    9.5839  -33.4437 F   0  0  0  0  0  0  0  0  0  0  0  0
   -5.8408   11.0347  -34.0440 F   0  0  0  0  0  0  0  0  0  0  0  0
   -7.0268    9.0682  -31.9413 Br  0  0  0  0  0  0  0  0  0  0  0  0
  1  2  2  0
  1  4  1  0
  2  5  1  0
  3  5  2  0
  3  6  1  0
  3  7  1  0
  4  6  2  0
  4  8  1  0
  5  9  1  0
  6 13  1  0
  7 10  1  0
  7 11  1  0
  7 12  1  0
M  END
>  <id>  (54) 
EN300-7504014

>  <smiles>  (54) 
OC=1C=CC(F)=C(C1Br)C(F)(F)F

>  <MDLNUMBER>  (54) 
MFCD28739058

>  <IUPAC Name>  (54) 
2-bromo-4-fluoro-3-(trifluoromethyl)phenol

>  <CAS>  (54) 
1805498-52-5

>  <Purity>  (54) 
95

>  <URL>  (54) 
https://www.enaminestore.com/catalog/EN300-7504014

>  <ROCS_ShapeQuery>  (54) 
_x1604L0AP1_x0771L0AP1

>  <ROCS_TanimotoCombo>  (54) 
0.926 

>  <ROCS_ShapeTanimoto>  (54) 
0.474 

>  <ROCS_ColorTanimoto>  (54) 
0.451 

>  <ROCS_RefTversky>  (54) 
0.442 

>  <ROCS_RefColorTversky>  (54) 
0.431 

>  <ROCS_RefTverskyCombo>  (54) 
0.874 

>  <ROCS_FitTversky>  (54) 
1.180 

>  <ROCS_FitColorTversky>  (54) 
1.113 

>  <ROCS_FitTverskyCombo>  (54) 
2.294 

>  <ROCS_ColorScore>  (54) 
-4.883

>  <ROCS_Overlap>  (54) 
750.504

>  <ROCS_Rank>  (54) 
105                 

$$$$
untitled-dbase-1462_0
     RDKit          3D

 12 12  0  0  0  0  0  0  0  0999 V2000
   -4.3588   12.1500  -31.2234 C   0  0  0  0  0  0  0  0  0  0  0  0
   -5.0852   11.1251  -31.8296 C   0  0  0  0  0  0  0  0  0  0  0  0
   -5.5700   11.7903  -29.1641 C   0  0  0  0  0  0  0  0  0  0  0  0
   -4.6012   12.4826  -29.8906 C   0  0  0  0  0  0  0  0  0  0  0  0
   -6.2964   10.7654  -29.7703 C   0  0  0  0  0  0  0  0  0  0  0  0
   -6.0540   10.4328  -31.1031 C   0  0  0  0  0  0  0  0  0  0  0  0
   -3.8429   13.5505  -29.2584 C   0  0  0  0  0  0  0  0  0  0  0  0
   -2.1312   15.1735  -29.6163 C   0  0  0  0  0  0  0  0  0  0  0  0
   -3.9899   13.9131  -28.0837 O   0  0  0  0  0  0  0  0  0  0  0  0
   -7.2360   10.1079  -29.0331 O   0  0  0  0  0  0  0  0  0  0  0  0
   -2.9416   14.1080  -30.1238 O   0  0  0  0  0  0  0  0  0  0  0  0
   -7.0218    9.0468  -31.9601 Br  0  0  0  0  0  0  0  0  0  0  0  0
  1  2  2  0
  1  4  1  0
  2  6  1  0
  3  4  2  0
  3  5  1  0
  4  7  1  0
  5  6  2  0
  5 10  1  0
  6 12  1  0
  7  9  2  0
  7 11  1  0
  8 11  1  0
M  END
>  <id>  (55) 
EN300-198690

>  <smiles>  (55) 
COC(=O)C=1C=CC(Br)=C(O)C1

>  <MDLNUMBER>  (55) 
MFCD08056372

>  <IUPAC Name>  (55) 
methyl 4-bromo-3-hydroxybenzoate

>  <CAS>  (55) 
106291-80-9

>  <Purity>  (55) 
95

>  <URL>  (55) 
https://www.enaminestore.com/catalog/EN300-198690

>  <MP>  (55) 
121-123

>  <ROCS_ShapeQuery>  (55) 
_x1604L0AP1_x0771L0AP1

>  <ROCS_TanimotoCombo>  (55) 
0.926 

>  <ROCS_ShapeTanimoto>  (55) 
0.513 

>  <ROCS_ColorTanimoto>  (55) 
0.413 

>  <ROCS_RefTversky>  (55) 
0.454 

>  <ROCS_RefColorTversky>  (55) 
0.429 

>  <ROCS_RefTverskyCombo>  (55) 
0.883 

>  <ROCS_FitTversky>  (55) 
1.338 

>  <ROCS_FitColorTversky>  (55) 
0.914 

>  <ROCS_FitTverskyCombo>  (55) 
2.252 

>  <ROCS_ColorScore>  (55) 
-4.878

>  <ROCS_Overlap>  (55) 
769.184

>  <ROCS_Rank>  (55) 
106                 

$$$$
untitled-dbase-87_21
     RDKit          3D

 13 13  0  0  0  0  0  0  0  0999 V2000
   -4.6036   12.4855  -29.8660 C   0  0  0  0  0  0  0  0  0  0  0  0
   -5.5727   11.7859  -29.1470 C   0  0  0  0  0  0  0  0  0  0  0  0
   -4.3575   12.1635  -31.2007 C   0  0  0  0  0  0  0  0  0  0  0  0
   -6.2958   10.7643  -29.7627 C   0  0  0  0  0  0  0  0  0  0  0  0
   -5.0806   11.1419  -31.8164 C   0  0  0  0  0  0  0  0  0  0  0  0
   -6.0498   10.4423  -31.0975 C   0  0  0  0  0  0  0  0  0  0  0  0
   -5.8677   10.9819  -34.0675 C   0  0  0  0  0  0  0  0  0  0  0  0
   -7.2354   10.1022  -29.0294 O   0  0  0  0  0  0  0  0  0  0  0  0
   -4.8131   10.8544  -33.1221 O   0  0  0  0  0  0  0  0  0  0  0  0
   -7.0091   11.3872  -33.4715 F   0  0  0  0  0  0  0  0  0  0  0  0
   -6.0971    9.7723  -34.6273 F   0  0  0  0  0  0  0  0  0  0  0  0
   -5.5354   11.8404  -35.0548 F   0  0  0  0  0  0  0  0  0  0  0  0
   -7.0356    9.0495  -31.9370 Br  0  0  0  0  0  0  0  0  0  0  0  0
  1  2  2  0
  1  3  1  0
  2  4  1  0
  3  5  2  0
  4  6  2  0
  4  8  1  0
  5  6  1  0
  5  9  1  0
  6 13  1  0
  7  9  1  0
  7 10  1  0
  7 11  1  0
  7 12  1  0
M  END
>  <id>  (56) 
EN300-256632

>  <smiles>  (56) 
OC=1C=CC=C(OC(F)(F)F)C1Br

>  <MDLNUMBER>  (56) 
MFCD22208541

>  <IUPAC Name>  (56) 
2-bromo-3-(trifluoromethoxy)phenol

>  <CAS>  (56) 
1392059-76-5

>  <Purity>  (56) 
95

>  <URL>  (56) 
https://www.enaminestore.com/catalog/EN300-256632

>  <ROCS_ShapeQuery>  (56) 
_x1604L0AP1_x0771L0AP1

>  <ROCS_TanimotoCombo>  (56) 
0.925 

>  <ROCS_ShapeTanimoto>  (56) 
0.512 

>  <ROCS_ColorTanimoto>  (56) 
0.413 

>  <ROCS_RefTversky>  (56) 
0.465 

>  <ROCS_RefColorTversky>  (56) 
0.429 

>  <ROCS_RefTverskyCombo>  (56) 
0.894 

>  <ROCS_FitTversky>  (56) 
1.249 

>  <ROCS_FitColorTversky>  (56) 
0.915 

>  <ROCS_FitTverskyCombo>  (56) 
2.164 

>  <ROCS_ColorScore>  (56) 
-4.881

>  <ROCS_Overlap>  (56) 
788.439

>  <ROCS_Rank>  (56) 
107                 

$$$$
untitled-dbase-195_2
     RDKit          3D

 11 11  0  0  0  0  0  0  0  0999 V2000
   -5.0737   11.1373  -31.8112 C   0  0  0  0  0  0  0  0  0  0  0  0
   -5.5722   11.7876  -29.1445 C   0  0  0  0  0  0  0  0  0  0  0  0
   -4.3496   12.1580  -31.1952 C   0  0  0  0  0  0  0  0  0  0  0  0
   -4.5988   12.4831  -29.8618 C   0  0  0  0  0  0  0  0  0  0  0  0
   -6.2964   10.7669  -29.7606 C   0  0  0  0  0  0  0  0  0  0  0  0
   -6.0471   10.4418  -31.0940 C   0  0  0  0  0  0  0  0  0  0  0  0
   -3.3394   12.8691  -31.9668 C   0  0  0  0  0  0  0  0  0  0  0  0
   -3.8390   13.5728  -29.1785 C   0  0  0  0  0  0  0  0  0  0  0  0
   -2.3295   13.3612  -31.4589 O   0  0  0  0  0  0  0  0  0  0  0  0
   -7.2409   10.1063  -29.0327 O   0  0  0  0  0  0  0  0  0  0  0  0
   -7.0121    9.0612  -31.9629 Br  0  0  0  0  0  0  0  0  0  0  0  0
  1  3  2  0
  1  6  1  0
  2  4  2  0
  2  5  1  0
  3  4  1  0
  3  7  1  0
  4  8  1  0
  5  6  2  0
  5 10  1  0
  6 11  1  0
  7  9  2  0
M  END
>  <id>  (57) 
EN300-1276582

>  <smiles>  (57) 
CC=1C=C(O)C(Br)=CC1C=O

>  <MDLNUMBER>  (57) 
MFCD28637640

>  <IUPAC Name>  (57) 
5-bromo-4-hydroxy-2-methylbenzaldehyde

>  <CAS>  (57) 
1232911-14-6

>  <URL>  (57) 
https://www.enaminestore.com/catalog/EN300-1276582

>  <ROCS_ShapeQuery>  (57) 
_x1604L0AP1_x0771L0AP1

>  <ROCS_TanimotoCombo>  (57) 
0.925 

>  <ROCS_ShapeTanimoto>  (57) 
0.513 

>  <ROCS_ColorTanimoto>  (57) 
0.413 

>  <ROCS_RefTversky>  (57) 
0.445 

>  <ROCS_RefColorTversky>  (57) 
0.429 

>  <ROCS_RefTverskyCombo>  (57) 
0.874 

>  <ROCS_FitTversky>  (57) 
1.423 

>  <ROCS_FitColorTversky>  (57) 
0.914 

>  <ROCS_FitTverskyCombo>  (57) 
2.338 

>  <ROCS_ColorScore>  (57) 
-4.879

>  <ROCS_Overlap>  (57) 
752.089

>  <ROCS_Rank>  (57) 
108                 

$$$$
untitled-dbase-150_1
     RDKit          3D

 12 12  0  0  0  0  0  0  0  0999 V2000
   -5.0636   11.1372  -31.8027 C   0  0  0  0  0  0  0  0  0  0  0  0
   -5.5652   11.7774  -29.1341 C   0  0  0  0  0  0  0  0  0  0  0  0
   -4.3364   12.1518  -31.1803 C   0  0  0  0  0  0  0  0  0  0  0  0
   -6.2925   10.7629  -29.7565 C   0  0  0  0  0  0  0  0  0  0  0  0
   -4.5871   12.4719  -29.8460 C   0  0  0  0  0  0  0  0  0  0  0  0
   -6.0417   10.4428  -31.0908 C   0  0  0  0  0  0  0  0  0  0  0  0
   -3.3235   12.8497  -31.9631 C   0  0  0  0  0  0  0  0  0  0  0  0
   -3.4900   14.3288  -32.1446 C   0  0  0  0  0  0  0  0  0  0  0  0
   -2.3478   12.3135  -32.4878 O   0  0  0  0  0  0  0  0  0  0  0  0
   -7.2412   10.1025  -29.0338 O   0  0  0  0  0  0  0  0  0  0  0  0
   -3.7095   13.7206  -29.0387 Cl  0  0  0  0  0  0  0  0  0  0  0  0
   -7.0111    9.0695  -31.9675 Br  0  0  0  0  0  0  0  0  0  0  0  0
  1  3  2  0
  1  6  1  0
  2  4  1  0
  2  5  2  0
  3  5  1  0
  3  7  1  0
  4  6  2  0
  4 10  1  0
  5 11  1  0
  6 12  1  0
  7  8  1  0
  7  9  2  0
M  END
>  <id>  (58) 
EN300-1276900

>  <smiles>  (58) 
CC(=O)C=1C=C(Br)C(O)=CC1Cl

>  <MDLNUMBER>  (58) 
MFCD30661255

>  <IUPAC Name>  (58) 
1-(5-bromo-2-chloro-4-hydroxyphenyl)ethan-1-one

>  <CAS>  (58) 
2144008-66-0

>  <URL>  (58) 
https://www.enaminestore.com/catalog/EN300-1276900

>  <ROCS_ShapeQuery>  (58) 
_x1604L0AP1_x0771L0AP1

>  <ROCS_TanimotoCombo>  (58) 
0.925 

>  <ROCS_ShapeTanimoto>  (58) 
0.512 

>  <ROCS_ColorTanimoto>  (58) 
0.413 

>  <ROCS_RefTversky>  (58) 
0.451 

>  <ROCS_RefColorTversky>  (58) 
0.429 

>  <ROCS_RefTverskyCombo>  (58) 
0.881 

>  <ROCS_FitTversky>  (58) 
1.357 

>  <ROCS_FitColorTversky>  (58) 
0.914 

>  <ROCS_FitTverskyCombo>  (58) 
2.271 

>  <ROCS_ColorScore>  (58) 
-4.879

>  <ROCS_Overlap>  (58) 
764.237

>  <ROCS_Rank>  (58) 
110                 

$$$$
untitled-dbase-381_1
     RDKit          3D

 12 12  0  0  0  0  0  0  0  0999 V2000
   -4.8964   12.6997  -29.8051 C   0  0  0  0  0  0  0  0  0  0  0  0
   -4.9643   11.1505  -31.6578 C   0  0  0  0  0  0  0  0  0  0  0  0
   -5.8957   11.9716  -29.1596 C   0  0  0  0  0  0  0  0  0  0  0  0
   -6.4294   10.8329  -29.7632 C   0  0  0  0  0  0  0  0  0  0  0  0
   -4.4306   12.2892  -31.0543 C   0  0  0  0  0  0  0  0  0  0  0  0
   -5.9636   10.4224  -31.0123 C   0  0  0  0  0  0  0  0  0  0  0  0
   -6.3799   12.4286  -27.8228 C   0  0  0  0  0  0  0  0  0  0  0  0
   -5.9877   12.5726  -25.5224 N   0  0  0  0  0  0  0  0  0  0  0  0
   -5.4435   12.1273  -26.7710 N   0  0  0  0  0  0  0  0  0  0  0  0
   -7.4068   10.1313  -29.1190 O   0  0  0  0  0  0  0  0  0  0  0  0
   -3.1975   13.1882  -31.8504 Cl  0  0  0  0  0  0  0  0  0  0  0  0
   -6.6641    8.8804  -31.8647 Br  0  0  0  0  0  0  0  0  0  0  0  0
  1  3  2  0
  1  5  1  0
  2  5  2  0
  2  6  1  0
  3  4  1  0
  3  7  1  0
  4  6  2  0
  4 10  1  0
  5 11  1  0
  6 12  1  0
  7  9  1  0
  8  9  1  0
M  END
>  <id>  (59) 
EN300-1926027

>  <smiles>  (59) 
NNCC=1C=C(Cl)C=C(Br)C1O

>  <IUPAC Name>  (59) 
2-bromo-4-chloro-6-(hydrazinylmethyl)phenol

>  <CAS>  (59) 
1049104-38-2

>  <URL>  (59) 
https://www.enaminestore.com/catalog/EN300-1926027

>  <ROCS_ShapeQuery>  (59) 
_x1604L0AP1_x0771L0AP1

>  <ROCS_TanimotoCombo>  (59) 
0.925 

>  <ROCS_ShapeTanimoto>  (59) 
0.456 

>  <ROCS_ColorTanimoto>  (59) 
0.468 

>  <ROCS_RefTversky>  (59) 
0.416 

>  <ROCS_RefColorTversky>  (59) 
0.501 

>  <ROCS_RefTverskyCombo>  (59) 
0.917 

>  <ROCS_FitTversky>  (59) 
1.267 

>  <ROCS_FitColorTversky>  (59) 
0.877 

>  <ROCS_FitTverskyCombo>  (59) 
2.144 

>  <ROCS_ColorScore>  (59) 
-5.728

>  <ROCS_Overlap>  (59) 
704.435

>  <ROCS_Rank>  (59) 
112                 

$$$$
untitled-dbase-1589_20
     RDKit          3D

 12 12  0  0  0  0  0  0  0  0999 V2000
   -4.6001   12.4868  -29.8441 C   0  0  0  0  0  0  0  0  0  0  0  0
   -4.3380   12.1644  -31.1756 C   0  0  0  0  0  0  0  0  0  0  0  0
   -5.5778   11.7874  -29.1365 C   0  0  0  0  0  0  0  0  0  0  0  0
   -5.0537   11.1426  -31.7996 C   0  0  0  0  0  0  0  0  0  0  0  0
   -6.2935   10.7656  -29.7605 C   0  0  0  0  0  0  0  0  0  0  0  0
   -6.0314   10.4432  -31.0921 C   0  0  0  0  0  0  0  0  0  0  0  0
   -4.7352   10.8361  -33.2277 C   0  0  0  0  0  0  0  0  0  0  0  0
   -5.3393   11.8440  -34.2055 C   0  0  0  0  0  0  0  0  0  0  0  0
   -7.2962   10.7330  -34.7648 N   0  0  0  0  0  0  0  0  0  0  0  0
   -7.2418   10.1046  -29.0376 O   0  0  0  0  0  0  0  0  0  0  0  0
   -6.7521   11.8757  -34.0483 O   0  0  0  0  0  0  0  0  0  0  0  0
   -7.0139    9.0470  -31.9326 Br  0  0  0  0  0  0  0  0  0  0  0  0
  1  2  2  0
  1  3  1  0
  2  4  1  0
  3  5  2  0
  4  6  2  0
  4  7  1  0
  5  6  1  0
  5 10  1  0
  6 12  1  0
  7  8  1  0
  8 11  1  0
  9 11  1  0
M  END
>  <id>  (60) 
EN300-1904522

>  <smiles>  (60) 
NOCCC=1C=CC=C(O)C1Br

>  <IUPAC Name>  (60) 
3-[2-(aminooxy)ethyl]-2-bromophenol

>  <CAS>  (60) 
2228574-21-6

>  <URL>  (60) 
https://www.enaminestore.com/catalog/EN300-1904522

>  <ROCS_ShapeQuery>  (60) 
_x1604L0AP1_x0771L0AP1

>  <ROCS_TanimotoCombo>  (60) 
0.924 

>  <ROCS_ShapeTanimoto>  (60) 
0.473 

>  <ROCS_ColorTanimoto>  (60) 
0.451 

>  <ROCS_RefTversky>  (60) 
0.427 

>  <ROCS_RefColorTversky>  (60) 
0.432 

>  <ROCS_RefTverskyCombo>  (60) 
0.858 

>  <ROCS_FitTversky>  (60) 
1.297 

>  <ROCS_FitColorTversky>  (60) 
1.114 

>  <ROCS_FitTverskyCombo>  (60) 
2.410 

>  <ROCS_ColorScore>  (60) 
-4.883

>  <ROCS_Overlap>  (60) 
722.396

>  <ROCS_Rank>  (60) 
114                 

$$$$
untitled-dbase-1406_43
     RDKit          3D

 11 11  0  0  0  0  0  0  0  0999 V2000
   -4.6059   12.4914  -29.8546 C   0  0  0  0  0  0  0  0  0  0  0  0
   -4.3533   12.1738  -31.1890 C   0  0  0  0  0  0  0  0  0  0  0  0
   -5.5765   11.7875  -29.1417 C   0  0  0  0  0  0  0  0  0  0  0  0
   -5.0713   11.1522  -31.8107 C   0  0  0  0  0  0  0  0  0  0  0  0
   -6.2945   10.7659  -29.7634 C   0  0  0  0  0  0  0  0  0  0  0  0
   -6.0419   10.4482  -31.0979 C   0  0  0  0  0  0  0  0  0  0  0  0
   -4.7631   10.8509  -33.2422 C   0  0  0  0  0  0  0  0  0  0  0  0
   -6.6098   12.2253  -33.5213 N   0  0  0  0  0  0  0  0  0  0  0  0
   -7.2357   10.1003  -29.0352 O   0  0  0  0  0  0  0  0  0  0  0  0
   -5.9353   11.0386  -34.0236 O   0  0  0  0  0  0  0  0  0  0  0  0
   -7.0275    9.0524  -31.9352 Br  0  0  0  0  0  0  0  0  0  0  0  0
  1  2  2  0
  1  3  1  0
  2  4  1  0
  3  5  2  0
  4  6  2  0
  4  7  1  0
  5  6  1  0
  5  9  1  0
  6 11  1  0
  7 10  1  0
  8 10  1  0
M  END
>  <id>  (61) 
EN300-1904519

>  <smiles>  (61) 
NOCC=1C=CC=C(O)C1Br

>  <MDLNUMBER>  (61) 
MFCD33499664

>  <IUPAC Name>  (61) 
3-[(aminooxy)methyl]-2-bromophenol

>  <CAS>  (61) 
20978-38-5

>  <URL>  (61) 
https://www.enaminestore.com/catalog/EN300-1904519

>  <ROCS_ShapeQuery>  (61) 
_x1604L0AP1_x0771L0AP1

>  <ROCS_TanimotoCombo>  (61) 
0.924 

>  <ROCS_ShapeTanimoto>  (61) 
0.473 

>  <ROCS_ColorTanimoto>  (61) 
0.451 

>  <ROCS_RefTversky>  (61) 
0.420 

>  <ROCS_RefColorTversky>  (61) 
0.432 

>  <ROCS_RefTverskyCombo>  (61) 
0.852 

>  <ROCS_FitTversky>  (61) 
1.361 

>  <ROCS_FitColorTversky>  (61) 
1.113 

>  <ROCS_FitTverskyCombo>  (61) 
2.474 

>  <ROCS_ColorScore>  (61) 
-4.883

>  <ROCS_Overlap>  (61) 
710.096

>  <ROCS_Rank>  (61) 
116                 

$$$$
untitled-dbase-2303_8
     RDKit          3D

 16 17  0  0  0  0  0  0  0  0999 V2000
   -3.3470   12.8659  -31.9154 C   0  0  0  0  0  0  0  0  0  0  0  0
   -5.0734   11.1281  -31.8103 C   0  0  0  0  0  0  0  0  0  0  0  0
   -2.6555   13.8698  -31.2548 C   0  0  0  0  0  0  0  0  0  0  0  0
   -3.8191   13.5216  -29.3055 C   0  0  0  0  0  0  0  0  0  0  0  0
   -4.3295   12.1586  -31.2128 C   0  0  0  0  0  0  0  0  0  0  0  0
   -4.5783   12.4921  -29.8653 C   0  0  0  0  0  0  0  0  0  0  0  0
   -6.2896   10.7734  -29.7520 C   0  0  0  0  0  0  0  0  0  0  0  0
   -5.5601   11.7941  -29.1428 C   0  0  0  0  0  0  0  0  0  0  0  0
   -6.0468   10.4412  -31.0828 C   0  0  0  0  0  0  0  0  0  0  0  0
   -2.8662   14.2163  -29.9671 N   0  0  0  0  0  0  0  0  0  0  0  0
   -6.3601   10.9662  -26.7998 O   0  0  0  0  0  0  0  0  0  0  0  0
   -4.8636   13.0139  -26.9233 O   0  0  0  0  0  0  0  0  0  0  0  0
   -7.2410   10.0995  -29.0408 O   0  0  0  0  0  0  0  0  0  0  0  0
   -5.9107   12.1724  -27.4592 S   0  0  0  0  0  0  0  0  0  0  0  0
   -7.5474   13.3849  -27.6286 Cl  0  0  0  0  0  0  0  0  0  0  0  0
   -7.0192    9.0602  -31.9460 Br  0  0  0  0  0  0  0  0  0  0  0  0
  1  3  2  0
  1  5  1  0
  2  5  2  0
  2  9  1  0
  3 10  1  0
  4  6  1  0
  4 10  2  0
  5  6  1  0
  6  8  2  0
  7  8  1  0
  7  9  2  0
  7 13  1  0
  8 14  1  0
  9 16  1  0
 11 14  2  0
 12 14  2  0
 14 15  1  0
M  END
>  <id>  (62) 
EN300-43394975

>  <smiles>  (62) 
OC=1C(Br)=CC=2C=CN=CC2C1S(=O)(=O)Cl

>  <IUPAC Name>  (62) 
6-bromo-7-hydroxyisoquinoline-8-sulfonyl chloride

>  <URL>  (62) 
https://www.enaminestore.com/catalog/EN300-43394975

>  <ROCS_ShapeQuery>  (62) 
_x1604L0AP1_x0771L0AP1

>  <ROCS_TanimotoCombo>  (62) 
0.922 

>  <ROCS_ShapeTanimoto>  (62) 
0.541 

>  <ROCS_ColorTanimoto>  (62) 
0.381 

>  <ROCS_RefTversky>  (62) 
0.505 

>  <ROCS_RefColorTversky>  (62) 
0.428 

>  <ROCS_RefTverskyCombo>  (62) 
0.933 

>  <ROCS_FitTversky>  (62) 
1.153 

>  <ROCS_FitColorTversky>  (62) 
0.776 

>  <ROCS_FitTverskyCombo>  (62) 
1.930 

>  <ROCS_ColorScore>  (62) 
-4.884

>  <ROCS_Overlap>  (62) 
859.812

>  <ROCS_Rank>  (62) 
118                 

$$$$
untitled-dbase-1742_40
     RDKit          3D

 12 12  0  0  1  0  0  0  0  0999 V2000
   -4.6089   12.4957  -29.8424 C   0  0  0  0  0  0  0  0  0  0  0  0
   -4.3518   12.1808  -31.1767 C   0  0  0  0  0  0  0  0  0  0  0  0
   -5.5809   11.7894  -29.1339 C   0  0  0  0  0  0  0  0  0  0  0  0
   -5.0667   11.1595  -31.8025 C   0  0  0  0  0  0  0  0  0  0  0  0
   -6.2958   10.7681  -29.7597 C   0  0  0  0  0  0  0  0  0  0  0  0
   -6.0387   10.4532  -31.0940 C   0  0  0  0  0  0  0  0  0  0  0  0
   -3.3138   11.2060  -33.6120 C   0  0  0  0  0  0  0  0  0  0  0  0
   -4.7537   10.8613  -33.2336 C   0  0  2  0  0  0  0  0  0  0  0  0
   -6.9012   10.9161  -34.1063 N   0  0  0  0  0  0  0  0  0  0  0  0
   -7.2386   10.1002  -29.0357 O   0  0  0  0  0  0  0  0  0  0  0  0
   -5.6328   11.6208  -34.0692 O   0  0  0  0  0  0  0  0  0  0  0  0
   -7.0202    9.0578  -31.9370 Br  0  0  0  0  0  0  0  0  0  0  0  0
  1  2  2  0
  1  3  1  0
  2  4  1  0
  3  5  2  0
  4  6  2  0
  4  8  1  0
  5  6  1  0
  5 10  1  0
  6 12  1  0
  8  7  1  6
  8 11  1  0
  9 11  1  0
M  END
>  <id>  (63) 
EN300-1904532

>  <smiles>  (63) 
CC(ON)C=1C=CC=C(O)C1Br

>  <IUPAC Name>  (63) 
3-[1-(aminooxy)ethyl]-2-bromophenol

>  <CAS>  (63) 
2229348-42-7

>  <URL>  (63) 
https://www.enaminestore.com/catalog/EN300-1904532

>  <ROCS_ShapeQuery>  (63) 
_x1604L0AP1_x0771L0AP1

>  <ROCS_TanimotoCombo>  (63) 
0.922 

>  <ROCS_ShapeTanimoto>  (63) 
0.470 

>  <ROCS_ColorTanimoto>  (63) 
0.451 

>  <ROCS_RefTversky>  (63) 
0.427 

>  <ROCS_RefColorTversky>  (63) 
0.432 

>  <ROCS_RefTverskyCombo>  (63) 
0.858 

>  <ROCS_FitTversky>  (63) 
1.280 

>  <ROCS_FitColorTversky>  (63) 
1.114 

>  <ROCS_FitTverskyCombo>  (63) 
2.393 

>  <ROCS_ColorScore>  (63) 
-4.883

>  <ROCS_Overlap>  (63) 
722.069

>  <ROCS_Rank>  (63) 
119                 

$$$$
untitled-dbase-853_77
     RDKit          3D

 12 12  0  0  0  0  0  0  0  0999 V2000
   -4.5744   12.4555  -29.8209 C   0  0  0  0  0  0  0  0  0  0  0  0
   -5.5603   11.7642  -29.1169 C   0  0  0  0  0  0  0  0  0  0  0  0
   -5.0487   11.1314  -31.7853 C   0  0  0  0  0  0  0  0  0  0  0  0
   -4.3186   12.1391  -31.1552 C   0  0  0  0  0  0  0  0  0  0  0  0
   -6.2904   10.7565  -29.7470 C   0  0  0  0  0  0  0  0  0  0  0  0
   -6.0346   10.4400  -31.0812 C   0  0  0  0  0  0  0  0  0  0  0  0
   -3.2899   12.8598  -31.8884 C   0  0  0  0  0  0  0  0  0  0  0  0
   -3.4102   14.3779  -32.0613 C   0  0  0  0  0  0  0  0  0  0  0  0
   -2.3152   12.2501  -32.3737 O   0  0  0  0  0  0  0  0  0  0  0  0
   -7.2474   10.1006  -29.0313 O   0  0  0  0  0  0  0  0  0  0  0  0
   -3.4081   15.2178  -30.4967 Cl  0  0  0  0  0  0  0  0  0  0  0  0
   -7.0075    9.0774  -31.9697 Br  0  0  0  0  0  0  0  0  0  0  0  0
  1  2  2  0
  1  4  1  0
  2  5  1  0
  3  4  2  0
  3  6  1  0
  4  7  1  0
  5  6  2  0
  5 10  1  0
  6 12  1  0
  7  8  1  0
  7  9  2  0
  8 11  1  0
M  END
>  <id>  (64) 
EN300-1911789

>  <smiles>  (64) 
OC=1C=CC(=CC1Br)C(=O)CCl

>  <MDLNUMBER>  (64) 
MFCD28741207

>  <IUPAC Name>  (64) 
1-(3-bromo-4-hydroxyphenyl)-2-chloroethan-1-one

>  <CAS>  (64) 
1807163-83-2

>  <URL>  (64) 
https://www.enaminestore.com/catalog/EN300-1911789

>  <ROCS_ShapeQuery>  (64) 
_x1604L0AP1_x0771L0AP1

>  <ROCS_TanimotoCombo>  (64) 
0.920 

>  <ROCS_ShapeTanimoto>  (64) 
0.507 

>  <ROCS_ColorTanimoto>  (64) 
0.413 

>  <ROCS_RefTversky>  (64) 
0.448 

>  <ROCS_RefColorTversky>  (64) 
0.429 

>  <ROCS_RefTverskyCombo>  (64) 
0.877 

>  <ROCS_FitTversky>  (64) 
1.354 

>  <ROCS_FitColorTversky>  (64) 
0.914 

>  <ROCS_FitTverskyCombo>  (64) 
2.268 

>  <ROCS_ColorScore>  (64) 
-4.878

>  <ROCS_Overlap>  (64) 
758.277

>  <ROCS_Rank>  (64) 
122                 

$$$$
untitled-dbase-1527_0
     RDKit          3D

 12 12  0  0  0  0  0  0  0  0999 V2000
   -5.0734   11.1235  -31.8160 C   0  0  0  0  0  0  0  0  0  0  0  0
   -5.5288   11.8042  -29.1492 C   0  0  0  0  0  0  0  0  0  0  0  0
   -6.2706   10.7843  -29.7451 C   0  0  0  0  0  0  0  0  0  0  0  0
   -4.5593   12.4838  -29.8867 C   0  0  0  0  0  0  0  0  0  0  0  0
   -4.3317   12.1434  -31.2201 C   0  0  0  0  0  0  0  0  0  0  0  0
   -6.0430   10.4439  -31.0785 C   0  0  0  0  0  0  0  0  0  0  0  0
   -5.7533   12.1760  -27.7585 C   0  0  0  0  0  0  0  0  0  0  0  0
   -6.5924   11.6247  -27.0433 O   0  0  0  0  0  0  0  0  0  0  0  0
   -7.2181   10.1276  -29.0139 O   0  0  0  0  0  0  0  0  0  0  0  0
   -3.8464   13.4636  -29.3101 F   0  0  0  0  0  0  0  0  0  0  0  0
   -3.1370   12.9781  -32.1359 Cl  0  0  0  0  0  0  0  0  0  0  0  0
   -7.0307    9.0640  -31.9241 Br  0  0  0  0  0  0  0  0  0  0  0  0
  1  5  2  0
  1  6  1  0
  2  3  1  0
  2  4  2  0
  2  7  1  0
  3  6  2  0
  3  9  1  0
  4  5  1  0
  4 10  1  0
  5 11  1  0
  6 12  1  0
  7  8  2  0
M  END
>  <id>  (65) 
EN300-1276473

>  <smiles>  (65) 
OC=1C(Br)=CC(Cl)=C(F)C1C=O

>  <MDLNUMBER>  (65) 
MFCD29934849

>  <IUPAC Name>  (65) 
3-bromo-5-chloro-6-fluoro-2-hydroxybenzaldehyde

>  <CAS>  (65) 
1692795-76-8

>  <URL>  (65) 
https://www.enaminestore.com/catalog/EN300-1276473

>  <ROCS_ShapeQuery>  (65) 
_x1604L0AP1_x0771L0AP1

>  <ROCS_TanimotoCombo>  (65) 
0.919 

>  <ROCS_ShapeTanimoto>  (65) 
0.495 

>  <ROCS_ColorTanimoto>  (65) 
0.424 

>  <ROCS_RefTversky>  (65) 
0.443 

>  <ROCS_RefColorTversky>  (65) 
0.437 

>  <ROCS_RefTverskyCombo>  (65) 
0.881 

>  <ROCS_FitTversky>  (65) 
1.310 

>  <ROCS_FitColorTversky>  (65) 
0.931 

>  <ROCS_FitTverskyCombo>  (65) 
2.242 

>  <ROCS_ColorScore>  (65) 
-4.972

>  <ROCS_Overlap>  (65) 
750.433

>  <ROCS_Rank>  (65) 
127                 

$$$$
untitled-dbase-1322_5
     RDKit          3D

 14 14  0  0  0  0  0  0  0  0999 V2000
   -4.5834   12.4690  -29.8106 C   0  0  0  0  0  0  0  0  0  0  0  0
   -5.0509   11.1403  -31.7735 C   0  0  0  0  0  0  0  0  0  0  0  0
   -5.5675   11.7752  -29.1065 C   0  0  0  0  0  0  0  0  0  0  0  0
   -6.2933   10.7639  -29.7359 C   0  0  0  0  0  0  0  0  0  0  0  0
   -4.3251   12.1516  -31.1441 C   0  0  0  0  0  0  0  0  0  0  0  0
   -6.0350   10.4465  -31.0694 C   0  0  0  0  0  0  0  0  0  0  0  0
   -5.0217   13.1422  -27.2385 C   0  0  0  0  0  0  0  0  0  0  0  0
   -3.3929   12.9037  -33.4388 O   0  0  0  0  0  0  0  0  0  0  0  0
   -2.9014   14.3014  -31.3731 O   0  0  0  0  0  0  0  0  0  0  0  0
   -7.2518   10.0968  -29.0301 O   0  0  0  0  0  0  0  0  0  0  0  0
   -5.8088   12.0962  -27.8045 O   0  0  0  0  0  0  0  0  0  0  0  0
   -1.7238   12.2410  -31.8233 F   0  0  0  0  0  0  0  0  0  0  0  0
   -3.0931   13.0205  -32.0250 S   0  0  0  0  0  0  0  0  0  0  0  0
   -7.0003    9.0787  -31.9588 Br  0  0  0  0  0  0  0  0  0  0  0  0
  1  3  2  0
  1  5  1  0
  2  5  2  0
  2  6  1  0
  3  4  1  0
  3 11  1  0
  4  6  2  0
  4 10  1  0
  5 13  1  0
  6 14  1  0
  7 11  1  0
  8 13  2  0
  9 13  2  0
 12 13  1  0
M  END
>  <id>  (66) 
EN300-6493422

>  <smiles>  (66) 
COC=1C=C(C=C(Br)C1O)S(=O)(=O)F

>  <IUPAC Name>  (66) 
3-bromo-4-hydroxy-5-methoxybenzene-1-sulfonyl fluoride

>  <CAS>  (66) 
2247103-05-3

>  <URL>  (66) 
https://www.enaminestore.com/catalog/EN300-6493422

>  <ROCS_ShapeQuery>  (66) 
_x1604L0AP1_x0771L0AP1

>  <ROCS_TanimotoCombo>  (66) 
0.918 

>  <ROCS_ShapeTanimoto>  (66) 
0.503 

>  <ROCS_ColorTanimoto>  (66) 
0.415 

>  <ROCS_RefTversky>  (66) 
0.461 

>  <ROCS_RefColorTversky>  (66) 
0.431 

>  <ROCS_RefTverskyCombo>  (66) 
0.892 

>  <ROCS_FitTversky>  (66) 
1.219 

>  <ROCS_FitColorTversky>  (66) 
0.918 

>  <ROCS_FitTverskyCombo>  (66) 
2.137 

>  <ROCS_ColorScore>  (66) 
-4.898

>  <ROCS_Overlap>  (66) 
782.575

>  <ROCS_Rank>  (66) 
131                 

$$$$
untitled-dbase-2129_8
     RDKit          3D

 13 13  0  0  0  0  0  0  0  0999 V2000
   -5.0688   11.1179  -31.8145 C   0  0  0  0  0  0  0  0  0  0  0  0
   -5.5234   11.8037  -29.1488 C   0  0  0  0  0  0  0  0  0  0  0  0
   -6.2677   10.7849  -29.7435 C   0  0  0  0  0  0  0  0  0  0  0  0
   -4.5517   12.4796  -29.8869 C   0  0  0  0  0  0  0  0  0  0  0  0
   -4.3245   12.1367  -31.2198 C   0  0  0  0  0  0  0  0  0  0  0  0
   -6.0404   10.4420  -31.0764 C   0  0  0  0  0  0  0  0  0  0  0  0
   -5.7474   12.1781  -27.7588 C   0  0  0  0  0  0  0  0  0  0  0  0
   -4.9041   13.2839  -27.1966 C   0  0  0  0  0  0  0  0  0  0  0  0
   -6.5728   11.6514  -27.0122 O   0  0  0  0  0  0  0  0  0  0  0  0
   -7.2172   10.1318  -29.0117 O   0  0  0  0  0  0  0  0  0  0  0  0
   -3.8364   13.4583  -29.3115 F   0  0  0  0  0  0  0  0  0  0  0  0
   -3.1273   12.9669  -32.1363 Cl  0  0  0  0  0  0  0  0  0  0  0  0
   -7.0316    9.0636  -31.9204 Br  0  0  0  0  0  0  0  0  0  0  0  0
  1  5  2  0
  1  6  1  0
  2  3  1  0
  2  4  2  0
  2  7  1  0
  3  6  2  0
  3 10  1  0
  4  5  1  0
  4 11  1  0
  5 12  1  0
  6 13  1  0
  7  8  1  0
  7  9  2  0
M  END
>  <id>  (67) 
EN300-1276915

>  <smiles>  (67) 
CC(=O)C=1C(O)=C(Br)C=C(Cl)C1F

>  <IUPAC Name>  (67) 
1-(3-bromo-5-chloro-6-fluoro-2-hydroxyphenyl)ethan-1-one

>  <CAS>  (67) 
1697975-75-9

>  <URL>  (67) 
https://www.enaminestore.com/catalog/EN300-1276915

>  <ROCS_ShapeQuery>  (67) 
_x1604L0AP1_x0771L0AP1

>  <ROCS_TanimotoCombo>  (67) 
0.917 

>  <ROCS_ShapeTanimoto>  (67) 
0.492 

>  <ROCS_ColorTanimoto>  (67) 
0.425 

>  <ROCS_RefTversky>  (67) 
0.449 

>  <ROCS_RefColorTversky>  (67) 
0.439 

>  <ROCS_RefTverskyCombo>  (67) 
0.888 

>  <ROCS_FitTversky>  (67) 
1.242 

>  <ROCS_FitColorTversky>  (67) 
0.934 

>  <ROCS_FitTverskyCombo>  (67) 
2.176 

>  <ROCS_ColorScore>  (67) 
-4.984

>  <ROCS_Overlap>  (67) 
761.237

>  <ROCS_Rank>  (67) 
135                 

$$$$
untitled-dbase-395_45
     RDKit          3D

 12 12  0  0  0  0  0  0  0  0999 V2000
   -4.6055   12.4837  -29.8401 C   0  0  0  0  0  0  0  0  0  0  0  0
   -5.5807   11.7834  -29.1301 C   0  0  0  0  0  0  0  0  0  0  0  0
   -5.0707   11.1467  -31.7979 C   0  0  0  0  0  0  0  0  0  0  0  0
   -4.3505   12.1654  -31.1741 C   0  0  0  0  0  0  0  0  0  0  0  0
   -6.3009   10.7647  -29.7540 C   0  0  0  0  0  0  0  0  0  0  0  0
   -6.0460   10.4463  -31.0879 C   0  0  0  0  0  0  0  0  0  0  0  0
   -2.6239   13.9870  -31.0988 C   0  0  0  0  0  0  0  0  0  0  0  0
   -3.3075   12.9146  -31.9321 C   0  0  0  0  0  0  0  0  0  0  0  0
   -1.5577   13.5583  -30.3531 N   0  0  0  0  0  0  0  0  0  0  0  0
   -7.2460   10.0984  -29.0320 O   0  0  0  0  0  0  0  0  0  0  0  0
   -3.1425   15.5767  -31.0692 S   0  0  0  0  0  0  0  0  0  0  0  0
   -7.0041    9.0672  -31.9669 Br  0  0  0  0  0  0  0  0  0  0  0  0
  1  2  2  0
  1  4  1  0
  2  5  1  0
  3  4  2  0
  3  6  1  0
  4  8  1  0
  5  6  2  0
  5 10  1  0
  6 12  1  0
  7  8  1  0
  7  9  1  0
  7 11  2  0
M  END
>  <id>  (68) 
EN300-1904770

>  <smiles>  (68) 
NC(=S)CC=1C=CC(O)=C(Br)C1

>  <IUPAC Name>  (68) 
2-(3-bromo-4-hydroxyphenyl)ethanethioamide

>  <CAS>  (68) 
2229361-28-6

>  <URL>  (68) 
https://www.enaminestore.com/catalog/EN300-1904770

>  <ROCS_ShapeQuery>  (68) 
_x1604L0AP1_x0771L0AP1

>  <ROCS_TanimotoCombo>  (68) 
0.917 

>  <ROCS_ShapeTanimoto>  (68) 
0.504 

>  <ROCS_ColorTanimoto>  (68) 
0.413 

>  <ROCS_RefTversky>  (68) 
0.445 

>  <ROCS_RefColorTversky>  (68) 
0.429 

>  <ROCS_RefTverskyCombo>  (68) 
0.874 

>  <ROCS_FitTversky>  (68) 
1.359 

>  <ROCS_FitColorTversky>  (68) 
0.914 

>  <ROCS_FitTverskyCombo>  (68) 
2.274 

>  <ROCS_ColorScore>  (68) 
-4.878

>  <ROCS_Overlap>  (68) 
752.812

>  <ROCS_Rank>  (68) 
139                 

$$$$
untitled-dbase-2067_1
     RDKit          3D

 11 11  0  0  0  0  0  0  0  0999 V2000
   -5.5759   11.7907  -29.1484 C   0  0  0  0  0  0  0  0  0  0  0  0
   -4.3589   12.1661  -31.2015 C   0  0  0  0  0  0  0  0  0  0  0  0
   -4.6069   12.4903  -29.8676 C   0  0  0  0  0  0  0  0  0  0  0  0
   -6.2969   10.7669  -29.7630 C   0  0  0  0  0  0  0  0  0  0  0  0
   -5.0800   11.1424  -31.8161 C   0  0  0  0  0  0  0  0  0  0  0  0
   -6.0489   10.4428  -31.0968 C   0  0  0  0  0  0  0  0  0  0  0  0
   -2.9275   14.1629  -30.0617 C   0  0  0  0  0  0  0  0  0  0  0  0
   -7.2371   10.1038  -29.0319 O   0  0  0  0  0  0  0  0  0  0  0  0
   -3.9031   13.4890  -29.2680 O   0  0  0  0  0  0  0  0  0  0  0  0
   -4.8263   10.8456  -33.0989 F   0  0  0  0  0  0  0  0  0  0  0  0
   -7.0169    9.0568  -31.9565 Br  0  0  0  0  0  0  0  0  0  0  0  0
  1  3  2  0
  1  4  1  0
  2  3  1  0
  2  5  2  0
  3  9  1  0
  4  6  2  0
  4  8  1  0
  5  6  1  0
  5 10  1  0
  6 11  1  0
  7  9  1  0
M  END
>  <id>  (69) 
EN300-6807267

>  <smiles>  (69) 
COC=1C=C(O)C(Br)=C(F)C1

>  <MDLNUMBER>  (69) 
MFCD28738848

>  <IUPAC Name>  (69) 
2-bromo-3-fluoro-5-methoxyphenol

>  <CAS>  (69) 
1785528-41-7

>  <Purity>  (69) 
95

>  <URL>  (69) 
https://www.enaminestore.com/catalog/EN300-6807267

>  <ROCS_ShapeQuery>  (69) 
_x1604L0AP1_x0771L0AP1

>  <ROCS_TanimotoCombo>  (69) 
0.917 

>  <ROCS_ShapeTanimoto>  (69) 
0.504 

>  <ROCS_ColorTanimoto>  (69) 
0.413 

>  <ROCS_RefTversky>  (69) 
0.441 

>  <ROCS_RefColorTversky>  (69) 
0.429 

>  <ROCS_RefTverskyCombo>  (69) 
0.870 

>  <ROCS_FitTversky>  (69) 
1.399 

>  <ROCS_FitColorTversky>  (69) 
0.915 

>  <ROCS_FitTverskyCombo>  (69) 
2.314 

>  <ROCS_ColorScore>  (69) 
-4.879

>  <ROCS_Overlap>  (69) 
745.117

>  <ROCS_Rank>  (69) 
140                 

$$$$
untitled-dbase-1751_97
     RDKit          3D

 14 14  0  0  0  0  0  0  0  0999 V2000
   -3.4548   14.9519  -30.5558 C   0  0  0  0  0  0  0  0  0  0  0  0
   -4.5615   12.4496  -29.8150 C   0  0  0  0  0  0  0  0  0  0  0  0
   -5.0377   11.1218  -31.7764 C   0  0  0  0  0  0  0  0  0  0  0  0
   -4.3042   12.1279  -31.1476 C   0  0  0  0  0  0  0  0  0  0  0  0
   -5.5524   11.7652  -29.1111 C   0  0  0  0  0  0  0  0  0  0  0  0
   -6.2859   10.7591  -29.7399 C   0  0  0  0  0  0  0  0  0  0  0  0
   -6.0285   10.4374  -31.0726 C   0  0  0  0  0  0  0  0  0  0  0  0
   -5.0487   11.3871  -26.8179 C   0  0  0  0  0  0  0  0  0  0  0  0
   -2.5250   13.9384  -31.0756 C   0  0  0  0  0  0  0  0  0  0  0  0
   -3.2454   12.8606  -31.9001 C   0  0  0  0  0  0  0  0  0  0  0  0
   -4.1880   15.7511  -30.1436 N   0  0  0  0  0  0  0  0  0  0  0  0
   -7.2516   10.1017  -29.0350 O   0  0  0  0  0  0  0  0  0  0  0  0
   -5.7925   12.0912  -27.8103 O   0  0  0  0  0  0  0  0  0  0  0  0
   -7.0046    9.0764  -31.9608 Br  0  0  0  0  0  0  0  0  0  0  0  0
  1  9  1  0
  1 11  3  0
  2  4  2  0
  2  5  1  0
  3  4  1  0
  3  7  2  0
  4 10  1  0
  5  6  2  0
  5 13  1  0
  6  7  1  0
  6 12  1  0
  7 14  1  0
  8 13  1  0
  9 10  1  0
M  END
>  <id>  (70) 
EN300-1926989

>  <smiles>  (70) 
COC=1C=C(CCC#N)C=C(Br)C1O

>  <IUPAC Name>  (70) 
3-(3-bromo-4-hydroxy-5-methoxyphenyl)propanenitrile

>  <CAS>  (70) 
1904638-35-2

>  <URL>  (70) 
https://www.enaminestore.com/catalog/EN300-1926989

>  <ROCS_ShapeQuery>  (70) 
_x1604L0AP1_x0771L0AP1

>  <ROCS_TanimotoCombo>  (70) 
0.916 

>  <ROCS_ShapeTanimoto>  (70) 
0.534 

>  <ROCS_ColorTanimoto>  (70) 
0.383 

>  <ROCS_RefTversky>  (70) 
0.480 

>  <ROCS_RefColorTversky>  (70) 
0.429 

>  <ROCS_RefTverskyCombo>  (70) 
0.909 

>  <ROCS_FitTversky>  (70) 
1.264 

>  <ROCS_FitColorTversky>  (70) 
0.779 

>  <ROCS_FitTverskyCombo>  (70) 
2.043 

>  <ROCS_ColorScore>  (70) 
-4.898

>  <ROCS_Overlap>  (70) 
814.880

>  <ROCS_Rank>  (70) 
143                 

$$$$
untitled-dbase-1533_0
     RDKit          3D

 11 11  0  0  0  0  0  0  0  0999 V2000
   -5.0772   11.1456  -31.8112 C   0  0  0  0  0  0  0  0  0  0  0  0
   -5.5750   11.7903  -29.1430 C   0  0  0  0  0  0  0  0  0  0  0  0
   -4.3555   12.1674  -31.1942 C   0  0  0  0  0  0  0  0  0  0  0  0
   -6.2968   10.7685  -29.7600 C   0  0  0  0  0  0  0  0  0  0  0  0
   -4.6043   12.4897  -29.8601 C   0  0  0  0  0  0  0  0  0  0  0  0
   -6.0479   10.4462  -31.0941 C   0  0  0  0  0  0  0  0  0  0  0  0
   -3.3502   12.8704  -31.9824 C   0  0  0  0  0  0  0  0  0  0  0  0
   -2.3833   12.3036  -32.4943 O   0  0  0  0  0  0  0  0  0  0  0  0
   -7.2383   10.1034  -29.0323 O   0  0  0  0  0  0  0  0  0  0  0  0
   -3.7334   13.7474  -29.0594 Cl  0  0  0  0  0  0  0  0  0  0  0  0
   -7.0099    9.0632  -31.9635 Br  0  0  0  0  0  0  0  0  0  0  0  0
  1  3  2  0
  1  6  1  0
  2  4  1  0
  2  5  2  0
  3  5  1  0
  3  7  1  0
  4  6  2  0
  4  9  1  0
  5 10  1  0
  6 11  1  0
  7  8  2  0
M  END
>  <id>  (71) 
EN300-1276897

>  <smiles>  (71) 
OC=1C=C(Cl)C(C=O)=CC1Br

>  <MDLNUMBER>  (71) 
MFCD30661254

>  <IUPAC Name>  (71) 
5-bromo-2-chloro-4-hydroxybenzaldehyde

>  <CAS>  (71) 
957774-27-5

>  <Purity>  (71) 
95

>  <URL>  (71) 
https://www.enaminestore.com/catalog/EN300-1276897

>  <MP>  (71) 
149-153

>  <ROCS_ShapeQuery>  (71) 
_x1604L0AP1_x0771L0AP1

>  <ROCS_TanimotoCombo>  (71) 
0.916 

>  <ROCS_ShapeTanimoto>  (71) 
0.503 

>  <ROCS_ColorTanimoto>  (71) 
0.413 

>  <ROCS_RefTversky>  (71) 
0.438 

>  <ROCS_RefColorTversky>  (71) 
0.429 

>  <ROCS_RefTverskyCombo>  (71) 
0.867 

>  <ROCS_FitTversky>  (71) 
1.420 

>  <ROCS_FitColorTversky>  (71) 
0.914 

>  <ROCS_FitTverskyCombo>  (71) 
2.334 

>  <ROCS_ColorScore>  (71) 
-4.878

>  <ROCS_Overlap>  (71) 
740.596

>  <ROCS_Rank>  (71) 
145                 

$$$$
untitled-dbase-2317_0
     RDKit          3D

 11 11  0  0  0  0  0  0  0  0999 V2000
   -5.5789   11.7946  -29.1474 C   0  0  0  0  0  0  0  0  0  0  0  0
   -5.0821   11.1467  -31.8150 C   0  0  0  0  0  0  0  0  0  0  0  0
   -6.2983   10.7697  -29.7617 C   0  0  0  0  0  0  0  0  0  0  0  0
   -4.3626   12.1717  -31.2006 C   0  0  0  0  0  0  0  0  0  0  0  0
   -4.6111   12.4957  -29.8668 C   0  0  0  0  0  0  0  0  0  0  0  0
   -6.0499   10.4457  -31.0955 C   0  0  0  0  0  0  0  0  0  0  0  0
   -2.0875   12.3443  -31.8713 C   0  0  0  0  0  0  0  0  0  0  0  0
   -7.2363   10.1034  -29.0308 O   0  0  0  0  0  0  0  0  0  0  0  0
   -3.4191   12.8558  -31.9036 O   0  0  0  0  0  0  0  0  0  0  0  0
   -3.9228   13.4793  -29.2713 F   0  0  0  0  0  0  0  0  0  0  0  0
   -7.0094    9.0601  -31.9628 Br  0  0  0  0  0  0  0  0  0  0  0  0
  1  3  2  0
  1  5  1  0
  2  4  1  0
  2  6  2  0
  3  6  1  0
  3  8  1  0
  4  5  2  0
  4  9  1  0
  5 10  1  0
  6 11  1  0
  7  9  1  0
M  END
>  <id>  (72) 
EN300-6825652

>  <smiles>  (72) 
COC=1C=C(Br)C(O)=CC1F

>  <MDLNUMBER>  (72) 
MFCD26390961

>  <IUPAC Name>  (72) 
2-bromo-5-fluoro-4-methoxyphenol

>  <URL>  (72) 
https://www.enaminestore.com/catalog/EN300-6825652

>  <ROCS_ShapeQuery>  (72) 
_x1604L0AP1_x0771L0AP1

>  <ROCS_TanimotoCombo>  (72) 
0.916 

>  <ROCS_ShapeTanimoto>  (72) 
0.503 

>  <ROCS_ColorTanimoto>  (72) 
0.413 

>  <ROCS_RefTversky>  (72) 
0.440 

>  <ROCS_RefColorTversky>  (72) 
0.429 

>  <ROCS_RefTverskyCombo>  (72) 
0.869 

>  <ROCS_FitTversky>  (72) 
1.397 

>  <ROCS_FitColorTversky>  (72) 
0.914 

>  <ROCS_FitTverskyCombo>  (72) 
2.311 

>  <ROCS_ColorScore>  (72) 
-4.878

>  <ROCS_Overlap>  (72) 
744.382

>  <ROCS_Rank>  (72) 
146                 

$$$$
untitled-dbase-2201_128
     RDKit          3D

 16 17  0  0  0  0  0  0  0  0999 V2000
   -4.3509   12.1801  -31.1704 C   0  0  0  0  0  0  0  0  0  0  0  0
   -4.6064   12.4970  -29.8363 C   0  0  0  0  0  0  0  0  0  0  0  0
   -5.0675   11.1588  -31.7943 C   0  0  0  0  0  0  0  0  0  0  0  0
   -5.5785   11.7926  -29.1260 C   0  0  0  0  0  0  0  0  0  0  0  0
   -6.2951   10.7713  -29.7498 C   0  0  0  0  0  0  0  0  0  0  0  0
   -6.0396   10.4544  -31.0840 C   0  0  0  0  0  0  0  0  0  0  0  0
   -4.2719    9.4605  -33.5621 C   0  0  0  0  0  0  0  0  0  0  0  0
   -3.3086   10.6055  -33.5948 C   0  0  0  0  0  0  0  0  0  0  0  0
   -4.7571   10.8565  -33.2249 C   0  0  0  0  0  0  0  0  0  0  0  0
   -5.0393   13.1697  -27.2636 C   0  0  0  0  0  0  0  0  0  0  0  0
   -5.6297   11.5617  -34.2229 C   0  0  0  0  0  0  0  0  0  0  0  0
   -6.6458    9.7307  -35.2187 N   0  0  0  0  0  0  0  0  0  0  0  0
   -7.2411   10.0971  -29.0335 O   0  0  0  0  0  0  0  0  0  0  0  0
   -5.8165   12.1131  -27.8234 O   0  0  0  0  0  0  0  0  0  0  0  0
   -6.8681   10.8698  -34.3433 O   0  0  0  0  0  0  0  0  0  0  0  0
   -7.0247    9.0585  -31.9244 Br  0  0  0  0  0  0  0  0  0  0  0  0
  1  2  2  0
  1  3  1  0
  2  4  1  0
  3  6  2  0
  3  9  1  0
  4  5  2  0
  4 14  1  0
  5  6  1  0
  5 13  1  0
  6 16  1  0
  7  8  1  0
  7  9  1  0
  8  9  1  0
  9 11  1  0
 10 14  1  0
 11 15  1  0
 12 15  1  0
M  END
>  <id>  (73) 
EN300-2004964

>  <smiles>  (73) 
COC=1C=CC(=C(Br)C1O)C2(CON)CC2

>  <IUPAC Name>  (73) 
3-{1-[(aminooxy)methyl]cyclopropyl}-2-bromo-6-methoxyphenol

>  <CAS>  (73) 
2228485-31-0

>  <URL>  (73) 
https://www.enaminestore.com/catalog/EN300-2004964

>  <ROCS_ShapeQuery>  (73) 
_x1604L0AP1_x0771L0AP1

>  <ROCS_TanimotoCombo>  (73) 
0.915 

>  <ROCS_ShapeTanimoto>  (73) 
0.500 

>  <ROCS_ColorTanimoto>  (73) 
0.415 

>  <ROCS_RefTversky>  (73) 
0.478 

>  <ROCS_RefColorTversky>  (73) 
0.431 

>  <ROCS_RefTverskyCombo>  (73) 
0.909 

>  <ROCS_FitTversky>  (73) 
1.099 

>  <ROCS_FitColorTversky>  (73) 
0.919 

>  <ROCS_FitTverskyCombo>  (73) 
2.018 

>  <ROCS_ColorScore>  (73) 
-4.902

>  <ROCS_Overlap>  (73) 
813.689

>  <ROCS_Rank>  (73) 
149                 

$$$$
untitled-dbase-2190_275
     RDKit          3D

 14 14  0  0  0  0  0  0  0  0999 V2000
   -4.5634   12.4500  -29.8050 C   0  0  0  0  0  0  0  0  0  0  0  0
   -5.0419   11.1308  -31.7716 C   0  0  0  0  0  0  0  0  0  0  0  0
   -4.3082   12.1348  -31.1395 C   0  0  0  0  0  0  0  0  0  0  0  0
   -5.5522   11.7613  -29.1024 C   0  0  0  0  0  0  0  0  0  0  0  0
   -6.2859   10.7573  -29.7344 C   0  0  0  0  0  0  0  0  0  0  0  0
   -6.0307   10.4421  -31.0690 C   0  0  0  0  0  0  0  0  0  0  0  0
   -3.5126   14.9750  -30.4947 C   0  0  0  0  0  0  0  0  0  0  0  0
   -6.7631   13.0931  -27.5481 C   0  0  0  0  0  0  0  0  0  0  0  0
   -3.2517   12.8720  -31.8906 C   0  0  0  0  0  0  0  0  0  0  0  0
   -2.5601   13.9321  -31.0282 C   0  0  0  0  0  0  0  0  0  0  0  0
   -4.5174   15.3679  -31.0776 O   0  0  0  0  0  0  0  0  0  0  0  0
   -7.2496   10.0957  -29.0307 O   0  0  0  0  0  0  0  0  0  0  0  0
   -5.7902   12.0811  -27.7996 O   0  0  0  0  0  0  0  0  0  0  0  0
   -7.0070    9.0841  -31.9617 Br  0  0  0  0  0  0  0  0  0  0  0  0
  1  3  2  0
  1  4  1  0
  2  3  1  0
  2  6  2  0
  3  9  1  0
  4  5  2  0
  4 13  1  0
  5  6  1  0
  5 12  1  0
  6 14  1  0
  7 10  1  0
  7 11  2  0
  8 13  1  0
  9 10  1  0
M  END
>  <id>  (74) 
EN300-1925697

>  <smiles>  (74) 
COC=1C=C(CCC=O)C=C(Br)C1O

>  <IUPAC Name>  (74) 
3-(3-bromo-4-hydroxy-5-methoxyphenyl)propanal

>  <CAS>  (74) 
1781650-71-2

>  <URL>  (74) 
https://www.enaminestore.com/catalog/EN300-1925697

>  <ROCS_ShapeQuery>  (74) 
_x1604L0AP1_x0771L0AP1

>  <ROCS_TanimotoCombo>  (74) 
0.915 

>  <ROCS_ShapeTanimoto>  (74) 
0.532 

>  <ROCS_ColorTanimoto>  (74) 
0.383 

>  <ROCS_RefTversky>  (74) 
0.479 

>  <ROCS_RefColorTversky>  (74) 
0.429 

>  <ROCS_RefTverskyCombo>  (74) 
0.908 

>  <ROCS_FitTversky>  (74) 
1.262 

>  <ROCS_FitColorTversky>  (74) 
0.779 

>  <ROCS_FitTverskyCombo>  (74) 
2.041 

>  <ROCS_ColorScore>  (74) 
-4.898

>  <ROCS_Overlap>  (74) 
813.591

>  <ROCS_Rank>  (74) 
151                 

$$$$
untitled-dbase-298_29
     RDKit          3D

 13 13  0  0  0  0  0  0  0  0999 V2000
   -4.6056   12.4922  -29.8522 C   0  0  0  0  0  0  0  0  0  0  0  0
   -4.3535   12.1755  -31.1870 C   0  0  0  0  0  0  0  0  0  0  0  0
   -5.5764   11.7881  -29.1397 C   0  0  0  0  0  0  0  0  0  0  0  0
   -5.0721   11.1548  -31.8094 C   0  0  0  0  0  0  0  0  0  0  0  0
   -6.2951   10.7675  -29.7621 C   0  0  0  0  0  0  0  0  0  0  0  0
   -6.0430   10.4508  -31.0970 C   0  0  0  0  0  0  0  0  0  0  0  0
   -4.7673   10.8683  -33.2062 C   0  0  0  0  0  0  0  0  0  0  0  0
   -5.8547   10.9740  -34.2647 C   0  0  0  0  0  0  0  0  0  0  0  0
   -3.6260   10.5151  -33.5539 O   0  0  0  0  0  0  0  0  0  0  0  0
   -7.2363   10.1017  -29.0340 O   0  0  0  0  0  0  0  0  0  0  0  0
   -7.0497   11.3501  -33.7332 F   0  0  0  0  0  0  0  0  0  0  0  0
   -6.0741    9.7794  -34.8732 F   0  0  0  0  0  0  0  0  0  0  0  0
   -7.0330    9.0546  -31.9313 Br  0  0  0  0  0  0  0  0  0  0  0  0
  1  2  2  0
  1  3  1  0
  2  4  1  0
  3  5  2  0
  4  6  2  0
  4  7  1  0
  5  6  1  0
  5 10  1  0
  6 13  1  0
  7  8  1  0
  7  9  2  0
  8 11  1  0
  8 12  1  0
M  END
>  <id>  (75) 
EN300-1950773

>  <smiles>  (75) 
OC=1C=CC=C(C(=O)C(F)F)C1Br

>  <IUPAC Name>  (75) 
1-(2-bromo-3-hydroxyphenyl)-2,2-difluoroethan-1-one

>  <CAS>  (75) 
2229407-70-7

>  <URL>  (75) 
https://www.enaminestore.com/catalog/EN300-1950773

>  <ROCS_ShapeQuery>  (75) 
_x1604L0AP1_x0771L0AP1

>  <ROCS_TanimotoCombo>  (75) 
0.914 

>  <ROCS_ShapeTanimoto>  (75) 
0.501 

>  <ROCS_ColorTanimoto>  (75) 
0.413 

>  <ROCS_RefTversky>  (75) 
0.456 

>  <ROCS_RefColorTversky>  (75) 
0.430 

>  <ROCS_RefTverskyCombo>  (75) 
0.885 

>  <ROCS_FitTversky>  (75) 
1.249 

>  <ROCS_FitColorTversky>  (75) 
0.915 

>  <ROCS_FitTverskyCombo>  (75) 
2.164 

>  <ROCS_ColorScore>  (75) 
-4.883

>  <ROCS_Overlap>  (75) 
772.353

>  <ROCS_Rank>  (75) 
152                 

$$$$
untitled-dbase-274_80
     RDKit          3D

 11 11  0  0  0  0  0  0  0  0999 V2000
   -4.5941   12.4740  -29.8352 C   0  0  0  0  0  0  0  0  0  0  0  0
   -5.5735   11.7778  -29.1270 C   0  0  0  0  0  0  0  0  0  0  0  0
   -5.0623   11.1397  -31.7942 C   0  0  0  0  0  0  0  0  0  0  0  0
   -4.3385   12.1550  -31.1689 C   0  0  0  0  0  0  0  0  0  0  0  0
   -6.2972   10.7625  -29.7522 C   0  0  0  0  0  0  0  0  0  0  0  0
   -6.0416   10.4434  -31.0859 C   0  0  0  0  0  0  0  0  0  0  0  0
   -3.2911   12.8999  -31.9250 C   0  0  0  0  0  0  0  0  0  0  0  0
   -3.1468   14.2586  -31.4673 N   0  0  0  0  0  0  0  0  0  0  0  0
   -7.2464   10.1001  -29.0320 O   0  0  0  0  0  0  0  0  0  0  0  0
   -2.1409   14.2231  -30.4166 O   0  0  0  0  0  0  0  0  0  0  0  0
   -7.0045    9.0688  -31.9668 Br  0  0  0  0  0  0  0  0  0  0  0  0
  1  2  2  0
  1  4  1  0
  2  5  1  0
  3  4  2  0
  3  6  1  0
  4  7  1  0
  5  6  2  0
  5  9  1  0
  6 11  1  0
  7  8  1  0
  8 10  1  0
M  END
>  <id>  (76) 
EN300-1894692

>  <smiles>  (76) 
ONCC=1C=CC(O)=C(Br)C1

>  <MDLNUMBER>  (76) 
MFCD24285085

>  <IUPAC Name>  (76) 
2-bromo-4-[(hydroxyamino)methyl]phenol

>  <CAS>  (76) 
1506580-47-7

>  <URL>  (76) 
https://www.enaminestore.com/catalog/EN300-1894692

>  <ROCS_ShapeQuery>  (76) 
_x1604L0AP1_x0771L0AP1

>  <ROCS_TanimotoCombo>  (76) 
0.914 

>  <ROCS_ShapeTanimoto>  (76) 
0.501 

>  <ROCS_ColorTanimoto>  (76) 
0.413 

>  <ROCS_RefTversky>  (76) 
0.437 

>  <ROCS_RefColorTversky>  (76) 
0.429 

>  <ROCS_RefTverskyCombo>  (76) 
0.866 

>  <ROCS_FitTversky>  (76) 
1.419 

>  <ROCS_FitColorTversky>  (76) 
0.914 

>  <ROCS_FitTverskyCombo>  (76) 
2.333 

>  <ROCS_ColorScore>  (76) 
-4.878

>  <ROCS_Overlap>  (76) 
738.082

>  <ROCS_Rank>  (76) 
154                 

$$$$
untitled-dbase-1773_17
     RDKit          3D

 12 12  0  0  1  0  0  0  0  0999 V2000
   -5.0745   11.1478  -31.8054 C   0  0  0  0  0  0  0  0  0  0  0  0
   -5.5792   11.7881  -29.1374 C   0  0  0  0  0  0  0  0  0  0  0  0
   -4.3548   12.1690  -31.1851 C   0  0  0  0  0  0  0  0  0  0  0  0
   -6.2989   10.7669  -29.7578 C   0  0  0  0  0  0  0  0  0  0  0  0
   -4.6071   12.4892  -29.8511 C   0  0  0  0  0  0  0  0  0  0  0  0
   -6.0466   10.4468  -31.0917 C   0  0  0  0  0  0  0  0  0  0  0  0
   -2.1942   12.0159  -32.4892 C   0  0  0  0  0  0  0  0  0  0  0  0
   -3.3159   12.9164  -31.9507 C   0  0  2  0  0  0  0  0  0  0  0  0
   -2.7414   14.0028  -31.1752 N   0  0  0  0  0  0  0  0  0  0  0  0
   -7.2412   10.1002  -29.0324 O   0  0  0  0  0  0  0  0  0  0  0  0
   -3.9207   13.4694  -29.2474 F   0  0  0  0  0  0  0  0  0  0  0  0
   -7.0065    9.0665  -31.9668 Br  0  0  0  0  0  0  0  0  0  0  0  0
  1  3  2  0
  1  6  1  0
  2  4  1  0
  2  5  2  0
  3  5  1  0
  3  8  1  0
  4  6  2  0
  4 10  1  0
  5 11  1  0
  6 12  1  0
  8  7  1  1
  8  9  1  0
M  END
>  <id>  (77) 
EN300-1277465

>  <smiles>  (77) 
CC(N)C=1C=C(Br)C(O)=CC1F

>  <MDLNUMBER>  (77) 
MFCD31408992

>  <IUPAC Name>  (77) 
4-(1-aminoethyl)-2-bromo-5-fluorophenol

>  <CAS>  (77) 
1780689-26-0

>  <URL>  (77) 
https://www.enaminestore.com/catalog/EN300-1277465

>  <ROCS_ShapeQuery>  (77) 
_x1604L0AP1_x0771L0AP1

>  <ROCS_TanimotoCombo>  (77) 
0.914 

>  <ROCS_ShapeTanimoto>  (77) 
0.533 

>  <ROCS_ColorTanimoto>  (77) 
0.380 

>  <ROCS_RefTversky>  (77) 
0.464 

>  <ROCS_RefColorTversky>  (77) 
0.427 

>  <ROCS_RefTverskyCombo>  (77) 
0.892 

>  <ROCS_FitTversky>  (77) 
1.386 

>  <ROCS_FitColorTversky>  (77) 
0.776 

>  <ROCS_FitTverskyCombo>  (77) 
2.162 

>  <ROCS_ColorScore>  (77) 
-4.878

>  <ROCS_Overlap>  (77) 
786.316

>  <ROCS_Rank>  (77) 
155                 

$$$$
untitled-dbase-629_301
     RDKit          3D

 15 15  0  0  0  0  0  0  0  0999 V2000
   -4.3682   12.1782  -31.2000 C   0  0  0  0  0  0  0  0  0  0  0  0
   -4.6076   12.4964  -29.8632 C   0  0  0  0  0  0  0  0  0  0  0  0
   -5.0924   11.1565  -31.8143 C   0  0  0  0  0  0  0  0  0  0  0  0
   -5.5711   11.7927  -29.1406 C   0  0  0  0  0  0  0  0  0  0  0  0
   -6.2953   10.7710  -29.7548 C   0  0  0  0  0  0  0  0  0  0  0  0
   -6.0559   10.4529  -31.0917 C   0  0  0  0  0  0  0  0  0  0  0  0
   -5.0092   13.1723  -27.2867 C   0  0  0  0  0  0  0  0  0  0  0  0
   -4.7986   10.8559  -33.2490 C   0  0  0  0  0  0  0  0  0  0  0  0
   -6.0285   10.9537  -34.1566 C   0  0  0  0  0  0  0  0  0  0  0  0
   -5.8352    8.3258  -36.1435 N   0  0  0  0  0  0  0  0  0  0  0  0
   -5.6551   10.6238  -35.5347 N   0  0  0  0  0  0  0  0  0  0  0  0
   -5.7504    9.4242  -35.8479 N   0  0  0  0  0  0  0  0  0  0  0  0
   -7.2328   10.0973  -29.0270 O   0  0  0  0  0  0  0  0  0  0  0  0
   -5.7935   12.1152  -27.8357 O   0  0  0  0  0  0  0  0  0  0  0  0
   -7.0550    9.0633  -31.9246 Br  0  0  0  0  0  0  0  0  0  0  0  0
  1  2  2  0
  1  3  1  0
  2  4  1  0
  3  6  2  0
  3  8  1  0
  4  5  2  0
  4 14  1  0
  5  6  1  0
  5 13  1  0
  6 15  1  0
  7 14  1  0
  8  9  1  0
  9 11  1  0
 10 12  2  0
 11 12  2  0
M  CHG  2  10  -1  12   1
M  END
>  <id>  (78) 
EN300-1936288

>  <smiles>  (78) 
COC=1C=CC(CCN=[N+]=[N-])=C(Br)C1O

>  <IUPAC Name>  (78) 
3-(2-azidoethyl)-2-bromo-6-methoxyphenol

>  <CAS>  (78) 
2228430-74-6

>  <URL>  (78) 
https://www.enaminestore.com/catalog/EN300-1936288

>  <ROCS_ShapeQuery>  (78) 
_x1604L0AP1_x0771L0AP1

>  <ROCS_TanimotoCombo>  (78) 
0.914 

>  <ROCS_ShapeTanimoto>  (78) 
0.498 

>  <ROCS_ColorTanimoto>  (78) 
0.415 

>  <ROCS_RefTversky>  (78) 
0.468 

>  <ROCS_RefColorTversky>  (78) 
0.431 

>  <ROCS_RefTverskyCombo>  (78) 
0.899 

>  <ROCS_FitTversky>  (78) 
1.150 

>  <ROCS_FitColorTversky>  (78) 
0.918 

>  <ROCS_FitTverskyCombo>  (78) 
2.068 

>  <ROCS_ColorScore>  (78) 
-4.899

>  <ROCS_Overlap>  (78) 
795.455

>  <ROCS_Rank>  (78) 
157                 

$$$$
untitled-dbase-625_173
     RDKit          3D

 15 15  0  0  0  0  0  0  0  0999 V2000
   -4.5775   12.4536  -29.6754 C   0  0  0  0  0  0  0  0  0  0  0  0
   -4.9922   11.1875  -31.6907 C   0  0  0  0  0  0  0  0  0  0  0  0
   -4.2808   12.1751  -31.0095 C   0  0  0  0  0  0  0  0  0  0  0  0
   -5.5857   11.7444  -29.0224 C   0  0  0  0  0  0  0  0  0  0  0  0
   -6.2971   10.7568  -29.7036 C   0  0  0  0  0  0  0  0  0  0  0  0
   -6.0004   10.4783  -31.0378 C   0  0  0  0  0  0  0  0  0  0  0  0
   -2.9726   12.5294  -33.1860 C   0  0  0  0  0  0  0  0  0  0  0  0
   -1.8653   12.8142  -30.9440 C   0  0  0  0  0  0  0  0  0  0  0  0
   -5.1468   11.2950  -26.7286 C   0  0  0  0  0  0  0  0  0  0  0  0
   -3.2035   12.9343  -31.7075 C   0  0  0  0  0  0  0  0  0  0  0  0
   -3.1874   14.8900  -30.4619 N   0  0  0  0  0  0  0  0  0  0  0  0
   -7.2803   10.0746  -29.0481 O   0  0  0  0  0  0  0  0  0  0  0  0
   -5.8644   12.0282  -27.7194 O   0  0  0  0  0  0  0  0  0  0  0  0
   -3.5281   14.3428  -31.7576 O   0  0  0  0  0  0  0  0  0  0  0  0
   -6.9455    9.1435  -31.9966 Br  0  0  0  0  0  0  0  0  0  0  0  0
  1  3  2  0
  1  4  1  0
  2  3  1  0
  2  6  2  0
  3 10  1  0
  4  5  2  0
  4 13  1  0
  5  6  1  0
  5 12  1  0
  6 15  1  0
  7 10  1  0
  8 10  1  0
  9 13  1  0
 10 14  1  0
 11 14  1  0
M  END
>  <id>  (79) 
EN300-1927008

>  <smiles>  (79) 
COC=1C=C(C=C(Br)C1O)C(C)(C)ON

>  <IUPAC Name>  (79) 
4-[2-(aminooxy)propan-2-yl]-2-bromo-6-methoxyphenol

>  <CAS>  (79) 
2228346-20-9

>  <URL>  (79) 
https://www.enaminestore.com/catalog/EN300-1927008

>  <ROCS_ShapeQuery>  (79) 
_x1604L0AP1_x0771L0AP1

>  <ROCS_TanimotoCombo>  (79) 
0.913 

>  <ROCS_ShapeTanimoto>  (79) 
0.534 

>  <ROCS_ColorTanimoto>  (79) 
0.380 

>  <ROCS_RefTversky>  (79) 
0.490 

>  <ROCS_RefColorTversky>  (79) 
0.427 

>  <ROCS_RefTverskyCombo>  (79) 
0.917 

>  <ROCS_FitTversky>  (79) 
1.198 

>  <ROCS_FitColorTversky>  (79) 
0.775 

>  <ROCS_FitTverskyCombo>  (79) 
1.974 

>  <ROCS_ColorScore>  (79) 
-4.873

>  <ROCS_Overlap>  (79) 
833.342

>  <ROCS_Rank>  (79) 
158                 

$$$$
untitled-dbase-42_0
     RDKit          3D

 10 10  0  0  0  0  0  0  0  0999 V2000
   -4.3492   12.1493  -31.2159 C   0  0  0  0  0  0  0  0  0  0  0  0
   -5.0774   11.1276  -31.8253 C   0  0  0  0  0  0  0  0  0  0  0  0
   -4.5922   12.4794  -29.8825 C   0  0  0  0  0  0  0  0  0  0  0  0
   -6.2917   10.7660  -29.7681 C   0  0  0  0  0  0  0  0  0  0  0  0
   -5.5634   11.7877  -29.1587 C   0  0  0  0  0  0  0  0  0  0  0  0
   -6.0486   10.4359  -31.1014 C   0  0  0  0  0  0  0  0  0  0  0  0
   -3.8113   13.5722  -29.2345 C   0  0  0  0  0  0  0  0  0  0  0  0
   -7.2336   10.1075  -29.0348 O   0  0  0  0  0  0  0  0  0  0  0  0
   -5.7978   12.1033  -27.8764 F   0  0  0  0  0  0  0  0  0  0  0  0
   -7.0190    9.0543  -31.9625 Br  0  0  0  0  0  0  0  0  0  0  0  0
  1  2  2  0
  1  3  1  0
  2  6  1  0
  3  5  2  0
  3  7  1  0
  4  5  1  0
  4  6  2  0
  4  8  1  0
  5  9  1  0
  6 10  1  0
M  END
>  <id>  (80) 
EN300-187070

>  <smiles>  (80) 
CC=1C=CC(Br)=C(O)C1F

>  <MDLNUMBER>  (80) 
MFCD19105384

>  <IUPAC Name>  (80) 
6-bromo-2-fluoro-3-methylphenol

>  <CAS>  (80) 
1310416-52-4

>  <Purity>  (80) 
95

>  <URL>  (80) 
https://www.enaminestore.com/catalog/EN300-187070

>  <ROCS_ShapeQuery>  (80) 
_x1604L0AP1_x0771L0AP1

>  <ROCS_TanimotoCombo>  (80) 
0.913 

>  <ROCS_ShapeTanimoto>  (80) 
0.463 

>  <ROCS_ColorTanimoto>  (80) 
0.451 

>  <ROCS_RefTversky>  (80) 
0.408 

>  <ROCS_RefColorTversky>  (80) 
0.431 

>  <ROCS_RefTverskyCombo>  (80) 
0.839 

>  <ROCS_FitTversky>  (80) 
1.406 

>  <ROCS_FitColorTversky>  (80) 
1.113 

>  <ROCS_FitTverskyCombo>  (80) 
2.519 

>  <ROCS_ColorScore>  (80) 
-4.878

>  <ROCS_Overlap>  (80) 
689.213

>  <ROCS_Rank>  (80) 
159                 

$$$$
untitled-dbase-1350_86
     RDKit          3D

 14 14  0  0  0  0  0  0  0  0999 V2000
   -4.1971   15.8568  -30.2372 C   0  0  0  0  0  0  0  0  0  0  0  0
   -3.4500   14.9960  -30.6143 C   0  0  0  0  0  0  0  0  0  0  0  0
   -4.5664   12.4534  -29.8136 C   0  0  0  0  0  0  0  0  0  0  0  0
   -5.0396   11.1231  -31.7740 C   0  0  0  0  0  0  0  0  0  0  0  0
   -4.3078   12.1308  -31.1458 C   0  0  0  0  0  0  0  0  0  0  0  0
   -5.5566   11.7682  -29.1096 C   0  0  0  0  0  0  0  0  0  0  0  0
   -6.2883   10.7604  -29.7378 C   0  0  0  0  0  0  0  0  0  0  0  0
   -6.0298   10.4379  -31.0700 C   0  0  0  0  0  0  0  0  0  0  0  0
   -5.0536   11.3929  -26.8157 C   0  0  0  0  0  0  0  0  0  0  0  0
   -2.5308   13.9442  -31.0750 C   0  0  0  0  0  0  0  0  0  0  0  0
   -3.2497   12.8643  -31.8983 C   0  0  0  0  0  0  0  0  0  0  0  0
   -7.2535   10.1023  -29.0328 O   0  0  0  0  0  0  0  0  0  0  0  0
   -5.7979   12.0950  -27.8092 O   0  0  0  0  0  0  0  0  0  0  0  0
   -7.0034    9.0746  -31.9575 Br  0  0  0  0  0  0  0  0  0  0  0  0
  1  2  3  0
  2 10  1  0
  3  5  2  0
  3  6  1  0
  4  5  1  0
  4  8  2  0
  5 11  1  0
  6  7  2  0
  6 13  1  0
  7  8  1  0
  7 12  1  0
  8 14  1  0
  9 13  1  0
 10 11  1  0
M  END
>  <id>  (81) 
EN300-1925695

>  <smiles>  (81) 
COC=1C=C(CCC#C)C=C(Br)C1O

>  <IUPAC Name>  (81) 
2-bromo-4-(but-3-yn-1-yl)-6-methoxyphenol

>  <CAS>  (81) 
2229475-19-6

>  <URL>  (81) 
https://www.enaminestore.com/catalog/EN300-1925695

>  <ROCS_ShapeQuery>  (81) 
_x1604L0AP1_x0771L0AP1

>  <ROCS_TanimotoCombo>  (81) 
0.913 

>  <ROCS_ShapeTanimoto>  (81) 
0.531 

>  <ROCS_ColorTanimoto>  (81) 
0.383 

>  <ROCS_RefTversky>  (81) 
0.478 

>  <ROCS_RefColorTversky>  (81) 
0.429 

>  <ROCS_RefTverskyCombo>  (81) 
0.907 

>  <ROCS_FitTversky>  (81) 
1.261 

>  <ROCS_FitColorTversky>  (81) 
0.779 

>  <ROCS_FitTverskyCombo>  (81) 
2.040 

>  <ROCS_ColorScore>  (81) 
-4.898

>  <ROCS_Overlap>  (81) 
811.539

>  <ROCS_Rank>  (81) 
160                 

$$$$
untitled-dbase-814_0
     RDKit          3D

 10 10  0  0  0  0  0  0  0  0999 V2000
   -5.8634   12.0910  -27.5871 C   0  0  0  0  0  0  0  0  0  0  0  0
   -4.3205   12.2394  -30.9649 C   0  0  0  0  0  0  0  0  0  0  0  0
   -4.6024   12.5139  -29.6267 C   0  0  0  0  0  0  0  0  0  0  0  0
   -5.0278   11.2422  -31.6363 C   0  0  0  0  0  0  0  0  0  0  0  0
   -5.5915   11.7910  -28.9599 C   0  0  0  0  0  0  0  0  0  0  0  0
   -6.2989   10.7937  -29.6313 C   0  0  0  0  0  0  0  0  0  0  0  0
   -6.0170   10.5193  -30.9695 C   0  0  0  0  0  0  0  0  0  0  0  0
   -6.0839   12.3344  -26.4740 N   0  0  0  0  0  0  0  0  0  0  0  0
   -7.2668   10.0886  -28.9737 O   0  0  0  0  0  0  0  0  0  0  0  0
   -6.9552    9.1726  -31.9188 Br  0  0  0  0  0  0  0  0  0  0  0  0
  1  5  1  0
  1  8  3  0
  2  3  2  0
  2  4  1  0
  3  5  1  0
  4  7  2  0
  5  6  2  0
  6  7  1  0
  6  9  1  0
  7 10  1  0
M  END
>  <id>  (82) 
EN300-7153398

>  <smiles>  (82) 
OC=1C(Br)=CC=CC1C#N

>  <MDLNUMBER>  (82) 
MFCD11042854

>  <IUPAC Name>  (82) 
3-bromo-2-hydroxybenzonitrile

>  <CAS>  (82) 
13073-28-4

>  <Purity>  (82) 
95

>  <URL>  (82) 
https://www.enaminestore.com/catalog/EN300-7153398

>  <MP>  (82) 
119-123

>  <ROCS_ShapeQuery>  (82) 
_x1604L0AP1_x0771L0AP1

>  <ROCS_TanimotoCombo>  (82) 
0.913 

>  <ROCS_ShapeTanimoto>  (82) 
0.423 

>  <ROCS_ColorTanimoto>  (82) 
0.491 

>  <ROCS_RefTversky>  (82) 
0.383 

>  <ROCS_RefColorTversky>  (82) 
0.484 

>  <ROCS_RefTverskyCombo>  (82) 
0.867 

>  <ROCS_FitTversky>  (82) 
1.324 

>  <ROCS_FitColorTversky>  (82) 
1.030 

>  <ROCS_FitTverskyCombo>  (82) 
2.354 

>  <ROCS_ColorScore>  (82) 
-5.497

>  <ROCS_Overlap>  (82) 
646.886

>  <ROCS_Rank>  (82) 
161                 

$$$$
untitled-dbase-113_0
     RDKit          3D

 10 10  0  0  0  0  0  0  0  0999 V2000
   -4.3415   12.1403  -31.2146 C   0  0  0  0  0  0  0  0  0  0  0  0
   -5.0730   11.1208  -31.8239 C   0  0  0  0  0  0  0  0  0  0  0  0
   -6.2909   10.7659  -29.7678 C   0  0  0  0  0  0  0  0  0  0  0  0
   -5.5595   11.7853  -29.1584 C   0  0  0  0  0  0  0  0  0  0  0  0
   -4.5847   12.4726  -29.8818 C   0  0  0  0  0  0  0  0  0  0  0  0
   -6.0477   10.4336  -31.1005 C   0  0  0  0  0  0  0  0  0  0  0  0
   -7.2366   10.1119  -29.0353 O   0  0  0  0  0  0  0  0  0  0  0  0
   -5.8016   12.1010  -27.8773 F   0  0  0  0  0  0  0  0  0  0  0  0
   -3.6789   13.7328  -29.1368 Cl  0  0  0  0  0  0  0  0  0  0  0  0
   -7.0211    9.0540  -31.9612 Br  0  0  0  0  0  0  0  0  0  0  0  0
  1  2  2  0
  1  5  1  0
  2  6  1  0
  3  4  1  0
  3  6  2  0
  3  7  1  0
  4  5  2  0
  4  8  1  0
  5  9  1  0
  6 10  1  0
M  END
>  <id>  (83) 
EN300-207641

>  <smiles>  (83) 
OC=1C(F)=C(Cl)C=CC1Br

>  <MDLNUMBER>  (83) 
MFCD19105360

>  <IUPAC Name>  (83) 
6-bromo-3-chloro-2-fluorophenol

>  <CAS>  (83) 
186590-40-9

>  <URL>  (83) 
https://www.enaminestore.com/catalog/EN300-207641

>  <ROCS_ShapeQuery>  (83) 
_x1604L0AP1_x0771L0AP1

>  <ROCS_TanimotoCombo>  (83) 
0.913 

>  <ROCS_ShapeTanimoto>  (83) 
0.462 

>  <ROCS_ColorTanimoto>  (83) 
0.451 

>  <ROCS_RefTversky>  (83) 
0.407 

>  <ROCS_RefColorTversky>  (83) 
0.431 

>  <ROCS_RefTverskyCombo>  (83) 
0.838 

>  <ROCS_FitTversky>  (83) 
1.419 

>  <ROCS_FitColorTversky>  (83) 
1.113 

>  <ROCS_FitTverskyCombo>  (83) 
2.532 

>  <ROCS_ColorScore>  (83) 
-4.879

>  <ROCS_Overlap>  (83) 
686.381

>  <ROCS_Rank>  (83) 
163                 

$$$$
untitled-dbase-1509_0
     RDKit          3D

 10 10  0  0  0  0  0  0  0  0999 V2000
   -4.5830   12.4694  -29.8548 C   0  0  0  0  0  0  0  0  0  0  0  0
   -5.0603   11.1272  -31.8062 C   0  0  0  0  0  0  0  0  0  0  0  0
   -6.2901   10.7625  -29.7588 C   0  0  0  0  0  0  0  0  0  0  0  0
   -5.5620   11.7789  -29.1404 C   0  0  0  0  0  0  0  0  0  0  0  0
   -4.3322   12.1436  -31.1878 C   0  0  0  0  0  0  0  0  0  0  0  0
   -6.0393   10.4367  -31.0917 C   0  0  0  0  0  0  0  0  0  0  0  0
   -7.2400   10.1061  -29.0343 O   0  0  0  0  0  0  0  0  0  0  0  0
   -5.7974   12.0971  -27.8599 F   0  0  0  0  0  0  0  0  0  0  0  0
   -3.1246   12.9968  -32.0684 Cl  0  0  0  0  0  0  0  0  0  0  0  0
   -7.0092    9.0616  -31.9641 Br  0  0  0  0  0  0  0  0  0  0  0  0
  1  4  2  0
  1  5  1  0
  2  5  2  0
  2  6  1  0
  3  4  1  0
  3  6  2  0
  3  7  1  0
  4  8  1  0
  5  9  1  0
  6 10  1  0
M  END
>  <id>  (84) 
EN300-2163608

>  <smiles>  (84) 
OC=1C(F)=CC(Cl)=CC1Br

>  <MDLNUMBER>  (84) 
MFCD04115955

>  <IUPAC Name>  (84) 
2-bromo-4-chloro-6-fluorophenol

>  <CAS>  (84) 
886499-88-3

>  <Purity>  (84) 
95

>  <URL>  (84) 
https://www.enaminestore.com/catalog/EN300-2163608

>  <ROCS_ShapeQuery>  (84) 
_x1604L0AP1_x0771L0AP1

>  <ROCS_TanimotoCombo>  (84) 
0.913 

>  <ROCS_ShapeTanimoto>  (84) 
0.462 

>  <ROCS_ColorTanimoto>  (84) 
0.451 

>  <ROCS_RefTversky>  (84) 
0.406 

>  <ROCS_RefColorTversky>  (84) 
0.431 

>  <ROCS_RefTverskyCombo>  (84) 
0.837 

>  <ROCS_FitTversky>  (84) 
1.422 

>  <ROCS_FitColorTversky>  (84) 
1.113 

>  <ROCS_FitTverskyCombo>  (84) 
2.534 

>  <ROCS_ColorScore>  (84) 
-4.879

>  <ROCS_Overlap>  (84) 
685.919

>  <ROCS_Rank>  (84) 
164                 

$$$$
untitled-dbase-21_0
     RDKit          3D

 10 10  0  0  0  0  0  0  0  0999 V2000
   -4.5856   12.4728  -29.8576 C   0  0  0  0  0  0  0  0  0  0  0  0
   -5.0617   11.1281  -31.8074 C   0  0  0  0  0  0  0  0  0  0  0  0
   -6.2905   10.7637  -29.7594 C   0  0  0  0  0  0  0  0  0  0  0  0
   -4.3347   12.1460  -31.1902 C   0  0  0  0  0  0  0  0  0  0  0  0
   -5.5635   11.7816  -29.1422 C   0  0  0  0  0  0  0  0  0  0  0  0
   -6.0396   10.4369  -31.0921 C   0  0  0  0  0  0  0  0  0  0  0  0
   -7.2394   10.1064  -29.0342 O   0  0  0  0  0  0  0  0  0  0  0  0
   -3.3947   12.8089  -31.8768 F   0  0  0  0  0  0  0  0  0  0  0  0
   -5.8009   12.1028  -27.8629 F   0  0  0  0  0  0  0  0  0  0  0  0
   -7.0095    9.0623  -31.9648 Br  0  0  0  0  0  0  0  0  0  0  0  0
  1  4  2  0
  1  5  1  0
  2  4  1  0
  2  6  2  0
  3  5  2  0
  3  6  1  0
  3  7  1  0
  4  8  1  0
  5  9  1  0
  6 10  1  0
M  END
>  <id>  (85) 
EN300-109212

>  <smiles>  (85) 
OC=1C(F)=CC(F)=CC1Br

>  <MDLNUMBER>  (85) 
MFCD00070752

>  <IUPAC Name>  (85) 
2-bromo-4,6-difluorophenol

>  <CAS>  (85) 
98130-56-4

>  <Purity>  (85) 
95

>  <URL>  (85) 
https://www.enaminestore.com/catalog/EN300-109212

>  <ROCS_ShapeQuery>  (85) 
_x1604L0AP1_x0771L0AP1

>  <ROCS_TanimotoCombo>  (85) 
0.913 

>  <ROCS_ShapeTanimoto>  (85) 
0.462 

>  <ROCS_ColorTanimoto>  (85) 
0.451 

>  <ROCS_RefTversky>  (85) 
0.408 

>  <ROCS_RefColorTversky>  (85) 
0.431 

>  <ROCS_RefTverskyCombo>  (85) 
0.839 

>  <ROCS_FitTversky>  (85) 
1.398 

>  <ROCS_FitColorTversky>  (85) 
1.113 

>  <ROCS_FitTverskyCombo>  (85) 
2.510 

>  <ROCS_ColorScore>  (85) 
-4.879

>  <ROCS_Overlap>  (85) 
689.553

>  <ROCS_Rank>  (85) 
165                 

$$$$
untitled-dbase-780_62
     RDKit          3D

 11 11  0  0  0  0  0  0  0  0999 V2000
   -4.5989   12.4859  -29.8508 C   0  0  0  0  0  0  0  0  0  0  0  0
   -4.3462   12.1685  -31.1854 C   0  0  0  0  0  0  0  0  0  0  0  0
   -5.5716   11.7839  -29.1390 C   0  0  0  0  0  0  0  0  0  0  0  0
   -5.0664   11.1491  -31.8082 C   0  0  0  0  0  0  0  0  0  0  0  0
   -6.2918   10.7645  -29.7618 C   0  0  0  0  0  0  0  0  0  0  0  0
   -6.0392   10.4471  -31.0964 C   0  0  0  0  0  0  0  0  0  0  0  0
   -4.7581   10.8480  -33.2397 C   0  0  0  0  0  0  0  0  0  0  0  0
   -5.9665   10.9032  -34.1867 C   0  0  0  0  0  0  0  0  0  0  0  0
   -7.2351   10.1008  -29.0347 O   0  0  0  0  0  0  0  0  0  0  0  0
   -6.7461   12.5468  -34.2274 S   0  0  0  0  0  0  0  0  0  0  0  0
   -7.0278    9.0542  -31.9353 Br  0  0  0  0  0  0  0  0  0  0  0  0
  1  2  2  0
  1  3  1  0
  2  4  1  0
  3  5  2  0
  4  6  2  0
  4  7  1  0
  5  6  1  0
  5  9  1  0
  6 11  1  0
  7  8  1  0
  8 10  1  0
M  END
>  <id>  (86) 
EN300-1904620

>  <smiles>  (86) 
OC=1C=CC=C(CCS)C1Br

>  <MDLNUMBER>  (86) 
MFCD33499794

>  <IUPAC Name>  (86) 
2-bromo-3-(2-sulfanylethyl)phenol

>  <CAS>  (86) 
2229351-06-6

>  <URL>  (86) 
https://www.enaminestore.com/catalog/EN300-1904620

>  <ROCS_ShapeQuery>  (86) 
_x1604L0AP1_x0771L0AP1

>  <ROCS_TanimotoCombo>  (86) 
0.912 

>  <ROCS_ShapeTanimoto>  (86) 
0.461 

>  <ROCS_ColorTanimoto>  (86) 
0.451 

>  <ROCS_RefTversky>  (86) 
0.411 

>  <ROCS_RefColorTversky>  (86) 
0.432 

>  <ROCS_RefTverskyCombo>  (86) 
0.842 

>  <ROCS_FitTversky>  (86) 
1.363 

>  <ROCS_FitColorTversky>  (86) 
1.114 

>  <ROCS_FitTverskyCombo>  (86) 
2.477 

>  <ROCS_ColorScore>  (86) 
-4.883

>  <ROCS_Overlap>  (86) 
693.887

>  <ROCS_Rank>  (86) 
167                 

$$$$
untitled-dbase-924_830
     RDKit          3D

 16 17  0  0  0  0  0  0  0  0999 V2000
   -4.5869   12.4738  -29.8032 C   0  0  0  0  0  0  0  0  0  0  0  0
   -5.0490   11.1468  -31.7684 C   0  0  0  0  0  0  0  0  0  0  0  0
   -4.3264   12.1590  -31.1368 C   0  0  0  0  0  0  0  0  0  0  0  0
   -5.5700   11.7764  -29.1011 C   0  0  0  0  0  0  0  0  0  0  0  0
   -6.2926   10.7642  -29.7327 C   0  0  0  0  0  0  0  0  0  0  0  0
   -6.0321   10.4494  -31.0664 C   0  0  0  0  0  0  0  0  0  0  0  0
   -2.0965   13.4509  -31.1035 C   0  0  0  0  0  0  0  0  0  0  0  0
   -3.1374   14.3935  -31.6214 C   0  0  0  0  0  0  0  0  0  0  0  0
   -3.2769   12.9054  -31.8868 C   0  0  0  0  0  0  0  0  0  0  0  0
   -6.7973   13.0968  -27.5499 C   0  0  0  0  0  0  0  0  0  0  0  0
   -3.0246   12.4151  -33.2854 C   0  0  0  0  0  0  0  0  0  0  0  0
   -4.0914   11.6173  -35.1834 N   0  0  0  0  0  0  0  0  0  0  0  0
   -7.2499   10.0937  -29.0290 O   0  0  0  0  0  0  0  0  0  0  0  0
   -5.8135   12.0947  -27.7991 O   0  0  0  0  0  0  0  0  0  0  0  0
   -4.2254   12.5096  -34.0434 O   0  0  0  0  0  0  0  0  0  0  0  0
   -6.9942    9.0818  -31.9597 Br  0  0  0  0  0  0  0  0  0  0  0  0
  1  3  2  0
  1  4  1  0
  2  3  1  0
  2  6  2  0
  3  9  1  0
  4  5  2  0
  4 14  1  0
  5  6  1  0
  5 13  1  0
  6 16  1  0
  7  8  1  0
  7  9  1  0
  8  9  1  0
  9 11  1  0
 10 14  1  0
 11 15  1  0
 12 15  1  0
M  END
>  <id>  (87) 
EN300-1926999

>  <smiles>  (87) 
COC=1C=C(C=C(Br)C1O)C2(CON)CC2

>  <IUPAC Name>  (87) 
4-{1-[(aminooxy)methyl]cyclopropyl}-2-bromo-6-methoxyphenol

>  <CAS>  (87) 
2228625-82-7

>  <URL>  (87) 
https://www.enaminestore.com/catalog/EN300-1926999

>  <ROCS_ShapeQuery>  (87) 
_x1604L0AP1_x0771L0AP1

>  <ROCS_TanimotoCombo>  (87) 
0.912 

>  <ROCS_ShapeTanimoto>  (87) 
0.497 

>  <ROCS_ColorTanimoto>  (87) 
0.415 

>  <ROCS_RefTversky>  (87) 
0.476 

>  <ROCS_RefColorTversky>  (87) 
0.431 

>  <ROCS_RefTverskyCombo>  (87) 
0.907 

>  <ROCS_FitTversky>  (87) 
1.096 

>  <ROCS_FitColorTversky>  (87) 
0.918 

>  <ROCS_FitTverskyCombo>  (87) 
2.014 

>  <ROCS_ColorScore>  (87) 
-4.898

>  <ROCS_Overlap>  (87) 
810.703

>  <ROCS_Rank>  (87) 
168                 

$$$$
untitled-dbase-2267_0
     RDKit          3D

 10 10  0  0  0  0  0  0  0  0999 V2000
   -4.3435   12.1495  -31.2151 C   0  0  0  0  0  0  0  0  0  0  0  0
   -5.0743   11.1276  -31.8211 C   0  0  0  0  0  0  0  0  0  0  0  0
   -4.5842   12.4832  -29.8822 C   0  0  0  0  0  0  0  0  0  0  0  0
   -5.5558   11.7950  -29.1555 C   0  0  0  0  0  0  0  0  0  0  0  0
   -6.2866   10.7732  -29.7615 C   0  0  0  0  0  0  0  0  0  0  0  0
   -6.0459   10.4395  -31.0944 C   0  0  0  0  0  0  0  0  0  0  0  0
   -3.7862   13.5795  -29.2559 C   0  0  0  0  0  0  0  0  0  0  0  0
   -5.8150   12.1511  -27.7261 C   0  0  0  0  0  0  0  0  0  0  0  0
   -7.2348   10.1083  -29.0389 O   0  0  0  0  0  0  0  0  0  0  0  0
   -7.0186    9.0583  -31.9548 Br  0  0  0  0  0  0  0  0  0  0  0  0
  1  2  2  0
  1  3  1  0
  2  6  1  0
  3  4  2  0
  3  7  1  0
  4  5  1  0
  4  8  1  0
  5  6  2  0
  5  9  1  0
  6 10  1  0
M  END
>  <id>  (88) 
EN300-3218350

>  <smiles>  (88) 
CC=1C=CC(Br)=C(O)C1C

>  <MDLNUMBER>  (88) 
MFCD22414708

>  <IUPAC Name>  (88) 
6-bromo-2,3-dimethylphenol

>  <CAS>  (88) 
951161-67-4

>  <Purity>  (88) 
95

>  <URL>  (88) 
https://www.enaminestore.com/catalog/EN300-3218350

>  <ROCS_ShapeQuery>  (88) 
_x1604L0AP1_x0771L0AP1

>  <ROCS_TanimotoCombo>  (88) 
0.911 

>  <ROCS_ShapeTanimoto>  (88) 
0.460 

>  <ROCS_ColorTanimoto>  (88) 
0.451 

>  <ROCS_RefTversky>  (88) 
0.406 

>  <ROCS_RefColorTversky>  (88) 
0.431 

>  <ROCS_RefTverskyCombo>  (88) 
0.837 

>  <ROCS_FitTversky>  (88) 
1.414 

>  <ROCS_FitColorTversky>  (88) 
1.113 

>  <ROCS_FitTverskyCombo>  (88) 
2.527 

>  <ROCS_ColorScore>  (88) 
-4.880

>  <ROCS_Overlap>  (88) 
685.054

>  <ROCS_Rank>  (88) 
169                 

$$$$
untitled-dbase-2154_243
     RDKit          3D

 12 12  0  0  1  0  0  0  0  0999 V2000
   -4.4489   12.0261  -31.7032 C   0  0  0  0  0  0  0  0  0  0  0  0
   -4.6361   12.5944  -30.4432 C   0  0  0  0  0  0  0  0  0  0  0  0
   -5.1681   10.8883  -32.0689 C   0  0  0  0  0  0  0  0  0  0  0  0
   -5.5424   12.0247  -29.5489 C   0  0  0  0  0  0  0  0  0  0  0  0
   -6.2616   10.8868  -29.9146 C   0  0  0  0  0  0  0  0  0  0  0  0
   -6.0744   10.3186  -31.1746 C   0  0  0  0  0  0  0  0  0  0  0  0
   -6.0667   11.6301  -27.1066 C   0  0  0  0  0  0  0  0  0  0  0  0
   -5.7266   12.6486  -28.2045 C   0  0  1  0  0  0  0  0  0  0  0  0
   -7.1434   10.3402  -29.0280 O   0  0  0  0  0  0  0  0  0  0  0  0
   -6.2030   12.2993  -25.8611 O   0  0  0  0  0  0  0  0  0  0  0  0
   -4.5298   13.3426  -27.8334 O   0  0  0  0  0  0  0  0  0  0  0  0
   -7.0332    8.7731  -31.7097 Br  0  0  0  0  0  0  0  0  0  0  0  0
  1  2  2  0
  1  3  1  0
  2  4  1  0
  3  6  2  0
  4  5  2  0
  4  8  1  0
  5  6  1  0
  5  9  1  0
  6 12  1  0
  7  8  1  0
  7 10  1  0
  8 11  1  1
M  END
>  <id>  (89) 
EN300-1923445

>  <smiles>  (89) 
OCC(O)C=1C=CC=C(Br)C1O

>  <MDLNUMBER>  (89) 
MFCD32486626

>  <IUPAC Name>  (89) 
1-(3-bromo-2-hydroxyphenyl)ethane-1,2-diol

>  <CAS>  (89) 
2228764-28-9

>  <URL>  (89) 
https://www.enaminestore.com/catalog/EN300-1923445

>  <ROCS_ShapeQuery>  (89) 
_x1604L0AP1_x0771L0AP1

>  <ROCS_TanimotoCombo>  (89) 
0.911 

>  <ROCS_ShapeTanimoto>  (89) 
0.433 

>  <ROCS_ColorTanimoto>  (89) 
0.479 

>  <ROCS_RefTversky>  (89) 
0.403 

>  <ROCS_RefColorTversky>  (89) 
0.554 

>  <ROCS_RefTverskyCombo>  (89) 
0.956 

>  <ROCS_FitTversky>  (89) 
1.207 

>  <ROCS_FitColorTversky>  (89) 
0.779 

>  <ROCS_FitTverskyCombo>  (89) 
1.986 

>  <ROCS_ColorScore>  (89) 
-6.377

>  <ROCS_Overlap>  (89) 
681.710

>  <ROCS_Rank>  (89) 
170                 

$$$$
untitled-dbase-1354_41
     RDKit          3D

 13 13  0  0  1  0  0  0  0  0999 V2000
   -4.6093   12.4974  -29.8424 C   0  0  0  0  0  0  0  0  0  0  0  0
   -4.3492   12.1788  -31.1752 C   0  0  0  0  0  0  0  0  0  0  0  0
   -5.5820   11.7923  -29.1337 C   0  0  0  0  0  0  0  0  0  0  0  0
   -5.0619   11.1551  -31.7994 C   0  0  0  0  0  0  0  0  0  0  0  0
   -6.2947   10.7685  -29.7579 C   0  0  0  0  0  0  0  0  0  0  0  0
   -6.0347   10.4499  -31.0908 C   0  0  0  0  0  0  0  0  0  0  0  0
   -3.2608   11.1015  -33.5556 C   0  0  0  0  0  0  0  0  0  0  0  0
   -5.6342   11.6375  -34.2193 C   0  0  0  0  0  0  0  0  0  0  0  0
   -4.7457   10.8529  -33.2290 C   0  0  2  0  0  0  0  0  0  0  0  0
   -6.6941    9.8642  -35.2722 N   0  0  0  0  0  0  0  0  0  0  0  0
   -7.2383   10.1018  -29.0339 O   0  0  0  0  0  0  0  0  0  0  0  0
   -6.8861   10.9737  -34.3525 O   0  0  0  0  0  0  0  0  0  0  0  0
   -7.0131    9.0511  -31.9317 Br  0  0  0  0  0  0  0  0  0  0  0  0
  1  2  2  0
  1  3  1  0
  2  4  1  0
  3  5  2  0
  4  6  2  0
  4  9  1  0
  5  6  1  0
  5 11  1  0
  6 13  1  0
  9  7  1  6
  8  9  1  0
  8 12  1  0
 10 12  1  0
M  END
>  <id>  (90) 
EN300-1904530

>  <smiles>  (90) 
CC(CON)C=1C=CC=C(O)C1Br

>  <IUPAC Name>  (90) 
3-[1-(aminooxy)propan-2-yl]-2-bromophenol

>  <CAS>  (90) 
2229357-85-9

>  <URL>  (90) 
https://www.enaminestore.com/catalog/EN300-1904530

>  <ROCS_ShapeQuery>  (90) 
_x1604L0AP1_x0771L0AP1

>  <ROCS_TanimotoCombo>  (90) 
0.911 

>  <ROCS_ShapeTanimoto>  (90) 
0.498 

>  <ROCS_ColorTanimoto>  (90) 
0.413 

>  <ROCS_RefTversky>  (90) 
0.450 

>  <ROCS_RefColorTversky>  (90) 
0.430 

>  <ROCS_RefTverskyCombo>  (90) 
0.879 

>  <ROCS_FitTversky>  (90) 
1.274 

>  <ROCS_FitColorTversky>  (90) 
0.915 

>  <ROCS_FitTverskyCombo>  (90) 
2.189 

>  <ROCS_ColorScore>  (90) 
-4.883

>  <ROCS_Overlap>  (90) 
761.791

>  <ROCS_Rank>  (90) 
175                 

$$$$
untitled-dbase-230_0
     RDKit          3D

 10 10  0  0  0  0  0  0  0  0999 V2000
   -4.5827   12.4777  -29.8611 C   0  0  0  0  0  0  0  0  0  0  0  0
   -5.0640   11.1291  -31.8070 C   0  0  0  0  0  0  0  0  0  0  0  0
   -4.3347   12.1476  -31.1934 C   0  0  0  0  0  0  0  0  0  0  0  0
   -5.5599   11.7892  -29.1423 C   0  0  0  0  0  0  0  0  0  0  0  0
   -6.2893   10.7708  -29.7558 C   0  0  0  0  0  0  0  0  0  0  0  0
   -6.0413   10.4407  -31.0882 C   0  0  0  0  0  0  0  0  0  0  0  0
   -3.2885   12.8824  -31.9615 C   0  0  0  0  0  0  0  0  0  0  0  0
   -5.8089   12.1579  -27.7166 C   0  0  0  0  0  0  0  0  0  0  0  0
   -7.2408   10.1051  -29.0388 O   0  0  0  0  0  0  0  0  0  0  0  0
   -7.0111    9.0627  -31.9572 Br  0  0  0  0  0  0  0  0  0  0  0  0
  1  3  2  0
  1  4  1  0
  2  3  1  0
  2  6  2  0
  3  7  1  0
  4  5  2  0
  4  8  1  0
  5  6  1  0
  5  9  1  0
  6 10  1  0
M  END
>  <id>  (91) 
EN300-192641

>  <smiles>  (91) 
CC=1C=C(C)C(O)=C(Br)C1

>  <MDLNUMBER>  (91) 
MFCD08443978

>  <IUPAC Name>  (91) 
2-bromo-4,6-dimethylphenol

>  <CAS>  (91) 
15191-36-3

>  <Purity>  (91) 
95

>  <URL>  (91) 
https://www.enaminestore.com/catalog/EN300-192641

>  <MP>  (91) 
6-7

>  <ROCS_ShapeQuery>  (91) 
_x1604L0AP1_x0771L0AP1

>  <ROCS_TanimotoCombo>  (91) 
0.911 

>  <ROCS_ShapeTanimoto>  (91) 
0.460 

>  <ROCS_ColorTanimoto>  (91) 
0.451 

>  <ROCS_RefTversky>  (91) 
0.405 

>  <ROCS_RefColorTversky>  (91) 
0.431 

>  <ROCS_RefTverskyCombo>  (91) 
0.836 

>  <ROCS_FitTversky>  (91) 
1.415 

>  <ROCS_FitColorTversky>  (91) 
1.113 

>  <ROCS_FitTverskyCombo>  (91) 
2.528 

>  <ROCS_ColorScore>  (91) 
-4.881

>  <ROCS_Overlap>  (91) 
684.020

>  <ROCS_Rank>  (91) 
176                 

$$$$
untitled-dbase-750_1
     RDKit          3D

 10 10  0  0  0  0  0  0  0  0999 V2000
   -4.6110   12.4941  -29.8590 C   0  0  0  0  0  0  0  0  0  0  0  0
   -5.5800   11.7925  -29.1419 C   0  0  0  0  0  0  0  0  0  0  0  0
   -5.0830   11.1510  -31.8110 C   0  0  0  0  0  0  0  0  0  0  0  0
   -4.3625   12.1734  -31.1936 C   0  0  0  0  0  0  0  0  0  0  0  0
   -6.3005   10.7701  -29.7592 C   0  0  0  0  0  0  0  0  0  0  0  0
   -6.0520   10.4493  -31.0938 C   0  0  0  0  0  0  0  0  0  0  0  0
   -3.3261   12.9241  -31.9592 C   0  0  0  0  0  0  0  0  0  0  0  0
   -7.2394   10.1026  -29.0304 O   0  0  0  0  0  0  0  0  0  0  0  0
   -1.6935   12.4120  -31.4756 Cl  0  0  0  0  0  0  0  0  0  0  0  0
   -7.0108    9.0652  -31.9642 Br  0  0  0  0  0  0  0  0  0  0  0  0
  1  2  2  0
  1  4  1  0
  2  5  1  0
  3  4  2  0
  3  6  1  0
  4  7  1  0
  5  6  2  0
  5  8  1  0
  6 10  1  0
  7  9  1  0
M  END
>  <id>  (92) 
EN300-1893115

>  <smiles>  (92) 
OC=1C=CC(CCl)=CC1Br

>  <MDLNUMBER>  (92) 
MFCD18391438

>  <IUPAC Name>  (92) 
2-bromo-4-(chloromethyl)phenol

>  <CAS>  (92) 
1261815-29-5

>  <URL>  (92) 
https://www.enaminestore.com/catalog/EN300-1893115

>  <ROCS_ShapeQuery>  (92) 
_x1604L0AP1_x0771L0AP1

>  <ROCS_TanimotoCombo>  (92) 
0.911 

>  <ROCS_ShapeTanimoto>  (92) 
0.460 

>  <ROCS_ColorTanimoto>  (92) 
0.451 

>  <ROCS_RefTversky>  (92) 
0.403 

>  <ROCS_RefColorTversky>  (92) 
0.431 

>  <ROCS_RefTverskyCombo>  (92) 
0.834 

>  <ROCS_FitTversky>  (92) 
1.438 

>  <ROCS_FitColorTversky>  (92) 
1.112 

>  <ROCS_FitTverskyCombo>  (92) 
2.550 

>  <ROCS_ColorScore>  (92) 
-4.878

>  <ROCS_Overlap>  (92) 
680.857

>  <ROCS_Rank>  (92) 
181                 

$$$$
untitled-dbase-2122_0
     RDKit          3D

 10 10  0  0  0  0  0  0  0  0999 V2000
   -4.3456   12.1721  -31.1879 C   0  0  0  0  0  0  0  0  0  0  0  0
   -5.5723   11.7870  -29.1425 C   0  0  0  0  0  0  0  0  0  0  0  0
   -4.5991   12.4892  -29.8535 C   0  0  0  0  0  0  0  0  0  0  0  0
   -5.0653   11.1528  -31.8115 C   0  0  0  0  0  0  0  0  0  0  0  0
   -6.2919   10.7677  -29.7660 C   0  0  0  0  0  0  0  0  0  0  0  0
   -6.0384   10.4506  -31.1005 C   0  0  0  0  0  0  0  0  0  0  0  0
   -3.8299   13.5801  -29.1881 C   0  0  0  0  0  0  0  0  0  0  0  0
   -4.7559   10.8524  -33.2430 C   0  0  0  0  0  0  0  0  0  0  0  0
   -7.2355   10.1035  -29.0397 O   0  0  0  0  0  0  0  0  0  0  0  0
   -7.0251    9.0573  -31.9412 Br  0  0  0  0  0  0  0  0  0  0  0  0
  1  3  2  0
  1  4  1  0
  2  3  1  0
  2  5  2  0
  3  7  1  0
  4  6  2  0
  4  8  1  0
  5  6  1  0
  5  9  1  0
  6 10  1  0
M  END
>  <id>  (93) 
EN300-190926

>  <smiles>  (93) 
CC=1C=C(C)C(Br)=C(O)C1

>  <MDLNUMBER>  (93) 
MFCD22058629

>  <IUPAC Name>  (93) 
2-bromo-3,5-dimethylphenol

>  <CAS>  (93) 
125237-08-3

>  <Purity>  (93) 
95

>  <URL>  (93) 
https://www.enaminestore.com/catalog/EN300-190926

>  <MP>  (93) 
51-54

>  <ROCS_ShapeQuery>  (93) 
_x1604L0AP1_x0771L0AP1

>  <ROCS_TanimotoCombo>  (93) 
0.910 

>  <ROCS_ShapeTanimoto>  (93) 
0.459 

>  <ROCS_ColorTanimoto>  (93) 
0.451 

>  <ROCS_RefTversky>  (93) 
0.405 

>  <ROCS_RefColorTversky>  (93) 
0.432 

>  <ROCS_RefTverskyCombo>  (93) 
0.836 

>  <ROCS_FitTversky>  (93) 
1.416 

>  <ROCS_FitColorTversky>  (93) 
1.114 

>  <ROCS_FitTverskyCombo>  (93) 
2.529 

>  <ROCS_ColorScore>  (93) 
-4.883

>  <ROCS_Overlap>  (93) 
683.003

>  <ROCS_Rank>  (93) 
182                 

$$$$
untitled-dbase-43_0
     RDKit          3D

 10 10  0  0  0  0  0  0  0  0999 V2000
   -4.5821   12.4788  -29.8587 C   0  0  0  0  0  0  0  0  0  0  0  0
   -5.0636   11.1312  -31.8052 C   0  0  0  0  0  0  0  0  0  0  0  0
   -5.5586   11.7895  -29.1398 C   0  0  0  0  0  0  0  0  0  0  0  0
   -6.2877   10.7710  -29.7537 C   0  0  0  0  0  0  0  0  0  0  0  0
   -4.3346   12.1498  -31.1914 C   0  0  0  0  0  0  0  0  0  0  0  0
   -6.0402   10.4418  -31.0864 C   0  0  0  0  0  0  0  0  0  0  0  0
   -5.8076   12.1578  -27.7142 C   0  0  0  0  0  0  0  0  0  0  0  0
   -7.2398   10.1056  -29.0373 O   0  0  0  0  0  0  0  0  0  0  0  0
   -3.3968   12.8118  -31.8817 F   0  0  0  0  0  0  0  0  0  0  0  0
   -7.0093    9.0643  -31.9564 Br  0  0  0  0  0  0  0  0  0  0  0  0
  1  3  2  0
  1  5  1  0
  2  5  2  0
  2  6  1  0
  3  4  1  0
  3  7  1  0
  4  6  2  0
  4  8  1  0
  5  9  1  0
  6 10  1  0
M  END
>  <id>  (94) 
EN300-93412

>  <smiles>  (94) 
CC=1C=C(F)C=C(Br)C1O

>  <MDLNUMBER>  (94) 
MFCD22414711

>  <IUPAC Name>  (94) 
2-bromo-4-fluoro-6-methylphenol

>  <CAS>  (94) 
1572185-50-2

>  <Purity>  (94) 
95

>  <URL>  (94) 
https://www.enaminestore.com/catalog/EN300-93412

>  <ROCS_ShapeQuery>  (94) 
_x1604L0AP1_x0771L0AP1

>  <ROCS_TanimotoCombo>  (94) 
0.910 

>  <ROCS_ShapeTanimoto>  (94) 
0.459 

>  <ROCS_ColorTanimoto>  (94) 
0.451 

>  <ROCS_RefTversky>  (94) 
0.406 

>  <ROCS_RefColorTversky>  (94) 
0.431 

>  <ROCS_RefTverskyCombo>  (94) 
0.837 

>  <ROCS_FitTversky>  (94) 
1.404 

>  <ROCS_FitColorTversky>  (94) 
1.113 

>  <ROCS_FitTverskyCombo>  (94) 
2.517 

>  <ROCS_ColorScore>  (94) 
-4.881

>  <ROCS_Overlap>  (94) 
685.177

>  <ROCS_Rank>  (94) 
183                 

$$$$
untitled-dbase-68_0
     RDKit          3D

 10 10  0  0  0  0  0  0  0  0999 V2000
   -4.5790   12.4750  -29.8592 C   0  0  0  0  0  0  0  0  0  0  0  0
   -5.0633   11.1289  -31.8061 C   0  0  0  0  0  0  0  0  0  0  0  0
   -5.5562   11.7868  -29.1402 C   0  0  0  0  0  0  0  0  0  0  0  0
   -6.2870   10.7696  -29.7541 C   0  0  0  0  0  0  0  0  0  0  0  0
   -4.3326   12.1461  -31.1922 C   0  0  0  0  0  0  0  0  0  0  0  0
   -6.0406   10.4406  -31.0871 C   0  0  0  0  0  0  0  0  0  0  0  0
   -5.8040   12.1550  -27.7142 C   0  0  0  0  0  0  0  0  0  0  0  0
   -7.2399   10.1055  -29.0374 O   0  0  0  0  0  0  0  0  0  0  0  0
   -3.1267   12.9958  -32.0790 Cl  0  0  0  0  0  0  0  0  0  0  0  0
   -7.0130    9.0644  -31.9562 Br  0  0  0  0  0  0  0  0  0  0  0  0
  1  3  2  0
  1  5  1  0
  2  5  2  0
  2  6  1  0
  3  4  1  0
  3  7  1  0
  4  6  2  0
  4  8  1  0
  5  9  1  0
  6 10  1  0
M  END
>  <id>  (95) 
EN300-245419

>  <smiles>  (95) 
CC=1C=C(Cl)C=C(Br)C1O

>  <MDLNUMBER>  (95) 
MFCD00029750

>  <IUPAC Name>  (95) 
2-bromo-4-chloro-6-methylphenol

>  <CAS>  (95) 
54852-68-5

>  <Purity>  (95) 
95

>  <URL>  (95) 
https://www.enaminestore.com/catalog/EN300-245419

>  <MP>  (95) 
51-52

>  <ROCS_ShapeQuery>  (95) 
_x1604L0AP1_x0771L0AP1

>  <ROCS_TanimotoCombo>  (95) 
0.910 

>  <ROCS_ShapeTanimoto>  (95) 
0.459 

>  <ROCS_ColorTanimoto>  (95) 
0.451 

>  <ROCS_RefTversky>  (95) 
0.404 

>  <ROCS_RefColorTversky>  (95) 
0.431 

>  <ROCS_RefTverskyCombo>  (95) 
0.835 

>  <ROCS_FitTversky>  (95) 
1.428 

>  <ROCS_FitColorTversky>  (95) 
1.113 

>  <ROCS_FitTverskyCombo>  (95) 
2.541 

>  <ROCS_ColorScore>  (95) 
-4.881

>  <ROCS_Overlap>  (95) 
681.504

>  <ROCS_Rank>  (95) 
184                 

$$$$
untitled-dbase-793_4
     RDKit          3D

 12 12  0  0  0  0  0  0  0  0999 V2000
   -4.6039   12.4885  -29.8646 C   0  0  0  0  0  0  0  0  0  0  0  0
   -4.3549   12.1669  -31.1987 C   0  0  0  0  0  0  0  0  0  0  0  0
   -5.5736   11.7878  -29.1474 C   0  0  0  0  0  0  0  0  0  0  0  0
   -5.0757   11.1445  -31.8159 C   0  0  0  0  0  0  0  0  0  0  0  0
   -6.2945   10.7654  -29.7645 C   0  0  0  0  0  0  0  0  0  0  0  0
   -6.0455   10.4438  -31.0988 C   0  0  0  0  0  0  0  0  0  0  0  0
   -5.9701   10.9797  -34.1730 C   0  0  0  0  0  0  0  0  0  0  0  0
   -6.0188   10.0442  -35.3534 C   0  0  0  0  0  0  0  0  0  0  0  0
   -4.7714   10.8389  -33.2473 C   0  0  0  0  0  0  0  0  0  0  0  0
   -6.8621   11.8061  -33.9855 O   0  0  0  0  0  0  0  0  0  0  0  0
   -7.2348   10.1031  -29.0323 O   0  0  0  0  0  0  0  0  0  0  0  0
   -7.0349    9.0469  -31.9299 Br  0  0  0  0  0  0  0  0  0  0  0  0
  1  2  2  0
  1  3  1  0
  2  4  1  0
  3  5  2  0
  4  6  2  0
  4  9  1  0
  5  6  1  0
  5 11  1  0
  6 12  1  0
  7  8  1  0
  7  9  1  0
  7 10  2  0
M  END
>  <id>  (96) 
EN300-1893325

>  <smiles>  (96) 
CC(=O)CC=1C=CC=C(O)C1Br

>  <MDLNUMBER>  (96) 
MFCD10566806

>  <IUPAC Name>  (96) 
1-(2-bromo-3-hydroxyphenyl)propan-2-one

>  <CAS>  (96) 
1379333-76-2

>  <URL>  (96) 
https://www.enaminestore.com/catalog/EN300-1893325

>  <ROCS_ShapeQuery>  (96) 
_x1604L0AP1_x0771L0AP1

>  <ROCS_TanimotoCombo>  (96) 
0.910 

>  <ROCS_ShapeTanimoto>  (96) 
0.497 

>  <ROCS_ColorTanimoto>  (96) 
0.413 

>  <ROCS_RefTversky>  (96) 
0.442 

>  <ROCS_RefColorTversky>  (96) 
0.430 

>  <ROCS_RefTverskyCombo>  (96) 
0.872 

>  <ROCS_FitTversky>  (96) 
1.327 

>  <ROCS_FitColorTversky>  (96) 
0.915 

>  <ROCS_FitTverskyCombo>  (96) 
2.242 

>  <ROCS_ColorScore>  (96) 
-4.882

>  <ROCS_Overlap>  (96) 
748.984

>  <ROCS_Rank>  (96) 
188                 

$$$$
untitled-dbase-125_0
     RDKit          3D

 12 12  0  0  0  0  0  0  0  0999 V2000
   -5.0564   11.1310  -31.7966 C   0  0  0  0  0  0  0  0  0  0  0  0
   -5.5668   11.7751  -29.1306 C   0  0  0  0  0  0  0  0  0  0  0  0
   -4.3311   12.1464  -31.1733 C   0  0  0  0  0  0  0  0  0  0  0  0
   -6.2921   10.7598  -29.7540 C   0  0  0  0  0  0  0  0  0  0  0  0
   -4.5862   12.4684  -29.8403 C   0  0  0  0  0  0  0  0  0  0  0  0
   -6.0370   10.4377  -31.0870 C   0  0  0  0  0  0  0  0  0  0  0  0
   -3.3336   12.8512  -31.8982 N   0  0  0  0  0  0  0  0  0  0  0  0
   -3.1214   12.5437  -33.0959 O   0  0  0  0  0  0  0  0  0  0  0  0
   -2.6918   13.7616  -31.3206 O   0  0  0  0  0  0  0  0  0  0  0  0
   -7.2457   10.1036  -29.0339 O   0  0  0  0  0  0  0  0  0  0  0  0
   -3.8975   13.4434  -29.2295 F   0  0  0  0  0  0  0  0  0  0  0  0
   -7.0060    9.0665  -31.9665 Br  0  0  0  0  0  0  0  0  0  0  0  0
  1  3  2  0
  1  6  1  0
  2  4  1  0
  2  5  2  0
  3  5  1  0
  3  7  1  0
  4  6  2  0
  4 10  1  0
  5 11  1  0
  6 12  1  0
  7  8  1  0
  7  9  2  0
M  CHG  2   7   1   8  -1
M  END
>  <id>  (97) 
EN300-746241

>  <smiles>  (97) 
OC=1C=C(F)C(=CC1Br)[N+](=O)[O-]

>  <MDLNUMBER>  (97) 
MFCD22034975

>  <IUPAC Name>  (97) 
2-bromo-5-fluoro-4-nitrophenol

>  <CAS>  (97) 
1369139-60-5

>  <Purity>  (97) 
95

>  <URL>  (97) 
https://www.enaminestore.com/catalog/EN300-746241

>  <ROCS_ShapeQuery>  (97) 
_x1604L0AP1_x0771L0AP1

>  <ROCS_TanimotoCombo>  (97) 
0.910 

>  <ROCS_ShapeTanimoto>  (97) 
0.530 

>  <ROCS_ColorTanimoto>  (97) 
0.380 

>  <ROCS_RefTversky>  (97) 
0.467 

>  <ROCS_RefColorTversky>  (97) 
0.427 

>  <ROCS_RefTverskyCombo>  (97) 
0.894 

>  <ROCS_FitTversky>  (97) 
1.343 

>  <ROCS_FitColorTversky>  (97) 
0.774 

>  <ROCS_FitTverskyCombo>  (97) 
2.117 

>  <ROCS_ColorScore>  (97) 
-4.879

>  <ROCS_Overlap>  (97) 
790.447

>  <ROCS_Rank>  (97) 
189                 

$$$$
untitled-dbase-2316_0
     RDKit          3D

 10 10  0  0  0  0  0  0  0  0999 V2000
   -4.3457   12.1713  -31.1911 C   0  0  0  0  0  0  0  0  0  0  0  0
   -5.5716   11.7876  -29.1448 C   0  0  0  0  0  0  0  0  0  0  0  0
   -5.0656   11.1516  -31.8136 C   0  0  0  0  0  0  0  0  0  0  0  0
   -6.2915   10.7679  -29.7673 C   0  0  0  0  0  0  0  0  0  0  0  0
   -4.5987   12.4893  -29.8567 C   0  0  0  0  0  0  0  0  0  0  0  0
   -6.0385   10.4499  -31.1017 C   0  0  0  0  0  0  0  0  0  0  0  0
   -4.7572   10.8495  -33.2449 C   0  0  0  0  0  0  0  0  0  0  0  0
   -7.2346   10.1040  -29.0399 O   0  0  0  0  0  0  0  0  0  0  0  0
   -3.7108   13.7476  -29.0886 Cl  0  0  0  0  0  0  0  0  0  0  0  0
   -7.0260    9.0563  -31.9408 Br  0  0  0  0  0  0  0  0  0  0  0  0
  1  3  2  0
  1  5  1  0
  2  4  1  0
  2  5  2  0
  3  6  1  0
  3  7  1  0
  4  6  2  0
  4  8  1  0
  5  9  1  0
  6 10  1  0
M  END
>  <id>  (98) 
EN300-33887700

>  <smiles>  (98) 
CC=1C=C(Cl)C=C(O)C1Br

>  <MDLNUMBER>  (98) 
MFCD33401552

>  <IUPAC Name>  (98) 
2-bromo-5-chloro-3-methylphenol

>  <CAS>  (98) 
2092417-16-6

>  <Purity>  (98) 
95

>  <URL>  (98) 
https://www.enaminestore.com/catalog/EN300-33887700

>  <ROCS_ShapeQuery>  (98) 
_x1604L0AP1_x0771L0AP1

>  <ROCS_TanimotoCombo>  (98) 
0.910 

>  <ROCS_ShapeTanimoto>  (98) 
0.458 

>  <ROCS_ColorTanimoto>  (98) 
0.451 

>  <ROCS_RefTversky>  (98) 
0.403 

>  <ROCS_RefColorTversky>  (98) 
0.432 

>  <ROCS_RefTverskyCombo>  (98) 
0.834 

>  <ROCS_FitTversky>  (98) 
1.428 

>  <ROCS_FitColorTversky>  (98) 
1.114 

>  <ROCS_FitTverskyCombo>  (98) 
2.541 

>  <ROCS_ColorScore>  (98) 
-4.883

>  <ROCS_Overlap>  (98) 
680.198

>  <ROCS_Rank>  (98) 
190                 

$$$$
untitled-dbase-858_58
     RDKit          3D

 13 13  0  0  0  0  0  0  0  0999 V2000
   -4.3758   11.8799  -31.8035 C   0  0  0  0  0  0  0  0  0  0  0  0
   -4.3800   12.3872  -30.5042 C   0  0  0  0  0  0  0  0  0  0  0  0
   -5.2507   10.8515  -32.1536 C   0  0  0  0  0  0  0  0  0  0  0  0
   -5.2591   11.8659  -29.5549 C   0  0  0  0  0  0  0  0  0  0  0  0
   -6.1340   10.8375  -29.9049 C   0  0  0  0  0  0  0  0  0  0  0  0
   -6.1297   10.3302  -31.2043 C   0  0  0  0  0  0  0  0  0  0  0  0
   -3.8816   12.2922  -27.4100 C   0  0  0  0  0  0  0  0  0  0  0  0
   -5.5600   13.9529  -28.1863 C   0  0  0  0  0  0  0  0  0  0  0  0
   -6.3250   11.7443  -27.2569 C   0  0  0  0  0  0  0  0  0  0  0  0
   -5.2458   12.4403  -28.1258 C   0  0  0  0  0  0  0  0  0  0  0  0
   -6.9870   10.3368  -28.9646 O   0  0  0  0  0  0  0  0  0  0  0  0
   -6.3335   12.2821  -25.9388 O   0  0  0  0  0  0  0  0  0  0  0  0
   -7.3037    8.9337  -31.7196 Br  0  0  0  0  0  0  0  0  0  0  0  0
  1  2  2  0
  1  3  1  0
  2  4  1  0
  3  6  2  0
  4  5  2  0
  4 10  1  0
  5  6  1  0
  5 11  1  0
  6 13  1  0
  7 10  1  0
  8 10  1  0
  9 10  1  0
  9 12  1  0
M  END
>  <id>  (99) 
EN300-1923101

>  <smiles>  (99) 
CC(C)(CO)C=1C=CC=C(Br)C1O

>  <IUPAC Name>  (99) 
2-bromo-6-(1-hydroxy-2-methylpropan-2-yl)phenol

>  <CAS>  (99) 
1897935-76-0

>  <URL>  (99) 
https://www.enaminestore.com/catalog/EN300-1923101

>  <ROCS_ShapeQuery>  (99) 
_x1604L0AP1_x0771L0AP1

>  <ROCS_TanimotoCombo>  (99) 
0.909 

>  <ROCS_ShapeTanimoto>  (99) 
0.426 

>  <ROCS_ColorTanimoto>  (99) 
0.483 

>  <ROCS_RefTversky>  (99) 
0.405 

>  <ROCS_RefColorTversky>  (99) 
0.531 

>  <ROCS_RefTverskyCombo>  (99) 
0.937 

>  <ROCS_FitTversky>  (99) 
1.137 

>  <ROCS_FitColorTversky>  (99) 
0.842 

>  <ROCS_FitTverskyCombo>  (99) 
1.979 

>  <ROCS_ColorScore>  (99) 
-6.093

>  <ROCS_Overlap>  (99) 
686.718

>  <ROCS_Rank>  (99) 
192                 

$$$$
untitled-dbase-1781_0
     RDKit          3D

 10 10  0  0  0  0  0  0  0  0999 V2000
   -5.5800   11.7811  -29.1259 C   0  0  0  0  0  0  0  0  0  0  0  0
   -4.6046   12.4959  -29.8211 C   0  0  0  0  0  0  0  0  0  0  0  0
   -6.2913   10.7669  -29.7672 C   0  0  0  0  0  0  0  0  0  0  0  0
   -4.3405   12.1966  -31.1576 C   0  0  0  0  0  0  0  0  0  0  0  0
   -5.0518   11.1824  -31.7990 C   0  0  0  0  0  0  0  0  0  0  0  0
   -6.0272   10.4676  -31.1037 C   0  0  0  0  0  0  0  0  0  0  0  0
   -7.2367   10.0941  -29.0510 O   0  0  0  0  0  0  0  0  0  0  0  0
   -3.1160   13.1286  -31.9505 Cl  0  0  0  0  0  0  0  0  0  0  0  0
   -4.7104   10.8221  -33.4661 Cl  0  0  0  0  0  0  0  0  0  0  0  0
   -7.0320    9.0677  -31.9277 Br  0  0  0  0  0  0  0  0  0  0  0  0
  1  2  2  0
  1  3  1  0
  2  4  1  0
  3  6  2  0
  3  7  1  0
  4  5  2  0
  4  8  1  0
  5  6  1  0
  5  9  1  0
  6 10  1  0
M  END
>  <id>  (100) 
EN300-7655133

>  <smiles>  (100) 
OC=1C=CC(Cl)=C(Cl)C1Br

>  <MDLNUMBER>  (100) 
MFCD19707188

>  <IUPAC Name>  (100) 
2-bromo-3,4-dichlorophenol

>  <CAS>  (100) 
1379356-93-0

>  <Purity>  (100) 
95

>  <URL>  (100) 
https://www.enaminestore.com/catalog/EN300-7655133

>  <ROCS_ShapeQuery>  (100) 
_x1604L0AP1_x0771L0AP1

>  <ROCS_TanimotoCombo>  (100) 
0.909 

>  <ROCS_ShapeTanimoto>  (100) 
0.457 

>  <ROCS_ColorTanimoto>  (100) 
0.452 

>  <ROCS_RefTversky>  (100) 
0.401 

>  <ROCS_RefColorTversky>  (100) 
0.432 

>  <ROCS_RefTverskyCombo>  (100) 
0.833 

>  <ROCS_FitTversky>  (100) 
1.441 

>  <ROCS_FitColorTversky>  (100) 
1.114 

>  <ROCS_FitTverskyCombo>  (100) 
2.555 

>  <ROCS_ColorScore>  (100) 
-4.885

>  <ROCS_Overlap>  (100) 
677.257

>  <ROCS_Rank>  (100) 
193                 

$$$$
untitled-dbase-526_22
     RDKit          3D

 13 13  0  0  0  0  0  0  0  0999 V2000
   -4.2236   12.0922  -29.8561 C   0  0  0  0  0  0  0  0  0  0  0  0
   -5.1741   11.2041  -31.8920 C   0  0  0  0  0  0  0  0  0  0  0  0
   -5.1911   11.4186  -29.1105 C   0  0  0  0  0  0  0  0  0  0  0  0
   -6.1501   10.6377  -29.7556 C   0  0  0  0  0  0  0  0  0  0  0  0
   -4.2151   11.9849  -31.2468 C   0  0  0  0  0  0  0  0  0  0  0  0
   -6.1416   10.5304  -31.1464 C   0  0  0  0  0  0  0  0  0  0  0  0
   -6.2575   12.4763  -27.0790 C   0  0  0  0  0  0  0  0  0  0  0  0
   -7.2006   13.0757  -28.0901 C   0  0  0  0  0  0  0  0  0  0  0  0
   -5.1821   11.5471  -27.6226 C   0  0  0  0  0  0  0  0  0  0  0  0
   -6.3675   12.7365  -25.8815 O   0  0  0  0  0  0  0  0  0  0  0  0
   -7.0902    9.9849  -29.0123 O   0  0  0  0  0  0  0  0  0  0  0  0
   -3.0212   12.8165  -32.1664 Cl  0  0  0  0  0  0  0  0  0  0  0  0
   -7.4284    9.4790  -32.0593 Br  0  0  0  0  0  0  0  0  0  0  0  0
  1  3  2  0
  1  5  1  0
  2  5  2  0
  2  6  1  0
  3  4  1  0
  3  9  1  0
  4  6  2  0
  4 11  1  0
  5 12  1  0
  6 13  1  0
  7  8  1  0
  7  9  1  0
  7 10  2  0
M  END
>  <id>  (101) 
EN300-1912617

>  <smiles>  (101) 
CC(=O)CC=1C=C(Cl)C=C(Br)C1O

>  <MDLNUMBER>  (101) 
MFCD03410432

>  <IUPAC Name>  (101) 
1-(3-bromo-5-chloro-2-hydroxyphenyl)propan-2-one

>  <CAS>  (101) 
1017083-02-1

>  <URL>  (101) 
https://www.enaminestore.com/catalog/EN300-1912617

>  <ROCS_ShapeQuery>  (101) 
_x1604L0AP1_x0771L0AP1

>  <ROCS_TanimotoCombo>  (101) 
0.909 

>  <ROCS_ShapeTanimoto>  (101) 
0.439 

>  <ROCS_ColorTanimoto>  (101) 
0.470 

>  <ROCS_RefTversky>  (101) 
0.413 

>  <ROCS_RefColorTversky>  (101) 
0.469 

>  <ROCS_RefTverskyCombo>  (101) 
0.883 

>  <ROCS_FitTversky>  (101) 
1.169 

>  <ROCS_FitColorTversky>  (101) 
1.000 

>  <ROCS_FitTverskyCombo>  (101) 
2.169 

>  <ROCS_ColorScore>  (101) 
-5.336

>  <ROCS_Overlap>  (101) 
700.220

>  <ROCS_Rank>  (101) 
194                 

$$$$
untitled-dbase-172_20
     RDKit          3D

 11 11  0  0  0  0  0  0  0  0999 V2000
   -4.5760   12.4693  -29.8579 C   0  0  0  0  0  0  0  0  0  0  0  0
   -5.0608   11.1237  -31.8050 C   0  0  0  0  0  0  0  0  0  0  0  0
   -5.5547   11.7825  -29.1396 C   0  0  0  0  0  0  0  0  0  0  0  0
   -6.2864   10.7663  -29.7539 C   0  0  0  0  0  0  0  0  0  0  0  0
   -4.3290   12.1400  -31.1907 C   0  0  0  0  0  0  0  0  0  0  0  0
   -6.0395   10.4369  -31.0867 C   0  0  0  0  0  0  0  0  0  0  0  0
   -5.8030   12.1512  -27.7137 C   0  0  0  0  0  0  0  0  0  0  0  0
   -7.2408   10.1037  -29.0378 O   0  0  0  0  0  0  0  0  0  0  0  0
   -5.0263   13.7308  -27.2591 S   0  0  0  0  0  0  0  0  0  0  0  0
   -3.1213   12.9879  -32.0767 Cl  0  0  0  0  0  0  0  0  0  0  0  0
   -7.0133    9.0620  -31.9564 Br  0  0  0  0  0  0  0  0  0  0  0  0
  1  3  2  0
  1  5  1  0
  2  5  2  0
  2  6  1  0
  3  4  1  0
  3  7  1  0
  4  6  2  0
  4  8  1  0
  5 10  1  0
  6 11  1  0
  7  9  1  0
M  END
>  <id>  (102) 
EN300-1289363

>  <smiles>  (102) 
OC=1C(Br)=CC(Cl)=CC1CS

>  <MDLNUMBER>  (102) 
MFCD33497722

>  <IUPAC Name>  (102) 
2-bromo-4-chloro-6-(sulfanylmethyl)phenol

>  <CAS>  (102) 
2172197-28-1

>  <URL>  (102) 
https://www.enaminestore.com/catalog/EN300-1289363

>  <ROCS_ShapeQuery>  (102) 
_x1604L0AP1_x0771L0AP1

>  <ROCS_TanimotoCombo>  (102) 
0.909 

>  <ROCS_ShapeTanimoto>  (102) 
0.458 

>  <ROCS_ColorTanimoto>  (102) 
0.451 

>  <ROCS_RefTversky>  (102) 
0.408 

>  <ROCS_RefColorTversky>  (102) 
0.431 

>  <ROCS_RefTverskyCombo>  (102) 
0.840 

>  <ROCS_FitTversky>  (102) 
1.358 

>  <ROCS_FitColorTversky>  (102) 
1.113 

>  <ROCS_FitTverskyCombo>  (102) 
2.471 

>  <ROCS_ColorScore>  (102) 
-4.881

>  <ROCS_Overlap>  (102) 
690.138

>  <ROCS_Rank>  (102) 
195                 

$$$$
untitled-dbase-729_12
     RDKit          3D

 12 12  0  0  0  0  0  0  0  0999 V2000
   -4.5794   12.4684  -29.8218 C   0  0  0  0  0  0  0  0  0  0  0  0
   -5.0505   11.1358  -31.7812 C   0  0  0  0  0  0  0  0  0  0  0  0
   -4.3233   12.1481  -31.1550 C   0  0  0  0  0  0  0  0  0  0  0  0
   -5.5626   11.7763  -29.1147 C   0  0  0  0  0  0  0  0  0  0  0  0
   -6.2898   10.7640  -29.7408 C   0  0  0  0  0  0  0  0  0  0  0  0
   -6.0338   10.4437  -31.0741 C   0  0  0  0  0  0  0  0  0  0  0  0
   -5.0128   13.1479  -27.2513 C   0  0  0  0  0  0  0  0  0  0  0  0
   -3.2727   12.8889  -31.9109 C   0  0  0  0  0  0  0  0  0  0  0  0
   -7.2481   10.0991  -29.0328 O   0  0  0  0  0  0  0  0  0  0  0  0
   -5.8016   12.1010  -27.8133 O   0  0  0  0  0  0  0  0  0  0  0  0
   -2.8070   14.3729  -31.0492 Cl  0  0  0  0  0  0  0  0  0  0  0  0
   -7.0014    9.0744  -31.9589 Br  0  0  0  0  0  0  0  0  0  0  0  0
  1  3  2  0
  1  4  1  0
  2  3  1  0
  2  6  2  0
  3  8  1  0
  4  5  2  0
  4 10  1  0
  5  6  1  0
  5  9  1  0
  6 12  1  0
  7 10  1  0
  8 11  1  0
M  END
>  <id>  (103) 
EN300-1897827

>  <smiles>  (103) 
COC=1C=C(CCl)C=C(Br)C1O

>  <MDLNUMBER>  (103) 
MFCD13178320

>  <IUPAC Name>  (103) 
2-bromo-4-(chloromethyl)-6-methoxyphenol

>  <CAS>  (103) 
21709-81-9

>  <URL>  (103) 
https://www.enaminestore.com/catalog/EN300-1897827

>  <ROCS_ShapeQuery>  (103) 
_x1604L0AP1_x0771L0AP1

>  <ROCS_TanimotoCombo>  (103) 
0.908 

>  <ROCS_ShapeTanimoto>  (103) 
0.493 

>  <ROCS_ColorTanimoto>  (103) 
0.415 

>  <ROCS_RefTversky>  (103) 
0.440 

>  <ROCS_RefColorTversky>  (103) 
0.431 

>  <ROCS_RefTverskyCombo>  (103) 
0.871 

>  <ROCS_FitTversky>  (103) 
1.330 

>  <ROCS_FitColorTversky>  (103) 
0.918 

>  <ROCS_FitTverskyCombo>  (103) 
2.248 

>  <ROCS_ColorScore>  (103) 
-4.899

>  <ROCS_Overlap>  (103) 
744.082

>  <ROCS_Rank>  (103) 
197                 

$$$$
untitled-dbase-891_15
     RDKit          3D

 12 12  0  0  0  0  0  0  0  0999 V2000
   -4.5699   12.4661  -29.8636 C   0  0  0  0  0  0  0  0  0  0  0  0
   -5.0607   11.1203  -31.8091 C   0  0  0  0  0  0  0  0  0  0  0  0
   -5.5484   11.7814  -29.1430 C   0  0  0  0  0  0  0  0  0  0  0  0
   -6.2830   10.7660  -29.7554 C   0  0  0  0  0  0  0  0  0  0  0  0
   -4.3261   12.1356  -31.1967 C   0  0  0  0  0  0  0  0  0  0  0  0
   -6.0392   10.4355  -31.0885 C   0  0  0  0  0  0  0  0  0  0  0  0
   -5.7933   12.1511  -27.7169 C   0  0  0  0  0  0  0  0  0  0  0  0
   -7.3492   12.2787  -26.0024 N   0  0  0  0  0  0  0  0  0  0  0  0
   -7.2371   10.1054  -29.0372 O   0  0  0  0  0  0  0  0  0  0  0  0
   -7.1561   11.9061  -27.3949 O   0  0  0  0  0  0  0  0  0  0  0  0
   -3.1187   12.9811  -32.0855 Cl  0  0  0  0  0  0  0  0  0  0  0  0
   -7.0170    9.0619  -31.9556 Br  0  0  0  0  0  0  0  0  0  0  0  0
  1  3  2  0
  1  5  1  0
  2  5  2  0
  2  6  1  0
  3  4  1  0
  3  7  1  0
  4  6  2  0
  4  9  1  0
  5 11  1  0
  6 12  1  0
  7 10  1  0
  8 10  1  0
M  END
>  <id>  (104) 
EN300-1922561

>  <smiles>  (104) 
NOCC=1C=C(Cl)C=C(Br)C1O

>  <IUPAC Name>  (104) 
2-[(aminooxy)methyl]-6-bromo-4-chlorophenol

>  <CAS>  (104) 
2229516-41-8

>  <URL>  (104) 
https://www.enaminestore.com/catalog/EN300-1922561

>  <ROCS_ShapeQuery>  (104) 
_x1604L0AP1_x0771L0AP1

>  <ROCS_TanimotoCombo>  (104) 
0.908 

>  <ROCS_ShapeTanimoto>  (104) 
0.457 

>  <ROCS_ColorTanimoto>  (104) 
0.451 

>  <ROCS_RefTversky>  (104) 
0.417 

>  <ROCS_RefColorTversky>  (104) 
0.431 

>  <ROCS_RefTverskyCombo>  (104) 
0.848 

>  <ROCS_FitTversky>  (104) 
1.268 

>  <ROCS_FitColorTversky>  (104) 
1.113 

>  <ROCS_FitTverskyCombo>  (104) 
2.381 

>  <ROCS_ColorScore>  (104) 
-4.881

>  <ROCS_Overlap>  (104) 
705.672

>  <ROCS_Rank>  (104) 
198                 

$$$$
untitled-dbase-47_0
     RDKit          3D

 10 10  0  0  0  0  0  0  0  0999 V2000
   -4.5773   12.4796  -29.8612 C   0  0  0  0  0  0  0  0  0  0  0  0
   -5.0643   11.1293  -31.8045 C   0  0  0  0  0  0  0  0  0  0  0  0
   -4.3332   12.1484  -31.1939 C   0  0  0  0  0  0  0  0  0  0  0  0
   -6.2835   10.7727  -29.7493 C   0  0  0  0  0  0  0  0  0  0  0  0
   -5.5524   11.7917  -29.1388 C   0  0  0  0  0  0  0  0  0  0  0  0
   -6.0395   10.4415  -31.0822 C   0  0  0  0  0  0  0  0  0  0  0  0
   -3.2912   12.8845  -31.9664 C   0  0  0  0  0  0  0  0  0  0  0  0
   -7.2393   10.1037  -29.0401 O   0  0  0  0  0  0  0  0  0  0  0  0
   -5.8294   12.2255  -27.4919 Cl  0  0  0  0  0  0  0  0  0  0  0  0
   -7.0130    9.0645  -31.9497 Br  0  0  0  0  0  0  0  0  0  0  0  0
  1  3  2  0
  1  5  1  0
  2  3  1  0
  2  6  2  0
  3  7  1  0
  4  5  2  0
  4  6  1  0
  4  8  1  0
  5  9  1  0
  6 10  1  0
M  END
>  <id>  (105) 
EN300-203031

>  <smiles>  (105) 
CC=1C=C(Cl)C(O)=C(Br)C1

>  <MDLNUMBER>  (105) 
MFCD22414716

>  <IUPAC Name>  (105) 
2-bromo-6-chloro-4-methylphenol

>  <CAS>  (105) 
57018-10-7

>  <Purity>  (105) 
95

>  <URL>  (105) 
https://www.enaminestore.com/catalog/EN300-203031

>  <ROCS_ShapeQuery>  (105) 
_x1604L0AP1_x0771L0AP1

>  <ROCS_TanimotoCombo>  (105) 
0.908 

>  <ROCS_ShapeTanimoto>  (105) 
0.457 

>  <ROCS_ColorTanimoto>  (105) 
0.451 

>  <ROCS_RefTversky>  (105) 
0.402 

>  <ROCS_RefColorTversky>  (105) 
0.431 

>  <ROCS_RefTverskyCombo>  (105) 
0.834 

>  <ROCS_FitTversky>  (105) 
1.424 

>  <ROCS_FitColorTversky>  (105) 
1.113 

>  <ROCS_FitTverskyCombo>  (105) 
2.538 

>  <ROCS_ColorScore>  (105) 
-4.882

>  <ROCS_Overlap>  (105) 
679.005

>  <ROCS_Rank>  (105) 
200                 

$$$$
untitled-dbase-1285_44
     RDKit          3D

 12 12  0  0  0  0  0  0  0  0999 V2000
   -4.5713   12.4687  -29.8658 C   0  0  0  0  0  0  0  0  0  0  0  0
   -5.0621   11.1223  -31.8109 C   0  0  0  0  0  0  0  0  0  0  0  0
   -5.5488   11.7832  -29.1446 C   0  0  0  0  0  0  0  0  0  0  0  0
   -6.2829   10.7672  -29.7564 C   0  0  0  0  0  0  0  0  0  0  0  0
   -4.3280   12.1383  -31.1990 C   0  0  0  0  0  0  0  0  0  0  0  0
   -6.0396   10.4367  -31.0896 C   0  0  0  0  0  0  0  0  0  0  0  0
   -5.7932   12.1529  -27.7183 C   0  0  0  0  0  0  0  0  0  0  0  0
   -7.2570   12.0451  -27.2627 C   0  0  0  0  0  0  0  0  0  0  0  0
   -7.2360   10.1059  -29.0375 O   0  0  0  0  0  0  0  0  0  0  0  0
   -7.4827   12.5286  -25.5231 S   0  0  0  0  0  0  0  0  0  0  0  0
   -3.1218   12.9847  -32.0886 Cl  0  0  0  0  0  0  0  0  0  0  0  0
   -7.0167    9.0622  -31.9560 Br  0  0  0  0  0  0  0  0  0  0  0  0
  1  3  2  0
  1  5  1  0
  2  5  2  0
  2  6  1  0
  3  4  1  0
  3  7  1  0
  4  6  2  0
  4  9  1  0
  5 11  1  0
  6 12  1  0
  7  8  1  0
  8 10  1  0
M  END
>  <id>  (106) 
EN300-1922923

>  <smiles>  (106) 
OC=1C(Br)=CC(Cl)=CC1CCS

>  <IUPAC Name>  (106) 
2-bromo-4-chloro-6-(2-sulfanylethyl)phenol

>  <CAS>  (106) 
2229491-54-5

>  <URL>  (106) 
https://www.enaminestore.com/catalog/EN300-1922923

>  <ROCS_ShapeQuery>  (106) 
_x1604L0AP1_x0771L0AP1

>  <ROCS_TanimotoCombo>  (106) 
0.908 

>  <ROCS_ShapeTanimoto>  (106) 
0.457 

>  <ROCS_ColorTanimoto>  (106) 
0.451 

>  <ROCS_RefTversky>  (106) 
0.415 

>  <ROCS_RefColorTversky>  (106) 
0.431 

>  <ROCS_RefTverskyCombo>  (106) 
0.846 

>  <ROCS_FitTversky>  (106) 
1.289 

>  <ROCS_FitColorTversky>  (106) 
1.113 

>  <ROCS_FitTverskyCombo>  (106) 
2.402 

>  <ROCS_ColorScore>  (106) 
-4.881

>  <ROCS_Overlap>  (106) 
701.281

>  <ROCS_Rank>  (106) 
202                 

$$$$
untitled-dbase-1508_0
     RDKit          3D

 10 10  0  0  0  0  0  0  0  0999 V2000
   -4.5755   12.4784  -29.8581 C   0  0  0  0  0  0  0  0  0  0  0  0
   -5.0620   11.1296  -31.8025 C   0  0  0  0  0  0  0  0  0  0  0  0
   -6.2836   10.7732  -29.7488 C   0  0  0  0  0  0  0  0  0  0  0  0
   -4.3304   12.1475  -31.1908 C   0  0  0  0  0  0  0  0  0  0  0  0
   -5.5520   11.7912  -29.1371 C   0  0  0  0  0  0  0  0  0  0  0  0
   -6.0386   10.4424  -31.0816 C   0  0  0  0  0  0  0  0  0  0  0  0
   -7.2395   10.1037  -29.0401 O   0  0  0  0  0  0  0  0  0  0  0  0
   -3.3935   12.8083  -31.8835 F   0  0  0  0  0  0  0  0  0  0  0  0
   -5.8298   12.2264  -27.4906 Cl  0  0  0  0  0  0  0  0  0  0  0  0
   -7.0116    9.0661  -31.9505 Br  0  0  0  0  0  0  0  0  0  0  0  0
  1  4  2  0
  1  5  1  0
  2  4  1  0
  2  6  2  0
  3  5  2  0
  3  6  1  0
  3  7  1  0
  4  8  1  0
  5  9  1  0
  6 10  1  0
M  END
>  <id>  (107) 
EN300-1238568

>  <smiles>  (107) 
OC=1C(Cl)=CC(F)=CC1Br

>  <MDLNUMBER>  (107) 
MFCD04115954

>  <IUPAC Name>  (107) 
2-bromo-6-chloro-4-fluorophenol

>  <CAS>  (107) 
886499-83-8

>  <Purity>  (107) 
95

>  <URL>  (107) 
https://www.enaminestore.com/catalog/EN300-1238568

>  <ROCS_ShapeQuery>  (107) 
_x1604L0AP1_x0771L0AP1

>  <ROCS_TanimotoCombo>  (107) 
0.908 

>  <ROCS_ShapeTanimoto>  (107) 
0.457 

>  <ROCS_ColorTanimoto>  (107) 
0.451 

>  <ROCS_RefTversky>  (107) 
0.403 

>  <ROCS_RefColorTversky>  (107) 
0.431 

>  <ROCS_RefTverskyCombo>  (107) 
0.834 

>  <ROCS_FitTversky>  (107) 
1.413 

>  <ROCS_FitColorTversky>  (107) 
1.113 

>  <ROCS_FitTverskyCombo>  (107) 
2.526 

>  <ROCS_ColorScore>  (107) 
-4.882

>  <ROCS_Overlap>  (107) 
680.304

>  <ROCS_Rank>  (107) 
203                 

$$$$
untitled-dbase-55_0
     RDKit          3D

 10 10  0  0  0  0  0  0  0  0999 V2000
   -4.5741   12.4762  -29.8574 C   0  0  0  0  0  0  0  0  0  0  0  0
   -5.0592   11.1262  -31.8014 C   0  0  0  0  0  0  0  0  0  0  0  0
   -6.2839   10.7727  -29.7491 C   0  0  0  0  0  0  0  0  0  0  0  0
   -4.3275   12.1439  -31.1895 C   0  0  0  0  0  0  0  0  0  0  0  0
   -5.5523   11.7905  -29.1372 C   0  0  0  0  0  0  0  0  0  0  0  0
   -6.0374   10.4405  -31.0812 C   0  0  0  0  0  0  0  0  0  0  0  0
   -7.2402   10.1036  -29.0404 O   0  0  0  0  0  0  0  0  0  0  0  0
   -3.1224   12.9919  -32.0789 Cl  0  0  0  0  0  0  0  0  0  0  0  0
   -5.8319   12.2244  -27.4904 Cl  0  0  0  0  0  0  0  0  0  0  0  0
   -7.0107    9.0644  -31.9499 Br  0  0  0  0  0  0  0  0  0  0  0  0
  1  4  2  0
  1  5  1  0
  2  4  1  0
  2  6  2  0
  3  5  2  0
  3  6  1  0
  3  7  1  0
  4  8  1  0
  5  9  1  0
  6 10  1  0
M  END
>  <id>  (108) 
EN300-212292

>  <smiles>  (108) 
OC=1C(Cl)=CC(Cl)=CC1Br

>  <MDLNUMBER>  (108) 
MFCD00474518

>  <IUPAC Name>  (108) 
2-bromo-4,6-dichlorophenol

>  <CAS>  (108) 
4524-77-0

>  <Purity>  (108) 
95

>  <URL>  (108) 
https://www.enaminestore.com/catalog/EN300-212292

>  <MP>  (108) 
67-71

>  <ROCS_ShapeQuery>  (108) 
_x1604L0AP1_x0771L0AP1

>  <ROCS_TanimotoCombo>  (108) 
0.908 

>  <ROCS_ShapeTanimoto>  (108) 
0.457 

>  <ROCS_ColorTanimoto>  (108) 
0.451 

>  <ROCS_RefTversky>  (108) 
0.401 

>  <ROCS_RefColorTversky>  (108) 
0.431 

>  <ROCS_RefTverskyCombo>  (108) 
0.832 

>  <ROCS_FitTversky>  (108) 
1.438 

>  <ROCS_FitColorTversky>  (108) 
1.113 

>  <ROCS_FitTverskyCombo>  (108) 
2.551 

>  <ROCS_ColorScore>  (108) 
-4.882

>  <ROCS_Overlap>  (108) 
676.640

>  <ROCS_Rank>  (108) 
204                 

$$$$
untitled-dbase-45_0
     RDKit          3D

 10 10  0  0  0  0  0  0  0  0999 V2000
   -5.7126   11.7951  -28.9727 C   0  0  0  0  0  0  0  0  0  0  0  0
   -4.8896   11.2319  -31.5781 C   0  0  0  0  0  0  0  0  0  0  0  0
   -6.3322   10.7751  -29.6946 C   0  0  0  0  0  0  0  0  0  0  0  0
   -4.6816   12.5336  -29.5535 C   0  0  0  0  0  0  0  0  0  0  0  0
   -4.2701   12.2520  -30.8561 C   0  0  0  0  0  0  0  0  0  0  0  0
   -5.9207   10.4934  -30.9973 C   0  0  0  0  0  0  0  0  0  0  0  0
   -7.3365   10.0722  -29.0982 O   0  0  0  0  0  0  0  0  0  0  0  0
   -4.0959   13.5110  -28.8468 F   0  0  0  0  0  0  0  0  0  0  0  0
   -2.9981   13.1603  -31.5778 Cl  0  0  0  0  0  0  0  0  0  0  0  0
   -6.7398    9.1146  -32.0076 Br  0  0  0  0  0  0  0  0  0  0  0  0
  1  3  2  0
  1  4  1  0
  2  5  1  0
  2  6  2  0
  3  6  1  0
  3  7  1  0
  4  5  2  0
  4  8  1  0
  5  9  1  0
  6 10  1  0
M  END
>  <id>  (109) 
EN300-194438

>  <smiles>  (109) 
OC=1C=C(F)C(Cl)=CC1Br

>  <MDLNUMBER>  (109) 
MFCD26895908

>  <IUPAC Name>  (109) 
2-bromo-4-chloro-5-fluorophenol

>  <CAS>  (109) 
157165-23-6

>  <Purity>  (109) 
95

>  <URL>  (109) 
https://www.enaminestore.com/catalog/EN300-194438

>  <ROCS_ShapeQuery>  (109) 
_x1604L0AP1_x0771L0AP1

>  <ROCS_TanimotoCombo>  (109) 
0.907 

>  <ROCS_ShapeTanimoto>  (109) 
0.477 

>  <ROCS_ColorTanimoto>  (109) 
0.431 

>  <ROCS_RefTversky>  (109) 
0.415 

>  <ROCS_RefColorTversky>  (109) 
0.418 

>  <ROCS_RefTverskyCombo>  (109) 
0.833 

>  <ROCS_FitTversky>  (109) 
1.454 

>  <ROCS_FitColorTversky>  (109) 
1.078 

>  <ROCS_FitTverskyCombo>  (109) 
2.532 

>  <ROCS_ColorScore>  (109) 
-4.727

>  <ROCS_Overlap>  (109) 
700.475

>  <ROCS_Rank>  (109) 
209                 

$$$$
untitled-dbase-1073_0
     RDKit          3D

 10 10  0  0  0  0  0  0  0  0999 V2000
   -5.5737   11.7862  -29.1381 C   0  0  0  0  0  0  0  0  0  0  0  0
   -4.3398   12.1835  -31.1769 C   0  0  0  0  0  0  0  0  0  0  0  0
   -4.5990   12.4936  -29.8419 C   0  0  0  0  0  0  0  0  0  0  0  0
   -6.2891   10.7686  -29.7694 C   0  0  0  0  0  0  0  0  0  0  0  0
   -5.0552   11.1659  -31.8082 C   0  0  0  0  0  0  0  0  0  0  0  0
   -6.0298   10.4585  -31.1044 C   0  0  0  0  0  0  0  0  0  0  0  0
   -3.8347   13.5818  -29.1667 C   0  0  0  0  0  0  0  0  0  0  0  0
   -7.2330   10.1011  -29.0462 O   0  0  0  0  0  0  0  0  0  0  0  0
   -4.6762   10.8411  -33.4646 Cl  0  0  0  0  0  0  0  0  0  0  0  0
   -7.0315    9.0600  -31.9286 Br  0  0  0  0  0  0  0  0  0  0  0  0
  1  3  2  0
  1  4  1  0
  2  3  1  0
  2  5  2  0
  3  7  1  0
  4  6  2  0
  4  8  1  0
  5  6  1  0
  5  9  1  0
  6 10  1  0
M  END
>  <id>  (110) 
EN300-6478405

>  <smiles>  (110) 
CC=1C=C(O)C(Br)=C(Cl)C1

>  <MDLNUMBER>  (110) 
MFCD31667454

>  <IUPAC Name>  (110) 
2-bromo-3-chloro-5-methylphenol

>  <CAS>  (110) 
1780800-51-2

>  <Purity>  (110) 
95

>  <URL>  (110) 
https://www.enaminestore.com/catalog/EN300-6478405

>  <ROCS_ShapeQuery>  (110) 
_x1604L0AP1_x0771L0AP1

>  <ROCS_TanimotoCombo>  (110) 
0.907 

>  <ROCS_ShapeTanimoto>  (110) 
0.455 

>  <ROCS_ColorTanimoto>  (110) 
0.452 

>  <ROCS_RefTversky>  (110) 
0.401 

>  <ROCS_RefColorTversky>  (110) 
0.432 

>  <ROCS_RefTverskyCombo>  (110) 
0.833 

>  <ROCS_FitTversky>  (110) 
1.423 

>  <ROCS_FitColorTversky>  (110) 
1.114 

>  <ROCS_FitTverskyCombo>  (110) 
2.537 

>  <ROCS_ColorScore>  (110) 
-4.885

>  <ROCS_Overlap>  (110) 
677.221

>  <ROCS_Rank>  (110) 
211                 

$$$$
untitled-dbase-1808_0
     RDKit          3D

 12 12  0  0  0  0  0  0  0  0999 V2000
   -4.8157   12.6766  -30.1437 C   0  0  0  0  0  0  0  0  0  0  0  0
   -5.0335   11.0043  -31.8736 C   0  0  0  0  0  0  0  0  0  0  0  0
   -5.7828   12.0176  -29.3848 C   0  0  0  0  0  0  0  0  0  0  0  0
   -6.3752   10.8519  -29.8703 C   0  0  0  0  0  0  0  0  0  0  0  0
   -4.4410   12.1700  -31.3881 C   0  0  0  0  0  0  0  0  0  0  0  0
   -6.0006   10.3452  -31.1147 C   0  0  0  0  0  0  0  0  0  0  0  0
   -6.1693   12.5772  -28.0551 C   0  0  0  0  0  0  0  0  0  0  0  0
   -5.5666   11.8118  -26.8716 C   0  0  0  0  0  0  0  0  0  0  0  0
   -5.9709   12.3579  -25.6038 N   0  0  0  0  0  0  0  0  0  0  0  0
   -7.3201   10.2186  -29.1160 O   0  0  0  0  0  0  0  0  0  0  0  0
   -3.2477   12.9838  -32.3243 Cl  0  0  0  0  0  0  0  0  0  0  0  0
   -6.7831    8.7637  -31.8085 Br  0  0  0  0  0  0  0  0  0  0  0  0
  1  3  2  0
  1  5  1  0
  2  5  2  0
  2  6  1  0
  3  4  1  0
  3  7  1  0
  4  6  2  0
  4 10  1  0
  5 11  1  0
  6 12  1  0
  7  8  1  0
  8  9  1  0
M  END
>  <id>  (111) 
EN300-1911646

>  <smiles>  (111) 
NCCC=1C=C(Cl)C=C(Br)C1O

>  <MDLNUMBER>  (111) 
MFCD08448912

>  <IUPAC Name>  (111) 
2-(2-aminoethyl)-6-bromo-4-chlorophenol

>  <CAS>  (111) 
1000575-19-8

>  <URL>  (111) 
https://www.enaminestore.com/catalog/EN300-1911646

>  <ROCS_ShapeQuery>  (111) 
_x1604L0AP1_x0771L0AP1

>  <ROCS_TanimotoCombo>  (111) 
0.907 

>  <ROCS_ShapeTanimoto>  (111) 
0.454 

>  <ROCS_ColorTanimoto>  (111) 
0.453 

>  <ROCS_RefTversky>  (111) 
0.414 

>  <ROCS_RefColorTversky>  (111) 
0.484 

>  <ROCS_RefTverskyCombo>  (111) 
0.898 

>  <ROCS_FitTversky>  (111) 
1.268 

>  <ROCS_FitColorTversky>  (111) 
0.878 

>  <ROCS_FitTverskyCombo>  (111) 
2.147 

>  <ROCS_ColorScore>  (111) 
-5.520

>  <ROCS_Overlap>  (111) 
700.798

>  <ROCS_Rank>  (111) 
212                 

$$$$
untitled-dbase-1906_65
     RDKit          3D

 15 15  0  0  0  0  0  0  0  0999 V2000
   -4.5900   12.4755  -29.8120 C   0  0  0  0  0  0  0  0  0  0  0  0
   -5.0516   11.1427  -31.7735 C   0  0  0  0  0  0  0  0  0  0  0  0
   -5.5736   11.7806  -29.1083 C   0  0  0  0  0  0  0  0  0  0  0  0
   -6.2962   10.7666  -29.7372 C   0  0  0  0  0  0  0  0  0  0  0  0
   -4.3290   12.1566  -31.1446 C   0  0  0  0  0  0  0  0  0  0  0  0
   -6.0352   10.4476  -31.0698 C   0  0  0  0  0  0  0  0  0  0  0  0
   -4.1447   10.4185  -27.4980 C   0  0  0  0  0  0  0  0  0  0  0  0
   -5.0662   11.4066  -26.8152 C   0  0  0  0  0  0  0  0  0  0  0  0
   -3.3951   12.9072  -33.4391 O   0  0  0  0  0  0  0  0  0  0  0  0
   -2.9099   14.3093  -31.3749 O   0  0  0  0  0  0  0  0  0  0  0  0
   -7.2542   10.0984  -29.0318 O   0  0  0  0  0  0  0  0  0  0  0  0
   -5.8176   12.1030  -27.8072 O   0  0  0  0  0  0  0  0  0  0  0  0
   -1.7269   12.2509  -31.8201 F   0  0  0  0  0  0  0  0  0  0  0  0
   -3.0977   13.0269  -32.0250 S   0  0  0  0  0  0  0  0  0  0  0  0
   -6.9960    9.0763  -31.9585 Br  0  0  0  0  0  0  0  0  0  0  0  0
  1  3  2  0
  1  5  1  0
  2  5  2  0
  2  6  1  0
  3  4  1  0
  3 12  1  0
  4  6  2  0
  4 11  1  0
  5 14  1  0
  6 15  1  0
  7  8  1  0
  8 12  1  0
  9 14  2  0
 10 14  2  0
 13 14  1  0
M  END
>  <id>  (112) 
EN300-6493405

>  <smiles>  (112) 
CCOC=1C=C(C=C(Br)C1O)S(=O)(=O)F

>  <IUPAC Name>  (112) 
3-bromo-5-ethoxy-4-hydroxybenzene-1-sulfonyl fluoride

>  <CAS>  (112) 
2247105-97-9

>  <URL>  (112) 
https://www.enaminestore.com/catalog/EN300-6493405

>  <ROCS_ShapeQuery>  (112) 
_x1604L0AP1_x0771L0AP1

>  <ROCS_TanimotoCombo>  (112) 
0.907 

>  <ROCS_ShapeTanimoto>  (112) 
0.492 

>  <ROCS_ColorTanimoto>  (112) 
0.415 

>  <ROCS_RefTversky>  (112) 
0.461 

>  <ROCS_RefColorTversky>  (112) 
0.431 

>  <ROCS_RefTverskyCombo>  (112) 
0.892 

>  <ROCS_FitTversky>  (112) 
1.154 

>  <ROCS_FitColorTversky>  (112) 
0.918 

>  <ROCS_FitTverskyCombo>  (112) 
2.072 

>  <ROCS_ColorScore>  (112) 
-4.898

>  <ROCS_Overlap>  (112) 
783.988

>  <ROCS_Rank>  (112) 
213                 

$$$$
untitled-dbase-952_2
     RDKit          3D

 11 11  0  0  0  0  0  0  0  0999 V2000
   -4.5848   12.4773  -29.8619 C   0  0  0  0  0  0  0  0  0  0  0  0
   -5.0670   11.1286  -31.8076 C   0  0  0  0  0  0  0  0  0  0  0  0
   -5.5610   11.7883  -29.1423 C   0  0  0  0  0  0  0  0  0  0  0  0
   -6.2903   10.7694  -29.7554 C   0  0  0  0  0  0  0  0  0  0  0  0
   -4.3378   12.1475  -31.1946 C   0  0  0  0  0  0  0  0  0  0  0  0
   -6.0433   10.4396  -31.0880 C   0  0  0  0  0  0  0  0  0  0  0  0
   -5.8094   12.1574  -27.7167 C   0  0  0  0  0  0  0  0  0  0  0  0
   -7.2422   10.1047  -29.0380 O   0  0  0  0  0  0  0  0  0  0  0  0
   -3.1331   12.9982  -32.0821 Cl  0  0  0  0  0  0  0  0  0  0  0  0
   -4.3350   11.9424  -26.7480 Cl  0  0  0  0  0  0  0  0  0  0  0  0
   -7.0136    9.0612  -31.9559 Br  0  0  0  0  0  0  0  0  0  0  0  0
  1  3  2  0
  1  5  1  0
  2  5  2  0
  2  6  1  0
  3  4  1  0
  3  7  1  0
  4  6  2  0
  4  8  1  0
  5  9  1  0
  6 11  1  0
  7 10  1  0
M  END
>  <id>  (113) 
EN300-1926028

>  <smiles>  (113) 
OC=1C(Br)=CC(Cl)=CC1CCl

>  <MDLNUMBER>  (113) 
MFCD33417863

>  <IUPAC Name>  (113) 
2-bromo-4-chloro-6-(chloromethyl)phenol

>  <CAS>  (113) 
2090336-59-5

>  <URL>  (113) 
https://www.enaminestore.com/catalog/EN300-1926028

>  <ROCS_ShapeQuery>  (113) 
_x1604L0AP1_x0771L0AP1

>  <ROCS_TanimotoCombo>  (113) 
0.907 

>  <ROCS_ShapeTanimoto>  (113) 
0.456 

>  <ROCS_ColorTanimoto>  (113) 
0.451 

>  <ROCS_RefTversky>  (113) 
0.407 

>  <ROCS_RefColorTversky>  (113) 
0.431 

>  <ROCS_RefTverskyCombo>  (113) 
0.839 

>  <ROCS_FitTversky>  (113) 
1.352 

>  <ROCS_FitColorTversky>  (113) 
1.113 

>  <ROCS_FitTverskyCombo>  (113) 
2.465 

>  <ROCS_ColorScore>  (113) 
-4.881

>  <ROCS_Overlap>  (113) 
688.104

>  <ROCS_Rank>  (113) 
214                 

$$$$
untitled-dbase-937_9
     RDKit          3D

 12 12  0  0  0  0  0  0  0  0999 V2000
   -4.6044   12.4905  -29.8665 C   0  0  0  0  0  0  0  0  0  0  0  0
   -4.3622   12.1739  -31.2031 C   0  0  0  0  0  0  0  0  0  0  0  0
   -5.5703   11.7867  -29.1471 C   0  0  0  0  0  0  0  0  0  0  0  0
   -5.0858   11.1537  -31.8205 C   0  0  0  0  0  0  0  0  0  0  0  0
   -6.2940   10.7665  -29.7644 C   0  0  0  0  0  0  0  0  0  0  0  0
   -6.0517   10.4500  -31.1011 C   0  0  0  0  0  0  0  0  0  0  0  0
   -4.7887   10.8536  -33.2546 C   0  0  0  0  0  0  0  0  0  0  0  0
   -5.8077   11.4398  -34.2488 C   0  0  0  0  0  0  0  0  0  0  0  0
   -5.4762   11.0899  -35.6992 C   0  0  0  0  0  0  0  0  0  0  0  0
   -7.2304   10.1011  -29.0299 O   0  0  0  0  0  0  0  0  0  0  0  0
   -5.4536    9.2884  -35.9333 S   0  0  0  0  0  0  0  0  0  0  0  0
   -7.0450    9.0559  -31.9325 Br  0  0  0  0  0  0  0  0  0  0  0  0
  1  2  2  0
  1  3  1  0
  2  4  1  0
  3  5  2  0
  4  6  2  0
  4  7  1  0
  5  6  1  0
  5 10  1  0
  6 12  1  0
  7  8  1  0
  8  9  1  0
  9 11  1  0
M  END
>  <id>  (114) 
EN300-1904623

>  <smiles>  (114) 
OC=1C=CC=C(CCCS)C1Br

>  <IUPAC Name>  (114) 
2-bromo-3-(3-sulfanylpropyl)phenol

>  <CAS>  (114) 
2228489-31-2

>  <URL>  (114) 
https://www.enaminestore.com/catalog/EN300-1904623

>  <ROCS_ShapeQuery>  (114) 
_x1604L0AP1_x0771L0AP1

>  <ROCS_TanimotoCombo>  (114) 
0.906 

>  <ROCS_ShapeTanimoto>  (114) 
0.455 

>  <ROCS_ColorTanimoto>  (114) 
0.451 

>  <ROCS_RefTversky>  (114) 
0.414 

>  <ROCS_RefColorTversky>  (114) 
0.431 

>  <ROCS_RefTverskyCombo>  (114) 
0.845 

>  <ROCS_FitTversky>  (114) 
1.284 

>  <ROCS_FitColorTversky>  (114) 
1.113 

>  <ROCS_FitTverskyCombo>  (114) 
2.397 

>  <ROCS_ColorScore>  (114) 
-4.881

>  <ROCS_Overlap>  (114) 
699.814

>  <ROCS_Rank>  (114) 
216                 

$$$$
untitled-dbase-435_570
     RDKit          3D

 13 13  0  0  0  0  0  0  0  0999 V2000
   -4.6054   12.4946  -29.8449 C   0  0  0  0  0  0  0  0  0  0  0  0
   -5.0711   11.1478  -31.7958 C   0  0  0  0  0  0  0  0  0  0  0  0
   -4.3516   12.1704  -31.1776 C   0  0  0  0  0  0  0  0  0  0  0  0
   -5.5787   11.7961  -29.1304 C   0  0  0  0  0  0  0  0  0  0  0  0
   -6.2982   10.7736  -29.7486 C   0  0  0  0  0  0  0  0  0  0  0  0
   -6.0445   10.4494  -31.0813 C   0  0  0  0  0  0  0  0  0  0  0  0
   -5.9135   11.6637  -25.4823 C   0  0  0  0  0  0  0  0  0  0  0  0
   -3.3115   12.9180  -31.9414 C   0  0  0  0  0  0  0  0  0  0  0  0
   -5.6153   11.1020  -26.8560 C   0  0  0  0  0  0  0  0  0  0  0  0
   -7.2469   10.1026  -29.0333 O   0  0  0  0  0  0  0  0  0  0  0  0
   -5.8155   12.1248  -27.8296 O   0  0  0  0  0  0  0  0  0  0  0  0
   -2.2402   13.9182  -30.8645 S   0  0  0  0  0  0  0  0  0  0  0  0
   -7.0019    9.0661  -31.9554 Br  0  0  0  0  0  0  0  0  0  0  0  0
  1  3  2  0
  1  4  1  0
  2  3  1  0
  2  6  2  0
  3  8  1  0
  4  5  2  0
  4 11  1  0
  5  6  1  0
  5 10  1  0
  6 13  1  0
  7  9  1  0
  8 12  1  0
  9 11  1  0
M  END
>  <id>  (115) 
EN300-1920290

>  <smiles>  (115) 
CCOC=1C=C(CS)C=C(Br)C1O

>  <IUPAC Name>  (115) 
2-bromo-6-ethoxy-4-(sulfanylmethyl)phenol

>  <CAS>  (115) 
2228782-38-3

>  <URL>  (115) 
https://www.enaminestore.com/catalog/EN300-1920290

>  <ROCS_ShapeQuery>  (115) 
_x1604L0AP1_x0771L0AP1

>  <ROCS_TanimotoCombo>  (115) 
0.906 

>  <ROCS_ShapeTanimoto>  (115) 
0.491 

>  <ROCS_ColorTanimoto>  (115) 
0.415 

>  <ROCS_RefTversky>  (115) 
0.445 

>  <ROCS_RefColorTversky>  (115) 
0.431 

>  <ROCS_RefTverskyCombo>  (115) 
0.876 

>  <ROCS_FitTversky>  (115) 
1.266 

>  <ROCS_FitColorTversky>  (115) 
0.918 

>  <ROCS_FitTverskyCombo>  (115) 
2.184 

>  <ROCS_ColorScore>  (115) 
-4.898

>  <ROCS_Overlap>  (115) 
754.510

>  <ROCS_Rank>  (115) 
218                 

$$$$
untitled-dbase-2011_0
     RDKit          3D

 11 11  0  0  0  0  0  0  0  0999 V2000
   -5.5242   11.6955  -29.0455 C   0  0  0  0  0  0  0  0  0  0  0  0
   -4.9533   11.1096  -31.7126 C   0  0  0  0  0  0  0  0  0  0  0  0
   -4.4874   12.3612  -29.6992 C   0  0  0  0  0  0  0  0  0  0  0  0
   -6.2756   10.7368  -29.7253 C   0  0  0  0  0  0  0  0  0  0  0  0
   -4.2019   12.0683  -31.0328 C   0  0  0  0  0  0  0  0  0  0  0  0
   -5.9901   10.4439  -31.0588 C   0  0  0  0  0  0  0  0  0  0  0  0
   -4.2179   14.6439  -29.0889 C   0  0  0  0  0  0  0  0  0  0  0  0
   -7.2816   10.1037  -29.0581 O   0  0  0  0  0  0  0  0  0  0  0  0
   -3.7546   13.2955  -29.0340 O   0  0  0  0  0  0  0  0  0  0  0  0
   -3.2063   12.7034  -31.6663 F   0  0  0  0  0  0  0  0  0  0  0  0
   -6.9897    9.1476  -32.0140 Br  0  0  0  0  0  0  0  0  0  0  0  0
  1  3  2  0
  1  4  1  0
  2  5  2  0
  2  6  1  0
  3  5  1  0
  3  9  1  0
  4  6  2  0
  4  8  1  0
  5 10  1  0
  6 11  1  0
  7  9  1  0
M  END
>  <id>  (116) 
EN300-6825593

>  <smiles>  (116) 
COC=1C=C(O)C(Br)=CC1F

>  <MDLNUMBER>  (116) 
MFCD26390960

>  <IUPAC Name>  (116) 
2-bromo-4-fluoro-5-methoxyphenol

>  <CAS>  (116) 
1185836-63-8

>  <Purity>  (116) 
95

>  <URL>  (116) 
https://www.enaminestore.com/catalog/EN300-6825593

>  <MP>  (116) 
73-77

>  <ROCS_ShapeQuery>  (116) 
_x1604L0AP1_x0771L0AP1

>  <ROCS_TanimotoCombo>  (116) 
0.906 

>  <ROCS_ShapeTanimoto>  (116) 
0.497 

>  <ROCS_ColorTanimoto>  (116) 
0.409 

>  <ROCS_RefTversky>  (116) 
0.437 

>  <ROCS_RefColorTversky>  (116) 
0.426 

>  <ROCS_RefTverskyCombo>  (116) 
0.863 

>  <ROCS_FitTversky>  (116) 
1.386 

>  <ROCS_FitColorTversky>  (116) 
0.908 

>  <ROCS_FitTverskyCombo>  (116) 
2.295 

>  <ROCS_ColorScore>  (116) 
-4.846

>  <ROCS_Overlap>  (116) 
738.639

>  <ROCS_Rank>  (116) 
220                 

$$$$
untitled-dbase-1344_19
     RDKit          3D

 10 10  0  0  0  0  0  0  0  0999 V2000
   -4.6021   12.4913  -29.8477 C   0  0  0  0  0  0  0  0  0  0  0  0
   -4.3481   12.1759  -31.1825 C   0  0  0  0  0  0  0  0  0  0  0  0
   -5.5744   11.7872  -29.1375 C   0  0  0  0  0  0  0  0  0  0  0  0
   -5.0665   11.1564  -31.8071 C   0  0  0  0  0  0  0  0  0  0  0  0
   -6.2928   10.7676  -29.7621 C   0  0  0  0  0  0  0  0  0  0  0  0
   -6.0389   10.4522  -31.0969 C   0  0  0  0  0  0  0  0  0  0  0  0
   -4.7568   10.8575  -33.2387 C   0  0  0  0  0  0  0  0  0  0  0  0
   -7.2358   10.1018  -29.0364 O   0  0  0  0  0  0  0  0  0  0  0  0
   -6.2107   11.0364  -34.3146 S   0  0  0  0  0  0  0  0  0  0  0  0
   -7.0251    9.0591  -31.9382 Br  0  0  0  0  0  0  0  0  0  0  0  0
  1  2  2  0
  1  3  1  0
  2  4  1  0
  3  5  2  0
  4  6  2  0
  4  7  1  0
  5  6  1  0
  5  8  1  0
  6 10  1  0
  7  9  1  0
M  END
>  <id>  (117) 
EN300-1288200

>  <smiles>  (117) 
OC=1C=CC=C(CS)C1Br

>  <MDLNUMBER>  (117) 
MFCD33497260

>  <IUPAC Name>  (117) 
2-bromo-3-(sulfanylmethyl)phenol

>  <CAS>  (117) 
2172151-36-7

>  <URL>  (117) 
https://www.enaminestore.com/catalog/EN300-1288200

>  <ROCS_ShapeQuery>  (117) 
_x1604L0AP1_x0771L0AP1

>  <ROCS_TanimotoCombo>  (117) 
0.906 

>  <ROCS_ShapeTanimoto>  (117) 
0.455 

>  <ROCS_ColorTanimoto>  (117) 
0.451 

>  <ROCS_RefTversky>  (117) 
0.400 

>  <ROCS_RefColorTversky>  (117) 
0.432 

>  <ROCS_RefTverskyCombo>  (117) 
0.832 

>  <ROCS_FitTversky>  (117) 
1.427 

>  <ROCS_FitColorTversky>  (117) 
1.114 

>  <ROCS_FitTverskyCombo>  (117) 
2.541 

>  <ROCS_ColorScore>  (117) 
-4.883

>  <ROCS_Overlap>  (117) 
675.385

>  <ROCS_Rank>  (117) 
221                 

$$$$
untitled-dbase-647_256
     RDKit          3D

 14 14  0  0  0  0  0  0  0  0999 V2000
   -4.5870   12.4711  -29.8154 C   0  0  0  0  0  0  0  0  0  0  0  0
   -5.0537   11.1414  -31.7777 C   0  0  0  0  0  0  0  0  0  0  0  0
   -4.3291   12.1540  -31.1490 C   0  0  0  0  0  0  0  0  0  0  0  0
   -5.5693   11.7755  -29.1104 C   0  0  0  0  0  0  0  0  0  0  0  0
   -6.2938   10.7628  -29.7392 C   0  0  0  0  0  0  0  0  0  0  0  0
   -6.0360   10.4458  -31.0728 C   0  0  0  0  0  0  0  0  0  0  0  0
   -2.5914   13.9647  -31.0649 C   0  0  0  0  0  0  0  0  0  0  0  0
   -5.0239   13.1445  -27.2439 C   0  0  0  0  0  0  0  0  0  0  0  0
   -3.2795   12.8986  -31.9026 C   0  0  0  0  0  0  0  0  0  0  0  0
   -3.3986   14.9862  -30.6389 N   0  0  0  0  0  0  0  0  0  0  0  0
   -7.2512   10.0945  -29.0332 O   0  0  0  0  0  0  0  0  0  0  0  0
   -5.8100   12.0971  -27.8086 O   0  0  0  0  0  0  0  0  0  0  0  0
   -0.9596   13.9159  -30.7020 S   0  0  0  0  0  0  0  0  0  0  0  0
   -6.9999    9.0762  -31.9611 Br  0  0  0  0  0  0  0  0  0  0  0  0
  1  3  2  0
  1  4  1  0
  2  3  1  0
  2  6  2  0
  3  9  1  0
  4  5  2  0
  4 12  1  0
  5  6  1  0
  5 11  1  0
  6 14  1  0
  7  9  1  0
  7 10  1  0
  7 13  2  0
  8 12  1  0
M  END
>  <id>  (118) 
EN300-1925674

>  <smiles>  (118) 
COC=1C=C(CC(=S)N)C=C(Br)C1O

>  <IUPAC Name>  (118) 
2-(3-bromo-4-hydroxy-5-methoxyphenyl)ethanethioamide

>  <CAS>  (118) 
2229398-06-3

>  <URL>  (118) 
https://www.enaminestore.com/catalog/EN300-1925674

>  <ROCS_ShapeQuery>  (118) 
_x1604L0AP1_x0771L0AP1

>  <ROCS_TanimotoCombo>  (118) 
0.906 

>  <ROCS_ShapeTanimoto>  (118) 
0.523 

>  <ROCS_ColorTanimoto>  (118) 
0.383 

>  <ROCS_RefTversky>  (118) 
0.473 

>  <ROCS_RefColorTversky>  (118) 
0.429 

>  <ROCS_RefTverskyCombo>  (118) 
0.902 

>  <ROCS_FitTversky>  (118) 
1.254 

>  <ROCS_FitColorTversky>  (118) 
0.779 

>  <ROCS_FitTverskyCombo>  (118) 
2.033 

>  <ROCS_ColorScore>  (118) 
-4.898

>  <ROCS_Overlap>  (118) 
802.443

>  <ROCS_Rank>  (118) 
223                 

$$$$
untitled-dbase-1273_14
     RDKit          3D

 12 12  0  0  0  0  0  0  0  0999 V2000
   -4.5726   12.4555  -29.8119 C   0  0  0  0  0  0  0  0  0  0  0  0
   -5.5616   11.7647  -29.1118 C   0  0  0  0  0  0  0  0  0  0  0  0
   -5.0410   11.1330  -31.7788 C   0  0  0  0  0  0  0  0  0  0  0  0
   -4.3123   12.1397  -31.1454 C   0  0  0  0  0  0  0  0  0  0  0  0
   -6.2903   10.7580  -29.7452 C   0  0  0  0  0  0  0  0  0  0  0  0
   -6.0301   10.4422  -31.0787 C   0  0  0  0  0  0  0  0  0  0  0  0
   -2.5833   12.2648  -32.8770 C   0  0  0  0  0  0  0  0  0  0  0  0
   -3.2806   12.8602  -31.8745 C   0  0  0  0  0  0  0  0  0  0  0  0
   -3.0081   14.3202  -31.5577 C   0  0  0  0  0  0  0  0  0  0  0  0
   -7.2484   10.1004  -29.0325 O   0  0  0  0  0  0  0  0  0  0  0  0
   -4.4767   15.2949  -31.8094 Cl  0  0  0  0  0  0  0  0  0  0  0  0
   -6.9994    9.0787  -31.9699 Br  0  0  0  0  0  0  0  0  0  0  0  0
  1  2  2  0
  1  4  1  0
  2  5  1  0
  3  4  2  0
  3  6  1  0
  4  8  1  0
  5  6  2  0
  5 10  1  0
  6 12  1  0
  7  8  2  0
  8  9  1  0
  9 11  1  0
M  END
>  <id>  (119) 
EN300-1906707

>  <smiles>  (119) 
OC=1C=CC(=CC1Br)C(=C)CCl

>  <IUPAC Name>  (119) 
2-bromo-4-(3-chloroprop-1-en-2-yl)phenol

>  <CAS>  (119) 
2228630-14-4

>  <URL>  (119) 
https://www.enaminestore.com/catalog/EN300-1906707

>  <ROCS_ShapeQuery>  (119) 
_x1604L0AP1_x0771L0AP1

>  <ROCS_TanimotoCombo>  (119) 
0.906 

>  <ROCS_ShapeTanimoto>  (119) 
0.493 

>  <ROCS_ColorTanimoto>  (119) 
0.413 

>  <ROCS_RefTversky>  (119) 
0.439 

>  <ROCS_RefColorTversky>  (119) 
0.429 

>  <ROCS_RefTverskyCombo>  (119) 
0.868 

>  <ROCS_FitTversky>  (119) 
1.337 

>  <ROCS_FitColorTversky>  (119) 
0.914 

>  <ROCS_FitTverskyCombo>  (119) 
2.251 

>  <ROCS_ColorScore>  (119) 
-4.877

>  <ROCS_Overlap>  (119) 
742.260

>  <ROCS_Rank>  (119) 
224                 

$$$$
untitled-dbase-53_5
     RDKit          3D

 11 11  0  0  0  0  0  0  0  0999 V2000
   -4.6170   12.4984  -29.8432 C   0  0  0  0  0  0  0  0  0  0  0  0
   -5.5874   11.7925  -29.1322 C   0  0  0  0  0  0  0  0  0  0  0  0
   -5.0745   11.1569  -31.7997 C   0  0  0  0  0  0  0  0  0  0  0  0
   -4.3605   12.1807  -31.1770 C   0  0  0  0  0  0  0  0  0  0  0  0
   -6.3014   10.7687  -29.7549 C   0  0  0  0  0  0  0  0  0  0  0  0
   -6.0449   10.4509  -31.0887 C   0  0  0  0  0  0  0  0  0  0  0  0
   -2.6925   12.0983  -33.0649 C   0  0  0  0  0  0  0  0  0  0  0  0
   -2.2164   13.4971  -31.0224 C   0  0  0  0  0  0  0  0  0  0  0  0
   -3.3226   12.9359  -31.9360 C   0  0  0  0  0  0  0  0  0  0  0  0
   -7.2419   10.0970  -29.0321 O   0  0  0  0  0  0  0  0  0  0  0  0
   -6.9947    9.0651  -31.9663 Br  0  0  0  0  0  0  0  0  0  0  0  0
  1  2  2  0
  1  4  1  0
  2  5  1  0
  3  4  2  0
  3  6  1  0
  4  9  1  0
  5  6  2  0
  5 10  1  0
  6 11  1  0
  7  9  1  0
  8  9  1  0
M  END
>  <id>  (120) 
EN300-127045

>  <smiles>  (120) 
CC(C)C=1C=CC(O)=C(Br)C1

>  <MDLNUMBER>  (120) 
MFCD08700373

>  <IUPAC Name>  (120) 
2-bromo-4-(propan-2-yl)phenol

>  <CAS>  (120) 
19432-27-0

>  <Purity>  (120) 
95

>  <URL>  (120) 
https://www.enaminestore.com/catalog/EN300-127045

>  <ROCS_ShapeQuery>  (120) 
_x1604L0AP1_x0771L0AP1

>  <ROCS_TanimotoCombo>  (120) 
0.905 

>  <ROCS_ShapeTanimoto>  (120) 
0.493 

>  <ROCS_ColorTanimoto>  (120) 
0.413 

>  <ROCS_RefTversky>  (120) 
0.431 

>  <ROCS_RefColorTversky>  (120) 
0.429 

>  <ROCS_RefTverskyCombo>  (120) 
0.860 

>  <ROCS_FitTversky>  (120) 
1.407 

>  <ROCS_FitColorTversky>  (120) 
0.914 

>  <ROCS_FitTverskyCombo>  (120) 
2.321 

>  <ROCS_ColorScore>  (120) 
-4.877

>  <ROCS_Overlap>  (120) 
729.153

>  <ROCS_Rank>  (120) 
225                 

$$$$
untitled-dbase-595_138
     RDKit          3D

 13 13  0  0  0  0  0  0  0  0999 V2000
   -4.5870   12.4755  -29.8202 C   0  0  0  0  0  0  0  0  0  0  0  0
   -5.0516   11.1403  -31.7794 C   0  0  0  0  0  0  0  0  0  0  0  0
   -4.3278   12.1547  -31.1527 C   0  0  0  0  0  0  0  0  0  0  0  0
   -5.5699   11.7817  -29.1143 C   0  0  0  0  0  0  0  0  0  0  0  0
   -6.2937   10.7672  -29.7410 C   0  0  0  0  0  0  0  0  0  0  0  0
   -6.0345   10.4465  -31.0735 C   0  0  0  0  0  0  0  0  0  0  0  0
   -4.9056   12.2414  -25.6017 C   0  0  0  0  0  0  0  0  0  0  0  0
   -3.2775   12.8973  -31.9073 C   0  0  0  0  0  0  0  0  0  0  0  0
   -4.7137   12.6120  -27.0568 C   0  0  0  0  0  0  0  0  0  0  0  0
   -7.2517   10.1008  -29.0341 O   0  0  0  0  0  0  0  0  0  0  0  0
   -5.8119   12.1069  -27.8136 O   0  0  0  0  0  0  0  0  0  0  0  0
   -2.8168   14.3831  -31.0460 Cl  0  0  0  0  0  0  0  0  0  0  0  0
   -6.9975    9.0743  -31.9589 Br  0  0  0  0  0  0  0  0  0  0  0  0
  1  3  2  0
  1  4  1  0
  2  3  1  0
  2  6  2  0
  3  8  1  0
  4  5  2  0
  4 11  1  0
  5  6  1  0
  5 10  1  0
  6 13  1  0
  7  9  1  0
  8 12  1  0
  9 11  1  0
M  END
>  <id>  (121) 
EN300-1920245

>  <smiles>  (121) 
CCOC=1C=C(CCl)C=C(Br)C1O

>  <IUPAC Name>  (121) 
2-bromo-4-(chloromethyl)-6-ethoxyphenol

>  <CAS>  (121) 
2228336-12-5

>  <URL>  (121) 
https://www.enaminestore.com/catalog/EN300-1920245

>  <ROCS_ShapeQuery>  (121) 
_x1604L0AP1_x0771L0AP1

>  <ROCS_TanimotoCombo>  (121) 
0.905 

>  <ROCS_ShapeTanimoto>  (121) 
0.490 

>  <ROCS_ColorTanimoto>  (121) 
0.415 

>  <ROCS_RefTversky>  (121) 
0.445 

>  <ROCS_RefColorTversky>  (121) 
0.431 

>  <ROCS_RefTverskyCombo>  (121) 
0.876 

>  <ROCS_FitTversky>  (121) 
1.263 

>  <ROCS_FitColorTversky>  (121) 
0.918 

>  <ROCS_FitTverskyCombo>  (121) 
2.181 

>  <ROCS_ColorScore>  (121) 
-4.898

>  <ROCS_Overlap>  (121) 
753.810

>  <ROCS_Rank>  (121) 
226                 

$$$$
untitled-dbase-1018_1002
     RDKit          3D

 16 17  0  0  0  0  0  0  0  0999 V2000
   -4.5883   12.4737  -29.8032 C   0  0  0  0  0  0  0  0  0  0  0  0
   -5.0522   11.1478  -31.7688 C   0  0  0  0  0  0  0  0  0  0  0  0
   -4.3290   12.1595  -31.1372 C   0  0  0  0  0  0  0  0  0  0  0  0
   -5.5709   11.7759  -29.1006 C   0  0  0  0  0  0  0  0  0  0  0  0
   -6.2941   10.7642  -29.7322 C   0  0  0  0  0  0  0  0  0  0  0  0
   -6.0348   10.4501  -31.0663 C   0  0  0  0  0  0  0  0  0  0  0  0
   -3.0607   14.3041  -31.4696 C   0  0  0  0  0  0  0  0  0  0  0  0
   -3.0990   12.5830  -33.3622 C   0  0  0  0  0  0  0  0  0  0  0  0
   -2.0706   12.1267  -32.3787 C   0  0  0  0  0  0  0  0  0  0  0  0
   -3.2800   12.9063  -31.8876 C   0  0  0  0  0  0  0  0  0  0  0  0
   -7.4492   12.1254  -26.0504 C   0  0  0  0  0  0  0  0  0  0  0  0
   -7.1303   12.5337  -27.4728 C   0  0  0  0  0  0  0  0  0  0  0  0
   -2.2560   14.6325  -30.6042 O   0  0  0  0  0  0  0  0  0  0  0  0
   -7.2509   10.0934  -29.0280 O   0  0  0  0  0  0  0  0  0  0  0  0
   -5.8133   12.0935  -27.7983 O   0  0  0  0  0  0  0  0  0  0  0  0
   -6.9978    9.0831  -31.9596 Br  0  0  0  0  0  0  0  0  0  0  0  0
  1  3  2  0
  1  4  1  0
  2  3  1  0
  2  6  2  0
  3 10  1  0
  4  5  2  0
  4 15  1  0
  5  6  1  0
  5 14  1  0
  6 16  1  0
  7 10  1  0
  7 13  2  0
  8  9  1  0
  8 10  1  0
  9 10  1  0
 11 12  1  0
 12 15  1  0
M  END
>  <id>  (122) 
EN300-1920224

>  <smiles>  (122) 
CCOC=1C=C(C=C(Br)C1O)C2(CC2)C=O

>  <IUPAC Name>  (122) 
1-(3-bromo-5-ethoxy-4-hydroxyphenyl)cyclopropane-1-carbaldehyde

>  <CAS>  (122) 
2228179-68-6

>  <URL>  (122) 
https://www.enaminestore.com/catalog/EN300-1920224

>  <ROCS_ShapeQuery>  (122) 
_x1604L0AP1_x0771L0AP1

>  <ROCS_TanimotoCombo>  (122) 
0.905 

>  <ROCS_ShapeTanimoto>  (122) 
0.523 

>  <ROCS_ColorTanimoto>  (122) 
0.383 

>  <ROCS_RefTversky>  (122) 
0.493 

>  <ROCS_RefColorTversky>  (122) 
0.429 

>  <ROCS_RefTverskyCombo>  (122) 
0.922 

>  <ROCS_FitTversky>  (122) 
1.132 

>  <ROCS_FitColorTversky>  (122) 
0.779 

>  <ROCS_FitTverskyCombo>  (122) 
1.911 

>  <ROCS_ColorScore>  (122) 
-4.898

>  <ROCS_Overlap>  (122) 
838.674

>  <ROCS_Rank>  (122) 
227                 

$$$$
untitled-dbase-2293_0
     RDKit          3D

 10 11  0  0  0  0  0  0  0  0999 V2000
   -5.5793   11.7788  -29.1057 C   0  0  0  0  0  0  0  0  0  0  0  0
   -5.0597   11.1353  -31.8174 C   0  0  0  0  0  0  0  0  0  0  0  0
   -4.6253   12.4394  -29.8434 C   0  0  0  0  0  0  0  0  0  0  0  0
   -4.3735   12.1275  -31.1576 C   0  0  0  0  0  0  0  0  0  0  0  0
   -6.2946   10.7647  -29.7479 C   0  0  0  0  0  0  0  0  0  0  0  0
   -6.0364   10.4450  -31.0950 C   0  0  0  0  0  0  0  0  0  0  0  0
   -3.5889   13.5226  -29.8018 C   0  0  0  0  0  0  0  0  0  0  0  0
   -3.3024   13.1678  -31.2992 C   0  0  0  0  0  0  0  0  0  0  0  0
   -7.2471   10.0949  -29.0360 O   0  0  0  0  0  0  0  0  0  0  0  0
   -7.0062    9.0693  -31.9701 Br  0  0  0  0  0  0  0  0  0  0  0  0
  1  3  2  0
  1  5  1  0
  2  4  2  0
  2  6  1  0
  3  4  1  0
  3  7  1  0
  4  8  1  0
  5  6  2  0
  5  9  1  0
  6 10  1  0
  7  8  1  0
M  END
>  <id>  (123) 
EN300-45428708

>  <smiles>  (123) 
OC=1C=C2CCC2=CC1Br

>  <IUPAC Name>  (123) 
4-bromobicyclo[4.2.0]octa-1(6),2,4-trien-3-ol

>  <URL>  (123) 
https://www.enaminestore.com/catalog/EN300-45428708

>  <ROCS_ShapeQuery>  (123) 
_x1604L0AP1_x0771L0AP1

>  <ROCS_TanimotoCombo>  (123) 
0.905 

>  <ROCS_ShapeTanimoto>  (123) 
0.491 

>  <ROCS_ColorTanimoto>  (123) 
0.414 

>  <ROCS_RefTversky>  (123) 
0.427 

>  <ROCS_RefColorTversky>  (123) 
0.431 

>  <ROCS_RefTverskyCombo>  (123) 
0.859 

>  <ROCS_FitTversky>  (123) 
1.439 

>  <ROCS_FitColorTversky>  (123) 
0.911 

>  <ROCS_FitTverskyCombo>  (123) 
2.350 

>  <ROCS_ColorScore>  (123) 
-4.901

>  <ROCS_Overlap>  (123) 
721.967

>  <ROCS_Rank>  (123) 
229                 

$$$$
untitled-dbase-730_20
     RDKit          3D

 11 11  0  0  0  0  0  0  0  0999 V2000
   -4.5839   12.4659  -29.8262 C   0  0  0  0  0  0  0  0  0  0  0  0
   -5.5674   11.7725  -29.1209 C   0  0  0  0  0  0  0  0  0  0  0  0
   -5.0512   11.1340  -31.7871 C   0  0  0  0  0  0  0  0  0  0  0  0
   -4.3258   12.1467  -31.1594 C   0  0  0  0  0  0  0  0  0  0  0  0
   -6.2928   10.7599  -29.7486 C   0  0  0  0  0  0  0  0  0  0  0  0
   -6.0347   10.4406  -31.0817 C   0  0  0  0  0  0  0  0  0  0  0  0
   -3.2996   12.8694  -31.8940 C   0  0  0  0  0  0  0  0  0  0  0  0
   -2.6182   13.8566  -31.2188 N   0  0  0  0  0  0  0  0  0  0  0  0
   -7.2476   10.1021  -29.0317 O   0  0  0  0  0  0  0  0  0  0  0  0
   -2.9393   12.5008  -33.4878 S   0  0  0  0  0  0  0  0  0  0  0  0
   -7.0013    9.0714  -31.9669 Br  0  0  0  0  0  0  0  0  0  0  0  0
  1  2  2  0
  1  4  1  0
  2  5  1  0
  3  4  2  0
  3  6  1  0
  4  7  1  0
  5  6  2  0
  5  9  1  0
  6 11  1  0
  7  8  1  0
  7 10  2  0
M  END
>  <id>  (124) 
EN300-1894834

>  <smiles>  (124) 
NC(=S)C=1C=CC(O)=C(Br)C1

>  <MDLNUMBER>  (124) 
MFCD09705416

>  <IUPAC Name>  (124) 
3-bromo-4-hydroxybenzene-1-carbothioamide

>  <CAS>  (124) 
25984-64-9

>  <URL>  (124) 
https://www.enaminestore.com/catalog/EN300-1894834

>  <ROCS_ShapeQuery>  (124) 
_x1604L0AP1_x0771L0AP1

>  <ROCS_TanimotoCombo>  (124) 
0.905 

>  <ROCS_ShapeTanimoto>  (124) 
0.492 

>  <ROCS_ColorTanimoto>  (124) 
0.413 

>  <ROCS_RefTversky>  (124) 
0.431 

>  <ROCS_RefColorTversky>  (124) 
0.429 

>  <ROCS_RefTverskyCombo>  (124) 
0.860 

>  <ROCS_FitTversky>  (124) 
1.404 

>  <ROCS_FitColorTversky>  (124) 
0.914 

>  <ROCS_FitTverskyCombo>  (124) 
2.319 

>  <ROCS_ColorScore>  (124) 
-4.878

>  <ROCS_Overlap>  (124) 
728.698

>  <ROCS_Rank>  (124) 
230                 

$$$$
untitled-dbase-2090_0
     RDKit          3D

 11 11  0  0  0  0  0  0  0  0999 V2000
   -4.5824   12.4655  -29.8247 C   0  0  0  0  0  0  0  0  0  0  0  0
   -5.5650   11.7711  -29.1191 C   0  0  0  0  0  0  0  0  0  0  0  0
   -5.0519   11.1363  -31.7868 C   0  0  0  0  0  0  0  0  0  0  0  0
   -4.3258   12.1481  -31.1586 C   0  0  0  0  0  0  0  0  0  0  0  0
   -6.2912   10.7594  -29.7474 C   0  0  0  0  0  0  0  0  0  0  0  0
   -6.0346   10.4420  -31.0812 C   0  0  0  0  0  0  0  0  0  0  0  0
   -3.3005   12.8719  -31.8934 C   0  0  0  0  0  0  0  0  0  0  0  0
   -3.0417   14.2974  -31.5005 C   0  0  0  0  0  0  0  0  0  0  0  0
   -2.6312   12.4051  -32.8175 O   0  0  0  0  0  0  0  0  0  0  0  0
   -7.2451   10.1006  -29.0302 O   0  0  0  0  0  0  0  0  0  0  0  0
   -7.0023    9.0739  -31.9672 Br  0  0  0  0  0  0  0  0  0  0  0  0
  1  2  2  0
  1  4  1  0
  2  5  1  0
  3  4  2  0
  3  6  1  0
  4  7  1  0
  5  6  2  0
  5 10  1  0
  6 11  1  0
  7  8  1  0
  7  9  2  0
M  END
>  <id>  (125) 
EN300-261215

>  <smiles>  (125) 
CC(=O)C=1C=CC(O)=C(Br)C1

>  <MDLNUMBER>  (125) 
MFCD03208974

>  <IUPAC Name>  (125) 
1-(3-bromo-4-hydroxyphenyl)ethan-1-one

>  <CAS>  (125) 
1836-06-2

>  <Purity>  (125) 
95

>  <URL>  (125) 
https://www.enaminestore.com/catalog/EN300-261215

>  <MP>  (125) 
98-99

>  <ROCS_ShapeQuery>  (125) 
_x1604L0AP1_x0771L0AP1

>  <ROCS_TanimotoCombo>  (125) 
0.905 

>  <ROCS_ShapeTanimoto>  (125) 
0.492 

>  <ROCS_ColorTanimoto>  (125) 
0.413 

>  <ROCS_RefTversky>  (125) 
0.433 

>  <ROCS_RefColorTversky>  (125) 
0.429 

>  <ROCS_RefTverskyCombo>  (125) 
0.862 

>  <ROCS_FitTversky>  (125) 
1.384 

>  <ROCS_FitColorTversky>  (125) 
0.914 

>  <ROCS_FitTverskyCombo>  (125) 
2.299 

>  <ROCS_ColorScore>  (125) 
-4.878

>  <ROCS_Overlap>  (125) 
732.082

>  <ROCS_Rank>  (125) 
231                 

$$$$
untitled-dbase-554_181
     RDKit          3D

 14 14  0  0  0  0  0  0  0  0999 V2000
   -4.5613   12.4498  -29.8012 C   0  0  0  0  0  0  0  0  0  0  0  0
   -5.0316   11.1248  -31.7659 C   0  0  0  0  0  0  0  0  0  0  0  0
   -4.2999   12.1299  -31.1335 C   0  0  0  0  0  0  0  0  0  0  0  0
   -5.5545   11.7645  -29.1013 C   0  0  0  0  0  0  0  0  0  0  0  0
   -6.2862   10.7595  -29.7338 C   0  0  0  0  0  0  0  0  0  0  0  0
   -6.0249   10.4396  -31.0661 C   0  0  0  0  0  0  0  0  0  0  0  0
   -5.0579   11.3831  -26.8070 C   0  0  0  0  0  0  0  0  0  0  0  0
   -3.2386   12.8634  -31.8816 C   0  0  0  0  0  0  0  0  0  0  0  0
   -3.0221   14.3174  -31.4191 C   0  0  0  0  0  0  0  0  0  0  0  0
   -4.2880   15.1642  -31.5464 C   0  0  0  0  0  0  0  0  0  0  0  0
   -7.2543   10.1013  -29.0328 O   0  0  0  0  0  0  0  0  0  0  0  0
   -5.7985   12.0888  -27.8008 O   0  0  0  0  0  0  0  0  0  0  0  0
   -3.9809   16.8628  -30.9795 S   0  0  0  0  0  0  0  0  0  0  0  0
   -6.9985    9.0801  -31.9593 Br  0  0  0  0  0  0  0  0  0  0  0  0
  1  3  2  0
  1  4  1  0
  2  3  1  0
  2  6  2  0
  3  8  1  0
  4  5  2  0
  4 12  1  0
  5  6  1  0
  5 11  1  0
  6 14  1  0
  7 12  1  0
  8  9  1  0
  9 10  1  0
 10 13  1  0
M  END
>  <id>  (126) 
EN300-1925670

>  <smiles>  (126) 
COC=1C=C(CCCS)C=C(Br)C1O

>  <IUPAC Name>  (126) 
2-bromo-6-methoxy-4-(3-sulfanylpropyl)phenol

>  <CAS>  (126) 
2228168-63-4

>  <URL>  (126) 
https://www.enaminestore.com/catalog/EN300-1925670

>  <ROCS_ShapeQuery>  (126) 
_x1604L0AP1_x0771L0AP1

>  <ROCS_TanimotoCombo>  (126) 
0.905 

>  <ROCS_ShapeTanimoto>  (126) 
0.490 

>  <ROCS_ColorTanimoto>  (126) 
0.415 

>  <ROCS_RefTversky>  (126) 
0.451 

>  <ROCS_RefColorTversky>  (126) 
0.431 

>  <ROCS_RefTverskyCombo>  (126) 
0.882 

>  <ROCS_FitTversky>  (126) 
1.213 

>  <ROCS_FitColorTversky>  (126) 
0.918 

>  <ROCS_FitTverskyCombo>  (126) 
2.131 

>  <ROCS_ColorScore>  (126) 
-4.898

>  <ROCS_Overlap>  (126) 
764.880

>  <ROCS_Rank>  (126) 
232                 

$$$$
untitled-dbase-2149_2808
     RDKit          3D

 14 14  0  0  0  0  0  0  0  0999 V2000
   -4.5933   12.4799  -29.8192 C   0  0  0  0  0  0  0  0  0  0  0  0
   -5.0531   11.1422  -31.7777 C   0  0  0  0  0  0  0  0  0  0  0  0
   -4.3322   12.1588  -31.1512 C   0  0  0  0  0  0  0  0  0  0  0  0
   -5.5751   11.7843  -29.1136 C   0  0  0  0  0  0  0  0  0  0  0  0
   -6.2960   10.7677  -29.7401 C   0  0  0  0  0  0  0  0  0  0  0  0
   -6.0350   10.4466  -31.0721 C   0  0  0  0  0  0  0  0  0  0  0  0
   -4.8694   12.3285  -25.6264 C   0  0  0  0  0  0  0  0  0  0  0  0
   -3.2831   12.9034  -31.9055 C   0  0  0  0  0  0  0  0  0  0  0  0
   -5.0654   11.4179  -26.8197 C   0  0  0  0  0  0  0  0  0  0  0  0
   -2.4234   13.6682  -31.0381 N   0  0  0  0  0  0  0  0  0  0  0  0
   -7.2531   10.0995  -29.0335 O   0  0  0  0  0  0  0  0  0  0  0  0
   -3.2371   14.7581  -30.5213 O   0  0  0  0  0  0  0  0  0  0  0  0
   -5.8190   12.1099  -27.8133 O   0  0  0  0  0  0  0  0  0  0  0  0
   -6.9939    9.0715  -31.9573 Br  0  0  0  0  0  0  0  0  0  0  0  0
  1  3  2  0
  1  4  1  0
  2  3  1  0
  2  6  2  0
  3  8  1  0
  4  5  2  0
  4 13  1  0
  5  6  1  0
  5 11  1  0
  6 14  1  0
  7  9  1  0
  8 10  1  0
  9 13  1  0
 10 12  1  0
M  END
>  <id>  (127) 
EN300-1919829

>  <smiles>  (127) 
CCOC=1C=C(CNO)C=C(Br)C1O

>  <IUPAC Name>  (127) 
2-bromo-6-ethoxy-4-[(hydroxyamino)methyl]phenol

>  <CAS>  (127) 
2228526-03-0

>  <URL>  (127) 
https://www.enaminestore.com/catalog/EN300-1919829

>  <ROCS_ShapeQuery>  (127) 
_x1604L0AP1_x0771L0AP1

>  <ROCS_TanimotoCombo>  (127) 
0.904 

>  <ROCS_ShapeTanimoto>  (127) 
0.522 

>  <ROCS_ColorTanimoto>  (127) 
0.383 

>  <ROCS_RefTversky>  (127) 
0.473 

>  <ROCS_RefColorTversky>  (127) 
0.429 

>  <ROCS_RefTverskyCombo>  (127) 
0.902 

>  <ROCS_FitTversky>  (127) 
1.247 

>  <ROCS_FitColorTversky>  (127) 
0.779 

>  <ROCS_FitTverskyCombo>  (127) 
2.027 

>  <ROCS_ColorScore>  (127) 
-4.898

>  <ROCS_Overlap>  (127) 
802.541

>  <ROCS_Rank>  (127) 
233                 

$$$$
untitled-dbase-1704_4
     RDKit          3D

 11 11  0  0  0  0  0  0  0  0999 V2000
   -3.1038   14.2294  -31.3894 C   0  0  0  0  0  0  0  0  0  0  0  0
   -4.5622   12.4428  -29.8158 C   0  0  0  0  0  0  0  0  0  0  0  0
   -5.5548   11.7582  -29.1146 C   0  0  0  0  0  0  0  0  0  0  0  0
   -5.0379   11.1198  -31.7807 C   0  0  0  0  0  0  0  0  0  0  0  0
   -4.3038   12.1236  -31.1489 C   0  0  0  0  0  0  0  0  0  0  0  0
   -6.2889   10.7544  -29.7463 C   0  0  0  0  0  0  0  0  0  0  0  0
   -6.0305   10.4352  -31.0794 C   0  0  0  0  0  0  0  0  0  0  0  0
   -3.2423   12.8561  -31.8976 C   0  0  0  0  0  0  0  0  0  0  0  0
   -2.9949   15.3133  -30.9897 N   0  0  0  0  0  0  0  0  0  0  0  0
   -7.2508   10.1032  -29.0328 O   0  0  0  0  0  0  0  0  0  0  0  0
   -7.0072    9.0760  -31.9690 Br  0  0  0  0  0  0  0  0  0  0  0  0
  1  8  1  0
  1  9  3  0
  2  3  2  0
  2  5  1  0
  3  6  1  0
  4  5  2  0
  4  7  1  0
  5  8  1  0
  6  7  2  0
  6 10  1  0
  7 11  1  0
M  END
>  <id>  (128) 
EN300-1894070

>  <smiles>  (128) 
OC=1C=CC(CC#N)=CC1Br

>  <MDLNUMBER>  (128) 
MFCD18391513

>  <IUPAC Name>  (128) 
2-(3-bromo-4-hydroxyphenyl)acetonitrile

>  <CAS>  (128) 
73348-21-7

>  <URL>  (128) 
https://www.enaminestore.com/catalog/EN300-1894070

>  <ROCS_ShapeQuery>  (128) 
_x1604L0AP1_x0771L0AP1

>  <ROCS_TanimotoCombo>  (128) 
0.903 

>  <ROCS_ShapeTanimoto>  (128) 
0.491 

>  <ROCS_ColorTanimoto>  (128) 
0.413 

>  <ROCS_RefTversky>  (128) 
0.431 

>  <ROCS_RefColorTversky>  (128) 
0.429 

>  <ROCS_RefTverskyCombo>  (128) 
0.860 

>  <ROCS_FitTversky>  (128) 
1.393 

>  <ROCS_FitColorTversky>  (128) 
0.914 

>  <ROCS_FitTverskyCombo>  (128) 
2.307 

>  <ROCS_ColorScore>  (128) 
-4.877

>  <ROCS_Overlap>  (128) 
728.995

>  <ROCS_Rank>  (128) 
240                 

$$$$
untitled-dbase-2315_5
     RDKit          3D

 12 12  0  0  0  0  0  0  0  0999 V2000
   -4.8106   12.5984  -29.4047 C   0  0  0  0  0  0  0  0  0  0  0  0
   -5.8215   11.8123  -28.8520 C   0  0  0  0  0  0  0  0  0  0  0  0
   -4.3804   12.3643  -30.7108 C   0  0  0  0  0  0  0  0  0  0  0  0
   -4.9611   11.3440  -31.4641 C   0  0  0  0  0  0  0  0  0  0  0  0
   -6.4023   10.7920  -29.6052 C   0  0  0  0  0  0  0  0  0  0  0  0
   -5.9721   10.5579  -30.9113 C   0  0  0  0  0  0  0  0  0  0  0  0
   -6.2541   12.0778  -27.4864 C   0  0  0  0  0  0  0  0  0  0  0  0
   -3.2971   13.2230  -31.2772 C   0  0  0  0  0  0  0  0  0  0  0  0
   -4.4805   11.1152  -32.8638 C   0  0  0  0  0  0  0  0  0  0  0  0
   -5.5040   12.5348  -26.6214 O   0  0  0  0  0  0  0  0  0  0  0  0
   -7.3909   10.0326  -29.0480 O   0  0  0  0  0  0  0  0  0  0  0  0
   -6.7698    9.1592  -31.9283 Br  0  0  0  0  0  0  0  0  0  0  0  0
  1  2  2  0
  1  3  1  0
  2  5  1  0
  2  7  1  0
  3  4  2  0
  3  8  1  0
  4  6  1  0
  4  9  1  0
  5  6  2  0
  5 11  1  0
  6 12  1  0
  7 10  2  0
M  END
>  <id>  (129) 
EN300-3005928

>  <smiles>  (129) 
CC=1C=C(C=O)C(O)=C(Br)C1C

>  <MDLNUMBER>  (129) 
MFCD06740694

>  <IUPAC Name>  (129) 
3-bromo-2-hydroxy-4,5-dimethylbenzaldehyde

>  <CAS>  (129) 
886503-97-5

>  <Purity>  (129) 
95

>  <URL>  (129) 
https://www.enaminestore.com/catalog/EN300-3005928

>  <ROCS_ShapeQuery>  (129) 
_x1604L0AP1_x0771L0AP1

>  <ROCS_TanimotoCombo>  (129) 
0.903 

>  <ROCS_ShapeTanimoto>  (129) 
0.472 

>  <ROCS_ColorTanimoto>  (129) 
0.431 

>  <ROCS_RefTversky>  (129) 
0.429 

>  <ROCS_RefColorTversky>  (129) 
0.443 

>  <ROCS_RefTverskyCombo>  (129) 
0.871 

>  <ROCS_FitTversky>  (129) 
1.273 

>  <ROCS_FitColorTversky>  (129) 
0.943 

>  <ROCS_FitTverskyCombo>  (129) 
2.216 

>  <ROCS_ColorScore>  (129) 
-5.029

>  <ROCS_Overlap>  (129) 
726.268

>  <ROCS_Rank>  (129) 
241                 

$$$$
untitled-dbase-1064_6
     RDKit          3D

 11 11  0  0  0  0  0  0  0  0999 V2000
   -2.9936   15.3623  -30.9853 C   0  0  0  0  0  0  0  0  0  0  0  0
   -3.1054   14.2402  -31.3979 C   0  0  0  0  0  0  0  0  0  0  0  0
   -4.5662   12.4475  -29.8183 C   0  0  0  0  0  0  0  0  0  0  0  0
   -5.5573   11.7616  -29.1163 C   0  0  0  0  0  0  0  0  0  0  0  0
   -5.0389   11.1212  -31.7816 C   0  0  0  0  0  0  0  0  0  0  0  0
   -4.3070   12.1273  -31.1510 C   0  0  0  0  0  0  0  0  0  0  0  0
   -6.2892   10.7555  -29.7469 C   0  0  0  0  0  0  0  0  0  0  0  0
   -6.0300   10.4353  -31.0796 C   0  0  0  0  0  0  0  0  0  0  0  0
   -3.2470   12.8611  -31.9004 C   0  0  0  0  0  0  0  0  0  0  0  0
   -7.2498   10.1031  -29.0327 O   0  0  0  0  0  0  0  0  0  0  0  0
   -7.0037    9.0730  -31.9676 Br  0  0  0  0  0  0  0  0  0  0  0  0
  1  2  3  0
  2  9  1  0
  3  4  2  0
  3  6  1  0
  4  7  1  0
  5  6  2  0
  5  8  1  0
  6  9  1  0
  7  8  2  0
  7 10  1  0
  8 11  1  0
M  END
>  <id>  (130) 
EN300-1906335

>  <smiles>  (130) 
OC=1C=CC(CC#C)=CC1Br

>  <MDLNUMBER>  (130) 
MFCD33501284

>  <IUPAC Name>  (130) 
2-bromo-4-(prop-2-yn-1-yl)phenol

>  <CAS>  (130) 
2228973-05-3

>  <URL>  (130) 
https://www.enaminestore.com/catalog/EN300-1906335

>  <ROCS_ShapeQuery>  (130) 
_x1604L0AP1_x0771L0AP1

>  <ROCS_TanimotoCombo>  (130) 
0.903 

>  <ROCS_ShapeTanimoto>  (130) 
0.490 

>  <ROCS_ColorTanimoto>  (130) 
0.413 

>  <ROCS_RefTversky>  (130) 
0.431 

>  <ROCS_RefColorTversky>  (130) 
0.429 

>  <ROCS_RefTverskyCombo>  (130) 
0.860 

>  <ROCS_FitTversky>  (130) 
1.393 

>  <ROCS_FitColorTversky>  (130) 
0.914 

>  <ROCS_FitTverskyCombo>  (130) 
2.308 

>  <ROCS_ColorScore>  (130) 
-4.878

>  <ROCS_Overlap>  (130) 
727.776

>  <ROCS_Rank>  (130) 
246                 

$$$$
untitled-dbase-219_0
     RDKit          3D

 14 14  0  0  0  0  0  0  0  0999 V2000
   -4.3264   12.1169  -31.2513 C   0  0  0  0  0  0  0  0  0  0  0  0
   -5.0756   11.0963  -31.8366 C   0  0  0  0  0  0  0  0  0  0  0  0
   -4.5481   12.4694  -29.9200 C   0  0  0  0  0  0  0  0  0  0  0  0
   -5.5192   11.8013  -29.1741 C   0  0  0  0  0  0  0  0  0  0  0  0
   -6.2685   10.7807  -29.7594 C   0  0  0  0  0  0  0  0  0  0  0  0
   -6.0466   10.4282  -31.0907 C   0  0  0  0  0  0  0  0  0  0  0  0
   -5.7558   12.1658  -27.7804 C   0  0  0  0  0  0  0  0  0  0  0  0
   -3.7473   13.5403  -29.3402 C   0  0  0  0  0  0  0  0  0  0  0  0
   -3.1820   15.8468  -29.5407 C   0  0  0  0  0  0  0  0  0  0  0  0
   -6.6000   11.6091  -27.0781 O   0  0  0  0  0  0  0  0  0  0  0  0
   -3.0046   13.4036  -28.3612 O   0  0  0  0  0  0  0  0  0  0  0  0
   -7.2167   10.1327  -29.0211 O   0  0  0  0  0  0  0  0  0  0  0  0
   -3.9199   14.7158  -30.0163 O   0  0  0  0  0  0  0  0  0  0  0  0
   -7.0433    9.0470  -31.9234 Br  0  0  0  0  0  0  0  0  0  0  0  0
  1  2  2  0
  1  3  1  0
  2  6  1  0
  3  4  2  0
  3  8  1  0
  4  5  1  0
  4  7  1  0
  5  6  2  0
  5 12  1  0
  6 14  1  0
  7 10  2  0
  8 11  2  0
  8 13  1  0
  9 13  1  0
M  END
>  <id>  (131) 
EN300-300276

>  <smiles>  (131) 
COC(=O)C=1C=CC(Br)=C(O)C1C=O

>  <MDLNUMBER>  (131) 
MFCD31629038

>  <IUPAC Name>  (131) 
methyl 4-bromo-2-formyl-3-hydroxybenzoate

>  <CAS>  (131) 
2092432-54-5

>  <Purity>  (131) 
95

>  <URL>  (131) 
https://www.enaminestore.com/catalog/EN300-300276

>  <ROCS_ShapeQuery>  (131) 
_x1604L0AP1_x0771L0AP1

>  <ROCS_TanimotoCombo>  (131) 
0.903 

>  <ROCS_ShapeTanimoto>  (131) 
0.513 

>  <ROCS_ColorTanimoto>  (131) 
0.389 

>  <ROCS_RefTversky>  (131) 
0.472 

>  <ROCS_RefColorTversky>  (131) 
0.435 

>  <ROCS_RefTverskyCombo>  (131) 
0.907 

>  <ROCS_FitTversky>  (131) 
1.205 

>  <ROCS_FitColorTversky>  (131) 
0.789 

>  <ROCS_FitTverskyCombo>  (131) 
1.994 

>  <ROCS_ColorScore>  (131) 
-4.960

>  <ROCS_Overlap>  (131) 
801.706

>  <ROCS_Rank>  (131) 
247                 

$$$$
untitled-dbase-904_161
     RDKit          3D

 15 15  0  0  1  0  0  0  0  0999 V2000
   -4.2196   11.9772  -31.2139 C   0  0  0  0  0  0  0  0  0  0  0  0
   -4.2760   12.0772  -29.8238 C   0  0  0  0  0  0  0  0  0  0  0  0
   -5.1451   11.1859  -31.8944 C   0  0  0  0  0  0  0  0  0  0  0  0
   -5.2578   11.3858  -29.1141 C   0  0  0  0  0  0  0  0  0  0  0  0
   -6.1832   10.5944  -29.7945 C   0  0  0  0  0  0  0  0  0  0  0  0
   -6.1269   10.4945  -31.1847 C   0  0  0  0  0  0  0  0  0  0  0  0
   -7.6221   12.4562  -27.5861 C   0  0  0  0  0  0  0  0  0  0  0  0
   -9.0088   12.3292  -29.4992 C   0  0  0  0  0  0  0  0  0  0  0  0
   -5.2998   11.5072  -27.6095 C   0  0  0  0  0  0  0  0  0  0  0  0
   -6.1850   12.6682  -27.1508 C   0  0  2  0  0  0  0  0  0  0  0  0
   -8.5650   12.3009  -26.8210 O   0  0  0  0  0  0  0  0  0  0  0  0
   -7.1368    9.9227  -29.0860 O   0  0  0  0  0  0  0  0  0  0  0  0
   -6.1685   12.7238  -25.7301 O   0  0  0  0  0  0  0  0  0  0  0  0
   -7.6975   12.4913  -28.9492 O   0  0  0  0  0  0  0  0  0  0  0  0
   -7.3669    9.4305  -32.1461 Br  0  0  0  0  0  0  0  0  0  0  0  0
  1  2  2  0
  1  3  1  0
  2  4  1  0
  3  6  2  0
  4  5  2  0
  4  9  1  0
  5  6  1  0
  5 12  1  0
  6 15  1  0
  7 10  1  0
  7 11  2  0
  7 14  1  0
  8 14  1  0
  9 10  1  0
 10 13  1  1
M  END
>  <id>  (132) 
EN300-1923427

>  <smiles>  (132) 
COC(=O)C(O)CC=1C=CC=C(Br)C1O

>  <IUPAC Name>  (132) 
methyl 3-(3-bromo-2-hydroxyphenyl)-2-hydroxypropanoate

>  <CAS>  (132) 
2229526-46-7

>  <URL>  (132) 
https://www.enaminestore.com/catalog/EN300-1923427

>  <ROCS_ShapeQuery>  (132) 
_x1604L0AP1_x0771L0AP1

>  <ROCS_TanimotoCombo>  (132) 
0.903 

>  <ROCS_ShapeTanimoto>  (132) 
0.392 

>  <ROCS_ColorTanimoto>  (132) 
0.511 

>  <ROCS_RefTversky>  (132) 
0.396 

>  <ROCS_RefColorTversky>  (132) 
0.551 

>  <ROCS_RefTverskyCombo>  (132) 
0.947 

>  <ROCS_FitTversky>  (132) 
0.973 

>  <ROCS_FitColorTversky>  (132) 
0.874 

>  <ROCS_FitTverskyCombo>  (132) 
1.847 

>  <ROCS_ColorScore>  (132) 
-6.322

>  <ROCS_Overlap>  (132) 
673.105

>  <ROCS_Rank>  (132) 
249                 

$$$$
untitled-dbase-444_49
     RDKit          3D

 13 13  0  0  1  0  0  0  0  0999 V2000
   -4.5740   12.4697  -29.8688 C   0  0  0  0  0  0  0  0  0  0  0  0
   -5.0627   11.1195  -31.8118 C   0  0  0  0  0  0  0  0  0  0  0  0
   -5.5519   11.7851  -29.1471 C   0  0  0  0  0  0  0  0  0  0  0  0
   -6.2851   10.7677  -29.7578 C   0  0  0  0  0  0  0  0  0  0  0  0
   -4.3295   12.1369  -31.2012 C   0  0  0  0  0  0  0  0  0  0  0  0
   -6.0406   10.4349  -31.0901 C   0  0  0  0  0  0  0  0  0  0  0  0
   -4.9704   11.3296  -26.7381 C   0  0  0  0  0  0  0  0  0  0  0  0
   -5.7976   12.1573  -27.7218 C   0  0  2  0  0  0  0  0  0  0  0  0
   -7.2959   11.8599  -25.9773 N   0  0  0  0  0  0  0  0  0  0  0  0
   -7.2385   10.1073  -29.0384 O   0  0  0  0  0  0  0  0  0  0  0  0
   -7.1831   11.9594  -27.4209 O   0  0  0  0  0  0  0  0  0  0  0  0
   -3.1229   12.9821  -32.0913 Cl  0  0  0  0  0  0  0  0  0  0  0  0
   -7.0164    9.0583  -31.9548 Br  0  0  0  0  0  0  0  0  0  0  0  0
  1  3  2  0
  1  5  1  0
  2  5  2  0
  2  6  1  0
  3  4  1  0
  3  8  1  0
  4  6  2  0
  4 10  1  0
  5 12  1  0
  6 13  1  0
  8  7  1  1
  8 11  1  0
  9 11  1  0
M  END
>  <id>  (133) 
EN300-1922570

>  <smiles>  (133) 
CC(ON)C=1C=C(Cl)C=C(Br)C1O

>  <IUPAC Name>  (133) 
2-[1-(aminooxy)ethyl]-6-bromo-4-chlorophenol

>  <CAS>  (133) 
2228783-80-8

>  <URL>  (133) 
https://www.enaminestore.com/catalog/EN300-1922570

>  <ROCS_ShapeQuery>  (133) 
_x1604L0AP1_x0771L0AP1

>  <ROCS_TanimotoCombo>  (133) 
0.902 

>  <ROCS_ShapeTanimoto>  (133) 
0.451 

>  <ROCS_ColorTanimoto>  (133) 
0.451 

>  <ROCS_RefTversky>  (133) 
0.421 

>  <ROCS_RefColorTversky>  (133) 
0.431 

>  <ROCS_RefTverskyCombo>  (133) 
0.852 

>  <ROCS_FitTversky>  (133) 
1.190 

>  <ROCS_FitColorTversky>  (133) 
1.113 

>  <ROCS_FitTverskyCombo>  (133) 
2.303 

>  <ROCS_ColorScore>  (133) 
-4.881

>  <ROCS_Overlap>  (133) 
713.117

>  <ROCS_Rank>  (133) 
250                 

$$$$
untitled-dbase-1182_51
     RDKit          3D

 12 12  0  0  0  0  0  0  0  0999 V2000
   -4.6058   12.4925  -29.8417 C   0  0  0  0  0  0  0  0  0  0  0  0
   -5.5798   11.7906  -29.1315 C   0  0  0  0  0  0  0  0  0  0  0  0
   -5.0674   11.1530  -31.7987 C   0  0  0  0  0  0  0  0  0  0  0  0
   -4.3497   12.1737  -31.1753 C   0  0  0  0  0  0  0  0  0  0  0  0
   -6.2976   10.7699  -29.7549 C   0  0  0  0  0  0  0  0  0  0  0  0
   -6.0414   10.4511  -31.0885 C   0  0  0  0  0  0  0  0  0  0  0  0
   -3.3080   12.9247  -31.9335 C   0  0  0  0  0  0  0  0  0  0  0  0
   -2.6103   12.1072  -33.0380 C   0  0  0  0  0  0  0  0  0  0  0  0
   -1.9152   10.8612  -32.4900 C   0  0  0  0  0  0  0  0  0  0  0  0
   -7.2415   10.1020  -29.0328 O   0  0  0  0  0  0  0  0  0  0  0  0
   -1.1193    9.9305  -33.8320 S   0  0  0  0  0  0  0  0  0  0  0  0
   -6.9962    9.0692  -31.9668 Br  0  0  0  0  0  0  0  0  0  0  0  0
  1  2  2  0
  1  4  1  0
  2  5  1  0
  3  4  2  0
  3  6  1  0
  4  7  1  0
  5  6  2  0
  5 10  1  0
  6 12  1  0
  7  8  1  0
  8  9  1  0
  9 11  1  0
M  END
>  <id>  (134) 
EN300-1905158

>  <smiles>  (134) 
OC=1C=CC(CCCS)=CC1Br

>  <IUPAC Name>  (134) 
2-bromo-4-(3-sulfanylpropyl)phenol

>  <CAS>  (134) 
2228544-80-5

>  <URL>  (134) 
https://www.enaminestore.com/catalog/EN300-1905158

>  <ROCS_ShapeQuery>  (134) 
_x1604L0AP1_x0771L0AP1

>  <ROCS_TanimotoCombo>  (134) 
0.902 

>  <ROCS_ShapeTanimoto>  (134) 
0.451 

>  <ROCS_ColorTanimoto>  (134) 
0.451 

>  <ROCS_RefTversky>  (134) 
0.411 

>  <ROCS_RefColorTversky>  (134) 
0.431 

>  <ROCS_RefTverskyCombo>  (134) 
0.842 

>  <ROCS_FitTversky>  (134) 
1.277 

>  <ROCS_FitColorTversky>  (134) 
1.112 

>  <ROCS_FitTverskyCombo>  (134) 
2.390 

>  <ROCS_ColorScore>  (134) 
-4.878

>  <ROCS_Overlap>  (134) 
695.431

>  <ROCS_Rank>  (134) 
251                 

$$$$
untitled-dbase-1790_0
     RDKit          3D

 10 10  0  0  0  0  0  0  0  0999 V2000
   -4.3512   12.1549  -31.2048 C   0  0  0  0  0  0  0  0  0  0  0  0
   -5.0769   11.1336  -31.8178 C   0  0  0  0  0  0  0  0  0  0  0  0
   -5.5693   11.7876  -29.1509 C   0  0  0  0  0  0  0  0  0  0  0  0
   -4.5973   12.4819  -29.8712 C   0  0  0  0  0  0  0  0  0  0  0  0
   -6.2950   10.7662  -29.7640 C   0  0  0  0  0  0  0  0  0  0  0  0
   -6.0488   10.4393  -31.0975 C   0  0  0  0  0  0  0  0  0  0  0  0
   -2.9107   14.1469  -30.0680 C   0  0  0  0  0  0  0  0  0  0  0  0
   -7.2378   10.1070  -29.0325 O   0  0  0  0  0  0  0  0  0  0  0  0
   -3.8890   13.4785  -29.2732 O   0  0  0  0  0  0  0  0  0  0  0  0
   -7.0150    9.0577  -31.9635 Br  0  0  0  0  0  0  0  0  0  0  0  0
  1  2  2  0
  1  4  1  0
  2  6  1  0
  3  4  2  0
  3  5  1  0
  4  9  1  0
  5  6  2  0
  5  8  1  0
  6 10  1  0
  7  9  1  0
M  END
>  <id>  (135) 
EN300-177992

>  <smiles>  (135) 
COC=1C=CC(Br)=C(O)C1

>  <MDLNUMBER>  (135) 
MFCD03428523

>  <IUPAC Name>  (135) 
2-bromo-5-methoxyphenol

>  <CAS>  (135) 
63604-94-4

>  <Purity>  (135) 
95

>  <URL>  (135) 
https://www.enaminestore.com/catalog/EN300-177992

>  <MP>  (135) 
152-153

>  <ROCS_ShapeQuery>  (135) 
_x1604L0AP1_x0771L0AP1

>  <ROCS_TanimotoCombo>  (135) 
0.902 

>  <ROCS_ShapeTanimoto>  (135) 
0.489 

>  <ROCS_ColorTanimoto>  (135) 
0.413 

>  <ROCS_RefTversky>  (135) 
0.423 

>  <ROCS_RefColorTversky>  (135) 
0.429 

>  <ROCS_RefTverskyCombo>  (135) 
0.852 

>  <ROCS_FitTversky>  (135) 
1.467 

>  <ROCS_FitColorTversky>  (135) 
0.914 

>  <ROCS_FitTverskyCombo>  (135) 
2.381 

>  <ROCS_ColorScore>  (135) 
-4.878

>  <ROCS_Overlap>  (135) 
714.454

>  <ROCS_Rank>  (135) 
252                 

$$$$
untitled-dbase-1157_5
     RDKit          3D

 14 14  0  0  0  0  0  0  0  0999 V2000
   -4.6925   12.5602  -29.7729 C   0  0  0  0  0  0  0  0  0  0  0  0
   -4.4235   12.2901  -31.1146 C   0  0  0  0  0  0  0  0  0  0  0  0
   -5.6407   11.8025  -29.0854 C   0  0  0  0  0  0  0  0  0  0  0  0
   -5.1026   11.2623  -31.7689 C   0  0  0  0  0  0  0  0  0  0  0  0
   -6.3199   10.7748  -29.7397 C   0  0  0  0  0  0  0  0  0  0  0  0
   -6.0509   10.5047  -31.0815 C   0  0  0  0  0  0  0  0  0  0  0  0
   -4.7817   11.0260  -33.1715 C   0  0  0  0  0  0  0  0  0  0  0  0
   -5.8545   11.1425  -34.2415 C   0  0  0  0  0  0  0  0  0  0  0  0
   -3.6264   10.7229  -33.5250 O   0  0  0  0  0  0  0  0  0  0  0  0
   -7.2399   10.0560  -29.0354 O   0  0  0  0  0  0  0  0  0  0  0  0
   -7.0596   11.4757  -33.7135 F   0  0  0  0  0  0  0  0  0  0  0  0
   -5.5450   12.0868  -35.1659 F   0  0  0  0  0  0  0  0  0  0  0  0
   -6.0417    9.9829  -34.9247 F   0  0  0  0  0  0  0  0  0  0  0  0
   -6.9869    9.0981  -31.9595 Br  0  0  0  0  0  0  0  0  0  0  0  0
  1  2  2  0
  1  3  1  0
  2  4  1  0
  3  5  2  0
  4  6  2  0
  4  7  1  0
  5  6  1  0
  5 10  1  0
  6 14  1  0
  7  8  1  0
  7  9  2  0
  8 11  1  0
  8 12  1  0
  8 13  1  0
M  END
>  <id>  (136) 
EN300-1950760

>  <smiles>  (136) 
OC=1C=CC=C(C(=O)C(F)(F)F)C1Br

>  <IUPAC Name>  (136) 
1-(2-bromo-3-hydroxyphenyl)-2,2,2-trifluoroethan-1-one

>  <CAS>  (136) 
2229594-80-1

>  <URL>  (136) 
https://www.enaminestore.com/catalog/EN300-1950760

>  <ROCS_ShapeQuery>  (136) 
_x1604L0AP1_x0771L0AP1

>  <ROCS_TanimotoCombo>  (136) 
0.902 

>  <ROCS_ShapeTanimoto>  (136) 
0.491 

>  <ROCS_ColorTanimoto>  (136) 
0.411 

>  <ROCS_RefTversky>  (136) 
0.459 

>  <ROCS_RefColorTversky>  (136) 
0.428 

>  <ROCS_RefTverskyCombo>  (136) 
0.887 

>  <ROCS_FitTversky>  (136) 
1.163 

>  <ROCS_FitColorTversky>  (136) 
0.912 

>  <ROCS_FitTverskyCombo>  (136) 
2.075 

>  <ROCS_ColorScore>  (136) 
-4.863

>  <ROCS_Overlap>  (136) 
779.635

>  <ROCS_Rank>  (136) 
253                 

$$$$
untitled-dbase-1639_98
     RDKit          3D

 13 14  0  0  0  0  0  0  0  0999 V2000
   -4.6051   12.4882  -29.8701 C   0  0  0  0  0  0  0  0  0  0  0  0
   -4.3589   12.1653  -31.2045 C   0  0  0  0  0  0  0  0  0  0  0  0
   -5.5730   11.7878  -29.1501 C   0  0  0  0  0  0  0  0  0  0  0  0
   -5.0807   11.1420  -31.8190 C   0  0  0  0  0  0  0  0  0  0  0  0
   -6.2947   10.7645  -29.7646 C   0  0  0  0  0  0  0  0  0  0  0  0
   -6.0486   10.4416  -31.0990 C   0  0  0  0  0  0  0  0  0  0  0  0
   -5.8561   10.6423  -35.6241 C   0  0  0  0  0  0  0  0  0  0  0  0
   -6.5835    9.6733  -34.7340 C   0  0  0  0  0  0  0  0  0  0  0  0
   -5.9767   10.9203  -34.1502 C   0  0  0  0  0  0  0  0  0  0  0  0
   -4.7748   10.8303  -33.2724 C   0  0  0  0  0  0  0  0  0  0  0  0
   -7.2331   10.1026  -29.0296 O   0  0  0  0  0  0  0  0  0  0  0  0
   -6.8967   11.9604  -33.7791 O   0  0  0  0  0  0  0  0  0  0  0  0
   -7.0392    9.0434  -31.9265 Br  0  0  0  0  0  0  0  0  0  0  0  0
  1  2  2  0
  1  3  1  0
  2  4  1  0
  3  5  2  0
  4  6  2  0
  4 10  1  0
  5  6  1  0
  5 11  1  0
  6 13  1  0
  7  8  1  0
  7  9  1  0
  8  9  1  0
  9 10  1  0
  9 12  1  0
M  END
>  <id>  (137) 
EN300-1904808

>  <smiles>  (137) 
OC=1C=CC=C(CC2(O)CC2)C1Br

>  <IUPAC Name>  (137) 
2-bromo-3-[(1-hydroxycyclopropyl)methyl]phenol

>  <CAS>  (137) 
2228226-54-6

>  <URL>  (137) 
https://www.enaminestore.com/catalog/EN300-1904808

>  <ROCS_ShapeQuery>  (137) 
_x1604L0AP1_x0771L0AP1

>  <ROCS_TanimotoCombo>  (137) 
0.901 

>  <ROCS_ShapeTanimoto>  (137) 
0.521 

>  <ROCS_ColorTanimoto>  (137) 
0.381 

>  <ROCS_RefTversky>  (137) 
0.466 

>  <ROCS_RefColorTversky>  (137) 
0.428 

>  <ROCS_RefTverskyCombo>  (137) 
0.894 

>  <ROCS_FitTversky>  (137) 
1.290 

>  <ROCS_FitColorTversky>  (137) 
0.777 

>  <ROCS_FitTverskyCombo>  (137) 
2.066 

>  <ROCS_ColorScore>  (137) 
-4.881

>  <ROCS_Overlap>  (137) 
790.259

>  <ROCS_Rank>  (137) 
254                 

$$$$
untitled-dbase-2200_17
     RDKit          3D

 15 15  0  0  0  0  0  0  0  0999 V2000
   -4.5911   12.4783  -29.8156 C   0  0  0  0  0  0  0  0  0  0  0  0
   -5.0574   11.1483  -31.7779 C   0  0  0  0  0  0  0  0  0  0  0  0
   -5.5709   11.7802  -29.1096 C   0  0  0  0  0  0  0  0  0  0  0  0
   -6.2939   10.7661  -29.7378 C   0  0  0  0  0  0  0  0  0  0  0  0
   -4.3344   12.1624  -31.1497 C   0  0  0  0  0  0  0  0  0  0  0  0
   -6.0371   10.4502  -31.0720 C   0  0  0  0  0  0  0  0  0  0  0  0
   -7.7401   13.5035  -27.6087 C   0  0  0  0  0  0  0  0  0  0  0  0
   -6.2296   13.4354  -27.5342 C   0  0  0  0  0  0  0  0  0  0  0  0
   -2.1747   13.6276  -31.0920 O   0  0  0  0  0  0  0  0  0  0  0  0
   -2.6624   12.2572  -33.1732 O   0  0  0  0  0  0  0  0  0  0  0  0
   -7.2481   10.0949  -29.0303 O   0  0  0  0  0  0  0  0  0  0  0  0
   -5.8108   12.0998  -27.8071 O   0  0  0  0  0  0  0  0  0  0  0  0
   -3.1079   13.0366  -32.0329 S   0  0  0  0  0  0  0  0  0  0  0  0
   -4.1691   14.5925  -32.8350 Cl  0  0  0  0  0  0  0  0  0  0  0  0
   -6.9987    9.0788  -31.9599 Br  0  0  0  0  0  0  0  0  0  0  0  0
  1  3  2  0
  1  5  1  0
  2  5  2  0
  2  6  1  0
  3  4  1  0
  3 12  1  0
  4  6  2  0
  4 11  1  0
  5 13  1  0
  6 15  1  0
  7  8  1  0
  8 12  1  0
  9 13  2  0
 10 13  2  0
 13 14  1  0
M  END
>  <id>  (138) 
EN300-6493329

>  <smiles>  (138) 
CCOC=1C=C(C=C(Br)C1O)S(=O)(=O)Cl

>  <IUPAC Name>  (138) 
3-bromo-5-ethoxy-4-hydroxybenzene-1-sulfonyl chloride

>  <CAS>  (138) 
2247107-99-7

>  <URL>  (138) 
https://www.enaminestore.com/catalog/EN300-6493329

>  <ROCS_ShapeQuery>  (138) 
_x1604L0AP1_x0771L0AP1

>  <ROCS_TanimotoCombo>  (138) 
0.901 

>  <ROCS_ShapeTanimoto>  (138) 
0.486 

>  <ROCS_ColorTanimoto>  (138) 
0.415 

>  <ROCS_RefTversky>  (138) 
0.456 

>  <ROCS_RefColorTversky>  (138) 
0.431 

>  <ROCS_RefTverskyCombo>  (138) 
0.887 

>  <ROCS_FitTversky>  (138) 
1.160 

>  <ROCS_FitColorTversky>  (138) 
0.918 

>  <ROCS_FitTverskyCombo>  (138) 
2.078 

>  <ROCS_ColorScore>  (138) 
-4.898

>  <ROCS_Overlap>  (138) 
774.106

>  <ROCS_Rank>  (138) 
255                 

$$$$
untitled-dbase-1958_225
     RDKit          3D

 14 14  0  0  0  0  0  0  0  0999 V2000
   -4.5771   12.4639  -29.8094 C   0  0  0  0  0  0  0  0  0  0  0  0
   -5.0456   11.1369  -31.7731 C   0  0  0  0  0  0  0  0  0  0  0  0
   -4.3184   12.1466  -31.1427 C   0  0  0  0  0  0  0  0  0  0  0  0
   -5.5629   11.7715  -29.1062 C   0  0  0  0  0  0  0  0  0  0  0  0
   -6.2902   10.7619  -29.7365 C   0  0  0  0  0  0  0  0  0  0  0  0
   -6.0316   10.4445  -31.0700 C   0  0  0  0  0  0  0  0  0  0  0  0
   -3.2922   12.8707  -31.8764 C   0  0  0  0  0  0  0  0  0  0  0  0
   -5.0149   13.1374  -27.2381 C   0  0  0  0  0  0  0  0  0  0  0  0
   -3.4194   14.3879  -32.0520 C   0  0  0  0  0  0  0  0  0  0  0  0
   -2.3144   12.2645  -32.3596 O   0  0  0  0  0  0  0  0  0  0  0  0
   -7.2511   10.0967  -29.0323 O   0  0  0  0  0  0  0  0  0  0  0  0
   -5.8039   12.0931  -27.8044 O   0  0  0  0  0  0  0  0  0  0  0  0
   -3.4226   15.2303  -30.4889 Cl  0  0  0  0  0  0  0  0  0  0  0  0
   -7.0014    9.0808  -31.9610 Br  0  0  0  0  0  0  0  0  0  0  0  0
  1  3  2  0
  1  4  1  0
  2  3  1  0
  2  6  2  0
  3  7  1  0
  4  5  2  0
  4 12  1  0
  5  6  1  0
  5 11  1  0
  6 14  1  0
  7  9  1  0
  7 10  2  0
  8 12  1  0
  9 13  1  0
M  END
>  <id>  (139) 
EN300-1925694

>  <smiles>  (139) 
COC=1C=C(C=C(Br)C1O)C(=O)CCl

>  <IUPAC Name>  (139) 
1-(3-bromo-4-hydroxy-5-methoxyphenyl)-2-chloroethan-1-one

>  <CAS>  (139) 
2229428-63-9

>  <URL>  (139) 
https://www.enaminestore.com/catalog/EN300-1925694

>  <ROCS_ShapeQuery>  (139) 
_x1604L0AP1_x0771L0AP1

>  <ROCS_TanimotoCombo>  (139) 
0.901 

>  <ROCS_ShapeTanimoto>  (139) 
0.519 

>  <ROCS_ColorTanimoto>  (139) 
0.383 

>  <ROCS_RefTversky>  (139) 
0.472 

>  <ROCS_RefColorTversky>  (139) 
0.429 

>  <ROCS_RefTverskyCombo>  (139) 
0.901 

>  <ROCS_FitTversky>  (139) 
1.239 

>  <ROCS_FitColorTversky>  (139) 
0.779 

>  <ROCS_FitTverskyCombo>  (139) 
2.018 

>  <ROCS_ColorScore>  (139) 
-4.898

>  <ROCS_Overlap>  (139) 
800.368

>  <ROCS_Rank>  (139) 
256                 

$$$$
untitled-dbase-233_18
     RDKit          3D

 12 12  0  0  0  0  0  0  0  0999 V2000
   -4.6596   12.5363  -29.8580 C   0  0  0  0  0  0  0  0  0  0  0  0
   -5.6076   11.8088  -29.1386 C   0  0  0  0  0  0  0  0  0  0  0  0
   -5.1198   11.1990  -31.8168 C   0  0  0  0  0  0  0  0  0  0  0  0
   -4.4157   12.2314  -31.1972 C   0  0  0  0  0  0  0  0  0  0  0  0
   -6.3117   10.7764  -29.7583 C   0  0  0  0  0  0  0  0  0  0  0  0
   -6.0678   10.4714  -31.0974 C   0  0  0  0  0  0  0  0  0  0  0  0
   -2.2604   13.5469  -31.1126 C   0  0  0  0  0  0  0  0  0  0  0  0
   -2.1229   15.0458  -31.0387 C   0  0  0  0  0  0  0  0  0  0  0  0
   -3.4018   13.0098  -31.9653 C   0  0  0  0  0  0  0  0  0  0  0  0
   -1.4811   12.8111  -30.5083 O   0  0  0  0  0  0  0  0  0  0  0  0
   -7.2302   10.0835  -29.0271 O   0  0  0  0  0  0  0  0  0  0  0  0
   -7.0046    9.0743  -31.9709 Br  0  0  0  0  0  0  0  0  0  0  0  0
  1  2  2  0
  1  4  1  0
  2  5  1  0
  3  4  2  0
  3  6  1  0
  4  9  1  0
  5  6  2  0
  5 11  1  0
  6 12  1  0
  7  8  1  0
  7  9  1  0
  7 10  2  0
M  END
>  <id>  (140) 
EN300-1581816

>  <smiles>  (140) 
CC(=O)CC=1C=CC(O)=C(Br)C1

>  <MDLNUMBER>  (140) 
MFCD04117998

>  <IUPAC Name>  (140) 
1-(3-bromo-4-hydroxyphenyl)propan-2-one

>  <CAS>  (140) 
655237-87-9

>  <Purity>  (140) 
95

>  <URL>  (140) 
https://www.enaminestore.com/catalog/EN300-1581816

>  <ROCS_ShapeQuery>  (140) 
_x1604L0AP1_x0771L0AP1

>  <ROCS_TanimotoCombo>  (140) 
0.901 

>  <ROCS_ShapeTanimoto>  (140) 
0.490 

>  <ROCS_ColorTanimoto>  (140) 
0.412 

>  <ROCS_RefTversky>  (140) 
0.438 

>  <ROCS_RefColorTversky>  (140) 
0.429 

>  <ROCS_RefTverskyCombo>  (140) 
0.867 

>  <ROCS_FitTversky>  (140) 
1.317 

>  <ROCS_FitColorTversky>  (140) 
0.913 

>  <ROCS_FitTverskyCombo>  (140) 
2.229 

>  <ROCS_ColorScore>  (140) 
-4.871

>  <ROCS_Overlap>  (140) 
741.500

>  <ROCS_Rank>  (140) 
257                 

$$$$
untitled-dbase-171_72
     RDKit          3D

 12 12  0  0  0  0  0  0  0  0999 V2000
   -4.5748   12.4643  -29.8176 C   0  0  0  0  0  0  0  0  0  0  0  0
   -5.0475   11.1353  -31.7790 C   0  0  0  0  0  0  0  0  0  0  0  0
   -4.3185   12.1452  -31.1511 C   0  0  0  0  0  0  0  0  0  0  0  0
   -5.5601   11.7735  -29.1121 C   0  0  0  0  0  0  0  0  0  0  0  0
   -6.2890   10.7636  -29.7401 C   0  0  0  0  0  0  0  0  0  0  0  0
   -6.0328   10.4445  -31.0736 C   0  0  0  0  0  0  0  0  0  0  0  0
   -5.0086   13.1415  -27.2466 C   0  0  0  0  0  0  0  0  0  0  0  0
   -3.2657   12.8847  -31.9052 C   0  0  0  0  0  0  0  0  0  0  0  0
   -7.2493   10.0999  -29.0336 O   0  0  0  0  0  0  0  0  0  0  0  0
   -5.7993   12.0970  -27.8105 O   0  0  0  0  0  0  0  0  0  0  0  0
   -3.0914   14.6080  -31.3503 S   0  0  0  0  0  0  0  0  0  0  0  0
   -7.0027    9.0785  -31.9608 Br  0  0  0  0  0  0  0  0  0  0  0  0
  1  3  2  0
  1  4  1  0
  2  3  1  0
  2  6  2  0
  3  8  1  0
  4  5  2  0
  4 10  1  0
  5  6  1  0
  5  9  1  0
  6 12  1  0
  7 10  1  0
  8 11  1  0
M  END
>  <id>  (141) 
EN300-1289252

>  <smiles>  (141) 
COC=1C=C(CS)C=C(Br)C1O

>  <IUPAC Name>  (141) 
2-bromo-6-methoxy-4-(sulfanylmethyl)phenol

>  <CAS>  (141) 
2172356-10-2

>  <URL>  (141) 
https://www.enaminestore.com/catalog/EN300-1289252

>  <ROCS_ShapeQuery>  (141) 
_x1604L0AP1_x0771L0AP1

>  <ROCS_TanimotoCombo>  (141) 
0.901 

>  <ROCS_ShapeTanimoto>  (141) 
0.486 

>  <ROCS_ColorTanimoto>  (141) 
0.415 

>  <ROCS_RefTversky>  (141) 
0.435 

>  <ROCS_RefColorTversky>  (141) 
0.431 

>  <ROCS_RefTverskyCombo>  (141) 
0.866 

>  <ROCS_FitTversky>  (141) 
1.318 

>  <ROCS_FitColorTversky>  (141) 
0.918 

>  <ROCS_FitTverskyCombo>  (141) 
2.236 

>  <ROCS_ColorScore>  (141) 
-4.898

>  <ROCS_Overlap>  (141) 
736.214

>  <ROCS_Rank>  (141) 
260                 

$$$$
untitled-dbase-1735_135
     RDKit          3D

 13 13  0  0  0  0  0  0  0  0999 V2000
   -4.3517   12.1789  -31.1767 C   0  0  0  0  0  0  0  0  0  0  0  0
   -4.6083   12.4987  -29.8435 C   0  0  0  0  0  0  0  0  0  0  0  0
   -5.0666   11.1551  -31.7984 C   0  0  0  0  0  0  0  0  0  0  0  0
   -5.5797   11.7947  -29.1319 C   0  0  0  0  0  0  0  0  0  0  0  0
   -6.2946   10.7709  -29.7535 C   0  0  0  0  0  0  0  0  0  0  0  0
   -6.0380   10.4511  -31.0868 C   0  0  0  0  0  0  0  0  0  0  0  0
   -5.0431   13.1780  -27.2733 C   0  0  0  0  0  0  0  0  0  0  0  0
   -4.7545   10.8527  -33.2288 C   0  0  0  0  0  0  0  0  0  0  0  0
   -6.6030   12.2232  -33.5138 N   0  0  0  0  0  0  0  0  0  0  0  0
   -7.2401   10.0969  -29.0364 O   0  0  0  0  0  0  0  0  0  0  0  0
   -5.8189   12.1189  -27.8304 O   0  0  0  0  0  0  0  0  0  0  0  0
   -5.9251   11.0371  -34.0132 O   0  0  0  0  0  0  0  0  0  0  0  0
   -7.0246    9.0586  -31.9299 Br  0  0  0  0  0  0  0  0  0  0  0  0
  1  2  2  0
  1  3  1  0
  2  4  1  0
  3  6  2  0
  3  8  1  0
  4  5  2  0
  4 11  1  0
  5  6  1  0
  5 10  1  0
  6 13  1  0
  7 11  1  0
  8 12  1  0
  9 12  1  0
M  END
>  <id>  (142) 
EN300-1935606

>  <smiles>  (142) 
COC=1C=CC(CON)=C(Br)C1O

>  <IUPAC Name>  (142) 
3-[(aminooxy)methyl]-2-bromo-6-methoxyphenol

>  <CAS>  (142) 
2229215-66-9

>  <URL>  (142) 
https://www.enaminestore.com/catalog/EN300-1935606

>  <ROCS_ShapeQuery>  (142) 
_x1604L0AP1_x0771L0AP1

>  <ROCS_TanimotoCombo>  (142) 
0.901 

>  <ROCS_ShapeTanimoto>  (142) 
0.486 

>  <ROCS_ColorTanimoto>  (142) 
0.415 

>  <ROCS_RefTversky>  (142) 
0.444 

>  <ROCS_RefColorTversky>  (142) 
0.431 

>  <ROCS_RefTverskyCombo>  (142) 
0.875 

>  <ROCS_FitTversky>  (142) 
1.237 

>  <ROCS_FitColorTversky>  (142) 
0.919 

>  <ROCS_FitTverskyCombo>  (142) 
2.156 

>  <ROCS_ColorScore>  (142) 
-4.902

>  <ROCS_Overlap>  (142) 
752.887

>  <ROCS_Rank>  (142) 
261                 

$$$$
untitled-dbase-342_72
     RDKit          3D

 14 14  0  0  0  0  0  0  0  0999 V2000
   -4.3356   12.1687  -31.1613 C   0  0  0  0  0  0  0  0  0  0  0  0
   -4.6014   12.4928  -29.8309 C   0  0  0  0  0  0  0  0  0  0  0  0
   -5.0483   11.1448  -31.7855 C   0  0  0  0  0  0  0  0  0  0  0  0
   -5.5798   11.7930  -29.1247 C   0  0  0  0  0  0  0  0  0  0  0  0
   -6.2924   10.7692  -29.7489 C   0  0  0  0  0  0  0  0  0  0  0  0
   -6.0266   10.4451  -31.0793 C   0  0  0  0  0  0  0  0  0  0  0  0
   -5.0538   13.1802  -27.2660 C   0  0  0  0  0  0  0  0  0  0  0  0
   -4.7261   10.8378  -33.2127 C   0  0  0  0  0  0  0  0  0  0  0  0
   -5.3300   11.8437  -34.1926 C   0  0  0  0  0  0  0  0  0  0  0  0
   -7.2836   10.7286  -34.7552 N   0  0  0  0  0  0  0  0  0  0  0  0
   -7.2449   10.0994  -29.0370 O   0  0  0  0  0  0  0  0  0  0  0  0
   -5.8279   12.1214  -27.8259 O   0  0  0  0  0  0  0  0  0  0  0  0
   -6.7432   11.8728  -34.0385 O   0  0  0  0  0  0  0  0  0  0  0  0
   -7.0102    9.0527  -31.9260 Br  0  0  0  0  0  0  0  0  0  0  0  0
  1  2  2  0
  1  3  1  0
  2  4  1  0
  3  6  2  0
  3  8  1  0
  4  5  2  0
  4 12  1  0
  5  6  1  0
  5 11  1  0
  6 14  1  0
  7 12  1  0
  8  9  1  0
  9 13  1  0
 10 13  1  0
M  END
>  <id>  (143) 
EN300-1935608

>  <smiles>  (143) 
COC=1C=CC(CCON)=C(Br)C1O

>  <IUPAC Name>  (143) 
3-[2-(aminooxy)ethyl]-2-bromo-6-methoxyphenol

>  <CAS>  (143) 
2229572-51-2

>  <URL>  (143) 
https://www.enaminestore.com/catalog/EN300-1935608

>  <ROCS_ShapeQuery>  (143) 
_x1604L0AP1_x0771L0AP1

>  <ROCS_TanimotoCombo>  (143) 
0.901 

>  <ROCS_ShapeTanimoto>  (143) 
0.485 

>  <ROCS_ColorTanimoto>  (143) 
0.416 

>  <ROCS_RefTversky>  (143) 
0.451 

>  <ROCS_RefColorTversky>  (143) 
0.431 

>  <ROCS_RefTverskyCombo>  (143) 
0.882 

>  <ROCS_FitTversky>  (143) 
1.186 

>  <ROCS_FitColorTversky>  (143) 
0.919 

>  <ROCS_FitTverskyCombo>  (143) 
2.105 

>  <ROCS_ColorScore>  (143) 
-4.903

>  <ROCS_Overlap>  (143) 
765.464

>  <ROCS_Rank>  (143) 
262                 

$$$$
untitled-dbase-231_0
     RDKit          3D

 14 15  0  0  1  0  0  0  0  0999 V2000
   -5.0690   11.1502  -31.7919 C   0  0  0  0  0  0  0  0  0  0  0  0
   -5.5312   11.8015  -29.1672 C   0  0  0  0  0  0  0  0  0  0  0  0
   -4.5588   12.4979  -29.8754 C   0  0  0  0  0  0  0  0  0  0  0  0
   -6.2847   10.7818  -29.7197 C   0  0  0  0  0  0  0  0  0  0  0  0
   -4.3224   12.1771  -31.2041 C   0  0  0  0  0  0  0  0  0  0  0  0
   -6.0425   10.4569  -31.0539 C   0  0  0  0  0  0  0  0  0  0  0  0
   -5.5885   12.3377  -27.8176 C   0  0  0  0  0  0  0  0  0  0  0  0
   -4.6014   13.4720  -27.6827 C   0  0  0  0  0  0  0  0  0  0  0  0
   -3.8810   13.5547  -29.0495 C   0  0  1  0  0  0  0  0  0  0  0  0
   -2.3829   13.3155  -28.8544 C   0  0  0  0  0  0  0  0  0  0  0  0
   -6.3311   11.9332  -26.9414 O   0  0  0  0  0  0  0  0  0  0  0  0
   -7.2235   10.1311  -28.9857 O   0  0  0  0  0  0  0  0  0  0  0  0
   -3.2027   13.0411  -32.1860 Cl  0  0  0  0  0  0  0  0  0  0  0  0
   -7.0198    9.0774  -31.9145 Br  0  0  0  0  0  0  0  0  0  0  0  0
  1  5  2  0
  1  6  1  0
  2  3  2  0
  2  4  1  0
  2  7  1  0
  3  5  1  0
  3  9  1  0
  4  6  2  0
  4 12  1  0
  5 13  1  0
  6 14  1  0
  7  8  1  0
  7 11  2  0
  8  9  1  0
  9 10  1  1
M  END
>  <id>  (144) 
EN300-86551

>  <smiles>  (144) 
CC1CC(=O)C=2C1=C(Cl)C=C(Br)C2O

>  <MDLNUMBER>  (144) 
MFCD08444562

>  <IUPAC Name>  (144) 
6-bromo-4-chloro-7-hydroxy-3-methyl-2,3-dihydro-1H-inden-1-one

>  <CAS>  (144) 
923214-14-6

>  <URL>  (144) 
https://www.enaminestore.com/catalog/EN300-86551

>  <ROCS_ShapeQuery>  (144) 
_x1604L0AP1_x0771L0AP1

>  <ROCS_TanimotoCombo>  (144) 
0.901 

>  <ROCS_ShapeTanimoto>  (144) 
0.497 

>  <ROCS_ColorTanimoto>  (144) 
0.404 

>  <ROCS_RefTversky>  (144) 
0.462 

>  <ROCS_RefColorTversky>  (144) 
0.446 

>  <ROCS_RefTverskyCombo>  (144) 
0.909 

>  <ROCS_FitTversky>  (144) 
1.177 

>  <ROCS_FitColorTversky>  (144) 
0.808 

>  <ROCS_FitTverskyCombo>  (144) 
1.986 

>  <ROCS_ColorScore>  (144) 
-5.094

>  <ROCS_Overlap>  (144) 
785.225

>  <ROCS_Rank>  (144) 
264                 

$$$$
untitled-dbase-2112_91
     RDKit          3D

 14 14  0  0  0  0  0  0  0  0999 V2000
   -4.6046   12.4880  -29.8213 C   0  0  0  0  0  0  0  0  0  0  0  0
   -5.0676   11.1552  -31.7824 C   0  0  0  0  0  0  0  0  0  0  0  0
   -4.3485   12.1730  -31.1557 C   0  0  0  0  0  0  0  0  0  0  0  0
   -5.5797   11.7852  -29.1134 C   0  0  0  0  0  0  0  0  0  0  0  0
   -6.2987   10.7675  -29.7401 C   0  0  0  0  0  0  0  0  0  0  0  0
   -6.0427   10.4524  -31.0746 C   0  0  0  0  0  0  0  0  0  0  0  0
   -2.6086   14.0038  -31.0953 C   0  0  0  0  0  0  0  0  0  0  0  0
   -3.2643   15.3605  -31.0717 C   0  0  0  0  0  0  0  0  0  0  0  0
   -5.0386   13.1580  -27.2484 C   0  0  0  0  0  0  0  0  0  0  0  0
   -3.3066   12.9252  -31.9124 C   0  0  0  0  0  0  0  0  0  0  0  0
   -1.5635   13.7972  -30.4798 O   0  0  0  0  0  0  0  0  0  0  0  0
   -7.2492   10.0922  -29.0313 O   0  0  0  0  0  0  0  0  0  0  0  0
   -5.8188   12.1050  -27.8108 O   0  0  0  0  0  0  0  0  0  0  0  0
   -6.9994    9.0759  -31.9601 Br  0  0  0  0  0  0  0  0  0  0  0  0
  1  3  2  0
  1  4  1  0
  2  3  1  0
  2  6  2  0
  3 10  1  0
  4  5  2  0
  4 13  1  0
  5  6  1  0
  5 12  1  0
  6 14  1  0
  7  8  1  0
  7 10  1  0
  7 11  2  0
  9 13  1  0
M  END
>  <id>  (145) 
EN300-1894704

>  <smiles>  (145) 
COC=1C=C(CC(=O)C)C=C(Br)C1O

>  <MDLNUMBER>  (145) 
MFCD00210396

>  <IUPAC Name>  (145) 
1-(3-bromo-4-hydroxy-5-methoxyphenyl)propan-2-one

>  <CAS>  (145) 
205826-79-5

>  <URL>  (145) 
https://www.enaminestore.com/catalog/EN300-1894704

>  <ROCS_ShapeQuery>  (145) 
_x1604L0AP1_x0771L0AP1

>  <ROCS_TanimotoCombo>  (145) 
0.901 

>  <ROCS_ShapeTanimoto>  (145) 
0.518 

>  <ROCS_ColorTanimoto>  (145) 
0.383 

>  <ROCS_RefTversky>  (145) 
0.472 

>  <ROCS_RefColorTversky>  (145) 
0.429 

>  <ROCS_RefTverskyCombo>  (145) 
0.901 

>  <ROCS_FitTversky>  (145) 
1.233 

>  <ROCS_FitColorTversky>  (145) 
0.779 

>  <ROCS_FitTverskyCombo>  (145) 
2.013 

>  <ROCS_ColorScore>  (145) 
-4.898

>  <ROCS_Overlap>  (145) 
800.686

>  <ROCS_Rank>  (145) 
265                 

$$$$
untitled-dbase-1788_10
     RDKit          3D

 12 12  0  0  1  0  0  0  0  0999 V2000
   -5.0696   11.1360  -31.8063 C   0  0  0  0  0  0  0  0  0  0  0  0
   -5.5692   11.7814  -29.1386 C   0  0  0  0  0  0  0  0  0  0  0  0
   -4.3443   12.1541  -31.1875 C   0  0  0  0  0  0  0  0  0  0  0  0
   -6.2946   10.7634  -29.7575 C   0  0  0  0  0  0  0  0  0  0  0  0
   -4.5940   12.4768  -29.8536 C   0  0  0  0  0  0  0  0  0  0  0  0
   -6.0449   10.4407  -31.0914 C   0  0  0  0  0  0  0  0  0  0  0  0
   -1.9228   12.2179  -31.9119 C   0  0  0  0  0  0  0  0  0  0  0  0
   -3.3077   12.8748  -31.9876 C   0  0  2  0  0  0  0  0  0  0  0  0
   -3.2097   14.2745  -31.6147 N   0  0  0  0  0  0  0  0  0  0  0  0
   -7.2404   10.1023  -29.0317 O   0  0  0  0  0  0  0  0  0  0  0  0
   -3.7168   13.7302  -29.0550 Cl  0  0  0  0  0  0  0  0  0  0  0  0
   -7.0110    9.0627  -31.9638 Br  0  0  0  0  0  0  0  0  0  0  0  0
  1  3  2  0
  1  6  1  0
  2  4  1  0
  2  5  2  0
  3  5  1  0
  3  8  1  0
  4  6  2  0
  4 10  1  0
  5 11  1  0
  6 12  1  0
  8  7  1  1
  8  9  1  0
M  END
>  <id>  (146) 
EN300-1277466

>  <smiles>  (146) 
CC(N)C=1C=C(Br)C(O)=CC1Cl

>  <IUPAC Name>  (146) 
4-(1-aminoethyl)-2-bromo-5-chlorophenol

>  <CAS>  (146) 
2168993-39-1

>  <URL>  (146) 
https://www.enaminestore.com/catalog/EN300-1277466

>  <ROCS_ShapeQuery>  (146) 
_x1604L0AP1_x0771L0AP1

>  <ROCS_TanimotoCombo>  (146) 
0.901 

>  <ROCS_ShapeTanimoto>  (146) 
0.520 

>  <ROCS_ColorTanimoto>  (146) 
0.381 

>  <ROCS_RefTversky>  (146) 
0.455 

>  <ROCS_RefColorTversky>  (146) 
0.427 

>  <ROCS_RefTverskyCombo>  (146) 
0.882 

>  <ROCS_FitTversky>  (146) 
1.383 

>  <ROCS_FitColorTversky>  (146) 
0.776 

>  <ROCS_FitTverskyCombo>  (146) 
2.159 

>  <ROCS_ColorScore>  (146) 
-4.879

>  <ROCS_Overlap>  (146) 
769.204

>  <ROCS_Rank>  (146) 
266                 

$$$$
untitled-dbase-214_18
     RDKit          3D

 11 11  0  0  0  0  0  0  0  0999 V2000
   -5.0734   11.1383  -31.8029 C   0  0  0  0  0  0  0  0  0  0  0  0
   -4.5868   12.4880  -29.8591 C   0  0  0  0  0  0  0  0  0  0  0  0
   -4.3439   12.1585  -31.1925 C   0  0  0  0  0  0  0  0  0  0  0  0
   -6.2889   10.7771  -29.7464 C   0  0  0  0  0  0  0  0  0  0  0  0
   -6.0460   10.4477  -31.0798 C   0  0  0  0  0  0  0  0  0  0  0  0
   -5.5593   11.7973  -29.1360 C   0  0  0  0  0  0  0  0  0  0  0  0
   -3.3042   12.8972  -31.9658 C   0  0  0  0  0  0  0  0  0  0  0  0
   -7.2399   10.1003  -29.0380 O   0  0  0  0  0  0  0  0  0  0  0  0
   -2.2190   13.8934  -30.8991 S   0  0  0  0  0  0  0  0  0  0  0  0
   -7.0147    9.0676  -31.9475 Br  0  0  0  0  0  0  0  0  0  0  0  0
   -5.8589   12.2767  -27.3260 Br  0  0  0  0  0  0  0  0  0  0  0  0
  1  3  2  0
  1  5  1  0
  2  3  1  0
  2  6  2  0
  3  7  1  0
  4  5  2  0
  4  6  1  0
  4  8  1  0
  5 10  1  0
  6 11  1  0
  7  9  1  0
M  END
>  <id>  (147) 
EN300-1288713

>  <smiles>  (147) 
OC=1C(Br)=CC(CS)=CC1Br

>  <MDLNUMBER>  (147) 
MFCD33497329

>  <IUPAC Name>  (147) 
2,6-dibromo-4-(sulfanylmethyl)phenol

>  <CAS>  (147) 
2172291-20-0

>  <URL>  (147) 
https://www.enaminestore.com/catalog/EN300-1288713

>  <ROCS_ShapeQuery>  (147) 
_x1604L0AP1_x0771L0AP1

>  <ROCS_TanimotoCombo>  (147) 
0.900 

>  <ROCS_ShapeTanimoto>  (147) 
0.487 

>  <ROCS_ColorTanimoto>  (147) 
0.413 

>  <ROCS_RefTversky>  (147) 
0.425 

>  <ROCS_RefColorTversky>  (147) 
0.430 

>  <ROCS_RefTverskyCombo>  (147) 
0.855 

>  <ROCS_FitTversky>  (147) 
1.427 

>  <ROCS_FitColorTversky>  (147) 
0.915 

>  <ROCS_FitTverskyCombo>  (147) 
2.342 

>  <ROCS_ColorScore>  (147) 
-4.882

>  <ROCS_Overlap>  (147) 
718.367

>  <ROCS_Rank>  (147) 
268                 

$$$$
untitled-dbase-1456_0
     RDKit          3D

 10 10  0  0  0  0  0  0  0  0999 V2000
   -4.3534   12.1531  -31.2130 C   0  0  0  0  0  0  0  0  0  0  0  0
   -5.0800   11.1307  -31.8231 C   0  0  0  0  0  0  0  0  0  0  0  0
   -5.5678   11.7888  -29.1563 C   0  0  0  0  0  0  0  0  0  0  0  0
   -4.5973   12.4822  -29.8795 C   0  0  0  0  0  0  0  0  0  0  0  0
   -6.2944   10.7664  -29.7665 C   0  0  0  0  0  0  0  0  0  0  0  0
   -6.0505   10.4374  -31.0999 C   0  0  0  0  0  0  0  0  0  0  0  0
   -3.8388   13.5475  -29.2433 C   0  0  0  0  0  0  0  0  0  0  0  0
   -2.9671   14.1963  -29.8285 O   0  0  0  0  0  0  0  0  0  0  0  0
   -7.2357   10.1078  -29.0325 O   0  0  0  0  0  0  0  0  0  0  0  0
   -7.0186    9.0549  -31.9623 Br  0  0  0  0  0  0  0  0  0  0  0  0
  1  2  2  0
  1  4  1  0
  2  6  1  0
  3  4  2  0
  3  5  1  0
  4  7  1  0
  5  6  2  0
  5  9  1  0
  6 10  1  0
  7  8  2  0
M  END
>  <id>  (148) 
EN300-189203

>  <smiles>  (148) 
OC=1C=C(C=O)C=CC1Br

>  <MDLNUMBER>  (148) 
MFCD11100992

>  <IUPAC Name>  (148) 
4-bromo-3-hydroxybenzaldehyde

>  <CAS>  (148) 
20035-32-9

>  <Purity>  (148) 
95

>  <URL>  (148) 
https://www.enaminestore.com/catalog/EN300-189203

>  <MP>  (148) 
132-134

>  <ROCS_ShapeQuery>  (148) 
_x1604L0AP1_x0771L0AP1

>  <ROCS_TanimotoCombo>  (148) 
0.900 

>  <ROCS_ShapeTanimoto>  (148) 
0.488 

>  <ROCS_ColorTanimoto>  (148) 
0.413 

>  <ROCS_RefTversky>  (148) 
0.422 

>  <ROCS_RefColorTversky>  (148) 
0.429 

>  <ROCS_RefTverskyCombo>  (148) 
0.852 

>  <ROCS_FitTversky>  (148) 
1.463 

>  <ROCS_FitColorTversky>  (148) 
0.914 

>  <ROCS_FitTverskyCombo>  (148) 
2.378 

>  <ROCS_ColorScore>  (148) 
-4.878

>  <ROCS_Overlap>  (148) 
713.237

>  <ROCS_Rank>  (148) 
269                 

$$$$
untitled-dbase-2162_187
     RDKit          3D

 14 14  0  0  1  0  0  0  0  0999 V2000
   -4.5878   12.4668  -29.8269 C   0  0  0  0  0  0  0  0  0  0  0  0
   -5.5713   11.7733  -29.1216 C   0  0  0  0  0  0  0  0  0  0  0  0
   -5.0540   11.1340  -31.7873 C   0  0  0  0  0  0  0  0  0  0  0  0
   -4.3292   12.1471  -31.1598 C   0  0  0  0  0  0  0  0  0  0  0  0
   -6.2961   10.7602  -29.7491 C   0  0  0  0  0  0  0  0  0  0  0  0
   -6.0375   10.4405  -31.0820 C   0  0  0  0  0  0  0  0  0  0  0  0
   -3.8391   13.5645  -33.1947 C   0  0  0  0  0  0  0  0  0  0  0  0
   -3.2544   12.9052  -31.9292 C   0  0  1  0  0  0  0  0  0  0  0  0
   -2.5288   13.9009  -31.0183 C   0  0  0  0  0  0  0  0  0  0  0  0
   -4.8992   14.5178  -32.8782 N   0  0  0  0  0  0  0  0  0  0  0  0
   -7.2493   10.1006  -29.0317 O   0  0  0  0  0  0  0  0  0  0  0  0
   -3.3984   14.7886  -30.4774 F   0  0  0  0  0  0  0  0  0  0  0  0
   -1.9410   13.2444  -29.9855 F   0  0  0  0  0  0  0  0  0  0  0  0
   -7.0018    9.0689  -31.9660 Br  0  0  0  0  0  0  0  0  0  0  0  0
  1  2  2  0
  1  4  1  0
  2  5  1  0
  3  4  2  0
  3  6  1  0
  4  8  1  0
  5  6  2  0
  5 11  1  0
  6 14  1  0
  8  7  1  6
  7 10  1  0
  8  9  1  0
  9 12  1  0
  9 13  1  0
M  END
>  <id>  (149) 
EN300-1949517

>  <smiles>  (149) 
NCC(C(F)F)C=1C=CC(O)=C(Br)C1

>  <IUPAC Name>  (149) 
4-(3-amino-1,1-difluoropropan-2-yl)-2-bromophenol

>  <CAS>  (149) 
2228661-15-0

>  <URL>  (149) 
https://www.enaminestore.com/catalog/EN300-1949517

>  <ROCS_ShapeQuery>  (149) 
_x1604L0AP1_x0771L0AP1

>  <ROCS_TanimotoCombo>  (149) 
0.900 

>  <ROCS_ShapeTanimoto>  (149) 
0.520 

>  <ROCS_ColorTanimoto>  (149) 
0.380 

>  <ROCS_RefTversky>  (149) 
0.472 

>  <ROCS_RefColorTversky>  (149) 
0.427 

>  <ROCS_RefTverskyCombo>  (149) 
0.900 

>  <ROCS_FitTversky>  (149) 
1.238 

>  <ROCS_FitColorTversky>  (149) 
0.776 

>  <ROCS_FitTverskyCombo>  (149) 
2.014 

>  <ROCS_ColorScore>  (149) 
-4.878

>  <ROCS_Overlap>  (149) 
801.684

>  <ROCS_Rank>  (149) 
270                 

$$$$
untitled-dbase-1532_17
     RDKit          3D

 13 13  0  0  0  0  0  0  0  0999 V2000
   -4.6077   12.4891  -29.8871 C   0  0  0  0  0  0  0  0  0  0  0  0
   -4.3702   12.1645  -31.2227 C   0  0  0  0  0  0  0  0  0  0  0  0
   -5.5707   11.7894  -29.1600 C   0  0  0  0  0  0  0  0  0  0  0  0
   -5.0958   11.1404  -31.8312 C   0  0  0  0  0  0  0  0  0  0  0  0
   -6.2963   10.7653  -29.7685 C   0  0  0  0  0  0  0  0  0  0  0  0
   -6.0589   10.4407  -31.1041 C   0  0  0  0  0  0  0  0  0  0  0  0
   -5.5036    9.5560  -35.8920 C   0  0  0  0  0  0  0  0  0  0  0  0
   -4.8014   10.8292  -33.2764 C   0  0  0  0  0  0  0  0  0  0  0  0
   -5.5857   11.0460  -35.6632 C   0  0  0  0  0  0  0  0  0  0  0  0
   -5.8717   11.4013  -34.2077 C   0  0  0  0  0  0  0  0  0  0  0  0
   -6.0924    8.7124  -35.2245 O   0  0  0  0  0  0  0  0  0  0  0  0
   -7.2298   10.1041  -29.0266 O   0  0  0  0  0  0  0  0  0  0  0  0
   -7.0547    9.0414  -31.9234 Br  0  0  0  0  0  0  0  0  0  0  0  0
  1  2  2  0
  1  3  1  0
  2  4  1  0
  3  5  2  0
  4  6  2  0
  4  8  1  0
  5  6  1  0
  5 12  1  0
  6 13  1  0
  7  9  1  0
  7 11  2  0
  8 10  1  0
  9 10  1  0
M  END
>  <id>  (150) 
EN300-1904606

>  <smiles>  (150) 
OC=1C=CC=C(CCCC=O)C1Br

>  <IUPAC Name>  (150) 
4-(2-bromo-3-hydroxyphenyl)butanal

>  <CAS>  (150) 
2229468-19-1

>  <URL>  (150) 
https://www.enaminestore.com/catalog/EN300-1904606

>  <ROCS_ShapeQuery>  (150) 
_x1604L0AP1_x0771L0AP1

>  <ROCS_TanimotoCombo>  (150) 
0.900 

>  <ROCS_ShapeTanimoto>  (150) 
0.487 

>  <ROCS_ColorTanimoto>  (150) 
0.413 

>  <ROCS_RefTversky>  (150) 
0.442 

>  <ROCS_RefColorTversky>  (150) 
0.430 

>  <ROCS_RefTverskyCombo>  (150) 
0.872 

>  <ROCS_FitTversky>  (150) 
1.259 

>  <ROCS_FitColorTversky>  (150) 
0.915 

>  <ROCS_FitTverskyCombo>  (150) 
2.174 

>  <ROCS_ColorScore>  (150) 
-4.883

>  <ROCS_Overlap>  (150) 
749.662

>  <ROCS_Rank>  (150) 
271                 

$$$$
untitled-dbase-1425_8
     RDKit          3D

 11 11  0  0  0  0  0  0  0  0999 V2000
   -4.5777   12.4578  -29.8251 C   0  0  0  0  0  0  0  0  0  0  0  0
   -5.5635   11.7673  -29.1202 C   0  0  0  0  0  0  0  0  0  0  0  0
   -5.0501   11.1296  -31.7872 C   0  0  0  0  0  0  0  0  0  0  0  0
   -4.3210   12.1390  -31.1586 C   0  0  0  0  0  0  0  0  0  0  0  0
   -6.2927   10.7579  -29.7488 C   0  0  0  0  0  0  0  0  0  0  0  0
   -6.0360   10.4390  -31.0823 C   0  0  0  0  0  0  0  0  0  0  0  0
   -3.0679   14.3052  -31.4509 C   0  0  0  0  0  0  0  0  0  0  0  0
   -3.2666   12.8778  -31.9111 C   0  0  0  0  0  0  0  0  0  0  0  0
   -2.0315   14.7404  -30.9602 O   0  0  0  0  0  0  0  0  0  0  0  0
   -7.2481   10.1010  -29.0318 O   0  0  0  0  0  0  0  0  0  0  0  0
   -7.0061    9.0724  -31.9676 Br  0  0  0  0  0  0  0  0  0  0  0  0
  1  2  2  0
  1  4  1  0
  2  5  1  0
  3  4  2  0
  3  6  1  0
  4  8  1  0
  5  6  2  0
  5 10  1  0
  6 11  1  0
  7  8  1  0
  7  9  2  0
M  END
>  <id>  (151) 
EN300-1907260

>  <smiles>  (151) 
OC=1C=CC(CC=O)=CC1Br

>  <MDLNUMBER>  (151) 
MFCD33418260

>  <IUPAC Name>  (151) 
2-(3-bromo-4-hydroxyphenyl)acetaldehyde

>  <CAS>  (151) 
1435263-42-5

>  <URL>  (151) 
https://www.enaminestore.com/catalog/EN300-1907260

>  <ROCS_ShapeQuery>  (151) 
_x1604L0AP1_x0771L0AP1

>  <ROCS_TanimotoCombo>  (151) 
0.899 

>  <ROCS_ShapeTanimoto>  (151) 
0.487 

>  <ROCS_ColorTanimoto>  (151) 
0.413 

>  <ROCS_RefTversky>  (151) 
0.429 

>  <ROCS_RefColorTversky>  (151) 
0.429 

>  <ROCS_RefTverskyCombo>  (151) 
0.858 

>  <ROCS_FitTversky>  (151) 
1.385 

>  <ROCS_FitColorTversky>  (151) 
0.914 

>  <ROCS_FitTverskyCombo>  (151) 
2.299 

>  <ROCS_ColorScore>  (151) 
-4.878

>  <ROCS_Overlap>  (151) 
724.792

>  <ROCS_Rank>  (151) 
276                 

$$$$
untitled-dbase-1712_74
     RDKit          3D

 13 13  0  0  1  0  0  0  0  0999 V2000
   -4.7580   12.6548  -30.2485 C   0  0  0  0  0  0  0  0  0  0  0  0
   -5.0738   10.9617  -31.9428 C   0  0  0  0  0  0  0  0  0  0  0  0
   -5.7073   12.0258  -29.4430 C   0  0  0  0  0  0  0  0  0  0  0  0
   -6.3398   10.8648  -29.8874 C   0  0  0  0  0  0  0  0  0  0  0  0
   -4.4413   12.1228  -31.4984 C   0  0  0  0  0  0  0  0  0  0  0  0
   -6.0231   10.3327  -31.1373 C   0  0  0  0  0  0  0  0  0  0  0  0
   -5.7688   11.6601  -26.9347 C   0  0  0  0  0  0  0  0  0  0  0  0
   -6.0316   12.6122  -28.1082 C   0  0  2  0  0  0  0  0  0  0  0  0
   -6.0773   12.2617  -25.6643 N   0  0  0  0  0  0  0  0  0  0  0  0
   -7.2666   10.2611  -29.0878 O   0  0  0  0  0  0  0  0  0  0  0  0
   -7.3321   13.0399  -27.9980 F   0  0  0  0  0  0  0  0  0  0  0  0
   -3.2699   12.8994  -32.4921 Cl  0  0  0  0  0  0  0  0  0  0  0  0
   -6.8613    8.7566  -31.7761 Br  0  0  0  0  0  0  0  0  0  0  0  0
  1  3  2  0
  1  5  1  0
  2  5  2  0
  2  6  1  0
  3  4  1  0
  3  8  1  0
  4  6  2  0
  4 10  1  0
  5 12  1  0
  6 13  1  0
  7  8  1  0
  7  9  1  0
  8 11  1  6
M  END
>  <id>  (152) 
EN300-1922885

>  <smiles>  (152) 
NCC(F)C=1C=C(Cl)C=C(Br)C1O

>  <IUPAC Name>  (152) 
2-(2-amino-1-fluoroethyl)-6-bromo-4-chlorophenol

>  <CAS>  (152) 
2228288-19-3

>  <URL>  (152) 
https://www.enaminestore.com/catalog/EN300-1922885

>  <ROCS_ShapeQuery>  (152) 
_x1604L0AP1_x0771L0AP1

>  <ROCS_TanimotoCombo>  (152) 
0.899 

>  <ROCS_ShapeTanimoto>  (152) 
0.446 

>  <ROCS_ColorTanimoto>  (152) 
0.453 

>  <ROCS_RefTversky>  (152) 
0.418 

>  <ROCS_RefColorTversky>  (152) 
0.483 

>  <ROCS_RefTverskyCombo>  (152) 
0.901 

>  <ROCS_FitTversky>  (152) 
1.181 

>  <ROCS_FitColorTversky>  (152) 
0.878 

>  <ROCS_FitTverskyCombo>  (152) 
2.059 

>  <ROCS_ColorScore>  (152) 
-5.518

>  <ROCS_Overlap>  (152) 
707.706

>  <ROCS_Rank>  (152) 
278                 

$$$$
untitled-dbase-1534_65
     RDKit          3D

 12 12  0  0  1  0  0  0  0  0999 V2000
   -4.5604   12.4429  -29.8056 C   0  0  0  0  0  0  0  0  0  0  0  0
   -5.5552   11.7577  -29.1081 C   0  0  0  0  0  0  0  0  0  0  0  0
   -5.0290   11.1208  -31.7728 C   0  0  0  0  0  0  0  0  0  0  0  0
   -4.2973   12.1245  -31.1380 C   0  0  0  0  0  0  0  0  0  0  0  0
   -6.2869   10.7541  -29.7429 C   0  0  0  0  0  0  0  0  0  0  0  0
   -6.0238   10.4356  -31.0752 C   0  0  0  0  0  0  0  0  0  0  0  0
   -2.9830   14.2695  -31.3578 C   0  0  0  0  0  0  0  0  0  0  0  0
   -3.4971   12.9388  -33.3962 C   0  0  0  0  0  0  0  0  0  0  0  0
   -3.2334   12.8575  -31.8826 C   0  0  2  0  0  0  0  0  0  0  0  0
   -3.5860   14.7688  -30.4128 O   0  0  0  0  0  0  0  0  0  0  0  0
   -7.2511   10.1023  -29.0330 O   0  0  0  0  0  0  0  0  0  0  0  0
   -6.9972    9.0767  -31.9689 Br  0  0  0  0  0  0  0  0  0  0  0  0
  1  2  2  0
  1  4  1  0
  2  5  1  0
  3  4  2  0
  3  6  1  0
  4  9  1  0
  5  6  2  0
  5 11  1  0
  6 12  1  0
  7  9  1  0
  7 10  2  0
  9  8  1  6
M  END
>  <id>  (153) 
EN300-1907333

>  <smiles>  (153) 
CC(C=O)C=1C=CC(O)=C(Br)C1

>  <IUPAC Name>  (153) 
2-(3-bromo-4-hydroxyphenyl)propanal

>  <CAS>  (153) 
1785179-52-3

>  <URL>  (153) 
https://www.enaminestore.com/catalog/EN300-1907333

>  <ROCS_ShapeQuery>  (153) 
_x1604L0AP1_x0771L0AP1

>  <ROCS_TanimotoCombo>  (153) 
0.899 

>  <ROCS_ShapeTanimoto>  (153) 
0.518 

>  <ROCS_ColorTanimoto>  (153) 
0.380 

>  <ROCS_RefTversky>  (153) 
0.455 

>  <ROCS_RefColorTversky>  (153) 
0.427 

>  <ROCS_RefTverskyCombo>  (153) 
0.882 

>  <ROCS_FitTversky>  (153) 
1.368 

>  <ROCS_FitColorTversky>  (153) 
0.776 

>  <ROCS_FitTverskyCombo>  (153) 
2.143 

>  <ROCS_ColorScore>  (153) 
-4.877

>  <ROCS_Overlap>  (153) 
770.101

>  <ROCS_Rank>  (153) 
282                 

$$$$
untitled-dbase-341_29
     RDKit          3D

 14 14  0  0  1  0  0  0  0  0999 V2000
   -4.3594   12.1864  -31.1761 C   0  0  0  0  0  0  0  0  0  0  0  0
   -4.6115   12.5014  -29.8409 C   0  0  0  0  0  0  0  0  0  0  0  0
   -5.0757   11.1641  -31.7988 C   0  0  0  0  0  0  0  0  0  0  0  0
   -5.5797   11.7940  -29.1283 C   0  0  0  0  0  0  0  0  0  0  0  0
   -6.2959   10.7717  -29.7509 C   0  0  0  0  0  0  0  0  0  0  0  0
   -6.0439   10.4568  -31.0861 C   0  0  0  0  0  0  0  0  0  0  0  0
   -3.7117   11.8013  -33.8193 C   0  0  0  0  0  0  0  0  0  0  0  0
   -5.0376   13.1714  -27.2668 C   0  0  0  0  0  0  0  0  0  0  0  0
   -4.7684   10.8670  -33.2314 C   0  0  2  0  0  0  0  0  0  0  0  0
   -5.7661   10.2686  -35.2372 N   0  0  0  0  0  0  0  0  0  0  0  0
   -7.2382   10.0944  -29.0327 O   0  0  0  0  0  0  0  0  0  0  0  0
   -5.8144   12.1135  -27.8247 O   0  0  0  0  0  0  0  0  0  0  0  0
   -5.9672   11.0026  -34.0011 O   0  0  0  0  0  0  0  0  0  0  0  0
   -7.0323    9.0665  -31.9306 Br  0  0  0  0  0  0  0  0  0  0  0  0
  1  2  2  0
  1  3  1  0
  2  4  1  0
  3  6  2  0
  3  9  1  0
  4  5  2  0
  4 12  1  0
  5  6  1  0
  5 11  1  0
  6 14  1  0
  9  7  1  6
  8 12  1  0
  9 13  1  0
 10 13  1  0
M  END
>  <id>  (154) 
EN300-1935613

>  <smiles>  (154) 
COC=1C=CC(C(C)ON)=C(Br)C1O

>  <IUPAC Name>  (154) 
3-[1-(aminooxy)ethyl]-2-bromo-6-methoxyphenol

>  <CAS>  (154) 
2229278-28-6

>  <URL>  (154) 
https://www.enaminestore.com/catalog/EN300-1935613

>  <ROCS_ShapeQuery>  (154) 
_x1604L0AP1_x0771L0AP1

>  <ROCS_TanimotoCombo>  (154) 
0.898 

>  <ROCS_ShapeTanimoto>  (154) 
0.483 

>  <ROCS_ColorTanimoto>  (154) 
0.415 

>  <ROCS_RefTversky>  (154) 
0.451 

>  <ROCS_RefColorTversky>  (154) 
0.431 

>  <ROCS_RefTverskyCombo>  (154) 
0.882 

>  <ROCS_FitTversky>  (154) 
1.175 

>  <ROCS_FitColorTversky>  (154) 
0.919 

>  <ROCS_FitTverskyCombo>  (154) 
2.094 

>  <ROCS_ColorScore>  (154) 
-4.901

>  <ROCS_Overlap>  (154) 
764.915

>  <ROCS_Rank>  (154) 
284                 

$$$$
untitled-dbase-50_9
     RDKit          3D

 10 10  0  0  0  0  0  0  0  0999 V2000
   -4.3542   12.1574  -31.2063 C   0  0  0  0  0  0  0  0  0  0  0  0
   -5.0782   11.1344  -31.8184 C   0  0  0  0  0  0  0  0  0  0  0  0
   -5.5726   11.7910  -29.1525 C   0  0  0  0  0  0  0  0  0  0  0  0
   -6.2967   10.7679  -29.7646 C   0  0  0  0  0  0  0  0  0  0  0  0
   -4.6013   12.4857  -29.8733 C   0  0  0  0  0  0  0  0  0  0  0  0
   -6.0495   10.4396  -31.0976 C   0  0  0  0  0  0  0  0  0  0  0  0
   -2.6178   14.2798  -30.4733 C   0  0  0  0  0  0  0  0  0  0  0  0
   -7.2373   10.1063  -29.0325 O   0  0  0  0  0  0  0  0  0  0  0  0
   -3.6735   13.7907  -29.0918 S   0  0  0  0  0  0  0  0  0  0  0  0
   -7.0135    9.0558  -31.9621 Br  0  0  0  0  0  0  0  0  0  0  0  0
  1  2  2  0
  1  5  1  0
  2  6  1  0
  3  4  1  0
  3  5  2  0
  4  6  2  0
  4  8  1  0
  5  9  1  0
  6 10  1  0
  7  9  1  0
M  END
>  <id>  (155) 
EN300-199131

>  <smiles>  (155) 
CSC=1C=CC(Br)=C(O)C1

>  <MDLNUMBER>  (155) 
MFCD16999029

>  <IUPAC Name>  (155) 
2-bromo-5-(methylsulfanyl)phenol

>  <CAS>  (155) 
1243397-23-0

>  <Purity>  (155) 
95

>  <URL>  (155) 
https://www.enaminestore.com/catalog/EN300-199131

>  <ROCS_ShapeQuery>  (155) 
_x1604L0AP1_x0771L0AP1

>  <ROCS_TanimotoCombo>  (155) 
0.898 

>  <ROCS_ShapeTanimoto>  (155) 
0.485 

>  <ROCS_ColorTanimoto>  (155) 
0.413 

>  <ROCS_RefTversky>  (155) 
0.417 

>  <ROCS_RefColorTversky>  (155) 
0.429 

>  <ROCS_RefTverskyCombo>  (155) 
0.846 

>  <ROCS_FitTversky>  (155) 
1.511 

>  <ROCS_FitColorTversky>  (155) 
0.914 

>  <ROCS_FitTverskyCombo>  (155) 
2.425 

>  <ROCS_ColorScore>  (155) 
-4.878

>  <ROCS_Overlap>  (155) 
703.444

>  <ROCS_Rank>  (155) 
286                 

$$$$
untitled-dbase-1400_0
     RDKit          3D

  9  9  0  0  0  0  0  0  0  0999 V2000
   -4.3458   12.1507  -31.2038 C   0  0  0  0  0  0  0  0  0  0  0  0
   -5.0736   11.1313  -31.8175 C   0  0  0  0  0  0  0  0  0  0  0  0
   -5.5649   11.7851  -29.1503 C   0  0  0  0  0  0  0  0  0  0  0  0
   -6.2928   10.7656  -29.7640 C   0  0  0  0  0  0  0  0  0  0  0  0
   -4.5914   12.4776  -29.8702 C   0  0  0  0  0  0  0  0  0  0  0  0
   -6.0471   10.4388  -31.0976 C   0  0  0  0  0  0  0  0  0  0  0  0
   -7.2371   10.1082  -29.0329 O   0  0  0  0  0  0  0  0  0  0  0  0
   -3.8926   13.4562  -29.2800 F   0  0  0  0  0  0  0  0  0  0  0  0
   -7.0151    9.0585  -31.9637 Br  0  0  0  0  0  0  0  0  0  0  0  0
  1  2  2  0
  1  5  1  0
  2  6  1  0
  3  4  1  0
  3  5  2  0
  4  6  2  0
  4  7  1  0
  5  8  1  0
  6  9  1  0
M  END
>  <id>  (156) 
EN300-112643

>  <smiles>  (156) 
OC=1C=C(F)C=CC1Br

>  <MDLNUMBER>  (156) 
MFCD00040939

>  <IUPAC Name>  (156) 
2-bromo-5-fluorophenol

>  <CAS>  (156) 
147460-41-1

>  <Purity>  (156) 
95

>  <URL>  (156) 
https://www.enaminestore.com/catalog/EN300-112643

>  <MP>  (156) 
42-44

>  <ROCS_ShapeQuery>  (156) 
_x1604L0AP1_x0771L0AP1

>  <ROCS_TanimotoCombo>  (156) 
0.898 

>  <ROCS_ShapeTanimoto>  (156) 
0.447 

>  <ROCS_ColorTanimoto>  (156) 
0.451 

>  <ROCS_RefTversky>  (156) 
0.391 

>  <ROCS_RefColorTversky>  (156) 
0.431 

>  <ROCS_RefTverskyCombo>  (156) 
0.822 

>  <ROCS_FitTversky>  (156) 
1.475 

>  <ROCS_FitColorTversky>  (156) 
1.113 

>  <ROCS_FitTverskyCombo>  (156) 
2.588 

>  <ROCS_ColorScore>  (156) 
-4.878

>  <ROCS_Overlap>  (156) 
659.058

>  <ROCS_Rank>  (156) 
287                 

$$$$
untitled-dbase-1050_2685
     RDKit          3D

 16 16  0  0  1  0  0  0  0  0999 V2000
   -4.5979   12.4839  -29.8344 C   0  0  0  0  0  0  0  0  0  0  0  0
   -5.0697   11.1480  -31.7912 C   0  0  0  0  0  0  0  0  0  0  0  0
   -4.3465   12.1654  -31.1688 C   0  0  0  0  0  0  0  0  0  0  0  0
   -5.5726   11.7850  -29.1222 C   0  0  0  0  0  0  0  0  0  0  0  0
   -6.2959   10.7675  -29.7446 C   0  0  0  0  0  0  0  0  0  0  0  0
   -6.0444   10.4490  -31.0791 C   0  0  0  0  0  0  0  0  0  0  0  0
   -5.0229   13.1605  -27.2616 C   0  0  0  0  0  0  0  0  0  0  0  0
   -1.9109   12.7936  -31.2921 C   0  0  0  0  0  0  0  0  0  0  0  0
   -3.3050   12.9136  -31.9301 C   0  0  2  0  0  0  0  0  0  0  0  0
   -3.8569   15.5149  -29.9755 N   0  0  0  0  0  0  0  0  0  0  0  0
   -3.6253   14.3553  -32.0381 N   0  0  0  0  0  0  0  0  0  0  0  0
   -3.7437   14.9490  -30.9594 N   0  0  0  0  0  0  0  0  0  0  0  0
   -7.2458   10.0960  -29.0316 O   0  0  0  0  0  0  0  0  0  0  0  0
   -1.9368   13.3214  -29.9702 O   0  0  0  0  0  0  0  0  0  0  0  0
   -5.8072   12.1080  -27.8196 O   0  0  0  0  0  0  0  0  0  0  0  0
   -7.0069    9.0729  -31.9589 Br  0  0  0  0  0  0  0  0  0  0  0  0
  1  3  2  0
  1  4  1  0
  2  3  1  0
  2  6  2  0
  3  9  1  0
  4  5  2  0
  4 15  1  0
  5  6  1  0
  5 13  1  0
  6 16  1  0
  7 15  1  0
  9  8  1  1
  8 14  1  0
  9 11  1  0
 10 12  2  0
 11 12  2  0
M  CHG  2  10  -1  12   1
M  END
>  <id>  (157) 
EN300-1927042

>  <smiles>  (157) 
COC=1C=C(C=C(Br)C1O)C(CO)N=[N+]=[N-]

>  <IUPAC Name>  (157) 
4-(1-azido-2-hydroxyethyl)-2-bromo-6-methoxyphenol

>  <CAS>  (157) 
2228267-57-8

>  <URL>  (157) 
https://www.enaminestore.com/catalog/EN300-1927042

>  <ROCS_ShapeQuery>  (157) 
_x1604L0AP1_x0771L0AP1

>  <ROCS_TanimotoCombo>  (157) 
0.898 

>  <ROCS_ShapeTanimoto>  (157) 
0.543 

>  <ROCS_ColorTanimoto>  (157) 
0.355 

>  <ROCS_RefTversky>  (157) 
0.504 

>  <ROCS_RefColorTversky>  (157) 
0.427 

>  <ROCS_RefTverskyCombo>  (157) 
0.931 

>  <ROCS_FitTversky>  (157) 
1.165 

>  <ROCS_FitColorTversky>  (157) 
0.677 

>  <ROCS_FitTverskyCombo>  (157) 
1.842 

>  <ROCS_ColorScore>  (157) 
-4.898

>  <ROCS_Overlap>  (157) 
857.898

>  <ROCS_Rank>  (157) 
288                 

$$$$
untitled-dbase-2106_0
     RDKit          3D

  9  9  0  0  0  0  0  0  0  0999 V2000
   -4.5843   12.4703  -29.8480 C   0  0  0  0  0  0  0  0  0  0  0  0
   -5.5643   11.7790  -29.1356 C   0  0  0  0  0  0  0  0  0  0  0  0
   -5.0592   11.1305  -31.8016 C   0  0  0  0  0  0  0  0  0  0  0  0
   -4.3318   12.1461  -31.1810 C   0  0  0  0  0  0  0  0  0  0  0  0
   -6.2917   10.7635  -29.7562 C   0  0  0  0  0  0  0  0  0  0  0  0
   -6.0392   10.4392  -31.0892 C   0  0  0  0  0  0  0  0  0  0  0  0
   -3.2837   12.8857  -31.9414 C   0  0  0  0  0  0  0  0  0  0  0  0
   -7.2413   10.1060  -29.0321 O   0  0  0  0  0  0  0  0  0  0  0  0
   -7.0071    9.0641  -31.9638 Br  0  0  0  0  0  0  0  0  0  0  0  0
  1  2  2  0
  1  4  1  0
  2  5  1  0
  3  4  2  0
  3  6  1  0
  4  7  1  0
  5  6  2  0
  5  8  1  0
  6  9  1  0
M  END
>  <id>  (158) 
EN300-20031

>  <smiles>  (158) 
CC=1C=CC(O)=C(Br)C1

>  <MDLNUMBER>  (158) 
MFCD00002151

>  <IUPAC Name>  (158) 
2-bromo-4-methylphenol

>  <CAS>  (158) 
6627-55-0

>  <Purity>  (158) 
95

>  <URL>  (158) 
https://www.enaminestore.com/catalog/EN300-20031

>  <MP>  (158) 
54-57

>  <ROCS_ShapeQuery>  (158) 
_x1604L0AP1_x0771L0AP1

>  <ROCS_TanimotoCombo>  (158) 
0.898 

>  <ROCS_ShapeTanimoto>  (158) 
0.447 

>  <ROCS_ColorTanimoto>  (158) 
0.451 

>  <ROCS_RefTversky>  (158) 
0.390 

>  <ROCS_RefColorTversky>  (158) 
0.431 

>  <ROCS_RefTverskyCombo>  (158) 
0.821 

>  <ROCS_FitTversky>  (158) 
1.487 

>  <ROCS_FitColorTversky>  (158) 
1.113 

>  <ROCS_FitTverskyCombo>  (158) 
2.600 

>  <ROCS_ColorScore>  (158) 
-4.879

>  <ROCS_Overlap>  (158) 
657.341

>  <ROCS_Rank>  (158) 
289                 

$$$$
untitled-dbase-1319_4
     RDKit          3D

 13 13  0  0  0  0  0  0  0  0999 V2000
   -4.5758   12.4736  -29.8593 C   0  0  0  0  0  0  0  0  0  0  0  0
   -5.0619   11.1256  -31.8045 C   0  0  0  0  0  0  0  0  0  0  0  0
   -6.2859   10.7705  -29.7520 C   0  0  0  0  0  0  0  0  0  0  0  0
   -5.5539   11.7876  -29.1394 C   0  0  0  0  0  0  0  0  0  0  0  0
   -4.3298   12.1427  -31.1919 C   0  0  0  0  0  0  0  0  0  0  0  0
   -6.0399   10.4395  -31.0846 C   0  0  0  0  0  0  0  0  0  0  0  0
   -6.8563   11.3488  -26.9200 O   0  0  0  0  0  0  0  0  0  0  0  0
   -4.5792   12.4657  -26.7965 O   0  0  0  0  0  0  0  0  0  0  0  0
   -7.2400   10.1048  -29.0386 O   0  0  0  0  0  0  0  0  0  0  0  0
   -5.8407   12.2253  -27.4699 S   0  0  0  0  0  0  0  0  0  0  0  0
   -3.1219   12.9892  -32.0792 Cl  0  0  0  0  0  0  0  0  0  0  0  0
   -6.7114   14.0687  -27.6464 Cl  0  0  0  0  0  0  0  0  0  0  0  0
   -7.0135    9.0635  -31.9528 Br  0  0  0  0  0  0  0  0  0  0  0  0
  1  4  2  0
  1  5  1  0
  2  5  2  0
  2  6  1  0
  3  4  1  0
  3  6  2  0
  3  9  1  0
  4 10  1  0
  5 11  1  0
  6 13  1  0
  7 10  2  0
  8 10  2  0
 10 12  1  0
M  END
>  <id>  (159) 
EN300-6493321

>  <smiles>  (159) 
OC=1C(Br)=CC(Cl)=CC1S(=O)(=O)Cl

>  <IUPAC Name>  (159) 
3-bromo-5-chloro-2-hydroxybenzene-1-sulfonyl chloride

>  <CAS>  (159) 
895917-80-3

>  <URL>  (159) 
https://www.enaminestore.com/catalog/EN300-6493321

>  <ROCS_ShapeQuery>  (159) 
_x1604L0AP1_x0771L0AP1

>  <ROCS_TanimotoCombo>  (159) 
0.898 

>  <ROCS_ShapeTanimoto>  (159) 
0.446 

>  <ROCS_ColorTanimoto>  (159) 
0.451 

>  <ROCS_RefTversky>  (159) 
0.414 

>  <ROCS_RefColorTversky>  (159) 
0.431 

>  <ROCS_RefTverskyCombo>  (159) 
0.846 

>  <ROCS_FitTversky>  (159) 
1.209 

>  <ROCS_FitColorTversky>  (159) 
1.113 

>  <ROCS_FitTverskyCombo>  (159) 
2.322 

>  <ROCS_ColorScore>  (159) 
-4.881

>  <ROCS_Overlap>  (159) 
701.912

>  <ROCS_Rank>  (159) 
291                 

$$$$
untitled-dbase-83_0
     RDKit          3D

  9  9  0  0  0  0  0  0  0  0999 V2000
   -4.3434   12.1483  -31.2053 C   0  0  0  0  0  0  0  0  0  0  0  0
   -5.0703   11.1274  -31.8176 C   0  0  0  0  0  0  0  0  0  0  0  0
   -5.5655   11.7874  -29.1526 C   0  0  0  0  0  0  0  0  0  0  0  0
   -4.5909   12.4783  -29.8728 C   0  0  0  0  0  0  0  0  0  0  0  0
   -6.2924   10.7665  -29.7649 C   0  0  0  0  0  0  0  0  0  0  0  0
   -6.0448   10.4365  -31.0974 C   0  0  0  0  0  0  0  0  0  0  0  0
   -3.8133   13.5691  -29.2176 C   0  0  0  0  0  0  0  0  0  0  0  0
   -7.2356   10.1084  -29.0330 O   0  0  0  0  0  0  0  0  0  0  0  0
   -7.0130    9.0556  -31.9623 Br  0  0  0  0  0  0  0  0  0  0  0  0
  1  2  2  0
  1  4  1  0
  2  6  1  0
  3  4  2  0
  3  5  1  0
  4  7  1  0
  5  6  2  0
  5  8  1  0
  6  9  1  0
M  END
>  <id>  (160) 
EN300-132559

>  <smiles>  (160) 
CC=1C=CC(Br)=C(O)C1

>  <MDLNUMBER>  (160) 
MFCD11100989

>  <IUPAC Name>  (160) 
2-bromo-5-methylphenol

>  <CAS>  (160) 
14847-51-9

>  <Purity>  (160) 
95

>  <URL>  (160) 
https://www.enaminestore.com/catalog/EN300-132559

>  <MP>  (160) 
38-39

>  <ROCS_ShapeQuery>  (160) 
_x1604L0AP1_x0771L0AP1

>  <ROCS_TanimotoCombo>  (160) 
0.898 

>  <ROCS_ShapeTanimoto>  (160) 
0.447 

>  <ROCS_ColorTanimoto>  (160) 
0.451 

>  <ROCS_RefTversky>  (160) 
0.390 

>  <ROCS_RefColorTversky>  (160) 
0.431 

>  <ROCS_RefTverskyCombo>  (160) 
0.821 

>  <ROCS_FitTversky>  (160) 
1.487 

>  <ROCS_FitColorTversky>  (160) 
1.113 

>  <ROCS_FitTverskyCombo>  (160) 
2.599 

>  <ROCS_ColorScore>  (160) 
-4.879

>  <ROCS_Overlap>  (160) 
657.254

>  <ROCS_Rank>  (160) 
292                 

$$$$
untitled-dbase-569_199
     RDKit          3D

 14 14  0  0  0  0  0  0  0  0999 V2000
   -4.5801   12.4645  -29.7994 C   0  0  0  0  0  0  0  0  0  0  0  0
   -5.0439   11.1402  -31.7661 C   0  0  0  0  0  0  0  0  0  0  0  0
   -4.3183   12.1491  -31.1326 C   0  0  0  0  0  0  0  0  0  0  0  0
   -5.5675   11.7709  -29.0995 C   0  0  0  0  0  0  0  0  0  0  0  0
   -6.2931   10.7621  -29.7330 C   0  0  0  0  0  0  0  0  0  0  0  0
   -6.0313   10.4467  -31.0663 C   0  0  0  0  0  0  0  0  0  0  0  0
   -3.0151   12.5853  -33.1612 C   0  0  0  0  0  0  0  0  0  0  0  0
   -3.2893   12.8733  -31.8621 C   0  0  0  0  0  0  0  0  0  0  0  0
   -5.0248   13.1344  -27.2281 C   0  0  0  0  0  0  0  0  0  0  0  0
   -2.5416   14.0108  -31.1890 C   0  0  0  0  0  0  0  0  0  0  0  0
   -7.2556   10.0958  -29.0320 O   0  0  0  0  0  0  0  0  0  0  0  0
   -5.8122   12.0908  -27.7980 O   0  0  0  0  0  0  0  0  0  0  0  0
   -3.3981   15.5514  -31.4397 Cl  0  0  0  0  0  0  0  0  0  0  0  0
   -6.9970    9.0820  -31.9605 Br  0  0  0  0  0  0  0  0  0  0  0  0
  1  3  2  0
  1  4  1  0
  2  3  1  0
  2  6  2  0
  3  8  1  0
  4  5  2  0
  4 12  1  0
  5  6  1  0
  5 11  1  0
  6 14  1  0
  7  8  2  0
  8 10  1  0
  9 12  1  0
 10 13  1  0
M  END
>  <id>  (161) 
EN300-1925708

>  <smiles>  (161) 
COC=1C=C(C=C(Br)C1O)C(=C)CCl

>  <IUPAC Name>  (161) 
2-bromo-4-(3-chloroprop-1-en-2-yl)-6-methoxyphenol

>  <CAS>  (161) 
2228435-31-0

>  <URL>  (161) 
https://www.enaminestore.com/catalog/EN300-1925708

>  <ROCS_ShapeQuery>  (161) 
_x1604L0AP1_x0771L0AP1

>  <ROCS_TanimotoCombo>  (161) 
0.897 

>  <ROCS_ShapeTanimoto>  (161) 
0.515 

>  <ROCS_ColorTanimoto>  (161) 
0.383 

>  <ROCS_RefTversky>  (161) 
0.468 

>  <ROCS_RefColorTversky>  (161) 
0.429 

>  <ROCS_RefTverskyCombo>  (161) 
0.897 

>  <ROCS_FitTversky>  (161) 
1.239 

>  <ROCS_FitColorTversky>  (161) 
0.779 

>  <ROCS_FitTverskyCombo>  (161) 
2.019 

>  <ROCS_ColorScore>  (161) 
-4.898

>  <ROCS_Overlap>  (161) 
794.708

>  <ROCS_Rank>  (161) 
293                 

$$$$
untitled-dbase-25_0
     RDKit          3D

  9  9  0  0  0  0  0  0  0  0999 V2000
   -5.5666   11.7775  -29.1337 C   0  0  0  0  0  0  0  0  0  0  0  0
   -4.5858   12.4695  -29.8442 C   0  0  0  0  0  0  0  0  0  0  0  0
   -5.0561   11.1295  -31.7987 C   0  0  0  0  0  0  0  0  0  0  0  0
   -6.2921   10.7614  -29.7557 C   0  0  0  0  0  0  0  0  0  0  0  0
   -4.3306   12.1456  -31.1767 C   0  0  0  0  0  0  0  0  0  0  0  0
   -6.0369   10.4375  -31.0882 C   0  0  0  0  0  0  0  0  0  0  0  0
   -7.2436   10.1045  -29.0336 O   0  0  0  0  0  0  0  0  0  0  0  0
   -3.1203   13.0000  -32.0524 Cl  0  0  0  0  0  0  0  0  0  0  0  0
   -7.0033    9.0628  -31.9653 Br  0  0  0  0  0  0  0  0  0  0  0  0
  1  2  2  0
  1  4  1  0
  2  5  1  0
  3  5  2  0
  3  6  1  0
  4  6  2  0
  4  7  1  0
  5  8  1  0
  6  9  1  0
M  END
>  <id>  (162) 
EN300-21340

>  <smiles>  (162) 
OC=1C=CC(Cl)=CC1Br

>  <MDLNUMBER>  (162) 
MFCD00002319

>  <IUPAC Name>  (162) 
2-bromo-4-chlorophenol

>  <CAS>  (162) 
695-96-5

>  <Purity>  (162) 
95

>  <URL>  (162) 
https://www.enaminestore.com/catalog/EN300-21340

>  <MP>  (162) 
34-36

>  <ROCS_ShapeQuery>  (162) 
_x1604L0AP1_x0771L0AP1

>  <ROCS_TanimotoCombo>  (162) 
0.897 

>  <ROCS_ShapeTanimoto>  (162) 
0.447 

>  <ROCS_ColorTanimoto>  (162) 
0.451 

>  <ROCS_RefTversky>  (162) 
0.389 

>  <ROCS_RefColorTversky>  (162) 
0.431 

>  <ROCS_RefTverskyCombo>  (162) 
0.820 

>  <ROCS_FitTversky>  (162) 
1.503 

>  <ROCS_FitColorTversky>  (162) 
1.113 

>  <ROCS_FitTverskyCombo>  (162) 
2.615 

>  <ROCS_ColorScore>  (162) 
-4.879

>  <ROCS_Overlap>  (162) 
655.047

>  <ROCS_Rank>  (162) 
294                 

$$$$
untitled-dbase-70_0
     RDKit          3D

  9  9  0  0  0  0  0  0  0  0999 V2000
   -5.5628   11.7797  -29.1337 C   0  0  0  0  0  0  0  0  0  0  0  0
   -4.5834   12.4721  -29.8456 C   0  0  0  0  0  0  0  0  0  0  0  0
   -5.0567   11.1322  -31.7996 C   0  0  0  0  0  0  0  0  0  0  0  0
   -6.2892   10.7636  -29.7546 C   0  0  0  0  0  0  0  0  0  0  0  0
   -4.3303   12.1484  -31.1786 C   0  0  0  0  0  0  0  0  0  0  0  0
   -6.0361   10.4399  -31.0876 C   0  0  0  0  0  0  0  0  0  0  0  0
   -7.2392   10.1060  -29.0312 O   0  0  0  0  0  0  0  0  0  0  0  0
   -3.3897   12.8135  -31.8620 F   0  0  0  0  0  0  0  0  0  0  0  0
   -7.0035    9.0657  -31.9638 Br  0  0  0  0  0  0  0  0  0  0  0  0
  1  2  2  0
  1  4  1  0
  2  5  1  0
  3  5  2  0
  3  6  1  0
  4  6  2  0
  4  7  1  0
  5  8  1  0
  6  9  1  0
M  END
>  <id>  (163) 
EN300-21341

>  <smiles>  (163) 
OC=1C=CC(F)=CC1Br

>  <MDLNUMBER>  (163) 
MFCD00010614

>  <IUPAC Name>  (163) 
2-bromo-4-fluorophenol

>  <CAS>  (163) 
496-69-5

>  <Purity>  (163) 
95

>  <URL>  (163) 
https://www.enaminestore.com/catalog/EN300-21341

>  <MP>  (163) 
43-45

>  <ROCS_ShapeQuery>  (163) 
_x1604L0AP1_x0771L0AP1

>  <ROCS_TanimotoCombo>  (163) 
0.897 

>  <ROCS_ShapeTanimoto>  (163) 
0.446 

>  <ROCS_ColorTanimoto>  (163) 
0.451 

>  <ROCS_RefTversky>  (163) 
0.390 

>  <ROCS_RefColorTversky>  (163) 
0.431 

>  <ROCS_RefTverskyCombo>  (163) 
0.822 

>  <ROCS_FitTversky>  (163) 
1.474 

>  <ROCS_FitColorTversky>  (163) 
1.113 

>  <ROCS_FitTverskyCombo>  (163) 
2.586 

>  <ROCS_ColorScore>  (163) 
-4.879

>  <ROCS_Overlap>  (163) 
658.509

>  <ROCS_Rank>  (163) 
295                 

$$$$
untitled-dbase-1321_2
     RDKit          3D

 13 13  0  0  0  0  0  0  0  0999 V2000
   -4.5745   12.4720  -29.8568 C   0  0  0  0  0  0  0  0  0  0  0  0
   -5.0618   11.1268  -31.8036 C   0  0  0  0  0  0  0  0  0  0  0  0
   -6.2856   10.7697  -29.7514 C   0  0  0  0  0  0  0  0  0  0  0  0
   -5.5529   11.7855  -29.1376 C   0  0  0  0  0  0  0  0  0  0  0  0
   -4.3290   12.1426  -31.1898 C   0  0  0  0  0  0  0  0  0  0  0  0
   -6.0401   10.4403  -31.0844 C   0  0  0  0  0  0  0  0  0  0  0  0
   -5.8359   13.6678  -27.3833 O   0  0  0  0  0  0  0  0  0  0  0  0
   -6.9402   11.4131  -26.9841 O   0  0  0  0  0  0  0  0  0  0  0  0
   -7.2400   10.1037  -29.0386 O   0  0  0  0  0  0  0  0  0  0  0  0
   -4.5743   11.7497  -26.6322 F   0  0  0  0  0  0  0  0  0  0  0  0
   -5.8391   12.2213  -27.4675 S   0  0  0  0  0  0  0  0  0  0  0  0
   -3.1208   12.9896  -32.0763 Cl  0  0  0  0  0  0  0  0  0  0  0  0
   -7.0147    9.0660  -31.9542 Br  0  0  0  0  0  0  0  0  0  0  0  0
  1  4  2  0
  1  5  1  0
  2  5  2  0
  2  6  1  0
  3  4  1  0
  3  6  2  0
  3  9  1  0
  4 11  1  0
  5 12  1  0
  6 13  1  0
  7 11  2  0
  8 11  2  0
 10 11  1  0
M  END
>  <id>  (164) 
EN300-6493393

>  <smiles>  (164) 
OC=1C(Br)=CC(Cl)=CC1S(=O)(=O)F

>  <IUPAC Name>  (164) 
3-bromo-5-chloro-2-hydroxybenzene-1-sulfonyl fluoride

>  <CAS>  (164) 
2247105-40-2

>  <URL>  (164) 
https://www.enaminestore.com/catalog/EN300-6493393

>  <ROCS_ShapeQuery>  (164) 
_x1604L0AP1_x0771L0AP1

>  <ROCS_TanimotoCombo>  (164) 
0.897 

>  <ROCS_ShapeTanimoto>  (164) 
0.446 

>  <ROCS_ColorTanimoto>  (164) 
0.451 

>  <ROCS_RefTversky>  (164) 
0.416 

>  <ROCS_RefColorTversky>  (164) 
0.431 

>  <ROCS_RefTverskyCombo>  (164) 
0.848 

>  <ROCS_FitTversky>  (164) 
1.190 

>  <ROCS_FitColorTversky>  (164) 
1.113 

>  <ROCS_FitTverskyCombo>  (164) 
2.303 

>  <ROCS_ColorScore>  (164) 
-4.881

>  <ROCS_Overlap>  (164) 
705.489

>  <ROCS_Rank>  (164) 
296                 

$$$$
untitled-dbase-805_246
     RDKit          3D

 13 13  0  0  0  0  0  0  0  0999 V2000
   -4.5866   12.4714  -29.8181 C   0  0  0  0  0  0  0  0  0  0  0  0
   -5.0563   11.1410  -31.7793 C   0  0  0  0  0  0  0  0  0  0  0  0
   -4.3309   12.1539  -31.1520 C   0  0  0  0  0  0  0  0  0  0  0  0
   -5.5677   11.7759  -29.1113 C   0  0  0  0  0  0  0  0  0  0  0  0
   -6.2932   10.7630  -29.7386 C   0  0  0  0  0  0  0  0  0  0  0  0
   -6.0375   10.4455  -31.0726 C   0  0  0  0  0  0  0  0  0  0  0  0
   -6.7882   13.1018  -27.5594 C   0  0  0  0  0  0  0  0  0  0  0  0
   -3.2825   12.8983  -31.9075 C   0  0  0  0  0  0  0  0  0  0  0  0
   -2.4181   13.6583  -31.0406 N   0  0  0  0  0  0  0  0  0  0  0  0
   -7.2494   10.0949  -29.0309 O   0  0  0  0  0  0  0  0  0  0  0  0
   -3.0339   14.9694  -30.9042 O   0  0  0  0  0  0  0  0  0  0  0  0
   -5.8064   12.0979  -27.8092 O   0  0  0  0  0  0  0  0  0  0  0  0
   -7.0027    9.0756  -31.9588 Br  0  0  0  0  0  0  0  0  0  0  0  0
  1  3  2  0
  1  4  1  0
  2  3  1  0
  2  6  2  0
  3  8  1  0
  4  5  2  0
  4 12  1  0
  5  6  1  0
  5 10  1  0
  6 13  1  0
  7 12  1  0
  8  9  1  0
  9 11  1  0
M  END
>  <id>  (165) 
EN300-1912444

>  <smiles>  (165) 
COC=1C=C(CNO)C=C(Br)C1O

>  <MDLNUMBER>  (165) 
MFCD24284787

>  <IUPAC Name>  (165) 
2-bromo-4-[(hydroxyamino)methyl]-6-methoxyphenol

>  <CAS>  (165) 
1554105-74-6

>  <URL>  (165) 
https://www.enaminestore.com/catalog/EN300-1912444

>  <ROCS_ShapeQuery>  (165) 
_x1604L0AP1_x0771L0AP1

>  <ROCS_TanimotoCombo>  (165) 
0.897 

>  <ROCS_ShapeTanimoto>  (165) 
0.514 

>  <ROCS_ColorTanimoto>  (165) 
0.383 

>  <ROCS_RefTversky>  (165) 
0.461 

>  <ROCS_RefColorTversky>  (165) 
0.429 

>  <ROCS_RefTverskyCombo>  (165) 
0.890 

>  <ROCS_FitTversky>  (165) 
1.290 

>  <ROCS_FitColorTversky>  (165) 
0.779 

>  <ROCS_FitTverskyCombo>  (165) 
2.069 

>  <ROCS_ColorScore>  (165) 
-4.898

>  <ROCS_Overlap>  (165) 
781.582

>  <ROCS_Rank>  (165) 
298                 

$$$$
untitled-dbase-101_0
     RDKit          3D

  9  9  0  0  0  0  0  0  0  0999 V2000
   -4.3428   12.1474  -31.2059 C   0  0  0  0  0  0  0  0  0  0  0  0
   -5.0705   11.1271  -31.8183 C   0  0  0  0  0  0  0  0  0  0  0  0
   -5.5641   11.7861  -29.1528 C   0  0  0  0  0  0  0  0  0  0  0  0
   -6.2918   10.7658  -29.7653 C   0  0  0  0  0  0  0  0  0  0  0  0
   -4.5895   12.4768  -29.8731 C   0  0  0  0  0  0  0  0  0  0  0  0
   -6.0451   10.4364  -31.0981 C   0  0  0  0  0  0  0  0  0  0  0  0
   -7.2369   10.1094  -29.0343 O   0  0  0  0  0  0  0  0  0  0  0  0
   -3.6913   13.7353  -29.1182 Cl  0  0  0  0  0  0  0  0  0  0  0  0
   -7.0142    9.0563  -31.9630 Br  0  0  0  0  0  0  0  0  0  0  0  0
  1  2  2  0
  1  5  1  0
  2  6  1  0
  3  4  1  0
  3  5  2  0
  4  6  2  0
  4  7  1  0
  5  8  1  0
  6  9  1  0
M  END
>  <id>  (166) 
EN300-126714

>  <smiles>  (166) 
OC=1C=C(Cl)C=CC1Br

>  <MDLNUMBER>  (166) 
MFCD00142870

>  <IUPAC Name>  (166) 
2-bromo-5-chlorophenol

>  <CAS>  (166) 
13659-23-9

>  <Purity>  (166) 
95

>  <URL>  (166) 
https://www.enaminestore.com/catalog/EN300-126714

>  <MP>  (166) 
63-65

>  <ROCS_ShapeQuery>  (166) 
_x1604L0AP1_x0771L0AP1

>  <ROCS_TanimotoCombo>  (166) 
0.897 

>  <ROCS_ShapeTanimoto>  (166) 
0.446 

>  <ROCS_ColorTanimoto>  (166) 
0.451 

>  <ROCS_RefTversky>  (166) 
0.388 

>  <ROCS_RefColorTversky>  (166) 
0.431 

>  <ROCS_RefTverskyCombo>  (166) 
0.819 

>  <ROCS_FitTversky>  (166) 
1.501 

>  <ROCS_FitColorTversky>  (166) 
1.113 

>  <ROCS_FitTverskyCombo>  (166) 
2.614 

>  <ROCS_ColorScore>  (166) 
-4.879

>  <ROCS_Overlap>  (166) 
654.556

>  <ROCS_Rank>  (166) 
299                 

$$$$
untitled-dbase-1317_1
     RDKit          3D

 12 12  0  0  0  0  0  0  0  0999 V2000
   -4.6045   12.4926  -29.8368 C   0  0  0  0  0  0  0  0  0  0  0  0
   -5.5779   11.7846  -29.1320 C   0  0  0  0  0  0  0  0  0  0  0  0
   -4.3470   12.1831  -31.1724 C   0  0  0  0  0  0  0  0  0  0  0  0
   -6.2938   10.7670  -29.7626 C   0  0  0  0  0  0  0  0  0  0  0  0
   -5.0628   11.1655  -31.8030 C   0  0  0  0  0  0  0  0  0  0  0  0
   -6.0362   10.4574  -31.0981 C   0  0  0  0  0  0  0  0  0  0  0  0
   -3.6015   11.7027  -33.8984 O   0  0  0  0  0  0  0  0  0  0  0  0
   -4.6622    9.4034  -33.7092 O   0  0  0  0  0  0  0  0  0  0  0  0
   -7.2373   10.0983  -29.0400 O   0  0  0  0  0  0  0  0  0  0  0  0
   -4.6838   10.8341  -33.4826 S   0  0  0  0  0  0  0  0  0  0  0  0
   -6.3601   11.5046  -34.4439 Cl  0  0  0  0  0  0  0  0  0  0  0  0
   -7.0321    9.0635  -31.9312 Br  0  0  0  0  0  0  0  0  0  0  0  0
  1  2  2  0
  1  3  1  0
  2  4  1  0
  3  5  2  0
  4  6  2  0
  4  9  1  0
  5  6  1  0
  5 10  1  0
  6 12  1  0
  7 10  2  0
  8 10  2  0
 10 11  1  0
M  END
>  <id>  (167) 
EN300-6493319

>  <smiles>  (167) 
OC=1C=CC=C(C1Br)S(=O)(=O)Cl

>  <MDLNUMBER>  (167) 
MFCD18391414

>  <IUPAC Name>  (167) 
2-bromo-3-hydroxybenzene-1-sulfonyl chloride

>  <CAS>  (167) 
1261438-45-2

>  <URL>  (167) 
https://www.enaminestore.com/catalog/EN300-6493319

>  <ROCS_ShapeQuery>  (167) 
_x1604L0AP1_x0771L0AP1

>  <ROCS_TanimotoCombo>  (167) 
0.897 

>  <ROCS_ShapeTanimoto>  (167) 
0.445 

>  <ROCS_ColorTanimoto>  (167) 
0.452 

>  <ROCS_RefTversky>  (167) 
0.407 

>  <ROCS_RefColorTversky>  (167) 
0.432 

>  <ROCS_RefTverskyCombo>  (167) 
0.839 

>  <ROCS_FitTversky>  (167) 
1.263 

>  <ROCS_FitColorTversky>  (167) 
1.114 

>  <ROCS_FitTverskyCombo>  (167) 
2.377 

>  <ROCS_ColorScore>  (167) 
-4.884

>  <ROCS_Overlap>  (167) 
689.148

>  <ROCS_Rank>  (167) 
301                 

$$$$
untitled-dbase-577_225
     RDKit          3D

 14 14  0  0  0  0  0  0  0  0999 V2000
   -4.3962   12.1431  -30.2302 C   0  0  0  0  0  0  0  0  0  0  0  0
   -4.3242   11.6974  -31.5500 C   0  0  0  0  0  0  0  0  0  0  0  0
   -5.3718   11.6327  -29.3739 C   0  0  0  0  0  0  0  0  0  0  0  0
   -5.2278   10.7412  -32.0134 C   0  0  0  0  0  0  0  0  0  0  0  0
   -6.2755   10.6765  -29.8373 C   0  0  0  0  0  0  0  0  0  0  0  0
   -6.2035   10.2307  -31.1571 C   0  0  0  0  0  0  0  0  0  0  0  0
   -5.1088   10.2970  -33.4359 C   0  0  0  0  0  0  0  0  0  0  0  0
   -6.1295    6.6324  -34.6725 N   0  0  0  0  0  0  0  0  0  0  0  0
   -6.4699    8.8747  -35.8777 O   0  0  0  0  0  0  0  0  0  0  0  0
   -4.1374    8.0700  -35.3942 O   0  0  0  0  0  0  0  0  0  0  0  0
   -7.2156   10.2011  -28.9718 O   0  0  0  0  0  0  0  0  0  0  0  0
   -5.5498    8.9504  -33.5449 O   0  0  0  0  0  0  0  0  0  0  0  0
   -5.5280    8.2043  -34.9999 S   0  0  0  0  0  0  0  0  0  0  0  0
   -7.4415    8.9257  -31.7779 Br  0  0  0  0  0  0  0  0  0  0  0  0
  1  2  2  0
  1  3  1  0
  2  4  1  0
  3  5  2  0
  4  6  2  0
  4  7  1  0
  5  6  1  0
  5 11  1  0
  6 14  1  0
  7 12  1  0
  8 13  1  0
  9 13  2  0
 10 13  2  0
 12 13  1  0
M  END
>  <id>  (168) 
EN300-1991219

>  <smiles>  (168) 
NS(=O)(=O)OCC=1C=CC=C(O)C1Br

>  <IUPAC Name>  (168) 
(2-bromo-3-hydroxyphenyl)methyl sulfamate

>  <CAS>  (168) 
2228439-50-5

>  <URL>  (168) 
https://www.enaminestore.com/catalog/EN300-1991219

>  <ROCS_ShapeQuery>  (168) 
_x1604L0AP1_x0771L0AP1

>  <ROCS_TanimotoCombo>  (168) 
0.897 

>  <ROCS_ShapeTanimoto>  (168) 
0.487 

>  <ROCS_ColorTanimoto>  (168) 
0.410 

>  <ROCS_RefTversky>  (168) 
0.450 

>  <ROCS_RefColorTversky>  (168) 
0.474 

>  <ROCS_RefTverskyCombo>  (168) 
0.924 

>  <ROCS_FitTversky>  (168) 
1.204 

>  <ROCS_FitColorTversky>  (168) 
0.751 

>  <ROCS_FitTverskyCombo>  (168) 
1.956 

>  <ROCS_ColorScore>  (168) 
-5.439

>  <ROCS_Overlap>  (168) 
762.569

>  <ROCS_Rank>  (168) 
302                 

$$$$
untitled-dbase-1522_95
     RDKit          3D

 13 13  0  0  0  0  0  0  0  0999 V2000
   -4.5634   12.4525  -29.8080 C   0  0  0  0  0  0  0  0  0  0  0  0
   -5.0356   11.1251  -31.7706 C   0  0  0  0  0  0  0  0  0  0  0  0
   -4.3039   12.1316  -31.1404 C   0  0  0  0  0  0  0  0  0  0  0  0
   -5.5545   11.7668  -29.1057 C   0  0  0  0  0  0  0  0  0  0  0  0
   -6.2862   10.7603  -29.7359 C   0  0  0  0  0  0  0  0  0  0  0  0
   -6.0268   10.4394  -31.0683 C   0  0  0  0  0  0  0  0  0  0  0  0
   -3.0411   14.2923  -31.4312 C   0  0  0  0  0  0  0  0  0  0  0  0
   -5.0535   11.3882  -26.8119 C   0  0  0  0  0  0  0  0  0  0  0  0
   -3.2448   12.8656  -31.8911 C   0  0  0  0  0  0  0  0  0  0  0  0
   -3.7079   14.8458  -30.5631 O   0  0  0  0  0  0  0  0  0  0  0  0
   -7.2523   10.1017  -29.0326 O   0  0  0  0  0  0  0  0  0  0  0  0
   -5.7967   12.0920  -27.8051 O   0  0  0  0  0  0  0  0  0  0  0  0
   -7.0004    9.0779  -31.9585 Br  0  0  0  0  0  0  0  0  0  0  0  0
  1  3  2  0
  1  4  1  0
  2  3  1  0
  2  6  2  0
  3  9  1  0
  4  5  2  0
  4 12  1  0
  5  6  1  0
  5 11  1  0
  6 13  1  0
  7  9  1  0
  7 10  2  0
  8 12  1  0
M  END
>  <id>  (169) 
EN300-1914051

>  <smiles>  (169) 
COC=1C=C(CC=O)C=C(Br)C1O

>  <MDLNUMBER>  (169) 
MFCD20432288

>  <IUPAC Name>  (169) 
2-(3-bromo-4-hydroxy-5-methoxyphenyl)acetaldehyde

>  <CAS>  (169) 
1343859-47-1

>  <URL>  (169) 
https://www.enaminestore.com/catalog/EN300-1914051

>  <ROCS_ShapeQuery>  (169) 
_x1604L0AP1_x0771L0AP1

>  <ROCS_TanimotoCombo>  (169) 
0.897 

>  <ROCS_ShapeTanimoto>  (169) 
0.514 

>  <ROCS_ColorTanimoto>  (169) 
0.383 

>  <ROCS_RefTversky>  (169) 
0.462 

>  <ROCS_RefColorTversky>  (169) 
0.429 

>  <ROCS_RefTverskyCombo>  (169) 
0.891 

>  <ROCS_FitTversky>  (169) 
1.284 

>  <ROCS_FitColorTversky>  (169) 
0.779 

>  <ROCS_FitTverskyCombo>  (169) 
2.063 

>  <ROCS_ColorScore>  (169) 
-4.898

>  <ROCS_Overlap>  (169) 
782.414

>  <ROCS_Rank>  (169) 
303                 

$$$$
untitled-dbase-226_0
     RDKit          3D

 12 13  0  0  0  0  0  0  0  0999 V2000
   -5.5670   11.7782  -29.1358 C   0  0  0  0  0  0  0  0  0  0  0  0
   -5.0723   11.1355  -31.8105 C   0  0  0  0  0  0  0  0  0  0  0  0
   -4.5858   12.4663  -29.8501 C   0  0  0  0  0  0  0  0  0  0  0  0
   -4.3536   12.1597  -31.1932 C   0  0  0  0  0  0  0  0  0  0  0  0
   -6.2947   10.7634  -29.7579 C   0  0  0  0  0  0  0  0  0  0  0  0
   -6.0442   10.4391  -31.0915 C   0  0  0  0  0  0  0  0  0  0  0  0
   -2.7053   13.8261  -29.8794 C   0  0  0  0  0  0  0  0  0  0  0  0
   -3.0114   14.0465  -31.3480 C   0  0  0  0  0  0  0  0  0  0  0  0
   -3.8907   13.4384  -29.1791 O   0  0  0  0  0  0  0  0  0  0  0  0
   -3.4274   12.8210  -31.9568 O   0  0  0  0  0  0  0  0  0  0  0  0
   -7.2430   10.1044  -29.0328 O   0  0  0  0  0  0  0  0  0  0  0  0
   -7.0088    9.0586  -31.9618 Br  0  0  0  0  0  0  0  0  0  0  0  0
  1  3  2  0
  1  5  1  0
  2  4  2  0
  2  6  1  0
  3  4  1  0
  3  9  1  0
  4 10  1  0
  5  6  2  0
  5 11  1  0
  6 12  1  0
  7  8  1  0
  7  9  1  0
  8 10  1  0
M  END
>  <id>  (170) 
EN300-1615088

>  <smiles>  (170) 
OC=1C=C2OCCOC2=CC1Br

>  <MDLNUMBER>  (170) 
MFCD14534623

>  <IUPAC Name>  (170) 
7-bromo-2,3-dihydro-1,4-benzodioxin-6-ol

>  <CAS>  (170) 
1216307-76-4

>  <Purity>  (170) 
95

>  <URL>  (170) 
https://www.enaminestore.com/catalog/EN300-1615088

>  <ROCS_ShapeQuery>  (170) 
_x1604L0AP1_x0771L0AP1

>  <ROCS_TanimotoCombo>  (170) 
0.897 

>  <ROCS_ShapeTanimoto>  (170) 
0.543 

>  <ROCS_ColorTanimoto>  (170) 
0.353 

>  <ROCS_RefTversky>  (170) 
0.476 

>  <ROCS_RefColorTversky>  (170) 
0.426 

>  <ROCS_RefTverskyCombo>  (170) 
0.902 

>  <ROCS_FitTversky>  (170) 
1.354 

>  <ROCS_FitColorTversky>  (170) 
0.674 

>  <ROCS_FitTverskyCombo>  (170) 
2.029 

>  <ROCS_ColorScore>  (170) 
-4.882

>  <ROCS_Overlap>  (170) 
806.098

>  <ROCS_Rank>  (170) 
304                 

$$$$
untitled-dbase-394_0
     RDKit          3D

 10 10  0  0  0  0  0  0  0  0999 V2000
   -4.6025   12.4917  -29.8507 C   0  0  0  0  0  0  0  0  0  0  0  0
   -4.3492   12.1750  -31.1853 C   0  0  0  0  0  0  0  0  0  0  0  0
   -5.5744   11.7880  -29.1393 C   0  0  0  0  0  0  0  0  0  0  0  0
   -5.0678   11.1548  -31.8085 C   0  0  0  0  0  0  0  0  0  0  0  0
   -6.2929   10.7678  -29.7625 C   0  0  0  0  0  0  0  0  0  0  0  0
   -6.0397   10.4511  -31.0971 C   0  0  0  0  0  0  0  0  0  0  0  0
   -4.7588   10.8546  -33.2401 C   0  0  0  0  0  0  0  0  0  0  0  0
   -7.2354   10.1025  -29.0358 O   0  0  0  0  0  0  0  0  0  0  0  0
   -6.0352   11.4885  -34.3011 Cl  0  0  0  0  0  0  0  0  0  0  0  0
   -7.0260    9.0571  -31.9366 Br  0  0  0  0  0  0  0  0  0  0  0  0
  1  2  2  0
  1  3  1  0
  2  4  1  0
  3  5  2  0
  4  6  2  0
  4  7  1  0
  5  6  1  0
  5  8  1  0
  6 10  1  0
  7  9  1  0
M  END
>  <id>  (171) 
EN300-1915319

>  <smiles>  (171) 
OC=1C=CC=C(CCl)C1Br

>  <MDLNUMBER>  (171) 
MFCD11520913

>  <IUPAC Name>  (171) 
2-bromo-3-(chloromethyl)phenol

>  <CAS>  (171) 
1260674-44-9

>  <Purity>  (171) 
95

>  <URL>  (171) 
https://www.enaminestore.com/catalog/EN300-1915319

>  <ROCS_ShapeQuery>  (171) 
_x1604L0AP1_x0771L0AP1

>  <ROCS_TanimotoCombo>  (171) 
0.896 

>  <ROCS_ShapeTanimoto>  (171) 
0.445 

>  <ROCS_ColorTanimoto>  (171) 
0.451 

>  <ROCS_RefTversky>  (171) 
0.395 

>  <ROCS_RefColorTversky>  (171) 
0.432 

>  <ROCS_RefTverskyCombo>  (171) 
0.826 

>  <ROCS_FitTversky>  (171) 
1.404 

>  <ROCS_FitColorTversky>  (171) 
1.114 

>  <ROCS_FitTverskyCombo>  (171) 
2.518 

>  <ROCS_ColorScore>  (171) 
-4.883

>  <ROCS_Overlap>  (171) 
665.987

>  <ROCS_Rank>  (171) 
307                 

$$$$
untitled-dbase-612_333
     RDKit          3D

 15 15  0  0  0  0  0  0  0  0999 V2000
   -4.6416   12.5252  -29.8643 C   0  0  0  0  0  0  0  0  0  0  0  0
   -5.1022   11.1689  -31.8099 C   0  0  0  0  0  0  0  0  0  0  0  0
   -4.3934   12.2032  -31.1986 C   0  0  0  0  0  0  0  0  0  0  0  0
   -5.5985   11.8130  -29.1413 C   0  0  0  0  0  0  0  0  0  0  0  0
   -6.3073   10.7787  -29.7525 C   0  0  0  0  0  0  0  0  0  0  0  0
   -6.0591   10.4567  -31.0869 C   0  0  0  0  0  0  0  0  0  0  0  0
   -1.9920   13.4853  -29.9217 C   0  0  0  0  0  0  0  0  0  0  0  0
   -1.9054   14.3941  -28.7417 C   0  0  0  0  0  0  0  0  0  0  0  0
   -6.8319   13.1226  -27.5859 C   0  0  0  0  0  0  0  0  0  0  0  0
   -3.3604   12.9734  -31.9795 C   0  0  0  0  0  0  0  0  0  0  0  0
   -2.7022   14.0585  -31.1291 C   0  0  0  0  0  0  0  0  0  0  0  0
   -1.5034   12.3640  -29.8676 O   0  0  0  0  0  0  0  0  0  0  0  0
   -7.2399   10.0944  -29.0290 O   0  0  0  0  0  0  0  0  0  0  0  0
   -5.8301   12.1397  -27.8391 O   0  0  0  0  0  0  0  0  0  0  0  0
   -7.0022    9.0579  -31.9517 Br  0  0  0  0  0  0  0  0  0  0  0  0
  1  3  2  0
  1  4  1  0
  2  3  1  0
  2  6  2  0
  3 10  1  0
  4  5  2  0
  4 14  1  0
  5  6  1  0
  5 13  1  0
  6 15  1  0
  7  8  1  0
  7 11  1  0
  7 12  2  0
  9 14  1  0
 10 11  1  0
M  END
>  <id>  (172) 
EN300-1925699

>  <smiles>  (172) 
COC=1C=C(CCC(=O)C)C=C(Br)C1O

>  <IUPAC Name>  (172) 
4-(3-bromo-4-hydroxy-5-methoxyphenyl)butan-2-one

>  <CAS>  (172) 
2228141-64-6

>  <URL>  (172) 
https://www.enaminestore.com/catalog/EN300-1925699

>  <ROCS_ShapeQuery>  (172) 
_x1604L0AP1_x0771L0AP1

>  <ROCS_TanimotoCombo>  (172) 
0.896 

>  <ROCS_ShapeTanimoto>  (172) 
0.514 

>  <ROCS_ColorTanimoto>  (172) 
0.382 

>  <ROCS_RefTversky>  (172) 
0.477 

>  <ROCS_RefColorTversky>  (172) 
0.429 

>  <ROCS_RefTverskyCombo>  (172) 
0.905 

>  <ROCS_FitTversky>  (172) 
1.182 

>  <ROCS_FitColorTversky>  (172) 
0.779 

>  <ROCS_FitTverskyCombo>  (172) 
1.960 

>  <ROCS_ColorScore>  (172) 
-4.895

>  <ROCS_Overlap>  (172) 
809.639

>  <ROCS_Rank>  (172) 
308                 

$$$$
untitled-dbase-1932_8
     RDKit          3D

 12 12  0  0  1  0  0  0  0  0999 V2000
   -5.5729   11.7897  -29.1431 C   0  0  0  0  0  0  0  0  0  0  0  0
   -5.0794   11.1431  -31.8117 C   0  0  0  0  0  0  0  0  0  0  0  0
   -4.6024   12.4876  -29.8618 C   0  0  0  0  0  0  0  0  0  0  0  0
   -4.3556   12.1643  -31.1961 C   0  0  0  0  0  0  0  0  0  0  0  0
   -6.2967   10.7684  -29.7587 C   0  0  0  0  0  0  0  0  0  0  0  0
   -6.0499   10.4451  -31.0929 C   0  0  0  0  0  0  0  0  0  0  0  0
   -3.8397   13.5763  -29.1812 C   0  0  0  0  0  0  0  0  0  0  0  0
   -3.2085   12.4080  -33.4359 C   0  0  0  0  0  0  0  0  0  0  0  0
   -3.3221   12.8984  -31.9857 C   0  0  2  0  0  0  0  0  0  0  0  0
   -2.0176   12.8545  -31.3487 N   0  0  0  0  0  0  0  0  0  0  0  0
   -7.2385   10.1058  -29.0291 O   0  0  0  0  0  0  0  0  0  0  0  0
   -7.0126    9.0620  -31.9607 Br  0  0  0  0  0  0  0  0  0  0  0  0
  1  3  2  0
  1  5  1  0
  2  4  2  0
  2  6  1  0
  3  4  1  0
  3  7  1  0
  4  9  1  0
  5  6  2  0
  5 11  1  0
  6 12  1  0
  9  8  1  6
  9 10  1  0
M  END
>  <id>  (173) 
EN300-1277400

>  <smiles>  (173) 
CC(N)C=1C=C(Br)C(O)=CC1C

>  <MDLNUMBER>  (173) 
MFCD31409139

>  <IUPAC Name>  (173) 
4-(1-aminoethyl)-2-bromo-5-methylphenol

>  <CAS>  (173) 
1782237-09-5

>  <URL>  (173) 
https://www.enaminestore.com/catalog/EN300-1277400

>  <ROCS_ShapeQuery>  (173) 
_x1604L0AP1_x0771L0AP1

>  <ROCS_TanimotoCombo>  (173) 
0.896 

>  <ROCS_ShapeTanimoto>  (173) 
0.516 

>  <ROCS_ColorTanimoto>  (173) 
0.380 

>  <ROCS_RefTversky>  (173) 
0.453 

>  <ROCS_RefColorTversky>  (173) 
0.427 

>  <ROCS_RefTverskyCombo>  (173) 
0.881 

>  <ROCS_FitTversky>  (173) 
1.364 

>  <ROCS_FitColorTversky>  (173) 
0.776 

>  <ROCS_FitTverskyCombo>  (173) 
2.140 

>  <ROCS_ColorScore>  (173) 
-4.878

>  <ROCS_Overlap>  (173) 
767.501

>  <ROCS_Rank>  (173) 
309                 

$$$$
untitled-dbase-1953_85
     RDKit          3D

 15 15  0  0  0  0  0  0  0  0999 V2000
   -4.3540   12.1817  -31.1754 C   0  0  0  0  0  0  0  0  0  0  0  0
   -4.6063   12.4971  -29.8403 C   0  0  0  0  0  0  0  0  0  0  0  0
   -5.0725   11.1615  -31.7988 C   0  0  0  0  0  0  0  0  0  0  0  0
   -5.5770   11.7922  -29.1286 C   0  0  0  0  0  0  0  0  0  0  0  0
   -6.2955   10.7720  -29.7520 C   0  0  0  0  0  0  0  0  0  0  0  0
   -6.0432   10.4566  -31.0871 C   0  0  0  0  0  0  0  0  0  0  0  0
   -4.7650   10.8754  -33.1954 C   0  0  0  0  0  0  0  0  0  0  0  0
   -5.0328   13.1669  -27.2658 C   0  0  0  0  0  0  0  0  0  0  0  0
   -5.8509   10.9796  -34.2553 C   0  0  0  0  0  0  0  0  0  0  0  0
   -3.6227   10.5239  -33.5411 O   0  0  0  0  0  0  0  0  0  0  0  0
   -7.2390   10.0964  -29.0339 O   0  0  0  0  0  0  0  0  0  0  0  0
   -5.8118   12.1112  -27.8251 O   0  0  0  0  0  0  0  0  0  0  0  0
   -7.0471   11.3540  -33.7255 F   0  0  0  0  0  0  0  0  0  0  0  0
   -6.0678    9.7847  -34.8643 F   0  0  0  0  0  0  0  0  0  0  0  0
   -7.0309    9.0611  -31.9264 Br  0  0  0  0  0  0  0  0  0  0  0  0
  1  2  2  0
  1  3  1  0
  2  4  1  0
  3  6  2  0
  3  7  1  0
  4  5  2  0
  4 12  1  0
  5  6  1  0
  5 11  1  0
  6 15  1  0
  7  9  1  0
  7 10  2  0
  8 12  1  0
  9 13  1  0
  9 14  1  0
M  END
>  <id>  (174) 
EN300-1965755

>  <smiles>  (174) 
COC=1C=CC(C(=O)C(F)F)=C(Br)C1O

>  <IUPAC Name>  (174) 
1-(2-bromo-3-hydroxy-4-methoxyphenyl)-2,2-difluoroethan-1-one

>  <CAS>  (174) 
2228503-13-5

>  <URL>  (174) 
https://www.enaminestore.com/catalog/EN300-1965755

>  <ROCS_ShapeQuery>  (174) 
_x1604L0AP1_x0771L0AP1

>  <ROCS_TanimotoCombo>  (174) 
0.896 

>  <ROCS_ShapeTanimoto>  (174) 
0.513 

>  <ROCS_ColorTanimoto>  (174) 
0.383 

>  <ROCS_RefTversky>  (174) 
0.480 

>  <ROCS_RefColorTversky>  (174) 
0.429 

>  <ROCS_RefTverskyCombo>  (174) 
0.909 

>  <ROCS_FitTversky>  (174) 
1.157 

>  <ROCS_FitColorTversky>  (174) 
0.780 

>  <ROCS_FitTverskyCombo>  (174) 
1.937 

>  <ROCS_ColorScore>  (174) 
-4.902

>  <ROCS_Overlap>  (174) 
815.286

>  <ROCS_Rank>  (174) 
313                 

$$$$
untitled-dbase-565_60
     RDKit          3D

 12 12  0  0  0  0  0  0  0  0999 V2000
   -4.5689   12.4524  -29.8358 C   0  0  0  0  0  0  0  0  0  0  0  0
   -5.5578   11.7688  -29.1285 C   0  0  0  0  0  0  0  0  0  0  0  0
   -5.0409   11.1130  -31.7903 C   0  0  0  0  0  0  0  0  0  0  0  0
   -4.3105   12.1246  -31.1668 C   0  0  0  0  0  0  0  0  0  0  0  0
   -6.2882   10.7572  -29.7520 C   0  0  0  0  0  0  0  0  0  0  0  0
   -6.0298   10.4293  -31.0830 C   0  0  0  0  0  0  0  0  0  0  0  0
   -3.2529   12.8560  -31.9219 C   0  0  0  0  0  0  0  0  0  0  0  0
   -6.1288   13.3132  -33.4749 N   0  0  0  0  0  0  0  0  0  0  0  0
   -3.7792   13.5066  -33.1285 N   0  0  0  0  0  0  0  0  0  0  0  0
   -5.0046   13.4025  -33.3041 N   0  0  0  0  0  0  0  0  0  0  0  0
   -7.2466   10.1072  -29.0327 O   0  0  0  0  0  0  0  0  0  0  0  0
   -7.0016    9.0594  -31.9615 Br  0  0  0  0  0  0  0  0  0  0  0  0
  1  2  2  0
  1  4  1  0
  2  5  1  0
  3  4  2  0
  3  6  1  0
  4  7  1  0
  5  6  2  0
  5 11  1  0
  6 12  1  0
  7  9  1  0
  8 10  2  0
  9 10  2  0
M  CHG  2   8  -1  10   1
M  END
>  <id>  (175) 
EN300-1906355

>  <smiles>  (175) 
OC=1C=CC(CN=[N+]=[N-])=CC1Br

>  <IUPAC Name>  (175) 
4-(azidomethyl)-2-bromophenol

>  <CAS>  (175) 
2228468-62-8

>  <URL>  (175) 
https://www.enaminestore.com/catalog/EN300-1906355

>  <ROCS_ShapeQuery>  (175) 
_x1604L0AP1_x0771L0AP1

>  <ROCS_TanimotoCombo>  (175) 
0.896 

>  <ROCS_ShapeTanimoto>  (175) 
0.445 

>  <ROCS_ColorTanimoto>  (175) 
0.451 

>  <ROCS_RefTversky>  (175) 
0.411 

>  <ROCS_RefColorTversky>  (175) 
0.431 

>  <ROCS_RefTverskyCombo>  (175) 
0.842 

>  <ROCS_FitTversky>  (175) 
1.225 

>  <ROCS_FitColorTversky>  (175) 
1.113 

>  <ROCS_FitTverskyCombo>  (175) 
2.337 

>  <ROCS_ColorScore>  (175) 
-4.879

>  <ROCS_Overlap>  (175) 
696.322

>  <ROCS_Rank>  (175) 
314                 

$$$$
untitled-dbase-1702_107
     RDKit          3D

 11 11  0  0  0  0  0  0  0  0999 V2000
   -4.6188   12.4982  -29.8577 C   0  0  0  0  0  0  0  0  0  0  0  0
   -5.5873   11.7949  -29.1414 C   0  0  0  0  0  0  0  0  0  0  0  0
   -5.0826   11.1504  -31.8084 C   0  0  0  0  0  0  0  0  0  0  0  0
   -4.3665   12.1760  -31.1912 C   0  0  0  0  0  0  0  0  0  0  0  0
   -6.3034   10.7693  -29.7586 C   0  0  0  0  0  0  0  0  0  0  0  0
   -6.0511   10.4470  -31.0921 C   0  0  0  0  0  0  0  0  0  0  0  0
   -3.3306   12.9284  -31.9558 C   0  0  0  0  0  0  0  0  0  0  0  0
   -2.1914   13.4480  -31.0763 C   0  0  0  0  0  0  0  0  0  0  0  0
   -7.2419   10.1002  -29.0307 O   0  0  0  0  0  0  0  0  0  0  0  0
   -2.7180   14.2976  -30.0651 O   0  0  0  0  0  0  0  0  0  0  0  0
   -7.0038    9.0585  -31.9622 Br  0  0  0  0  0  0  0  0  0  0  0  0
  1  2  2  0
  1  4  1  0
  2  5  1  0
  3  4  2  0
  3  6  1  0
  4  7  1  0
  5  6  2  0
  5  9  1  0
  6 11  1  0
  7  8  1  0
  8 10  1  0
M  END
>  <id>  (176) 
EN300-1898192

>  <smiles>  (176) 
OCCC=1C=CC(O)=C(Br)C1

>  <MDLNUMBER>  (176) 
MFCD00033225

>  <IUPAC Name>  (176) 
2-bromo-4-(2-hydroxyethyl)phenol

>  <CAS>  (176) 
196081-78-4

>  <URL>  (176) 
https://www.enaminestore.com/catalog/EN300-1898192

>  <ROCS_ShapeQuery>  (176) 
_x1604L0AP1_x0771L0AP1

>  <ROCS_TanimotoCombo>  (176) 
0.896 

>  <ROCS_ShapeTanimoto>  (176) 
0.515 

>  <ROCS_ColorTanimoto>  (176) 
0.380 

>  <ROCS_RefTversky>  (176) 
0.445 

>  <ROCS_RefColorTversky>  (176) 
0.427 

>  <ROCS_RefTverskyCombo>  (176) 
0.872 

>  <ROCS_FitTversky>  (176) 
1.447 

>  <ROCS_FitColorTversky>  (176) 
0.776 

>  <ROCS_FitTverskyCombo>  (176) 
2.223 

>  <ROCS_ColorScore>  (176) 
-4.878

>  <ROCS_Overlap>  (176) 
751.368

>  <ROCS_Rank>  (176) 
315                 

$$$$
untitled-dbase-840_76
     RDKit          3D

 12 12  0  0  1  0  0  0  0  0999 V2000
   -4.5641   12.4445  -29.8148 C   0  0  0  0  0  0  0  0  0  0  0  0
   -5.5578   11.7604  -29.1148 C   0  0  0  0  0  0  0  0  0  0  0  0
   -5.0338   11.1177  -31.7785 C   0  0  0  0  0  0  0  0  0  0  0  0
   -4.3021   12.1232  -31.1467 C   0  0  0  0  0  0  0  0  0  0  0  0
   -6.2895   10.7548  -29.7466 C   0  0  0  0  0  0  0  0  0  0  0  0
   -6.0275   10.4335  -31.0784 C   0  0  0  0  0  0  0  0  0  0  0  0
   -2.5819   13.9598  -31.0649 C   0  0  0  0  0  0  0  0  0  0  0  0
   -3.2393   12.8552  -31.8940 C   0  0  2  0  0  0  0  0  0  0  0  0
   -7.2526   10.1041  -29.0343 O   0  0  0  0  0  0  0  0  0  0  0  0
   -3.8062   13.4441  -33.0709 O   0  0  0  0  0  0  0  0  0  0  0  0
   -3.5278   14.8802  -30.7261 F   0  0  0  0  0  0  0  0  0  0  0  0
   -7.0009    9.0719  -31.9680 Br  0  0  0  0  0  0  0  0  0  0  0  0
  1  2  2  0
  1  4  1  0
  2  5  1  0
  3  4  2  0
  3  6  1  0
  4  8  1  0
  5  6  2  0
  5  9  1  0
  6 12  1  0
  7  8  1  0
  7 11  1  0
  8 10  1  6
M  END
>  <id>  (177) 
EN300-1906354

>  <smiles>  (177) 
OC(CF)C=1C=CC(O)=C(Br)C1

>  <IUPAC Name>  (177) 
2-bromo-4-(2-fluoro-1-hydroxyethyl)phenol

>  <CAS>  (177) 
2228579-22-2

>  <URL>  (177) 
https://www.enaminestore.com/catalog/EN300-1906354

>  <ROCS_ShapeQuery>  (177) 
_x1604L0AP1_x0771L0AP1

>  <ROCS_TanimotoCombo>  (177) 
0.896 

>  <ROCS_ShapeTanimoto>  (177) 
0.515 

>  <ROCS_ColorTanimoto>  (177) 
0.380 

>  <ROCS_RefTversky>  (177) 
0.453 

>  <ROCS_RefColorTversky>  (177) 
0.427 

>  <ROCS_RefTverskyCombo>  (177) 
0.881 

>  <ROCS_FitTversky>  (177) 
1.359 

>  <ROCS_FitColorTversky>  (177) 
0.776 

>  <ROCS_FitTverskyCombo>  (177) 
2.135 

>  <ROCS_ColorScore>  (177) 
-4.877

>  <ROCS_Overlap>  (177) 
767.635

>  <ROCS_Rank>  (177) 
317                 

$$$$
untitled-dbase-235_160
     RDKit          3D

 12 12  0  0  1  0  0  0  0  0999 V2000
   -4.3619   11.9025  -31.7486 C   0  0  0  0  0  0  0  0  0  0  0  0
   -4.3893   12.3924  -30.4429 C   0  0  0  0  0  0  0  0  0  0  0  0
   -5.2270   10.8756  -32.1265 C   0  0  0  0  0  0  0  0  0  0  0  0
   -5.2816   11.8553  -29.5151 C   0  0  0  0  0  0  0  0  0  0  0  0
   -6.1466   10.8284  -29.8930 C   0  0  0  0  0  0  0  0  0  0  0  0
   -6.1193   10.3385  -31.1987 C   0  0  0  0  0  0  0  0  0  0  0  0
   -6.3392   11.7180  -27.2180 C   0  0  0  0  0  0  0  0  0  0  0  0
   -5.2934   12.3938  -28.1222 C   0  0  2  0  0  0  0  0  0  0  0  0
   -5.5054   13.8327  -28.1015 N   0  0  0  0  0  0  0  0  0  0  0  0
   -7.0128   10.3121  -28.9733 O   0  0  0  0  0  0  0  0  0  0  0  0
   -6.3116   12.3062  -25.9215 O   0  0  0  0  0  0  0  0  0  0  0  0
   -7.2793    8.9447  -31.7515 Br  0  0  0  0  0  0  0  0  0  0  0  0
  1  2  2  0
  1  3  1  0
  2  4  1  0
  3  6  2  0
  4  5  2  0
  4  8  1  0
  5  6  1  0
  5 10  1  0
  6 12  1  0
  7  8  1  0
  7 11  1  0
  8  9  1  6
M  END
>  <id>  (178) 
EN300-1896265

>  <smiles>  (178) 
N[C@@H](CO)C=1C=CC=C(Br)C1O

>  <MDLNUMBER>  (178) 
MFCD11009586

>  <IUPAC Name>  (178) 
2-[(1R)-1-amino-2-hydroxyethyl]-6-bromophenol

>  <CAS>  (178) 
1213450-87-3

>  <URL>  (178) 
https://www.enaminestore.com/catalog/EN300-1896265

>  <ROCS_ShapeQuery>  (178) 
_x1604L0AP1_x0771L0AP1

>  <ROCS_TanimotoCombo>  (178) 
0.895 

>  <ROCS_ShapeTanimoto>  (178) 
0.431 

>  <ROCS_ColorTanimoto>  (178) 
0.463 

>  <ROCS_RefTversky>  (178) 
0.402 

>  <ROCS_RefColorTversky>  (178) 
0.542 

>  <ROCS_RefTverskyCombo>  (178) 
0.944 

>  <ROCS_FitTversky>  (178) 
1.205 

>  <ROCS_FitColorTversky>  (178) 
0.762 

>  <ROCS_FitTverskyCombo>  (178) 
1.967 

>  <ROCS_ColorScore>  (178) 
-6.239

>  <ROCS_Overlap>  (178) 
680.309

>  <ROCS_Rank>  (178) 
327                 

$$$$
untitled-dbase-553_106
     RDKit          3D

 13 13  0  0  0  0  0  0  0  0999 V2000
   -4.5675   12.4567  -29.8126 C   0  0  0  0  0  0  0  0  0  0  0  0
   -5.0398   11.1276  -31.7741 C   0  0  0  0  0  0  0  0  0  0  0  0
   -4.3090   12.1357  -31.1452 C   0  0  0  0  0  0  0  0  0  0  0  0
   -5.5567   11.7696  -29.1089 C   0  0  0  0  0  0  0  0  0  0  0  0
   -6.2874   10.7615  -29.7378 C   0  0  0  0  0  0  0  0  0  0  0  0
   -6.0289   10.4405  -31.0704 C   0  0  0  0  0  0  0  0  0  0  0  0
   -6.7729   13.1065  -27.5633 C   0  0  0  0  0  0  0  0  0  0  0  0
   -3.2521   12.8712  -31.8974 C   0  0  0  0  0  0  0  0  0  0  0  0
   -3.0276   14.3251  -31.4494 C   0  0  0  0  0  0  0  0  0  0  0  0
   -7.2515   10.1015  -29.0331 O   0  0  0  0  0  0  0  0  0  0  0  0
   -5.7979   12.0949  -27.8081 O   0  0  0  0  0  0  0  0  0  0  0  0
   -1.7386   15.1623  -32.4232 S   0  0  0  0  0  0  0  0  0  0  0  0
   -7.0012    9.0769  -31.9589 Br  0  0  0  0  0  0  0  0  0  0  0  0
  1  3  2  0
  1  4  1  0
  2  3  1  0
  2  6  2  0
  3  8  1  0
  4  5  2  0
  4 11  1  0
  5  6  1  0
  5 10  1  0
  6 13  1  0
  7 11  1  0
  8  9  1  0
  9 12  1  0
M  END
>  <id>  (179) 
EN300-1925669

>  <smiles>  (179) 
COC=1C=C(CCS)C=C(Br)C1O

>  <IUPAC Name>  (179) 
2-bromo-6-methoxy-4-(2-sulfanylethyl)phenol

>  <CAS>  (179) 
2229006-81-7

>  <URL>  (179) 
https://www.enaminestore.com/catalog/EN300-1925669

>  <ROCS_ShapeQuery>  (179) 
_x1604L0AP1_x0771L0AP1

>  <ROCS_TanimotoCombo>  (179) 
0.894 

>  <ROCS_ShapeTanimoto>  (179) 
0.479 

>  <ROCS_ColorTanimoto>  (179) 
0.415 

>  <ROCS_RefTversky>  (179) 
0.438 

>  <ROCS_RefColorTversky>  (179) 
0.431 

>  <ROCS_RefTverskyCombo>  (179) 
0.869 

>  <ROCS_FitTversky>  (179) 
1.248 

>  <ROCS_FitColorTversky>  (179) 
0.918 

>  <ROCS_FitTverskyCombo>  (179) 
2.166 

>  <ROCS_ColorScore>  (179) 
-4.898

>  <ROCS_Overlap>  (179) 
741.630

>  <ROCS_Rank>  (179) 
328                 

$$$$
untitled-dbase-560_22
     RDKit          3D

 11 11  0  0  0  0  0  0  0  0999 V2000
   -4.5618   12.4455  -29.8186 C   0  0  0  0  0  0  0  0  0  0  0  0
   -5.5537   11.7609  -29.1164 C   0  0  0  0  0  0  0  0  0  0  0  0
   -5.0370   11.1202  -31.7820 C   0  0  0  0  0  0  0  0  0  0  0  0
   -4.3035   12.1252  -31.1514 C   0  0  0  0  0  0  0  0  0  0  0  0
   -6.2872   10.7559  -29.7470 C   0  0  0  0  0  0  0  0  0  0  0  0
   -6.0289   10.4355  -31.0798 C   0  0  0  0  0  0  0  0  0  0  0  0
   -3.2427   12.8577  -31.9010 C   0  0  0  0  0  0  0  0  0  0  0  0
   -3.0766   14.2879  -31.3972 C   0  0  0  0  0  0  0  0  0  0  0  0
   -7.2485   10.1047  -29.0326 O   0  0  0  0  0  0  0  0  0  0  0  0
   -7.0048    9.0748  -31.9678 Br  0  0  0  0  0  0  0  0  0  0  0  0
   -4.7545   15.2609  -31.5616 Br  0  0  0  0  0  0  0  0  0  0  0  0
  1  2  2  0
  1  4  1  0
  2  5  1  0
  3  4  2  0
  3  6  1  0
  4  7  1  0
  5  6  2  0
  5  9  1  0
  6 10  1  0
  7  8  1  0
  8 11  1  0
M  END
>  <id>  (180) 
EN300-1906332

>  <smiles>  (180) 
OC=1C=CC(CCBr)=CC1Br

>  <MDLNUMBER>  (180) 
MFCD33501282

>  <IUPAC Name>  (180) 
2-bromo-4-(2-bromoethyl)phenol

>  <CAS>  (180) 
2229475-72-1

>  <URL>  (180) 
https://www.enaminestore.com/catalog/EN300-1906332

>  <ROCS_ShapeQuery>  (180) 
_x1604L0AP1_x0771L0AP1

>  <ROCS_TanimotoCombo>  (180) 
0.894 

>  <ROCS_ShapeTanimoto>  (180) 
0.482 

>  <ROCS_ColorTanimoto>  (180) 
0.413 

>  <ROCS_RefTversky>  (180) 
0.423 

>  <ROCS_RefColorTversky>  (180) 
0.429 

>  <ROCS_RefTverskyCombo>  (180) 
0.852 

>  <ROCS_FitTversky>  (180) 
1.408 

>  <ROCS_FitColorTversky>  (180) 
0.914 

>  <ROCS_FitTverskyCombo>  (180) 
2.323 

>  <ROCS_ColorScore>  (180) 
-4.878

>  <ROCS_Overlap>  (180) 
714.200

>  <ROCS_Rank>  (180) 
329                 

$$$$
untitled-dbase-1744_525
     RDKit          3D

 15 15  0  0  0  0  0  0  0  0999 V2000
   -4.5817   12.4663  -29.7956 C   0  0  0  0  0  0  0  0  0  0  0  0
   -5.0422   11.1420  -31.7631 C   0  0  0  0  0  0  0  0  0  0  0  0
   -4.3180   12.1512  -31.1285 C   0  0  0  0  0  0  0  0  0  0  0  0
   -5.5695   11.7719  -29.0971 C   0  0  0  0  0  0  0  0  0  0  0  0
   -6.2936   10.7626  -29.7316 C   0  0  0  0  0  0  0  0  0  0  0  0
   -6.0300   10.4476  -31.0646 C   0  0  0  0  0  0  0  0  0  0  0  0
   -5.0698   11.3894  -26.8037 C   0  0  0  0  0  0  0  0  0  0  0  0
   -2.5935   13.9553  -30.9981 C   0  0  0  0  0  0  0  0  0  0  0  0
   -3.2625   12.8945  -31.8752 C   0  0  0  0  0  0  0  0  0  0  0  0
   -7.2565   10.0955  -29.0319 O   0  0  0  0  0  0  0  0  0  0  0  0
   -3.5678   14.8998  -30.5699 O   0  0  0  0  0  0  0  0  0  0  0  0
   -5.8159   12.0915  -27.7958 O   0  0  0  0  0  0  0  0  0  0  0  0
   -2.2721   12.0745  -32.3539 F   0  0  0  0  0  0  0  0  0  0  0  0
   -3.7478   13.5310  -32.9896 F   0  0  0  0  0  0  0  0  0  0  0  0
   -6.9932    9.0826  -31.9606 Br  0  0  0  0  0  0  0  0  0  0  0  0
  1  3  2  0
  1  4  1  0
  2  3  1  0
  2  6  2  0
  3  9  1  0
  4  5  2  0
  4 12  1  0
  5  6  1  0
  5 10  1  0
  6 15  1  0
  7 12  1  0
  8  9  1  0
  8 11  1  0
  9 13  1  0
  9 14  1  0
M  END
>  <id>  (181) 
EN300-1959358

>  <smiles>  (181) 
COC=1C=C(C=C(Br)C1O)C(F)(F)CO

>  <IUPAC Name>  (181) 
2-bromo-4-(1,1-difluoro-2-hydroxyethyl)-6-methoxyphenol

>  <CAS>  (181) 
2228626-31-9

>  <URL>  (181) 
https://www.enaminestore.com/catalog/EN300-1959358

>  <ROCS_ShapeQuery>  (181) 
_x1604L0AP1_x0771L0AP1

>  <ROCS_TanimotoCombo>  (181) 
0.894 

>  <ROCS_ShapeTanimoto>  (181) 
0.539 

>  <ROCS_ColorTanimoto>  (181) 
0.355 

>  <ROCS_RefTversky>  (181) 
0.496 

>  <ROCS_RefColorTversky>  (181) 
0.427 

>  <ROCS_RefTverskyCombo>  (181) 
0.923 

>  <ROCS_FitTversky>  (181) 
1.196 

>  <ROCS_FitColorTversky>  (181) 
0.677 

>  <ROCS_FitTverskyCombo>  (181) 
1.873 

>  <ROCS_ColorScore>  (181) 
-4.897

>  <ROCS_Overlap>  (181) 
842.507

>  <ROCS_Rank>  (181) 
330                 

$$$$
untitled-dbase-1175_80
     RDKit          3D

 14 14  0  0  1  0  0  0  0  0999 V2000
   -4.9710   12.6768  -29.8678 C   0  0  0  0  0  0  0  0  0  0  0  0
   -4.9626   11.1131  -31.7094 C   0  0  0  0  0  0  0  0  0  0  0  0
   -5.9738   11.9356  -29.2429 C   0  0  0  0  0  0  0  0  0  0  0  0
   -6.4710   10.7831  -29.8512 C   0  0  0  0  0  0  0  0  0  0  0  0
   -4.4654   12.2656  -31.1011 C   0  0  0  0  0  0  0  0  0  0  0  0
   -5.9654   10.3718  -31.0845 C   0  0  0  0  0  0  0  0  0  0  0  0
   -6.5071   12.3990  -27.9072 C   0  0  0  0  0  0  0  0  0  0  0  0
   -6.1629   10.3728  -26.3909 C   0  0  0  0  0  0  0  0  0  0  0  0
   -5.7226   11.7991  -26.7320 C   0  0  2  0  0  0  0  0  0  0  0  0
   -7.5595   10.3282  -26.0227 N   0  0  0  0  0  0  0  0  0  0  0  0
   -7.4523   10.0686  -29.2273 O   0  0  0  0  0  0  0  0  0  0  0  0
   -5.8899   12.6316  -25.5843 O   0  0  0  0  0  0  0  0  0  0  0  0
   -3.2281   13.1808  -31.8718 Cl  0  0  0  0  0  0  0  0  0  0  0  0
   -6.6157    8.8112  -31.9428 Br  0  0  0  0  0  0  0  0  0  0  0  0
  1  3  2  0
  1  5  1  0
  2  5  2  0
  2  6  1  0
  3  4  1  0
  3  7  1  0
  4  6  2  0
  4 11  1  0
  5 13  1  0
  6 14  1  0
  7  9  1  0
  8  9  1  0
  8 10  1  0
  9 12  1  1
M  END
>  <id>  (182) 
EN300-1922904

>  <smiles>  (182) 
NCC(O)CC=1C=C(Cl)C=C(Br)C1O

>  <IUPAC Name>  (182) 
2-(3-amino-2-hydroxypropyl)-6-bromo-4-chlorophenol

>  <CAS>  (182) 
2228853-41-4

>  <URL>  (182) 
https://www.enaminestore.com/catalog/EN300-1922904

>  <ROCS_ShapeQuery>  (182) 
_x1604L0AP1_x0771L0AP1

>  <ROCS_TanimotoCombo>  (182) 
0.894 

>  <ROCS_ShapeTanimoto>  (182) 
0.439 

>  <ROCS_ColorTanimoto>  (182) 
0.455 

>  <ROCS_RefTversky>  (182) 
0.418 

>  <ROCS_RefColorTversky>  (182) 
0.535 

>  <ROCS_RefTverskyCombo>  (182) 
0.954 

>  <ROCS_FitTversky>  (182) 
1.123 

>  <ROCS_FitColorTversky>  (182) 
0.753 

>  <ROCS_FitTverskyCombo>  (182) 
1.876 

>  <ROCS_ColorScore>  (182) 
-6.163

>  <ROCS_Overlap>  (182) 
709.792

>  <ROCS_Rank>  (182) 
332                 

$$$$
untitled-dbase-22_0
     RDKit          3D

 10 10  0  0  0  0  0  0  0  0999 V2000
   -4.5874   12.4710  -29.8452 C   0  0  0  0  0  0  0  0  0  0  0  0
   -5.5668   11.7784  -29.1335 C   0  0  0  0  0  0  0  0  0  0  0  0
   -5.0597   11.1310  -31.7993 C   0  0  0  0  0  0  0  0  0  0  0  0
   -4.3339   12.1474  -31.1782 C   0  0  0  0  0  0  0  0  0  0  0  0
   -6.2926   10.7620  -29.7546 C   0  0  0  0  0  0  0  0  0  0  0  0
   -6.0391   10.4383  -31.0875 C   0  0  0  0  0  0  0  0  0  0  0  0
   -2.6744   13.8509  -31.1756 C   0  0  0  0  0  0  0  0  0  0  0  0
   -7.2426   10.1042  -29.0312 O   0  0  0  0  0  0  0  0  0  0  0  0
   -3.3782   12.8238  -31.8723 O   0  0  0  0  0  0  0  0  0  0  0  0
   -7.0056    9.0634  -31.9639 Br  0  0  0  0  0  0  0  0  0  0  0  0
  1  2  2  0
  1  4  1  0
  2  5  1  0
  3  4  2  0
  3  6  1  0
  4  9  1  0
  5  6  2  0
  5  8  1  0
  6 10  1  0
  7  9  1  0
M  END
>  <id>  (183) 
EN300-103076

>  <smiles>  (183) 
COC=1C=CC(O)=C(Br)C1

>  <MDLNUMBER>  (183) 
MFCD02113712

>  <IUPAC Name>  (183) 
2-bromo-4-methoxyphenol

>  <CAS>  (183) 
17332-11-5

>  <Purity>  (183) 
95

>  <URL>  (183) 
https://www.enaminestore.com/catalog/EN300-103076

>  <MP>  (183) 
40-45

>  <ROCS_ShapeQuery>  (183) 
_x1604L0AP1_x0771L0AP1

>  <ROCS_TanimotoCombo>  (183) 
0.894 

>  <ROCS_ShapeTanimoto>  (183) 
0.481 

>  <ROCS_ColorTanimoto>  (183) 
0.413 

>  <ROCS_RefTversky>  (183) 
0.418 

>  <ROCS_RefColorTversky>  (183) 
0.429 

>  <ROCS_RefTverskyCombo>  (183) 
0.848 

>  <ROCS_FitTversky>  (183) 
1.451 

>  <ROCS_FitColorTversky>  (183) 
0.914 

>  <ROCS_FitTverskyCombo>  (183) 
2.366 

>  <ROCS_ColorScore>  (183) 
-4.879

>  <ROCS_Overlap>  (183) 
706.643

>  <ROCS_Rank>  (183) 
333                 

$$$$
untitled-dbase-1181_59
     RDKit          3D

 13 13  0  0  0  0  0  0  0  0999 V2000
   -4.6062   12.5621  -30.3625 C   0  0  0  0  0  0  0  0  0  0  0  0
   -5.1431   10.9105  -32.0422 C   0  0  0  0  0  0  0  0  0  0  0  0
   -5.5296   11.9795  -29.4945 C   0  0  0  0  0  0  0  0  0  0  0  0
   -6.2597   10.8624  -29.9003 C   0  0  0  0  0  0  0  0  0  0  0  0
   -4.4130   12.0276  -31.6364 C   0  0  0  0  0  0  0  0  0  0  0  0
   -6.0665   10.3279  -31.1741 C   0  0  0  0  0  0  0  0  0  0  0  0
   -5.0262   12.4065  -25.1090 C   0  0  0  0  0  0  0  0  0  0  0  0
   -5.7209   12.5676  -28.1351 C   0  0  0  0  0  0  0  0  0  0  0  0
   -6.1002   11.5329  -27.0696 C   0  0  0  0  0  0  0  0  0  0  0  0
   -6.2989   12.1280  -25.7752 N   0  0  0  0  0  0  0  0  0  0  0  0
   -7.1595   10.3038  -29.0395 O   0  0  0  0  0  0  0  0  0  0  0  0
   -3.2736   12.7471  -32.7073 Cl  0  0  0  0  0  0  0  0  0  0  0  0
   -7.0399    8.8107  -31.7619 Br  0  0  0  0  0  0  0  0  0  0  0  0
  1  3  2  0
  1  5  1  0
  2  5  2  0
  2  6  1  0
  3  4  1  0
  3  8  1  0
  4  6  2  0
  4 11  1  0
  5 12  1  0
  6 13  1  0
  7 10  1  0
  8  9  1  0
  9 10  1  0
M  END
>  <id>  (184) 
EN300-1922558

>  <smiles>  (184) 
CNCCC=1C=C(Cl)C=C(Br)C1O

>  <IUPAC Name>  (184) 
2-bromo-4-chloro-6-[2-(methylamino)ethyl]phenol

>  <CAS>  (184) 
1784349-28-5

>  <URL>  (184) 
https://www.enaminestore.com/catalog/EN300-1922558

>  <ROCS_ShapeQuery>  (184) 
_x1604L0AP1_x0771L0AP1

>  <ROCS_TanimotoCombo>  (184) 
0.894 

>  <ROCS_ShapeTanimoto>  (184) 
0.453 

>  <ROCS_ColorTanimoto>  (184) 
0.441 

>  <ROCS_RefTversky>  (184) 
0.421 

>  <ROCS_RefColorTversky>  (184) 
0.474 

>  <ROCS_RefTverskyCombo>  (184) 
0.895 

>  <ROCS_FitTversky>  (184) 
1.206 

>  <ROCS_FitColorTversky>  (184) 
0.861 

>  <ROCS_FitTverskyCombo>  (184) 
2.068 

>  <ROCS_ColorScore>  (184) 
-5.413

>  <ROCS_Overlap>  (184) 
712.430

>  <ROCS_Rank>  (184) 
334                 

$$$$
untitled-dbase-1179_476
     RDKit          3D

 16 16  0  0  0  0  0  0  0  0999 V2000
   -4.4687   11.3655  -31.8773 C   0  0  0  0  0  0  0  0  0  0  0  0
   -4.2810   11.7253  -30.5428 C   0  0  0  0  0  0  0  0  0  0  0  0
   -5.5768   10.6021  -32.2446 C   0  0  0  0  0  0  0  0  0  0  0  0
   -5.2013   11.3214  -29.5755 C   0  0  0  0  0  0  0  0  0  0  0  0
   -6.3094   10.5579  -29.9428 C   0  0  0  0  0  0  0  0  0  0  0  0
   -6.4971   10.1982  -31.2773 C   0  0  0  0  0  0  0  0  0  0  0  0
   -4.0421    8.4381  -33.3356 C   0  0  0  0  0  0  0  0  0  0  0  0
   -5.0085    8.7075  -35.6200 C   0  0  0  0  0  0  0  0  0  0  0  0
   -4.2417   10.7887  -27.4657 C   0  0  0  0  0  0  0  0  0  0  0  0
   -5.7343   10.2406  -33.7035 C   0  0  0  0  0  0  0  0  0  0  0  0
   -6.4189    7.7533  -33.7818 C   0  0  0  0  0  0  0  0  0  0  0  0
   -5.3277    8.7941  -34.1163 C   0  0  0  0  0  0  0  0  0  0  0  0
   -7.1958   10.1753  -28.9782 O   0  0  0  0  0  0  0  0  0  0  0  0
   -6.2432    6.5661  -34.5437 O   0  0  0  0  0  0  0  0  0  0  0  0
   -5.0041   11.6808  -28.2762 O   0  0  0  0  0  0  0  0  0  0  0  0
   -8.0168    9.1640  -31.7711 Br  0  0  0  0  0  0  0  0  0  0  0  0
  1  2  2  0
  1  3  1  0
  2  4  1  0
  3  6  2  0
  3 10  1  0
  4  5  2  0
  4 15  1  0
  5  6  1  0
  5 13  1  0
  6 16  1  0
  7 12  1  0
  8 12  1  0
  9 15  1  0
 10 12  1  0
 11 12  1  0
 11 14  1  0
M  END
>  <id>  (185) 
EN300-1936273

>  <smiles>  (185) 
COC=1C=CC(CC(C)(C)CO)=C(Br)C1O

>  <IUPAC Name>  (185) 
2-bromo-3-(3-hydroxy-2,2-dimethylpropyl)-6-methoxyphenol

>  <CAS>  (185) 
2229032-71-5

>  <URL>  (185) 
https://www.enaminestore.com/catalog/EN300-1936273

>  <ROCS_ShapeQuery>  (185) 
_x1604L0AP1_x0771L0AP1

>  <ROCS_TanimotoCombo>  (185) 
0.894 

>  <ROCS_ShapeTanimoto>  (185) 
0.475 

>  <ROCS_ColorTanimoto>  (185) 
0.419 

>  <ROCS_RefTversky>  (185) 
0.459 

>  <ROCS_RefColorTversky>  (185) 
0.505 

>  <ROCS_RefTverskyCombo>  (185) 
0.964 

>  <ROCS_FitTversky>  (185) 
1.079 

>  <ROCS_FitColorTversky>  (185) 
0.711 

>  <ROCS_FitTverskyCombo>  (185) 
1.789 

>  <ROCS_ColorScore>  (185) 
-5.817

>  <ROCS_Overlap>  (185) 
780.321

>  <ROCS_Rank>  (185) 
336                 

$$$$
untitled-dbase-277_163
     RDKit          3D

 12 12  0  0  1  0  0  0  0  0999 V2000
   -4.3782   11.9201  -31.7562 C   0  0  0  0  0  0  0  0  0  0  0  0
   -4.4091   12.4143  -30.4522 C   0  0  0  0  0  0  0  0  0  0  0  0
   -5.2343   10.8841  -32.1299 C   0  0  0  0  0  0  0  0  0  0  0  0
   -5.2959   11.8725  -29.5218 C   0  0  0  0  0  0  0  0  0  0  0  0
   -6.1520   10.8364  -29.8955 C   0  0  0  0  0  0  0  0  0  0  0  0
   -6.1211   10.3423  -31.1995 C   0  0  0  0  0  0  0  0  0  0  0  0
   -6.3310   11.7119  -27.2179 C   0  0  0  0  0  0  0  0  0  0  0  0
   -5.3116   12.4157  -28.1308 C   0  0  1  0  0  0  0  0  0  0  0  0
   -3.9902   12.3679  -27.5246 N   0  0  0  0  0  0  0  0  0  0  0  0
   -7.0128   10.3156  -28.9734 O   0  0  0  0  0  0  0  0  0  0  0  0
   -6.3116   12.3037  -25.9229 O   0  0  0  0  0  0  0  0  0  0  0  0
   -7.2689    8.9361  -31.7466 Br  0  0  0  0  0  0  0  0  0  0  0  0
  1  2  2  0
  1  3  1  0
  2  4  1  0
  3  6  2  0
  4  5  2  0
  4  8  1  0
  5  6  1  0
  5 10  1  0
  6 12  1  0
  7  8  1  0
  7 11  1  0
  8  9  1  1
M  END
>  <id>  (186) 
EN300-1894830

>  <smiles>  (186) 
NC(CO)C=1C=CC=C(Br)C1O

>  <MDLNUMBER>  (186) 
MFCD24522396

>  <IUPAC Name>  (186) 
2-(1-amino-2-hydroxyethyl)-6-bromophenol

>  <CAS>  (186) 
1337268-77-5

>  <URL>  (186) 
https://www.enaminestore.com/catalog/EN300-1894830

>  <ROCS_ShapeQuery>  (186) 
_x1604L0AP1_x0771L0AP1

>  <ROCS_TanimotoCombo>  (186) 
0.894 

>  <ROCS_ShapeTanimoto>  (186) 
0.431 

>  <ROCS_ColorTanimoto>  (186) 
0.463 

>  <ROCS_RefTversky>  (186) 
0.401 

>  <ROCS_RefColorTversky>  (186) 
0.541 

>  <ROCS_RefTverskyCombo>  (186) 
0.943 

>  <ROCS_FitTversky>  (186) 
1.204 

>  <ROCS_FitColorTversky>  (186) 
0.762 

>  <ROCS_FitTverskyCombo>  (186) 
1.965 

>  <ROCS_ColorScore>  (186) 
-6.234

>  <ROCS_Overlap>  (186) 
679.441

>  <ROCS_Rank>  (186) 
337                 

$$$$
untitled-dbase-1376_163
     RDKit          3D

 12 12  0  0  1  0  0  0  0  0999 V2000
   -4.3782   11.9201  -31.7562 C   0  0  0  0  0  0  0  0  0  0  0  0
   -4.4091   12.4143  -30.4522 C   0  0  0  0  0  0  0  0  0  0  0  0
   -5.2343   10.8841  -32.1299 C   0  0  0  0  0  0  0  0  0  0  0  0
   -5.2959   11.8725  -29.5218 C   0  0  0  0  0  0  0  0  0  0  0  0
   -6.1520   10.8364  -29.8955 C   0  0  0  0  0  0  0  0  0  0  0  0
   -6.1211   10.3423  -31.1995 C   0  0  0  0  0  0  0  0  0  0  0  0
   -6.3310   11.7119  -27.2179 C   0  0  0  0  0  0  0  0  0  0  0  0
   -5.3116   12.4157  -28.1308 C   0  0  1  0  0  0  0  0  0  0  0  0
   -3.9902   12.3679  -27.5246 N   0  0  0  0  0  0  0  0  0  0  0  0
   -7.0128   10.3156  -28.9734 O   0  0  0  0  0  0  0  0  0  0  0  0
   -6.3116   12.3037  -25.9229 O   0  0  0  0  0  0  0  0  0  0  0  0
   -7.2689    8.9361  -31.7466 Br  0  0  0  0  0  0  0  0  0  0  0  0
  1  2  2  0
  1  3  1  0
  2  4  1  0
  3  6  2  0
  4  5  2  0
  4  8  1  0
  5  6  1  0
  5 10  1  0
  6 12  1  0
  7  8  1  0
  7 11  1  0
  8  9  1  1
M  END
>  <id>  (187) 
EN300-1911057

>  <smiles>  (187) 
N[C@H](CO)C=1C=CC=C(Br)C1O

>  <MDLNUMBER>  (187) 
MFCD11009585

>  <IUPAC Name>  (187) 
2-[(1S)-1-amino-2-hydroxyethyl]-6-bromophenol

>  <CAS>  (187) 
1213907-93-7

>  <URL>  (187) 
https://www.enaminestore.com/catalog/EN300-1911057

>  <ROCS_ShapeQuery>  (187) 
_x1604L0AP1_x0771L0AP1

>  <ROCS_TanimotoCombo>  (187) 
0.894 

>  <ROCS_ShapeTanimoto>  (187) 
0.431 

>  <ROCS_ColorTanimoto>  (187) 
0.463 

>  <ROCS_RefTversky>  (187) 
0.401 

>  <ROCS_RefColorTversky>  (187) 
0.541 

>  <ROCS_RefTverskyCombo>  (187) 
0.943 

>  <ROCS_FitTversky>  (187) 
1.204 

>  <ROCS_FitColorTversky>  (187) 
0.762 

>  <ROCS_FitTverskyCombo>  (187) 
1.965 

>  <ROCS_ColorScore>  (187) 
-6.234

>  <ROCS_Overlap>  (187) 
679.441

>  <ROCS_Rank>  (187) 
338                 

$$$$
untitled-dbase-96_0
     RDKit          3D

 11 11  0  0  0  0  0  0  0  0999 V2000
   -3.3134   12.8375  -31.9074 C   0  0  0  0  0  0  0  0  0  0  0  0
   -4.5757   12.4610  -29.8473 C   0  0  0  0  0  0  0  0  0  0  0  0
   -5.0515   11.1198  -31.7997 C   0  0  0  0  0  0  0  0  0  0  0  0
   -4.3218   12.1339  -31.1793 C   0  0  0  0  0  0  0  0  0  0  0  0
   -6.2888   10.7599  -29.7560 C   0  0  0  0  0  0  0  0  0  0  0  0
   -5.5591   11.7739  -29.1357 C   0  0  0  0  0  0  0  0  0  0  0  0
   -6.0351   10.4328  -31.0881 C   0  0  0  0  0  0  0  0  0  0  0  0
   -2.4944   13.4090  -32.4985 N   0  0  0  0  0  0  0  0  0  0  0  0
   -7.2430   10.1063  -29.0343 O   0  0  0  0  0  0  0  0  0  0  0  0
   -5.7979   12.0940  -27.8563 F   0  0  0  0  0  0  0  0  0  0  0  0
   -7.0093    9.0626  -31.9635 Br  0  0  0  0  0  0  0  0  0  0  0  0
  1  4  1  0
  1  8  3  0
  2  4  2  0
  2  6  1  0
  3  4  1  0
  3  7  2  0
  5  6  2  0
  5  7  1  0
  5  9  1  0
  6 10  1  0
  7 11  1  0
M  END
>  <id>  (188) 
EN300-310748

>  <smiles>  (188) 
OC=1C(F)=CC(C#N)=CC1Br

>  <MDLNUMBER>  (188) 
MFCD24729720

>  <IUPAC Name>  (188) 
3-bromo-5-fluoro-4-hydroxybenzonitrile

>  <CAS>  (188) 
1235841-38-9

>  <Purity>  (188) 
95

>  <URL>  (188) 
https://www.enaminestore.com/catalog/EN300-310748

>  <ROCS_ShapeQuery>  (188) 
_x1604L0AP1_x0771L0AP1

>  <ROCS_TanimotoCombo>  (188) 
0.893 

>  <ROCS_ShapeTanimoto>  (188) 
0.481 

>  <ROCS_ColorTanimoto>  (188) 
0.413 

>  <ROCS_RefTversky>  (188) 
0.427 

>  <ROCS_RefColorTversky>  (188) 
0.429 

>  <ROCS_RefTverskyCombo>  (188) 
0.856 

>  <ROCS_FitTversky>  (188) 
1.353 

>  <ROCS_FitColorTversky>  (188) 
0.915 

>  <ROCS_FitTverskyCombo>  (188) 
2.268 

>  <ROCS_ColorScore>  (188) 
-4.879

>  <ROCS_Overlap>  (188) 
722.213

>  <ROCS_Rank>  (188) 
339                 

$$$$
untitled-dbase-480_12
     RDKit          3D

 10 10  0  0  0  0  0  0  0  0999 V2000
   -4.5804   12.4627  -29.8337 C   0  0  0  0  0  0  0  0  0  0  0  0
   -5.5643   11.7722  -29.1261 C   0  0  0  0  0  0  0  0  0  0  0  0
   -5.0519   11.1281  -31.7917 C   0  0  0  0  0  0  0  0  0  0  0  0
   -4.3242   12.1407  -31.1665 C   0  0  0  0  0  0  0  0  0  0  0  0
   -6.2920   10.7596  -29.7513 C   0  0  0  0  0  0  0  0  0  0  0  0
   -6.0358   10.4375  -31.0841 C   0  0  0  0  0  0  0  0  0  0  0  0
   -3.2719   12.8794  -31.9220 C   0  0  0  0  0  0  0  0  0  0  0  0
   -7.2455   10.1028  -29.0316 O   0  0  0  0  0  0  0  0  0  0  0  0
   -7.0040    9.0665  -31.9648 Br  0  0  0  0  0  0  0  0  0  0  0  0
   -2.8164   14.5154  -30.9729 Br  0  0  0  0  0  0  0  0  0  0  0  0
  1  2  2  0
  1  4  1  0
  2  5  1  0
  3  4  2  0
  3  6  1  0
  4  7  1  0
  5  6  2  0
  5  8  1  0
  6  9  1  0
  7 10  1  0
M  END
>  <id>  (189) 
EN300-1912153

>  <smiles>  (189) 
OC=1C=CC(CBr)=CC1Br

>  <MDLNUMBER>  (189) 
MFCD18390265

>  <IUPAC Name>  (189) 
2-bromo-4-(bromomethyl)phenol

>  <CAS>  (189) 
52703-21-6

>  <URL>  (189) 
https://www.enaminestore.com/catalog/EN300-1912153

>  <ROCS_ShapeQuery>  (189) 
_x1604L0AP1_x0771L0AP1

>  <ROCS_TanimotoCombo>  (189) 
0.893 

>  <ROCS_ShapeTanimoto>  (189) 
0.481 

>  <ROCS_ColorTanimoto>  (189) 
0.413 

>  <ROCS_RefTversky>  (189) 
0.415 

>  <ROCS_RefColorTversky>  (189) 
0.429 

>  <ROCS_RefTverskyCombo>  (189) 
0.844 

>  <ROCS_FitTversky>  (189) 
1.489 

>  <ROCS_FitColorTversky>  (189) 
0.914 

>  <ROCS_FitTverskyCombo>  (189) 
2.403 

>  <ROCS_ColorScore>  (189) 
-4.879

>  <ROCS_Overlap>  (189) 
700.725

>  <ROCS_Rank>  (189) 
340                 

$$$$
untitled-dbase-1318_1
     RDKit          3D

 12 12  0  0  0  0  0  0  0  0999 V2000
   -4.6076   12.4970  -29.8402 C   0  0  0  0  0  0  0  0  0  0  0  0
   -5.5785   11.7870  -29.1339 C   0  0  0  0  0  0  0  0  0  0  0  0
   -4.3524   12.1889  -31.1765 C   0  0  0  0  0  0  0  0  0  0  0  0
   -6.2942   10.7689  -29.7638 C   0  0  0  0  0  0  0  0  0  0  0  0
   -5.0681   11.1708  -31.8065 C   0  0  0  0  0  0  0  0  0  0  0  0
   -6.0390   10.4607  -31.1001 C   0  0  0  0  0  0  0  0  0  0  0  0
   -5.9459   10.6508  -34.1855 O   0  0  0  0  0  0  0  0  0  0  0  0
   -3.6982   11.8056  -33.9091 O   0  0  0  0  0  0  0  0  0  0  0  0
   -7.2353   10.0982  -29.0398 O   0  0  0  0  0  0  0  0  0  0  0  0
   -3.9626    9.4336  -33.5374 F   0  0  0  0  0  0  0  0  0  0  0  0
   -4.6921   10.8413  -33.4872 S   0  0  0  0  0  0  0  0  0  0  0  0
   -7.0347    9.0661  -31.9323 Br  0  0  0  0  0  0  0  0  0  0  0  0
  1  2  2  0
  1  3  1  0
  2  4  1  0
  3  5  2  0
  4  6  2  0
  4  9  1  0
  5  6  1  0
  5 11  1  0
  6 12  1  0
  7 11  2  0
  8 11  2  0
 10 11  1  0
M  END
>  <id>  (190) 
EN300-6493391

>  <smiles>  (190) 
OC=1C=CC=C(C1Br)S(=O)(=O)F

>  <IUPAC Name>  (190) 
2-bromo-3-hydroxybenzene-1-sulfonyl fluoride

>  <CAS>  (190) 
2247102-65-2

>  <URL>  (190) 
https://www.enaminestore.com/catalog/EN300-6493391

>  <ROCS_ShapeQuery>  (190) 
_x1604L0AP1_x0771L0AP1

>  <ROCS_TanimotoCombo>  (190) 
0.893 

>  <ROCS_ShapeTanimoto>  (190) 
0.442 

>  <ROCS_ColorTanimoto>  (190) 
0.451 

>  <ROCS_RefTversky>  (190) 
0.407 

>  <ROCS_RefColorTversky>  (190) 
0.432 

>  <ROCS_RefTverskyCombo>  (190) 
0.839 

>  <ROCS_FitTversky>  (190) 
1.236 

>  <ROCS_FitColorTversky>  (190) 
1.114 

>  <ROCS_FitTverskyCombo>  (190) 
2.350 

>  <ROCS_ColorScore>  (190) 
-4.884

>  <ROCS_Overlap>  (190) 
689.571

>  <ROCS_Rank>  (190) 
341                 

$$$$
untitled-dbase-1357_0
     RDKit          3D

 10 10  0  0  0  0  0  0  0  0999 V2000
   -5.5620   11.7802  -29.1461 C   0  0  0  0  0  0  0  0  0  0  0  0
   -5.0627   11.1234  -31.8111 C   0  0  0  0  0  0  0  0  0  0  0  0
   -6.2910   10.7630  -29.7621 C   0  0  0  0  0  0  0  0  0  0  0  0
   -4.5834   12.4691  -29.8627 C   0  0  0  0  0  0  0  0  0  0  0  0
   -6.0414   10.4346  -31.0945 C   0  0  0  0  0  0  0  0  0  0  0  0
   -4.3337   12.1407  -31.1951 C   0  0  0  0  0  0  0  0  0  0  0  0
   -7.2393   10.1078  -29.0341 O   0  0  0  0  0  0  0  0  0  0  0  0
   -3.7189   13.7180  -29.0364 Cl  0  0  0  0  0  0  0  0  0  0  0  0
   -7.0128    9.0583  -31.9626 Br  0  0  0  0  0  0  0  0  0  0  0  0
   -3.0183   13.0309  -32.2388 Br  0  0  0  0  0  0  0  0  0  0  0  0
  1  3  2  0
  1  4  1  0
  2  5  2  0
  2  6  1  0
  3  5  1  0
  3  7  1  0
  4  6  2  0
  4  8  1  0
  5  9  1  0
  6 10  1  0
M  END
>  <id>  (191) 
EN300-1588091

>  <smiles>  (191) 
OC=1C=C(Cl)C(Br)=CC1Br

>  <MDLNUMBER>  (191) 
MFCD30661265

>  <IUPAC Name>  (191) 
2,4-dibromo-5-chlorophenol

>  <CAS>  (191) 
89284-48-0

>  <Purity>  (191) 
95

>  <URL>  (191) 
https://www.enaminestore.com/catalog/EN300-1588091

>  <ROCS_ShapeQuery>  (191) 
_x1604L0AP1_x0771L0AP1

>  <ROCS_TanimotoCombo>  (191) 
0.893 

>  <ROCS_ShapeTanimoto>  (191) 
0.481 

>  <ROCS_ColorTanimoto>  (191) 
0.413 

>  <ROCS_RefTversky>  (191) 
0.414 

>  <ROCS_RefColorTversky>  (191) 
0.429 

>  <ROCS_RefTverskyCombo>  (191) 
0.844 

>  <ROCS_FitTversky>  (191) 
1.499 

>  <ROCS_FitColorTversky>  (191) 
0.915 

>  <ROCS_FitTverskyCombo>  (191) 
2.414 

>  <ROCS_ColorScore>  (191) 
-4.879

>  <ROCS_Overlap>  (191) 
699.018

>  <ROCS_Rank>  (191) 
342                 

$$$$
untitled-dbase-258_6
     RDKit          3D

 15 15  0  0  0  0  0  0  0  0999 V2000
   -4.8039   12.5804  -29.3973 C   0  0  0  0  0  0  0  0  0  0  0  0
   -4.9572   11.3174  -31.4511 C   0  0  0  0  0  0  0  0  0  0  0  0
   -4.3719   12.3376  -30.7012 C   0  0  0  0  0  0  0  0  0  0  0  0
   -5.8209   11.8030  -28.8433 C   0  0  0  0  0  0  0  0  0  0  0  0
   -6.4062   10.7828  -29.5932 C   0  0  0  0  0  0  0  0  0  0  0  0
   -5.9743   10.5400  -30.8972 C   0  0  0  0  0  0  0  0  0  0  0  0
   -6.2534   12.0759  -27.4793 C   0  0  0  0  0  0  0  0  0  0  0  0
   -3.3109   13.1484  -31.2775 C   0  0  0  0  0  0  0  0  0  0  0  0
   -7.6835   11.7813  -27.1357 C   0  0  0  0  0  0  0  0  0  0  0  0
   -2.4573   14.0395  -33.3193 C   0  0  0  0  0  0  0  0  0  0  0  0
   -5.5340   12.5341  -26.5910 O   0  0  0  0  0  0  0  0  0  0  0  0
   -2.3967   13.6709  -30.6262 O   0  0  0  0  0  0  0  0  0  0  0  0
   -7.4005   10.0289  -29.0398 O   0  0  0  0  0  0  0  0  0  0  0  0
   -3.4459   13.2630  -32.6342 O   0  0  0  0  0  0  0  0  0  0  0  0
   -6.7431    9.1610  -31.9471 Br  0  0  0  0  0  0  0  0  0  0  0  0
  1  3  2  0
  1  4  1  0
  2  3  1  0
  2  6  2  0
  3  8  1  0
  4  5  2  0
  4  7  1  0
  5  6  1  0
  5 13  1  0
  6 15  1  0
  7  9  1  0
  7 11  2  0
  8 12  2  0
  8 14  1  0
 10 14  1  0
M  END
>  <id>  (192) 
EN300-132508

>  <smiles>  (192) 
COC(=O)C=1C=C(Br)C(O)=C(C1)C(=O)C

>  <MDLNUMBER>  (192) 
MFCD22690183

>  <IUPAC Name>  (192) 
methyl 3-acetyl-5-bromo-4-hydroxybenzoate

>  <CAS>  (192) 
160753-84-4

>  <Purity>  (192) 
95

>  <URL>  (192) 
https://www.enaminestore.com/catalog/EN300-132508

>  <ROCS_ShapeQuery>  (192) 
_x1604L0AP1_x0771L0AP1

>  <ROCS_TanimotoCombo>  (192) 
0.893 

>  <ROCS_ShapeTanimoto>  (192) 
0.496 

>  <ROCS_ColorTanimoto>  (192) 
0.398 

>  <ROCS_RefTversky>  (192) 
0.469 

>  <ROCS_RefColorTversky>  (192) 
0.441 

>  <ROCS_RefTverskyCombo>  (192) 
0.910 

>  <ROCS_FitTversky>  (192) 
1.132 

>  <ROCS_FitColorTversky>  (192) 
0.801 

>  <ROCS_FitTverskyCombo>  (192) 
1.933 

>  <ROCS_ColorScore>  (192) 
-5.035

>  <ROCS_Overlap>  (192) 
796.492

>  <ROCS_Rank>  (192) 
343                 

$$$$
untitled-dbase-1053_60
     RDKit          3D

 13 13  0  0  0  0  0  0  0  0999 V2000
   -4.5733   12.4571  -29.8370 C   0  0  0  0  0  0  0  0  0  0  0  0
   -5.5608   11.7723  -29.1288 C   0  0  0  0  0  0  0  0  0  0  0  0
   -5.0424   11.1141  -31.7898 C   0  0  0  0  0  0  0  0  0  0  0  0
   -4.3141   12.1280  -31.1675 C   0  0  0  0  0  0  0  0  0  0  0  0
   -6.2891   10.7584  -29.7511 C   0  0  0  0  0  0  0  0  0  0  0  0
   -6.0299   10.4293  -31.0816 C   0  0  0  0  0  0  0  0  0  0  0  0
   -3.2580   12.8606  -31.9235 C   0  0  0  0  0  0  0  0  0  0  0  0
   -3.5360   12.9572  -33.4282 C   0  0  0  0  0  0  0  0  0  0  0  0
   -6.5018   12.4747  -34.7930 N   0  0  0  0  0  0  0  0  0  0  0  0
   -4.7899   13.6813  -33.6539 N   0  0  0  0  0  0  0  0  0  0  0  0
   -5.6800   13.0483  -34.2484 N   0  0  0  0  0  0  0  0  0  0  0  0
   -7.2461   10.1073  -29.0310 O   0  0  0  0  0  0  0  0  0  0  0  0
   -6.9987    9.0562  -31.9583 Br  0  0  0  0  0  0  0  0  0  0  0  0
  1  2  2  0
  1  4  1  0
  2  5  1  0
  3  4  2  0
  3  6  1  0
  4  7  1  0
  5  6  2  0
  5 12  1  0
  6 13  1  0
  7  8  1  0
  8 10  1  0
  9 11  2  0
 10 11  2  0
M  CHG  2   9  -1  11   1
M  END
>  <id>  (193) 
EN300-1904767

>  <smiles>  (193) 
OC=1C=CC(CCN=[N+]=[N-])=CC1Br

>  <IUPAC Name>  (193) 
4-(2-azidoethyl)-2-bromophenol

>  <CAS>  (193) 
1826824-07-0

>  <URL>  (193) 
https://www.enaminestore.com/catalog/EN300-1904767

>  <ROCS_ShapeQuery>  (193) 
_x1604L0AP1_x0771L0AP1

>  <ROCS_TanimotoCombo>  (193) 
0.893 

>  <ROCS_ShapeTanimoto>  (193) 
0.442 

>  <ROCS_ColorTanimoto>  (193) 
0.451 

>  <ROCS_RefTversky>  (193) 
0.416 

>  <ROCS_RefColorTversky>  (193) 
0.431 

>  <ROCS_RefTverskyCombo>  (193) 
0.847 

>  <ROCS_FitTversky>  (193) 
1.167 

>  <ROCS_FitColorTversky>  (193) 
1.113 

>  <ROCS_FitTverskyCombo>  (193) 
2.279 

>  <ROCS_ColorScore>  (193) 
-4.879

>  <ROCS_Overlap>  (193) 
704.997

>  <ROCS_Rank>  (193) 
345                 

$$$$
untitled-dbase-458_147
     RDKit          3D

 15 15  0  0  1  0  0  0  0  0999 V2000
   -4.3478   12.1832  -31.1607 C   0  0  0  0  0  0  0  0  0  0  0  0
   -4.6116   12.5028  -29.8289 C   0  0  0  0  0  0  0  0  0  0  0  0
   -5.0580   11.1582  -31.7859 C   0  0  0  0  0  0  0  0  0  0  0  0
   -5.5854   11.7974  -29.1221 C   0  0  0  0  0  0  0  0  0  0  0  0
   -6.2956   10.7724  -29.7471 C   0  0  0  0  0  0  0  0  0  0  0  0
   -6.0319   10.4528  -31.0790 C   0  0  0  0  0  0  0  0  0  0  0  0
   -3.2530   11.1067  -33.5380 C   0  0  0  0  0  0  0  0  0  0  0  0
   -5.0602   13.1818  -27.2610 C   0  0  0  0  0  0  0  0  0  0  0  0
   -5.6256   11.6394  -34.2071 C   0  0  0  0  0  0  0  0  0  0  0  0
   -4.7383   10.8562  -33.2147 C   0  0  2  0  0  0  0  0  0  0  0  0
   -6.6807    9.8644  -35.2620 N   0  0  0  0  0  0  0  0  0  0  0  0
   -7.2437   10.0971  -29.0346 O   0  0  0  0  0  0  0  0  0  0  0  0
   -5.8316   12.1214  -27.8218 O   0  0  0  0  0  0  0  0  0  0  0  0
   -6.8763   10.9738  -34.3430 O   0  0  0  0  0  0  0  0  0  0  0  0
   -7.0121    9.0588  -31.9269 Br  0  0  0  0  0  0  0  0  0  0  0  0
  1  2  2  0
  1  3  1  0
  2  4  1  0
  3  6  2  0
  3 10  1  0
  4  5  2  0
  4 13  1  0
  5  6  1  0
  5 12  1  0
  6 15  1  0
 10  7  1  6
  8 13  1  0
  9 10  1  0
  9 14  1  0
 11 14  1  0
M  END
>  <id>  (194) 
EN300-1935611

>  <smiles>  (194) 
COC=1C=CC(C(C)CON)=C(Br)C1O

>  <IUPAC Name>  (194) 
3-[1-(aminooxy)propan-2-yl]-2-bromo-6-methoxyphenol

>  <CAS>  (194) 
2228167-06-2

>  <URL>  (194) 
https://www.enaminestore.com/catalog/EN300-1935611

>  <ROCS_ShapeQuery>  (194) 
_x1604L0AP1_x0771L0AP1

>  <ROCS_TanimotoCombo>  (194) 
0.893 

>  <ROCS_ShapeTanimoto>  (194) 
0.510 

>  <ROCS_ColorTanimoto>  (194) 
0.383 

>  <ROCS_RefTversky>  (194) 
0.474 

>  <ROCS_RefColorTversky>  (194) 
0.429 

>  <ROCS_RefTverskyCombo>  (194) 
0.903 

>  <ROCS_FitTversky>  (194) 
1.176 

>  <ROCS_FitColorTversky>  (194) 
0.780 

>  <ROCS_FitTverskyCombo>  (194) 
1.955 

>  <ROCS_ColorScore>  (194) 
-4.902

>  <ROCS_Overlap>  (194) 
804.843

>  <ROCS_Rank>  (194) 
348                 

$$$$
untitled-dbase-2091_570
     RDKit          3D

 13 13  0  0  0  0  0  0  0  0999 V2000
   -4.3591   12.1201  -30.1459 C   0  0  0  0  0  0  0  0  0  0  0  0
   -5.3281   11.5646  -29.3104 C   0  0  0  0  0  0  0  0  0  0  0  0
   -4.3296   11.7841  -31.4995 C   0  0  0  0  0  0  0  0  0  0  0  0
   -6.2675   10.6731  -29.8283 C   0  0  0  0  0  0  0  0  0  0  0  0
   -5.2691   10.8926  -32.0174 C   0  0  0  0  0  0  0  0  0  0  0  0
   -6.2381   10.3371  -31.1818 C   0  0  0  0  0  0  0  0  0  0  0  0
   -5.6587    8.9441  -35.0373 C   0  0  0  0  0  0  0  0  0  0  0  0
   -5.5131    7.4938  -35.4787 C   0  0  0  0  0  0  0  0  0  0  0  0
   -5.0089    9.2186  -33.6864 C   0  0  0  0  0  0  0  0  0  0  0  0
   -6.1308    6.5747  -34.5622 N   0  0  0  0  0  0  0  0  0  0  0  0
   -7.2000   10.1500  -28.9823 O   0  0  0  0  0  0  0  0  0  0  0  0
   -5.2095   10.5854  -33.3517 O   0  0  0  0  0  0  0  0  0  0  0  0
   -7.5189    9.1217  -31.8879 Br  0  0  0  0  0  0  0  0  0  0  0  0
  1  2  2  0
  1  3  1  0
  2  4  1  0
  3  5  2  0
  4  6  2  0
  4 11  1  0
  5  6  1  0
  5 12  1  0
  6 13  1  0
  7  8  1  0
  7  9  1  0
  8 10  1  0
  9 12  1  0
M  END
>  <id>  (195) 
EN300-1904617

>  <smiles>  (195) 
NCCCOC=1C=CC=C(O)C1Br

>  <IUPAC Name>  (195) 
3-(3-aminopropoxy)-2-bromophenol

>  <CAS>  (195) 
2228863-00-9

>  <URL>  (195) 
https://www.enaminestore.com/catalog/EN300-1904617

>  <ROCS_ShapeQuery>  (195) 
_x1604L0AP1_x0771L0AP1

>  <ROCS_TanimotoCombo>  (195) 
0.893 

>  <ROCS_ShapeTanimoto>  (195) 
0.477 

>  <ROCS_ColorTanimoto>  (195) 
0.416 

>  <ROCS_RefTversky>  (195) 
0.437 

>  <ROCS_RefColorTversky>  (195) 
0.479 

>  <ROCS_RefTverskyCombo>  (195) 
0.916 

>  <ROCS_FitTversky>  (195) 
1.238 

>  <ROCS_FitColorTversky>  (195) 
0.759 

>  <ROCS_FitTverskyCombo>  (195) 
1.997 

>  <ROCS_ColorScore>  (195) 
-5.489

>  <ROCS_Overlap>  (195) 
740.516

>  <ROCS_Rank>  (195) 
350                 

$$$$
untitled-dbase-1587_42
     RDKit          3D

 13 14  0  0  0  0  0  0  0  0999 V2000
   -4.6073   12.4910  -29.8685 C   0  0  0  0  0  0  0  0  0  0  0  0
   -4.3596   12.1679  -31.2026 C   0  0  0  0  0  0  0  0  0  0  0  0
   -5.5752   11.7899  -29.1492 C   0  0  0  0  0  0  0  0  0  0  0  0
   -5.0798   11.1437  -31.8175 C   0  0  0  0  0  0  0  0  0  0  0  0
   -6.2954   10.7658  -29.7641 C   0  0  0  0  0  0  0  0  0  0  0  0
   -6.0478   10.4427  -31.0983 C   0  0  0  0  0  0  0  0  0  0  0  0
   -6.4130   12.3256  -34.5862 C   0  0  0  0  0  0  0  0  0  0  0  0
   -7.2238   11.5901  -33.5595 C   0  0  0  0  0  0  0  0  0  0  0  0
   -5.9890   10.9422  -34.1454 C   0  0  0  0  0  0  0  0  0  0  0  0
   -4.7733   10.8331  -33.2656 C   0  0  0  0  0  0  0  0  0  0  0  0
   -6.1622    9.8169  -35.0885 N   0  0  0  0  0  0  0  0  0  0  0  0
   -7.2340   10.1032  -29.0298 O   0  0  0  0  0  0  0  0  0  0  0  0
   -7.0364    9.0434  -31.9263 Br  0  0  0  0  0  0  0  0  0  0  0  0
  1  2  2  0
  1  3  1  0
  2  4  1  0
  3  5  2  0
  4  6  2  0
  4 10  1  0
  5  6  1  0
  5 12  1  0
  6 13  1  0
  7  8  1  0
  7  9  1  0
  8  9  1  0
  9 10  1  0
  9 11  1  0
M  END
>  <id>  (196) 
EN300-1904509

>  <smiles>  (196) 
NC1(CC=2C=CC=C(O)C2Br)CC1

>  <IUPAC Name>  (196) 
3-[(1-aminocyclopropyl)methyl]-2-bromophenol

>  <CAS>  (196) 
2229143-38-6

>  <URL>  (196) 
https://www.enaminestore.com/catalog/EN300-1904509

>  <ROCS_ShapeQuery>  (196) 
_x1604L0AP1_x0771L0AP1

>  <ROCS_TanimotoCombo>  (196) 
0.892 

>  <ROCS_ShapeTanimoto>  (196) 
0.512 

>  <ROCS_ColorTanimoto>  (196) 
0.381 

>  <ROCS_RefTversky>  (196) 
0.460 

>  <ROCS_RefColorTversky>  (196) 
0.428 

>  <ROCS_RefTverskyCombo>  (196) 
0.888 

>  <ROCS_FitTversky>  (196) 
1.278 

>  <ROCS_FitColorTversky>  (196) 
0.777 

>  <ROCS_FitTverskyCombo>  (196) 
2.055 

>  <ROCS_ColorScore>  (196) 
-4.882

>  <ROCS_Overlap>  (196) 
780.449

>  <ROCS_Rank>  (196) 
351                 

$$$$
untitled-dbase-982_53
     RDKit          3D

 14 14  0  0  0  0  0  0  0  0999 V2000
   -4.6000   12.4849  -29.8493 C   0  0  0  0  0  0  0  0  0  0  0  0
   -4.3485   12.1670  -31.1840 C   0  0  0  0  0  0  0  0  0  0  0  0
   -5.5734   11.7843  -29.1369 C   0  0  0  0  0  0  0  0  0  0  0  0
   -5.0705   11.1487  -31.8063 C   0  0  0  0  0  0  0  0  0  0  0  0
   -6.2954   10.7660  -29.7593 C   0  0  0  0  0  0  0  0  0  0  0  0
   -6.0440   10.4481  -31.0940 C   0  0  0  0  0  0  0  0  0  0  0  0
   -3.6418   11.7326  -33.8793 C   0  0  0  0  0  0  0  0  0  0  0  0
   -4.2654    9.3757  -33.3960 C   0  0  0  0  0  0  0  0  0  0  0  0
   -6.0272   11.0047  -34.1506 C   0  0  0  0  0  0  0  0  0  0  0  0
   -4.7542   10.8379  -33.2813 C   0  0  0  0  0  0  0  0  0  0  0  0
   -7.2392   10.0826  -35.8991 N   0  0  0  0  0  0  0  0  0  0  0  0
   -7.2392   10.1037  -29.0316 O   0  0  0  0  0  0  0  0  0  0  0  0
   -5.8993   10.2864  -35.3731 O   0  0  0  0  0  0  0  0  0  0  0  0
   -7.0350    9.0567  -31.9323 Br  0  0  0  0  0  0  0  0  0  0  0  0
  1  2  2  0
  1  3  1  0
  2  4  1  0
  3  5  2  0
  4  6  2  0
  4 10  1  0
  5  6  1  0
  5 12  1  0
  6 14  1  0
  7 10  1  0
  8 10  1  0
  9 10  1  0
  9 13  1  0
 11 13  1  0
M  END
>  <id>  (197) 
EN300-1904524

>  <smiles>  (197) 
CC(C)(CON)C=1C=CC=C(O)C1Br

>  <IUPAC Name>  (197) 
3-[1-(aminooxy)-2-methylpropan-2-yl]-2-bromophenol

>  <CAS>  (197) 
2229558-55-6

>  <URL>  (197) 
https://www.enaminestore.com/catalog/EN300-1904524

>  <ROCS_ShapeQuery>  (197) 
_x1604L0AP1_x0771L0AP1

>  <ROCS_TanimotoCombo>  (197) 
0.892 

>  <ROCS_ShapeTanimoto>  (197) 
0.479 

>  <ROCS_ColorTanimoto>  (197) 
0.413 

>  <ROCS_RefTversky>  (197) 
0.446 

>  <ROCS_RefColorTversky>  (197) 
0.430 

>  <ROCS_RefTverskyCombo>  (197) 
0.876 

>  <ROCS_FitTversky>  (197) 
1.180 

>  <ROCS_FitColorTversky>  (197) 
0.915 

>  <ROCS_FitTverskyCombo>  (197) 
2.095 

>  <ROCS_ColorScore>  (197) 
-4.883

>  <ROCS_Overlap>  (197) 
756.955

>  <ROCS_Rank>  (197) 
356                 

$$$$
untitled-dbase-1738_14
     RDKit          3D

 14 14  0  0  0  0  0  0  0  0999 V2000
   -4.3500   12.1704  -31.1863 C   0  0  0  0  0  0  0  0  0  0  0  0
   -4.6025   12.4937  -29.8532 C   0  0  0  0  0  0  0  0  0  0  0  0
   -5.0686   11.1468  -31.8039 C   0  0  0  0  0  0  0  0  0  0  0  0
   -5.5737   11.7934  -29.1376 C   0  0  0  0  0  0  0  0  0  0  0  0
   -6.2923   10.7697  -29.7552 C   0  0  0  0  0  0  0  0  0  0  0  0
   -6.0397   10.4464  -31.0884 C   0  0  0  0  0  0  0  0  0  0  0  0
   -5.9574   10.9796  -34.1630 C   0  0  0  0  0  0  0  0  0  0  0  0
   -6.0023   10.0432  -35.3430 C   0  0  0  0  0  0  0  0  0  0  0  0
   -5.0295   13.1796  -27.2834 C   0  0  0  0  0  0  0  0  0  0  0  0
   -4.7606   10.8406  -33.2345 C   0  0  0  0  0  0  0  0  0  0  0  0
   -6.8507   11.8051  -33.9780 O   0  0  0  0  0  0  0  0  0  0  0  0
   -7.2374   10.0993  -29.0342 O   0  0  0  0  0  0  0  0  0  0  0  0
   -5.8089   12.1209  -27.8362 O   0  0  0  0  0  0  0  0  0  0  0  0
   -7.0312    9.0542  -31.9260 Br  0  0  0  0  0  0  0  0  0  0  0  0
  1  2  2  0
  1  3  1  0
  2  4  1  0
  3  6  2  0
  3 10  1  0
  4  5  2  0
  4 13  1  0
  5  6  1  0
  5 12  1  0
  6 14  1  0
  7  8  1  0
  7 10  1  0
  7 11  2  0
  9 13  1  0
M  END
>  <id>  (198) 
EN300-1893165

>  <smiles>  (198) 
COC=1C=CC(CC(=O)C)=C(Br)C1O

>  <MDLNUMBER>  (198) 
MFCD07783673

>  <IUPAC Name>  (198) 
1-(2-bromo-3-hydroxy-4-methoxyphenyl)propan-2-one

>  <CAS>  (198) 
1379312-63-6

>  <URL>  (198) 
https://www.enaminestore.com/catalog/EN300-1893165

>  <ROCS_ShapeQuery>  (198) 
_x1604L0AP1_x0771L0AP1

>  <ROCS_TanimotoCombo>  (198) 
0.892 

>  <ROCS_ShapeTanimoto>  (198) 
0.509 

>  <ROCS_ColorTanimoto>  (198) 
0.383 

>  <ROCS_RefTversky>  (198) 
0.466 

>  <ROCS_RefColorTversky>  (198) 
0.429 

>  <ROCS_RefTverskyCombo>  (198) 
0.896 

>  <ROCS_FitTversky>  (198) 
1.216 

>  <ROCS_FitColorTversky>  (198) 
0.780 

>  <ROCS_FitTverskyCombo>  (198) 
1.996 

>  <ROCS_ColorScore>  (198) 
-4.902

>  <ROCS_Overlap>  (198) 
791.714

>  <ROCS_Rank>  (198) 
360                 

$$$$
untitled-dbase-2292_5
     RDKit          3D

 11 11  0  0  0  0  0  0  0  0999 V2000
   -4.5975   12.4981  -29.8639 C   0  0  0  0  0  0  0  0  0  0  0  0
   -5.0809   11.1476  -31.8080 C   0  0  0  0  0  0  0  0  0  0  0  0
   -4.3550   12.1707  -31.1979 C   0  0  0  0  0  0  0  0  0  0  0  0
   -6.2915   10.7793  -29.7499 C   0  0  0  0  0  0  0  0  0  0  0  0
   -5.5656   11.8023  -29.1398 C   0  0  0  0  0  0  0  0  0  0  0  0
   -6.0491   10.4519  -31.0839 C   0  0  0  0  0  0  0  0  0  0  0  0
   -3.3461   12.8967  -31.9531 C   0  0  0  0  0  0  0  0  0  0  0  0
   -2.1632   12.5489  -32.0046 O   0  0  0  0  0  0  0  0  0  0  0  0
   -7.2382   10.1001  -29.0382 O   0  0  0  0  0  0  0  0  0  0  0  0
   -5.8401   12.2314  -27.4911 Cl  0  0  0  0  0  0  0  0  0  0  0  0
   -7.0135    9.0672  -31.9493 Br  0  0  0  0  0  0  0  0  0  0  0  0
  1  3  2  0
  1  5  1  0
  2  3  1  0
  2  6  2  0
  3  7  1  0
  4  5  2  0
  4  6  1  0
  4  9  1  0
  5 10  1  0
  6 11  1  0
  7  8  2  0
M  END
>  <id>  (199) 
EN300-7418405

>  <smiles>  (199) 
OC=1C(Cl)=CC(C=O)=CC1Br

>  <MDLNUMBER>  (199) 
MFCD04129026

>  <IUPAC Name>  (199) 
3-bromo-5-chloro-4-hydroxybenzaldehyde

>  <URL>  (199) 
https://www.enaminestore.com/catalog/EN300-7418405

>  <ROCS_ShapeQuery>  (199) 
_x1604L0AP1_x0771L0AP1

>  <ROCS_TanimotoCombo>  (199) 
0.891 

>  <ROCS_ShapeTanimoto>  (199) 
0.478 

>  <ROCS_ColorTanimoto>  (199) 
0.413 

>  <ROCS_RefTversky>  (199) 
0.424 

>  <ROCS_RefColorTversky>  (199) 
0.429 

>  <ROCS_RefTverskyCombo>  (199) 
0.853 

>  <ROCS_FitTversky>  (199) 
1.371 

>  <ROCS_FitColorTversky>  (199) 
0.915 

>  <ROCS_FitTverskyCombo>  (199) 
2.286 

>  <ROCS_ColorScore>  (199) 
-4.881

>  <ROCS_Overlap>  (199) 
716.007

>  <ROCS_Rank>  (199) 
362                 

$$$$
untitled-dbase-322_46
     RDKit          3D

 14 15  0  0  0  0  0  0  0  0999 V2000
   -4.6044   12.4875  -29.8702 C   0  0  0  0  0  0  0  0  0  0  0  0
   -4.3576   12.1632  -31.2042 C   0  0  0  0  0  0  0  0  0  0  0  0
   -5.5726   11.7879  -29.1500 C   0  0  0  0  0  0  0  0  0  0  0  0
   -5.0791   11.1393  -31.8180 C   0  0  0  0  0  0  0  0  0  0  0  0
   -6.2941   10.7640  -29.7637 C   0  0  0  0  0  0  0  0  0  0  0  0
   -6.0474   10.4397  -31.0977 C   0  0  0  0  0  0  0  0  0  0  0  0
   -6.4126   12.3203  -34.5869 C   0  0  0  0  0  0  0  0  0  0  0  0
   -7.2236   11.5864  -33.5592 C   0  0  0  0  0  0  0  0  0  0  0  0
   -5.9897   10.9369  -34.1453 C   0  0  0  0  0  0  0  0  0  0  0  0
   -5.0915    9.8043  -36.0613 C   0  0  0  0  0  0  0  0  0  0  0  0
   -4.7737   10.8272  -33.2660 C   0  0  0  0  0  0  0  0  0  0  0  0
   -6.1644    9.8110  -35.0875 N   0  0  0  0  0  0  0  0  0  0  0  0
   -7.2329   10.1028  -29.0285 O   0  0  0  0  0  0  0  0  0  0  0  0
   -7.0377    9.0407  -31.9242 Br  0  0  0  0  0  0  0  0  0  0  0  0
  1  2  2  0
  1  3  1  0
  2  4  1  0
  3  5  2  0
  4  6  2  0
  4 11  1  0
  5  6  1  0
  5 13  1  0
  6 14  1  0
  7  8  1  0
  7  9  1  0
  8  9  1  0
  9 11  1  0
  9 12  1  0
 10 12  1  0
M  END
>  <id>  (200) 
EN300-1904618

>  <smiles>  (200) 
CNC1(CC=2C=CC=C(O)C2Br)CC1

>  <IUPAC Name>  (200) 
2-bromo-3-{[1-(methylamino)cyclopropyl]methyl}phenol

>  <CAS>  (200) 
2229314-12-7

>  <URL>  (200) 
https://www.enaminestore.com/catalog/EN300-1904618

>  <ROCS_ShapeQuery>  (200) 
_x1604L0AP1_x0771L0AP1

>  <ROCS_TanimotoCombo>  (200) 
0.891 

>  <ROCS_ShapeTanimoto>  (200) 
0.511 

>  <ROCS_ColorTanimoto>  (200) 
0.381 

>  <ROCS_RefTversky>  (200) 
0.468 

>  <ROCS_RefColorTversky>  (200) 
0.428 

>  <ROCS_RefTverskyCombo>  (200) 
0.895 

>  <ROCS_FitTversky>  (200) 
1.219 

>  <ROCS_FitColorTversky>  (200) 
0.777 

>  <ROCS_FitTverskyCombo>  (200) 
1.996 

>  <ROCS_ColorScore>  (200) 
-4.881

>  <ROCS_Overlap>  (200) 
793.694

>  <ROCS_Rank>  (200) 
363                 

$$$$
untitled-dbase-1265_398
     RDKit          3D

 15 15  0  0  0  0  0  0  0  0999 V2000
   -4.3823   12.0935  -30.2809 C   0  0  0  0  0  0  0  0  0  0  0  0
   -4.3119   11.6461  -31.6002 C   0  0  0  0  0  0  0  0  0  0  0  0
   -5.3601   11.5879  -29.4242 C   0  0  0  0  0  0  0  0  0  0  0  0
   -5.2194   10.6932  -32.0629 C   0  0  0  0  0  0  0  0  0  0  0  0
   -6.2676   10.6349  -29.8869 C   0  0  0  0  0  0  0  0  0  0  0  0
   -6.1972   10.1876  -31.2062 C   0  0  0  0  0  0  0  0  0  0  0  0
   -5.0981   10.2589  -33.4664 C   0  0  0  0  0  0  0  0  0  0  0  0
   -5.8574    8.0333  -34.5381 C   0  0  0  0  0  0  0  0  0  0  0  0
   -7.4231    8.3337  -36.2890 C   0  0  0  0  0  0  0  0  0  0  0  0
   -4.8216    8.7836  -33.7324 C   0  0  0  0  0  0  0  0  0  0  0  0
   -5.2018   11.0502  -34.4045 O   0  0  0  0  0  0  0  0  0  0  0  0
   -6.1223    6.8444  -34.4326 O   0  0  0  0  0  0  0  0  0  0  0  0
   -7.2095   10.1641  -29.0207 O   0  0  0  0  0  0  0  0  0  0  0  0
   -6.4320    8.9006  -35.4260 O   0  0  0  0  0  0  0  0  0  0  0  0
   -7.4436    8.8862  -31.8214 Br  0  0  0  0  0  0  0  0  0  0  0  0
  1  2  2  0
  1  3  1  0
  2  4  1  0
  3  5  2  0
  4  6  2  0
  4  7  1  0
  5  6  1  0
  5 13  1  0
  6 15  1  0
  7 10  1  0
  7 11  2  0
  8 10  1  0
  8 12  2  0
  8 14  1  0
  9 14  1  0
M  END
>  <id>  (201) 
EN300-1904499

>  <smiles>  (201) 
COC(=O)CC(=O)C=1C=CC=C(O)C1Br

>  <IUPAC Name>  (201) 
methyl 3-(2-bromo-3-hydroxyphenyl)-3-oxopropanoate

>  <CAS>  (201) 
2229547-92-4

>  <URL>  (201) 
https://www.enaminestore.com/catalog/EN300-1904499

>  <ROCS_ShapeQuery>  (201) 
_x1604L0AP1_x0771L0AP1

>  <ROCS_TanimotoCombo>  (201) 
0.891 

>  <ROCS_ShapeTanimoto>  (201) 
0.491 

>  <ROCS_ColorTanimoto>  (201) 
0.400 

>  <ROCS_RefTversky>  (201) 
0.464 

>  <ROCS_RefColorTversky>  (201) 
0.466 

>  <ROCS_RefTverskyCombo>  (201) 
0.930 

>  <ROCS_FitTversky>  (201) 
1.132 

>  <ROCS_FitColorTversky>  (201) 
0.739 

>  <ROCS_FitTverskyCombo>  (201) 
1.871 

>  <ROCS_ColorScore>  (201) 
-5.346

>  <ROCS_Overlap>  (201) 
788.505

>  <ROCS_Rank>  (201) 
366                 

$$$$
untitled-dbase-655_39
     RDKit          3D

 14 14  0  0  1  0  0  0  0  0999 V2000
   -4.5968   12.4804  -29.8429 C   0  0  0  0  0  0  0  0  0  0  0  0
   -4.3421   12.1636  -31.1772 C   0  0  0  0  0  0  0  0  0  0  0  0
   -5.5726   11.7799  -29.1337 C   0  0  0  0  0  0  0  0  0  0  0  0
   -5.0634   11.1466  -31.8024 C   0  0  0  0  0  0  0  0  0  0  0  0
   -6.2939   10.7629  -29.7590 C   0  0  0  0  0  0  0  0  0  0  0  0
   -6.0393   10.4462  -31.0934 C   0  0  0  0  0  0  0  0  0  0  0  0
   -4.2646    9.3903  -33.5130 C   0  0  0  0  0  0  0  0  0  0  0  0
   -5.9940   11.0809  -34.1386 C   0  0  0  0  0  0  0  0  0  0  0  0
   -4.7444   10.8380  -33.2726 C   0  0  1  0  0  0  0  0  0  0  0  0
   -3.6685   11.7192  -33.7653 N   0  0  0  0  0  0  0  0  0  0  0  0
   -7.2403   10.1007  -29.0344 O   0  0  0  0  0  0  0  0  0  0  0  0
   -7.0503   11.4690  -33.3809 F   0  0  0  0  0  0  0  0  0  0  0  0
   -6.3651    9.9304  -34.7583 F   0  0  0  0  0  0  0  0  0  0  0  0
   -7.0295    9.0565  -31.9356 Br  0  0  0  0  0  0  0  0  0  0  0  0
  1  2  2  0
  1  3  1  0
  2  4  1  0
  3  5  2  0
  4  6  2  0
  4  9  1  0
  5  6  1  0
  5 11  1  0
  6 14  1  0
  9  7  1  1
  8  9  1  0
  8 12  1  0
  8 13  1  0
  9 10  1  0
M  END
>  <id>  (202) 
EN300-1951057

>  <smiles>  (202) 
CC(N)(C(F)F)C=1C=CC=C(O)C1Br

>  <IUPAC Name>  (202) 
3-(2-amino-1,1-difluoropropan-2-yl)-2-bromophenol

>  <CAS>  (202) 
2228926-30-3

>  <URL>  (202) 
https://www.enaminestore.com/catalog/EN300-1951057

>  <ROCS_ShapeQuery>  (202) 
_x1604L0AP1_x0771L0AP1

>  <ROCS_TanimotoCombo>  (202) 
0.891 

>  <ROCS_ShapeTanimoto>  (202) 
0.510 

>  <ROCS_ColorTanimoto>  (202) 
0.381 

>  <ROCS_RefTversky>  (202) 
0.469 

>  <ROCS_RefColorTversky>  (202) 
0.428 

>  <ROCS_RefTverskyCombo>  (202) 
0.896 

>  <ROCS_FitTversky>  (202) 
1.209 

>  <ROCS_FitColorTversky>  (202) 
0.777 

>  <ROCS_FitTverskyCombo>  (202) 
1.986 

>  <ROCS_ColorScore>  (202) 
-4.883

>  <ROCS_Overlap>  (202) 
795.414

>  <ROCS_Rank>  (202) 
368                 

$$$$
untitled-dbase-939_34
     RDKit          3D

 12 12  0  0  0  0  0  0  0  0999 V2000
   -4.6086   12.4966  -29.8487 C   0  0  0  0  0  0  0  0  0  0  0  0
   -4.3593   12.1883  -31.1860 C   0  0  0  0  0  0  0  0  0  0  0  0
   -5.5766   11.7869  -29.1381 C   0  0  0  0  0  0  0  0  0  0  0  0
   -5.0781   11.1704  -31.8128 C   0  0  0  0  0  0  0  0  0  0  0  0
   -6.2954   10.7690  -29.7648 C   0  0  0  0  0  0  0  0  0  0  0  0
   -6.0461   10.4607  -31.1021 C   0  0  0  0  0  0  0  0  0  0  0  0
   -3.5224   10.5204  -33.5907 C   0  0  0  0  0  0  0  0  0  0  0  0
   -4.7691   10.8975  -33.2121 C   0  0  0  0  0  0  0  0  0  0  0  0
   -5.8662   10.9792  -34.2557 C   0  0  0  0  0  0  0  0  0  0  0  0
   -7.2329   10.0982  -29.0368 O   0  0  0  0  0  0  0  0  0  0  0  0
   -6.0869    9.4019  -35.0519 Cl  0  0  0  0  0  0  0  0  0  0  0  0
   -7.0435    9.0631  -31.9323 Br  0  0  0  0  0  0  0  0  0  0  0  0
  1  2  2  0
  1  3  1  0
  2  4  1  0
  3  5  2  0
  4  6  2  0
  4  8  1  0
  5  6  1  0
  5 10  1  0
  6 12  1  0
  7  8  2  0
  8  9  1  0
  9 11  1  0
M  END
>  <id>  (203) 
EN300-1904626

>  <smiles>  (203) 
OC=1C=CC=C(C(=C)CCl)C1Br

>  <IUPAC Name>  (203) 
2-bromo-3-(3-chloroprop-1-en-2-yl)phenol

>  <CAS>  (203) 
2229122-39-6

>  <URL>  (203) 
https://www.enaminestore.com/catalog/EN300-1904626

>  <ROCS_ShapeQuery>  (203) 
_x1604L0AP1_x0771L0AP1

>  <ROCS_TanimotoCombo>  (203) 
0.891 

>  <ROCS_ShapeTanimoto>  (203) 
0.478 

>  <ROCS_ColorTanimoto>  (203) 
0.413 

>  <ROCS_RefTversky>  (203) 
0.429 

>  <ROCS_RefColorTversky>  (203) 
0.430 

>  <ROCS_RefTverskyCombo>  (203) 
0.859 

>  <ROCS_FitTversky>  (203) 
1.308 

>  <ROCS_FitColorTversky>  (203) 
0.915 

>  <ROCS_FitTverskyCombo>  (203) 
2.223 

>  <ROCS_ColorScore>  (203) 
-4.883

>  <ROCS_Overlap>  (203) 
726.441

>  <ROCS_Rank>  (203) 
369                 

$$$$
untitled-dbase-1369_450
     RDKit          3D

 14 14  0  0  1  0  0  0  0  0999 V2000
   -4.6185   12.5021  -29.8261 C   0  0  0  0  0  0  0  0  0  0  0  0
   -5.0770   11.1657  -31.7859 C   0  0  0  0  0  0  0  0  0  0  0  0
   -4.3625   12.1876  -31.1607 C   0  0  0  0  0  0  0  0  0  0  0  0
   -5.5890   11.7945  -29.1166 C   0  0  0  0  0  0  0  0  0  0  0  0
   -6.3035   10.7726  -29.7418 C   0  0  0  0  0  0  0  0  0  0  0  0
   -6.0475   10.4582  -31.0765 C   0  0  0  0  0  0  0  0  0  0  0  0
   -5.0527   13.1712  -27.2531 C   0  0  0  0  0  0  0  0  0  0  0  0
   -2.1572   13.3928  -31.0300 C   0  0  0  0  0  0  0  0  0  0  0  0
   -3.3256   12.9449  -31.9192 C   0  0  1  0  0  0  0  0  0  0  0  0
   -7.2494   10.0927  -29.0314 O   0  0  0  0  0  0  0  0  0  0  0  0
   -2.8369   12.0918  -32.9608 O   0  0  0  0  0  0  0  0  0  0  0  0
   -5.8280   12.1137  -27.8139 O   0  0  0  0  0  0  0  0  0  0  0  0
   -2.5638   14.8757  -30.1256 Cl  0  0  0  0  0  0  0  0  0  0  0  0
   -6.9981    9.0762  -31.9600 Br  0  0  0  0  0  0  0  0  0  0  0  0
  1  3  2  0
  1  4  1  0
  2  3  1  0
  2  6  2  0
  3  9  1  0
  4  5  2  0
  4 12  1  0
  5  6  1  0
  5 10  1  0
  6 14  1  0
  7 12  1  0
  8  9  1  0
  8 13  1  0
  9 11  1  6
M  END
>  <id>  (204) 
EN300-1927034

>  <smiles>  (204) 
COC=1C=C(C=C(Br)C1O)C(O)CCl

>  <IUPAC Name>  (204) 
2-bromo-4-(2-chloro-1-hydroxyethyl)-6-methoxyphenol

>  <CAS>  (204) 
2229467-33-6

>  <URL>  (204) 
https://www.enaminestore.com/catalog/EN300-1927034

>  <ROCS_ShapeQuery>  (204) 
_x1604L0AP1_x0771L0AP1

>  <ROCS_TanimotoCombo>  (204) 
0.891 

>  <ROCS_ShapeTanimoto>  (204) 
0.536 

>  <ROCS_ColorTanimoto>  (204) 
0.355 

>  <ROCS_RefTversky>  (204) 
0.481 

>  <ROCS_RefColorTversky>  (204) 
0.427 

>  <ROCS_RefTverskyCombo>  (204) 
0.908 

>  <ROCS_FitTversky>  (204) 
1.272 

>  <ROCS_FitColorTversky>  (204) 
0.677 

>  <ROCS_FitTverskyCombo>  (204) 
1.949 

>  <ROCS_ColorScore>  (204) 
-4.897

>  <ROCS_Overlap>  (204) 
815.764

>  <ROCS_Rank>  (204) 
370                 

$$$$
untitled-dbase-8_12
     RDKit          3D

 12 12  0  0  0  0  0  0  0  0999 V2000
   -4.8177   12.6450  -29.5710 C   0  0  0  0  0  0  0  0  0  0  0  0
   -4.9693   11.2565  -31.5423 C   0  0  0  0  0  0  0  0  0  0  0  0
   -5.8231   11.8927  -28.9638 C   0  0  0  0  0  0  0  0  0  0  0  0
   -4.3908   12.3269  -30.8604 C   0  0  0  0  0  0  0  0  0  0  0  0
   -6.4016   10.8222  -29.6457 C   0  0  0  0  0  0  0  0  0  0  0  0
   -5.9747   10.5041  -30.9350 C   0  0  0  0  0  0  0  0  0  0  0  0
   -6.2517   12.2452  -27.6169 C   0  0  0  0  0  0  0  0  0  0  0  0
   -2.8630   14.1423  -30.6995 C   0  0  0  0  0  0  0  0  0  0  0  0
   -5.4895   12.2442  -26.6479 O   0  0  0  0  0  0  0  0  0  0  0  0
   -7.3856   10.0945  -29.0411 O   0  0  0  0  0  0  0  0  0  0  0  0
   -3.4102   13.0616  -31.4533 O   0  0  0  0  0  0  0  0  0  0  0  0
   -6.7344    9.0558  -31.8941 Br  0  0  0  0  0  0  0  0  0  0  0  0
  1  3  2  0
  1  4  1  0
  2  4  2  0
  2  6  1  0
  3  5  1  0
  3  7  1  0
  4 11  1  0
  5  6  2  0
  5 10  1  0
  6 12  1  0
  7  9  2  0
  8 11  1  0
M  END
>  <id>  (205) 
EN300-68557

>  <smiles>  (205) 
COC=1C=C(Br)C(O)=C(C=O)C1

>  <MDLNUMBER>  (205) 
MFCD00091938

>  <IUPAC Name>  (205) 
3-bromo-2-hydroxy-5-methoxybenzaldehyde

>  <CAS>  (205) 
50343-02-7

>  <Purity>  (205) 
95

>  <URL>  (205) 
https://www.enaminestore.com/catalog/EN300-68557

>  <MP>  (205) 
108-109

>  <ROCS_ShapeQuery>  (205) 
_x1604L0AP1_x0771L0AP1

>  <ROCS_TanimotoCombo>  (205) 
0.891 

>  <ROCS_ShapeTanimoto>  (205) 
0.493 

>  <ROCS_ColorTanimoto>  (205) 
0.397 

>  <ROCS_RefTversky>  (205) 
0.442 

>  <ROCS_RefColorTversky>  (205) 
0.441 

>  <ROCS_RefTverskyCombo>  (205) 
0.883 

>  <ROCS_FitTversky>  (205) 
1.305 

>  <ROCS_FitColorTversky>  (205) 
0.801 

>  <ROCS_FitTverskyCombo>  (205) 
2.106 

>  <ROCS_ColorScore>  (205) 
-5.033

>  <ROCS_Overlap>  (205) 
748.914

>  <ROCS_Rank>  (205) 
371                 

$$$$
untitled-dbase-18_1
     RDKit          3D

 10 10  0  0  0  0  0  0  0  0999 V2000
   -4.5839   12.4673  -29.8424 C   0  0  0  0  0  0  0  0  0  0  0  0
   -5.5644   11.7753  -29.1315 C   0  0  0  0  0  0  0  0  0  0  0  0
   -5.0577   11.1297  -31.7978 C   0  0  0  0  0  0  0  0  0  0  0  0
   -4.3307   12.1445  -31.1756 C   0  0  0  0  0  0  0  0  0  0  0  0
   -6.2914   10.7604  -29.7536 C   0  0  0  0  0  0  0  0  0  0  0  0
   -6.0382   10.4376  -31.0868 C   0  0  0  0  0  0  0  0  0  0  0  0
   -3.3077   12.8659  -31.9161 C   0  0  0  0  0  0  0  0  0  0  0  0
   -2.6314   13.7723  -31.4221 O   0  0  0  0  0  0  0  0  0  0  0  0
   -7.2431   10.1041  -29.0312 O   0  0  0  0  0  0  0  0  0  0  0  0
   -7.0072    9.0653  -31.9645 Br  0  0  0  0  0  0  0  0  0  0  0  0
  1  2  2  0
  1  4  1  0
  2  5  1  0
  3  4  2  0
  3  6  1  0
  4  7  1  0
  5  6  2  0
  5  9  1  0
  6 10  1  0
  7  8  2  0
M  END
>  <id>  (206) 
EN300-07841

>  <smiles>  (206) 
OC=1C=CC(C=O)=CC1Br

>  <MDLNUMBER>  (206) 
MFCD00017348

>  <IUPAC Name>  (206) 
3-bromo-4-hydroxybenzaldehyde

>  <CAS>  (206) 
2973-78-6

>  <Purity>  (206) 
95

>  <URL>  (206) 
https://www.enaminestore.com/catalog/EN300-07841

>  <MP>  (206) 
130-135

>  <ROCS_ShapeQuery>  (206) 
_x1604L0AP1_x0771L0AP1

>  <ROCS_TanimotoCombo>  (206) 
0.890 

>  <ROCS_ShapeTanimoto>  (206) 
0.478 

>  <ROCS_ColorTanimoto>  (206) 
0.413 

>  <ROCS_RefTversky>  (206) 
0.417 

>  <ROCS_RefColorTversky>  (206) 
0.429 

>  <ROCS_RefTverskyCombo>  (206) 
0.846 

>  <ROCS_FitTversky>  (206) 
1.443 

>  <ROCS_FitColorTversky>  (206) 
0.914 

>  <ROCS_FitTverskyCombo>  (206) 
2.358 

>  <ROCS_ColorScore>  (206) 
-4.879

>  <ROCS_Overlap>  (206) 
703.452

>  <ROCS_Rank>  (206) 
372                 

$$$$
untitled-dbase-408_10
     RDKit          3D

 11 11  0  0  0  0  0  0  0  0999 V2000
   -4.4418   12.1720  -31.4164 C   0  0  0  0  0  0  0  0  0  0  0  0
   -4.7726   12.6884  -30.1637 C   0  0  0  0  0  0  0  0  0  0  0  0
   -5.0635   11.0121  -31.8790 C   0  0  0  0  0  0  0  0  0  0  0  0
   -5.7250   12.0450  -29.3734 C   0  0  0  0  0  0  0  0  0  0  0  0
   -6.3467   10.8851  -29.8359 C   0  0  0  0  0  0  0  0  0  0  0  0
   -6.0159   10.3687  -31.0887 C   0  0  0  0  0  0  0  0  0  0  0  0
   -6.0634   12.6143  -28.0349 C   0  0  0  0  0  0  0  0  0  0  0  0
   -6.1273   12.3113  -25.7175 N   0  0  0  0  0  0  0  0  0  0  0  0
   -5.8018   11.6862  -26.9651 N   0  0  0  0  0  0  0  0  0  0  0  0
   -7.2753   10.2661  -29.0504 O   0  0  0  0  0  0  0  0  0  0  0  0
   -6.8389    8.7955  -31.7534 Br  0  0  0  0  0  0  0  0  0  0  0  0
  1  2  2  0
  1  3  1  0
  2  4  1  0
  3  6  2  0
  4  5  2  0
  4  7  1  0
  5  6  1  0
  5 10  1  0
  6 11  1  0
  7  9  1  0
  8  9  1  0
M  END
>  <id>  (207) 
EN300-1915665

>  <smiles>  (207) 
NNCC=1C=CC=C(Br)C1O

>  <MDLNUMBER>  (207) 
MFCD07786498

>  <IUPAC Name>  (207) 
2-bromo-6-(hydrazinylmethyl)phenol

>  <CAS>  (207) 
887596-34-1

>  <URL>  (207) 
https://www.enaminestore.com/catalog/EN300-1915665

>  <ROCS_ShapeQuery>  (207) 
_x1604L0AP1_x0771L0AP1

>  <ROCS_TanimotoCombo>  (207) 
0.890 

>  <ROCS_ShapeTanimoto>  (207) 
0.422 

>  <ROCS_ColorTanimoto>  (207) 
0.468 

>  <ROCS_RefTversky>  (207) 
0.389 

>  <ROCS_RefColorTversky>  (207) 
0.501 

>  <ROCS_RefTverskyCombo>  (207) 
0.889 

>  <ROCS_FitTversky>  (207) 
1.258 

>  <ROCS_FitColorTversky>  (207) 
0.877 

>  <ROCS_FitTverskyCombo>  (207) 
2.135 

>  <ROCS_ColorScore>  (207) 
-5.723

>  <ROCS_Overlap>  (207) 
657.094

>  <ROCS_Rank>  (207) 
374                 

$$$$
untitled-dbase-463_227
     RDKit          3D

 14 14  0  0  1  0  0  0  0  0999 V2000
   -4.5826   12.4673  -29.8100 C   0  0  0  0  0  0  0  0  0  0  0  0
   -5.0486   11.1381  -31.7729 C   0  0  0  0  0  0  0  0  0  0  0  0
   -4.3232   12.1495  -31.1432 C   0  0  0  0  0  0  0  0  0  0  0  0
   -5.5672   11.7735  -29.1065 C   0  0  0  0  0  0  0  0  0  0  0  0
   -6.2925   10.7621  -29.7362 C   0  0  0  0  0  0  0  0  0  0  0  0
   -6.0332   10.4444  -31.0694 C   0  0  0  0  0  0  0  0  0  0  0  0
   -2.4659   15.0929  -32.4371 C   0  0  0  0  0  0  0  0  0  0  0  0
   -5.0223   13.1418  -27.2393 C   0  0  0  0  0  0  0  0  0  0  0  0
   -3.2711   12.8922  -31.8952 C   0  0  0  0  0  0  0  0  0  0  0  0
   -3.1242   14.2499  -31.4354 N   0  0  0  0  0  0  0  0  0  0  0  0
   -7.2523   10.0956  -29.0317 O   0  0  0  0  0  0  0  0  0  0  0  0
   -2.1619   14.1831  -30.3426 O   0  0  0  0  0  0  0  0  0  0  0  0
   -5.8093   12.0957  -27.8051 O   0  0  0  0  0  0  0  0  0  0  0  0
   -6.9982    9.0763  -31.9590 Br  0  0  0  0  0  0  0  0  0  0  0  0
  1  3  2  0
  1  4  1  0
  2  3  1  0
  2  6  2  0
  3  9  1  0
  4  5  2  0
  4 13  1  0
  5  6  1  0
  5 11  1  0
  6 14  1  0
  7 10  1  0
  8 13  1  0
  9 10  1  0
 10 12  1  0
M  END
>  <id>  (208) 
EN300-1926974

>  <smiles>  (208) 
COC=1C=C(CN(C)O)C=C(Br)C1O

>  <IUPAC Name>  (208) 
2-bromo-4-{[hydroxy(methyl)amino]methyl}-6-methoxyphenol

>  <CAS>  (208) 
2229368-19-6

>  <URL>  (208) 
https://www.enaminestore.com/catalog/EN300-1926974

>  <ROCS_ShapeQuery>  (208) 
_x1604L0AP1_x0771L0AP1

>  <ROCS_TanimotoCombo>  (208) 
0.890 

>  <ROCS_ShapeTanimoto>  (208) 
0.508 

>  <ROCS_ColorTanimoto>  (208) 
0.383 

>  <ROCS_RefTversky>  (208) 
0.466 

>  <ROCS_RefColorTversky>  (208) 
0.429 

>  <ROCS_RefTverskyCombo>  (208) 
0.895 

>  <ROCS_FitTversky>  (208) 
1.215 

>  <ROCS_FitColorTversky>  (208) 
0.779 

>  <ROCS_FitTverskyCombo>  (208) 
1.995 

>  <ROCS_ColorScore>  (208) 
-4.898

>  <ROCS_Overlap>  (208) 
790.409

>  <ROCS_Rank>  (208) 
375                 

$$$$
untitled-dbase-2148_180
     RDKit          3D

 13 13  0  0  0  0  0  0  0  0999 V2000
   -4.3482   12.1761  -31.1736 C   0  0  0  0  0  0  0  0  0  0  0  0
   -4.6050   12.4955  -29.8403 C   0  0  0  0  0  0  0  0  0  0  0  0
   -5.0639   11.1532  -31.7960 C   0  0  0  0  0  0  0  0  0  0  0  0
   -5.5773   11.7921  -29.1294 C   0  0  0  0  0  0  0  0  0  0  0  0
   -6.2930   10.7692  -29.7518 C   0  0  0  0  0  0  0  0  0  0  0  0
   -6.0362   10.4498  -31.0851 C   0  0  0  0  0  0  0  0  0  0  0  0
   -5.0401   13.1740  -27.2700 C   0  0  0  0  0  0  0  0  0  0  0  0
   -4.7515   10.8512  -33.2265 C   0  0  0  0  0  0  0  0  0  0  0  0
   -5.9581   10.9009  -34.1761 C   0  0  0  0  0  0  0  0  0  0  0  0
   -7.2394   10.0958  -29.0353 O   0  0  0  0  0  0  0  0  0  0  0  0
   -5.8167   12.1158  -27.8278 O   0  0  0  0  0  0  0  0  0  0  0  0
   -6.7432   12.5418  -34.2207 S   0  0  0  0  0  0  0  0  0  0  0  0
   -7.0238    9.0587  -31.9293 Br  0  0  0  0  0  0  0  0  0  0  0  0
  1  2  2  0
  1  3  1  0
  2  4  1  0
  3  6  2  0
  3  8  1  0
  4  5  2  0
  4 11  1  0
  5  6  1  0
  5 10  1  0
  6 13  1  0
  7 11  1  0
  8  9  1  0
  9 12  1  0
M  END
>  <id>  (209) 
EN300-1936286

>  <smiles>  (209) 
COC=1C=CC(CCS)=C(Br)C1O

>  <IUPAC Name>  (209) 
2-bromo-6-methoxy-3-(2-sulfanylethyl)phenol

>  <CAS>  (209) 
2228192-30-9

>  <URL>  (209) 
https://www.enaminestore.com/catalog/EN300-1936286

>  <ROCS_ShapeQuery>  (209) 
_x1604L0AP1_x0771L0AP1

>  <ROCS_TanimotoCombo>  (209) 
0.890 

>  <ROCS_ShapeTanimoto>  (209) 
0.474 

>  <ROCS_ColorTanimoto>  (209) 
0.415 

>  <ROCS_RefTversky>  (209) 
0.435 

>  <ROCS_RefColorTversky>  (209) 
0.431 

>  <ROCS_RefTverskyCombo>  (209) 
0.866 

>  <ROCS_FitTversky>  (209) 
1.237 

>  <ROCS_FitColorTversky>  (209) 
0.919 

>  <ROCS_FitTverskyCombo>  (209) 
2.155 

>  <ROCS_ColorScore>  (209) 
-4.902

>  <ROCS_Overlap>  (209) 
736.783

>  <ROCS_Rank>  (209) 
376                 

$$$$
untitled-dbase-824_3
     RDKit          3D

 12 12  0  0  0  0  0  0  0  0999 V2000
   -4.6027   12.4854  -29.8369 C   0  0  0  0  0  0  0  0  0  0  0  0
   -5.5776   11.7825  -29.1291 C   0  0  0  0  0  0  0  0  0  0  0  0
   -4.3476   12.1714  -31.1718 C   0  0  0  0  0  0  0  0  0  0  0  0
   -6.2974   10.7654  -29.7562 C   0  0  0  0  0  0  0  0  0  0  0  0
   -5.0673   11.1544  -31.7989 C   0  0  0  0  0  0  0  0  0  0  0  0
   -6.0422   10.4514  -31.0911 C   0  0  0  0  0  0  0  0  0  0  0  0
   -2.7041   13.8900  -31.1341 C   0  0  0  0  0  0  0  0  0  0  0  0
   -5.5491   11.5724  -34.0900 C   0  0  0  0  0  0  0  0  0  0  0  0
   -7.2419   10.0993  -29.0334 O   0  0  0  0  0  0  0  0  0  0  0  0
   -3.3925   12.8667  -31.8504 O   0  0  0  0  0  0  0  0  0  0  0  0
   -4.8004   10.8645  -33.1055 O   0  0  0  0  0  0  0  0  0  0  0  0
   -7.0253    9.0644  -31.9438 Br  0  0  0  0  0  0  0  0  0  0  0  0
  1  2  2  0
  1  3  1  0
  2  4  1  0
  3  5  2  0
  3 10  1  0
  4  6  2  0
  4  9  1  0
  5  6  1  0
  5 11  1  0
  6 12  1  0
  7 10  1  0
  8 11  1  0
M  END
>  <id>  (210) 
EN300-1895511

>  <smiles>  (210) 
COC=1C=CC(O)=C(Br)C1OC

>  <MDLNUMBER>  (210) 
MFCD27945703

>  <IUPAC Name>  (210) 
2-bromo-3,4-dimethoxyphenol

>  <CAS>  (210) 
16276-35-0

>  <URL>  (210) 
https://www.enaminestore.com/catalog/EN300-1895511

>  <ROCS_ShapeQuery>  (210) 
_x1604L0AP1_x0771L0AP1

>  <ROCS_TanimotoCombo>  (210) 
0.890 

>  <ROCS_ShapeTanimoto>  (210) 
0.509 

>  <ROCS_ColorTanimoto>  (210) 
0.381 

>  <ROCS_RefTversky>  (210) 
0.451 

>  <ROCS_RefColorTversky>  (210) 
0.428 

>  <ROCS_RefTverskyCombo>  (210) 
0.879 

>  <ROCS_FitTversky>  (210) 
1.333 

>  <ROCS_FitColorTversky>  (210) 
0.777 

>  <ROCS_FitTverskyCombo>  (210) 
2.110 

>  <ROCS_ColorScore>  (210) 
-4.882

>  <ROCS_Overlap>  (210) 
764.254

>  <ROCS_Rank>  (210) 
378                 

$$$$
untitled-dbase-1364_2
     RDKit          3D

 14 15  0  0  0  0  0  0  0  0999 V2000
   -5.0584   11.1813  -31.7592 C   0  0  0  0  0  0  0  0  0  0  0  0
   -4.3577   12.1762  -31.0989 C   0  0  0  0  0  0  0  0  0  0  0  0
   -4.6230   12.4781  -29.7580 C   0  0  0  0  0  0  0  0  0  0  0  0
   -5.5951   11.7917  -29.0499 C   0  0  0  0  0  0  0  0  0  0  0  0
   -6.2983   10.7780  -29.7043 C   0  0  0  0  0  0  0  0  0  0  0  0
   -6.0317   10.4748  -31.0491 C   0  0  0  0  0  0  0  0  0  0  0  0
   -3.3071   13.0863  -31.6522 C   0  0  0  0  0  0  0  0  0  0  0  0
   -3.7735   13.6171  -29.2901 C   0  0  0  0  0  0  0  0  0  0  0  0
   -2.6730   13.6271  -30.3619 C   0  0  0  0  0  0  0  0  0  0  0  0
   -5.8718   12.1178  -27.6943 N   0  0  0  0  0  0  0  0  0  0  0  0
   -6.7594   11.4749  -27.0847 O   0  0  0  0  0  0  0  0  0  0  0  0
   -5.2204   13.0392  -27.1470 O   0  0  0  0  0  0  0  0  0  0  0  0
   -7.2589   10.0819  -29.0248 O   0  0  0  0  0  0  0  0  0  0  0  0
   -6.9880    9.1055  -31.9504 Br  0  0  0  0  0  0  0  0  0  0  0  0
  1  2  2  0
  1  6  1  0
  2  3  1  0
  2  7  1  0
  3  4  2  0
  3  8  1  0
  4  5  1  0
  4 10  1  0
  5  6  2  0
  5 13  1  0
  6 14  1  0
  7  9  1  0
  8  9  1  0
 10 11  1  0
 10 12  2  0
M  CHG  2  10   1  11  -1
M  END
>  <id>  (211) 
EN300-2007938

>  <smiles>  (211) 
OC=1C(Br)=CC=2CCCC2C1[N+](=O)[O-]

>  <MDLNUMBER>  (211) 
MFCD23136024

>  <IUPAC Name>  (211) 
6-bromo-4-nitro-2,3-dihydro-1H-inden-5-ol

>  <CAS>  (211) 
139515-86-9

>  <Purity>  (211) 
95

>  <URL>  (211) 
https://www.enaminestore.com/catalog/EN300-2007938

>  <MP>  (211) 
101-104

>  <ROCS_ShapeQuery>  (211) 
_x1604L0AP1_x0771L0AP1

>  <ROCS_TanimotoCombo>  (211) 
0.889 

>  <ROCS_ShapeTanimoto>  (211) 
0.525 

>  <ROCS_ColorTanimoto>  (211) 
0.364 

>  <ROCS_RefTversky>  (211) 
0.482 

>  <ROCS_RefColorTversky>  (211) 
0.436 

>  <ROCS_RefTverskyCombo>  (211) 
0.918 

>  <ROCS_FitTversky>  (211) 
1.204 

>  <ROCS_FitColorTversky>  (211) 
0.689 

>  <ROCS_FitTverskyCombo>  (211) 
1.893 

>  <ROCS_ColorScore>  (211) 
-5.004

>  <ROCS_Overlap>  (211) 
819.034

>  <ROCS_Rank>  (211) 
380                 

$$$$
untitled-dbase-778_27
     RDKit          3D

 14 15  0  0  0  0  0  0  0  0999 V2000
   -4.6608   12.5401  -29.8489 C   0  0  0  0  0  0  0  0  0  0  0  0
   -4.4163   12.2443  -31.1899 C   0  0  0  0  0  0  0  0  0  0  0  0
   -5.6051   11.8040  -29.1332 C   0  0  0  0  0  0  0  0  0  0  0  0
   -5.1162   11.2126  -31.8153 C   0  0  0  0  0  0  0  0  0  0  0  0
   -6.3050   10.7722  -29.7586 C   0  0  0  0  0  0  0  0  0  0  0  0
   -6.0606   10.4765  -31.0997 C   0  0  0  0  0  0  0  0  0  0  0  0
   -5.9613   11.0703  -34.1783 C   0  0  0  0  0  0  0  0  0  0  0  0
   -3.7856    9.8706  -33.5678 C   0  0  0  0  0  0  0  0  0  0  0  0
   -3.4458   11.3108  -33.7756 C   0  0  0  0  0  0  0  0  0  0  0  0
   -4.8215   10.9354  -33.2542 C   0  0  0  0  0  0  0  0  0  0  0  0
   -5.9484   10.1935  -35.4012 C   0  0  0  0  0  0  0  0  0  0  0  0
   -6.8792   11.8593  -33.9597 O   0  0  0  0  0  0  0  0  0  0  0  0
   -7.2220   10.0769  -29.0275 O   0  0  0  0  0  0  0  0  0  0  0  0
   -7.0277    9.0694  -31.9417 Br  0  0  0  0  0  0  0  0  0  0  0  0
  1  2  2  0
  1  3  1  0
  2  4  1  0
  3  5  2  0
  4  6  2  0
  4 10  1  0
  5  6  1  0
  5 13  1  0
  6 14  1  0
  7 10  1  0
  7 11  1  0
  7 12  2  0
  8  9  1  0
  8 10  1  0
  9 10  1  0
M  END
>  <id>  (212) 
EN300-1904614

>  <smiles>  (212) 
CC(=O)C1(CC1)C=2C=CC=C(O)C2Br

>  <IUPAC Name>  (212) 
1-[1-(2-bromo-3-hydroxyphenyl)cyclopropyl]ethan-1-one

>  <CAS>  (212) 
2228344-40-7

>  <URL>  (212) 
https://www.enaminestore.com/catalog/EN300-1904614

>  <ROCS_ShapeQuery>  (212) 
_x1604L0AP1_x0771L0AP1

>  <ROCS_TanimotoCombo>  (212) 
0.889 

>  <ROCS_ShapeTanimoto>  (212) 
0.477 

>  <ROCS_ColorTanimoto>  (212) 
0.412 

>  <ROCS_RefTversky>  (212) 
0.449 

>  <ROCS_RefColorTversky>  (212) 
0.429 

>  <ROCS_RefTverskyCombo>  (212) 
0.878 

>  <ROCS_FitTversky>  (212) 
1.152 

>  <ROCS_FitColorTversky>  (212) 
0.914 

>  <ROCS_FitTverskyCombo>  (212) 
2.066 

>  <ROCS_ColorScore>  (212) 
-4.874

>  <ROCS_Overlap>  (212) 
761.713

>  <ROCS_Rank>  (212) 
382                 

$$$$
untitled-dbase-275_64
     RDKit          3D

 12 12  0  0  0  0  0  0  0  0999 V2000
   -4.6111   12.4938  -29.8708 C   0  0  0  0  0  0  0  0  0  0  0  0
   -4.3663   12.1735  -31.2061 C   0  0  0  0  0  0  0  0  0  0  0  0
   -5.5764   11.7902  -29.1504 C   0  0  0  0  0  0  0  0  0  0  0  0
   -5.0869   11.1497  -31.8211 C   0  0  0  0  0  0  0  0  0  0  0  0
   -6.2970   10.7664  -29.7654 C   0  0  0  0  0  0  0  0  0  0  0  0
   -6.0522   10.4461  -31.1008 C   0  0  0  0  0  0  0  0  0  0  0  0
   -5.7491   10.6550  -35.5909 C   0  0  0  0  0  0  0  0  0  0  0  0
   -4.7871   10.8456  -33.2538 C   0  0  0  0  0  0  0  0  0  0  0  0
   -6.0281   10.9685  -34.1406 C   0  0  0  0  0  0  0  0  0  0  0  0
   -6.2617    9.7348  -36.2187 O   0  0  0  0  0  0  0  0  0  0  0  0
   -7.2328   10.1013  -29.0300 O   0  0  0  0  0  0  0  0  0  0  0  0
   -7.0412    9.0472  -31.9290 Br  0  0  0  0  0  0  0  0  0  0  0  0
  1  2  2  0
  1  3  1  0
  2  4  1  0
  3  5  2  0
  4  6  2  0
  4  8  1  0
  5  6  1  0
  5 11  1  0
  6 12  1  0
  7  9  1  0
  7 10  2  0
  8  9  1  0
M  END
>  <id>  (213) 
EN300-1894743

>  <smiles>  (213) 
OC=1C=CC=C(CCC=O)C1Br

>  <MDLNUMBER>  (213) 
MFCD18391528

>  <IUPAC Name>  (213) 
3-(2-bromo-3-hydroxyphenyl)propanal

>  <CAS>  (213) 
1261479-02-0

>  <URL>  (213) 
https://www.enaminestore.com/catalog/EN300-1894743

>  <ROCS_ShapeQuery>  (213) 
_x1604L0AP1_x0771L0AP1

>  <ROCS_TanimotoCombo>  (213) 
0.889 

>  <ROCS_ShapeTanimoto>  (213) 
0.476 

>  <ROCS_ColorTanimoto>  (213) 
0.413 

>  <ROCS_RefTversky>  (213) 
0.429 

>  <ROCS_RefColorTversky>  (213) 
0.429 

>  <ROCS_RefTverskyCombo>  (213) 
0.859 

>  <ROCS_FitTversky>  (213) 
1.297 

>  <ROCS_FitColorTversky>  (213) 
0.915 

>  <ROCS_FitTverskyCombo>  (213) 
2.212 

>  <ROCS_ColorScore>  (213) 
-4.881

>  <ROCS_Overlap>  (213) 
726.272

>  <ROCS_Rank>  (213) 
383                 

$$$$
untitled-dbase-49_0
     RDKit          3D

 10 10  0  0  0  0  0  0  0  0999 V2000
   -4.5893   12.4845  -29.8653 C   0  0  0  0  0  0  0  0  0  0  0  0
   -4.3451   12.1576  -31.1991 C   0  0  0  0  0  0  0  0  0  0  0  0
   -5.5615   11.7914  -29.1440 C   0  0  0  0  0  0  0  0  0  0  0  0
   -6.2894   10.7714  -29.7566 C   0  0  0  0  0  0  0  0  0  0  0  0
   -5.0731   11.1376  -31.8117 C   0  0  0  0  0  0  0  0  0  0  0  0
   -6.0453   10.4445  -31.0904 C   0  0  0  0  0  0  0  0  0  0  0  0
   -5.8054   12.1579  -27.7171 C   0  0  0  0  0  0  0  0  0  0  0  0
   -7.2368   10.1032  -29.0366 O   0  0  0  0  0  0  0  0  0  0  0  0
   -4.8230   10.8378  -33.0945 F   0  0  0  0  0  0  0  0  0  0  0  0
   -7.0195    9.0613  -31.9483 Br  0  0  0  0  0  0  0  0  0  0  0  0
  1  2  2  0
  1  3  1  0
  2  5  1  0
  3  4  2  0
  3  7  1  0
  4  6  1  0
  4  8  1  0
  5  6  2  0
  5  9  1  0
  6 10  1  0
M  END
>  <id>  (214) 
EN300-198658

>  <smiles>  (214) 
CC=1C=CC(F)=C(Br)C1O

>  <MDLNUMBER>  (214) 
MFCD22414712

>  <IUPAC Name>  (214) 
2-bromo-3-fluoro-6-methylphenol

>  <CAS>  (214) 
1522001-79-1

>  <URL>  (214) 
https://www.enaminestore.com/catalog/EN300-198658

>  <ROCS_ShapeQuery>  (214) 
_x1604L0AP1_x0771L0AP1

>  <ROCS_TanimotoCombo>  (214) 
0.889 

>  <ROCS_ShapeTanimoto>  (214) 
0.438 

>  <ROCS_ColorTanimoto>  (214) 
0.451 

>  <ROCS_RefTversky>  (214) 
0.393 

>  <ROCS_RefColorTversky>  (214) 
0.431 

>  <ROCS_RefTverskyCombo>  (214) 
0.824 

>  <ROCS_FitTversky>  (214) 
1.356 

>  <ROCS_FitColorTversky>  (214) 
1.113 

>  <ROCS_FitTverskyCombo>  (214) 
2.469 

>  <ROCS_ColorScore>  (214) 
-4.882

>  <ROCS_Overlap>  (214) 
662.846

>  <ROCS_Rank>  (214) 
386                 

$$$$
untitled-dbase-1715_230
     RDKit          3D

 14 14  0  0  1  0  0  0  0  0999 V2000
   -4.1713   12.1066  -30.1761 C   0  0  0  0  0  0  0  0  0  0  0  0
   -5.2435   11.0320  -32.0556 C   0  0  0  0  0  0  0  0  0  0  0  0
   -5.0950   11.5179  -29.3125 C   0  0  0  0  0  0  0  0  0  0  0  0
   -6.0929   10.6861  -29.8204 C   0  0  0  0  0  0  0  0  0  0  0  0
   -4.2456   11.8637  -31.5476 C   0  0  0  0  0  0  0  0  0  0  0  0
   -6.1672   10.4431  -31.1920 C   0  0  0  0  0  0  0  0  0  0  0  0
   -4.0751   10.7974  -27.0981 C   0  0  0  0  0  0  0  0  0  0  0  0
   -6.3860   11.8056  -27.1622 C   0  0  0  0  0  0  0  0  0  0  0  0
   -4.9955   11.7969  -27.8178 C   0  0  2  0  0  0  0  0  0  0  0  0
   -4.5647    9.4117  -27.2953 N   0  0  0  0  0  0  0  0  0  0  0  0
   -6.9893   10.1176  -28.9626 O   0  0  0  0  0  0  0  0  0  0  0  0
   -6.3224   12.4851  -25.9130 O   0  0  0  0  0  0  0  0  0  0  0  0
   -3.1057   12.5907  -32.6129 Cl  0  0  0  0  0  0  0  0  0  0  0  0
   -7.5090    9.3188  -31.9201 Br  0  0  0  0  0  0  0  0  0  0  0  0
  1  3  2  0
  1  5  1  0
  2  5  2  0
  2  6  1  0
  3  4  1  0
  3  9  1  0
  4  6  2  0
  4 11  1  0
  5 13  1  0
  6 14  1  0
  9  7  1  1
  7 10  1  0
  8  9  1  0
  8 12  1  0
M  END
>  <id>  (215) 
EN300-1922882

>  <smiles>  (215) 
NCC(CO)C=1C=C(Cl)C=C(Br)C1O

>  <IUPAC Name>  (215) 
2-(1-amino-3-hydroxypropan-2-yl)-6-bromo-4-chlorophenol

>  <CAS>  (215) 
2228528-29-6

>  <URL>  (215) 
https://www.enaminestore.com/catalog/EN300-1922882

>  <ROCS_ShapeQuery>  (215) 
_x1604L0AP1_x0771L0AP1

>  <ROCS_TanimotoCombo>  (215) 
0.888 

>  <ROCS_ShapeTanimoto>  (215) 
0.422 

>  <ROCS_ColorTanimoto>  (215) 
0.466 

>  <ROCS_RefTversky>  (215) 
0.408 

>  <ROCS_RefColorTversky>  (215) 
0.544 

>  <ROCS_RefTverskyCombo>  (215) 
0.951 

>  <ROCS_FitTversky>  (215) 
1.092 

>  <ROCS_FitColorTversky>  (215) 
0.765 

>  <ROCS_FitTverskyCombo>  (215) 
1.857 

>  <ROCS_ColorScore>  (215) 
-6.260

>  <ROCS_Overlap>  (215) 
691.678

>  <ROCS_Rank>  (215) 
394                 

$$$$
untitled-dbase-1545_6
     RDKit          3D

 11 11  0  0  0  0  0  0  0  0999 V2000
   -4.8083   12.6427  -29.5847 C   0  0  0  0  0  0  0  0  0  0  0  0
   -4.9702   11.2526  -31.5541 C   0  0  0  0  0  0  0  0  0  0  0  0
   -5.8128   11.8929  -28.9729 C   0  0  0  0  0  0  0  0  0  0  0  0
   -4.3870   12.3226  -30.8754 C   0  0  0  0  0  0  0  0  0  0  0  0
   -6.3960   10.8229  -29.6516 C   0  0  0  0  0  0  0  0  0  0  0  0
   -5.9747   10.5027  -30.9422 C   0  0  0  0  0  0  0  0  0  0  0  0
   -6.2346   12.2469  -27.6244 C   0  0  0  0  0  0  0  0  0  0  0  0
   -3.3133   13.1247  -31.5294 C   0  0  0  0  0  0  0  0  0  0  0  0
   -5.4683   12.2446  -26.6586 O   0  0  0  0  0  0  0  0  0  0  0  0
   -7.3779   10.0965  -29.0417 O   0  0  0  0  0  0  0  0  0  0  0  0
   -6.7416    9.0551  -31.8968 Br  0  0  0  0  0  0  0  0  0  0  0  0
  1  3  2  0
  1  4  1  0
  2  4  2  0
  2  6  1  0
  3  5  1  0
  3  7  1  0
  4  8  1  0
  5  6  2  0
  5 10  1  0
  6 11  1  0
  7  9  2  0
M  END
>  <id>  (216) 
EN300-129716

>  <smiles>  (216) 
CC=1C=C(Br)C(O)=C(C=O)C1

>  <MDLNUMBER>  (216) 
MFCD00275688

>  <IUPAC Name>  (216) 
3-bromo-2-hydroxy-5-methylbenzaldehyde

>  <CAS>  (216) 
33172-54-2

>  <Purity>  (216) 
95

>  <URL>  (216) 
https://www.enaminestore.com/catalog/EN300-129716

>  <ROCS_ShapeQuery>  (216) 
_x1604L0AP1_x0771L0AP1

>  <ROCS_TanimotoCombo>  (216) 
0.888 

>  <ROCS_ShapeTanimoto>  (216) 
0.456 

>  <ROCS_ColorTanimoto>  (216) 
0.431 

>  <ROCS_RefTversky>  (216) 
0.411 

>  <ROCS_RefColorTversky>  (216) 
0.443 

>  <ROCS_RefTverskyCombo>  (216) 
0.854 

>  <ROCS_FitTversky>  (216) 
1.315 

>  <ROCS_FitColorTversky>  (216) 
0.943 

>  <ROCS_FitTverskyCombo>  (216) 
2.259 

>  <ROCS_ColorScore>  (216) 
-5.033

>  <ROCS_Overlap>  (216) 
695.701

>  <ROCS_Rank>  (216) 
396                 

$$$$
untitled-dbase-1521_227
     RDKit          3D

 15 16  0  0  0  0  0  0  0  0999 V2000
   -4.5824   12.4673  -29.7934 C   0  0  0  0  0  0  0  0  0  0  0  0
   -5.0422   11.1441  -31.7617 C   0  0  0  0  0  0  0  0  0  0  0  0
   -4.3187   12.1534  -31.1266 C   0  0  0  0  0  0  0  0  0  0  0  0
   -5.5696   11.7718  -29.0952 C   0  0  0  0  0  0  0  0  0  0  0  0
   -6.2931   10.7625  -29.7303 C   0  0  0  0  0  0  0  0  0  0  0  0
   -6.0295   10.4486  -31.0636 C   0  0  0  0  0  0  0  0  0  0  0  0
   -3.0433   14.2947  -31.4526 C   0  0  0  0  0  0  0  0  0  0  0  0
   -3.0788   12.5750  -33.3465 C   0  0  0  0  0  0  0  0  0  0  0  0
   -2.0556   12.1153  -32.3593 C   0  0  0  0  0  0  0  0  0  0  0  0
   -3.2648   12.8978  -31.8725 C   0  0  0  0  0  0  0  0  0  0  0  0
   -5.0313   13.1334  -27.2211 C   0  0  0  0  0  0  0  0  0  0  0  0
   -2.2119   15.0327  -31.9709 O   0  0  0  0  0  0  0  0  0  0  0  0
   -7.2545   10.0938  -29.0303 O   0  0  0  0  0  0  0  0  0  0  0  0
   -5.8162   12.0892  -27.7936 O   0  0  0  0  0  0  0  0  0  0  0  0
   -6.9927    9.0848  -31.9615 Br  0  0  0  0  0  0  0  0  0  0  0  0
  1  3  2  0
  1  4  1  0
  2  3  1  0
  2  6  2  0
  3 10  1  0
  4  5  2  0
  4 14  1  0
  5  6  1  0
  5 13  1  0
  6 15  1  0
  7 10  1  0
  7 12  2  0
  8  9  1  0
  8 10  1  0
  9 10  1  0
 11 14  1  0
M  END
>  <id>  (217) 
EN300-1926978

>  <smiles>  (217) 
COC=1C=C(C=C(Br)C1O)C2(CC2)C=O

>  <IUPAC Name>  (217) 
1-(3-bromo-4-hydroxy-5-methoxyphenyl)cyclopropane-1-carbaldehyde

>  <CAS>  (217) 
2229102-30-9

>  <URL>  (217) 
https://www.enaminestore.com/catalog/EN300-1926978

>  <ROCS_ShapeQuery>  (217) 
_x1604L0AP1_x0771L0AP1

>  <ROCS_TanimotoCombo>  (217) 
0.888 

>  <ROCS_ShapeTanimoto>  (217) 
0.505 

>  <ROCS_ColorTanimoto>  (217) 
0.382 

>  <ROCS_RefTversky>  (217) 
0.475 

>  <ROCS_RefColorTversky>  (217) 
0.429 

>  <ROCS_RefTverskyCombo>  (217) 
0.904 

>  <ROCS_FitTversky>  (217) 
1.147 

>  <ROCS_FitColorTversky>  (217) 
0.779 

>  <ROCS_FitTverskyCombo>  (217) 
1.926 

>  <ROCS_ColorScore>  (217) 
-4.897

>  <ROCS_Overlap>  (217) 
806.984

>  <ROCS_Rank>  (217) 
397                 

$$$$
untitled-dbase-2277_2
     RDKit          3D

 12 12  0  0  0  0  0  0  0  0999 V2000
   -4.3548   12.1482  -31.2357 C   0  0  0  0  0  0  0  0  0  0  0  0
   -5.0861   11.1229  -31.8353 C   0  0  0  0  0  0  0  0  0  0  0  0
   -5.5572   11.7977  -29.1697 C   0  0  0  0  0  0  0  0  0  0  0  0
   -4.5903   12.4856  -29.9028 C   0  0  0  0  0  0  0  0  0  0  0  0
   -6.2886   10.7725  -29.7693 C   0  0  0  0  0  0  0  0  0  0  0  0
   -6.0531   10.4351  -31.1021 C   0  0  0  0  0  0  0  0  0  0  0  0
   -5.8183   12.1512  -27.7385 C   0  0  0  0  0  0  0  0  0  0  0  0
   -3.8313   13.5347  -29.3139 N   0  0  0  0  0  0  0  0  0  0  0  0
   -2.9724   14.1254  -30.0102 O   0  0  0  0  0  0  0  0  0  0  0  0
   -4.0439   13.8370  -28.1160 O   0  0  0  0  0  0  0  0  0  0  0  0
   -7.2321   10.1072  -29.0411 O   0  0  0  0  0  0  0  0  0  0  0  0
   -7.0258    9.0484  -31.9535 Br  0  0  0  0  0  0  0  0  0  0  0  0
  1  2  2  0
  1  4  1  0
  2  6  1  0
  3  4  2  0
  3  5  1  0
  3  7  1  0
  4  8  1  0
  5  6  2  0
  5 11  1  0
  6 12  1  0
  8  9  1  0
  8 10  2  0
M  CHG  2   8   1   9  -1
M  END
>  <id>  (218) 
EN300-20977739

>  <smiles>  (218) 
CC=1C(O)=C(Br)C=CC1[N+](=O)[O-]

>  <MDLNUMBER>  (218) 
MFCD28745601

>  <IUPAC Name>  (218) 
6-bromo-2-methyl-3-nitrophenol

>  <CAS>  (218) 
1805573-41-4

>  <Purity>  (218) 
95

>  <URL>  (218) 
https://www.enaminestore.com/catalog/EN300-20977739

>  <ROCS_ShapeQuery>  (218) 
_x1604L0AP1_x0771L0AP1

>  <ROCS_TanimotoCombo>  (218) 
0.888 

>  <ROCS_ShapeTanimoto>  (218) 
0.508 

>  <ROCS_ColorTanimoto>  (218) 
0.380 

>  <ROCS_RefTversky>  (218) 
0.452 

>  <ROCS_RefColorTversky>  (218) 
0.427 

>  <ROCS_RefTverskyCombo>  (218) 
0.880 

>  <ROCS_FitTversky>  (218) 
1.319 

>  <ROCS_FitColorTversky>  (218) 
0.774 

>  <ROCS_FitTverskyCombo>  (218) 
2.093 

>  <ROCS_ColorScore>  (218) 
-4.879

>  <ROCS_Overlap>  (218) 
765.807

>  <ROCS_Rank>  (218) 
398                 

$$$$
untitled-dbase-2080_135
     RDKit          3D

 14 14  0  0  0  0  0  0  0  0999 V2000
   -5.0673   11.1405  -31.7986 C   0  0  0  0  0  0  0  0  0  0  0  0
   -5.5734   11.7801  -29.1307 C   0  0  0  0  0  0  0  0  0  0  0  0
   -4.3436   12.1574  -31.1758 C   0  0  0  0  0  0  0  0  0  0  0  0
   -4.5966   12.4772  -29.8419 C   0  0  0  0  0  0  0  0  0  0  0  0
   -6.2971   10.7633  -29.7535 C   0  0  0  0  0  0  0  0  0  0  0  0
   -6.0441   10.4435  -31.0874 C   0  0  0  0  0  0  0  0  0  0  0  0
   -3.3182   12.8784  -31.9499 C   0  0  0  0  0  0  0  0  0  0  0  0
   -3.8374   13.5628  -29.1514 C   0  0  0  0  0  0  0  0  0  0  0  0
   -0.7673   11.2777  -31.5551 C   0  0  0  0  0  0  0  0  0  0  0  0
   -2.5998   12.1220  -33.0657 C   0  0  0  0  0  0  0  0  0  0  0  0
   -1.0911   12.0283  -32.8368 C   0  0  0  0  0  0  0  0  0  0  0  0
   -3.0322   14.0558  -31.7237 O   0  0  0  0  0  0  0  0  0  0  0  0
   -7.2450   10.1010  -29.0315 O   0  0  0  0  0  0  0  0  0  0  0  0
   -7.0084    9.0681  -31.9654 Br  0  0  0  0  0  0  0  0  0  0  0  0
  1  3  2  0
  1  6  1  0
  2  4  2  0
  2  5  1  0
  3  4  1  0
  3  7  1  0
  4  8  1  0
  5  6  2  0
  5 13  1  0
  6 14  1  0
  7 10  1  0
  7 12  2  0
  9 11  1  0
 10 11  1  0
M  END
>  <id>  (219) 
EN300-1276715

>  <smiles>  (219) 
CCCC(=O)C=1C=C(Br)C(O)=CC1C

>  <IUPAC Name>  (219) 
1-(5-bromo-4-hydroxy-2-methylphenyl)butan-1-one

>  <CAS>  (219) 
2110466-13-0

>  <URL>  (219) 
https://www.enaminestore.com/catalog/EN300-1276715

>  <ROCS_ShapeQuery>  (219) 
_x1604L0AP1_x0771L0AP1

>  <ROCS_TanimotoCombo>  (219) 
0.888 

>  <ROCS_ShapeTanimoto>  (219) 
0.507 

>  <ROCS_ColorTanimoto>  (219) 
0.380 

>  <ROCS_RefTversky>  (219) 
0.464 

>  <ROCS_RefColorTversky>  (219) 
0.427 

>  <ROCS_RefTverskyCombo>  (219) 
0.891 

>  <ROCS_FitTversky>  (219) 
1.226 

>  <ROCS_FitColorTversky>  (219) 
0.776 

>  <ROCS_FitTverskyCombo>  (219) 
2.002 

>  <ROCS_ColorScore>  (219) 
-4.878

>  <ROCS_Overlap>  (219) 
787.208

>  <ROCS_Rank>  (219) 
400                 

$$$$
untitled-dbase-1537_6
     RDKit          3D

 11 11  0  0  0  0  0  0  0  0999 V2000
   -4.8176   12.6471  -29.5786 C   0  0  0  0  0  0  0  0  0  0  0  0
   -4.9727   11.2571  -31.5486 C   0  0  0  0  0  0  0  0  0  0  0  0
   -5.8206   11.8941  -28.9682 C   0  0  0  0  0  0  0  0  0  0  0  0
   -6.3996   10.8225  -29.6480 C   0  0  0  0  0  0  0  0  0  0  0  0
   -4.3937   12.3286  -30.8688 C   0  0  0  0  0  0  0  0  0  0  0  0
   -5.9757   10.5040  -30.9382 C   0  0  0  0  0  0  0  0  0  0  0  0
   -6.2473   12.2469  -27.6211 C   0  0  0  0  0  0  0  0  0  0  0  0
   -5.4835   12.2481  -26.6533 O   0  0  0  0  0  0  0  0  0  0  0  0
   -7.3815   10.0943  -29.0405 O   0  0  0  0  0  0  0  0  0  0  0  0
   -3.1561   13.2584  -31.6213 Cl  0  0  0  0  0  0  0  0  0  0  0  0
   -6.7377    9.0553  -31.8950 Br  0  0  0  0  0  0  0  0  0  0  0  0
  1  3  2  0
  1  5  1  0
  2  5  2  0
  2  6  1  0
  3  4  1  0
  3  7  1  0
  4  6  2  0
  4  9  1  0
  5 10  1  0
  6 11  1  0
  7  8  2  0
M  END
>  <id>  (220) 
EN300-370866

>  <smiles>  (220) 
OC=1C(Br)=CC(Cl)=CC1C=O

>  <MDLNUMBER>  (220) 
MFCD00051690

>  <IUPAC Name>  (220) 
3-bromo-5-chloro-2-hydroxybenzaldehyde

>  <CAS>  (220) 
19652-32-5

>  <Purity>  (220) 
95

>  <URL>  (220) 
https://www.enaminestore.com/catalog/EN300-370866

>  <MP>  (220) 
84-88

>  <ROCS_ShapeQuery>  (220) 
_x1604L0AP1_x0771L0AP1

>  <ROCS_TanimotoCombo>  (220) 
0.888 

>  <ROCS_ShapeTanimoto>  (220) 
0.456 

>  <ROCS_ColorTanimoto>  (220) 
0.432 

>  <ROCS_RefTversky>  (220) 
0.410 

>  <ROCS_RefColorTversky>  (220) 
0.443 

>  <ROCS_RefTverskyCombo>  (220) 
0.853 

>  <ROCS_FitTversky>  (220) 
1.326 

>  <ROCS_FitColorTversky>  (220) 
0.944 

>  <ROCS_FitTverskyCombo>  (220) 
2.269 

>  <ROCS_ColorScore>  (220) 
-5.035

>  <ROCS_Overlap>  (220) 
693.185

>  <ROCS_Rank>  (220) 
402                 

$$$$
untitled-dbase-1685_1
     RDKit          3D

 10 10  0  0  0  0  0  0  0  0999 V2000
   -4.5984   12.4814  -29.8505 C   0  0  0  0  0  0  0  0  0  0  0  0
   -5.5737   11.7848  -29.1370 C   0  0  0  0  0  0  0  0  0  0  0  0
   -5.0693   11.1399  -31.8039 C   0  0  0  0  0  0  0  0  0  0  0  0
   -4.3462   12.1590  -31.1840 C   0  0  0  0  0  0  0  0  0  0  0  0
   -6.2968   10.7657  -29.7570 C   0  0  0  0  0  0  0  0  0  0  0  0
   -6.0446   10.4433  -31.0904 C   0  0  0  0  0  0  0  0  0  0  0  0
   -2.2324   13.3880  -31.3757 C   0  0  0  0  0  0  0  0  0  0  0  0
   -3.3288   12.8856  -31.9271 C   0  0  0  0  0  0  0  0  0  0  0  0
   -7.2414   10.1027  -29.0313 O   0  0  0  0  0  0  0  0  0  0  0  0
   -7.0065    9.0630  -31.9636 Br  0  0  0  0  0  0  0  0  0  0  0  0
  1  2  2  0
  1  4  1  0
  2  5  1  0
  3  4  2  0
  3  6  1  0
  4  8  1  0
  5  6  2  0
  5  9  1  0
  6 10  1  0
  7  8  2  0
M  END
>  <id>  (221) 
EN300-1906348

>  <smiles>  (221) 
OC=1C=CC(C=C)=CC1Br

>  <MDLNUMBER>  (221) 
MFCD32202529

>  <IUPAC Name>  (221) 
2-bromo-4-ethenylphenol

>  <CAS>  (221) 
80122-46-9

>  <URL>  (221) 
https://www.enaminestore.com/catalog/EN300-1906348

>  <ROCS_ShapeQuery>  (221) 
_x1604L0AP1_x0771L0AP1

>  <ROCS_TanimotoCombo>  (221) 
0.888 

>  <ROCS_ShapeTanimoto>  (221) 
0.475 

>  <ROCS_ColorTanimoto>  (221) 
0.413 

>  <ROCS_RefTversky>  (221) 
0.414 

>  <ROCS_RefColorTversky>  (221) 
0.429 

>  <ROCS_RefTverskyCombo>  (221) 
0.844 

>  <ROCS_FitTversky>  (221) 
1.444 

>  <ROCS_FitColorTversky>  (221) 
0.914 

>  <ROCS_FitTverskyCombo>  (221) 
2.358 

>  <ROCS_ColorScore>  (221) 
-4.879

>  <ROCS_Overlap>  (221) 
699.683

>  <ROCS_Rank>  (221) 
403                 

$$$$
untitled-dbase-117_6
     RDKit          3D

 11 11  0  0  0  0  0  0  0  0999 V2000
   -4.8127   12.6448  -29.5817 C   0  0  0  0  0  0  0  0  0  0  0  0
   -4.9713   11.2536  -31.5505 C   0  0  0  0  0  0  0  0  0  0  0  0
   -5.8178   11.8949  -28.9709 C   0  0  0  0  0  0  0  0  0  0  0  0
   -6.3996   10.8243  -29.6498 C   0  0  0  0  0  0  0  0  0  0  0  0
   -4.3895   12.3242  -30.8716 C   0  0  0  0  0  0  0  0  0  0  0  0
   -5.9763   10.5036  -30.9397 C   0  0  0  0  0  0  0  0  0  0  0  0
   -6.2403   12.2492  -27.6224 C   0  0  0  0  0  0  0  0  0  0  0  0
   -5.4744   12.2467  -26.6565 O   0  0  0  0  0  0  0  0  0  0  0  0
   -7.3815   10.0976  -29.0406 O   0  0  0  0  0  0  0  0  0  0  0  0
   -3.4243   13.0445  -31.4580 F   0  0  0  0  0  0  0  0  0  0  0  0
   -6.7396    9.0546  -31.8949 Br  0  0  0  0  0  0  0  0  0  0  0  0
  1  3  2  0
  1  5  1  0
  2  5  2  0
  2  6  1  0
  3  4  1  0
  3  7  1  0
  4  6  2  0
  4  9  1  0
  5 10  1  0
  6 11  1  0
  7  8  2  0
M  END
>  <id>  (222) 
EN300-177154

>  <smiles>  (222) 
OC=1C(Br)=CC(F)=CC1C=O

>  <MDLNUMBER>  (222) 
MFCD08458073

>  <IUPAC Name>  (222) 
3-bromo-5-fluoro-2-hydroxybenzaldehyde

>  <CAS>  (222) 
178546-34-4

>  <Purity>  (222) 
95

>  <URL>  (222) 
https://www.enaminestore.com/catalog/EN300-177154

>  <ROCS_ShapeQuery>  (222) 
_x1604L0AP1_x0771L0AP1

>  <ROCS_TanimotoCombo>  (222) 
0.887 

>  <ROCS_ShapeTanimoto>  (222) 
0.456 

>  <ROCS_ColorTanimoto>  (222) 
0.431 

>  <ROCS_RefTversky>  (222) 
0.412 

>  <ROCS_RefColorTversky>  (222) 
0.443 

>  <ROCS_RefTverskyCombo>  (222) 
0.855 

>  <ROCS_FitTversky>  (222) 
1.305 

>  <ROCS_FitColorTversky>  (222) 
0.943 

>  <ROCS_FitTverskyCombo>  (222) 
2.248 

>  <ROCS_ColorScore>  (222) 
-5.031

>  <ROCS_Overlap>  (222) 
696.695

>  <ROCS_Rank>  (222) 
409                 

$$$$
untitled-dbase-1224_197
     RDKit          3D

 15 15  0  0  0  0  0  0  0  0999 V2000
   -4.5719   12.4587  -29.7984 C   0  0  0  0  0  0  0  0  0  0  0  0
   -5.0360   11.1330  -31.7641 C   0  0  0  0  0  0  0  0  0  0  0  0
   -4.3082   12.1403  -31.1305 C   0  0  0  0  0  0  0  0  0  0  0  0
   -5.5633   11.7697  -29.0997 C   0  0  0  0  0  0  0  0  0  0  0  0
   -6.2911   10.7625  -29.7332 C   0  0  0  0  0  0  0  0  0  0  0  0
   -6.0275   10.4441  -31.0654 C   0  0  0  0  0  0  0  0  0  0  0  0
   -3.0747   14.3295  -31.3788 C   0  0  0  0  0  0  0  0  0  0  0  0
   -1.8095   12.2841  -31.7894 C   0  0  0  0  0  0  0  0  0  0  0  0
   -3.5901   12.9642  -33.3934 C   0  0  0  0  0  0  0  0  0  0  0  0
   -5.0675   11.3890  -26.8051 C   0  0  0  0  0  0  0  0  0  0  0  0
   -3.2192   12.8983  -31.8983 C   0  0  0  0  0  0  0  0  0  0  0  0
   -3.7413   14.8117  -30.4673 O   0  0  0  0  0  0  0  0  0  0  0  0
   -7.2576   10.1007  -29.0334 O   0  0  0  0  0  0  0  0  0  0  0  0
   -5.8097   12.0925  -27.7992 O   0  0  0  0  0  0  0  0  0  0  0  0
   -6.9956    9.0816  -31.9601 Br  0  0  0  0  0  0  0  0  0  0  0  0
  1  3  2  0
  1  4  1  0
  2  3  1  0
  2  6  2  0
  3 11  1  0
  4  5  2  0
  4 14  1  0
  5  6  1  0
  5 13  1  0
  6 15  1  0
  7 11  1  0
  7 12  2  0
  8 11  1  0
  9 11  1  0
 10 14  1  0
M  END
>  <id>  (223) 
EN300-1926984

>  <smiles>  (223) 
COC=1C=C(C=C(Br)C1O)C(C)(C)C=O

>  <IUPAC Name>  (223) 
2-(3-bromo-4-hydroxy-5-methoxyphenyl)-2-methylpropanal

>  <CAS>  (223) 
2229316-65-6

>  <URL>  (223) 
https://www.enaminestore.com/catalog/EN300-1926984

>  <ROCS_ShapeQuery>  (223) 
_x1604L0AP1_x0771L0AP1

>  <ROCS_TanimotoCombo>  (223) 
0.887 

>  <ROCS_ShapeTanimoto>  (223) 
0.532 

>  <ROCS_ColorTanimoto>  (223) 
0.355 

>  <ROCS_RefTversky>  (223) 
0.489 

>  <ROCS_RefColorTversky>  (223) 
0.427 

>  <ROCS_RefTverskyCombo>  (223) 
0.916 

>  <ROCS_FitTversky>  (223) 
1.200 

>  <ROCS_FitColorTversky>  (223) 
0.677 

>  <ROCS_FitTverskyCombo>  (223) 
1.876 

>  <ROCS_ColorScore>  (223) 
-4.898

>  <ROCS_Overlap>  (223) 
830.594

>  <ROCS_Rank>  (223) 
416                 

$$$$
untitled-dbase-1159_292
     RDKit          3D

 15 16  0  0  0  0  0  0  0  0999 V2000
   -4.3496   12.1665  -31.1862 C   0  0  0  0  0  0  0  0  0  0  0  0
   -4.6024   12.4911  -29.8534 C   0  0  0  0  0  0  0  0  0  0  0  0
   -5.0687   11.1427  -31.8031 C   0  0  0  0  0  0  0  0  0  0  0  0
   -5.5741   11.7920  -29.1375 C   0  0  0  0  0  0  0  0  0  0  0  0
   -6.2931   10.7681  -29.7543 C   0  0  0  0  0  0  0  0  0  0  0  0
   -6.0404   10.4435  -31.0872 C   0  0  0  0  0  0  0  0  0  0  0  0
   -5.8260   10.6411  -35.6116 C   0  0  0  0  0  0  0  0  0  0  0  0
   -6.5576    9.6724  -34.7244 C   0  0  0  0  0  0  0  0  0  0  0  0
   -5.9537   10.9198  -34.1384 C   0  0  0  0  0  0  0  0  0  0  0  0
   -5.0296   13.1796  -27.2844 C   0  0  0  0  0  0  0  0  0  0  0  0
   -4.7559   10.8304  -33.2549 C   0  0  0  0  0  0  0  0  0  0  0  0
   -7.2388   10.0989  -29.0330 O   0  0  0  0  0  0  0  0  0  0  0  0
   -6.8754   11.9599  -33.7723 O   0  0  0  0  0  0  0  0  0  0  0  0
   -5.8095   12.1208  -27.8364 O   0  0  0  0  0  0  0  0  0  0  0  0
   -7.0325    9.0511  -31.9238 Br  0  0  0  0  0  0  0  0  0  0  0  0
  1  2  2  0
  1  3  1  0
  2  4  1  0
  3  6  2  0
  3 11  1  0
  4  5  2  0
  4 14  1  0
  5  6  1  0
  5 12  1  0
  6 15  1  0
  7  8  1  0
  7  9  1  0
  8  9  1  0
  9 11  1  0
  9 13  1  0
 10 14  1  0
M  END
>  <id>  (224) 
EN300-1936268

>  <smiles>  (224) 
COC=1C=CC(CC2(O)CC2)=C(Br)C1O

>  <IUPAC Name>  (224) 
2-bromo-3-[(1-hydroxycyclopropyl)methyl]-6-methoxyphenol

>  <CAS>  (224) 
2228338-83-6

>  <URL>  (224) 
https://www.enaminestore.com/catalog/EN300-1936268

>  <ROCS_ShapeQuery>  (224) 
_x1604L0AP1_x0771L0AP1

>  <ROCS_TanimotoCombo>  (224) 
0.887 

>  <ROCS_ShapeTanimoto>  (224) 
0.532 

>  <ROCS_ColorTanimoto>  (224) 
0.355 

>  <ROCS_RefTversky>  (224) 
0.490 

>  <ROCS_RefColorTversky>  (224) 
0.427 

>  <ROCS_RefTverskyCombo>  (224) 
0.917 

>  <ROCS_FitTversky>  (224) 
1.191 

>  <ROCS_FitColorTversky>  (224) 
0.677 

>  <ROCS_FitTverskyCombo>  (224) 
1.868 

>  <ROCS_ColorScore>  (224) 
-4.901

>  <ROCS_Overlap>  (224) 
832.681

>  <ROCS_Rank>  (224) 
417                 

$$$$
untitled-dbase-908_233
     RDKit          3D

 14 14  0  0  0  0  0  0  0  0999 V2000
   -4.5850   12.4716  -29.8094 C   0  0  0  0  0  0  0  0  0  0  0  0
   -5.0455   11.1400  -31.7720 C   0  0  0  0  0  0  0  0  0  0  0  0
   -4.3226   12.1530  -31.1418 C   0  0  0  0  0  0  0  0  0  0  0  0
   -5.5702   11.7772  -29.1072 C   0  0  0  0  0  0  0  0  0  0  0  0
   -6.2930   10.7643  -29.7374 C   0  0  0  0  0  0  0  0  0  0  0  0
   -6.0306   10.4457  -31.0698 C   0  0  0  0  0  0  0  0  0  0  0  0
   -3.2972   12.8791  -31.8745 C   0  0  0  0  0  0  0  0  0  0  0  0
   -5.4593   13.3645  -25.8047 C   0  0  0  0  0  0  0  0  0  0  0  0
   -5.0302   13.1478  -27.2401 C   0  0  0  0  0  0  0  0  0  0  0  0
   -2.6210   13.8690  -31.1982 N   0  0  0  0  0  0  0  0  0  0  0  0
   -7.2532   10.0973  -29.0340 O   0  0  0  0  0  0  0  0  0  0  0  0
   -5.8148   12.1000  -27.8064 O   0  0  0  0  0  0  0  0  0  0  0  0
   -2.9322   12.5110  -33.4673 S   0  0  0  0  0  0  0  0  0  0  0  0
   -6.9944    9.0776  -31.9607 Br  0  0  0  0  0  0  0  0  0  0  0  0
  1  3  2  0
  1  4  1  0
  2  3  1  0
  2  6  2  0
  3  7  1  0
  4  5  2  0
  4 12  1  0
  5  6  1  0
  5 11  1  0
  6 14  1  0
  7 10  1  0
  7 13  2  0
  8  9  1  0
  9 12  1  0
M  END
>  <id>  (225) 
EN300-1920595

>  <smiles>  (225) 
CCOC=1C=C(C=C(Br)C1O)C(=S)N

>  <IUPAC Name>  (225) 
3-bromo-5-ethoxy-4-hydroxybenzene-1-carbothioamide

>  <CAS>  (225) 
2229105-65-9

>  <URL>  (225) 
https://www.enaminestore.com/catalog/EN300-1920595

>  <ROCS_ShapeQuery>  (225) 
_x1604L0AP1_x0771L0AP1

>  <ROCS_TanimotoCombo>  (225) 
0.887 

>  <ROCS_ShapeTanimoto>  (225) 
0.504 

>  <ROCS_ColorTanimoto>  (225) 
0.383 

>  <ROCS_RefTversky>  (225) 
0.462 

>  <ROCS_RefColorTversky>  (225) 
0.429 

>  <ROCS_RefTverskyCombo>  (225) 
0.891 

>  <ROCS_FitTversky>  (225) 
1.221 

>  <ROCS_FitColorTversky>  (225) 
0.779 

>  <ROCS_FitTverskyCombo>  (225) 
2.000 

>  <ROCS_ColorScore>  (225) 
-4.898

>  <ROCS_Overlap>  (225) 
783.753

>  <ROCS_Rank>  (225) 
418                 

$$$$
untitled-dbase-343_42
     RDKit          3D

 13 14  0  0  1  0  0  0  0  0999 V2000
   -4.6193   12.5011  -29.8743 C   0  0  0  0  0  0  0  0  0  0  0  0
   -4.3678   12.1742  -31.2068 C   0  0  0  0  0  0  0  0  0  0  0  0
   -5.5845   11.7975  -29.1538 C   0  0  0  0  0  0  0  0  0  0  0  0
   -5.0814   11.1438  -31.8188 C   0  0  0  0  0  0  0  0  0  0  0  0
   -6.2981   10.7670  -29.7658 C   0  0  0  0  0  0  0  0  0  0  0  0
   -6.0466   10.4402  -31.0983 C   0  0  0  0  0  0  0  0  0  0  0  0
   -4.8542   11.9415  -34.2674 C   0  0  0  0  0  0  0  0  0  0  0  0
   -4.7784   10.8327  -33.2490 C   0  0  2  0  0  0  0  0  0  0  0  0
   -5.9024   10.8690  -34.2547 C   0  0  2  0  0  0  0  0  0  0  0  0
   -5.9520    9.8582  -35.3483 C   0  0  0  0  0  0  0  0  0  0  0  0
   -6.6764    8.6862  -34.9396 N   0  0  0  0  0  0  0  0  0  0  0  0
   -7.2353   10.1039  -29.0303 O   0  0  0  0  0  0  0  0  0  0  0  0
   -7.0326    9.0355  -31.9221 Br  0  0  0  0  0  0  0  0  0  0  0  0
  1  2  2  0
  1  3  1  0
  2  4  1  0
  3  5  2  0
  4  6  2  0
  8  4  1  1
  5  6  1  0
  5 12  1  0
  6 13  1  0
  7  8  1  0
  7  9  1  0
  8  9  1  0
  9 10  1  6
 10 11  1  0
M  END
>  <id>  (226) 
EN300-1904579

>  <smiles>  (226) 
NC[C@@H]1C[C@H]1C=2C=CC=C(O)C2Br |&1:2,4,r|

>  <IUPAC Name>  (226) 
rac-3-[(1R,2R)-2-(aminomethyl)cyclopropyl]-2-bromophenol

>  <CAS>  (226) 
2227791-53-7

>  <URL>  (226) 
https://www.enaminestore.com/catalog/EN300-1904579

>  <ROCS_ShapeQuery>  (226) 
_x1604L0AP1_x0771L0AP1

>  <ROCS_TanimotoCombo>  (226) 
0.886 

>  <ROCS_ShapeTanimoto>  (226) 
0.505 

>  <ROCS_ColorTanimoto>  (226) 
0.381 

>  <ROCS_RefTversky>  (226) 
0.456 

>  <ROCS_RefColorTversky>  (226) 
0.428 

>  <ROCS_RefTverskyCombo>  (226) 
0.884 

>  <ROCS_FitTversky>  (226) 
1.268 

>  <ROCS_FitColorTversky>  (226) 
0.778 

>  <ROCS_FitTverskyCombo>  (226) 
2.046 

>  <ROCS_ColorScore>  (226) 
-4.888

>  <ROCS_Overlap>  (226) 
773.394

>  <ROCS_Rank>  (226) 
419                 

$$$$
untitled-dbase-556_180
     RDKit          3D

 16 17  0  0  0  0  0  0  0  0999 V2000
   -4.5793   12.4658  -29.7943 C   0  0  0  0  0  0  0  0  0  0  0  0
   -5.0465   11.1483  -31.7647 C   0  0  0  0  0  0  0  0  0  0  0  0
   -4.3201   12.1553  -31.1291 C   0  0  0  0  0  0  0  0  0  0  0  0
   -5.5650   11.7694  -29.0949 C   0  0  0  0  0  0  0  0  0  0  0  0
   -6.2915   10.7625  -29.7305 C   0  0  0  0  0  0  0  0  0  0  0  0
   -6.0323   10.4519  -31.0654 C   0  0  0  0  0  0  0  0  0  0  0  0
   -3.4683   14.3579  -31.9899 C   0  0  0  0  0  0  0  0  0  0  0  0
   -2.5951   12.1963  -33.0437 C   0  0  0  0  0  0  0  0  0  0  0  0
   -1.8363   12.3991  -31.7725 C   0  0  0  0  0  0  0  0  0  0  0  0
   -3.2678   12.9007  -31.8763 C   0  0  0  0  0  0  0  0  0  0  0  0
   -3.5794   14.9193  -33.3816 C   0  0  0  0  0  0  0  0  0  0  0  0
   -6.7872   13.0883  -27.5385 C   0  0  0  0  0  0  0  0  0  0  0  0
   -3.5432   15.0783  -30.9957 O   0  0  0  0  0  0  0  0  0  0  0  0
   -7.2513   10.0928  -29.0293 O   0  0  0  0  0  0  0  0  0  0  0  0
   -5.8073   12.0834  -27.7916 O   0  0  0  0  0  0  0  0  0  0  0  0
   -6.9996    9.0915  -31.9640 Br  0  0  0  0  0  0  0  0  0  0  0  0
  1  3  2  0
  1  4  1  0
  2  3  1  0
  2  6  2  0
  3 10  1  0
  4  5  2  0
  4 15  1  0
  5  6  1  0
  5 14  1  0
  6 16  1  0
  7 10  1  0
  7 11  1  0
  7 13  2  0
  8  9  1  0
  8 10  1  0
  9 10  1  0
 12 15  1  0
M  END
>  <id>  (227) 
EN300-1925690

>  <smiles>  (227) 
COC=1C=C(C=C(Br)C1O)C2(CC2)C(=O)C

>  <IUPAC Name>  (227) 
1-[1-(3-bromo-4-hydroxy-5-methoxyphenyl)cyclopropyl]ethan-1-one

>  <CAS>  (227) 
2228786-12-5

>  <URL>  (227) 
https://www.enaminestore.com/catalog/EN300-1925690

>  <ROCS_ShapeQuery>  (227) 
_x1604L0AP1_x0771L0AP1

>  <ROCS_TanimotoCombo>  (227) 
0.886 

>  <ROCS_ShapeTanimoto>  (227) 
0.504 

>  <ROCS_ColorTanimoto>  (227) 
0.382 

>  <ROCS_RefTversky>  (227) 
0.482 

>  <ROCS_RefColorTversky>  (227) 
0.429 

>  <ROCS_RefTverskyCombo>  (227) 
0.911 

>  <ROCS_FitTversky>  (227) 
1.100 

>  <ROCS_FitColorTversky>  (227) 
0.779 

>  <ROCS_FitTverskyCombo>  (227) 
1.879 

>  <ROCS_ColorScore>  (227) 
-4.897

>  <ROCS_Overlap>  (227) 
820.470

>  <ROCS_Rank>  (227) 
420                 

$$$$
untitled-dbase-826_42
     RDKit          3D

 13 14  0  0  1  0  0  0  0  0999 V2000
   -4.6193   12.5011  -29.8742 C   0  0  0  0  0  0  0  0  0  0  0  0
   -4.3678   12.1743  -31.2067 C   0  0  0  0  0  0  0  0  0  0  0  0
   -5.5845   11.7974  -29.1537 C   0  0  0  0  0  0  0  0  0  0  0  0
   -5.0814   11.1439  -31.8188 C   0  0  0  0  0  0  0  0  0  0  0  0
   -6.2981   10.7670  -29.7658 C   0  0  0  0  0  0  0  0  0  0  0  0
   -6.0466   10.4402  -31.0983 C   0  0  0  0  0  0  0  0  0  0  0  0
   -4.8534   11.9418  -34.2675 C   0  0  0  0  0  0  0  0  0  0  0  0
   -4.7784   10.8328  -33.2489 C   0  0  2  0  0  0  0  0  0  0  0  0
   -5.9022   10.8699  -34.2549 C   0  0  2  0  0  0  0  0  0  0  0  0
   -5.9520    9.8589  -35.3484 C   0  0  0  0  0  0  0  0  0  0  0  0
   -6.6773    8.6874  -34.9398 N   0  0  0  0  0  0  0  0  0  0  0  0
   -7.2353   10.1039  -29.0303 O   0  0  0  0  0  0  0  0  0  0  0  0
   -7.0326    9.0355  -31.9222 Br  0  0  0  0  0  0  0  0  0  0  0  0
  1  2  2  0
  1  3  1  0
  2  4  1  0
  3  5  2  0
  4  6  2  0
  8  4  1  1
  5  6  1  0
  5 12  1  0
  6 13  1  0
  7  8  1  0
  7  9  1  0
  8  9  1  0
  9 10  1  6
 10 11  1  0
M  END
>  <id>  (228) 
EN300-1904582

>  <smiles>  (228) 
NCC1CC1C=2C=CC=C(O)C2Br

>  <IUPAC Name>  (228) 
3-[2-(aminomethyl)cyclopropyl]-2-bromophenol

>  <CAS>  (228) 
2228647-56-9

>  <URL>  (228) 
https://www.enaminestore.com/catalog/EN300-1904582

>  <ROCS_ShapeQuery>  (228) 
_x1604L0AP1_x0771L0AP1

>  <ROCS_TanimotoCombo>  (228) 
0.886 

>  <ROCS_ShapeTanimoto>  (228) 
0.505 

>  <ROCS_ColorTanimoto>  (228) 
0.381 

>  <ROCS_RefTversky>  (228) 
0.456 

>  <ROCS_RefColorTversky>  (228) 
0.428 

>  <ROCS_RefTverskyCombo>  (228) 
0.884 

>  <ROCS_FitTversky>  (228) 
1.268 

>  <ROCS_FitColorTversky>  (228) 
0.778 

>  <ROCS_FitTverskyCombo>  (228) 
2.046 

>  <ROCS_ColorScore>  (228) 
-4.887

>  <ROCS_Overlap>  (228) 
773.359

>  <ROCS_Rank>  (228) 
421                 

$$$$
untitled-dbase-1045_61
     RDKit          3D

 11 11  0  0  0  0  0  0  0  0999 V2000
   -4.6078   12.4923  -29.8657 C   0  0  0  0  0  0  0  0  0  0  0  0
   -4.3640   12.1763  -31.2022 C   0  0  0  0  0  0  0  0  0  0  0  0
   -5.5739   11.7877  -29.1474 C   0  0  0  0  0  0  0  0  0  0  0  0
   -5.0863   11.1558  -31.8205 C   0  0  0  0  0  0  0  0  0  0  0  0
   -6.2962   10.7672  -29.7658 C   0  0  0  0  0  0  0  0  0  0  0  0
   -6.0525   10.4512  -31.1023 C   0  0  0  0  0  0  0  0  0  0  0  0
   -4.7876   10.8563  -33.2544 C   0  0  0  0  0  0  0  0  0  0  0  0
   -5.9432   11.0208  -34.0969 N   0  0  0  0  0  0  0  0  0  0  0  0
   -7.2329   10.1010  -29.0324 O   0  0  0  0  0  0  0  0  0  0  0  0
   -5.7809   10.0756  -35.1916 O   0  0  0  0  0  0  0  0  0  0  0  0
   -7.0439    9.0567  -31.9350 Br  0  0  0  0  0  0  0  0  0  0  0  0
  1  2  2  0
  1  3  1  0
  2  4  1  0
  3  5  2  0
  4  6  2  0
  4  7  1  0
  5  6  1  0
  5  9  1  0
  6 11  1  0
  7  8  1  0
  8 10  1  0
M  END
>  <id>  (229) 
EN300-1905038

>  <smiles>  (229) 
ONCC=1C=CC=C(O)C1Br

>  <MDLNUMBER>  (229) 
MFCD33535316

>  <IUPAC Name>  (229) 
2-bromo-3-[(hydroxyamino)methyl]phenol

>  <CAS>  (229) 
1935625-24-3

>  <URL>  (229) 
https://www.enaminestore.com/catalog/EN300-1905038

>  <ROCS_ShapeQuery>  (229) 
_x1604L0AP1_x0771L0AP1

>  <ROCS_TanimotoCombo>  (229) 
0.886 

>  <ROCS_ShapeTanimoto>  (229) 
0.473 

>  <ROCS_ColorTanimoto>  (229) 
0.413 

>  <ROCS_RefTversky>  (229) 
0.420 

>  <ROCS_RefColorTversky>  (229) 
0.429 

>  <ROCS_RefTverskyCombo>  (229) 
0.850 

>  <ROCS_FitTversky>  (229) 
1.363 

>  <ROCS_FitColorTversky>  (229) 
0.915 

>  <ROCS_FitTverskyCombo>  (229) 
2.278 

>  <ROCS_ColorScore>  (229) 
-4.881

>  <ROCS_Overlap>  (229) 
710.026

>  <ROCS_Rank>  (229) 
426                 

$$$$
untitled-dbase-2108_78
     RDKit          3D

 13 13  0  0  0  0  0  0  0  0999 V2000
   -4.5727   12.4604  -29.9177 C   0  0  0  0  0  0  0  0  0  0  0  0
   -4.3677   12.1429  -31.2603 C   0  0  0  0  0  0  0  0  0  0  0  0
   -5.5296   11.7681  -29.1755 C   0  0  0  0  0  0  0  0  0  0  0  0
   -5.1196   11.1332  -31.8609 C   0  0  0  0  0  0  0  0  0  0  0  0
   -6.2815   10.7583  -29.7761 C   0  0  0  0  0  0  0  0  0  0  0  0
   -6.0766   10.4409  -31.1188 C   0  0  0  0  0  0  0  0  0  0  0  0
   -5.8775   10.6661  -35.6174 C   0  0  0  0  0  0  0  0  0  0  0  0
   -6.0398    9.2330  -35.9991 C   0  0  0  0  0  0  0  0  0  0  0  0
   -4.8600   10.8292  -33.3136 C   0  0  0  0  0  0  0  0  0  0  0  0
   -6.1248   10.9787  -34.1572 C   0  0  0  0  0  0  0  0  0  0  0  0
   -5.5615   11.4927  -36.4634 O   0  0  0  0  0  0  0  0  0  0  0  0
   -7.2081   10.1040  -29.0195 O   0  0  0  0  0  0  0  0  0  0  0  0
   -7.1081    9.0612  -31.9271 Br  0  0  0  0  0  0  0  0  0  0  0  0
  1  2  2  0
  1  3  1  0
  2  4  1  0
  3  5  2  0
  4  6  2  0
  4  9  1  0
  5  6  1  0
  5 12  1  0
  6 13  1  0
  7  8  1  0
  7 10  1  0
  7 11  2  0
  9 10  1  0
M  END
>  <id>  (230) 
EN300-1893665

>  <smiles>  (230) 
CC(=O)CCC=1C=CC=C(O)C1Br

>  <MDLNUMBER>  (230) 
MFCD26654040

>  <IUPAC Name>  (230) 
4-(2-bromo-3-hydroxyphenyl)butan-2-one

>  <CAS>  (230) 
1531046-93-1

>  <URL>  (230) 
https://www.enaminestore.com/catalog/EN300-1893665

>  <ROCS_ShapeQuery>  (230) 
_x1604L0AP1_x0771L0AP1

>  <ROCS_TanimotoCombo>  (230) 
0.886 

>  <ROCS_ShapeTanimoto>  (230) 
0.474 

>  <ROCS_ColorTanimoto>  (230) 
0.411 

>  <ROCS_RefTversky>  (230) 
0.436 

>  <ROCS_RefColorTversky>  (230) 
0.428 

>  <ROCS_RefTverskyCombo>  (230) 
0.864 

>  <ROCS_FitTversky>  (230) 
1.231 

>  <ROCS_FitColorTversky>  (230) 
0.913 

>  <ROCS_FitTverskyCombo>  (230) 
2.143 

>  <ROCS_ColorScore>  (230) 
-4.869

>  <ROCS_Overlap>  (230) 
738.394

>  <ROCS_Rank>  (230) 
427                 

$$$$
untitled-dbase-882_214
     RDKit          3D

 13 13  0  0  1  0  0  0  0  0999 V2000
   -4.4780   12.2219  -31.2974 C   0  0  0  0  0  0  0  0  0  0  0  0
   -4.9186   12.6927  -30.0606 C   0  0  0  0  0  0  0  0  0  0  0  0
   -5.0146   11.0491  -31.8288 C   0  0  0  0  0  0  0  0  0  0  0  0
   -5.8958   11.9906  -29.3550 C   0  0  0  0  0  0  0  0  0  0  0  0
   -6.4323   10.8178  -29.8863 C   0  0  0  0  0  0  0  0  0  0  0  0
   -5.9917   10.3470  -31.1232 C   0  0  0  0  0  0  0  0  0  0  0  0
   -6.3577   12.5179  -28.0163 C   0  0  0  0  0  0  0  0  0  0  0  0
   -5.5987   10.4367  -26.7452 C   0  0  0  0  0  0  0  0  0  0  0  0
   -5.5203   11.9619  -26.8561 C   0  0  2  0  0  0  0  0  0  0  0  0
   -6.8124   10.0201  -26.0809 N   0  0  0  0  0  0  0  0  0  0  0  0
   -7.3865   10.1412  -29.1832 O   0  0  0  0  0  0  0  0  0  0  0  0
   -5.9683   12.5473  -25.6334 O   0  0  0  0  0  0  0  0  0  0  0  0
   -6.6967    8.7580  -31.8796 Br  0  0  0  0  0  0  0  0  0  0  0  0
  1  2  2  0
  1  3  1  0
  2  4  1  0
  3  6  2  0
  4  5  2  0
  4  7  1  0
  5  6  1  0
  5 11  1  0
  6 13  1  0
  7  9  1  0
  8  9  1  0
  8 10  1  0
  9 12  1  1
M  END
>  <id>  (231) 
EN300-1923154

>  <smiles>  (231) 
NCC(O)CC=1C=CC=C(Br)C1O

>  <IUPAC Name>  (231) 
2-(3-amino-2-hydroxypropyl)-6-bromophenol

>  <CAS>  (231) 
2228256-28-6

>  <URL>  (231) 
https://www.enaminestore.com/catalog/EN300-1923154

>  <ROCS_ShapeQuery>  (231) 
_x1604L0AP1_x0771L0AP1

>  <ROCS_TanimotoCombo>  (231) 
0.886 

>  <ROCS_ShapeTanimoto>  (231) 
0.405 

>  <ROCS_ColorTanimoto>  (231) 
0.480 

>  <ROCS_RefTversky>  (231) 
0.390 

>  <ROCS_RefColorTversky>  (231) 
0.555 

>  <ROCS_RefTverskyCombo>  (231) 
0.946 

>  <ROCS_FitTversky>  (231) 
1.106 

>  <ROCS_FitColorTversky>  (231) 
0.781 

>  <ROCS_FitTverskyCombo>  (231) 
1.887 

>  <ROCS_ColorScore>  (231) 
-6.393

>  <ROCS_Overlap>  (231) 
661.372

>  <ROCS_Rank>  (231) 
428                 

$$$$
untitled-dbase-950_13
     RDKit          3D

 13 13  0  0  0  0  0  0  0  0999 V2000
   -2.9859   15.3659  -30.9626 C   0  0  0  0  0  0  0  0  0  0  0  0
   -3.0987   14.2450  -31.3780 C   0  0  0  0  0  0  0  0  0  0  0  0
   -4.5596   12.4490  -29.8018 C   0  0  0  0  0  0  0  0  0  0  0  0
   -5.0336   11.1280  -31.7682 C   0  0  0  0  0  0  0  0  0  0  0  0
   -4.3009   12.1320  -31.1352 C   0  0  0  0  0  0  0  0  0  0  0  0
   -5.5510   11.7619  -29.1012 C   0  0  0  0  0  0  0  0  0  0  0  0
   -6.2838   10.7579  -29.7342 C   0  0  0  0  0  0  0  0  0  0  0  0
   -6.0251   10.4409  -31.0677 C   0  0  0  0  0  0  0  0  0  0  0  0
   -4.9976   13.1217  -27.2303 C   0  0  0  0  0  0  0  0  0  0  0  0
   -3.2415   12.8674  -31.8841 C   0  0  0  0  0  0  0  0  0  0  0  0
   -7.2501   10.0979  -29.0325 O   0  0  0  0  0  0  0  0  0  0  0  0
   -5.7924   12.0834  -27.7995 O   0  0  0  0  0  0  0  0  0  0  0  0
   -7.0001    9.0829  -31.9616 Br  0  0  0  0  0  0  0  0  0  0  0  0
  1  2  3  0
  2 10  1  0
  3  5  2  0
  3  6  1  0
  4  5  1  0
  4  8  2  0
  5 10  1  0
  6  7  2  0
  6 12  1  0
  7  8  1  0
  7 11  1  0
  8 13  1  0
  9 12  1  0
M  END
>  <id>  (232) 
EN300-1927015

>  <smiles>  (232) 
COC=1C=C(CC#C)C=C(Br)C1O

>  <IUPAC Name>  (232) 
2-bromo-6-methoxy-4-(prop-2-yn-1-yl)phenol

>  <CAS>  (232) 
2228268-92-4

>  <URL>  (232) 
https://www.enaminestore.com/catalog/EN300-1927015

>  <ROCS_ShapeQuery>  (232) 
_x1604L0AP1_x0771L0AP1

>  <ROCS_TanimotoCombo>  (232) 
0.885 

>  <ROCS_ShapeTanimoto>  (232) 
0.502 

>  <ROCS_ColorTanimoto>  (232) 
0.383 

>  <ROCS_RefTversky>  (232) 
0.454 

>  <ROCS_RefColorTversky>  (232) 
0.429 

>  <ROCS_RefTverskyCombo>  (232) 
0.883 

>  <ROCS_FitTversky>  (232) 
1.266 

>  <ROCS_FitColorTversky>  (232) 
0.779 

>  <ROCS_FitTverskyCombo>  (232) 
2.045 

>  <ROCS_ColorScore>  (232) 
-4.898

>  <ROCS_Overlap>  (232) 
770.130

>  <ROCS_Rank>  (232) 
436                 

$$$$
untitled-dbase-1550_77
     RDKit          3D

 15 15  0  0  1  0  0  0  0  0999 V2000
   -4.5967   12.4766  -29.8145 C   0  0  0  0  0  0  0  0  0  0  0  0
   -4.3190   12.1543  -31.1428 C   0  0  0  0  0  0  0  0  0  0  0  0
   -5.5855   11.7799  -29.1198 C   0  0  0  0  0  0  0  0  0  0  0  0
   -5.0302   11.1353  -31.7766 C   0  0  0  0  0  0  0  0  0  0  0  0
   -6.2967   10.7609  -29.7535 C   0  0  0  0  0  0  0  0  0  0  0  0
   -6.0190   10.4386  -31.0819 C   0  0  0  0  0  0  0  0  0  0  0  0
   -4.6949   10.8289  -33.2009 C   0  0  0  0  0  0  0  0  0  0  0  0
   -5.5293   11.6510  -34.1983 C   0  0  2  0  0  0  0  0  0  0  0  0
   -6.8975   11.0396  -34.4328 C   0  0  0  0  0  0  0  0  0  0  0  0
   -7.2562   10.1025  -29.0430 O   0  0  0  0  0  0  0  0  0  0  0  0
   -4.8374   11.6970  -35.4448 O   0  0  0  0  0  0  0  0  0  0  0  0
   -7.5873   11.7456  -35.3559 F   0  0  0  0  0  0  0  0  0  0  0  0
   -7.6291   11.0353  -33.2970 F   0  0  0  0  0  0  0  0  0  0  0  0
   -6.8052    9.7659  -34.8705 F   0  0  0  0  0  0  0  0  0  0  0  0
   -6.9955    9.0464  -31.9359 Br  0  0  0  0  0  0  0  0  0  0  0  0
  1  2  2  0
  1  3  1  0
  2  4  1  0
  3  5  2  0
  4  6  2  0
  4  7  1  0
  5  6  1  0
  5 10  1  0
  6 15  1  0
  7  8  1  0
  8  9  1  0
  8 11  1  6
  9 12  1  0
  9 13  1  0
  9 14  1  0
M  END
>  <id>  (233) 
EN300-1950767

>  <smiles>  (233) 
OC(CC=1C=CC=C(O)C1Br)C(F)(F)F

>  <IUPAC Name>  (233) 
2-bromo-3-(3,3,3-trifluoro-2-hydroxypropyl)phenol

>  <CAS>  (233) 
2228693-39-6

>  <URL>  (233) 
https://www.enaminestore.com/catalog/EN300-1950767

>  <ROCS_ShapeQuery>  (233) 
_x1604L0AP1_x0771L0AP1

>  <ROCS_TanimotoCombo>  (233) 
0.885 

>  <ROCS_ShapeTanimoto>  (233) 
0.504 

>  <ROCS_ColorTanimoto>  (233) 
0.381 

>  <ROCS_RefTversky>  (233) 
0.473 

>  <ROCS_RefColorTversky>  (233) 
0.428 

>  <ROCS_RefTverskyCombo>  (233) 
0.901 

>  <ROCS_FitTversky>  (233) 
1.146 

>  <ROCS_FitColorTversky>  (233) 
0.777 

>  <ROCS_FitTverskyCombo>  (233) 
1.923 

>  <ROCS_ColorScore>  (233) 
-4.882

>  <ROCS_Overlap>  (233) 
804.799

>  <ROCS_Rank>  (233) 
437                 

$$$$
untitled-dbase-631_1
     RDKit          3D

 11 11  0  0  0  0  0  0  0  0999 V2000
   -4.3592   12.1700  -31.2301 C   0  0  0  0  0  0  0  0  0  0  0  0
   -5.0731   11.1232  -31.8132 C   0  0  0  0  0  0  0  0  0  0  0  0
   -5.5802   11.8548  -29.1693 C   0  0  0  0  0  0  0  0  0  0  0  0
   -4.6127   12.5359  -29.9081 C   0  0  0  0  0  0  0  0  0  0  0  0
   -6.2941   10.8080  -29.7524 C   0  0  0  0  0  0  0  0  0  0  0  0
   -6.0405   10.4421  -31.0744 C   0  0  0  0  0  0  0  0  0  0  0  0
   -5.8461   12.2351  -27.7861 C   0  0  0  0  0  0  0  0  0  0  0  0
   -3.8316   13.6610  -29.3106 C   0  0  0  0  0  0  0  0  0  0  0  0
   -6.2327   11.4339  -26.9343 O   0  0  0  0  0  0  0  0  0  0  0  0
   -7.2385   10.1472  -29.0208 O   0  0  0  0  0  0  0  0  0  0  0  0
   -6.9899    9.0261  -31.9038 Br  0  0  0  0  0  0  0  0  0  0  0  0
  1  2  2  0
  1  4  1  0
  2  6  1  0
  3  4  2  0
  3  5  1  0
  3  7  1  0
  4  8  1  0
  5  6  2  0
  5 10  1  0
  6 11  1  0
  7  9  2  0
M  END
>  <id>  (234) 
EN300-180454

>  <smiles>  (234) 
CC=1C=CC(Br)=C(O)C1C=O

>  <MDLNUMBER>  (234) 
MFCD16657857

>  <IUPAC Name>  (234) 
3-bromo-2-hydroxy-6-methylbenzaldehyde

>  <CAS>  (234) 
160561-95-5

>  <Purity>  (234) 
95

>  <URL>  (234) 
https://www.enaminestore.com/catalog/EN300-180454

>  <ROCS_ShapeQuery>  (234) 
_x1604L0AP1_x0771L0AP1

>  <ROCS_TanimotoCombo>  (234) 
0.885 

>  <ROCS_ShapeTanimoto>  (234) 
0.460 

>  <ROCS_ColorTanimoto>  (234) 
0.424 

>  <ROCS_RefTversky>  (234) 
0.414 

>  <ROCS_RefColorTversky>  (234) 
0.438 

>  <ROCS_RefTverskyCombo>  (234) 
0.852 

>  <ROCS_FitTversky>  (234) 
1.318 

>  <ROCS_FitColorTversky>  (234) 
0.932 

>  <ROCS_FitTverskyCombo>  (234) 
2.250 

>  <ROCS_ColorScore>  (234) 
-4.974

>  <ROCS_Overlap>  (234) 
700.765

>  <ROCS_Rank>  (234) 
438                 

$$$$
untitled-dbase-1924_0
     RDKit          3D

 11 11  0  0  0  0  0  0  0  0999 V2000
   -4.3383   12.1492  -31.2279 C   0  0  0  0  0  0  0  0  0  0  0  0
   -5.0782   11.1260  -31.8207 C   0  0  0  0  0  0  0  0  0  0  0  0
   -5.5330   11.8122  -29.1551 C   0  0  0  0  0  0  0  0  0  0  0  0
   -6.2729   10.7891  -29.7479 C   0  0  0  0  0  0  0  0  0  0  0  0
   -4.5657   12.4922  -29.8951 C   0  0  0  0  0  0  0  0  0  0  0  0
   -6.0455   10.4460  -31.0807 C   0  0  0  0  0  0  0  0  0  0  0  0
   -5.7546   12.1856  -27.7644 C   0  0  0  0  0  0  0  0  0  0  0  0
   -6.5899   11.6328  -27.0459 O   0  0  0  0  0  0  0  0  0  0  0  0
   -7.2169   10.1309  -29.0136 O   0  0  0  0  0  0  0  0  0  0  0  0
   -3.8476   13.4769  -29.3365 F   0  0  0  0  0  0  0  0  0  0  0  0
   -7.0302    9.0623  -31.9230 Br  0  0  0  0  0  0  0  0  0  0  0  0
  1  2  2  0
  1  5  1  0
  2  6  1  0
  3  4  1  0
  3  5  2  0
  3  7  1  0
  4  6  2  0
  4  9  1  0
  5 10  1  0
  6 11  1  0
  7  8  2  0
M  END
>  <id>  (235) 
EN300-306187

>  <smiles>  (235) 
OC=1C(Br)=CC=C(F)C1C=O

>  <MDLNUMBER>  (235) 
MFCD20528359

>  <IUPAC Name>  (235) 
3-bromo-6-fluoro-2-hydroxybenzaldehyde

>  <CAS>  (235) 
199287-82-6

>  <Purity>  (235) 
95

>  <URL>  (235) 
https://www.enaminestore.com/catalog/EN300-306187

>  <ROCS_ShapeQuery>  (235) 
_x1604L0AP1_x0771L0AP1

>  <ROCS_TanimotoCombo>  (235) 
0.884 

>  <ROCS_ShapeTanimoto>  (235) 
0.460 

>  <ROCS_ColorTanimoto>  (235) 
0.424 

>  <ROCS_RefTversky>  (235) 
0.415 

>  <ROCS_RefColorTversky>  (235) 
0.437 

>  <ROCS_RefTverskyCombo>  (235) 
0.853 

>  <ROCS_FitTversky>  (235) 
1.306 

>  <ROCS_FitColorTversky>  (235) 
0.931 

>  <ROCS_FitTverskyCombo>  (235) 
2.238 

>  <ROCS_ColorScore>  (235) 
-4.972

>  <ROCS_Overlap>  (235) 
702.618

>  <ROCS_Rank>  (235) 
441                 

$$$$
untitled-dbase-1074_242
     RDKit          3D

 14 14  0  0  1  0  0  0  0  0999 V2000
   -4.5729   12.4605  -29.8051 C   0  0  0  0  0  0  0  0  0  0  0  0
   -5.0431   11.1369  -31.7707 C   0  0  0  0  0  0  0  0  0  0  0  0
   -4.3143   12.1444  -31.1388 C   0  0  0  0  0  0  0  0  0  0  0  0
   -5.5603   11.7690  -29.1032 C   0  0  0  0  0  0  0  0  0  0  0  0
   -6.2892   10.7615  -29.7352 C   0  0  0  0  0  0  0  0  0  0  0  0
   -6.0306   10.4454  -31.0689 C   0  0  0  0  0  0  0  0  0  0  0  0
   -4.3693   15.1355  -31.5024 C   0  0  0  0  0  0  0  0  0  0  0  0
   -6.7787   13.0983  -27.5527 C   0  0  0  0  0  0  0  0  0  0  0  0
   -3.2591   12.8845  -31.8890 C   0  0  0  0  0  0  0  0  0  0  0  0
   -3.0789   14.3327  -31.3955 C   0  0  2  0  0  0  0  0  0  0  0  0
   -7.2516   10.0972  -29.0322 O   0  0  0  0  0  0  0  0  0  0  0  0
   -2.6645   14.3266  -30.0306 O   0  0  0  0  0  0  0  0  0  0  0  0
   -5.8017   12.0895  -27.8013 O   0  0  0  0  0  0  0  0  0  0  0  0
   -7.0004    9.0828  -31.9615 Br  0  0  0  0  0  0  0  0  0  0  0  0
  1  3  2  0
  1  4  1  0
  2  3  1  0
  2  6  2  0
  3  9  1  0
  4  5  2  0
  4 13  1  0
  5  6  1  0
  5 11  1  0
  6 14  1  0
 10  7  1  1
  8 13  1  0
  9 10  1  0
 10 12  1  0
M  END
>  <id>  (236) 
EN300-1927012

>  <smiles>  (236) 
COC=1C=C(C[C@@H](C)O)C=C(Br)C1O

>  <IUPAC Name>  (236) 
2-bromo-4-[(2R)-2-hydroxypropyl]-6-methoxyphenol

>  <CAS>  (236) 
2227685-76-7

>  <URL>  (236) 
https://www.enaminestore.com/catalog/EN300-1927012

>  <ROCS_ShapeQuery>  (236) 
_x1604L0AP1_x0771L0AP1

>  <ROCS_TanimotoCombo>  (236) 
0.884 

>  <ROCS_ShapeTanimoto>  (236) 
0.529 

>  <ROCS_ColorTanimoto>  (236) 
0.355 

>  <ROCS_RefTversky>  (236) 
0.477 

>  <ROCS_RefColorTversky>  (236) 
0.427 

>  <ROCS_RefTverskyCombo>  (236) 
0.904 

>  <ROCS_FitTversky>  (236) 
1.258 

>  <ROCS_FitColorTversky>  (236) 
0.677 

>  <ROCS_FitTverskyCombo>  (236) 
1.935 

>  <ROCS_ColorScore>  (236) 
-4.898

>  <ROCS_Overlap>  (236) 
809.930

>  <ROCS_Rank>  (236) 
442                 

$$$$
untitled-dbase-1722_15
     RDKit          3D

 13 13  0  0  1  0  0  0  0  0999 V2000
   -4.6001   12.4797  -29.8386 C   0  0  0  0  0  0  0  0  0  0  0  0
   -5.5771   11.7818  -29.1286 C   0  0  0  0  0  0  0  0  0  0  0  0
   -5.0645   11.1400  -31.7947 C   0  0  0  0  0  0  0  0  0  0  0  0
   -4.3438   12.1589  -31.1716 C   0  0  0  0  0  0  0  0  0  0  0  0
   -6.2977   10.7629  -29.7517 C   0  0  0  0  0  0  0  0  0  0  0  0
   -6.0414   10.4420  -31.0848 C   0  0  0  0  0  0  0  0  0  0  0  0
   -3.2989   12.9056  -31.9295 C   0  0  2  0  0  0  0  0  0  0  0  0
   -2.1447   13.3841  -31.0364 C   0  0  0  0  0  0  0  0  0  0  0  0
   -3.8544   14.0679  -32.6469 N   0  0  0  0  0  0  0  0  0  0  0  0
   -7.2445   10.0989  -29.0299 O   0  0  0  0  0  0  0  0  0  0  0  0
   -1.0706   13.6767  -31.8157 F   0  0  0  0  0  0  0  0  0  0  0  0
   -2.4796   14.5431  -30.4106 F   0  0  0  0  0  0  0  0  0  0  0  0
   -7.0002    9.0626  -31.9628 Br  0  0  0  0  0  0  0  0  0  0  0  0
  1  2  2  0
  1  4  1  0
  2  5  1  0
  3  4  2  0
  3  6  1  0
  4  7  1  0
  5  6  2  0
  5 10  1  0
  6 13  1  0
  7  8  1  0
  7  9  1  1
  8 11  1  0
  8 12  1  0
M  END
>  <id>  (237) 
EN300-1937532

>  <smiles>  (237) 
NC(C(F)F)C=1C=CC(O)=C(Br)C1

>  <MDLNUMBER>  (237) 
MFCD26136569

>  <IUPAC Name>  (237) 
4-(1-amino-2,2-difluoroethyl)-2-bromophenol

>  <CAS>  (237) 
1824621-54-6

>  <URL>  (237) 
https://www.enaminestore.com/catalog/EN300-1937532

>  <ROCS_ShapeQuery>  (237) 
_x1604L0AP1_x0771L0AP1

>  <ROCS_TanimotoCombo>  (237) 
0.884 

>  <ROCS_ShapeTanimoto>  (237) 
0.503 

>  <ROCS_ColorTanimoto>  (237) 
0.380 

>  <ROCS_RefTversky>  (237) 
0.455 

>  <ROCS_RefColorTversky>  (237) 
0.427 

>  <ROCS_RefTverskyCombo>  (237) 
0.883 

>  <ROCS_FitTversky>  (237) 
1.265 

>  <ROCS_FitColorTversky>  (237) 
0.776 

>  <ROCS_FitTverskyCombo>  (237) 
2.041 

>  <ROCS_ColorScore>  (237) 
-4.878

>  <ROCS_Overlap>  (237) 
771.732

>  <ROCS_Rank>  (237) 
445                 

$$$$
untitled-dbase-2172_35
     RDKit          3D

 14 14  0  0  0  0  0  0  0  0999 V2000
   -4.3616   12.1781  -31.1909 C   0  0  0  0  0  0  0  0  0  0  0  0
   -4.6078   12.4967  -29.8555 C   0  0  0  0  0  0  0  0  0  0  0  0
   -5.0822   11.1557  -31.8083 C   0  0  0  0  0  0  0  0  0  0  0  0
   -5.5744   11.7928  -29.1373 C   0  0  0  0  0  0  0  0  0  0  0  0
   -6.2950   10.7703  -29.7546 C   0  0  0  0  0  0  0  0  0  0  0  0
   -6.0488   10.4518  -31.0901 C   0  0  0  0  0  0  0  0  0  0  0  0
   -5.0225   13.1736  -27.2813 C   0  0  0  0  0  0  0  0  0  0  0  0
   -4.7811   10.8546  -33.2414 C   0  0  0  0  0  0  0  0  0  0  0  0
   -5.7990   11.4376  -34.2386 C   0  0  0  0  0  0  0  0  0  0  0  0
   -5.4636   11.0868  -35.6879 C   0  0  0  0  0  0  0  0  0  0  0  0
   -7.2356   10.0964  -29.0311 O   0  0  0  0  0  0  0  0  0  0  0  0
   -5.8034   12.1158  -27.8336 O   0  0  0  0  0  0  0  0  0  0  0  0
   -5.4369    9.2851  -35.9199 S   0  0  0  0  0  0  0  0  0  0  0  0
   -7.0430    9.0612  -31.9274 Br  0  0  0  0  0  0  0  0  0  0  0  0
  1  2  2  0
  1  3  1  0
  2  4  1  0
  3  6  2  0
  3  8  1  0
  4  5  2  0
  4 12  1  0
  5  6  1  0
  5 11  1  0
  6 14  1  0
  7 12  1  0
  8  9  1  0
  9 10  1  0
 10 13  1  0
M  END
>  <id>  (238) 
EN300-1936287

>  <smiles>  (238) 
COC=1C=CC(CCCS)=C(Br)C1O

>  <IUPAC Name>  (238) 
2-bromo-6-methoxy-3-(3-sulfanylpropyl)phenol

>  <CAS>  (238) 
2229626-77-9

>  <URL>  (238) 
https://www.enaminestore.com/catalog/EN300-1936287

>  <ROCS_ShapeQuery>  (238) 
_x1604L0AP1_x0771L0AP1

>  <ROCS_TanimotoCombo>  (238) 
0.884 

>  <ROCS_ShapeTanimoto>  (238) 
0.468 

>  <ROCS_ColorTanimoto>  (238) 
0.415 

>  <ROCS_RefTversky>  (238) 
0.438 

>  <ROCS_RefColorTversky>  (238) 
0.431 

>  <ROCS_RefTverskyCombo>  (238) 
0.869 

>  <ROCS_FitTversky>  (238) 
1.175 

>  <ROCS_FitColorTversky>  (238) 
0.918 

>  <ROCS_FitTverskyCombo>  (238) 
2.094 

>  <ROCS_ColorScore>  (238) 
-4.900

>  <ROCS_Overlap>  (238) 
742.565

>  <ROCS_Rank>  (238) 
447                 

$$$$
untitled-dbase-1247_14
     RDKit          3D

 13 13  0  0  0  0  0  0  0  0999 V2000
   -4.6003   12.4842  -29.8442 C   0  0  0  0  0  0  0  0  0  0  0  0
   -4.3467   12.1690  -31.1790 C   0  0  0  0  0  0  0  0  0  0  0  0
   -5.5749   11.7823  -29.1348 C   0  0  0  0  0  0  0  0  0  0  0  0
   -5.0678   11.1519  -31.8046 C   0  0  0  0  0  0  0  0  0  0  0  0
   -6.2960   10.7652  -29.7603 C   0  0  0  0  0  0  0  0  0  0  0  0
   -6.0424   10.4500  -31.0952 C   0  0  0  0  0  0  0  0  0  0  0  0
   -3.6554    9.7879  -33.4534 C   0  0  0  0  0  0  0  0  0  0  0  0
   -4.3644   12.1426  -33.9889 C   0  0  0  0  0  0  0  0  0  0  0  0
   -4.7584   10.8531  -33.2364 C   0  0  0  0  0  0  0  0  0  0  0  0
   -6.7642   11.4527  -34.2333 N   0  0  0  0  0  0  0  0  0  0  0  0
   -7.2411   10.1016  -29.0355 O   0  0  0  0  0  0  0  0  0  0  0  0
   -5.9253   10.3206  -33.9018 O   0  0  0  0  0  0  0  0  0  0  0  0
   -7.0322    9.0603  -31.9379 Br  0  0  0  0  0  0  0  0  0  0  0  0
  1  2  2  0
  1  3  1  0
  2  4  1  0
  3  5  2  0
  4  6  2  0
  4  9  1  0
  5  6  1  0
  5 11  1  0
  6 13  1  0
  7  9  1  0
  8  9  1  0
  9 12  1  0
 10 12  1  0
M  END
>  <id>  (239) 
EN300-1904535

>  <smiles>  (239) 
CC(C)(ON)C=1C=CC=C(O)C1Br

>  <IUPAC Name>  (239) 
3-[2-(aminooxy)propan-2-yl]-2-bromophenol

>  <CAS>  (239) 
2228745-91-1

>  <URL>  (239) 
https://www.enaminestore.com/catalog/EN300-1904535

>  <ROCS_ShapeQuery>  (239) 
_x1604L0AP1_x0771L0AP1

>  <ROCS_TanimotoCombo>  (239) 
0.884 

>  <ROCS_ShapeTanimoto>  (239) 
0.470 

>  <ROCS_ColorTanimoto>  (239) 
0.413 

>  <ROCS_RefTversky>  (239) 
0.435 

>  <ROCS_RefColorTversky>  (239) 
0.430 

>  <ROCS_RefTverskyCombo>  (239) 
0.865 

>  <ROCS_FitTversky>  (239) 
1.206 

>  <ROCS_FitColorTversky>  (239) 
0.915 

>  <ROCS_FitTverskyCombo>  (239) 
2.122 

>  <ROCS_ColorScore>  (239) 
-4.883

>  <ROCS_Overlap>  (239) 
737.986

>  <ROCS_Rank>  (239) 
448                 

$$$$
untitled-dbase-523_57
     RDKit          3D

 12 12  0  0  0  0  0  0  0  0999 V2000
   -4.3490   12.1804  -31.1722 C   0  0  0  0  0  0  0  0  0  0  0  0
   -4.6051   12.4974  -29.8382 C   0  0  0  0  0  0  0  0  0  0  0  0
   -5.0649   11.1588  -31.7962 C   0  0  0  0  0  0  0  0  0  0  0  0
   -5.5771   11.7927  -29.1282 C   0  0  0  0  0  0  0  0  0  0  0  0
   -6.2931   10.7710  -29.7521 C   0  0  0  0  0  0  0  0  0  0  0  0
   -6.0370   10.4541  -31.0861 C   0  0  0  0  0  0  0  0  0  0  0  0
   -5.0390   13.1712  -27.2665 C   0  0  0  0  0  0  0  0  0  0  0  0
   -4.7532   10.8594  -33.2274 C   0  0  0  0  0  0  0  0  0  0  0  0
   -7.2392   10.0963  -29.0364 O   0  0  0  0  0  0  0  0  0  0  0  0
   -5.8158   12.1141  -27.8259 O   0  0  0  0  0  0  0  0  0  0  0  0
   -6.2064   11.0344  -34.3047 S   0  0  0  0  0  0  0  0  0  0  0  0
   -7.0249    9.0646  -31.9325 Br  0  0  0  0  0  0  0  0  0  0  0  0
  1  2  2  0
  1  3  1  0
  2  4  1  0
  3  6  2  0
  3  8  1  0
  4  5  2  0
  4 10  1  0
  5  6  1  0
  5  9  1  0
  6 12  1  0
  7 10  1  0
  8 11  1  0
M  END
>  <id>  (240) 
EN300-1936285

>  <smiles>  (240) 
COC=1C=CC(CS)=C(Br)C1O

>  <IUPAC Name>  (240) 
2-bromo-6-methoxy-3-(sulfanylmethyl)phenol

>  <CAS>  (240) 
2228975-81-1

>  <URL>  (240) 
https://www.enaminestore.com/catalog/EN300-1936285

>  <ROCS_ShapeQuery>  (240) 
_x1604L0AP1_x0771L0AP1

>  <ROCS_TanimotoCombo>  (240) 
0.884 

>  <ROCS_ShapeTanimoto>  (240) 
0.468 

>  <ROCS_ColorTanimoto>  (240) 
0.415 

>  <ROCS_RefTversky>  (240) 
0.424 

>  <ROCS_RefColorTversky>  (240) 
0.431 

>  <ROCS_RefTverskyCombo>  (240) 
0.856 

>  <ROCS_FitTversky>  (240) 
1.282 

>  <ROCS_FitColorTversky>  (240) 
0.919 

>  <ROCS_FitTverskyCombo>  (240) 
2.201 

>  <ROCS_ColorScore>  (240) 
-4.902

>  <ROCS_Overlap>  (240) 
718.130

>  <ROCS_Rank>  (240) 
449                 

$$$$
untitled-dbase-64_0
     RDKit          3D

 10 10  0  0  0  0  0  0  0  0999 V2000
   -3.8402   13.5225  -29.2725 C   0  0  0  0  0  0  0  0  0  0  0  0
   -4.3503   12.1432  -31.2262 C   0  0  0  0  0  0  0  0  0  0  0  0
   -5.0815   11.1215  -31.8321 C   0  0  0  0  0  0  0  0  0  0  0  0
   -5.5609   11.7878  -29.1658 C   0  0  0  0  0  0  0  0  0  0  0  0
   -4.5899   12.4763  -29.8930 C   0  0  0  0  0  0  0  0  0  0  0  0
   -6.2922   10.7661  -29.7717 C   0  0  0  0  0  0  0  0  0  0  0  0
   -6.0525   10.4330  -31.1049 C   0  0  0  0  0  0  0  0  0  0  0  0
   -3.2313   14.3723  -28.7685 N   0  0  0  0  0  0  0  0  0  0  0  0
   -7.2326   10.1110  -29.0336 O   0  0  0  0  0  0  0  0  0  0  0  0
   -7.0251    9.0495  -31.9604 Br  0  0  0  0  0  0  0  0  0  0  0  0
  1  5  1  0
  1  8  3  0
  2  3  2  0
  2  5  1  0
  3  7  1  0
  4  5  2  0
  4  6  1  0
  6  7  2  0
  6  9  1  0
  7 10  1  0
M  END
>  <id>  (241) 
EN300-223878

>  <smiles>  (241) 
OC=1C=C(C#N)C=CC1Br

>  <MDLNUMBER>  (241) 
MFCD16999194

>  <IUPAC Name>  (241) 
4-bromo-3-hydroxybenzonitrile

>  <CAS>  (241) 
916213-60-0

>  <Purity>  (241) 
95

>  <URL>  (241) 
https://www.enaminestore.com/catalog/EN300-223878

>  <MP>  (241) 
158-160

>  <ROCS_ShapeQuery>  (241) 
_x1604L0AP1_x0771L0AP1

>  <ROCS_TanimotoCombo>  (241) 
0.883 

>  <ROCS_ShapeTanimoto>  (241) 
0.471 

>  <ROCS_ColorTanimoto>  (241) 
0.413 

>  <ROCS_RefTversky>  (241) 
0.413 

>  <ROCS_RefColorTversky>  (241) 
0.429 

>  <ROCS_RefTverskyCombo>  (241) 
0.842 

>  <ROCS_FitTversky>  (241) 
1.430 

>  <ROCS_FitColorTversky>  (241) 
0.914 

>  <ROCS_FitTverskyCombo>  (241) 
2.344 

>  <ROCS_ColorScore>  (241) 
-4.878

>  <ROCS_Overlap>  (241) 
696.617

>  <ROCS_Rank>  (241) 
450                 

$$$$
untitled-dbase-2215_14
     RDKit          3D

 13 13  0  0  0  0  0  0  0  0999 V2000
   -3.1073   14.2410  -31.3740 C   0  0  0  0  0  0  0  0  0  0  0  0
   -4.5617   12.4496  -29.8018 C   0  0  0  0  0  0  0  0  0  0  0  0
   -5.0357   11.1285  -31.7682 C   0  0  0  0  0  0  0  0  0  0  0  0
   -4.3030   12.1326  -31.1352 C   0  0  0  0  0  0  0  0  0  0  0  0
   -5.5529   11.7623  -29.1011 C   0  0  0  0  0  0  0  0  0  0  0  0
   -6.2856   10.7582  -29.7341 C   0  0  0  0  0  0  0  0  0  0  0  0
   -6.0270   10.4413  -31.0676 C   0  0  0  0  0  0  0  0  0  0  0  0
   -6.7671   13.0968  -27.5517 C   0  0  0  0  0  0  0  0  0  0  0  0
   -3.2438   12.8682  -31.8842 C   0  0  0  0  0  0  0  0  0  0  0  0
   -2.9999   15.3245  -30.9728 N   0  0  0  0  0  0  0  0  0  0  0  0
   -7.2517   10.0981  -29.0323 O   0  0  0  0  0  0  0  0  0  0  0  0
   -5.7943   12.0837  -27.7994 O   0  0  0  0  0  0  0  0  0  0  0  0
   -7.0018    9.0831  -31.9615 Br  0  0  0  0  0  0  0  0  0  0  0  0
  1  9  1  0
  1 10  3  0
  2  4  2  0
  2  5  1  0
  3  4  1  0
  3  7  2  0
  4  9  1  0
  5  6  2  0
  5 12  1  0
  6  7  1  0
  6 11  1  0
  7 13  1  0
  8 12  1  0
M  END
>  <id>  (242) 
EN300-1910632

>  <smiles>  (242) 
COC=1C=C(CC#N)C=C(Br)C1O

>  <MDLNUMBER>  (242) 
MFCD00060307

>  <IUPAC Name>  (242) 
2-(3-bromo-4-hydroxy-5-methoxyphenyl)acetonitrile

>  <CAS>  (242) 
81038-44-0

>  <URL>  (242) 
https://www.enaminestore.com/catalog/EN300-1910632

>  <MP>  (242) 
145-146

>  <ROCS_ShapeQuery>  (242) 
_x1604L0AP1_x0771L0AP1

>  <ROCS_TanimotoCombo>  (242) 
0.883 

>  <ROCS_ShapeTanimoto>  (242) 
0.501 

>  <ROCS_ColorTanimoto>  (242) 
0.383 

>  <ROCS_RefTversky>  (242) 
0.454 

>  <ROCS_RefColorTversky>  (242) 
0.429 

>  <ROCS_RefTverskyCombo>  (242) 
0.883 

>  <ROCS_FitTversky>  (242) 
1.262 

>  <ROCS_FitColorTversky>  (242) 
0.779 

>  <ROCS_FitTverskyCombo>  (242) 
2.041 

>  <ROCS_ColorScore>  (242) 
-4.898

>  <ROCS_Overlap>  (242) 
768.956

>  <ROCS_Rank>  (242) 
452                 

$$$$
untitled-dbase-1374_1
     RDKit          3D

 12 12  0  0  0  0  0  0  0  0999 V2000
   -4.8204   12.6494  -29.5602 C   0  0  0  0  0  0  0  0  0  0  0  0
   -4.9664   11.2622  -31.5329 C   0  0  0  0  0  0  0  0  0  0  0  0
   -5.8262   11.8955  -28.9556 C   0  0  0  0  0  0  0  0  0  0  0  0
   -4.3905   12.3328  -30.8489 C   0  0  0  0  0  0  0  0  0  0  0  0
   -6.4021   10.8249  -29.6396 C   0  0  0  0  0  0  0  0  0  0  0  0
   -5.9722   10.5083  -30.9283 C   0  0  0  0  0  0  0  0  0  0  0  0
   -6.2571   12.2459  -27.6091 C   0  0  0  0  0  0  0  0  0  0  0  0
   -3.3154   13.1394  -31.4953 C   0  0  0  0  0  0  0  0  0  0  0  0
   -7.6969   12.6218  -27.4200 C   0  0  0  0  0  0  0  0  0  0  0  0
   -5.5268   12.2608  -26.6175 O   0  0  0  0  0  0  0  0  0  0  0  0
   -7.3853   10.0945  -29.0368 O   0  0  0  0  0  0  0  0  0  0  0  0
   -6.7290    9.0600  -31.8899 Br  0  0  0  0  0  0  0  0  0  0  0  0
  1  3  2  0
  1  4  1  0
  2  4  2  0
  2  6  1  0
  3  5  1  0
  3  7  1  0
  4  8  1  0
  5  6  2  0
  5 11  1  0
  6 12  1  0
  7  9  1  0
  7 10  2  0
M  END
>  <id>  (243) 
EN300-217930

>  <smiles>  (243) 
CC(=O)C=1C=C(C)C=C(Br)C1O

>  <MDLNUMBER>  (243) 
MFCD00464334

>  <IUPAC Name>  (243) 
1-(3-bromo-2-hydroxy-5-methylphenyl)ethan-1-one

>  <CAS>  (243) 
56609-15-5

>  <Purity>  (243) 
95

>  <URL>  (243) 
https://www.enaminestore.com/catalog/EN300-217930

>  <MP>  (243) 
88-89

>  <ROCS_ShapeQuery>  (243) 
_x1604L0AP1_x0771L0AP1

>  <ROCS_TanimotoCombo>  (243) 
0.883 

>  <ROCS_ShapeTanimoto>  (243) 
0.448 

>  <ROCS_ColorTanimoto>  (243) 
0.435 

>  <ROCS_RefTversky>  (243) 
0.414 

>  <ROCS_RefColorTversky>  (243) 
0.445 

>  <ROCS_RefTverskyCombo>  (243) 
0.859 

>  <ROCS_FitTversky>  (243) 
1.225 

>  <ROCS_FitColorTversky>  (243) 
0.949 

>  <ROCS_FitTverskyCombo>  (243) 
2.174 

>  <ROCS_ColorScore>  (243) 
-5.062

>  <ROCS_Overlap>  (243) 
701.044

>  <ROCS_Rank>  (243) 
455                 

$$$$
untitled-dbase-674_1468
     RDKit          3D

 15 15  0  0  1  0  0  0  0  0999 V2000
   -4.5660   12.4522  -29.8010 C   0  0  0  0  0  0  0  0  0  0  0  0
   -5.0422   11.1359  -31.7701 C   0  0  0  0  0  0  0  0  0  0  0  0
   -4.3099   12.1395  -31.1360 C   0  0  0  0  0  0  0  0  0  0  0  0
   -5.5544   11.7611  -29.1000 C   0  0  0  0  0  0  0  0  0  0  0  0
   -6.2867   10.7575  -29.7342 C   0  0  0  0  0  0  0  0  0  0  0  0
   -6.0306   10.4448  -31.0692 C   0  0  0  0  0  0  0  0  0  0  0  0
   -6.4278   13.5648  -26.0305 C   0  0  0  0  0  0  0  0  0  0  0  0
   -4.3575   15.1319  -31.4903 C   0  0  0  0  0  0  0  0  0  0  0  0
   -3.2537   12.8792  -31.8852 C   0  0  0  0  0  0  0  0  0  0  0  0
   -6.1989   13.4172  -27.5196 C   0  0  0  0  0  0  0  0  0  0  0  0
   -3.0691   14.3254  -31.3875 C   0  0  2  0  0  0  0  0  0  0  0  0
   -7.2500   10.0936  -29.0321 O   0  0  0  0  0  0  0  0  0  0  0  0
   -2.6531   14.3140  -30.0231 O   0  0  0  0  0  0  0  0  0  0  0  0
   -5.7933   12.0783  -27.7968 O   0  0  0  0  0  0  0  0  0  0  0  0
   -7.0050    9.0875  -31.9647 Br  0  0  0  0  0  0  0  0  0  0  0  0
  1  3  2  0
  1  4  1  0
  2  3  1  0
  2  6  2  0
  3  9  1  0
  4  5  2  0
  4 14  1  0
  5  6  1  0
  5 12  1  0
  6 15  1  0
  7 10  1  0
 11  8  1  1
  9 11  1  0
 10 14  1  0
 11 13  1  0
M  END
>  <id>  (244) 
EN300-1920234

>  <smiles>  (244) 
CCOC=1C=C(C[C@@H](C)O)C=C(Br)C1O

>  <IUPAC Name>  (244) 
2-bromo-6-ethoxy-4-[(2R)-2-hydroxypropyl]phenol

>  <CAS>  (244) 
2227642-64-8

>  <URL>  (244) 
https://www.enaminestore.com/catalog/EN300-1920234

>  <ROCS_ShapeQuery>  (244) 
_x1604L0AP1_x0771L0AP1

>  <ROCS_TanimotoCombo>  (244) 
0.883 

>  <ROCS_ShapeTanimoto>  (244) 
0.528 

>  <ROCS_ColorTanimoto>  (244) 
0.355 

>  <ROCS_RefTversky>  (244) 
0.484 

>  <ROCS_RefColorTversky>  (244) 
0.427 

>  <ROCS_RefTverskyCombo>  (244) 
0.911 

>  <ROCS_FitTversky>  (244) 
1.208 

>  <ROCS_FitColorTversky>  (244) 
0.677 

>  <ROCS_FitTverskyCombo>  (244) 
1.885 

>  <ROCS_ColorScore>  (244) 
-4.898

>  <ROCS_Overlap>  (244) 
822.642

>  <ROCS_Rank>  (244) 
456                 

$$$$
untitled-dbase-2210_41
     RDKit          3D

 13 14  0  0  0  0  0  0  0  0999 V2000
   -4.9654   12.5488  -28.7650 C   0  0  0  0  0  0  0  0  0  0  0  0
   -4.8966   11.6328  -30.9996 C   0  0  0  0  0  0  0  0  0  0  0  0
   -5.9879   11.6604  -28.4323 C   0  0  0  0  0  0  0  0  0  0  0  0
   -6.4648   10.7581  -29.3831 C   0  0  0  0  0  0  0  0  0  0  0  0
   -4.4198   12.5351  -30.0487 C   0  0  0  0  0  0  0  0  0  0  0  0
   -5.9191   10.7443  -30.6668 C   0  0  0  0  0  0  0  0  0  0  0  0
   -7.1034   10.4159  -26.4640 C   0  0  0  0  0  0  0  0  0  0  0  0
   -8.0436   11.5045  -26.8782 C   0  0  0  0  0  0  0  0  0  0  0  0
   -6.5584   11.6917  -27.0532 C   0  0  0  0  0  0  0  0  0  0  0  0
   -7.4654    9.8940  -29.0441 O   0  0  0  0  0  0  0  0  0  0  0  0
   -5.9158   12.5953  -26.1393 O   0  0  0  0  0  0  0  0  0  0  0  0
   -3.1580   13.6315  -30.4587 Cl  0  0  0  0  0  0  0  0  0  0  0  0
   -6.5412    9.5335  -31.9867 Br  0  0  0  0  0  0  0  0  0  0  0  0
  1  3  2  0
  1  5  1  0
  2  5  2  0
  2  6  1  0
  3  4  1  0
  3  9  1  0
  4  6  2  0
  4 10  1  0
  5 12  1  0
  6 13  1  0
  7  8  1  0
  7  9  1  0
  8  9  1  0
  9 11  1  0
M  END
>  <id>  (245) 
EN300-1922577

>  <smiles>  (245) 
OC=1C(Br)=CC(Cl)=CC1C2(O)CC2

>  <IUPAC Name>  (245) 
2-bromo-4-chloro-6-(1-hydroxycyclopropyl)phenol

>  <CAS>  (245) 
2228708-80-1

>  <URL>  (245) 
https://www.enaminestore.com/catalog/EN300-1922577

>  <ROCS_ShapeQuery>  (245) 
_x1604L0AP1_x0771L0AP1

>  <ROCS_TanimotoCombo>  (245) 
0.883 

>  <ROCS_ShapeTanimoto>  (245) 
0.422 

>  <ROCS_ColorTanimoto>  (245) 
0.461 

>  <ROCS_RefTversky>  (245) 
0.404 

>  <ROCS_RefColorTversky>  (245) 
0.490 

>  <ROCS_RefTverskyCombo>  (245) 
0.893 

>  <ROCS_FitTversky>  (245) 
1.118 

>  <ROCS_FitColorTversky>  (245) 
0.889 

>  <ROCS_FitTverskyCombo>  (245) 
2.007 

>  <ROCS_ColorScore>  (245) 
-5.589

>  <ROCS_Overlap>  (245) 
684.157

>  <ROCS_Rank>  (245) 
458                 

$$$$
untitled-dbase-1987_24
     RDKit          3D

 13 13  0  0  0  0  0  0  0  0999 V2000
   -4.5824   12.5286  -30.2876 C   0  0  0  0  0  0  0  0  0  0  0  0
   -5.1309   10.9392  -32.0225 C   0  0  0  0  0  0  0  0  0  0  0  0
   -5.5169   11.9293  -29.4431 C   0  0  0  0  0  0  0  0  0  0  0  0
   -6.2583   10.8349  -29.8883 C   0  0  0  0  0  0  0  0  0  0  0  0
   -4.3895   12.0336  -31.5774 C   0  0  0  0  0  0  0  0  0  0  0  0
   -6.0653   10.3398  -31.1780 C   0  0  0  0  0  0  0  0  0  0  0  0
   -5.7016   12.4651  -28.1014 C   0  0  0  0  0  0  0  0  0  0  0  0
   -6.1294   11.5326  -26.9617 C   0  0  0  0  0  0  0  0  0  0  0  0
   -6.2508   12.2575  -25.7191 N   0  0  0  0  0  0  0  0  0  0  0  0
   -5.5136   13.6761  -27.8693 O   0  0  0  0  0  0  0  0  0  0  0  0
   -7.1709   10.2582  -29.0527 O   0  0  0  0  0  0  0  0  0  0  0  0
   -3.2364   12.7738  -32.6189 Cl  0  0  0  0  0  0  0  0  0  0  0  0
   -7.0532    8.8542  -31.8199 Br  0  0  0  0  0  0  0  0  0  0  0  0
  1  3  2  0
  1  5  1  0
  2  5  2  0
  2  6  1  0
  3  4  1  0
  3  7  1  0
  4  6  2  0
  4 11  1  0
  5 12  1  0
  6 13  1  0
  7  8  1  0
  7 10  2  0
  8  9  1  0
M  END
>  <id>  (246) 
EN300-1912794

>  <smiles>  (246) 
NCC(=O)C=1C=C(Cl)C=C(Br)C1O

>  <MDLNUMBER>  (246) 
MFCD28979688

>  <IUPAC Name>  (246) 
2-amino-1-(3-bromo-5-chloro-2-hydroxyphenyl)ethan-1-one

>  <CAS>  (246) 
1379950-30-7

>  <URL>  (246) 
https://www.enaminestore.com/catalog/EN300-1912794

>  <ROCS_ShapeQuery>  (246) 
_x1604L0AP1_x0771L0AP1

>  <ROCS_TanimotoCombo>  (246) 
0.883 

>  <ROCS_ShapeTanimoto>  (246) 
0.457 

>  <ROCS_ColorTanimoto>  (246) 
0.426 

>  <ROCS_RefTversky>  (246) 
0.426 

>  <ROCS_RefColorTversky>  (246) 
0.487 

>  <ROCS_RefTverskyCombo>  (246) 
0.913 

>  <ROCS_FitTversky>  (246) 
1.193 

>  <ROCS_FitColorTversky>  (246) 
0.772 

>  <ROCS_FitTverskyCombo>  (246) 
1.965 

>  <ROCS_ColorScore>  (246) 
-5.587

>  <ROCS_Overlap>  (246) 
721.214

>  <ROCS_Rank>  (246) 
459                 

$$$$
untitled-dbase-254_1
     RDKit          3D

 12 12  0  0  0  0  0  0  0  0999 V2000
   -4.8270   12.6535  -29.5580 C   0  0  0  0  0  0  0  0  0  0  0  0
   -4.9681   11.2667  -31.5313 C   0  0  0  0  0  0  0  0  0  0  0  0
   -5.8310   11.8965  -28.9542 C   0  0  0  0  0  0  0  0  0  0  0  0
   -6.4035   10.8246  -29.6390 C   0  0  0  0  0  0  0  0  0  0  0  0
   -4.3955   12.3386  -30.8466 C   0  0  0  0  0  0  0  0  0  0  0  0
   -5.9721   10.5097  -30.9275 C   0  0  0  0  0  0  0  0  0  0  0  0
   -6.2657   12.2457  -27.6087 C   0  0  0  0  0  0  0  0  0  0  0  0
   -7.7073   12.6162  -27.4223 C   0  0  0  0  0  0  0  0  0  0  0  0
   -5.5373   12.2637  -26.6157 O   0  0  0  0  0  0  0  0  0  0  0  0
   -7.3865   10.0925  -29.0378 O   0  0  0  0  0  0  0  0  0  0  0  0
   -3.1567   13.2732  -31.5911 Cl  0  0  0  0  0  0  0  0  0  0  0  0
   -6.7251    9.0606  -31.8908 Br  0  0  0  0  0  0  0  0  0  0  0  0
  1  3  2  0
  1  5  1  0
  2  5  2  0
  2  6  1  0
  3  4  1  0
  3  7  1  0
  4  6  2  0
  4 10  1  0
  5 11  1  0
  6 12  1  0
  7  8  1  0
  7  9  2  0
M  END
>  <id>  (247) 
EN300-1276933

>  <smiles>  (247) 
CC(=O)C=1C=C(Cl)C=C(Br)C1O

>  <MDLNUMBER>  (247) 
MFCD00857068

>  <IUPAC Name>  (247) 
1-(3-bromo-5-chloro-2-hydroxyphenyl)ethan-1-one

>  <CAS>  (247) 
59443-15-1

>  <URL>  (247) 
https://www.enaminestore.com/catalog/EN300-1276933

>  <ROCS_ShapeQuery>  (247) 
_x1604L0AP1_x0771L0AP1

>  <ROCS_TanimotoCombo>  (247) 
0.883 

>  <ROCS_ShapeTanimoto>  (247) 
0.448 

>  <ROCS_ColorTanimoto>  (247) 
0.435 

>  <ROCS_RefTversky>  (247) 
0.413 

>  <ROCS_RefColorTversky>  (247) 
0.446 

>  <ROCS_RefTverskyCombo>  (247) 
0.858 

>  <ROCS_FitTversky>  (247) 
1.234 

>  <ROCS_FitColorTversky>  (247) 
0.949 

>  <ROCS_FitTverskyCombo>  (247) 
2.183 

>  <ROCS_ColorScore>  (247) 
-5.063

>  <ROCS_Overlap>  (247) 
698.676

>  <ROCS_Rank>  (247) 
460                 

$$$$
untitled-dbase-1725_23
     RDKit          3D

 13 13  0  0  1  0  0  0  0  0999 V2000
   -4.6625   12.6048  -30.3535 C   0  0  0  0  0  0  0  0  0  0  0  0
   -5.1236   10.9144  -32.0169 C   0  0  0  0  0  0  0  0  0  0  0  0
   -5.5911   12.0146  -29.4962 C   0  0  0  0  0  0  0  0  0  0  0  0
   -6.2860   10.8742  -29.8993 C   0  0  0  0  0  0  0  0  0  0  0  0
   -4.4288   12.0548  -31.6139 C   0  0  0  0  0  0  0  0  0  0  0  0
   -6.0522   10.3241  -31.1596 C   0  0  0  0  0  0  0  0  0  0  0  0
   -4.0279   11.6099  -26.6413 C   0  0  0  0  0  0  0  0  0  0  0  0
   -5.8287   12.6263  -28.1364 C   0  0  0  0  0  0  0  0  0  0  0  0
   -5.5200   11.6718  -26.9684 C   0  0  2  0  0  0  0  0  0  0  0  0
   -6.2369   12.1167  -25.7697 N   0  0  0  0  0  0  0  0  0  0  0  0
   -7.1914   10.3084  -29.0492 O   0  0  0  0  0  0  0  0  0  0  0  0
   -3.2830   12.7837  -32.6714 Cl  0  0  0  0  0  0  0  0  0  0  0  0
   -6.9769    8.7752  -31.7433 Br  0  0  0  0  0  0  0  0  0  0  0  0
  1  3  2  0
  1  5  1  0
  2  5  2  0
  2  6  1  0
  3  4  1  0
  3  8  1  0
  4  6  2  0
  4 11  1  0
  5 12  1  0
  6 13  1  0
  9  7  1  1
  8  9  1  0
  9 10  1  0
M  END
>  <id>  (248) 
EN300-1922595

>  <smiles>  (248) 
C[C@@H](N)CC=1C=C(Cl)C=C(Br)C1O

>  <MDLNUMBER>  (248) 
MFCD32329816

>  <IUPAC Name>  (248) 
2-[(2R)-2-aminopropyl]-6-bromo-4-chlorophenol

>  <CAS>  (248) 
1336357-97-1

>  <URL>  (248) 
https://www.enaminestore.com/catalog/EN300-1922595

>  <ROCS_ShapeQuery>  (248) 
_x1604L0AP1_x0771L0AP1

>  <ROCS_TanimotoCombo>  (248) 
0.883 

>  <ROCS_ShapeTanimoto>  (248) 
0.443 

>  <ROCS_ColorTanimoto>  (248) 
0.440 

>  <ROCS_RefTversky>  (248) 
0.414 

>  <ROCS_RefColorTversky>  (248) 
0.474 

>  <ROCS_RefTverskyCombo>  (248) 
0.888 

>  <ROCS_FitTversky>  (248) 
1.186 

>  <ROCS_FitColorTversky>  (248) 
0.860 

>  <ROCS_FitTverskyCombo>  (248) 
2.046 

>  <ROCS_ColorScore>  (248) 
-5.406

>  <ROCS_Overlap>  (248) 
701.660

>  <ROCS_Rank>  (248) 
463                 

$$$$
untitled-dbase-2048_1
     RDKit          3D

 13 13  0  0  0  0  0  0  0  0999 V2000
   -5.0532   11.1673  -31.7495 C   0  0  0  0  0  0  0  0  0  0  0  0
   -5.5745   11.7859  -29.0796 C   0  0  0  0  0  0  0  0  0  0  0  0
   -6.2952   10.7746  -29.7148 C   0  0  0  0  0  0  0  0  0  0  0  0
   -4.3325   12.1786  -31.1145 C   0  0  0  0  0  0  0  0  0  0  0  0
   -4.5931   12.4879  -29.7795 C   0  0  0  0  0  0  0  0  0  0  0  0
   -6.0347   10.4653  -31.0497 C   0  0  0  0  0  0  0  0  0  0  0  0
   -5.8284   12.1150  -27.7191 N   0  0  0  0  0  0  0  0  0  0  0  0
   -5.1600   13.0296  -27.1825 O   0  0  0  0  0  0  0  0  0  0  0  0
   -6.7128   11.4801  -27.0976 O   0  0  0  0  0  0  0  0  0  0  0  0
   -7.2553   10.0920  -29.0234 O   0  0  0  0  0  0  0  0  0  0  0  0
   -3.3894   12.8521  -31.7864 F   0  0  0  0  0  0  0  0  0  0  0  0
   -3.8918   13.4622  -29.1823 F   0  0  0  0  0  0  0  0  0  0  0  0
   -6.9913    9.0980  -31.9498 Br  0  0  0  0  0  0  0  0  0  0  0  0
  1  4  2  0
  1  6  1  0
  2  3  1  0
  2  5  2  0
  2  7  1  0
  3  6  2  0
  3 10  1  0
  4  5  1  0
  4 11  1  0
  5 12  1  0
  6 13  1  0
  7  8  1  0
  7  9  2  0
M  CHG  2   7   1   8  -1
M  END
>  <id>  (249) 
EN300-2940789

>  <smiles>  (249) 
OC=1C(Br)=CC(F)=C(F)C1[N+](=O)[O-]

>  <MDLNUMBER>  (249) 
MFCD26099166

>  <IUPAC Name>  (249) 
6-bromo-3,4-difluoro-2-nitrophenol

>  <CAS>  (249) 
1644281-87-7

>  <Purity>  (249) 
95

>  <URL>  (249) 
https://www.enaminestore.com/catalog/EN300-2940789

>  <ROCS_ShapeQuery>  (249) 
_x1604L0AP1_x0771L0AP1

>  <ROCS_TanimotoCombo>  (249) 
0.882 

>  <ROCS_ShapeTanimoto>  (249) 
0.490 

>  <ROCS_ColorTanimoto>  (249) 
0.392 

>  <ROCS_RefTversky>  (249) 
0.452 

>  <ROCS_RefColorTversky>  (249) 
0.437 

>  <ROCS_RefTverskyCombo>  (249) 
0.889 

>  <ROCS_FitTversky>  (249) 
1.210 

>  <ROCS_FitColorTversky>  (249) 
0.792 

>  <ROCS_FitTverskyCombo>  (249) 
2.002 

>  <ROCS_ColorScore>  (249) 
-4.989

>  <ROCS_Overlap>  (249) 
766.588

>  <ROCS_Rank>  (249) 
465                 

$$$$
untitled-dbase-2137_1
     RDKit          3D

 12 12  0  0  0  0  0  0  0  0999 V2000
   -4.8235   12.6498  -29.5600 C   0  0  0  0  0  0  0  0  0  0  0  0
   -4.9686   11.2630  -31.5330 C   0  0  0  0  0  0  0  0  0  0  0  0
   -5.8290   11.8953  -28.9556 C   0  0  0  0  0  0  0  0  0  0  0  0
   -6.4043   10.8246  -29.6399 C   0  0  0  0  0  0  0  0  0  0  0  0
   -4.3934   12.3337  -30.8487 C   0  0  0  0  0  0  0  0  0  0  0  0
   -5.9741   10.5084  -30.9286 C   0  0  0  0  0  0  0  0  0  0  0  0
   -6.2589   12.2449  -27.6083 C   0  0  0  0  0  0  0  0  0  0  0  0
   -7.6984   12.6209  -27.4180 C   0  0  0  0  0  0  0  0  0  0  0  0
   -5.5278   12.2590  -26.6175 O   0  0  0  0  0  0  0  0  0  0  0  0
   -7.3868   10.0933  -29.0370 O   0  0  0  0  0  0  0  0  0  0  0  0
   -3.4277   13.0585  -31.4289 F   0  0  0  0  0  0  0  0  0  0  0  0
   -6.7285    9.0594  -31.8909 Br  0  0  0  0  0  0  0  0  0  0  0  0
  1  3  2  0
  1  5  1  0
  2  5  2  0
  2  6  1  0
  3  4  1  0
  3  7  1  0
  4  6  2  0
  4 10  1  0
  5 11  1  0
  6 12  1  0
  7  8  1  0
  7  9  2  0
M  END
>  <id>  (250) 
EN300-1256227

>  <smiles>  (250) 
CC(=O)C=1C=C(F)C=C(Br)C1O

>  <MDLNUMBER>  (250) 
MFCD16742831

>  <IUPAC Name>  (250) 
1-(3-bromo-5-fluoro-2-hydroxyphenyl)ethan-1-one

>  <CAS>  (250) 
393-62-4

>  <Purity>  (250) 
95

>  <URL>  (250) 
https://www.enaminestore.com/catalog/EN300-1256227

>  <MP>  (250) 
96-97

>  <ROCS_ShapeQuery>  (250) 
_x1604L0AP1_x0771L0AP1

>  <ROCS_TanimotoCombo>  (250) 
0.882 

>  <ROCS_ShapeTanimoto>  (250) 
0.448 

>  <ROCS_ColorTanimoto>  (250) 
0.435 

>  <ROCS_RefTversky>  (250) 
0.415 

>  <ROCS_RefColorTversky>  (250) 
0.445 

>  <ROCS_RefTverskyCombo>  (250) 
0.860 

>  <ROCS_FitTversky>  (250) 
1.217 

>  <ROCS_FitColorTversky>  (250) 
0.948 

>  <ROCS_FitTverskyCombo>  (250) 
2.165 

>  <ROCS_ColorScore>  (250) 
-5.060

>  <ROCS_Overlap>  (250) 
702.139

>  <ROCS_Rank>  (250) 
466                 

$$$$
untitled-dbase-1130_174
     RDKit          3D

 12 12  0  0  1  0  0  0  0  0999 V2000
   -4.5498   12.4350  -29.8104 C   0  0  0  0  0  0  0  0  0  0  0  0
   -5.5463   11.7533  -29.1119 C   0  0  0  0  0  0  0  0  0  0  0  0
   -5.0259   11.1155  -31.7775 C   0  0  0  0  0  0  0  0  0  0  0  0
   -4.2896   12.1161  -31.1432 C   0  0  0  0  0  0  0  0  0  0  0  0
   -6.2826   10.7527  -29.7461 C   0  0  0  0  0  0  0  0  0  0  0  0
   -6.0224   10.4338  -31.0789 C   0  0  0  0  0  0  0  0  0  0  0  0
   -3.5149   15.1170  -31.1537 C   0  0  0  0  0  0  0  0  0  0  0  0
   -3.2239   12.8454  -31.8889 C   0  0  0  0  0  0  0  0  0  0  0  0
   -3.6323   14.1740  -32.2691 N   0  0  0  0  0  0  0  0  0  0  0  0
   -7.2483   10.1043  -29.0353 O   0  0  0  0  0  0  0  0  0  0  0  0
   -5.0680   14.0817  -32.5039 O   0  0  0  0  0  0  0  0  0  0  0  0
   -7.0021    9.0789  -31.9719 Br  0  0  0  0  0  0  0  0  0  0  0  0
  1  2  2  0
  1  4  1  0
  2  5  1  0
  3  4  2  0
  3  6  1  0
  4  8  1  0
  5  6  2  0
  5 10  1  0
  6 12  1  0
  7  9  1  0
  8  9  1  0
  9 11  1  0
M  END
>  <id>  (251) 
EN300-1906300

>  <smiles>  (251) 
CN(O)CC=1C=CC(O)=C(Br)C1

>  <IUPAC Name>  (251) 
2-bromo-4-{[hydroxy(methyl)amino]methyl}phenol

>  <CAS>  (251) 
1519334-15-6

>  <URL>  (251) 
https://www.enaminestore.com/catalog/EN300-1906300

>  <ROCS_ShapeQuery>  (251) 
_x1604L0AP1_x0771L0AP1

>  <ROCS_TanimotoCombo>  (251) 
0.882 

>  <ROCS_ShapeTanimoto>  (251) 
0.470 

>  <ROCS_ColorTanimoto>  (251) 
0.412 

>  <ROCS_RefTversky>  (251) 
0.426 

>  <ROCS_RefColorTversky>  (251) 
0.429 

>  <ROCS_RefTverskyCombo>  (251) 
0.855 

>  <ROCS_FitTversky>  (251) 
1.278 

>  <ROCS_FitColorTversky>  (251) 
0.914 

>  <ROCS_FitTverskyCombo>  (251) 
2.192 

>  <ROCS_ColorScore>  (251) 
-4.877

>  <ROCS_Overlap>  (251) 
721.421

>  <ROCS_Rank>  (251) 
469                 

$$$$
untitled-dbase-1762_65
     RDKit          3D

 12 12  0  0  1  0  0  0  0  0999 V2000
   -4.5759   12.4590  -29.8263 C   0  0  0  0  0  0  0  0  0  0  0  0
   -5.5606   11.7675  -29.1207 C   0  0  0  0  0  0  0  0  0  0  0  0
   -5.0511   11.1330  -31.7892 C   0  0  0  0  0  0  0  0  0  0  0  0
   -4.3212   12.1418  -31.1605 C   0  0  0  0  0  0  0  0  0  0  0  0
   -6.2905   10.7587  -29.7493 C   0  0  0  0  0  0  0  0  0  0  0  0
   -6.0358   10.4414  -31.0836 C   0  0  0  0  0  0  0  0  0  0  0  0
   -3.5703   14.3861  -32.0257 C   0  0  0  0  0  0  0  0  0  0  0  0
   -3.2681   12.8817  -31.9138 C   0  0  1  0  0  0  0  0  0  0  0  0
   -1.9292   12.7104  -31.3211 N   0  0  0  0  0  0  0  0  0  0  0  0
   -7.2447   10.1008  -29.0317 O   0  0  0  0  0  0  0  0  0  0  0  0
   -4.0675   14.8173  -30.8333 F   0  0  0  0  0  0  0  0  0  0  0  0
   -7.0070    9.0757  -31.9690 Br  0  0  0  0  0  0  0  0  0  0  0  0
  1  2  2  0
  1  4  1  0
  2  5  1  0
  3  4  2  0
  3  6  1  0
  4  8  1  0
  5  6  2  0
  5 10  1  0
  6 12  1  0
  7  8  1  0
  7 11  1  0
  8  9  1  1
M  END
>  <id>  (252) 
EN300-1274407

>  <smiles>  (252) 
NC(CF)C=1C=CC(O)=C(Br)C1

>  <MDLNUMBER>  (252) 
MFCD26138935

>  <IUPAC Name>  (252) 
4-(1-amino-2-fluoroethyl)-2-bromophenol

>  <CAS>  (252) 
1822788-00-0

>  <URL>  (252) 
https://www.enaminestore.com/catalog/EN300-1274407

>  <ROCS_ShapeQuery>  (252) 
_x1604L0AP1_x0771L0AP1

>  <ROCS_TanimotoCombo>  (252) 
0.882 

>  <ROCS_ShapeTanimoto>  (252) 
0.501 

>  <ROCS_ColorTanimoto>  (252) 
0.380 

>  <ROCS_RefTversky>  (252) 
0.445 

>  <ROCS_RefColorTversky>  (252) 
0.427 

>  <ROCS_RefTverskyCombo>  (252) 
0.872 

>  <ROCS_FitTversky>  (252) 
1.339 

>  <ROCS_FitColorTversky>  (252) 
0.776 

>  <ROCS_FitTverskyCombo>  (252) 
2.115 

>  <ROCS_ColorScore>  (252) 
-4.878

>  <ROCS_Overlap>  (252) 
753.231

>  <ROCS_Rank>  (252) 
471                 

$$$$
untitled-dbase-1195_274
     RDKit          3D

 16 17  0  0  0  0  0  0  0  0999 V2000
   -4.3503   12.1623  -31.1904 C   0  0  0  0  0  0  0  0  0  0  0  0
   -4.6017   12.4896  -29.8580 C   0  0  0  0  0  0  0  0  0  0  0  0
   -5.0703   11.1375  -31.8046 C   0  0  0  0  0  0  0  0  0  0  0  0
   -5.5729   11.7921  -29.1398 C   0  0  0  0  0  0  0  0  0  0  0  0
   -6.2929   10.7673  -29.7539 C   0  0  0  0  0  0  0  0  0  0  0  0
   -6.0415   10.4400  -31.0864 C   0  0  0  0  0  0  0  0  0  0  0  0
   -5.8029   10.6422  -35.6082 C   0  0  0  0  0  0  0  0  0  0  0  0
   -6.5277    9.6596  -34.7334 C   0  0  0  0  0  0  0  0  0  0  0  0
   -5.9722   10.9308  -34.1349 C   0  0  0  0  0  0  0  0  0  0  0  0
   -5.0263   13.1832  -27.2899 C   0  0  0  0  0  0  0  0  0  0  0  0
   -4.7600   10.8233  -33.2513 C   0  0  0  0  0  0  0  0  0  0  0  0
   -6.9453   12.0052  -33.7340 C   0  0  0  0  0  0  0  0  0  0  0  0
   -6.3559   13.3019  -33.8827 N   0  0  0  0  0  0  0  0  0  0  0  0
   -7.2381   10.0998  -29.0304 O   0  0  0  0  0  0  0  0  0  0  0  0
   -5.8070   12.1236  -27.8391 O   0  0  0  0  0  0  0  0  0  0  0  0
   -7.0349    9.0464  -31.9193 Br  0  0  0  0  0  0  0  0  0  0  0  0
  1  2  2  0
  1  3  1  0
  2  4  1  0
  3  6  2  0
  3 11  1  0
  4  5  2  0
  4 15  1  0
  5  6  1  0
  5 14  1  0
  6 16  1  0
  7  8  1  0
  7  9  1  0
  8  9  1  0
  9 11  1  0
  9 12  1  0
 10 15  1  0
 12 13  1  0
M  END
>  <id>  (253) 
EN300-1935618

>  <smiles>  (253) 
COC=1C=CC(CC2(CN)CC2)=C(Br)C1O

>  <IUPAC Name>  (253) 
3-{[1-(aminomethyl)cyclopropyl]methyl}-2-bromo-6-methoxyphenol

>  <CAS>  (253) 
2228221-12-1

>  <URL>  (253) 
https://www.enaminestore.com/catalog/EN300-1935618

>  <ROCS_ShapeQuery>  (253) 
_x1604L0AP1_x0771L0AP1

>  <ROCS_TanimotoCombo>  (253) 
0.882 

>  <ROCS_ShapeTanimoto>  (253) 
0.527 

>  <ROCS_ColorTanimoto>  (253) 
0.355 

>  <ROCS_RefTversky>  (253) 
0.494 

>  <ROCS_RefColorTversky>  (253) 
0.427 

>  <ROCS_RefTverskyCombo>  (253) 
0.922 

>  <ROCS_FitTversky>  (253) 
1.141 

>  <ROCS_FitColorTversky>  (253) 
0.677 

>  <ROCS_FitTverskyCombo>  (253) 
1.819 

>  <ROCS_ColorScore>  (253) 
-4.901

>  <ROCS_Overlap>  (253) 
841.463

>  <ROCS_Rank>  (253) 
472                 

$$$$
untitled-dbase-1325_2
     RDKit          3D

 12 12  0  0  0  0  0  0  0  0999 V2000
   -5.0530   11.1305  -31.7924 C   0  0  0  0  0  0  0  0  0  0  0  0
   -5.5642   11.7719  -29.1260 C   0  0  0  0  0  0  0  0  0  0  0  0
   -4.3255   12.1430  -31.1668 C   0  0  0  0  0  0  0  0  0  0  0  0
   -6.2917   10.7595  -29.7516 C   0  0  0  0  0  0  0  0  0  0  0  0
   -4.5811   12.4636  -29.8336 C   0  0  0  0  0  0  0  0  0  0  0  0
   -6.0361   10.4388  -31.0848 C   0  0  0  0  0  0  0  0  0  0  0  0
   -3.3022   12.8629  -31.9084 C   0  0  0  0  0  0  0  0  0  0  0  0
   -2.6273   12.3979  -32.8327 O   0  0  0  0  0  0  0  0  0  0  0  0
   -7.2454   10.1025  -29.0324 O   0  0  0  0  0  0  0  0  0  0  0  0
   -3.1510   14.1447  -31.4759 O   0  0  0  0  0  0  0  0  0  0  0  0
   -3.8891   13.4359  -29.2228 F   0  0  0  0  0  0  0  0  0  0  0  0
   -7.0065    9.0706  -31.9673 Br  0  0  0  0  0  0  0  0  0  0  0  0
  1  3  2  0
  1  6  1  0
  2  4  1  0
  2  5  2  0
  3  5  1  0
  3  7  1  0
  4  6  2  0
  4  9  1  0
  5 11  1  0
  6 12  1  0
  7  8  2  0
  7 10  1  0
M  END
>  <id>  (254) 
EN300-223978

>  <smiles>  (254) 
OC(=O)C=1C=C(Br)C(O)=CC1F

>  <MDLNUMBER>  (254) 
MFCD27995580

>  <IUPAC Name>  (254) 
5-bromo-2-fluoro-4-hydroxybenzoic acid

>  <CAS>  (254) 
1781790-71-3

>  <Purity>  (254) 
95

>  <URL>  (254) 
https://www.enaminestore.com/catalog/EN300-223978

>  <ROCS_ShapeQuery>  (254) 
_x1604L0AP1_x0771L0AP1

>  <ROCS_TanimotoCombo>  (254) 
0.881 

>  <ROCS_ShapeTanimoto>  (254) 
0.529 

>  <ROCS_ColorTanimoto>  (254) 
0.353 

>  <ROCS_RefTversky>  (254) 
0.465 

>  <ROCS_RefColorTversky>  (254) 
0.425 

>  <ROCS_RefTverskyCombo>  (254) 
0.890 

>  <ROCS_FitTversky>  (254) 
1.351 

>  <ROCS_FitColorTversky>  (254) 
0.673 

>  <ROCS_FitTverskyCombo>  (254) 
2.024 

>  <ROCS_ColorScore>  (254) 
-4.878

>  <ROCS_Overlap>  (254) 
787.373

>  <ROCS_Rank>  (254) 
479                 

$$$$
untitled-dbase-1177_27
     RDKit          3D

 13 14  0  0  0  0  0  0  0  0999 V2000
   -4.6073   12.4951  -29.8399 C   0  0  0  0  0  0  0  0  0  0  0  0
   -4.3481   12.1801  -31.1738 C   0  0  0  0  0  0  0  0  0  0  0  0
   -5.5799   11.7884  -29.1327 C   0  0  0  0  0  0  0  0  0  0  0  0
   -5.0615   11.1583  -31.8004 C   0  0  0  0  0  0  0  0  0  0  0  0
   -6.2934   10.7667  -29.7593 C   0  0  0  0  0  0  0  0  0  0  0  0
   -6.0342   10.4516  -31.0932 C   0  0  0  0  0  0  0  0  0  0  0  0
   -5.8712   11.0114  -34.1754 C   0  0  0  0  0  0  0  0  0  0  0  0
   -3.7342    9.7681  -33.5175 C   0  0  0  0  0  0  0  0  0  0  0  0
   -3.3577   11.1979  -33.7338 C   0  0  0  0  0  0  0  0  0  0  0  0
   -4.7501   10.8597  -33.2314 C   0  0  0  0  0  0  0  0  0  0  0  0
   -7.0445   10.8318  -33.8660 O   0  0  0  0  0  0  0  0  0  0  0  0
   -7.2380   10.1002  -29.0365 O   0  0  0  0  0  0  0  0  0  0  0  0
   -7.0200    9.0587  -31.9370 Br  0  0  0  0  0  0  0  0  0  0  0  0
  1  2  2  0
  1  3  1  0
  2  4  1  0
  3  5  2  0
  4  6  2  0
  4 10  1  0
  5  6  1  0
  5 12  1  0
  6 13  1  0
  7 10  1  0
  7 11  2  0
  8  9  1  0
  8 10  1  0
  9 10  1  0
M  END
>  <id>  (255) 
EN300-1904495

>  <smiles>  (255) 
OC=1C=CC=C(C1Br)C2(CC2)C=O

>  <IUPAC Name>  (255) 
1-(2-bromo-3-hydroxyphenyl)cyclopropane-1-carbaldehyde

>  <CAS>  (255) 
2228622-13-5

>  <URL>  (255) 
https://www.enaminestore.com/catalog/EN300-1904495

>  <ROCS_ShapeQuery>  (255) 
_x1604L0AP1_x0771L0AP1

>  <ROCS_TanimotoCombo>  (255) 
0.881 

>  <ROCS_ShapeTanimoto>  (255) 
0.468 

>  <ROCS_ColorTanimoto>  (255) 
0.413 

>  <ROCS_RefTversky>  (255) 
0.435 

>  <ROCS_RefColorTversky>  (255) 
0.430 

>  <ROCS_RefTverskyCombo>  (255) 
0.865 

>  <ROCS_FitTversky>  (255) 
1.192 

>  <ROCS_FitColorTversky>  (255) 
0.915 

>  <ROCS_FitTverskyCombo>  (255) 
2.107 

>  <ROCS_ColorScore>  (255) 
-4.883

>  <ROCS_Overlap>  (255) 
737.929

>  <ROCS_Rank>  (255) 
482                 

$$$$
untitled-dbase-1538_197
     RDKit          3D

 14 14  0  0  1  0  0  0  0  0999 V2000
   -4.5600   12.4479  -29.7957 C   0  0  0  0  0  0  0  0  0  0  0  0
   -5.0267   11.1226  -31.7611 C   0  0  0  0  0  0  0  0  0  0  0  0
   -4.2954   12.1271  -31.1271 C   0  0  0  0  0  0  0  0  0  0  0  0
   -5.5558   11.7640  -29.0982 C   0  0  0  0  0  0  0  0  0  0  0  0
   -6.2870   10.7595  -29.7321 C   0  0  0  0  0  0  0  0  0  0  0  0
   -6.0225   10.4388  -31.0636 C   0  0  0  0  0  0  0  0  0  0  0  0
   -2.9822   14.2724  -31.3510 C   0  0  0  0  0  0  0  0  0  0  0  0
   -3.4943   12.9367  -33.3867 C   0  0  0  0  0  0  0  0  0  0  0  0
   -5.0657   11.3831  -26.8024 C   0  0  0  0  0  0  0  0  0  0  0  0
   -3.2314   12.8591  -31.8728 C   0  0  2  0  0  0  0  0  0  0  0  0
   -3.5861   14.7736  -30.4075 O   0  0  0  0  0  0  0  0  0  0  0  0
   -7.2577   10.1027  -29.0334 O   0  0  0  0  0  0  0  0  0  0  0  0
   -5.8029   12.0891  -27.7984 O   0  0  0  0  0  0  0  0  0  0  0  0
   -6.9952    9.0799  -31.9587 Br  0  0  0  0  0  0  0  0  0  0  0  0
  1  3  2  0
  1  4  1  0
  2  3  1  0
  2  6  2  0
  3 10  1  0
  4  5  2  0
  4 13  1  0
  5  6  1  0
  5 12  1  0
  6 14  1  0
  7 10  1  0
  7 11  2  0
 10  8  1  6
  9 13  1  0
M  END
>  <id>  (256) 
EN300-1927027

>  <smiles>  (256) 
COC=1C=C(C=C(Br)C1O)C(C)C=O

>  <IUPAC Name>  (256) 
2-(3-bromo-4-hydroxy-5-methoxyphenyl)propanal

>  <CAS>  (256) 
2229361-58-2

>  <URL>  (256) 
https://www.enaminestore.com/catalog/EN300-1927027

>  <ROCS_ShapeQuery>  (256) 
_x1604L0AP1_x0771L0AP1

>  <ROCS_TanimotoCombo>  (256) 
0.881 

>  <ROCS_ShapeTanimoto>  (256) 
0.526 

>  <ROCS_ColorTanimoto>  (256) 
0.355 

>  <ROCS_RefTversky>  (256) 
0.477 

>  <ROCS_RefColorTversky>  (256) 
0.427 

>  <ROCS_RefTverskyCombo>  (256) 
0.904 

>  <ROCS_FitTversky>  (256) 
1.246 

>  <ROCS_FitColorTversky>  (256) 
0.677 

>  <ROCS_FitTverskyCombo>  (256) 
1.923 

>  <ROCS_ColorScore>  (256) 
-4.897

>  <ROCS_Overlap>  (256) 
809.334

>  <ROCS_Rank>  (256) 
483                 

$$$$
untitled-dbase-51_0
     RDKit          3D

 10 10  0  0  0  0  0  0  0  0999 V2000
   -4.5887   12.4984  -29.8384 C   0  0  0  0  0  0  0  0  0  0  0  0
   -4.3329   12.1833  -31.1728 C   0  0  0  0  0  0  0  0  0  0  0  0
   -6.2830   10.7779  -29.7570 C   0  0  0  0  0  0  0  0  0  0  0  0
   -5.5637   11.7956  -29.1304 C   0  0  0  0  0  0  0  0  0  0  0  0
   -5.0521   11.1656  -31.7994 C   0  0  0  0  0  0  0  0  0  0  0  0
   -6.0272   10.4629  -31.0915 C   0  0  0  0  0  0  0  0  0  0  0  0
   -7.2348   10.0969  -29.0527 O   0  0  0  0  0  0  0  0  0  0  0  0
   -5.8544   12.2108  -27.4807 Cl  0  0  0  0  0  0  0  0  0  0  0  0
   -4.6752   10.8356  -33.4554 Cl  0  0  0  0  0  0  0  0  0  0  0  0
   -7.0314    9.0641  -31.9144 Br  0  0  0  0  0  0  0  0  0  0  0  0
  1  2  2  0
  1  4  1  0
  2  5  1  0
  3  4  2  0
  3  6  1  0
  3  7  1  0
  4  8  1  0
  5  6  2  0
  5  9  1  0
  6 10  1  0
M  END
>  <id>  (257) 
EN300-198648

>  <smiles>  (257) 
OC=1C(Cl)=CC=C(Cl)C1Br

>  <MDLNUMBER>  (257) 
MFCD00152293

>  <IUPAC Name>  (257) 
2-bromo-3,6-dichlorophenol

>  <CAS>  (257) 
63862-91-9

>  <Purity>  (257) 
95

>  <URL>  (257) 
https://www.enaminestore.com/catalog/EN300-198648

>  <ROCS_ShapeQuery>  (257) 
_x1604L0AP1_x0771L0AP1

>  <ROCS_TanimotoCombo>  (257) 
0.881 

>  <ROCS_ShapeTanimoto>  (257) 
0.429 

>  <ROCS_ColorTanimoto>  (257) 
0.452 

>  <ROCS_RefTversky>  (257) 
0.384 

>  <ROCS_RefColorTversky>  (257) 
0.432 

>  <ROCS_RefTverskyCombo>  (257) 
0.816 

>  <ROCS_FitTversky>  (257) 
1.377 

>  <ROCS_FitColorTversky>  (257) 
1.114 

>  <ROCS_FitTverskyCombo>  (257) 
2.491 

>  <ROCS_ColorScore>  (257) 
-4.886

>  <ROCS_Overlap>  (257) 
648.306

>  <ROCS_Rank>  (257) 
484                 

$$$$
untitled-dbase-639_321
     RDKit          3D

 14 14  0  0  0  0  0  0  0  0999 V2000
   -4.6059   12.4920  -29.8433 C   0  0  0  0  0  0  0  0  0  0  0  0
   -4.3492   12.1750  -31.1771 C   0  0  0  0  0  0  0  0  0  0  0  0
   -5.5791   11.7880  -29.1339 C   0  0  0  0  0  0  0  0  0  0  0  0
   -5.0656   11.1541  -31.8017 C   0  0  0  0  0  0  0  0  0  0  0  0
   -6.2955   10.7671  -29.7585 C   0  0  0  0  0  0  0  0  0  0  0  0
   -6.0388   10.4501  -31.0924 C   0  0  0  0  0  0  0  0  0  0  0  0
   -5.5954   11.6607  -34.2323 C   0  0  0  0  0  0  0  0  0  0  0  0
   -7.0270   11.1591  -34.3765 C   0  0  0  0  0  0  0  0  0  0  0  0
   -4.7530   10.8535  -33.2324 C   0  0  0  0  0  0  0  0  0  0  0  0
   -7.2393   10.1015  -29.0338 O   0  0  0  0  0  0  0  0  0  0  0  0
   -6.9938    9.8038  -34.8058 O   0  0  0  0  0  0  0  0  0  0  0  0
   -4.9648    9.5287  -33.5287 F   0  0  0  0  0  0  0  0  0  0  0  0
   -3.4354   11.0598  -33.5550 F   0  0  0  0  0  0  0  0  0  0  0  0
   -7.0223    9.0551  -31.9337 Br  0  0  0  0  0  0  0  0  0  0  0  0
  1  2  2  0
  1  3  1  0
  2  4  1  0
  3  5  2  0
  4  6  2  0
  4  9  1  0
  5  6  1  0
  5 10  1  0
  6 14  1  0
  7  8  1  0
  7  9  1  0
  8 11  1  0
  9 12  1  0
  9 13  1  0
M  END
>  <id>  (258) 
EN300-1950758

>  <smiles>  (258) 
OCCC(F)(F)C=1C=CC=C(O)C1Br

>  <IUPAC Name>  (258) 
2-bromo-3-(1,1-difluoro-3-hydroxypropyl)phenol

>  <CAS>  (258) 
2228923-56-4

>  <URL>  (258) 
https://www.enaminestore.com/catalog/EN300-1950758

>  <ROCS_ShapeQuery>  (258) 
_x1604L0AP1_x0771L0AP1

>  <ROCS_TanimotoCombo>  (258) 
0.881 

>  <ROCS_ShapeTanimoto>  (258) 
0.500 

>  <ROCS_ColorTanimoto>  (258) 
0.381 

>  <ROCS_RefTversky>  (258) 
0.462 

>  <ROCS_RefColorTversky>  (258) 
0.428 

>  <ROCS_RefTverskyCombo>  (258) 
0.890 

>  <ROCS_FitTversky>  (258) 
1.197 

>  <ROCS_FitColorTversky>  (258) 
0.777 

>  <ROCS_FitTverskyCombo>  (258) 
1.974 

>  <ROCS_ColorScore>  (258) 
-4.883

>  <ROCS_Overlap>  (258) 
784.388

>  <ROCS_Rank>  (258) 
486                 

$$$$
untitled-dbase-767_216
     RDKit          3D

 14 14  0  0  0  0  0  0  0  0999 V2000
   -4.5731   12.4570  -29.8062 C   0  0  0  0  0  0  0  0  0  0  0  0
   -5.0452   11.1345  -31.7721 C   0  0  0  0  0  0  0  0  0  0  0  0
   -4.3152   12.1412  -31.1401 C   0  0  0  0  0  0  0  0  0  0  0  0
   -5.5608   11.7662  -29.1042 C   0  0  0  0  0  0  0  0  0  0  0  0
   -6.2908   10.7595  -29.7362 C   0  0  0  0  0  0  0  0  0  0  0  0
   -6.0330   10.4436  -31.0701 C   0  0  0  0  0  0  0  0  0  0  0  0
   -3.8193   15.9224  -31.5805 C   0  0  0  0  0  0  0  0  0  0  0  0
   -5.0097   13.1278  -27.2339 C   0  0  0  0  0  0  0  0  0  0  0  0
   -3.2598   12.8807  -31.8905 C   0  0  0  0  0  0  0  0  0  0  0  0
   -2.5510   13.9537  -31.0547 C   0  0  0  0  0  0  0  0  0  0  0  0
   -3.4633   14.9452  -30.5511 N   0  0  0  0  0  0  0  0  0  0  0  0
   -7.2535   10.0958  -29.0331 O   0  0  0  0  0  0  0  0  0  0  0  0
   -5.8015   12.0865  -27.8021 O   0  0  0  0  0  0  0  0  0  0  0  0
   -7.0042    9.0820  -31.9628 Br  0  0  0  0  0  0  0  0  0  0  0  0
  1  3  2  0
  1  4  1  0
  2  3  1  0
  2  6  2  0
  3  9  1  0
  4  5  2  0
  4 13  1  0
  5  6  1  0
  5 12  1  0
  6 14  1  0
  7 11  1  0
  8 13  1  0
  9 10  1  0
 10 11  1  0
M  END
>  <id>  (259) 
EN300-1896169

>  <smiles>  (259) 
CNCCC=1C=C(Br)C(O)=C(OC)C1

>  <MDLNUMBER>  (259) 
MFCD20432368

>  <IUPAC Name>  (259) 
2-bromo-6-methoxy-4-[2-(methylamino)ethyl]phenol

>  <CAS>  (259) 
1342065-90-0

>  <URL>  (259) 
https://www.enaminestore.com/catalog/EN300-1896169

>  <ROCS_ShapeQuery>  (259) 
_x1604L0AP1_x0771L0AP1

>  <ROCS_TanimotoCombo>  (259) 
0.880 

>  <ROCS_ShapeTanimoto>  (259) 
0.526 

>  <ROCS_ColorTanimoto>  (259) 
0.355 

>  <ROCS_RefTversky>  (259) 
0.475 

>  <ROCS_RefColorTversky>  (259) 
0.427 

>  <ROCS_RefTverskyCombo>  (259) 
0.902 

>  <ROCS_FitTversky>  (259) 
1.257 

>  <ROCS_FitColorTversky>  (259) 
0.677 

>  <ROCS_FitTverskyCombo>  (259) 
1.934 

>  <ROCS_ColorScore>  (259) 
-4.898

>  <ROCS_Overlap>  (259) 
805.367

>  <ROCS_Rank>  (259) 
489                 

$$$$
untitled-dbase-2179_62
     RDKit          3D

 12 12  0  0  0  0  0  0  0  0999 V2000
   -4.6008   12.4880  -29.8478 C   0  0  0  0  0  0  0  0  0  0  0  0
   -4.3451   12.1700  -31.1816 C   0  0  0  0  0  0  0  0  0  0  0  0
   -5.5748   11.7858  -29.1378 C   0  0  0  0  0  0  0  0  0  0  0  0
   -5.0634   11.1500  -31.8055 C   0  0  0  0  0  0  0  0  0  0  0  0
   -6.2931   10.7659  -29.7617 C   0  0  0  0  0  0  0  0  0  0  0  0
   -6.0374   10.4479  -31.0955 C   0  0  0  0  0  0  0  0  0  0  0  0
   -5.7767   11.4257  -34.1972 C   0  0  0  0  0  0  0  0  0  0  0  0
   -4.7518   10.8484  -33.2362 C   0  0  0  0  0  0  0  0  0  0  0  0
   -7.0438   10.9196  -34.0755 N   0  0  0  0  0  0  0  0  0  0  0  0
   -7.2377   10.1021  -29.0363 O   0  0  0  0  0  0  0  0  0  0  0  0
   -5.3926   12.5842  -35.3406 S   0  0  0  0  0  0  0  0  0  0  0  0
   -7.0236    9.0543  -31.9359 Br  0  0  0  0  0  0  0  0  0  0  0  0
  1  2  2  0
  1  3  1  0
  2  4  1  0
  3  5  2  0
  4  6  2  0
  4  8  1  0
  5  6  1  0
  5 10  1  0
  6 12  1  0
  7  8  1  0
  7  9  1  0
  7 11  2  0
M  END
>  <id>  (260) 
EN300-1904632

>  <smiles>  (260) 
NC(=S)CC=1C=CC=C(O)C1Br

>  <IUPAC Name>  (260) 
2-(2-bromo-3-hydroxyphenyl)ethanethioamide

>  <CAS>  (260) 
2228922-33-4

>  <URL>  (260) 
https://www.enaminestore.com/catalog/EN300-1904632

>  <ROCS_ShapeQuery>  (260) 
_x1604L0AP1_x0771L0AP1

>  <ROCS_TanimotoCombo>  (260) 
0.880 

>  <ROCS_ShapeTanimoto>  (260) 
0.467 

>  <ROCS_ColorTanimoto>  (260) 
0.413 

>  <ROCS_RefTversky>  (260) 
0.423 

>  <ROCS_RefColorTversky>  (260) 
0.430 

>  <ROCS_RefTverskyCombo>  (260) 
0.852 

>  <ROCS_FitTversky>  (260) 
1.290 

>  <ROCS_FitColorTversky>  (260) 
0.915 

>  <ROCS_FitTverskyCombo>  (260) 
2.205 

>  <ROCS_ColorScore>  (260) 
-4.883

>  <ROCS_Overlap>  (260) 
715.496

>  <ROCS_Rank>  (260) 
491                 

$$$$
untitled-dbase-557_122
     RDKit          3D

 12 12  0  0  1  0  0  0  0  0999 V2000
   -4.6054   12.4892  -29.8591 C   0  0  0  0  0  0  0  0  0  0  0  0
   -4.3539   12.1688  -31.1931 C   0  0  0  0  0  0  0  0  0  0  0  0
   -5.5759   11.7871  -29.1442 C   0  0  0  0  0  0  0  0  0  0  0  0
   -5.0729   11.1464  -31.8124 C   0  0  0  0  0  0  0  0  0  0  0  0
   -6.2949   10.7648  -29.7634 C   0  0  0  0  0  0  0  0  0  0  0  0
   -6.0434   10.4444  -31.0975 C   0  0  0  0  0  0  0  0  0  0  0  0
   -6.7071   12.1806  -33.7188 C   0  0  0  0  0  0  0  0  0  0  0  0
   -4.7659   10.8423  -33.2435 C   0  0  0  0  0  0  0  0  0  0  0  0
   -5.9165   11.0044  -34.0933 N   0  0  0  0  0  0  0  0  0  0  0  0
   -7.2360   10.1012  -29.0334 O   0  0  0  0  0  0  0  0  0  0  0  0
   -5.3808   11.3439  -35.4061 O   0  0  0  0  0  0  0  0  0  0  0  0
   -7.0304    9.0475  -31.9316 Br  0  0  0  0  0  0  0  0  0  0  0  0
  1  2  2  0
  1  3  1  0
  2  4  1  0
  3  5  2  0
  4  6  2  0
  4  8  1  0
  5  6  1  0
  5 10  1  0
  6 12  1  0
  7  9  1  0
  8  9  1  0
  9 11  1  0
M  END
>  <id>  (261) 
EN300-1904246

>  <smiles>  (261) 
CN(O)CC=1C=CC=C(O)C1Br

>  <IUPAC Name>  (261) 
2-bromo-3-{[hydroxy(methyl)amino]methyl}phenol

>  <CAS>  (261) 
2229475-57-2

>  <URL>  (261) 
https://www.enaminestore.com/catalog/EN300-1904246

>  <ROCS_ShapeQuery>  (261) 
_x1604L0AP1_x0771L0AP1

>  <ROCS_TanimotoCombo>  (261) 
0.880 

>  <ROCS_ShapeTanimoto>  (261) 
0.467 

>  <ROCS_ColorTanimoto>  (261) 
0.413 

>  <ROCS_RefTversky>  (261) 
0.425 

>  <ROCS_RefColorTversky>  (261) 
0.430 

>  <ROCS_RefTverskyCombo>  (261) 
0.854 

>  <ROCS_FitTversky>  (261) 
1.272 

>  <ROCS_FitColorTversky>  (261) 
0.915 

>  <ROCS_FitTverskyCombo>  (261) 
2.187 

>  <ROCS_ColorScore>  (261) 
-4.882

>  <ROCS_Overlap>  (261) 
718.958

>  <ROCS_Rank>  (261) 
492                 

$$$$
untitled-dbase-2081_71
     RDKit          3D

 12 12  0  0  0  0  0  0  0  0999 V2000
   -4.5732   12.4571  -29.8174 C   0  0  0  0  0  0  0  0  0  0  0  0
   -5.5601   11.7658  -29.1147 C   0  0  0  0  0  0  0  0  0  0  0  0
   -5.0442   11.1324  -31.7822 C   0  0  0  0  0  0  0  0  0  0  0  0
   -4.3153   12.1404  -31.1511 C   0  0  0  0  0  0  0  0  0  0  0  0
   -6.2891   10.7578  -29.7458 C   0  0  0  0  0  0  0  0  0  0  0  0
   -6.0311   10.4411  -31.0795 C   0  0  0  0  0  0  0  0  0  0  0  0
   -3.2855   12.8610  -31.8829 C   0  0  0  0  0  0  0  0  0  0  0  0
   -4.1781   15.0423  -30.8994 C   0  0  0  0  0  0  0  0  0  0  0  0
   -3.4265   14.3813  -32.0443 C   0  0  0  0  0  0  0  0  0  0  0  0
   -2.2960   12.3012  -32.3848 O   0  0  0  0  0  0  0  0  0  0  0  0
   -7.2471   10.1019  -29.0314 O   0  0  0  0  0  0  0  0  0  0  0  0
   -7.0025    9.0780  -31.9692 Br  0  0  0  0  0  0  0  0  0  0  0  0
  1  2  2  0
  1  4  1  0
  2  5  1  0
  3  4  2  0
  3  6  1  0
  4  7  1  0
  5  6  2  0
  5 11  1  0
  6 12  1  0
  7  9  1  0
  7 10  2  0
  8  9  1  0
M  END
>  <id>  (262) 
EN300-1276730

>  <smiles>  (262) 
CCC(=O)C=1C=CC(O)=C(Br)C1

>  <MDLNUMBER>  (262) 
MFCD14281585

>  <IUPAC Name>  (262) 
1-(3-bromo-4-hydroxyphenyl)propan-1-one

>  <CAS>  (262) 
18430-72-3

>  <URL>  (262) 
https://www.enaminestore.com/catalog/EN300-1276730

>  <ROCS_ShapeQuery>  (262) 
_x1604L0AP1_x0771L0AP1

>  <ROCS_TanimotoCombo>  (262) 
0.880 

>  <ROCS_ShapeTanimoto>  (262) 
0.500 

>  <ROCS_ColorTanimoto>  (262) 
0.380 

>  <ROCS_RefTversky>  (262) 
0.444 

>  <ROCS_RefColorTversky>  (262) 
0.427 

>  <ROCS_RefTverskyCombo>  (262) 
0.872 

>  <ROCS_FitTversky>  (262) 
1.330 

>  <ROCS_FitColorTversky>  (262) 
0.776 

>  <ROCS_FitTverskyCombo>  (262) 
2.106 

>  <ROCS_ColorScore>  (262) 
-4.878

>  <ROCS_Overlap>  (262) 
752.393

>  <ROCS_Rank>  (262) 
493                 

$$$$
untitled-dbase-363_1
     RDKit          3D

 11 11  0  0  0  0  0  0  0  0999 V2000
   -4.6037   12.4906  -29.8555 C   0  0  0  0  0  0  0  0  0  0  0  0
   -4.3526   12.1727  -31.1902 C   0  0  0  0  0  0  0  0  0  0  0  0
   -5.5743   11.7876  -29.1417 C   0  0  0  0  0  0  0  0  0  0  0  0
   -5.0721   11.1518  -31.8112 C   0  0  0  0  0  0  0  0  0  0  0  0
   -6.2938   10.7667  -29.7628 C   0  0  0  0  0  0  0  0  0  0  0  0
   -6.0428   10.4488  -31.0975 C   0  0  0  0  0  0  0  0  0  0  0  0
   -5.7966   11.3781  -34.2136 C   0  0  0  0  0  0  0  0  0  0  0  0
   -4.7655   10.8502  -33.2430 C   0  0  0  0  0  0  0  0  0  0  0  0
   -6.4146   10.6896  -35.0188 O   0  0  0  0  0  0  0  0  0  0  0  0
   -7.2350   10.1021  -29.0338 O   0  0  0  0  0  0  0  0  0  0  0  0
   -7.0305    9.0539  -31.9339 Br  0  0  0  0  0  0  0  0  0  0  0  0
  1  2  2  0
  1  3  1  0
  2  4  1  0
  3  5  2  0
  4  6  2  0
  4  8  1  0
  5  6  1  0
  5 10  1  0
  6 11  1  0
  7  8  1  0
  7  9  2  0
M  END
>  <id>  (263) 
EN300-1904558

>  <smiles>  (263) 
OC=1C=CC=C(CC=O)C1Br

>  <MDLNUMBER>  (263) 
MFCD33499793

>  <IUPAC Name>  (263) 
2-(2-bromo-3-hydroxyphenyl)acetaldehyde

>  <CAS>  (263) 
2229576-67-2

>  <URL>  (263) 
https://www.enaminestore.com/catalog/EN300-1904558

>  <ROCS_ShapeQuery>  (263) 
_x1604L0AP1_x0771L0AP1

>  <ROCS_TanimotoCombo>  (263) 
0.880 

>  <ROCS_ShapeTanimoto>  (263) 
0.467 

>  <ROCS_ColorTanimoto>  (263) 
0.413 

>  <ROCS_RefTversky>  (263) 
0.417 

>  <ROCS_RefColorTversky>  (263) 
0.430 

>  <ROCS_RefTverskyCombo>  (263) 
0.847 

>  <ROCS_FitTversky>  (263) 
1.344 

>  <ROCS_FitColorTversky>  (263) 
0.915 

>  <ROCS_FitTverskyCombo>  (263) 
2.259 

>  <ROCS_ColorScore>  (263) 
-4.883

>  <ROCS_Overlap>  (263) 
704.908

>  <ROCS_Rank>  (263) 
495                 

$$$$
untitled-dbase-761_55
     RDKit          3D

 15 17  0  0  0  0  0  0  0  0999 V2000
   -4.6085   12.4923  -29.8563 C   0  0  0  0  0  0  0  0  0  0  0  0
   -4.3571   12.1732  -31.1906 C   0  0  0  0  0  0  0  0  0  0  0  0
   -5.5770   11.7877  -29.1412 C   0  0  0  0  0  0  0  0  0  0  0  0
   -5.0743   11.1496  -31.8100 C   0  0  0  0  0  0  0  0  0  0  0  0
   -6.2942   10.7641  -29.7606 C   0  0  0  0  0  0  0  0  0  0  0  0
   -6.0428   10.4451  -31.0950 C   0  0  0  0  0  0  0  0  0  0  0  0
   -3.6900    9.8124  -33.5041 C   0  0  0  0  0  0  0  0  0  0  0  0
   -3.4005   11.2602  -33.7496 C   0  0  0  0  0  0  0  0  0  0  0  0
   -6.4406    9.7166  -34.9527 C   0  0  0  0  0  0  0  0  0  0  0  0
   -5.8132   10.8740  -35.6735 C   0  0  0  0  0  0  0  0  0  0  0  0
   -4.7708   10.8463  -33.2439 C   0  0  0  0  0  0  0  0  0  0  0  0
   -5.9991   10.9357  -34.1737 C   0  0  0  0  0  0  0  0  0  0  0  0
   -7.0689   11.8329  -33.6602 N   0  0  0  0  0  0  0  0  0  0  0  0
   -7.2346   10.0998  -29.0302 O   0  0  0  0  0  0  0  0  0  0  0  0
   -7.0336    9.0497  -31.9289 Br  0  0  0  0  0  0  0  0  0  0  0  0
  1  2  2  0
  1  3  1  0
  2  4  1  0
  3  5  2  0
  4  6  2  0
  4 11  1  0
  5  6  1  0
  5 14  1  0
  6 15  1  0
  7  8  1  0
  7 11  1  0
  8 11  1  0
  9 10  1  0
  9 12  1  0
 10 12  1  0
 11 12  1  0
 12 13  1  0
M  END
>  <id>  (264) 
EN300-1904815

>  <smiles>  (264) 
NC1(CC1)C2(CC2)C=3C=CC=C(O)C3Br

>  <IUPAC Name>  (264) 
3-[1-(1-aminocyclopropyl)cyclopropyl]-2-bromophenol

>  <CAS>  (264) 
2229596-95-4

>  <URL>  (264) 
https://www.enaminestore.com/catalog/EN300-1904815

>  <ROCS_ShapeQuery>  (264) 
_x1604L0AP1_x0771L0AP1

>  <ROCS_TanimotoCombo>  (264) 
0.880 

>  <ROCS_ShapeTanimoto>  (264) 
0.499 

>  <ROCS_ColorTanimoto>  (264) 
0.381 

>  <ROCS_RefTversky>  (264) 
0.471 

>  <ROCS_RefColorTversky>  (264) 
0.428 

>  <ROCS_RefTverskyCombo>  (264) 
0.899 

>  <ROCS_FitTversky>  (264) 
1.136 

>  <ROCS_FitColorTversky>  (264) 
0.777 

>  <ROCS_FitTverskyCombo>  (264) 
1.912 

>  <ROCS_ColorScore>  (264) 
-4.882

>  <ROCS_Overlap>  (264) 
800.472

>  <ROCS_Rank>  (264) 
496                 

$$$$
untitled-dbase-2003_17
     RDKit          3D

 13 13  0  0  0  0  0  0  0  0999 V2000
   -5.0625   11.1282  -31.8032 C   0  0  0  0  0  0  0  0  0  0  0  0
   -5.5672   11.7796  -29.1379 C   0  0  0  0  0  0  0  0  0  0  0  0
   -4.3364   12.1458  -31.1844 C   0  0  0  0  0  0  0  0  0  0  0  0
   -6.2933   10.7620  -29.7567 C   0  0  0  0  0  0  0  0  0  0  0  0
   -4.5887   12.4715  -29.8518 C   0  0  0  0  0  0  0  0  0  0  0  0
   -6.0410   10.4363  -31.0893 C   0  0  0  0  0  0  0  0  0  0  0  0
   -3.3179   12.8659  -31.9325 C   0  0  0  0  0  0  0  0  0  0  0  0
   -3.4654   15.1263  -33.1116 C   0  0  0  0  0  0  0  0  0  0  0  0
   -3.7380   13.6325  -33.1946 C   0  0  0  0  0  0  0  0  0  0  0  0
   -2.1217   12.8880  -31.5963 O   0  0  0  0  0  0  0  0  0  0  0  0
   -7.2425   10.1050  -29.0315 O   0  0  0  0  0  0  0  0  0  0  0  0
   -3.8979   13.4487  -29.2475 F   0  0  0  0  0  0  0  0  0  0  0  0
   -7.0096    9.0610  -31.9626 Br  0  0  0  0  0  0  0  0  0  0  0  0
  1  3  2  0
  1  6  1  0
  2  4  1  0
  2  5  2  0
  3  5  1  0
  3  7  1  0
  4  6  2  0
  4 11  1  0
  5 12  1  0
  6 13  1  0
  7  9  1  0
  7 10  2  0
  8  9  1  0
M  END
>  <id>  (265) 
EN300-1276577

>  <smiles>  (265) 
CCC(=O)C=1C=C(Br)C(O)=CC1F

>  <MDLNUMBER>  (265) 
MFCD24122857

>  <IUPAC Name>  (265) 
1-(5-bromo-2-fluoro-4-hydroxyphenyl)propan-1-one

>  <CAS>  (265) 
1541607-36-6

>  <URL>  (265) 
https://www.enaminestore.com/catalog/EN300-1276577

>  <ROCS_ShapeQuery>  (265) 
_x1604L0AP1_x0771L0AP1

>  <ROCS_TanimotoCombo>  (265) 
0.880 

>  <ROCS_ShapeTanimoto>  (265) 
0.499 

>  <ROCS_ColorTanimoto>  (265) 
0.381 

>  <ROCS_RefTversky>  (265) 
0.453 

>  <ROCS_RefColorTversky>  (265) 
0.427 

>  <ROCS_RefTverskyCombo>  (265) 
0.881 

>  <ROCS_FitTversky>  (265) 
1.253 

>  <ROCS_FitColorTversky>  (265) 
0.776 

>  <ROCS_FitTverskyCombo>  (265) 
2.029 

>  <ROCS_ColorScore>  (265) 
-4.879

>  <ROCS_Overlap>  (265) 
768.701

>  <ROCS_Rank>  (265) 
497                 

$$$$
untitled-dbase-173_145
     RDKit          3D

 14 14  0  0  0  0  0  0  0  0999 V2000
   -5.0519   11.1278  -31.7939 C   0  0  0  0  0  0  0  0  0  0  0  0
   -5.5601   11.7709  -29.1273 C   0  0  0  0  0  0  0  0  0  0  0  0
   -4.3226   12.1395  -31.1694 C   0  0  0  0  0  0  0  0  0  0  0  0
   -6.2894   10.7592  -29.7520 C   0  0  0  0  0  0  0  0  0  0  0  0
   -4.5766   12.4611  -29.8361 C   0  0  0  0  0  0  0  0  0  0  0  0
   -6.0354   10.4377  -31.0853 C   0  0  0  0  0  0  0  0  0  0  0  0
   -3.2934   12.8402  -31.9570 C   0  0  0  0  0  0  0  0  0  0  0  0
   -5.7112   14.1240  -33.2125 C   0  0  0  0  0  0  0  0  0  0  0  0
   -3.4393   14.3491  -32.1446 C   0  0  0  0  0  0  0  0  0  0  0  0
   -4.8979   14.8068  -32.1247 C   0  0  0  0  0  0  0  0  0  0  0  0
   -2.3349   12.2493  -32.4581 O   0  0  0  0  0  0  0  0  0  0  0  0
   -7.2434   10.1030  -29.0324 O   0  0  0  0  0  0  0  0  0  0  0  0
   -3.6966   13.7064  -29.0261 Cl  0  0  0  0  0  0  0  0  0  0  0  0
   -7.0074    9.0682  -31.9650 Br  0  0  0  0  0  0  0  0  0  0  0  0
  1  3  2  0
  1  6  1  0
  2  4  1  0
  2  5  2  0
  3  5  1  0
  3  7  1  0
  4  6  2  0
  4 12  1  0
  5 13  1  0
  6 14  1  0
  7  9  1  0
  7 11  2  0
  8 10  1  0
  9 10  1  0
M  END
>  <id>  (266) 
EN300-1276759

>  <smiles>  (266) 
CCCC(=O)C=1C=C(Br)C(O)=CC1Cl

>  <IUPAC Name>  (266) 
1-(5-bromo-2-chloro-4-hydroxyphenyl)butan-1-one

>  <CAS>  (266) 
2163722-30-1

>  <URL>  (266) 
https://www.enaminestore.com/catalog/EN300-1276759

>  <ROCS_ShapeQuery>  (266) 
_x1604L0AP1_x0771L0AP1

>  <ROCS_TanimotoCombo>  (266) 
0.879 

>  <ROCS_ShapeTanimoto>  (266) 
0.499 

>  <ROCS_ColorTanimoto>  (266) 
0.381 

>  <ROCS_RefTversky>  (266) 
0.457 

>  <ROCS_RefColorTversky>  (266) 
0.427 

>  <ROCS_RefTverskyCombo>  (266) 
0.885 

>  <ROCS_FitTversky>  (266) 
1.221 

>  <ROCS_FitColorTversky>  (266) 
0.776 

>  <ROCS_FitTverskyCombo>  (266) 
1.997 

>  <ROCS_ColorScore>  (266) 
-4.879

>  <ROCS_Overlap>  (266) 
775.953

>  <ROCS_Rank>  (266) 
500                 

$$$$
