untitled-dbase-884_37
     RDKit          3D

 12 12  0  0  0  0  0  0  0  0999 V2000
   -4.6049   12.4938  -29.8517 C   0  0  0  0  0  0  0  0  0  0  0  0
   -4.3561   12.1802  -31.1879 C   0  0  0  0  0  0  0  0  0  0  0  0
   -5.5736   11.7878  -29.1383 C   0  0  0  0  0  0  0  0  0  0  0  0
   -5.0760   11.1607  -31.8107 C   0  0  0  0  0  0  0  0  0  0  0  0
   -6.2936   10.7683  -29.7612 C   0  0  0  0  0  0  0  0  0  0  0  0
   -6.0448   10.4547  -31.0974 C   0  0  0  0  0  0  0  0  0  0  0  0
   -4.7719   10.8638  -33.2440 C   0  0  0  0  0  0  0  0  0  0  0  0
   -6.6792    9.0124  -35.2000 N   0  0  0  0  0  0  0  0  0  0  0  0
   -5.9554   10.9992  -34.1001 N   0  0  0  0  0  0  0  0  0  0  0  0
   -6.3288    9.9605  -34.6715 N   0  0  0  0  0  0  0  0  0  0  0  0
   -7.2329   10.1006  -29.0325 O   0  0  0  0  0  0  0  0  0  0  0  0
   -7.0330    9.0616  -31.9363 Br  0  0  0  0  0  0  0  0  0  0  0  0
  1  2  2  0
  1  3  1  0
  2  4  1  0
  3  5  2  0
  4  6  2  0
  4  7  1  0
  5  6  1  0
  5 11  1  0
  6 12  1  0
  7  9  1  0
  8 10  2  0
  9 10  2  0
M  CHG  2   8  -1  10   1
M  END
>  <id>  (1) 
EN300-1904552

>  <smiles>  (1) 
OC=1C=CC=C(CN=[N+]=[N-])C1Br

>  <IUPAC Name>  (1) 
3-(azidomethyl)-2-bromophenol

>  <CAS>  (1) 
2228616-06-4

>  <URL>  (1) 
https://www.enaminestore.com/catalog/EN300-1904552

>  <ROCS_ShapeQuery>  (1) 
_x1604L0AP1_x0771L0AP1

>  <ROCS_TanimotoCombo>  (1) 
1.085 

>  <ROCS_ShapeTanimoto>  (1) 
0.531 

>  <ROCS_ColorTanimoto>  (1) 
0.554 

>  <ROCS_RefTversky>  (1) 
0.465 

>  <ROCS_RefColorTversky>  (1) 
0.519 

>  <ROCS_RefTverskyCombo>  (1) 
0.983 

>  <ROCS_FitTversky>  (1) 
1.368 

>  <ROCS_FitColorTversky>  (1) 
1.139 

>  <ROCS_FitTverskyCombo>  (1) 
2.507 

>  <ROCS_ColorScore>  (1) 
-4.882

>  <ROCS_Overlap>  (1) 
777.425

>  <ROCS_Rank>  (1) 
7                   

$$$$
untitled-dbase-726_80
     RDKit          3D

 11 11  0  0  0  0  0  0  0  0999 V2000
   -4.5895   12.4699  -29.8390 C   0  0  0  0  0  0  0  0  0  0  0  0
   -5.5696   11.7761  -29.1294 C   0  0  0  0  0  0  0  0  0  0  0  0
   -5.0612   11.1346  -31.7964 C   0  0  0  0  0  0  0  0  0  0  0  0
   -4.3353   12.1493  -31.1725 C   0  0  0  0  0  0  0  0  0  0  0  0
   -6.2955   10.7614  -29.7533 C   0  0  0  0  0  0  0  0  0  0  0  0
   -6.0413   10.4407  -31.0868 C   0  0  0  0  0  0  0  0  0  0  0  0
   -3.2871   12.8917  -31.9300 C   0  0  0  0  0  0  0  0  0  0  0  0
   -3.1809   14.8257  -30.6554 N   0  0  0  0  0  0  0  0  0  0  0  0
   -7.2453   10.1013  -29.0318 O   0  0  0  0  0  0  0  0  0  0  0  0
   -2.4666   13.6123  -31.0186 O   0  0  0  0  0  0  0  0  0  0  0  0
   -7.0071    9.0669  -31.9659 Br  0  0  0  0  0  0  0  0  0  0  0  0
  1  2  2  0
  1  4  1  0
  2  5  1  0
  3  4  2  0
  3  6  1  0
  4  7  1  0
  5  6  2  0
  5  9  1  0
  6 11  1  0
  7 10  1  0
  8 10  1  0
M  END
>  <id>  (2) 
EN300-1915285

>  <smiles>  (2) 
NOCC=1C=CC(O)=C(Br)C1

>  <MDLNUMBER>  (2) 
MFCD24721151

>  <IUPAC Name>  (2) 
4-[(aminooxy)methyl]-2-bromophenol

>  <CAS>  (2) 
1836-79-9

>  <URL>  (2) 
https://www.enaminestore.com/catalog/EN300-1915285

>  <ROCS_ShapeQuery>  (2) 
_x1604L0AP1_x0771L0AP1

>  <ROCS_TanimotoCombo>  (2) 
1.074 

>  <ROCS_ShapeTanimoto>  (2) 
0.521 

>  <ROCS_ColorTanimoto>  (2) 
0.553 

>  <ROCS_RefTversky>  (2) 
0.449 

>  <ROCS_RefColorTversky>  (2) 
0.518 

>  <ROCS_RefTverskyCombo>  (2) 
0.967 

>  <ROCS_FitTversky>  (2) 
1.443 

>  <ROCS_FitColorTversky>  (2) 
1.139 

>  <ROCS_FitTverskyCombo>  (2) 
2.582 

>  <ROCS_ColorScore>  (2) 
-4.879

>  <ROCS_Overlap>  (2) 
750.529

>  <ROCS_Rank>  (2) 
9                   

$$$$
untitled-dbase-2088_28
     RDKit          3D

 11 11  0  0  0  0  0  0  0  0999 V2000
   -4.3183   12.1251  -31.1918 C   0  0  0  0  0  0  0  0  0  0  0  0
   -5.0539   11.1138  -31.8096 C   0  0  0  0  0  0  0  0  0  0  0  0
   -5.5503   11.7704  -29.1440 C   0  0  0  0  0  0  0  0  0  0  0  0
   -4.5664   12.4534  -29.8589 C   0  0  0  0  0  0  0  0  0  0  0  0
   -6.2860   10.7591  -29.7618 C   0  0  0  0  0  0  0  0  0  0  0  0
   -6.0378   10.4308  -31.0946 C   0  0  0  0  0  0  0  0  0  0  0  0
   -3.7794   13.5338  -29.1979 C   0  0  0  0  0  0  0  0  0  0  0  0
   -4.0654   15.2311  -30.7516 N   0  0  0  0  0  0  0  0  0  0  0  0
   -7.2383   10.1086  -29.0349 O   0  0  0  0  0  0  0  0  0  0  0  0
   -3.1025   14.2986  -30.1878 O   0  0  0  0  0  0  0  0  0  0  0  0
   -7.0178    9.0630  -31.9669 Br  0  0  0  0  0  0  0  0  0  0  0  0
  1  2  2  0
  1  4  1  0
  2  6  1  0
  3  4  2  0
  3  5  1  0
  4  7  1  0
  5  6  2  0
  5  9  1  0
  6 11  1  0
  7 10  1  0
  8 10  1  0
M  END
>  <id>  (3) 
EN300-210717

>  <smiles>  (3) 
Cl.NOCC=1C=CC(Br)=C(O)C1

>  <MDLNUMBER>  (3) 
MFCD28397721

>  <IUPAC Name>  (3) 
5-[(aminooxy)methyl]-2-bromophenol hydrochloride

>  <CAS>  (3) 
91468-63-2

>  <Purity>  (3) 
95

>  <URL>  (3) 
https://www.enaminestore.com/catalog/EN300-210717

>  <Saltdate>  (3) 
Cl

>  <ROCS_ShapeQuery>  (3) 
_x1604L0AP1_x0771L0AP1

>  <ROCS_TanimotoCombo>  (3) 
1.071 

>  <ROCS_ShapeTanimoto>  (3) 
0.518 

>  <ROCS_ColorTanimoto>  (3) 
0.553 

>  <ROCS_RefTversky>  (3) 
0.447 

>  <ROCS_RefColorTversky>  (3) 
0.518 

>  <ROCS_RefTverskyCombo>  (3) 
0.965 

>  <ROCS_FitTversky>  (3) 
1.437 

>  <ROCS_FitColorTversky>  (3) 
1.139 

>  <ROCS_FitTverskyCombo>  (3) 
2.576 

>  <ROCS_ColorScore>  (3) 
-4.879

>  <ROCS_Overlap>  (3) 
747.430

>  <ROCS_Rank>  (3) 
12                  

$$$$
untitled-dbase-337_28
     RDKit          3D

 11 11  0  0  0  0  0  0  0  0999 V2000
   -4.3183   12.1251  -31.1918 C   0  0  0  0  0  0  0  0  0  0  0  0
   -5.0539   11.1138  -31.8096 C   0  0  0  0  0  0  0  0  0  0  0  0
   -5.5503   11.7704  -29.1440 C   0  0  0  0  0  0  0  0  0  0  0  0
   -4.5664   12.4534  -29.8589 C   0  0  0  0  0  0  0  0  0  0  0  0
   -6.2860   10.7591  -29.7618 C   0  0  0  0  0  0  0  0  0  0  0  0
   -6.0378   10.4308  -31.0946 C   0  0  0  0  0  0  0  0  0  0  0  0
   -3.7794   13.5338  -29.1979 C   0  0  0  0  0  0  0  0  0  0  0  0
   -4.0654   15.2311  -30.7516 N   0  0  0  0  0  0  0  0  0  0  0  0
   -7.2383   10.1086  -29.0349 O   0  0  0  0  0  0  0  0  0  0  0  0
   -3.1025   14.2986  -30.1878 O   0  0  0  0  0  0  0  0  0  0  0  0
   -7.0178    9.0630  -31.9669 Br  0  0  0  0  0  0  0  0  0  0  0  0
  1  2  2  0
  1  4  1  0
  2  6  1  0
  3  4  2  0
  3  5  1  0
  4  7  1  0
  5  6  2  0
  5  9  1  0
  6 11  1  0
  7 10  1  0
  8 10  1  0
M  END
>  <id>  (4) 
EN300-211634

>  <smiles>  (4) 
NOCC=1C=CC(Br)=C(O)C1

>  <MDLNUMBER>  (4) 
MFCD00867521

>  <IUPAC Name>  (4) 
5-[(aminooxy)methyl]-2-bromophenol

>  <CAS>  (4) 
555-65-7

>  <URL>  (4) 
https://www.enaminestore.com/catalog/EN300-211634

>  <ROCS_ShapeQuery>  (4) 
_x1604L0AP1_x0771L0AP1

>  <ROCS_TanimotoCombo>  (4) 
1.071 

>  <ROCS_ShapeTanimoto>  (4) 
0.518 

>  <ROCS_ColorTanimoto>  (4) 
0.553 

>  <ROCS_RefTversky>  (4) 
0.447 

>  <ROCS_RefColorTversky>  (4) 
0.518 

>  <ROCS_RefTverskyCombo>  (4) 
0.965 

>  <ROCS_FitTversky>  (4) 
1.437 

>  <ROCS_FitColorTversky>  (4) 
1.139 

>  <ROCS_FitTverskyCombo>  (4) 
2.576 

>  <ROCS_ColorScore>  (4) 
-4.879

>  <ROCS_Overlap>  (4) 
747.430

>  <ROCS_Rank>  (4) 
13                  

$$$$
untitled-dbase-788_88
     RDKit          3D

 11 11  0  0  0  0  0  0  0  0999 V2000
   -4.5734   12.4553  -29.8277 C   0  0  0  0  0  0  0  0  0  0  0  0
   -5.5602   11.7659  -29.1232 C   0  0  0  0  0  0  0  0  0  0  0  0
   -5.0458   11.1267  -31.7895 C   0  0  0  0  0  0  0  0  0  0  0  0
   -4.3162   12.1358  -31.1610 C   0  0  0  0  0  0  0  0  0  0  0  0
   -6.2898   10.7568  -29.7517 C   0  0  0  0  0  0  0  0  0  0  0  0
   -6.0326   10.4372  -31.0849 C   0  0  0  0  0  0  0  0  0  0  0  0
   -3.2609   12.8734  -31.9132 C   0  0  0  0  0  0  0  0  0  0  0  0
   -2.5291   13.9610  -31.1090 C   0  0  0  0  0  0  0  0  0  0  0  0
   -7.2461   10.1009  -29.0350 O   0  0  0  0  0  0  0  0  0  0  0  0
   -3.6591   15.2421  -30.4825 S   0  0  0  0  0  0  0  0  0  0  0  0
   -7.0033    9.0709  -31.9702 Br  0  0  0  0  0  0  0  0  0  0  0  0
  1  2  2  0
  1  4  1  0
  2  5  1  0
  3  4  2  0
  3  6  1  0
  4  7  1  0
  5  6  2  0
  5  9  1  0
  6 11  1  0
  7  8  1  0
  8 10  1  0
M  END
>  <id>  (5) 
EN300-1905156

>  <smiles>  (5) 
OC=1C=CC(CCS)=CC1Br

>  <MDLNUMBER>  (5) 
MFCD33499939

>  <IUPAC Name>  (5) 
2-bromo-4-(2-sulfanylethyl)phenol

>  <CAS>  (5) 
2229360-45-4

>  <URL>  (5) 
https://www.enaminestore.com/catalog/EN300-1905156

>  <ROCS_ShapeQuery>  (5) 
_x1604L0AP1_x0771L0AP1

>  <ROCS_TanimotoCombo>  (5) 
1.071 

>  <ROCS_ShapeTanimoto>  (5) 
0.518 

>  <ROCS_ColorTanimoto>  (5) 
0.553 

>  <ROCS_RefTversky>  (5) 
0.445 

>  <ROCS_RefColorTversky>  (5) 
0.518 

>  <ROCS_RefTverskyCombo>  (5) 
0.963 

>  <ROCS_FitTversky>  (5) 
1.464 

>  <ROCS_FitColorTversky>  (5) 
1.138 

>  <ROCS_FitTverskyCombo>  (5) 
2.603 

>  <ROCS_ColorScore>  (5) 
-4.878

>  <ROCS_Overlap>  (5) 
742.928

>  <ROCS_Rank>  (5) 
14                  

$$$$
untitled-dbase-450_103
     RDKit          3D

 13 13  0  0  0  0  0  0  0  0999 V2000
   -4.3582   12.1500  -31.2278 C   0  0  0  0  0  0  0  0  0  0  0  0
   -5.0848   11.1245  -31.8326 C   0  0  0  0  0  0  0  0  0  0  0  0
   -5.5677   11.7919  -29.1673 C   0  0  0  0  0  0  0  0  0  0  0  0
   -4.5995   12.4837  -29.8951 C   0  0  0  0  0  0  0  0  0  0  0  0
   -6.2944   10.7664  -29.7721 C   0  0  0  0  0  0  0  0  0  0  0  0
   -6.0530   10.4327  -31.1048 C   0  0  0  0  0  0  0  0  0  0  0  0
   -2.1097   15.1811  -29.4988 C   0  0  0  0  0  0  0  0  0  0  0  0
   -4.6896   14.1791  -27.0999 C   0  0  0  0  0  0  0  0  0  0  0  0
   -3.3733   14.6344  -30.0709 C   0  0  0  0  0  0  0  0  0  0  0  0
   -3.6041   13.4942  -27.8584 C   0  0  0  0  0  0  0  0  0  0  0  0
   -3.8649   13.5210  -29.2839 N   0  0  0  0  0  0  0  0  0  0  0  0
   -7.2334   10.1095  -29.0337 O   0  0  0  0  0  0  0  0  0  0  0  0
   -7.0213    9.0454  -31.9591 Br  0  0  0  0  0  0  0  0  0  0  0  0
  1  2  2  0
  1  4  1  0
  2  6  1  0
  3  4  2  0
  3  5  1  0
  4 11  1  0
  5  6  2  0
  5 12  1  0
  6 13  1  0
  7  9  1  0
  8 10  1  0
  9 11  1  0
 10 11  1  0
M  END
>  <id>  (6) 
EN300-1926804

>  <smiles>  (6) 
CCN(CC)C=1C=CC(Br)=C(O)C1

>  <IUPAC Name>  (6) 
2-bromo-5-(diethylamino)phenol

>  <CAS>  (6) 
2229002-72-4

>  <URL>  (6) 
https://www.enaminestore.com/catalog/EN300-1926804

>  <ROCS_ShapeQuery>  (6) 
_x1604L0AP1_x0771L0AP1

>  <ROCS_TanimotoCombo>  (6) 
1.061 

>  <ROCS_ShapeTanimoto>  (6) 
0.508 

>  <ROCS_ColorTanimoto>  (6) 
0.553 

>  <ROCS_RefTversky>  (6) 
0.458 

>  <ROCS_RefColorTversky>  (6) 
0.518 

>  <ROCS_RefTverskyCombo>  (6) 
0.976 

>  <ROCS_FitTversky>  (6) 
1.277 

>  <ROCS_FitColorTversky>  (6) 
1.138 

>  <ROCS_FitTverskyCombo>  (6) 
2.415 

>  <ROCS_ColorScore>  (6) 
-4.878

>  <ROCS_Overlap>  (6) 
766.785

>  <ROCS_Rank>  (6) 
18                  

$$$$
untitled-dbase-1609_90
     RDKit          3D

 13 13  0  0  0  0  0  0  0  0999 V2000
   -4.6010   12.4826  -29.8793 C   0  0  0  0  0  0  0  0  0  0  0  0
   -4.3660   12.1628  -31.2164 C   0  0  0  0  0  0  0  0  0  0  0  0
   -5.5661   11.7837  -29.1541 C   0  0  0  0  0  0  0  0  0  0  0  0
   -5.0962   11.1440  -31.8285 C   0  0  0  0  0  0  0  0  0  0  0  0
   -6.2962   10.7649  -29.7662 C   0  0  0  0  0  0  0  0  0  0  0  0
   -6.0613   10.4451  -31.1034 C   0  0  0  0  0  0  0  0  0  0  0  0
   -4.8068   10.8402  -33.2634 C   0  0  0  0  0  0  0  0  0  0  0  0
   -6.0380   10.9430  -34.1687 C   0  0  0  0  0  0  0  0  0  0  0  0
   -5.8616    8.3117  -36.1528 N   0  0  0  0  0  0  0  0  0  0  0  0
   -5.6689   10.6096  -35.5471 N   0  0  0  0  0  0  0  0  0  0  0  0
   -5.7708    9.4101  -35.8587 N   0  0  0  0  0  0  0  0  0  0  0  0
   -7.2316   10.1043  -29.0261 O   0  0  0  0  0  0  0  0  0  0  0  0
   -7.0634    9.0531  -31.9276 Br  0  0  0  0  0  0  0  0  0  0  0  0
  1  2  2  0
  1  3  1  0
  2  4  1  0
  3  5  2  0
  4  6  2  0
  4  7  1  0
  5  6  1  0
  5 12  1  0
  6 13  1  0
  7  8  1  0
  8 10  1  0
  9 11  2  0
 10 11  2  0
M  CHG  2   9  -1  11   1
M  END
>  <id>  (7) 
EN300-1904624

>  <smiles>  (7) 
OC=1C=CC=C(CCN=[N+]=[N-])C1Br

>  <IUPAC Name>  (7) 
3-(2-azidoethyl)-2-bromophenol

>  <CAS>  (7) 
2228160-44-7

>  <URL>  (7) 
https://www.enaminestore.com/catalog/EN300-1904624

>  <ROCS_ShapeQuery>  (7) 
_x1604L0AP1_x0771L0AP1

>  <ROCS_TanimotoCombo>  (7) 
1.047 

>  <ROCS_ShapeTanimoto>  (7) 
0.494 

>  <ROCS_ColorTanimoto>  (7) 
0.553 

>  <ROCS_RefTversky>  (7) 
0.450 

>  <ROCS_RefColorTversky>  (7) 
0.518 

>  <ROCS_RefTverskyCombo>  (7) 
0.968 

>  <ROCS_FitTversky>  (7) 
1.247 

>  <ROCS_FitColorTversky>  (7) 
1.139 

>  <ROCS_FitTverskyCombo>  (7) 
2.386 

>  <ROCS_ColorScore>  (7) 
-4.879

>  <ROCS_Overlap>  (7) 
753.318

>  <ROCS_Rank>  (7) 
22                  

$$$$
untitled-dbase-112_1
     RDKit          3D

 11 11  0  0  0  0  0  0  0  0999 V2000
   -4.3879   12.1808  -31.2395 C   0  0  0  0  0  0  0  0  0  0  0  0
   -5.1029   11.1448  -31.8403 C   0  0  0  0  0  0  0  0  0  0  0  0
   -5.5890   11.8128  -29.1757 C   0  0  0  0  0  0  0  0  0  0  0  0
   -4.6309   12.5148  -29.9071 C   0  0  0  0  0  0  0  0  0  0  0  0
   -6.3041   10.7768  -29.7766 C   0  0  0  0  0  0  0  0  0  0  0  0
   -6.0610   10.4428  -31.1089 C   0  0  0  0  0  0  0  0  0  0  0  0
   -3.8659   13.6216  -29.2641 C   0  0  0  0  0  0  0  0  0  0  0  0
   -7.2313   10.1082  -29.0339 O   0  0  0  0  0  0  0  0  0  0  0  0
   -2.6184   13.7193  -29.7944 F   0  0  0  0  0  0  0  0  0  0  0  0
   -3.7022   13.3876  -27.9355 F   0  0  0  0  0  0  0  0  0  0  0  0
   -7.0134    9.0416  -31.9585 Br  0  0  0  0  0  0  0  0  0  0  0  0
  1  2  2  0
  1  4  1  0
  2  6  1  0
  3  4  2  0
  3  5  1  0
  4  7  1  0
  5  6  2  0
  5  8  1  0
  6 11  1  0
  7  9  1  0
  7 10  1  0
M  END
>  <id>  (8) 
EN300-382862

>  <smiles>  (8) 
OC=1C=C(C=CC1Br)C(F)F

>  <MDLNUMBER>  (8) 
MFCD18391147

>  <IUPAC Name>  (8) 
2-bromo-5-(difluoromethyl)phenol

>  <CAS>  (8) 
1261760-40-0

>  <Purity>  (8) 
95

>  <URL>  (8) 
https://www.enaminestore.com/catalog/EN300-382862

>  <ROCS_ShapeQuery>  (8) 
_x1604L0AP1_x0771L0AP1

>  <ROCS_TanimotoCombo>  (8) 
1.045 

>  <ROCS_ShapeTanimoto>  (8) 
0.492 

>  <ROCS_ColorTanimoto>  (8) 
0.552 

>  <ROCS_RefTversky>  (8) 
0.435 

>  <ROCS_RefColorTversky>  (8) 
0.518 

>  <ROCS_RefTverskyCombo>  (8) 
0.952 

>  <ROCS_FitTversky>  (8) 
1.368 

>  <ROCS_FitColorTversky>  (8) 
1.138 

>  <ROCS_FitTverskyCombo>  (8) 
2.506 

>  <ROCS_ColorScore>  (8) 
-4.875

>  <ROCS_Overlap>  (8) 
726.504

>  <ROCS_Rank>  (8) 
25                  

$$$$
untitled-dbase-45_0
     RDKit          3D

 10 10  0  0  0  0  0  0  0  0999 V2000
   -5.5601   11.7781  -29.1428 C   0  0  0  0  0  0  0  0  0  0  0  0
   -5.0589   11.1228  -31.8077 C   0  0  0  0  0  0  0  0  0  0  0  0
   -6.2894   10.7619  -29.7601 C   0  0  0  0  0  0  0  0  0  0  0  0
   -4.5803   12.4667  -29.8579 C   0  0  0  0  0  0  0  0  0  0  0  0
   -4.3297   12.1390  -31.1904 C   0  0  0  0  0  0  0  0  0  0  0  0
   -6.0388   10.4342  -31.0926 C   0  0  0  0  0  0  0  0  0  0  0  0
   -7.2398   10.1084  -29.0335 O   0  0  0  0  0  0  0  0  0  0  0  0
   -3.8877   13.4410  -29.2507 F   0  0  0  0  0  0  0  0  0  0  0  0
   -3.1215   12.9856  -32.0778 Cl  0  0  0  0  0  0  0  0  0  0  0  0
   -7.0103    9.0592  -31.9633 Br  0  0  0  0  0  0  0  0  0  0  0  0
  1  3  2  0
  1  4  1  0
  2  5  1  0
  2  6  2  0
  3  6  1  0
  3  7  1  0
  4  5  2  0
  4  8  1  0
  5  9  1  0
  6 10  1  0
M  END
>  <id>  (9) 
EN300-194438

>  <smiles>  (9) 
OC=1C=C(F)C(Cl)=CC1Br

>  <MDLNUMBER>  (9) 
MFCD26895908

>  <IUPAC Name>  (9) 
2-bromo-4-chloro-5-fluorophenol

>  <CAS>  (9) 
157165-23-6

>  <Purity>  (9) 
95

>  <URL>  (9) 
https://www.enaminestore.com/catalog/EN300-194438

>  <ROCS_ShapeQuery>  (9) 
_x1604L0AP1_x0771L0AP1

>  <ROCS_TanimotoCombo>  (9) 
1.044 

>  <ROCS_ShapeTanimoto>  (9) 
0.491 

>  <ROCS_ColorTanimoto>  (9) 
0.553 

>  <ROCS_RefTversky>  (9) 
0.424 

>  <ROCS_RefColorTversky>  (9) 
0.518 

>  <ROCS_RefTverskyCombo>  (9) 
0.942 

>  <ROCS_FitTversky>  (9) 
1.473 

>  <ROCS_FitColorTversky>  (9) 
1.139 

>  <ROCS_FitTverskyCombo>  (9) 
2.611 

>  <ROCS_ColorScore>  (9) 
-4.879

>  <ROCS_Overlap>  (9) 
707.829

>  <ROCS_Rank>  (9) 
27                  

$$$$
untitled-dbase-228_0
     RDKit          3D

 10 10  0  0  0  0  0  0  0  0999 V2000
   -5.5637   11.7805  -29.1445 C   0  0  0  0  0  0  0  0  0  0  0  0
   -5.0660   11.1271  -31.8106 C   0  0  0  0  0  0  0  0  0  0  0  0
   -6.2909   10.7620  -29.7604 C   0  0  0  0  0  0  0  0  0  0  0  0
   -4.5877   12.4725  -29.8617 C   0  0  0  0  0  0  0  0  0  0  0  0
   -4.3388   12.1458  -31.1947 C   0  0  0  0  0  0  0  0  0  0  0  0
   -6.0420   10.4353  -31.0934 C   0  0  0  0  0  0  0  0  0  0  0  0
   -7.2384   10.1057  -29.0325 O   0  0  0  0  0  0  0  0  0  0  0  0
   -3.8907   13.4521  -29.2712 F   0  0  0  0  0  0  0  0  0  0  0  0
   -3.4024   12.8115  -31.8833 F   0  0  0  0  0  0  0  0  0  0  0  0
   -7.0110    9.0579  -31.9630 Br  0  0  0  0  0  0  0  0  0  0  0  0
  1  3  2  0
  1  4  1  0
  2  5  1  0
  2  6  2  0
  3  6  1  0
  3  7  1  0
  4  5  2  0
  4  8  1  0
  5  9  1  0
  6 10  1  0
M  END
>  <id>  (10) 
EN300-224945

>  <smiles>  (10) 
OC=1C=C(F)C(F)=CC1Br

>  <MDLNUMBER>  (10) 
MFCD00070751

>  <IUPAC Name>  (10) 
2-bromo-4,5-difluorophenol

>  <CAS>  (10) 
166281-37-4

>  <Purity>  (10) 
95

>  <URL>  (10) 
https://www.enaminestore.com/catalog/EN300-224945

>  <ROCS_ShapeQuery>  (10) 
_x1604L0AP1_x0771L0AP1

>  <ROCS_TanimotoCombo>  (10) 
1.044 

>  <ROCS_ShapeTanimoto>  (10) 
0.491 

>  <ROCS_ColorTanimoto>  (10) 
0.553 

>  <ROCS_RefTversky>  (10) 
0.426 

>  <ROCS_RefColorTversky>  (10) 
0.518 

>  <ROCS_RefTverskyCombo>  (10) 
0.945 

>  <ROCS_FitTversky>  (10) 
1.446 

>  <ROCS_FitColorTversky>  (10) 
1.139 

>  <ROCS_FitTverskyCombo>  (10) 
2.584 

>  <ROCS_ColorScore>  (10) 
-4.879

>  <ROCS_Overlap>  (10) 
711.876

>  <ROCS_Rank>  (10) 
28                  

$$$$
untitled-dbase-1482_0
     RDKit          3D

 10 10  0  0  0  0  0  0  0  0999 V2000
   -5.0668   11.1280  -31.8137 C   0  0  0  0  0  0  0  0  0  0  0  0
   -5.5628   11.7834  -29.1478 C   0  0  0  0  0  0  0  0  0  0  0  0
   -4.3388   12.1466  -31.1989 C   0  0  0  0  0  0  0  0  0  0  0  0
   -6.2909   10.7649  -29.7626 C   0  0  0  0  0  0  0  0  0  0  0  0
   -4.5868   12.4743  -29.8659 C   0  0  0  0  0  0  0  0  0  0  0  0
   -6.0430   10.4372  -31.0956 C   0  0  0  0  0  0  0  0  0  0  0  0
   -3.3013   12.8623  -32.0023 C   0  0  0  0  0  0  0  0  0  0  0  0
   -7.2375   10.1082  -29.0338 O   0  0  0  0  0  0  0  0  0  0  0  0
   -3.7062   13.7285  -29.0722 Cl  0  0  0  0  0  0  0  0  0  0  0  0
   -7.0127    9.0583  -31.9626 Br  0  0  0  0  0  0  0  0  0  0  0  0
  1  3  2  0
  1  6  1  0
  2  4  1  0
  2  5  2  0
  3  5  1  0
  3  7  1  0
  4  6  2  0
  4  8  1  0
  5  9  1  0
  6 10  1  0
M  END
>  <id>  (11) 
EN300-248208

>  <smiles>  (11) 
CC=1C=C(Br)C(O)=CC1Cl

>  <MDLNUMBER>  (11) 
MFCD11894407

>  <IUPAC Name>  (11) 
2-bromo-5-chloro-4-methylphenol

>  <CAS>  (11) 
1175754-49-0

>  <Purity>  (11) 
95

>  <URL>  (11) 
https://www.enaminestore.com/catalog/EN300-248208

>  <ROCS_ShapeQuery>  (11) 
_x1604L0AP1_x0771L0AP1

>  <ROCS_TanimotoCombo>  (11) 
1.043 

>  <ROCS_ShapeTanimoto>  (11) 
0.490 

>  <ROCS_ColorTanimoto>  (11) 
0.553 

>  <ROCS_RefTversky>  (11) 
0.423 

>  <ROCS_RefColorTversky>  (11) 
0.518 

>  <ROCS_RefTverskyCombo>  (11) 
0.941 

>  <ROCS_FitTversky>  (11) 
1.483 

>  <ROCS_FitColorTversky>  (11) 
1.139 

>  <ROCS_FitTverskyCombo>  (11) 
2.622 

>  <ROCS_ColorScore>  (11) 
-4.879

>  <ROCS_Overlap>  (11) 
705.251

>  <ROCS_Rank>  (11) 
29                  

$$$$
untitled-dbase-143_33
     RDKit          3D

 10 10  0  0  0  0  0  0  0  0999 V2000
   -4.6010   12.4839  -29.8474 C   0  0  0  0  0  0  0  0  0  0  0  0
   -5.5759   11.7858  -29.1349 C   0  0  0  0  0  0  0  0  0  0  0  0
   -5.0693   11.1432  -31.8019 C   0  0  0  0  0  0  0  0  0  0  0  0
   -4.3477   12.1627  -31.1810 C   0  0  0  0  0  0  0  0  0  0  0  0
   -6.2975   10.7663  -29.7558 C   0  0  0  0  0  0  0  0  0  0  0  0
   -6.0442   10.4449  -31.0894 C   0  0  0  0  0  0  0  0  0  0  0  0
   -3.3050   12.9096  -31.9416 C   0  0  0  0  0  0  0  0  0  0  0  0
   -7.2422   10.1021  -29.0315 O   0  0  0  0  0  0  0  0  0  0  0  0
   -2.2314   13.9033  -30.8608 S   0  0  0  0  0  0  0  0  0  0  0  0
   -7.0042    9.0647  -31.9645 Br  0  0  0  0  0  0  0  0  0  0  0  0
  1  2  2  0
  1  4  1  0
  2  5  1  0
  3  4  2  0
  3  6  1  0
  4  7  1  0
  5  6  2  0
  5  8  1  0
  6 10  1  0
  7  9  1  0
M  END
>  <id>  (12) 
EN300-1288750

>  <smiles>  (12) 
OC=1C=CC(CS)=CC1Br

>  <MDLNUMBER>  (12) 
MFCD33493935

>  <IUPAC Name>  (12) 
2-bromo-4-(sulfanylmethyl)phenol

>  <CAS>  (12) 
1895992-66-1

>  <URL>  (12) 
https://www.enaminestore.com/catalog/EN300-1288750

>  <ROCS_ShapeQuery>  (12) 
_x1604L0AP1_x0771L0AP1

>  <ROCS_TanimotoCombo>  (12) 
1.039 

>  <ROCS_ShapeTanimoto>  (12) 
0.486 

>  <ROCS_ColorTanimoto>  (12) 
0.553 

>  <ROCS_RefTversky>  (12) 
0.419 

>  <ROCS_RefColorTversky>  (12) 
0.518 

>  <ROCS_RefTverskyCombo>  (12) 
0.937 

>  <ROCS_FitTversky>  (12) 
1.484 

>  <ROCS_FitColorTversky>  (12) 
1.138 

>  <ROCS_FitTverskyCombo>  (12) 
2.622 

>  <ROCS_ColorScore>  (12) 
-4.878

>  <ROCS_Overlap>  (12) 
699.693

>  <ROCS_Rank>  (12) 
30                  

$$$$
untitled-dbase-1481_0
     RDKit          3D

 13 13  0  0  0  0  0  0  0  0999 V2000
   -5.5748   11.7821  -29.1288 C   0  0  0  0  0  0  0  0  0  0  0  0
   -4.6019   12.4881  -29.8363 C   0  0  0  0  0  0  0  0  0  0  0  0
   -5.0693   11.1626  -31.8015 C   0  0  0  0  0  0  0  0  0  0  0  0
   -6.2949   10.7663  -29.7575 C   0  0  0  0  0  0  0  0  0  0  0  0
   -4.3492   12.1784  -31.1726 C   0  0  0  0  0  0  0  0  0  0  0  0
   -6.0421   10.4566  -31.0939 C   0  0  0  0  0  0  0  0  0  0  0  0
   -4.7635   10.8664  -33.2347 C   0  0  0  0  0  0  0  0  0  0  0  0
   -7.2381   10.0983  -29.0342 O   0  0  0  0  0  0  0  0  0  0  0  0
   -3.4123   12.8641  -31.8427 F   0  0  0  0  0  0  0  0  0  0  0  0
   -3.7834   11.6593  -33.7568 F   0  0  0  0  0  0  0  0  0  0  0  0
   -4.3410    9.5864  -33.4465 F   0  0  0  0  0  0  0  0  0  0  0  0
   -5.8469   11.0366  -34.0449 F   0  0  0  0  0  0  0  0  0  0  0  0
   -7.0299    9.0688  -31.9418 Br  0  0  0  0  0  0  0  0  0  0  0  0
  1  2  2  0
  1  4  1  0
  2  5  1  0
  3  5  2  0
  3  6  1  0
  3  7  1  0
  4  6  2  0
  4  8  1  0
  5  9  1  0
  6 13  1  0
  7 10  1  0
  7 11  1  0
  7 12  1  0
M  END
>  <id>  (13) 
EN300-7504014

>  <smiles>  (13) 
OC=1C=CC(F)=C(C1Br)C(F)(F)F

>  <MDLNUMBER>  (13) 
MFCD28739058

>  <IUPAC Name>  (13) 
2-bromo-4-fluoro-3-(trifluoromethyl)phenol

>  <CAS>  (13) 
1805498-52-5

>  <Purity>  (13) 
95

>  <URL>  (13) 
https://www.enaminestore.com/catalog/EN300-7504014

>  <ROCS_ShapeQuery>  (13) 
_x1604L0AP1_x0771L0AP1

>  <ROCS_TanimotoCombo>  (13) 
1.035 

>  <ROCS_ShapeTanimoto>  (13) 
0.481 

>  <ROCS_ColorTanimoto>  (13) 
0.554 

>  <ROCS_RefTversky>  (13) 
0.448 

>  <ROCS_RefColorTversky>  (13) 
0.519 

>  <ROCS_RefTverskyCombo>  (13) 
0.966 

>  <ROCS_FitTversky>  (13) 
1.183 

>  <ROCS_FitColorTversky>  (13) 
1.139 

>  <ROCS_FitTverskyCombo>  (13) 
2.322 

>  <ROCS_ColorScore>  (13) 
-4.882

>  <ROCS_Overlap>  (13) 
750.995

>  <ROCS_Rank>  (13) 
32                  

$$$$
untitled-dbase-1589_20
     RDKit          3D

 12 12  0  0  0  0  0  0  0  0999 V2000
   -4.5956   12.4837  -29.8432 C   0  0  0  0  0  0  0  0  0  0  0  0
   -4.3341   12.1611  -31.1748 C   0  0  0  0  0  0  0  0  0  0  0  0
   -5.5740   11.7853  -29.1356 C   0  0  0  0  0  0  0  0  0  0  0  0
   -5.0510   11.1402  -31.7988 C   0  0  0  0  0  0  0  0  0  0  0  0
   -6.2909   10.7643  -29.7596 C   0  0  0  0  0  0  0  0  0  0  0  0
   -6.0294   10.4418  -31.0912 C   0  0  0  0  0  0  0  0  0  0  0  0
   -4.7332   10.8335  -33.2270 C   0  0  0  0  0  0  0  0  0  0  0  0
   -5.3363   11.8422  -34.2046 C   0  0  0  0  0  0  0  0  0  0  0  0
   -7.2946   10.7334  -34.7636 N   0  0  0  0  0  0  0  0  0  0  0  0
   -7.2399   10.1043  -29.0365 O   0  0  0  0  0  0  0  0  0  0  0  0
   -6.7491   11.8754  -34.0472 O   0  0  0  0  0  0  0  0  0  0  0  0
   -7.0136    9.0468  -31.9317 Br  0  0  0  0  0  0  0  0  0  0  0  0
  1  2  2  0
  1  3  1  0
  2  4  1  0
  3  5  2  0
  4  6  2  0
  4  7  1  0
  5  6  1  0
  5 10  1  0
  6 12  1  0
  7  8  1  0
  8 11  1  0
  9 11  1  0
M  END
>  <id>  (14) 
EN300-1904522

>  <smiles>  (14) 
NOCCC=1C=CC=C(O)C1Br

>  <IUPAC Name>  (14) 
3-[2-(aminooxy)ethyl]-2-bromophenol

>  <CAS>  (14) 
2228574-21-6

>  <URL>  (14) 
https://www.enaminestore.com/catalog/EN300-1904522

>  <ROCS_ShapeQuery>  (14) 
_x1604L0AP1_x0771L0AP1

>  <ROCS_TanimotoCombo>  (14) 
1.033 

>  <ROCS_ShapeTanimoto>  (14) 
0.480 

>  <ROCS_ColorTanimoto>  (14) 
0.554 

>  <ROCS_RefTversky>  (14) 
0.432 

>  <ROCS_RefColorTversky>  (14) 
0.519 

>  <ROCS_RefTverskyCombo>  (14) 
0.951 

>  <ROCS_FitTversky>  (14) 
1.299 

>  <ROCS_FitColorTversky>  (14) 
1.140 

>  <ROCS_FitTverskyCombo>  (14) 
2.439 

>  <ROCS_ColorScore>  (14) 
-4.883

>  <ROCS_Overlap>  (14) 
722.530

>  <ROCS_Rank>  (14) 
34                  

$$$$
untitled-dbase-1406_43
     RDKit          3D

 11 11  0  0  0  0  0  0  0  0999 V2000
   -4.6039   12.4887  -29.8552 C   0  0  0  0  0  0  0  0  0  0  0  0
   -4.3519   12.1709  -31.1897 C   0  0  0  0  0  0  0  0  0  0  0  0
   -5.5751   11.7858  -29.1422 C   0  0  0  0  0  0  0  0  0  0  0  0
   -5.0712   11.1503  -31.8115 C   0  0  0  0  0  0  0  0  0  0  0  0
   -6.2945   10.7651  -29.7639 C   0  0  0  0  0  0  0  0  0  0  0  0
   -6.0425   10.4473  -31.0985 C   0  0  0  0  0  0  0  0  0  0  0  0
   -4.7636   10.8488  -33.2430 C   0  0  0  0  0  0  0  0  0  0  0  0
   -6.6087   12.2254  -33.5216 N   0  0  0  0  0  0  0  0  0  0  0  0
   -7.2363   10.1006  -29.0357 O   0  0  0  0  0  0  0  0  0  0  0  0
   -5.9357   11.0379  -34.0242 O   0  0  0  0  0  0  0  0  0  0  0  0
   -7.0299    9.0528  -31.9359 Br  0  0  0  0  0  0  0  0  0  0  0  0
  1  2  2  0
  1  3  1  0
  2  4  1  0
  3  5  2  0
  4  6  2  0
  4  7  1  0
  5  6  1  0
  5  9  1  0
  6 11  1  0
  7 10  1  0
  8 10  1  0
M  END
>  <id>  (15) 
EN300-1904519

>  <smiles>  (15) 
NOCC=1C=CC=C(O)C1Br

>  <MDLNUMBER>  (15) 
MFCD33499664

>  <IUPAC Name>  (15) 
3-[(aminooxy)methyl]-2-bromophenol

>  <CAS>  (15) 
20978-38-5

>  <URL>  (15) 
https://www.enaminestore.com/catalog/EN300-1904519

>  <ROCS_ShapeQuery>  (15) 
_x1604L0AP1_x0771L0AP1

>  <ROCS_TanimotoCombo>  (15) 
1.033 

>  <ROCS_ShapeTanimoto>  (15) 
0.479 

>  <ROCS_ColorTanimoto>  (15) 
0.554 

>  <ROCS_RefTversky>  (15) 
0.425 

>  <ROCS_RefColorTversky>  (15) 
0.519 

>  <ROCS_RefTverskyCombo>  (15) 
0.944 

>  <ROCS_FitTversky>  (15) 
1.364 

>  <ROCS_FitColorTversky>  (15) 
1.139 

>  <ROCS_FitTverskyCombo>  (15) 
2.503 

>  <ROCS_ColorScore>  (15) 
-4.883

>  <ROCS_Overlap>  (15) 
710.238

>  <ROCS_Rank>  (15) 
37                  

$$$$
untitled-dbase-1094_113
     RDKit          3D

 14 14  0  0  0  0  0  0  0  0999 V2000
   -4.3599   12.1705  -31.2135 C   0  0  0  0  0  0  0  0  0  0  0  0
   -4.6045   12.4962  -29.8794 C   0  0  0  0  0  0  0  0  0  0  0  0
   -5.0814   11.1449  -31.8246 C   0  0  0  0  0  0  0  0  0  0  0  0
   -5.5704   11.7963  -29.1564 C   0  0  0  0  0  0  0  0  0  0  0  0
   -6.2918   10.7706  -29.7674 C   0  0  0  0  0  0  0  0  0  0  0  0
   -6.0472   10.4450  -31.1015 C   0  0  0  0  0  0  0  0  0  0  0  0
   -5.0160   13.1868  -27.3084 C   0  0  0  0  0  0  0  0  0  0  0  0
   -4.7821   10.8362  -33.2564 C   0  0  0  0  0  0  0  0  0  0  0  0
   -6.6945    8.9664  -35.1898 N   0  0  0  0  0  0  0  0  0  0  0  0
   -5.9688   10.9631  -34.1093 N   0  0  0  0  0  0  0  0  0  0  0  0
   -6.3431    9.9192  -34.6705 N   0  0  0  0  0  0  0  0  0  0  0  0
   -7.2317   10.1007  -29.0392 O   0  0  0  0  0  0  0  0  0  0  0  0
   -5.7978   12.1261  -27.8542 O   0  0  0  0  0  0  0  0  0  0  0  0
   -7.0426    9.0501  -31.9302 Br  0  0  0  0  0  0  0  0  0  0  0  0
  1  2  2  0
  1  3  1  0
  2  4  1  0
  3  6  2  0
  3  8  1  0
  4  5  2  0
  4 13  1  0
  5  6  1  0
  5 12  1  0
  6 14  1  0
  7 13  1  0
  8 10  1  0
  9 11  2  0
 10 11  2  0
M  CHG  2   9  -1  11   1
M  END
>  <id>  (16) 
EN300-1935945

>  <smiles>  (16) 
COC=1C=CC(CN=[N+]=[N-])=C(Br)C1O

>  <IUPAC Name>  (16) 
3-(azidomethyl)-2-bromo-6-methoxyphenol

>  <CAS>  (16) 
2229478-92-4

>  <URL>  (16) 
https://www.enaminestore.com/catalog/EN300-1935945

>  <ROCS_ShapeQuery>  (16) 
_x1604L0AP1_x0771L0AP1

>  <ROCS_TanimotoCombo>  (16) 
1.033 

>  <ROCS_ShapeTanimoto>  (16) 
0.535 

>  <ROCS_ColorTanimoto>  (16) 
0.497 

>  <ROCS_RefTversky>  (16) 
0.485 

>  <ROCS_RefColorTversky>  (16) 
0.516 

>  <ROCS_RefTverskyCombo>  (16) 
1.001 

>  <ROCS_FitTversky>  (16) 
1.242 

>  <ROCS_FitColorTversky>  (16) 
0.933 

>  <ROCS_FitTverskyCombo>  (16) 
2.175 

>  <ROCS_ColorScore>  (16) 
-4.884

>  <ROCS_Overlap>  (16) 
813.650

>  <ROCS_Rank>  (16) 
38                  

$$$$
untitled-dbase-1222_92
     RDKit          3D

 14 15  0  0  0  0  0  0  0  0999 V2000
   -4.6036   12.4840  -29.8416 C   0  0  0  0  0  0  0  0  0  0  0  0
   -5.5782   11.7842  -29.1303 C   0  0  0  0  0  0  0  0  0  0  0  0
   -5.0689   11.1441  -31.7974 C   0  0  0  0  0  0  0  0  0  0  0  0
   -4.3490   12.1640  -31.1752 C   0  0  0  0  0  0  0  0  0  0  0  0
   -6.2981   10.7642  -29.7525 C   0  0  0  0  0  0  0  0  0  0  0  0
   -6.0434   10.4442  -31.0861 C   0  0  0  0  0  0  0  0  0  0  0  0
   -1.8869   12.3784  -31.9065 C   0  0  0  0  0  0  0  0  0  0  0  0
   -2.2235   13.6210  -31.1431 C   0  0  0  0  0  0  0  0  0  0  0  0
   -3.3077   12.9122  -31.9346 C   0  0  0  0  0  0  0  0  0  0  0  0
   -3.7885   13.5608  -33.2029 C   0  0  0  0  0  0  0  0  0  0  0  0
   -5.1521   13.2236  -35.0478 N   0  0  0  0  0  0  0  0  0  0  0  0
   -7.2434   10.0994  -29.0295 O   0  0  0  0  0  0  0  0  0  0  0  0
   -4.2860   12.5616  -34.0857 O   0  0  0  0  0  0  0  0  0  0  0  0
   -7.0021    9.0645  -31.9636 Br  0  0  0  0  0  0  0  0  0  0  0  0
  1  2  2  0
  1  4  1  0
  2  5  1  0
  3  4  2  0
  3  6  1  0
  4  9  1  0
  5  6  2  0
  5 12  1  0
  6 14  1  0
  7  8  1  0
  7  9  1  0
  8  9  1  0
  9 10  1  0
 10 13  1  0
 11 13  1  0
M  END
>  <id>  (17) 
EN300-1906344

>  <smiles>  (17) 
NOCC1(CC1)C=2C=CC(O)=C(Br)C2

>  <IUPAC Name>  (17) 
4-{1-[(aminooxy)methyl]cyclopropyl}-2-bromophenol

>  <CAS>  (17) 
2229616-29-7

>  <URL>  (17) 
https://www.enaminestore.com/catalog/EN300-1906344

>  <ROCS_ShapeQuery>  (17) 
_x1604L0AP1_x0771L0AP1

>  <ROCS_TanimotoCombo>  (17) 
1.032 

>  <ROCS_ShapeTanimoto>  (17) 
0.479 

>  <ROCS_ColorTanimoto>  (17) 
0.553 

>  <ROCS_RefTversky>  (17) 
0.450 

>  <ROCS_RefColorTversky>  (17) 
0.518 

>  <ROCS_RefTverskyCombo>  (17) 
0.968 

>  <ROCS_FitTversky>  (17) 
1.159 

>  <ROCS_FitColorTversky>  (17) 
1.138 

>  <ROCS_FitTverskyCombo>  (17) 
2.297 

>  <ROCS_ColorScore>  (17) 
-4.878

>  <ROCS_Overlap>  (17) 
754.680

>  <ROCS_Rank>  (17) 
39                  

$$$$
untitled-dbase-1742_9
     RDKit          3D

 12 12  0  0  1  0  0  0  0  0999 V2000
   -4.6108   12.4942  -29.8584 C   0  0  0  0  0  0  0  0  0  0  0  0
   -4.3632   12.1790  -31.1944 C   0  0  0  0  0  0  0  0  0  0  0  0
   -5.5779   11.7883  -29.1428 C   0  0  0  0  0  0  0  0  0  0  0  0
   -5.0828   11.1578  -31.8149 C   0  0  0  0  0  0  0  0  0  0  0  0
   -6.2975   10.7671  -29.7633 C   0  0  0  0  0  0  0  0  0  0  0  0
   -6.0500   10.4518  -31.0994 C   0  0  0  0  0  0  0  0  0  0  0  0
   -3.7231   11.7909  -33.8395 C   0  0  0  0  0  0  0  0  0  0  0  0
   -4.7801   10.8591  -33.2481 C   0  0  2  0  0  0  0  0  0  0  0  0
   -5.7843   10.2612  -35.2508 N   0  0  0  0  0  0  0  0  0  0  0  0
   -7.2352   10.0996  -29.0326 O   0  0  0  0  0  0  0  0  0  0  0  0
   -5.9807   10.9965  -34.0147 O   0  0  0  0  0  0  0  0  0  0  0  0
   -7.0377    9.0565  -31.9351 Br  0  0  0  0  0  0  0  0  0  0  0  0
  1  2  2  0
  1  3  1  0
  2  4  1  0
  3  5  2  0
  4  6  2  0
  4  8  1  0
  5  6  1  0
  5 10  1  0
  6 12  1  0
  8  7  1  6
  8 11  1  0
  9 11  1  0
M  END
>  <id>  (18) 
EN300-1904532

>  <smiles>  (18) 
CC(ON)C=1C=CC=C(O)C1Br

>  <IUPAC Name>  (18) 
3-[1-(aminooxy)ethyl]-2-bromophenol

>  <CAS>  (18) 
2229348-42-7

>  <URL>  (18) 
https://www.enaminestore.com/catalog/EN300-1904532

>  <ROCS_ShapeQuery>  (18) 
_x1604L0AP1_x0771L0AP1

>  <ROCS_TanimotoCombo>  (18) 
1.031 

>  <ROCS_ShapeTanimoto>  (18) 
0.477 

>  <ROCS_ColorTanimoto>  (18) 
0.554 

>  <ROCS_RefTversky>  (18) 
0.432 

>  <ROCS_RefColorTversky>  (18) 
0.518 

>  <ROCS_RefTverskyCombo>  (18) 
0.950 

>  <ROCS_FitTversky>  (18) 
1.283 

>  <ROCS_FitColorTversky>  (18) 
1.139 

>  <ROCS_FitTverskyCombo>  (18) 
2.422 

>  <ROCS_ColorScore>  (18) 
-4.882

>  <ROCS_Overlap>  (18) 
722.754

>  <ROCS_Rank>  (18) 
40                  

$$$$
untitled-dbase-1182_117
     RDKit          3D

 12 12  0  0  0  0  0  0  0  0999 V2000
   -4.6328   12.5141  -29.8587 C   0  0  0  0  0  0  0  0  0  0  0  0
   -5.5966   11.8050  -29.1419 C   0  0  0  0  0  0  0  0  0  0  0  0
   -5.0907   11.1644  -31.8095 C   0  0  0  0  0  0  0  0  0  0  0  0
   -4.3799   12.1938  -31.1926 C   0  0  0  0  0  0  0  0  0  0  0  0
   -6.3074   10.7756  -29.7588 C   0  0  0  0  0  0  0  0  0  0  0  0
   -6.0545   10.4553  -31.0927 C   0  0  0  0  0  0  0  0  0  0  0  0
   -3.3491   12.9525  -31.9579 C   0  0  0  0  0  0  0  0  0  0  0  0
   -2.1896   13.4953  -31.0999 C   0  0  0  0  0  0  0  0  0  0  0  0
   -1.4081   12.3813  -30.4041 C   0  0  0  0  0  0  0  0  0  0  0  0
   -7.2415   10.1009  -29.0303 O   0  0  0  0  0  0  0  0  0  0  0  0
   -0.7004   11.2376  -31.6256 S   0  0  0  0  0  0  0  0  0  0  0  0
   -7.0002    9.0618  -31.9624 Br  0  0  0  0  0  0  0  0  0  0  0  0
  1  2  2  0
  1  4  1  0
  2  5  1  0
  3  4  2  0
  3  6  1  0
  4  7  1  0
  5  6  2  0
  5 10  1  0
  6 12  1  0
  7  8  1  0
  8  9  1  0
  9 11  1  0
M  END
>  <id>  (19) 
EN300-1905158

>  <smiles>  (19) 
OC=1C=CC(CCCS)=CC1Br

>  <IUPAC Name>  (19) 
2-bromo-4-(3-sulfanylpropyl)phenol

>  <CAS>  (19) 
2228544-80-5

>  <URL>  (19) 
https://www.enaminestore.com/catalog/EN300-1905158

>  <ROCS_ShapeQuery>  (19) 
_x1604L0AP1_x0771L0AP1

>  <ROCS_TanimotoCombo>  (19) 
1.027 

>  <ROCS_ShapeTanimoto>  (19) 
0.475 

>  <ROCS_ColorTanimoto>  (19) 
0.553 

>  <ROCS_RefTversky>  (19) 
0.426 

>  <ROCS_RefColorTversky>  (19) 
0.518 

>  <ROCS_RefTverskyCombo>  (19) 
0.944 

>  <ROCS_FitTversky>  (19) 
1.312 

>  <ROCS_FitColorTversky>  (19) 
1.138 

>  <ROCS_FitTverskyCombo>  (19) 
2.450 

>  <ROCS_ColorScore>  (19) 
-4.876

>  <ROCS_Overlap>  (19) 
713.151

>  <ROCS_Rank>  (19) 
43                  

$$$$
untitled-dbase-149_1
     RDKit          3D

 12 12  0  0  0  0  0  0  0  0999 V2000
   -5.0505   11.1287  -31.7919 C   0  0  0  0  0  0  0  0  0  0  0  0
   -5.5640   11.7722  -29.1264 C   0  0  0  0  0  0  0  0  0  0  0  0
   -4.3232   12.1412  -31.1663 C   0  0  0  0  0  0  0  0  0  0  0  0
   -6.2913   10.7596  -29.7520 C   0  0  0  0  0  0  0  0  0  0  0  0
   -4.5799   12.4630  -29.8336 C   0  0  0  0  0  0  0  0  0  0  0  0
   -6.0346   10.4379  -31.0847 C   0  0  0  0  0  0  0  0  0  0  0  0
   -3.2989   12.8603  -31.9074 C   0  0  0  0  0  0  0  0  0  0  0  0
   -2.5839   12.1188  -32.9993 C   0  0  0  0  0  0  0  0  0  0  0  0
   -2.9702   14.0308  -31.7037 O   0  0  0  0  0  0  0  0  0  0  0  0
   -7.2460   10.1035  -29.0332 O   0  0  0  0  0  0  0  0  0  0  0  0
   -3.8881   13.4354  -29.2228 F   0  0  0  0  0  0  0  0  0  0  0  0
   -7.0047    9.0694  -31.9671 Br  0  0  0  0  0  0  0  0  0  0  0  0
  1  3  2  0
  1  6  1  0
  2  4  1  0
  2  5  2  0
  3  5  1  0
  3  7  1  0
  4  6  2  0
  4 10  1  0
  5 11  1  0
  6 12  1  0
  7  8  1  0
  7  9  2  0
M  END
>  <id>  (20) 
EN300-1276899

>  <smiles>  (20) 
CC(=O)C=1C=C(Br)C(O)=CC1F

>  <MDLNUMBER>  (20) 
MFCD24122855

>  <IUPAC Name>  (20) 
1-(5-bromo-2-fluoro-4-hydroxyphenyl)ethan-1-one

>  <CAS>  (20) 
1503357-95-6

>  <URL>  (20) 
https://www.enaminestore.com/catalog/EN300-1276899

>  <ROCS_ShapeQuery>  (20) 
_x1604L0AP1_x0771L0AP1

>  <ROCS_TanimotoCombo>  (20) 
1.027 

>  <ROCS_ShapeTanimoto>  (20) 
0.530 

>  <ROCS_ColorTanimoto>  (20) 
0.497 

>  <ROCS_RefTversky>  (20) 
0.466 

>  <ROCS_RefColorTversky>  (20) 
0.515 

>  <ROCS_RefTverskyCombo>  (20) 
0.981 

>  <ROCS_FitTversky>  (20) 
1.352 

>  <ROCS_FitColorTversky>  (20) 
0.932 

>  <ROCS_FitTverskyCombo>  (20) 
2.284 

>  <ROCS_ColorScore>  (20) 
-4.879

>  <ROCS_Overlap>  (20) 
779.451

>  <ROCS_Rank>  (20) 
44                  

$$$$
untitled-dbase-666_79
     RDKit          3D

 12 12  0  0  1  0  0  0  0  0999 V2000
   -4.6002   12.4851  -29.8299 C   0  0  0  0  0  0  0  0  0  0  0  0
   -5.5771   11.7840  -29.1231 C   0  0  0  0  0  0  0  0  0  0  0  0
   -5.0634   11.1530  -31.7916 C   0  0  0  0  0  0  0  0  0  0  0  0
   -4.3433   12.1697  -31.1642 C   0  0  0  0  0  0  0  0  0  0  0  0
   -6.2972   10.7674  -29.7505 C   0  0  0  0  0  0  0  0  0  0  0  0
   -6.0404   10.4519  -31.0848 C   0  0  0  0  0  0  0  0  0  0  0  0
   -3.8417   13.6030  -33.1748 C   0  0  0  0  0  0  0  0  0  0  0  0
   -3.2985   12.9198  -31.9188 C   0  0  2  0  0  0  0  0  0  0  0  0
   -2.7418   11.3130  -33.4951 N   0  0  0  0  0  0  0  0  0  0  0  0
   -7.2440   10.1002  -29.0316 O   0  0  0  0  0  0  0  0  0  0  0  0
   -2.2649   12.0112  -32.3157 O   0  0  0  0  0  0  0  0  0  0  0  0
   -6.9983    9.0756  -31.9685 Br  0  0  0  0  0  0  0  0  0  0  0  0
  1  2  2  0
  1  4  1  0
  2  5  1  0
  3  4  2  0
  3  6  1  0
  4  8  1  0
  5  6  2  0
  5 10  1  0
  6 12  1  0
  8  7  1  6
  8 11  1  0
  9 11  1  0
M  END
>  <id>  (21) 
EN300-1906349

>  <smiles>  (21) 
CC(ON)C=1C=CC(O)=C(Br)C1

>  <IUPAC Name>  (21) 
4-[1-(aminooxy)ethyl]-2-bromophenol

>  <CAS>  (21) 
2228145-03-5

>  <URL>  (21) 
https://www.enaminestore.com/catalog/EN300-1906349

>  <ROCS_ShapeQuery>  (21) 
_x1604L0AP1_x0771L0AP1

>  <ROCS_TanimotoCombo>  (21) 
1.026 

>  <ROCS_ShapeTanimoto>  (21) 
0.473 

>  <ROCS_ColorTanimoto>  (21) 
0.553 

>  <ROCS_RefTversky>  (21) 
0.429 

>  <ROCS_RefColorTversky>  (21) 
0.518 

>  <ROCS_RefTverskyCombo>  (21) 
0.947 

>  <ROCS_FitTversky>  (21) 
1.278 

>  <ROCS_FitColorTversky>  (21) 
1.138 

>  <ROCS_FitTverskyCombo>  (21) 
2.416 

>  <ROCS_ColorScore>  (21) 
-4.878

>  <ROCS_Overlap>  (21) 
718.156

>  <ROCS_Rank>  (21) 
45                  

$$$$
untitled-dbase-2278_5
     RDKit          3D

 12 12  0  0  0  0  0  0  0  0999 V2000
   -5.5776   11.7888  -29.1428 C   0  0  0  0  0  0  0  0  0  0  0  0
   -4.3634   12.1739  -31.1957 C   0  0  0  0  0  0  0  0  0  0  0  0
   -6.2989   10.7675  -29.7610 C   0  0  0  0  0  0  0  0  0  0  0  0
   -4.6099   12.4921  -29.8602 C   0  0  0  0  0  0  0  0  0  0  0  0
   -5.0847   11.1526  -31.8139 C   0  0  0  0  0  0  0  0  0  0  0  0
   -6.0525   10.4494  -31.0966 C   0  0  0  0  0  0  0  0  0  0  0  0
   -3.3538   12.9085  -31.9421 C   0  0  0  0  0  0  0  0  0  0  0  0
   -2.1699   12.5644  -31.9921 O   0  0  0  0  0  0  0  0  0  0  0  0
   -7.2382   10.1008  -29.0318 O   0  0  0  0  0  0  0  0  0  0  0  0
   -3.9237   13.4726  -29.2559 F   0  0  0  0  0  0  0  0  0  0  0  0
   -4.8398   10.8521  -33.0989 F   0  0  0  0  0  0  0  0  0  0  0  0
   -7.0184    9.0633  -31.9586 Br  0  0  0  0  0  0  0  0  0  0  0  0
  1  3  2  0
  1  4  1  0
  2  4  2  0
  2  5  1  0
  2  7  1  0
  3  6  1  0
  3  9  1  0
  4 10  1  0
  5  6  2  0
  5 11  1  0
  6 12  1  0
  7  8  2  0
M  END
>  <id>  (22) 
EN300-29234197

>  <smiles>  (22) 
OC=1C=C(F)C(C=O)=C(F)C1Br

>  <IUPAC Name>  (22) 
3-bromo-2,6-difluoro-4-hydroxybenzaldehyde

>  <CAS>  (22) 
1780889-40-8

>  <Purity>  (22) 
95

>  <URL>  (22) 
https://www.enaminestore.com/catalog/EN300-29234197

>  <ROCS_ShapeQuery>  (22) 
_x1604L0AP1_x0771L0AP1

>  <ROCS_TanimotoCombo>  (22) 
1.023 

>  <ROCS_ShapeTanimoto>  (22) 
0.527 

>  <ROCS_ColorTanimoto>  (22) 
0.497 

>  <ROCS_RefTversky>  (22) 
0.465 

>  <ROCS_RefColorTversky>  (22) 
0.515 

>  <ROCS_RefTverskyCombo>  (22) 
0.980 

>  <ROCS_FitTversky>  (22) 
1.336 

>  <ROCS_FitColorTversky>  (22) 
0.932 

>  <ROCS_FitTverskyCombo>  (22) 
2.268 

>  <ROCS_ColorScore>  (22) 
-4.879

>  <ROCS_Overlap>  (22) 
778.516

>  <ROCS_Rank>  (22) 
51                  

$$$$
untitled-dbase-949_83
     RDKit          3D

 14 15  0  0  0  0  0  0  0  0999 V2000
   -4.6021   12.4882  -29.8484 C   0  0  0  0  0  0  0  0  0  0  0  0
   -4.3441   12.1684  -31.1814 C   0  0  0  0  0  0  0  0  0  0  0  0
   -5.5758   11.7856  -29.1385 C   0  0  0  0  0  0  0  0  0  0  0  0
   -5.0599   11.1461  -31.8045 C   0  0  0  0  0  0  0  0  0  0  0  0
   -6.2916   10.7633  -29.7616 C   0  0  0  0  0  0  0  0  0  0  0  0
   -6.0337   10.4436  -31.0946 C   0  0  0  0  0  0  0  0  0  0  0  0
   -4.2638    9.4463  -33.5706 C   0  0  0  0  0  0  0  0  0  0  0  0
   -3.3011   10.5918  -33.6047 C   0  0  0  0  0  0  0  0  0  0  0  0
   -4.7497   10.8424  -33.2347 C   0  0  0  0  0  0  0  0  0  0  0  0
   -5.6229   11.5459  -34.2335 C   0  0  0  0  0  0  0  0  0  0  0  0
   -7.0835   12.6212  -32.7889 N   0  0  0  0  0  0  0  0  0  0  0  0
   -7.2372   10.1010  -29.0362 O   0  0  0  0  0  0  0  0  0  0  0  0
   -6.9680   11.5519  -33.7670 O   0  0  0  0  0  0  0  0  0  0  0  0
   -7.0227    9.0500  -31.9336 Br  0  0  0  0  0  0  0  0  0  0  0  0
  1  2  2  0
  1  3  1  0
  2  4  1  0
  3  5  2  0
  4  6  2  0
  4  9  1  0
  5  6  1  0
  5 12  1  0
  6 14  1  0
  7  8  1  0
  7  9  1  0
  8  9  1  0
  9 10  1  0
 10 13  1  0
 11 13  1  0
M  END
>  <id>  (23) 
EN300-1904527

>  <smiles>  (23) 
NOCC1(CC1)C=2C=CC=C(O)C2Br

>  <IUPAC Name>  (23) 
3-{1-[(aminooxy)methyl]cyclopropyl}-2-bromophenol

>  <CAS>  (23) 
2228963-77-5

>  <URL>  (23) 
https://www.enaminestore.com/catalog/EN300-1904527

>  <ROCS_ShapeQuery>  (23) 
_x1604L0AP1_x0771L0AP1

>  <ROCS_TanimotoCombo>  (23) 
1.023 

>  <ROCS_ShapeTanimoto>  (23) 
0.469 

>  <ROCS_ColorTanimoto>  (23) 
0.554 

>  <ROCS_RefTversky>  (23) 
0.444 

>  <ROCS_RefColorTversky>  (23) 
0.519 

>  <ROCS_RefTverskyCombo>  (23) 
0.962 

>  <ROCS_FitTversky>  (23) 
1.141 

>  <ROCS_FitColorTversky>  (23) 
1.140 

>  <ROCS_FitTverskyCombo>  (23) 
2.281 

>  <ROCS_ColorScore>  (23) 
-4.883

>  <ROCS_Overlap>  (23) 
744.601

>  <ROCS_Rank>  (23) 
52                  

$$$$
untitled-dbase-1753_104
     RDKit          3D

 14 14  0  0  1  0  0  0  0  0999 V2000
   -4.5883   12.4752  -29.8397 C   0  0  0  0  0  0  0  0  0  0  0  0
   -5.0649   11.1416  -31.7970 C   0  0  0  0  0  0  0  0  0  0  0  0
   -4.3382   12.1564  -31.1744 C   0  0  0  0  0  0  0  0  0  0  0  0
   -5.5651   11.7791  -29.1276 C   0  0  0  0  0  0  0  0  0  0  0  0
   -6.2918   10.7643  -29.7502 C   0  0  0  0  0  0  0  0  0  0  0  0
   -6.0417   10.4455  -31.0850 C   0  0  0  0  0  0  0  0  0  0  0  0
   -2.1510   12.0066  -32.4164 C   0  0  0  0  0  0  0  0  0  0  0  0
   -5.0379   11.4072  -26.8385 C   0  0  0  0  0  0  0  0  0  0  0  0
   -3.2945   12.9015  -31.9356 C   0  0  2  0  0  0  0  0  0  0  0  0
   -3.6719   15.0346  -31.1084 N   0  0  0  0  0  0  0  0  0  0  0  0
   -7.2438   10.0955  -29.0373 O   0  0  0  0  0  0  0  0  0  0  0  0
   -5.7982   12.1023  -27.8248 O   0  0  0  0  0  0  0  0  0  0  0  0
   -2.7412   13.9212  -31.0957 O   0  0  0  0  0  0  0  0  0  0  0  0
   -7.0089    9.0729  -31.9651 Br  0  0  0  0  0  0  0  0  0  0  0  0
  1  3  2  0
  1  4  1  0
  2  3  1  0
  2  6  2  0
  3  9  1  0
  4  5  2  0
  4 12  1  0
  5  6  1  0
  5 11  1  0
  6 14  1  0
  9  7  1  1
  8 12  1  0
  9 13  1  0
 10 13  1  0
M  END
>  <id>  (24) 
EN300-1927005

>  <smiles>  (24) 
COC=1C=C(C=C(Br)C1O)C(C)ON

>  <IUPAC Name>  (24) 
4-[1-(aminooxy)ethyl]-2-bromo-6-methoxyphenol

>  <CAS>  (24) 
2228424-95-9

>  <URL>  (24) 
https://www.enaminestore.com/catalog/EN300-1927005

>  <ROCS_ShapeQuery>  (24) 
_x1604L0AP1_x0771L0AP1

>  <ROCS_TanimotoCombo>  (24) 
1.021 

>  <ROCS_ShapeTanimoto>  (24) 
0.524 

>  <ROCS_ColorTanimoto>  (24) 
0.497 

>  <ROCS_RefTversky>  (24) 
0.477 

>  <ROCS_RefColorTversky>  (24) 
0.516 

>  <ROCS_RefTverskyCombo>  (24) 
0.992 

>  <ROCS_FitTversky>  (24) 
1.234 

>  <ROCS_FitColorTversky>  (24) 
0.932 

>  <ROCS_FitTverskyCombo>  (24) 
2.167 

>  <ROCS_ColorScore>  (24) 
-4.881

>  <ROCS_Overlap>  (24) 
799.890

>  <ROCS_Rank>  (24) 
54                  

$$$$
untitled-dbase-780_67
     RDKit          3D

 11 11  0  0  0  0  0  0  0  0999 V2000
   -4.6074   12.4939  -29.8633 C   0  0  0  0  0  0  0  0  0  0  0  0
   -4.3605   12.1768  -31.1990 C   0  0  0  0  0  0  0  0  0  0  0  0
   -5.5747   11.7893  -29.1465 C   0  0  0  0  0  0  0  0  0  0  0  0
   -5.0809   11.1552  -31.8180 C   0  0  0  0  0  0  0  0  0  0  0  0
   -6.2950   10.7678  -29.7655 C   0  0  0  0  0  0  0  0  0  0  0  0
   -6.0482   10.4507  -31.1012 C   0  0  0  0  0  0  0  0  0  0  0  0
   -4.7788   10.8545  -33.2509 C   0  0  0  0  0  0  0  0  0  0  0  0
   -5.9921   10.9060  -34.1920 C   0  0  0  0  0  0  0  0  0  0  0  0
   -7.2329   10.1016  -29.0335 O   0  0  0  0  0  0  0  0  0  0  0  0
   -5.5562   10.5110  -35.9138 S   0  0  0  0  0  0  0  0  0  0  0  0
   -7.0370    9.0548  -31.9348 Br  0  0  0  0  0  0  0  0  0  0  0  0
  1  2  2  0
  1  3  1  0
  2  4  1  0
  3  5  2  0
  4  6  2  0
  4  7  1  0
  5  6  1  0
  5  9  1  0
  6 11  1  0
  7  8  1  0
  8 10  1  0
M  END
>  <id>  (25) 
EN300-1904620

>  <smiles>  (25) 
OC=1C=CC=C(CCS)C1Br

>  <MDLNUMBER>  (25) 
MFCD33499794

>  <IUPAC Name>  (25) 
2-bromo-3-(2-sulfanylethyl)phenol

>  <CAS>  (25) 
2229351-06-6

>  <URL>  (25) 
https://www.enaminestore.com/catalog/EN300-1904620

>  <ROCS_ShapeQuery>  (25) 
_x1604L0AP1_x0771L0AP1

>  <ROCS_TanimotoCombo>  (25) 
1.020 

>  <ROCS_ShapeTanimoto>  (25) 
0.467 

>  <ROCS_ColorTanimoto>  (25) 
0.554 

>  <ROCS_RefTversky>  (25) 
0.415 

>  <ROCS_RefColorTversky>  (25) 
0.518 

>  <ROCS_RefTverskyCombo>  (25) 
0.933 

>  <ROCS_FitTversky>  (25) 
1.364 

>  <ROCS_FitColorTversky>  (25) 
1.139 

>  <ROCS_FitTverskyCombo>  (25) 
2.503 

>  <ROCS_ColorScore>  (25) 
-4.882

>  <ROCS_Overlap>  (25) 
693.029

>  <ROCS_Rank>  (25) 
55                  

$$$$
untitled-dbase-750_1
     RDKit          3D

 10 10  0  0  0  0  0  0  0  0999 V2000
   -4.6143   12.4994  -29.8597 C   0  0  0  0  0  0  0  0  0  0  0  0
   -5.5823   11.7960  -29.1429 C   0  0  0  0  0  0  0  0  0  0  0  0
   -5.0821   11.1543  -31.8114 C   0  0  0  0  0  0  0  0  0  0  0  0
   -4.3642   12.1786  -31.1940 C   0  0  0  0  0  0  0  0  0  0  0  0
   -6.3001   10.7717  -29.7603 C   0  0  0  0  0  0  0  0  0  0  0  0
   -6.0500   10.4508  -31.0946 C   0  0  0  0  0  0  0  0  0  0  0  0
   -3.3290   12.9311  -31.9593 C   0  0  0  0  0  0  0  0  0  0  0  0
   -7.2381   10.1024  -29.0318 O   0  0  0  0  0  0  0  0  0  0  0  0
   -1.6956   12.4229  -31.4743 Cl  0  0  0  0  0  0  0  0  0  0  0  0
   -7.0052    9.0642  -31.9649 Br  0  0  0  0  0  0  0  0  0  0  0  0
  1  2  2  0
  1  4  1  0
  2  5  1  0
  3  4  2  0
  3  6  1  0
  4  7  1  0
  5  6  2  0
  5  8  1  0
  6 10  1  0
  7  9  1  0
M  END
>  <id>  (26) 
EN300-1893115

>  <smiles>  (26) 
OC=1C=CC(CCl)=CC1Br

>  <MDLNUMBER>  (26) 
MFCD18391438

>  <IUPAC Name>  (26) 
2-bromo-4-(chloromethyl)phenol

>  <CAS>  (26) 
1261815-29-5

>  <URL>  (26) 
https://www.enaminestore.com/catalog/EN300-1893115

>  <ROCS_ShapeQuery>  (26) 
_x1604L0AP1_x0771L0AP1

>  <ROCS_TanimotoCombo>  (26) 
1.020 

>  <ROCS_ShapeTanimoto>  (26) 
0.467 

>  <ROCS_ColorTanimoto>  (26) 
0.553 

>  <ROCS_RefTversky>  (26) 
0.408 

>  <ROCS_RefColorTversky>  (26) 
0.518 

>  <ROCS_RefTverskyCombo>  (26) 
0.926 

>  <ROCS_FitTversky>  (26) 
1.442 

>  <ROCS_FitColorTversky>  (26) 
1.138 

>  <ROCS_FitTverskyCombo>  (26) 
2.580 

>  <ROCS_ColorScore>  (26) 
-4.878

>  <ROCS_Overlap>  (26) 
681.310

>  <ROCS_Rank>  (26) 
56                  

$$$$
untitled-dbase-2122_0
     RDKit          3D

 10 10  0  0  0  0  0  0  0  0999 V2000
   -4.3472   12.1737  -31.1894 C   0  0  0  0  0  0  0  0  0  0  0  0
   -5.5727   11.7872  -29.1436 C   0  0  0  0  0  0  0  0  0  0  0  0
   -4.6003   12.4903  -29.8548 C   0  0  0  0  0  0  0  0  0  0  0  0
   -5.0665   11.1542  -31.8130 C   0  0  0  0  0  0  0  0  0  0  0  0
   -6.2920   10.7675  -29.7671 C   0  0  0  0  0  0  0  0  0  0  0  0
   -6.0389   10.4511  -31.1018 C   0  0  0  0  0  0  0  0  0  0  0  0
   -3.8315   13.5814  -29.1894 C   0  0  0  0  0  0  0  0  0  0  0  0
   -4.7577   10.8544  -33.2447 C   0  0  0  0  0  0  0  0  0  0  0  0
   -7.2348   10.1025  -29.0404 O   0  0  0  0  0  0  0  0  0  0  0  0
   -7.0251    9.0574  -31.9424 Br  0  0  0  0  0  0  0  0  0  0  0  0
  1  3  2  0
  1  4  1  0
  2  3  1  0
  2  5  2  0
  3  7  1  0
  4  6  2  0
  4  8  1  0
  5  6  1  0
  5  9  1  0
  6 10  1  0
M  END
>  <id>  (27) 
EN300-190926

>  <smiles>  (27) 
CC=1C=C(C)C(Br)=C(O)C1

>  <MDLNUMBER>  (27) 
MFCD22058629

>  <IUPAC Name>  (27) 
2-bromo-3,5-dimethylphenol

>  <CAS>  (27) 
125237-08-3

>  <Purity>  (27) 
95

>  <URL>  (27) 
https://www.enaminestore.com/catalog/EN300-190926

>  <MP>  (27) 
51-54

>  <ROCS_ShapeQuery>  (27) 
_x1604L0AP1_x0771L0AP1

>  <ROCS_TanimotoCombo>  (27) 
1.020 

>  <ROCS_ShapeTanimoto>  (27) 
0.466 

>  <ROCS_ColorTanimoto>  (27) 
0.554 

>  <ROCS_RefTversky>  (27) 
0.409 

>  <ROCS_RefColorTversky>  (27) 
0.519 

>  <ROCS_RefTverskyCombo>  (27) 
0.928 

>  <ROCS_FitTversky>  (27) 
1.419 

>  <ROCS_FitColorTversky>  (27) 
1.140 

>  <ROCS_FitTverskyCombo>  (27) 
2.559 

>  <ROCS_ColorScore>  (27) 
-4.883

>  <ROCS_Overlap>  (27) 
683.342

>  <ROCS_Rank>  (27) 
57                  

$$$$
untitled-dbase-42_0
     RDKit          3D

 10 10  0  0  0  0  0  0  0  0999 V2000
   -4.3473   12.1479  -31.2163 C   0  0  0  0  0  0  0  0  0  0  0  0
   -5.0755   11.1263  -31.8259 C   0  0  0  0  0  0  0  0  0  0  0  0
   -4.5912   12.4786  -29.8833 C   0  0  0  0  0  0  0  0  0  0  0  0
   -6.2916   10.7661  -29.7696 C   0  0  0  0  0  0  0  0  0  0  0  0
   -5.5633   11.7878  -29.1600 C   0  0  0  0  0  0  0  0  0  0  0  0
   -6.0477   10.4354  -31.1026 C   0  0  0  0  0  0  0  0  0  0  0  0
   -3.8103   13.5714  -29.2351 C   0  0  0  0  0  0  0  0  0  0  0  0
   -7.2344   10.1084  -29.0368 O   0  0  0  0  0  0  0  0  0  0  0  0
   -5.7985   12.1040  -27.8780 F   0  0  0  0  0  0  0  0  0  0  0  0
   -7.0181    9.0539  -31.9639 Br  0  0  0  0  0  0  0  0  0  0  0  0
  1  2  2  0
  1  3  1  0
  2  6  1  0
  3  5  2  0
  3  7  1  0
  4  5  1  0
  4  6  2  0
  4  8  1  0
  5  9  1  0
  6 10  1  0
M  END
>  <id>  (28) 
EN300-187070

>  <smiles>  (28) 
CC=1C=CC(Br)=C(O)C1F

>  <MDLNUMBER>  (28) 
MFCD19105384

>  <IUPAC Name>  (28) 
6-bromo-2-fluoro-3-methylphenol

>  <CAS>  (28) 
1310416-52-4

>  <Purity>  (28) 
95

>  <URL>  (28) 
https://www.enaminestore.com/catalog/EN300-187070

>  <ROCS_ShapeQuery>  (28) 
_x1604L0AP1_x0771L0AP1

>  <ROCS_TanimotoCombo>  (28) 
1.019 

>  <ROCS_ShapeTanimoto>  (28) 
0.466 

>  <ROCS_ColorTanimoto>  (28) 
0.553 

>  <ROCS_RefTversky>  (28) 
0.411 

>  <ROCS_RefColorTversky>  (28) 
0.518 

>  <ROCS_RefTverskyCombo>  (28) 
0.929 

>  <ROCS_FitTversky>  (28) 
1.403 

>  <ROCS_FitColorTversky>  (28) 
1.138 

>  <ROCS_FitTverskyCombo>  (28) 
2.541 

>  <ROCS_ColorScore>  (28) 
-4.878

>  <ROCS_Overlap>  (28) 
686.128

>  <ROCS_Rank>  (28) 
58                  

$$$$
untitled-dbase-2316_0
     RDKit          3D

 10 10  0  0  0  0  0  0  0  0999 V2000
   -4.3491   12.1754  -31.1915 C   0  0  0  0  0  0  0  0  0  0  0  0
   -5.5730   11.7881  -29.1447 C   0  0  0  0  0  0  0  0  0  0  0  0
   -5.0683   11.1555  -31.8145 C   0  0  0  0  0  0  0  0  0  0  0  0
   -6.2922   10.7682  -29.7677 C   0  0  0  0  0  0  0  0  0  0  0  0
   -4.6015   12.4917  -29.8565 C   0  0  0  0  0  0  0  0  0  0  0  0
   -6.0398   10.4519  -31.1026 C   0  0  0  0  0  0  0  0  0  0  0  0
   -4.7605   10.8552  -33.2464 C   0  0  0  0  0  0  0  0  0  0  0  0
   -7.2339   10.1025  -29.0403 O   0  0  0  0  0  0  0  0  0  0  0  0
   -3.7145   13.7502  -29.0878 Cl  0  0  0  0  0  0  0  0  0  0  0  0
   -7.0262    9.0579  -31.9424 Br  0  0  0  0  0  0  0  0  0  0  0  0
  1  3  2  0
  1  5  1  0
  2  4  1  0
  2  5  2  0
  3  6  1  0
  3  7  1  0
  4  6  2  0
  4  8  1  0
  5  9  1  0
  6 10  1  0
M  END
>  <id>  (29) 
EN300-33887700

>  <smiles>  (29) 
CC=1C=C(Cl)C=C(O)C1Br

>  <MDLNUMBER>  (29) 
MFCD33401552

>  <IUPAC Name>  (29) 
2-bromo-5-chloro-3-methylphenol

>  <CAS>  (29) 
2092417-16-6

>  <Purity>  (29) 
95

>  <URL>  (29) 
https://www.enaminestore.com/catalog/EN300-33887700

>  <ROCS_ShapeQuery>  (29) 
_x1604L0AP1_x0771L0AP1

>  <ROCS_TanimotoCombo>  (29) 
1.019 

>  <ROCS_ShapeTanimoto>  (29) 
0.465 

>  <ROCS_ColorTanimoto>  (29) 
0.554 

>  <ROCS_RefTversky>  (29) 
0.408 

>  <ROCS_RefColorTversky>  (29) 
0.519 

>  <ROCS_RefTverskyCombo>  (29) 
0.927 

>  <ROCS_FitTversky>  (29) 
1.432 

>  <ROCS_FitColorTversky>  (29) 
1.139 

>  <ROCS_FitTverskyCombo>  (29) 
2.572 

>  <ROCS_ColorScore>  (29) 
-4.883

>  <ROCS_Overlap>  (29) 
680.700

>  <ROCS_Rank>  (29) 
59                  

$$$$
untitled-dbase-1514_2
     RDKit          3D

 11 11  0  0  0  0  0  0  0  0999 V2000
   -5.0626   11.1272  -31.8060 C   0  0  0  0  0  0  0  0  0  0  0  0
   -5.5662   11.7785  -29.1405 C   0  0  0  0  0  0  0  0  0  0  0  0
   -4.3360   12.1445  -31.1874 C   0  0  0  0  0  0  0  0  0  0  0  0
   -6.2928   10.7612  -29.7592 C   0  0  0  0  0  0  0  0  0  0  0  0
   -4.5878   12.4702  -29.8546 C   0  0  0  0  0  0  0  0  0  0  0  0
   -6.0411   10.4356  -31.0919 C   0  0  0  0  0  0  0  0  0  0  0  0
   -3.3175   12.8644  -31.9357 C   0  0  0  0  0  0  0  0  0  0  0  0
   -2.6405   13.7740  -31.4486 O   0  0  0  0  0  0  0  0  0  0  0  0
   -7.2420   10.1044  -29.0338 O   0  0  0  0  0  0  0  0  0  0  0  0
   -3.8965   13.4472  -29.2505 F   0  0  0  0  0  0  0  0  0  0  0  0
   -7.0104    9.0606  -31.9650 Br  0  0  0  0  0  0  0  0  0  0  0  0
  1  3  2  0
  1  6  1  0
  2  4  1  0
  2  5  2  0
  3  5  1  0
  3  7  1  0
  4  6  2  0
  4  9  1  0
  5 10  1  0
  6 11  1  0
  7  8  2  0
M  END
>  <id>  (30) 
EN300-1276385

>  <smiles>  (30) 
OC=1C=C(F)C(C=O)=CC1Br

>  <MDLNUMBER>  (30) 
MFCD22036550

>  <IUPAC Name>  (30) 
5-bromo-2-fluoro-4-hydroxybenzaldehyde

>  <CAS>  (30) 
914397-21-0

>  <Purity>  (30) 
95

>  <URL>  (30) 
https://www.enaminestore.com/catalog/EN300-1276385

>  <ROCS_ShapeQuery>  (30) 
_x1604L0AP1_x0771L0AP1

>  <ROCS_TanimotoCombo>  (30) 
1.019 

>  <ROCS_ShapeTanimoto>  (30) 
0.522 

>  <ROCS_ColorTanimoto>  (30) 
0.497 

>  <ROCS_RefTversky>  (30) 
0.452 

>  <ROCS_RefColorTversky>  (30) 
0.515 

>  <ROCS_RefTverskyCombo>  (30) 
0.968 

>  <ROCS_FitTversky>  (30) 
1.419 

>  <ROCS_FitColorTversky>  (30) 
0.932 

>  <ROCS_FitTverskyCombo>  (30) 
2.351 

>  <ROCS_ColorScore>  (30) 
-4.879

>  <ROCS_Overlap>  (30) 
756.187

>  <ROCS_Rank>  (30) 
60                  

$$$$
untitled-dbase-113_0
     RDKit          3D

 10 10  0  0  0  0  0  0  0  0999 V2000
   -4.3445   12.1421  -31.2198 C   0  0  0  0  0  0  0  0  0  0  0  0
   -5.0735   11.1198  -31.8273 C   0  0  0  0  0  0  0  0  0  0  0  0
   -6.2901   10.7649  -29.7704 C   0  0  0  0  0  0  0  0  0  0  0  0
   -5.5611   11.7872  -29.1628 C   0  0  0  0  0  0  0  0  0  0  0  0
   -4.5883   12.4758  -29.8875 C   0  0  0  0  0  0  0  0  0  0  0  0
   -6.0463   10.4312  -31.1027 C   0  0  0  0  0  0  0  0  0  0  0  0
   -7.2340   10.1096  -29.0367 O   0  0  0  0  0  0  0  0  0  0  0  0
   -5.8038   12.1042  -27.8821 F   0  0  0  0  0  0  0  0  0  0  0  0
   -3.6856   13.7395  -29.1446 Cl  0  0  0  0  0  0  0  0  0  0  0  0
   -7.0164    9.0478  -31.9610 Br  0  0  0  0  0  0  0  0  0  0  0  0
  1  2  2  0
  1  5  1  0
  2  6  1  0
  3  4  1  0
  3  6  2  0
  3  7  1  0
  4  5  2  0
  4  8  1  0
  5  9  1  0
  6 10  1  0
M  END
>  <id>  (31) 
EN300-207641

>  <smiles>  (31) 
OC=1C(F)=C(Cl)C=CC1Br

>  <MDLNUMBER>  (31) 
MFCD19105360

>  <IUPAC Name>  (31) 
6-bromo-3-chloro-2-fluorophenol

>  <CAS>  (31) 
186590-40-9

>  <URL>  (31) 
https://www.enaminestore.com/catalog/EN300-207641

>  <ROCS_ShapeQuery>  (31) 
_x1604L0AP1_x0771L0AP1

>  <ROCS_TanimotoCombo>  (31) 
1.019 

>  <ROCS_ShapeTanimoto>  (31) 
0.466 

>  <ROCS_ColorTanimoto>  (31) 
0.553 

>  <ROCS_RefTversky>  (31) 
0.410 

>  <ROCS_RefColorTversky>  (31) 
0.518 

>  <ROCS_RefTverskyCombo>  (31) 
0.928 

>  <ROCS_FitTversky>  (31) 
1.417 

>  <ROCS_FitColorTversky>  (31) 
1.138 

>  <ROCS_FitTverskyCombo>  (31) 
2.555 

>  <ROCS_ColorScore>  (31) 
-4.878

>  <ROCS_Overlap>  (31) 
683.556

>  <ROCS_Rank>  (31) 
61                  

$$$$
untitled-dbase-1941_157
     RDKit          3D

 14 14  0  0  0  0  0  0  0  0999 V2000
   -4.5793   12.4621  -29.8427 C   0  0  0  0  0  0  0  0  0  0  0  0
   -5.0587   11.1255  -31.7972 C   0  0  0  0  0  0  0  0  0  0  0  0
   -4.3284   12.1386  -31.1761 C   0  0  0  0  0  0  0  0  0  0  0  0
   -5.5605   11.7725  -29.1303 C   0  0  0  0  0  0  0  0  0  0  0  0
   -6.2908   10.7594  -29.7515 C   0  0  0  0  0  0  0  0  0  0  0  0
   -6.0400   10.4358  -31.0849 C   0  0  0  0  0  0  0  0  0  0  0  0
   -5.0389   11.4045  -26.8394 C   0  0  0  0  0  0  0  0  0  0  0  0
   -3.2799   12.8768  -31.9375 C   0  0  0  0  0  0  0  0  0  0  0  0
   -3.1907   15.8783  -30.5685 N   0  0  0  0  0  0  0  0  0  0  0  0
   -2.4169   13.6792  -31.0617 N   0  0  0  0  0  0  0  0  0  0  0  0
   -2.8251   14.8247  -30.8080 N   0  0  0  0  0  0  0  0  0  0  0  0
   -7.2471   10.0970  -29.0384 O   0  0  0  0  0  0  0  0  0  0  0  0
   -5.7943   12.1004  -27.8289 O   0  0  0  0  0  0  0  0  0  0  0  0
   -7.0120    9.0653  -31.9629 Br  0  0  0  0  0  0  0  0  0  0  0  0
  1  3  2  0
  1  4  1  0
  2  3  1  0
  2  6  2  0
  3  8  1  0
  4  5  2  0
  4 13  1  0
  5  6  1  0
  5 12  1  0
  6 14  1  0
  7 13  1  0
  8 10  1  0
  9 11  2  0
 10 11  2  0
M  CHG  2   9  -1  11   1
M  END
>  <id>  (32) 
EN300-2004352

>  <smiles>  (32) 
COC=1C=C(CN=[N+]=[N-])C=C(Br)C1O

>  <IUPAC Name>  (32) 
4-(azidomethyl)-2-bromo-6-methoxyphenol

>  <CAS>  (32) 
2228518-45-2

>  <URL>  (32) 
https://www.enaminestore.com/catalog/EN300-2004352

>  <ROCS_ShapeQuery>  (32) 
_x1604L0AP1_x0771L0AP1

>  <ROCS_TanimotoCombo>  (32) 
1.018 

>  <ROCS_ShapeTanimoto>  (32) 
0.521 

>  <ROCS_ColorTanimoto>  (32) 
0.497 

>  <ROCS_RefTversky>  (32) 
0.476 

>  <ROCS_RefColorTversky>  (32) 
0.516 

>  <ROCS_RefTverskyCombo>  (32) 
0.992 

>  <ROCS_FitTversky>  (32) 
1.223 

>  <ROCS_FitColorTversky>  (32) 
0.932 

>  <ROCS_FitTverskyCombo>  (32) 
2.155 

>  <ROCS_ColorScore>  (32) 
-4.881

>  <ROCS_Overlap>  (32) 
798.985

>  <ROCS_Rank>  (32) 
62                  

$$$$
untitled-dbase-21_0
     RDKit          3D

 10 10  0  0  0  0  0  0  0  0999 V2000
   -4.5871   12.4745  -29.8621 C   0  0  0  0  0  0  0  0  0  0  0  0
   -5.0621   11.1272  -31.8105 C   0  0  0  0  0  0  0  0  0  0  0  0
   -6.2910   10.7646  -29.7622 C   0  0  0  0  0  0  0  0  0  0  0  0
   -4.3357   12.1462  -31.1943 C   0  0  0  0  0  0  0  0  0  0  0  0
   -5.5647   11.7836  -29.1461 C   0  0  0  0  0  0  0  0  0  0  0  0
   -6.0397   10.4364  -31.0945 C   0  0  0  0  0  0  0  0  0  0  0  0
   -7.2397   10.1076  -29.0364 O   0  0  0  0  0  0  0  0  0  0  0  0
   -3.3960   12.8088  -31.8815 F   0  0  0  0  0  0  0  0  0  0  0  0
   -5.8025   12.1062  -27.8672 F   0  0  0  0  0  0  0  0  0  0  0  0
   -7.0088    9.0601  -31.9657 Br  0  0  0  0  0  0  0  0  0  0  0  0
  1  4  2  0
  1  5  1  0
  2  4  1  0
  2  6  2  0
  3  5  2  0
  3  6  1  0
  3  7  1  0
  4  8  1  0
  5  9  1  0
  6 10  1  0
M  END
>  <id>  (33) 
EN300-109212

>  <smiles>  (33) 
OC=1C(F)=CC(F)=CC1Br

>  <MDLNUMBER>  (33) 
MFCD00070752

>  <IUPAC Name>  (33) 
2-bromo-4,6-difluorophenol

>  <CAS>  (33) 
98130-56-4

>  <Purity>  (33) 
95

>  <URL>  (33) 
https://www.enaminestore.com/catalog/EN300-109212

>  <ROCS_ShapeQuery>  (33) 
_x1604L0AP1_x0771L0AP1

>  <ROCS_TanimotoCombo>  (33) 
1.018 

>  <ROCS_ShapeTanimoto>  (33) 
0.465 

>  <ROCS_ColorTanimoto>  (33) 
0.553 

>  <ROCS_RefTversky>  (33) 
0.411 

>  <ROCS_RefColorTversky>  (33) 
0.518 

>  <ROCS_RefTverskyCombo>  (33) 
0.929 

>  <ROCS_FitTversky>  (33) 
1.394 

>  <ROCS_FitColorTversky>  (33) 
1.139 

>  <ROCS_FitTverskyCombo>  (33) 
2.532 

>  <ROCS_ColorScore>  (33) 
-4.879

>  <ROCS_Overlap>  (33) 
686.310

>  <ROCS_Rank>  (33) 
63                  

$$$$
untitled-dbase-1509_0
     RDKit          3D

 10 10  0  0  0  0  0  0  0  0999 V2000
   -4.5856   12.4716  -29.8585 C   0  0  0  0  0  0  0  0  0  0  0  0
   -5.0623   11.1288  -31.8096 C   0  0  0  0  0  0  0  0  0  0  0  0
   -6.2907   10.7628  -29.7617 C   0  0  0  0  0  0  0  0  0  0  0  0
   -5.5635   11.7800  -29.1436 C   0  0  0  0  0  0  0  0  0  0  0  0
   -4.3350   12.1460  -31.1916 C   0  0  0  0  0  0  0  0  0  0  0  0
   -6.0401   10.4372  -31.0947 C   0  0  0  0  0  0  0  0  0  0  0  0
   -7.2396   10.1053  -29.0368 O   0  0  0  0  0  0  0  0  0  0  0  0
   -5.7988   12.0980  -27.8631 F   0  0  0  0  0  0  0  0  0  0  0  0
   -3.1287   13.0005  -32.0728 Cl  0  0  0  0  0  0  0  0  0  0  0  0
   -7.0088    9.0610  -31.9667 Br  0  0  0  0  0  0  0  0  0  0  0  0
  1  4  2  0
  1  5  1  0
  2  5  2  0
  2  6  1  0
  3  4  1  0
  3  6  2  0
  3  7  1  0
  4  8  1  0
  5  9  1  0
  6 10  1  0
M  END
>  <id>  (34) 
EN300-2163608

>  <smiles>  (34) 
OC=1C(F)=CC(Cl)=CC1Br

>  <MDLNUMBER>  (34) 
MFCD04115955

>  <IUPAC Name>  (34) 
2-bromo-4-chloro-6-fluorophenol

>  <CAS>  (34) 
886499-88-3

>  <Purity>  (34) 
95

>  <URL>  (34) 
https://www.enaminestore.com/catalog/EN300-2163608

>  <ROCS_ShapeQuery>  (34) 
_x1604L0AP1_x0771L0AP1

>  <ROCS_TanimotoCombo>  (34) 
1.018 

>  <ROCS_ShapeTanimoto>  (34) 
0.465 

>  <ROCS_ColorTanimoto>  (34) 
0.553 

>  <ROCS_RefTversky>  (34) 
0.409 

>  <ROCS_RefColorTversky>  (34) 
0.518 

>  <ROCS_RefTverskyCombo>  (34) 
0.927 

>  <ROCS_FitTversky>  (34) 
1.418 

>  <ROCS_FitColorTversky>  (34) 
1.139 

>  <ROCS_FitTverskyCombo>  (34) 
2.556 

>  <ROCS_ColorScore>  (34) 
-4.879

>  <ROCS_Overlap>  (34) 
682.652

>  <ROCS_Rank>  (34) 
64                  

$$$$
untitled-dbase-1781_0
     RDKit          3D

 10 10  0  0  0  0  0  0  0  0999 V2000
   -5.5745   11.7776  -29.1210 C   0  0  0  0  0  0  0  0  0  0  0  0
   -4.5939   12.4876  -29.8138 C   0  0  0  0  0  0  0  0  0  0  0  0
   -6.2877   10.7655  -29.7635 C   0  0  0  0  0  0  0  0  0  0  0  0
   -4.3266   12.1856  -31.1491 C   0  0  0  0  0  0  0  0  0  0  0  0
   -5.0399   11.1736  -31.7916 C   0  0  0  0  0  0  0  0  0  0  0  0
   -6.0204   10.4635  -31.0988 C   0  0  0  0  0  0  0  0  0  0  0  0
   -7.2382   10.0973  -29.0496 O   0  0  0  0  0  0  0  0  0  0  0  0
   -3.0958   13.1118  -31.9390 Cl  0  0  0  0  0  0  0  0  0  0  0  0
   -4.6944   10.8099  -33.4572 Cl  0  0  0  0  0  0  0  0  0  0  0  0
   -7.0281    9.0667  -31.9244 Br  0  0  0  0  0  0  0  0  0  0  0  0
  1  2  2  0
  1  3  1  0
  2  4  1  0
  3  6  2  0
  3  7  1  0
  4  5  2  0
  4  8  1  0
  5  6  1  0
  5  9  1  0
  6 10  1  0
M  END
>  <id>  (35) 
EN300-7655133

>  <smiles>  (35) 
OC=1C=CC(Cl)=C(Cl)C1Br

>  <MDLNUMBER>  (35) 
MFCD19707188

>  <IUPAC Name>  (35) 
2-bromo-3,4-dichlorophenol

>  <CAS>  (35) 
1379356-93-0

>  <Purity>  (35) 
95

>  <URL>  (35) 
https://www.enaminestore.com/catalog/EN300-7655133

>  <ROCS_ShapeQuery>  (35) 
_x1604L0AP1_x0771L0AP1

>  <ROCS_TanimotoCombo>  (35) 
1.018 

>  <ROCS_ShapeTanimoto>  (35) 
0.463 

>  <ROCS_ColorTanimoto>  (35) 
0.554 

>  <ROCS_RefTversky>  (35) 
0.406 

>  <ROCS_RefColorTversky>  (35) 
0.519 

>  <ROCS_RefTverskyCombo>  (35) 
0.925 

>  <ROCS_FitTversky>  (35) 
1.443 

>  <ROCS_FitColorTversky>  (35) 
1.140 

>  <ROCS_FitTverskyCombo>  (35) 
2.583 

>  <ROCS_ColorScore>  (35) 
-4.886

>  <ROCS_Overlap>  (35) 
676.769

>  <ROCS_Rank>  (35) 
66                  

$$$$
untitled-dbase-120_1
     RDKit          3D

 11 11  0  0  1  0  0  0  0  0999 V2000
   -4.3519   12.1417  -31.2357 C   0  0  0  0  0  0  0  0  0  0  0  0
   -5.0812   11.1164  -31.8378 C   0  0  0  0  0  0  0  0  0  0  0  0
   -5.5609   11.7907  -29.1736 C   0  0  0  0  0  0  0  0  0  0  0  0
   -6.2903   10.7655  -29.7757 C   0  0  0  0  0  0  0  0  0  0  0  0
   -4.5917   12.4788  -29.9035 C   0  0  0  0  0  0  0  0  0  0  0  0
   -6.0504   10.4284  -31.1078 C   0  0  0  0  0  0  0  0  0  0  0  0
   -4.6401   14.7678  -28.7265 O   0  0  0  0  0  0  0  0  0  0  0  0
   -2.7742   13.1382  -28.2037 O   0  0  0  0  0  0  0  0  0  0  0  0
   -7.2309   10.1130  -29.0355 O   0  0  0  0  0  0  0  0  0  0  0  0
   -3.6805   13.7637  -29.1502 S   0  0  0  0  0  0  0  0  0  0  0  0
   -7.0220    9.0414  -31.9590 Br  0  0  0  0  0  0  0  0  0  0  0  0
  1  2  2  0
  1  5  1  0
  2  6  1  0
  3  4  1  0
  3  5  2  0
  4  6  2  0
  4  9  1  0
  5 10  1  0
  6 11  1  0
 10  7  1  1
  8 10  2  0
M  CHG  1   7  -1
M  END
>  <id>  (36) 
EN300-724388

>  <smiles>  (36) 
[Na+].OC=1C=C(C=CC1Br)S(=O)[O-]

>  <MDLNUMBER>  (36) 
MFCD31442498

>  <IUPAC Name>  (36) 
sodium 4-bromo-3-hydroxybenzene-1-sulfinate

>  <CAS>  (36) 
2137989-65-0

>  <URL>  (36) 
https://www.enaminestore.com/catalog/EN300-724388

>  <Saltdate>  (36) 
[Na+]

>  <ROCS_ShapeQuery>  (36) 
_x1604L0AP1_x0771L0AP1

>  <ROCS_TanimotoCombo>  (36) 
1.017 

>  <ROCS_ShapeTanimoto>  (36) 
0.464 

>  <ROCS_ColorTanimoto>  (36) 
0.553 

>  <ROCS_RefTversky>  (36) 
0.415 

>  <ROCS_RefColorTversky>  (36) 
0.518 

>  <ROCS_RefTverskyCombo>  (36) 
0.933 

>  <ROCS_FitTversky>  (36) 
1.350 

>  <ROCS_FitColorTversky>  (36) 
1.138 

>  <ROCS_FitTverskyCombo>  (36) 
2.489 

>  <ROCS_ColorScore>  (36) 
-4.877

>  <ROCS_Overlap>  (36) 
692.539

>  <ROCS_Rank>  (36) 
67                  

$$$$
untitled-dbase-2267_0
     RDKit          3D

 10 10  0  0  0  0  0  0  0  0999 V2000
   -4.3455   12.1469  -31.2206 C   0  0  0  0  0  0  0  0  0  0  0  0
   -5.0765   11.1242  -31.8250 C   0  0  0  0  0  0  0  0  0  0  0  0
   -4.5851   12.4818  -29.8878 C   0  0  0  0  0  0  0  0  0  0  0  0
   -5.5559   11.7941  -29.1596 C   0  0  0  0  0  0  0  0  0  0  0  0
   -6.2870   10.7714  -29.7641 C   0  0  0  0  0  0  0  0  0  0  0  0
   -6.0472   10.4365  -31.0968 C   0  0  0  0  0  0  0  0  0  0  0  0
   -3.7869   13.5790  -29.2633 C   0  0  0  0  0  0  0  0  0  0  0  0
   -5.8140   12.1515  -27.7303 C   0  0  0  0  0  0  0  0  0  0  0  0
   -7.2343   10.1070  -29.0400 O   0  0  0  0  0  0  0  0  0  0  0  0
   -7.0203    9.0542  -31.9550 Br  0  0  0  0  0  0  0  0  0  0  0  0
  1  2  2  0
  1  3  1  0
  2  6  1  0
  3  4  2  0
  3  7  1  0
  4  5  1  0
  4  8  1  0
  5  6  2  0
  5  9  1  0
  6 10  1  0
M  END
>  <id>  (37) 
EN300-3218350

>  <smiles>  (37) 
CC=1C=CC(Br)=C(O)C1C

>  <MDLNUMBER>  (37) 
MFCD22414708

>  <IUPAC Name>  (37) 
6-bromo-2,3-dimethylphenol

>  <CAS>  (37) 
951161-67-4

>  <Purity>  (37) 
95

>  <URL>  (37) 
https://www.enaminestore.com/catalog/EN300-3218350

>  <ROCS_ShapeQuery>  (37) 
_x1604L0AP1_x0771L0AP1

>  <ROCS_TanimotoCombo>  (37) 
1.016 

>  <ROCS_ShapeTanimoto>  (37) 
0.463 

>  <ROCS_ColorTanimoto>  (37) 
0.553 

>  <ROCS_RefTversky>  (37) 
0.408 

>  <ROCS_RefColorTversky>  (37) 
0.518 

>  <ROCS_RefTverskyCombo>  (37) 
0.926 

>  <ROCS_FitTversky>  (37) 
1.409 

>  <ROCS_FitColorTversky>  (37) 
1.139 

>  <ROCS_FitTverskyCombo>  (37) 
2.548 

>  <ROCS_ColorScore>  (37) 
-4.880

>  <ROCS_Overlap>  (37) 
681.181

>  <ROCS_Rank>  (37) 
68                  

$$$$
untitled-dbase-1073_0
     RDKit          3D

 10 10  0  0  0  0  0  0  0  0999 V2000
   -5.5749   11.7865  -29.1401 C   0  0  0  0  0  0  0  0  0  0  0  0
   -4.3405   12.1821  -31.1788 C   0  0  0  0  0  0  0  0  0  0  0  0
   -4.6002   12.4934  -29.8442 C   0  0  0  0  0  0  0  0  0  0  0  0
   -6.2900   10.7682  -29.7706 C   0  0  0  0  0  0  0  0  0  0  0  0
   -5.0555   11.1638  -31.8094 C   0  0  0  0  0  0  0  0  0  0  0  0
   -6.0302   10.4569  -31.1053 C   0  0  0  0  0  0  0  0  0  0  0  0
   -3.8362   13.5823  -29.1698 C   0  0  0  0  0  0  0  0  0  0  0  0
   -7.2341   10.1012  -29.0472 O   0  0  0  0  0  0  0  0  0  0  0  0
   -4.6759   10.8374  -33.4654 Cl  0  0  0  0  0  0  0  0  0  0  0  0
   -7.0315    9.0575  -31.9284 Br  0  0  0  0  0  0  0  0  0  0  0  0
  1  3  2  0
  1  4  1  0
  2  3  1  0
  2  5  2  0
  3  7  1  0
  4  6  2  0
  4  8  1  0
  5  6  1  0
  5  9  1  0
  6 10  1  0
M  END
>  <id>  (38) 
EN300-6478405

>  <smiles>  (38) 
CC=1C=C(O)C(Br)=C(Cl)C1

>  <MDLNUMBER>  (38) 
MFCD31667454

>  <IUPAC Name>  (38) 
2-bromo-3-chloro-5-methylphenol

>  <CAS>  (38) 
1780800-51-2

>  <Purity>  (38) 
95

>  <URL>  (38) 
https://www.enaminestore.com/catalog/EN300-6478405

>  <ROCS_ShapeQuery>  (38) 
_x1604L0AP1_x0771L0AP1

>  <ROCS_TanimotoCombo>  (38) 
1.016 

>  <ROCS_ShapeTanimoto>  (38) 
0.462 

>  <ROCS_ColorTanimoto>  (38) 
0.554 

>  <ROCS_RefTversky>  (38) 
0.406 

>  <ROCS_RefColorTversky>  (38) 
0.519 

>  <ROCS_RefTverskyCombo>  (38) 
0.925 

>  <ROCS_FitTversky>  (38) 
1.426 

>  <ROCS_FitColorTversky>  (38) 
1.140 

>  <ROCS_FitTverskyCombo>  (38) 
2.566 

>  <ROCS_ColorScore>  (38) 
-4.885

>  <ROCS_Overlap>  (38) 
677.363

>  <ROCS_Rank>  (38) 
70                  

$$$$
untitled-dbase-937_9
     RDKit          3D

 12 12  0  0  0  0  0  0  0  0999 V2000
   -4.6088   12.4928  -29.8714 C   0  0  0  0  0  0  0  0  0  0  0  0
   -4.3671   12.1755  -31.2079 C   0  0  0  0  0  0  0  0  0  0  0  0
   -5.5732   11.7883  -29.1507 C   0  0  0  0  0  0  0  0  0  0  0  0
   -5.0897   11.1537  -31.8239 C   0  0  0  0  0  0  0  0  0  0  0  0
   -6.2959   10.7665  -29.7666 C   0  0  0  0  0  0  0  0  0  0  0  0
   -6.0542   10.4492  -31.1032 C   0  0  0  0  0  0  0  0  0  0  0  0
   -4.7932   10.8528  -33.2579 C   0  0  0  0  0  0  0  0  0  0  0  0
   -5.8138   11.4367  -34.2519 C   0  0  0  0  0  0  0  0  0  0  0  0
   -5.4829   11.0860  -35.7023 C   0  0  0  0  0  0  0  0  0  0  0  0
   -7.2308   10.1005  -29.0309 O   0  0  0  0  0  0  0  0  0  0  0  0
   -5.4579    9.2843  -35.9348 S   0  0  0  0  0  0  0  0  0  0  0  0
   -7.0460    9.0531  -31.9327 Br  0  0  0  0  0  0  0  0  0  0  0  0
  1  2  2  0
  1  3  1  0
  2  4  1  0
  3  5  2  0
  4  6  2  0
  4  7  1  0
  5  6  1  0
  5 10  1  0
  6 12  1  0
  7  8  1  0
  8  9  1  0
  9 11  1  0
M  END
>  <id>  (39) 
EN300-1904623

>  <smiles>  (39) 
OC=1C=CC=C(CCCS)C1Br

>  <IUPAC Name>  (39) 
2-bromo-3-(3-sulfanylpropyl)phenol

>  <CAS>  (39) 
2228489-31-2

>  <URL>  (39) 
https://www.enaminestore.com/catalog/EN300-1904623

>  <ROCS_ShapeQuery>  (39) 
_x1604L0AP1_x0771L0AP1

>  <ROCS_TanimotoCombo>  (39) 
1.016 

>  <ROCS_ShapeTanimoto>  (39) 
0.462 

>  <ROCS_ColorTanimoto>  (39) 
0.553 

>  <ROCS_RefTversky>  (39) 
0.419 

>  <ROCS_RefColorTversky>  (39) 
0.518 

>  <ROCS_RefTverskyCombo>  (39) 
0.937 

>  <ROCS_FitTversky>  (39) 
1.288 

>  <ROCS_FitColorTversky>  (39) 
1.139 

>  <ROCS_FitTverskyCombo>  (39) 
2.427 

>  <ROCS_ColorScore>  (39) 
-4.881

>  <ROCS_Overlap>  (39) 
700.682

>  <ROCS_Rank>  (39) 
71                  

$$$$
untitled-dbase-230_0
     RDKit          3D

 10 10  0  0  0  0  0  0  0  0999 V2000
   -4.5770   12.4721  -29.8630 C   0  0  0  0  0  0  0  0  0  0  0  0
   -5.0613   11.1243  -31.8087 C   0  0  0  0  0  0  0  0  0  0  0  0
   -4.3299   12.1414  -31.1953 C   0  0  0  0  0  0  0  0  0  0  0  0
   -5.5554   11.7856  -29.1439 C   0  0  0  0  0  0  0  0  0  0  0  0
   -6.2868   10.7685  -29.7572 C   0  0  0  0  0  0  0  0  0  0  0  0
   -6.0398   10.4378  -31.0896 C   0  0  0  0  0  0  0  0  0  0  0  0
   -3.2825   12.8742  -31.9636 C   0  0  0  0  0  0  0  0  0  0  0  0
   -5.8033   12.1549  -27.7182 C   0  0  0  0  0  0  0  0  0  0  0  0
   -7.2395   10.1047  -29.0399 O   0  0  0  0  0  0  0  0  0  0  0  0
   -7.0124    9.0616  -31.9583 Br  0  0  0  0  0  0  0  0  0  0  0  0
  1  3  2  0
  1  4  1  0
  2  3  1  0
  2  6  2  0
  3  7  1  0
  4  5  2  0
  4  8  1  0
  5  6  1  0
  5  9  1  0
  6 10  1  0
M  END
>  <id>  (40) 
EN300-192641

>  <smiles>  (40) 
CC=1C=C(C)C(O)=C(Br)C1

>  <MDLNUMBER>  (40) 
MFCD08443978

>  <IUPAC Name>  (40) 
2-bromo-4,6-dimethylphenol

>  <CAS>  (40) 
15191-36-3

>  <Purity>  (40) 
95

>  <URL>  (40) 
https://www.enaminestore.com/catalog/EN300-192641

>  <MP>  (40) 
6-7

>  <ROCS_ShapeQuery>  (40) 
_x1604L0AP1_x0771L0AP1

>  <ROCS_TanimotoCombo>  (40) 
1.015 

>  <ROCS_ShapeTanimoto>  (40) 
0.462 

>  <ROCS_ColorTanimoto>  (40) 
0.553 

>  <ROCS_RefTversky>  (40) 
0.407 

>  <ROCS_RefColorTversky>  (40) 
0.518 

>  <ROCS_RefTverskyCombo>  (40) 
0.926 

>  <ROCS_FitTversky>  (40) 
1.409 

>  <ROCS_FitColorTversky>  (40) 
1.139 

>  <ROCS_FitTverskyCombo>  (40) 
2.548 

>  <ROCS_ColorScore>  (40) 
-4.881

>  <ROCS_Overlap>  (40) 
679.709

>  <ROCS_Rank>  (40) 
72                  

$$$$
untitled-dbase-1344_19
     RDKit          3D

 10 10  0  0  0  0  0  0  0  0999 V2000
   -4.6021   12.4904  -29.8510 C   0  0  0  0  0  0  0  0  0  0  0  0
   -4.3496   12.1749  -31.1860 C   0  0  0  0  0  0  0  0  0  0  0  0
   -5.5739   11.7865  -29.1398 C   0  0  0  0  0  0  0  0  0  0  0  0
   -5.0689   11.1556  -31.8099 C   0  0  0  0  0  0  0  0  0  0  0  0
   -6.2932   10.7672  -29.7636 C   0  0  0  0  0  0  0  0  0  0  0  0
   -6.0408   10.4517  -31.0987 C   0  0  0  0  0  0  0  0  0  0  0  0
   -4.7608   10.8566  -33.2419 C   0  0  0  0  0  0  0  0  0  0  0  0
   -7.2356   10.1016  -29.0370 O   0  0  0  0  0  0  0  0  0  0  0  0
   -6.2157   11.0359  -34.3162 S   0  0  0  0  0  0  0  0  0  0  0  0
   -7.0282    9.0589  -31.9390 Br  0  0  0  0  0  0  0  0  0  0  0  0
  1  2  2  0
  1  3  1  0
  2  4  1  0
  3  5  2  0
  4  6  2  0
  4  7  1  0
  5  6  1  0
  5  8  1  0
  6 10  1  0
  7  9  1  0
M  END
>  <id>  (41) 
EN300-1288200

>  <smiles>  (41) 
OC=1C=CC=C(CS)C1Br

>  <MDLNUMBER>  (41) 
MFCD33497260

>  <IUPAC Name>  (41) 
2-bromo-3-(sulfanylmethyl)phenol

>  <CAS>  (41) 
2172151-36-7

>  <URL>  (41) 
https://www.enaminestore.com/catalog/EN300-1288200

>  <ROCS_ShapeQuery>  (41) 
_x1604L0AP1_x0771L0AP1

>  <ROCS_TanimotoCombo>  (41) 
1.015 

>  <ROCS_ShapeTanimoto>  (41) 
0.461 

>  <ROCS_ColorTanimoto>  (41) 
0.554 

>  <ROCS_RefTversky>  (41) 
0.405 

>  <ROCS_RefColorTversky>  (41) 
0.519 

>  <ROCS_RefTverskyCombo>  (41) 
0.924 

>  <ROCS_FitTversky>  (41) 
1.431 

>  <ROCS_FitColorTversky>  (41) 
1.140 

>  <ROCS_FitTverskyCombo>  (41) 
2.570 

>  <ROCS_ColorScore>  (41) 
-4.883

>  <ROCS_Overlap>  (41) 
675.764

>  <ROCS_Rank>  (41) 
73                  

$$$$
untitled-dbase-43_0
     RDKit          3D

 10 10  0  0  0  0  0  0  0  0999 V2000
   -4.5795   12.4756  -29.8624 C   0  0  0  0  0  0  0  0  0  0  0  0
   -5.0633   11.1276  -31.8081 C   0  0  0  0  0  0  0  0  0  0  0  0
   -5.5564   11.7877  -29.1428 C   0  0  0  0  0  0  0  0  0  0  0  0
   -6.2868   10.7696  -29.7557 C   0  0  0  0  0  0  0  0  0  0  0  0
   -4.3330   12.1456  -31.1951 C   0  0  0  0  0  0  0  0  0  0  0  0
   -6.0403   10.4395  -31.0884 C   0  0  0  0  0  0  0  0  0  0  0  0
   -5.8043   12.1570  -27.7172 C   0  0  0  0  0  0  0  0  0  0  0  0
   -7.2393   10.1056  -29.0386 O   0  0  0  0  0  0  0  0  0  0  0  0
   -3.3948   12.8064  -31.8862 F   0  0  0  0  0  0  0  0  0  0  0  0
   -7.0112    9.0625  -31.9573 Br  0  0  0  0  0  0  0  0  0  0  0  0
  1  3  2  0
  1  5  1  0
  2  5  2  0
  2  6  1  0
  3  4  1  0
  3  7  1  0
  4  6  2  0
  4  8  1  0
  5  9  1  0
  6 10  1  0
M  END
>  <id>  (42) 
EN300-93412

>  <smiles>  (42) 
CC=1C=C(F)C=C(Br)C1O

>  <MDLNUMBER>  (42) 
MFCD22414711

>  <IUPAC Name>  (42) 
2-bromo-4-fluoro-6-methylphenol

>  <CAS>  (42) 
1572185-50-2

>  <Purity>  (42) 
95

>  <URL>  (42) 
https://www.enaminestore.com/catalog/EN300-93412

>  <ROCS_ShapeQuery>  (42) 
_x1604L0AP1_x0771L0AP1

>  <ROCS_TanimotoCombo>  (42) 
1.015 

>  <ROCS_ShapeTanimoto>  (42) 
0.461 

>  <ROCS_ColorTanimoto>  (42) 
0.553 

>  <ROCS_RefTversky>  (42) 
0.408 

>  <ROCS_RefColorTversky>  (42) 
0.518 

>  <ROCS_RefTverskyCombo>  (42) 
0.926 

>  <ROCS_FitTversky>  (42) 
1.398 

>  <ROCS_FitColorTversky>  (42) 
1.139 

>  <ROCS_FitTverskyCombo>  (42) 
2.537 

>  <ROCS_ColorScore>  (42) 
-4.881

>  <ROCS_Overlap>  (42) 
680.858

>  <ROCS_Rank>  (42) 
74                  

$$$$
untitled-dbase-68_0
     RDKit          3D

 10 10  0  0  0  0  0  0  0  0999 V2000
   -4.5791   12.4740  -29.8590 C   0  0  0  0  0  0  0  0  0  0  0  0
   -5.0609   11.1276  -31.8064 C   0  0  0  0  0  0  0  0  0  0  0  0
   -5.5569   11.7855  -29.1411 C   0  0  0  0  0  0  0  0  0  0  0  0
   -6.2867   10.7680  -29.7557 C   0  0  0  0  0  0  0  0  0  0  0  0
   -4.3311   12.1451  -31.1917 C   0  0  0  0  0  0  0  0  0  0  0  0
   -6.0387   10.4390  -31.0884 C   0  0  0  0  0  0  0  0  0  0  0  0
   -5.8063   12.1536  -27.7153 C   0  0  0  0  0  0  0  0  0  0  0  0
   -7.2401   10.1037  -29.0400 O   0  0  0  0  0  0  0  0  0  0  0  0
   -3.1246   12.9951  -32.0773 Cl  0  0  0  0  0  0  0  0  0  0  0  0
   -7.0098    9.0626  -31.9585 Br  0  0  0  0  0  0  0  0  0  0  0  0
  1  3  2  0
  1  5  1  0
  2  5  2  0
  2  6  1  0
  3  4  1  0
  3  7  1  0
  4  6  2  0
  4  8  1  0
  5  9  1  0
  6 10  1  0
M  END
>  <id>  (43) 
EN300-245419

>  <smiles>  (43) 
CC=1C=C(Cl)C=C(Br)C1O

>  <MDLNUMBER>  (43) 
MFCD00029750

>  <IUPAC Name>  (43) 
2-bromo-4-chloro-6-methylphenol

>  <CAS>  (43) 
54852-68-5

>  <Purity>  (43) 
95

>  <URL>  (43) 
https://www.enaminestore.com/catalog/EN300-245419

>  <MP>  (43) 
51-52

>  <ROCS_ShapeQuery>  (43) 
_x1604L0AP1_x0771L0AP1

>  <ROCS_TanimotoCombo>  (43) 
1.015 

>  <ROCS_ShapeTanimoto>  (43) 
0.461 

>  <ROCS_ColorTanimoto>  (43) 
0.553 

>  <ROCS_RefTversky>  (43) 
0.406 

>  <ROCS_RefColorTversky>  (43) 
0.518 

>  <ROCS_RefTverskyCombo>  (43) 
0.924 

>  <ROCS_FitTversky>  (43) 
1.422 

>  <ROCS_FitColorTversky>  (43) 
1.139 

>  <ROCS_FitTverskyCombo>  (43) 
2.561 

>  <ROCS_ColorScore>  (43) 
-4.881

>  <ROCS_Overlap>  (43) 
677.211

>  <ROCS_Rank>  (43) 
75                  

$$$$
untitled-dbase-981_1300
     RDKit          3D

 15 15  0  0  1  0  0  0  0  0999 V2000
   -4.5831   12.4704  -29.8496 C   0  0  0  0  0  0  0  0  0  0  0  0
   -5.0660   11.1342  -31.8036 C   0  0  0  0  0  0  0  0  0  0  0  0
   -4.3361   12.1487  -31.1841 C   0  0  0  0  0  0  0  0  0  0  0  0
   -5.5600   11.7776  -29.1344 C   0  0  0  0  0  0  0  0  0  0  0  0
   -6.2899   10.7631  -29.7539 C   0  0  0  0  0  0  0  0  0  0  0  0
   -6.0429   10.4414  -31.0885 C   0  0  0  0  0  0  0  0  0  0  0  0
   -5.7003   14.4747  -27.5115 C   0  0  0  0  0  0  0  0  0  0  0  0
   -2.1515   11.9921  -32.4299 C   0  0  0  0  0  0  0  0  0  0  0  0
   -4.9998   13.1533  -27.2772 C   0  0  0  0  0  0  0  0  0  0  0  0
   -3.2923   12.8903  -31.9486 C   0  0  2  0  0  0  0  0  0  0  0  0
   -3.6639   15.0256  -31.1247 N   0  0  0  0  0  0  0  0  0  0  0  0
   -7.2420   10.0976  -29.0380 O   0  0  0  0  0  0  0  0  0  0  0  0
   -5.7902   12.1037  -27.8318 O   0  0  0  0  0  0  0  0  0  0  0  0
   -2.7354   13.9104  -31.1116 O   0  0  0  0  0  0  0  0  0  0  0  0
   -7.0145    9.0692  -31.9644 Br  0  0  0  0  0  0  0  0  0  0  0  0
  1  3  2  0
  1  4  1  0
  2  3  1  0
  2  6  2  0
  3 10  1  0
  4  5  2  0
  4 13  1  0
  5  6  1  0
  5 12  1  0
  6 15  1  0
  7  9  1  0
 10  8  1  1
  9 13  1  0
 10 14  1  0
 11 14  1  0
M  END
>  <id>  (44) 
EN300-1920285

>  <smiles>  (44) 
CCOC=1C=C(C=C(Br)C1O)C(C)ON

>  <IUPAC Name>  (44) 
4-[1-(aminooxy)ethyl]-2-bromo-6-ethoxyphenol

>  <CAS>  (44) 
2229624-89-7

>  <URL>  (44) 
https://www.enaminestore.com/catalog/EN300-1920285

>  <ROCS_ShapeQuery>  (44) 
_x1604L0AP1_x0771L0AP1

>  <ROCS_TanimotoCombo>  (44) 
1.014 

>  <ROCS_ShapeTanimoto>  (44) 
0.517 

>  <ROCS_ColorTanimoto>  (44) 
0.497 

>  <ROCS_RefTversky>  (44) 
0.480 

>  <ROCS_RefColorTversky>  (44) 
0.516 

>  <ROCS_RefTverskyCombo>  (44) 
0.995 

>  <ROCS_FitTversky>  (44) 
1.176 

>  <ROCS_FitColorTversky>  (44) 
0.932 

>  <ROCS_FitTverskyCombo>  (44) 
2.108 

>  <ROCS_ColorScore>  (44) 
-4.881

>  <ROCS_Overlap>  (44) 
805.565

>  <ROCS_Rank>  (44) 
76                  

$$$$
untitled-dbase-1425_28
     RDKit          3D

 11 11  0  0  0  0  0  0  0  0999 V2000
   -4.5793   12.4594  -29.8271 C   0  0  0  0  0  0  0  0  0  0  0  0
   -5.5646   11.7684  -29.1219 C   0  0  0  0  0  0  0  0  0  0  0  0
   -5.0508   11.1300  -31.7886 C   0  0  0  0  0  0  0  0  0  0  0  0
   -4.3225   12.1403  -31.1605 C   0  0  0  0  0  0  0  0  0  0  0  0
   -6.2929   10.7581  -29.7500 C   0  0  0  0  0  0  0  0  0  0  0  0
   -6.0360   10.4389  -31.0833 C   0  0  0  0  0  0  0  0  0  0  0  0
   -2.5652   13.9448  -31.1015 C   0  0  0  0  0  0  0  0  0  0  0  0
   -3.2688   12.8796  -31.9134 C   0  0  0  0  0  0  0  0  0  0  0  0
   -3.1131   14.9352  -30.6291 O   0  0  0  0  0  0  0  0  0  0  0  0
   -7.2477   10.1007  -29.0327 O   0  0  0  0  0  0  0  0  0  0  0  0
   -7.0051    9.0710  -31.9680 Br  0  0  0  0  0  0  0  0  0  0  0  0
  1  2  2  0
  1  4  1  0
  2  5  1  0
  3  4  2  0
  3  6  1  0
  4  8  1  0
  5  6  2  0
  5 10  1  0
  6 11  1  0
  7  8  1  0
  7  9  2  0
M  END
>  <id>  (45) 
EN300-1907260

>  <smiles>  (45) 
OC=1C=CC(CC=O)=CC1Br

>  <MDLNUMBER>  (45) 
MFCD33418260

>  <IUPAC Name>  (45) 
2-(3-bromo-4-hydroxyphenyl)acetaldehyde

>  <CAS>  (45) 
1435263-42-5

>  <URL>  (45) 
https://www.enaminestore.com/catalog/EN300-1907260

>  <ROCS_ShapeQuery>  (45) 
_x1604L0AP1_x0771L0AP1

>  <ROCS_TanimotoCombo>  (45) 
1.013 

>  <ROCS_ShapeTanimoto>  (45) 
0.517 

>  <ROCS_ColorTanimoto>  (45) 
0.497 

>  <ROCS_RefTversky>  (45) 
0.447 

>  <ROCS_RefColorTversky>  (45) 
0.515 

>  <ROCS_RefTverskyCombo>  (45) 
0.963 

>  <ROCS_FitTversky>  (45) 
1.431 

>  <ROCS_FitColorTversky>  (45) 
0.932 

>  <ROCS_FitTverskyCombo>  (45) 
2.363 

>  <ROCS_ColorScore>  (45) 
-4.878

>  <ROCS_Overlap>  (45) 
747.436

>  <ROCS_Rank>  (45) 
77                  

$$$$
untitled-dbase-565_64
     RDKit          3D

 12 12  0  0  0  0  0  0  0  0999 V2000
   -4.6094   12.4968  -29.8391 C   0  0  0  0  0  0  0  0  0  0  0  0
   -5.5797   11.7903  -29.1285 C   0  0  0  0  0  0  0  0  0  0  0  0
   -5.0755   11.1645  -31.8000 C   0  0  0  0  0  0  0  0  0  0  0  0
   -4.3573   12.1839  -31.1749 C   0  0  0  0  0  0  0  0  0  0  0  0
   -6.2978   10.7709  -29.7535 C   0  0  0  0  0  0  0  0  0  0  0  0
   -6.0458   10.4580  -31.0893 C   0  0  0  0  0  0  0  0  0  0  0  0
   -3.3195   12.9397  -31.9336 C   0  0  0  0  0  0  0  0  0  0  0  0
   -2.5976    9.7700  -32.5023 N   0  0  0  0  0  0  0  0  0  0  0  0
   -2.6565   12.1102  -32.9476 N   0  0  0  0  0  0  0  0  0  0  0  0
   -2.6286   10.8911  -32.7103 N   0  0  0  0  0  0  0  0  0  0  0  0
   -7.2381   10.0985  -29.0310 O   0  0  0  0  0  0  0  0  0  0  0  0
   -7.0013    9.0782  -31.9700 Br  0  0  0  0  0  0  0  0  0  0  0  0
  1  2  2  0
  1  4  1  0
  2  5  1  0
  3  4  2  0
  3  6  1  0
  4  7  1  0
  5  6  2  0
  5 11  1  0
  6 12  1  0
  7  9  1  0
  8 10  2  0
  9 10  2  0
M  CHG  2   8  -1  10   1
M  END
>  <id>  (46) 
EN300-1906355

>  <smiles>  (46) 
OC=1C=CC(CN=[N+]=[N-])=CC1Br

>  <IUPAC Name>  (46) 
4-(azidomethyl)-2-bromophenol

>  <CAS>  (46) 
2228468-62-8

>  <URL>  (46) 
https://www.enaminestore.com/catalog/EN300-1906355

>  <ROCS_ShapeQuery>  (46) 
_x1604L0AP1_x0771L0AP1

>  <ROCS_TanimotoCombo>  (46) 
1.011 

>  <ROCS_ShapeTanimoto>  (46) 
0.459 

>  <ROCS_ColorTanimoto>  (46) 
0.553 

>  <ROCS_RefTversky>  (46) 
0.421 

>  <ROCS_RefColorTversky>  (46) 
0.518 

>  <ROCS_RefTverskyCombo>  (46) 
0.939 

>  <ROCS_FitTversky>  (46) 
1.242 

>  <ROCS_FitColorTversky>  (46) 
1.138 

>  <ROCS_FitTverskyCombo>  (46) 
2.380 

>  <ROCS_ColorScore>  (46) 
-4.877

>  <ROCS_Overlap>  (46) 
704.774

>  <ROCS_Rank>  (46) 
78                  

$$$$
untitled-dbase-1269_178
     RDKit          3D

 12 12  0  0  0  0  0  0  0  0999 V2000
   -4.5984   12.4823  -29.8288 C   0  0  0  0  0  0  0  0  0  0  0  0
   -5.5767   11.7823  -29.1227 C   0  0  0  0  0  0  0  0  0  0  0  0
   -5.0596   11.1488  -31.7900 C   0  0  0  0  0  0  0  0  0  0  0  0
   -4.3399   12.1656  -31.1625 C   0  0  0  0  0  0  0  0  0  0  0  0
   -6.2964   10.7655  -29.7502 C   0  0  0  0  0  0  0  0  0  0  0  0
   -6.0379   10.4488  -31.0839 C   0  0  0  0  0  0  0  0  0  0  0  0
   -3.2936   12.9146  -31.9162 C   0  0  0  0  0  0  0  0  0  0  0  0
   -2.6197   12.0769  -33.0050 C   0  0  0  0  0  0  0  0  0  0  0  0
   -3.8157   12.7960  -34.8568 N   0  0  0  0  0  0  0  0  0  0  0  0
   -7.2445   10.0994  -29.0321 O   0  0  0  0  0  0  0  0  0  0  0  0
   -3.5883   11.6711  -33.9636 O   0  0  0  0  0  0  0  0  0  0  0  0
   -6.9953    9.0723  -31.9678 Br  0  0  0  0  0  0  0  0  0  0  0  0
  1  2  2  0
  1  4  1  0
  2  5  1  0
  3  4  2  0
  3  6  1  0
  4  7  1  0
  5  6  2  0
  5 10  1  0
  6 12  1  0
  7  8  1  0
  8 11  1  0
  9 11  1  0
M  END
>  <id>  (47) 
EN300-1906339

>  <smiles>  (47) 
NOCCC=1C=CC(O)=C(Br)C1

>  <IUPAC Name>  (47) 
4-[2-(aminooxy)ethyl]-2-bromophenol

>  <CAS>  (47) 
1891556-17-4

>  <URL>  (47) 
https://www.enaminestore.com/catalog/EN300-1906339

>  <ROCS_ShapeQuery>  (47) 
_x1604L0AP1_x0771L0AP1

>  <ROCS_TanimotoCombo>  (47) 
1.011 

>  <ROCS_ShapeTanimoto>  (47) 
0.458 

>  <ROCS_ColorTanimoto>  (47) 
0.553 

>  <ROCS_RefTversky>  (47) 
0.419 

>  <ROCS_RefColorTversky>  (47) 
0.518 

>  <ROCS_RefTverskyCombo>  (47) 
0.937 

>  <ROCS_FitTversky>  (47) 
1.258 

>  <ROCS_FitColorTversky>  (47) 
1.138 

>  <ROCS_FitTverskyCombo>  (47) 
2.397 

>  <ROCS_ColorScore>  (47) 
-4.878

>  <ROCS_Overlap>  (47) 
700.973

>  <ROCS_Rank>  (47) 
80                  

$$$$
untitled-dbase-47_0
     RDKit          3D

 10 10  0  0  0  0  0  0  0  0999 V2000
   -4.5756   12.4772  -29.8625 C   0  0  0  0  0  0  0  0  0  0  0  0
   -5.0637   11.1273  -31.8057 C   0  0  0  0  0  0  0  0  0  0  0  0
   -4.3317   12.1457  -31.1952 C   0  0  0  0  0  0  0  0  0  0  0  0
   -6.2832   10.7718  -29.7506 C   0  0  0  0  0  0  0  0  0  0  0  0
   -5.5513   11.7902  -29.1401 C   0  0  0  0  0  0  0  0  0  0  0  0
   -6.0394   10.4403  -31.0834 C   0  0  0  0  0  0  0  0  0  0  0  0
   -3.2891   12.8809  -31.9677 C   0  0  0  0  0  0  0  0  0  0  0  0
   -7.2396   10.1037  -29.0414 O   0  0  0  0  0  0  0  0  0  0  0  0
   -5.8280   12.2244  -27.4933 Cl  0  0  0  0  0  0  0  0  0  0  0  0
   -7.0141    9.0640  -31.9508 Br  0  0  0  0  0  0  0  0  0  0  0  0
  1  3  2  0
  1  5  1  0
  2  3  1  0
  2  6  2  0
  3  7  1  0
  4  5  2  0
  4  6  1  0
  4  8  1  0
  5  9  1  0
  6 10  1  0
M  END
>  <id>  (48) 
EN300-203031

>  <smiles>  (48) 
CC=1C=C(Cl)C(O)=C(Br)C1

>  <MDLNUMBER>  (48) 
MFCD22414716

>  <IUPAC Name>  (48) 
2-bromo-6-chloro-4-methylphenol

>  <CAS>  (48) 
57018-10-7

>  <Purity>  (48) 
95

>  <URL>  (48) 
https://www.enaminestore.com/catalog/EN300-203031

>  <ROCS_ShapeQuery>  (48) 
_x1604L0AP1_x0771L0AP1

>  <ROCS_TanimotoCombo>  (48) 
1.011 

>  <ROCS_ShapeTanimoto>  (48) 
0.457 

>  <ROCS_ColorTanimoto>  (48) 
0.554 

>  <ROCS_RefTversky>  (48) 
0.403 

>  <ROCS_RefColorTversky>  (48) 
0.519 

>  <ROCS_RefTverskyCombo>  (48) 
0.922 

>  <ROCS_FitTversky>  (48) 
1.415 

>  <ROCS_FitColorTversky>  (48) 
1.139 

>  <ROCS_FitTverskyCombo>  (48) 
2.554 

>  <ROCS_ColorScore>  (48) 
-4.882

>  <ROCS_Overlap>  (48) 
672.997

>  <ROCS_Rank>  (48) 
81                  

$$$$
untitled-dbase-1508_0
     RDKit          3D

 10 10  0  0  0  0  0  0  0  0999 V2000
   -4.5780   12.4795  -29.8642 C   0  0  0  0  0  0  0  0  0  0  0  0
   -5.0653   11.1282  -31.8067 C   0  0  0  0  0  0  0  0  0  0  0  0
   -6.2846   10.7731  -29.7514 C   0  0  0  0  0  0  0  0  0  0  0  0
   -4.3340   12.1474  -31.1968 C   0  0  0  0  0  0  0  0  0  0  0  0
   -5.5532   11.7923  -29.1415 C   0  0  0  0  0  0  0  0  0  0  0  0
   -6.0407   10.4411  -31.0840 C   0  0  0  0  0  0  0  0  0  0  0  0
   -7.2392   10.1036  -29.0409 O   0  0  0  0  0  0  0  0  0  0  0  0
   -3.3983   12.8082  -31.8912 F   0  0  0  0  0  0  0  0  0  0  0  0
   -5.8297   12.2291  -27.4952 Cl  0  0  0  0  0  0  0  0  0  0  0  0
   -7.0135    9.0631  -31.9504 Br  0  0  0  0  0  0  0  0  0  0  0  0
  1  4  2  0
  1  5  1  0
  2  4  1  0
  2  6  2  0
  3  5  2  0
  3  6  1  0
  3  7  1  0
  4  8  1  0
  5  9  1  0
  6 10  1  0
M  END
>  <id>  (49) 
EN300-1238568

>  <smiles>  (49) 
OC=1C(Cl)=CC(F)=CC1Br

>  <MDLNUMBER>  (49) 
MFCD04115954

>  <IUPAC Name>  (49) 
2-bromo-6-chloro-4-fluorophenol

>  <CAS>  (49) 
886499-83-8

>  <Purity>  (49) 
95

>  <URL>  (49) 
https://www.enaminestore.com/catalog/EN300-1238568

>  <ROCS_ShapeQuery>  (49) 
_x1604L0AP1_x0771L0AP1

>  <ROCS_TanimotoCombo>  (49) 
1.011 

>  <ROCS_ShapeTanimoto>  (49) 
0.457 

>  <ROCS_ColorTanimoto>  (49) 
0.554 

>  <ROCS_RefTversky>  (49) 
0.404 

>  <ROCS_RefColorTversky>  (49) 
0.518 

>  <ROCS_RefTverskyCombo>  (49) 
0.922 

>  <ROCS_FitTversky>  (49) 
1.403 

>  <ROCS_FitColorTversky>  (49) 
1.139 

>  <ROCS_FitTverskyCombo>  (49) 
2.542 

>  <ROCS_ColorScore>  (49) 
-4.882

>  <ROCS_Overlap>  (49) 
674.248

>  <ROCS_Rank>  (49) 
82                  

$$$$
untitled-dbase-55_0
     RDKit          3D

 10 10  0  0  0  0  0  0  0  0999 V2000
   -4.5769   12.4794  -29.8619 C   0  0  0  0  0  0  0  0  0  0  0  0
   -5.0639   11.1297  -31.8056 C   0  0  0  0  0  0  0  0  0  0  0  0
   -6.2842   10.7737  -29.7511 C   0  0  0  0  0  0  0  0  0  0  0  0
   -4.3325   12.1482  -31.1946 C   0  0  0  0  0  0  0  0  0  0  0  0
   -5.5528   11.7921  -29.1401 C   0  0  0  0  0  0  0  0  0  0  0  0
   -6.0399   10.4424  -31.0838 C   0  0  0  0  0  0  0  0  0  0  0  0
   -7.2383   10.1029  -29.0409 O   0  0  0  0  0  0  0  0  0  0  0  0
   -3.1302   12.9982  -32.0860 Cl  0  0  0  0  0  0  0  0  0  0  0  0
   -5.8297   12.2248  -27.4925 Cl  0  0  0  0  0  0  0  0  0  0  0  0
   -7.0130    9.0655  -31.9514 Br  0  0  0  0  0  0  0  0  0  0  0  0
  1  4  2  0
  1  5  1  0
  2  4  1  0
  2  6  2  0
  3  5  2  0
  3  6  1  0
  3  7  1  0
  4  8  1  0
  5  9  1  0
  6 10  1  0
M  END
>  <id>  (50) 
EN300-212292

>  <smiles>  (50) 
OC=1C(Cl)=CC(Cl)=CC1Br

>  <MDLNUMBER>  (50) 
MFCD00474518

>  <IUPAC Name>  (50) 
2-bromo-4,6-dichlorophenol

>  <CAS>  (50) 
4524-77-0

>  <Purity>  (50) 
95

>  <URL>  (50) 
https://www.enaminestore.com/catalog/EN300-212292

>  <MP>  (50) 
67-71

>  <ROCS_ShapeQuery>  (50) 
_x1604L0AP1_x0771L0AP1

>  <ROCS_TanimotoCombo>  (50) 
1.011 

>  <ROCS_ShapeTanimoto>  (50) 
0.457 

>  <ROCS_ColorTanimoto>  (50) 
0.554 

>  <ROCS_RefTversky>  (50) 
0.402 

>  <ROCS_RefColorTversky>  (50) 
0.518 

>  <ROCS_RefTverskyCombo>  (50) 
0.920 

>  <ROCS_FitTversky>  (50) 
1.428 

>  <ROCS_FitColorTversky>  (50) 
1.139 

>  <ROCS_FitTverskyCombo>  (50) 
2.567 

>  <ROCS_ColorScore>  (50) 
-4.882

>  <ROCS_Overlap>  (50) 
670.641

>  <ROCS_Rank>  (50) 
83                  

$$$$
untitled-dbase-172_20
     RDKit          3D

 11 11  0  0  0  0  0  0  0  0999 V2000
   -4.5722   12.4678  -29.8674 C   0  0  0  0  0  0  0  0  0  0  0  0
   -5.0623   11.1206  -31.8121 C   0  0  0  0  0  0  0  0  0  0  0  0
   -5.5503   11.7829  -29.1464 C   0  0  0  0  0  0  0  0  0  0  0  0
   -6.2843   10.7667  -29.7582 C   0  0  0  0  0  0  0  0  0  0  0  0
   -4.3282   12.1367  -31.2003 C   0  0  0  0  0  0  0  0  0  0  0  0
   -6.0403   10.4356  -31.0911 C   0  0  0  0  0  0  0  0  0  0  0  0
   -5.7954   12.1533  -27.7205 C   0  0  0  0  0  0  0  0  0  0  0  0
   -7.2380   10.1059  -29.0395 O   0  0  0  0  0  0  0  0  0  0  0  0
   -5.0162   13.7326  -27.2691 S   0  0  0  0  0  0  0  0  0  0  0  0
   -3.1213   12.9824  -32.0896 Cl  0  0  0  0  0  0  0  0  0  0  0  0
   -7.0173    9.0608  -31.9574 Br  0  0  0  0  0  0  0  0  0  0  0  0
  1  3  2  0
  1  5  1  0
  2  5  2  0
  2  6  1  0
  3  4  1  0
  3  7  1  0
  4  6  2  0
  4  8  1  0
  5 10  1  0
  6 11  1  0
  7  9  1  0
M  END
>  <id>  (51) 
EN300-1289363

>  <smiles>  (51) 
OC=1C(Br)=CC(Cl)=CC1CS

>  <MDLNUMBER>  (51) 
MFCD33497722

>  <IUPAC Name>  (51) 
2-bromo-4-chloro-6-(sulfanylmethyl)phenol

>  <CAS>  (51) 
2172197-28-1

>  <URL>  (51) 
https://www.enaminestore.com/catalog/EN300-1289363

>  <ROCS_ShapeQuery>  (51) 
_x1604L0AP1_x0771L0AP1

>  <ROCS_TanimotoCombo>  (51) 
1.010 

>  <ROCS_ShapeTanimoto>  (51) 
0.457 

>  <ROCS_ColorTanimoto>  (51) 
0.553 

>  <ROCS_RefTversky>  (51) 
0.409 

>  <ROCS_RefColorTversky>  (51) 
0.518 

>  <ROCS_RefTverskyCombo>  (51) 
0.927 

>  <ROCS_FitTversky>  (51) 
1.347 

>  <ROCS_FitColorTversky>  (51) 
1.139 

>  <ROCS_FitTverskyCombo>  (51) 
2.486 

>  <ROCS_ColorScore>  (51) 
-4.881

>  <ROCS_Overlap>  (51) 
683.021

>  <ROCS_Rank>  (51) 
84                  

$$$$
untitled-dbase-274_85
     RDKit          3D

 11 11  0  0  0  0  0  0  0  0999 V2000
   -4.5864   12.4660  -29.8305 C   0  0  0  0  0  0  0  0  0  0  0  0
   -5.5684   11.7718  -29.1238 C   0  0  0  0  0  0  0  0  0  0  0  0
   -5.0571   11.1358  -31.7916 C   0  0  0  0  0  0  0  0  0  0  0  0
   -4.3308   12.1481  -31.1644 C   0  0  0  0  0  0  0  0  0  0  0  0
   -6.2948   10.7595  -29.7510 C   0  0  0  0  0  0  0  0  0  0  0  0
   -6.0391   10.4415  -31.0849 C   0  0  0  0  0  0  0  0  0  0  0  0
   -3.2805   12.8908  -31.9187 C   0  0  0  0  0  0  0  0  0  0  0  0
   -2.4153   13.6488  -31.0509 N   0  0  0  0  0  0  0  0  0  0  0  0
   -7.2464   10.0991  -29.0324 O   0  0  0  0  0  0  0  0  0  0  0  0
   -3.0288   14.9611  -30.9145 O   0  0  0  0  0  0  0  0  0  0  0  0
   -7.0055    9.0711  -31.9684 Br  0  0  0  0  0  0  0  0  0  0  0  0
  1  2  2  0
  1  4  1  0
  2  5  1  0
  3  4  2  0
  3  6  1  0
  4  7  1  0
  5  6  2  0
  5  9  1  0
  6 11  1  0
  7  8  1  0
  8 10  1  0
M  END
>  <id>  (52) 
EN300-1894692

>  <smiles>  (52) 
ONCC=1C=CC(O)=C(Br)C1

>  <MDLNUMBER>  (52) 
MFCD24285085

>  <IUPAC Name>  (52) 
2-bromo-4-[(hydroxyamino)methyl]phenol

>  <CAS>  (52) 
1506580-47-7

>  <URL>  (52) 
https://www.enaminestore.com/catalog/EN300-1894692

>  <ROCS_ShapeQuery>  (52) 
_x1604L0AP1_x0771L0AP1

>  <ROCS_TanimotoCombo>  (52) 
1.009 

>  <ROCS_ShapeTanimoto>  (52) 
0.512 

>  <ROCS_ColorTanimoto>  (52) 
0.497 

>  <ROCS_RefTversky>  (52) 
0.444 

>  <ROCS_RefColorTversky>  (52) 
0.515 

>  <ROCS_RefTverskyCombo>  (52) 
0.959 

>  <ROCS_FitTversky>  (52) 
1.429 

>  <ROCS_FitColorTversky>  (52) 
0.932 

>  <ROCS_FitTverskyCombo>  (52) 
2.361 

>  <ROCS_ColorScore>  (52) 
-4.878

>  <ROCS_Overlap>  (52) 
741.769

>  <ROCS_Rank>  (52) 
87                  

$$$$
untitled-dbase-2067_1
     RDKit          3D

 11 11  0  0  0  0  0  0  0  0999 V2000
   -5.5763   11.7924  -29.1528 C   0  0  0  0  0  0  0  0  0  0  0  0
   -4.3625   12.1685  -31.2075 C   0  0  0  0  0  0  0  0  0  0  0  0
   -4.6091   12.4928  -29.8735 C   0  0  0  0  0  0  0  0  0  0  0  0
   -6.2969   10.7675  -29.7660 C   0  0  0  0  0  0  0  0  0  0  0  0
   -5.0831   11.1436  -31.8208 C   0  0  0  0  0  0  0  0  0  0  0  0
   -6.0503   10.4432  -31.1001 C   0  0  0  0  0  0  0  0  0  0  0  0
   -2.9319   14.1673  -30.0703 C   0  0  0  0  0  0  0  0  0  0  0  0
   -7.2354   10.1035  -29.0335 O   0  0  0  0  0  0  0  0  0  0  0  0
   -3.9057   13.4926  -29.2752 O   0  0  0  0  0  0  0  0  0  0  0  0
   -4.8308   10.8467  -33.1039 F   0  0  0  0  0  0  0  0  0  0  0  0
   -7.0178    9.0558  -31.9580 Br  0  0  0  0  0  0  0  0  0  0  0  0
  1  3  2  0
  1  4  1  0
  2  3  1  0
  2  5  2  0
  3  9  1  0
  4  6  2  0
  4  8  1  0
  5  6  1  0
  5 10  1  0
  6 11  1  0
  7  9  1  0
M  END
>  <id>  (53) 
EN300-6807267

>  <smiles>  (53) 
COC=1C=C(O)C(Br)=C(F)C1

>  <MDLNUMBER>  (53) 
MFCD28738848

>  <IUPAC Name>  (53) 
2-bromo-3-fluoro-5-methoxyphenol

>  <CAS>  (53) 
1785528-41-7

>  <Purity>  (53) 
95

>  <URL>  (53) 
https://www.enaminestore.com/catalog/EN300-6807267

>  <ROCS_ShapeQuery>  (53) 
_x1604L0AP1_x0771L0AP1

>  <ROCS_TanimotoCombo>  (53) 
1.009 

>  <ROCS_ShapeTanimoto>  (53) 
0.512 

>  <ROCS_ColorTanimoto>  (53) 
0.497 

>  <ROCS_RefTversky>  (53) 
0.446 

>  <ROCS_RefColorTversky>  (53) 
0.515 

>  <ROCS_RefTverskyCombo>  (53) 
0.962 

>  <ROCS_FitTversky>  (53) 
1.403 

>  <ROCS_FitColorTversky>  (53) 
0.932 

>  <ROCS_FitTverskyCombo>  (53) 
2.335 

>  <ROCS_ColorScore>  (53) 
-4.879

>  <ROCS_Overlap>  (53) 
745.796

>  <ROCS_Rank>  (53) 
88                  

$$$$
untitled-dbase-2011_0
     RDKit          3D

 11 11  0  0  0  0  0  0  0  0999 V2000
   -5.5519   11.7855  -29.1686 C   0  0  0  0  0  0  0  0  0  0  0  0
   -5.0829   11.1141  -31.8355 C   0  0  0  0  0  0  0  0  0  0  0  0
   -4.5827   12.4716  -29.9004 C   0  0  0  0  0  0  0  0  0  0  0  0
   -6.2866   10.7637  -29.7702 C   0  0  0  0  0  0  0  0  0  0  0  0
   -4.3482   12.1359  -31.2339 C   0  0  0  0  0  0  0  0  0  0  0  0
   -6.0521   10.4280  -31.1036 C   0  0  0  0  0  0  0  0  0  0  0  0
   -4.3984   14.7886  -29.3972 C   0  0  0  0  0  0  0  0  0  0  0  0
   -7.2261   10.1123  -29.0279 O   0  0  0  0  0  0  0  0  0  0  0  0
   -3.8661   13.4676  -29.3116 O   0  0  0  0  0  0  0  0  0  0  0  0
   -3.4177   12.7903  -31.9423 F   0  0  0  0  0  0  0  0  0  0  0  0
   -7.0309    9.0456  -31.9537 Br  0  0  0  0  0  0  0  0  0  0  0  0
  1  3  2  0
  1  4  1  0
  2  5  2  0
  2  6  1  0
  3  5  1  0
  3  9  1  0
  4  6  2  0
  4  8  1  0
  5 10  1  0
  6 11  1  0
  7  9  1  0
M  END
>  <id>  (54) 
EN300-6825593

>  <smiles>  (54) 
COC=1C=C(O)C(Br)=CC1F

>  <MDLNUMBER>  (54) 
MFCD26390960

>  <IUPAC Name>  (54) 
2-bromo-4-fluoro-5-methoxyphenol

>  <CAS>  (54) 
1185836-63-8

>  <Purity>  (54) 
95

>  <URL>  (54) 
https://www.enaminestore.com/catalog/EN300-6825593

>  <MP>  (54) 
73-77

>  <ROCS_ShapeQuery>  (54) 
_x1604L0AP1_x0771L0AP1

>  <ROCS_TanimotoCombo>  (54) 
1.009 

>  <ROCS_ShapeTanimoto>  (54) 
0.512 

>  <ROCS_ColorTanimoto>  (54) 
0.496 

>  <ROCS_RefTversky>  (54) 
0.446 

>  <ROCS_RefColorTversky>  (54) 
0.515 

>  <ROCS_RefTverskyCombo>  (54) 
0.962 

>  <ROCS_FitTversky>  (54) 
1.403 

>  <ROCS_FitColorTversky>  (54) 
0.932 

>  <ROCS_FitTverskyCombo>  (54) 
2.335 

>  <ROCS_ColorScore>  (54) 
-4.877

>  <ROCS_Overlap>  (54) 
746.181

>  <ROCS_Rank>  (54) 
89                  

$$$$
untitled-dbase-952_0
     RDKit          3D

 11 11  0  0  0  0  0  0  0  0999 V2000
   -4.5758   12.4709  -29.8620 C   0  0  0  0  0  0  0  0  0  0  0  0
   -5.0616   11.1240  -31.8080 C   0  0  0  0  0  0  0  0  0  0  0  0
   -5.5538   11.7842  -29.1426 C   0  0  0  0  0  0  0  0  0  0  0  0
   -6.2856   10.7674  -29.7559 C   0  0  0  0  0  0  0  0  0  0  0  0
   -4.3297   12.1409  -31.1948 C   0  0  0  0  0  0  0  0  0  0  0  0
   -6.0395   10.4373  -31.0886 C   0  0  0  0  0  0  0  0  0  0  0  0
   -5.8012   12.1536  -27.7168 C   0  0  0  0  0  0  0  0  0  0  0  0
   -7.2392   10.1048  -29.0387 O   0  0  0  0  0  0  0  0  0  0  0  0
   -3.1230   12.9888  -32.0822 Cl  0  0  0  0  0  0  0  0  0  0  0  0
   -6.7033   13.6813  -27.6130 Cl  0  0  0  0  0  0  0  0  0  0  0  0
   -7.0134    9.0616  -31.9568 Br  0  0  0  0  0  0  0  0  0  0  0  0
  1  3  2  0
  1  5  1  0
  2  5  2  0
  2  6  1  0
  3  4  1  0
  3  7  1  0
  4  6  2  0
  4  8  1  0
  5  9  1  0
  6 11  1  0
  7 10  1  0
M  END
>  <id>  (55) 
EN300-1926028

>  <smiles>  (55) 
OC=1C(Br)=CC(Cl)=CC1CCl

>  <MDLNUMBER>  (55) 
MFCD33417863

>  <IUPAC Name>  (55) 
2-bromo-4-chloro-6-(chloromethyl)phenol

>  <CAS>  (55) 
2090336-59-5

>  <URL>  (55) 
https://www.enaminestore.com/catalog/EN300-1926028

>  <ROCS_ShapeQuery>  (55) 
_x1604L0AP1_x0771L0AP1

>  <ROCS_TanimotoCombo>  (55) 
1.008 

>  <ROCS_ShapeTanimoto>  (55) 
0.454 

>  <ROCS_ColorTanimoto>  (55) 
0.553 

>  <ROCS_RefTversky>  (55) 
0.407 

>  <ROCS_RefColorTversky>  (55) 
0.518 

>  <ROCS_RefTverskyCombo>  (55) 
0.926 

>  <ROCS_FitTversky>  (55) 
1.340 

>  <ROCS_FitColorTversky>  (55) 
1.139 

>  <ROCS_FitTverskyCombo>  (55) 
2.479 

>  <ROCS_ColorScore>  (55) 
-4.881

>  <ROCS_Overlap>  (55) 
680.359

>  <ROCS_Rank>  (55) 
90                  

$$$$
untitled-dbase-2317_0
     RDKit          3D

 11 11  0  0  0  0  0  0  0  0999 V2000
   -5.5786   11.7937  -29.1490 C   0  0  0  0  0  0  0  0  0  0  0  0
   -5.0790   11.1447  -31.8158 C   0  0  0  0  0  0  0  0  0  0  0  0
   -6.2981   10.7692  -29.7640 C   0  0  0  0  0  0  0  0  0  0  0  0
   -4.3595   12.1693  -31.2008 C   0  0  0  0  0  0  0  0  0  0  0  0
   -4.6093   12.4938  -29.8674 C   0  0  0  0  0  0  0  0  0  0  0  0
   -6.0483   10.4446  -31.0973 C   0  0  0  0  0  0  0  0  0  0  0  0
   -2.0834   12.3400  -31.8686 C   0  0  0  0  0  0  0  0  0  0  0  0
   -7.2375   10.1039  -29.0340 O   0  0  0  0  0  0  0  0  0  0  0  0
   -3.4145   12.8524  -31.9027 O   0  0  0  0  0  0  0  0  0  0  0  0
   -3.9210   13.4771  -29.2713 F   0  0  0  0  0  0  0  0  0  0  0  0
   -7.0077    9.0596  -31.9654 Br  0  0  0  0  0  0  0  0  0  0  0  0
  1  3  2  0
  1  5  1  0
  2  4  1  0
  2  6  2  0
  3  6  1  0
  3  8  1  0
  4  5  2  0
  4  9  1  0
  5 10  1  0
  6 11  1  0
  7  9  1  0
M  END
>  <id>  (56) 
EN300-6825652

>  <smiles>  (56) 
COC=1C=C(Br)C(O)=CC1F

>  <MDLNUMBER>  (56) 
MFCD26390961

>  <IUPAC Name>  (56) 
2-bromo-5-fluoro-4-methoxyphenol

>  <URL>  (56) 
https://www.enaminestore.com/catalog/EN300-6825652

>  <ROCS_ShapeQuery>  (56) 
_x1604L0AP1_x0771L0AP1

>  <ROCS_TanimotoCombo>  (56) 
1.007 

>  <ROCS_ShapeTanimoto>  (56) 
0.510 

>  <ROCS_ColorTanimoto>  (56) 
0.497 

>  <ROCS_RefTversky>  (56) 
0.445 

>  <ROCS_RefColorTversky>  (56) 
0.515 

>  <ROCS_RefTverskyCombo>  (56) 
0.961 

>  <ROCS_FitTversky>  (56) 
1.400 

>  <ROCS_FitColorTversky>  (56) 
0.932 

>  <ROCS_FitTverskyCombo>  (56) 
2.331 

>  <ROCS_ColorScore>  (56) 
-4.878

>  <ROCS_Overlap>  (56) 
744.367

>  <ROCS_Rank>  (56) 
91                  

$$$$
untitled-dbase-2094_1471
     RDKit          3D

 14 14  0  0  0  0  0  0  0  0999 V2000
   -4.5792   12.4661  -29.8502 C   0  0  0  0  0  0  0  0  0  0  0  0
   -5.0605   11.1259  -31.8019 C   0  0  0  0  0  0  0  0  0  0  0  0
   -4.3299   12.1405  -31.1834 C   0  0  0  0  0  0  0  0  0  0  0  0
   -5.5590   11.7771  -29.1354 C   0  0  0  0  0  0  0  0  0  0  0  0
   -6.2897   10.7626  -29.7539 C   0  0  0  0  0  0  0  0  0  0  0  0
   -6.0404   10.4370  -31.0872 C   0  0  0  0  0  0  0  0  0  0  0  0
   -4.8698   12.2462  -25.6289 C   0  0  0  0  0  0  0  0  0  0  0  0
   -3.2828   12.8779  -31.9474 C   0  0  0  0  0  0  0  0  0  0  0  0
   -4.6868   12.6117  -27.0865 C   0  0  0  0  0  0  0  0  0  0  0  0
   -3.1683   14.8165  -30.6804 N   0  0  0  0  0  0  0  0  0  0  0  0
   -7.2447   10.1009  -29.0385 O   0  0  0  0  0  0  0  0  0  0  0  0
   -5.7914   12.1070  -27.8342 O   0  0  0  0  0  0  0  0  0  0  0  0
   -2.4577   13.6003  -31.0416 O   0  0  0  0  0  0  0  0  0  0  0  0
   -7.0129    9.0645  -31.9617 Br  0  0  0  0  0  0  0  0  0  0  0  0
  1  3  2  0
  1  4  1  0
  2  3  1  0
  2  6  2  0
  3  8  1  0
  4  5  2  0
  4 12  1  0
  5  6  1  0
  5 11  1  0
  6 14  1  0
  7  9  1  0
  8 13  1  0
  9 12  1  0
 10 13  1  0
M  END
>  <id>  (57) 
EN300-1920281

>  <smiles>  (57) 
CCOC=1C=C(CON)C=C(Br)C1O

>  <IUPAC Name>  (57) 
4-[(aminooxy)methyl]-2-bromo-6-ethoxyphenol

>  <CAS>  (57) 
2229470-14-6

>  <URL>  (57) 
https://www.enaminestore.com/catalog/EN300-1920281

>  <ROCS_ShapeQuery>  (57) 
_x1604L0AP1_x0771L0AP1

>  <ROCS_TanimotoCombo>  (57) 
1.007 

>  <ROCS_ShapeTanimoto>  (57) 
0.510 

>  <ROCS_ColorTanimoto>  (57) 
0.497 

>  <ROCS_RefTversky>  (57) 
0.467 

>  <ROCS_RefColorTversky>  (57) 
0.516 

>  <ROCS_RefTverskyCombo>  (57) 
0.983 

>  <ROCS_FitTversky>  (57) 
1.218 

>  <ROCS_FitColorTversky>  (57) 
0.932 

>  <ROCS_FitTverskyCombo>  (57) 
2.150 

>  <ROCS_ColorScore>  (57) 
-4.881

>  <ROCS_Overlap>  (57) 
783.436

>  <ROCS_Rank>  (57) 
92                  

$$$$
untitled-dbase-83_0
     RDKit          3D

  9  9  0  0  0  0  0  0  0  0999 V2000
   -4.3468   12.1511  -31.2078 C   0  0  0  0  0  0  0  0  0  0  0  0
   -5.0743   11.1306  -31.8201 C   0  0  0  0  0  0  0  0  0  0  0  0
   -5.5657   11.7875  -29.1537 C   0  0  0  0  0  0  0  0  0  0  0  0
   -4.5925   12.4795  -29.8745 C   0  0  0  0  0  0  0  0  0  0  0  0
   -6.2933   10.7670  -29.7661 C   0  0  0  0  0  0  0  0  0  0  0  0
   -6.0476   10.4386  -31.0993 C   0  0  0  0  0  0  0  0  0  0  0  0
   -3.8142   13.5697  -29.2192 C   0  0  0  0  0  0  0  0  0  0  0  0
   -7.2352   10.1078  -29.0335 O   0  0  0  0  0  0  0  0  0  0  0  0
   -7.0166    9.0584  -31.9643 Br  0  0  0  0  0  0  0  0  0  0  0  0
  1  2  2  0
  1  4  1  0
  2  6  1  0
  3  4  2  0
  3  5  1  0
  4  7  1  0
  5  6  2  0
  5  8  1  0
  6  9  1  0
M  END
>  <id>  (58) 
EN300-132559

>  <smiles>  (58) 
CC=1C=CC(Br)=C(O)C1

>  <MDLNUMBER>  (58) 
MFCD11100989

>  <IUPAC Name>  (58) 
2-bromo-5-methylphenol

>  <CAS>  (58) 
14847-51-9

>  <Purity>  (58) 
95

>  <URL>  (58) 
https://www.enaminestore.com/catalog/EN300-132559

>  <MP>  (58) 
38-39

>  <ROCS_ShapeQuery>  (58) 
_x1604L0AP1_x0771L0AP1

>  <ROCS_TanimotoCombo>  (58) 
1.007 

>  <ROCS_ShapeTanimoto>  (58) 
0.454 

>  <ROCS_ColorTanimoto>  (58) 
0.553 

>  <ROCS_RefTversky>  (58) 
0.395 

>  <ROCS_RefColorTversky>  (58) 
0.518 

>  <ROCS_RefTverskyCombo>  (58) 
0.913 

>  <ROCS_FitTversky>  (58) 
1.492 

>  <ROCS_FitColorTversky>  (58) 
1.138 

>  <ROCS_FitTverskyCombo>  (58) 
2.630 

>  <ROCS_ColorScore>  (58) 
-4.878

>  <ROCS_Overlap>  (58) 
657.816

>  <ROCS_Rank>  (58) 
93                  

$$$$
untitled-dbase-1400_0
     RDKit          3D

  9  9  0  0  0  0  0  0  0  0999 V2000
   -4.3466   12.1525  -31.2042 C   0  0  0  0  0  0  0  0  0  0  0  0
   -5.0736   11.1326  -31.8180 C   0  0  0  0  0  0  0  0  0  0  0  0
   -5.5653   11.7854  -29.1506 C   0  0  0  0  0  0  0  0  0  0  0  0
   -6.2924   10.7655  -29.7645 C   0  0  0  0  0  0  0  0  0  0  0  0
   -4.5924   12.4788  -29.8704 C   0  0  0  0  0  0  0  0  0  0  0  0
   -6.0466   10.4391  -31.0982 C   0  0  0  0  0  0  0  0  0  0  0  0
   -7.2361   10.1071  -29.0335 O   0  0  0  0  0  0  0  0  0  0  0  0
   -3.8944   13.4579  -29.2801 F   0  0  0  0  0  0  0  0  0  0  0  0
   -7.0134    9.0582  -31.9645 Br  0  0  0  0  0  0  0  0  0  0  0  0
  1  2  2  0
  1  5  1  0
  2  6  1  0
  3  4  1  0
  3  5  2  0
  4  6  2  0
  4  7  1  0
  5  8  1  0
  6  9  1  0
M  END
>  <id>  (59) 
EN300-112643

>  <smiles>  (59) 
OC=1C=C(F)C=CC1Br

>  <MDLNUMBER>  (59) 
MFCD00040939

>  <IUPAC Name>  (59) 
2-bromo-5-fluorophenol

>  <CAS>  (59) 
147460-41-1

>  <Purity>  (59) 
95

>  <URL>  (59) 
https://www.enaminestore.com/catalog/EN300-112643

>  <MP>  (59) 
42-44

>  <ROCS_ShapeQuery>  (59) 
_x1604L0AP1_x0771L0AP1

>  <ROCS_TanimotoCombo>  (59) 
1.007 

>  <ROCS_ShapeTanimoto>  (59) 
0.454 

>  <ROCS_ColorTanimoto>  (59) 
0.553 

>  <ROCS_RefTversky>  (59) 
0.396 

>  <ROCS_RefColorTversky>  (59) 
0.518 

>  <ROCS_RefTverskyCombo>  (59) 
0.914 

>  <ROCS_FitTversky>  (59) 
1.479 

>  <ROCS_FitColorTversky>  (59) 
1.138 

>  <ROCS_FitTverskyCombo>  (59) 
2.618 

>  <ROCS_ColorScore>  (59) 
-4.878

>  <ROCS_Overlap>  (59) 
659.346

>  <ROCS_Rank>  (59) 
94                  

$$$$
untitled-dbase-2106_0
     RDKit          3D

  9  9  0  0  0  0  0  0  0  0999 V2000
   -4.5867   12.4741  -29.8484 C   0  0  0  0  0  0  0  0  0  0  0  0
   -5.5656   11.7813  -29.1362 C   0  0  0  0  0  0  0  0  0  0  0  0
   -5.0606   11.1348  -31.8026 C   0  0  0  0  0  0  0  0  0  0  0  0
   -4.3342   12.1509  -31.1817 C   0  0  0  0  0  0  0  0  0  0  0  0
   -6.2920   10.7652  -29.7571 C   0  0  0  0  0  0  0  0  0  0  0  0
   -6.0395   10.4419  -31.0903 C   0  0  0  0  0  0  0  0  0  0  0  0
   -3.2872   12.8921  -31.9421 C   0  0  0  0  0  0  0  0  0  0  0  0
   -7.2406   10.1063  -29.0330 O   0  0  0  0  0  0  0  0  0  0  0  0
   -7.0061    9.0662  -31.9653 Br  0  0  0  0  0  0  0  0  0  0  0  0
  1  2  2  0
  1  4  1  0
  2  5  1  0
  3  4  2  0
  3  6  1  0
  4  7  1  0
  5  6  2  0
  5  8  1  0
  6  9  1  0
M  END
>  <id>  (60) 
EN300-20031

>  <smiles>  (60) 
CC=1C=CC(O)=C(Br)C1

>  <MDLNUMBER>  (60) 
MFCD00002151

>  <IUPAC Name>  (60) 
2-bromo-4-methylphenol

>  <CAS>  (60) 
6627-55-0

>  <Purity>  (60) 
95

>  <URL>  (60) 
https://www.enaminestore.com/catalog/EN300-20031

>  <MP>  (60) 
54-57

>  <ROCS_ShapeQuery>  (60) 
_x1604L0AP1_x0771L0AP1

>  <ROCS_TanimotoCombo>  (60) 
1.007 

>  <ROCS_ShapeTanimoto>  (60) 
0.454 

>  <ROCS_ColorTanimoto>  (60) 
0.553 

>  <ROCS_RefTversky>  (60) 
0.395 

>  <ROCS_RefColorTversky>  (60) 
0.518 

>  <ROCS_RefTverskyCombo>  (60) 
0.913 

>  <ROCS_FitTversky>  (60) 
1.491 

>  <ROCS_FitColorTversky>  (60) 
1.139 

>  <ROCS_FitTverskyCombo>  (60) 
2.630 

>  <ROCS_ColorScore>  (60) 
-4.879

>  <ROCS_Overlap>  (60) 
657.684

>  <ROCS_Rank>  (60) 
95                  

$$$$
untitled-dbase-70_0
     RDKit          3D

  9  9  0  0  0  0  0  0  0  0999 V2000
   -5.5658   11.7806  -29.1373 C   0  0  0  0  0  0  0  0  0  0  0  0
   -4.5879   12.4742  -29.8502 C   0  0  0  0  0  0  0  0  0  0  0  0
   -5.0619   11.1342  -31.8039 C   0  0  0  0  0  0  0  0  0  0  0  0
   -6.2917   10.7638  -29.7576 C   0  0  0  0  0  0  0  0  0  0  0  0
   -4.3359   12.1510  -31.1835 C   0  0  0  0  0  0  0  0  0  0  0  0
   -6.0398   10.4406  -31.0909 C   0  0  0  0  0  0  0  0  0  0  0  0
   -7.2402   10.1050  -29.0333 O   0  0  0  0  0  0  0  0  0  0  0  0
   -3.3968   12.8173  -31.8678 F   0  0  0  0  0  0  0  0  0  0  0  0
   -7.0067    9.0656  -31.9664 Br  0  0  0  0  0  0  0  0  0  0  0  0
  1  2  2  0
  1  4  1  0
  2  5  1  0
  3  5  2  0
  3  6  1  0
  4  6  2  0
  4  7  1  0
  5  8  1  0
  6  9  1  0
M  END
>  <id>  (61) 
EN300-21341

>  <smiles>  (61) 
OC=1C=CC(F)=CC1Br

>  <MDLNUMBER>  (61) 
MFCD00010614

>  <IUPAC Name>  (61) 
2-bromo-4-fluorophenol

>  <CAS>  (61) 
496-69-5

>  <Purity>  (61) 
95

>  <URL>  (61) 
https://www.enaminestore.com/catalog/EN300-21341

>  <MP>  (61) 
43-45

>  <ROCS_ShapeQuery>  (61) 
_x1604L0AP1_x0771L0AP1

>  <ROCS_TanimotoCombo>  (61) 
1.006 

>  <ROCS_ShapeTanimoto>  (61) 
0.453 

>  <ROCS_ColorTanimoto>  (61) 
0.553 

>  <ROCS_RefTversky>  (61) 
0.395 

>  <ROCS_RefColorTversky>  (61) 
0.518 

>  <ROCS_RefTverskyCombo>  (61) 
0.913 

>  <ROCS_FitTversky>  (61) 
1.478 

>  <ROCS_FitColorTversky>  (61) 
1.139 

>  <ROCS_FitTverskyCombo>  (61) 
2.616 

>  <ROCS_ColorScore>  (61) 
-4.879

>  <ROCS_Overlap>  (61) 
658.808

>  <ROCS_Rank>  (61) 
96                  

$$$$
untitled-dbase-25_0
     RDKit          3D

  9  9  0  0  0  0  0  0  0  0999 V2000
   -5.5642   11.7781  -29.1370 C   0  0  0  0  0  0  0  0  0  0  0  0
   -4.5845   12.4692  -29.8497 C   0  0  0  0  0  0  0  0  0  0  0  0
   -5.0594   11.1286  -31.8027 C   0  0  0  0  0  0  0  0  0  0  0  0
   -6.2916   10.7621  -29.7571 C   0  0  0  0  0  0  0  0  0  0  0  0
   -4.3321   12.1445  -31.1826 C   0  0  0  0  0  0  0  0  0  0  0  0
   -6.0392   10.4374  -31.0900 C   0  0  0  0  0  0  0  0  0  0  0  0
   -7.2420   10.1061  -29.0328 O   0  0  0  0  0  0  0  0  0  0  0  0
   -3.1230   12.9979  -32.0610 Cl  0  0  0  0  0  0  0  0  0  0  0  0
   -7.0081    9.0630  -31.9645 Br  0  0  0  0  0  0  0  0  0  0  0  0
  1  2  2  0
  1  4  1  0
  2  5  1  0
  3  5  2  0
  3  6  1  0
  4  6  2  0
  4  7  1  0
  5  8  1  0
  6  9  1  0
M  END
>  <id>  (62) 
EN300-21340

>  <smiles>  (62) 
OC=1C=CC(Cl)=CC1Br

>  <MDLNUMBER>  (62) 
MFCD00002319

>  <IUPAC Name>  (62) 
2-bromo-4-chlorophenol

>  <CAS>  (62) 
695-96-5

>  <Purity>  (62) 
95

>  <URL>  (62) 
https://www.enaminestore.com/catalog/EN300-21340

>  <MP>  (62) 
34-36

>  <ROCS_ShapeQuery>  (62) 
_x1604L0AP1_x0771L0AP1

>  <ROCS_TanimotoCombo>  (62) 
1.006 

>  <ROCS_ShapeTanimoto>  (62) 
0.453 

>  <ROCS_ColorTanimoto>  (62) 
0.553 

>  <ROCS_RefTversky>  (62) 
0.393 

>  <ROCS_RefColorTversky>  (62) 
0.518 

>  <ROCS_RefTverskyCombo>  (62) 
0.911 

>  <ROCS_FitTversky>  (62) 
1.506 

>  <ROCS_FitColorTversky>  (62) 
1.139 

>  <ROCS_FitTverskyCombo>  (62) 
2.645 

>  <ROCS_ColorScore>  (62) 
-4.879

>  <ROCS_Overlap>  (62) 
655.050

>  <ROCS_Rank>  (62) 
97                  

$$$$
untitled-dbase-101_0
     RDKit          3D

  9  9  0  0  0  0  0  0  0  0999 V2000
   -4.3452   12.1492  -31.2086 C   0  0  0  0  0  0  0  0  0  0  0  0
   -5.0726   11.1284  -31.8204 C   0  0  0  0  0  0  0  0  0  0  0  0
   -5.5643   11.7870  -29.1545 C   0  0  0  0  0  0  0  0  0  0  0  0
   -6.2918   10.7662  -29.7662 C   0  0  0  0  0  0  0  0  0  0  0  0
   -4.5910   12.4785  -29.8756 C   0  0  0  0  0  0  0  0  0  0  0  0
   -6.0460   10.4369  -31.0992 C   0  0  0  0  0  0  0  0  0  0  0  0
   -7.2357   10.1090  -29.0344 O   0  0  0  0  0  0  0  0  0  0  0  0
   -3.6930   13.7377  -29.1216 Cl  0  0  0  0  0  0  0  0  0  0  0  0
   -7.0148    9.0560  -31.9632 Br  0  0  0  0  0  0  0  0  0  0  0  0
  1  2  2  0
  1  5  1  0
  2  6  1  0
  3  4  1  0
  3  5  2  0
  4  6  2  0
  4  7  1  0
  5  8  1  0
  6  9  1  0
M  END
>  <id>  (63) 
EN300-126714

>  <smiles>  (63) 
OC=1C=C(Cl)C=CC1Br

>  <MDLNUMBER>  (63) 
MFCD00142870

>  <IUPAC Name>  (63) 
2-bromo-5-chlorophenol

>  <CAS>  (63) 
13659-23-9

>  <Purity>  (63) 
95

>  <URL>  (63) 
https://www.enaminestore.com/catalog/EN300-126714

>  <MP>  (63) 
63-65

>  <ROCS_ShapeQuery>  (63) 
_x1604L0AP1_x0771L0AP1

>  <ROCS_TanimotoCombo>  (63) 
1.006 

>  <ROCS_ShapeTanimoto>  (63) 
0.453 

>  <ROCS_ColorTanimoto>  (63) 
0.553 

>  <ROCS_RefTversky>  (63) 
0.393 

>  <ROCS_RefColorTversky>  (63) 
0.518 

>  <ROCS_RefTverskyCombo>  (63) 
0.911 

>  <ROCS_FitTversky>  (63) 
1.506 

>  <ROCS_FitColorTversky>  (63) 
1.138 

>  <ROCS_FitTverskyCombo>  (63) 
2.645 

>  <ROCS_ColorScore>  (63) 
-4.878

>  <ROCS_Overlap>  (63) 
655.035

>  <ROCS_Rank>  (63) 
98                  

$$$$
untitled-dbase-298_29
     RDKit          3D

 13 13  0  0  0  0  0  0  0  0999 V2000
   -4.6077   12.4930  -29.8572 C   0  0  0  0  0  0  0  0  0  0  0  0
   -4.3580   12.1762  -31.1924 C   0  0  0  0  0  0  0  0  0  0  0  0
   -5.5764   11.7884  -29.1425 C   0  0  0  0  0  0  0  0  0  0  0  0
   -5.0771   11.1548  -31.8130 C   0  0  0  0  0  0  0  0  0  0  0  0
   -6.2955   10.7669  -29.7631 C   0  0  0  0  0  0  0  0  0  0  0  0
   -6.0459   10.4501  -31.0984 C   0  0  0  0  0  0  0  0  0  0  0  0
   -4.7749   10.8681  -33.2104 C   0  0  0  0  0  0  0  0  0  0  0  0
   -5.8646   10.9726  -34.2666 C   0  0  0  0  0  0  0  0  0  0  0  0
   -3.6341   10.5158  -33.5604 O   0  0  0  0  0  0  0  0  0  0  0  0
   -7.2346   10.1005  -29.0329 O   0  0  0  0  0  0  0  0  0  0  0  0
   -7.0588   11.3478  -33.7328 F   0  0  0  0  0  0  0  0  0  0  0  0
   -6.0842    9.7776  -34.8744 F   0  0  0  0  0  0  0  0  0  0  0  0
   -7.0364    9.0528  -31.9303 Br  0  0  0  0  0  0  0  0  0  0  0  0
  1  2  2  0
  1  3  1  0
  2  4  1  0
  3  5  2  0
  4  6  2  0
  4  7  1  0
  5  6  1  0
  5 10  1  0
  6 13  1  0
  7  8  1  0
  7  9  2  0
  8 11  1  0
  8 12  1  0
M  END
>  <id>  (64) 
EN300-1950773

>  <smiles>  (64) 
OC=1C=CC=C(C(=O)C(F)F)C1Br

>  <IUPAC Name>  (64) 
1-(2-bromo-3-hydroxyphenyl)-2,2-difluoroethan-1-one

>  <CAS>  (64) 
2229407-70-7

>  <URL>  (64) 
https://www.enaminestore.com/catalog/EN300-1950773

>  <ROCS_ShapeQuery>  (64) 
_x1604L0AP1_x0771L0AP1

>  <ROCS_TanimotoCombo>  (64) 
1.006 

>  <ROCS_ShapeTanimoto>  (64) 
0.508 

>  <ROCS_ColorTanimoto>  (64) 
0.497 

>  <ROCS_RefTversky>  (64) 
0.461 

>  <ROCS_RefColorTversky>  (64) 
0.516 

>  <ROCS_RefTverskyCombo>  (64) 
0.977 

>  <ROCS_FitTversky>  (64) 
1.252 

>  <ROCS_FitColorTversky>  (64) 
0.933 

>  <ROCS_FitTverskyCombo>  (64) 
2.185 

>  <ROCS_ColorScore>  (64) 
-4.882

>  <ROCS_Overlap>  (64) 
773.036

>  <ROCS_Rank>  (64) 
99                  

$$$$
untitled-dbase-891_63
     RDKit          3D

 12 12  0  0  0  0  0  0  0  0999 V2000
   -4.5792   12.4742  -29.8762 C   0  0  0  0  0  0  0  0  0  0  0  0
   -5.0674   11.1211  -31.8173 C   0  0  0  0  0  0  0  0  0  0  0  0
   -5.5545   11.7881  -29.1526 C   0  0  0  0  0  0  0  0  0  0  0  0
   -6.2863   10.7685  -29.7613 C   0  0  0  0  0  0  0  0  0  0  0  0
   -4.3357   12.1407  -31.2086 C   0  0  0  0  0  0  0  0  0  0  0  0
   -6.0428   10.4350  -31.0937 C   0  0  0  0  0  0  0  0  0  0  0  0
   -5.7992   12.1612  -27.7273 C   0  0  0  0  0  0  0  0  0  0  0  0
   -3.7749   13.1822  -27.2412 N   0  0  0  0  0  0  0  0  0  0  0  0
   -7.2373   10.1067  -29.0401 O   0  0  0  0  0  0  0  0  0  0  0  0
   -5.1932   13.4190  -27.4597 O   0  0  0  0  0  0  0  0  0  0  0  0
   -3.1321   12.9878  -32.1011 Cl  0  0  0  0  0  0  0  0  0  0  0  0
   -7.0167    9.0555  -31.9557 Br  0  0  0  0  0  0  0  0  0  0  0  0
  1  3  2  0
  1  5  1  0
  2  5  2  0
  2  6  1  0
  3  4  1  0
  3  7  1  0
  4  6  2  0
  4  9  1  0
  5 11  1  0
  6 12  1  0
  7 10  1  0
  8 10  1  0
M  END
>  <id>  (65) 
EN300-1922561

>  <smiles>  (65) 
NOCC=1C=C(Cl)C=C(Br)C1O

>  <IUPAC Name>  (65) 
2-[(aminooxy)methyl]-6-bromo-4-chlorophenol

>  <CAS>  (65) 
2229516-41-8

>  <URL>  (65) 
https://www.enaminestore.com/catalog/EN300-1922561

>  <ROCS_ShapeQuery>  (65) 
_x1604L0AP1_x0771L0AP1

>  <ROCS_TanimotoCombo>  (65) 
1.006 

>  <ROCS_ShapeTanimoto>  (65) 
0.452 

>  <ROCS_ColorTanimoto>  (65) 
0.553 

>  <ROCS_RefTversky>  (65) 
0.415 

>  <ROCS_RefColorTversky>  (65) 
0.518 

>  <ROCS_RefTverskyCombo>  (65) 
0.933 

>  <ROCS_FitTversky>  (65) 
1.249 

>  <ROCS_FitColorTversky>  (65) 
1.139 

>  <ROCS_FitTverskyCombo>  (65) 
2.388 

>  <ROCS_ColorScore>  (65) 
-4.881

>  <ROCS_Overlap>  (65) 
693.898

>  <ROCS_Rank>  (65) 
101                 

$$$$
untitled-dbase-394_0
     RDKit          3D

 10 10  0  0  0  0  0  0  0  0999 V2000
   -4.6060   12.4938  -29.8522 C   0  0  0  0  0  0  0  0  0  0  0  0
   -4.3540   12.1785  -31.1874 C   0  0  0  0  0  0  0  0  0  0  0  0
   -5.5760   11.7884  -29.1401 C   0  0  0  0  0  0  0  0  0  0  0  0
   -5.0720   11.1579  -31.8105 C   0  0  0  0  0  0  0  0  0  0  0  0
   -6.2940   10.7677  -29.7632 C   0  0  0  0  0  0  0  0  0  0  0  0
   -6.0421   10.4524  -31.0984 C   0  0  0  0  0  0  0  0  0  0  0  0
   -4.7645   10.8592  -33.2426 C   0  0  0  0  0  0  0  0  0  0  0  0
   -7.2347   10.1006  -29.0357 O   0  0  0  0  0  0  0  0  0  0  0  0
   -6.0431   11.4923  -34.3015 Cl  0  0  0  0  0  0  0  0  0  0  0  0
   -7.0277    9.0577  -31.9376 Br  0  0  0  0  0  0  0  0  0  0  0  0
  1  2  2  0
  1  3  1  0
  2  4  1  0
  3  5  2  0
  4  6  2  0
  4  7  1  0
  5  6  1  0
  5  8  1  0
  6 10  1  0
  7  9  1  0
M  END
>  <id>  (66) 
EN300-1915319

>  <smiles>  (66) 
OC=1C=CC=C(CCl)C1Br

>  <MDLNUMBER>  (66) 
MFCD11520913

>  <IUPAC Name>  (66) 
2-bromo-3-(chloromethyl)phenol

>  <CAS>  (66) 
1260674-44-9

>  <Purity>  (66) 
95

>  <URL>  (66) 
https://www.enaminestore.com/catalog/EN300-1915319

>  <ROCS_ShapeQuery>  (66) 
_x1604L0AP1_x0771L0AP1

>  <ROCS_TanimotoCombo>  (66) 
1.006 

>  <ROCS_ShapeTanimoto>  (66) 
0.452 

>  <ROCS_ColorTanimoto>  (66) 
0.554 

>  <ROCS_RefTversky>  (66) 
0.399 

>  <ROCS_RefColorTversky>  (66) 
0.519 

>  <ROCS_RefTverskyCombo>  (66) 
0.918 

>  <ROCS_FitTversky>  (66) 
1.408 

>  <ROCS_FitColorTversky>  (66) 
1.139 

>  <ROCS_FitTverskyCombo>  (66) 
2.548 

>  <ROCS_ColorScore>  (66) 
-4.883

>  <ROCS_Overlap>  (66) 
666.553

>  <ROCS_Rank>  (66) 
102                 

$$$$
untitled-dbase-1317_1
     RDKit          3D

 12 12  0  0  0  0  0  0  0  0999 V2000
   -4.6055   12.4941  -29.8370 C   0  0  0  0  0  0  0  0  0  0  0  0
   -5.5781   11.7854  -29.1318 C   0  0  0  0  0  0  0  0  0  0  0  0
   -4.3482   12.1847  -31.1726 C   0  0  0  0  0  0  0  0  0  0  0  0
   -6.2935   10.7673  -29.7621 C   0  0  0  0  0  0  0  0  0  0  0  0
   -5.0636   11.1665  -31.8030 C   0  0  0  0  0  0  0  0  0  0  0  0
   -6.0362   10.4578  -31.0977 C   0  0  0  0  0  0  0  0  0  0  0  0
   -3.6034   11.7048  -33.8989 O   0  0  0  0  0  0  0  0  0  0  0  0
   -4.6623    9.4047  -33.7092 O   0  0  0  0  0  0  0  0  0  0  0  0
   -7.2363   10.0979  -29.0392 O   0  0  0  0  0  0  0  0  0  0  0  0
   -4.6849   10.8354  -33.4827 S   0  0  0  0  0  0  0  0  0  0  0  0
   -6.3620   11.5047  -34.4435 Cl  0  0  0  0  0  0  0  0  0  0  0  0
   -7.0314    9.0632  -31.9304 Br  0  0  0  0  0  0  0  0  0  0  0  0
  1  2  2  0
  1  3  1  0
  2  4  1  0
  3  5  2  0
  4  6  2  0
  4  9  1  0
  5  6  1  0
  5 10  1  0
  6 12  1  0
  7 10  2  0
  8 10  2  0
 10 11  1  0
M  END
>  <id>  (67) 
EN300-6493319

>  <smiles>  (67) 
OC=1C=CC=C(C1Br)S(=O)(=O)Cl

>  <MDLNUMBER>  (67) 
MFCD18391414

>  <IUPAC Name>  (67) 
2-bromo-3-hydroxybenzene-1-sulfonyl chloride

>  <CAS>  (67) 
1261438-45-2

>  <URL>  (67) 
https://www.enaminestore.com/catalog/EN300-6493319

>  <ROCS_ShapeQuery>  (67) 
_x1604L0AP1_x0771L0AP1

>  <ROCS_TanimotoCombo>  (67) 
1.005 

>  <ROCS_ShapeTanimoto>  (67) 
0.451 

>  <ROCS_ColorTanimoto>  (67) 
0.554 

>  <ROCS_RefTversky>  (67) 
0.412 

>  <ROCS_RefColorTversky>  (67) 
0.519 

>  <ROCS_RefTverskyCombo>  (67) 
0.931 

>  <ROCS_FitTversky>  (67) 
1.266 

>  <ROCS_FitColorTversky>  (67) 
1.140 

>  <ROCS_FitTverskyCombo>  (67) 
2.406 

>  <ROCS_ColorScore>  (67) 
-4.884

>  <ROCS_Overlap>  (67) 
689.385

>  <ROCS_Rank>  (67) 
103                 

$$$$
untitled-dbase-1947_210
     RDKit          3D

 16 17  0  0  0  0  0  0  0  0999 V2000
   -4.4248   11.3678  -31.9234 C   0  0  0  0  0  0  0  0  0  0  0  0
   -4.2775   11.7400  -30.5873 C   0  0  0  0  0  0  0  0  0  0  0  0
   -5.5000   10.5677  -32.3102 C   0  0  0  0  0  0  0  0  0  0  0  0
   -5.2054   11.3121  -29.6378 C   0  0  0  0  0  0  0  0  0  0  0  0
   -6.2806   10.5120  -30.0245 C   0  0  0  0  0  0  0  0  0  0  0  0
   -6.4279   10.1398  -31.3607 C   0  0  0  0  0  0  0  0  0  0  0  0
   -3.6677    8.5382  -34.1524 C   0  0  0  0  0  0  0  0  0  0  0  0
   -4.4172    8.0597  -32.9418 C   0  0  0  0  0  0  0  0  0  0  0  0
   -5.1537    8.7879  -34.0418 C   0  0  0  0  0  0  0  0  0  0  0  0
   -3.9214   12.5024  -28.0283 C   0  0  0  0  0  0  0  0  0  0  0  0
   -5.6143   10.1938  -33.7714 C   0  0  0  0  0  0  0  0  0  0  0  0
   -6.0709    7.9881  -34.9255 C   0  0  0  0  0  0  0  0  0  0  0  0
   -7.1753   10.1063  -29.0771 O   0  0  0  0  0  0  0  0  0  0  0  0
   -6.2533    6.6921  -34.3671 O   0  0  0  0  0  0  0  0  0  0  0  0
   -5.0480   11.6840  -28.3366 O   0  0  0  0  0  0  0  0  0  0  0  0
   -7.9031    9.0555  -31.8812 Br  0  0  0  0  0  0  0  0  0  0  0  0
  1  2  2  0
  1  3  1  0
  2  4  1  0
  3  6  2  0
  3 11  1  0
  4  5  2  0
  4 15  1  0
  5  6  1  0
  5 13  1  0
  6 16  1  0
  7  8  1  0
  7  9  1  0
  8  9  1  0
  9 11  1  0
  9 12  1  0
 10 15  1  0
 12 14  1  0
M  END
>  <id>  (68) 
EN300-1936266

>  <smiles>  (68) 
COC=1C=CC(CC2(CO)CC2)=C(Br)C1O

>  <IUPAC Name>  (68) 
2-bromo-3-{[1-(hydroxymethyl)cyclopropyl]methyl}-6-methoxyphenol

>  <CAS>  (68) 
2228438-36-4

>  <URL>  (68) 
https://www.enaminestore.com/catalog/EN300-1936266

>  <ROCS_ShapeQuery>  (68) 
_x1604L0AP1_x0771L0AP1

>  <ROCS_TanimotoCombo>  (68) 
1.004 

>  <ROCS_ShapeTanimoto>  (68) 
0.473 

>  <ROCS_ColorTanimoto>  (68) 
0.532 

>  <ROCS_RefTversky>  (68) 
0.462 

>  <ROCS_RefColorTversky>  (68) 
0.606 

>  <ROCS_RefTverskyCombo>  (68) 
1.068 

>  <ROCS_FitTversky>  (68) 
1.053 

>  <ROCS_FitColorTversky>  (68) 
0.813 

>  <ROCS_FitTverskyCombo>  (68) 
1.866 

>  <ROCS_ColorScore>  (68) 
-5.799

>  <ROCS_Overlap>  (68) 
776.545

>  <ROCS_Rank>  (68) 
105                 

$$$$
untitled-dbase-1285_41
     RDKit          3D

 12 12  0  0  0  0  0  0  0  0999 V2000
   -4.5686   12.4632  -29.8666 C   0  0  0  0  0  0  0  0  0  0  0  0
   -5.0591   11.1153  -31.8108 C   0  0  0  0  0  0  0  0  0  0  0  0
   -5.5487   11.7807  -29.1461 C   0  0  0  0  0  0  0  0  0  0  0  0
   -6.2840   10.7655  -29.7579 C   0  0  0  0  0  0  0  0  0  0  0  0
   -4.3238   12.1306  -31.1990 C   0  0  0  0  0  0  0  0  0  0  0  0
   -6.0393   10.4328  -31.0903 C   0  0  0  0  0  0  0  0  0  0  0  0
   -5.7947   12.1528  -27.7208 C   0  0  0  0  0  0  0  0  0  0  0  0
   -5.0912   13.4377  -27.2559 C   0  0  0  0  0  0  0  0  0  0  0  0
   -7.2397   10.1071  -29.0397 O   0  0  0  0  0  0  0  0  0  0  0  0
   -5.6151   14.9006  -28.2026 S   0  0  0  0  0  0  0  0  0  0  0  0
   -3.1144   12.9732  -32.0877 Cl  0  0  0  0  0  0  0  0  0  0  0  0
   -7.0179    9.0592  -31.9565 Br  0  0  0  0  0  0  0  0  0  0  0  0
  1  3  2  0
  1  5  1  0
  2  5  2  0
  2  6  1  0
  3  4  1  0
  3  7  1  0
  4  6  2  0
  4  9  1  0
  5 11  1  0
  6 12  1  0
  7  8  1  0
  8 10  1  0
M  END
>  <id>  (69) 
EN300-1922923

>  <smiles>  (69) 
OC=1C(Br)=CC(Cl)=CC1CCS

>  <IUPAC Name>  (69) 
2-bromo-4-chloro-6-(2-sulfanylethyl)phenol

>  <CAS>  (69) 
2229491-54-5

>  <URL>  (69) 
https://www.enaminestore.com/catalog/EN300-1922923

>  <ROCS_ShapeQuery>  (69) 
_x1604L0AP1_x0771L0AP1

>  <ROCS_TanimotoCombo>  (69) 
1.004 

>  <ROCS_ShapeTanimoto>  (69) 
0.451 

>  <ROCS_ColorTanimoto>  (69) 
0.553 

>  <ROCS_RefTversky>  (69) 
0.412 

>  <ROCS_RefColorTversky>  (69) 
0.518 

>  <ROCS_RefTverskyCombo>  (69) 
0.930 

>  <ROCS_FitTversky>  (69) 
1.267 

>  <ROCS_FitColorTversky>  (69) 
1.139 

>  <ROCS_FitTverskyCombo>  (69) 
2.406 

>  <ROCS_ColorScore>  (69) 
-4.881

>  <ROCS_Overlap>  (69) 
688.151

>  <ROCS_Rank>  (69) 
106                 

$$$$
untitled-dbase-462_1292
     RDKit          3D

 14 14  0  0  0  0  0  0  0  0999 V2000
   -4.5707   12.4568  -29.8465 C   0  0  0  0  0  0  0  0  0  0  0  0
   -5.0532   11.1181  -31.7989 C   0  0  0  0  0  0  0  0  0  0  0  0
   -4.3201   12.1301  -31.1792 C   0  0  0  0  0  0  0  0  0  0  0  0
   -5.5543   11.7714  -29.1335 C   0  0  0  0  0  0  0  0  0  0  0  0
   -6.2874   10.7594  -29.7532 C   0  0  0  0  0  0  0  0  0  0  0  0
   -6.0369   10.4327  -31.0859 C   0  0  0  0  0  0  0  0  0  0  0  0
   -7.0910   13.4551  -26.3481 C   0  0  0  0  0  0  0  0  0  0  0  0
   -3.2690   12.8638  -31.9414 C   0  0  0  0  0  0  0  0  0  0  0  0
   -6.1950   13.4434  -27.5683 C   0  0  0  0  0  0  0  0  0  0  0  0
   -2.5323   13.9552  -31.1471 C   0  0  0  0  0  0  0  0  0  0  0  0
   -7.2461   10.1012  -29.0394 O   0  0  0  0  0  0  0  0  0  0  0  0
   -5.7879   12.1024  -27.8327 O   0  0  0  0  0  0  0  0  0  0  0  0
   -3.6584   15.2397  -30.5203 S   0  0  0  0  0  0  0  0  0  0  0  0
   -7.0126    9.0636  -31.9620 Br  0  0  0  0  0  0  0  0  0  0  0  0
  1  3  2  0
  1  4  1  0
  2  3  1  0
  2  6  2  0
  3  8  1  0
  4  5  2  0
  4 12  1  0
  5  6  1  0
  5 11  1  0
  6 14  1  0
  7  9  1  0
  8 10  1  0
  9 12  1  0
 10 13  1  0
M  END
>  <id>  (70) 
EN300-1920582

>  <smiles>  (70) 
CCOC=1C=C(CCS)C=C(Br)C1O

>  <IUPAC Name>  (70) 
2-bromo-6-ethoxy-4-(2-sulfanylethyl)phenol

>  <CAS>  (70) 
2229367-79-5

>  <URL>  (70) 
https://www.enaminestore.com/catalog/EN300-1920582

>  <ROCS_ShapeQuery>  (70) 
_x1604L0AP1_x0771L0AP1

>  <ROCS_TanimotoCombo>  (70) 
1.003 

>  <ROCS_ShapeTanimoto>  (70) 
0.506 

>  <ROCS_ColorTanimoto>  (70) 
0.497 

>  <ROCS_RefTversky>  (70) 
0.462 

>  <ROCS_RefColorTversky>  (70) 
0.516 

>  <ROCS_RefTverskyCombo>  (70) 
0.978 

>  <ROCS_FitTversky>  (70) 
1.229 

>  <ROCS_FitColorTversky>  (70) 
0.932 

>  <ROCS_FitTverskyCombo>  (70) 
2.161 

>  <ROCS_ColorScore>  (70) 
-4.881

>  <ROCS_Overlap>  (70) 
774.965

>  <ROCS_Rank>  (70) 
110                 

$$$$
untitled-dbase-195_5
     RDKit          3D

 11 11  0  0  0  0  0  0  0  0999 V2000
   -5.0494   11.1170  -31.8007 C   0  0  0  0  0  0  0  0  0  0  0  0
   -5.5571   11.7722  -29.1370 C   0  0  0  0  0  0  0  0  0  0  0  0
   -4.3181   12.1296  -31.1801 C   0  0  0  0  0  0  0  0  0  0  0  0
   -4.5718   12.4572  -29.8482 C   0  0  0  0  0  0  0  0  0  0  0  0
   -6.2885   10.7596  -29.7577 C   0  0  0  0  0  0  0  0  0  0  0  0
   -6.0347   10.4320  -31.0895 C   0  0  0  0  0  0  0  0  0  0  0  0
   -3.2956   12.8298  -31.9454 C   0  0  0  0  0  0  0  0  0  0  0  0
   -3.8045   13.5385  -29.1600 C   0  0  0  0  0  0  0  0  0  0  0  0
   -3.3240   14.0454  -32.1494 O   0  0  0  0  0  0  0  0  0  0  0  0
   -7.2445   10.1092  -29.0356 O   0  0  0  0  0  0  0  0  0  0  0  0
   -7.0093    9.0620  -31.9646 Br  0  0  0  0  0  0  0  0  0  0  0  0
  1  3  2  0
  1  6  1  0
  2  4  2  0
  2  5  1  0
  3  4  1  0
  3  7  1  0
  4  8  1  0
  5  6  2  0
  5 10  1  0
  6 11  1  0
  7  9  2  0
M  END
>  <id>  (71) 
EN300-1276582

>  <smiles>  (71) 
CC=1C=C(O)C(Br)=CC1C=O

>  <MDLNUMBER>  (71) 
MFCD28637640

>  <IUPAC Name>  (71) 
5-bromo-4-hydroxy-2-methylbenzaldehyde

>  <CAS>  (71) 
1232911-14-6

>  <URL>  (71) 
https://www.enaminestore.com/catalog/EN300-1276582

>  <ROCS_ShapeQuery>  (71) 
_x1604L0AP1_x0771L0AP1

>  <ROCS_TanimotoCombo>  (71) 
1.002 

>  <ROCS_ShapeTanimoto>  (71) 
0.506 

>  <ROCS_ColorTanimoto>  (71) 
0.497 

>  <ROCS_RefTversky>  (71) 
0.442 

>  <ROCS_RefColorTversky>  (71) 
0.515 

>  <ROCS_RefTverskyCombo>  (71) 
0.957 

>  <ROCS_FitTversky>  (71) 
1.400 

>  <ROCS_FitColorTversky>  (71) 
0.932 

>  <ROCS_FitTverskyCombo>  (71) 
2.332 

>  <ROCS_ColorScore>  (71) 
-4.879

>  <ROCS_Overlap>  (71) 
738.313

>  <ROCS_Rank>  (71) 
112                 

$$$$
untitled-dbase-1017_857
     RDKit          3D

 15 15  0  0  0  0  0  0  0  0999 V2000
   -4.5864   12.4705  -29.8440 C   0  0  0  0  0  0  0  0  0  0  0  0
   -5.0609   11.1310  -31.7978 C   0  0  0  0  0  0  0  0  0  0  0  0
   -4.3339   12.1468  -31.1771 C   0  0  0  0  0  0  0  0  0  0  0  0
   -5.5657   11.7783  -29.1316 C   0  0  0  0  0  0  0  0  0  0  0  0
   -6.2927   10.7625  -29.7524 C   0  0  0  0  0  0  0  0  0  0  0  0
   -6.0403   10.4388  -31.0855 C   0  0  0  0  0  0  0  0  0  0  0  0
   -6.5199   13.8308  -26.3332 C   0  0  0  0  0  0  0  0  0  0  0  0
   -3.2875   12.8877  -31.9386 C   0  0  0  0  0  0  0  0  0  0  0  0
   -5.5689   13.4616  -27.4516 C   0  0  0  0  0  0  0  0  0  0  0  0
   -1.5292   14.7050  -29.8178 N   0  0  0  0  0  0  0  0  0  0  0  0
   -3.1633   14.2835  -31.5002 N   0  0  0  0  0  0  0  0  0  0  0  0
   -2.3101   14.4975  -30.6230 N   0  0  0  0  0  0  0  0  0  0  0  0
   -7.2472   10.0977  -29.0392 O   0  0  0  0  0  0  0  0  0  0  0  0
   -5.8012   12.1064  -27.8304 O   0  0  0  0  0  0  0  0  0  0  0  0
   -7.0077    9.0647  -31.9630 Br  0  0  0  0  0  0  0  0  0  0  0  0
  1  3  2  0
  1  4  1  0
  2  3  1  0
  2  6  2  0
  3  8  1  0
  4  5  2  0
  4 14  1  0
  5  6  1  0
  5 13  1  0
  6 15  1  0
  7  9  1  0
  8 11  1  0
  9 14  1  0
 10 12  2  0
 11 12  2  0
M  CHG  2  10  -1  12   1
M  END
>  <id>  (72) 
EN300-1920269

>  <smiles>  (72) 
CCOC=1C=C(CN=[N+]=[N-])C=C(Br)C1O

>  <IUPAC Name>  (72) 
4-(azidomethyl)-2-bromo-6-ethoxyphenol

>  <CAS>  (72) 
2229349-97-5

>  <URL>  (72) 
https://www.enaminestore.com/catalog/EN300-1920269

>  <ROCS_ShapeQuery>  (72) 
_x1604L0AP1_x0771L0AP1

>  <ROCS_TanimotoCombo>  (72) 
1.002 

>  <ROCS_ShapeTanimoto>  (72) 
0.505 

>  <ROCS_ColorTanimoto>  (72) 
0.497 

>  <ROCS_RefTversky>  (72) 
0.473 

>  <ROCS_RefColorTversky>  (72) 
0.516 

>  <ROCS_RefTverskyCombo>  (72) 
0.989 

>  <ROCS_FitTversky>  (72) 
1.151 

>  <ROCS_FitColorTversky>  (72) 
0.932 

>  <ROCS_FitTverskyCombo>  (72) 
2.084 

>  <ROCS_ColorScore>  (72) 
-4.881

>  <ROCS_Overlap>  (72) 
795.374

>  <ROCS_Rank>  (72) 
113                 

$$$$
untitled-dbase-1318_1
     RDKit          3D

 12 12  0  0  0  0  0  0  0  0999 V2000
   -4.6045   12.4934  -29.8397 C   0  0  0  0  0  0  0  0  0  0  0  0
   -5.5766   11.7847  -29.1336 C   0  0  0  0  0  0  0  0  0  0  0  0
   -4.3497   12.1852  -31.1760 C   0  0  0  0  0  0  0  0  0  0  0  0
   -6.2937   10.7678  -29.7638 C   0  0  0  0  0  0  0  0  0  0  0  0
   -5.0668   11.1683  -31.8062 C   0  0  0  0  0  0  0  0  0  0  0  0
   -6.0388   10.4595  -31.1002 C   0  0  0  0  0  0  0  0  0  0  0  0
   -5.9450   10.6501  -34.1855 O   0  0  0  0  0  0  0  0  0  0  0  0
   -3.6957   11.8016  -33.9086 O   0  0  0  0  0  0  0  0  0  0  0  0
   -7.2358   10.0983  -29.0400 O   0  0  0  0  0  0  0  0  0  0  0  0
   -3.9636    9.4298  -33.5374 F   0  0  0  0  0  0  0  0  0  0  0  0
   -4.6911   10.8386  -33.4870 S   0  0  0  0  0  0  0  0  0  0  0  0
   -7.0364    9.0665  -31.9327 Br  0  0  0  0  0  0  0  0  0  0  0  0
  1  2  2  0
  1  3  1  0
  2  4  1  0
  3  5  2  0
  4  6  2  0
  4  9  1  0
  5  6  1  0
  5 11  1  0
  6 12  1  0
  7 11  2  0
  8 11  2  0
 10 11  1  0
M  END
>  <id>  (73) 
EN300-6493391

>  <smiles>  (73) 
OC=1C=CC=C(C1Br)S(=O)(=O)F

>  <IUPAC Name>  (73) 
2-bromo-3-hydroxybenzene-1-sulfonyl fluoride

>  <CAS>  (73) 
2247102-65-2

>  <URL>  (73) 
https://www.enaminestore.com/catalog/EN300-6493391

>  <ROCS_ShapeQuery>  (73) 
_x1604L0AP1_x0771L0AP1

>  <ROCS_TanimotoCombo>  (73) 
1.002 

>  <ROCS_ShapeTanimoto>  (73) 
0.448 

>  <ROCS_ColorTanimoto>  (73) 
0.554 

>  <ROCS_RefTversky>  (73) 
0.412 

>  <ROCS_RefColorTversky>  (73) 
0.519 

>  <ROCS_RefTverskyCombo>  (73) 
0.931 

>  <ROCS_FitTversky>  (73) 
1.239 

>  <ROCS_FitColorTversky>  (73) 
1.140 

>  <ROCS_FitTverskyCombo>  (73) 
2.378 

>  <ROCS_ColorScore>  (73) 
-4.884

>  <ROCS_Overlap>  (73) 
689.610

>  <ROCS_Rank>  (73) 
114                 

$$$$
untitled-dbase-1354_41
     RDKit          3D

 13 13  0  0  1  0  0  0  0  0999 V2000
   -4.6069   12.4941  -29.8410 C   0  0  0  0  0  0  0  0  0  0  0  0
   -4.3460   12.1754  -31.1737 C   0  0  0  0  0  0  0  0  0  0  0  0
   -5.5814   11.7901  -29.1335 C   0  0  0  0  0  0  0  0  0  0  0  0
   -5.0595   11.1528  -31.7988 C   0  0  0  0  0  0  0  0  0  0  0  0
   -6.2949   10.7675  -29.7586 C   0  0  0  0  0  0  0  0  0  0  0  0
   -6.0340   10.4489  -31.0913 C   0  0  0  0  0  0  0  0  0  0  0  0
   -3.2568   11.0971  -33.5533 C   0  0  0  0  0  0  0  0  0  0  0  0
   -5.6288   11.6366  -34.2191 C   0  0  0  0  0  0  0  0  0  0  0  0
   -4.7424   10.8505  -33.2281 C   0  0  2  0  0  0  0  0  0  0  0  0
   -6.6902    9.8650  -35.2734 N   0  0  0  0  0  0  0  0  0  0  0  0
   -7.2401   10.1020  -29.0357 O   0  0  0  0  0  0  0  0  0  0  0  0
   -6.8816   10.9746  -34.3537 O   0  0  0  0  0  0  0  0  0  0  0  0
   -7.0136    9.0516  -31.9334 Br  0  0  0  0  0  0  0  0  0  0  0  0
  1  2  2  0
  1  3  1  0
  2  4  1  0
  3  5  2  0
  4  6  2  0
  4  9  1  0
  5  6  1  0
  5 11  1  0
  6 13  1  0
  9  7  1  6
  8  9  1  0
  8 12  1  0
 10 12  1  0
M  END
>  <id>  (74) 
EN300-1904530

>  <smiles>  (74) 
CC(CON)C=1C=CC=C(O)C1Br

>  <IUPAC Name>  (74) 
3-[1-(aminooxy)propan-2-yl]-2-bromophenol

>  <CAS>  (74) 
2229357-85-9

>  <URL>  (74) 
https://www.enaminestore.com/catalog/EN300-1904530

>  <ROCS_ShapeQuery>  (74) 
_x1604L0AP1_x0771L0AP1

>  <ROCS_TanimotoCombo>  (74) 
1.002 

>  <ROCS_ShapeTanimoto>  (74) 
0.504 

>  <ROCS_ColorTanimoto>  (74) 
0.497 

>  <ROCS_RefTversky>  (74) 
0.455 

>  <ROCS_RefColorTversky>  (74) 
0.516 

>  <ROCS_RefTverskyCombo>  (74) 
0.971 

>  <ROCS_FitTversky>  (74) 
1.276 

>  <ROCS_FitColorTversky>  (74) 
0.933 

>  <ROCS_FitTverskyCombo>  (74) 
2.209 

>  <ROCS_ColorScore>  (74) 
-4.883

>  <ROCS_Overlap>  (74) 
761.559

>  <ROCS_Rank>  (74) 
115                 

$$$$
untitled-dbase-793_4
     RDKit          3D

 12 12  0  0  0  0  0  0  0  0999 V2000
   -4.6069   12.4898  -29.8650 C   0  0  0  0  0  0  0  0  0  0  0  0
   -4.3578   12.1684  -31.1992 C   0  0  0  0  0  0  0  0  0  0  0  0
   -5.5758   11.7882  -29.1476 C   0  0  0  0  0  0  0  0  0  0  0  0
   -5.0778   11.1453  -31.8162 C   0  0  0  0  0  0  0  0  0  0  0  0
   -6.2958   10.7652  -29.7647 C   0  0  0  0  0  0  0  0  0  0  0  0
   -6.0468   10.4437  -31.0990 C   0  0  0  0  0  0  0  0  0  0  0  0
   -5.9724   10.9798  -34.1732 C   0  0  0  0  0  0  0  0  0  0  0  0
   -6.0204   10.0442  -35.3536 C   0  0  0  0  0  0  0  0  0  0  0  0
   -4.7734   10.8400  -33.2477 C   0  0  0  0  0  0  0  0  0  0  0  0
   -6.8651   11.8054  -33.9855 O   0  0  0  0  0  0  0  0  0  0  0  0
   -7.2354   10.1020  -29.0323 O   0  0  0  0  0  0  0  0  0  0  0  0
   -7.0351    9.0459  -31.9299 Br  0  0  0  0  0  0  0  0  0  0  0  0
  1  2  2  0
  1  3  1  0
  2  4  1  0
  3  5  2  0
  4  6  2  0
  4  9  1  0
  5  6  1  0
  5 11  1  0
  6 12  1  0
  7  8  1  0
  7  9  1  0
  7 10  2  0
M  END
>  <id>  (75) 
EN300-1893325

>  <smiles>  (75) 
CC(=O)CC=1C=CC=C(O)C1Br

>  <MDLNUMBER>  (75) 
MFCD10566806

>  <IUPAC Name>  (75) 
1-(2-bromo-3-hydroxyphenyl)propan-2-one

>  <CAS>  (75) 
1379333-76-2

>  <URL>  (75) 
https://www.enaminestore.com/catalog/EN300-1893325

>  <ROCS_ShapeQuery>  (75) 
_x1604L0AP1_x0771L0AP1

>  <ROCS_TanimotoCombo>  (75) 
1.001 

>  <ROCS_ShapeTanimoto>  (75) 
0.504 

>  <ROCS_ColorTanimoto>  (75) 
0.497 

>  <ROCS_RefTversky>  (75) 
0.448 

>  <ROCS_RefColorTversky>  (75) 
0.516 

>  <ROCS_RefTverskyCombo>  (75) 
0.964 

>  <ROCS_FitTversky>  (75) 
1.330 

>  <ROCS_FitColorTversky>  (75) 
0.933 

>  <ROCS_FitTverskyCombo>  (75) 
2.263 

>  <ROCS_ColorScore>  (75) 
-4.882

>  <ROCS_Overlap>  (75) 
749.432

>  <ROCS_Rank>  (75) 
116                 

$$$$
untitled-dbase-465_137
     RDKit          3D

 13 13  0  0  0  0  0  0  0  0999 V2000
   -4.6287   12.5155  -29.8848 C   0  0  0  0  0  0  0  0  0  0  0  0
   -5.1002   11.1564  -31.8258 C   0  0  0  0  0  0  0  0  0  0  0  0
   -4.3853   12.1889  -31.2188 C   0  0  0  0  0  0  0  0  0  0  0  0
   -5.5871   11.8094  -29.1576 C   0  0  0  0  0  0  0  0  0  0  0  0
   -6.3021   10.7769  -29.7645 C   0  0  0  0  0  0  0  0  0  0  0  0
   -6.0587   10.4504  -31.0986 C   0  0  0  0  0  0  0  0  0  0  0  0
   -6.8107   13.1287  -27.6025 C   0  0  0  0  0  0  0  0  0  0  0  0
   -3.3612   12.9446  -31.9961 C   0  0  0  0  0  0  0  0  0  0  0  0
   -2.0542   13.7368  -30.2523 N   0  0  0  0  0  0  0  0  0  0  0  0
   -7.2361   10.0987  -29.0370 O   0  0  0  0  0  0  0  0  0  0  0  0
   -5.8140   12.1405  -27.8557 O   0  0  0  0  0  0  0  0  0  0  0  0
   -2.0929   12.8047  -31.3678 O   0  0  0  0  0  0  0  0  0  0  0  0
   -7.0103    9.0538  -31.9576 Br  0  0  0  0  0  0  0  0  0  0  0  0
  1  3  2  0
  1  4  1  0
  2  3  1  0
  2  6  2  0
  3  8  1  0
  4  5  2  0
  4 11  1  0
  5  6  1  0
  5 10  1  0
  6 13  1  0
  7 11  1  0
  8 12  1  0
  9 12  1  0
M  END
>  <id>  (76) 
EN300-1926992

>  <smiles>  (76) 
COC=1C=C(CON)C=C(Br)C1O

>  <IUPAC Name>  (76) 
4-[(aminooxy)methyl]-2-bromo-6-methoxyphenol

>  <CAS>  (76) 
2229002-57-5

>  <URL>  (76) 
https://www.enaminestore.com/catalog/EN300-1926992

>  <ROCS_ShapeQuery>  (76) 
_x1604L0AP1_x0771L0AP1

>  <ROCS_TanimotoCombo>  (76) 
1.000 

>  <ROCS_ShapeTanimoto>  (76) 
0.504 

>  <ROCS_ColorTanimoto>  (76) 
0.497 

>  <ROCS_RefTversky>  (76) 
0.456 

>  <ROCS_RefColorTversky>  (76) 
0.515 

>  <ROCS_RefTverskyCombo>  (76) 
0.972 

>  <ROCS_FitTversky>  (76) 
1.261 

>  <ROCS_FitColorTversky>  (76) 
0.932 

>  <ROCS_FitTverskyCombo>  (76) 
2.193 

>  <ROCS_ColorScore>  (76) 
-4.879

>  <ROCS_Overlap>  (76) 
764.254

>  <ROCS_Rank>  (76) 
119                 

$$$$
untitled-dbase-1053_145
     RDKit          3D

 13 13  0  0  0  0  0  0  0  0999 V2000
   -4.6042   12.4909  -29.8309 C   0  0  0  0  0  0  0  0  0  0  0  0
   -5.5793   11.7877  -29.1238 C   0  0  0  0  0  0  0  0  0  0  0  0
   -5.0653   11.1580  -31.7925 C   0  0  0  0  0  0  0  0  0  0  0  0
   -4.3472   12.1761  -31.1653 C   0  0  0  0  0  0  0  0  0  0  0  0
   -6.2975   10.7696  -29.7509 C   0  0  0  0  0  0  0  0  0  0  0  0
   -6.0405   10.4547  -31.0853 C   0  0  0  0  0  0  0  0  0  0  0  0
   -3.3042   12.9285  -31.9203 C   0  0  0  0  0  0  0  0  0  0  0  0
   -3.1425   12.4632  -33.3722 C   0  0  0  0  0  0  0  0  0  0  0  0
   -1.5398   10.2458  -31.5267 N   0  0  0  0  0  0  0  0  0  0  0  0
   -2.7819   11.0431  -33.3990 N   0  0  0  0  0  0  0  0  0  0  0  0
   -2.1340   10.6315  -32.4206 N   0  0  0  0  0  0  0  0  0  0  0  0
   -7.2426   10.1003  -29.0317 O   0  0  0  0  0  0  0  0  0  0  0  0
   -6.9958    9.0765  -31.9688 Br  0  0  0  0  0  0  0  0  0  0  0  0
  1  2  2  0
  1  4  1  0
  2  5  1  0
  3  4  2  0
  3  6  1  0
  4  7  1  0
  5  6  2  0
  5 12  1  0
  6 13  1  0
  7  8  1  0
  8 10  1  0
  9 11  2  0
 10 11  2  0
M  CHG  2   9  -1  11   1
M  END
>  <id>  (77) 
EN300-1904767

>  <smiles>  (77) 
OC=1C=CC(CCN=[N+]=[N-])=CC1Br

>  <IUPAC Name>  (77) 
4-(2-azidoethyl)-2-bromophenol

>  <CAS>  (77) 
1826824-07-0

>  <URL>  (77) 
https://www.enaminestore.com/catalog/EN300-1904767

>  <ROCS_ShapeQuery>  (77) 
_x1604L0AP1_x0771L0AP1

>  <ROCS_TanimotoCombo>  (77) 
1.000 

>  <ROCS_ShapeTanimoto>  (77) 
0.447 

>  <ROCS_ColorTanimoto>  (77) 
0.553 

>  <ROCS_RefTversky>  (77) 
0.420 

>  <ROCS_RefColorTversky>  (77) 
0.518 

>  <ROCS_RefTverskyCombo>  (77) 
0.938 

>  <ROCS_FitTversky>  (77) 
1.167 

>  <ROCS_FitColorTversky>  (77) 
1.138 

>  <ROCS_FitTverskyCombo>  (77) 
2.306 

>  <ROCS_ColorScore>  (77) 
-4.877

>  <ROCS_Overlap>  (77) 
704.307

>  <ROCS_Rank>  (77) 
120                 

$$$$
untitled-dbase-1417_260
     RDKit          3D

 14 14  0  0  0  0  0  0  0  0999 V2000
   -4.6199   12.5050  -29.8742 C   0  0  0  0  0  0  0  0  0  0  0  0
   -5.0906   11.1488  -31.8173 C   0  0  0  0  0  0  0  0  0  0  0  0
   -4.3732   12.1779  -31.2075 C   0  0  0  0  0  0  0  0  0  0  0  0
   -5.5838   11.8029  -29.1506 C   0  0  0  0  0  0  0  0  0  0  0  0
   -6.3012   10.7737  -29.7604 C   0  0  0  0  0  0  0  0  0  0  0  0
   -6.0546   10.4466  -31.0938 C   0  0  0  0  0  0  0  0  0  0  0  0
   -6.8071   13.1268  -27.5992 C   0  0  0  0  0  0  0  0  0  0  0  0
   -3.3432   12.9295  -31.9809 C   0  0  0  0  0  0  0  0  0  0  0  0
   -2.6530   14.0220  -31.1617 C   0  0  0  0  0  0  0  0  0  0  0  0
   -0.7162   12.9003  -30.5556 N   0  0  0  0  0  0  0  0  0  0  0  0
   -7.2407   10.0993  -29.0364 O   0  0  0  0  0  0  0  0  0  0  0  0
   -5.8138   12.1344  -27.8493 O   0  0  0  0  0  0  0  0  0  0  0  0
   -1.9741   13.4351  -30.0588 O   0  0  0  0  0  0  0  0  0  0  0  0
   -7.0093    9.0545  -31.9566 Br  0  0  0  0  0  0  0  0  0  0  0  0
  1  3  2  0
  1  4  1  0
  2  3  1  0
  2  6  2  0
  3  8  1  0
  4  5  2  0
  4 12  1  0
  5  6  1  0
  5 11  1  0
  6 14  1  0
  7 12  1  0
  8  9  1  0
  9 13  1  0
 10 13  1  0
M  END
>  <id>  (78) 
EN300-1926996

>  <smiles>  (78) 
COC=1C=C(CCON)C=C(Br)C1O

>  <IUPAC Name>  (78) 
4-[2-(aminooxy)ethyl]-2-bromo-6-methoxyphenol

>  <CAS>  (78) 
2228419-19-8

>  <URL>  (78) 
https://www.enaminestore.com/catalog/EN300-1926996

>  <ROCS_ShapeQuery>  (78) 
_x1604L0AP1_x0771L0AP1

>  <ROCS_TanimotoCombo>  (78) 
0.998 

>  <ROCS_ShapeTanimoto>  (78) 
0.501 

>  <ROCS_ColorTanimoto>  (78) 
0.497 

>  <ROCS_RefTversky>  (78) 
0.462 

>  <ROCS_RefColorTversky>  (78) 
0.516 

>  <ROCS_RefTverskyCombo>  (78) 
0.977 

>  <ROCS_FitTversky>  (78) 
1.204 

>  <ROCS_FitColorTversky>  (78) 
0.932 

>  <ROCS_FitTverskyCombo>  (78) 
2.136 

>  <ROCS_ColorScore>  (78) 
-4.880

>  <ROCS_Overlap>  (78) 
774.299

>  <ROCS_Rank>  (78) 
125                 

$$$$
untitled-dbase-629_301
     RDKit          3D

 15 15  0  0  0  0  0  0  0  0999 V2000
   -4.3723   12.1646  -31.2364 C   0  0  0  0  0  0  0  0  0  0  0  0
   -4.6041   12.4925  -29.9006 C   0  0  0  0  0  0  0  0  0  0  0  0
   -5.1007   11.1391  -31.8394 C   0  0  0  0  0  0  0  0  0  0  0  0
   -5.5641   11.7947  -29.1677 C   0  0  0  0  0  0  0  0  0  0  0  0
   -6.2924   10.7692  -29.7706 C   0  0  0  0  0  0  0  0  0  0  0  0
   -6.0607   10.4414  -31.1065 C   0  0  0  0  0  0  0  0  0  0  0  0
   -4.9909   13.1871  -27.3269 C   0  0  0  0  0  0  0  0  0  0  0  0
   -4.8150   10.8280  -33.2735 C   0  0  0  0  0  0  0  0  0  0  0  0
   -6.0500   10.9203  -34.1750 C   0  0  0  0  0  0  0  0  0  0  0  0
   -5.8695    8.2781  -36.1441 N   0  0  0  0  0  0  0  0  0  0  0  0
   -5.6844   10.5803  -35.5527 N   0  0  0  0  0  0  0  0  0  0  0  0
   -5.7823    9.3785  -35.8568 N   0  0  0  0  0  0  0  0  0  0  0  0
   -7.2264   10.1014  -29.0328 O   0  0  0  0  0  0  0  0  0  0  0  0
   -5.7790   12.1267  -27.8639 O   0  0  0  0  0  0  0  0  0  0  0  0
   -7.0654    9.0466  -31.9240 Br  0  0  0  0  0  0  0  0  0  0  0  0
  1  2  2  0
  1  3  1  0
  2  4  1  0
  3  6  2  0
  3  8  1  0
  4  5  2  0
  4 14  1  0
  5  6  1  0
  5 13  1  0
  6 15  1  0
  7 14  1  0
  8  9  1  0
  9 11  1  0
 10 12  2  0
 11 12  2  0
M  CHG  2  10  -1  12   1
M  END
>  <id>  (79) 
EN300-1936288

>  <smiles>  (79) 
COC=1C=CC(CCN=[N+]=[N-])=C(Br)C1O

>  <IUPAC Name>  (79) 
3-(2-azidoethyl)-2-bromo-6-methoxyphenol

>  <CAS>  (79) 
2228430-74-6

>  <URL>  (79) 
https://www.enaminestore.com/catalog/EN300-1936288

>  <ROCS_ShapeQuery>  (79) 
_x1604L0AP1_x0771L0AP1

>  <ROCS_TanimotoCombo>  (79) 
0.997 

>  <ROCS_ShapeTanimoto>  (79) 
0.500 

>  <ROCS_ColorTanimoto>  (79) 
0.497 

>  <ROCS_RefTversky>  (79) 
0.471 

>  <ROCS_RefColorTversky>  (79) 
0.516 

>  <ROCS_RefTverskyCombo>  (79) 
0.986 

>  <ROCS_FitTversky>  (79) 
1.145 

>  <ROCS_FitColorTversky>  (79) 
0.932 

>  <ROCS_FitTverskyCombo>  (79) 
2.077 

>  <ROCS_ColorScore>  (79) 
-4.880

>  <ROCS_Overlap>  (79) 
790.759

>  <ROCS_Rank>  (79) 
126                 

$$$$
untitled-dbase-2201_128
     RDKit          3D

 16 17  0  0  0  0  0  0  0  0999 V2000
   -4.3533   12.1691  -31.2012 C   0  0  0  0  0  0  0  0  0  0  0  0
   -4.6025   12.4935  -29.8677 C   0  0  0  0  0  0  0  0  0  0  0  0
   -5.0738   11.1453  -31.8164 C   0  0  0  0  0  0  0  0  0  0  0  0
   -5.5722   11.7940  -29.1493 C   0  0  0  0  0  0  0  0  0  0  0  0
   -6.2927   10.7701  -29.7644 C   0  0  0  0  0  0  0  0  0  0  0  0
   -6.0434   10.4458  -31.0980 C   0  0  0  0  0  0  0  0  0  0  0  0
   -4.2879    9.4366  -33.5786 C   0  0  0  0  0  0  0  0  0  0  0  0
   -3.3236   10.5804  -33.6217 C   0  0  0  0  0  0  0  0  0  0  0  0
   -4.7701   10.8350  -33.2467 C   0  0  0  0  0  0  0  0  0  0  0  0
   -5.0232   13.1805  -27.2967 C   0  0  0  0  0  0  0  0  0  0  0  0
   -5.6463   11.5358  -34.2446 C   0  0  0  0  0  0  0  0  0  0  0  0
   -6.6688    9.7006  -35.2260 N   0  0  0  0  0  0  0  0  0  0  0  0
   -7.2362   10.1007  -29.0403 O   0  0  0  0  0  0  0  0  0  0  0  0
   -5.8041   12.1217  -27.8474 O   0  0  0  0  0  0  0  0  0  0  0  0
   -6.8861   10.8446  -34.3558 O   0  0  0  0  0  0  0  0  0  0  0  0
   -7.0338    9.0464  -31.9265 Br  0  0  0  0  0  0  0  0  0  0  0  0
  1  2  2  0
  1  3  1  0
  2  4  1  0
  3  6  2  0
  3  9  1  0
  4  5  2  0
  4 14  1  0
  5  6  1  0
  5 13  1  0
  6 16  1  0
  7  8  1  0
  7  9  1  0
  8  9  1  0
  9 11  1  0
 10 14  1  0
 11 15  1  0
 12 15  1  0
M  END
>  <id>  (80) 
EN300-2004964

>  <smiles>  (80) 
COC=1C=CC(=C(Br)C1O)C2(CON)CC2

>  <IUPAC Name>  (80) 
3-{1-[(aminooxy)methyl]cyclopropyl}-2-bromo-6-methoxyphenol

>  <CAS>  (80) 
2228485-31-0

>  <URL>  (80) 
https://www.enaminestore.com/catalog/EN300-2004964

>  <ROCS_ShapeQuery>  (80) 
_x1604L0AP1_x0771L0AP1

>  <ROCS_TanimotoCombo>  (80) 
0.997 

>  <ROCS_ShapeTanimoto>  (80) 
0.500 

>  <ROCS_ColorTanimoto>  (80) 
0.498 

>  <ROCS_RefTversky>  (80) 
0.479 

>  <ROCS_RefColorTversky>  (80) 
0.516 

>  <ROCS_RefTverskyCombo>  (80) 
0.996 

>  <ROCS_FitTversky>  (80) 
1.091 

>  <ROCS_FitColorTversky>  (80) 
0.933 

>  <ROCS_FitTverskyCombo>  (80) 
2.024 

>  <ROCS_ColorScore>  (80) 
-4.885

>  <ROCS_Overlap>  (80) 
806.773

>  <ROCS_Rank>  (80) 
127                 

$$$$
untitled-dbase-53_5
     RDKit          3D

 11 11  0  0  0  0  0  0  0  0999 V2000
   -4.6138   12.4970  -29.8452 C   0  0  0  0  0  0  0  0  0  0  0  0
   -5.5843   11.7926  -29.1328 C   0  0  0  0  0  0  0  0  0  0  0  0
   -5.0778   11.1576  -31.8017 C   0  0  0  0  0  0  0  0  0  0  0  0
   -4.3606   12.1795  -31.1797 C   0  0  0  0  0  0  0  0  0  0  0  0
   -6.3015   10.7706  -29.7548 C   0  0  0  0  0  0  0  0  0  0  0  0
   -6.0483   10.4531  -31.0893 C   0  0  0  0  0  0  0  0  0  0  0  0
   -2.6964   12.0950  -33.0710 C   0  0  0  0  0  0  0  0  0  0  0  0
   -2.2136   13.4916  -31.0286 C   0  0  0  0  0  0  0  0  0  0  0  0
   -3.3227   12.9332  -31.9403 C   0  0  0  0  0  0  0  0  0  0  0  0
   -7.2419   10.1003  -29.0305 O   0  0  0  0  0  0  0  0  0  0  0  0
   -7.0025    9.0697  -31.9658 Br  0  0  0  0  0  0  0  0  0  0  0  0
  1  2  2  0
  1  4  1  0
  2  5  1  0
  3  4  2  0
  3  6  1  0
  4  9  1  0
  5  6  2  0
  5 10  1  0
  6 11  1  0
  7  9  1  0
  8  9  1  0
M  END
>  <id>  (81) 
EN300-127045

>  <smiles>  (81) 
CC(C)C=1C=CC(O)=C(Br)C1

>  <MDLNUMBER>  (81) 
MFCD08700373

>  <IUPAC Name>  (81) 
2-bromo-4-(propan-2-yl)phenol

>  <CAS>  (81) 
19432-27-0

>  <Purity>  (81) 
95

>  <URL>  (81) 
https://www.enaminestore.com/catalog/EN300-127045

>  <ROCS_ShapeQuery>  (81) 
_x1604L0AP1_x0771L0AP1

>  <ROCS_TanimotoCombo>  (81) 
0.996 

>  <ROCS_ShapeTanimoto>  (81) 
0.500 

>  <ROCS_ColorTanimoto>  (81) 
0.497 

>  <ROCS_RefTversky>  (81) 
0.436 

>  <ROCS_RefColorTversky>  (81) 
0.515 

>  <ROCS_RefTverskyCombo>  (81) 
0.952 

>  <ROCS_FitTversky>  (81) 
1.410 

>  <ROCS_FitColorTversky>  (81) 
0.932 

>  <ROCS_FitTverskyCombo>  (81) 
2.341 

>  <ROCS_ColorScore>  (81) 
-4.877

>  <ROCS_Overlap>  (81) 
729.190

>  <ROCS_Rank>  (81) 
128                 

$$$$
untitled-dbase-2293_0
     RDKit          3D

 10 11  0  0  0  0  0  0  0  0999 V2000
   -5.5710   11.7842  -29.1257 C   0  0  0  0  0  0  0  0  0  0  0  0
   -5.0699   11.1200  -31.8358 C   0  0  0  0  0  0  0  0  0  0  0  0
   -4.6210   12.4380  -29.8743 C   0  0  0  0  0  0  0  0  0  0  0  0
   -4.3781   12.1161  -31.1878 C   0  0  0  0  0  0  0  0  0  0  0  0
   -6.2918   10.7664  -29.7557 C   0  0  0  0  0  0  0  0  0  0  0  0
   -6.0428   10.4365  -31.1021 C   0  0  0  0  0  0  0  0  0  0  0  0
   -3.5827   13.5200  -29.8474 C   0  0  0  0  0  0  0  0  0  0  0  0
   -3.3065   13.1537  -31.3440 C   0  0  0  0  0  0  0  0  0  0  0  0
   -7.2406   10.1032  -29.0328 O   0  0  0  0  0  0  0  0  0  0  0  0
   -7.0202    9.0558  -31.9607 Br  0  0  0  0  0  0  0  0  0  0  0  0
  1  3  2  0
  1  5  1  0
  2  4  2  0
  2  6  1  0
  3  4  1  0
  3  7  1  0
  4  8  1  0
  5  6  2  0
  5  9  1  0
  6 10  1  0
  7  8  1  0
M  END
>  <id>  (82) 
EN300-45428708

>  <smiles>  (82) 
OC=1C=C2CCC2=CC1Br

>  <IUPAC Name>  (82) 
4-bromobicyclo[4.2.0]octa-1(6),2,4-trien-3-ol

>  <URL>  (82) 
https://www.enaminestore.com/catalog/EN300-45428708

>  <ROCS_ShapeQuery>  (82) 
_x1604L0AP1_x0771L0AP1

>  <ROCS_TanimotoCombo>  (82) 
0.996 

>  <ROCS_ShapeTanimoto>  (82) 
0.498 

>  <ROCS_ColorTanimoto>  (82) 
0.498 

>  <ROCS_RefTversky>  (82) 
0.432 

>  <ROCS_RefColorTversky>  (82) 
0.518 

>  <ROCS_RefTverskyCombo>  (82) 
0.950 

>  <ROCS_FitTversky>  (82) 
1.442 

>  <ROCS_FitColorTversky>  (82) 
0.928 

>  <ROCS_FitTverskyCombo>  (82) 
2.370 

>  <ROCS_ColorScore>  (82) 
-4.902

>  <ROCS_Overlap>  (82) 
721.855

>  <ROCS_Rank>  (82) 
129                 

$$$$
untitled-dbase-730_20
     RDKit          3D

 11 11  0  0  0  0  0  0  0  0999 V2000
   -4.5838   12.4662  -29.8259 C   0  0  0  0  0  0  0  0  0  0  0  0
   -5.5674   11.7726  -29.1209 C   0  0  0  0  0  0  0  0  0  0  0  0
   -5.0511   11.1352  -31.7873 C   0  0  0  0  0  0  0  0  0  0  0  0
   -4.3257   12.1475  -31.1592 C   0  0  0  0  0  0  0  0  0  0  0  0
   -6.2929   10.7603  -29.7491 C   0  0  0  0  0  0  0  0  0  0  0  0
   -6.0348   10.4416  -31.0823 C   0  0  0  0  0  0  0  0  0  0  0  0
   -3.2994   12.8705  -31.8934 C   0  0  0  0  0  0  0  0  0  0  0  0
   -2.6180   13.8574  -31.2178 N   0  0  0  0  0  0  0  0  0  0  0  0
   -7.2478   10.1023  -29.0325 O   0  0  0  0  0  0  0  0  0  0  0  0
   -2.9391   12.5026  -33.4874 S   0  0  0  0  0  0  0  0  0  0  0  0
   -7.0015    9.0728  -31.9681 Br  0  0  0  0  0  0  0  0  0  0  0  0
  1  2  2  0
  1  4  1  0
  2  5  1  0
  3  4  2  0
  3  6  1  0
  4  7  1  0
  5  6  2  0
  5  9  1  0
  6 11  1  0
  7  8  1  0
  7 10  2  0
M  END
>  <id>  (83) 
EN300-1894834

>  <smiles>  (83) 
NC(=S)C=1C=CC(O)=C(Br)C1

>  <MDLNUMBER>  (83) 
MFCD09705416

>  <IUPAC Name>  (83) 
3-bromo-4-hydroxybenzene-1-carbothioamide

>  <CAS>  (83) 
25984-64-9

>  <URL>  (83) 
https://www.enaminestore.com/catalog/EN300-1894834

>  <ROCS_ShapeQuery>  (83) 
_x1604L0AP1_x0771L0AP1

>  <ROCS_TanimotoCombo>  (83) 
0.996 

>  <ROCS_ShapeTanimoto>  (83) 
0.499 

>  <ROCS_ColorTanimoto>  (83) 
0.497 

>  <ROCS_RefTversky>  (83) 
0.436 

>  <ROCS_RefColorTversky>  (83) 
0.515 

>  <ROCS_RefTverskyCombo>  (83) 
0.951 

>  <ROCS_FitTversky>  (83) 
1.407 

>  <ROCS_FitColorTversky>  (83) 
0.932 

>  <ROCS_FitTverskyCombo>  (83) 
2.339 

>  <ROCS_ColorScore>  (83) 
-4.878

>  <ROCS_Overlap>  (83) 
728.700

>  <ROCS_Rank>  (83) 
130                 

$$$$
untitled-dbase-2090_0
     RDKit          3D

 11 11  0  0  0  0  0  0  0  0999 V2000
   -4.5765   12.4578  -29.8199 C   0  0  0  0  0  0  0  0  0  0  0  0
   -5.5633   11.7667  -29.1168 C   0  0  0  0  0  0  0  0  0  0  0  0
   -5.0464   11.1312  -31.7836 C   0  0  0  0  0  0  0  0  0  0  0  0
   -4.3181   12.1401  -31.1533 C   0  0  0  0  0  0  0  0  0  0  0  0
   -6.2916   10.7578  -29.7472 C   0  0  0  0  0  0  0  0  0  0  0  0
   -6.0332   10.4400  -31.0806 C   0  0  0  0  0  0  0  0  0  0  0  0
   -3.2885   12.8606  -31.8855 C   0  0  0  0  0  0  0  0  0  0  0  0
   -3.0255   14.2849  -31.4914 C   0  0  0  0  0  0  0  0  0  0  0  0
   -2.6188   12.3918  -32.8083 O   0  0  0  0  0  0  0  0  0  0  0  0
   -7.2495   10.1021  -29.0324 O   0  0  0  0  0  0  0  0  0  0  0  0
   -7.0037    9.0758  -31.9693 Br  0  0  0  0  0  0  0  0  0  0  0  0
  1  2  2  0
  1  4  1  0
  2  5  1  0
  3  4  2  0
  3  6  1  0
  4  7  1  0
  5  6  2  0
  5 10  1  0
  6 11  1  0
  7  8  1  0
  7  9  2  0
M  END
>  <id>  (84) 
EN300-261215

>  <smiles>  (84) 
CC(=O)C=1C=CC(O)=C(Br)C1

>  <MDLNUMBER>  (84) 
MFCD03208974

>  <IUPAC Name>  (84) 
1-(3-bromo-4-hydroxyphenyl)ethan-1-one

>  <CAS>  (84) 
1836-06-2

>  <Purity>  (84) 
95

>  <URL>  (84) 
https://www.enaminestore.com/catalog/EN300-261215

>  <MP>  (84) 
98-99

>  <ROCS_ShapeQuery>  (84) 
_x1604L0AP1_x0771L0AP1

>  <ROCS_TanimotoCombo>  (84) 
0.996 

>  <ROCS_ShapeTanimoto>  (84) 
0.499 

>  <ROCS_ColorTanimoto>  (84) 
0.497 

>  <ROCS_RefTversky>  (84) 
0.438 

>  <ROCS_RefColorTversky>  (84) 
0.515 

>  <ROCS_RefTverskyCombo>  (84) 
0.953 

>  <ROCS_FitTversky>  (84) 
1.387 

>  <ROCS_FitColorTversky>  (84) 
0.932 

>  <ROCS_FitTverskyCombo>  (84) 
2.319 

>  <ROCS_ColorScore>  (84) 
-4.878

>  <ROCS_Overlap>  (84) 
732.216

>  <ROCS_Rank>  (84) 
131                 

$$$$
untitled-dbase-1051_162
     RDKit          3D

 14 14  0  0  0  0  0  0  0  0999 V2000
   -4.2615   11.6972  -30.5169 C   0  0  0  0  0  0  0  0  0  0  0  0
   -4.4425   11.3433  -31.8539 C   0  0  0  0  0  0  0  0  0  0  0  0
   -5.1929   11.2992  -29.5578 C   0  0  0  0  0  0  0  0  0  0  0  0
   -5.5549   10.5915  -32.2319 C   0  0  0  0  0  0  0  0  0  0  0  0
   -6.3053   10.5473  -29.9358 C   0  0  0  0  0  0  0  0  0  0  0  0
   -6.4864   10.1935  -31.2728 C   0  0  0  0  0  0  0  0  0  0  0  0
   -4.0329    8.4152  -33.3160 C   0  0  0  0  0  0  0  0  0  0  0  0
   -4.9792    8.6989  -35.6071 C   0  0  0  0  0  0  0  0  0  0  0  0
   -5.7047   10.2347  -33.6928 C   0  0  0  0  0  0  0  0  0  0  0  0
   -6.4128    7.7544  -33.7819 C   0  0  0  0  0  0  0  0  0  0  0  0
   -5.3091    8.7853  -34.1057 C   0  0  0  0  0  0  0  0  0  0  0  0
   -7.1947   10.1770  -28.9709 O   0  0  0  0  0  0  0  0  0  0  0  0
   -6.2428    6.5672  -34.5451 O   0  0  0  0  0  0  0  0  0  0  0  0
   -8.0076    9.1673  -31.7765 Br  0  0  0  0  0  0  0  0  0  0  0  0
  1  2  2  0
  1  3  1  0
  2  4  1  0
  3  5  2  0
  4  6  2  0
  4  9  1  0
  5  6  1  0
  5 12  1  0
  6 14  1  0
  7 11  1  0
  8 11  1  0
  9 11  1  0
 10 11  1  0
 10 13  1  0
M  END
>  <id>  (85) 
EN300-1904801

>  <smiles>  (85) 
CC(C)(CO)CC=1C=CC=C(O)C1Br

>  <IUPAC Name>  (85) 
2-bromo-3-(3-hydroxy-2,2-dimethylpropyl)phenol

>  <CAS>  (85) 
2229441-34-1

>  <URL>  (85) 
https://www.enaminestore.com/catalog/EN300-1904801

>  <ROCS_ShapeQuery>  (85) 
_x1604L0AP1_x0771L0AP1

>  <ROCS_TanimotoCombo>  (85) 
0.996 

>  <ROCS_ShapeTanimoto>  (85) 
0.461 

>  <ROCS_ColorTanimoto>  (85) 
0.534 

>  <ROCS_RefTversky>  (85) 
0.435 

>  <ROCS_RefColorTversky>  (85) 
0.608 

>  <ROCS_RefTverskyCombo>  (85) 
1.043 

>  <ROCS_FitTversky>  (85) 
1.148 

>  <ROCS_FitColorTversky>  (85) 
0.815 

>  <ROCS_FitTverskyCombo>  (85) 
1.964 

>  <ROCS_ColorScore>  (85) 
-5.817

>  <ROCS_Overlap>  (85) 
729.901

>  <ROCS_Rank>  (85) 
132                 

$$$$
untitled-dbase-1533_1
     RDKit          3D

 11 11  0  0  0  0  0  0  0  0999 V2000
   -5.0476   11.1145  -31.8024 C   0  0  0  0  0  0  0  0  0  0  0  0
   -5.5531   11.7720  -29.1388 C   0  0  0  0  0  0  0  0  0  0  0  0
   -4.3148   12.1267  -31.1828 C   0  0  0  0  0  0  0  0  0  0  0  0
   -6.2860   10.7598  -29.7585 C   0  0  0  0  0  0  0  0  0  0  0  0
   -4.5675   12.4555  -29.8510 C   0  0  0  0  0  0  0  0  0  0  0  0
   -6.0332   10.4311  -31.0903 C   0  0  0  0  0  0  0  0  0  0  0  0
   -3.2941   12.8131  -31.9658 C   0  0  0  0  0  0  0  0  0  0  0  0
   -3.5476   13.4358  -32.9982 O   0  0  0  0  0  0  0  0  0  0  0  0
   -7.2420   10.1102  -29.0357 O   0  0  0  0  0  0  0  0  0  0  0  0
   -3.6832   13.7017  -29.0471 Cl  0  0  0  0  0  0  0  0  0  0  0  0
   -7.0100    9.0607  -31.9633 Br  0  0  0  0  0  0  0  0  0  0  0  0
  1  3  2  0
  1  6  1  0
  2  4  1  0
  2  5  2  0
  3  5  1  0
  3  7  1  0
  4  6  2  0
  4  9  1  0
  5 10  1  0
  6 11  1  0
  7  8  2  0
M  END
>  <id>  (86) 
EN300-1276897

>  <smiles>  (86) 
OC=1C=C(Cl)C(C=O)=CC1Br

>  <MDLNUMBER>  (86) 
MFCD30661254

>  <IUPAC Name>  (86) 
5-bromo-2-chloro-4-hydroxybenzaldehyde

>  <CAS>  (86) 
957774-27-5

>  <Purity>  (86) 
95

>  <URL>  (86) 
https://www.enaminestore.com/catalog/EN300-1276897

>  <MP>  (86) 
149-153

>  <ROCS_ShapeQuery>  (86) 
_x1604L0AP1_x0771L0AP1

>  <ROCS_TanimotoCombo>  (86) 
0.994 

>  <ROCS_ShapeTanimoto>  (86) 
0.498 

>  <ROCS_ColorTanimoto>  (86) 
0.497 

>  <ROCS_RefTversky>  (86) 
0.436 

>  <ROCS_RefColorTversky>  (86) 
0.515 

>  <ROCS_RefTverskyCombo>  (86) 
0.951 

>  <ROCS_FitTversky>  (86) 
1.399 

>  <ROCS_FitColorTversky>  (86) 
0.932 

>  <ROCS_FitTverskyCombo>  (86) 
2.331 

>  <ROCS_ColorScore>  (86) 
-4.879

>  <ROCS_Overlap>  (86) 
728.184

>  <ROCS_Rank>  (86) 
136                 

$$$$
untitled-dbase-1704_4
     RDKit          3D

 11 11  0  0  0  0  0  0  0  0999 V2000
   -3.1134   14.2405  -31.3867 C   0  0  0  0  0  0  0  0  0  0  0  0
   -4.5677   12.4494  -29.8145 C   0  0  0  0  0  0  0  0  0  0  0  0
   -5.5587   11.7618  -29.1140 C   0  0  0  0  0  0  0  0  0  0  0  0
   -5.0382   11.1255  -31.7799 C   0  0  0  0  0  0  0  0  0  0  0  0
   -4.3075   12.1313  -31.1474 C   0  0  0  0  0  0  0  0  0  0  0  0
   -6.2895   10.7560  -29.7464 C   0  0  0  0  0  0  0  0  0  0  0  0
   -6.0293   10.4378  -31.0794 C   0  0  0  0  0  0  0  0  0  0  0  0
   -3.2476   12.8669  -31.8952 C   0  0  0  0  0  0  0  0  0  0  0  0
   -3.0078   15.3247  -30.9867 N   0  0  0  0  0  0  0  0  0  0  0  0
   -7.2500   10.1019  -29.0337 O   0  0  0  0  0  0  0  0  0  0  0  0
   -7.0015    9.0760  -31.9699 Br  0  0  0  0  0  0  0  0  0  0  0  0
  1  8  1  0
  1  9  3  0
  2  3  2  0
  2  5  1  0
  3  6  1  0
  4  5  2  0
  4  7  1  0
  5  8  1  0
  6  7  2  0
  6 10  1  0
  7 11  1  0
M  END
>  <id>  (87) 
EN300-1894070

>  <smiles>  (87) 
OC=1C=CC(CC#N)=CC1Br

>  <MDLNUMBER>  (87) 
MFCD18391513

>  <IUPAC Name>  (87) 
2-(3-bromo-4-hydroxyphenyl)acetonitrile

>  <CAS>  (87) 
73348-21-7

>  <URL>  (87) 
https://www.enaminestore.com/catalog/EN300-1894070

>  <ROCS_ShapeQuery>  (87) 
_x1604L0AP1_x0771L0AP1

>  <ROCS_TanimotoCombo>  (87) 
0.994 

>  <ROCS_ShapeTanimoto>  (87) 
0.498 

>  <ROCS_ColorTanimoto>  (87) 
0.497 

>  <ROCS_RefTversky>  (87) 
0.436 

>  <ROCS_RefColorTversky>  (87) 
0.515 

>  <ROCS_RefTverskyCombo>  (87) 
0.951 

>  <ROCS_FitTversky>  (87) 
1.395 

>  <ROCS_FitColorTversky>  (87) 
0.932 

>  <ROCS_FitTverskyCombo>  (87) 
2.327 

>  <ROCS_ColorScore>  (87) 
-4.877

>  <ROCS_Overlap>  (87) 
728.933

>  <ROCS_Rank>  (87) 
137                 

$$$$
untitled-dbase-1440_688
     RDKit          3D

 15 15  0  0  1  0  0  0  0  0999 V2000
   -4.6379   12.5230  -29.8689 C   0  0  0  0  0  0  0  0  0  0  0  0
   -5.1079   11.1756  -31.8183 C   0  0  0  0  0  0  0  0  0  0  0  0
   -4.3958   12.2067  -31.2056 C   0  0  0  0  0  0  0  0  0  0  0  0
   -5.5921   11.8081  -29.1448 C   0  0  0  0  0  0  0  0  0  0  0  0
   -6.3041   10.7770  -29.7575 C   0  0  0  0  0  0  0  0  0  0  0  0
   -6.0620   10.4607  -31.0943 C   0  0  0  0  0  0  0  0  0  0  0  0
   -2.2811   12.0549  -32.5606 C   0  0  0  0  0  0  0  0  0  0  0  0
   -6.8178   13.1116  -27.5782 C   0  0  0  0  0  0  0  0  0  0  0  0
   -2.7193   14.1048  -31.1582 C   0  0  0  0  0  0  0  0  0  0  0  0
   -3.3763   12.9718  -31.9797 C   0  0  2  0  0  0  0  0  0  0  0  0
   -1.9240   14.6221  -29.0425 N   0  0  0  0  0  0  0  0  0  0  0  0
   -7.2340   10.0900  -29.0329 O   0  0  0  0  0  0  0  0  0  0  0  0
   -5.8177   12.1292  -27.8401 O   0  0  0  0  0  0  0  0  0  0  0  0
   -2.0996   13.5467  -30.0049 O   0  0  0  0  0  0  0  0  0  0  0  0
   -7.0098    9.0663  -31.9611 Br  0  0  0  0  0  0  0  0  0  0  0  0
  1  3  2  0
  1  4  1  0
  2  3  1  0
  2  6  2  0
  3 10  1  0
  4  5  2  0
  4 13  1  0
  5  6  1  0
  5 12  1  0
  6 15  1  0
 10  7  1  1
  8 13  1  0
  9 10  1  0
  9 14  1  0
 11 14  1  0
M  END
>  <id>  (88) 
EN300-1927002

>  <smiles>  (88) 
COC=1C=C(C=C(Br)C1O)C(C)CON

>  <IUPAC Name>  (88) 
4-[1-(aminooxy)propan-2-yl]-2-bromo-6-methoxyphenol

>  <CAS>  (88) 
2229368-29-8

>  <URL>  (88) 
https://www.enaminestore.com/catalog/EN300-1927002

>  <ROCS_ShapeQuery>  (88) 
_x1604L0AP1_x0771L0AP1

>  <ROCS_TanimotoCombo>  (88) 
0.994 

>  <ROCS_ShapeTanimoto>  (88) 
0.543 

>  <ROCS_ColorTanimoto>  (88) 
0.451 

>  <ROCS_RefTversky>  (88) 
0.495 

>  <ROCS_RefColorTversky>  (88) 
0.513 

>  <ROCS_RefTverskyCombo>  (88) 
1.007 

>  <ROCS_FitTversky>  (88) 
1.219 

>  <ROCS_FitColorTversky>  (88) 
0.788 

>  <ROCS_FitTverskyCombo>  (88) 
2.007 

>  <ROCS_ColorScore>  (88) 
-4.877

>  <ROCS_Overlap>  (88) 
831.281

>  <ROCS_Rank>  (88) 
138                 

$$$$
untitled-dbase-1064_6
     RDKit          3D

 11 11  0  0  0  0  0  0  0  0999 V2000
   -2.9971   15.3663  -30.9822 C   0  0  0  0  0  0  0  0  0  0  0  0
   -3.1082   14.2444  -31.3956 C   0  0  0  0  0  0  0  0  0  0  0  0
   -4.5681   12.4498  -29.8174 C   0  0  0  0  0  0  0  0  0  0  0  0
   -5.5589   11.7628  -29.1159 C   0  0  0  0  0  0  0  0  0  0  0  0
   -5.0398   11.1245  -31.7816 C   0  0  0  0  0  0  0  0  0  0  0  0
   -4.3085   12.1307  -31.1502 C   0  0  0  0  0  0  0  0  0  0  0  0
   -6.2901   10.7567  -29.7473 C   0  0  0  0  0  0  0  0  0  0  0  0
   -6.0305   10.4375  -31.0802 C   0  0  0  0  0  0  0  0  0  0  0  0
   -3.2489   12.8656  -31.8991 C   0  0  0  0  0  0  0  0  0  0  0  0
   -7.2503   10.1032  -29.0337 O   0  0  0  0  0  0  0  0  0  0  0  0
   -7.0034    9.0752  -31.9693 Br  0  0  0  0  0  0  0  0  0  0  0  0
  1  2  3  0
  2  9  1  0
  3  4  2  0
  3  6  1  0
  4  7  1  0
  5  6  2  0
  5  8  1  0
  6  9  1  0
  7  8  2  0
  7 10  1  0
  8 11  1  0
M  END
>  <id>  (89) 
EN300-1906335

>  <smiles>  (89) 
OC=1C=CC(CC#C)=CC1Br

>  <MDLNUMBER>  (89) 
MFCD33501284

>  <IUPAC Name>  (89) 
2-bromo-4-(prop-2-yn-1-yl)phenol

>  <CAS>  (89) 
2228973-05-3

>  <URL>  (89) 
https://www.enaminestore.com/catalog/EN300-1906335

>  <ROCS_ShapeQuery>  (89) 
_x1604L0AP1_x0771L0AP1

>  <ROCS_TanimotoCombo>  (89) 
0.994 

>  <ROCS_ShapeTanimoto>  (89) 
0.497 

>  <ROCS_ColorTanimoto>  (89) 
0.497 

>  <ROCS_RefTversky>  (89) 
0.436 

>  <ROCS_RefColorTversky>  (89) 
0.515 

>  <ROCS_RefTverskyCombo>  (89) 
0.951 

>  <ROCS_FitTversky>  (89) 
1.396 

>  <ROCS_FitColorTversky>  (89) 
0.932 

>  <ROCS_FitTverskyCombo>  (89) 
2.328 

>  <ROCS_ColorScore>  (89) 
-4.878

>  <ROCS_Overlap>  (89) 
727.844

>  <ROCS_Rank>  (89) 
139                 

$$$$
untitled-dbase-49_0
     RDKit          3D

 10 10  0  0  0  0  0  0  0  0999 V2000
   -4.5944   12.4899  -29.8697 C   0  0  0  0  0  0  0  0  0  0  0  0
   -4.3515   12.1634  -31.2038 C   0  0  0  0  0  0  0  0  0  0  0  0
   -5.5637   11.7944  -29.1468 C   0  0  0  0  0  0  0  0  0  0  0  0
   -6.2901   10.7726  -29.7581 C   0  0  0  0  0  0  0  0  0  0  0  0
   -5.0779   11.1416  -31.8152 C   0  0  0  0  0  0  0  0  0  0  0  0
   -6.0472   10.4461  -31.0923 C   0  0  0  0  0  0  0  0  0  0  0  0
   -5.8062   12.1605  -27.7195 C   0  0  0  0  0  0  0  0  0  0  0  0
   -7.2347   10.1021  -29.0366 O   0  0  0  0  0  0  0  0  0  0  0  0
   -4.8292   10.8423  -33.0984 F   0  0  0  0  0  0  0  0  0  0  0  0
   -7.0195    9.0605  -31.9486 Br  0  0  0  0  0  0  0  0  0  0  0  0
  1  2  2  0
  1  3  1  0
  2  5  1  0
  3  4  2  0
  3  7  1  0
  4  6  1  0
  4  8  1  0
  5  6  2  0
  5  9  1  0
  6 10  1  0
M  END
>  <id>  (90) 
EN300-198658

>  <smiles>  (90) 
CC=1C=CC(F)=C(Br)C1O

>  <MDLNUMBER>  (90) 
MFCD22414712

>  <IUPAC Name>  (90) 
2-bromo-3-fluoro-6-methylphenol

>  <CAS>  (90) 
1522001-79-1

>  <URL>  (90) 
https://www.enaminestore.com/catalog/EN300-198658

>  <ROCS_ShapeQuery>  (90) 
_x1604L0AP1_x0771L0AP1

>  <ROCS_TanimotoCombo>  (90) 
0.993 

>  <ROCS_ShapeTanimoto>  (90) 
0.440 

>  <ROCS_ColorTanimoto>  (90) 
0.553 

>  <ROCS_RefTversky>  (90) 
0.395 

>  <ROCS_RefColorTversky>  (90) 
0.518 

>  <ROCS_RefTverskyCombo>  (90) 
0.913 

>  <ROCS_FitTversky>  (90) 
1.351 

>  <ROCS_FitColorTversky>  (90) 
1.139 

>  <ROCS_FitTverskyCombo>  (90) 
2.490 

>  <ROCS_ColorScore>  (90) 
-4.881

>  <ROCS_Overlap>  (90) 
659.010

>  <ROCS_Rank>  (90) 
140                 

$$$$
untitled-dbase-1212_16
     RDKit          3D

 13 14  0  0  0  0  0  0  0  0999 V2000
   -3.5392   13.2220  -34.5323 C   0  0  0  0  0  0  0  0  0  0  0  0
   -3.4260   13.0776  -33.3460 C   0  0  0  0  0  0  0  0  0  0  0  0
   -4.5968   12.4775  -29.8291 C   0  0  0  0  0  0  0  0  0  0  0  0
   -5.5770   11.7803  -29.1229 C   0  0  0  0  0  0  0  0  0  0  0  0
   -5.0576   11.1409  -31.7883 C   0  0  0  0  0  0  0  0  0  0  0  0
   -4.3371   12.1578  -31.1618 C   0  0  0  0  0  0  0  0  0  0  0  0
   -6.2975   10.7634  -29.7494 C   0  0  0  0  0  0  0  0  0  0  0  0
   -6.0378   10.4437  -31.0821 C   0  0  0  0  0  0  0  0  0  0  0  0
   -1.8544   12.7772  -31.4052 C   0  0  0  0  0  0  0  0  0  0  0  0
   -2.5997   14.0512  -31.1788 C   0  0  0  0  0  0  0  0  0  0  0  0
   -3.2899   12.9032  -31.9156 C   0  0  0  0  0  0  0  0  0  0  0  0
   -7.2484   10.1011  -29.0313 O   0  0  0  0  0  0  0  0  0  0  0  0
   -6.9971    9.0681  -31.9654 Br  0  0  0  0  0  0  0  0  0  0  0  0
  1  2  3  0
  2 11  1  0
  3  4  2  0
  3  6  1  0
  4  7  1  0
  5  6  2  0
  5  8  1  0
  6 11  1  0
  7  8  2  0
  7 12  1  0
  8 13  1  0
  9 10  1  0
  9 11  1  0
 10 11  1  0
M  END
>  <id>  (91) 
EN300-1906343

>  <smiles>  (91) 
OC=1C=CC(=CC1Br)C2(CC2)C#C

>  <IUPAC Name>  (91) 
2-bromo-4-(1-ethynylcyclopropyl)phenol

>  <CAS>  (91) 
2229618-28-2

>  <URL>  (91) 
https://www.enaminestore.com/catalog/EN300-1906343

>  <ROCS_ShapeQuery>  (91) 
_x1604L0AP1_x0771L0AP1

>  <ROCS_TanimotoCombo>  (91) 
0.993 

>  <ROCS_ShapeTanimoto>  (91) 
0.496 

>  <ROCS_ColorTanimoto>  (91) 
0.497 

>  <ROCS_RefTversky>  (91) 
0.453 

>  <ROCS_RefColorTversky>  (91) 
0.515 

>  <ROCS_RefTverskyCombo>  (91) 
0.969 

>  <ROCS_FitTversky>  (91) 
1.234 

>  <ROCS_FitColorTversky>  (91) 
0.932 

>  <ROCS_FitTverskyCombo>  (91) 
2.166 

>  <ROCS_ColorScore>  (91) 
-4.878

>  <ROCS_Overlap>  (91) 
759.674

>  <ROCS_Rank>  (91) 
143                 

$$$$
untitled-dbase-444_29
     RDKit          3D

 13 13  0  0  1  0  0  0  0  0999 V2000
   -4.5819   12.4759  -29.8746 C   0  0  0  0  0  0  0  0  0  0  0  0
   -5.0668   11.1208  -31.8151 C   0  0  0  0  0  0  0  0  0  0  0  0
   -5.5575   11.7896  -29.1515 C   0  0  0  0  0  0  0  0  0  0  0  0
   -6.2878   10.7689  -29.7602 C   0  0  0  0  0  0  0  0  0  0  0  0
   -4.3366   12.1415  -31.2064 C   0  0  0  0  0  0  0  0  0  0  0  0
   -6.0424   10.4345  -31.0921 C   0  0  0  0  0  0  0  0  0  0  0  0
   -4.8704   13.2673  -27.2297 C   0  0  0  0  0  0  0  0  0  0  0  0
   -5.8042   12.1637  -27.7268 C   0  0  2  0  0  0  0  0  0  0  0  0
   -4.2424   10.5715  -27.0924 N   0  0  0  0  0  0  0  0  0  0  0  0
   -7.2391   10.1069  -29.0396 O   0  0  0  0  0  0  0  0  0  0  0  0
   -5.6132   11.0090  -26.9024 O   0  0  0  0  0  0  0  0  0  0  0  0
   -3.1327   12.9888  -32.0982 Cl  0  0  0  0  0  0  0  0  0  0  0  0
   -7.0142    9.0535  -31.9541 Br  0  0  0  0  0  0  0  0  0  0  0  0
  1  3  2  0
  1  5  1  0
  2  5  2  0
  2  6  1  0
  3  4  1  0
  3  8  1  0
  4  6  2  0
  4 10  1  0
  5 12  1  0
  6 13  1  0
  8  7  1  1
  8 11  1  0
  9 11  1  0
M  END
>  <id>  (92) 
EN300-1922570

>  <smiles>  (92) 
CC(ON)C=1C=C(Cl)C=C(Br)C1O

>  <IUPAC Name>  (92) 
2-[1-(aminooxy)ethyl]-6-bromo-4-chlorophenol

>  <CAS>  (92) 
2228783-80-8

>  <URL>  (92) 
https://www.enaminestore.com/catalog/EN300-1922570

>  <ROCS_ShapeQuery>  (92) 
_x1604L0AP1_x0771L0AP1

>  <ROCS_TanimotoCombo>  (92) 
0.992 

>  <ROCS_ShapeTanimoto>  (92) 
0.439 

>  <ROCS_ColorTanimoto>  (92) 
0.553 

>  <ROCS_RefTversky>  (92) 
0.414 

>  <ROCS_RefColorTversky>  (92) 
0.518 

>  <ROCS_RefTverskyCombo>  (92) 
0.932 

>  <ROCS_FitTversky>  (92) 
1.159 

>  <ROCS_FitColorTversky>  (92) 
1.139 

>  <ROCS_FitTverskyCombo>  (92) 
2.298 

>  <ROCS_ColorScore>  (92) 
-4.881

>  <ROCS_Overlap>  (92) 
693.274

>  <ROCS_Rank>  (92) 
144                 

$$$$
untitled-dbase-853_35
     RDKit          3D

 12 12  0  0  0  0  0  0  0  0999 V2000
   -4.5933   12.4759  -29.8229 C   0  0  0  0  0  0  0  0  0  0  0  0
   -5.5736   11.7775  -29.1180 C   0  0  0  0  0  0  0  0  0  0  0  0
   -5.0564   11.1454  -31.7856 C   0  0  0  0  0  0  0  0  0  0  0  0
   -4.3348   12.1599  -31.1567 C   0  0  0  0  0  0  0  0  0  0  0  0
   -6.2953   10.7630  -29.7469 C   0  0  0  0  0  0  0  0  0  0  0  0
   -6.0367   10.4469  -31.0807 C   0  0  0  0  0  0  0  0  0  0  0  0
   -3.3119   12.8880  -31.8907 C   0  0  0  0  0  0  0  0  0  0  0  0
   -3.0371   12.5315  -33.3558 C   0  0  0  0  0  0  0  0  0  0  0  0
   -2.6618   13.7970  -31.3354 O   0  0  0  0  0  0  0  0  0  0  0  0
   -7.2470   10.1002  -29.0305 O   0  0  0  0  0  0  0  0  0  0  0  0
   -1.8129   11.2534  -33.5006 Cl  0  0  0  0  0  0  0  0  0  0  0  0
   -6.9984    9.0751  -31.9675 Br  0  0  0  0  0  0  0  0  0  0  0  0
  1  2  2  0
  1  4  1  0
  2  5  1  0
  3  4  2  0
  3  6  1  0
  4  7  1  0
  5  6  2  0
  5 10  1  0
  6 12  1  0
  7  8  1  0
  7  9  2  0
  8 11  1  0
M  END
>  <id>  (93) 
EN300-1911789

>  <smiles>  (93) 
OC=1C=CC(=CC1Br)C(=O)CCl

>  <MDLNUMBER>  (93) 
MFCD28741207

>  <IUPAC Name>  (93) 
1-(3-bromo-4-hydroxyphenyl)-2-chloroethan-1-one

>  <CAS>  (93) 
1807163-83-2

>  <URL>  (93) 
https://www.enaminestore.com/catalog/EN300-1911789

>  <ROCS_ShapeQuery>  (93) 
_x1604L0AP1_x0771L0AP1

>  <ROCS_TanimotoCombo>  (93) 
0.992 

>  <ROCS_ShapeTanimoto>  (93) 
0.495 

>  <ROCS_ColorTanimoto>  (93) 
0.497 

>  <ROCS_RefTversky>  (93) 
0.442 

>  <ROCS_RefColorTversky>  (93) 
0.515 

>  <ROCS_RefTverskyCombo>  (93) 
0.957 

>  <ROCS_FitTversky>  (93) 
1.323 

>  <ROCS_FitColorTversky>  (93) 
0.932 

>  <ROCS_FitTverskyCombo>  (93) 
2.254 

>  <ROCS_ColorScore>  (93) 
-4.878

>  <ROCS_Overlap>  (93) 
739.400

>  <ROCS_Rank>  (93) 
146                 

$$$$
untitled-dbase-1532_17
     RDKit          3D

 13 13  0  0  0  0  0  0  0  0999 V2000
   -4.6098   12.4901  -29.8929 C   0  0  0  0  0  0  0  0  0  0  0  0
   -4.3738   12.1644  -31.2285 C   0  0  0  0  0  0  0  0  0  0  0  0
   -5.5716   11.7906  -29.1639 C   0  0  0  0  0  0  0  0  0  0  0  0
   -5.0995   11.1392  -31.8351 C   0  0  0  0  0  0  0  0  0  0  0  0
   -6.2974   10.7655  -29.7705 C   0  0  0  0  0  0  0  0  0  0  0  0
   -6.0614   10.4398  -31.1061 C   0  0  0  0  0  0  0  0  0  0  0  0
   -5.5113    9.5506  -35.8938 C   0  0  0  0  0  0  0  0  0  0  0  0
   -4.8066   10.8267  -33.2803 C   0  0  0  0  0  0  0  0  0  0  0  0
   -5.5939   11.0408  -35.6664 C   0  0  0  0  0  0  0  0  0  0  0  0
   -5.8784   11.3973  -34.2109 C   0  0  0  0  0  0  0  0  0  0  0  0
   -6.0988    8.7073  -35.2247 O   0  0  0  0  0  0  0  0  0  0  0  0
   -7.2297   10.1045  -29.0269 O   0  0  0  0  0  0  0  0  0  0  0  0
   -7.0574    9.0391  -31.9229 Br  0  0  0  0  0  0  0  0  0  0  0  0
  1  2  2  0
  1  3  1  0
  2  4  1  0
  3  5  2  0
  4  6  2  0
  4  8  1  0
  5  6  1  0
  5 12  1  0
  6 13  1  0
  7  9  1  0
  7 11  2  0
  8 10  1  0
  9 10  1  0
M  END
>  <id>  (94) 
EN300-1904606

>  <smiles>  (94) 
OC=1C=CC=C(CCCC=O)C1Br

>  <IUPAC Name>  (94) 
4-(2-bromo-3-hydroxyphenyl)butanal

>  <CAS>  (94) 
2229468-19-1

>  <URL>  (94) 
https://www.enaminestore.com/catalog/EN300-1904606

>  <ROCS_ShapeQuery>  (94) 
_x1604L0AP1_x0771L0AP1

>  <ROCS_TanimotoCombo>  (94) 
0.992 

>  <ROCS_ShapeTanimoto>  (94) 
0.494 

>  <ROCS_ColorTanimoto>  (94) 
0.497 

>  <ROCS_RefTversky>  (94) 
0.448 

>  <ROCS_RefColorTversky>  (94) 
0.516 

>  <ROCS_RefTverskyCombo>  (94) 
0.964 

>  <ROCS_FitTversky>  (94) 
1.263 

>  <ROCS_FitColorTversky>  (94) 
0.933 

>  <ROCS_FitTverskyCombo>  (94) 
2.195 

>  <ROCS_ColorScore>  (94) 
-4.883

>  <ROCS_Overlap>  (94) 
750.660

>  <ROCS_Rank>  (94) 
147                 

$$$$
untitled-dbase-1456_0
     RDKit          3D

 10 10  0  0  0  0  0  0  0  0999 V2000
   -4.3535   12.1562  -31.2100 C   0  0  0  0  0  0  0  0  0  0  0  0
   -5.0780   11.1329  -31.8213 C   0  0  0  0  0  0  0  0  0  0  0  0
   -5.5701   11.7899  -29.1550 C   0  0  0  0  0  0  0  0  0  0  0  0
   -4.5995   12.4846  -29.8768 C   0  0  0  0  0  0  0  0  0  0  0  0
   -6.2946   10.7666  -29.7663 C   0  0  0  0  0  0  0  0  0  0  0  0
   -6.0486   10.4382  -31.0995 C   0  0  0  0  0  0  0  0  0  0  0  0
   -3.8432   13.5508  -29.2394 C   0  0  0  0  0  0  0  0  0  0  0  0
   -2.9717   14.2008  -29.8233 O   0  0  0  0  0  0  0  0  0  0  0  0
   -7.2360   10.1067  -29.0337 O   0  0  0  0  0  0  0  0  0  0  0  0
   -7.0137    9.0546  -31.9633 Br  0  0  0  0  0  0  0  0  0  0  0  0
  1  2  2  0
  1  4  1  0
  2  6  1  0
  3  4  2  0
  3  5  1  0
  4  7  1  0
  5  6  2  0
  5  9  1  0
  6 10  1  0
  7  8  2  0
M  END
>  <id>  (95) 
EN300-189203

>  <smiles>  (95) 
OC=1C=C(C=O)C=CC1Br

>  <MDLNUMBER>  (95) 
MFCD11100992

>  <IUPAC Name>  (95) 
4-bromo-3-hydroxybenzaldehyde

>  <CAS>  (95) 
20035-32-9

>  <Purity>  (95) 
95

>  <URL>  (95) 
https://www.enaminestore.com/catalog/EN300-189203

>  <MP>  (95) 
132-134

>  <ROCS_ShapeQuery>  (95) 
_x1604L0AP1_x0771L0AP1

>  <ROCS_TanimotoCombo>  (95) 
0.991 

>  <ROCS_ShapeTanimoto>  (95) 
0.495 

>  <ROCS_ColorTanimoto>  (95) 
0.497 

>  <ROCS_RefTversky>  (95) 
0.427 

>  <ROCS_RefColorTversky>  (95) 
0.515 

>  <ROCS_RefTverskyCombo>  (95) 
0.943 

>  <ROCS_FitTversky>  (95) 
1.467 

>  <ROCS_FitColorTversky>  (95) 
0.932 

>  <ROCS_FitTverskyCombo>  (95) 
2.398 

>  <ROCS_ColorScore>  (95) 
-4.878

>  <ROCS_Overlap>  (95) 
713.420

>  <ROCS_Rank>  (95) 
149                 

$$$$
untitled-dbase-924_830
     RDKit          3D

 16 17  0  0  0  0  0  0  0  0999 V2000
   -4.5833   12.4708  -29.8364 C   0  0  0  0  0  0  0  0  0  0  0  0
   -5.0541   11.1317  -31.7914 C   0  0  0  0  0  0  0  0  0  0  0  0
   -4.3278   12.1468  -31.1688 C   0  0  0  0  0  0  0  0  0  0  0  0
   -5.5650   11.7795  -29.1265 C   0  0  0  0  0  0  0  0  0  0  0  0
   -6.2914   10.7644  -29.7490 C   0  0  0  0  0  0  0  0  0  0  0  0
   -6.0359   10.4404  -31.0815 C   0  0  0  0  0  0  0  0  0  0  0  0
   -2.0958   13.4354  -31.1516 C   0  0  0  0  0  0  0  0  0  0  0  0
   -3.1370   14.3763  -31.6720 C   0  0  0  0  0  0  0  0  0  0  0  0
   -3.2797   12.8867  -31.9272 C   0  0  0  0  0  0  0  0  0  0  0  0
   -6.7851   13.1119  -27.5799 C   0  0  0  0  0  0  0  0  0  0  0  0
   -3.0329   12.3868  -33.3235 C   0  0  0  0  0  0  0  0  0  0  0  0
   -4.1073   11.5784  -35.2126 N   0  0  0  0  0  0  0  0  0  0  0  0
   -7.2473   10.0999  -29.0377 O   0  0  0  0  0  0  0  0  0  0  0  0
   -5.8037   12.1066  -27.8258 O   0  0  0  0  0  0  0  0  0  0  0  0
   -4.2361   12.4783  -34.0780 O   0  0  0  0  0  0  0  0  0  0  0  0
   -7.0031    9.0685  -31.9626 Br  0  0  0  0  0  0  0  0  0  0  0  0
  1  3  2  0
  1  4  1  0
  2  3  1  0
  2  6  2  0
  3  9  1  0
  4  5  2  0
  4 14  1  0
  5  6  1  0
  5 13  1  0
  6 16  1  0
  7  8  1  0
  7  9  1  0
  8  9  1  0
  9 11  1  0
 10 14  1  0
 11 15  1  0
 12 15  1  0
M  END
>  <id>  (96) 
EN300-1926999

>  <smiles>  (96) 
COC=1C=C(C=C(Br)C1O)C2(CON)CC2

>  <IUPAC Name>  (96) 
4-{1-[(aminooxy)methyl]cyclopropyl}-2-bromo-6-methoxyphenol

>  <CAS>  (96) 
2228625-82-7

>  <URL>  (96) 
https://www.enaminestore.com/catalog/EN300-1926999

>  <ROCS_ShapeQuery>  (96) 
_x1604L0AP1_x0771L0AP1

>  <ROCS_TanimotoCombo>  (96) 
0.991 

>  <ROCS_ShapeTanimoto>  (96) 
0.494 

>  <ROCS_ColorTanimoto>  (96) 
0.497 

>  <ROCS_RefTversky>  (96) 
0.476 

>  <ROCS_RefColorTversky>  (96) 
0.516 

>  <ROCS_RefTverskyCombo>  (96) 
0.992 

>  <ROCS_FitTversky>  (96) 
1.084 

>  <ROCS_FitColorTversky>  (96) 
0.932 

>  <ROCS_FitTverskyCombo>  (96) 
2.017 

>  <ROCS_ColorScore>  (96) 
-4.881

>  <ROCS_Overlap>  (96) 
800.756

>  <ROCS_Rank>  (96) 
150                 

$$$$
untitled-dbase-585_142
     RDKit          3D

 13 13  0  0  0  0  0  0  0  0999 V2000
   -4.5774   12.4722  -29.8679 C   0  0  0  0  0  0  0  0  0  0  0  0
   -5.0629   11.1223  -31.8119 C   0  0  0  0  0  0  0  0  0  0  0  0
   -5.5548   11.7860  -29.1472 C   0  0  0  0  0  0  0  0  0  0  0  0
   -6.2862   10.7679  -29.7589 C   0  0  0  0  0  0  0  0  0  0  0  0
   -4.3315   12.1404  -31.2002 C   0  0  0  0  0  0  0  0  0  0  0  0
   -6.0403   10.4360  -31.0912 C   0  0  0  0  0  0  0  0  0  0  0  0
   -5.8020   12.1572  -27.7219 C   0  0  0  0  0  0  0  0  0  0  0  0
   -6.2035   10.9761  -26.8185 C   0  0  0  0  0  0  0  0  0  0  0  0
   -5.1225    9.8975  -26.7534 C   0  0  0  0  0  0  0  0  0  0  0  0
   -7.2393   10.1058  -29.0405 O   0  0  0  0  0  0  0  0  0  0  0  0
   -5.6424    8.5358  -25.6688 S   0  0  0  0  0  0  0  0  0  0  0  0
   -3.1254   12.9877  -32.0891 Cl  0  0  0  0  0  0  0  0  0  0  0  0
   -7.0137    9.0586  -31.9573 Br  0  0  0  0  0  0  0  0  0  0  0  0
  1  3  2  0
  1  5  1  0
  2  5  2  0
  2  6  1  0
  3  4  1  0
  3  7  1  0
  4  6  2  0
  4 10  1  0
  5 12  1  0
  6 13  1  0
  7  8  1  0
  8  9  1  0
  9 11  1  0
M  END
>  <id>  (97) 
EN300-1922926

>  <smiles>  (97) 
OC=1C(Br)=CC(Cl)=CC1CCCS

>  <IUPAC Name>  (97) 
2-bromo-4-chloro-6-(3-sulfanylpropyl)phenol

>  <CAS>  (97) 
2228217-39-6

>  <URL>  (97) 
https://www.enaminestore.com/catalog/EN300-1922926

>  <ROCS_ShapeQuery>  (97) 
_x1604L0AP1_x0771L0AP1

>  <ROCS_TanimotoCombo>  (97) 
0.991 

>  <ROCS_ShapeTanimoto>  (97) 
0.437 

>  <ROCS_ColorTanimoto>  (97) 
0.553 

>  <ROCS_RefTversky>  (97) 
0.409 

>  <ROCS_RefColorTversky>  (97) 
0.518 

>  <ROCS_RefTverskyCombo>  (97) 
0.928 

>  <ROCS_FitTversky>  (97) 
1.184 

>  <ROCS_FitColorTversky>  (97) 
1.139 

>  <ROCS_FitTverskyCombo>  (97) 
2.323 

>  <ROCS_ColorScore>  (97) 
-4.881

>  <ROCS_Overlap>  (97) 
685.412

>  <ROCS_Rank>  (97) 
151                 

$$$$
untitled-dbase-1193_51
     RDKit          3D

 13 13  0  0  0  0  0  0  0  0999 V2000
   -4.5688   12.4643  -29.8614 C   0  0  0  0  0  0  0  0  0  0  0  0
   -5.0579   11.1196  -31.8081 C   0  0  0  0  0  0  0  0  0  0  0  0
   -5.5484   11.7796  -29.1423 C   0  0  0  0  0  0  0  0  0  0  0  0
   -6.2828   10.7649  -29.7560 C   0  0  0  0  0  0  0  0  0  0  0  0
   -4.3235   12.1343  -31.1943 C   0  0  0  0  0  0  0  0  0  0  0  0
   -6.0375   10.4349  -31.0890 C   0  0  0  0  0  0  0  0  0  0  0  0
   -5.7949   12.1488  -27.7163 C   0  0  0  0  0  0  0  0  0  0  0  0
   -7.0493   13.0024  -27.5254 C   0  0  0  0  0  0  0  0  0  0  0  0
   -7.2768   13.8602  -29.6676 N   0  0  0  0  0  0  0  0  0  0  0  0
   -7.2380   10.1043  -29.0392 O   0  0  0  0  0  0  0  0  0  0  0  0
   -6.9383   14.1940  -28.2932 O   0  0  0  0  0  0  0  0  0  0  0  0
   -3.1147   12.9797  -32.0813 Cl  0  0  0  0  0  0  0  0  0  0  0  0
   -7.0149    9.0621  -31.9579 Br  0  0  0  0  0  0  0  0  0  0  0  0
  1  3  2  0
  1  5  1  0
  2  5  2  0
  2  6  1  0
  3  4  1  0
  3  7  1  0
  4  6  2  0
  4 10  1  0
  5 12  1  0
  6 13  1  0
  7  8  1  0
  8 11  1  0
  9 11  1  0
M  END
>  <id>  (98) 
EN300-1922564

>  <smiles>  (98) 
NOCCC=1C=C(Cl)C=C(Br)C1O

>  <IUPAC Name>  (98) 
2-[2-(aminooxy)ethyl]-6-bromo-4-chlorophenol

>  <CAS>  (98) 
2228545-26-2

>  <URL>  (98) 
https://www.enaminestore.com/catalog/EN300-1922564

>  <ROCS_ShapeQuery>  (98) 
_x1604L0AP1_x0771L0AP1

>  <ROCS_TanimotoCombo>  (98) 
0.990 

>  <ROCS_ShapeTanimoto>  (98) 
0.436 

>  <ROCS_ColorTanimoto>  (98) 
0.553 

>  <ROCS_RefTversky>  (98) 
0.411 

>  <ROCS_RefColorTversky>  (98) 
0.518 

>  <ROCS_RefTverskyCombo>  (98) 
0.930 

>  <ROCS_FitTversky>  (98) 
1.162 

>  <ROCS_FitColorTversky>  (98) 
1.139 

>  <ROCS_FitTverskyCombo>  (98) 
2.301 

>  <ROCS_ColorScore>  (98) 
-4.881

>  <ROCS_Overlap>  (98) 
689.042

>  <ROCS_Rank>  (98) 
155                 

$$$$
untitled-dbase-50_9
     RDKit          3D

 10 10  0  0  0  0  0  0  0  0999 V2000
   -4.3548   12.1579  -31.2082 C   0  0  0  0  0  0  0  0  0  0  0  0
   -5.0790   11.1349  -31.8204 C   0  0  0  0  0  0  0  0  0  0  0  0
   -5.5723   11.7905  -29.1540 C   0  0  0  0  0  0  0  0  0  0  0  0
   -6.2965   10.7676  -29.7662 C   0  0  0  0  0  0  0  0  0  0  0  0
   -4.6014   12.4856  -29.8750 C   0  0  0  0  0  0  0  0  0  0  0  0
   -6.0499   10.4398  -31.0994 C   0  0  0  0  0  0  0  0  0  0  0  0
   -2.6185   14.2802  -30.4752 C   0  0  0  0  0  0  0  0  0  0  0  0
   -7.2367   10.1055  -29.0339 O   0  0  0  0  0  0  0  0  0  0  0  0
   -3.6735   13.7905  -29.0934 S   0  0  0  0  0  0  0  0  0  0  0  0
   -7.0141    9.0561  -31.9639 Br  0  0  0  0  0  0  0  0  0  0  0  0
  1  2  2  0
  1  5  1  0
  2  6  1  0
  3  4  1  0
  3  5  2  0
  4  6  2  0
  4  8  1  0
  5  9  1  0
  6 10  1  0
  7  9  1  0
M  END
>  <id>  (99) 
EN300-199131

>  <smiles>  (99) 
CSC=1C=CC(Br)=C(O)C1

>  <MDLNUMBER>  (99) 
MFCD16999029

>  <IUPAC Name>  (99) 
2-bromo-5-(methylsulfanyl)phenol

>  <CAS>  (99) 
1243397-23-0

>  <Purity>  (99) 
95

>  <URL>  (99) 
https://www.enaminestore.com/catalog/EN300-199131

>  <ROCS_ShapeQuery>  (99) 
_x1604L0AP1_x0771L0AP1

>  <ROCS_TanimotoCombo>  (99) 
0.989 

>  <ROCS_ShapeTanimoto>  (99) 
0.493 

>  <ROCS_ColorTanimoto>  (99) 
0.497 

>  <ROCS_RefTversky>  (99) 
0.422 

>  <ROCS_RefColorTversky>  (99) 
0.515 

>  <ROCS_RefTverskyCombo>  (99) 
0.937 

>  <ROCS_FitTversky>  (99) 
1.515 

>  <ROCS_FitColorTversky>  (99) 
0.932 

>  <ROCS_FitTverskyCombo>  (99) 
2.447 

>  <ROCS_ColorScore>  (99) 
-4.878

>  <ROCS_Overlap>  (99) 
703.773

>  <ROCS_Rank>  (99) 
158                 

$$$$
untitled-dbase-1527_0
     RDKit          3D

 12 12  0  0  0  0  0  0  0  0999 V2000
   -5.0690   11.1222  -31.8183 C   0  0  0  0  0  0  0  0  0  0  0  0
   -5.5532   11.7879  -29.1527 C   0  0  0  0  0  0  0  0  0  0  0  0
   -6.2853   10.7683  -29.7610 C   0  0  0  0  0  0  0  0  0  0  0  0
   -4.5789   12.4746  -29.8772 C   0  0  0  0  0  0  0  0  0  0  0  0
   -4.3369   12.1418  -31.2100 C   0  0  0  0  0  0  0  0  0  0  0  0
   -6.0433   10.4355  -31.0938 C   0  0  0  0  0  0  0  0  0  0  0  0
   -5.7927   12.1518  -27.7625 C   0  0  0  0  0  0  0  0  0  0  0  0
   -6.6368   11.5939  -27.0584 O   0  0  0  0  0  0  0  0  0  0  0  0
   -7.2376   10.1045  -29.0425 O   0  0  0  0  0  0  0  0  0  0  0  0
   -3.8753   13.4541  -29.2887 F   0  0  0  0  0  0  0  0  0  0  0  0
   -3.1363   12.9854  -32.1097 Cl  0  0  0  0  0  0  0  0  0  0  0  0
   -7.0176    9.0563  -31.9561 Br  0  0  0  0  0  0  0  0  0  0  0  0
  1  5  2  0
  1  6  1  0
  2  3  1  0
  2  4  2  0
  2  7  1  0
  3  6  2  0
  3  9  1  0
  4  5  1  0
  4 10  1  0
  5 11  1  0
  6 12  1  0
  7  8  2  0
M  END
>  <id>  (100) 
EN300-1276473

>  <smiles>  (100) 
OC=1C(Br)=CC(Cl)=C(F)C1C=O

>  <MDLNUMBER>  (100) 
MFCD29934849

>  <IUPAC Name>  (100) 
3-bromo-5-chloro-6-fluoro-2-hydroxybenzaldehyde

>  <CAS>  (100) 
1692795-76-8

>  <URL>  (100) 
https://www.enaminestore.com/catalog/EN300-1276473

>  <ROCS_ShapeQuery>  (100) 
_x1604L0AP1_x0771L0AP1

>  <ROCS_TanimotoCombo>  (100) 
0.989 

>  <ROCS_ShapeTanimoto>  (100) 
0.492 

>  <ROCS_ColorTanimoto>  (100) 
0.497 

>  <ROCS_RefTversky>  (100) 
0.442 

>  <ROCS_RefColorTversky>  (100) 
0.516 

>  <ROCS_RefTverskyCombo>  (100) 
0.958 

>  <ROCS_FitTversky>  (100) 
1.295 

>  <ROCS_FitColorTversky>  (100) 
0.932 

>  <ROCS_FitTverskyCombo>  (100) 
2.227 

>  <ROCS_ColorScore>  (100) 
-4.884

>  <ROCS_Overlap>  (100) 
740.326

>  <ROCS_Rank>  (100) 
159                 

$$$$
untitled-dbase-599_17
     RDKit          3D

 15 15  0  0  0  0  0  0  0  0999 V2000
   -4.6104   12.4912  -29.8791 C   0  0  0  0  0  0  0  0  0  0  0  0
   -4.3658   12.1656  -31.2131 C   0  0  0  0  0  0  0  0  0  0  0  0
   -5.5759   11.7908  -29.1559 C   0  0  0  0  0  0  0  0  0  0  0  0
   -5.0867   11.1396  -31.8240 C   0  0  0  0  0  0  0  0  0  0  0  0
   -6.2968   10.7648  -29.7668 C   0  0  0  0  0  0  0  0  0  0  0  0
   -6.0522   10.4392  -31.1009 C   0  0  0  0  0  0  0  0  0  0  0  0
   -5.9897   10.9642  -34.1767 C   0  0  0  0  0  0  0  0  0  0  0  0
   -4.7871   10.8297  -33.2555 C   0  0  0  0  0  0  0  0  0  0  0  0
   -5.7707   10.6091  -35.6202 C   0  0  0  0  0  0  0  0  0  0  0  0
   -7.0904   11.3452  -33.7810 O   0  0  0  0  0  0  0  0  0  0  0  0
   -7.2329   10.1030  -29.0287 O   0  0  0  0  0  0  0  0  0  0  0  0
   -4.4933   10.2173  -35.8553 F   0  0  0  0  0  0  0  0  0  0  0  0
   -6.5747    9.5941  -36.0256 F   0  0  0  0  0  0  0  0  0  0  0  0
   -6.0200   11.6606  -36.4402 F   0  0  0  0  0  0  0  0  0  0  0  0
   -7.0418    9.0373  -31.9235 Br  0  0  0  0  0  0  0  0  0  0  0  0
  1  2  2  0
  1  3  1  0
  2  4  1  0
  3  5  2  0
  4  6  2  0
  4  8  1  0
  5  6  1  0
  5 11  1  0
  6 15  1  0
  7  8  1  0
  7  9  1  0
  7 10  2  0
  9 12  1  0
  9 13  1  0
  9 14  1  0
M  END
>  <id>  (101) 
EN300-1950763

>  <smiles>  (101) 
OC=1C=CC=C(CC(=O)C(F)(F)F)C1Br

>  <IUPAC Name>  (101) 
3-(2-bromo-3-hydroxyphenyl)-1,1,1-trifluoropropan-2-one

>  <CAS>  (101) 
2228581-72-2

>  <URL>  (101) 
https://www.enaminestore.com/catalog/EN300-1950763

>  <ROCS_ShapeQuery>  (101) 
_x1604L0AP1_x0771L0AP1

>  <ROCS_TanimotoCombo>  (101) 
0.989 

>  <ROCS_ShapeTanimoto>  (101) 
0.492 

>  <ROCS_ColorTanimoto>  (101) 
0.497 

>  <ROCS_RefTversky>  (101) 
0.468 

>  <ROCS_RefColorTversky>  (101) 
0.516 

>  <ROCS_RefTverskyCombo>  (101) 
0.984 

>  <ROCS_FitTversky>  (101) 
1.115 

>  <ROCS_FitColorTversky>  (101) 
0.932 

>  <ROCS_FitTverskyCombo>  (101) 
2.048 

>  <ROCS_ColorScore>  (101) 
-4.881

>  <ROCS_Overlap>  (101) 
786.966

>  <ROCS_Rank>  (101) 
160                 

$$$$
untitled-dbase-729_12
     RDKit          3D

 12 12  0  0  0  0  0  0  0  0999 V2000
   -4.5735   12.4631  -29.8566 C   0  0  0  0  0  0  0  0  0  0  0  0
   -5.0577   11.1198  -31.8054 C   0  0  0  0  0  0  0  0  0  0  0  0
   -4.3254   12.1346  -31.1893 C   0  0  0  0  0  0  0  0  0  0  0  0
   -5.5538   11.7767  -29.1399 C   0  0  0  0  0  0  0  0  0  0  0  0
   -6.2861   10.7619  -29.7560 C   0  0  0  0  0  0  0  0  0  0  0  0
   -6.0381   10.4334  -31.0887 C   0  0  0  0  0  0  0  0  0  0  0  0
   -4.9913   13.1583  -27.2877 C   0  0  0  0  0  0  0  0  0  0  0  0
   -3.2780   12.8693  -31.9554 C   0  0  0  0  0  0  0  0  0  0  0  0
   -7.2414   10.1027  -29.0386 O   0  0  0  0  0  0  0  0  0  0  0  0
   -5.7849   12.1094  -27.8391 O   0  0  0  0  0  0  0  0  0  0  0  0
   -2.8051   14.3575  -31.1052 Cl  0  0  0  0  0  0  0  0  0  0  0  0
   -7.0128    9.0605  -31.9600 Br  0  0  0  0  0  0  0  0  0  0  0  0
  1  3  2  0
  1  4  1  0
  2  3  1  0
  2  6  2  0
  3  8  1  0
  4  5  2  0
  4 10  1  0
  5  6  1  0
  5  9  1  0
  6 12  1  0
  7 10  1  0
  8 11  1  0
M  END
>  <id>  (102) 
EN300-1897827

>  <smiles>  (102) 
COC=1C=C(CCl)C=C(Br)C1O

>  <MDLNUMBER>  (102) 
MFCD13178320

>  <IUPAC Name>  (102) 
2-bromo-4-(chloromethyl)-6-methoxyphenol

>  <CAS>  (102) 
21709-81-9

>  <URL>  (102) 
https://www.enaminestore.com/catalog/EN300-1897827

>  <ROCS_ShapeQuery>  (102) 
_x1604L0AP1_x0771L0AP1

>  <ROCS_TanimotoCombo>  (102) 
0.989 

>  <ROCS_ShapeTanimoto>  (102) 
0.492 

>  <ROCS_ColorTanimoto>  (102) 
0.497 

>  <ROCS_RefTversky>  (102) 
0.440 

>  <ROCS_RefColorTversky>  (102) 
0.516 

>  <ROCS_RefTverskyCombo>  (102) 
0.955 

>  <ROCS_FitTversky>  (102) 
1.317 

>  <ROCS_FitColorTversky>  (102) 
0.932 

>  <ROCS_FitTverskyCombo>  (102) 
2.249 

>  <ROCS_ColorScore>  (102) 
-4.882

>  <ROCS_Overlap>  (102) 
735.691

>  <ROCS_Rank>  (102) 
161                 

$$$$
untitled-dbase-553_138
     RDKit          3D

 13 13  0  0  0  0  0  0  0  0999 V2000
   -4.5594   12.4493  -29.8393 C   0  0  0  0  0  0  0  0  0  0  0  0
   -5.0441   11.1153  -31.7943 C   0  0  0  0  0  0  0  0  0  0  0  0
   -4.3079   12.1234  -31.1720 C   0  0  0  0  0  0  0  0  0  0  0  0
   -5.5471   11.7670  -29.1288 C   0  0  0  0  0  0  0  0  0  0  0  0
   -6.2833   10.7589  -29.7512 C   0  0  0  0  0  0  0  0  0  0  0  0
   -6.0319   10.4330  -31.0839 C   0  0  0  0  0  0  0  0  0  0  0  0
   -4.9835   13.1392  -27.2700 C   0  0  0  0  0  0  0  0  0  0  0  0
   -3.2524   12.8537  -31.9314 C   0  0  0  0  0  0  0  0  0  0  0  0
   -3.0221   14.3084  -31.4891 C   0  0  0  0  0  0  0  0  0  0  0  0
   -7.2459   10.1037  -29.0399 O   0  0  0  0  0  0  0  0  0  0  0  0
   -5.7815   12.0972  -27.8280 O   0  0  0  0  0  0  0  0  0  0  0  0
   -4.5208   15.3286  -31.6440 S   0  0  0  0  0  0  0  0  0  0  0  0
   -7.0118    9.0692  -31.9636 Br  0  0  0  0  0  0  0  0  0  0  0  0
  1  3  2  0
  1  4  1  0
  2  3  1  0
  2  6  2  0
  3  8  1  0
  4  5  2  0
  4 11  1  0
  5  6  1  0
  5 10  1  0
  6 13  1  0
  7 11  1  0
  8  9  1  0
  9 12  1  0
M  END
>  <id>  (103) 
EN300-1925669

>  <smiles>  (103) 
COC=1C=C(CCS)C=C(Br)C1O

>  <IUPAC Name>  (103) 
2-bromo-6-methoxy-4-(2-sulfanylethyl)phenol

>  <CAS>  (103) 
2229006-81-7

>  <URL>  (103) 
https://www.enaminestore.com/catalog/EN300-1925669

>  <ROCS_ShapeQuery>  (103) 
_x1604L0AP1_x0771L0AP1

>  <ROCS_TanimotoCombo>  (103) 
0.988 

>  <ROCS_ShapeTanimoto>  (103) 
0.491 

>  <ROCS_ColorTanimoto>  (103) 
0.497 

>  <ROCS_RefTversky>  (103) 
0.446 

>  <ROCS_RefColorTversky>  (103) 
0.516 

>  <ROCS_RefTverskyCombo>  (103) 
0.961 

>  <ROCS_FitTversky>  (103) 
1.258 

>  <ROCS_FitColorTversky>  (103) 
0.932 

>  <ROCS_FitTverskyCombo>  (103) 
2.191 

>  <ROCS_ColorScore>  (103) 
-4.881

>  <ROCS_Overlap>  (103) 
746.655

>  <ROCS_Rank>  (103) 
162                 

$$$$
untitled-dbase-1906_55
     RDKit          3D

 15 15  0  0  0  0  0  0  0  0999 V2000
   -4.5853   12.4730  -29.8518 C   0  0  0  0  0  0  0  0  0  0  0  0
   -5.0627   11.1301  -31.8026 C   0  0  0  0  0  0  0  0  0  0  0  0
   -5.5633   11.7819  -29.1367 C   0  0  0  0  0  0  0  0  0  0  0  0
   -6.2910   10.7648  -29.7545 C   0  0  0  0  0  0  0  0  0  0  0  0
   -4.3350   12.1471  -31.1848 C   0  0  0  0  0  0  0  0  0  0  0  0
   -6.0407   10.4389  -31.0875 C   0  0  0  0  0  0  0  0  0  0  0  0
   -5.7090   14.4829  -27.5209 C   0  0  0  0  0  0  0  0  0  0  0  0
   -5.0083   13.1625  -27.2815 C   0  0  0  0  0  0  0  0  0  0  0  0
   -2.1797   13.5794  -31.1232 O   0  0  0  0  0  0  0  0  0  0  0  0
   -2.6814   12.1670  -33.1763 O   0  0  0  0  0  0  0  0  0  0  0  0
   -7.2434   10.1005  -29.0380 O   0  0  0  0  0  0  0  0  0  0  0  0
   -5.7968   12.1111  -27.8354 O   0  0  0  0  0  0  0  0  0  0  0  0
   -3.8146   14.2603  -32.7659 F   0  0  0  0  0  0  0  0  0  0  0  0
   -3.1106   13.0126  -32.0795 S   0  0  0  0  0  0  0  0  0  0  0  0
   -7.0089    9.0631  -31.9614 Br  0  0  0  0  0  0  0  0  0  0  0  0
  1  3  2  0
  1  5  1  0
  2  5  2  0
  2  6  1  0
  3  4  1  0
  3 12  1  0
  4  6  2  0
  4 11  1  0
  5 14  1  0
  6 15  1  0
  7  8  1  0
  8 12  1  0
  9 14  2  0
 10 14  2  0
 13 14  1  0
M  END
>  <id>  (104) 
EN300-6493405

>  <smiles>  (104) 
CCOC=1C=C(C=C(Br)C1O)S(=O)(=O)F

>  <IUPAC Name>  (104) 
3-bromo-5-ethoxy-4-hydroxybenzene-1-sulfonyl fluoride

>  <CAS>  (104) 
2247105-97-9

>  <URL>  (104) 
https://www.enaminestore.com/catalog/EN300-6493405

>  <ROCS_ShapeQuery>  (104) 
_x1604L0AP1_x0771L0AP1

>  <ROCS_TanimotoCombo>  (104) 
0.986 

>  <ROCS_ShapeTanimoto>  (104) 
0.489 

>  <ROCS_ColorTanimoto>  (104) 
0.497 

>  <ROCS_RefTversky>  (104) 
0.461 

>  <ROCS_RefColorTversky>  (104) 
0.516 

>  <ROCS_RefTverskyCombo>  (104) 
0.977 

>  <ROCS_FitTversky>  (104) 
1.141 

>  <ROCS_FitColorTversky>  (104) 
0.932 

>  <ROCS_FitTverskyCombo>  (104) 
2.073 

>  <ROCS_ColorScore>  (104) 
-4.881

>  <ROCS_Overlap>  (104) 
773.942

>  <ROCS_Rank>  (104) 
165                 

$$$$
untitled-dbase-560_22
     RDKit          3D

 11 11  0  0  0  0  0  0  0  0999 V2000
   -4.5586   12.4405  -29.8100 C   0  0  0  0  0  0  0  0  0  0  0  0
   -5.5530   11.7562  -29.1112 C   0  0  0  0  0  0  0  0  0  0  0  0
   -5.0316   11.1195  -31.7768 C   0  0  0  0  0  0  0  0  0  0  0  0
   -4.2979   12.1222  -31.1429 C   0  0  0  0  0  0  0  0  0  0  0  0
   -6.2867   10.7535  -29.7452 C   0  0  0  0  0  0  0  0  0  0  0  0
   -6.0260   10.4351  -31.0780 C   0  0  0  0  0  0  0  0  0  0  0  0
   -3.2343   12.8544  -31.8889 C   0  0  0  0  0  0  0  0  0  0  0  0
   -3.0670   14.2834  -31.3820 C   0  0  0  0  0  0  0  0  0  0  0  0
   -7.2505   10.1025  -29.0340 O   0  0  0  0  0  0  0  0  0  0  0  0
   -7.0022    9.0775  -31.9705 Br  0  0  0  0  0  0  0  0  0  0  0  0
   -4.7431   15.2594  -31.5483 Br  0  0  0  0  0  0  0  0  0  0  0  0
  1  2  2  0
  1  4  1  0
  2  5  1  0
  3  4  2  0
  3  6  1  0
  4  7  1  0
  5  6  2  0
  5  9  1  0
  6 10  1  0
  7  8  1  0
  8 11  1  0
M  END
>  <id>  (105) 
EN300-1906332

>  <smiles>  (105) 
OC=1C=CC(CCBr)=CC1Br

>  <MDLNUMBER>  (105) 
MFCD33501282

>  <IUPAC Name>  (105) 
2-bromo-4-(2-bromoethyl)phenol

>  <CAS>  (105) 
2229475-72-1

>  <URL>  (105) 
https://www.enaminestore.com/catalog/EN300-1906332

>  <ROCS_ShapeQuery>  (105) 
_x1604L0AP1_x0771L0AP1

>  <ROCS_TanimotoCombo>  (105) 
0.985 

>  <ROCS_ShapeTanimoto>  (105) 
0.489 

>  <ROCS_ColorTanimoto>  (105) 
0.496 

>  <ROCS_RefTversky>  (105) 
0.428 

>  <ROCS_RefColorTversky>  (105) 
0.515 

>  <ROCS_RefTverskyCombo>  (105) 
0.943 

>  <ROCS_FitTversky>  (105) 
1.412 

>  <ROCS_FitColorTversky>  (105) 
0.932 

>  <ROCS_FitTverskyCombo>  (105) 
2.344 

>  <ROCS_ColorScore>  (105) 
-4.877

>  <ROCS_Overlap>  (105) 
714.692

>  <ROCS_Rank>  (105) 
167                 

$$$$
untitled-dbase-2292_0
     RDKit          3D

 11 11  0  0  0  0  0  0  0  0999 V2000
   -4.5705   12.4713  -29.8540 C   0  0  0  0  0  0  0  0  0  0  0  0
   -5.0574   11.1241  -31.7995 C   0  0  0  0  0  0  0  0  0  0  0  0
   -4.3238   12.1397  -31.1863 C   0  0  0  0  0  0  0  0  0  0  0  0
   -6.2841   10.7715  -29.7482 C   0  0  0  0  0  0  0  0  0  0  0  0
   -5.5506   11.7871  -29.1350 C   0  0  0  0  0  0  0  0  0  0  0  0
   -6.0375   10.4400  -31.0805 C   0  0  0  0  0  0  0  0  0  0  0  0
   -3.3025   12.8537  -31.9362 C   0  0  0  0  0  0  0  0  0  0  0  0
   -2.6215   13.7615  -31.4512 O   0  0  0  0  0  0  0  0  0  0  0  0
   -7.2425   10.1037  -29.0415 O   0  0  0  0  0  0  0  0  0  0  0  0
   -5.8300   12.2210  -27.4884 Cl  0  0  0  0  0  0  0  0  0  0  0  0
   -7.0121    9.0652  -31.9501 Br  0  0  0  0  0  0  0  0  0  0  0  0
  1  3  2  0
  1  5  1  0
  2  3  1  0
  2  6  2  0
  3  7  1  0
  4  5  2  0
  4  6  1  0
  4  9  1  0
  5 10  1  0
  6 11  1  0
  7  8  2  0
M  END
>  <id>  (106) 
EN300-7418405

>  <smiles>  (106) 
OC=1C(Cl)=CC(C=O)=CC1Br

>  <MDLNUMBER>  (106) 
MFCD04129026

>  <IUPAC Name>  (106) 
3-bromo-5-chloro-4-hydroxybenzaldehyde

>  <URL>  (106) 
https://www.enaminestore.com/catalog/EN300-7418405

>  <ROCS_ShapeQuery>  (106) 
_x1604L0AP1_x0771L0AP1

>  <ROCS_TanimotoCombo>  (106) 
0.985 

>  <ROCS_ShapeTanimoto>  (106) 
0.488 

>  <ROCS_ColorTanimoto>  (106) 
0.497 

>  <ROCS_RefTversky>  (106) 
0.430 

>  <ROCS_RefColorTversky>  (106) 
0.516 

>  <ROCS_RefTverskyCombo>  (106) 
0.946 

>  <ROCS_FitTversky>  (106) 
1.379 

>  <ROCS_FitColorTversky>  (106) 
0.933 

>  <ROCS_FitTverskyCombo>  (106) 
2.312 

>  <ROCS_ColorScore>  (106) 
-4.882

>  <ROCS_Overlap>  (106) 
718.705

>  <ROCS_Rank>  (106) 
168                 

$$$$
untitled-dbase-22_0
     RDKit          3D

 10 10  0  0  0  0  0  0  0  0999 V2000
   -4.5887   12.4734  -29.8447 C   0  0  0  0  0  0  0  0  0  0  0  0
   -5.5680   11.7798  -29.1340 C   0  0  0  0  0  0  0  0  0  0  0  0
   -5.0605   11.1357  -31.8005 C   0  0  0  0  0  0  0  0  0  0  0  0
   -4.3349   12.1515  -31.1780 C   0  0  0  0  0  0  0  0  0  0  0  0
   -6.2936   10.7640  -29.7564 C   0  0  0  0  0  0  0  0  0  0  0  0
   -6.0399   10.4420  -31.0897 C   0  0  0  0  0  0  0  0  0  0  0  0
   -2.6757   13.8552  -31.1732 C   0  0  0  0  0  0  0  0  0  0  0  0
   -7.2436   10.1053  -29.0339 O   0  0  0  0  0  0  0  0  0  0  0  0
   -3.3792   12.8289  -31.8712 O   0  0  0  0  0  0  0  0  0  0  0  0
   -7.0061    9.0681  -31.9679 Br  0  0  0  0  0  0  0  0  0  0  0  0
  1  2  2  0
  1  4  1  0
  2  5  1  0
  3  4  2  0
  3  6  1  0
  4  9  1  0
  5  6  2  0
  5  8  1  0
  6 10  1  0
  7  9  1  0
M  END
>  <id>  (107) 
EN300-103076

>  <smiles>  (107) 
COC=1C=CC(O)=C(Br)C1

>  <MDLNUMBER>  (107) 
MFCD02113712

>  <IUPAC Name>  (107) 
2-bromo-4-methoxyphenol

>  <CAS>  (107) 
17332-11-5

>  <Purity>  (107) 
95

>  <URL>  (107) 
https://www.enaminestore.com/catalog/EN300-103076

>  <MP>  (107) 
40-45

>  <ROCS_ShapeQuery>  (107) 
_x1604L0AP1_x0771L0AP1

>  <ROCS_TanimotoCombo>  (107) 
0.985 

>  <ROCS_ShapeTanimoto>  (107) 
0.488 

>  <ROCS_ColorTanimoto>  (107) 
0.497 

>  <ROCS_RefTversky>  (107) 
0.424 

>  <ROCS_RefColorTversky>  (107) 
0.515 

>  <ROCS_RefTverskyCombo>  (107) 
0.939 

>  <ROCS_FitTversky>  (107) 
1.455 

>  <ROCS_FitColorTversky>  (107) 
0.932 

>  <ROCS_FitTverskyCombo>  (107) 
2.387 

>  <ROCS_ColorScore>  (107) 
-4.878

>  <ROCS_Overlap>  (107) 
707.015

>  <ROCS_Rank>  (107) 
170                 

$$$$
untitled-dbase-1399_0
     RDKit          3D

 10 10  0  0  0  0  0  0  0  0999 V2000
   -5.5620   11.7787  -29.1438 C   0  0  0  0  0  0  0  0  0  0  0  0
   -5.0619   11.1242  -31.8092 C   0  0  0  0  0  0  0  0  0  0  0  0
   -6.2906   10.7617  -29.7608 C   0  0  0  0  0  0  0  0  0  0  0  0
   -4.5835   12.4685  -29.8596 C   0  0  0  0  0  0  0  0  0  0  0  0
   -6.0405   10.4345  -31.0934 C   0  0  0  0  0  0  0  0  0  0  0  0
   -4.3334   12.1412  -31.1923 C   0  0  0  0  0  0  0  0  0  0  0  0
   -7.2398   10.1073  -29.0335 O   0  0  0  0  0  0  0  0  0  0  0  0
   -3.8962   13.4421  -29.2448 F   0  0  0  0  0  0  0  0  0  0  0  0
   -7.0115    9.0584  -31.9633 Br  0  0  0  0  0  0  0  0  0  0  0  0
   -2.8770   13.1609  -32.2731 I   0  0  0  0  0  0  0  0  0  0  0  0
  1  3  2  0
  1  4  1  0
  2  5  2  0
  2  6  1  0
  3  5  1  0
  3  7  1  0
  4  6  2  0
  4  8  1  0
  5  9  1  0
  6 10  1  0
M  END
>  <id>  (108) 
EN300-365739

>  <smiles>  (108) 
OC=1C=C(F)C(I)=CC1Br

>  <MDLNUMBER>  (108) 
MFCD26895909

>  <IUPAC Name>  (108) 
2-bromo-5-fluoro-4-iodophenol

>  <CAS>  (108) 
1564796-94-6

>  <Purity>  (108) 
95

>  <URL>  (108) 
https://www.enaminestore.com/catalog/EN300-365739

>  <ROCS_ShapeQuery>  (108) 
_x1604L0AP1_x0771L0AP1

>  <ROCS_TanimotoCombo>  (108) 
0.985 

>  <ROCS_ShapeTanimoto>  (108) 
0.488 

>  <ROCS_ColorTanimoto>  (108) 
0.497 

>  <ROCS_RefTversky>  (108) 
0.421 

>  <ROCS_RefColorTversky>  (108) 
0.515 

>  <ROCS_RefTverskyCombo>  (108) 
0.936 

>  <ROCS_FitTversky>  (108) 
1.484 

>  <ROCS_FitColorTversky>  (108) 
0.932 

>  <ROCS_FitTverskyCombo>  (108) 
2.416 

>  <ROCS_ColorScore>  (108) 
-4.879

>  <ROCS_Overlap>  (108) 
702.240

>  <ROCS_Rank>  (108) 
171                 

$$$$
untitled-dbase-480_12
     RDKit          3D

 10 10  0  0  0  0  0  0  0  0999 V2000
   -4.5792   12.4624  -29.8315 C   0  0  0  0  0  0  0  0  0  0  0  0
   -5.5637   11.7714  -29.1251 C   0  0  0  0  0  0  0  0  0  0  0  0
   -5.0504   11.1301  -31.7912 C   0  0  0  0  0  0  0  0  0  0  0  0
   -4.3226   12.1418  -31.1646 C   0  0  0  0  0  0  0  0  0  0  0  0
   -6.2914   10.7598  -29.7516 C   0  0  0  0  0  0  0  0  0  0  0  0
   -6.0348   10.4391  -31.0847 C   0  0  0  0  0  0  0  0  0  0  0  0
   -3.2698   12.8810  -31.9188 C   0  0  0  0  0  0  0  0  0  0  0  0
   -7.2454   10.1025  -29.0331 O   0  0  0  0  0  0  0  0  0  0  0  0
   -7.0030    9.0694  -31.9673 Br  0  0  0  0  0  0  0  0  0  0  0  0
   -2.8142   14.5158  -30.9678 Br  0  0  0  0  0  0  0  0  0  0  0  0
  1  2  2  0
  1  4  1  0
  2  5  1  0
  3  4  2  0
  3  6  1  0
  4  7  1  0
  5  6  2  0
  5  8  1  0
  6  9  1  0
  7 10  1  0
M  END
>  <id>  (109) 
EN300-1912153

>  <smiles>  (109) 
OC=1C=CC(CBr)=CC1Br

>  <MDLNUMBER>  (109) 
MFCD18390265

>  <IUPAC Name>  (109) 
2-bromo-4-(bromomethyl)phenol

>  <CAS>  (109) 
52703-21-6

>  <URL>  (109) 
https://www.enaminestore.com/catalog/EN300-1912153

>  <ROCS_ShapeQuery>  (109) 
_x1604L0AP1_x0771L0AP1

>  <ROCS_TanimotoCombo>  (109) 
0.984 

>  <ROCS_ShapeTanimoto>  (109) 
0.488 

>  <ROCS_ColorTanimoto>  (109) 
0.497 

>  <ROCS_RefTversky>  (109) 
0.420 

>  <ROCS_RefColorTversky>  (109) 
0.515 

>  <ROCS_RefTverskyCombo>  (109) 
0.936 

>  <ROCS_FitTversky>  (109) 
1.492 

>  <ROCS_FitColorTversky>  (109) 
0.932 

>  <ROCS_FitTverskyCombo>  (109) 
2.424 

>  <ROCS_ColorScore>  (109) 
-4.878

>  <ROCS_Overlap>  (109) 
700.914

>  <ROCS_Rank>  (109) 
172                 

$$$$
untitled-dbase-100_0
     RDKit          3D

  9  9  0  0  0  0  0  0  0  0999 V2000
   -4.5996   12.4851  -29.8553 C   0  0  0  0  0  0  0  0  0  0  0  0
   -5.5720   11.7862  -29.1402 C   0  0  0  0  0  0  0  0  0  0  0  0
   -4.3506   12.1651  -31.1900 C   0  0  0  0  0  0  0  0  0  0  0  0
   -6.2955   10.7671  -29.7597 C   0  0  0  0  0  0  0  0  0  0  0  0
   -5.0740   11.1461  -31.8095 C   0  0  0  0  0  0  0  0  0  0  0  0
   -6.0465   10.4470  -31.0944 C   0  0  0  0  0  0  0  0  0  0  0  0
   -7.2385   10.1035  -29.0324 O   0  0  0  0  0  0  0  0  0  0  0  0
   -4.8200   10.8540  -33.0933 F   0  0  0  0  0  0  0  0  0  0  0  0
   -7.0143    9.0644  -31.9593 Br  0  0  0  0  0  0  0  0  0  0  0  0
  1  2  2  0
  1  3  1  0
  2  4  1  0
  3  5  2  0
  4  6  2  0
  4  7  1  0
  5  6  1  0
  5  8  1  0
  6  9  1  0
M  END
>  <id>  (110) 
EN300-121461

>  <smiles>  (110) 
OC=1C=CC=C(F)C1Br

>  <MDLNUMBER>  (110) 
MFCD04037220

>  <IUPAC Name>  (110) 
2-bromo-3-fluorophenol

>  <CAS>  (110) 
443-81-2

>  <Purity>  (110) 
95

>  <URL>  (110) 
https://www.enaminestore.com/catalog/EN300-121461

>  <ROCS_ShapeQuery>  (110) 
_x1604L0AP1_x0771L0AP1

>  <ROCS_TanimotoCombo>  (110) 
0.984 

>  <ROCS_ShapeTanimoto>  (110) 
0.431 

>  <ROCS_ColorTanimoto>  (110) 
0.553 

>  <ROCS_RefTversky>  (110) 
0.382 

>  <ROCS_RefColorTversky>  (110) 
0.518 

>  <ROCS_RefTverskyCombo>  (110) 
0.900 

>  <ROCS_FitTversky>  (110) 
1.425 

>  <ROCS_FitColorTversky>  (110) 
1.139 

>  <ROCS_FitTverskyCombo>  (110) 
2.564 

>  <ROCS_ColorScore>  (110) 
-4.879

>  <ROCS_Overlap>  (110) 
636.565

>  <ROCS_Rank>  (110) 
174                 

$$$$
untitled-dbase-554_181
     RDKit          3D

 14 14  0  0  0  0  0  0  0  0999 V2000
   -4.5541   12.4423  -29.8279 C   0  0  0  0  0  0  0  0  0  0  0  0
   -5.0374   11.1134  -31.7868 C   0  0  0  0  0  0  0  0  0  0  0  0
   -4.3001   12.1184  -31.1606 C   0  0  0  0  0  0  0  0  0  0  0  0
   -5.5452   11.7612  -29.1213 C   0  0  0  0  0  0  0  0  0  0  0  0
   -6.2825   10.7562  -29.7474 C   0  0  0  0  0  0  0  0  0  0  0  0
   -6.0286   10.4323  -31.0802 C   0  0  0  0  0  0  0  0  0  0  0  0
   -5.0380   11.3845  -26.8285 C   0  0  0  0  0  0  0  0  0  0  0  0
   -3.2410   12.8476  -31.9160 C   0  0  0  0  0  0  0  0  0  0  0  0
   -3.0189   14.3023  -31.4584 C   0  0  0  0  0  0  0  0  0  0  0  0
   -4.2835   15.1517  -31.5814 C   0  0  0  0  0  0  0  0  0  0  0  0
   -7.2485   10.1020  -29.0398 O   0  0  0  0  0  0  0  0  0  0  0  0
   -5.7820   12.0893  -27.8203 O   0  0  0  0  0  0  0  0  0  0  0  0
   -3.9697   16.8510  -31.0205 S   0  0  0  0  0  0  0  0  0  0  0  0
   -7.0098    9.0727  -31.9649 Br  0  0  0  0  0  0  0  0  0  0  0  0
  1  3  2  0
  1  4  1  0
  2  3  1  0
  2  6  2  0
  3  8  1  0
  4  5  2  0
  4 12  1  0
  5  6  1  0
  5 11  1  0
  6 14  1  0
  7 12  1  0
  8  9  1  0
  9 10  1  0
 10 13  1  0
M  END
>  <id>  (111) 
EN300-1925670

>  <smiles>  (111) 
COC=1C=C(CCCS)C=C(Br)C1O

>  <IUPAC Name>  (111) 
2-bromo-6-methoxy-4-(3-sulfanylpropyl)phenol

>  <CAS>  (111) 
2228168-63-4

>  <URL>  (111) 
https://www.enaminestore.com/catalog/EN300-1925670

>  <ROCS_ShapeQuery>  (111) 
_x1604L0AP1_x0771L0AP1

>  <ROCS_TanimotoCombo>  (111) 
0.984 

>  <ROCS_ShapeTanimoto>  (111) 
0.487 

>  <ROCS_ColorTanimoto>  (111) 
0.497 

>  <ROCS_RefTversky>  (111) 
0.450 

>  <ROCS_RefColorTversky>  (111) 
0.516 

>  <ROCS_RefTverskyCombo>  (111) 
0.966 

>  <ROCS_FitTversky>  (111) 
1.200 

>  <ROCS_FitColorTversky>  (111) 
0.932 

>  <ROCS_FitTverskyCombo>  (111) 
2.132 

>  <ROCS_ColorScore>  (111) 
-4.880

>  <ROCS_Overlap>  (111) 
755.149

>  <ROCS_Rank>  (111) 
176                 

$$$$
untitled-dbase-2190_280
     RDKit          3D

 14 14  0  0  0  0  0  0  0  0999 V2000
   -4.5562   12.4420  -29.8336 C   0  0  0  0  0  0  0  0  0  0  0  0
   -5.0451   11.1134  -31.7912 C   0  0  0  0  0  0  0  0  0  0  0  0
   -4.3061   12.1184  -31.1671 C   0  0  0  0  0  0  0  0  0  0  0  0
   -5.5452   11.7606  -29.1241 C   0  0  0  0  0  0  0  0  0  0  0  0
   -6.2842   10.7556  -29.7483 C   0  0  0  0  0  0  0  0  0  0  0  0
   -6.0341   10.4320  -31.0818 C   0  0  0  0  0  0  0  0  0  0  0  0
   -3.4989   14.9594  -30.5407 C   0  0  0  0  0  0  0  0  0  0  0  0
   -4.9774   13.1274  -27.2626 C   0  0  0  0  0  0  0  0  0  0  0  0
   -3.2493   12.8478  -31.9254 C   0  0  0  0  0  0  0  0  0  0  0  0
   -2.5516   13.9104  -31.0711 C   0  0  0  0  0  0  0  0  0  0  0  0
   -4.5041   15.3525  -31.1227 O   0  0  0  0  0  0  0  0  0  0  0  0
   -7.2480   10.1012  -29.0380 O   0  0  0  0  0  0  0  0  0  0  0  0
   -5.7782   12.0885  -27.8225 O   0  0  0  0  0  0  0  0  0  0  0  0
   -7.0177    9.0724  -31.9639 Br  0  0  0  0  0  0  0  0  0  0  0  0
  1  3  2  0
  1  4  1  0
  2  3  1  0
  2  6  2  0
  3  9  1  0
  4  5  2  0
  4 13  1  0
  5  6  1  0
  5 12  1  0
  6 14  1  0
  7 10  1  0
  7 11  2  0
  8 13  1  0
  9 10  1  0
M  END
>  <id>  (112) 
EN300-1925697

>  <smiles>  (112) 
COC=1C=C(CCC=O)C=C(Br)C1O

>  <IUPAC Name>  (112) 
3-(3-bromo-4-hydroxy-5-methoxyphenyl)propanal

>  <CAS>  (112) 
1781650-71-2

>  <URL>  (112) 
https://www.enaminestore.com/catalog/EN300-1925697

>  <ROCS_ShapeQuery>  (112) 
_x1604L0AP1_x0771L0AP1

>  <ROCS_TanimotoCombo>  (112) 
0.984 

>  <ROCS_ShapeTanimoto>  (112) 
0.533 

>  <ROCS_ColorTanimoto>  (112) 
0.451 

>  <ROCS_RefTversky>  (112) 
0.481 

>  <ROCS_RefColorTversky>  (112) 
0.513 

>  <ROCS_RefTverskyCombo>  (112) 
0.994 

>  <ROCS_FitTversky>  (112) 
1.253 

>  <ROCS_FitColorTversky>  (112) 
0.789 

>  <ROCS_FitTverskyCombo>  (112) 
2.042 

>  <ROCS_ColorScore>  (112) 
-4.881

>  <ROCS_Overlap>  (112) 
806.857

>  <ROCS_Rank>  (112) 
177                 

$$$$
untitled-dbase-51_0
     RDKit          3D

 10 10  0  0  0  0  0  0  0  0999 V2000
   -4.5894   12.4986  -29.8440 C   0  0  0  0  0  0  0  0  0  0  0  0
   -4.3349   12.1827  -31.1785 C   0  0  0  0  0  0  0  0  0  0  0  0
   -6.2833   10.7779  -29.7597 C   0  0  0  0  0  0  0  0  0  0  0  0
   -5.5636   11.7962  -29.1346 C   0  0  0  0  0  0  0  0  0  0  0  0
   -5.0545   11.1644  -31.8037 C   0  0  0  0  0  0  0  0  0  0  0  0
   -6.0288   10.4620  -31.0943 C   0  0  0  0  0  0  0  0  0  0  0  0
   -7.2343   10.0972  -29.0540 O   0  0  0  0  0  0  0  0  0  0  0  0
   -5.8528   12.2125  -27.4849 Cl  0  0  0  0  0  0  0  0  0  0  0  0
   -4.6792   10.8333  -33.4597 Cl  0  0  0  0  0  0  0  0  0  0  0  0
   -7.0335    9.0624  -31.9152 Br  0  0  0  0  0  0  0  0  0  0  0  0
  1  2  2  0
  1  4  1  0
  2  5  1  0
  3  4  2  0
  3  6  1  0
  3  7  1  0
  4  8  1  0
  5  6  2  0
  5  9  1  0
  6 10  1  0
M  END
>  <id>  (113) 
EN300-198648

>  <smiles>  (113) 
OC=1C(Cl)=CC=C(Cl)C1Br

>  <MDLNUMBER>  (113) 
MFCD00152293

>  <IUPAC Name>  (113) 
2-bromo-3,6-dichlorophenol

>  <CAS>  (113) 
63862-91-9

>  <Purity>  (113) 
95

>  <URL>  (113) 
https://www.enaminestore.com/catalog/EN300-198648

>  <ROCS_ShapeQuery>  (113) 
_x1604L0AP1_x0771L0AP1

>  <ROCS_TanimotoCombo>  (113) 
0.984 

>  <ROCS_ShapeTanimoto>  (113) 
0.429 

>  <ROCS_ColorTanimoto>  (113) 
0.554 

>  <ROCS_RefTversky>  (113) 
0.385 

>  <ROCS_RefColorTversky>  (113) 
0.519 

>  <ROCS_RefTverskyCombo>  (113) 
0.904 

>  <ROCS_FitTversky>  (113) 
1.367 

>  <ROCS_FitColorTversky>  (113) 
1.140 

>  <ROCS_FitTverskyCombo>  (113) 
2.508 

>  <ROCS_ColorScore>  (113) 
-4.886

>  <ROCS_Overlap>  (113) 
642.236

>  <ROCS_Rank>  (113) 
178                 

$$$$
untitled-dbase-214_18
     RDKit          3D

 11 11  0  0  0  0  0  0  0  0999 V2000
   -5.0720   11.1370  -31.8058 C   0  0  0  0  0  0  0  0  0  0  0  0
   -4.5908   12.4912  -29.8639 C   0  0  0  0  0  0  0  0  0  0  0  0
   -4.3453   12.1597  -31.1963 C   0  0  0  0  0  0  0  0  0  0  0  0
   -6.2898   10.7773  -29.7504 C   0  0  0  0  0  0  0  0  0  0  0  0
   -6.0443   10.4458  -31.0829 C   0  0  0  0  0  0  0  0  0  0  0  0
   -5.5630   11.8001  -29.1409 C   0  0  0  0  0  0  0  0  0  0  0  0
   -3.3059   12.8990  -31.9695 C   0  0  0  0  0  0  0  0  0  0  0  0
   -7.2405   10.1000  -29.0421 O   0  0  0  0  0  0  0  0  0  0  0  0
   -2.2242   13.8992  -30.9031 S   0  0  0  0  0  0  0  0  0  0  0  0
   -7.0091    9.0622  -31.9493 Br  0  0  0  0  0  0  0  0  0  0  0  0
   -5.8662   12.2824  -27.3323 Br  0  0  0  0  0  0  0  0  0  0  0  0
  1  3  2  0
  1  5  1  0
  2  3  1  0
  2  6  2  0
  3  7  1  0
  4  5  2  0
  4  6  1  0
  4  8  1  0
  5 10  1  0
  6 11  1  0
  7  9  1  0
M  END
>  <id>  (114) 
EN300-1288713

>  <smiles>  (114) 
OC=1C(Br)=CC(CS)=CC1Br

>  <MDLNUMBER>  (114) 
MFCD33497329

>  <IUPAC Name>  (114) 
2,6-dibromo-4-(sulfanylmethyl)phenol

>  <CAS>  (114) 
2172291-20-0

>  <URL>  (114) 
https://www.enaminestore.com/catalog/EN300-1288713

>  <ROCS_ShapeQuery>  (114) 
_x1604L0AP1_x0771L0AP1

>  <ROCS_TanimotoCombo>  (114) 
0.983 

>  <ROCS_ShapeTanimoto>  (114) 
0.486 

>  <ROCS_ColorTanimoto>  (114) 
0.497 

>  <ROCS_RefTversky>  (114) 
0.426 

>  <ROCS_RefColorTversky>  (114) 
0.516 

>  <ROCS_RefTverskyCombo>  (114) 
0.941 

>  <ROCS_FitTversky>  (114) 
1.415 

>  <ROCS_FitColorTversky>  (114) 
0.933 

>  <ROCS_FitTverskyCombo>  (114) 
2.347 

>  <ROCS_ColorScore>  (114) 
-4.882

>  <ROCS_Overlap>  (114) 
710.814

>  <ROCS_Rank>  (114) 
181                 

$$$$
untitled-dbase-342_399
     RDKit          3D

 14 14  0  0  0  0  0  0  0  0999 V2000
   -4.3726   12.1675  -31.2344 C   0  0  0  0  0  0  0  0  0  0  0  0
   -4.6068   12.4941  -29.8987 C   0  0  0  0  0  0  0  0  0  0  0  0
   -5.0987   11.1416  -31.8392 C   0  0  0  0  0  0  0  0  0  0  0  0
   -5.5671   11.7947  -29.1678 C   0  0  0  0  0  0  0  0  0  0  0  0
   -6.2932   10.7687  -29.7726 C   0  0  0  0  0  0  0  0  0  0  0  0
   -6.0590   10.4421  -31.1083 C   0  0  0  0  0  0  0  0  0  0  0  0
   -4.9984   13.1863  -27.3251 C   0  0  0  0  0  0  0  0  0  0  0  0
   -4.8105   10.8319  -33.2732 C   0  0  0  0  0  0  0  0  0  0  0  0
   -6.0431   10.9469  -34.1700 C   0  0  0  0  0  0  0  0  0  0  0  0
   -5.2075    9.2339  -35.4906 N   0  0  0  0  0  0  0  0  0  0  0  0
   -7.2275   10.0992  -29.0367 O   0  0  0  0  0  0  0  0  0  0  0  0
   -5.7844   12.1254  -27.8641 O   0  0  0  0  0  0  0  0  0  0  0  0
   -5.6970   10.6032  -35.5056 O   0  0  0  0  0  0  0  0  0  0  0  0
   -7.0608    9.0468  -31.9284 Br  0  0  0  0  0  0  0  0  0  0  0  0
  1  2  2  0
  1  3  1  0
  2  4  1  0
  3  6  2  0
  3  8  1  0
  4  5  2  0
  4 12  1  0
  5  6  1  0
  5 11  1  0
  6 14  1  0
  7 12  1  0
  8  9  1  0
  9 13  1  0
 10 13  1  0
M  END
>  <id>  (115) 
EN300-1935608

>  <smiles>  (115) 
COC=1C=CC(CCON)=C(Br)C1O

>  <IUPAC Name>  (115) 
3-[2-(aminooxy)ethyl]-2-bromo-6-methoxyphenol

>  <CAS>  (115) 
2229572-51-2

>  <URL>  (115) 
https://www.enaminestore.com/catalog/EN300-1935608

>  <ROCS_ShapeQuery>  (115) 
_x1604L0AP1_x0771L0AP1

>  <ROCS_TanimotoCombo>  (115) 
0.983 

>  <ROCS_ShapeTanimoto>  (115) 
0.486 

>  <ROCS_ColorTanimoto>  (115) 
0.497 

>  <ROCS_RefTversky>  (115) 
0.453 

>  <ROCS_RefColorTversky>  (115) 
0.516 

>  <ROCS_RefTverskyCombo>  (115) 
0.968 

>  <ROCS_FitTversky>  (115) 
1.178 

>  <ROCS_FitColorTversky>  (115) 
0.932 

>  <ROCS_FitTverskyCombo>  (115) 
2.111 

>  <ROCS_ColorScore>  (115) 
-4.881

>  <ROCS_Overlap>  (115) 
759.462

>  <ROCS_Rank>  (115) 
182                 

$$$$
untitled-dbase-1735_135
     RDKit          3D

 13 13  0  0  0  0  0  0  0  0999 V2000
   -4.3497   12.1610  -31.2083 C   0  0  0  0  0  0  0  0  0  0  0  0
   -4.5991   12.4898  -29.8759 C   0  0  0  0  0  0  0  0  0  0  0  0
   -5.0706   11.1356  -31.8204 C   0  0  0  0  0  0  0  0  0  0  0  0
   -5.5693   11.7931  -29.1555 C   0  0  0  0  0  0  0  0  0  0  0  0
   -6.2902   10.7677  -29.7676 C   0  0  0  0  0  0  0  0  0  0  0  0
   -6.0408   10.4390  -31.1000 C   0  0  0  0  0  0  0  0  0  0  0  0
   -5.0199   13.1862  -27.3080 C   0  0  0  0  0  0  0  0  0  0  0  0
   -4.7660   10.8235  -33.2504 C   0  0  0  0  0  0  0  0  0  0  0  0
   -6.6117   12.1979  -33.5352 N   0  0  0  0  0  0  0  0  0  0  0  0
   -7.2344   10.1010  -29.0419 O   0  0  0  0  0  0  0  0  0  0  0  0
   -5.8015   12.1260  -27.8549 O   0  0  0  0  0  0  0  0  0  0  0  0
   -5.9396   11.0068  -34.0305 O   0  0  0  0  0  0  0  0  0  0  0  0
   -7.0354    9.0444  -31.9300 Br  0  0  0  0  0  0  0  0  0  0  0  0
  1  2  2  0
  1  3  1  0
  2  4  1  0
  3  6  2  0
  3  8  1  0
  4  5  2  0
  4 11  1  0
  5  6  1  0
  5 10  1  0
  6 13  1  0
  7 11  1  0
  8 12  1  0
  9 12  1  0
M  END
>  <id>  (116) 
EN300-1935606

>  <smiles>  (116) 
COC=1C=CC(CON)=C(Br)C1O

>  <IUPAC Name>  (116) 
3-[(aminooxy)methyl]-2-bromo-6-methoxyphenol

>  <CAS>  (116) 
2229215-66-9

>  <URL>  (116) 
https://www.enaminestore.com/catalog/EN300-1935606

>  <ROCS_ShapeQuery>  (116) 
_x1604L0AP1_x0771L0AP1

>  <ROCS_TanimotoCombo>  (116) 
0.983 

>  <ROCS_ShapeTanimoto>  (116) 
0.485 

>  <ROCS_ColorTanimoto>  (116) 
0.498 

>  <ROCS_RefTversky>  (116) 
0.445 

>  <ROCS_RefColorTversky>  (116) 
0.516 

>  <ROCS_RefTverskyCombo>  (116) 
0.961 

>  <ROCS_FitTversky>  (116) 
1.228 

>  <ROCS_FitColorTversky>  (116) 
0.933 

>  <ROCS_FitTverskyCombo>  (116) 
2.161 

>  <ROCS_ColorScore>  (116) 
-4.884

>  <ROCS_Overlap>  (116) 
746.171

>  <ROCS_Rank>  (116) 
183                 

$$$$
untitled-dbase-19_0
     RDKit          3D

  9  9  0  0  0  0  0  0  0  0999 V2000
   -4.6050   12.4931  -29.8425 C   0  0  0  0  0  0  0  0  0  0  0  0
   -4.3486   12.1789  -31.1770 C   0  0  0  0  0  0  0  0  0  0  0  0
   -5.5784   11.7879  -29.1346 C   0  0  0  0  0  0  0  0  0  0  0  0
   -5.0655   11.1597  -31.8038 C   0  0  0  0  0  0  0  0  0  0  0  0
   -6.2953   10.7687  -29.7614 C   0  0  0  0  0  0  0  0  0  0  0  0
   -6.0389   10.4546  -31.0960 C   0  0  0  0  0  0  0  0  0  0  0  0
   -4.7531   10.8622  -33.2352 C   0  0  0  0  0  0  0  0  0  0  0  0
   -7.2393   10.1019  -29.0380 O   0  0  0  0  0  0  0  0  0  0  0  0
   -7.0230    9.0619  -31.9403 Br  0  0  0  0  0  0  0  0  0  0  0  0
  1  2  2  0
  1  3  1  0
  2  4  1  0
  3  5  2  0
  4  6  2  0
  4  7  1  0
  5  6  1  0
  5  8  1  0
  6  9  1  0
M  END
>  <id>  (117) 
EN300-105060

>  <smiles>  (117) 
CC=1C=CC=C(O)C1Br

>  <MDLNUMBER>  (117) 
MFCD09991797

>  <IUPAC Name>  (117) 
2-bromo-3-methylphenol

>  <CAS>  (117) 
22061-78-5

>  <Purity>  (117) 
95

>  <URL>  (117) 
https://www.enaminestore.com/catalog/EN300-105060

>  <MP>  (117) 
59-62

>  <ROCS_ShapeQuery>  (117) 
_x1604L0AP1_x0771L0AP1

>  <ROCS_TanimotoCombo>  (117) 
0.982 

>  <ROCS_ShapeTanimoto>  (117) 
0.428 

>  <ROCS_ColorTanimoto>  (117) 
0.554 

>  <ROCS_RefTversky>  (117) 
0.379 

>  <ROCS_RefColorTversky>  (117) 
0.519 

>  <ROCS_RefTverskyCombo>  (117) 
0.898 

>  <ROCS_FitTversky>  (117) 
1.432 

>  <ROCS_FitColorTversky>  (117) 
1.140 

>  <ROCS_FitTverskyCombo>  (117) 
2.571 

>  <ROCS_ColorScore>  (117) 
-4.883

>  <ROCS_Overlap>  (117) 
632.152

>  <ROCS_Rank>  (117) 
187                 

$$$$
untitled-dbase-2129_8
     RDKit          3D

 13 13  0  0  0  0  0  0  0  0999 V2000
   -5.0695   11.1173  -31.8215 C   0  0  0  0  0  0  0  0  0  0  0  0
   -5.5514   11.7884  -29.1569 C   0  0  0  0  0  0  0  0  0  0  0  0
   -6.2846   10.7680  -29.7628 C   0  0  0  0  0  0  0  0  0  0  0  0
   -4.5773   12.4731  -29.8834 C   0  0  0  0  0  0  0  0  0  0  0  0
   -4.3363   12.1376  -31.2157 C   0  0  0  0  0  0  0  0  0  0  0  0
   -6.0437   10.4325  -31.0951 C   0  0  0  0  0  0  0  0  0  0  0  0
   -5.7898   12.1552  -27.7673 C   0  0  0  0  0  0  0  0  0  0  0  0
   -4.9579   13.2632  -27.1927 C   0  0  0  0  0  0  0  0  0  0  0  0
   -6.6188   11.6204  -27.0303 O   0  0  0  0  0  0  0  0  0  0  0  0
   -7.2368   10.1063  -29.0423 O   0  0  0  0  0  0  0  0  0  0  0  0
   -3.8727   13.4533  -29.2973 F   0  0  0  0  0  0  0  0  0  0  0  0
   -3.1359   12.9787  -32.1179 Cl  0  0  0  0  0  0  0  0  0  0  0  0
   -7.0195    9.0523  -31.9540 Br  0  0  0  0  0  0  0  0  0  0  0  0
  1  5  2  0
  1  6  1  0
  2  3  1  0
  2  4  2  0
  2  7  1  0
  3  6  2  0
  3 10  1  0
  4  5  1  0
  4 11  1  0
  5 12  1  0
  6 13  1  0
  7  8  1  0
  7  9  2  0
M  END
>  <id>  (118) 
EN300-1276915

>  <smiles>  (118) 
CC(=O)C=1C(O)=C(Br)C=C(Cl)C1F

>  <IUPAC Name>  (118) 
1-(3-bromo-5-chloro-6-fluoro-2-hydroxyphenyl)ethan-1-one

>  <CAS>  (118) 
1697975-75-9

>  <URL>  (118) 
https://www.enaminestore.com/catalog/EN300-1276915

>  <ROCS_ShapeQuery>  (118) 
_x1604L0AP1_x0771L0AP1

>  <ROCS_TanimotoCombo>  (118) 
0.982 

>  <ROCS_ShapeTanimoto>  (118) 
0.485 

>  <ROCS_ColorTanimoto>  (118) 
0.497 

>  <ROCS_RefTversky>  (118) 
0.446 

>  <ROCS_RefColorTversky>  (118) 
0.516 

>  <ROCS_RefTverskyCombo>  (118) 
0.961 

>  <ROCS_FitTversky>  (118) 
1.220 

>  <ROCS_FitColorTversky>  (118) 
0.933 

>  <ROCS_FitTverskyCombo>  (118) 
2.153 

>  <ROCS_ColorScore>  (118) 
-4.883

>  <ROCS_Overlap>  (118) 
746.775

>  <ROCS_Rank>  (118) 
188                 

$$$$
untitled-dbase-939_34
     RDKit          3D

 12 12  0  0  0  0  0  0  0  0999 V2000
   -4.6108   12.4981  -29.8527 C   0  0  0  0  0  0  0  0  0  0  0  0
   -4.3624   12.1882  -31.1898 C   0  0  0  0  0  0  0  0  0  0  0  0
   -5.5780   11.7889  -29.1404 C   0  0  0  0  0  0  0  0  0  0  0  0
   -5.0811   11.1691  -31.8146 C   0  0  0  0  0  0  0  0  0  0  0  0
   -6.2967   10.7698  -29.7652 C   0  0  0  0  0  0  0  0  0  0  0  0
   -6.0483   10.4598  -31.1024 C   0  0  0  0  0  0  0  0  0  0  0  0
   -3.5265   10.5175  -33.5929 C   0  0  0  0  0  0  0  0  0  0  0  0
   -4.7730   10.8945  -33.2139 C   0  0  0  0  0  0  0  0  0  0  0  0
   -5.8710   10.9743  -34.2567 C   0  0  0  0  0  0  0  0  0  0  0  0
   -7.2334   10.0996  -29.0356 O   0  0  0  0  0  0  0  0  0  0  0  0
   -6.0916    9.3959  -35.0507 Cl  0  0  0  0  0  0  0  0  0  0  0  0
   -7.0457    9.0607  -31.9300 Br  0  0  0  0  0  0  0  0  0  0  0  0
  1  2  2  0
  1  3  1  0
  2  4  1  0
  3  5  2  0
  4  6  2  0
  4  8  1  0
  5  6  1  0
  5 10  1  0
  6 12  1  0
  7  8  2  0
  8  9  1  0
  9 11  1  0
M  END
>  <id>  (119) 
EN300-1904626

>  <smiles>  (119) 
OC=1C=CC=C(C(=C)CCl)C1Br

>  <IUPAC Name>  (119) 
2-bromo-3-(3-chloroprop-1-en-2-yl)phenol

>  <CAS>  (119) 
2229122-39-6

>  <URL>  (119) 
https://www.enaminestore.com/catalog/EN300-1904626

>  <ROCS_ShapeQuery>  (119) 
_x1604L0AP1_x0771L0AP1

>  <ROCS_TanimotoCombo>  (119) 
0.982 

>  <ROCS_ShapeTanimoto>  (119) 
0.485 

>  <ROCS_ColorTanimoto>  (119) 
0.497 

>  <ROCS_RefTversky>  (119) 
0.435 

>  <ROCS_RefColorTversky>  (119) 
0.516 

>  <ROCS_RefTverskyCombo>  (119) 
0.950 

>  <ROCS_FitTversky>  (119) 
1.311 

>  <ROCS_FitColorTversky>  (119) 
0.933 

>  <ROCS_FitTverskyCombo>  (119) 
2.244 

>  <ROCS_ColorScore>  (119) 
-4.882

>  <ROCS_Overlap>  (119) 
726.912

>  <ROCS_Rank>  (119) 
190                 

$$$$
untitled-dbase-885_61
     RDKit          3D

 15 15  0  0  0  0  0  0  0  0999 V2000
   -4.6487   12.5032  -29.5300 C   0  0  0  0  0  0  0  0  0  0  0  0
   -5.0370   11.3777  -31.6322 C   0  0  0  0  0  0  0  0  0  0  0  0
   -4.3538   12.3355  -30.8829 C   0  0  0  0  0  0  0  0  0  0  0  0
   -5.6268   11.7130  -28.9262 C   0  0  0  0  0  0  0  0  0  0  0  0
   -6.3100   10.7551  -29.6755 C   0  0  0  0  0  0  0  0  0  0  0  0
   -6.0151   10.5874  -31.0284 C   0  0  0  0  0  0  0  0  0  0  0  0
   -3.3358   13.1617  -31.5128 C   0  0  0  0  0  0  0  0  0  0  0  0
   -5.1584   12.8894  -26.9132 C   0  0  0  0  0  0  0  0  0  0  0  0
   -2.5874   14.2119  -30.7026 C   0  0  0  0  0  0  0  0  0  0  0  0
   -3.0689   13.0442  -32.7243 O   0  0  0  0  0  0  0  0  0  0  0  0
   -7.2640    9.9925  -29.0672 O   0  0  0  0  0  0  0  0  0  0  0  0
   -5.9035   11.8886  -27.6039 O   0  0  0  0  0  0  0  0  0  0  0  0
   -1.9037   13.6650  -29.6608 F   0  0  0  0  0  0  0  0  0  0  0  0
   -3.4403   15.1179  -30.1574 F   0  0  0  0  0  0  0  0  0  0  0  0
   -6.9247    9.2983  -32.0796 Br  0  0  0  0  0  0  0  0  0  0  0  0
  1  3  2  0
  1  4  1  0
  2  3  1  0
  2  6  2  0
  3  7  1  0
  4  5  2  0
  4 12  1  0
  5  6  1  0
  5 11  1  0
  6 15  1  0
  7  9  1  0
  7 10  2  0
  8 12  1  0
  9 13  1  0
  9 14  1  0
M  END
>  <id>  (120) 
EN300-1958945

>  <smiles>  (120) 
COC=1C=C(C=C(Br)C1O)C(=O)C(F)F

>  <IUPAC Name>  (120) 
1-(3-bromo-4-hydroxy-5-methoxyphenyl)-2,2-difluoroethan-1-one

>  <CAS>  (120) 
2229606-69-1

>  <URL>  (120) 
https://www.enaminestore.com/catalog/EN300-1958945

>  <ROCS_ShapeQuery>  (120) 
_x1604L0AP1_x0771L0AP1

>  <ROCS_TanimotoCombo>  (120) 
0.982 

>  <ROCS_ShapeTanimoto>  (120) 
0.552 

>  <ROCS_ColorTanimoto>  (120) 
0.430 

>  <ROCS_RefTversky>  (120) 
0.504 

>  <ROCS_RefColorTversky>  (120) 
0.496 

>  <ROCS_RefTverskyCombo>  (120) 
1.001 

>  <ROCS_FitTversky>  (120) 
1.205 

>  <ROCS_FitColorTversky>  (120) 
0.764 

>  <ROCS_FitTverskyCombo>  (120) 
1.969 

>  <ROCS_ColorScore>  (120) 
-4.723

>  <ROCS_Overlap>  (120) 
847.493

>  <ROCS_Rank>  (120) 
191                 

$$$$
untitled-dbase-18_1
     RDKit          3D

 10 10  0  0  0  0  0  0  0  0999 V2000
   -4.5845   12.4679  -29.8411 C   0  0  0  0  0  0  0  0  0  0  0  0
   -5.5653   11.7757  -29.1308 C   0  0  0  0  0  0  0  0  0  0  0  0
   -5.0571   11.1309  -31.7970 C   0  0  0  0  0  0  0  0  0  0  0  0
   -4.3304   12.1456  -31.1742 C   0  0  0  0  0  0  0  0  0  0  0  0
   -6.2920   10.7610  -29.7537 C   0  0  0  0  0  0  0  0  0  0  0  0
   -6.0379   10.4386  -31.0868 C   0  0  0  0  0  0  0  0  0  0  0  0
   -3.3071   12.8672  -31.9139 C   0  0  0  0  0  0  0  0  0  0  0  0
   -2.6311   13.7735  -31.4192 O   0  0  0  0  0  0  0  0  0  0  0  0
   -7.2441   10.1044  -29.0321 O   0  0  0  0  0  0  0  0  0  0  0  0
   -7.0064    9.0664  -31.9655 Br  0  0  0  0  0  0  0  0  0  0  0  0
  1  2  2  0
  1  4  1  0
  2  5  1  0
  3  4  2  0
  3  6  1  0
  4  7  1  0
  5  6  2  0
  5  9  1  0
  6 10  1  0
  7  8  2  0
M  END
>  <id>  (121) 
EN300-07841

>  <smiles>  (121) 
OC=1C=CC(C=O)=CC1Br

>  <MDLNUMBER>  (121) 
MFCD00017348

>  <IUPAC Name>  (121) 
3-bromo-4-hydroxybenzaldehyde

>  <CAS>  (121) 
2973-78-6

>  <Purity>  (121) 
95

>  <URL>  (121) 
https://www.enaminestore.com/catalog/EN300-07841

>  <MP>  (121) 
130-135

>  <ROCS_ShapeQuery>  (121) 
_x1604L0AP1_x0771L0AP1

>  <ROCS_TanimotoCombo>  (121) 
0.981 

>  <ROCS_ShapeTanimoto>  (121) 
0.485 

>  <ROCS_ColorTanimoto>  (121) 
0.497 

>  <ROCS_RefTversky>  (121) 
0.422 

>  <ROCS_RefColorTversky>  (121) 
0.515 

>  <ROCS_RefTverskyCombo>  (121) 
0.937 

>  <ROCS_FitTversky>  (121) 
1.446 

>  <ROCS_FitColorTversky>  (121) 
0.932 

>  <ROCS_FitTverskyCombo>  (121) 
2.378 

>  <ROCS_ColorScore>  (121) 
-4.879

>  <ROCS_Overlap>  (121) 
703.626

>  <ROCS_Rank>  (121) 
193                 

$$$$
untitled-dbase-171_72
     RDKit          3D

 12 12  0  0  0  0  0  0  0  0999 V2000
   -4.5661   12.4545  -29.8463 C   0  0  0  0  0  0  0  0  0  0  0  0
   -5.0553   11.1206  -31.8002 C   0  0  0  0  0  0  0  0  0  0  0  0
   -4.3195   12.1305  -31.1803 C   0  0  0  0  0  0  0  0  0  0  0  0
   -5.5485   11.7687  -29.1320 C   0  0  0  0  0  0  0  0  0  0  0  0
   -6.2844   10.7588  -29.7519 C   0  0  0  0  0  0  0  0  0  0  0  0
   -6.0378   10.4347  -31.0860 C   0  0  0  0  0  0  0  0  0  0  0  0
   -4.9810   13.1411  -27.2746 C   0  0  0  0  0  0  0  0  0  0  0  0
   -3.2697   12.8647  -31.9438 C   0  0  0  0  0  0  0  0  0  0  0  0
   -7.2418   10.1000  -29.0370 O   0  0  0  0  0  0  0  0  0  0  0  0
   -5.7782   12.0970  -27.8299 O   0  0  0  0  0  0  0  0  0  0  0  0
   -3.0870   14.5893  -31.3956 S   0  0  0  0  0  0  0  0  0  0  0  0
   -7.0173    9.0685  -31.9624 Br  0  0  0  0  0  0  0  0  0  0  0  0
  1  3  2  0
  1  4  1  0
  2  3  1  0
  2  6  2  0
  3  8  1  0
  4  5  2  0
  4 10  1  0
  5  6  1  0
  5  9  1  0
  6 12  1  0
  7 10  1  0
  8 11  1  0
M  END
>  <id>  (122) 
EN300-1289252

>  <smiles>  (122) 
COC=1C=C(CS)C=C(Br)C1O

>  <IUPAC Name>  (122) 
2-bromo-6-methoxy-4-(sulfanylmethyl)phenol

>  <CAS>  (122) 
2172356-10-2

>  <URL>  (122) 
https://www.enaminestore.com/catalog/EN300-1289252

>  <ROCS_ShapeQuery>  (122) 
_x1604L0AP1_x0771L0AP1

>  <ROCS_TanimotoCombo>  (122) 
0.981 

>  <ROCS_ShapeTanimoto>  (122) 
0.484 

>  <ROCS_ColorTanimoto>  (122) 
0.497 

>  <ROCS_RefTversky>  (122) 
0.435 

>  <ROCS_RefColorTversky>  (122) 
0.516 

>  <ROCS_RefTverskyCombo>  (122) 
0.951 

>  <ROCS_FitTversky>  (122) 
1.305 

>  <ROCS_FitColorTversky>  (122) 
0.932 

>  <ROCS_FitTverskyCombo>  (122) 
2.237 

>  <ROCS_ColorScore>  (122) 
-4.881

>  <ROCS_Overlap>  (122) 
727.624

>  <ROCS_Rank>  (122) 
194                 

$$$$
untitled-dbase-95_0
     RDKit          3D

  9  9  0  0  0  0  0  0  0  0999 V2000
   -4.3431   12.1498  -31.2039 C   0  0  0  0  0  0  0  0  0  0  0  0
   -4.5912   12.4785  -29.8712 C   0  0  0  0  0  0  0  0  0  0  0  0
   -5.0694   11.1289  -31.8172 C   0  0  0  0  0  0  0  0  0  0  0  0
   -6.2916   10.7655  -29.7652 C   0  0  0  0  0  0  0  0  0  0  0  0
   -5.5654   11.7864  -29.1519 C   0  0  0  0  0  0  0  0  0  0  0  0
   -6.0436   10.4368  -31.0979 C   0  0  0  0  0  0  0  0  0  0  0  0
   -7.2376   10.1081  -29.0364 O   0  0  0  0  0  0  0  0  0  0  0  0
   -5.7997   12.1095  -27.8724 F   0  0  0  0  0  0  0  0  0  0  0  0
   -7.0130    9.0582  -31.9651 Br  0  0  0  0  0  0  0  0  0  0  0  0
  1  2  2  0
  1  3  1  0
  2  5  1  0
  3  6  2  0
  4  5  2  0
  4  6  1  0
  4  7  1  0
  5  8  1  0
  6  9  1  0
M  END
>  <id>  (123) 
EN300-201350

>  <smiles>  (123) 
OC=1C(F)=CC=CC1Br

>  <MDLNUMBER>  (123) 
MFCD03788533

>  <IUPAC Name>  (123) 
2-bromo-6-fluorophenol

>  <CAS>  (123) 
2040-89-3

>  <Purity>  (123) 
95

>  <URL>  (123) 
https://www.enaminestore.com/catalog/EN300-201350

>  <MP>  (123) 
47-48

>  <ROCS_ShapeQuery>  (123) 
_x1604L0AP1_x0771L0AP1

>  <ROCS_TanimotoCombo>  (123) 
0.981 

>  <ROCS_ShapeTanimoto>  (123) 
0.428 

>  <ROCS_ColorTanimoto>  (123) 
0.553 

>  <ROCS_RefTversky>  (123) 
0.380 

>  <ROCS_RefColorTversky>  (123) 
0.518 

>  <ROCS_RefTverskyCombo>  (123) 
0.898 

>  <ROCS_FitTversky>  (123) 
1.415 

>  <ROCS_FitColorTversky>  (123) 
1.139 

>  <ROCS_FitTverskyCombo>  (123) 
2.554 

>  <ROCS_ColorScore>  (123) 
-4.879

>  <ROCS_Overlap>  (123) 
633.546

>  <ROCS_Rank>  (123) 
195                 

$$$$
untitled-dbase-1179_478
     RDKit          3D

 16 16  0  0  0  0  0  0  0  0999 V2000
   -4.4650   11.3614  -31.8796 C   0  0  0  0  0  0  0  0  0  0  0  0
   -4.2766   11.7213  -30.5452 C   0  0  0  0  0  0  0  0  0  0  0  0
   -5.5741   10.5991  -32.2465 C   0  0  0  0  0  0  0  0  0  0  0  0
   -5.1972   11.3188  -29.5777 C   0  0  0  0  0  0  0  0  0  0  0  0
   -6.3063   10.5564  -29.9445 C   0  0  0  0  0  0  0  0  0  0  0  0
   -6.4947   10.1966  -31.2789 C   0  0  0  0  0  0  0  0  0  0  0  0
   -4.0420    8.4331  -33.3372 C   0  0  0  0  0  0  0  0  0  0  0  0
   -5.0085    8.7029  -35.6215 C   0  0  0  0  0  0  0  0  0  0  0  0
   -5.5728   12.9129  -27.8533 C   0  0  0  0  0  0  0  0  0  0  0  0
   -5.7322   10.2374  -33.7053 C   0  0  0  0  0  0  0  0  0  0  0  0
   -6.4197    7.7508  -33.7828 C   0  0  0  0  0  0  0  0  0  0  0  0
   -5.3274    8.7904  -34.1178 C   0  0  0  0  0  0  0  0  0  0  0  0
   -7.1929   10.1750  -28.9797 O   0  0  0  0  0  0  0  0  0  0  0  0
   -6.2455    6.5632  -34.5444 O   0  0  0  0  0  0  0  0  0  0  0  0
   -4.9994   11.6782  -28.2785 O   0  0  0  0  0  0  0  0  0  0  0  0
   -8.0156    9.1639  -31.7722 Br  0  0  0  0  0  0  0  0  0  0  0  0
  1  2  2  0
  1  3  1  0
  2  4  1  0
  3  6  2  0
  3 10  1  0
  4  5  2  0
  4 15  1  0
  5  6  1  0
  5 13  1  0
  6 16  1  0
  7 12  1  0
  8 12  1  0
  9 15  1  0
 10 12  1  0
 11 12  1  0
 11 14  1  0
M  END
>  <id>  (124) 
EN300-1936273

>  <smiles>  (124) 
COC=1C=CC(CC(C)(C)CO)=C(Br)C1O

>  <IUPAC Name>  (124) 
2-bromo-3-(3-hydroxy-2,2-dimethylpropyl)-6-methoxyphenol

>  <CAS>  (124) 
2229032-71-5

>  <URL>  (124) 
https://www.enaminestore.com/catalog/EN300-1936273

>  <ROCS_ShapeQuery>  (124) 
_x1604L0AP1_x0771L0AP1

>  <ROCS_TanimotoCombo>  (124) 
0.981 

>  <ROCS_ShapeTanimoto>  (124) 
0.491 

>  <ROCS_ColorTanimoto>  (124) 
0.490 

>  <ROCS_RefTversky>  (124) 
0.471 

>  <ROCS_RefColorTversky>  (124) 
0.605 

>  <ROCS_RefTverskyCombo>  (124) 
1.076 

>  <ROCS_FitTversky>  (124) 
1.096 

>  <ROCS_FitColorTversky>  (124) 
0.719 

>  <ROCS_FitTverskyCombo>  (124) 
1.816 

>  <ROCS_ColorScore>  (124) 
-5.817

>  <ROCS_Overlap>  (124) 
791.749

>  <ROCS_Rank>  (124) 
196                 

$$$$
untitled-dbase-341_29
     RDKit          3D

 14 14  0  0  1  0  0  0  0  0999 V2000
   -4.3592   12.1711  -31.2103 C   0  0  0  0  0  0  0  0  0  0  0  0
   -4.6037   12.4952  -29.8758 C   0  0  0  0  0  0  0  0  0  0  0  0
   -5.0809   11.1464  -31.8227 C   0  0  0  0  0  0  0  0  0  0  0  0
   -5.5697   11.7946  -29.1537 C   0  0  0  0  0  0  0  0  0  0  0  0
   -6.2914   10.7699  -29.7660 C   0  0  0  0  0  0  0  0  0  0  0  0
   -6.0470   10.4458  -31.1005 C   0  0  0  0  0  0  0  0  0  0  0  0
   -3.7259   11.7675  -33.8542 C   0  0  0  0  0  0  0  0  0  0  0  0
   -5.0150   13.1827  -27.3040 C   0  0  0  0  0  0  0  0  0  0  0  0
   -4.7817   10.8394  -33.2549 C   0  0  2  0  0  0  0  0  0  0  0  0
   -5.7910   10.2303  -35.2516 N   0  0  0  0  0  0  0  0  0  0  0  0
   -7.2315   10.0994  -29.0386 O   0  0  0  0  0  0  0  0  0  0  0  0
   -5.7970   12.1229  -27.8511 O   0  0  0  0  0  0  0  0  0  0  0  0
   -5.9841   10.9727  -34.0193 O   0  0  0  0  0  0  0  0  0  0  0  0
   -7.0427    9.0523  -31.9309 Br  0  0  0  0  0  0  0  0  0  0  0  0
  1  2  2  0
  1  3  1  0
  2  4  1  0
  3  6  2  0
  3  9  1  0
  4  5  2  0
  4 12  1  0
  5  6  1  0
  5 11  1  0
  6 14  1  0
  9  7  1  6
  8 12  1  0
  9 13  1  0
 10 13  1  0
M  END
>  <id>  (125) 
EN300-1935613

>  <smiles>  (125) 
COC=1C=CC(C(C)ON)=C(Br)C1O

>  <IUPAC Name>  (125) 
3-[1-(aminooxy)ethyl]-2-bromo-6-methoxyphenol

>  <CAS>  (125) 
2229278-28-6

>  <URL>  (125) 
https://www.enaminestore.com/catalog/EN300-1935613

>  <ROCS_ShapeQuery>  (125) 
_x1604L0AP1_x0771L0AP1

>  <ROCS_TanimotoCombo>  (125) 
0.981 

>  <ROCS_ShapeTanimoto>  (125) 
0.483 

>  <ROCS_ColorTanimoto>  (125) 
0.497 

>  <ROCS_RefTversky>  (125) 
0.452 

>  <ROCS_RefColorTversky>  (125) 
0.516 

>  <ROCS_RefTverskyCombo>  (125) 
0.968 

>  <ROCS_FitTversky>  (125) 
1.167 

>  <ROCS_FitColorTversky>  (125) 
0.933 

>  <ROCS_FitTverskyCombo>  (125) 
2.099 

>  <ROCS_ColorScore>  (125) 
-4.884

>  <ROCS_Overlap>  (125) 
758.253

>  <ROCS_Rank>  (125) 
197                 

$$$$
untitled-dbase-2003_61
     RDKit          3D

 13 13  0  0  0  0  0  0  0  0999 V2000
   -5.0583   11.1395  -31.7927 C   0  0  0  0  0  0  0  0  0  0  0  0
   -5.5721   11.7785  -29.1262 C   0  0  0  0  0  0  0  0  0  0  0  0
   -4.3350   12.1548  -31.1671 C   0  0  0  0  0  0  0  0  0  0  0  0
   -6.2954   10.7631  -29.7519 C   0  0  0  0  0  0  0  0  0  0  0  0
   -4.5919   12.4744  -29.8338 C   0  0  0  0  0  0  0  0  0  0  0  0
   -6.0386   10.4436  -31.0851 C   0  0  0  0  0  0  0  0  0  0  0  0
   -3.3147   12.8791  -31.9087 C   0  0  0  0  0  0  0  0  0  0  0  0
   -1.9946   11.4299  -33.5453 C   0  0  0  0  0  0  0  0  0  0  0  0
   -3.0629   12.4986  -33.3745 C   0  0  0  0  0  0  0  0  0  0  0  0
   -2.6364   13.7924  -31.4086 O   0  0  0  0  0  0  0  0  0  0  0  0
   -7.2464   10.1021  -29.0327 O   0  0  0  0  0  0  0  0  0  0  0  0
   -3.9039   13.4494  -29.2230 F   0  0  0  0  0  0  0  0  0  0  0  0
   -7.0033    9.0714  -31.9677 Br  0  0  0  0  0  0  0  0  0  0  0  0
  1  3  2  0
  1  6  1  0
  2  4  1  0
  2  5  2  0
  3  5  1  0
  3  7  1  0
  4  6  2  0
  4 11  1  0
  5 12  1  0
  6 13  1  0
  7  9  1  0
  7 10  2  0
  8  9  1  0
M  END
>  <id>  (126) 
EN300-1276577

>  <smiles>  (126) 
CCC(=O)C=1C=C(Br)C(O)=CC1F

>  <MDLNUMBER>  (126) 
MFCD24122857

>  <IUPAC Name>  (126) 
1-(5-bromo-2-fluoro-4-hydroxyphenyl)propan-1-one

>  <CAS>  (126) 
1541607-36-6

>  <URL>  (126) 
https://www.enaminestore.com/catalog/EN300-1276577

>  <ROCS_ShapeQuery>  (126) 
_x1604L0AP1_x0771L0AP1

>  <ROCS_TanimotoCombo>  (126) 
0.981 

>  <ROCS_ShapeTanimoto>  (126) 
0.530 

>  <ROCS_ColorTanimoto>  (126) 
0.451 

>  <ROCS_RefTversky>  (126) 
0.473 

>  <ROCS_RefColorTversky>  (126) 
0.513 

>  <ROCS_RefTverskyCombo>  (126) 
0.986 

>  <ROCS_FitTversky>  (126) 
1.294 

>  <ROCS_FitColorTversky>  (126) 
0.789 

>  <ROCS_FitTverskyCombo>  (126) 
2.082 

>  <ROCS_ColorScore>  (126) 
-4.878

>  <ROCS_Overlap>  (126) 
792.503

>  <ROCS_Rank>  (126) 
198                 

$$$$
untitled-dbase-2108_78
     RDKit          3D

 13 13  0  0  0  0  0  0  0  0999 V2000
   -4.6391   12.5215  -29.9967 C   0  0  0  0  0  0  0  0  0  0  0  0
   -4.4554   12.1929  -31.3398 C   0  0  0  0  0  0  0  0  0  0  0  0
   -5.5585   11.8115  -29.2244 C   0  0  0  0  0  0  0  0  0  0  0  0
   -5.1912   11.1544  -31.9106 C   0  0  0  0  0  0  0  0  0  0  0  0
   -6.2943   10.7730  -29.7953 C   0  0  0  0  0  0  0  0  0  0  0  0
   -6.1106   10.4445  -31.1384 C   0  0  0  0  0  0  0  0  0  0  0  0
   -6.0199   10.6179  -35.6428 C   0  0  0  0  0  0  0  0  0  0  0  0
   -6.1493    9.1760  -36.0033 C   0  0  0  0  0  0  0  0  0  0  0  0
   -4.9557   10.8395  -33.3652 C   0  0  0  0  0  0  0  0  0  0  0  0
   -6.2431   10.9419  -34.1812 C   0  0  0  0  0  0  0  0  0  0  0  0
   -5.7473   11.4424  -36.5058 O   0  0  0  0  0  0  0  0  0  0  0  0
   -7.1841   10.1021  -29.0097 O   0  0  0  0  0  0  0  0  0  0  0  0
   -7.1198    9.0256  -31.9061 Br  0  0  0  0  0  0  0  0  0  0  0  0
  1  2  2  0
  1  3  1  0
  2  4  1  0
  3  5  2  0
  4  6  2  0
  4  9  1  0
  5  6  1  0
  5 12  1  0
  6 13  1  0
  7  8  1  0
  7 10  1  0
  7 11  2  0
  9 10  1  0
M  END
>  <id>  (127) 
EN300-1893665

>  <smiles>  (127) 
CC(=O)CCC=1C=CC=C(O)C1Br

>  <MDLNUMBER>  (127) 
MFCD26654040

>  <IUPAC Name>  (127) 
4-(2-bromo-3-hydroxyphenyl)butan-2-one

>  <CAS>  (127) 
1531046-93-1

>  <URL>  (127) 
https://www.enaminestore.com/catalog/EN300-1893665

>  <ROCS_ShapeQuery>  (127) 
_x1604L0AP1_x0771L0AP1

>  <ROCS_TanimotoCombo>  (127) 
0.980 

>  <ROCS_ShapeTanimoto>  (127) 
0.489 

>  <ROCS_ColorTanimoto>  (127) 
0.492 

>  <ROCS_RefTversky>  (127) 
0.446 

>  <ROCS_RefColorTversky>  (127) 
0.512 

>  <ROCS_RefTverskyCombo>  (127) 
0.958 

>  <ROCS_FitTversky>  (127) 
1.246 

>  <ROCS_FitColorTversky>  (127) 
0.926 

>  <ROCS_FitTverskyCombo>  (127) 
2.172 

>  <ROCS_ColorScore>  (127) 
-4.846

>  <ROCS_Overlap>  (127) 
746.464

>  <ROCS_Rank>  (127) 
200                 

$$$$
untitled-dbase-275_64
     RDKit          3D

 12 12  0  0  0  0  0  0  0  0999 V2000
   -4.6117   12.4952  -29.8717 C   0  0  0  0  0  0  0  0  0  0  0  0
   -4.3672   12.1751  -31.2071 C   0  0  0  0  0  0  0  0  0  0  0  0
   -5.5765   11.7912  -29.1511 C   0  0  0  0  0  0  0  0  0  0  0  0
   -5.0875   11.1511  -31.8220 C   0  0  0  0  0  0  0  0  0  0  0  0
   -6.2969   10.7672  -29.7660 C   0  0  0  0  0  0  0  0  0  0  0  0
   -6.0524   10.4471  -31.1014 C   0  0  0  0  0  0  0  0  0  0  0  0
   -5.7507   10.6566  -35.5916 C   0  0  0  0  0  0  0  0  0  0  0  0
   -4.7881   10.8473  -33.2548 C   0  0  0  0  0  0  0  0  0  0  0  0
   -6.0294   10.9699  -34.1412 C   0  0  0  0  0  0  0  0  0  0  0  0
   -6.2631    9.7363  -36.2194 O   0  0  0  0  0  0  0  0  0  0  0  0
   -7.2323   10.1017  -29.0304 O   0  0  0  0  0  0  0  0  0  0  0  0
   -7.0412    9.0479  -31.9295 Br  0  0  0  0  0  0  0  0  0  0  0  0
  1  2  2  0
  1  3  1  0
  2  4  1  0
  3  5  2  0
  4  6  2  0
  4  8  1  0
  5  6  1  0
  5 11  1  0
  6 12  1  0
  7  9  1  0
  7 10  2  0
  8  9  1  0
M  END
>  <id>  (128) 
EN300-1894743

>  <smiles>  (128) 
OC=1C=CC=C(CCC=O)C1Br

>  <MDLNUMBER>  (128) 
MFCD18391528

>  <IUPAC Name>  (128) 
3-(2-bromo-3-hydroxyphenyl)propanal

>  <CAS>  (128) 
1261479-02-0

>  <URL>  (128) 
https://www.enaminestore.com/catalog/EN300-1894743

>  <ROCS_ShapeQuery>  (128) 
_x1604L0AP1_x0771L0AP1

>  <ROCS_TanimotoCombo>  (128) 
0.980 

>  <ROCS_ShapeTanimoto>  (128) 
0.483 

>  <ROCS_ColorTanimoto>  (128) 
0.497 

>  <ROCS_RefTversky>  (128) 
0.434 

>  <ROCS_RefColorTversky>  (128) 
0.516 

>  <ROCS_RefTverskyCombo>  (128) 
0.950 

>  <ROCS_FitTversky>  (128) 
1.301 

>  <ROCS_FitColorTversky>  (128) 
0.932 

>  <ROCS_FitTverskyCombo>  (128) 
2.233 

>  <ROCS_ColorScore>  (128) 
-4.881

>  <ROCS_Overlap>  (128) 
726.705

>  <ROCS_Rank>  (128) 
201                 

$$$$
untitled-dbase-147_52
     RDKit          3D

 13 13  0  0  0  0  0  0  0  0999 V2000
   -5.0554   11.1355  -31.7914 C   0  0  0  0  0  0  0  0  0  0  0  0
   -5.5693   11.7752  -29.1251 C   0  0  0  0  0  0  0  0  0  0  0  0
   -4.3307   12.1496  -31.1654 C   0  0  0  0  0  0  0  0  0  0  0  0
   -4.5876   12.4695  -29.8322 C   0  0  0  0  0  0  0  0  0  0  0  0
   -6.2940   10.7611  -29.7512 C   0  0  0  0  0  0  0  0  0  0  0  0
   -6.0371   10.4413  -31.0843 C   0  0  0  0  0  0  0  0  0  0  0  0
   -3.3117   12.8595  -31.9265 C   0  0  0  0  0  0  0  0  0  0  0  0
   -3.8273   13.5521  -29.1383 C   0  0  0  0  0  0  0  0  0  0  0  0
   -2.0199   11.3811  -33.5568 C   0  0  0  0  0  0  0  0  0  0  0  0
   -3.0788   12.4597  -33.3893 C   0  0  0  0  0  0  0  0  0  0  0  0
   -2.6238   13.7728  -31.4427 O   0  0  0  0  0  0  0  0  0  0  0  0
   -7.2468   10.1016  -29.0330 O   0  0  0  0  0  0  0  0  0  0  0  0
   -7.0027    9.0696  -31.9667 Br  0  0  0  0  0  0  0  0  0  0  0  0
  1  3  2  0
  1  6  1  0
  2  4  2  0
  2  5  1  0
  3  4  1  0
  3  7  1  0
  4  8  1  0
  5  6  2  0
  5 12  1  0
  6 13  1  0
  7 10  1  0
  7 11  2  0
  9 10  1  0
M  END
>  <id>  (129) 
EN300-1276697

>  <smiles>  (129) 
CCC(=O)C=1C=C(Br)C(O)=CC1C

>  <IUPAC Name>  (129) 
1-(5-bromo-4-hydroxy-2-methylphenyl)propan-1-one

>  <CAS>  (129) 
2110498-59-2

>  <URL>  (129) 
https://www.enaminestore.com/catalog/EN300-1276697

>  <ROCS_ShapeQuery>  (129) 
_x1604L0AP1_x0771L0AP1

>  <ROCS_TanimotoCombo>  (129) 
0.980 

>  <ROCS_ShapeTanimoto>  (129) 
0.529 

>  <ROCS_ColorTanimoto>  (129) 
0.451 

>  <ROCS_RefTversky>  (129) 
0.471 

>  <ROCS_RefColorTversky>  (129) 
0.513 

>  <ROCS_RefTverskyCombo>  (129) 
0.984 

>  <ROCS_FitTversky>  (129) 
1.303 

>  <ROCS_FitColorTversky>  (129) 
0.789 

>  <ROCS_FitTverskyCombo>  (129) 
2.092 

>  <ROCS_ColorScore>  (129) 
-4.878

>  <ROCS_Overlap>  (129) 
788.917

>  <ROCS_Rank>  (129) 
202                 

$$$$
untitled-dbase-1639_98
     RDKit          3D

 13 14  0  0  0  0  0  0  0  0999 V2000
   -4.6098   12.4921  -29.8752 C   0  0  0  0  0  0  0  0  0  0  0  0
   -4.3627   12.1674  -31.2090 C   0  0  0  0  0  0  0  0  0  0  0  0
   -5.5765   11.7910  -29.1542 C   0  0  0  0  0  0  0  0  0  0  0  0
   -5.0822   11.1416  -31.8219 C   0  0  0  0  0  0  0  0  0  0  0  0
   -6.2961   10.7653  -29.7672 C   0  0  0  0  0  0  0  0  0  0  0  0
   -6.0490   10.4406  -31.1010 C   0  0  0  0  0  0  0  0  0  0  0  0
   -5.8557   10.6342  -35.6264 C   0  0  0  0  0  0  0  0  0  0  0  0
   -6.5815    9.6651  -34.7348 C   0  0  0  0  0  0  0  0  0  0  0  0
   -5.9772   10.9144  -34.1530 C   0  0  0  0  0  0  0  0  0  0  0  0
   -4.7754   10.8282  -33.2748 C   0  0  0  0  0  0  0  0  0  0  0  0
   -7.2334   10.1027  -29.0313 O   0  0  0  0  0  0  0  0  0  0  0  0
   -6.8993   11.9533  -33.7839 O   0  0  0  0  0  0  0  0  0  0  0  0
   -7.0367    9.0391  -31.9265 Br  0  0  0  0  0  0  0  0  0  0  0  0
  1  2  2  0
  1  3  1  0
  2  4  1  0
  3  5  2  0
  4  6  2  0
  4 10  1  0
  5  6  1  0
  5 11  1  0
  6 13  1  0
  7  8  1  0
  7  9  1  0
  8  9  1  0
  9 10  1  0
  9 12  1  0
M  END
>  <id>  (130) 
EN300-1904808

>  <smiles>  (130) 
OC=1C=CC=C(CC2(O)CC2)C1Br

>  <IUPAC Name>  (130) 
2-bromo-3-[(1-hydroxycyclopropyl)methyl]phenol

>  <CAS>  (130) 
2228226-54-6

>  <URL>  (130) 
https://www.enaminestore.com/catalog/EN300-1904808

>  <ROCS_ShapeQuery>  (130) 
_x1604L0AP1_x0771L0AP1

>  <ROCS_TanimotoCombo>  (130) 
0.980 

>  <ROCS_ShapeTanimoto>  (130) 
0.528 

>  <ROCS_ColorTanimoto>  (130) 
0.451 

>  <ROCS_RefTversky>  (130) 
0.472 

>  <ROCS_RefColorTversky>  (130) 
0.513 

>  <ROCS_RefTverskyCombo>  (130) 
0.985 

>  <ROCS_FitTversky>  (130) 
1.293 

>  <ROCS_FitColorTversky>  (130) 
0.789 

>  <ROCS_FitTverskyCombo>  (130) 
2.082 

>  <ROCS_ColorScore>  (130) 
-4.881

>  <ROCS_Overlap>  (130) 
790.831

>  <ROCS_Rank>  (130) 
203                 

$$$$
untitled-dbase-1031_68
     RDKit          3D

 14 14  0  0  0  0  0  0  0  0999 V2000
   -4.6051   12.4872  -29.8268 C   0  0  0  0  0  0  0  0  0  0  0  0
   -5.5831   11.7860  -29.1215 C   0  0  0  0  0  0  0  0  0  0  0  0
   -5.0611   11.1510  -31.7874 C   0  0  0  0  0  0  0  0  0  0  0  0
   -4.3441   12.1697  -31.1598 C   0  0  0  0  0  0  0  0  0  0  0  0
   -6.3001   10.7673  -29.7491 C   0  0  0  0  0  0  0  0  0  0  0  0
   -6.0391   10.4498  -31.0821 C   0  0  0  0  0  0  0  0  0  0  0  0
   -3.8031   14.1990  -32.6661 C   0  0  0  0  0  0  0  0  0  0  0  0
   -2.1798   13.4305  -30.9482 C   0  0  0  0  0  0  0  0  0  0  0  0
   -2.5961   12.0239  -32.9915 C   0  0  0  0  0  0  0  0  0  0  0  0
   -3.2638   12.9445  -31.9375 C   0  0  0  0  0  0  0  0  0  0  0  0
   -2.7141   11.0538  -35.0942 N   0  0  0  0  0  0  0  0  0  0  0  0
   -7.2480   10.1002  -29.0317 O   0  0  0  0  0  0  0  0  0  0  0  0
   -3.4038   11.9284  -34.1599 O   0  0  0  0  0  0  0  0  0  0  0  0
   -6.9927    9.0708  -31.9661 Br  0  0  0  0  0  0  0  0  0  0  0  0
  1  2  2  0
  1  4  1  0
  2  5  1  0
  3  4  2  0
  3  6  1  0
  4 10  1  0
  5  6  2  0
  5 12  1  0
  6 14  1  0
  7 10  1  0
  8 10  1  0
  9 10  1  0
  9 13  1  0
 11 13  1  0
M  END
>  <id>  (131) 
EN300-1906342

>  <smiles>  (131) 
CC(C)(CON)C=1C=CC(O)=C(Br)C1

>  <IUPAC Name>  (131) 
4-[1-(aminooxy)-2-methylpropan-2-yl]-2-bromophenol

>  <CAS>  (131) 
2228846-56-6

>  <URL>  (131) 
https://www.enaminestore.com/catalog/EN300-1906342

>  <ROCS_ShapeQuery>  (131) 
_x1604L0AP1_x0771L0AP1

>  <ROCS_TanimotoCombo>  (131) 
0.979 

>  <ROCS_ShapeTanimoto>  (131) 
0.483 

>  <ROCS_ColorTanimoto>  (131) 
0.497 

>  <ROCS_RefTversky>  (131) 
0.450 

>  <ROCS_RefColorTversky>  (131) 
0.515 

>  <ROCS_RefTverskyCombo>  (131) 
0.965 

>  <ROCS_FitTversky>  (131) 
1.181 

>  <ROCS_FitColorTversky>  (131) 
0.932 

>  <ROCS_FitTverskyCombo>  (131) 
2.113 

>  <ROCS_ColorScore>  (131) 
-4.877

>  <ROCS_Overlap>  (131) 
754.124

>  <ROCS_Rank>  (131) 
204                 

$$$$
untitled-dbase-251_0
     RDKit          3D

  9  9  0  0  0  0  0  0  0  0999 V2000
   -4.5984   12.4921  -29.8304 C   0  0  0  0  0  0  0  0  0  0  0  0
   -5.5749   11.7833  -29.1306 C   0  0  0  0  0  0  0  0  0  0  0  0
   -4.3367   12.1856  -31.1658 C   0  0  0  0  0  0  0  0  0  0  0  0
   -6.2896   10.7680  -29.7661 C   0  0  0  0  0  0  0  0  0  0  0  0
   -5.0514   11.1702  -31.8013 C   0  0  0  0  0  0  0  0  0  0  0  0
   -6.0279   10.4614  -31.1015 C   0  0  0  0  0  0  0  0  0  0  0  0
   -7.2357   10.0996  -29.0465 O   0  0  0  0  0  0  0  0  0  0  0  0
   -4.6678   10.8500  -33.4576 Cl  0  0  0  0  0  0  0  0  0  0  0  0
   -7.0284    9.0652  -31.9312 Br  0  0  0  0  0  0  0  0  0  0  0  0
  1  2  2  0
  1  3  1  0
  2  4  1  0
  3  5  2  0
  4  6  2  0
  4  7  1  0
  5  6  1  0
  5  8  1  0
  6  9  1  0
M  END
>  <id>  (132) 
EN300-624354

>  <smiles>  (132) 
OC=1C=CC=C(Cl)C1Br

>  <MDLNUMBER>  (132) 
MFCD04037216

>  <IUPAC Name>  (132) 
2-bromo-3-chlorophenol

>  <CAS>  (132) 
855836-62-3

>  <URL>  (132) 
https://www.enaminestore.com/catalog/EN300-624354

>  <ROCS_ShapeQuery>  (132) 
_x1604L0AP1_x0771L0AP1

>  <ROCS_TanimotoCombo>  (132) 
0.979 

>  <ROCS_ShapeTanimoto>  (132) 
0.425 

>  <ROCS_ColorTanimoto>  (132) 
0.554 

>  <ROCS_RefTversky>  (132) 
0.376 

>  <ROCS_RefColorTversky>  (132) 
0.519 

>  <ROCS_RefTverskyCombo>  (132) 
0.895 

>  <ROCS_FitTversky>  (132) 
1.440 

>  <ROCS_FitColorTversky>  (132) 
1.140 

>  <ROCS_FitTverskyCombo>  (132) 
2.580 

>  <ROCS_ColorScore>  (132) 
-4.885

>  <ROCS_Overlap>  (132) 
626.516

>  <ROCS_Rank>  (132) 
205                 

$$$$
untitled-dbase-778_8
     RDKit          3D

 14 15  0  0  0  0  0  0  0  0999 V2000
   -4.6146   12.4987  -29.8589 C   0  0  0  0  0  0  0  0  0  0  0  0
   -4.3642   12.1812  -31.1938 C   0  0  0  0  0  0  0  0  0  0  0  0
   -5.5809   11.7916  -29.1432 C   0  0  0  0  0  0  0  0  0  0  0  0
   -5.0800   11.1567  -31.8132 C   0  0  0  0  0  0  0  0  0  0  0  0
   -6.2967   10.7671  -29.7626 C   0  0  0  0  0  0  0  0  0  0  0  0
   -6.0463   10.4497  -31.0976 C   0  0  0  0  0  0  0  0  0  0  0  0
   -5.9062   11.0030  -34.1821 C   0  0  0  0  0  0  0  0  0  0  0  0
   -3.7621    9.7653  -33.5365 C   0  0  0  0  0  0  0  0  0  0  0  0
   -3.3900   11.1954  -33.7586 C   0  0  0  0  0  0  0  0  0  0  0  0
   -4.7781   10.8556  -33.2457 C   0  0  0  0  0  0  0  0  0  0  0  0
   -6.5337   12.3674  -34.2762 C   0  0  0  0  0  0  0  0  0  0  0  0
   -6.3136   10.0576  -34.8554 O   0  0  0  0  0  0  0  0  0  0  0  0
   -7.2349   10.1004  -29.0317 O   0  0  0  0  0  0  0  0  0  0  0  0
   -7.0353    9.0530  -31.9314 Br  0  0  0  0  0  0  0  0  0  0  0  0
  1  2  2  0
  1  3  1  0
  2  4  1  0
  3  5  2  0
  4  6  2  0
  4 10  1  0
  5  6  1  0
  5 13  1  0
  6 14  1  0
  7 10  1  0
  7 11  1  0
  7 12  2  0
  8  9  1  0
  8 10  1  0
  9 10  1  0
M  END
>  <id>  (133) 
EN300-1904614

>  <smiles>  (133) 
CC(=O)C1(CC1)C=2C=CC=C(O)C2Br

>  <IUPAC Name>  (133) 
1-[1-(2-bromo-3-hydroxyphenyl)cyclopropyl]ethan-1-one

>  <CAS>  (133) 
2228344-40-7

>  <URL>  (133) 
https://www.enaminestore.com/catalog/EN300-1904614

>  <ROCS_ShapeQuery>  (133) 
_x1604L0AP1_x0771L0AP1

>  <ROCS_TanimotoCombo>  (133) 
0.979 

>  <ROCS_ShapeTanimoto>  (133) 
0.482 

>  <ROCS_ColorTanimoto>  (133) 
0.497 

>  <ROCS_RefTversky>  (133) 
0.453 

>  <ROCS_RefColorTversky>  (133) 
0.516 

>  <ROCS_RefTverskyCombo>  (133) 
0.969 

>  <ROCS_FitTversky>  (133) 
1.152 

>  <ROCS_FitColorTversky>  (133) 
0.933 

>  <ROCS_FitTverskyCombo>  (133) 
2.084 

>  <ROCS_ColorScore>  (133) 
-4.882

>  <ROCS_Overlap>  (133) 
760.100

>  <ROCS_Rank>  (133) 
206                 

$$$$
untitled-dbase-1685_1
     RDKit          3D

 10 10  0  0  0  0  0  0  0  0999 V2000
   -4.6022   12.4840  -29.8490 C   0  0  0  0  0  0  0  0  0  0  0  0
   -5.5764   11.7850  -29.1364 C   0  0  0  0  0  0  0  0  0  0  0  0
   -5.0724   11.1458  -31.8047 C   0  0  0  0  0  0  0  0  0  0  0  0
   -4.3503   12.1645  -31.1832 C   0  0  0  0  0  0  0  0  0  0  0  0
   -6.2986   10.7662  -29.7579 C   0  0  0  0  0  0  0  0  0  0  0  0
   -6.0466   10.4466  -31.0921 C   0  0  0  0  0  0  0  0  0  0  0  0
   -2.2380   13.3962  -31.3736 C   0  0  0  0  0  0  0  0  0  0  0  0
   -3.3340   12.8936  -31.9253 C   0  0  0  0  0  0  0  0  0  0  0  0
   -7.2421   10.1008  -29.0331 O   0  0  0  0  0  0  0  0  0  0  0  0
   -7.0074    9.0669  -31.9674 Br  0  0  0  0  0  0  0  0  0  0  0  0
  1  2  2  0
  1  4  1  0
  2  5  1  0
  3  4  2  0
  3  6  1  0
  4  8  1  0
  5  6  2  0
  5  9  1  0
  6 10  1  0
  7  8  2  0
M  END
>  <id>  (134) 
EN300-1906348

>  <smiles>  (134) 
OC=1C=CC(C=C)=CC1Br

>  <MDLNUMBER>  (134) 
MFCD32202529

>  <IUPAC Name>  (134) 
2-bromo-4-ethenylphenol

>  <CAS>  (134) 
80122-46-9

>  <URL>  (134) 
https://www.enaminestore.com/catalog/EN300-1906348

>  <ROCS_ShapeQuery>  (134) 
_x1604L0AP1_x0771L0AP1

>  <ROCS_TanimotoCombo>  (134) 
0.979 

>  <ROCS_ShapeTanimoto>  (134) 
0.482 

>  <ROCS_ColorTanimoto>  (134) 
0.497 

>  <ROCS_RefTversky>  (134) 
0.419 

>  <ROCS_RefColorTversky>  (134) 
0.515 

>  <ROCS_RefTverskyCombo>  (134) 
0.935 

>  <ROCS_FitTversky>  (134) 
1.448 

>  <ROCS_FitColorTversky>  (134) 
0.932 

>  <ROCS_FitTverskyCombo>  (134) 
2.380 

>  <ROCS_ColorScore>  (134) 
-4.878

>  <ROCS_Overlap>  (134) 
700.169

>  <ROCS_Rank>  (134) 
207                 

$$$$
untitled-dbase-1273_4
     RDKit          3D

 12 12  0  0  0  0  0  0  0  0999 V2000
   -4.5922   12.4765  -29.8285 C   0  0  0  0  0  0  0  0  0  0  0  0
   -5.5720   11.7787  -29.1224 C   0  0  0  0  0  0  0  0  0  0  0  0
   -5.0579   11.1452  -31.7902 C   0  0  0  0  0  0  0  0  0  0  0  0
   -4.3352   12.1598  -31.1625 C   0  0  0  0  0  0  0  0  0  0  0  0
   -6.2947   10.7641  -29.7500 C   0  0  0  0  0  0  0  0  0  0  0  0
   -6.0376   10.4473  -31.0840 C   0  0  0  0  0  0  0  0  0  0  0  0
   -3.3976   14.2322  -32.0733 C   0  0  0  0  0  0  0  0  0  0  0  0
   -3.3131   12.8876  -31.8979 C   0  0  0  0  0  0  0  0  0  0  0  0
   -2.0974   12.1525  -32.4345 C   0  0  0  0  0  0  0  0  0  0  0  0
   -7.2437   10.0997  -29.0314 O   0  0  0  0  0  0  0  0  0  0  0  0
   -2.4026   11.5732  -34.0902 Cl  0  0  0  0  0  0  0  0  0  0  0  0
   -6.9989    9.0732  -31.9675 Br  0  0  0  0  0  0  0  0  0  0  0  0
  1  2  2  0
  1  4  1  0
  2  5  1  0
  3  4  2  0
  3  6  1  0
  4  8  1  0
  5  6  2  0
  5 10  1  0
  6 12  1  0
  7  8  2  0
  8  9  1  0
  9 11  1  0
M  END
>  <id>  (135) 
EN300-1906707

>  <smiles>  (135) 
OC=1C=CC(=CC1Br)C(=C)CCl

>  <IUPAC Name>  (135) 
2-bromo-4-(3-chloroprop-1-en-2-yl)phenol

>  <CAS>  (135) 
2228630-14-4

>  <URL>  (135) 
https://www.enaminestore.com/catalog/EN300-1906707

>  <ROCS_ShapeQuery>  (135) 
_x1604L0AP1_x0771L0AP1

>  <ROCS_TanimotoCombo>  (135) 
0.978 

>  <ROCS_ShapeTanimoto>  (135) 
0.481 

>  <ROCS_ColorTanimoto>  (135) 
0.497 

>  <ROCS_RefTversky>  (135) 
0.432 

>  <ROCS_RefColorTversky>  (135) 
0.515 

>  <ROCS_RefTverskyCombo>  (135) 
0.948 

>  <ROCS_FitTversky>  (135) 
1.305 

>  <ROCS_FitColorTversky>  (135) 
0.932 

>  <ROCS_FitTverskyCombo>  (135) 
2.237 

>  <ROCS_ColorScore>  (135) 
-4.878

>  <ROCS_Overlap>  (135) 
723.428

>  <ROCS_Rank>  (135) 
211                 

$$$$
untitled-dbase-1363_0
     RDKit          3D

  9  9  0  0  0  0  0  0  0  0999 V2000
   -4.3424   12.1516  -31.2052 C   0  0  0  0  0  0  0  0  0  0  0  0
   -4.5871   12.4832  -29.8726 C   0  0  0  0  0  0  0  0  0  0  0  0
   -5.0712   11.1304  -31.8150 C   0  0  0  0  0  0  0  0  0  0  0  0
   -5.5605   11.7936  -29.1498 C   0  0  0  0  0  0  0  0  0  0  0  0
   -6.2893   10.7724  -29.7595 C   0  0  0  0  0  0  0  0  0  0  0  0
   -6.0446   10.4408  -31.0921 C   0  0  0  0  0  0  0  0  0  0  0  0
   -5.8055   12.1640  -27.7239 C   0  0  0  0  0  0  0  0  0  0  0  0
   -7.2372   10.1058  -29.0386 O   0  0  0  0  0  0  0  0  0  0  0  0
   -7.0143    9.0603  -31.9569 Br  0  0  0  0  0  0  0  0  0  0  0  0
  1  2  2  0
  1  3  1  0
  2  4  1  0
  3  6  2  0
  4  5  2  0
  4  7  1  0
  5  6  1  0
  5  8  1  0
  6  9  1  0
M  END
>  <id>  (136) 
EN300-82648

>  <smiles>  (136) 
CC=1C=CC=C(Br)C1O

>  <MDLNUMBER>  (136) 
MFCD09907876

>  <IUPAC Name>  (136) 
2-bromo-6-methylphenol

>  <CAS>  (136) 
13319-71-6

>  <Purity>  (136) 
95

>  <URL>  (136) 
https://www.enaminestore.com/catalog/EN300-82648

>  <MP>  (136) 
16.5-17

>  <ROCS_ShapeQuery>  (136) 
_x1604L0AP1_x0771L0AP1

>  <ROCS_TanimotoCombo>  (136) 
0.978 

>  <ROCS_ShapeTanimoto>  (136) 
0.424 

>  <ROCS_ColorTanimoto>  (136) 
0.553 

>  <ROCS_RefTversky>  (136) 
0.377 

>  <ROCS_RefColorTversky>  (136) 
0.518 

>  <ROCS_RefTverskyCombo>  (136) 
0.895 

>  <ROCS_FitTversky>  (136) 
1.420 

>  <ROCS_FitColorTversky>  (136) 
1.139 

>  <ROCS_FitTverskyCombo>  (136) 
2.559 

>  <ROCS_ColorScore>  (136) 
-4.880

>  <ROCS_Overlap>  (136) 
628.260

>  <ROCS_Rank>  (136) 
213                 

$$$$
untitled-dbase-1045_61
     RDKit          3D

 11 11  0  0  0  0  0  0  0  0999 V2000
   -4.6071   12.4922  -29.8684 C   0  0  0  0  0  0  0  0  0  0  0  0
   -4.3649   12.1762  -31.2052 C   0  0  0  0  0  0  0  0  0  0  0  0
   -5.5724   11.7876  -29.1491 C   0  0  0  0  0  0  0  0  0  0  0  0
   -5.0880   11.1557  -31.8227 C   0  0  0  0  0  0  0  0  0  0  0  0
   -6.2956   10.7671  -29.7665 C   0  0  0  0  0  0  0  0  0  0  0  0
   -6.0534   10.4511  -31.1034 C   0  0  0  0  0  0  0  0  0  0  0  0
   -4.7910   10.8562  -33.2569 C   0  0  0  0  0  0  0  0  0  0  0  0
   -5.9475   11.0208  -34.0981 N   0  0  0  0  0  0  0  0  0  0  0  0
   -7.2314   10.1009  -29.0321 O   0  0  0  0  0  0  0  0  0  0  0  0
   -5.7866   10.0756  -35.1930 O   0  0  0  0  0  0  0  0  0  0  0  0
   -7.0459    9.0567  -31.9350 Br  0  0  0  0  0  0  0  0  0  0  0  0
  1  2  2  0
  1  3  1  0
  2  4  1  0
  3  5  2  0
  4  6  2  0
  4  7  1  0
  5  6  1  0
  5  9  1  0
  6 11  1  0
  7  8  1  0
  8 10  1  0
M  END
>  <id>  (137) 
EN300-1905038

>  <smiles>  (137) 
ONCC=1C=CC=C(O)C1Br

>  <MDLNUMBER>  (137) 
MFCD33535316

>  <IUPAC Name>  (137) 
2-bromo-3-[(hydroxyamino)methyl]phenol

>  <CAS>  (137) 
1935625-24-3

>  <URL>  (137) 
https://www.enaminestore.com/catalog/EN300-1905038

>  <ROCS_ShapeQuery>  (137) 
_x1604L0AP1_x0771L0AP1

>  <ROCS_TanimotoCombo>  (137) 
0.977 

>  <ROCS_ShapeTanimoto>  (137) 
0.480 

>  <ROCS_ColorTanimoto>  (137) 
0.497 

>  <ROCS_RefTversky>  (137) 
0.425 

>  <ROCS_RefColorTversky>  (137) 
0.516 

>  <ROCS_RefTverskyCombo>  (137) 
0.941 

>  <ROCS_FitTversky>  (137) 
1.367 

>  <ROCS_FitColorTversky>  (137) 
0.932 

>  <ROCS_FitTverskyCombo>  (137) 
2.299 

>  <ROCS_ColorScore>  (137) 
-4.881

>  <ROCS_Overlap>  (137) 
710.551

>  <ROCS_Rank>  (137) 
214                 

$$$$
untitled-dbase-435_713
     RDKit          3D

 13 13  0  0  0  0  0  0  0  0999 V2000
   -4.6018   12.4900  -29.8745 C   0  0  0  0  0  0  0  0  0  0  0  0
   -5.0779   11.1353  -31.8175 C   0  0  0  0  0  0  0  0  0  0  0  0
   -4.3550   12.1603  -31.2072 C   0  0  0  0  0  0  0  0  0  0  0  0
   -5.5715   11.7946  -29.1521 C   0  0  0  0  0  0  0  0  0  0  0  0
   -6.2944   10.7696  -29.7623 C   0  0  0  0  0  0  0  0  0  0  0  0
   -6.0477   10.4399  -31.0950 C   0  0  0  0  0  0  0  0  0  0  0  0
   -3.5987   11.6092  -27.0705 C   0  0  0  0  0  0  0  0  0  0  0  0
   -3.3189   12.9046  -31.9794 C   0  0  0  0  0  0  0  0  0  0  0  0
   -4.6989   12.6482  -27.1111 C   0  0  0  0  0  0  0  0  0  0  0  0
   -7.2395   10.1018  -29.0394 O   0  0  0  0  0  0  0  0  0  0  0  0
   -5.8015   12.1286  -27.8514 O   0  0  0  0  0  0  0  0  0  0  0  0
   -2.2418   13.9091  -30.9122 S   0  0  0  0  0  0  0  0  0  0  0  0
   -7.0098    9.0533  -31.9585 Br  0  0  0  0  0  0  0  0  0  0  0  0
  1  3  2  0
  1  4  1  0
  2  3  1  0
  2  6  2  0
  3  8  1  0
  4  5  2  0
  4 11  1  0
  5  6  1  0
  5 10  1  0
  6 13  1  0
  7  9  1  0
  8 12  1  0
  9 11  1  0
M  END
>  <id>  (138) 
EN300-1920290

>  <smiles>  (138) 
CCOC=1C=C(CS)C=C(Br)C1O

>  <IUPAC Name>  (138) 
2-bromo-6-ethoxy-4-(sulfanylmethyl)phenol

>  <CAS>  (138) 
2228782-38-3

>  <URL>  (138) 
https://www.enaminestore.com/catalog/EN300-1920290

>  <ROCS_ShapeQuery>  (138) 
_x1604L0AP1_x0771L0AP1

>  <ROCS_TanimotoCombo>  (138) 
0.977 

>  <ROCS_ShapeTanimoto>  (138) 
0.480 

>  <ROCS_ColorTanimoto>  (138) 
0.497 

>  <ROCS_RefTversky>  (138) 
0.439 

>  <ROCS_RefColorTversky>  (138) 
0.516 

>  <ROCS_RefTverskyCombo>  (138) 
0.955 

>  <ROCS_FitTversky>  (138) 
1.237 

>  <ROCS_FitColorTversky>  (138) 
0.932 

>  <ROCS_FitTverskyCombo>  (138) 
2.170 

>  <ROCS_ColorScore>  (138) 
-4.881

>  <ROCS_Overlap>  (138) 
736.046

>  <ROCS_Rank>  (138) 
215                 

$$$$
untitled-dbase-595_259
     RDKit          3D

 13 13  0  0  0  0  0  0  0  0999 V2000
   -4.5714   12.4617  -29.8520 C   0  0  0  0  0  0  0  0  0  0  0  0
   -5.0540   11.1188  -31.8014 C   0  0  0  0  0  0  0  0  0  0  0  0
   -4.3215   12.1328  -31.1842 C   0  0  0  0  0  0  0  0  0  0  0  0
   -5.5537   11.7766  -29.1368 C   0  0  0  0  0  0  0  0  0  0  0  0
   -6.2862   10.7626  -29.7540 C   0  0  0  0  0  0  0  0  0  0  0  0
   -6.0364   10.4337  -31.0863 C   0  0  0  0  0  0  0  0  0  0  0  0
   -5.0039   14.0143  -26.6149 C   0  0  0  0  0  0  0  0  0  0  0  0
   -3.2719   12.8661  -31.9487 C   0  0  0  0  0  0  0  0  0  0  0  0
   -4.6814   12.6131  -27.0886 C   0  0  0  0  0  0  0  0  0  0  0  0
   -7.2435   10.1047  -29.0382 O   0  0  0  0  0  0  0  0  0  0  0  0
   -5.7865   12.1097  -27.8364 O   0  0  0  0  0  0  0  0  0  0  0  0
   -2.7987   14.3539  -31.0978 Cl  0  0  0  0  0  0  0  0  0  0  0  0
   -7.0113    9.0618  -31.9590 Br  0  0  0  0  0  0  0  0  0  0  0  0
  1  3  2  0
  1  4  1  0
  2  3  1  0
  2  6  2  0
  3  8  1  0
  4  5  2  0
  4 11  1  0
  5  6  1  0
  5 10  1  0
  6 13  1  0
  7  9  1  0
  8 12  1  0
  9 11  1  0
M  END
>  <id>  (139) 
EN300-1920245

>  <smiles>  (139) 
CCOC=1C=C(CCl)C=C(Br)C1O

>  <IUPAC Name>  (139) 
2-bromo-4-(chloromethyl)-6-ethoxyphenol

>  <CAS>  (139) 
2228336-12-5

>  <URL>  (139) 
https://www.enaminestore.com/catalog/EN300-1920245

>  <ROCS_ShapeQuery>  (139) 
_x1604L0AP1_x0771L0AP1

>  <ROCS_TanimotoCombo>  (139) 
0.976 

>  <ROCS_ShapeTanimoto>  (139) 
0.479 

>  <ROCS_ColorTanimoto>  (139) 
0.497 

>  <ROCS_RefTversky>  (139) 
0.439 

>  <ROCS_RefColorTversky>  (139) 
0.516 

>  <ROCS_RefTverskyCombo>  (139) 
0.955 

>  <ROCS_FitTversky>  (139) 
1.235 

>  <ROCS_FitColorTversky>  (139) 
0.932 

>  <ROCS_FitTverskyCombo>  (139) 
2.167 

>  <ROCS_ColorScore>  (139) 
-4.882

>  <ROCS_Overlap>  (139) 
735.790

>  <ROCS_Rank>  (139) 
216                 

$$$$
untitled-dbase-626_14
     RDKit          3D

 13 13  0  0  0  0  0  0  0  0999 V2000
   -4.5884   12.4710  -29.8228 C   0  0  0  0  0  0  0  0  0  0  0  0
   -5.5703   11.7746  -29.1182 C   0  0  0  0  0  0  0  0  0  0  0  0
   -5.0522   11.1401  -31.7850 C   0  0  0  0  0  0  0  0  0  0  0  0
   -4.3294   12.1538  -31.1562 C   0  0  0  0  0  0  0  0  0  0  0  0
   -6.2931   10.7608  -29.7470 C   0  0  0  0  0  0  0  0  0  0  0  0
   -6.0341   10.4436  -31.0805 C   0  0  0  0  0  0  0  0  0  0  0  0
   -3.3049   12.8799  -31.8900 C   0  0  0  0  0  0  0  0  0  0  0  0
   -3.4303   13.0774  -33.3949 C   0  0  0  0  0  0  0  0  0  0  0  0
   -2.2991   13.3360  -31.3126 O   0  0  0  0  0  0  0  0  0  0  0  0
   -7.2464   10.1000  -29.0308 O   0  0  0  0  0  0  0  0  0  0  0  0
   -4.7286   13.1357  -33.7986 F   0  0  0  0  0  0  0  0  0  0  0  0
   -2.8709   12.0452  -34.0785 F   0  0  0  0  0  0  0  0  0  0  0  0
   -6.9973    9.0728  -31.9671 Br  0  0  0  0  0  0  0  0  0  0  0  0
  1  2  2  0
  1  4  1  0
  2  5  1  0
  3  4  2  0
  3  6  1  0
  4  7  1  0
  5  6  2  0
  5 10  1  0
  6 13  1  0
  7  8  1  0
  7  9  2  0
  8 11  1  0
  8 12  1  0
M  END
>  <id>  (140) 
EN300-1949514

>  <smiles>  (140) 
OC=1C=CC(=CC1Br)C(=O)C(F)F

>  <IUPAC Name>  (140) 
1-(3-bromo-4-hydroxyphenyl)-2,2-difluoroethan-1-one

>  <CAS>  (140) 
2229601-59-4

>  <URL>  (140) 
https://www.enaminestore.com/catalog/EN300-1949514

>  <ROCS_ShapeQuery>  (140) 
_x1604L0AP1_x0771L0AP1

>  <ROCS_TanimotoCombo>  (140) 
0.976 

>  <ROCS_ShapeTanimoto>  (140) 
0.479 

>  <ROCS_ColorTanimoto>  (140) 
0.497 

>  <ROCS_RefTversky>  (140) 
0.443 

>  <ROCS_RefColorTversky>  (140) 
0.515 

>  <ROCS_RefTverskyCombo>  (140) 
0.958 

>  <ROCS_FitTversky>  (140) 
1.203 

>  <ROCS_FitColorTversky>  (140) 
0.932 

>  <ROCS_FitTverskyCombo>  (140) 
2.135 

>  <ROCS_ColorScore>  (140) 
-4.878

>  <ROCS_Overlap>  (140) 
742.735

>  <ROCS_Rank>  (140) 
219                 

$$$$
untitled-dbase-2179_5
     RDKit          3D

 12 12  0  0  0  0  0  0  0  0999 V2000
   -4.6040   12.4894  -29.8553 C   0  0  0  0  0  0  0  0  0  0  0  0
   -4.3515   12.1706  -31.1895 C   0  0  0  0  0  0  0  0  0  0  0  0
   -5.5754   11.7870  -29.1421 C   0  0  0  0  0  0  0  0  0  0  0  0
   -5.0706   11.1494  -31.8106 C   0  0  0  0  0  0  0  0  0  0  0  0
   -6.2945   10.7658  -29.7632 C   0  0  0  0  0  0  0  0  0  0  0  0
   -6.0421   10.4470  -31.0975 C   0  0  0  0  0  0  0  0  0  0  0  0
   -5.7905   11.4224  -34.2007 C   0  0  0  0  0  0  0  0  0  0  0  0
   -4.7625   10.8469  -33.2419 C   0  0  0  0  0  0  0  0  0  0  0  0
   -6.8040   10.5707  -34.5530 N   0  0  0  0  0  0  0  0  0  0  0  0
   -7.2366   10.1018  -29.0348 O   0  0  0  0  0  0  0  0  0  0  0  0
   -5.6919   12.9786  -34.8053 S   0  0  0  0  0  0  0  0  0  0  0  0
   -7.0292    9.0517  -31.9341 Br  0  0  0  0  0  0  0  0  0  0  0  0
  1  2  2  0
  1  3  1  0
  2  4  1  0
  3  5  2  0
  4  6  2  0
  4  8  1  0
  5  6  1  0
  5 10  1  0
  6 12  1  0
  7  8  1  0
  7  9  1  0
  7 11  2  0
M  END
>  <id>  (141) 
EN300-1904632

>  <smiles>  (141) 
NC(=S)CC=1C=CC=C(O)C1Br

>  <IUPAC Name>  (141) 
2-(2-bromo-3-hydroxyphenyl)ethanethioamide

>  <CAS>  (141) 
2228922-33-4

>  <URL>  (141) 
https://www.enaminestore.com/catalog/EN300-1904632

>  <ROCS_ShapeQuery>  (141) 
_x1604L0AP1_x0771L0AP1

>  <ROCS_TanimotoCombo>  (141) 
0.975 

>  <ROCS_ShapeTanimoto>  (141) 
0.477 

>  <ROCS_ColorTanimoto>  (141) 
0.497 

>  <ROCS_RefTversky>  (141) 
0.430 

>  <ROCS_RefColorTversky>  (141) 
0.516 

>  <ROCS_RefTverskyCombo>  (141) 
0.946 

>  <ROCS_FitTversky>  (141) 
1.299 

>  <ROCS_FitColorTversky>  (141) 
0.933 

>  <ROCS_FitTverskyCombo>  (141) 
2.232 

>  <ROCS_ColorScore>  (141) 
-4.883

>  <ROCS_Overlap>  (141) 
719.380

>  <ROCS_Rank>  (141) 
224                 

$$$$
untitled-dbase-64_0
     RDKit          3D

 10 10  0  0  0  0  0  0  0  0999 V2000
   -3.8439   13.5263  -29.2735 C   0  0  0  0  0  0  0  0  0  0  0  0
   -4.3509   12.1451  -31.2267 C   0  0  0  0  0  0  0  0  0  0  0  0
   -5.0804   11.1221  -31.8324 C   0  0  0  0  0  0  0  0  0  0  0  0
   -5.5625   11.7895  -29.1669 C   0  0  0  0  0  0  0  0  0  0  0  0
   -4.5919   12.4787  -29.8939 C   0  0  0  0  0  0  0  0  0  0  0  0
   -6.2921   10.7666  -29.7727 C   0  0  0  0  0  0  0  0  0  0  0  0
   -6.0510   10.4329  -31.1055 C   0  0  0  0  0  0  0  0  0  0  0  0
   -3.2364   14.3771  -28.7696 N   0  0  0  0  0  0  0  0  0  0  0  0
   -7.2323   10.1108  -29.0348 O   0  0  0  0  0  0  0  0  0  0  0  0
   -7.0213    9.0476  -31.9608 Br  0  0  0  0  0  0  0  0  0  0  0  0
  1  5  1  0
  1  8  3  0
  2  3  2  0
  2  5  1  0
  3  7  1  0
  4  5  2  0
  4  6  1  0
  6  7  2  0
  6  9  1  0
  7 10  1  0
M  END
>  <id>  (142) 
EN300-223878

>  <smiles>  (142) 
OC=1C=C(C#N)C=CC1Br

>  <MDLNUMBER>  (142) 
MFCD16999194

>  <IUPAC Name>  (142) 
4-bromo-3-hydroxybenzonitrile

>  <CAS>  (142) 
916213-60-0

>  <Purity>  (142) 
95

>  <URL>  (142) 
https://www.enaminestore.com/catalog/EN300-223878

>  <MP>  (142) 
158-160

>  <ROCS_ShapeQuery>  (142) 
_x1604L0AP1_x0771L0AP1

>  <ROCS_TanimotoCombo>  (142) 
0.975 

>  <ROCS_ShapeTanimoto>  (142) 
0.478 

>  <ROCS_ColorTanimoto>  (142) 
0.497 

>  <ROCS_RefTversky>  (142) 
0.418 

>  <ROCS_RefColorTversky>  (142) 
0.515 

>  <ROCS_RefTverskyCombo>  (142) 
0.933 

>  <ROCS_FitTversky>  (142) 
1.434 

>  <ROCS_FitColorTversky>  (142) 
0.932 

>  <ROCS_FitTverskyCombo>  (142) 
2.366 

>  <ROCS_ColorScore>  (142) 
-4.878

>  <ROCS_Overlap>  (142) 
697.128

>  <ROCS_Rank>  (142) 
225                 

$$$$
untitled-dbase-1247_14
     RDKit          3D

 13 13  0  0  0  0  0  0  0  0999 V2000
   -4.6044   12.4901  -29.8480 C   0  0  0  0  0  0  0  0  0  0  0  0
   -4.3519   12.1751  -31.1831 C   0  0  0  0  0  0  0  0  0  0  0  0
   -5.5758   11.7857  -29.1369 C   0  0  0  0  0  0  0  0  0  0  0  0
   -5.0709   11.1556  -31.8072 C   0  0  0  0  0  0  0  0  0  0  0  0
   -6.2949   10.7662  -29.7609 C   0  0  0  0  0  0  0  0  0  0  0  0
   -6.0424   10.4512  -31.0960 C   0  0  0  0  0  0  0  0  0  0  0  0
   -3.6570    9.7950  -33.4575 C   0  0  0  0  0  0  0  0  0  0  0  0
   -4.3737   12.1473  -33.9930 C   0  0  0  0  0  0  0  0  0  0  0  0
   -4.7628   10.8571  -33.2393 C   0  0  0  0  0  0  0  0  0  0  0  0
   -6.7718   11.4503  -34.2334 N   0  0  0  0  0  0  0  0  0  0  0  0
   -7.2369   10.1002  -29.0343 O   0  0  0  0  0  0  0  0  0  0  0  0
   -5.9291   10.3208  -33.9027 O   0  0  0  0  0  0  0  0  0  0  0  0
   -7.0294    9.0582  -31.9366 Br  0  0  0  0  0  0  0  0  0  0  0  0
  1  2  2  0
  1  3  1  0
  2  4  1  0
  3  5  2  0
  4  6  2  0
  4  9  1  0
  5  6  1  0
  5 11  1  0
  6 13  1  0
  7  9  1  0
  8  9  1  0
  9 12  1  0
 10 12  1  0
M  END
>  <id>  (143) 
EN300-1904535

>  <smiles>  (143) 
CC(C)(ON)C=1C=CC=C(O)C1Br

>  <IUPAC Name>  (143) 
3-[2-(aminooxy)propan-2-yl]-2-bromophenol

>  <CAS>  (143) 
2228745-91-1

>  <URL>  (143) 
https://www.enaminestore.com/catalog/EN300-1904535

>  <ROCS_ShapeQuery>  (143) 
_x1604L0AP1_x0771L0AP1

>  <ROCS_TanimotoCombo>  (143) 
0.974 

>  <ROCS_ShapeTanimoto>  (143) 
0.477 

>  <ROCS_ColorTanimoto>  (143) 
0.497 

>  <ROCS_RefTversky>  (143) 
0.441 

>  <ROCS_RefColorTversky>  (143) 
0.516 

>  <ROCS_RefTverskyCombo>  (143) 
0.957 

>  <ROCS_FitTversky>  (143) 
1.209 

>  <ROCS_FitColorTversky>  (143) 
0.933 

>  <ROCS_FitTverskyCombo>  (143) 
2.142 

>  <ROCS_ColorScore>  (143) 
-4.883

>  <ROCS_Overlap>  (143) 
738.495

>  <ROCS_Rank>  (143) 
226                 

$$$$
untitled-dbase-2076_253
     RDKit          3D

 13 13  0  0  1  0  0  0  0  0999 V2000
   -4.5669   12.4482  -29.8203 C   0  0  0  0  0  0  0  0  0  0  0  0
   -5.5589   11.7637  -29.1182 C   0  0  0  0  0  0  0  0  0  0  0  0
   -5.0371   11.1181  -31.7817 C   0  0  0  0  0  0  0  0  0  0  0  0
   -4.3060   12.1255  -31.1521 C   0  0  0  0  0  0  0  0  0  0  0  0
   -6.2899   10.7563  -29.7478 C   0  0  0  0  0  0  0  0  0  0  0  0
   -6.0290   10.4335  -31.0796 C   0  0  0  0  0  0  0  0  0  0  0  0
   -3.0322   14.2855  -31.3588 C   0  0  0  0  0  0  0  0  0  0  0  0
   -3.5126   12.9185  -33.4231 C   0  0  0  0  0  0  0  0  0  0  0  0
   -3.2451   12.8579  -31.9016 C   0  0  2  0  0  0  0  0  0  0  0  0
   -5.1900   12.6934  -35.0081 N   0  0  0  0  0  0  0  0  0  0  0  0
   -7.2513   10.1052  -29.0336 O   0  0  0  0  0  0  0  0  0  0  0  0
   -4.9050   13.1119  -33.6453 O   0  0  0  0  0  0  0  0  0  0  0  0
   -7.0016    9.0694  -31.9662 Br  0  0  0  0  0  0  0  0  0  0  0  0
  1  2  2  0
  1  4  1  0
  2  5  1  0
  3  4  2  0
  3  6  1  0
  4  9  1  0
  5  6  2  0
  5 11  1  0
  6 13  1  0
  9  7  1  1
  8  9  1  0
  8 12  1  0
 10 12  1  0
M  END
>  <id>  (144) 
EN300-1906346

>  <smiles>  (144) 
CC(CON)C=1C=CC(O)=C(Br)C1

>  <IUPAC Name>  (144) 
4-[1-(aminooxy)propan-2-yl]-2-bromophenol

>  <CAS>  (144) 
2229144-00-5

>  <URL>  (144) 
https://www.enaminestore.com/catalog/EN300-1906346

>  <ROCS_ShapeQuery>  (144) 
_x1604L0AP1_x0771L0AP1

>  <ROCS_TanimotoCombo>  (144) 
0.974 

>  <ROCS_ShapeTanimoto>  (144) 
0.477 

>  <ROCS_ColorTanimoto>  (144) 
0.497 

>  <ROCS_RefTversky>  (144) 
0.438 

>  <ROCS_RefColorTversky>  (144) 
0.515 

>  <ROCS_RefTverskyCombo>  (144) 
0.953 

>  <ROCS_FitTversky>  (144) 
1.231 

>  <ROCS_FitColorTversky>  (144) 
0.932 

>  <ROCS_FitTverskyCombo>  (144) 
2.163 

>  <ROCS_ColorScore>  (144) 
-4.878

>  <ROCS_Overlap>  (144) 
733.828

>  <ROCS_Rank>  (144) 
227                 

$$$$
untitled-dbase-2125_20
     RDKit          3D

 10 10  0  0  0  0  0  0  0  0999 V2000
   -4.3382   12.1444  -31.2107 C   0  0  0  0  0  0  0  0  0  0  0  0
   -4.5809   12.4777  -29.8783 C   0  0  0  0  0  0  0  0  0  0  0  0
   -5.0697   11.1242  -31.8189 C   0  0  0  0  0  0  0  0  0  0  0  0
   -5.5551   11.7908  -29.1538 C   0  0  0  0  0  0  0  0  0  0  0  0
   -6.2866   10.7706  -29.7619 C   0  0  0  0  0  0  0  0  0  0  0  0
   -6.0439   10.4373  -31.0945 C   0  0  0  0  0  0  0  0  0  0  0  0
   -5.7979   12.1630  -27.7281 C   0  0  0  0  0  0  0  0  0  0  0  0
   -7.2352   10.1066  -29.0396 O   0  0  0  0  0  0  0  0  0  0  0  0
   -5.0227   13.7456  -27.2813 S   0  0  0  0  0  0  0  0  0  0  0  0
   -7.0172    9.0580  -31.9571 Br  0  0  0  0  0  0  0  0  0  0  0  0
  1  2  2  0
  1  3  1  0
  2  4  1  0
  3  6  2  0
  4  5  2  0
  4  7  1  0
  5  6  1  0
  5  8  1  0
  6 10  1  0
  7  9  1  0
M  END
>  <id>  (145) 
EN300-1288163

>  <smiles>  (145) 
OC=1C(Br)=CC=CC1CS

>  <MDLNUMBER>  (145) 
MFCD33497121

>  <IUPAC Name>  (145) 
2-bromo-6-(sulfanylmethyl)phenol

>  <CAS>  (145) 
2172105-14-3

>  <URL>  (145) 
https://www.enaminestore.com/catalog/EN300-1288163

>  <ROCS_ShapeQuery>  (145) 
_x1604L0AP1_x0771L0AP1

>  <ROCS_TanimotoCombo>  (145) 
0.974 

>  <ROCS_ShapeTanimoto>  (145) 
0.421 

>  <ROCS_ColorTanimoto>  (145) 
0.553 

>  <ROCS_RefTversky>  (145) 
0.380 

>  <ROCS_RefColorTversky>  (145) 
0.518 

>  <ROCS_RefTverskyCombo>  (145) 
0.898 

>  <ROCS_FitTversky>  (145) 
1.340 

>  <ROCS_FitColorTversky>  (145) 
1.139 

>  <ROCS_FitTverskyCombo>  (145) 
2.479 

>  <ROCS_ColorScore>  (145) 
-4.880

>  <ROCS_Overlap>  (145) 
634.086

>  <ROCS_Rank>  (145) 
228                 

$$$$
untitled-dbase-1702_107
     RDKit          3D

 11 11  0  0  0  0  0  0  0  0999 V2000
   -4.6186   12.4983  -29.8554 C   0  0  0  0  0  0  0  0  0  0  0  0
   -5.5869   11.7939  -29.1400 C   0  0  0  0  0  0  0  0  0  0  0  0
   -5.0833   11.1539  -31.8083 C   0  0  0  0  0  0  0  0  0  0  0  0
   -4.3668   12.1783  -31.1895 C   0  0  0  0  0  0  0  0  0  0  0  0
   -6.3035   10.7695  -29.7588 C   0  0  0  0  0  0  0  0  0  0  0  0
   -6.0517   10.4495  -31.0929 C   0  0  0  0  0  0  0  0  0  0  0  0
   -3.3311   12.9319  -31.9532 C   0  0  0  0  0  0  0  0  0  0  0  0
   -2.1915   13.4497  -31.0732 C   0  0  0  0  0  0  0  0  0  0  0  0
   -7.2419   10.0993  -29.0317 O   0  0  0  0  0  0  0  0  0  0  0  0
   -2.7175   14.2977  -30.0603 O   0  0  0  0  0  0  0  0  0  0  0  0
   -7.0050    9.0627  -31.9651 Br  0  0  0  0  0  0  0  0  0  0  0  0
  1  2  2  0
  1  4  1  0
  2  5  1  0
  3  4  2  0
  3  6  1  0
  4  7  1  0
  5  6  2  0
  5  9  1  0
  6 11  1  0
  7  8  1  0
  8 10  1  0
M  END
>  <id>  (146) 
EN300-1898192

>  <smiles>  (146) 
OCCC=1C=CC(O)=C(Br)C1

>  <MDLNUMBER>  (146) 
MFCD00033225

>  <IUPAC Name>  (146) 
2-bromo-4-(2-hydroxyethyl)phenol

>  <CAS>  (146) 
196081-78-4

>  <URL>  (146) 
https://www.enaminestore.com/catalog/EN300-1898192

>  <ROCS_ShapeQuery>  (146) 
_x1604L0AP1_x0771L0AP1

>  <ROCS_TanimotoCombo>  (146) 
0.974 

>  <ROCS_ShapeTanimoto>  (146) 
0.523 

>  <ROCS_ColorTanimoto>  (146) 
0.451 

>  <ROCS_RefTversky>  (146) 
0.450 

>  <ROCS_RefColorTversky>  (146) 
0.513 

>  <ROCS_RefTverskyCombo>  (146) 
0.962 

>  <ROCS_FitTversky>  (146) 
1.451 

>  <ROCS_FitColorTversky>  (146) 
0.789 

>  <ROCS_FitTverskyCombo>  (146) 
2.239 

>  <ROCS_ColorScore>  (146) 
-4.877

>  <ROCS_Overlap>  (146) 
751.774

>  <ROCS_Rank>  (146) 
230                 

$$$$
untitled-dbase-90_0
     RDKit          3D

  9  9  0  0  0  0  0  0  0  0999 V2000
   -4.3372   12.1527  -31.1954 C   0  0  0  0  0  0  0  0  0  0  0  0
   -4.5804   12.4818  -29.8619 C   0  0  0  0  0  0  0  0  0  0  0  0
   -5.0688   11.1348  -31.8072 C   0  0  0  0  0  0  0  0  0  0  0  0
   -6.2868   10.7750  -29.7519 C   0  0  0  0  0  0  0  0  0  0  0  0
   -5.5552   11.7929  -29.1402 C   0  0  0  0  0  0  0  0  0  0  0  0
   -6.0436   10.4459  -31.0854 C   0  0  0  0  0  0  0  0  0  0  0  0
   -7.2392   10.1022  -29.0418 O   0  0  0  0  0  0  0  0  0  0  0  0
   -5.8322   12.2254  -27.4927 Cl  0  0  0  0  0  0  0  0  0  0  0  0
   -7.0139    9.0677  -31.9537 Br  0  0  0  0  0  0  0  0  0  0  0  0
  1  2  2  0
  1  3  1  0
  2  5  1  0
  3  6  2  0
  4  5  2  0
  4  6  1  0
  4  7  1  0
  5  8  1  0
  6  9  1  0
M  END
>  <id>  (147) 
EN300-199809

>  <smiles>  (147) 
OC=1C(Cl)=CC=CC1Br

>  <MDLNUMBER>  (147) 
MFCD09907875

>  <IUPAC Name>  (147) 
2-bromo-6-chlorophenol

>  <CAS>  (147) 
2040-88-2

>  <Purity>  (147) 
95

>  <URL>  (147) 
https://www.enaminestore.com/catalog/EN300-199809

>  <MP>  (147) 
54-56

>  <ROCS_ShapeQuery>  (147) 
_x1604L0AP1_x0771L0AP1

>  <ROCS_TanimotoCombo>  (147) 
0.973 

>  <ROCS_ShapeTanimoto>  (147) 
0.420 

>  <ROCS_ColorTanimoto>  (147) 
0.554 

>  <ROCS_RefTversky>  (147) 
0.373 

>  <ROCS_RefColorTversky>  (147) 
0.518 

>  <ROCS_RefTverskyCombo>  (147) 
0.891 

>  <ROCS_FitTversky>  (147) 
1.426 

>  <ROCS_FitColorTversky>  (147) 
1.139 

>  <ROCS_FitTverskyCombo>  (147) 
2.565 

>  <ROCS_ColorScore>  (147) 
-4.882

>  <ROCS_Overlap>  (147) 
621.529

>  <ROCS_Rank>  (147) 
233                 

$$$$
untitled-dbase-1368_0
     RDKit          3D

 11 11  0  0  0  0  0  0  0  0999 V2000
   -3.3199   12.8400  -31.9200 C   0  0  0  0  0  0  0  0  0  0  0  0
   -4.5716   12.4700  -29.8520 C   0  0  0  0  0  0  0  0  0  0  0  0
   -5.0566   11.1224  -31.7976 C   0  0  0  0  0  0  0  0  0  0  0  0
   -4.3239   12.1384  -31.1840 C   0  0  0  0  0  0  0  0  0  0  0  0
   -6.2845   10.7694  -29.7471 C   0  0  0  0  0  0  0  0  0  0  0  0
   -5.5518   11.7854  -29.1335 C   0  0  0  0  0  0  0  0  0  0  0  0
   -6.0369   10.4379  -31.0792 C   0  0  0  0  0  0  0  0  0  0  0  0
   -2.5044   13.4097  -32.5176 N   0  0  0  0  0  0  0  0  0  0  0  0
   -7.2440   10.1023  -29.0411 O   0  0  0  0  0  0  0  0  0  0  0  0
   -5.8332   12.2194  -27.4871 Cl  0  0  0  0  0  0  0  0  0  0  0  0
   -7.0117    9.0635  -31.9493 Br  0  0  0  0  0  0  0  0  0  0  0  0
  1  4  1  0
  1  8  3  0
  2  4  2  0
  2  6  1  0
  3  4  1  0
  3  7  2  0
  5  6  2  0
  5  7  1  0
  5  9  1  0
  6 10  1  0
  7 11  1  0
M  END
>  <id>  (148) 
EN300-3186167

>  <smiles>  (148) 
OC=1C(Cl)=CC(C#N)=CC1Br

>  <MDLNUMBER>  (148) 
MFCD22054958

>  <IUPAC Name>  (148) 
3-bromo-5-chloro-4-hydroxybenzonitrile

>  <CAS>  (148) 
1689-86-7

>  <Purity>  (148) 
95

>  <URL>  (148) 
https://www.enaminestore.com/catalog/EN300-3186167

>  <MP>  (148) 
166-169

>  <ROCS_ShapeQuery>  (148) 
_x1604L0AP1_x0771L0AP1

>  <ROCS_TanimotoCombo>  (148) 
0.973 

>  <ROCS_ShapeTanimoto>  (148) 
0.476 

>  <ROCS_ColorTanimoto>  (148) 
0.497 

>  <ROCS_RefTversky>  (148) 
0.423 

>  <ROCS_RefColorTversky>  (148) 
0.516 

>  <ROCS_RefTverskyCombo>  (148) 
0.939 

>  <ROCS_FitTversky>  (148) 
1.357 

>  <ROCS_FitColorTversky>  (148) 
0.933 

>  <ROCS_FitTverskyCombo>  (148) 
2.289 

>  <ROCS_ColorScore>  (148) 
-4.882

>  <ROCS_Overlap>  (148) 
706.704

>  <ROCS_Rank>  (148) 
234                 

$$$$
untitled-dbase-2091_570
     RDKit          3D

 13 13  0  0  0  0  0  0  0  0999 V2000
   -4.3574   12.1195  -30.1460 C   0  0  0  0  0  0  0  0  0  0  0  0
   -5.3266   11.5645  -29.3103 C   0  0  0  0  0  0  0  0  0  0  0  0
   -4.3283   11.7834  -31.4995 C   0  0  0  0  0  0  0  0  0  0  0  0
   -6.2665   10.6734  -29.8280 C   0  0  0  0  0  0  0  0  0  0  0  0
   -5.2682   10.8923  -32.0172 C   0  0  0  0  0  0  0  0  0  0  0  0
   -6.2373   10.3373  -31.1815 C   0  0  0  0  0  0  0  0  0  0  0  0
   -5.6591    8.9437  -35.0369 C   0  0  0  0  0  0  0  0  0  0  0  0
   -5.5142    7.4933  -35.4782 C   0  0  0  0  0  0  0  0  0  0  0  0
   -5.0090    9.2180  -33.6861 C   0  0  0  0  0  0  0  0  0  0  0  0
   -6.1322    6.5745  -34.5616 N   0  0  0  0  0  0  0  0  0  0  0  0
   -7.1991   10.1508  -28.9818 O   0  0  0  0  0  0  0  0  0  0  0  0
   -5.2089   10.5850  -33.3515 O   0  0  0  0  0  0  0  0  0  0  0  0
   -7.5188    9.1224  -31.8874 Br  0  0  0  0  0  0  0  0  0  0  0  0
  1  2  2  0
  1  3  1  0
  2  4  1  0
  3  5  2  0
  4  6  2  0
  4 11  1  0
  5  6  1  0
  5 12  1  0
  6 13  1  0
  7  8  1  0
  7  9  1  0
  8 10  1  0
  9 12  1  0
M  END
>  <id>  (149) 
EN300-1904617

>  <smiles>  (149) 
NCCCOC=1C=CC=C(O)C1Br

>  <IUPAC Name>  (149) 
3-(3-aminopropoxy)-2-bromophenol

>  <CAS>  (149) 
2228863-00-9

>  <URL>  (149) 
https://www.enaminestore.com/catalog/EN300-1904617

>  <ROCS_ShapeQuery>  (149) 
_x1604L0AP1_x0771L0AP1

>  <ROCS_TanimotoCombo>  (149) 
0.973 

>  <ROCS_ShapeTanimoto>  (149) 
0.483 

>  <ROCS_ColorTanimoto>  (149) 
0.490 

>  <ROCS_RefTversky>  (149) 
0.442 

>  <ROCS_RefColorTversky>  (149) 
0.574 

>  <ROCS_RefTverskyCombo>  (149) 
1.016 

>  <ROCS_FitTversky>  (149) 
1.240 

>  <ROCS_FitColorTversky>  (149) 
0.769 

>  <ROCS_FitTverskyCombo>  (149) 
2.009 

>  <ROCS_ColorScore>  (149) 
-5.490

>  <ROCS_Overlap>  (149) 
740.408

>  <ROCS_Rank>  (149) 
235                 

$$$$
untitled-dbase-2148_180
     RDKit          3D

 13 13  0  0  0  0  0  0  0  0999 V2000
   -4.3510   12.1631  -31.2098 C   0  0  0  0  0  0  0  0  0  0  0  0
   -4.5993   12.4908  -29.8770 C   0  0  0  0  0  0  0  0  0  0  0  0
   -5.0722   11.1380  -31.8220 C   0  0  0  0  0  0  0  0  0  0  0  0
   -5.5686   11.7934  -29.1562 C   0  0  0  0  0  0  0  0  0  0  0  0
   -6.2898   10.7682  -29.7683 C   0  0  0  0  0  0  0  0  0  0  0  0
   -6.0416   10.4405  -31.1012 C   0  0  0  0  0  0  0  0  0  0  0  0
   -5.0178   13.1852  -27.3081 C   0  0  0  0  0  0  0  0  0  0  0  0
   -4.7689   10.8270  -33.2525 C   0  0  0  0  0  0  0  0  0  0  0  0
   -5.9810   10.8734  -34.1952 C   0  0  0  0  0  0  0  0  0  0  0  0
   -7.2331   10.1007  -29.0423 O   0  0  0  0  0  0  0  0  0  0  0  0
   -5.7996   12.1252  -27.8551 O   0  0  0  0  0  0  0  0  0  0  0  0
   -6.7634   12.5154  -34.2448 S   0  0  0  0  0  0  0  0  0  0  0  0
   -7.0367    9.0464  -31.9313 Br  0  0  0  0  0  0  0  0  0  0  0  0
  1  2  2  0
  1  3  1  0
  2  4  1  0
  3  6  2  0
  3  8  1  0
  4  5  2  0
  4 11  1  0
  5  6  1  0
  5 10  1  0
  6 13  1  0
  7 11  1  0
  8  9  1  0
  9 12  1  0
M  END
>  <id>  (150) 
EN300-1936286

>  <smiles>  (150) 
COC=1C=CC(CCS)=C(Br)C1O

>  <IUPAC Name>  (150) 
2-bromo-6-methoxy-3-(2-sulfanylethyl)phenol

>  <CAS>  (150) 
2228192-30-9

>  <URL>  (150) 
https://www.enaminestore.com/catalog/EN300-1936286

>  <ROCS_ShapeQuery>  (150) 
_x1604L0AP1_x0771L0AP1

>  <ROCS_TanimotoCombo>  (150) 
0.972 

>  <ROCS_ShapeTanimoto>  (150) 
0.475 

>  <ROCS_ColorTanimoto>  (150) 
0.498 

>  <ROCS_RefTversky>  (150) 
0.436 

>  <ROCS_RefColorTversky>  (150) 
0.516 

>  <ROCS_RefTverskyCombo>  (150) 
0.952 

>  <ROCS_FitTversky>  (150) 
1.228 

>  <ROCS_FitColorTversky>  (150) 
0.933 

>  <ROCS_FitTverskyCombo>  (150) 
2.161 

>  <ROCS_ColorScore>  (150) 
-4.884

>  <ROCS_Overlap>  (150) 
730.508

>  <ROCS_Rank>  (150) 
237                 

$$$$
untitled-dbase-1721_115
     RDKit          3D

 14 14  0  0  0  0  0  0  0  0999 V2000
   -4.5990   12.4756  -29.8248 C   0  0  0  0  0  0  0  0  0  0  0  0
   -5.5802   11.7785  -29.1200 C   0  0  0  0  0  0  0  0  0  0  0  0
   -5.0590   11.1409  -31.7855 C   0  0  0  0  0  0  0  0  0  0  0  0
   -4.3384   12.1569  -31.1576 C   0  0  0  0  0  0  0  0  0  0  0  0
   -6.3008   10.7625  -29.7479 C   0  0  0  0  0  0  0  0  0  0  0  0
   -6.0402   10.4437  -31.0806 C   0  0  0  0  0  0  0  0  0  0  0  0
   -3.2758   12.9121  -31.9195 C   0  0  0  0  0  0  0  0  0  0  0  0
   -1.5192   14.7743  -31.7851 C   0  0  0  0  0  0  0  0  0  0  0  0
   -2.6018   13.9818  -31.0610 C   0  0  0  0  0  0  0  0  0  0  0  0
   -0.8680   15.7426  -30.9130 N   0  0  0  0  0  0  0  0  0  0  0  0
   -7.2518   10.0992  -29.0309 O   0  0  0  0  0  0  0  0  0  0  0  0
   -2.0299   13.3940  -29.9745 F   0  0  0  0  0  0  0  0  0  0  0  0
   -3.5342   14.8462  -30.5814 F   0  0  0  0  0  0  0  0  0  0  0  0
   -6.9987    9.0682  -31.9649 Br  0  0  0  0  0  0  0  0  0  0  0  0
  1  2  2  0
  1  4  1  0
  2  5  1  0
  3  4  2  0
  3  6  1  0
  4  7  1  0
  5  6  2  0
  5 11  1  0
  6 14  1  0
  7  9  1  0
  8  9  1  0
  8 10  1  0
  9 12  1  0
  9 13  1  0
M  END
>  <id>  (151) 
EN300-1950286

>  <smiles>  (151) 
NCC(F)(F)CC=1C=CC(O)=C(Br)C1

>  <IUPAC Name>  (151) 
4-(3-amino-2,2-difluoropropyl)-2-bromophenol

>  <CAS>  (151) 
2229172-35-2

>  <URL>  (151) 
https://www.enaminestore.com/catalog/EN300-1950286

>  <ROCS_ShapeQuery>  (151) 
_x1604L0AP1_x0771L0AP1

>  <ROCS_TanimotoCombo>  (151) 
0.972 

>  <ROCS_ShapeTanimoto>  (151) 
0.521 

>  <ROCS_ColorTanimoto>  (151) 
0.451 

>  <ROCS_RefTversky>  (151) 
0.476 

>  <ROCS_RefColorTversky>  (151) 
0.513 

>  <ROCS_RefTverskyCombo>  (151) 
0.988 

>  <ROCS_FitTversky>  (151) 
1.225 

>  <ROCS_FitColorTversky>  (151) 
0.789 

>  <ROCS_FitTverskyCombo>  (151) 
2.014 

>  <ROCS_ColorScore>  (151) 
-4.878

>  <ROCS_Overlap>  (151) 
798.027

>  <ROCS_Rank>  (151) 
238                 

$$$$
untitled-dbase-1177_27
     RDKit          3D

 13 14  0  0  0  0  0  0  0  0999 V2000
   -4.6082   12.4964  -29.8361 C   0  0  0  0  0  0  0  0  0  0  0  0
   -4.3486   12.1827  -31.1702 C   0  0  0  0  0  0  0  0  0  0  0  0
   -5.5808   11.7886  -29.1298 C   0  0  0  0  0  0  0  0  0  0  0  0
   -5.0615   11.1613  -31.7980 C   0  0  0  0  0  0  0  0  0  0  0  0
   -6.2937   10.7672  -29.7576 C   0  0  0  0  0  0  0  0  0  0  0  0
   -6.0341   10.4536  -31.0917 C   0  0  0  0  0  0  0  0  0  0  0  0
   -5.8707   11.0164  -34.1733 C   0  0  0  0  0  0  0  0  0  0  0  0
   -3.7334    9.7732  -33.5161 C   0  0  0  0  0  0  0  0  0  0  0  0
   -3.3573   11.2034  -33.7310 C   0  0  0  0  0  0  0  0  0  0  0  0
   -4.7496   10.8642  -33.2293 C   0  0  0  0  0  0  0  0  0  0  0  0
   -7.0439   10.8361  -33.8644 O   0  0  0  0  0  0  0  0  0  0  0  0
   -7.2383   10.0997  -29.0356 O   0  0  0  0  0  0  0  0  0  0  0  0
   -7.0193    9.0611  -31.9371 Br  0  0  0  0  0  0  0  0  0  0  0  0
  1  2  2  0
  1  3  1  0
  2  4  1  0
  3  5  2  0
  4  6  2  0
  4 10  1  0
  5  6  1  0
  5 12  1  0
  6 13  1  0
  7 10  1  0
  7 11  2  0
  8  9  1  0
  8 10  1  0
  9 10  1  0
M  END
>  <id>  (152) 
EN300-1904495

>  <smiles>  (152) 
OC=1C=CC=C(C1Br)C2(CC2)C=O

>  <IUPAC Name>  (152) 
1-(2-bromo-3-hydroxyphenyl)cyclopropane-1-carbaldehyde

>  <CAS>  (152) 
2228622-13-5

>  <URL>  (152) 
https://www.enaminestore.com/catalog/EN300-1904495

>  <ROCS_ShapeQuery>  (152) 
_x1604L0AP1_x0771L0AP1

>  <ROCS_TanimotoCombo>  (152) 
0.972 

>  <ROCS_ShapeTanimoto>  (152) 
0.474 

>  <ROCS_ColorTanimoto>  (152) 
0.497 

>  <ROCS_RefTversky>  (152) 
0.440 

>  <ROCS_RefColorTversky>  (152) 
0.516 

>  <ROCS_RefTverskyCombo>  (152) 
0.956 

>  <ROCS_FitTversky>  (152) 
1.194 

>  <ROCS_FitColorTversky>  (152) 
0.933 

>  <ROCS_FitTverskyCombo>  (152) 
2.127 

>  <ROCS_ColorScore>  (152) 
-4.883

>  <ROCS_Overlap>  (152) 
738.065

>  <ROCS_Rank>  (152) 
240                 

$$$$
untitled-dbase-982_54
     RDKit          3D

 14 14  0  0  0  0  0  0  0  0999 V2000
   -4.6059   12.4904  -29.8607 C   0  0  0  0  0  0  0  0  0  0  0  0
   -4.3569   12.1705  -31.1954 C   0  0  0  0  0  0  0  0  0  0  0  0
   -5.5750   11.7881  -29.1443 C   0  0  0  0  0  0  0  0  0  0  0  0
   -5.0772   11.1484  -31.8137 C   0  0  0  0  0  0  0  0  0  0  0  0
   -6.2953   10.7660  -29.7626 C   0  0  0  0  0  0  0  0  0  0  0  0
   -6.0463   10.4461  -31.0972 C   0  0  0  0  0  0  0  0  0  0  0  0
   -3.6559   11.7328  -33.8916 C   0  0  0  0  0  0  0  0  0  0  0  0
   -4.2703    9.3748  -33.4017 C   0  0  0  0  0  0  0  0  0  0  0  0
   -6.0395   10.9963  -34.1551 C   0  0  0  0  0  0  0  0  0  0  0  0
   -4.7636   10.8356  -33.2888 C   0  0  0  0  0  0  0  0  0  0  0  0
   -6.8760   10.8332  -36.3115 N   0  0  0  0  0  0  0  0  0  0  0  0
   -7.2350   10.1021  -29.0310 O   0  0  0  0  0  0  0  0  0  0  0  0
   -5.9125   10.2758  -35.3764 O   0  0  0  0  0  0  0  0  0  0  0  0
   -7.0349    9.0496  -31.9299 Br  0  0  0  0  0  0  0  0  0  0  0  0
  1  2  2  0
  1  3  1  0
  2  4  1  0
  3  5  2  0
  4  6  2  0
  4 10  1  0
  5  6  1  0
  5 12  1  0
  6 14  1  0
  7 10  1  0
  8 10  1  0
  9 10  1  0
  9 13  1  0
 11 13  1  0
M  END
>  <id>  (153) 
EN300-1904524

>  <smiles>  (153) 
CC(C)(CON)C=1C=CC=C(O)C1Br

>  <IUPAC Name>  (153) 
3-[1-(aminooxy)-2-methylpropan-2-yl]-2-bromophenol

>  <CAS>  (153) 
2229558-55-6

>  <URL>  (153) 
https://www.enaminestore.com/catalog/EN300-1904524

>  <ROCS_ShapeQuery>  (153) 
_x1604L0AP1_x0771L0AP1

>  <ROCS_TanimotoCombo>  (153) 
0.971 

>  <ROCS_ShapeTanimoto>  (153) 
0.474 

>  <ROCS_ColorTanimoto>  (153) 
0.497 

>  <ROCS_RefTversky>  (153) 
0.444 

>  <ROCS_RefColorTversky>  (153) 
0.516 

>  <ROCS_RefTverskyCombo>  (153) 
0.960 

>  <ROCS_FitTversky>  (153) 
1.164 

>  <ROCS_FitColorTversky>  (153) 
0.933 

>  <ROCS_FitTverskyCombo>  (153) 
2.097 

>  <ROCS_ColorScore>  (153) 
-4.882

>  <ROCS_Overlap>  (153) 
745.553

>  <ROCS_Rank>  (153) 
241                 

$$$$
untitled-dbase-194_281
     RDKit          3D

 14 14  0  0  0  0  0  0  0  0999 V2000
   -5.0621   11.1418  -31.7930 C   0  0  0  0  0  0  0  0  0  0  0  0
   -5.5764   11.7803  -29.1264 C   0  0  0  0  0  0  0  0  0  0  0  0
   -4.3407   12.1588  -31.1678 C   0  0  0  0  0  0  0  0  0  0  0  0
   -6.2978   10.7633  -29.7517 C   0  0  0  0  0  0  0  0  0  0  0  0
   -4.5978   12.4780  -29.8345 C   0  0  0  0  0  0  0  0  0  0  0  0
   -6.0407   10.4441  -31.0850 C   0  0  0  0  0  0  0  0  0  0  0  0
   -3.3089   12.8944  -31.9193 C   0  0  0  0  0  0  0  0  0  0  0  0
   -1.3269   10.7733  -32.8125 C   0  0  0  0  0  0  0  0  0  0  0  0
   -3.0699   12.5043  -33.3767 C   0  0  0  0  0  0  0  0  0  0  0  0
   -1.6433   12.0159  -33.6291 C   0  0  0  0  0  0  0  0  0  0  0  0
   -2.6470   13.8009  -31.4102 O   0  0  0  0  0  0  0  0  0  0  0  0
   -7.2472   10.1005  -29.0322 O   0  0  0  0  0  0  0  0  0  0  0  0
   -3.9116   13.4546  -29.2240 F   0  0  0  0  0  0  0  0  0  0  0  0
   -7.0028    9.0698  -31.9670 Br  0  0  0  0  0  0  0  0  0  0  0  0
  1  3  2  0
  1  6  1  0
  2  4  1  0
  2  5  2  0
  3  5  1  0
  3  7  1  0
  4  6  2  0
  4 12  1  0
  5 13  1  0
  6 14  1  0
  7  9  1  0
  7 11  2  0
  8 10  1  0
  9 10  1  0
M  END
>  <id>  (154) 
EN300-1276797

>  <smiles>  (154) 
CCCC(=O)C=1C=C(Br)C(O)=CC1F

>  <MDLNUMBER>  (154) 
MFCD24122861

>  <IUPAC Name>  (154) 
1-(5-bromo-2-fluoro-4-hydroxyphenyl)butan-1-one

>  <CAS>  (154) 
1506577-82-7

>  <URL>  (154) 
https://www.enaminestore.com/catalog/EN300-1276797

>  <ROCS_ShapeQuery>  (154) 
_x1604L0AP1_x0771L0AP1

>  <ROCS_TanimotoCombo>  (154) 
0.971 

>  <ROCS_ShapeTanimoto>  (154) 
0.520 

>  <ROCS_ColorTanimoto>  (154) 
0.451 

>  <ROCS_RefTversky>  (154) 
0.475 

>  <ROCS_RefColorTversky>  (154) 
0.513 

>  <ROCS_RefTverskyCombo>  (154) 
0.987 

>  <ROCS_FitTversky>  (154) 
1.228 

>  <ROCS_FitColorTversky>  (154) 
0.789 

>  <ROCS_FitTverskyCombo>  (154) 
2.017 

>  <ROCS_ColorScore>  (154) 
-4.878

>  <ROCS_Overlap>  (154) 
796.256

>  <ROCS_Rank>  (154) 
242                 

$$$$
untitled-dbase-363_1
     RDKit          3D

 11 11  0  0  0  0  0  0  0  0999 V2000
   -4.6047   12.4912  -29.8586 C   0  0  0  0  0  0  0  0  0  0  0  0
   -4.3534   12.1719  -31.1929 C   0  0  0  0  0  0  0  0  0  0  0  0
   -5.5750   11.7884  -29.1441 C   0  0  0  0  0  0  0  0  0  0  0  0
   -5.0723   11.1499  -31.8128 C   0  0  0  0  0  0  0  0  0  0  0  0
   -6.2939   10.7664  -29.7640 C   0  0  0  0  0  0  0  0  0  0  0  0
   -6.0426   10.4472  -31.0984 C   0  0  0  0  0  0  0  0  0  0  0  0
   -5.7968   11.3732  -34.2156 C   0  0  0  0  0  0  0  0  0  0  0  0
   -4.7655   10.8469  -33.2443 C   0  0  0  0  0  0  0  0  0  0  0  0
   -6.4144   10.6834  -35.0200 O   0  0  0  0  0  0  0  0  0  0  0  0
   -7.2348   10.1021  -29.0343 O   0  0  0  0  0  0  0  0  0  0  0  0
   -7.0295    9.0508  -31.9334 Br  0  0  0  0  0  0  0  0  0  0  0  0
  1  2  2  0
  1  3  1  0
  2  4  1  0
  3  5  2  0
  4  6  2  0
  4  8  1  0
  5  6  1  0
  5 10  1  0
  6 11  1  0
  7  8  1  0
  7  9  2  0
M  END
>  <id>  (155) 
EN300-1904558

>  <smiles>  (155) 
OC=1C=CC=C(CC=O)C1Br

>  <MDLNUMBER>  (155) 
MFCD33499793

>  <IUPAC Name>  (155) 
2-(2-bromo-3-hydroxyphenyl)acetaldehyde

>  <CAS>  (155) 
2229576-67-2

>  <URL>  (155) 
https://www.enaminestore.com/catalog/EN300-1904558

>  <ROCS_ShapeQuery>  (155) 
_x1604L0AP1_x0771L0AP1

>  <ROCS_TanimotoCombo>  (155) 
0.971 

>  <ROCS_ShapeTanimoto>  (155) 
0.473 

>  <ROCS_ColorTanimoto>  (155) 
0.497 

>  <ROCS_RefTversky>  (155) 
0.422 

>  <ROCS_RefColorTversky>  (155) 
0.516 

>  <ROCS_RefTverskyCombo>  (155) 
0.938 

>  <ROCS_FitTversky>  (155) 
1.347 

>  <ROCS_FitColorTversky>  (155) 
0.933 

>  <ROCS_FitTverskyCombo>  (155) 
2.280 

>  <ROCS_ColorScore>  (155) 
-4.883

>  <ROCS_Overlap>  (155) 
705.260

>  <ROCS_Rank>  (155) 
243                 

$$$$
untitled-dbase-1242_398
     RDKit          3D

 15 15  0  0  0  0  0  0  0  0999 V2000
   -3.4501   14.9403  -30.6028 C   0  0  0  0  0  0  0  0  0  0  0  0
   -4.5574   12.4436  -29.8441 C   0  0  0  0  0  0  0  0  0  0  0  0
   -5.0448   11.1066  -31.7964 C   0  0  0  0  0  0  0  0  0  0  0  0
   -4.3068   12.1147  -31.1762 C   0  0  0  0  0  0  0  0  0  0  0  0
   -5.5460   11.7644  -29.1321 C   0  0  0  0  0  0  0  0  0  0  0  0
   -6.2841   10.7563  -29.7522 C   0  0  0  0  0  0  0  0  0  0  0  0
   -6.0335   10.4274  -31.0844 C   0  0  0  0  0  0  0  0  0  0  0  0
   -5.2390   11.6507  -25.5426 C   0  0  0  0  0  0  0  0  0  0  0  0
   -2.5244   13.9226  -31.1218 C   0  0  0  0  0  0  0  0  0  0  0  0
   -3.2503   12.8418  -31.9373 C   0  0  0  0  0  0  0  0  0  0  0  0
   -4.6915   11.9547  -26.9209 C   0  0  0  0  0  0  0  0  0  0  0  0
   -4.1801   15.7428  -30.1914 N   0  0  0  0  0  0  0  0  0  0  0  0
   -7.2476   10.1041  -29.0395 O   0  0  0  0  0  0  0  0  0  0  0  0
   -5.7795   12.0975  -27.8318 O   0  0  0  0  0  0  0  0  0  0  0  0
   -7.0159    9.0634  -31.9611 Br  0  0  0  0  0  0  0  0  0  0  0  0
  1  9  1  0
  1 12  3  0
  2  4  2  0
  2  5  1  0
  3  4  1  0
  3  7  2  0
  4 10  1  0
  5  6  2  0
  5 14  1  0
  6  7  1  0
  6 13  1  0
  7 15  1  0
  8 11  1  0
  9 10  1  0
 11 14  1  0
M  END
>  <id>  (156) 
EN300-1920236

>  <smiles>  (156) 
CCOC=1C=C(CCC#N)C=C(Br)C1O

>  <IUPAC Name>  (156) 
3-(3-bromo-5-ethoxy-4-hydroxyphenyl)propanenitrile

>  <CAS>  (156) 
2228370-69-0

>  <URL>  (156) 
https://www.enaminestore.com/catalog/EN300-1920236

>  <ROCS_ShapeQuery>  (156) 
_x1604L0AP1_x0771L0AP1

>  <ROCS_TanimotoCombo>  (156) 
0.970 

>  <ROCS_ShapeTanimoto>  (156) 
0.519 

>  <ROCS_ColorTanimoto>  (156) 
0.451 

>  <ROCS_RefTversky>  (156) 
0.480 

>  <ROCS_RefColorTversky>  (156) 
0.513 

>  <ROCS_RefTverskyCombo>  (156) 
0.993 

>  <ROCS_FitTversky>  (156) 
1.185 

>  <ROCS_FitColorTversky>  (156) 
0.789 

>  <ROCS_FitTverskyCombo>  (156) 
1.974 

>  <ROCS_ColorScore>  (156) 
-4.881

>  <ROCS_Overlap>  (156) 
806.679

>  <ROCS_Rank>  (156) 
245                 

$$$$
untitled-dbase-647_260
     RDKit          3D

 14 14  0  0  0  0  0  0  0  0999 V2000
   -4.5788   12.4640  -29.8429 C   0  0  0  0  0  0  0  0  0  0  0  0
   -5.0588   11.1284  -31.7980 C   0  0  0  0  0  0  0  0  0  0  0  0
   -4.3287   12.1416  -31.1767 C   0  0  0  0  0  0  0  0  0  0  0  0
   -5.5590   11.7731  -29.1303 C   0  0  0  0  0  0  0  0  0  0  0  0
   -6.2891   10.7600  -29.7517 C   0  0  0  0  0  0  0  0  0  0  0  0
   -6.0390   10.4376  -31.0855 C   0  0  0  0  0  0  0  0  0  0  0  0
   -2.5864   13.9485  -31.1081 C   0  0  0  0  0  0  0  0  0  0  0  0
   -6.7706   13.1069  -27.5783 C   0  0  0  0  0  0  0  0  0  0  0  0
   -3.2813   12.8810  -31.9383 C   0  0  0  0  0  0  0  0  0  0  0  0
   -3.3889   14.9734  -30.6815 N   0  0  0  0  0  0  0  0  0  0  0  0
   -7.2444   10.0964  -29.0384 O   0  0  0  0  0  0  0  0  0  0  0  0
   -5.7921   12.0999  -27.8284 O   0  0  0  0  0  0  0  0  0  0  0  0
   -0.9528   13.8972  -30.7535 S   0  0  0  0  0  0  0  0  0  0  0  0
   -7.0108    9.0671  -31.9639 Br  0  0  0  0  0  0  0  0  0  0  0  0
  1  3  2  0
  1  4  1  0
  2  3  1  0
  2  6  2  0
  3  9  1  0
  4  5  2  0
  4 12  1  0
  5  6  1  0
  5 11  1  0
  6 14  1  0
  7  9  1  0
  7 10  1  0
  7 13  2  0
  8 12  1  0
M  END
>  <id>  (157) 
EN300-1925674

>  <smiles>  (157) 
COC=1C=C(CC(=S)N)C=C(Br)C1O

>  <IUPAC Name>  (157) 
2-(3-bromo-4-hydroxy-5-methoxyphenyl)ethanethioamide

>  <CAS>  (157) 
2229398-06-3

>  <URL>  (157) 
https://www.enaminestore.com/catalog/EN300-1925674

>  <ROCS_ShapeQuery>  (157) 
_x1604L0AP1_x0771L0AP1

>  <ROCS_TanimotoCombo>  (157) 
0.970 

>  <ROCS_ShapeTanimoto>  (157) 
0.519 

>  <ROCS_ColorTanimoto>  (157) 
0.451 

>  <ROCS_RefTversky>  (157) 
0.472 

>  <ROCS_RefColorTversky>  (157) 
0.513 

>  <ROCS_RefTverskyCombo>  (157) 
0.985 

>  <ROCS_FitTversky>  (157) 
1.239 

>  <ROCS_FitColorTversky>  (157) 
0.789 

>  <ROCS_FitTverskyCombo>  (157) 
2.028 

>  <ROCS_ColorScore>  (157) 
-4.881

>  <ROCS_Overlap>  (157) 
791.276

>  <ROCS_Rank>  (157) 
246                 

$$$$
untitled-dbase-1587_42
     RDKit          3D

 13 14  0  0  0  0  0  0  0  0999 V2000
   -4.6058   12.4899  -29.8683 C   0  0  0  0  0  0  0  0  0  0  0  0
   -4.3563   12.1662  -31.2019 C   0  0  0  0  0  0  0  0  0  0  0  0
   -5.5752   11.7898  -29.1502 C   0  0  0  0  0  0  0  0  0  0  0  0
   -5.0763   11.1423  -31.8175 C   0  0  0  0  0  0  0  0  0  0  0  0
   -6.2952   10.7659  -29.7657 C   0  0  0  0  0  0  0  0  0  0  0  0
   -6.0458   10.4421  -31.0994 C   0  0  0  0  0  0  0  0  0  0  0  0
   -6.4047   12.3239  -34.5886 C   0  0  0  0  0  0  0  0  0  0  0  0
   -7.2175   11.5894  -33.5627 C   0  0  0  0  0  0  0  0  0  0  0  0
   -5.9823   10.9404  -34.1467 C   0  0  0  0  0  0  0  0  0  0  0  0
   -4.7680   10.8309  -33.2650 C   0  0  0  0  0  0  0  0  0  0  0  0
   -6.1548    9.8149  -35.0895 N   0  0  0  0  0  0  0  0  0  0  0  0
   -7.2352   10.1042  -29.0325 O   0  0  0  0  0  0  0  0  0  0  0  0
   -7.0341    9.0432  -31.9283 Br  0  0  0  0  0  0  0  0  0  0  0  0
  1  2  2  0
  1  3  1  0
  2  4  1  0
  3  5  2  0
  4  6  2  0
  4 10  1  0
  5  6  1  0
  5 12  1  0
  6 13  1  0
  7  8  1  0
  7  9  1  0
  8  9  1  0
  9 10  1  0
  9 11  1  0
M  END
>  <id>  (158) 
EN300-1904509

>  <smiles>  (158) 
NC1(CC=2C=CC=C(O)C2Br)CC1

>  <IUPAC Name>  (158) 
3-[(1-aminocyclopropyl)methyl]-2-bromophenol

>  <CAS>  (158) 
2229143-38-6

>  <URL>  (158) 
https://www.enaminestore.com/catalog/EN300-1904509

>  <ROCS_ShapeQuery>  (158) 
_x1604L0AP1_x0771L0AP1

>  <ROCS_TanimotoCombo>  (158) 
0.970 

>  <ROCS_ShapeTanimoto>  (158) 
0.519 

>  <ROCS_ColorTanimoto>  (158) 
0.451 

>  <ROCS_RefTversky>  (158) 
0.466 

>  <ROCS_RefColorTversky>  (158) 
0.513 

>  <ROCS_RefTverskyCombo>  (158) 
0.979 

>  <ROCS_FitTversky>  (158) 
1.280 

>  <ROCS_FitColorTversky>  (158) 
0.789 

>  <ROCS_FitTverskyCombo>  (158) 
2.070 

>  <ROCS_ColorScore>  (158) 
-4.882

>  <ROCS_Overlap>  (158) 
780.583

>  <ROCS_Rank>  (158) 
247                 

$$$$
untitled-dbase-1511_0
     RDKit          3D

 10 10  0  0  0  0  0  0  0  0999 V2000
   -3.3154   12.8473  -31.8950 C   0  0  0  0  0  0  0  0  0  0  0  0
   -4.5795   12.4632  -29.8376 C   0  0  0  0  0  0  0  0  0  0  0  0
   -5.5635   11.7735  -29.1293 C   0  0  0  0  0  0  0  0  0  0  0  0
   -5.0512   11.1268  -31.7943 C   0  0  0  0  0  0  0  0  0  0  0  0
   -4.3234   12.1399  -31.1701 C   0  0  0  0  0  0  0  0  0  0  0  0
   -6.2913   10.7605  -29.7534 C   0  0  0  0  0  0  0  0  0  0  0  0
   -6.0352   10.4371  -31.0859 C   0  0  0  0  0  0  0  0  0  0  0  0
   -2.4968   13.4218  -32.4837 N   0  0  0  0  0  0  0  0  0  0  0  0
   -7.2445   10.1043  -29.0328 O   0  0  0  0  0  0  0  0  0  0  0  0
   -7.0045    9.0660  -31.9654 Br  0  0  0  0  0  0  0  0  0  0  0  0
  1  5  1  0
  1  8  3  0
  2  3  2  0
  2  5  1  0
  3  6  1  0
  4  5  2  0
  4  7  1  0
  6  7  2  0
  6  9  1  0
  7 10  1  0
M  END
>  <id>  (159) 
EN300-118438

>  <smiles>  (159) 
OC=1C=CC(C#N)=CC1Br

>  <MDLNUMBER>  (159) 
MFCD00143096

>  <IUPAC Name>  (159) 
3-bromo-4-hydroxybenzonitrile

>  <CAS>  (159) 
2315-86-8

>  <Purity>  (159) 
95

>  <URL>  (159) 
https://www.enaminestore.com/catalog/EN300-118438

>  <MP>  (159) 
156-160

>  <ROCS_ShapeQuery>  (159) 
_x1604L0AP1_x0771L0AP1

>  <ROCS_TanimotoCombo>  (159) 
0.969 

>  <ROCS_ShapeTanimoto>  (159) 
0.473 

>  <ROCS_ColorTanimoto>  (159) 
0.497 

>  <ROCS_RefTversky>  (159) 
0.414 

>  <ROCS_RefColorTversky>  (159) 
0.515 

>  <ROCS_RefTverskyCombo>  (159) 
0.930 

>  <ROCS_FitTversky>  (159) 
1.423 

>  <ROCS_FitColorTversky>  (159) 
0.932 

>  <ROCS_FitTverskyCombo>  (159) 
2.355 

>  <ROCS_ColorScore>  (159) 
-4.879

>  <ROCS_Overlap>  (159) 
691.638

>  <ROCS_Rank>  (159) 
253                 

$$$$
untitled-dbase-741_518
     RDKit          3D

 15 15  0  0  0  0  0  0  0  0999 V2000
   -4.1956   15.8548  -30.2764 C   0  0  0  0  0  0  0  0  0  0  0  0
   -3.4503   14.9939  -30.6568 C   0  0  0  0  0  0  0  0  0  0  0  0
   -4.5588   12.4519  -29.8438 C   0  0  0  0  0  0  0  0  0  0  0  0
   -5.0440   11.1174  -31.7985 C   0  0  0  0  0  0  0  0  0  0  0  0
   -4.3090   12.1270  -31.1771 C   0  0  0  0  0  0  0  0  0  0  0  0
   -5.5437   11.7670  -29.1319 C   0  0  0  0  0  0  0  0  0  0  0  0
   -6.2787   10.7574  -29.7532 C   0  0  0  0  0  0  0  0  0  0  0  0
   -6.0288   10.4326  -31.0865 C   0  0  0  0  0  0  0  0  0  0  0  0
   -6.9963   13.9462  -26.9241 C   0  0  0  0  0  0  0  0  0  0  0  0
   -2.5332   13.9421  -31.1217 C   0  0  0  0  0  0  0  0  0  0  0  0
   -3.2566   12.8600  -31.9382 C   0  0  0  0  0  0  0  0  0  0  0  0
   -7.0880   12.5498  -27.5014 C   0  0  0  0  0  0  0  0  0  0  0  0
   -7.2385   10.0998  -29.0405 O   0  0  0  0  0  0  0  0  0  0  0  0
   -5.7765   12.0962  -27.8305 O   0  0  0  0  0  0  0  0  0  0  0  0
   -7.0071    9.0668  -31.9649 Br  0  0  0  0  0  0  0  0  0  0  0  0
  1  2  3  0
  2 10  1  0
  3  5  2  0
  3  6  1  0
  4  5  1  0
  4  8  2  0
  5 11  1  0
  6  7  2  0
  6 14  1  0
  7  8  1  0
  7 13  1  0
  8 15  1  0
  9 12  1  0
 10 11  1  0
 12 14  1  0
M  END
>  <id>  (160) 
EN300-1920262

>  <smiles>  (160) 
CCOC=1C=C(CCC#C)C=C(Br)C1O

>  <IUPAC Name>  (160) 
2-bromo-4-(but-3-yn-1-yl)-6-ethoxyphenol

>  <CAS>  (160) 
2228394-90-7

>  <URL>  (160) 
https://www.enaminestore.com/catalog/EN300-1920262

>  <ROCS_ShapeQuery>  (160) 
_x1604L0AP1_x0771L0AP1

>  <ROCS_TanimotoCombo>  (160) 
0.969 

>  <ROCS_ShapeTanimoto>  (160) 
0.518 

>  <ROCS_ColorTanimoto>  (160) 
0.451 

>  <ROCS_RefTversky>  (160) 
0.479 

>  <ROCS_RefColorTversky>  (160) 
0.513 

>  <ROCS_RefTverskyCombo>  (160) 
0.992 

>  <ROCS_FitTversky>  (160) 
1.184 

>  <ROCS_FitColorTversky>  (160) 
0.789 

>  <ROCS_FitTverskyCombo>  (160) 
1.973 

>  <ROCS_ColorScore>  (160) 
-4.881

>  <ROCS_Overlap>  (160) 
805.031

>  <ROCS_Rank>  (160) 
255                 

$$$$
untitled-dbase-1265_398
     RDKit          3D

 15 15  0  0  0  0  0  0  0  0999 V2000
   -4.3899   12.0999  -30.2899 C   0  0  0  0  0  0  0  0  0  0  0  0
   -4.3215   11.6515  -31.6090 C   0  0  0  0  0  0  0  0  0  0  0  0
   -5.3639   11.5919  -29.4303 C   0  0  0  0  0  0  0  0  0  0  0  0
   -5.2271   10.6953  -32.0684 C   0  0  0  0  0  0  0  0  0  0  0  0
   -6.2695   10.6357  -29.8897 C   0  0  0  0  0  0  0  0  0  0  0  0
   -6.2012   10.1873  -31.2088 C   0  0  0  0  0  0  0  0  0  0  0  0
   -5.1081   10.2601  -33.4719 C   0  0  0  0  0  0  0  0  0  0  0  0
   -5.8631    8.0311  -34.5396 C   0  0  0  0  0  0  0  0  0  0  0  0
   -7.4342    8.3249  -36.2868 C   0  0  0  0  0  0  0  0  0  0  0  0
   -4.8276    8.7854  -33.7373 C   0  0  0  0  0  0  0  0  0  0  0  0
   -5.2167   11.0502  -34.4105 O   0  0  0  0  0  0  0  0  0  0  0  0
   -6.1239    6.8415  -34.4323 O   0  0  0  0  0  0  0  0  0  0  0  0
   -7.2077   10.1626  -29.0206 O   0  0  0  0  0  0  0  0  0  0  0  0
   -6.4427    8.8958  -35.4268 O   0  0  0  0  0  0  0  0  0  0  0  0
   -7.4450    8.8815  -31.8196 Br  0  0  0  0  0  0  0  0  0  0  0  0
  1  2  2  0
  1  3  1  0
  2  4  1  0
  3  5  2  0
  4  6  2  0
  4  7  1  0
  5  6  1  0
  5 13  1  0
  6 15  1  0
  7 10  1  0
  7 11  2  0
  8 10  1  0
  8 12  2  0
  8 14  1  0
  9 14  1  0
M  END
>  <id>  (161) 
EN300-1904499

>  <smiles>  (161) 
COC(=O)CC(=O)C=1C=CC=C(O)C1Br

>  <IUPAC Name>  (161) 
methyl 3-(2-bromo-3-hydroxyphenyl)-3-oxopropanoate

>  <CAS>  (161) 
2229547-92-4

>  <URL>  (161) 
https://www.enaminestore.com/catalog/EN300-1904499

>  <ROCS_ShapeQuery>  (161) 
_x1604L0AP1_x0771L0AP1

>  <ROCS_TanimotoCombo>  (161) 
0.969 

>  <ROCS_ShapeTanimoto>  (161) 
0.498 

>  <ROCS_ColorTanimoto>  (161) 
0.471 

>  <ROCS_RefTversky>  (161) 
0.470 

>  <ROCS_RefColorTversky>  (161) 
0.559 

>  <ROCS_RefTverskyCombo>  (161) 
1.029 

>  <ROCS_FitTversky>  (161) 
1.136 

>  <ROCS_FitColorTversky>  (161) 
0.749 

>  <ROCS_FitTverskyCombo>  (161) 
1.885 

>  <ROCS_ColorScore>  (161) 
-5.345

>  <ROCS_Overlap>  (161) 
789.905

>  <ROCS_Rank>  (161) 
256                 

$$$$
untitled-dbase-942_0
     RDKit          3D

 10 10  0  0  0  0  0  0  0  0999 V2000
   -2.4761   13.4413  -32.5158 C   0  0  0  0  0  0  0  0  0  0  0  0
   -3.3221   12.8470  -31.9051 C   0  0  0  0  0  0  0  0  0  0  0  0
   -4.5828   12.4638  -29.8454 C   0  0  0  0  0  0  0  0  0  0  0  0
   -5.5653   11.7741  -29.1351 C   0  0  0  0  0  0  0  0  0  0  0  0
   -5.0567   11.1255  -31.8003 C   0  0  0  0  0  0  0  0  0  0  0  0
   -4.3285   12.1396  -31.1781 C   0  0  0  0  0  0  0  0  0  0  0  0
   -6.2934   10.7600  -29.7573 C   0  0  0  0  0  0  0  0  0  0  0  0
   -6.0391   10.4358  -31.0899 C   0  0  0  0  0  0  0  0  0  0  0  0
   -7.2451   10.1039  -29.0347 O   0  0  0  0  0  0  0  0  0  0  0  0
   -7.0089    9.0634  -31.9668 Br  0  0  0  0  0  0  0  0  0  0  0  0
  1  2  3  0
  2  6  1  0
  3  4  2  0
  3  6  1  0
  4  7  1  0
  5  6  2  0
  5  8  1  0
  7  8  2  0
  7  9  1  0
  8 10  1  0
M  END
>  <id>  (162) 
EN300-1906333

>  <smiles>  (162) 
OC=1C=CC(C#C)=CC1Br

>  <MDLNUMBER>  (162) 
MFCD33501283

>  <IUPAC Name>  (162) 
2-bromo-4-ethynylphenol

>  <CAS>  (162) 
2229117-12-6

>  <URL>  (162) 
https://www.enaminestore.com/catalog/EN300-1906333

>  <ROCS_ShapeQuery>  (162) 
_x1604L0AP1_x0771L0AP1

>  <ROCS_TanimotoCombo>  (162) 
0.969 

>  <ROCS_ShapeTanimoto>  (162) 
0.472 

>  <ROCS_ColorTanimoto>  (162) 
0.497 

>  <ROCS_RefTversky>  (162) 
0.414 

>  <ROCS_RefColorTversky>  (162) 
0.515 

>  <ROCS_RefTverskyCombo>  (162) 
0.929 

>  <ROCS_FitTversky>  (162) 
1.424 

>  <ROCS_FitColorTversky>  (162) 
0.932 

>  <ROCS_FitTverskyCombo>  (162) 
2.356 

>  <ROCS_ColorScore>  (162) 
-4.879

>  <ROCS_Overlap>  (162) 
690.611

>  <ROCS_Rank>  (162) 
257                 

$$$$
untitled-dbase-111_0
     RDKit          3D

  8  8  0  0  0  0  0  0  0  0999 V2000
   -4.5930   12.4793  -29.8601 C   0  0  0  0  0  0  0  0  0  0  0  0
   -4.3437   12.1549  -31.1935 C   0  0  0  0  0  0  0  0  0  0  0  0
   -5.5676   11.7845  -29.1437 C   0  0  0  0  0  0  0  0  0  0  0  0
   -5.0690   11.1358  -31.8108 C   0  0  0  0  0  0  0  0  0  0  0  0
   -6.2929   10.7654  -29.7609 C   0  0  0  0  0  0  0  0  0  0  0  0
   -6.0436   10.4410  -31.0944 C   0  0  0  0  0  0  0  0  0  0  0  0
   -7.2385   10.1059  -29.0333 O   0  0  0  0  0  0  0  0  0  0  0  0
   -7.0092    9.0623  -31.9658 Br  0  0  0  0  0  0  0  0  0  0  0  0
  1  2  2  0
  1  3  1  0
  2  4  1  0
  3  5  2  0
  4  6  2  0
  5  6  1  0
  5  7  1  0
  6  8  1  0
M  END
>  <id>  (163) 
EN300-16599

>  <smiles>  (163) 
OC=1C=CC=CC1Br

>  <MDLNUMBER>  (163) 
MFCD00002146

>  <IUPAC Name>  (163) 
2-bromophenol

>  <CAS>  (163) 
95-56-7

>  <Purity>  (163) 
95

>  <URL>  (163) 
https://www.enaminestore.com/catalog/EN300-16599

>  <MP>  (163) 
3-7

>  <ROCS_ShapeQuery>  (163) 
_x1604L0AP1_x0771L0AP1

>  <ROCS_TanimotoCombo>  (163) 
0.968 

>  <ROCS_ShapeTanimoto>  (163) 
0.415 

>  <ROCS_ColorTanimoto>  (163) 
0.553 

>  <ROCS_RefTversky>  (163) 
0.364 

>  <ROCS_RefColorTversky>  (163) 
0.518 

>  <ROCS_RefTverskyCombo>  (163) 
0.882 

>  <ROCS_FitTversky>  (163) 
1.510 

>  <ROCS_FitColorTversky>  (163) 
1.139 

>  <ROCS_FitTverskyCombo>  (163) 
2.649 

>  <ROCS_ColorScore>  (163) 
-4.879

>  <ROCS_Overlap>  (163) 
605.774

>  <ROCS_Rank>  (163) 
260                 

$$$$
untitled-dbase-514_32
     RDKit          3D

 11 11  0  0  0  0  0  0  0  0999 V2000
   -4.3320   12.1356  -31.2116 C   0  0  0  0  0  0  0  0  0  0  0  0
   -4.5741   12.4705  -29.8794 C   0  0  0  0  0  0  0  0  0  0  0  0
   -5.0660   11.1169  -31.8192 C   0  0  0  0  0  0  0  0  0  0  0  0
   -5.5502   11.7865  -29.1547 C   0  0  0  0  0  0  0  0  0  0  0  0
   -6.2842   10.7678  -29.7623 C   0  0  0  0  0  0  0  0  0  0  0  0
   -6.0421   10.4330  -31.0945 C   0  0  0  0  0  0  0  0  0  0  0  0
   -5.7924   12.1603  -27.7293 C   0  0  0  0  0  0  0  0  0  0  0  0
   -4.9780   14.3312  -27.7543 N   0  0  0  0  0  0  0  0  0  0  0  0
   -7.2346   10.1068  -29.0396 O   0  0  0  0  0  0  0  0  0  0  0  0
   -6.1849   13.5250  -27.6610 O   0  0  0  0  0  0  0  0  0  0  0  0
   -7.0188    9.0556  -31.9564 Br  0  0  0  0  0  0  0  0  0  0  0  0
  1  2  2  0
  1  3  1  0
  2  4  1  0
  3  6  2  0
  4  5  2  0
  4  7  1  0
  5  6  1  0
  5  9  1  0
  6 11  1  0
  7 10  1  0
  8 10  1  0
M  END
>  <id>  (164) 
EN300-1923132

>  <smiles>  (164) 
NOCC=1C=CC=C(Br)C1O

>  <MDLNUMBER>  (164) 
MFCD33411967

>  <IUPAC Name>  (164) 
2-[(aminooxy)methyl]-6-bromophenol

>  <CAS>  (164) 
1895407-83-6

>  <URL>  (164) 
https://www.enaminestore.com/catalog/EN300-1923132

>  <ROCS_ShapeQuery>  (164) 
_x1604L0AP1_x0771L0AP1

>  <ROCS_TanimotoCombo>  (164) 
0.968 

>  <ROCS_ShapeTanimoto>  (164) 
0.414 

>  <ROCS_ColorTanimoto>  (164) 
0.553 

>  <ROCS_RefTversky>  (164) 
0.384 

>  <ROCS_RefColorTversky>  (164) 
0.518 

>  <ROCS_RefTverskyCombo>  (164) 
0.903 

>  <ROCS_FitTversky>  (164) 
1.231 

>  <ROCS_FitColorTversky>  (164) 
1.139 

>  <ROCS_FitTverskyCombo>  (164) 
2.370 

>  <ROCS_ColorScore>  (164) 
-4.880

>  <ROCS_Overlap>  (164) 
642.276

>  <ROCS_Rank>  (164) 
264                 

$$$$
untitled-dbase-824_3
     RDKit          3D

 12 12  0  0  0  0  0  0  0  0999 V2000
   -4.6035   12.4858  -29.8407 C   0  0  0  0  0  0  0  0  0  0  0  0
   -5.5766   11.7816  -29.1316 C   0  0  0  0  0  0  0  0  0  0  0  0
   -4.3502   12.1725  -31.1761 C   0  0  0  0  0  0  0  0  0  0  0  0
   -6.2962   10.7639  -29.7578 C   0  0  0  0  0  0  0  0  0  0  0  0
   -5.0698   11.1549  -31.8024 C   0  0  0  0  0  0  0  0  0  0  0  0
   -6.0428   10.4505  -31.0932 C   0  0  0  0  0  0  0  0  0  0  0  0
   -2.7085   13.8928  -31.1405 C   0  0  0  0  0  0  0  0  0  0  0  0
   -5.5556   11.5730  -34.0925 C   0  0  0  0  0  0  0  0  0  0  0  0
   -7.2389   10.0966  -29.0337 O   0  0  0  0  0  0  0  0  0  0  0  0
   -3.3970   12.8690  -31.8560 O   0  0  0  0  0  0  0  0  0  0  0  0
   -4.8045   10.8656  -33.1095 O   0  0  0  0  0  0  0  0  0  0  0  0
   -7.0256    9.0628  -31.9447 Br  0  0  0  0  0  0  0  0  0  0  0  0
  1  2  2  0
  1  3  1  0
  2  4  1  0
  3  5  2  0
  3 10  1  0
  4  6  2  0
  4  9  1  0
  5  6  1  0
  5 11  1  0
  6 12  1  0
  7 10  1  0
  8 11  1  0
M  END
>  <id>  (165) 
EN300-1895511

>  <smiles>  (165) 
COC=1C=CC(O)=C(Br)C1OC

>  <MDLNUMBER>  (165) 
MFCD27945703

>  <IUPAC Name>  (165) 
2-bromo-3,4-dimethoxyphenol

>  <CAS>  (165) 
16276-35-0

>  <URL>  (165) 
https://www.enaminestore.com/catalog/EN300-1895511

>  <ROCS_ShapeQuery>  (165) 
_x1604L0AP1_x0771L0AP1

>  <ROCS_TanimotoCombo>  (165) 
0.967 

>  <ROCS_ShapeTanimoto>  (165) 
0.516 

>  <ROCS_ColorTanimoto>  (165) 
0.451 

>  <ROCS_RefTversky>  (165) 
0.457 

>  <ROCS_RefColorTversky>  (165) 
0.513 

>  <ROCS_RefTverskyCombo>  (165) 
0.970 

>  <ROCS_FitTversky>  (165) 
1.336 

>  <ROCS_FitColorTversky>  (165) 
0.789 

>  <ROCS_FitTverskyCombo>  (165) 
2.125 

>  <ROCS_ColorScore>  (165) 
-4.882

>  <ROCS_Overlap>  (165) 
764.477

>  <ROCS_Rank>  (165) 
266                 

$$$$
untitled-dbase-2172_35
     RDKit          3D

 14 14  0  0  0  0  0  0  0  0999 V2000
   -4.3658   12.1656  -31.2275 C   0  0  0  0  0  0  0  0  0  0  0  0
   -4.6037   12.4931  -29.8927 C   0  0  0  0  0  0  0  0  0  0  0  0
   -5.0910   11.1399  -31.8339 C   0  0  0  0  0  0  0  0  0  0  0  0
   -5.5667   11.7949  -29.1642 C   0  0  0  0  0  0  0  0  0  0  0  0
   -6.2919   10.7691  -29.7706 C   0  0  0  0  0  0  0  0  0  0  0  0
   -6.0540   10.4417  -31.1054 C   0  0  0  0  0  0  0  0  0  0  0  0
   -5.0023   13.1871  -27.3206 C   0  0  0  0  0  0  0  0  0  0  0  0
   -4.7988   10.8292  -33.2668 C   0  0  0  0  0  0  0  0  0  0  0  0
   -5.8220   11.4068  -34.2617 C   0  0  0  0  0  0  0  0  0  0  0  0
   -5.4956   11.0463  -35.7106 C   0  0  0  0  0  0  0  0  0  0  0  0
   -7.2289   10.1009  -29.0371 O   0  0  0  0  0  0  0  0  0  0  0  0
   -5.7876   12.1265  -27.8613 O   0  0  0  0  0  0  0  0  0  0  0  0
   -5.4721    9.2430  -35.9311 S   0  0  0  0  0  0  0  0  0  0  0  0
   -7.0546    9.0467  -31.9277 Br  0  0  0  0  0  0  0  0  0  0  0  0
  1  2  2  0
  1  3  1  0
  2  4  1  0
  3  6  2  0
  3  8  1  0
  4  5  2  0
  4 12  1  0
  5  6  1  0
  5 11  1  0
  6 14  1  0
  7 12  1  0
  8  9  1  0
  9 10  1  0
 10 13  1  0
M  END
>  <id>  (166) 
EN300-1936287

>  <smiles>  (166) 
COC=1C=CC(CCCS)=C(Br)C1O

>  <IUPAC Name>  (166) 
2-bromo-6-methoxy-3-(3-sulfanylpropyl)phenol

>  <CAS>  (166) 
2229626-77-9

>  <URL>  (166) 
https://www.enaminestore.com/catalog/EN300-1936287

>  <ROCS_ShapeQuery>  (166) 
_x1604L0AP1_x0771L0AP1

>  <ROCS_TanimotoCombo>  (166) 
0.967 

>  <ROCS_ShapeTanimoto>  (166) 
0.470 

>  <ROCS_ColorTanimoto>  (166) 
0.497 

>  <ROCS_RefTversky>  (166) 
0.440 

>  <ROCS_RefColorTversky>  (166) 
0.516 

>  <ROCS_RefTverskyCombo>  (166) 
0.956 

>  <ROCS_FitTversky>  (166) 
1.169 

>  <ROCS_FitColorTversky>  (166) 
0.932 

>  <ROCS_FitTverskyCombo>  (166) 
2.102 

>  <ROCS_ColorScore>  (166) 
-4.882

>  <ROCS_Overlap>  (166) 
737.620

>  <ROCS_Rank>  (166) 
267                 

$$$$
untitled-dbase-1958_43
     RDKit          3D

 14 14  0  0  0  0  0  0  0  0999 V2000
   -4.5886   12.4734  -29.8752 C   0  0  0  0  0  0  0  0  0  0  0  0
   -5.0719   11.1157  -31.8142 C   0  0  0  0  0  0  0  0  0  0  0  0
   -4.3421   12.1372  -31.2063 C   0  0  0  0  0  0  0  0  0  0  0  0
   -5.5648   11.7880  -29.1520 C   0  0  0  0  0  0  0  0  0  0  0  0
   -6.2946   10.7666  -29.7599 C   0  0  0  0  0  0  0  0  0  0  0  0
   -6.0482   10.4303  -31.0911 C   0  0  0  0  0  0  0  0  0  0  0  0
   -3.3261   12.8540  -31.9609 C   0  0  0  0  0  0  0  0  0  0  0  0
   -5.0032   13.1835  -27.3100 C   0  0  0  0  0  0  0  0  0  0  0  0
   -2.1107   13.4329  -31.2282 C   0  0  0  0  0  0  0  0  0  0  0  0
   -3.4396   12.9976  -33.1953 O   0  0  0  0  0  0  0  0  0  0  0  0
   -7.2459   10.1085  -29.0363 O   0  0  0  0  0  0  0  0  0  0  0  0
   -5.7940   12.1280  -27.8528 O   0  0  0  0  0  0  0  0  0  0  0  0
   -2.4208   15.0817  -30.6463 Cl  0  0  0  0  0  0  0  0  0  0  0  0
   -7.0218    9.0501  -31.9520 Br  0  0  0  0  0  0  0  0  0  0  0  0
  1  3  2  0
  1  4  1  0
  2  3  1  0
  2  6  2  0
  3  7  1  0
  4  5  2  0
  4 12  1  0
  5  6  1  0
  5 11  1  0
  6 14  1  0
  7  9  1  0
  7 10  2  0
  8 12  1  0
  9 13  1  0
M  END
>  <id>  (167) 
EN300-1925694

>  <smiles>  (167) 
COC=1C=C(C=C(Br)C1O)C(=O)CCl

>  <IUPAC Name>  (167) 
1-(3-bromo-4-hydroxy-5-methoxyphenyl)-2-chloroethan-1-one

>  <CAS>  (167) 
2229428-63-9

>  <URL>  (167) 
https://www.enaminestore.com/catalog/EN300-1925694

>  <ROCS_ShapeQuery>  (167) 
_x1604L0AP1_x0771L0AP1

>  <ROCS_TanimotoCombo>  (167) 
0.967 

>  <ROCS_ShapeTanimoto>  (167) 
0.515 

>  <ROCS_ColorTanimoto>  (167) 
0.451 

>  <ROCS_RefTversky>  (167) 
0.471 

>  <ROCS_RefColorTversky>  (167) 
0.513 

>  <ROCS_RefTverskyCombo>  (167) 
0.984 

>  <ROCS_FitTversky>  (167) 
1.225 

>  <ROCS_FitColorTversky>  (167) 
0.789 

>  <ROCS_FitTverskyCombo>  (167) 
2.014 

>  <ROCS_ColorScore>  (167) 
-4.881

>  <ROCS_Overlap>  (167) 
790.007

>  <ROCS_Rank>  (167) 
268                 

$$$$
untitled-dbase-657_40
     RDKit          3D

 14 15  0  0  0  0  0  0  0  0999 V2000
   -4.5999   12.4820  -29.8348 C   0  0  0  0  0  0  0  0  0  0  0  0
   -5.5767   11.7825  -29.1262 C   0  0  0  0  0  0  0  0  0  0  0  0
   -5.0647   11.1468  -31.7939 C   0  0  0  0  0  0  0  0  0  0  0  0
   -4.3439   12.1642  -31.1686 C   0  0  0  0  0  0  0  0  0  0  0  0
   -6.2975   10.7651  -29.7514 C   0  0  0  0  0  0  0  0  0  0  0  0
   -6.0415   10.4472  -31.0853 C   0  0  0  0  0  0  0  0  0  0  0  0
   -1.9365   12.3521  -31.8665 C   0  0  0  0  0  0  0  0  0  0  0  0
   -3.4298   14.4250  -32.0029 C   0  0  0  0  0  0  0  0  0  0  0  0
   -3.7174   13.6000  -33.2152 C   0  0  0  0  0  0  0  0  0  0  0  0
   -3.3003   12.9121  -31.9250 C   0  0  0  0  0  0  0  0  0  0  0  0
   -0.7981   13.3303  -31.9738 C   0  0  0  0  0  0  0  0  0  0  0  0
   -1.7398   11.1451  -31.7345 O   0  0  0  0  0  0  0  0  0  0  0  0
   -7.2450   10.1005  -29.0310 O   0  0  0  0  0  0  0  0  0  0  0  0
   -7.0014    9.0709  -31.9669 Br  0  0  0  0  0  0  0  0  0  0  0  0
  1  2  2  0
  1  4  1  0
  2  5  1  0
  3  4  2  0
  3  6  1  0
  4 10  1  0
  5  6  2  0
  5 13  1  0
  6 14  1  0
  7 10  1  0
  7 11  1  0
  7 12  2  0
  8  9  1  0
  8 10  1  0
  9 10  1  0
M  END
>  <id>  (168) 
EN300-1906675

>  <smiles>  (168) 
CC(=O)C1(CC1)C=2C=CC(O)=C(Br)C2

>  <IUPAC Name>  (168) 
1-[1-(3-bromo-4-hydroxyphenyl)cyclopropyl]ethan-1-one

>  <CAS>  (168) 
2229504-70-3

>  <URL>  (168) 
https://www.enaminestore.com/catalog/EN300-1906675

>  <ROCS_ShapeQuery>  (168) 
_x1604L0AP1_x0771L0AP1

>  <ROCS_TanimotoCombo>  (168) 
0.966 

>  <ROCS_ShapeTanimoto>  (168) 
0.470 

>  <ROCS_ColorTanimoto>  (168) 
0.497 

>  <ROCS_RefTversky>  (168) 
0.445 

>  <ROCS_RefColorTversky>  (168) 
0.515 

>  <ROCS_RefTverskyCombo>  (168) 
0.960 

>  <ROCS_FitTversky>  (168) 
1.134 

>  <ROCS_FitColorTversky>  (168) 
0.932 

>  <ROCS_FitTverskyCombo>  (168) 
2.066 

>  <ROCS_ColorScore>  (168) 
-4.878

>  <ROCS_Overlap>  (168) 
746.889

>  <ROCS_Rank>  (168) 
269                 

$$$$
untitled-dbase-2244_0
     RDKit          3D

 11 12  0  0  0  0  0  0  0  0999 V2000
   -4.6084   12.5202  -29.8045 C   0  0  0  0  0  0  0  0  0  0  0  0
   -5.5863   11.7974  -29.1179 C   0  0  0  0  0  0  0  0  0  0  0  0
   -4.3478   12.1832  -31.1221 C   0  0  0  0  0  0  0  0  0  0  0  0
   -5.0530   11.1543  -31.7575 C   0  0  0  0  0  0  0  0  0  0  0  0
   -6.2932   10.7651  -29.7550 C   0  0  0  0  0  0  0  0  0  0  0  0
   -6.0327   10.4408  -31.0883 C   0  0  0  0  0  0  0  0  0  0  0  0
   -3.3837   12.8301  -32.0656 C   0  0  0  0  0  0  0  0  0  0  0  0
   -4.6266   11.0188  -33.1851 C   0  0  0  0  0  0  0  0  0  0  0  0
   -3.2828   11.7626  -33.1657 C   0  0  0  0  0  0  0  0  0  0  0  0
   -7.2426   10.0984  -29.0358 O   0  0  0  0  0  0  0  0  0  0  0  0
   -7.0093    9.0691  -31.9567 Br  0  0  0  0  0  0  0  0  0  0  0  0
  1  2  2  0
  1  3  1  0
  2  5  1  0
  3  4  2  0
  3  7  1  0
  4  6  1  0
  4  8  1  0
  5  6  2  0
  5 10  1  0
  6 11  1  0
  7  9  1  0
  8  9  1  0
M  END
>  <id>  (169) 
EN300-6777934

>  <smiles>  (169) 
OC=1C=CC=2CCCC2C1Br

>  <MDLNUMBER>  (169) 
MFCD22038629

>  <IUPAC Name>  (169) 
4-bromo-2,3-dihydro-1H-inden-5-ol

>  <CAS>  (169) 
32337-84-1

>  <Purity>  (169) 
95

>  <URL>  (169) 
https://www.enaminestore.com/catalog/EN300-6777934

>  <MP>  (169) 
73-74

>  <ROCS_ShapeQuery>  (169) 
_x1604L0AP1_x0771L0AP1

>  <ROCS_TanimotoCombo>  (169) 
0.966 

>  <ROCS_ShapeTanimoto>  (169) 
0.469 

>  <ROCS_ColorTanimoto>  (169) 
0.497 

>  <ROCS_RefTversky>  (169) 
0.422 

>  <ROCS_RefColorTversky>  (169) 
0.516 

>  <ROCS_RefTverskyCombo>  (169) 
0.939 

>  <ROCS_FitTversky>  (169) 
1.306 

>  <ROCS_FitColorTversky>  (169) 
0.931 

>  <ROCS_FitTverskyCombo>  (169) 
2.237 

>  <ROCS_ColorScore>  (169) 
-4.889

>  <ROCS_Overlap>  (169) 
706.075

>  <ROCS_Rank>  (169) 
271                 

$$$$
untitled-dbase-1912_56
     RDKit          3D

 11 11  0  0  0  0  0  0  0  0999 V2000
   -4.3355   12.1432  -31.2061 C   0  0  0  0  0  0  0  0  0  0  0  0
   -4.5796   12.4762  -29.8737 C   0  0  0  0  0  0  0  0  0  0  0  0
   -5.0668   11.1235  -31.8154 C   0  0  0  0  0  0  0  0  0  0  0  0
   -5.5549   11.7895  -29.1507 C   0  0  0  0  0  0  0  0  0  0  0  0
   -6.2862   10.7697  -29.7599 C   0  0  0  0  0  0  0  0  0  0  0  0
   -6.0421   10.4368  -31.0923 C   0  0  0  0  0  0  0  0  0  0  0  0
   -5.7993   12.1613  -27.7251 C   0  0  0  0  0  0  0  0  0  0  0  0
   -7.2626   12.0507  -27.2682 C   0  0  0  0  0  0  0  0  0  0  0  0
   -7.2359   10.1060  -29.0389 O   0  0  0  0  0  0  0  0  0  0  0  0
   -8.3784   13.1079  -28.2418 S   0  0  0  0  0  0  0  0  0  0  0  0
   -7.0150    9.0582  -31.9565 Br  0  0  0  0  0  0  0  0  0  0  0  0
  1  2  2  0
  1  3  1  0
  2  4  1  0
  3  6  2  0
  4  5  2  0
  4  7  1  0
  5  6  1  0
  5  9  1  0
  6 11  1  0
  7  8  1  0
  8 10  1  0
M  END
>  <id>  (170) 
EN300-1923470

>  <smiles>  (170) 
OC=1C(Br)=CC=CC1CCS

>  <MDLNUMBER>  (170) 
MFCD33499705

>  <IUPAC Name>  (170) 
2-bromo-6-(2-sulfanylethyl)phenol

>  <CAS>  (170) 
2229495-19-4

>  <URL>  (170) 
https://www.enaminestore.com/catalog/EN300-1923470

>  <ROCS_ShapeQuery>  (170) 
_x1604L0AP1_x0771L0AP1

>  <ROCS_TanimotoCombo>  (170) 
0.965 

>  <ROCS_ShapeTanimoto>  (170) 
0.412 

>  <ROCS_ColorTanimoto>  (170) 
0.553 

>  <ROCS_RefTversky>  (170) 
0.381 

>  <ROCS_RefColorTversky>  (170) 
0.518 

>  <ROCS_RefTverskyCombo>  (170) 
0.899 

>  <ROCS_FitTversky>  (170) 
1.249 

>  <ROCS_FitColorTversky>  (170) 
1.139 

>  <ROCS_FitTverskyCombo>  (170) 
2.388 

>  <ROCS_ColorScore>  (170) 
-4.880

>  <ROCS_Overlap>  (170) 
636.075

>  <ROCS_Rank>  (170) 
274                 

$$$$
untitled-dbase-523_57
     RDKit          3D

 12 12  0  0  0  0  0  0  0  0999 V2000
   -4.3508   12.1685  -31.2055 C   0  0  0  0  0  0  0  0  0  0  0  0
   -4.5998   12.4936  -29.8722 C   0  0  0  0  0  0  0  0  0  0  0  0
   -5.0712   11.1442  -31.8199 C   0  0  0  0  0  0  0  0  0  0  0  0
   -5.5691   11.7943  -29.1531 C   0  0  0  0  0  0  0  0  0  0  0  0
   -6.2895   10.7699  -29.7675 C   0  0  0  0  0  0  0  0  0  0  0  0
   -6.0405   10.4449  -31.1009 C   0  0  0  0  0  0  0  0  0  0  0  0
   -5.0198   13.1829  -27.3022 C   0  0  0  0  0  0  0  0  0  0  0  0
   -4.7670   10.8361  -33.2509 C   0  0  0  0  0  0  0  0  0  0  0  0
   -7.2327   10.1006  -29.0431 O   0  0  0  0  0  0  0  0  0  0  0  0
   -5.8008   12.1236  -27.8515 O   0  0  0  0  0  0  0  0  0  0  0  0
   -6.2254   11.0066  -34.3219 S   0  0  0  0  0  0  0  0  0  0  0  0
   -7.0344    9.0517  -31.9341 Br  0  0  0  0  0  0  0  0  0  0  0  0
  1  2  2  0
  1  3  1  0
  2  4  1  0
  3  6  2  0
  3  8  1  0
  4  5  2  0
  4 10  1  0
  5  6  1  0
  5  9  1  0
  6 12  1  0
  7 10  1  0
  8 11  1  0
M  END
>  <id>  (171) 
EN300-1936285

>  <smiles>  (171) 
COC=1C=CC(CS)=C(Br)C1O

>  <IUPAC Name>  (171) 
2-bromo-6-methoxy-3-(sulfanylmethyl)phenol

>  <CAS>  (171) 
2228975-81-1

>  <URL>  (171) 
https://www.enaminestore.com/catalog/EN300-1936285

>  <ROCS_ShapeQuery>  (171) 
_x1604L0AP1_x0771L0AP1

>  <ROCS_TanimotoCombo>  (171) 
0.965 

>  <ROCS_ShapeTanimoto>  (171) 
0.468 

>  <ROCS_ColorTanimoto>  (171) 
0.498 

>  <ROCS_RefTversky>  (171) 
0.425 

>  <ROCS_RefColorTversky>  (171) 
0.516 

>  <ROCS_RefTverskyCombo>  (171) 
0.941 

>  <ROCS_FitTversky>  (171) 
1.273 

>  <ROCS_FitColorTversky>  (171) 
0.933 

>  <ROCS_FitTverskyCombo>  (171) 
2.206 

>  <ROCS_ColorScore>  (171) 
-4.884

>  <ROCS_Overlap>  (171) 
711.411

>  <ROCS_Rank>  (171) 
275                 

$$$$
untitled-dbase-655_55
     RDKit          3D

 14 14  0  0  1  0  0  0  0  0999 V2000
   -4.6044   12.4898  -29.8411 C   0  0  0  0  0  0  0  0  0  0  0  0
   -4.3474   12.1734  -31.1750 C   0  0  0  0  0  0  0  0  0  0  0  0
   -5.5781   11.7859  -29.1324 C   0  0  0  0  0  0  0  0  0  0  0  0
   -5.0642   11.1532  -31.8004 C   0  0  0  0  0  0  0  0  0  0  0  0
   -6.2949   10.7656  -29.7578 C   0  0  0  0  0  0  0  0  0  0  0  0
   -6.0379   10.4493  -31.0918 C   0  0  0  0  0  0  0  0  0  0  0  0
   -4.2570    9.3993  -33.5094 C   0  0  0  0  0  0  0  0  0  0  0  0
   -5.9925   11.0827  -34.1373 C   0  0  0  0  0  0  0  0  0  0  0  0
   -4.7427   10.8451  -33.2701 C   0  0  1  0  0  0  0  0  0  0  0  0
   -3.6699   11.7304  -33.7624 N   0  0  0  0  0  0  0  0  0  0  0  0
   -7.2392   10.1001  -29.0337 O   0  0  0  0  0  0  0  0  0  0  0  0
   -6.7961   12.0308  -33.5935 F   0  0  0  0  0  0  0  0  0  0  0  0
   -6.7327    9.9461  -34.2132 F   0  0  0  0  0  0  0  0  0  0  0  0
   -7.0218    9.0553  -31.9342 Br  0  0  0  0  0  0  0  0  0  0  0  0
  1  2  2  0
  1  3  1  0
  2  4  1  0
  3  5  2  0
  4  6  2  0
  4  9  1  0
  5  6  1  0
  5 11  1  0
  6 14  1  0
  9  7  1  1
  8  9  1  0
  8 12  1  0
  8 13  1  0
  9 10  1  0
M  END
>  <id>  (172) 
EN300-1951057

>  <smiles>  (172) 
CC(N)(C(F)F)C=1C=CC=C(O)C1Br

>  <IUPAC Name>  (172) 
3-(2-amino-1,1-difluoropropan-2-yl)-2-bromophenol

>  <CAS>  (172) 
2228926-30-3

>  <URL>  (172) 
https://www.enaminestore.com/catalog/EN300-1951057

>  <ROCS_ShapeQuery>  (172) 
_x1604L0AP1_x0771L0AP1

>  <ROCS_TanimotoCombo>  (172) 
0.965 

>  <ROCS_ShapeTanimoto>  (172) 
0.514 

>  <ROCS_ColorTanimoto>  (172) 
0.451 

>  <ROCS_RefTversky>  (172) 
0.472 

>  <ROCS_RefColorTversky>  (172) 
0.513 

>  <ROCS_RefTverskyCombo>  (172) 
0.985 

>  <ROCS_FitTversky>  (172) 
1.206 

>  <ROCS_FitColorTversky>  (172) 
0.789 

>  <ROCS_FitTverskyCombo>  (172) 
1.996 

>  <ROCS_ColorScore>  (172) 
-4.883

>  <ROCS_Overlap>  (172) 
792.574

>  <ROCS_Rank>  (172) 
277                 

$$$$
untitled-dbase-1953_85
     RDKit          3D

 15 15  0  0  0  0  0  0  0  0999 V2000
   -4.3548   12.1687  -31.2090 C   0  0  0  0  0  0  0  0  0  0  0  0
   -4.5999   12.4926  -29.8746 C   0  0  0  0  0  0  0  0  0  0  0  0
   -5.0781   11.1460  -31.8227 C   0  0  0  0  0  0  0  0  0  0  0  0
   -5.5682   11.7937  -29.1538 C   0  0  0  0  0  0  0  0  0  0  0  0
   -6.2916   10.7710  -29.7675 C   0  0  0  0  0  0  0  0  0  0  0  0
   -6.0465   10.4471  -31.1019 C   0  0  0  0  0  0  0  0  0  0  0  0
   -4.7780   10.8510  -33.2189 C   0  0  0  0  0  0  0  0  0  0  0  0
   -5.0125   13.1787  -27.3021 C   0  0  0  0  0  0  0  0  0  0  0  0
   -5.8690   10.9506  -34.2741 C   0  0  0  0  0  0  0  0  0  0  0  0
   -3.6381   10.4954  -33.5682 O   0  0  0  0  0  0  0  0  0  0  0  0
   -7.2327   10.1013  -29.0406 O   0  0  0  0  0  0  0  0  0  0  0  0
   -5.7960   12.1210  -27.8511 O   0  0  0  0  0  0  0  0  0  0  0  0
   -7.0620   11.3303  -33.7407 F   0  0  0  0  0  0  0  0  0  0  0  0
   -6.0909    9.7525  -34.8748 F   0  0  0  0  0  0  0  0  0  0  0  0
   -7.0407    9.0482  -31.9277 Br  0  0  0  0  0  0  0  0  0  0  0  0
  1  2  2  0
  1  3  1  0
  2  4  1  0
  3  6  2  0
  3  7  1  0
  4  5  2  0
  4 12  1  0
  5  6  1  0
  5 11  1  0
  6 15  1  0
  7  9  1  0
  7 10  2  0
  8 12  1  0
  9 13  1  0
  9 14  1  0
M  END
>  <id>  (173) 
EN300-1965755

>  <smiles>  (173) 
COC=1C=CC(C(=O)C(F)F)=C(Br)C1O

>  <IUPAC Name>  (173) 
1-(2-bromo-3-hydroxy-4-methoxyphenyl)-2,2-difluoroethan-1-one

>  <CAS>  (173) 
2228503-13-5

>  <URL>  (173) 
https://www.enaminestore.com/catalog/EN300-1965755

>  <ROCS_ShapeQuery>  (173) 
_x1604L0AP1_x0771L0AP1

>  <ROCS_TanimotoCombo>  (173) 
0.965 

>  <ROCS_ShapeTanimoto>  (173) 
0.513 

>  <ROCS_ColorTanimoto>  (173) 
0.452 

>  <ROCS_RefTversky>  (173) 
0.481 

>  <ROCS_RefColorTversky>  (173) 
0.513 

>  <ROCS_RefTverskyCombo>  (173) 
0.995 

>  <ROCS_FitTversky>  (173) 
1.150 

>  <ROCS_FitColorTversky>  (173) 
0.790 

>  <ROCS_FitTverskyCombo>  (173) 
1.940 

>  <ROCS_ColorScore>  (173) 
-4.884

>  <ROCS_Overlap>  (173) 
808.804

>  <ROCS_Rank>  (173) 
278                 

$$$$
untitled-dbase-2315_0
     RDKit          3D

 12 12  0  0  0  0  0  0  0  0999 V2000
   -4.5842   12.4850  -29.8554 C   0  0  0  0  0  0  0  0  0  0  0  0
   -5.5597   11.7886  -29.1418 C   0  0  0  0  0  0  0  0  0  0  0  0
   -4.3338   12.1642  -31.1896 C   0  0  0  0  0  0  0  0  0  0  0  0
   -5.0589   11.1469  -31.8102 C   0  0  0  0  0  0  0  0  0  0  0  0
   -6.2847   10.7714  -29.7624 C   0  0  0  0  0  0  0  0  0  0  0  0
   -6.0343   10.4505  -31.0967 C   0  0  0  0  0  0  0  0  0  0  0  0
   -5.8033   12.1436  -27.7501 C   0  0  0  0  0  0  0  0  0  0  0  0
   -3.2844   12.9279  -31.9293 C   0  0  0  0  0  0  0  0  0  0  0  0
   -4.7699   10.8239  -33.2436 C   0  0  0  0  0  0  0  0  0  0  0  0
   -5.1845   13.0362  -27.1667 O   0  0  0  0  0  0  0  0  0  0  0  0
   -7.2360   10.1005  -29.0487 O   0  0  0  0  0  0  0  0  0  0  0  0
   -7.0279    9.0568  -31.9317 Br  0  0  0  0  0  0  0  0  0  0  0  0
  1  2  2  0
  1  3  1  0
  2  5  1  0
  2  7  1  0
  3  4  2  0
  3  8  1  0
  4  6  1  0
  4  9  1  0
  5  6  2  0
  5 11  1  0
  6 12  1  0
  7 10  2  0
M  END
>  <id>  (174) 
EN300-3005928

>  <smiles>  (174) 
CC=1C=C(C=O)C(O)=C(Br)C1C

>  <MDLNUMBER>  (174) 
MFCD06740694

>  <IUPAC Name>  (174) 
3-bromo-2-hydroxy-4,5-dimethylbenzaldehyde

>  <CAS>  (174) 
886503-97-5

>  <Purity>  (174) 
95

>  <URL>  (174) 
https://www.enaminestore.com/catalog/EN300-3005928

>  <ROCS_ShapeQuery>  (174) 
_x1604L0AP1_x0771L0AP1

>  <ROCS_TanimotoCombo>  (174) 
0.965 

>  <ROCS_ShapeTanimoto>  (174) 
0.467 

>  <ROCS_ColorTanimoto>  (174) 
0.498 

>  <ROCS_RefTversky>  (174) 
0.427 

>  <ROCS_RefColorTversky>  (174) 
0.516 

>  <ROCS_RefTverskyCombo>  (174) 
0.943 

>  <ROCS_FitTversky>  (174) 
1.254 

>  <ROCS_FitColorTversky>  (174) 
0.933 

>  <ROCS_FitTverskyCombo>  (174) 
2.187 

>  <ROCS_ColorScore>  (174) 
-4.885

>  <ROCS_Overlap>  (174) 
714.352

>  <ROCS_Rank>  (174) 
279                 

$$$$
untitled-dbase-2112_93
     RDKit          3D

 14 14  0  0  0  0  0  0  0  0999 V2000
   -4.6000   12.4840  -29.8515 C   0  0  0  0  0  0  0  0  0  0  0  0
   -5.0757   11.1422  -31.8035 C   0  0  0  0  0  0  0  0  0  0  0  0
   -4.3516   12.1619  -31.1858 C   0  0  0  0  0  0  0  0  0  0  0  0
   -5.5723   11.7863  -29.1350 C   0  0  0  0  0  0  0  0  0  0  0  0
   -6.2964   10.7666  -29.7527 C   0  0  0  0  0  0  0  0  0  0  0  0
   -6.0481   10.4445  -31.0869 C   0  0  0  0  0  0  0  0  0  0  0  0
   -2.6085   13.9902  -31.1438 C   0  0  0  0  0  0  0  0  0  0  0  0
   -3.2619   15.3480  -31.1235 C   0  0  0  0  0  0  0  0  0  0  0  0
   -6.7894   13.1123  -27.5806 C   0  0  0  0  0  0  0  0  0  0  0  0
   -3.3126   12.9087  -31.9518 C   0  0  0  0  0  0  0  0  0  0  0  0
   -1.5604   13.7850  -30.5330 O   0  0  0  0  0  0  0  0  0  0  0  0
   -7.2441   10.0963  -29.0354 O   0  0  0  0  0  0  0  0  0  0  0  0
   -5.8038   12.1128  -27.8327 O   0  0  0  0  0  0  0  0  0  0  0  0
   -7.0117    9.0652  -31.9604 Br  0  0  0  0  0  0  0  0  0  0  0  0
  1  3  2  0
  1  4  1  0
  2  3  1  0
  2  6  2  0
  3 10  1  0
  4  5  2  0
  4 13  1  0
  5  6  1  0
  5 12  1  0
  6 14  1  0
  7  8  1  0
  7 10  1  0
  7 11  2  0
  9 13  1  0
M  END
>  <id>  (175) 
EN300-1894704

>  <smiles>  (175) 
COC=1C=C(CC(=O)C)C=C(Br)C1O

>  <MDLNUMBER>  (175) 
MFCD00210396

>  <IUPAC Name>  (175) 
1-(3-bromo-4-hydroxy-5-methoxyphenyl)propan-2-one

>  <CAS>  (175) 
205826-79-5

>  <URL>  (175) 
https://www.enaminestore.com/catalog/EN300-1894704

>  <ROCS_ShapeQuery>  (175) 
_x1604L0AP1_x0771L0AP1

>  <ROCS_TanimotoCombo>  (175) 
0.965 

>  <ROCS_ShapeTanimoto>  (175) 
0.513 

>  <ROCS_ColorTanimoto>  (175) 
0.451 

>  <ROCS_RefTversky>  (175) 
0.470 

>  <ROCS_RefColorTversky>  (175) 
0.513 

>  <ROCS_RefTverskyCombo>  (175) 
0.983 

>  <ROCS_FitTversky>  (175) 
1.217 

>  <ROCS_FitColorTversky>  (175) 
0.789 

>  <ROCS_FitTverskyCombo>  (175) 
2.007 

>  <ROCS_ColorScore>  (175) 
-4.881

>  <ROCS_Overlap>  (175) 
789.137

>  <ROCS_Rank>  (175) 
280                 

$$$$
untitled-dbase-2080_146
     RDKit          3D

 14 14  0  0  0  0  0  0  0  0999 V2000
   -5.0524   11.1334  -31.7902 C   0  0  0  0  0  0  0  0  0  0  0  0
   -5.5666   11.7740  -29.1241 C   0  0  0  0  0  0  0  0  0  0  0  0
   -4.3262   12.1462  -31.1637 C   0  0  0  0  0  0  0  0  0  0  0  0
   -4.5833   12.4665  -29.8307 C   0  0  0  0  0  0  0  0  0  0  0  0
   -6.2928   10.7612  -29.7506 C   0  0  0  0  0  0  0  0  0  0  0  0
   -6.0357   10.4409  -31.0836 C   0  0  0  0  0  0  0  0  0  0  0  0
   -3.2939   12.8625  -31.9330 C   0  0  0  0  0  0  0  0  0  0  0  0
   -3.8215   13.5478  -29.1363 C   0  0  0  0  0  0  0  0  0  0  0  0
   -4.2133   12.8702  -34.8008 C   0  0  0  0  0  0  0  0  0  0  0  0
   -2.5745   12.1031  -33.0462 C   0  0  0  0  0  0  0  0  0  0  0  0
   -2.7469   12.7619  -34.4150 C   0  0  0  0  0  0  0  0  0  0  0  0
   -3.0029   14.0383  -31.7049 O   0  0  0  0  0  0  0  0  0  0  0  0
   -7.2471   10.1033  -29.0330 O   0  0  0  0  0  0  0  0  0  0  0  0
   -7.0032    9.0709  -31.9665 Br  0  0  0  0  0  0  0  0  0  0  0  0
  1  3  2  0
  1  6  1  0
  2  4  2  0
  2  5  1  0
  3  4  1  0
  3  7  1  0
  4  8  1  0
  5  6  2  0
  5 13  1  0
  6 14  1  0
  7 10  1  0
  7 12  2  0
  9 11  1  0
 10 11  1  0
M  END
>  <id>  (176) 
EN300-1276715

>  <smiles>  (176) 
CCCC(=O)C=1C=C(Br)C(O)=CC1C

>  <IUPAC Name>  (176) 
1-(5-bromo-4-hydroxy-2-methylphenyl)butan-1-one

>  <CAS>  (176) 
2110466-13-0

>  <URL>  (176) 
https://www.enaminestore.com/catalog/EN300-1276715

>  <ROCS_ShapeQuery>  (176) 
_x1604L0AP1_x0771L0AP1

>  <ROCS_TanimotoCombo>  (176) 
0.965 

>  <ROCS_ShapeTanimoto>  (176) 
0.514 

>  <ROCS_ColorTanimoto>  (176) 
0.451 

>  <ROCS_RefTversky>  (176) 
0.469 

>  <ROCS_RefColorTversky>  (176) 
0.513 

>  <ROCS_RefTverskyCombo>  (176) 
0.982 

>  <ROCS_FitTversky>  (176) 
1.227 

>  <ROCS_FitColorTversky>  (176) 
0.789 

>  <ROCS_FitTverskyCombo>  (176) 
2.016 

>  <ROCS_ColorScore>  (176) 
-4.878

>  <ROCS_Overlap>  (176) 
786.871

>  <ROCS_Rank>  (176) 
281                 

$$$$
untitled-dbase-87_7
     RDKit          3D

 13 13  0  0  0  0  0  0  0  0999 V2000
   -4.6130   12.4933  -29.8680 C   0  0  0  0  0  0  0  0  0  0  0  0
   -5.5797   11.7908  -29.1486 C   0  0  0  0  0  0  0  0  0  0  0  0
   -4.3650   12.1708  -31.2022 C   0  0  0  0  0  0  0  0  0  0  0  0
   -6.2984   10.7656  -29.7635 C   0  0  0  0  0  0  0  0  0  0  0  0
   -5.0838   11.1456  -31.8171 C   0  0  0  0  0  0  0  0  0  0  0  0
   -6.0505   10.4430  -31.0977 C   0  0  0  0  0  0  0  0  0  0  0  0
   -5.5518   11.5428  -34.1270 C   0  0  0  0  0  0  0  0  0  0  0  0
   -7.2356   10.1006  -29.0298 O   0  0  0  0  0  0  0  0  0  0  0  0
   -4.8145   10.8577  -33.1223 O   0  0  0  0  0  0  0  0  0  0  0  0
   -5.9152   12.7740  -33.7095 F   0  0  0  0  0  0  0  0  0  0  0  0
   -6.6786   10.8431  -34.3912 F   0  0  0  0  0  0  0  0  0  0  0  0
   -4.8430   11.6368  -35.2720 F   0  0  0  0  0  0  0  0  0  0  0  0
   -7.0303    9.0454  -31.9360 Br  0  0  0  0  0  0  0  0  0  0  0  0
  1  2  2  0
  1  3  1  0
  2  4  1  0
  3  5  2  0
  4  6  2  0
  4  8  1  0
  5  6  1  0
  5  9  1  0
  6 13  1  0
  7  9  1  0
  7 10  1  0
  7 11  1  0
  7 12  1  0
M  END
>  <id>  (177) 
EN300-256632

>  <smiles>  (177) 
OC=1C=CC=C(OC(F)(F)F)C1Br

>  <MDLNUMBER>  (177) 
MFCD22208541

>  <IUPAC Name>  (177) 
2-bromo-3-(trifluoromethoxy)phenol

>  <CAS>  (177) 
1392059-76-5

>  <Purity>  (177) 
95

>  <URL>  (177) 
https://www.enaminestore.com/catalog/EN300-256632

>  <ROCS_ShapeQuery>  (177) 
_x1604L0AP1_x0771L0AP1

>  <ROCS_TanimotoCombo>  (177) 
0.964 

>  <ROCS_ShapeTanimoto>  (177) 
0.467 

>  <ROCS_ColorTanimoto>  (177) 
0.497 

>  <ROCS_RefTversky>  (177) 
0.438 

>  <ROCS_RefColorTversky>  (177) 
0.516 

>  <ROCS_RefTverskyCombo>  (177) 
0.954 

>  <ROCS_FitTversky>  (177) 
1.166 

>  <ROCS_FitColorTversky>  (177) 
0.932 

>  <ROCS_FitTverskyCombo>  (177) 
2.099 

>  <ROCS_ColorScore>  (177) 
-4.881

>  <ROCS_Overlap>  (177) 
734.869

>  <ROCS_Rank>  (177) 
282                 

$$$$
untitled-dbase-826_42
     RDKit          3D

 13 14  0  0  1  0  0  0  0  0999 V2000
   -4.6106   12.4930  -29.8769 C   0  0  0  0  0  0  0  0  0  0  0  0
   -4.3620   12.1656  -31.2098 C   0  0  0  0  0  0  0  0  0  0  0  0
   -5.5774   11.7928  -29.1553 C   0  0  0  0  0  0  0  0  0  0  0  0
   -5.0804   11.1381  -31.8212 C   0  0  0  0  0  0  0  0  0  0  0  0
   -6.2957   10.7652  -29.7667 C   0  0  0  0  0  0  0  0  0  0  0  0
   -6.0472   10.4379  -31.0997 C   0  0  0  0  0  0  0  0  0  0  0  0
   -4.8526   11.9359  -34.2700 C   0  0  0  0  0  0  0  0  0  0  0  0
   -4.7804   10.8263  -33.2519 C   0  0  2  0  0  0  0  0  0  0  0  0
   -5.9054   10.8679  -34.2564 C   0  0  2  0  0  0  0  0  0  0  0  0
   -5.9605    9.8574  -35.3501 C   0  0  0  0  0  0  0  0  0  0  0  0
   -6.6896    8.6886  -34.9408 N   0  0  0  0  0  0  0  0  0  0  0  0
   -7.2344   10.1054  -29.0302 O   0  0  0  0  0  0  0  0  0  0  0  0
   -7.0396    9.0372  -31.9226 Br  0  0  0  0  0  0  0  0  0  0  0  0
  1  2  2  0
  1  3  1  0
  2  4  1  0
  3  5  2  0
  4  6  2  0
  8  4  1  1
  5  6  1  0
  5 12  1  0
  6 13  1  0
  7  8  1  0
  7  9  1  0
  8  9  1  0
  9 10  1  6
 10 11  1  0
M  END
>  <id>  (178) 
EN300-1904582

>  <smiles>  (178) 
NCC1CC1C=2C=CC=C(O)C2Br

>  <IUPAC Name>  (178) 
3-[2-(aminomethyl)cyclopropyl]-2-bromophenol

>  <CAS>  (178) 
2228647-56-9

>  <URL>  (178) 
https://www.enaminestore.com/catalog/EN300-1904582

>  <ROCS_ShapeQuery>  (178) 
_x1604L0AP1_x0771L0AP1

>  <ROCS_TanimotoCombo>  (178) 
0.964 

>  <ROCS_ShapeTanimoto>  (178) 
0.512 

>  <ROCS_ColorTanimoto>  (178) 
0.452 

>  <ROCS_RefTversky>  (178) 
0.462 

>  <ROCS_RefColorTversky>  (178) 
0.514 

>  <ROCS_RefTverskyCombo>  (178) 
0.975 

>  <ROCS_FitTversky>  (178) 
1.271 

>  <ROCS_FitColorTversky>  (178) 
0.790 

>  <ROCS_FitTverskyCombo>  (178) 
2.061 

>  <ROCS_ColorScore>  (178) 
-4.887

>  <ROCS_Overlap>  (178) 
773.696

>  <ROCS_Rank>  (178) 
284                 

$$$$
untitled-dbase-343_42
     RDKit          3D

 13 14  0  0  1  0  0  0  0  0999 V2000
   -4.6103   12.4924  -29.8766 C   0  0  0  0  0  0  0  0  0  0  0  0
   -4.3617   12.1652  -31.2095 C   0  0  0  0  0  0  0  0  0  0  0  0
   -5.5771   11.7920  -29.1551 C   0  0  0  0  0  0  0  0  0  0  0  0
   -5.0799   11.1377  -31.8211 C   0  0  0  0  0  0  0  0  0  0  0  0
   -6.2953   10.7645  -29.7666 C   0  0  0  0  0  0  0  0  0  0  0  0
   -6.0467   10.4373  -31.0996 C   0  0  0  0  0  0  0  0  0  0  0  0
   -4.8530   11.9357  -34.2695 C   0  0  0  0  0  0  0  0  0  0  0  0
   -4.7799   10.8261  -33.2518 C   0  0  2  0  0  0  0  0  0  0  0  0
   -5.9051   10.8669  -34.2559 C   0  0  2  0  0  0  0  0  0  0  0  0
   -5.9598    9.8568  -35.3499 C   0  0  0  0  0  0  0  0  0  0  0  0
   -6.6880    8.6873  -34.9408 N   0  0  0  0  0  0  0  0  0  0  0  0
   -7.2339   10.1044  -29.0302 O   0  0  0  0  0  0  0  0  0  0  0  0
   -7.0389    9.0365  -31.9227 Br  0  0  0  0  0  0  0  0  0  0  0  0
  1  2  2  0
  1  3  1  0
  2  4  1  0
  3  5  2  0
  4  6  2  0
  8  4  1  1
  5  6  1  0
  5 12  1  0
  6 13  1  0
  7  8  1  0
  7  9  1  0
  8  9  1  0
  9 10  1  6
 10 11  1  0
M  END
>  <id>  (179) 
EN300-1904579

>  <smiles>  (179) 
NC[C@@H]1C[C@H]1C=2C=CC=C(O)C2Br |&1:2,4,r|

>  <IUPAC Name>  (179) 
rac-3-[(1R,2R)-2-(aminomethyl)cyclopropyl]-2-bromophenol

>  <CAS>  (179) 
2227791-53-7

>  <URL>  (179) 
https://www.enaminestore.com/catalog/EN300-1904579

>  <ROCS_ShapeQuery>  (179) 
_x1604L0AP1_x0771L0AP1

>  <ROCS_TanimotoCombo>  (179) 
0.964 

>  <ROCS_ShapeTanimoto>  (179) 
0.512 

>  <ROCS_ColorTanimoto>  (179) 
0.452 

>  <ROCS_RefTversky>  (179) 
0.462 

>  <ROCS_RefColorTversky>  (179) 
0.514 

>  <ROCS_RefTverskyCombo>  (179) 
0.975 

>  <ROCS_FitTversky>  (179) 
1.271 

>  <ROCS_FitColorTversky>  (179) 
0.790 

>  <ROCS_FitTverskyCombo>  (179) 
2.061 

>  <ROCS_ColorScore>  (179) 
-4.888

>  <ROCS_Overlap>  (179) 
773.667

>  <ROCS_Rank>  (179) 
285                 

$$$$
untitled-dbase-2149_3443
     RDKit          3D

 14 14  0  0  0  0  0  0  0  0999 V2000
   -4.5785   12.4650  -29.8563 C   0  0  0  0  0  0  0  0  0  0  0  0
   -5.0619   11.1225  -31.8059 C   0  0  0  0  0  0  0  0  0  0  0  0
   -4.3307   12.1379  -31.1894 C   0  0  0  0  0  0  0  0  0  0  0  0
   -5.5574   11.7766  -29.1396 C   0  0  0  0  0  0  0  0  0  0  0  0
   -6.2885   10.7612  -29.7561 C   0  0  0  0  0  0  0  0  0  0  0  0
   -6.0408   10.4342  -31.0893 C   0  0  0  0  0  0  0  0  0  0  0  0
   -6.8439   14.0674  -26.9564 C   0  0  0  0  0  0  0  0  0  0  0  0
   -3.2847   12.8748  -31.9556 C   0  0  0  0  0  0  0  0  0  0  0  0
   -5.5517   13.4633  -27.4631 C   0  0  0  0  0  0  0  0  0  0  0  0
   -2.4139   13.6385  -31.0985 N   0  0  0  0  0  0  0  0  0  0  0  0
   -7.2425   10.1001  -29.0388 O   0  0  0  0  0  0  0  0  0  0  0  0
   -3.2178   14.7341  -30.5785 O   0  0  0  0  0  0  0  0  0  0  0  0
   -5.7883   12.1079  -27.8385 O   0  0  0  0  0  0  0  0  0  0  0  0
   -7.0140    9.0605  -31.9611 Br  0  0  0  0  0  0  0  0  0  0  0  0
  1  3  2  0
  1  4  1  0
  2  3  1  0
  2  6  2  0
  3  8  1  0
  4  5  2  0
  4 13  1  0
  5  6  1  0
  5 11  1  0
  6 14  1  0
  7  9  1  0
  8 10  1  0
  9 13  1  0
 10 12  1  0
M  END
>  <id>  (180) 
EN300-1919829

>  <smiles>  (180) 
CCOC=1C=C(CNO)C=C(Br)C1O

>  <IUPAC Name>  (180) 
2-bromo-6-ethoxy-4-[(hydroxyamino)methyl]phenol

>  <CAS>  (180) 
2228526-03-0

>  <URL>  (180) 
https://www.enaminestore.com/catalog/EN300-1919829

>  <ROCS_ShapeQuery>  (180) 
_x1604L0AP1_x0771L0AP1

>  <ROCS_TanimotoCombo>  (180) 
0.964 

>  <ROCS_ShapeTanimoto>  (180) 
0.513 

>  <ROCS_ColorTanimoto>  (180) 
0.451 

>  <ROCS_RefTversky>  (180) 
0.469 

>  <ROCS_RefColorTversky>  (180) 
0.513 

>  <ROCS_RefTverskyCombo>  (180) 
0.982 

>  <ROCS_FitTversky>  (180) 
1.224 

>  <ROCS_FitColorTversky>  (180) 
0.789 

>  <ROCS_FitTverskyCombo>  (180) 
2.013 

>  <ROCS_ColorScore>  (180) 
-4.882

>  <ROCS_Overlap>  (180) 
786.228

>  <ROCS_Rank>  (180) 
287                 

$$$$
untitled-dbase-463_237
     RDKit          3D

 14 14  0  0  1  0  0  0  0  0999 V2000
   -4.6275   12.5090  -29.8505 C   0  0  0  0  0  0  0  0  0  0  0  0
   -5.0624   11.1433  -31.7954 C   0  0  0  0  0  0  0  0  0  0  0  0
   -4.3593   12.1782  -31.1788 C   0  0  0  0  0  0  0  0  0  0  0  0
   -5.5987   11.8048  -29.1388 C   0  0  0  0  0  0  0  0  0  0  0  0
   -6.3018   10.7699  -29.7554 C   0  0  0  0  0  0  0  0  0  0  0  0
   -6.0337   10.4391  -31.0837 C   0  0  0  0  0  0  0  0  0  0  0  0
   -1.2115   14.0679  -31.7332 C   0  0  0  0  0  0  0  0  0  0  0  0
   -5.0855   13.2101  -27.2901 C   0  0  0  0  0  0  0  0  0  0  0  0
   -3.3215   12.9320  -31.9396 C   0  0  0  0  0  0  0  0  0  0  0  0
   -2.4758   13.7200  -31.0793 N   0  0  0  0  0  0  0  0  0  0  0  0
   -7.2488   10.0935  -29.0430 O   0  0  0  0  0  0  0  0  0  0  0  0
   -3.1612   14.9981  -30.9337 O   0  0  0  0  0  0  0  0  0  0  0  0
   -5.8497   12.1400  -27.8424 O   0  0  0  0  0  0  0  0  0  0  0  0
   -6.9686    9.0391  -31.9554 Br  0  0  0  0  0  0  0  0  0  0  0  0
  1  3  2  0
  1  4  1  0
  2  3  1  0
  2  6  2  0
  3  9  1  0
  4  5  2  0
  4 13  1  0
  5  6  1  0
  5 11  1  0
  6 14  1  0
  7 10  1  0
  8 13  1  0
  9 10  1  0
 10 12  1  0
M  END
>  <id>  (181) 
EN300-1926974

>  <smiles>  (181) 
COC=1C=C(CN(C)O)C=C(Br)C1O

>  <IUPAC Name>  (181) 
2-bromo-4-{[hydroxy(methyl)amino]methyl}-6-methoxyphenol

>  <CAS>  (181) 
2229368-19-6

>  <URL>  (181) 
https://www.enaminestore.com/catalog/EN300-1926974

>  <ROCS_ShapeQuery>  (181) 
_x1604L0AP1_x0771L0AP1

>  <ROCS_TanimotoCombo>  (181) 
0.964 

>  <ROCS_ShapeTanimoto>  (181) 
0.513 

>  <ROCS_ColorTanimoto>  (181) 
0.451 

>  <ROCS_RefTversky>  (181) 
0.470 

>  <ROCS_RefColorTversky>  (181) 
0.513 

>  <ROCS_RefTverskyCombo>  (181) 
0.983 

>  <ROCS_FitTversky>  (181) 
1.215 

>  <ROCS_FitColorTversky>  (181) 
0.789 

>  <ROCS_FitTverskyCombo>  (181) 
2.004 

>  <ROCS_ColorScore>  (181) 
-4.878

>  <ROCS_Overlap>  (181) 
789.176

>  <ROCS_Rank>  (181) 
288                 

$$$$
untitled-dbase-577_255
     RDKit          3D

 14 14  0  0  0  0  0  0  0  0999 V2000
   -4.3941   12.1019  -30.3114 C   0  0  0  0  0  0  0  0  0  0  0  0
   -4.3254   11.5982  -31.6103 C   0  0  0  0  0  0  0  0  0  0  0  0
   -5.3710   11.6337  -29.4326 C   0  0  0  0  0  0  0  0  0  0  0  0
   -5.2336   10.6264  -32.0304 C   0  0  0  0  0  0  0  0  0  0  0  0
   -6.2792   10.6620  -29.8527 C   0  0  0  0  0  0  0  0  0  0  0  0
   -6.2105   10.1583  -31.1516 C   0  0  0  0  0  0  0  0  0  0  0  0
   -5.1180   10.1195  -33.4321 C   0  0  0  0  0  0  0  0  0  0  0  0
   -7.6098    8.6999  -35.1526 N   0  0  0  0  0  0  0  0  0  0  0  0
   -5.1709    8.6644  -35.9568 O   0  0  0  0  0  0  0  0  0  0  0  0
   -6.0963    6.6803  -34.7203 O   0  0  0  0  0  0  0  0  0  0  0  0
   -7.2204   10.2291  -28.9663 O   0  0  0  0  0  0  0  0  0  0  0  0
   -5.5647    8.7713  -33.4814 O   0  0  0  0  0  0  0  0  0  0  0  0
   -6.0155    8.1172  -34.9107 S   0  0  0  0  0  0  0  0  0  0  0  0
   -7.4546    8.8325  -31.7133 Br  0  0  0  0  0  0  0  0  0  0  0  0
  1  2  2  0
  1  3  1  0
  2  4  1  0
  3  5  2  0
  4  6  2  0
  4  7  1  0
  5  6  1  0
  5 11  1  0
  6 14  1  0
  7 12  1  0
  8 13  1  0
  9 13  2  0
 10 13  2  0
 12 13  1  0
M  END
>  <id>  (182) 
EN300-1991219

>  <smiles>  (182) 
NS(=O)(=O)OCC=1C=CC=C(O)C1Br

>  <IUPAC Name>  (182) 
(2-bromo-3-hydroxyphenyl)methyl sulfamate

>  <CAS>  (182) 
2228439-50-5

>  <URL>  (182) 
https://www.enaminestore.com/catalog/EN300-1991219

>  <ROCS_ShapeQuery>  (182) 
_x1604L0AP1_x0771L0AP1

>  <ROCS_TanimotoCombo>  (182) 
0.964 

>  <ROCS_ShapeTanimoto>  (182) 
0.501 

>  <ROCS_ColorTanimoto>  (182) 
0.462 

>  <ROCS_RefTversky>  (182) 
0.460 

>  <ROCS_RefColorTversky>  (182) 
0.552 

>  <ROCS_RefTverskyCombo>  (182) 
1.012 

>  <ROCS_FitTversky>  (182) 
1.220 

>  <ROCS_FitColorTversky>  (182) 
0.740 

>  <ROCS_FitTverskyCombo>  (182) 
1.959 

>  <ROCS_ColorScore>  (182) 
-5.281

>  <ROCS_Overlap>  (182) 
771.047

>  <ROCS_Rank>  (182) 
289                 

$$$$
untitled-dbase-1130_75
     RDKit          3D

 12 12  0  0  1  0  0  0  0  0999 V2000
   -4.6026   12.4835  -29.8253 C   0  0  0  0  0  0  0  0  0  0  0  0
   -5.5798   11.7811  -29.1202 C   0  0  0  0  0  0  0  0  0  0  0  0
   -5.0628   11.1530  -31.7887 C   0  0  0  0  0  0  0  0  0  0  0  0
   -4.3441   12.1695  -31.1596 C   0  0  0  0  0  0  0  0  0  0  0  0
   -6.2985   10.7646  -29.7492 C   0  0  0  0  0  0  0  0  0  0  0  0
   -6.0400   10.4505  -31.0835 C   0  0  0  0  0  0  0  0  0  0  0  0
   -1.3716   12.6661  -33.3286 C   0  0  0  0  0  0  0  0  0  0  0  0
   -3.2989   12.9210  -31.9124 C   0  0  0  0  0  0  0  0  0  0  0  0
   -2.6689   12.1153  -32.9274 N   0  0  0  0  0  0  0  0  0  0  0  0
   -7.2456   10.0961  -29.0320 O   0  0  0  0  0  0  0  0  0  0  0  0
   -3.5012   12.2723  -34.1136 O   0  0  0  0  0  0  0  0  0  0  0  0
   -6.9961    9.0744  -31.9695 Br  0  0  0  0  0  0  0  0  0  0  0  0
  1  2  2  0
  1  4  1  0
  2  5  1  0
  3  4  2  0
  3  6  1  0
  4  8  1  0
  5  6  2  0
  5 10  1  0
  6 12  1  0
  7  9  1  0
  8  9  1  0
  9 11  1  0
M  END
>  <id>  (183) 
EN300-1906300

>  <smiles>  (183) 
CN(O)CC=1C=CC(O)=C(Br)C1

>  <IUPAC Name>  (183) 
2-bromo-4-{[hydroxy(methyl)amino]methyl}phenol

>  <CAS>  (183) 
1519334-15-6

>  <URL>  (183) 
https://www.enaminestore.com/catalog/EN300-1906300

>  <ROCS_ShapeQuery>  (183) 
_x1604L0AP1_x0771L0AP1

>  <ROCS_TanimotoCombo>  (183) 
0.963 

>  <ROCS_ShapeTanimoto>  (183) 
0.466 

>  <ROCS_ColorTanimoto>  (183) 
0.496 

>  <ROCS_RefTversky>  (183) 
0.425 

>  <ROCS_RefColorTversky>  (183) 
0.515 

>  <ROCS_RefTverskyCombo>  (183) 
0.940 

>  <ROCS_FitTversky>  (183) 
1.263 

>  <ROCS_FitColorTversky>  (183) 
0.932 

>  <ROCS_FitTverskyCombo>  (183) 
2.194 

>  <ROCS_ColorScore>  (183) 
-4.877

>  <ROCS_Overlap>  (183) 
711.317

>  <ROCS_Rank>  (183) 
291                 

$$$$
untitled-dbase-1522_95
     RDKit          3D

 13 13  0  0  0  0  0  0  0  0999 V2000
   -4.5542   12.4425  -29.8351 C   0  0  0  0  0  0  0  0  0  0  0  0
   -5.0381   11.1087  -31.7905 C   0  0  0  0  0  0  0  0  0  0  0  0
   -4.3006   12.1152  -31.1671 C   0  0  0  0  0  0  0  0  0  0  0  0
   -5.5452   11.7632  -29.1265 C   0  0  0  0  0  0  0  0  0  0  0  0
   -6.2828   10.7567  -29.7500 C   0  0  0  0  0  0  0  0  0  0  0  0
   -6.0292   10.4294  -31.0820 C   0  0  0  0  0  0  0  0  0  0  0  0
   -3.0312   14.2702  -31.4712 C   0  0  0  0  0  0  0  0  0  0  0  0
   -5.0375   11.3923  -26.8330 C   0  0  0  0  0  0  0  0  0  0  0  0
   -3.2416   12.8423  -31.9246 C   0  0  0  0  0  0  0  0  0  0  0  0
   -3.6930   14.8295  -30.6032 O   0  0  0  0  0  0  0  0  0  0  0  0
   -7.2486   10.1044  -29.0405 O   0  0  0  0  0  0  0  0  0  0  0  0
   -5.7817   12.0946  -27.8264 O   0  0  0  0  0  0  0  0  0  0  0  0
   -7.0108    9.0677  -31.9631 Br  0  0  0  0  0  0  0  0  0  0  0  0
  1  3  2  0
  1  4  1  0
  2  3  1  0
  2  6  2  0
  3  9  1  0
  4  5  2  0
  4 12  1  0
  5  6  1  0
  5 11  1  0
  6 13  1  0
  7  9  1  0
  7 10  2  0
  8 12  1  0
M  END
>  <id>  (184) 
EN300-1914051

>  <smiles>  (184) 
COC=1C=C(CC=O)C=C(Br)C1O

>  <MDLNUMBER>  (184) 
MFCD20432288

>  <IUPAC Name>  (184) 
2-(3-bromo-4-hydroxy-5-methoxyphenyl)acetaldehyde

>  <CAS>  (184) 
1343859-47-1

>  <URL>  (184) 
https://www.enaminestore.com/catalog/EN300-1914051

>  <ROCS_ShapeQuery>  (184) 
_x1604L0AP1_x0771L0AP1

>  <ROCS_TanimotoCombo>  (184) 
0.963 

>  <ROCS_ShapeTanimoto>  (184) 
0.512 

>  <ROCS_ColorTanimoto>  (184) 
0.451 

>  <ROCS_RefTversky>  (184) 
0.461 

>  <ROCS_RefColorTversky>  (184) 
0.513 

>  <ROCS_RefTverskyCombo>  (184) 
0.974 

>  <ROCS_FitTversky>  (184) 
1.271 

>  <ROCS_FitColorTversky>  (184) 
0.789 

>  <ROCS_FitTverskyCombo>  (184) 
2.060 

>  <ROCS_ColorScore>  (184) 
-4.881

>  <ROCS_Overlap>  (184) 
773.076

>  <ROCS_Rank>  (184) 
295                 

$$$$
untitled-dbase-2282_14
     RDKit          3D

 13 13  0  0  0  0  0  0  0  0999 V2000
   -4.6147   12.4992  -29.8272 C   0  0  0  0  0  0  0  0  0  0  0  0
   -5.5869   11.7913  -29.1206 C   0  0  0  0  0  0  0  0  0  0  0  0
   -5.0710   11.1667  -31.7901 C   0  0  0  0  0  0  0  0  0  0  0  0
   -4.3568   12.1870  -31.1620 C   0  0  0  0  0  0  0  0  0  0  0  0
   -6.3011   10.7710  -29.7487 C   0  0  0  0  0  0  0  0  0  0  0  0
   -6.0431   10.4587  -31.0835 C   0  0  0  0  0  0  0  0  0  0  0  0
   -2.7095   12.2071  -32.8936 C   0  0  0  0  0  0  0  0  0  0  0  0
   -7.2442   10.0982  -29.0302 O   0  0  0  0  0  0  0  0  0  0  0  0
   -3.4081   12.8783  -31.8511 O   0  0  0  0  0  0  0  0  0  0  0  0
   -2.6097   10.8852  -32.6387 F   0  0  0  0  0  0  0  0  0  0  0  0
   -1.4572   12.7115  -32.9738 F   0  0  0  0  0  0  0  0  0  0  0  0
   -3.3126   12.4006  -34.0857 F   0  0  0  0  0  0  0  0  0  0  0  0
   -6.9940    9.0790  -31.9694 Br  0  0  0  0  0  0  0  0  0  0  0  0
  1  2  2  0
  1  4  1  0
  2  5  1  0
  3  4  2  0
  3  6  1  0
  4  9  1  0
  5  6  2  0
  5  8  1  0
  6 13  1  0
  7  9  1  0
  7 10  1  0
  7 11  1  0
  7 12  1  0
M  END
>  <id>  (185) 
EN300-125903

>  <smiles>  (185) 
OC=1C=CC(OC(F)(F)F)=CC1Br

>  <MDLNUMBER>  (185) 
MFCD07778431

>  <IUPAC Name>  (185) 
2-bromo-4-(trifluoromethoxy)phenol

>  <CAS>  (185) 
200956-13-4

>  <Purity>  (185) 
95

>  <URL>  (185) 
https://www.enaminestore.com/catalog/EN300-125903

>  <ROCS_ShapeQuery>  (185) 
_x1604L0AP1_x0771L0AP1

>  <ROCS_TanimotoCombo>  (185) 
0.962 

>  <ROCS_ShapeTanimoto>  (185) 
0.466 

>  <ROCS_ColorTanimoto>  (185) 
0.496 

>  <ROCS_RefTversky>  (185) 
0.437 

>  <ROCS_RefColorTversky>  (185) 
0.515 

>  <ROCS_RefTverskyCombo>  (185) 
0.952 

>  <ROCS_FitTversky>  (185) 
1.165 

>  <ROCS_FitColorTversky>  (185) 
0.931 

>  <ROCS_FitTverskyCombo>  (185) 
2.096 

>  <ROCS_ColorScore>  (185) 
-4.876

>  <ROCS_Overlap>  (185) 
732.906

>  <ROCS_Rank>  (185) 
298                 

$$$$
untitled-dbase-1550_77
     RDKit          3D

 15 15  0  0  1  0  0  0  0  0999 V2000
   -4.5923   12.4817  -29.8403 C   0  0  0  0  0  0  0  0  0  0  0  0
   -4.3241   12.1534  -31.1691 C   0  0  0  0  0  0  0  0  0  0  0  0
   -5.5748   11.7869  -29.1348 C   0  0  0  0  0  0  0  0  0  0  0  0
   -5.0384   11.1303  -31.7925 C   0  0  0  0  0  0  0  0  0  0  0  0
   -6.2891   10.7638  -29.7582 C   0  0  0  0  0  0  0  0  0  0  0  0
   -6.0209   10.4354  -31.0871 C   0  0  0  0  0  0  0  0  0  0  0  0
   -4.7133   10.8174  -33.2178 C   0  0  0  0  0  0  0  0  0  0  0  0
   -5.5566   11.6334  -34.2129 C   0  0  2  0  0  0  0  0  0  0  0  0
   -6.9254   11.0187  -34.4342 C   0  0  0  0  0  0  0  0  0  0  0  0
   -7.2422   10.1073  -29.0374 O   0  0  0  0  0  0  0  0  0  0  0  0
   -4.8740   11.6744  -35.4648 O   0  0  0  0  0  0  0  0  0  0  0  0
   -7.6233   11.7192  -35.3554 F   0  0  0  0  0  0  0  0  0  0  0  0
   -7.6485   11.0189  -33.2929 F   0  0  0  0  0  0  0  0  0  0  0  0
   -6.8345    9.7431  -34.8664 F   0  0  0  0  0  0  0  0  0  0  0  0
   -7.0016    9.0376  -31.9269 Br  0  0  0  0  0  0  0  0  0  0  0  0
  1  2  2  0
  1  3  1  0
  2  4  1  0
  3  5  2  0
  4  6  2  0
  4  7  1  0
  5  6  1  0
  5 10  1  0
  6 15  1  0
  7  8  1  0
  8  9  1  0
  8 11  1  6
  9 12  1  0
  9 13  1  0
  9 14  1  0
M  END
>  <id>  (186) 
EN300-1950767

>  <smiles>  (186) 
OC(CC=1C=CC=C(O)C1Br)C(F)(F)F

>  <IUPAC Name>  (186) 
2-bromo-3-(3,3,3-trifluoro-2-hydroxypropyl)phenol

>  <CAS>  (186) 
2228693-39-6

>  <URL>  (186) 
https://www.enaminestore.com/catalog/EN300-1950767

>  <ROCS_ShapeQuery>  (186) 
_x1604L0AP1_x0771L0AP1

>  <ROCS_TanimotoCombo>  (186) 
0.962 

>  <ROCS_ShapeTanimoto>  (186) 
0.511 

>  <ROCS_ColorTanimoto>  (186) 
0.451 

>  <ROCS_RefTversky>  (186) 
0.479 

>  <ROCS_RefColorTversky>  (186) 
0.513 

>  <ROCS_RefTverskyCombo>  (186) 
0.992 

>  <ROCS_FitTversky>  (186) 
1.148 

>  <ROCS_FitColorTversky>  (186) 
0.789 

>  <ROCS_FitTverskyCombo>  (186) 
1.938 

>  <ROCS_ColorScore>  (186) 
-4.883

>  <ROCS_Overlap>  (186) 
804.981

>  <ROCS_Rank>  (186) 
299                 

$$$$
untitled-dbase-1738_14
     RDKit          3D

 14 14  0  0  0  0  0  0  0  0999 V2000
   -4.3563   12.1569  -31.2219 C   0  0  0  0  0  0  0  0  0  0  0  0
   -4.6005   12.4892  -29.8894 C   0  0  0  0  0  0  0  0  0  0  0  0
   -5.0798   11.1301  -31.8285 C   0  0  0  0  0  0  0  0  0  0  0  0
   -5.5681   11.7947  -29.1634 C   0  0  0  0  0  0  0  0  0  0  0  0
   -6.2916   10.7678  -29.7700 C   0  0  0  0  0  0  0  0  0  0  0  0
   -6.0474   10.4355  -31.1025 C   0  0  0  0  0  0  0  0  0  0  0  0
   -5.9830   10.9485  -34.1810 C   0  0  0  0  0  0  0  0  0  0  0  0
   -6.0361   10.0045  -35.3545 C   0  0  0  0  0  0  0  0  0  0  0  0
   -5.0112   13.1924  -27.3217 C   0  0  0  0  0  0  0  0  0  0  0  0
   -4.7808   10.8142  -33.2588 C   0  0  0  0  0  0  0  0  0  0  0  0
   -6.8743   11.7763  -33.9961 O   0  0  0  0  0  0  0  0  0  0  0  0
   -7.2331   10.1033  -29.0390 O   0  0  0  0  0  0  0  0  0  0  0  0
   -5.7951   12.1310  -27.8628 O   0  0  0  0  0  0  0  0  0  0  0  0
   -7.0456    9.0391  -31.9251 Br  0  0  0  0  0  0  0  0  0  0  0  0
  1  2  2  0
  1  3  1  0
  2  4  1  0
  3  6  2  0
  3 10  1  0
  4  5  2  0
  4 13  1  0
  5  6  1  0
  5 12  1  0
  6 14  1  0
  7  8  1  0
  7 10  1  0
  7 11  2  0
  9 13  1  0
M  END
>  <id>  (187) 
EN300-1893165

>  <smiles>  (187) 
COC=1C=CC(CC(=O)C)=C(Br)C1O

>  <MDLNUMBER>  (187) 
MFCD07783673

>  <IUPAC Name>  (187) 
1-(2-bromo-3-hydroxy-4-methoxyphenyl)propan-2-one

>  <CAS>  (187) 
1379312-63-6

>  <URL>  (187) 
https://www.enaminestore.com/catalog/EN300-1893165

>  <ROCS_ShapeQuery>  (187) 
_x1604L0AP1_x0771L0AP1

>  <ROCS_TanimotoCombo>  (187) 
0.962 

>  <ROCS_ShapeTanimoto>  (187) 
0.510 

>  <ROCS_ColorTanimoto>  (187) 
0.451 

>  <ROCS_RefTversky>  (187) 
0.469 

>  <ROCS_RefColorTversky>  (187) 
0.513 

>  <ROCS_RefTverskyCombo>  (187) 
0.982 

>  <ROCS_FitTversky>  (187) 
1.210 

>  <ROCS_FitColorTversky>  (187) 
0.789 

>  <ROCS_FitTverskyCombo>  (187) 
1.999 

>  <ROCS_ColorScore>  (187) 
-4.883

>  <ROCS_Overlap>  (187) 
786.526

>  <ROCS_Rank>  (187) 
302                 

$$$$
untitled-dbase-2146_240
     RDKit          3D

 14 14  0  0  1  0  0  0  0  0999 V2000
   -4.5843   12.4748  -29.8345 C   0  0  0  0  0  0  0  0  0  0  0  0
   -4.3187   12.1525  -31.1653 C   0  0  0  0  0  0  0  0  0  0  0  0
   -5.5677   11.7790  -29.1311 C   0  0  0  0  0  0  0  0  0  0  0  0
   -5.0365   11.1343  -31.7929 C   0  0  0  0  0  0  0  0  0  0  0  0
   -6.2854   10.7609  -29.7588 C   0  0  0  0  0  0  0  0  0  0  0  0
   -6.0199   10.4385  -31.0896 C   0  0  0  0  0  0  0  0  0  0  0  0
   -4.7109   10.8248  -33.2342 C   0  0  0  0  0  0  0  0  0  0  0  0
   -5.5363   11.6316  -34.2553 C   0  0  1  0  0  0  0  0  0  0  0  0
   -7.0424   11.4238  -34.1146 C   0  0  0  0  0  0  0  0  0  0  0  0
   -5.2447   13.0554  -34.0672 N   0  0  0  0  0  0  0  0  0  0  0  0
   -7.2393   10.1033  -29.0399 O   0  0  0  0  0  0  0  0  0  0  0  0
   -7.4567   11.7681  -32.8700 F   0  0  0  0  0  0  0  0  0  0  0  0
   -7.3550   10.1151  -34.2843 F   0  0  0  0  0  0  0  0  0  0  0  0
   -7.0053    9.0474  -31.9351 Br  0  0  0  0  0  0  0  0  0  0  0  0
  1  2  2  0
  1  3  1  0
  2  4  1  0
  3  5  2  0
  4  6  2  0
  4  7  1  0
  5  6  1  0
  5 11  1  0
  6 14  1  0
  7  8  1  0
  8  9  1  0
  8 10  1  1
  9 12  1  0
  9 13  1  0
M  END
>  <id>  (188) 
EN300-1950769

>  <smiles>  (188) 
NC(CC=1C=CC=C(O)C1Br)C(F)F

>  <IUPAC Name>  (188) 
3-(2-amino-3,3-difluoropropyl)-2-bromophenol

>  <CAS>  (188) 
2229081-55-2

>  <URL>  (188) 
https://www.enaminestore.com/catalog/EN300-1950769

>  <ROCS_ShapeQuery>  (188) 
_x1604L0AP1_x0771L0AP1

>  <ROCS_TanimotoCombo>  (188) 
0.961 

>  <ROCS_ShapeTanimoto>  (188) 
0.510 

>  <ROCS_ColorTanimoto>  (188) 
0.451 

>  <ROCS_RefTversky>  (188) 
0.468 

>  <ROCS_RefColorTversky>  (188) 
0.513 

>  <ROCS_RefTverskyCombo>  (188) 
0.981 

>  <ROCS_FitTversky>  (188) 
1.214 

>  <ROCS_FitColorTversky>  (188) 
0.790 

>  <ROCS_FitTverskyCombo>  (188) 
2.003 

>  <ROCS_ColorScore>  (188) 
-4.884

>  <ROCS_Overlap>  (188) 
784.516

>  <ROCS_Rank>  (188) 
303                 

$$$$
untitled-dbase-458_147
     RDKit          3D

 15 15  0  0  1  0  0  0  0  0999 V2000
   -4.3482   12.1692  -31.1938 C   0  0  0  0  0  0  0  0  0  0  0  0
   -4.6051   12.4974  -29.8627 C   0  0  0  0  0  0  0  0  0  0  0  0
   -5.0633   11.1418  -31.8094 C   0  0  0  0  0  0  0  0  0  0  0  0
   -5.5770   11.7982  -29.1470 C   0  0  0  0  0  0  0  0  0  0  0  0
   -6.2921   10.7708  -29.7626 C   0  0  0  0  0  0  0  0  0  0  0  0
   -6.0353   10.4427  -31.0937 C   0  0  0  0  0  0  0  0  0  0  0  0
   -3.2665   11.0762  -33.5695 C   0  0  0  0  0  0  0  0  0  0  0  0
   -5.0404   13.1927  -27.2969 C   0  0  0  0  0  0  0  0  0  0  0  0
   -5.6412   11.6094  -34.2308 C   0  0  0  0  0  0  0  0  0  0  0  0
   -4.7508   10.8305  -33.2378 C   0  0  2  0  0  0  0  0  0  0  0  0
   -6.7047    9.8302  -35.2700 N   0  0  0  0  0  0  0  0  0  0  0  0
   -7.2382   10.1017  -29.0416 O   0  0  0  0  0  0  0  0  0  0  0  0
   -5.8165   12.1305  -27.8476 O   0  0  0  0  0  0  0  0  0  0  0  0
   -6.8939   10.9456  -34.3568 O   0  0  0  0  0  0  0  0  0  0  0  0
   -7.0221    9.0455  -31.9286 Br  0  0  0  0  0  0  0  0  0  0  0  0
  1  2  2  0
  1  3  1  0
  2  4  1  0
  3  6  2  0
  3 10  1  0
  4  5  2  0
  4 13  1  0
  5  6  1  0
  5 12  1  0
  6 15  1  0
 10  7  1  6
  8 13  1  0
  9 10  1  0
  9 14  1  0
 11 14  1  0
M  END
>  <id>  (189) 
EN300-1935611

>  <smiles>  (189) 
COC=1C=CC(C(C)CON)=C(Br)C1O

>  <IUPAC Name>  (189) 
3-[1-(aminooxy)propan-2-yl]-2-bromo-6-methoxyphenol

>  <CAS>  (189) 
2228167-06-2

>  <URL>  (189) 
https://www.enaminestore.com/catalog/EN300-1935611

>  <ROCS_ShapeQuery>  (189) 
_x1604L0AP1_x0771L0AP1

>  <ROCS_TanimotoCombo>  (189) 
0.960 

>  <ROCS_ShapeTanimoto>  (189) 
0.509 

>  <ROCS_ColorTanimoto>  (189) 
0.452 

>  <ROCS_RefTversky>  (189) 
0.475 

>  <ROCS_RefColorTversky>  (189) 
0.513 

>  <ROCS_RefTverskyCombo>  (189) 
0.988 

>  <ROCS_FitTversky>  (189) 
1.166 

>  <ROCS_FitColorTversky>  (189) 
0.790 

>  <ROCS_FitTverskyCombo>  (189) 
1.956 

>  <ROCS_ColorScore>  (189) 
-4.885

>  <ROCS_Overlap>  (189) 
797.024

>  <ROCS_Rank>  (189) 
304                 

$$$$
untitled-dbase-1448_38
     RDKit          3D

 12 12  0  0  0  0  0  0  0  0999 V2000
   -4.6038   12.4915  -29.8455 C   0  0  0  0  0  0  0  0  0  0  0  0
   -4.3479   12.1756  -31.1798 C   0  0  0  0  0  0  0  0  0  0  0  0
   -5.5767   11.7871  -29.1362 C   0  0  0  0  0  0  0  0  0  0  0  0
   -5.0648   11.1553  -31.8048 C   0  0  0  0  0  0  0  0  0  0  0  0
   -6.2936   10.7668  -29.7613 C   0  0  0  0  0  0  0  0  0  0  0  0
   -6.0377   10.4509  -31.0956 C   0  0  0  0  0  0  0  0  0  0  0  0
   -4.7559   10.8696  -33.2010 C   0  0  0  0  0  0  0  0  0  0  0  0
   -5.8560   11.0080  -34.2565 C   0  0  0  0  0  0  0  0  0  0  0  0
   -3.6073   10.5171  -33.5309 O   0  0  0  0  0  0  0  0  0  0  0  0
   -7.2368   10.1007  -29.0362 O   0  0  0  0  0  0  0  0  0  0  0  0
   -7.0217   12.2746  -33.8208 Cl  0  0  0  0  0  0  0  0  0  0  0  0
   -7.0253    9.0552  -31.9335 Br  0  0  0  0  0  0  0  0  0  0  0  0
  1  2  2  0
  1  3  1  0
  2  4  1  0
  3  5  2  0
  4  6  2  0
  4  7  1  0
  5  6  1  0
  5 10  1  0
  6 12  1  0
  7  8  1  0
  7  9  2  0
  8 11  1  0
M  END
>  <id>  (190) 
EN300-1914530

>  <smiles>  (190) 
OC=1C=CC=C(C(=O)CCl)C1Br

>  <MDLNUMBER>  (190) 
MFCD28741202

>  <IUPAC Name>  (190) 
1-(2-bromo-3-hydroxyphenyl)-2-chloroethan-1-one

>  <CAS>  (190) 
1804506-82-8

>  <URL>  (190) 
https://www.enaminestore.com/catalog/EN300-1914530

>  <ROCS_ShapeQuery>  (190) 
_x1604L0AP1_x0771L0AP1

>  <ROCS_TanimotoCombo>  (190) 
0.960 

>  <ROCS_ShapeTanimoto>  (190) 
0.463 

>  <ROCS_ColorTanimoto>  (190) 
0.497 

>  <ROCS_RefTversky>  (190) 
0.422 

>  <ROCS_RefColorTversky>  (190) 
0.516 

>  <ROCS_RefTverskyCombo>  (190) 
0.938 

>  <ROCS_FitTversky>  (190) 
1.264 

>  <ROCS_FitColorTversky>  (190) 
0.933 

>  <ROCS_FitTverskyCombo>  (190) 
2.197 

>  <ROCS_ColorScore>  (190) 
-4.883

>  <ROCS_Overlap>  (190) 
706.367

>  <ROCS_Rank>  (190) 
305                 

$$$$
untitled-dbase-395_91
     RDKit          3D

 12 12  0  0  0  0  0  0  0  0999 V2000
   -4.6072   12.4921  -29.8325 C   0  0  0  0  0  0  0  0  0  0  0  0
   -5.5813   11.7882  -29.1245 C   0  0  0  0  0  0  0  0  0  0  0  0
   -5.0687   11.1583  -31.7934 C   0  0  0  0  0  0  0  0  0  0  0  0
   -4.3509   12.1772  -31.1670 C   0  0  0  0  0  0  0  0  0  0  0  0
   -6.2991   10.7694  -29.7509 C   0  0  0  0  0  0  0  0  0  0  0  0
   -6.0428   10.4545  -31.0854 C   0  0  0  0  0  0  0  0  0  0  0  0
   -2.6425   12.0964  -33.0055 C   0  0  0  0  0  0  0  0  0  0  0  0
   -3.3091   12.9302  -31.9228 C   0  0  0  0  0  0  0  0  0  0  0  0
   -2.4967   10.7660  -32.7136 N   0  0  0  0  0  0  0  0  0  0  0  0
   -7.2432   10.0996  -29.0309 O   0  0  0  0  0  0  0  0  0  0  0  0
   -2.1008   12.7510  -34.4460 S   0  0  0  0  0  0  0  0  0  0  0  0
   -6.9977    9.0753  -31.9679 Br  0  0  0  0  0  0  0  0  0  0  0  0
  1  2  2  0
  1  4  1  0
  2  5  1  0
  3  4  2  0
  3  6  1  0
  4  8  1  0
  5  6  2  0
  5 10  1  0
  6 12  1  0
  7  8  1  0
  7  9  1  0
  7 11  2  0
M  END
>  <id>  (191) 
EN300-1904770

>  <smiles>  (191) 
NC(=S)CC=1C=CC(O)=C(Br)C1

>  <IUPAC Name>  (191) 
2-(3-bromo-4-hydroxyphenyl)ethanethioamide

>  <CAS>  (191) 
2229361-28-6

>  <URL>  (191) 
https://www.enaminestore.com/catalog/EN300-1904770

>  <ROCS_ShapeQuery>  (191) 
_x1604L0AP1_x0771L0AP1

>  <ROCS_TanimotoCombo>  (191) 
0.960 

>  <ROCS_ShapeTanimoto>  (191) 
0.463 

>  <ROCS_ColorTanimoto>  (191) 
0.497 

>  <ROCS_RefTversky>  (191) 
0.421 

>  <ROCS_RefColorTversky>  (191) 
0.515 

>  <ROCS_RefTverskyCombo>  (191) 
0.936 

>  <ROCS_FitTversky>  (191) 
1.275 

>  <ROCS_FitColorTversky>  (191) 
0.932 

>  <ROCS_FitTverskyCombo>  (191) 
2.206 

>  <ROCS_ColorScore>  (191) 
-4.877

>  <ROCS_Overlap>  (191) 
704.583

>  <ROCS_Rank>  (191) 
306                 

$$$$
untitled-dbase-233_16
     RDKit          3D

 12 12  0  0  0  0  0  0  0  0999 V2000
   -4.6095   12.4940  -29.8317 C   0  0  0  0  0  0  0  0  0  0  0  0
   -5.5828   11.7889  -29.1239 C   0  0  0  0  0  0  0  0  0  0  0  0
   -5.0701   11.1608  -31.7932 C   0  0  0  0  0  0  0  0  0  0  0  0
   -4.3531   12.1800  -31.1664 C   0  0  0  0  0  0  0  0  0  0  0  0
   -6.2998   10.7698  -29.7507 C   0  0  0  0  0  0  0  0  0  0  0  0
   -6.0434   10.4557  -31.0854 C   0  0  0  0  0  0  0  0  0  0  0  0
   -2.6297   12.1203  -33.0129 C   0  0  0  0  0  0  0  0  0  0  0  0
   -2.7021   12.6754  -34.4121 C   0  0  0  0  0  0  0  0  0  0  0  0
   -3.3121   12.9344  -31.9221 C   0  0  0  0  0  0  0  0  0  0  0  0
   -2.0450   11.0624  -32.7831 O   0  0  0  0  0  0  0  0  0  0  0  0
   -7.2431   10.0987  -29.0309 O   0  0  0  0  0  0  0  0  0  0  0  0
   -6.9972    9.0761  -31.9684 Br  0  0  0  0  0  0  0  0  0  0  0  0
  1  2  2  0
  1  4  1  0
  2  5  1  0
  3  4  2  0
  3  6  1  0
  4  9  1  0
  5  6  2  0
  5 11  1  0
  6 12  1  0
  7  8  1  0
  7  9  1  0
  7 10  2  0
M  END
>  <id>  (192) 
EN300-1581816

>  <smiles>  (192) 
CC(=O)CC=1C=CC(O)=C(Br)C1

>  <MDLNUMBER>  (192) 
MFCD04117998

>  <IUPAC Name>  (192) 
1-(3-bromo-4-hydroxyphenyl)propan-2-one

>  <CAS>  (192) 
655237-87-9

>  <Purity>  (192) 
95

>  <URL>  (192) 
https://www.enaminestore.com/catalog/EN300-1581816

>  <ROCS_ShapeQuery>  (192) 
_x1604L0AP1_x0771L0AP1

>  <ROCS_TanimotoCombo>  (192) 
0.959 

>  <ROCS_ShapeTanimoto>  (192) 
0.463 

>  <ROCS_ColorTanimoto>  (192) 
0.496 

>  <ROCS_RefTversky>  (192) 
0.423 

>  <ROCS_RefColorTversky>  (192) 
0.515 

>  <ROCS_RefTverskyCombo>  (192) 
0.938 

>  <ROCS_FitTversky>  (192) 
1.258 

>  <ROCS_FitColorTversky>  (192) 
0.932 

>  <ROCS_FitTverskyCombo>  (192) 
2.189 

>  <ROCS_ColorScore>  (192) 
-4.877

>  <ROCS_Overlap>  (192) 
707.056

>  <ROCS_Rank>  (192) 
308                 

$$$$
untitled-dbase-588_844
     RDKit          3D

 14 14  0  0  0  0  0  0  0  0999 V2000
   -4.5597   12.4476  -29.8420 C   0  0  0  0  0  0  0  0  0  0  0  0
   -5.0445   11.1116  -31.7957 C   0  0  0  0  0  0  0  0  0  0  0  0
   -4.3082   12.1203  -31.1744 C   0  0  0  0  0  0  0  0  0  0  0  0
   -5.5474   11.7661  -29.1309 C   0  0  0  0  0  0  0  0  0  0  0  0
   -6.2836   10.7573  -29.7522 C   0  0  0  0  0  0  0  0  0  0  0  0
   -6.0322   10.4301  -31.0846 C   0  0  0  0  0  0  0  0  0  0  0  0
   -3.0452   14.2785  -31.4824 C   0  0  0  0  0  0  0  0  0  0  0  0
   -6.9989   13.9516  -26.9288 C   0  0  0  0  0  0  0  0  0  0  0  0
   -3.2528   12.8498  -31.9346 C   0  0  0  0  0  0  0  0  0  0  0  0
   -7.0927   12.5546  -27.5043 C   0  0  0  0  0  0  0  0  0  0  0  0
   -3.2780   14.6914  -30.3512 O   0  0  0  0  0  0  0  0  0  0  0  0
   -7.2462   10.1029  -29.0403 O   0  0  0  0  0  0  0  0  0  0  0  0
   -5.7818   12.0975  -27.8304 O   0  0  0  0  0  0  0  0  0  0  0  0
   -7.0121    9.0653  -31.9628 Br  0  0  0  0  0  0  0  0  0  0  0  0
  1  3  2  0
  1  4  1  0
  2  3  1  0
  2  6  2  0
  3  9  1  0
  4  5  2  0
  4 13  1  0
  5  6  1  0
  5 12  1  0
  6 14  1  0
  7  9  1  0
  7 11  2  0
  8 10  1  0
 10 13  1  0
M  END
>  <id>  (193) 
EN300-1920250

>  <smiles>  (193) 
CCOC=1C=C(CC=O)C=C(Br)C1O

>  <IUPAC Name>  (193) 
2-(3-bromo-5-ethoxy-4-hydroxyphenyl)acetaldehyde

>  <CAS>  (193) 
2229233-69-4

>  <URL>  (193) 
https://www.enaminestore.com/catalog/EN300-1920250

>  <ROCS_ShapeQuery>  (193) 
_x1604L0AP1_x0771L0AP1

>  <ROCS_TanimotoCombo>  (193) 
0.958 

>  <ROCS_ShapeTanimoto>  (193) 
0.507 

>  <ROCS_ColorTanimoto>  (193) 
0.451 

>  <ROCS_RefTversky>  (193) 
0.466 

>  <ROCS_RefColorTversky>  (193) 
0.513 

>  <ROCS_RefTverskyCombo>  (193) 
0.979 

>  <ROCS_FitTversky>  (193) 
1.211 

>  <ROCS_FitColorTversky>  (193) 
0.789 

>  <ROCS_FitTverskyCombo>  (193) 
2.000 

>  <ROCS_ColorScore>  (193) 
-4.881

>  <ROCS_Overlap>  (193) 
781.804

>  <ROCS_Rank>  (193) 
310                 

$$$$
untitled-dbase-2073_11
     RDKit          3D

 13 13  0  0  0  0  0  0  0  0999 V2000
   -5.0733   11.1426  -31.8084 C   0  0  0  0  0  0  0  0  0  0  0  0
   -5.5738   11.7880  -29.1408 C   0  0  0  0  0  0  0  0  0  0  0  0
   -4.3511   12.1635  -31.1905 C   0  0  0  0  0  0  0  0  0  0  0  0
   -6.2961   10.7671  -29.7588 C   0  0  0  0  0  0  0  0  0  0  0  0
   -4.6013   12.4862  -29.8567 C   0  0  0  0  0  0  0  0  0  0  0  0
   -6.0458   10.4444  -31.0925 C   0  0  0  0  0  0  0  0  0  0  0  0
   -3.3440   12.8652  -31.9774 C   0  0  0  0  0  0  0  0  0  0  0  0
   -1.6580   11.2970  -33.0745 C   0  0  0  0  0  0  0  0  0  0  0  0
   -1.9097   12.3224  -31.9801 C   0  0  0  0  0  0  0  0  0  0  0  0
   -3.5985   13.8812  -32.6425 O   0  0  0  0  0  0  0  0  0  0  0  0
   -7.2394   10.1031  -29.0323 O   0  0  0  0  0  0  0  0  0  0  0  0
   -3.7299   13.7428  -29.0549 Cl  0  0  0  0  0  0  0  0  0  0  0  0
   -7.0084    9.0625  -31.9632 Br  0  0  0  0  0  0  0  0  0  0  0  0
  1  3  2  0
  1  6  1  0
  2  4  1  0
  2  5  2  0
  3  5  1  0
  3  7  1  0
  4  6  2  0
  4 11  1  0
  5 12  1  0
  6 13  1  0
  7  9  1  0
  7 10  2  0
  8  9  1  0
M  END
>  <id>  (194) 
EN300-1276919

>  <smiles>  (194) 
CCC(=O)C=1C=C(Br)C(O)=CC1Cl

>  <MDLNUMBER>  (194) 
MFCD30661256

>  <IUPAC Name>  (194) 
1-(5-bromo-2-chloro-4-hydroxyphenyl)propan-1-one

>  <CAS>  (194) 
2172026-81-0

>  <URL>  (194) 
https://www.enaminestore.com/catalog/EN300-1276919

>  <ROCS_ShapeQuery>  (194) 
_x1604L0AP1_x0771L0AP1

>  <ROCS_TanimotoCombo>  (194) 
0.958 

>  <ROCS_ShapeTanimoto>  (194) 
0.507 

>  <ROCS_ColorTanimoto>  (194) 
0.451 

>  <ROCS_RefTversky>  (194) 
0.457 

>  <ROCS_RefColorTversky>  (194) 
0.513 

>  <ROCS_RefTverskyCombo>  (194) 
0.969 

>  <ROCS_FitTversky>  (194) 
1.278 

>  <ROCS_FitColorTversky>  (194) 
0.789 

>  <ROCS_FitTverskyCombo>  (194) 
2.067 

>  <ROCS_ColorScore>  (194) 
-4.879

>  <ROCS_Overlap>  (194) 
764.899

>  <ROCS_Rank>  (194) 
314                 

$$$$
untitled-dbase-478_92
     RDKit          3D

 11 11  0  0  0  0  0  0  0  0999 V2000
   -4.5862   12.4658  -29.8340 C   0  0  0  0  0  0  0  0  0  0  0  0
   -5.5682   11.7727  -29.1263 C   0  0  0  0  0  0  0  0  0  0  0  0
   -5.0575   11.1332  -31.7933 C   0  0  0  0  0  0  0  0  0  0  0  0
   -4.3308   12.1461  -31.1675 C   0  0  0  0  0  0  0  0  0  0  0  0
   -6.2949   10.7598  -29.7521 C   0  0  0  0  0  0  0  0  0  0  0  0
   -6.0395   10.4400  -31.0857 C   0  0  0  0  0  0  0  0  0  0  0  0
   -3.2805   12.8876  -31.9230 C   0  0  0  0  0  0  0  0  0  0  0  0
   -3.0642   14.8769  -30.7138 N   0  0  0  0  0  0  0  0  0  0  0  0
   -2.4149   13.6466  -31.0563 N   0  0  0  0  0  0  0  0  0  0  0  0
   -7.2466   10.1005  -29.0325 O   0  0  0  0  0  0  0  0  0  0  0  0
   -7.0063    9.0687  -31.9673 Br  0  0  0  0  0  0  0  0  0  0  0  0
  1  2  2  0
  1  4  1  0
  2  5  1  0
  3  4  2  0
  3  6  1  0
  4  7  1  0
  5  6  2  0
  5 10  1  0
  6 11  1  0
  7  9  1  0
  8  9  1  0
M  END
>  <id>  (195) 
EN300-1910076

>  <smiles>  (195) 
NNCC=1C=CC(O)=C(Br)C1

>  <MDLNUMBER>  (195) 
MFCD07786471

>  <IUPAC Name>  (195) 
2-bromo-4-(hydrazinylmethyl)phenol

>  <CAS>  (195) 
805181-43-5

>  <URL>  (195) 
https://www.enaminestore.com/catalog/EN300-1910076

>  <ROCS_ShapeQuery>  (195) 
_x1604L0AP1_x0771L0AP1

>  <ROCS_TanimotoCombo>  (195) 
0.958 

>  <ROCS_ShapeTanimoto>  (195) 
0.517 

>  <ROCS_ColorTanimoto>  (195) 
0.440 

>  <ROCS_RefTversky>  (195) 
0.447 

>  <ROCS_RefColorTversky>  (195) 
0.512 

>  <ROCS_RefTverskyCombo>  (195) 
0.959 

>  <ROCS_FitTversky>  (195) 
1.438 

>  <ROCS_FitColorTversky>  (195) 
0.759 

>  <ROCS_FitTverskyCombo>  (195) 
2.197 

>  <ROCS_ColorScore>  (195) 
-4.878

>  <ROCS_Overlap>  (195) 
746.831

>  <ROCS_Rank>  (195) 
315                 

$$$$
untitled-dbase-289_17
     RDKit          3D

 12 12  0  0  0  0  0  0  0  0999 V2000
   -6.4956   12.3845  -34.1887 C   0  0  0  0  0  0  0  0  0  0  0  0
   -4.6125   12.4916  -29.8478 C   0  0  0  0  0  0  0  0  0  0  0  0
   -4.3587   12.1777  -31.1829 C   0  0  0  0  0  0  0  0  0  0  0  0
   -5.5821   11.7841  -29.1371 C   0  0  0  0  0  0  0  0  0  0  0  0
   -5.0747   11.1564  -31.8075 C   0  0  0  0  0  0  0  0  0  0  0  0
   -6.2980   10.7628  -29.7616 C   0  0  0  0  0  0  0  0  0  0  0  0
   -6.0443   10.4489  -31.0968 C   0  0  0  0  0  0  0  0  0  0  0  0
   -5.9688   11.0118  -34.1798 C   0  0  0  0  0  0  0  0  0  0  0  0
   -4.7653   10.8592  -33.2396 C   0  0  0  0  0  0  0  0  0  0  0  0
   -6.9109   13.4679  -34.1978 N   0  0  0  0  0  0  0  0  0  0  0  0
   -7.2384   10.0938  -29.0356 O   0  0  0  0  0  0  0  0  0  0  0  0
   -7.0271    9.0534  -31.9381 Br  0  0  0  0  0  0  0  0  0  0  0  0
  1  8  1  0
  1 10  3  0
  2  3  2  0
  2  4  1  0
  3  5  1  0
  4  6  2  0
  5  7  2  0
  5  9  1  0
  6  7  1  0
  6 11  1  0
  7 12  1  0
  8  9  1  0
M  END
>  <id>  (196) 
EN300-1897836

>  <smiles>  (196) 
OC=1C=CC=C(CCC#N)C1Br

>  <MDLNUMBER>  (196) 
MFCD28816990

>  <IUPAC Name>  (196) 
3-(2-bromo-3-hydroxyphenyl)propanenitrile

>  <CAS>  (196) 
1806443-04-8

>  <URL>  (196) 
https://www.enaminestore.com/catalog/EN300-1897836

>  <ROCS_ShapeQuery>  (196) 
_x1604L0AP1_x0771L0AP1

>  <ROCS_TanimotoCombo>  (196) 
0.957 

>  <ROCS_ShapeTanimoto>  (196) 
0.460 

>  <ROCS_ColorTanimoto>  (196) 
0.497 

>  <ROCS_RefTversky>  (196) 
0.420 

>  <ROCS_RefColorTversky>  (196) 
0.516 

>  <ROCS_RefTverskyCombo>  (196) 
0.936 

>  <ROCS_FitTversky>  (196) 
1.259 

>  <ROCS_FitColorTversky>  (196) 
0.933 

>  <ROCS_FitTverskyCombo>  (196) 
2.192 

>  <ROCS_ColorScore>  (196) 
-4.882

>  <ROCS_Overlap>  (196) 
703.244

>  <ROCS_Rank>  (196) 
317                 

$$$$
untitled-dbase-1614_8
     RDKit          3D

 12 12  0  0  1  0  0  0  0  0999 V2000
   -4.3377   12.1461  -31.2080 C   0  0  0  0  0  0  0  0  0  0  0  0
   -4.5828   12.4796  -29.8761 C   0  0  0  0  0  0  0  0  0  0  0  0
   -5.0672   11.1250  -31.8170 C   0  0  0  0  0  0  0  0  0  0  0  0
   -5.5575   11.7920  -29.1529 C   0  0  0  0  0  0  0  0  0  0  0  0
   -6.2870   10.7709  -29.7618 C   0  0  0  0  0  0  0  0  0  0  0  0
   -6.0419   10.4373  -31.0939 C   0  0  0  0  0  0  0  0  0  0  0  0
   -4.9718   11.3405  -26.7442 C   0  0  0  0  0  0  0  0  0  0  0  0
   -5.8030   12.1645  -27.7277 C   0  0  2  0  0  0  0  0  0  0  0  0
   -7.9095   13.1095  -27.9427 N   0  0  0  0  0  0  0  0  0  0  0  0
   -7.2361   10.1062  -29.0407 O   0  0  0  0  0  0  0  0  0  0  0  0
   -7.1874   11.9618  -27.4250 O   0  0  0  0  0  0  0  0  0  0  0  0
   -7.0125    9.0568  -31.9575 Br  0  0  0  0  0  0  0  0  0  0  0  0
  1  2  2  0
  1  3  1  0
  2  4  1  0
  3  6  2  0
  4  5  2  0
  4  8  1  0
  5  6  1  0
  5 10  1  0
  6 12  1  0
  8  7  1  1
  8 11  1  0
  9 11  1  0
M  END
>  <id>  (197) 
EN300-1923136

>  <smiles>  (197) 
CC(ON)C=1C=CC=C(Br)C1O

>  <IUPAC Name>  (197) 
2-[1-(aminooxy)ethyl]-6-bromophenol

>  <CAS>  (197) 
2228580-01-4

>  <URL>  (197) 
https://www.enaminestore.com/catalog/EN300-1923136

>  <ROCS_ShapeQuery>  (197) 
_x1604L0AP1_x0771L0AP1

>  <ROCS_TanimotoCombo>  (197) 
0.957 

>  <ROCS_ShapeTanimoto>  (197) 
0.404 

>  <ROCS_ColorTanimoto>  (197) 
0.553 

>  <ROCS_RefTversky>  (197) 
0.385 

>  <ROCS_RefColorTversky>  (197) 
0.518 

>  <ROCS_RefTverskyCombo>  (197) 
0.903 

>  <ROCS_FitTversky>  (197) 
1.141 

>  <ROCS_FitColorTversky>  (197) 
1.139 

>  <ROCS_FitTverskyCombo>  (197) 
2.280 

>  <ROCS_ColorScore>  (197) 
-4.880

>  <ROCS_Overlap>  (197) 
643.609

>  <ROCS_Rank>  (197) 
318                 

$$$$
untitled-dbase-761_55
     RDKit          3D

 15 17  0  0  0  0  0  0  0  0999 V2000
   -4.6127   12.4955  -29.8583 C   0  0  0  0  0  0  0  0  0  0  0  0
   -4.3598   12.1754  -31.1922 C   0  0  0  0  0  0  0  0  0  0  0  0
   -5.5807   11.7903  -29.1433 C   0  0  0  0  0  0  0  0  0  0  0  0
   -5.0751   11.1502  -31.8111 C   0  0  0  0  0  0  0  0  0  0  0  0
   -6.2960   10.7651  -29.7622 C   0  0  0  0  0  0  0  0  0  0  0  0
   -6.0432   10.4450  -31.0961 C   0  0  0  0  0  0  0  0  0  0  0  0
   -3.6877    9.8132  -33.5027 C   0  0  0  0  0  0  0  0  0  0  0  0
   -3.4000   11.2611  -33.7495 C   0  0  0  0  0  0  0  0  0  0  0  0
   -6.4370    9.7121  -34.9533 C   0  0  0  0  0  0  0  0  0  0  0  0
   -5.8106   10.8696  -35.6748 C   0  0  0  0  0  0  0  0  0  0  0  0
   -4.7701   10.8459  -33.2444 C   0  0  0  0  0  0  0  0  0  0  0  0
   -5.9978   10.9326  -34.1752 C   0  0  0  0  0  0  0  0  0  0  0  0
   -7.0693   11.8288  -33.6635 N   0  0  0  0  0  0  0  0  0  0  0  0
   -7.2360   10.1003  -29.0318 O   0  0  0  0  0  0  0  0  0  0  0  0
   -7.0314    9.0474  -31.9293 Br  0  0  0  0  0  0  0  0  0  0  0  0
  1  2  2  0
  1  3  1  0
  2  4  1  0
  3  5  2  0
  4  6  2  0
  4 11  1  0
  5  6  1  0
  5 14  1  0
  6 15  1  0
  7  8  1  0
  7 11  1  0
  8 11  1  0
  9 10  1  0
  9 12  1  0
 10 12  1  0
 11 12  1  0
 12 13  1  0
M  END
>  <id>  (198) 
EN300-1904815

>  <smiles>  (198) 
NC1(CC1)C2(CC2)C=3C=CC=C(O)C3Br

>  <IUPAC Name>  (198) 
3-[1-(1-aminocyclopropyl)cyclopropyl]-2-bromophenol

>  <CAS>  (198) 
2229596-95-4

>  <URL>  (198) 
https://www.enaminestore.com/catalog/EN300-1904815

>  <ROCS_ShapeQuery>  (198) 
_x1604L0AP1_x0771L0AP1

>  <ROCS_TanimotoCombo>  (198) 
0.957 

>  <ROCS_ShapeTanimoto>  (198) 
0.506 

>  <ROCS_ColorTanimoto>  (198) 
0.451 

>  <ROCS_RefTversky>  (198) 
0.476 

>  <ROCS_RefColorTversky>  (198) 
0.513 

>  <ROCS_RefTverskyCombo>  (198) 
0.990 

>  <ROCS_FitTversky>  (198) 
1.138 

>  <ROCS_FitColorTversky>  (198) 
0.789 

>  <ROCS_FitTverskyCombo>  (198) 
1.927 

>  <ROCS_ColorScore>  (198) 
-4.882

>  <ROCS_Overlap>  (198) 
800.810

>  <ROCS_Rank>  (198) 
322                 

$$$$
untitled-dbase-279_2
     RDKit          3D

 11 11  0  0  0  0  0  0  0  0999 V2000
   -4.5795   12.4716  -29.8687 C   0  0  0  0  0  0  0  0  0  0  0  0
   -5.0660   11.1239  -31.8140 C   0  0  0  0  0  0  0  0  0  0  0  0
   -5.5561   11.7841  -29.1482 C   0  0  0  0  0  0  0  0  0  0  0  0
   -6.2876   10.7664  -29.7605 C   0  0  0  0  0  0  0  0  0  0  0  0
   -4.3345   12.1415  -31.2017 C   0  0  0  0  0  0  0  0  0  0  0  0
   -6.0426   10.4363  -31.0935 C   0  0  0  0  0  0  0  0  0  0  0  0
   -4.9913   13.1694  -27.2995 C   0  0  0  0  0  0  0  0  0  0  0  0
   -7.2385   10.1057  -29.0389 O   0  0  0  0  0  0  0  0  0  0  0  0
   -5.7837   12.1176  -27.8469 O   0  0  0  0  0  0  0  0  0  0  0  0
   -3.1290   12.9901  -32.0903 Cl  0  0  0  0  0  0  0  0  0  0  0  0
   -7.0167    9.0597  -31.9595 Br  0  0  0  0  0  0  0  0  0  0  0  0
  1  3  2  0
  1  5  1  0
  2  5  2  0
  2  6  1  0
  3  4  1  0
  3  9  1  0
  4  6  2  0
  4  8  1  0
  5 10  1  0
  6 11  1  0
  7  9  1  0
M  END
>  <id>  (199) 
EN300-1897198

>  <smiles>  (199) 
COC=1C=C(Cl)C=C(Br)C1O

>  <MDLNUMBER>  (199) 
MFCD22414703

>  <IUPAC Name>  (199) 
2-bromo-4-chloro-6-methoxyphenol

>  <CAS>  (199) 
1430807-43-4

>  <Purity>  (199) 
95

>  <URL>  (199) 
https://www.enaminestore.com/catalog/EN300-1897198

>  <ROCS_ShapeQuery>  (199) 
_x1604L0AP1_x0771L0AP1

>  <ROCS_TanimotoCombo>  (199) 
0.957 

>  <ROCS_ShapeTanimoto>  (199) 
0.460 

>  <ROCS_ColorTanimoto>  (199) 
0.497 

>  <ROCS_RefTversky>  (199) 
0.413 

>  <ROCS_RefColorTversky>  (199) 
0.516 

>  <ROCS_RefTverskyCombo>  (199) 
0.929 

>  <ROCS_FitTversky>  (199) 
1.325 

>  <ROCS_FitColorTversky>  (199) 
0.932 

>  <ROCS_FitTverskyCombo>  (199) 
2.257 

>  <ROCS_ColorScore>  (199) 
-4.881

>  <ROCS_Overlap>  (199) 
690.100

>  <ROCS_Rank>  (199) 
323                 

$$$$
untitled-dbase-336_285
     RDKit          3D

 16 17  0  0  0  0  0  0  0  0999 V2000
   -1.9075   14.8070  -30.7163 C   0  0  0  0  0  0  0  0  0  0  0  0
   -2.5275   13.9352  -31.2610 C   0  0  0  0  0  0  0  0  0  0  0  0
   -4.5824   12.4669  -29.8303 C   0  0  0  0  0  0  0  0  0  0  0  0
   -5.0512   11.1309  -31.7880 C   0  0  0  0  0  0  0  0  0  0  0  0
   -4.3249   12.1445  -31.1627 C   0  0  0  0  0  0  0  0  0  0  0  0
   -5.5662   11.7757  -29.1231 C   0  0  0  0  0  0  0  0  0  0  0  0
   -6.2925   10.7622  -29.7483 C   0  0  0  0  0  0  0  0  0  0  0  0
   -6.0350   10.4398  -31.0808 C   0  0  0  0  0  0  0  0  0  0  0  0
   -3.5205   13.0917  -33.4126 C   0  0  0  0  0  0  0  0  0  0  0  0
   -2.5017   12.0924  -32.9730 C   0  0  0  0  0  0  0  0  0  0  0  0
   -3.2746   12.8842  -31.9182 C   0  0  0  0  0  0  0  0  0  0  0  0
   -7.4272   13.8009  -28.2895 C   0  0  0  0  0  0  0  0  0  0  0  0
   -7.1224   12.5467  -27.4984 C   0  0  0  0  0  0  0  0  0  0  0  0
   -7.2504   10.0978  -29.0396 O   0  0  0  0  0  0  0  0  0  0  0  0
   -5.8068   12.1013  -27.8224 O   0  0  0  0  0  0  0  0  0  0  0  0
   -7.0022    9.0701  -31.9655 Br  0  0  0  0  0  0  0  0  0  0  0  0
  1  2  3  0
  2 11  1  0
  3  5  2  0
  3  6  1  0
  4  5  1  0
  4  8  2  0
  5 11  1  0
  6  7  2  0
  6 15  1  0
  7  8  1  0
  7 14  1  0
  8 16  1  0
  9 10  1  0
  9 11  1  0
 10 11  1  0
 12 13  1  0
 13 15  1  0
M  END
>  <id>  (200) 
EN300-1920247

>  <smiles>  (200) 
CCOC=1C=C(C=C(Br)C1O)C2(CC2)C#C

>  <IUPAC Name>  (200) 
2-bromo-6-ethoxy-4-(1-ethynylcyclopropyl)phenol

>  <CAS>  (200) 
2228301-23-1

>  <URL>  (200) 
https://www.enaminestore.com/catalog/EN300-1920247

>  <ROCS_ShapeQuery>  (200) 
_x1604L0AP1_x0771L0AP1

>  <ROCS_TanimotoCombo>  (200) 
0.956 

>  <ROCS_ShapeTanimoto>  (200) 
0.505 

>  <ROCS_ColorTanimoto>  (200) 
0.451 

>  <ROCS_RefTversky>  (200) 
0.483 

>  <ROCS_RefColorTversky>  (200) 
0.513 

>  <ROCS_RefTverskyCombo>  (200) 
0.996 

>  <ROCS_FitTversky>  (200) 
1.100 

>  <ROCS_FitColorTversky>  (200) 
0.789 

>  <ROCS_FitTverskyCombo>  (200) 
1.889 

>  <ROCS_ColorScore>  (200) 
-4.881

>  <ROCS_Overlap>  (200) 
812.673

>  <ROCS_Rank>  (200) 
326                 

$$$$
untitled-dbase-1462_5
     RDKit          3D

 12 12  0  0  0  0  0  0  0  0999 V2000
   -4.6470   12.4744  -31.2113 C   0  0  0  0  0  0  0  0  0  0  0  0
   -5.2702   11.3944  -31.8365 C   0  0  0  0  0  0  0  0  0  0  0  0
   -5.7315   11.8962  -29.1313 C   0  0  0  0  0  0  0  0  0  0  0  0
   -4.8776   12.7252  -29.8587 C   0  0  0  0  0  0  0  0  0  0  0  0
   -6.3548   10.8162  -29.7565 C   0  0  0  0  0  0  0  0  0  0  0  0
   -6.1241   10.5653  -31.1091 C   0  0  0  0  0  0  0  0  0  0  0  0
   -4.2268   13.8507  -29.2068 C   0  0  0  0  0  0  0  0  0  0  0  0
   -3.9868   16.2242  -29.2412 C   0  0  0  0  0  0  0  0  0  0  0  0
   -3.4588   13.7519  -28.2406 O   0  0  0  0  0  0  0  0  0  0  0  0
   -7.1834   10.0248  -29.0179 O   0  0  0  0  0  0  0  0  0  0  0  0
   -4.5670   15.0383  -29.7950 O   0  0  0  0  0  0  0  0  0  0  0  0
   -6.9538    9.1080  -31.9922 Br  0  0  0  0  0  0  0  0  0  0  0  0
  1  2  2  0
  1  4  1  0
  2  6  1  0
  3  4  2  0
  3  5  1  0
  4  7  1  0
  5  6  2  0
  5 10  1  0
  6 12  1  0
  7  9  2  0
  7 11  1  0
  8 11  1  0
M  END
>  <id>  (201) 
EN300-198690

>  <smiles>  (201) 
COC(=O)C=1C=CC(Br)=C(O)C1

>  <MDLNUMBER>  (201) 
MFCD08056372

>  <IUPAC Name>  (201) 
methyl 4-bromo-3-hydroxybenzoate

>  <CAS>  (201) 
106291-80-9

>  <Purity>  (201) 
95

>  <URL>  (201) 
https://www.enaminestore.com/catalog/EN300-198690

>  <MP>  (201) 
121-123

>  <ROCS_ShapeQuery>  (201) 
_x1604L0AP1_x0771L0AP1

>  <ROCS_TanimotoCombo>  (201) 
0.956 

>  <ROCS_ShapeTanimoto>  (201) 
0.475 

>  <ROCS_ColorTanimoto>  (201) 
0.481 

>  <ROCS_RefTversky>  (201) 
0.433 

>  <ROCS_RefColorTversky>  (201) 
0.504 

>  <ROCS_RefTverskyCombo>  (201) 
0.937 

>  <ROCS_FitTversky>  (201) 
1.262 

>  <ROCS_FitColorTversky>  (201) 
0.912 

>  <ROCS_FitTverskyCombo>  (201) 
2.174 

>  <ROCS_ColorScore>  (201) 
-4.774

>  <ROCS_Overlap>  (201) 
723.997

>  <ROCS_Rank>  (201) 
328                 

$$$$
untitled-dbase-459_0
     RDKit          3D

 12 12  0  0  0  0  0  0  0  0999 V2000
   -4.3514   12.1696  -31.2044 C   0  0  0  0  0  0  0  0  0  0  0  0
   -4.6004   12.4938  -29.8708 C   0  0  0  0  0  0  0  0  0  0  0  0
   -5.0716   11.1456  -31.8195 C   0  0  0  0  0  0  0  0  0  0  0  0
   -5.5696   11.7938  -29.1522 C   0  0  0  0  0  0  0  0  0  0  0  0
   -6.2898   10.7698  -29.7672 C   0  0  0  0  0  0  0  0  0  0  0  0
   -6.0408   10.4456  -31.1009 C   0  0  0  0  0  0  0  0  0  0  0  0
   -5.0205   13.1813  -27.3004 C   0  0  0  0  0  0  0  0  0  0  0  0
   -4.7675   10.8385  -33.2506 C   0  0  0  0  0  0  0  0  0  0  0  0
   -7.2330   10.0998  -29.0433 O   0  0  0  0  0  0  0  0  0  0  0  0
   -5.8014   12.1222  -27.8504 O   0  0  0  0  0  0  0  0  0  0  0  0
   -6.0482   11.4661  -34.3102 Cl  0  0  0  0  0  0  0  0  0  0  0  0
   -7.0346    9.0529  -31.9350 Br  0  0  0  0  0  0  0  0  0  0  0  0
  1  2  2  0
  1  3  1  0
  2  4  1  0
  3  6  2  0
  3  8  1  0
  4  5  2  0
  4 10  1  0
  5  6  1  0
  5  9  1  0
  6 12  1  0
  7 10  1  0
  8 11  1  0
M  END
>  <id>  (202) 
EN300-1935616

>  <smiles>  (202) 
COC=1C=CC(CCl)=C(Br)C1O

>  <IUPAC Name>  (202) 
2-bromo-3-(chloromethyl)-6-methoxyphenol

>  <CAS>  (202) 
2091050-43-8

>  <URL>  (202) 
https://www.enaminestore.com/catalog/EN300-1935616

>  <ROCS_ShapeQuery>  (202) 
_x1604L0AP1_x0771L0AP1

>  <ROCS_TanimotoCombo>  (202) 
0.956 

>  <ROCS_ShapeTanimoto>  (202) 
0.458 

>  <ROCS_ColorTanimoto>  (202) 
0.498 

>  <ROCS_RefTversky>  (202) 
0.420 

>  <ROCS_RefColorTversky>  (202) 
0.516 

>  <ROCS_RefTverskyCombo>  (202) 
0.936 

>  <ROCS_FitTversky>  (202) 
1.253 

>  <ROCS_FitColorTversky>  (202) 
0.933 

>  <ROCS_FitTverskyCombo>  (202) 
2.186 

>  <ROCS_ColorScore>  (202) 
-4.884

>  <ROCS_Overlap>  (202) 
701.892

>  <ROCS_Rank>  (202) 
329                 

$$$$
untitled-dbase-2150_184
     RDKit          3D

 12 12  0  0  0  0  0  0  0  0999 V2000
   -4.3392   12.1465  -31.2084 C   0  0  0  0  0  0  0  0  0  0  0  0
   -4.5829   12.4791  -29.8759 C   0  0  0  0  0  0  0  0  0  0  0  0
   -5.0694   11.1258  -31.8172 C   0  0  0  0  0  0  0  0  0  0  0  0
   -5.5567   11.7910  -29.1521 C   0  0  0  0  0  0  0  0  0  0  0  0
   -6.2869   10.7702  -29.7610 C   0  0  0  0  0  0  0  0  0  0  0  0
   -6.0432   10.4376  -31.0935 C   0  0  0  0  0  0  0  0  0  0  0  0
   -5.8006   12.1624  -27.7264 C   0  0  0  0  0  0  0  0  0  0  0  0
   -7.0679   11.5361  -27.1148 C   0  0  0  0  0  0  0  0  0  0  0  0
   -7.2874   11.9623  -25.6635 C   0  0  0  0  0  0  0  0  0  0  0  0
   -7.2351   10.1050  -29.0392 O   0  0  0  0  0  0  0  0  0  0  0  0
   -8.7978   11.2046  -24.9960 S   0  0  0  0  0  0  0  0  0  0  0  0
   -7.0147    9.0576  -31.9570 Br  0  0  0  0  0  0  0  0  0  0  0  0
  1  2  2  0
  1  3  1  0
  2  4  1  0
  3  6  2  0
  4  5  2  0
  4  7  1  0
  5  6  1  0
  5 10  1  0
  6 12  1  0
  7  8  1  0
  8  9  1  0
  9 11  1  0
M  END
>  <id>  (203) 
EN300-1923471

>  <smiles>  (203) 
OC=1C(Br)=CC=CC1CCCS

>  <IUPAC Name>  (203) 
2-bromo-6-(3-sulfanylpropyl)phenol

>  <CAS>  (203) 
2228475-28-1

>  <URL>  (203) 
https://www.enaminestore.com/catalog/EN300-1923471

>  <ROCS_ShapeQuery>  (203) 
_x1604L0AP1_x0771L0AP1

>  <ROCS_TanimotoCombo>  (203) 
0.956 

>  <ROCS_ShapeTanimoto>  (203) 
0.402 

>  <ROCS_ColorTanimoto>  (203) 
0.553 

>  <ROCS_RefTversky>  (203) 
0.380 

>  <ROCS_RefColorTversky>  (203) 
0.518 

>  <ROCS_RefTverskyCombo>  (203) 
0.899 

>  <ROCS_FitTversky>  (203) 
1.167 

>  <ROCS_FitColorTversky>  (203) 
1.139 

>  <ROCS_FitTverskyCombo>  (203) 
2.306 

>  <ROCS_ColorScore>  (203) 
-4.880

>  <ROCS_Overlap>  (203) 
636.260

>  <ROCS_Rank>  (203) 
330                 

$$$$
untitled-dbase-1790_1
     RDKit          3D

 10 10  0  0  0  0  0  0  0  0999 V2000
   -4.3502   12.1464  -31.2200 C   0  0  0  0  0  0  0  0  0  0  0  0
   -5.0796   11.1251  -31.8285 C   0  0  0  0  0  0  0  0  0  0  0  0
   -5.5629   11.7863  -29.1617 C   0  0  0  0  0  0  0  0  0  0  0  0
   -4.5918   12.4770  -29.8866 C   0  0  0  0  0  0  0  0  0  0  0  0
   -6.2924   10.7649  -29.7702 C   0  0  0  0  0  0  0  0  0  0  0  0
   -6.0507   10.4343  -31.1037 C   0  0  0  0  0  0  0  0  0  0  0  0
   -4.1778   13.7599  -27.9273 C   0  0  0  0  0  0  0  0  0  0  0  0
   -7.2342   10.1092  -29.0345 O   0  0  0  0  0  0  0  0  0  0  0  0
   -3.8798   13.4737  -29.2930 O   0  0  0  0  0  0  0  0  0  0  0  0
   -7.0221    9.0526  -31.9636 Br  0  0  0  0  0  0  0  0  0  0  0  0
  1  2  2  0
  1  4  1  0
  2  6  1  0
  3  4  2  0
  3  5  1  0
  4  9  1  0
  5  6  2  0
  5  8  1  0
  6 10  1  0
  7  9  1  0
M  END
>  <id>  (204) 
EN300-177992

>  <smiles>  (204) 
COC=1C=CC(Br)=C(O)C1

>  <MDLNUMBER>  (204) 
MFCD03428523

>  <IUPAC Name>  (204) 
2-bromo-5-methoxyphenol

>  <CAS>  (204) 
63604-94-4

>  <Purity>  (204) 
95

>  <URL>  (204) 
https://www.enaminestore.com/catalog/EN300-177992

>  <MP>  (204) 
152-153

>  <ROCS_ShapeQuery>  (204) 
_x1604L0AP1_x0771L0AP1

>  <ROCS_TanimotoCombo>  (204) 
0.956 

>  <ROCS_ShapeTanimoto>  (204) 
0.459 

>  <ROCS_ColorTanimoto>  (204) 
0.497 

>  <ROCS_RefTversky>  (204) 
0.406 

>  <ROCS_RefColorTversky>  (204) 
0.515 

>  <ROCS_RefTverskyCombo>  (204) 
0.922 

>  <ROCS_FitTversky>  (204) 
1.395 

>  <ROCS_FitColorTversky>  (204) 
0.932 

>  <ROCS_FitTverskyCombo>  (204) 
2.327 

>  <ROCS_ColorScore>  (204) 
-4.878

>  <ROCS_Overlap>  (204) 
678.053

>  <ROCS_Rank>  (204) 
331                 

$$$$
untitled-dbase-1188_13
     RDKit          3D

 11 11  0  0  0  0  0  0  0  0999 V2000
   -4.6086   12.4969  -29.8421 C   0  0  0  0  0  0  0  0  0  0  0  0
   -4.3557   12.1879  -31.1785 C   0  0  0  0  0  0  0  0  0  0  0  0
   -5.5783   11.7875  -29.1336 C   0  0  0  0  0  0  0  0  0  0  0  0
   -5.0727   11.1695  -31.8066 C   0  0  0  0  0  0  0  0  0  0  0  0
   -6.2953   10.7691  -29.7616 C   0  0  0  0  0  0  0  0  0  0  0  0
   -6.0425   10.4600  -31.0981 C   0  0  0  0  0  0  0  0  0  0  0  0
   -4.7672   10.8910  -33.2049 C   0  0  0  0  0  0  0  0  0  0  0  0
   -5.7908   10.4095  -33.9860 N   0  0  0  0  0  0  0  0  0  0  0  0
   -7.2355   10.0979  -29.0372 O   0  0  0  0  0  0  0  0  0  0  0  0
   -3.2438   11.1714  -33.8375 S   0  0  0  0  0  0  0  0  0  0  0  0
   -7.0301    9.0668  -31.9401 Br  0  0  0  0  0  0  0  0  0  0  0  0
  1  2  2  0
  1  3  1  0
  2  4  1  0
  3  5  2  0
  4  6  2  0
  4  7  1  0
  5  6  1  0
  5  9  1  0
  6 11  1  0
  7  8  1  0
  7 10  2  0
M  END
>  <id>  (205) 
EN300-1904634

>  <smiles>  (205) 
NC(=S)C=1C=CC=C(O)C1Br

>  <MDLNUMBER>  (205) 
MFCD33499795

>  <IUPAC Name>  (205) 
2-bromo-3-hydroxybenzene-1-carbothioamide

>  <CAS>  (205) 
2228212-54-0

>  <URL>  (205) 
https://www.enaminestore.com/catalog/EN300-1904634

>  <ROCS_ShapeQuery>  (205) 
_x1604L0AP1_x0771L0AP1

>  <ROCS_TanimotoCombo>  (205) 
0.956 

>  <ROCS_ShapeTanimoto>  (205) 
0.458 

>  <ROCS_ColorTanimoto>  (205) 
0.497 

>  <ROCS_RefTversky>  (205) 
0.412 

>  <ROCS_RefColorTversky>  (205) 
0.516 

>  <ROCS_RefTverskyCombo>  (205) 
0.928 

>  <ROCS_FitTversky>  (205) 
1.327 

>  <ROCS_FitColorTversky>  (205) 
0.933 

>  <ROCS_FitTverskyCombo>  (205) 
2.260 

>  <ROCS_ColorScore>  (205) 
-4.883

>  <ROCS_Overlap>  (205) 
687.925

>  <ROCS_Rank>  (205) 
333                 

$$$$
untitled-dbase-1005_0
     RDKit          3D

 11 11  0  0  0  0  0  0  0  0999 V2000
   -6.6560   11.8534  -34.8481 C   0  0  0  0  0  0  0  0  0  0  0  0
   -5.8068   11.4031  -34.1285 C   0  0  0  0  0  0  0  0  0  0  0  0
   -4.6050   12.4904  -29.8552 C   0  0  0  0  0  0  0  0  0  0  0  0
   -4.3536   12.1732  -31.1901 C   0  0  0  0  0  0  0  0  0  0  0  0
   -5.5755   11.7868  -29.1420 C   0  0  0  0  0  0  0  0  0  0  0  0
   -5.0728   11.1525  -31.8117 C   0  0  0  0  0  0  0  0  0  0  0  0
   -6.2948   10.7661  -29.7636 C   0  0  0  0  0  0  0  0  0  0  0  0
   -6.0434   10.4489  -31.0985 C   0  0  0  0  0  0  0  0  0  0  0  0
   -4.7660   10.8517  -33.2436 C   0  0  0  0  0  0  0  0  0  0  0  0
   -7.2359   10.1009  -29.0351 O   0  0  0  0  0  0  0  0  0  0  0  0
   -7.0307    9.0542  -31.9358 Br  0  0  0  0  0  0  0  0  0  0  0  0
  1  2  3  0
  2  9  1  0
  3  4  2  0
  3  5  1  0
  4  6  1  0
  5  7  2  0
  6  8  2  0
  6  9  1  0
  7  8  1  0
  7 10  1  0
  8 11  1  0
M  END
>  <id>  (206) 
EN300-1904549

>  <smiles>  (206) 
OC=1C=CC=C(CC#C)C1Br

>  <MDLNUMBER>  (206) 
MFCD33499792

>  <IUPAC Name>  (206) 
2-bromo-3-(prop-2-yn-1-yl)phenol

>  <CAS>  (206) 
2229141-20-0

>  <URL>  (206) 
https://www.enaminestore.com/catalog/EN300-1904549

>  <ROCS_ShapeQuery>  (206) 
_x1604L0AP1_x0771L0AP1

>  <ROCS_TanimotoCombo>  (206) 
0.955 

>  <ROCS_ShapeTanimoto>  (206) 
0.458 

>  <ROCS_ColorTanimoto>  (206) 
0.497 

>  <ROCS_RefTversky>  (206) 
0.412 

>  <ROCS_RefColorTversky>  (206) 
0.516 

>  <ROCS_RefTverskyCombo>  (206) 
0.928 

>  <ROCS_FitTversky>  (206) 
1.320 

>  <ROCS_FitColorTversky>  (206) 
0.933 

>  <ROCS_FitTverskyCombo>  (206) 
2.252 

>  <ROCS_ColorScore>  (206) 
-4.883

>  <ROCS_Overlap>  (206) 
689.070

>  <ROCS_Rank>  (206) 
335                 

$$$$
untitled-dbase-1372_58
     RDKit          3D

 12 12  0  0  0  0  0  0  0  0999 V2000
   -4.3418   12.1485  -31.2089 C   0  0  0  0  0  0  0  0  0  0  0  0
   -4.5869   12.4815  -29.8767 C   0  0  0  0  0  0  0  0  0  0  0  0
   -5.0704   11.1269  -31.8179 C   0  0  0  0  0  0  0  0  0  0  0  0
   -5.5607   11.7927  -29.1535 C   0  0  0  0  0  0  0  0  0  0  0  0
   -6.2893   10.7710  -29.7625 C   0  0  0  0  0  0  0  0  0  0  0  0
   -6.0442   10.4381  -31.0947 C   0  0  0  0  0  0  0  0  0  0  0  0
   -5.8062   12.1645  -27.7282 C   0  0  0  0  0  0  0  0  0  0  0  0
   -4.8796    8.9985  -27.8255 N   0  0  0  0  0  0  0  0  0  0  0  0
   -5.6136   11.0297  -26.8178 N   0  0  0  0  0  0  0  0  0  0  0  0
   -5.2310    9.9731  -27.3483 N   0  0  0  0  0  0  0  0  0  0  0  0
   -7.2376   10.1052  -29.0414 O   0  0  0  0  0  0  0  0  0  0  0  0
   -7.0137    9.0568  -31.9585 Br  0  0  0  0  0  0  0  0  0  0  0  0
  1  2  2  0
  1  3  1  0
  2  4  1  0
  3  6  2  0
  4  5  2  0
  4  7  1  0
  5  6  1  0
  5 11  1  0
  6 12  1  0
  7  9  1  0
  8 10  2  0
  9 10  2  0
M  CHG  2   8  -1  10   1
M  END
>  <id>  (207) 
EN300-1923150

>  <smiles>  (207) 
OC=1C(Br)=CC=CC1CN=[N+]=[N-]

>  <IUPAC Name>  (207) 
2-(azidomethyl)-6-bromophenol

>  <CAS>  (207) 
2228200-06-2

>  <URL>  (207) 
https://www.enaminestore.com/catalog/EN300-1923150

>  <ROCS_ShapeQuery>  (207) 
_x1604L0AP1_x0771L0AP1

>  <ROCS_TanimotoCombo>  (207) 
0.955 

>  <ROCS_ShapeTanimoto>  (207) 
0.402 

>  <ROCS_ColorTanimoto>  (207) 
0.553 

>  <ROCS_RefTversky>  (207) 
0.385 

>  <ROCS_RefColorTversky>  (207) 
0.518 

>  <ROCS_RefTverskyCombo>  (207) 
0.903 

>  <ROCS_FitTversky>  (207) 
1.128 

>  <ROCS_FitColorTversky>  (207) 
1.139 

>  <ROCS_FitTverskyCombo>  (207) 
2.267 

>  <ROCS_ColorScore>  (207) 
-4.880

>  <ROCS_Overlap>  (207) 
643.544

>  <ROCS_Rank>  (207) 
336                 

$$$$
untitled-dbase-2227_3
     RDKit          3D

 14 14  0  0  0  0  0  0  0  0999 V2000
   -4.5962   12.4916  -29.8596 C   0  0  0  0  0  0  0  0  0  0  0  0
   -4.3464   12.1746  -31.1947 C   0  0  0  0  0  0  0  0  0  0  0  0
   -5.5673   11.7893  -29.1459 C   0  0  0  0  0  0  0  0  0  0  0  0
   -6.2887   10.7701  -29.7674 C   0  0  0  0  0  0  0  0  0  0  0  0
   -5.0678   11.1554  -31.8163 C   0  0  0  0  0  0  0  0  0  0  0  0
   -6.0390   10.4531  -31.1027 C   0  0  0  0  0  0  0  0  0  0  0  0
   -5.0175   13.1651  -27.2856 C   0  0  0  0  0  0  0  0  0  0  0  0
   -3.6152   11.6795  -33.9210 O   0  0  0  0  0  0  0  0  0  0  0  0
   -4.6798    9.3834  -33.7159 O   0  0  0  0  0  0  0  0  0  0  0  0
   -7.2333   10.0988  -29.0462 O   0  0  0  0  0  0  0  0  0  0  0  0
   -5.7998   12.1106  -27.8424 O   0  0  0  0  0  0  0  0  0  0  0  0
   -4.6973   10.8152  -33.4960 S   0  0  0  0  0  0  0  0  0  0  0  0
   -6.3767   11.4847  -34.4528 Cl  0  0  0  0  0  0  0  0  0  0  0  0
   -7.0402    9.0559  -31.9252 Br  0  0  0  0  0  0  0  0  0  0  0  0
  1  2  2  0
  1  3  1  0
  2  5  1  0
  3  4  2  0
  3 11  1  0
  4  6  1  0
  4 10  1  0
  5  6  2  0
  5 12  1  0
  6 14  1  0
  7 11  1  0
  8 12  2  0
  9 12  2  0
 12 13  1  0
M  END
>  <id>  (208) 
EN300-6493327

>  <smiles>  (208) 
COC=1C=CC(=C(Br)C1O)S(=O)(=O)Cl

>  <IUPAC Name>  (208) 
2-bromo-3-hydroxy-4-methoxybenzene-1-sulfonyl chloride

>  <CAS>  (208) 
2247105-41-3

>  <URL>  (208) 
https://www.enaminestore.com/catalog/EN300-6493327

>  <ROCS_ShapeQuery>  (208) 
_x1604L0AP1_x0771L0AP1

>  <ROCS_TanimotoCombo>  (208) 
0.955 

>  <ROCS_ShapeTanimoto>  (208) 
0.458 

>  <ROCS_ColorTanimoto>  (208) 
0.498 

>  <ROCS_RefTversky>  (208) 
0.432 

>  <ROCS_RefColorTversky>  (208) 
0.516 

>  <ROCS_RefTverskyCombo>  (208) 
0.948 

>  <ROCS_FitTversky>  (208) 
1.148 

>  <ROCS_FitColorTversky>  (208) 
0.933 

>  <ROCS_FitTverskyCombo>  (208) 
2.081 

>  <ROCS_ColorScore>  (208) 
-4.886

>  <ROCS_Overlap>  (208) 
724.500

>  <ROCS_Rank>  (208) 
338                 

$$$$
untitled-dbase-1680_54
     RDKit          3D

 12 12  0  0  0  0  0  0  0  0999 V2000
   -4.3307   12.1380  -31.2046 C   0  0  0  0  0  0  0  0  0  0  0  0
   -4.5743   12.4706  -29.8721 C   0  0  0  0  0  0  0  0  0  0  0  0
   -5.0638   11.1201  -31.8147 C   0  0  0  0  0  0  0  0  0  0  0  0
   -5.5510   11.7853  -29.1496 C   0  0  0  0  0  0  0  0  0  0  0  0
   -6.2841   10.7674  -29.7596 C   0  0  0  0  0  0  0  0  0  0  0  0
   -6.0405   10.4348  -31.0921 C   0  0  0  0  0  0  0  0  0  0  0  0
   -5.7948   12.1567  -27.7238 C   0  0  0  0  0  0  0  0  0  0  0  0
   -7.0505   13.0082  -27.5315 C   0  0  0  0  0  0  0  0  0  0  0  0
   -7.2847   13.8616  -29.6747 N   0  0  0  0  0  0  0  0  0  0  0  0
   -7.2352   10.1049  -29.0390 O   0  0  0  0  0  0  0  0  0  0  0  0
   -6.9436   14.1986  -28.3017 O   0  0  0  0  0  0  0  0  0  0  0  0
   -7.0160    9.0586  -31.9573 Br  0  0  0  0  0  0  0  0  0  0  0  0
  1  2  2  0
  1  3  1  0
  2  4  1  0
  3  6  2  0
  4  5  2  0
  4  7  1  0
  5  6  1  0
  5 10  1  0
  6 12  1  0
  7  8  1  0
  8 11  1  0
  9 11  1  0
M  END
>  <id>  (209) 
EN300-1923135

>  <smiles>  (209) 
NOCCC=1C=CC=C(Br)C1O

>  <IUPAC Name>  (209) 
2-[2-(aminooxy)ethyl]-6-bromophenol

>  <CAS>  (209) 
1897051-30-7

>  <URL>  (209) 
https://www.enaminestore.com/catalog/EN300-1923135

>  <ROCS_ShapeQuery>  (209) 
_x1604L0AP1_x0771L0AP1

>  <ROCS_TanimotoCombo>  (209) 
0.955 

>  <ROCS_ShapeTanimoto>  (209) 
0.402 

>  <ROCS_ColorTanimoto>  (209) 
0.553 

>  <ROCS_RefTversky>  (209) 
0.382 

>  <ROCS_RefColorTversky>  (209) 
0.518 

>  <ROCS_RefTverskyCombo>  (209) 
0.901 

>  <ROCS_FitTversky>  (209) 
1.145 

>  <ROCS_FitColorTversky>  (209) 
1.139 

>  <ROCS_FitTverskyCombo>  (209) 
2.284 

>  <ROCS_ColorScore>  (209) 
-4.881

>  <ROCS_Overlap>  (209) 
639.723

>  <ROCS_Rank>  (209) 
339                 

$$$$
untitled-dbase-323_5
     RDKit          3D

 13 14  0  0  0  0  0  0  0  0999 V2000
   -5.8160   10.9822  -34.2322 C   0  0  0  0  0  0  0  0  0  0  0  0
   -4.6144   12.5007  -29.8530 C   0  0  0  0  0  0  0  0  0  0  0  0
   -4.3609   12.1853  -31.1879 C   0  0  0  0  0  0  0  0  0  0  0  0
   -5.5819   11.7922  -29.1405 C   0  0  0  0  0  0  0  0  0  0  0  0
   -5.0749   11.1614  -31.8103 C   0  0  0  0  0  0  0  0  0  0  0  0
   -6.2959   10.7683  -29.7630 C   0  0  0  0  0  0  0  0  0  0  0  0
   -6.0425   10.4529  -31.0978 C   0  0  0  0  0  0  0  0  0  0  0  0
   -3.7326    9.7738  -33.5071 C   0  0  0  0  0  0  0  0  0  0  0  0
   -3.3622   11.2038  -33.7256 C   0  0  0  0  0  0  0  0  0  0  0  0
   -4.7697   10.8625  -33.2426 C   0  0  0  0  0  0  0  0  0  0  0  0
   -6.6562   11.0784  -35.0267 N   0  0  0  0  0  0  0  0  0  0  0  0
   -7.2355   10.1001  -29.0351 O   0  0  0  0  0  0  0  0  0  0  0  0
   -7.0290    9.0570  -31.9359 Br  0  0  0  0  0  0  0  0  0  0  0  0
  1 10  1  0
  1 11  3  0
  2  3  2  0
  2  4  1  0
  3  5  1  0
  4  6  2  0
  5  7  2  0
  5 10  1  0
  6  7  1  0
  6 12  1  0
  7 13  1  0
  8  9  1  0
  8 10  1  0
  9 10  1  0
M  END
>  <id>  (210) 
EN300-1904480

>  <smiles>  (210) 
OC=1C=CC=C(C1Br)C2(CC2)C#N

>  <IUPAC Name>  (210) 
1-(2-bromo-3-hydroxyphenyl)cyclopropane-1-carbonitrile

>  <CAS>  (210) 
2228155-14-2

>  <URL>  (210) 
https://www.enaminestore.com/catalog/EN300-1904480

>  <ROCS_ShapeQuery>  (210) 
_x1604L0AP1_x0771L0AP1

>  <ROCS_TanimotoCombo>  (210) 
0.955 

>  <ROCS_ShapeTanimoto>  (210) 
0.457 

>  <ROCS_ColorTanimoto>  (210) 
0.497 

>  <ROCS_RefTversky>  (210) 
0.430 

>  <ROCS_RefColorTversky>  (210) 
0.516 

>  <ROCS_RefTverskyCombo>  (210) 
0.945 

>  <ROCS_FitTversky>  (210) 
1.165 

>  <ROCS_FitColorTversky>  (210) 
0.933 

>  <ROCS_FitTverskyCombo>  (210) 
2.098 

>  <ROCS_ColorScore>  (210) 
-4.882

>  <ROCS_Overlap>  (210) 
719.957

>  <ROCS_Rank>  (210) 
343                 

$$$$
untitled-dbase-105_89
     RDKit          3D

 12 12  0  0  0  0  0  0  0  0999 V2000
   -4.5954   12.4810  -29.8299 C   0  0  0  0  0  0  0  0  0  0  0  0
   -5.5748   11.7828  -29.1236 C   0  0  0  0  0  0  0  0  0  0  0  0
   -5.0575   11.1463  -31.7900 C   0  0  0  0  0  0  0  0  0  0  0  0
   -4.3368   12.1629  -31.1632 C   0  0  0  0  0  0  0  0  0  0  0  0
   -6.2954   10.7662  -29.7504 C   0  0  0  0  0  0  0  0  0  0  0  0
   -6.0368   10.4480  -31.0837 C   0  0  0  0  0  0  0  0  0  0  0  0
   -3.8736   12.7069  -34.8856 C   0  0  0  0  0  0  0  0  0  0  0  0
   -3.2894   12.9099  -31.9172 C   0  0  0  0  0  0  0  0  0  0  0  0
   -2.6160   12.0706  -33.0051 C   0  0  0  0  0  0  0  0  0  0  0  0
   -7.2445   10.1018  -29.0320 O   0  0  0  0  0  0  0  0  0  0  0  0
   -3.5848   11.6649  -33.9636 O   0  0  0  0  0  0  0  0  0  0  0  0
   -6.9954    9.0718  -31.9667 Br  0  0  0  0  0  0  0  0  0  0  0  0
  1  2  2  0
  1  4  1  0
  2  5  1  0
  3  4  2  0
  3  6  1  0
  4  8  1  0
  5  6  2  0
  5 10  1  0
  6 12  1  0
  7 11  1  0
  8  9  1  0
  9 11  1  0
M  END
>  <id>  (211) 
EN300-340362

>  <smiles>  (211) 
COCCC=1C=CC(O)=C(Br)C1

>  <MDLNUMBER>  (211) 
MFCD26895863

>  <IUPAC Name>  (211) 
2-bromo-4-(2-methoxyethyl)phenol

>  <CAS>  (211) 
91376-21-5

>  <URL>  (211) 
https://www.enaminestore.com/catalog/EN300-340362

>  <ROCS_ShapeQuery>  (211) 
_x1604L0AP1_x0771L0AP1

>  <ROCS_TanimotoCombo>  (211) 
0.955 

>  <ROCS_ShapeTanimoto>  (211) 
0.458 

>  <ROCS_ColorTanimoto>  (211) 
0.497 

>  <ROCS_RefTversky>  (211) 
0.419 

>  <ROCS_RefColorTversky>  (211) 
0.515 

>  <ROCS_RefTverskyCombo>  (211) 
0.934 

>  <ROCS_FitTversky>  (211) 
1.257 

>  <ROCS_FitColorTversky>  (211) 
0.932 

>  <ROCS_FitTverskyCombo>  (211) 
2.189 

>  <ROCS_ColorScore>  (211) 
-4.878

>  <ROCS_Overlap>  (211) 
700.709

>  <ROCS_Rank>  (211) 
344                 

$$$$
untitled-dbase-911_400
     RDKit          3D

 16 17  0  0  0  0  0  0  0  0999 V2000
   -4.5734   12.4582  -29.8315 C   0  0  0  0  0  0  0  0  0  0  0  0
   -5.0536   11.1287  -31.7907 C   0  0  0  0  0  0  0  0  0  0  0  0
   -4.3219   12.1384  -31.1657 C   0  0  0  0  0  0  0  0  0  0  0  0
   -5.5566   11.7682  -29.1223 C   0  0  0  0  0  0  0  0  0  0  0  0
   -6.2883   10.7585  -29.7473 C   0  0  0  0  0  0  0  0  0  0  0  0
   -6.0368   10.4387  -31.0816 C   0  0  0  0  0  0  0  0  0  0  0  0
   -2.5448   12.1386  -33.0324 C   0  0  0  0  0  0  0  0  0  0  0  0
   -1.8299   12.4358  -31.7515 C   0  0  0  0  0  0  0  0  0  0  0  0
   -3.2724   12.8767  -31.9232 C   0  0  0  0  0  0  0  0  0  0  0  0
   -4.9986   13.1354  -27.2581 C   0  0  0  0  0  0  0  0  0  0  0  0
   -3.5430   14.3619  -32.1172 C   0  0  0  0  0  0  0  0  0  0  0  0
   -3.6534   15.1177  -30.7984 C   0  0  0  0  0  0  0  0  0  0  0  0
   -2.4460   15.0451  -30.0233 N   0  0  0  0  0  0  0  0  0  0  0  0
   -7.2455   10.0953  -29.0367 O   0  0  0  0  0  0  0  0  0  0  0  0
   -5.7912   12.0912  -27.8199 O   0  0  0  0  0  0  0  0  0  0  0  0
   -7.0115    9.0742  -31.9661 Br  0  0  0  0  0  0  0  0  0  0  0  0
  1  3  2  0
  1  4  1  0
  2  3  1  0
  2  6  2  0
  3  9  1  0
  4  5  2  0
  4 15  1  0
  5  6  1  0
  5 14  1  0
  6 16  1  0
  7  8  1  0
  7  9  1  0
  8  9  1  0
  9 11  1  0
 10 15  1  0
 11 12  1  0
 12 13  1  0
M  END
>  <id>  (212) 
EN300-1926981

>  <smiles>  (212) 
COC=1C=C(C=C(Br)C1O)C2(CCN)CC2

>  <IUPAC Name>  (212) 
4-[1-(2-aminoethyl)cyclopropyl]-2-bromo-6-methoxyphenol

>  <CAS>  (212) 
2228223-12-7

>  <URL>  (212) 
https://www.enaminestore.com/catalog/EN300-1926981

>  <ROCS_ShapeQuery>  (212) 
_x1604L0AP1_x0771L0AP1

>  <ROCS_TanimotoCombo>  (212) 
0.955 

>  <ROCS_ShapeTanimoto>  (212) 
0.542 

>  <ROCS_ColorTanimoto>  (212) 
0.413 

>  <ROCS_RefTversky>  (212) 
0.505 

>  <ROCS_RefColorTversky>  (212) 
0.510 

>  <ROCS_RefTverskyCombo>  (212) 
1.015 

>  <ROCS_FitTversky>  (212) 
1.157 

>  <ROCS_FitColorTversky>  (212) 
0.684 

>  <ROCS_FitTverskyCombo>  (212) 
1.841 

>  <ROCS_ColorScore>  (212) 
-4.881

>  <ROCS_Overlap>  (212) 
848.869

>  <ROCS_Rank>  (212) 
345                 

$$$$
untitled-dbase-1018_1130
     RDKit          3D

 16 17  0  0  0  0  0  0  0  0999 V2000
   -4.5797   12.4658  -29.8373 C   0  0  0  0  0  0  0  0  0  0  0  0
   -5.0572   11.1316  -31.7940 C   0  0  0  0  0  0  0  0  0  0  0  0
   -4.3279   12.1443  -31.1710 C   0  0  0  0  0  0  0  0  0  0  0  0
   -5.5608   11.7746  -29.1265 C   0  0  0  0  0  0  0  0  0  0  0  0
   -6.2902   10.7619  -29.7494 C   0  0  0  0  0  0  0  0  0  0  0  0
   -6.0384   10.4404  -31.0832 C   0  0  0  0  0  0  0  0  0  0  0  0
   -3.4827   14.3402  -32.0550 C   0  0  0  0  0  0  0  0  0  0  0  0
   -2.6139   12.1705  -33.0957 C   0  0  0  0  0  0  0  0  0  0  0  0
   -1.8480   12.3845  -31.8306 C   0  0  0  0  0  0  0  0  0  0  0  0
   -3.2804   12.8841  -31.9303 C   0  0  0  0  0  0  0  0  0  0  0  0
   -4.1287   13.5894  -26.9686 C   0  0  0  0  0  0  0  0  0  0  0  0
   -5.5603   13.4529  -27.4415 C   0  0  0  0  0  0  0  0  0  0  0  0
   -3.5550   15.0975  -31.0929 O   0  0  0  0  0  0  0  0  0  0  0  0
   -7.2455   10.0975  -29.0372 O   0  0  0  0  0  0  0  0  0  0  0  0
   -5.7959   12.0994  -27.8245 O   0  0  0  0  0  0  0  0  0  0  0  0
   -7.0099    9.0718  -31.9649 Br  0  0  0  0  0  0  0  0  0  0  0  0
  1  3  2  0
  1  4  1  0
  2  3  1  0
  2  6  2  0
  3 10  1  0
  4  5  2  0
  4 15  1  0
  5  6  1  0
  5 14  1  0
  6 16  1  0
  7 10  1  0
  7 13  2  0
  8  9  1  0
  8 10  1  0
  9 10  1  0
 11 12  1  0
 12 15  1  0
M  END
>  <id>  (213) 
EN300-1920224

>  <smiles>  (213) 
CCOC=1C=C(C=C(Br)C1O)C2(CC2)C=O

>  <IUPAC Name>  (213) 
1-(3-bromo-5-ethoxy-4-hydroxyphenyl)cyclopropane-1-carbaldehyde

>  <CAS>  (213) 
2228179-68-6

>  <URL>  (213) 
https://www.enaminestore.com/catalog/EN300-1920224

>  <ROCS_ShapeQuery>  (213) 
_x1604L0AP1_x0771L0AP1

>  <ROCS_TanimotoCombo>  (213) 
0.954 

>  <ROCS_ShapeTanimoto>  (213) 
0.503 

>  <ROCS_ColorTanimoto>  (213) 
0.451 

>  <ROCS_RefTversky>  (213) 
0.482 

>  <ROCS_RefColorTversky>  (213) 
0.513 

>  <ROCS_RefTverskyCombo>  (213) 
0.995 

>  <ROCS_FitTversky>  (213) 
1.096 

>  <ROCS_FitColorTversky>  (213) 
0.789 

>  <ROCS_FitTverskyCombo>  (213) 
1.885 

>  <ROCS_ColorScore>  (213) 
-4.881

>  <ROCS_Overlap>  (213) 
811.209

>  <ROCS_Rank>  (213) 
346                 

$$$$
untitled-dbase-677_5
     RDKit          3D

 13 14  0  0  0  0  0  0  0  0999 V2000
   -6.6821   11.0796  -35.0538 C   0  0  0  0  0  0  0  0  0  0  0  0
   -5.8137   10.9799  -34.2310 C   0  0  0  0  0  0  0  0  0  0  0  0
   -4.6134   12.4991  -29.8517 C   0  0  0  0  0  0  0  0  0  0  0  0
   -4.3594   12.1831  -31.1863 C   0  0  0  0  0  0  0  0  0  0  0  0
   -5.5816   11.7913  -29.1394 C   0  0  0  0  0  0  0  0  0  0  0  0
   -5.0737   11.1594  -31.8087 C   0  0  0  0  0  0  0  0  0  0  0  0
   -6.2960   10.7677  -29.7619 C   0  0  0  0  0  0  0  0  0  0  0  0
   -6.0420   10.4517  -31.0965 C   0  0  0  0  0  0  0  0  0  0  0  0
   -3.7313    9.7704  -33.5044 C   0  0  0  0  0  0  0  0  0  0  0  0
   -3.3600   11.2002  -33.7232 C   0  0  0  0  0  0  0  0  0  0  0  0
   -4.7679   10.8598  -33.2408 C   0  0  0  0  0  0  0  0  0  0  0  0
   -7.2363   10.1003  -29.0342 O   0  0  0  0  0  0  0  0  0  0  0  0
   -7.0290    9.0561  -31.9346 Br  0  0  0  0  0  0  0  0  0  0  0  0
  1  2  3  0
  2 11  1  0
  3  4  2  0
  3  5  1  0
  4  6  1  0
  5  7  2  0
  6  8  2  0
  6 11  1  0
  7  8  1  0
  7 12  1  0
  8 13  1  0
  9 10  1  0
  9 11  1  0
 10 11  1  0
M  END
>  <id>  (214) 
EN300-1904556

>  <smiles>  (214) 
OC=1C=CC=C(C1Br)C2(CC2)C#C

>  <IUPAC Name>  (214) 
2-bromo-3-(1-ethynylcyclopropyl)phenol

>  <CAS>  (214) 
2228472-31-7

>  <URL>  (214) 
https://www.enaminestore.com/catalog/EN300-1904556

>  <ROCS_ShapeQuery>  (214) 
_x1604L0AP1_x0771L0AP1

>  <ROCS_TanimotoCombo>  (214) 
0.954 

>  <ROCS_ShapeTanimoto>  (214) 
0.457 

>  <ROCS_ColorTanimoto>  (214) 
0.497 

>  <ROCS_RefTversky>  (214) 
0.429 

>  <ROCS_RefColorTversky>  (214) 
0.516 

>  <ROCS_RefTverskyCombo>  (214) 
0.945 

>  <ROCS_FitTversky>  (214) 
1.166 

>  <ROCS_FitColorTversky>  (214) 
0.933 

>  <ROCS_FitTverskyCombo>  (214) 
2.099 

>  <ROCS_ColorScore>  (214) 
-4.882

>  <ROCS_Overlap>  (214) 
719.260

>  <ROCS_Rank>  (214) 
348                 

$$$$
untitled-dbase-2089_71
     RDKit          3D

 15 15  0  0  1  0  0  0  0  0999 V2000
   -4.6039   12.4858  -29.8742 C   0  0  0  0  0  0  0  0  0  0  0  0
   -4.3578   12.1598  -31.2078 C   0  0  0  0  0  0  0  0  0  0  0  0
   -5.5726   11.7878  -29.1529 C   0  0  0  0  0  0  0  0  0  0  0  0
   -5.0803   11.1359  -31.8203 C   0  0  0  0  0  0  0  0  0  0  0  0
   -6.2952   10.7639  -29.7654 C   0  0  0  0  0  0  0  0  0  0  0  0
   -6.0491   10.4379  -31.0991 C   0  0  0  0  0  0  0  0  0  0  0  0
   -5.5152   12.8658  -34.6222 C   0  0  0  0  0  0  0  0  0  0  0  0
   -4.7756   10.8222  -33.2673 C   0  0  0  0  0  0  0  0  0  0  0  0
   -5.7625   10.5744  -35.6206 C   0  0  0  0  0  0  0  0  0  0  0  0
   -5.7701   11.3828  -34.3171 C   0  0  2  0  0  0  0  0  0  0  0  0
   -7.1156   11.2891  -33.7218 N   0  0  0  0  0  0  0  0  0  0  0  0
   -7.2344   10.1043  -29.0292 O   0  0  0  0  0  0  0  0  0  0  0  0
   -6.0263    9.2673  -35.3686 F   0  0  0  0  0  0  0  0  0  0  0  0
   -6.7415   11.0136  -36.4539 F   0  0  0  0  0  0  0  0  0  0  0  0
   -7.0408    9.0389  -31.9239 Br  0  0  0  0  0  0  0  0  0  0  0  0
  1  2  2  0
  1  3  1  0
  2  4  1  0
  3  5  2  0
  4  6  2  0
  4  8  1  0
  5  6  1  0
  5 12  1  0
  6 15  1  0
 10  7  1  6
  8 10  1  0
  9 10  1  0
  9 13  1  0
  9 14  1  0
 10 11  1  0
M  END
>  <id>  (215) 
EN300-1951059

>  <smiles>  (215) 
CC(N)(CC=1C=CC=C(O)C1Br)C(F)F

>  <IUPAC Name>  (215) 
3-(2-amino-3,3-difluoro-2-methylpropyl)-2-bromophenol

>  <CAS>  (215) 
2228138-83-6

>  <URL>  (215) 
https://www.enaminestore.com/catalog/EN300-1951059

>  <ROCS_ShapeQuery>  (215) 
_x1604L0AP1_x0771L0AP1

>  <ROCS_TanimotoCombo>  (215) 
0.954 

>  <ROCS_ShapeTanimoto>  (215) 
0.502 

>  <ROCS_ColorTanimoto>  (215) 
0.451 

>  <ROCS_RefTversky>  (215) 
0.472 

>  <ROCS_RefColorTversky>  (215) 
0.513 

>  <ROCS_RefTverskyCombo>  (215) 
0.985 

>  <ROCS_FitTversky>  (215) 
1.147 

>  <ROCS_FitColorTversky>  (215) 
0.789 

>  <ROCS_FitTverskyCombo>  (215) 
1.936 

>  <ROCS_ColorScore>  (215) 
-4.881

>  <ROCS_Overlap>  (215) 
793.243

>  <ROCS_Rank>  (215) 
352                 

$$$$
untitled-dbase-1545_1
     RDKit          3D

 11 11  0  0  0  0  0  0  0  0999 V2000
   -4.5778   12.4739  -29.8649 C   0  0  0  0  0  0  0  0  0  0  0  0
   -5.0635   11.1256  -31.8099 C   0  0  0  0  0  0  0  0  0  0  0  0
   -5.5548   11.7869  -29.1445 C   0  0  0  0  0  0  0  0  0  0  0  0
   -4.3322   12.1434  -31.1976 C   0  0  0  0  0  0  0  0  0  0  0  0
   -6.2861   10.7691  -29.7568 C   0  0  0  0  0  0  0  0  0  0  0  0
   -6.0406   10.4385  -31.0895 C   0  0  0  0  0  0  0  0  0  0  0  0
   -5.7918   12.1505  -27.7541 C   0  0  0  0  0  0  0  0  0  0  0  0
   -3.2878   12.8785  -31.9676 C   0  0  0  0  0  0  0  0  0  0  0  0
   -6.6360   11.5937  -27.0489 O   0  0  0  0  0  0  0  0  0  0  0  0
   -7.2393   10.1038  -29.0409 O   0  0  0  0  0  0  0  0  0  0  0  0
   -7.0124    9.0605  -31.9565 Br  0  0  0  0  0  0  0  0  0  0  0  0
  1  3  2  0
  1  4  1  0
  2  4  2  0
  2  6  1  0
  3  5  1  0
  3  7  1  0
  4  8  1  0
  5  6  2  0
  5 10  1  0
  6 11  1  0
  7  9  2  0
M  END
>  <id>  (216) 
EN300-129716

>  <smiles>  (216) 
CC=1C=C(Br)C(O)=C(C=O)C1

>  <MDLNUMBER>  (216) 
MFCD00275688

>  <IUPAC Name>  (216) 
3-bromo-2-hydroxy-5-methylbenzaldehyde

>  <CAS>  (216) 
33172-54-2

>  <Purity>  (216) 
95

>  <URL>  (216) 
https://www.enaminestore.com/catalog/EN300-129716

>  <ROCS_ShapeQuery>  (216) 
_x1604L0AP1_x0771L0AP1

>  <ROCS_TanimotoCombo>  (216) 
0.954 

>  <ROCS_ShapeTanimoto>  (216) 
0.456 

>  <ROCS_ColorTanimoto>  (216) 
0.497 

>  <ROCS_RefTversky>  (216) 
0.412 

>  <ROCS_RefColorTversky>  (216) 
0.516 

>  <ROCS_RefTverskyCombo>  (216) 
0.928 

>  <ROCS_FitTversky>  (216) 
1.305 

>  <ROCS_FitColorTversky>  (216) 
0.933 

>  <ROCS_FitTverskyCombo>  (216) 
2.238 

>  <ROCS_ColorScore>  (216) 
-4.884

>  <ROCS_Overlap>  (216) 
688.910

>  <ROCS_Rank>  (216) 
353                 

$$$$
untitled-dbase-1548_1
     RDKit          3D

 12 12  0  0  0  0  0  0  0  0999 V2000
   -4.5927   12.4765  -29.8343 C   0  0  0  0  0  0  0  0  0  0  0  0
   -5.5721   11.7797  -29.1267 C   0  0  0  0  0  0  0  0  0  0  0  0
   -5.0589   11.1421  -31.7937 C   0  0  0  0  0  0  0  0  0  0  0  0
   -4.3361   12.1577  -31.1679 C   0  0  0  0  0  0  0  0  0  0  0  0
   -6.2949   10.7640  -29.7525 C   0  0  0  0  0  0  0  0  0  0  0  0
   -6.0383   10.4452  -31.0860 C   0  0  0  0  0  0  0  0  0  0  0  0
   -3.3144   12.8845  -31.9048 C   0  0  0  0  0  0  0  0  0  0  0  0
   -2.7060   12.4535  -33.0307 C   0  0  0  0  0  0  0  0  0  0  0  0
   -1.6751   13.2985  -33.6665 C   0  0  0  0  0  0  0  0  0  0  0  0
   -1.0945   12.9527  -34.6884 O   0  0  0  0  0  0  0  0  0  0  0  0
   -7.2436   10.1007  -29.0325 O   0  0  0  0  0  0  0  0  0  0  0  0
   -6.9998    9.0696  -31.9671 Br  0  0  0  0  0  0  0  0  0  0  0  0
  1  2  2  0
  1  4  1  0
  2  5  1  0
  3  4  2  0
  3  6  1  0
  4  7  1  0
  5  6  2  0
  5 11  1  0
  6 12  1  0
  7  8  2  3
  8  9  1  0
  9 10  2  0
M  END
>  <id>  (217) 
EN300-1906367

>  <smiles>  (217) 
OC=1C=CC(C=CC=O)=CC1Br

>  <IUPAC Name>  (217) 
3-(3-bromo-4-hydroxyphenyl)prop-2-enal

>  <CAS>  (217) 
1629719-82-9

>  <URL>  (217) 
https://www.enaminestore.com/catalog/EN300-1906367

>  <ROCS_ShapeQuery>  (217) 
_x1604L0AP1_x0771L0AP1

>  <ROCS_TanimotoCombo>  (217) 
0.954 

>  <ROCS_ShapeTanimoto>  (217) 
0.457 

>  <ROCS_ColorTanimoto>  (217) 
0.497 

>  <ROCS_RefTversky>  (217) 
0.419 

>  <ROCS_RefColorTversky>  (217) 
0.515 

>  <ROCS_RefTverskyCombo>  (217) 
0.935 

>  <ROCS_FitTversky>  (217) 
1.245 

>  <ROCS_FitColorTversky>  (217) 
0.932 

>  <ROCS_FitTverskyCombo>  (217) 
2.177 

>  <ROCS_ColorScore>  (217) 
-4.878

>  <ROCS_Overlap>  (217) 
701.453

>  <ROCS_Rank>  (217) 
354                 

$$$$
untitled-dbase-1924_0
     RDKit          3D

 11 11  0  0  0  0  0  0  0  0999 V2000
   -4.3444   12.1451  -31.2205 C   0  0  0  0  0  0  0  0  0  0  0  0
   -5.0760   11.1231  -31.8254 C   0  0  0  0  0  0  0  0  0  0  0  0
   -5.5555   11.7925  -29.1599 C   0  0  0  0  0  0  0  0  0  0  0  0
   -6.2871   10.7705  -29.7648 C   0  0  0  0  0  0  0  0  0  0  0  0
   -4.5841   12.4798  -29.8877 C   0  0  0  0  0  0  0  0  0  0  0  0
   -6.0473   10.4358  -31.0975 C   0  0  0  0  0  0  0  0  0  0  0  0
   -5.7900   12.1571  -27.7690 C   0  0  0  0  0  0  0  0  0  0  0  0
   -6.6297   11.5975  -27.0608 O   0  0  0  0  0  0  0  0  0  0  0  0
   -7.2352   10.1050  -29.0423 O   0  0  0  0  0  0  0  0  0  0  0  0
   -3.8739   13.4635  -29.3173 F   0  0  0  0  0  0  0  0  0  0  0  0
   -7.0203    9.0539  -31.9561 Br  0  0  0  0  0  0  0  0  0  0  0  0
  1  2  2  0
  1  5  1  0
  2  6  1  0
  3  4  1  0
  3  5  2  0
  3  7  1  0
  4  6  2  0
  4  9  1  0
  5 10  1  0
  6 11  1  0
  7  8  2  0
M  END
>  <id>  (218) 
EN300-306187

>  <smiles>  (218) 
OC=1C(Br)=CC=C(F)C1C=O

>  <MDLNUMBER>  (218) 
MFCD20528359

>  <IUPAC Name>  (218) 
3-bromo-6-fluoro-2-hydroxybenzaldehyde

>  <CAS>  (218) 
199287-82-6

>  <Purity>  (218) 
95

>  <URL>  (218) 
https://www.enaminestore.com/catalog/EN300-306187

>  <ROCS_ShapeQuery>  (218) 
_x1604L0AP1_x0771L0AP1

>  <ROCS_TanimotoCombo>  (218) 
0.954 

>  <ROCS_ShapeTanimoto>  (218) 
0.456 

>  <ROCS_ColorTanimoto>  (218) 
0.497 

>  <ROCS_RefTversky>  (218) 
0.414 

>  <ROCS_RefColorTversky>  (218) 
0.516 

>  <ROCS_RefTverskyCombo>  (218) 
0.930 

>  <ROCS_FitTversky>  (218) 
1.289 

>  <ROCS_FitColorTversky>  (218) 
0.932 

>  <ROCS_FitTverskyCombo>  (218) 
2.222 

>  <ROCS_ColorScore>  (218) 
-4.883

>  <ROCS_Overlap>  (218) 
692.094

>  <ROCS_Rank>  (218) 
355                 

$$$$
untitled-dbase-631_1
     RDKit          3D

 11 11  0  0  0  0  0  0  0  0999 V2000
   -4.3466   12.1472  -31.2238 C   0  0  0  0  0  0  0  0  0  0  0  0
   -5.0774   11.1235  -31.8267 C   0  0  0  0  0  0  0  0  0  0  0  0
   -5.5569   11.7973  -29.1623 C   0  0  0  0  0  0  0  0  0  0  0  0
   -4.5863   12.4841  -29.8916 C   0  0  0  0  0  0  0  0  0  0  0  0
   -6.2878   10.7736  -29.7652 C   0  0  0  0  0  0  0  0  0  0  0  0
   -6.0480   10.4367  -31.0974 C   0  0  0  0  0  0  0  0  0  0  0  0
   -5.8084   12.1473  -27.7685 C   0  0  0  0  0  0  0  0  0  0  0  0
   -3.7872   13.5849  -29.2730 C   0  0  0  0  0  0  0  0  0  0  0  0
   -6.1989   11.3305  -26.9334 O   0  0  0  0  0  0  0  0  0  0  0  0
   -7.2351   10.1069  -29.0428 O   0  0  0  0  0  0  0  0  0  0  0  0
   -7.0207    9.0528  -31.9536 Br  0  0  0  0  0  0  0  0  0  0  0  0
  1  2  2  0
  1  4  1  0
  2  6  1  0
  3  4  2  0
  3  5  1  0
  3  7  1  0
  4  8  1  0
  5  6  2  0
  5 10  1  0
  6 11  1  0
  7  9  2  0
M  END
>  <id>  (219) 
EN300-180454

>  <smiles>  (219) 
CC=1C=CC(Br)=C(O)C1C=O

>  <MDLNUMBER>  (219) 
MFCD16657857

>  <IUPAC Name>  (219) 
3-bromo-2-hydroxy-6-methylbenzaldehyde

>  <CAS>  (219) 
160561-95-5

>  <Purity>  (219) 
95

>  <URL>  (219) 
https://www.enaminestore.com/catalog/EN300-180454

>  <ROCS_ShapeQuery>  (219) 
_x1604L0AP1_x0771L0AP1

>  <ROCS_TanimotoCombo>  (219) 
0.954 

>  <ROCS_ShapeTanimoto>  (219) 
0.456 

>  <ROCS_ColorTanimoto>  (219) 
0.497 

>  <ROCS_RefTversky>  (219) 
0.413 

>  <ROCS_RefColorTversky>  (219) 
0.516 

>  <ROCS_RefTverskyCombo>  (219) 
0.929 

>  <ROCS_FitTversky>  (219) 
1.300 

>  <ROCS_FitColorTversky>  (219) 
0.933 

>  <ROCS_FitTverskyCombo>  (219) 
2.233 

>  <ROCS_ColorScore>  (219) 
-4.882

>  <ROCS_Overlap>  (219) 
690.063

>  <ROCS_Rank>  (219) 
356                 

$$$$
untitled-dbase-699_205
     RDKit          3D

 15 15  0  0  1  0  0  0  0  0999 V2000
   -4.5808   12.4657  -29.8491 C   0  0  0  0  0  0  0  0  0  0  0  0
   -5.0594   11.1240  -31.8004 C   0  0  0  0  0  0  0  0  0  0  0  0
   -4.3297   12.1391  -31.1817 C   0  0  0  0  0  0  0  0  0  0  0  0
   -5.5616   11.7772  -29.1351 C   0  0  0  0  0  0  0  0  0  0  0  0
   -6.2912   10.7620  -29.7538 C   0  0  0  0  0  0  0  0  0  0  0  0
   -6.0401   10.4354  -31.0864 C   0  0  0  0  0  0  0  0  0  0  0  0
   -5.0047   13.1575  -27.2803 C   0  0  0  0  0  0  0  0  0  0  0  0
   -3.2818   12.8762  -31.9449 C   0  0  2  0  0  0  0  0  0  0  0  0
   -2.5623   13.9348  -31.0961 C   0  0  0  0  0  0  0  0  0  0  0  0
   -3.8251   13.5272  -33.1512 N   0  0  0  0  0  0  0  0  0  0  0  0
   -7.2470   10.1007  -29.0391 O   0  0  0  0  0  0  0  0  0  0  0  0
   -5.7957   12.1081  -27.8344 O   0  0  0  0  0  0  0  0  0  0  0  0
   -3.4763   14.8214  -30.6216 F   0  0  0  0  0  0  0  0  0  0  0  0
   -1.9963   13.3598  -30.0024 F   0  0  0  0  0  0  0  0  0  0  0  0
   -7.0112    9.0621  -31.9611 Br  0  0  0  0  0  0  0  0  0  0  0  0
  1  3  2  0
  1  4  1  0
  2  3  1  0
  2  6  2  0
  3  8  1  0
  4  5  2  0
  4 12  1  0
  5  6  1  0
  5 11  1  0
  6 15  1  0
  7 12  1  0
  8  9  1  0
  8 10  1  6
  9 13  1  0
  9 14  1  0
M  END
>  <id>  (220) 
EN300-1933366

>  <smiles>  (220) 
COC=1C=C(C=C(Br)C1O)C(N)C(F)F

>  <MDLNUMBER>  (220) 
MFCD26141217

>  <IUPAC Name>  (220) 
4-(1-amino-2,2-difluoroethyl)-2-bromo-6-methoxyphenol

>  <CAS>  (220) 
1823067-68-0

>  <URL>  (220) 
https://www.enaminestore.com/catalog/EN300-1933366

>  <ROCS_ShapeQuery>  (220) 
_x1604L0AP1_x0771L0AP1

>  <ROCS_TanimotoCombo>  (220) 
0.953 

>  <ROCS_ShapeTanimoto>  (220) 
0.541 

>  <ROCS_ColorTanimoto>  (220) 
0.413 

>  <ROCS_RefTversky>  (220) 
0.496 

>  <ROCS_RefColorTversky>  (220) 
0.510 

>  <ROCS_RefTverskyCombo>  (220) 
1.006 

>  <ROCS_FitTversky>  (220) 
1.199 

>  <ROCS_FitColorTversky>  (220) 
0.684 

>  <ROCS_FitTverskyCombo>  (220) 
1.883 

>  <ROCS_ColorScore>  (220) 
-4.881

>  <ROCS_Overlap>  (220) 
833.366

>  <ROCS_Rank>  (220) 
359                 

$$$$
untitled-dbase-2221_0
     RDKit          3D

 10 10  0  0  0  0  0  0  0  0999 V2000
   -4.5789   12.4827  -29.8630 C   0  0  0  0  0  0  0  0  0  0  0  0
   -5.0678   11.1315  -31.8053 C   0  0  0  0  0  0  0  0  0  0  0  0
   -6.2856   10.7766  -29.7491 C   0  0  0  0  0  0  0  0  0  0  0  0
   -5.5537   11.7957  -29.1397 C   0  0  0  0  0  0  0  0  0  0  0  0
   -4.3359   12.1506  -31.1959 C   0  0  0  0  0  0  0  0  0  0  0  0
   -6.0427   10.4445  -31.0819 C   0  0  0  0  0  0  0  0  0  0  0  0
   -7.2404   10.1016  -29.0429 O   0  0  0  0  0  0  0  0  0  0  0  0
   -5.8309   12.2533  -27.4332 S   0  0  0  0  0  0  0  0  0  0  0  0
   -3.1337   12.9989  -32.0889 Cl  0  0  0  0  0  0  0  0  0  0  0  0
   -7.0140    9.0654  -31.9484 Br  0  0  0  0  0  0  0  0  0  0  0  0
  1  4  2  0
  1  5  1  0
  2  5  2  0
  2  6  1  0
  3  4  1  0
  3  6  2  0
  3  7  1  0
  4  8  1  0
  5  9  1  0
  6 10  1  0
M  END
>  <id>  (221) 
EN300-1922930

>  <smiles>  (221) 
OC=1C(S)=CC(Cl)=CC1Br

>  <MDLNUMBER>  (221) 
MFCD33499566

>  <IUPAC Name>  (221) 
2-bromo-4-chloro-6-sulfanylphenol

>  <CAS>  (221) 
2228496-47-5

>  <URL>  (221) 
https://www.enaminestore.com/catalog/EN300-1922930

>  <ROCS_ShapeQuery>  (221) 
_x1604L0AP1_x0771L0AP1

>  <ROCS_TanimotoCombo>  (221) 
0.953 

>  <ROCS_ShapeTanimoto>  (221) 
0.456 

>  <ROCS_ColorTanimoto>  (221) 
0.497 

>  <ROCS_RefTversky>  (221) 
0.401 

>  <ROCS_RefColorTversky>  (221) 
0.516 

>  <ROCS_RefTverskyCombo>  (221) 
0.917 

>  <ROCS_FitTversky>  (221) 
1.429 

>  <ROCS_FitColorTversky>  (221) 
0.933 

>  <ROCS_FitTverskyCombo>  (221) 
2.362 

>  <ROCS_ColorScore>  (221) 
-4.882

>  <ROCS_Overlap>  (221) 
669.093

>  <ROCS_Rank>  (221) 
364                 

$$$$
untitled-dbase-1951_464
     RDKit          3D

 15 15  0  0  1  0  0  0  0  0999 V2000
   -4.5808   12.4663  -29.8492 C   0  0  0  0  0  0  0  0  0  0  0  0
   -5.0582   11.1235  -31.8000 C   0  0  0  0  0  0  0  0  0  0  0  0
   -4.3289   12.1390  -31.1815 C   0  0  0  0  0  0  0  0  0  0  0  0
   -5.5619   11.7780  -29.1354 C   0  0  0  0  0  0  0  0  0  0  0  0
   -6.2911   10.7625  -29.7539 C   0  0  0  0  0  0  0  0  0  0  0  0
   -6.0393   10.4352  -31.0863 C   0  0  0  0  0  0  0  0  0  0  0  0
   -5.0061   13.1593  -27.2809 C   0  0  0  0  0  0  0  0  0  0  0  0
   -3.2806   12.8758  -31.9445 C   0  0  2  0  0  0  0  0  0  0  0  0
   -2.6139   13.9780  -31.1225 C   0  0  0  0  0  0  0  0  0  0  0  0
   -7.2473   10.1015  -29.0394 O   0  0  0  0  0  0  0  0  0  0  0  0
   -3.8406   13.4557  -33.1289 O   0  0  0  0  0  0  0  0  0  0  0  0
   -5.7967   12.1095  -27.8350 O   0  0  0  0  0  0  0  0  0  0  0  0
   -2.0512   13.4588  -30.0035 F   0  0  0  0  0  0  0  0  0  0  0  0
   -3.5459   14.8738  -30.7073 F   0  0  0  0  0  0  0  0  0  0  0  0
   -7.0098    9.0614  -31.9609 Br  0  0  0  0  0  0  0  0  0  0  0  0
  1  3  2  0
  1  4  1  0
  2  3  1  0
  2  6  2  0
  3  8  1  0
  4  5  2  0
  4 12  1  0
  5  6  1  0
  5 10  1  0
  6 15  1  0
  7 12  1  0
  8  9  1  0
  8 11  1  6
  9 13  1  0
  9 14  1  0
M  END
>  <id>  (222) 
EN300-1931408

>  <smiles>  (222) 
COC=1C=C(C=C(Br)C1O)C(O)C(F)F

>  <MDLNUMBER>  (222) 
MFCD23943833

>  <IUPAC Name>  (222) 
2-bromo-4-(2,2-difluoro-1-hydroxyethyl)-6-methoxyphenol

>  <CAS>  (222) 
1536105-55-1

>  <URL>  (222) 
https://www.enaminestore.com/catalog/EN300-1931408

>  <ROCS_ShapeQuery>  (222) 
_x1604L0AP1_x0771L0AP1

>  <ROCS_TanimotoCombo>  (222) 
0.953 

>  <ROCS_ShapeTanimoto>  (222) 
0.540 

>  <ROCS_ColorTanimoto>  (222) 
0.413 

>  <ROCS_RefTversky>  (222) 
0.497 

>  <ROCS_RefColorTversky>  (222) 
0.510 

>  <ROCS_RefTverskyCombo>  (222) 
1.007 

>  <ROCS_FitTversky>  (222) 
1.193 

>  <ROCS_FitColorTversky>  (222) 
0.684 

>  <ROCS_FitTverskyCombo>  (222) 
1.877 

>  <ROCS_ColorScore>  (222) 
-4.881

>  <ROCS_Overlap>  (222) 
834.572

>  <ROCS_Rank>  (222) 
366                 

$$$$
untitled-dbase-557_61
     RDKit          3D

 12 12  0  0  1  0  0  0  0  0999 V2000
   -4.6009   12.4876  -29.8529 C   0  0  0  0  0  0  0  0  0  0  0  0
   -4.3489   12.1707  -31.1876 C   0  0  0  0  0  0  0  0  0  0  0  0
   -5.5719   11.7841  -29.1402 C   0  0  0  0  0  0  0  0  0  0  0  0
   -5.0681   11.1503  -31.8099 C   0  0  0  0  0  0  0  0  0  0  0  0
   -6.2911   10.7636  -29.7625 C   0  0  0  0  0  0  0  0  0  0  0  0
   -6.0392   10.4467  -31.0973 C   0  0  0  0  0  0  0  0  0  0  0  0
   -5.4254   11.3257  -35.5037 C   0  0  0  0  0  0  0  0  0  0  0  0
   -4.7606   10.8498  -33.2417 C   0  0  0  0  0  0  0  0  0  0  0  0
   -5.3087   11.8368  -34.1348 N   0  0  0  0  0  0  0  0  0  0  0  0
   -7.2327   10.0984  -29.0346 O   0  0  0  0  0  0  0  0  0  0  0  0
   -6.6910   12.0173  -33.7076 O   0  0  0  0  0  0  0  0  0  0  0  0
   -7.0263    9.0524  -31.9354 Br  0  0  0  0  0  0  0  0  0  0  0  0
  1  2  2  0
  1  3  1  0
  2  4  1  0
  3  5  2  0
  4  6  2  0
  4  8  1  0
  5  6  1  0
  5 10  1  0
  6 12  1  0
  7  9  1  0
  8  9  1  0
  9 11  1  0
M  END
>  <id>  (223) 
EN300-1904246

>  <smiles>  (223) 
CN(O)CC=1C=CC=C(O)C1Br

>  <IUPAC Name>  (223) 
2-bromo-3-{[hydroxy(methyl)amino]methyl}phenol

>  <CAS>  (223) 
2229475-57-2

>  <URL>  (223) 
https://www.enaminestore.com/catalog/EN300-1904246

>  <ROCS_ShapeQuery>  (223) 
_x1604L0AP1_x0771L0AP1

>  <ROCS_TanimotoCombo>  (223) 
0.953 

>  <ROCS_ShapeTanimoto>  (223) 
0.456 

>  <ROCS_ColorTanimoto>  (223) 
0.497 

>  <ROCS_RefTversky>  (223) 
0.418 

>  <ROCS_RefColorTversky>  (223) 
0.516 

>  <ROCS_RefTverskyCombo>  (223) 
0.934 

>  <ROCS_FitTversky>  (223) 
1.241 

>  <ROCS_FitColorTversky>  (223) 
0.933 

>  <ROCS_FitTverskyCombo>  (223) 
2.174 

>  <ROCS_ColorScore>  (223) 
-4.883

>  <ROCS_Overlap>  (223) 
700.268

>  <ROCS_Rank>  (223) 
367                 

$$$$
untitled-dbase-299_39
     RDKit          3D

 15 15  0  0  1  0  0  0  0  0999 V2000
   -4.5850   12.4742  -29.8308 C   0  0  0  0  0  0  0  0  0  0  0  0
   -4.3120   12.1456  -31.1585 C   0  0  0  0  0  0  0  0  0  0  0  0
   -5.5726   11.7821  -29.1299 C   0  0  0  0  0  0  0  0  0  0  0  0
   -5.0266   11.1249  -31.7855 C   0  0  0  0  0  0  0  0  0  0  0  0
   -6.2873   10.7614  -29.7569 C   0  0  0  0  0  0  0  0  0  0  0  0
   -6.0143   10.4328  -31.0847 C   0  0  0  0  0  0  0  0  0  0  0  0
   -4.6930   10.8086  -33.2234 C   0  0  0  0  0  0  0  0  0  0  0  0
   -5.5113   11.6102  -34.2525 C   0  0  1  0  0  0  0  0  0  0  0  0
   -7.0149   11.4064  -34.1142 C   0  0  0  0  0  0  0  0  0  0  0  0
   -5.2150   13.0349  -34.0751 N   0  0  0  0  0  0  0  0  0  0  0  0
   -7.2456   10.1076  -29.0405 O   0  0  0  0  0  0  0  0  0  0  0  0
   -7.3699   10.1213  -34.3294 F   0  0  0  0  0  0  0  0  0  0  0  0
   -7.4386   11.7490  -32.8756 F   0  0  0  0  0  0  0  0  0  0  0  0
   -7.7006   12.1743  -34.9894 F   0  0  0  0  0  0  0  0  0  0  0  0
   -6.9955    9.0383  -31.9294 Br  0  0  0  0  0  0  0  0  0  0  0  0
  1  2  2  0
  1  3  1  0
  2  4  1  0
  3  5  2  0
  4  6  2  0
  4  7  1  0
  5  6  1  0
  5 11  1  0
  6 15  1  0
  7  8  1  0
  8  9  1  0
  8 10  1  1
  9 12  1  0
  9 13  1  0
  9 14  1  0
M  END
>  <id>  (224) 
EN300-1951054

>  <smiles>  (224) 
NC(CC=1C=CC=C(O)C1Br)C(F)(F)F

>  <IUPAC Name>  (224) 
3-(2-amino-3,3,3-trifluoropropyl)-2-bromophenol

>  <CAS>  (224) 
2229278-71-9

>  <URL>  (224) 
https://www.enaminestore.com/catalog/EN300-1951054

>  <ROCS_ShapeQuery>  (224) 
_x1604L0AP1_x0771L0AP1

>  <ROCS_TanimotoCombo>  (224) 
0.953 

>  <ROCS_ShapeTanimoto>  (224) 
0.501 

>  <ROCS_ColorTanimoto>  (224) 
0.451 

>  <ROCS_RefTversky>  (224) 
0.473 

>  <ROCS_RefColorTversky>  (224) 
0.513 

>  <ROCS_RefTverskyCombo>  (224) 
0.986 

>  <ROCS_FitTversky>  (224) 
1.138 

>  <ROCS_FitColorTversky>  (224) 
0.789 

>  <ROCS_FitTverskyCombo>  (224) 
1.927 

>  <ROCS_ColorScore>  (224) 
-4.883

>  <ROCS_Overlap>  (224) 
794.222

>  <ROCS_Rank>  (224) 
369                 

$$$$
untitled-dbase-1165_380
     RDKit          3D

 15 15  0  0  0  0  0  0  0  0999 V2000
   -4.6043   12.4892  -29.8545 C   0  0  0  0  0  0  0  0  0  0  0  0
   -5.0753   11.1429  -31.8044 C   0  0  0  0  0  0  0  0  0  0  0  0
   -4.3539   12.1651  -31.1878 C   0  0  0  0  0  0  0  0  0  0  0  0
   -5.5761   11.7910  -29.1376 C   0  0  0  0  0  0  0  0  0  0  0  0
   -6.2975   10.7688  -29.7542 C   0  0  0  0  0  0  0  0  0  0  0  0
   -6.0471   10.4447  -31.0876 C   0  0  0  0  0  0  0  0  0  0  0  0
   -2.6143   13.9969  -31.1475 C   0  0  0  0  0  0  0  0  0  0  0  0
   -3.2704   15.3535  -31.1304 C   0  0  0  0  0  0  0  0  0  0  0  0
   -4.4179   13.3558  -26.3305 C   0  0  0  0  0  0  0  0  0  0  0  0
   -3.3155   12.9125  -31.9541 C   0  0  0  0  0  0  0  0  0  0  0  0
   -4.7145   11.9980  -26.9306 C   0  0  0  0  0  0  0  0  0  0  0  0
   -1.5665   13.7948  -30.5352 O   0  0  0  0  0  0  0  0  0  0  0  0
   -7.2446   10.0981  -29.0367 O   0  0  0  0  0  0  0  0  0  0  0  0
   -5.8096   12.1196  -27.8362 O   0  0  0  0  0  0  0  0  0  0  0  0
   -7.0072    9.0619  -31.9595 Br  0  0  0  0  0  0  0  0  0  0  0  0
  1  3  2  0
  1  4  1  0
  2  3  1  0
  2  6  2  0
  3 10  1  0
  4  5  2  0
  4 14  1  0
  5  6  1  0
  5 13  1  0
  6 15  1  0
  7  8  1  0
  7 10  1  0
  7 12  2  0
  9 11  1  0
 11 14  1  0
M  END
>  <id>  (225) 
EN300-1920211

>  <smiles>  (225) 
CCOC=1C=C(CC(=O)C)C=C(Br)C1O

>  <IUPAC Name>  (225) 
1-(3-bromo-5-ethoxy-4-hydroxyphenyl)propan-2-one

>  <CAS>  (225) 
2229287-61-8

>  <URL>  (225) 
https://www.enaminestore.com/catalog/EN300-1920211

>  <ROCS_ShapeQuery>  (225) 
_x1604L0AP1_x0771L0AP1

>  <ROCS_TanimotoCombo>  (225) 
0.953 

>  <ROCS_ShapeTanimoto>  (225) 
0.502 

>  <ROCS_ColorTanimoto>  (225) 
0.451 

>  <ROCS_RefTversky>  (225) 
0.470 

>  <ROCS_RefColorTversky>  (225) 
0.513 

>  <ROCS_RefTverskyCombo>  (225) 
0.983 

>  <ROCS_FitTversky>  (225) 
1.152 

>  <ROCS_FitColorTversky>  (225) 
0.789 

>  <ROCS_FitTverskyCombo>  (225) 
1.941 

>  <ROCS_ColorScore>  (225) 
-4.881

>  <ROCS_Overlap>  (225) 
789.964

>  <ROCS_Rank>  (225) 
370                 

$$$$
untitled-dbase-863_91
     RDKit          3D

 12 12  0  0  0  0  0  0  0  0999 V2000
   -4.5959   12.4812  -29.8253 C   0  0  0  0  0  0  0  0  0  0  0  0
   -5.5752   11.7816  -29.1203 C   0  0  0  0  0  0  0  0  0  0  0  0
   -5.0595   11.1520  -31.7887 C   0  0  0  0  0  0  0  0  0  0  0  0
   -4.3380   12.1665  -31.1595 C   0  0  0  0  0  0  0  0  0  0  0  0
   -6.2966   10.7671  -29.7495 C   0  0  0  0  0  0  0  0  0  0  0  0
   -6.0388   10.4522  -31.0837 C   0  0  0  0  0  0  0  0  0  0  0  0
   -2.7902   10.9648  -33.4565 C   0  0  0  0  0  0  0  0  0  0  0  0
   -3.2907   12.9151  -31.9121 C   0  0  0  0  0  0  0  0  0  0  0  0
   -3.1545   12.4266  -33.3573 C   0  0  0  0  0  0  0  0  0  0  0  0
   -2.0956   10.3606  -32.6466 O   0  0  0  0  0  0  0  0  0  0  0  0
   -7.2457   10.1012  -29.0324 O   0  0  0  0  0  0  0  0  0  0  0  0
   -6.9986    9.0789  -31.9700 Br  0  0  0  0  0  0  0  0  0  0  0  0
  1  2  2  0
  1  4  1  0
  2  5  1  0
  3  4  2  0
  3  6  1  0
  4  8  1  0
  5  6  2  0
  5 11  1  0
  6 12  1  0
  7  9  1  0
  7 10  2  0
  8  9  1  0
M  END
>  <id>  (226) 
EN300-1896934

>  <smiles>  (226) 
OC=1C=CC(CCC=O)=CC1Br

>  <MDLNUMBER>  (226) 
MFCD18391533

>  <IUPAC Name>  (226) 
3-(3-bromo-4-hydroxyphenyl)propanal

>  <CAS>  (226) 
1261515-12-1

>  <URL>  (226) 
https://www.enaminestore.com/catalog/EN300-1896934

>  <ROCS_ShapeQuery>  (226) 
_x1604L0AP1_x0771L0AP1

>  <ROCS_TanimotoCombo>  (226) 
0.952 

>  <ROCS_ShapeTanimoto>  (226) 
0.456 

>  <ROCS_ColorTanimoto>  (226) 
0.497 

>  <ROCS_RefTversky>  (226) 
0.418 

>  <ROCS_RefColorTversky>  (226) 
0.515 

>  <ROCS_RefTverskyCombo>  (226) 
0.933 

>  <ROCS_FitTversky>  (226) 
1.252 

>  <ROCS_FitColorTversky>  (226) 
0.932 

>  <ROCS_FitTverskyCombo>  (226) 
2.184 

>  <ROCS_ColorScore>  (226) 
-4.877

>  <ROCS_Overlap>  (226) 
698.533

>  <ROCS_Rank>  (226) 
371                 

$$$$
untitled-dbase-9_0
     RDKit          3D

 11 11  0  0  0  0  0  0  0  0999 V2000
   -4.5821   12.4651  -29.8251 C   0  0  0  0  0  0  0  0  0  0  0  0
   -5.5670   11.7728  -29.1206 C   0  0  0  0  0  0  0  0  0  0  0  0
   -5.0489   11.1335  -31.7862 C   0  0  0  0  0  0  0  0  0  0  0  0
   -4.3230   12.1454  -31.1579 C   0  0  0  0  0  0  0  0  0  0  0  0
   -6.2928   10.7608  -29.7489 C   0  0  0  0  0  0  0  0  0  0  0  0
   -6.0338   10.4411  -31.0817 C   0  0  0  0  0  0  0  0  0  0  0  0
   -3.3187   12.8495  -31.8735 N   0  0  0  0  0  0  0  0  0  0  0  0
   -2.6766   13.7548  -31.2882 O   0  0  0  0  0  0  0  0  0  0  0  0
   -3.1010   12.5473  -33.0718 O   0  0  0  0  0  0  0  0  0  0  0  0
   -7.2477   10.1026  -29.0324 O   0  0  0  0  0  0  0  0  0  0  0  0
   -6.9985    9.0698  -31.9658 Br  0  0  0  0  0  0  0  0  0  0  0  0
  1  2  2  0
  1  4  1  0
  2  5  1  0
  3  4  2  0
  3  6  1  0
  4  7  1  0
  5  6  2  0
  5 10  1  0
  6 11  1  0
  7  8  1  0
  7  9  2  0
M  CHG  2   7   1   8  -1
M  END
>  <id>  (227) 
EN300-79098

>  <smiles>  (227) 
OC=1C=CC(=CC1Br)[N+](=O)[O-]

>  <MDLNUMBER>  (227) 
MFCD06656567

>  <IUPAC Name>  (227) 
2-bromo-4-nitrophenol

>  <CAS>  (227) 
5847-59-6

>  <Purity>  (227) 
95

>  <URL>  (227) 
https://www.enaminestore.com/catalog/EN300-79098

>  <MP>  (227) 
113-114

>  <ROCS_ShapeQuery>  (227) 
_x1604L0AP1_x0771L0AP1

>  <ROCS_TanimotoCombo>  (227) 
0.952 

>  <ROCS_ShapeTanimoto>  (227) 
0.502 

>  <ROCS_ColorTanimoto>  (227) 
0.450 

>  <ROCS_RefTversky>  (227) 
0.442 

>  <ROCS_RefColorTversky>  (227) 
0.513 

>  <ROCS_RefTverskyCombo>  (227) 
0.955 

>  <ROCS_FitTversky>  (227) 
1.373 

>  <ROCS_FitColorTversky>  (227) 
0.787 

>  <ROCS_FitTverskyCombo>  (227) 
2.160 

>  <ROCS_ColorScore>  (227) 
-4.878

>  <ROCS_Overlap>  (227) 
738.852

>  <ROCS_Rank>  (227) 
372                 

$$$$
untitled-dbase-364_23
     RDKit          3D

 12 12  0  0  0  0  0  0  0  0999 V2000
   -4.6080   12.4945  -29.8721 C   0  0  0  0  0  0  0  0  0  0  0  0
   -4.3655   12.1784  -31.2088 C   0  0  0  0  0  0  0  0  0  0  0  0
   -5.5728   11.7893  -29.1526 C   0  0  0  0  0  0  0  0  0  0  0  0
   -5.0878   11.1572  -31.8261 C   0  0  0  0  0  0  0  0  0  0  0  0
   -6.2951   10.7682  -29.7699 C   0  0  0  0  0  0  0  0  0  0  0  0
   -6.0526   10.4521  -31.1067 C   0  0  0  0  0  0  0  0  0  0  0  0
   -4.7859   10.8762  -33.2254 C   0  0  0  0  0  0  0  0  0  0  0  0
   -5.6711   10.9372  -34.2399 C   0  0  0  0  0  0  0  0  0  0  0  0
   -5.2224   10.6145  -35.6093 C   0  0  0  0  0  0  0  0  0  0  0  0
   -5.2717    9.4744  -36.0551 O   0  0  0  0  0  0  0  0  0  0  0  0
   -7.2294   10.1021  -29.0334 O   0  0  0  0  0  0  0  0  0  0  0  0
   -7.0548    9.0503  -31.9239 Br  0  0  0  0  0  0  0  0  0  0  0  0
  1  2  2  0
  1  3  1  0
  2  4  1  0
  3  5  2  0
  4  6  2  0
  4  7  1  0
  5  6  1  0
  5 11  1  0
  6 12  1  0
  7  8  2  3
  8  9  1  0
  9 10  2  0
M  END
>  <id>  (228) 
EN300-1904561

>  <smiles>  (228) 
OC=1C=CC=C(C=CC=O)C1Br

>  <IUPAC Name>  (228) 
3-(2-bromo-3-hydroxyphenyl)prop-2-enal

>  <CAS>  (228) 
2229652-46-2

>  <URL>  (228) 
https://www.enaminestore.com/catalog/EN300-1904561

>  <ROCS_ShapeQuery>  (228) 
_x1604L0AP1_x0771L0AP1

>  <ROCS_TanimotoCombo>  (228) 
0.952 

>  <ROCS_ShapeTanimoto>  (228) 
0.455 

>  <ROCS_ColorTanimoto>  (228) 
0.497 

>  <ROCS_RefTversky>  (228) 
0.418 

>  <ROCS_RefColorTversky>  (228) 
0.516 

>  <ROCS_RefTverskyCombo>  (228) 
0.934 

>  <ROCS_FitTversky>  (228) 
1.242 

>  <ROCS_FitColorTversky>  (228) 
0.932 

>  <ROCS_FitTverskyCombo>  (228) 
2.174 

>  <ROCS_ColorScore>  (228) 
-4.881

>  <ROCS_Overlap>  (228) 
699.683

>  <ROCS_Rank>  (228) 
373                 

$$$$
untitled-dbase-1569_17
     RDKit          3D

 11 11  0  0  1  0  0  0  0  0999 V2000
   -4.6161   12.5005  -29.8414 C   0  0  0  0  0  0  0  0  0  0  0  0
   -5.5866   11.7944  -29.1306 C   0  0  0  0  0  0  0  0  0  0  0  0
   -5.0753   11.1610  -31.7989 C   0  0  0  0  0  0  0  0  0  0  0  0
   -4.3605   12.1838  -31.1756 C   0  0  0  0  0  0  0  0  0  0  0  0
   -6.3013   10.7716  -29.7539 C   0  0  0  0  0  0  0  0  0  0  0  0
   -6.0457   10.4549  -31.0881 C   0  0  0  0  0  0  0  0  0  0  0  0
   -2.6530   12.1076  -33.0386 C   0  0  0  0  0  0  0  0  0  0  0  0
   -3.3226   12.9393  -31.9344 C   0  0  2  0  0  0  0  0  0  0  0  0
   -2.3063   13.5004  -31.0602 N   0  0  0  0  0  0  0  0  0  0  0  0
   -7.2418   10.0996  -29.0312 O   0  0  0  0  0  0  0  0  0  0  0  0
   -6.9965    9.0703  -31.9665 Br  0  0  0  0  0  0  0  0  0  0  0  0
  1  2  2  0
  1  4  1  0
  2  5  1  0
  3  4  2  0
  3  6  1  0
  4  8  1  0
  5  6  2  0
  5 10  1  0
  6 11  1  0
  8  7  1  6
  8  9  1  0
M  END
>  <id>  (229) 
EN300-1915697

>  <smiles>  (229) 
C[C@H](N)C=1C=CC(O)=C(Br)C1

>  <MDLNUMBER>  (229) 
MFCD08057397

>  <IUPAC Name>  (229) 
4-[(1S)-1-aminoethyl]-2-bromophenol

>  <CAS>  (229) 
1213363-90-6

>  <URL>  (229) 
https://www.enaminestore.com/catalog/EN300-1915697

>  <ROCS_ShapeQuery>  (229) 
_x1604L0AP1_x0771L0AP1

>  <ROCS_TanimotoCombo>  (229) 
0.952 

>  <ROCS_ShapeTanimoto>  (229) 
0.501 

>  <ROCS_ColorTanimoto>  (229) 
0.451 

>  <ROCS_RefTversky>  (229) 
0.438 

>  <ROCS_RefColorTversky>  (229) 
0.513 

>  <ROCS_RefTverskyCombo>  (229) 
0.950 

>  <ROCS_FitTversky>  (229) 
1.407 

>  <ROCS_FitColorTversky>  (229) 
0.789 

>  <ROCS_FitTverskyCombo>  (229) 
2.196 

>  <ROCS_ColorScore>  (229) 
-4.877

>  <ROCS_Overlap>  (229) 
731.766

>  <ROCS_Rank>  (229) 
375                 

$$$$
untitled-dbase-218_17
     RDKit          3D

 11 11  0  0  1  0  0  0  0  0999 V2000
   -4.6161   12.5005  -29.8414 C   0  0  0  0  0  0  0  0  0  0  0  0
   -5.5866   11.7944  -29.1306 C   0  0  0  0  0  0  0  0  0  0  0  0
   -5.0753   11.1610  -31.7989 C   0  0  0  0  0  0  0  0  0  0  0  0
   -4.3605   12.1838  -31.1756 C   0  0  0  0  0  0  0  0  0  0  0  0
   -6.3013   10.7716  -29.7539 C   0  0  0  0  0  0  0  0  0  0  0  0
   -6.0457   10.4549  -31.0881 C   0  0  0  0  0  0  0  0  0  0  0  0
   -2.6530   12.1076  -33.0386 C   0  0  0  0  0  0  0  0  0  0  0  0
   -3.3226   12.9393  -31.9344 C   0  0  2  0  0  0  0  0  0  0  0  0
   -2.3063   13.5004  -31.0602 N   0  0  0  0  0  0  0  0  0  0  0  0
   -7.2418   10.0996  -29.0312 O   0  0  0  0  0  0  0  0  0  0  0  0
   -6.9965    9.0703  -31.9665 Br  0  0  0  0  0  0  0  0  0  0  0  0
  1  2  2  0
  1  4  1  0
  2  5  1  0
  3  4  2  0
  3  6  1  0
  4  8  1  0
  5  6  2  0
  5 10  1  0
  6 11  1  0
  8  7  1  6
  8  9  1  0
M  END
>  <id>  (230) 
EN300-1895194

>  <smiles>  (230) 
CC(N)C=1C=CC(O)=C(Br)C1

>  <MDLNUMBER>  (230) 
MFCD17247765

>  <IUPAC Name>  (230) 
4-(1-aminoethyl)-2-bromophenol

>  <CAS>  (230) 
1337139-52-2

>  <URL>  (230) 
https://www.enaminestore.com/catalog/EN300-1895194

>  <ROCS_ShapeQuery>  (230) 
_x1604L0AP1_x0771L0AP1

>  <ROCS_TanimotoCombo>  (230) 
0.952 

>  <ROCS_ShapeTanimoto>  (230) 
0.501 

>  <ROCS_ColorTanimoto>  (230) 
0.451 

>  <ROCS_RefTversky>  (230) 
0.438 

>  <ROCS_RefColorTversky>  (230) 
0.513 

>  <ROCS_RefTverskyCombo>  (230) 
0.950 

>  <ROCS_FitTversky>  (230) 
1.407 

>  <ROCS_FitColorTversky>  (230) 
0.789 

>  <ROCS_FitTverskyCombo>  (230) 
2.196 

>  <ROCS_ColorScore>  (230) 
-4.877

>  <ROCS_Overlap>  (230) 
731.766

>  <ROCS_Rank>  (230) 
376                 

$$$$
untitled-dbase-1148_178
     RDKit          3D

 14 14  0  0  0  0  0  0  0  0999 V2000
   -2.6616   13.9126  -31.1081 C   0  0  0  0  0  0  0  0  0  0  0  0
   -4.5881   12.4740  -29.8547 C   0  0  0  0  0  0  0  0  0  0  0  0
   -5.0681   11.1324  -31.8057 C   0  0  0  0  0  0  0  0  0  0  0  0
   -4.3402   12.1496  -31.1884 C   0  0  0  0  0  0  0  0  0  0  0  0
   -5.5640   11.7812  -29.1382 C   0  0  0  0  0  0  0  0  0  0  0  0
   -6.2920   10.7640  -29.7555 C   0  0  0  0  0  0  0  0  0  0  0  0
   -6.0441   10.4396  -31.0892 C   0  0  0  0  0  0  0  0  0  0  0  0
   -6.1023   14.4682  -27.5599 C   0  0  0  0  0  0  0  0  0  0  0  0
   -3.2974   12.8912  -31.9543 C   0  0  0  0  0  0  0  0  0  0  0  0
   -6.7772   13.1134  -27.5860 C   0  0  0  0  0  0  0  0  0  0  0  0
   -2.1604   14.7194  -30.4415 N   0  0  0  0  0  0  0  0  0  0  0  0
   -7.2431   10.0986  -29.0383 O   0  0  0  0  0  0  0  0  0  0  0  0
   -5.7951   12.1100  -27.8364 O   0  0  0  0  0  0  0  0  0  0  0  0
   -7.0130    9.0636  -31.9621 Br  0  0  0  0  0  0  0  0  0  0  0  0
  1  9  1  0
  1 11  3  0
  2  4  2  0
  2  5  1  0
  3  4  1  0
  3  7  2  0
  4  9  1  0
  5  6  2  0
  5 13  1  0
  6  7  1  0
  6 12  1  0
  7 14  1  0
  8 10  1  0
 10 13  1  0
M  END
>  <id>  (231) 
EN300-1920232

>  <smiles>  (231) 
CCOC=1C=C(CC#N)C=C(Br)C1O

>  <IUPAC Name>  (231) 
2-(3-bromo-5-ethoxy-4-hydroxyphenyl)acetonitrile

>  <CAS>  (231) 
1499731-31-5

>  <URL>  (231) 
https://www.enaminestore.com/catalog/EN300-1920232

>  <ROCS_ShapeQuery>  (231) 
_x1604L0AP1_x0771L0AP1

>  <ROCS_TanimotoCombo>  (231) 
0.952 

>  <ROCS_ShapeTanimoto>  (231) 
0.501 

>  <ROCS_ColorTanimoto>  (231) 
0.451 

>  <ROCS_RefTversky>  (231) 
0.462 

>  <ROCS_RefColorTversky>  (231) 
0.513 

>  <ROCS_RefTverskyCombo>  (231) 
0.975 

>  <ROCS_FitTversky>  (231) 
1.201 

>  <ROCS_FitColorTversky>  (231) 
0.789 

>  <ROCS_FitTverskyCombo>  (231) 
1.990 

>  <ROCS_ColorScore>  (231) 
-4.881

>  <ROCS_Overlap>  (231) 
775.377

>  <ROCS_Rank>  (231) 
377                 

$$$$
untitled-dbase-1280_19
     RDKit          3D

 12 12  0  0  0  0  0  0  0  0999 V2000
   -1.3297    9.9993  -32.0586 C   0  0  0  0  0  0  0  0  0  0  0  0
   -1.9155   10.9515  -32.4961 C   0  0  0  0  0  0  0  0  0  0  0  0
   -4.6133   12.4983  -29.8413 C   0  0  0  0  0  0  0  0  0  0  0  0
   -5.5839   11.7927  -29.1303 C   0  0  0  0  0  0  0  0  0  0  0  0
   -5.0751   11.1606  -31.7995 C   0  0  0  0  0  0  0  0  0  0  0  0
   -4.3589   12.1823  -31.1760 C   0  0  0  0  0  0  0  0  0  0  0  0
   -6.3001   10.7710  -29.7539 C   0  0  0  0  0  0  0  0  0  0  0  0
   -6.0457   10.4549  -31.0885 C   0  0  0  0  0  0  0  0  0  0  0  0
   -2.6310   12.1175  -33.0364 C   0  0  0  0  0  0  0  0  0  0  0  0
   -3.3208   12.9373  -31.9350 C   0  0  0  0  0  0  0  0  0  0  0  0
   -7.2407   10.0995  -29.0309 O   0  0  0  0  0  0  0  0  0  0  0  0
   -6.9986    9.0719  -31.9671 Br  0  0  0  0  0  0  0  0  0  0  0  0
  1  2  3  0
  2  9  1  0
  3  4  2  0
  3  6  1  0
  4  7  1  0
  5  6  2  0
  5  8  1  0
  6 10  1  0
  7  8  2  0
  7 11  1  0
  8 12  1  0
  9 10  1  0
M  END
>  <id>  (232) 
EN300-1906680

>  <smiles>  (232) 
OC=1C=CC(CCC#C)=CC1Br

>  <IUPAC Name>  (232) 
2-bromo-4-(but-3-yn-1-yl)phenol

>  <CAS>  (232) 
2228635-01-4

>  <URL>  (232) 
https://www.enaminestore.com/catalog/EN300-1906680

>  <ROCS_ShapeQuery>  (232) 
_x1604L0AP1_x0771L0AP1

>  <ROCS_TanimotoCombo>  (232) 
0.952 

>  <ROCS_ShapeTanimoto>  (232) 
0.455 

>  <ROCS_ColorTanimoto>  (232) 
0.496 

>  <ROCS_RefTversky>  (232) 
0.417 

>  <ROCS_RefColorTversky>  (232) 
0.515 

>  <ROCS_RefTverskyCombo>  (232) 
0.932 

>  <ROCS_FitTversky>  (232) 
1.253 

>  <ROCS_FitColorTversky>  (232) 
0.932 

>  <ROCS_FitTverskyCombo>  (232) 
2.185 

>  <ROCS_ColorScore>  (232) 
-4.877

>  <ROCS_Overlap>  (232) 
697.597

>  <ROCS_Rank>  (232) 
380                 

$$$$
untitled-dbase-117_0
     RDKit          3D

 11 11  0  0  0  0  0  0  0  0999 V2000
   -4.5760   12.4743  -29.8689 C   0  0  0  0  0  0  0  0  0  0  0  0
   -5.0652   11.1253  -31.8126 C   0  0  0  0  0  0  0  0  0  0  0  0
   -5.5526   11.7882  -29.1469 C   0  0  0  0  0  0  0  0  0  0  0  0
   -6.2855   10.7707  -29.7577 C   0  0  0  0  0  0  0  0  0  0  0  0
   -4.3324   12.1428  -31.2017 C   0  0  0  0  0  0  0  0  0  0  0  0
   -6.0418   10.4392  -31.0906 C   0  0  0  0  0  0  0  0  0  0  0  0
   -5.7862   12.1524  -27.7558 C   0  0  0  0  0  0  0  0  0  0  0  0
   -5.1581   13.0437  -27.1806 O   0  0  0  0  0  0  0  0  0  0  0  0
   -7.2377   10.1061  -29.0400 O   0  0  0  0  0  0  0  0  0  0  0  0
   -3.3945   12.8019  -31.8949 F   0  0  0  0  0  0  0  0  0  0  0  0
   -7.0141    9.0607  -31.9562 Br  0  0  0  0  0  0  0  0  0  0  0  0
  1  3  2  0
  1  5  1  0
  2  5  2  0
  2  6  1  0
  3  4  1  0
  3  7  1  0
  4  6  2  0
  4  9  1  0
  5 10  1  0
  6 11  1  0
  7  8  2  0
M  END
>  <id>  (233) 
EN300-177154

>  <smiles>  (233) 
OC=1C(Br)=CC(F)=CC1C=O

>  <MDLNUMBER>  (233) 
MFCD08458073

>  <IUPAC Name>  (233) 
3-bromo-5-fluoro-2-hydroxybenzaldehyde

>  <CAS>  (233) 
178546-34-4

>  <Purity>  (233) 
95

>  <URL>  (233) 
https://www.enaminestore.com/catalog/EN300-177154

>  <ROCS_ShapeQuery>  (233) 
_x1604L0AP1_x0771L0AP1

>  <ROCS_TanimotoCombo>  (233) 
0.952 

>  <ROCS_ShapeTanimoto>  (233) 
0.455 

>  <ROCS_ColorTanimoto>  (233) 
0.497 

>  <ROCS_RefTversky>  (233) 
0.412 

>  <ROCS_RefColorTversky>  (233) 
0.516 

>  <ROCS_RefTverskyCombo>  (233) 
0.928 

>  <ROCS_FitTversky>  (233) 
1.294 

>  <ROCS_FitColorTversky>  (233) 
0.932 

>  <ROCS_FitTverskyCombo>  (233) 
2.226 

>  <ROCS_ColorScore>  (233) 
-4.881

>  <ROCS_Overlap>  (233) 
689.128

>  <ROCS_Rank>  (233) 
381                 

$$$$
untitled-dbase-1320_1
     RDKit          3D

 14 14  0  0  0  0  0  0  0  0999 V2000
   -4.5985   12.4935  -29.8586 C   0  0  0  0  0  0  0  0  0  0  0  0
   -4.3505   12.1793  -31.1947 C   0  0  0  0  0  0  0  0  0  0  0  0
   -5.5680   11.7891  -29.1447 C   0  0  0  0  0  0  0  0  0  0  0  0
   -6.2896   10.7705  -29.7672 C   0  0  0  0  0  0  0  0  0  0  0  0
   -5.0722   11.1608  -31.8172 C   0  0  0  0  0  0  0  0  0  0  0  0
   -6.0417   10.4564  -31.1034 C   0  0  0  0  0  0  0  0  0  0  0  0
   -5.0163   13.1616  -27.2826 C   0  0  0  0  0  0  0  0  0  0  0  0
   -5.9612   10.6347  -34.1907 O   0  0  0  0  0  0  0  0  0  0  0  0
   -3.7091   11.7841  -33.9278 O   0  0  0  0  0  0  0  0  0  0  0  0
   -7.2326   10.0971  -29.0458 O   0  0  0  0  0  0  0  0  0  0  0  0
   -5.7986   12.1076  -27.8403 O   0  0  0  0  0  0  0  0  0  0  0  0
   -3.9787    9.4142  -33.5464 F   0  0  0  0  0  0  0  0  0  0  0  0
   -4.7040   10.8242  -33.4982 S   0  0  0  0  0  0  0  0  0  0  0  0
   -7.0431    9.0601  -31.9271 Br  0  0  0  0  0  0  0  0  0  0  0  0
  1  2  2  0
  1  3  1  0
  2  5  1  0
  3  4  2  0
  3 11  1  0
  4  6  1  0
  4 10  1  0
  5  6  2  0
  5 13  1  0
  6 14  1  0
  7 11  1  0
  8 13  2  0
  9 13  2  0
 12 13  1  0
M  END
>  <id>  (234) 
EN300-6493402

>  <smiles>  (234) 
COC=1C=CC(=C(Br)C1O)S(=O)(=O)F

>  <IUPAC Name>  (234) 
2-bromo-3-hydroxy-4-methoxybenzene-1-sulfonyl fluoride

>  <CAS>  (234) 
2247104-48-7

>  <URL>  (234) 
https://www.enaminestore.com/catalog/EN300-6493402

>  <ROCS_ShapeQuery>  (234) 
_x1604L0AP1_x0771L0AP1

>  <ROCS_TanimotoCombo>  (234) 
0.952 

>  <ROCS_ShapeTanimoto>  (234) 
0.454 

>  <ROCS_ColorTanimoto>  (234) 
0.498 

>  <ROCS_RefTversky>  (234) 
0.432 

>  <ROCS_RefColorTversky>  (234) 
0.516 

>  <ROCS_RefTverskyCombo>  (234) 
0.948 

>  <ROCS_FitTversky>  (234) 
1.126 

>  <ROCS_FitColorTversky>  (234) 
0.933 

>  <ROCS_FitTverskyCombo>  (234) 
2.059 

>  <ROCS_ColorScore>  (234) 
-4.885

>  <ROCS_Overlap>  (234) 
724.772

>  <ROCS_Rank>  (234) 
383                 

$$$$
untitled-dbase-177_147
     RDKit          3D

 15 15  0  0  0  0  0  0  0  0999 V2000
   -5.0494   11.1325  -31.7885 C   0  0  0  0  0  0  0  0  0  0  0  0
   -5.5660   11.7756  -29.1235 C   0  0  0  0  0  0  0  0  0  0  0  0
   -4.3233   12.1455  -31.1621 C   0  0  0  0  0  0  0  0  0  0  0  0
   -4.5816   12.4670  -29.8296 C   0  0  0  0  0  0  0  0  0  0  0  0
   -6.2921   10.7626  -29.7499 C   0  0  0  0  0  0  0  0  0  0  0  0
   -6.0338   10.4411  -31.0824 C   0  0  0  0  0  0  0  0  0  0  0  0
   -3.2891   12.8611  -31.9315 C   0  0  0  0  0  0  0  0  0  0  0  0
   -3.8200   13.5485  -29.1354 C   0  0  0  0  0  0  0  0  0  0  0  0
   -4.2530   12.7125  -34.8058 C   0  0  0  0  0  0  0  0  0  0  0  0
   -1.9700   11.9739  -35.5134 C   0  0  0  0  0  0  0  0  0  0  0  0
   -2.5536   12.1221  -33.0497 C   0  0  0  0  0  0  0  0  0  0  0  0
   -2.7655   12.7311  -34.4468 C   0  0  0  0  0  0  0  0  0  0  0  0
   -3.0329   14.0411  -31.6900 O   0  0  0  0  0  0  0  0  0  0  0  0
   -7.2475   10.1058  -29.0328 O   0  0  0  0  0  0  0  0  0  0  0  0
   -7.0011    9.0709  -31.9652 Br  0  0  0  0  0  0  0  0  0  0  0  0
  1  3  2  0
  1  6  1  0
  2  4  2  0
  2  5  1  0
  3  4  1  0
  3  7  1  0
  4  8  1  0
  5  6  2  0
  5 14  1  0
  6 15  1  0
  7 11  1  0
  7 13  2  0
  9 12  1  0
 10 12  1  0
 11 12  1  0
M  END
>  <id>  (235) 
EN300-1276440

>  <smiles>  (235) 
CC(C)CC(=O)C=1C=C(Br)C(O)=CC1C

>  <IUPAC Name>  (235) 
1-(5-bromo-4-hydroxy-2-methylphenyl)-3-methylbutan-1-one

>  <CAS>  (235) 
2106584-90-9

>  <URL>  (235) 
https://www.enaminestore.com/catalog/EN300-1276440

>  <ROCS_ShapeQuery>  (235) 
_x1604L0AP1_x0771L0AP1

>  <ROCS_TanimotoCombo>  (235) 
0.952 

>  <ROCS_ShapeTanimoto>  (235) 
0.501 

>  <ROCS_ColorTanimoto>  (235) 
0.451 

>  <ROCS_RefTversky>  (235) 
0.469 

>  <ROCS_RefColorTversky>  (235) 
0.513 

>  <ROCS_RefTverskyCombo>  (235) 
0.982 

>  <ROCS_FitTversky>  (235) 
1.157 

>  <ROCS_FitColorTversky>  (235) 
0.789 

>  <ROCS_FitTverskyCombo>  (235) 
1.946 

>  <ROCS_ColorScore>  (235) 
-4.878

>  <ROCS_Overlap>  (235) 
787.777

>  <ROCS_Rank>  (235) 
384                 

$$$$
untitled-dbase-1537_0
     RDKit          3D

 11 11  0  0  0  0  0  0  0  0999 V2000
   -4.5748   12.4710  -29.8667 C   0  0  0  0  0  0  0  0  0  0  0  0
   -5.0646   11.1231  -31.8110 C   0  0  0  0  0  0  0  0  0  0  0  0
   -5.5515   11.7849  -29.1450 C   0  0  0  0  0  0  0  0  0  0  0  0
   -6.2847   10.7678  -29.7562 C   0  0  0  0  0  0  0  0  0  0  0  0
   -4.3314   12.1402  -31.1998 C   0  0  0  0  0  0  0  0  0  0  0  0
   -6.0413   10.4369  -31.0893 C   0  0  0  0  0  0  0  0  0  0  0  0
   -5.7885   12.1495  -27.7549 C   0  0  0  0  0  0  0  0  0  0  0  0
   -5.1630   13.0422  -27.1787 O   0  0  0  0  0  0  0  0  0  0  0  0
   -7.2390   10.1049  -29.0396 O   0  0  0  0  0  0  0  0  0  0  0  0
   -3.1262   12.9874  -32.0898 Cl  0  0  0  0  0  0  0  0  0  0  0  0
   -7.0164    9.0608  -31.9555 Br  0  0  0  0  0  0  0  0  0  0  0  0
  1  3  2  0
  1  5  1  0
  2  5  2  0
  2  6  1  0
  3  4  1  0
  3  7  1  0
  4  6  2  0
  4  9  1  0
  5 10  1  0
  6 11  1  0
  7  8  2  0
M  END
>  <id>  (236) 
EN300-370866

>  <smiles>  (236) 
OC=1C(Br)=CC(Cl)=CC1C=O

>  <MDLNUMBER>  (236) 
MFCD00051690

>  <IUPAC Name>  (236) 
3-bromo-5-chloro-2-hydroxybenzaldehyde

>  <CAS>  (236) 
19652-32-5

>  <Purity>  (236) 
95

>  <URL>  (236) 
https://www.enaminestore.com/catalog/EN300-370866

>  <MP>  (236) 
84-88

>  <ROCS_ShapeQuery>  (236) 
_x1604L0AP1_x0771L0AP1

>  <ROCS_TanimotoCombo>  (236) 
0.952 

>  <ROCS_ShapeTanimoto>  (236) 
0.455 

>  <ROCS_ColorTanimoto>  (236) 
0.497 

>  <ROCS_RefTversky>  (236) 
0.410 

>  <ROCS_RefColorTversky>  (236) 
0.516 

>  <ROCS_RefTverskyCombo>  (236) 
0.926 

>  <ROCS_FitTversky>  (236) 
1.313 

>  <ROCS_FitColorTversky>  (236) 
0.932 

>  <ROCS_FitTverskyCombo>  (236) 
2.246 

>  <ROCS_ColorScore>  (236) 
-4.881

>  <ROCS_Overlap>  (236) 
685.391

>  <ROCS_Rank>  (236) 
385                 

$$$$
untitled-dbase-1926_0
     RDKit          3D

 10 10  0  0  0  0  0  0  0  0999 V2000
   -5.0651   11.1421  -31.7993 C   0  0  0  0  0  0  0  0  0  0  0  0
   -4.5985   12.4999  -29.8563 C   0  0  0  0  0  0  0  0  0  0  0  0
   -6.2920   10.7801  -29.7498 C   0  0  0  0  0  0  0  0  0  0  0  0
   -4.3451   12.1680  -31.1872 C   0  0  0  0  0  0  0  0  0  0  0  0
   -6.0386   10.4482  -31.0806 C   0  0  0  0  0  0  0  0  0  0  0  0
   -5.5720   11.8060  -29.1376 C   0  0  0  0  0  0  0  0  0  0  0  0
   -7.2440   10.1006  -29.0453 O   0  0  0  0  0  0  0  0  0  0  0  0
   -3.1434   13.0238  -32.0735 Cl  0  0  0  0  0  0  0  0  0  0  0  0
   -6.9956    9.0611  -31.9499 Br  0  0  0  0  0  0  0  0  0  0  0  0
   -5.8859   12.2900  -27.3310 Br  0  0  0  0  0  0  0  0  0  0  0  0
  1  4  2  0
  1  5  1  0
  2  4  1  0
  2  6  2  0
  3  5  2  0
  3  6  1  0
  3  7  1  0
  4  8  1  0
  5  9  1  0
  6 10  1  0
M  END
>  <id>  (237) 
EN300-1265459

>  <smiles>  (237) 
OC=1C(Br)=CC(Cl)=CC1Br

>  <MDLNUMBER>  (237) 
MFCD00029751

>  <IUPAC Name>  (237) 
2,6-dibromo-4-chlorophenol

>  <CAS>  (237) 
5324-13-0

>  <URL>  (237) 
https://www.enaminestore.com/catalog/EN300-1265459

>  <ROCS_ShapeQuery>  (237) 
_x1604L0AP1_x0771L0AP1

>  <ROCS_TanimotoCombo>  (237) 
0.952 

>  <ROCS_ShapeTanimoto>  (237) 
0.455 

>  <ROCS_ColorTanimoto>  (237) 
0.497 

>  <ROCS_RefTversky>  (237) 
0.400 

>  <ROCS_RefColorTversky>  (237) 
0.516 

>  <ROCS_RefTverskyCombo>  (237) 
0.915 

>  <ROCS_FitTversky>  (237) 
1.432 

>  <ROCS_FitColorTversky>  (237) 
0.932 

>  <ROCS_FitTverskyCombo>  (237) 
2.364 

>  <ROCS_ColorScore>  (237) 
-4.881

>  <ROCS_Overlap>  (237) 
666.891

>  <ROCS_Rank>  (237) 
386                 

$$$$
untitled-dbase-705_795
     RDKit          3D

 15 15  0  0  1  0  0  0  0  0999 V2000
   -4.5857   12.4706  -29.8543 C   0  0  0  0  0  0  0  0  0  0  0  0
   -5.0644   11.1263  -31.8038 C   0  0  0  0  0  0  0  0  0  0  0  0
   -4.3360   12.1435  -31.1870 C   0  0  0  0  0  0  0  0  0  0  0  0
   -5.5638   11.7804  -29.1382 C   0  0  0  0  0  0  0  0  0  0  0  0
   -6.2922   10.7632  -29.7550 C   0  0  0  0  0  0  0  0  0  0  0  0
   -6.0425   10.4361  -31.0878 C   0  0  0  0  0  0  0  0  0  0  0  0
   -5.4234   13.3898  -25.8476 C   0  0  0  0  0  0  0  0  0  0  0  0
   -1.1576   13.9762  -31.7582 C   0  0  0  0  0  0  0  0  0  0  0  0
   -3.2909   12.8823  -31.9525 C   0  0  0  0  0  0  0  0  0  0  0  0
   -5.0075   13.1638  -27.2855 C   0  0  0  0  0  0  0  0  0  0  0  0
   -2.4224   13.6482  -31.0949 N   0  0  0  0  0  0  0  0  0  0  0  0
   -7.2454   10.1003  -29.0383 O   0  0  0  0  0  0  0  0  0  0  0  0
   -3.0818   14.9383  -30.9348 O   0  0  0  0  0  0  0  0  0  0  0  0
   -5.7965   12.1117  -27.8374 O   0  0  0  0  0  0  0  0  0  0  0  0
   -7.0119    9.0601  -31.9600 Br  0  0  0  0  0  0  0  0  0  0  0  0
  1  3  2  0
  1  4  1  0
  2  3  1  0
  2  6  2  0
  3  9  1  0
  4  5  2  0
  4 14  1  0
  5  6  1  0
  5 12  1  0
  6 15  1  0
  7 10  1  0
  8 11  1  0
  9 11  1  0
 10 14  1  0
 11 13  1  0
M  END
>  <id>  (238) 
EN300-1920226

>  <smiles>  (238) 
CCOC=1C=C(CN(C)O)C=C(Br)C1O

>  <IUPAC Name>  (238) 
2-bromo-6-ethoxy-4-{[hydroxy(methyl)amino]methyl}phenol

>  <CAS>  (238) 
2229416-83-3

>  <URL>  (238) 
https://www.enaminestore.com/catalog/EN300-1920226

>  <ROCS_ShapeQuery>  (238) 
_x1604L0AP1_x0771L0AP1

>  <ROCS_TanimotoCombo>  (238) 
0.952 

>  <ROCS_ShapeTanimoto>  (238) 
0.501 

>  <ROCS_ColorTanimoto>  (238) 
0.451 

>  <ROCS_RefTversky>  (238) 
0.470 

>  <ROCS_RefColorTversky>  (238) 
0.513 

>  <ROCS_RefTverskyCombo>  (238) 
0.983 

>  <ROCS_FitTversky>  (238) 
1.150 

>  <ROCS_FitColorTversky>  (238) 
0.789 

>  <ROCS_FitTverskyCombo>  (238) 
1.939 

>  <ROCS_ColorScore>  (238) 
-4.881

>  <ROCS_Overlap>  (238) 
789.305

>  <ROCS_Rank>  (238) 
387                 

$$$$
untitled-dbase-805_112
     RDKit          3D

 13 13  0  0  0  0  0  0  0  0999 V2000
   -4.6200   12.5072  -29.8794 C   0  0  0  0  0  0  0  0  0  0  0  0
   -5.0944   11.1520  -31.8224 C   0  0  0  0  0  0  0  0  0  0  0  0
   -4.3765   12.1814  -31.2136 C   0  0  0  0  0  0  0  0  0  0  0  0
   -5.5814   11.8035  -29.1539 C   0  0  0  0  0  0  0  0  0  0  0  0
   -6.2993   10.7742  -29.7627 C   0  0  0  0  0  0  0  0  0  0  0  0
   -6.0558   10.4484  -31.0969 C   0  0  0  0  0  0  0  0  0  0  0  0
   -6.8020   13.1251  -27.5984 C   0  0  0  0  0  0  0  0  0  0  0  0
   -3.3492   12.9346  -31.9891 C   0  0  0  0  0  0  0  0  0  0  0  0
   -2.0376   12.8366  -31.4004 N   0  0  0  0  0  0  0  0  0  0  0  0
   -7.2363   10.0982  -29.0368 O   0  0  0  0  0  0  0  0  0  0  0  0
   -1.9286   13.9490  -30.4689 O   0  0  0  0  0  0  0  0  0  0  0  0
   -5.8084   12.1338  -27.8518 O   0  0  0  0  0  0  0  0  0  0  0  0
   -7.0114    9.0560  -31.9584 Br  0  0  0  0  0  0  0  0  0  0  0  0
  1  3  2  0
  1  4  1  0
  2  3  1  0
  2  6  2  0
  3  8  1  0
  4  5  2  0
  4 12  1  0
  5  6  1  0
  5 10  1  0
  6 13  1  0
  7 12  1  0
  8  9  1  0
  9 11  1  0
M  END
>  <id>  (239) 
EN300-1912444

>  <smiles>  (239) 
COC=1C=C(CNO)C=C(Br)C1O

>  <MDLNUMBER>  (239) 
MFCD24284787

>  <IUPAC Name>  (239) 
2-bromo-4-[(hydroxyamino)methyl]-6-methoxyphenol

>  <CAS>  (239) 
1554105-74-6

>  <URL>  (239) 
https://www.enaminestore.com/catalog/EN300-1912444

>  <ROCS_ShapeQuery>  (239) 
_x1604L0AP1_x0771L0AP1

>  <ROCS_TanimotoCombo>  (239) 
0.951 

>  <ROCS_ShapeTanimoto>  (239) 
0.501 

>  <ROCS_ColorTanimoto>  (239) 
0.451 

>  <ROCS_RefTversky>  (239) 
0.454 

>  <ROCS_RefColorTversky>  (239) 
0.513 

>  <ROCS_RefTverskyCombo>  (239) 
0.967 

>  <ROCS_FitTversky>  (239) 
1.257 

>  <ROCS_FitColorTversky>  (239) 
0.789 

>  <ROCS_FitTverskyCombo>  (239) 
2.046 

>  <ROCS_ColorScore>  (239) 
-4.880

>  <ROCS_Overlap>  (239) 
760.751

>  <ROCS_Rank>  (239) 
389                 

$$$$
untitled-dbase-1126_212
     RDKit          3D

 14 14  0  0  0  0  0  0  0  0999 V2000
   -2.1505   14.7649  -30.4301 C   0  0  0  0  0  0  0  0  0  0  0  0
   -2.6672   13.9272  -31.1179 C   0  0  0  0  0  0  0  0  0  0  0  0
   -4.5971   12.4818  -29.8587 C   0  0  0  0  0  0  0  0  0  0  0  0
   -5.0708   11.1333  -31.8064 C   0  0  0  0  0  0  0  0  0  0  0  0
   -4.3466   12.1543  -31.1912 C   0  0  0  0  0  0  0  0  0  0  0  0
   -5.5718   11.7881  -29.1413 C   0  0  0  0  0  0  0  0  0  0  0  0
   -6.2960   10.7670  -29.7566 C   0  0  0  0  0  0  0  0  0  0  0  0
   -6.0455   10.4396  -31.0892 C   0  0  0  0  0  0  0  0  0  0  0  0
   -4.4503   11.7332  -25.9052 C   0  0  0  0  0  0  0  0  0  0  0  0
   -3.3051   12.8969  -31.9579 C   0  0  0  0  0  0  0  0  0  0  0  0
   -4.7036   12.6340  -27.0952 C   0  0  0  0  0  0  0  0  0  0  0  0
   -7.2460   10.1008  -29.0387 O   0  0  0  0  0  0  0  0  0  0  0  0
   -5.8054   12.1199  -27.8408 O   0  0  0  0  0  0  0  0  0  0  0  0
   -7.0094    9.0583  -31.9593 Br  0  0  0  0  0  0  0  0  0  0  0  0
  1  2  3  0
  2 10  1  0
  3  5  2  0
  3  6  1  0
  4  5  1  0
  4  8  2  0
  5 10  1  0
  6  7  2  0
  6 13  1  0
  7  8  1  0
  7 12  1  0
  8 14  1  0
  9 11  1  0
 11 13  1  0
M  END
>  <id>  (240) 
EN300-1920240

>  <smiles>  (240) 
CCOC=1C=C(CC#C)C=C(Br)C1O

>  <IUPAC Name>  (240) 
2-bromo-6-ethoxy-4-(prop-2-yn-1-yl)phenol

>  <CAS>  (240) 
2229013-83-4

>  <URL>  (240) 
https://www.enaminestore.com/catalog/EN300-1920240

>  <ROCS_ShapeQuery>  (240) 
_x1604L0AP1_x0771L0AP1

>  <ROCS_TanimotoCombo>  (240) 
0.951 

>  <ROCS_ShapeTanimoto>  (240) 
0.500 

>  <ROCS_ColorTanimoto>  (240) 
0.451 

>  <ROCS_RefTversky>  (240) 
0.462 

>  <ROCS_RefColorTversky>  (240) 
0.513 

>  <ROCS_RefTverskyCombo>  (240) 
0.975 

>  <ROCS_FitTversky>  (240) 
1.201 

>  <ROCS_FitColorTversky>  (240) 
0.789 

>  <ROCS_FitTverskyCombo>  (240) 
1.990 

>  <ROCS_ColorScore>  (240) 
-4.881

>  <ROCS_Overlap>  (240) 
774.326

>  <ROCS_Rank>  (240) 
390                 

$$$$
untitled-dbase-2187_203
     RDKit          3D

 15 15  0  0  0  0  0  0  0  0999 V2000
   -4.5643   12.4536  -29.8577 C   0  0  0  0  0  0  0  0  0  0  0  0
   -5.0487   11.1046  -31.8024 C   0  0  0  0  0  0  0  0  0  0  0  0
   -4.3142   12.1190  -31.1885 C   0  0  0  0  0  0  0  0  0  0  0  0
   -5.5489   11.7737  -29.1407 C   0  0  0  0  0  0  0  0  0  0  0  0
   -6.2835   10.7593  -29.7547 C   0  0  0  0  0  0  0  0  0  0  0  0
   -6.0334   10.4247  -31.0856 C   0  0  0  0  0  0  0  0  0  0  0  0
   -4.9859   13.1605  -27.2926 C   0  0  0  0  0  0  0  0  0  0  0  0
   -3.2620   12.8468  -31.9548 C   0  0  0  0  0  0  0  0  0  0  0  0
   -3.5509   12.9387  -33.4577 C   0  0  0  0  0  0  0  0  0  0  0  0
   -6.5277   12.4578  -34.7990 N   0  0  0  0  0  0  0  0  0  0  0  0
   -4.8049   13.6647  -33.6767 N   0  0  0  0  0  0  0  0  0  0  0  0
   -5.7007   13.0315  -34.2625 N   0  0  0  0  0  0  0  0  0  0  0  0
   -7.2431   10.1065  -29.0372 O   0  0  0  0  0  0  0  0  0  0  0  0
   -5.7820   12.1124  -27.8419 O   0  0  0  0  0  0  0  0  0  0  0  0
   -7.0110    9.0520  -31.9539 Br  0  0  0  0  0  0  0  0  0  0  0  0
  1  3  2  0
  1  4  1  0
  2  3  1  0
  2  6  2  0
  3  8  1  0
  4  5  2  0
  4 14  1  0
  5  6  1  0
  5 13  1  0
  6 15  1  0
  7 14  1  0
  8  9  1  0
  9 11  1  0
 10 12  2  0
 11 12  2  0
M  CHG  2  10  -1  12   1
M  END
>  <id>  (241) 
EN300-1925671

>  <smiles>  (241) 
COC=1C=C(CCN=[N+]=[N-])C=C(Br)C1O

>  <IUPAC Name>  (241) 
4-(2-azidoethyl)-2-bromo-6-methoxyphenol

>  <CAS>  (241) 
2228242-76-8

>  <URL>  (241) 
https://www.enaminestore.com/catalog/EN300-1925671

>  <ROCS_ShapeQuery>  (241) 
_x1604L0AP1_x0771L0AP1

>  <ROCS_TanimotoCombo>  (241) 
0.951 

>  <ROCS_ShapeTanimoto>  (241) 
0.454 

>  <ROCS_ColorTanimoto>  (241) 
0.497 

>  <ROCS_RefTversky>  (241) 
0.440 

>  <ROCS_RefColorTversky>  (241) 
0.516 

>  <ROCS_RefTverskyCombo>  (241) 
0.956 

>  <ROCS_FitTversky>  (241) 
1.073 

>  <ROCS_FitColorTversky>  (241) 
0.932 

>  <ROCS_FitTverskyCombo>  (241) 
2.005 

>  <ROCS_ColorScore>  (241) 
-4.882

>  <ROCS_Overlap>  (241) 
739.625

>  <ROCS_Rank>  (241) 
391                 

$$$$
untitled-dbase-272_29
     RDKit          3D

 12 12  0  0  0  0  0  0  0  0999 V2000
   -4.3220   12.6084  -34.1625 C   0  0  0  0  0  0  0  0  0  0  0  0
   -4.5771   12.4613  -29.8309 C   0  0  0  0  0  0  0  0  0  0  0  0
   -5.5625   11.7719  -29.1242 C   0  0  0  0  0  0  0  0  0  0  0  0
   -5.0487   11.1279  -31.7896 C   0  0  0  0  0  0  0  0  0  0  0  0
   -4.3202   12.1393  -31.1636 C   0  0  0  0  0  0  0  0  0  0  0  0
   -6.2910   10.7605  -29.7502 C   0  0  0  0  0  0  0  0  0  0  0  0
   -6.0341   10.4384  -31.0829 C   0  0  0  0  0  0  0  0  0  0  0  0
   -3.0976   12.4118  -33.3724 C   0  0  0  0  0  0  0  0  0  0  0  0
   -3.2663   12.8768  -31.9179 C   0  0  0  0  0  0  0  0  0  0  0  0
   -5.2872   12.7649  -34.7871 N   0  0  0  0  0  0  0  0  0  0  0  0
   -7.2460   10.1048  -29.0316 O   0  0  0  0  0  0  0  0  0  0  0  0
   -7.0034    9.0690  -31.9648 Br  0  0  0  0  0  0  0  0  0  0  0  0
  1  8  1  0
  1 10  3  0
  2  3  2  0
  2  5  1  0
  3  6  1  0
  4  5  2  0
  4  7  1  0
  5  9  1  0
  6  7  2  0
  6 11  1  0
  7 12  1  0
  8  9  1  0
M  END
>  <id>  (242) 
EN300-1896635

>  <smiles>  (242) 
OC=1C=CC(CCC#N)=CC1Br

>  <MDLNUMBER>  (242) 
MFCD28816995

>  <IUPAC Name>  (242) 
3-(3-bromo-4-hydroxyphenyl)propanenitrile

>  <CAS>  (242) 
29064-87-7

>  <URL>  (242) 
https://www.enaminestore.com/catalog/EN300-1896635

>  <ROCS_ShapeQuery>  (242) 
_x1604L0AP1_x0771L0AP1

>  <ROCS_TanimotoCombo>  (242) 
0.951 

>  <ROCS_ShapeTanimoto>  (242) 
0.454 

>  <ROCS_ColorTanimoto>  (242) 
0.497 

>  <ROCS_RefTversky>  (242) 
0.416 

>  <ROCS_RefColorTversky>  (242) 
0.515 

>  <ROCS_RefTverskyCombo>  (242) 
0.932 

>  <ROCS_FitTversky>  (242) 
1.249 

>  <ROCS_FitColorTversky>  (242) 
0.932 

>  <ROCS_FitTverskyCombo>  (242) 
2.181 

>  <ROCS_ColorScore>  (242) 
-4.879

>  <ROCS_Overlap>  (242) 
696.431

>  <ROCS_Rank>  (242) 
395                 

$$$$
untitled-dbase-259_18
     RDKit          3D

 11 11  0  0  1  0  0  0  0  0999 V2000
   -4.6170   12.4998  -29.8435 C   0  0  0  0  0  0  0  0  0  0  0  0
   -5.5850   11.7920  -29.1311 C   0  0  0  0  0  0  0  0  0  0  0  0
   -5.0809   11.1632  -31.8019 C   0  0  0  0  0  0  0  0  0  0  0  0
   -4.3650   12.1855  -31.1790 C   0  0  0  0  0  0  0  0  0  0  0  0
   -6.3009   10.7698  -29.7540 C   0  0  0  0  0  0  0  0  0  0  0  0
   -6.0489   10.4553  -31.0894 C   0  0  0  0  0  0  0  0  0  0  0  0
   -2.1862   13.4670  -31.0583 C   0  0  0  0  0  0  0  0  0  0  0  0
   -3.3297   12.9428  -31.9396 C   0  0  1  0  0  0  0  0  0  0  0  0
   -2.7635   12.1643  -33.0282 N   0  0  0  0  0  0  0  0  0  0  0  0
   -7.2390   10.0961  -29.0297 O   0  0  0  0  0  0  0  0  0  0  0  0
   -7.0014    9.0716  -31.9673 Br  0  0  0  0  0  0  0  0  0  0  0  0
  1  2  2  0
  1  4  1  0
  2  5  1  0
  3  4  2  0
  3  6  1  0
  4  8  1  0
  5  6  2  0
  5 10  1  0
  6 11  1  0
  8  7  1  1
  8  9  1  0
M  END
>  <id>  (243) 
EN300-1893536

>  <smiles>  (243) 
C[C@@H](N)C=1C=CC(O)=C(Br)C1

>  <MDLNUMBER>  (243) 
MFCD08057398

>  <IUPAC Name>  (243) 
4-[(1R)-1-aminoethyl]-2-bromophenol

>  <CAS>  (243) 
1213957-83-5

>  <URL>  (243) 
https://www.enaminestore.com/catalog/EN300-1893536

>  <ROCS_ShapeQuery>  (243) 
_x1604L0AP1_x0771L0AP1

>  <ROCS_TanimotoCombo>  (243) 
0.951 

>  <ROCS_ShapeTanimoto>  (243) 
0.500 

>  <ROCS_ColorTanimoto>  (243) 
0.451 

>  <ROCS_RefTversky>  (243) 
0.437 

>  <ROCS_RefColorTversky>  (243) 
0.513 

>  <ROCS_RefTverskyCombo>  (243) 
0.950 

>  <ROCS_FitTversky>  (243) 
1.404 

>  <ROCS_FitColorTversky>  (243) 
0.789 

>  <ROCS_FitTverskyCombo>  (243) 
2.193 

>  <ROCS_ColorScore>  (243) 
-4.877

>  <ROCS_Overlap>  (243) 
730.311

>  <ROCS_Rank>  (243) 
396                 

$$$$
untitled-dbase-488_24
     RDKit          3D

 12 12  0  0  0  0  0  0  0  0999 V2000
   -4.5617   12.4551  -29.8678 C   0  0  0  0  0  0  0  0  0  0  0  0
   -5.0550   11.1070  -31.8111 C   0  0  0  0  0  0  0  0  0  0  0  0
   -5.5444   11.7763  -29.1474 C   0  0  0  0  0  0  0  0  0  0  0  0
   -6.2824   10.7628  -29.7588 C   0  0  0  0  0  0  0  0  0  0  0  0
   -4.3170   12.1205  -31.1997 C   0  0  0  0  0  0  0  0  0  0  0  0
   -6.0377   10.4282  -31.0907 C   0  0  0  0  0  0  0  0  0  0  0  0
   -5.5327   13.6088  -27.4184 C   0  0  0  0  0  0  0  0  0  0  0  0
   -5.7902   12.1504  -27.7225 C   0  0  0  0  0  0  0  0  0  0  0  0
   -5.1066   14.4255  -28.2283 O   0  0  0  0  0  0  0  0  0  0  0  0
   -7.2406   10.1080  -29.0407 O   0  0  0  0  0  0  0  0  0  0  0  0
   -3.1043   12.9587  -32.0883 Cl  0  0  0  0  0  0  0  0  0  0  0  0
   -7.0200    9.0568  -31.9564 Br  0  0  0  0  0  0  0  0  0  0  0  0
  1  3  2  0
  1  5  1  0
  2  5  2  0
  2  6  1  0
  3  4  1  0
  3  8  1  0
  4  6  2  0
  4 10  1  0
  5 11  1  0
  6 12  1  0
  7  8  1  0
  7  9  2  0
M  END
>  <id>  (244) 
EN300-1922893

>  <smiles>  (244) 
OC=1C(Br)=CC(Cl)=CC1CC=O

>  <IUPAC Name>  (244) 
2-(3-bromo-5-chloro-2-hydroxyphenyl)acetaldehyde

>  <CAS>  (244) 
1782613-72-2

>  <URL>  (244) 
https://www.enaminestore.com/catalog/EN300-1922893

>  <ROCS_ShapeQuery>  (244) 
_x1604L0AP1_x0771L0AP1

>  <ROCS_TanimotoCombo>  (244) 
0.950 

>  <ROCS_ShapeTanimoto>  (244) 
0.453 

>  <ROCS_ColorTanimoto>  (244) 
0.497 

>  <ROCS_RefTversky>  (244) 
0.415 

>  <ROCS_RefColorTversky>  (244) 
0.516 

>  <ROCS_RefTverskyCombo>  (244) 
0.931 

>  <ROCS_FitTversky>  (244) 
1.248 

>  <ROCS_FitColorTversky>  (244) 
0.932 

>  <ROCS_FitTverskyCombo>  (244) 
2.181 

>  <ROCS_ColorScore>  (244) 
-4.880

>  <ROCS_Overlap>  (244) 
694.818

>  <ROCS_Rank>  (244) 
403                 

$$$$
untitled-dbase-816_0
     RDKit          3D

  9  9  0  0  0  0  0  0  0  0999 V2000
   -5.5643   11.7789  -29.1354 C   0  0  0  0  0  0  0  0  0  0  0  0
   -4.5841   12.4703  -29.8473 C   0  0  0  0  0  0  0  0  0  0  0  0
   -5.0584   11.1307  -31.8012 C   0  0  0  0  0  0  0  0  0  0  0  0
   -6.2915   10.7633  -29.7563 C   0  0  0  0  0  0  0  0  0  0  0  0
   -4.3312   12.1462  -31.1802 C   0  0  0  0  0  0  0  0  0  0  0  0
   -6.0385   10.4392  -31.0892 C   0  0  0  0  0  0  0  0  0  0  0  0
   -7.2407   10.1052  -29.0324 O   0  0  0  0  0  0  0  0  0  0  0  0
   -3.0782   13.0291  -32.0891 S   0  0  0  0  0  0  0  0  0  0  0  0
   -7.0081    9.0658  -31.9648 Br  0  0  0  0  0  0  0  0  0  0  0  0
  1  2  2  0
  1  4  1  0
  2  5  1  0
  3  5  2  0
  3  6  1  0
  4  6  2  0
  4  7  1  0
  5  8  1  0
  6  9  1  0
M  END
>  <id>  (245) 
EN300-1893696

>  <smiles>  (245) 
OC=1C=CC(S)=CC1Br

>  <MDLNUMBER>  (245) 
MFCD22481684

>  <IUPAC Name>  (245) 
2-bromo-4-sulfanylphenol

>  <CAS>  (245) 
1361253-65-7

>  <URL>  (245) 
https://www.enaminestore.com/catalog/EN300-1893696

>  <ROCS_ShapeQuery>  (245) 
_x1604L0AP1_x0771L0AP1

>  <ROCS_TanimotoCombo>  (245) 
0.949 

>  <ROCS_ShapeTanimoto>  (245) 
0.453 

>  <ROCS_ColorTanimoto>  (245) 
0.497 

>  <ROCS_RefTversky>  (245) 
0.393 

>  <ROCS_RefColorTversky>  (245) 
0.515 

>  <ROCS_RefTverskyCombo>  (245) 
0.908 

>  <ROCS_FitTversky>  (245) 
1.509 

>  <ROCS_FitColorTversky>  (245) 
0.932 

>  <ROCS_FitTverskyCombo>  (245) 
2.441 

>  <ROCS_ColorScore>  (245) 
-4.879

>  <ROCS_Overlap>  (245) 
654.384

>  <ROCS_Rank>  (245) 
405                 

$$$$
untitled-dbase-374_216
     RDKit          3D

 13 13  0  0  0  0  0  0  0  0999 V2000
   -4.6233   12.5072  -29.8438 C   0  0  0  0  0  0  0  0  0  0  0  0
   -5.5895   11.7970  -29.1313 C   0  0  0  0  0  0  0  0  0  0  0  0
   -5.0851   11.1702  -31.8025 C   0  0  0  0  0  0  0  0  0  0  0  0
   -4.3712   12.1938  -31.1795 C   0  0  0  0  0  0  0  0  0  0  0  0
   -6.3034   10.7734  -29.7543 C   0  0  0  0  0  0  0  0  0  0  0  0
   -6.0513   10.4600  -31.0899 C   0  0  0  0  0  0  0  0  0  0  0  0
   -2.3636   10.8719  -33.8615 C   0  0  0  0  0  0  0  0  0  0  0  0
   -3.3266   12.9618  -31.9485 C   0  0  0  0  0  0  0  0  0  0  0  0
   -1.9465   10.9027  -32.4109 C   0  0  0  0  0  0  0  0  0  0  0  0
   -1.9463   12.3131  -31.8303 C   0  0  0  0  0  0  0  0  0  0  0  0
   -3.4590   11.2282  -34.2820 O   0  0  0  0  0  0  0  0  0  0  0  0
   -7.2397   10.0975  -29.0298 O   0  0  0  0  0  0  0  0  0  0  0  0
   -7.0011    9.0745  -31.9678 Br  0  0  0  0  0  0  0  0  0  0  0  0
  1  2  2  0
  1  4  1  0
  2  5  1  0
  3  4  2  0
  3  6  1  0
  4  8  1  0
  5  6  2  0
  5 12  1  0
  6 13  1  0
  7  9  1  0
  7 11  2  0
  8 10  1  0
  9 10  1  0
M  END
>  <id>  (246) 
EN300-1906693

>  <smiles>  (246) 
OC=1C=CC(CCCC=O)=CC1Br

>  <IUPAC Name>  (246) 
4-(3-bromo-4-hydroxyphenyl)butanal

>  <CAS>  (246) 
2228163-92-4

>  <URL>  (246) 
https://www.enaminestore.com/catalog/EN300-1906693

>  <ROCS_ShapeQuery>  (246) 
_x1604L0AP1_x0771L0AP1

>  <ROCS_TanimotoCombo>  (246) 
0.949 

>  <ROCS_ShapeTanimoto>  (246) 
0.453 

>  <ROCS_ColorTanimoto>  (246) 
0.496 

>  <ROCS_RefTversky>  (246) 
0.422 

>  <ROCS_RefColorTversky>  (246) 
0.515 

>  <ROCS_RefTverskyCombo>  (246) 
0.937 

>  <ROCS_FitTversky>  (246) 
1.191 

>  <ROCS_FitColorTversky>  (246) 
0.931 

>  <ROCS_FitTverskyCombo>  (246) 
2.122 

>  <ROCS_ColorScore>  (246) 
-4.876

>  <ROCS_Overlap>  (246) 
706.980

>  <ROCS_Rank>  (246) 
406                 

$$$$
untitled-dbase-227_0
     RDKit          3D

 11 11  0  0  0  0  0  0  0  0999 V2000
   -5.7778   12.1455  -27.7778 C   0  0  0  0  0  0  0  0  0  0  0  0
   -4.5723   12.4731  -29.8685 C   0  0  0  0  0  0  0  0  0  0  0  0
   -5.0657   11.1235  -31.8108 C   0  0  0  0  0  0  0  0  0  0  0  0
   -5.5481   11.7880  -29.1446 C   0  0  0  0  0  0  0  0  0  0  0  0
   -4.3311   12.1409  -31.2017 C   0  0  0  0  0  0  0  0  0  0  0  0
   -6.2827   10.7707  -29.7537 C   0  0  0  0  0  0  0  0  0  0  0  0
   -6.0415   10.4384  -31.0869 C   0  0  0  0  0  0  0  0  0  0  0  0
   -3.2879   12.8740  -31.9754 C   0  0  0  0  0  0  0  0  0  0  0  0
   -5.9641   12.4355  -26.6697 N   0  0  0  0  0  0  0  0  0  0  0  0
   -7.2387   10.1046  -29.0409 O   0  0  0  0  0  0  0  0  0  0  0  0
   -7.0163    9.0608  -31.9513 Br  0  0  0  0  0  0  0  0  0  0  0  0
  1  4  1  0
  1  9  3  0
  2  4  2  0
  2  5  1  0
  3  5  2  0
  3  7  1  0
  4  6  1  0
  5  8  1  0
  6  7  2  0
  6 10  1  0
  7 11  1  0
M  END
>  <id>  (247) 
EN300-1615109

>  <smiles>  (247) 
CC=1C=C(Br)C(O)=C(C#N)C1

>  <MDLNUMBER>  (247) 
MFCD08457443

>  <IUPAC Name>  (247) 
3-bromo-2-hydroxy-5-methylbenzonitrile

>  <CAS>  (247) 
1032506-48-1

>  <URL>  (247) 
https://www.enaminestore.com/catalog/EN300-1615109

>  <ROCS_ShapeQuery>  (247) 
_x1604L0AP1_x0771L0AP1

>  <ROCS_TanimotoCombo>  (247) 
0.949 

>  <ROCS_ShapeTanimoto>  (247) 
0.452 

>  <ROCS_ColorTanimoto>  (247) 
0.497 

>  <ROCS_RefTversky>  (247) 
0.410 

>  <ROCS_RefColorTversky>  (247) 
0.516 

>  <ROCS_RefTverskyCombo>  (247) 
0.925 

>  <ROCS_FitTversky>  (247) 
1.297 

>  <ROCS_FitColorTversky>  (247) 
0.932 

>  <ROCS_FitTverskyCombo>  (247) 
2.230 

>  <ROCS_ColorScore>  (247) 
-4.882

>  <ROCS_Overlap>  (247) 
684.479

>  <ROCS_Rank>  (247) 
408                 

$$$$
untitled-dbase-173_77
     RDKit          3D

 14 14  0  0  0  0  0  0  0  0999 V2000
   -5.0620   11.1324  -31.8027 C   0  0  0  0  0  0  0  0  0  0  0  0
   -5.5671   11.7802  -29.1367 C   0  0  0  0  0  0  0  0  0  0  0  0
   -4.3364   12.1495  -31.1826 C   0  0  0  0  0  0  0  0  0  0  0  0
   -6.2928   10.7630  -29.7568 C   0  0  0  0  0  0  0  0  0  0  0  0
   -4.5889   12.4734  -29.8496 C   0  0  0  0  0  0  0  0  0  0  0  0
   -6.0402   10.4392  -31.0898 C   0  0  0  0  0  0  0  0  0  0  0  0
   -3.3127   12.8532  -31.9747 C   0  0  0  0  0  0  0  0  0  0  0  0
   -3.4495   11.5901  -34.7335 C   0  0  0  0  0  0  0  0  0  0  0  0
   -3.7636   13.5913  -33.2337 C   0  0  0  0  0  0  0  0  0  0  0  0
   -3.1014   13.0516  -34.5016 C   0  0  0  0  0  0  0  0  0  0  0  0
   -2.1234   12.8615  -31.6512 O   0  0  0  0  0  0  0  0  0  0  0  0
   -7.2417   10.1040  -29.0332 O   0  0  0  0  0  0  0  0  0  0  0  0
   -3.7133   13.7254  -29.0451 Cl  0  0  0  0  0  0  0  0  0  0  0  0
   -7.0074    9.0623  -31.9635 Br  0  0  0  0  0  0  0  0  0  0  0  0
  1  3  2  0
  1  6  1  0
  2  4  1  0
  2  5  2  0
  3  5  1  0
  3  7  1  0
  4  6  2  0
  4 12  1  0
  5 13  1  0
  6 14  1  0
  7  9  1  0
  7 11  2  0
  8 10  1  0
  9 10  1  0
M  END
>  <id>  (248) 
EN300-1276759

>  <smiles>  (248) 
CCCC(=O)C=1C=C(Br)C(O)=CC1Cl

>  <IUPAC Name>  (248) 
1-(5-bromo-2-chloro-4-hydroxyphenyl)butan-1-one

>  <CAS>  (248) 
2163722-30-1

>  <URL>  (248) 
https://www.enaminestore.com/catalog/EN300-1276759

>  <ROCS_ShapeQuery>  (248) 
_x1604L0AP1_x0771L0AP1

>  <ROCS_TanimotoCombo>  (248) 
0.949 

>  <ROCS_ShapeTanimoto>  (248) 
0.498 

>  <ROCS_ColorTanimoto>  (248) 
0.451 

>  <ROCS_RefTversky>  (248) 
0.458 

>  <ROCS_RefColorTversky>  (248) 
0.513 

>  <ROCS_RefTverskyCombo>  (248) 
0.971 

>  <ROCS_FitTversky>  (248) 
1.211 

>  <ROCS_FitColorTversky>  (248) 
0.789 

>  <ROCS_FitTverskyCombo>  (248) 
2.000 

>  <ROCS_ColorScore>  (248) 
-4.879

>  <ROCS_Overlap>  (248) 
768.585

>  <ROCS_Rank>  (248) 
409                 

$$$$
untitled-dbase-950_15
     RDKit          3D

 13 13  0  0  0  0  0  0  0  0999 V2000
   -2.9865   15.3554  -31.0146 C   0  0  0  0  0  0  0  0  0  0  0  0
   -3.1020   14.2324  -31.4238 C   0  0  0  0  0  0  0  0  0  0  0  0
   -4.5579   12.4459  -29.8323 C   0  0  0  0  0  0  0  0  0  0  0  0
   -5.0414   11.1153  -31.7900 C   0  0  0  0  0  0  0  0  0  0  0  0
   -4.3051   12.1218  -31.1652 C   0  0  0  0  0  0  0  0  0  0  0  0
   -5.5470   11.7634  -29.1241 C   0  0  0  0  0  0  0  0  0  0  0  0
   -6.2833   10.7568  -29.7489 C   0  0  0  0  0  0  0  0  0  0  0  0
   -6.0305   10.4327  -31.0818 C   0  0  0  0  0  0  0  0  0  0  0  0
   -6.7535   13.1071  -27.5767 C   0  0  0  0  0  0  0  0  0  0  0  0
   -3.2481   12.8524  -31.9223 C   0  0  0  0  0  0  0  0  0  0  0  0
   -7.2473   10.1013  -29.0398 O   0  0  0  0  0  0  0  0  0  0  0  0
   -5.7828   12.0917  -27.8231 O   0  0  0  0  0  0  0  0  0  0  0  0
   -7.0105    9.0710  -31.9647 Br  0  0  0  0  0  0  0  0  0  0  0  0
  1  2  3  0
  2 10  1  0
  3  5  2  0
  3  6  1  0
  4  5  1  0
  4  8  2  0
  5 10  1  0
  6  7  2  0
  6 12  1  0
  7  8  1  0
  7 11  1  0
  8 13  1  0
  9 12  1  0
M  END
>  <id>  (249) 
EN300-1927015

>  <smiles>  (249) 
COC=1C=C(CC#C)C=C(Br)C1O

>  <IUPAC Name>  (249) 
2-bromo-6-methoxy-4-(prop-2-yn-1-yl)phenol

>  <CAS>  (249) 
2228268-92-4

>  <URL>  (249) 
https://www.enaminestore.com/catalog/EN300-1927015

>  <ROCS_ShapeQuery>  (249) 
_x1604L0AP1_x0771L0AP1

>  <ROCS_TanimotoCombo>  (249) 
0.949 

>  <ROCS_ShapeTanimoto>  (249) 
0.498 

>  <ROCS_ColorTanimoto>  (249) 
0.451 

>  <ROCS_RefTversky>  (249) 
0.453 

>  <ROCS_RefColorTversky>  (249) 
0.513 

>  <ROCS_RefTverskyCombo>  (249) 
0.966 

>  <ROCS_FitTversky>  (249) 
1.250 

>  <ROCS_FitColorTversky>  (249) 
0.789 

>  <ROCS_FitTverskyCombo>  (249) 
2.039 

>  <ROCS_ColorScore>  (249) 
-4.881

>  <ROCS_Overlap>  (249) 
758.801

>  <ROCS_Rank>  (249) 
410                 

$$$$
untitled-dbase-422_0
     RDKit          3D

 11 11  0  0  0  0  0  0  0  0999 V2000
   -5.9781   12.4490  -26.6292 C   0  0  0  0  0  0  0  0  0  0  0  0
   -5.7823   12.1482  -27.7751 C   0  0  0  0  0  0  0  0  0  0  0  0
   -4.5689   12.4729  -29.8617 C   0  0  0  0  0  0  0  0  0  0  0  0
   -5.0585   11.1243  -31.8056 C   0  0  0  0  0  0  0  0  0  0  0  0
   -5.5484   11.7896  -29.1410 C   0  0  0  0  0  0  0  0  0  0  0  0
   -6.2829   10.7737  -29.7525 C   0  0  0  0  0  0  0  0  0  0  0  0
   -4.3240   12.1402  -31.1941 C   0  0  0  0  0  0  0  0  0  0  0  0
   -6.0380   10.4410  -31.0849 C   0  0  0  0  0  0  0  0  0  0  0  0
   -7.2411   10.1076  -29.0426 O   0  0  0  0  0  0  0  0  0  0  0  0
   -3.1155   12.9833  -32.0834 Cl  0  0  0  0  0  0  0  0  0  0  0  0
   -7.0141    9.0663  -31.9524 Br  0  0  0  0  0  0  0  0  0  0  0  0
  1  2  3  0
  2  5  1  0
  3  5  2  0
  3  7  1  0
  4  7  2  0
  4  8  1  0
  5  6  1  0
  6  8  2  0
  6  9  1  0
  7 10  1  0
  8 11  1  0
M  END
>  <id>  (250) 
EN300-1913784

>  <smiles>  (250) 
OC=1C(Br)=CC(Cl)=CC1C#C

>  <MDLNUMBER>  (250) 
MFCD08703568

>  <IUPAC Name>  (250) 
2-bromo-4-chloro-6-ethynylphenol

>  <CAS>  (250) 
1057670-16-2

>  <URL>  (250) 
https://www.enaminestore.com/catalog/EN300-1913784

>  <ROCS_ShapeQuery>  (250) 
_x1604L0AP1_x0771L0AP1

>  <ROCS_TanimotoCombo>  (250) 
0.949 

>  <ROCS_ShapeTanimoto>  (250) 
0.452 

>  <ROCS_ColorTanimoto>  (250) 
0.497 

>  <ROCS_RefTversky>  (250) 
0.408 

>  <ROCS_RefColorTversky>  (250) 
0.516 

>  <ROCS_RefTverskyCombo>  (250) 
0.924 

>  <ROCS_FitTversky>  (250) 
1.310 

>  <ROCS_FitColorTversky>  (250) 
0.932 

>  <ROCS_FitTverskyCombo>  (250) 
2.242 

>  <ROCS_ColorScore>  (250) 
-4.882

>  <ROCS_Overlap>  (250) 
681.868

>  <ROCS_Rank>  (250) 
411                 

$$$$
untitled-dbase-475_14
     RDKit          3D

 12 12  0  0  0  0  0  0  0  0999 V2000
   -4.5740   12.4711  -29.8690 C   0  0  0  0  0  0  0  0  0  0  0  0
   -5.0626   11.1208  -31.8119 C   0  0  0  0  0  0  0  0  0  0  0  0
   -5.5515   11.7863  -29.1472 C   0  0  0  0  0  0  0  0  0  0  0  0
   -6.2846   10.7687  -29.7577 C   0  0  0  0  0  0  0  0  0  0  0  0
   -4.3296   12.1384  -31.2014 C   0  0  0  0  0  0  0  0  0  0  0  0
   -6.0402   10.4359  -31.0900 C   0  0  0  0  0  0  0  0  0  0  0  0
   -5.7895   12.1529  -27.7578 C   0  0  0  0  0  0  0  0  0  0  0  0
   -6.7618   11.4536  -27.0813 N   0  0  0  0  0  0  0  0  0  0  0  0
   -7.2397   10.1071  -29.0410 O   0  0  0  0  0  0  0  0  0  0  0  0
   -4.8997   13.3554  -27.0065 S   0  0  0  0  0  0  0  0  0  0  0  0
   -3.1232   12.9840  -32.0915 Cl  0  0  0  0  0  0  0  0  0  0  0  0
   -7.0151    9.0590  -31.9553 Br  0  0  0  0  0  0  0  0  0  0  0  0
  1  3  2  0
  1  5  1  0
  2  5  2  0
  2  6  1  0
  3  4  1  0
  3  7  1  0
  4  6  2  0
  4  9  1  0
  5 11  1  0
  6 12  1  0
  7  8  1  0
  7 10  2  0
M  END
>  <id>  (251) 
EN300-1903545

>  <smiles>  (251) 
NC(=S)C=1C=C(Cl)C=C(Br)C1O

>  <MDLNUMBER>  (251) 
MFCD09707210

>  <IUPAC Name>  (251) 
3-bromo-5-chloro-2-hydroxybenzene-1-carbothioamide

>  <CAS>  (251) 
938140-82-0

>  <URL>  (251) 
https://www.enaminestore.com/catalog/EN300-1903545

>  <ROCS_ShapeQuery>  (251) 
_x1604L0AP1_x0771L0AP1

>  <ROCS_TanimotoCombo>  (251) 
0.948 

>  <ROCS_ShapeTanimoto>  (251) 
0.451 

>  <ROCS_ColorTanimoto>  (251) 
0.497 

>  <ROCS_RefTversky>  (251) 
0.414 

>  <ROCS_RefColorTversky>  (251) 
0.516 

>  <ROCS_RefTverskyCombo>  (251) 
0.929 

>  <ROCS_FitTversky>  (251) 
1.250 

>  <ROCS_FitColorTversky>  (251) 
0.932 

>  <ROCS_FitTverskyCombo>  (251) 
2.183 

>  <ROCS_ColorScore>  (251) 
-4.881

>  <ROCS_Overlap>  (251) 
691.854

>  <ROCS_Rank>  (251) 
417                 

$$$$
untitled-dbase-883_416
     RDKit          3D

 16 16  0  0  1  0  0  0  0  0999 V2000
   -4.5501   12.3656  -30.0571 C   0  0  0  0  0  0  0  0  0  0  0  0
   -4.3348   11.9817  -31.3807 C   0  0  0  0  0  0  0  0  0  0  0  0
   -5.5251   11.7228  -29.2942 C   0  0  0  0  0  0  0  0  0  0  0  0
   -5.0944   10.9549  -31.9414 C   0  0  0  0  0  0  0  0  0  0  0  0
   -6.2847   10.6961  -29.8549 C   0  0  0  0  0  0  0  0  0  0  0  0
   -6.0694   10.3121  -31.1785 C   0  0  0  0  0  0  0  0  0  0  0  0
   -5.4362    7.7781  -34.3756 C   0  0  0  0  0  0  0  0  0  0  0  0
   -6.3016    8.3447  -36.5016 C   0  0  0  0  0  0  0  0  0  0  0  0
   -4.2933    8.0523  -33.4267 C   0  0  0  0  0  0  0  0  0  0  0  0
   -3.7451    9.4779  -33.5467 C   0  0  0  0  0  0  0  0  0  0  0  0
   -4.8213   10.5761  -33.3841 C   0  0  2  0  0  0  0  0  0  0  0  0
   -4.4202   11.7596  -34.1576 N   0  0  0  0  0  0  0  0  0  0  0  0
   -6.3408    6.9844  -34.1506 O   0  0  0  0  0  0  0  0  0  0  0  0
   -7.2289   10.0914  -29.0791 O   0  0  0  0  0  0  0  0  0  0  0  0
   -5.2894    8.5265  -35.5064 O   0  0  0  0  0  0  0  0  0  0  0  0
   -7.1117    8.9099  -31.9325 Br  0  0  0  0  0  0  0  0  0  0  0  0
  1  2  2  0
  1  3  1  0
  2  4  1  0
  3  5  2  0
  4  6  2  0
  4 11  1  0
  5  6  1  0
  5 14  1  0
  6 16  1  0
  7  9  1  0
  7 13  2  0
  7 15  1  0
  8 15  1  0
  9 10  1  0
 10 11  1  0
 11 12  1  6
M  END
>  <id>  (252) 
EN300-1934500

>  <smiles>  (252) 
COC(=O)CCC(N)C=1C=CC=C(O)C1Br

>  <IUPAC Name>  (252) 
methyl 4-amino-4-(2-bromo-3-hydroxyphenyl)butanoate

>  <CAS>  (252) 
2228733-03-5

>  <URL>  (252) 
https://www.enaminestore.com/catalog/EN300-1934500

>  <ROCS_ShapeQuery>  (252) 
_x1604L0AP1_x0771L0AP1

>  <ROCS_TanimotoCombo>  (252) 
0.948 

>  <ROCS_ShapeTanimoto>  (252) 
0.456 

>  <ROCS_ColorTanimoto>  (252) 
0.492 

>  <ROCS_RefTversky>  (252) 
0.448 

>  <ROCS_RefColorTversky>  (252) 
0.575 

>  <ROCS_RefTverskyCombo>  (252) 
1.024 

>  <ROCS_FitTversky>  (252) 
1.042 

>  <ROCS_FitColorTversky>  (252) 
0.771 

>  <ROCS_FitTverskyCombo>  (252) 
1.813 

>  <ROCS_ColorScore>  (252) 
-5.504

>  <ROCS_Overlap>  (252) 
753.658

>  <ROCS_Rank>  (252) 
418                 

$$$$
untitled-dbase-916_126
     RDKit          3D

 13 13  0  0  0  0  0  0  0  0999 V2000
   -4.3356   12.0858  -30.1667 C   0  0  0  0  0  0  0  0  0  0  0  0
   -4.3391   11.7289  -31.5151 C   0  0  0  0  0  0  0  0  0  0  0  0
   -5.3029   11.5676  -29.3056 C   0  0  0  0  0  0  0  0  0  0  0  0
   -5.3100   10.8539  -32.0025 C   0  0  0  0  0  0  0  0  0  0  0  0
   -6.2737   10.6926  -29.7929 C   0  0  0  0  0  0  0  0  0  0  0  0
   -6.2773   10.3357  -31.1413 C   0  0  0  0  0  0  0  0  0  0  0  0
   -5.2701   10.5003  -33.4672 C   0  0  0  0  0  0  0  0  0  0  0  0
   -5.1441    8.9899  -33.6818 C   0  0  0  0  0  0  0  0  0  0  0  0
   -5.0716    8.6477  -35.1729 C   0  0  0  0  0  0  0  0  0  0  0  0
   -4.9318    7.1501  -35.4249 C   0  0  0  0  0  0  0  0  0  0  0  0
   -6.0246    6.3973  -34.8740 N   0  0  0  0  0  0  0  0  0  0  0  0
   -7.2034   10.2068  -28.9218 O   0  0  0  0  0  0  0  0  0  0  0  0
   -7.6065    9.1409  -31.7946 Br  0  0  0  0  0  0  0  0  0  0  0  0
  1  2  2  0
  1  3  1  0
  2  4  1  0
  3  5  2  0
  4  6  2  0
  4  7  1  0
  5  6  1  0
  5 12  1  0
  6 13  1  0
  7  8  1  0
  8  9  1  0
  9 10  1  0
 10 11  1  0
M  END
>  <id>  (253) 
EN300-1904590

>  <smiles>  (253) 
NCCCCC=1C=CC=C(O)C1Br

>  <IUPAC Name>  (253) 
3-(4-aminobutyl)-2-bromophenol

>  <CAS>  (253) 
2229618-07-7

>  <URL>  (253) 
https://www.enaminestore.com/catalog/EN300-1904590

>  <ROCS_ShapeQuery>  (253) 
_x1604L0AP1_x0771L0AP1

>  <ROCS_TanimotoCombo>  (253) 
0.948 

>  <ROCS_ShapeTanimoto>  (253) 
0.455 

>  <ROCS_ColorTanimoto>  (253) 
0.493 

>  <ROCS_RefTversky>  (253) 
0.422 

>  <ROCS_RefColorTversky>  (253) 
0.545 

>  <ROCS_RefTverskyCombo>  (253) 
0.967 

>  <ROCS_FitTversky>  (253) 
1.203 

>  <ROCS_FitColorTversky>  (253) 
0.838 

>  <ROCS_FitTverskyCombo>  (253) 
2.041 

>  <ROCS_ColorScore>  (253) 
-5.183

>  <ROCS_Overlap>  (253) 
707.496

>  <ROCS_Rank>  (253) 
421                 

$$$$
untitled-dbase-1268_47
     RDKit          3D

 13 13  0  0  1  0  0  0  0  0999 V2000
   -4.6101   12.4948  -29.8651 C   0  0  0  0  0  0  0  0  0  0  0  0
   -4.3636   12.1769  -31.2007 C   0  0  0  0  0  0  0  0  0  0  0  0
   -5.5765   11.7900  -29.1474 C   0  0  0  0  0  0  0  0  0  0  0  0
   -5.0834   11.1544  -31.8186 C   0  0  0  0  0  0  0  0  0  0  0  0
   -6.2963   10.7674  -29.7653 C   0  0  0  0  0  0  0  0  0  0  0  0
   -6.0498   10.4496  -31.1009 C   0  0  0  0  0  0  0  0  0  0  0  0
   -4.7818   10.8530  -33.2514 C   0  0  2  0  0  0  0  0  0  0  0  0
   -5.9948   11.0635  -34.1674 C   0  0  0  0  0  0  0  0  0  0  0  0
   -4.2800    9.4802  -33.4347 N   0  0  0  0  0  0  0  0  0  0  0  0
   -7.2333   10.1011  -29.0324 O   0  0  0  0  0  0  0  0  0  0  0  0
   -5.5695   11.1740  -35.4533 F   0  0  0  0  0  0  0  0  0  0  0  0
   -6.8047    9.9727  -34.1337 F   0  0  0  0  0  0  0  0  0  0  0  0
   -7.0379    9.0523  -31.9330 Br  0  0  0  0  0  0  0  0  0  0  0  0
  1  2  2  0
  1  3  1  0
  2  4  1  0
  3  5  2  0
  4  6  2  0
  4  7  1  0
  5  6  1  0
  5 10  1  0
  6 13  1  0
  7  8  1  0
  7  9  1  1
  8 11  1  0
  8 12  1  0
M  END
>  <id>  (254) 
EN300-1950766

>  <smiles>  (254) 
NC(C(F)F)C=1C=CC=C(O)C1Br

>  <IUPAC Name>  (254) 
3-(1-amino-2,2-difluoroethyl)-2-bromophenol

>  <CAS>  (254) 
2228761-57-5

>  <URL>  (254) 
https://www.enaminestore.com/catalog/EN300-1950766

>  <ROCS_ShapeQuery>  (254) 
_x1604L0AP1_x0771L0AP1

>  <ROCS_TanimotoCombo>  (254) 
0.947 

>  <ROCS_ShapeTanimoto>  (254) 
0.496 

>  <ROCS_ColorTanimoto>  (254) 
0.451 

>  <ROCS_RefTversky>  (254) 
0.453 

>  <ROCS_RefColorTversky>  (254) 
0.513 

>  <ROCS_RefTverskyCombo>  (254) 
0.966 

>  <ROCS_FitTversky>  (254) 
1.240 

>  <ROCS_FitColorTversky>  (254) 
0.789 

>  <ROCS_FitTverskyCombo>  (254) 
2.029 

>  <ROCS_ColorScore>  (254) 
-4.882

>  <ROCS_Overlap>  (254) 
758.475

>  <ROCS_Rank>  (254) 
423                 

$$$$
untitled-dbase-1157_0
     RDKit          3D

 14 14  0  0  0  0  0  0  0  0999 V2000
   -4.6118   12.4951  -29.8640 C   0  0  0  0  0  0  0  0  0  0  0  0
   -4.3622   12.1756  -31.1986 C   0  0  0  0  0  0  0  0  0  0  0  0
   -5.5789   11.7904  -29.1472 C   0  0  0  0  0  0  0  0  0  0  0  0
   -5.0797   11.1513  -31.8164 C   0  0  0  0  0  0  0  0  0  0  0  0
   -6.2964   10.7662  -29.7650 C   0  0  0  0  0  0  0  0  0  0  0  0
   -6.0469   10.4466  -31.0996 C   0  0  0  0  0  0  0  0  0  0  0  0
   -4.7776   10.8619  -33.2132 C   0  0  0  0  0  0  0  0  0  0  0  0
   -5.5257   11.5707  -34.3301 C   0  0  0  0  0  0  0  0  0  0  0  0
   -3.9043   10.0297  -33.5235 O   0  0  0  0  0  0  0  0  0  0  0  0
   -7.2340   10.0999  -29.0327 O   0  0  0  0  0  0  0  0  0  0  0  0
   -6.4446   12.4445  -33.8464 F   0  0  0  0  0  0  0  0  0  0  0  0
   -4.6867   12.2724  -35.1336 F   0  0  0  0  0  0  0  0  0  0  0  0
   -6.2007   10.7106  -35.1371 F   0  0  0  0  0  0  0  0  0  0  0  0
   -7.0353    9.0456  -31.9277 Br  0  0  0  0  0  0  0  0  0  0  0  0
  1  2  2  0
  1  3  1  0
  2  4  1  0
  3  5  2  0
  4  6  2  0
  4  7  1  0
  5  6  1  0
  5 10  1  0
  6 14  1  0
  7  8  1  0
  7  9  2  0
  8 11  1  0
  8 12  1  0
  8 13  1  0
M  END
>  <id>  (255) 
EN300-1950760

>  <smiles>  (255) 
OC=1C=CC=C(C(=O)C(F)(F)F)C1Br

>  <IUPAC Name>  (255) 
1-(2-bromo-3-hydroxyphenyl)-2,2,2-trifluoroethan-1-one

>  <CAS>  (255) 
2229594-80-1

>  <URL>  (255) 
https://www.enaminestore.com/catalog/EN300-1950760

>  <ROCS_ShapeQuery>  (255) 
_x1604L0AP1_x0771L0AP1

>  <ROCS_TanimotoCombo>  (255) 
0.947 

>  <ROCS_ShapeTanimoto>  (255) 
0.450 

>  <ROCS_ColorTanimoto>  (255) 
0.497 

>  <ROCS_RefTversky>  (255) 
0.434 

>  <ROCS_RefColorTversky>  (255) 
0.516 

>  <ROCS_RefTverskyCombo>  (255) 
0.950 

>  <ROCS_FitTversky>  (255) 
1.089 

>  <ROCS_FitColorTversky>  (255) 
0.933 

>  <ROCS_FitTverskyCombo>  (255) 
2.021 

>  <ROCS_ColorScore>  (255) 
-4.882

>  <ROCS_Overlap>  (255) 
728.518

>  <ROCS_Rank>  (255) 
424                 

$$$$
untitled-dbase-1369_450
     RDKit          3D

 14 14  0  0  1  0  0  0  0  0999 V2000
   -4.6116   12.4964  -29.8607 C   0  0  0  0  0  0  0  0  0  0  0  0
   -5.0831   11.1495  -31.8102 C   0  0  0  0  0  0  0  0  0  0  0  0
   -4.3633   12.1737  -31.1948 C   0  0  0  0  0  0  0  0  0  0  0  0
   -5.5795   11.7948  -29.1419 C   0  0  0  0  0  0  0  0  0  0  0  0
   -6.2992   10.7706  -29.7573 C   0  0  0  0  0  0  0  0  0  0  0  0
   -6.0510   10.4479  -31.0914 C   0  0  0  0  0  0  0  0  0  0  0  0
   -5.0307   13.1813  -27.2893 C   0  0  0  0  0  0  0  0  0  0  0  0
   -2.1551   13.3755  -31.0829 C   0  0  0  0  0  0  0  0  0  0  0  0
   -3.3291   12.9246  -31.9632 C   0  0  1  0  0  0  0  0  0  0  0  0
   -7.2426   10.0967  -29.0379 O   0  0  0  0  0  0  0  0  0  0  0  0
   -2.8476   12.0645  -33.0024 O   0  0  0  0  0  0  0  0  0  0  0  0
   -5.8110   12.1220  -27.8398 O   0  0  0  0  0  0  0  0  0  0  0  0
   -2.5541   14.8643  -30.1850 Cl  0  0  0  0  0  0  0  0  0  0  0  0
   -7.0089    9.0626  -31.9617 Br  0  0  0  0  0  0  0  0  0  0  0  0
  1  3  2  0
  1  4  1  0
  2  3  1  0
  2  6  2  0
  3  9  1  0
  4  5  2  0
  4 12  1  0
  5  6  1  0
  5 10  1  0
  6 14  1  0
  7 12  1  0
  8  9  1  0
  8 13  1  0
  9 11  1  6
M  END
>  <id>  (256) 
EN300-1927034

>  <smiles>  (256) 
COC=1C=C(C=C(Br)C1O)C(O)CCl

>  <IUPAC Name>  (256) 
2-bromo-4-(2-chloro-1-hydroxyethyl)-6-methoxyphenol

>  <CAS>  (256) 
2229467-33-6

>  <URL>  (256) 
https://www.enaminestore.com/catalog/EN300-1927034

>  <ROCS_ShapeQuery>  (256) 
_x1604L0AP1_x0771L0AP1

>  <ROCS_TanimotoCombo>  (256) 
0.947 

>  <ROCS_ShapeTanimoto>  (256) 
0.534 

>  <ROCS_ColorTanimoto>  (256) 
0.413 

>  <ROCS_RefTversky>  (256) 
0.481 

>  <ROCS_RefColorTversky>  (256) 
0.510 

>  <ROCS_RefTverskyCombo>  (256) 
0.991 

>  <ROCS_FitTversky>  (256) 
1.260 

>  <ROCS_FitColorTversky>  (256) 
0.684 

>  <ROCS_FitTverskyCombo>  (256) 
1.944 

>  <ROCS_ColorScore>  (256) 
-4.880

>  <ROCS_Overlap>  (256) 
806.489

>  <ROCS_Rank>  (256) 
429                 

$$$$
untitled-dbase-1982_0
     RDKit          3D

  9  9  0  0  0  0  0  0  0  0999 V2000
   -5.5617   11.7767  -29.1373 C   0  0  0  0  0  0  0  0  0  0  0  0
   -4.5814   12.4668  -29.8503 C   0  0  0  0  0  0  0  0  0  0  0  0
   -5.0603   11.1285  -31.8039 C   0  0  0  0  0  0  0  0  0  0  0  0
   -6.2913   10.7625  -29.7575 C   0  0  0  0  0  0  0  0  0  0  0  0
   -6.0406   10.4384  -31.0909 C   0  0  0  0  0  0  0  0  0  0  0  0
   -4.3307   12.1427  -31.1836 C   0  0  0  0  0  0  0  0  0  0  0  0
   -7.2414   10.1066  -29.0326 O   0  0  0  0  0  0  0  0  0  0  0  0
   -7.0111    9.0645  -31.9646 Br  0  0  0  0  0  0  0  0  0  0  0  0
   -2.8710   13.1723  -32.2449 I   0  0  0  0  0  0  0  0  0  0  0  0
  1  2  2  0
  1  4  1  0
  2  6  1  0
  3  5  1  0
  3  6  2  0
  4  5  2  0
  4  7  1  0
  5  8  1  0
  6  9  1  0
M  END
>  <id>  (257) 
EN300-196203

>  <smiles>  (257) 
OC=1C=CC(I)=CC1Br

>  <MDLNUMBER>  (257) 
MFCD11870189

>  <IUPAC Name>  (257) 
2-bromo-4-iodophenol

>  <CAS>  (257) 
133430-98-5

>  <Purity>  (257) 
95

>  <URL>  (257) 
https://www.enaminestore.com/catalog/EN300-196203

>  <MP>  (257) 
50-54

>  <ROCS_ShapeQuery>  (257) 
_x1604L0AP1_x0771L0AP1

>  <ROCS_TanimotoCombo>  (257) 
0.947 

>  <ROCS_ShapeTanimoto>  (257) 
0.450 

>  <ROCS_ColorTanimoto>  (257) 
0.497 

>  <ROCS_RefTversky>  (257) 
0.390 

>  <ROCS_RefColorTversky>  (257) 
0.515 

>  <ROCS_RefTverskyCombo>  (257) 
0.905 

>  <ROCS_FitTversky>  (257) 
1.518 

>  <ROCS_FitColorTversky>  (257) 
0.932 

>  <ROCS_FitTverskyCombo>  (257) 
2.450 

>  <ROCS_ColorScore>  (257) 
-4.879

>  <ROCS_Overlap>  (257) 
649.721

>  <ROCS_Rank>  (257) 
430                 

$$$$
untitled-dbase-1528_32
     RDKit          3D

 12 12  0  0  1  0  0  0  0  0999 V2000
   -4.6064   12.4920  -29.8606 C   0  0  0  0  0  0  0  0  0  0  0  0
   -4.3634   12.1799  -31.1982 C   0  0  0  0  0  0  0  0  0  0  0  0
   -5.5725   11.7857  -29.1440 C   0  0  0  0  0  0  0  0  0  0  0  0
   -5.0865   11.1616  -31.8193 C   0  0  0  0  0  0  0  0  0  0  0  0
   -6.2957   10.7674  -29.7651 C   0  0  0  0  0  0  0  0  0  0  0  0
   -6.0527   10.4553  -31.1027 C   0  0  0  0  0  0  0  0  0  0  0  0
   -6.0094   10.4071  -34.0455 C   0  0  0  0  0  0  0  0  0  0  0  0
   -3.6663    9.8321  -33.4375 C   0  0  0  0  0  0  0  0  0  0  0  0
   -4.7886   10.8663  -33.2542 C   0  0  2  0  0  0  0  0  0  0  0  0
   -6.0967    9.3213  -34.6107 O   0  0  0  0  0  0  0  0  0  0  0  0
   -7.2323   10.0994  -29.0333 O   0  0  0  0  0  0  0  0  0  0  0  0
   -7.0452    9.0638  -31.9392 Br  0  0  0  0  0  0  0  0  0  0  0  0
  1  2  2  0
  1  3  1  0
  2  4  1  0
  3  5  2  0
  4  6  2  0
  4  9  1  0
  5  6  1  0
  5 11  1  0
  6 12  1  0
  7  9  1  0
  7 10  2  0
  9  8  1  1
M  END
>  <id>  (258) 
EN300-1904537

>  <smiles>  (258) 
CC(C=O)C=1C=CC=C(O)C1Br

>  <IUPAC Name>  (258) 
2-(2-bromo-3-hydroxyphenyl)propanal

>  <CAS>  (258) 
2229143-42-2

>  <URL>  (258) 
https://www.enaminestore.com/catalog/EN300-1904537

>  <ROCS_ShapeQuery>  (258) 
_x1604L0AP1_x0771L0AP1

>  <ROCS_TanimotoCombo>  (258) 
0.946 

>  <ROCS_ShapeTanimoto>  (258) 
0.495 

>  <ROCS_ColorTanimoto>  (258) 
0.451 

>  <ROCS_RefTversky>  (258) 
0.443 

>  <ROCS_RefColorTversky>  (258) 
0.513 

>  <ROCS_RefTverskyCombo>  (258) 
0.956 

>  <ROCS_FitTversky>  (258) 
1.315 

>  <ROCS_FitColorTversky>  (258) 
0.789 

>  <ROCS_FitTverskyCombo>  (258) 
2.105 

>  <ROCS_ColorScore>  (258) 
-4.882

>  <ROCS_Overlap>  (258) 
740.745

>  <ROCS_Rank>  (258) 
431                 

$$$$
untitled-dbase-1692_223
     RDKit          3D

 16 17  0  0  0  0  0  0  0  0999 V2000
   -3.0346   14.2971  -31.6022 C   0  0  0  0  0  0  0  0  0  0  0  0
   -4.6023   12.4869  -29.8418 C   0  0  0  0  0  0  0  0  0  0  0  0
   -5.0702   11.1475  -31.7972 C   0  0  0  0  0  0  0  0  0  0  0  0
   -4.3493   12.1671  -31.1756 C   0  0  0  0  0  0  0  0  0  0  0  0
   -5.5761   11.7871  -29.1293 C   0  0  0  0  0  0  0  0  0  0  0  0
   -6.2971   10.7675  -29.7508 C   0  0  0  0  0  0  0  0  0  0  0  0
   -6.0442   10.4477  -31.0848 C   0  0  0  0  0  0  0  0  0  0  0  0
   -3.1443   12.5544  -33.4128 C   0  0  0  0  0  0  0  0  0  0  0  0
   -2.1087   12.1107  -32.4327 C   0  0  0  0  0  0  0  0  0  0  0  0
   -3.3096   12.9160  -31.9367 C   0  0  0  0  0  0  0  0  0  0  0  0
   -5.2391   14.1003  -26.6256 C   0  0  0  0  0  0  0  0  0  0  0  0
   -6.2362   13.4452  -27.5574 C   0  0  0  0  0  0  0  0  0  0  0  0
   -2.8142   15.4042  -31.3340 N   0  0  0  0  0  0  0  0  0  0  0  0
   -7.2453   10.0948  -29.0370 O   0  0  0  0  0  0  0  0  0  0  0  0
   -5.8124   12.1104  -27.8272 O   0  0  0  0  0  0  0  0  0  0  0  0
   -7.0043    9.0699  -31.9645 Br  0  0  0  0  0  0  0  0  0  0  0  0
  1 10  1  0
  1 13  3  0
  2  4  2  0
  2  5  1  0
  3  4  1  0
  3  7  2  0
  4 10  1  0
  5  6  2  0
  5 15  1  0
  6  7  1  0
  6 14  1  0
  7 16  1  0
  8  9  1  0
  8 10  1  0
  9 10  1  0
 11 12  1  0
 12 15  1  0
M  END
>  <id>  (259) 
EN300-1920249

>  <smiles>  (259) 
CCOC=1C=C(C=C(Br)C1O)C2(CC2)C#N

>  <IUPAC Name>  (259) 
1-(3-bromo-5-ethoxy-4-hydroxyphenyl)cyclopropane-1-carbonitrile

>  <CAS>  (259) 
2228782-32-7

>  <URL>  (259) 
https://www.enaminestore.com/catalog/EN300-1920249

>  <ROCS_ShapeQuery>  (259) 
_x1604L0AP1_x0771L0AP1

>  <ROCS_TanimotoCombo>  (259) 
0.946 

>  <ROCS_ShapeTanimoto>  (259) 
0.495 

>  <ROCS_ColorTanimoto>  (259) 
0.451 

>  <ROCS_RefTversky>  (259) 
0.477 

>  <ROCS_RefColorTversky>  (259) 
0.513 

>  <ROCS_RefTverskyCombo>  (259) 
0.990 

>  <ROCS_FitTversky>  (259) 
1.085 

>  <ROCS_FitColorTversky>  (259) 
0.789 

>  <ROCS_FitTverskyCombo>  (259) 
1.874 

>  <ROCS_ColorScore>  (259) 
-4.880

>  <ROCS_Overlap>  (259) 
802.325

>  <ROCS_Rank>  (259) 
433                 

$$$$
untitled-dbase-1374_8
     RDKit          3D

 12 12  0  0  0  0  0  0  0  0999 V2000
   -4.5784   12.4741  -29.8772 C   0  0  0  0  0  0  0  0  0  0  0  0
   -5.0699   11.1231  -31.8189 C   0  0  0  0  0  0  0  0  0  0  0  0
   -5.5537   11.7885  -29.1532 C   0  0  0  0  0  0  0  0  0  0  0  0
   -4.3366   12.1415  -31.2101 C   0  0  0  0  0  0  0  0  0  0  0  0
   -6.2871   10.7701  -29.7620 C   0  0  0  0  0  0  0  0  0  0  0  0
   -6.0452   10.4374  -31.0949 C   0  0  0  0  0  0  0  0  0  0  0  0
   -5.7869   12.1542  -27.7628 C   0  0  0  0  0  0  0  0  0  0  0  0
   -3.2940   12.8752  -31.9841 C   0  0  0  0  0  0  0  0  0  0  0  0
   -4.9517   13.2607  -27.1896 C   0  0  0  0  0  0  0  0  0  0  0  0
   -6.6142   11.6200  -27.0232 O   0  0  0  0  0  0  0  0  0  0  0  0
   -7.2386   10.1062  -29.0426 O   0  0  0  0  0  0  0  0  0  0  0  0
   -7.0199    9.0585  -31.9573 Br  0  0  0  0  0  0  0  0  0  0  0  0
  1  3  2  0
  1  4  1  0
  2  4  2  0
  2  6  1  0
  3  5  1  0
  3  7  1  0
  4  8  1  0
  5  6  2  0
  5 11  1  0
  6 12  1  0
  7  9  1  0
  7 10  2  0
M  END
>  <id>  (260) 
EN300-217930

>  <smiles>  (260) 
CC(=O)C=1C=C(C)C=C(Br)C1O

>  <MDLNUMBER>  (260) 
MFCD00464334

>  <IUPAC Name>  (260) 
1-(3-bromo-2-hydroxy-5-methylphenyl)ethan-1-one

>  <CAS>  (260) 
56609-15-5

>  <Purity>  (260) 
95

>  <URL>  (260) 
https://www.enaminestore.com/catalog/EN300-217930

>  <MP>  (260) 
88-89

>  <ROCS_ShapeQuery>  (260) 
_x1604L0AP1_x0771L0AP1

>  <ROCS_TanimotoCombo>  (260) 
0.946 

>  <ROCS_ShapeTanimoto>  (260) 
0.449 

>  <ROCS_ColorTanimoto>  (260) 
0.497 

>  <ROCS_RefTversky>  (260) 
0.416 

>  <ROCS_RefColorTversky>  (260) 
0.516 

>  <ROCS_RefTverskyCombo>  (260) 
0.931 

>  <ROCS_FitTversky>  (260) 
1.218 

>  <ROCS_FitColorTversky>  (260) 
0.932 

>  <ROCS_FitTverskyCombo>  (260) 
2.150 

>  <ROCS_ColorScore>  (260) 
-4.883

>  <ROCS_Overlap>  (260) 
695.474

>  <ROCS_Rank>  (260) 
434                 

$$$$
untitled-dbase-696_1
     RDKit          3D

 11 11  0  0  1  0  0  0  0  0999 V2000
   -4.5973   12.4798  -29.8377 C   0  0  0  0  0  0  0  0  0  0  0  0
   -5.5741   11.7811  -29.1283 C   0  0  0  0  0  0  0  0  0  0  0  0
   -5.0659   11.1457  -31.7968 C   0  0  0  0  0  0  0  0  0  0  0  0
   -4.3432   12.1621  -31.1720 C   0  0  0  0  0  0  0  0  0  0  0  0
   -6.2968   10.7648  -29.7531 C   0  0  0  0  0  0  0  0  0  0  0  0
   -6.0427   10.4471  -31.0874 C   0  0  0  0  0  0  0  0  0  0  0  0
   -1.9029   12.3003  -31.7844 C   0  0  0  0  0  0  0  0  0  0  0  0
   -3.2984   12.9096  -31.9294 C   0  0  2  0  0  0  0  0  0  0  0  0
   -7.2434   10.1000  -29.0317 O   0  0  0  0  0  0  0  0  0  0  0  0
   -3.2490   14.2588  -31.4512 O   0  0  0  0  0  0  0  0  0  0  0  0
   -7.0043    9.0711  -31.9676 Br  0  0  0  0  0  0  0  0  0  0  0  0
  1  2  2  0
  1  4  1  0
  2  5  1  0
  3  4  2  0
  3  6  1  0
  4  8  1  0
  5  6  2  0
  5  9  1  0
  6 11  1  0
  8  7  1  1
  8 10  1  0
M  END
>  <id>  (261) 
EN300-1897511

>  <smiles>  (261) 
C[C@H](O)C=1C=CC(O)=C(Br)C1

>  <MDLNUMBER>  (261) 
MFCD22570052

>  <IUPAC Name>  (261) 
2-bromo-4-[(1S)-1-hydroxyethyl]phenol

>  <CAS>  (261) 
1932055-68-9

>  <URL>  (261) 
https://www.enaminestore.com/catalog/EN300-1897511

>  <ROCS_ShapeQuery>  (261) 
_x1604L0AP1_x0771L0AP1

>  <ROCS_TanimotoCombo>  (261) 
0.946 

>  <ROCS_ShapeTanimoto>  (261) 
0.495 

>  <ROCS_ColorTanimoto>  (261) 
0.451 

>  <ROCS_RefTversky>  (261) 
0.435 

>  <ROCS_RefColorTversky>  (261) 
0.513 

>  <ROCS_RefTverskyCombo>  (261) 
0.947 

>  <ROCS_FitTversky>  (261) 
1.391 

>  <ROCS_FitColorTversky>  (261) 
0.789 

>  <ROCS_FitTverskyCombo>  (261) 
2.180 

>  <ROCS_ColorScore>  (261) 
-4.878

>  <ROCS_Overlap>  (261) 
726.293

>  <ROCS_Rank>  (261) 
435                 

$$$$
untitled-dbase-834_16
     RDKit          3D

 12 12  0  0  1  0  0  0  0  0999 V2000
   -2.2265   11.4689  -33.8852 C   0  0  0  0  0  0  0  0  0  0  0  0
   -2.7097   12.1343  -33.0102 C   0  0  0  0  0  0  0  0  0  0  0  0
   -4.6175   12.5001  -29.8333 C   0  0  0  0  0  0  0  0  0  0  0  0
   -5.5883   11.7924  -29.1246 C   0  0  0  0  0  0  0  0  0  0  0  0
   -5.0754   11.1648  -31.7940 C   0  0  0  0  0  0  0  0  0  0  0  0
   -4.3611   12.1863  -31.1681 C   0  0  0  0  0  0  0  0  0  0  0  0
   -6.3027   10.7709  -29.7505 C   0  0  0  0  0  0  0  0  0  0  0  0
   -6.0462   10.4570  -31.0853 C   0  0  0  0  0  0  0  0  0  0  0  0
   -2.2153   13.5106  -31.0154 C   0  0  0  0  0  0  0  0  0  0  0  0
   -3.3228   12.9434  -31.9247 C   0  0  1  0  0  0  0  0  0  0  0  0
   -7.2435   10.0973  -29.0298 O   0  0  0  0  0  0  0  0  0  0  0  0
   -6.9965    9.0743  -31.9671 Br  0  0  0  0  0  0  0  0  0  0  0  0
  1  2  3  0
  2 10  1  0
  3  4  2  0
  3  6  1  0
  4  7  1  0
  5  6  2  0
  5  8  1  0
  6 10  1  0
  7  8  2  0
  7 11  1  0
  8 12  1  0
 10  9  1  1
M  END
>  <id>  (262) 
EN300-1906338

>  <smiles>  (262) 
CC(C#C)C=1C=CC(O)=C(Br)C1

>  <IUPAC Name>  (262) 
2-bromo-4-(but-3-yn-2-yl)phenol

>  <CAS>  (262) 
2228552-59-6

>  <URL>  (262) 
https://www.enaminestore.com/catalog/EN300-1906338

>  <ROCS_ShapeQuery>  (262) 
_x1604L0AP1_x0771L0AP1

>  <ROCS_TanimotoCombo>  (262) 
0.946 

>  <ROCS_ShapeTanimoto>  (262) 
0.495 

>  <ROCS_ColorTanimoto>  (262) 
0.451 

>  <ROCS_RefTversky>  (262) 
0.442 

>  <ROCS_RefColorTversky>  (262) 
0.512 

>  <ROCS_RefTverskyCombo>  (262) 
0.955 

>  <ROCS_FitTversky>  (262) 
1.319 

>  <ROCS_FitColorTversky>  (262) 
0.788 

>  <ROCS_FitTverskyCombo>  (262) 
2.107 

>  <ROCS_ColorScore>  (262) 
-4.877

>  <ROCS_Overlap>  (262) 
739.869

>  <ROCS_Rank>  (262) 
436                 

$$$$
untitled-dbase-2137_8
     RDKit          3D

 12 12  0  0  0  0  0  0  0  0999 V2000
   -4.5767   12.4724  -29.8724 C   0  0  0  0  0  0  0  0  0  0  0  0
   -5.0665   11.1231  -31.8157 C   0  0  0  0  0  0  0  0  0  0  0  0
   -5.5528   11.7864  -29.1499 C   0  0  0  0  0  0  0  0  0  0  0  0
   -6.2858   10.7686  -29.7603 C   0  0  0  0  0  0  0  0  0  0  0  0
   -4.3335   12.1408  -31.2054 C   0  0  0  0  0  0  0  0  0  0  0  0
   -6.0427   10.4370  -31.0932 C   0  0  0  0  0  0  0  0  0  0  0  0
   -5.7859   12.1507  -27.7588 C   0  0  0  0  0  0  0  0  0  0  0  0
   -4.9496   13.2556  -27.1845 C   0  0  0  0  0  0  0  0  0  0  0  0
   -6.6137   11.6163  -27.0203 O   0  0  0  0  0  0  0  0  0  0  0  0
   -7.2377   10.1041  -29.0420 O   0  0  0  0  0  0  0  0  0  0  0  0
   -3.3960   12.7999  -31.8990 F   0  0  0  0  0  0  0  0  0  0  0  0
   -7.0152    9.0583  -31.9581 Br  0  0  0  0  0  0  0  0  0  0  0  0
  1  3  2  0
  1  5  1  0
  2  5  2  0
  2  6  1  0
  3  4  1  0
  3  7  1  0
  4  6  2  0
  4 10  1  0
  5 11  1  0
  6 12  1  0
  7  8  1  0
  7  9  2  0
M  END
>  <id>  (263) 
EN300-1256227

>  <smiles>  (263) 
CC(=O)C=1C=C(F)C=C(Br)C1O

>  <MDLNUMBER>  (263) 
MFCD16742831

>  <IUPAC Name>  (263) 
1-(3-bromo-5-fluoro-2-hydroxyphenyl)ethan-1-one

>  <CAS>  (263) 
393-62-4

>  <Purity>  (263) 
95

>  <URL>  (263) 
https://www.enaminestore.com/catalog/EN300-1256227

>  <MP>  (263) 
96-97

>  <ROCS_ShapeQuery>  (263) 
_x1604L0AP1_x0771L0AP1

>  <ROCS_TanimotoCombo>  (263) 
0.946 

>  <ROCS_ShapeTanimoto>  (263) 
0.448 

>  <ROCS_ColorTanimoto>  (263) 
0.497 

>  <ROCS_RefTversky>  (263) 
0.416 

>  <ROCS_RefColorTversky>  (263) 
0.516 

>  <ROCS_RefTverskyCombo>  (263) 
0.932 

>  <ROCS_FitTversky>  (263) 
1.209 

>  <ROCS_FitColorTversky>  (263) 
0.933 

>  <ROCS_FitTverskyCombo>  (263) 
2.142 

>  <ROCS_ColorScore>  (263) 
-4.883

>  <ROCS_Overlap>  (263) 
696.495

>  <ROCS_Rank>  (263) 
437                 

$$$$
untitled-dbase-254_8
     RDKit          3D

 12 12  0  0  0  0  0  0  0  0999 V2000
   -4.5750   12.4693  -29.8691 C   0  0  0  0  0  0  0  0  0  0  0  0
   -5.0643   11.1212  -31.8133 C   0  0  0  0  0  0  0  0  0  0  0  0
   -5.5522   11.7837  -29.1477 C   0  0  0  0  0  0  0  0  0  0  0  0
   -6.2855   10.7667  -29.7590 C   0  0  0  0  0  0  0  0  0  0  0  0
   -4.3311   12.1381  -31.2019 C   0  0  0  0  0  0  0  0  0  0  0  0
   -6.0415   10.4354  -31.0919 C   0  0  0  0  0  0  0  0  0  0  0  0
   -5.7898   12.1487  -27.7578 C   0  0  0  0  0  0  0  0  0  0  0  0
   -4.9564   13.2549  -27.1815 C   0  0  0  0  0  0  0  0  0  0  0  0
   -6.6193   11.6139  -27.0211 O   0  0  0  0  0  0  0  0  0  0  0  0
   -7.2403   10.1042  -29.0428 O   0  0  0  0  0  0  0  0  0  0  0  0
   -3.1251   12.9848  -32.0915 Cl  0  0  0  0  0  0  0  0  0  0  0  0
   -7.0166    9.0595  -31.9583 Br  0  0  0  0  0  0  0  0  0  0  0  0
  1  3  2  0
  1  5  1  0
  2  5  2  0
  2  6  1  0
  3  4  1  0
  3  7  1  0
  4  6  2  0
  4 10  1  0
  5 11  1  0
  6 12  1  0
  7  8  1  0
  7  9  2  0
M  END
>  <id>  (264) 
EN300-1276933

>  <smiles>  (264) 
CC(=O)C=1C=C(Cl)C=C(Br)C1O

>  <MDLNUMBER>  (264) 
MFCD00857068

>  <IUPAC Name>  (264) 
1-(3-bromo-5-chloro-2-hydroxyphenyl)ethan-1-one

>  <CAS>  (264) 
59443-15-1

>  <URL>  (264) 
https://www.enaminestore.com/catalog/EN300-1276933

>  <ROCS_ShapeQuery>  (264) 
_x1604L0AP1_x0771L0AP1

>  <ROCS_TanimotoCombo>  (264) 
0.946 

>  <ROCS_ShapeTanimoto>  (264) 
0.448 

>  <ROCS_ColorTanimoto>  (264) 
0.497 

>  <ROCS_RefTversky>  (264) 
0.414 

>  <ROCS_RefColorTversky>  (264) 
0.516 

>  <ROCS_RefTverskyCombo>  (264) 
0.930 

>  <ROCS_FitTversky>  (264) 
1.226 

>  <ROCS_FitColorTversky>  (264) 
0.933 

>  <ROCS_FitTverskyCombo>  (264) 
2.159 

>  <ROCS_ColorScore>  (264) 
-4.883

>  <ROCS_Overlap>  (264) 
692.817

>  <ROCS_Rank>  (264) 
438                 

$$$$
untitled-dbase-380_40
     RDKit          3D

 12 12  0  0  0  0  0  0  0  0999 V2000
   -4.5771   12.4724  -29.8694 C   0  0  0  0  0  0  0  0  0  0  0  0
   -5.0634   11.1219  -31.8127 C   0  0  0  0  0  0  0  0  0  0  0  0
   -5.5542   11.7864  -29.1481 C   0  0  0  0  0  0  0  0  0  0  0  0
   -6.2859   10.7681  -29.7591 C   0  0  0  0  0  0  0  0  0  0  0  0
   -4.3317   12.1402  -31.2017 C   0  0  0  0  0  0  0  0  0  0  0  0
   -6.0405   10.4358  -31.0915 C   0  0  0  0  0  0  0  0  0  0  0  0
   -5.8009   12.1581  -27.7228 C   0  0  0  0  0  0  0  0  0  0  0  0
   -4.6129   12.6492  -27.0735 N   0  0  0  0  0  0  0  0  0  0  0  0
   -7.2387   10.1063  -29.0402 O   0  0  0  0  0  0  0  0  0  0  0  0
   -4.6057   14.0891  -27.2845 O   0  0  0  0  0  0  0  0  0  0  0  0
   -3.1259   12.9871  -32.0913 Cl  0  0  0  0  0  0  0  0  0  0  0  0
   -7.0143    9.0582  -31.9567 Br  0  0  0  0  0  0  0  0  0  0  0  0
  1  3  2  0
  1  5  1  0
  2  5  2  0
  2  6  1  0
  3  4  1  0
  3  7  1  0
  4  6  2  0
  4  9  1  0
  5 11  1  0
  6 12  1  0
  7  8  1  0
  8 10  1  0
M  END
>  <id>  (265) 
EN300-1926023

>  <smiles>  (265) 
ONCC=1C=C(Cl)C=C(Br)C1O

>  <IUPAC Name>  (265) 
2-bromo-4-chloro-6-[(hydroxyamino)methyl]phenol

>  <CAS>  (265) 
2161596-75-2

>  <URL>  (265) 
https://www.enaminestore.com/catalog/EN300-1926023

>  <ROCS_ShapeQuery>  (265) 
_x1604L0AP1_x0771L0AP1

>  <ROCS_TanimotoCombo>  (265) 
0.946 

>  <ROCS_ShapeTanimoto>  (265) 
0.449 

>  <ROCS_ColorTanimoto>  (265) 
0.497 

>  <ROCS_RefTversky>  (265) 
0.412 

>  <ROCS_RefColorTversky>  (265) 
0.516 

>  <ROCS_RefTverskyCombo>  (265) 
0.928 

>  <ROCS_FitTversky>  (265) 
1.244 

>  <ROCS_FitColorTversky>  (265) 
0.932 

>  <ROCS_FitTverskyCombo>  (265) 
2.176 

>  <ROCS_ColorScore>  (265) 
-4.881

>  <ROCS_Overlap>  (265) 
689.658

>  <ROCS_Rank>  (265) 
439                 

$$$$
untitled-dbase-569_68
     RDKit          3D

 14 14  0  0  0  0  0  0  0  0999 V2000
   -4.5789   12.4684  -29.8389 C   0  0  0  0  0  0  0  0  0  0  0  0
   -5.0523   11.1294  -31.7933 C   0  0  0  0  0  0  0  0  0  0  0  0
   -4.3244   12.1438  -31.1713 C   0  0  0  0  0  0  0  0  0  0  0  0
   -5.5613   11.7787  -29.1283 C   0  0  0  0  0  0  0  0  0  0  0  0
   -6.2892   10.7643  -29.7503 C   0  0  0  0  0  0  0  0  0  0  0  0
   -6.0347   10.4396  -31.0828 C   0  0  0  0  0  0  0  0  0  0  0  0
   -3.0068   14.1592  -31.6252 C   0  0  0  0  0  0  0  0  0  0  0  0
   -3.3006   12.8641  -31.9120 C   0  0  0  0  0  0  0  0  0  0  0  0
   -5.0096   13.1563  -27.2699 C   0  0  0  0  0  0  0  0  0  0  0  0
   -2.5003   12.1508  -32.9875 C   0  0  0  0  0  0  0  0  0  0  0  0
   -7.2467   10.1019  -29.0389 O   0  0  0  0  0  0  0  0  0  0  0  0
   -5.7989   12.1076  -27.8278 O   0  0  0  0  0  0  0  0  0  0  0  0
   -3.2953   12.3244  -34.5712 Cl  0  0  0  0  0  0  0  0  0  0  0  0
   -7.0037    9.0673  -31.9615 Br  0  0  0  0  0  0  0  0  0  0  0  0
  1  3  2  0
  1  4  1  0
  2  3  1  0
  2  6  2  0
  3  8  1  0
  4  5  2  0
  4 12  1  0
  5  6  1  0
  5 11  1  0
  6 14  1  0
  7  8  2  0
  8 10  1  0
  9 12  1  0
 10 13  1  0
M  END
>  <id>  (266) 
EN300-1925708

>  <smiles>  (266) 
COC=1C=C(C=C(Br)C1O)C(=C)CCl

>  <IUPAC Name>  (266) 
2-bromo-4-(3-chloroprop-1-en-2-yl)-6-methoxyphenol

>  <CAS>  (266) 
2228435-31-0

>  <URL>  (266) 
https://www.enaminestore.com/catalog/EN300-1925708

>  <ROCS_ShapeQuery>  (266) 
_x1604L0AP1_x0771L0AP1

>  <ROCS_TanimotoCombo>  (266) 
0.945 

>  <ROCS_ShapeTanimoto>  (266) 
0.494 

>  <ROCS_ColorTanimoto>  (266) 
0.451 

>  <ROCS_RefTversky>  (266) 
0.457 

>  <ROCS_RefColorTversky>  (266) 
0.513 

>  <ROCS_RefTverskyCombo>  (266) 
0.970 

>  <ROCS_FitTversky>  (266) 
1.197 

>  <ROCS_FitColorTversky>  (266) 
0.789 

>  <ROCS_FitTverskyCombo>  (266) 
1.986 

>  <ROCS_ColorScore>  (266) 
-4.881

>  <ROCS_Overlap>  (266) 
766.408

>  <ROCS_Rank>  (266) 
441                 

$$$$
untitled-dbase-1365_15
     RDKit          3D

 12 12  0  0  0  0  0  0  0  0999 V2000
   -4.5779   12.4736  -29.8736 C   0  0  0  0  0  0  0  0  0  0  0  0
   -5.0657   11.1211  -31.8152 C   0  0  0  0  0  0  0  0  0  0  0  0
   -4.3336   12.1401  -31.2057 C   0  0  0  0  0  0  0  0  0  0  0  0
   -5.5543   11.7880  -29.1508 C   0  0  0  0  0  0  0  0  0  0  0  0
   -6.2864   10.7691  -29.7602 C   0  0  0  0  0  0  0  0  0  0  0  0
   -6.0421   10.4356  -31.0924 C   0  0  0  0  0  0  0  0  0  0  0  0
   -3.9130   13.6018  -26.8979 C   0  0  0  0  0  0  0  0  0  0  0  0
   -5.1677   13.4731  -27.3438 C   0  0  0  0  0  0  0  0  0  0  0  0
   -3.2883   12.8718  -31.9780 C   0  0  0  0  0  0  0  0  0  0  0  0
   -5.7993   12.1603  -27.7254 C   0  0  0  0  0  0  0  0  0  0  0  0
   -7.2371   10.1064  -29.0394 O   0  0  0  0  0  0  0  0  0  0  0  0
   -7.0159    9.0569  -31.9559 Br  0  0  0  0  0  0  0  0  0  0  0  0
  1  3  2  0
  1  4  1  0
  2  3  1  0
  2  6  2  0
  3  9  1  0
  4  5  2  0
  4 10  1  0
  5  6  1  0
  5 11  1  0
  6 12  1  0
  7  8  2  0
  8 10  1  0
M  END
>  <id>  (267) 
EN300-1719682

>  <smiles>  (267) 
CC=1C=C(Br)C(O)=C(CC=C)C1

>  <MDLNUMBER>  (267) 
MFCD16742698

>  <IUPAC Name>  (267) 
2-bromo-4-methyl-6-(prop-2-en-1-yl)phenol

>  <CAS>  (267) 
2120-17-4

>  <Purity>  (267) 
95

>  <URL>  (267) 
https://www.enaminestore.com/catalog/EN300-1719682

>  <ROCS_ShapeQuery>  (267) 
_x1604L0AP1_x0771L0AP1

>  <ROCS_TanimotoCombo>  (267) 
0.945 

>  <ROCS_ShapeTanimoto>  (267) 
0.448 

>  <ROCS_ColorTanimoto>  (267) 
0.497 

>  <ROCS_RefTversky>  (267) 
0.413 

>  <ROCS_RefColorTversky>  (267) 
0.516 

>  <ROCS_RefTverskyCombo>  (267) 
0.929 

>  <ROCS_FitTversky>  (267) 
1.234 

>  <ROCS_FitColorTversky>  (267) 
0.932 

>  <ROCS_FitTverskyCombo>  (267) 
2.166 

>  <ROCS_ColorScore>  (267) 
-4.881

>  <ROCS_Overlap>  (267) 
691.168

>  <ROCS_Rank>  (267) 
442                 

$$$$
untitled-dbase-2215_16
     RDKit          3D

 13 13  0  0  0  0  0  0  0  0999 V2000
   -2.2674   13.3987  -31.0910 C   0  0  0  0  0  0  0  0  0  0  0  0
   -4.6150   12.5004  -29.8741 C   0  0  0  0  0  0  0  0  0  0  0  0
   -5.0887   11.1463  -31.8180 C   0  0  0  0  0  0  0  0  0  0  0  0
   -4.3692   12.1737  -31.2076 C   0  0  0  0  0  0  0  0  0  0  0  0
   -5.5802   11.7997  -29.1508 C   0  0  0  0  0  0  0  0  0  0  0  0
   -6.2997   10.7724  -29.7611 C   0  0  0  0  0  0  0  0  0  0  0  0
   -6.0539   10.4456  -31.0947 C   0  0  0  0  0  0  0  0  0  0  0  0
   -6.8006   13.1251  -27.5984 C   0  0  0  0  0  0  0  0  0  0  0  0
   -3.3379   12.9237  -31.9808 C   0  0  0  0  0  0  0  0  0  0  0  0
   -1.4230   13.7747  -30.3894 N   0  0  0  0  0  0  0  0  0  0  0  0
   -7.2404   10.0993  -29.0374 O   0  0  0  0  0  0  0  0  0  0  0  0
   -5.8093   12.1309  -27.8493 O   0  0  0  0  0  0  0  0  0  0  0  0
   -7.0115    9.0559  -31.9583 Br  0  0  0  0  0  0  0  0  0  0  0  0
  1  9  1  0
  1 10  3  0
  2  4  2  0
  2  5  1  0
  3  4  1  0
  3  7  2  0
  4  9  1  0
  5  6  2  0
  5 12  1  0
  6  7  1  0
  6 11  1  0
  7 13  1  0
  8 12  1  0
M  END
>  <id>  (268) 
EN300-1910632

>  <smiles>  (268) 
COC=1C=C(CC#N)C=C(Br)C1O

>  <MDLNUMBER>  (268) 
MFCD00060307

>  <IUPAC Name>  (268) 
2-(3-bromo-4-hydroxy-5-methoxyphenyl)acetonitrile

>  <CAS>  (268) 
81038-44-0

>  <URL>  (268) 
https://www.enaminestore.com/catalog/EN300-1910632

>  <MP>  (268) 
145-146

>  <ROCS_ShapeQuery>  (268) 
_x1604L0AP1_x0771L0AP1

>  <ROCS_TanimotoCombo>  (268) 
0.945 

>  <ROCS_ShapeTanimoto>  (268) 
0.494 

>  <ROCS_ColorTanimoto>  (268) 
0.451 

>  <ROCS_RefTversky>  (268) 
0.451 

>  <ROCS_RefColorTversky>  (268) 
0.513 

>  <ROCS_RefTverskyCombo>  (268) 
0.964 

>  <ROCS_FitTversky>  (268) 
1.242 

>  <ROCS_FitColorTversky>  (268) 
0.789 

>  <ROCS_FitTverskyCombo>  (268) 
2.031 

>  <ROCS_ColorScore>  (268) 
-4.880

>  <ROCS_Overlap>  (268) 
755.427

>  <ROCS_Rank>  (268) 
443                 

$$$$
untitled-dbase-1722_36
     RDKit          3D

 13 13  0  0  1  0  0  0  0  0999 V2000
   -4.9427   12.7499  -29.7049 C   0  0  0  0  0  0  0  0  0  0  0  0
   -5.8059   11.8932  -29.0219 C   0  0  0  0  0  0  0  0  0  0  0  0
   -5.2739   11.4709  -31.7277 C   0  0  0  0  0  0  0  0  0  0  0  0
   -4.6767   12.5388  -31.0579 C   0  0  0  0  0  0  0  0  0  0  0  0
   -6.4030   10.8253  -29.6917 C   0  0  0  0  0  0  0  0  0  0  0  0
   -6.1371   10.6141  -31.0446 C   0  0  0  0  0  0  0  0  0  0  0  0
   -3.7536   13.4552  -31.7870 C   0  0  2  0  0  0  0  0  0  0  0  0
   -2.3319   13.4528  -31.2058 C   0  0  0  0  0  0  0  0  0  0  0  0
   -4.2511   14.8429  -31.8127 N   0  0  0  0  0  0  0  0  0  0  0  0
   -7.2404   10.0055  -28.9952 O   0  0  0  0  0  0  0  0  0  0  0  0
   -2.3087   14.2180  -30.0830 F   0  0  0  0  0  0  0  0  0  0  0  0
   -1.9838   12.1996  -30.8116 F   0  0  0  0  0  0  0  0  0  0  0  0
   -6.9295    9.1724  -31.9860 Br  0  0  0  0  0  0  0  0  0  0  0  0
  1  2  2  0
  1  4  1  0
  2  5  1  0
  3  4  2  0
  3  6  1  0
  4  7  1  0
  5  6  2  0
  5 10  1  0
  6 13  1  0
  7  8  1  0
  7  9  1  1
  8 11  1  0
  8 12  1  0
M  END
>  <id>  (269) 
EN300-1937532

>  <smiles>  (269) 
NC(C(F)F)C=1C=CC(O)=C(Br)C1

>  <MDLNUMBER>  (269) 
MFCD26136569

>  <IUPAC Name>  (269) 
4-(1-amino-2,2-difluoroethyl)-2-bromophenol

>  <CAS>  (269) 
1824621-54-6

>  <URL>  (269) 
https://www.enaminestore.com/catalog/EN300-1937532

>  <ROCS_ShapeQuery>  (269) 
_x1604L0AP1_x0771L0AP1

>  <ROCS_TanimotoCombo>  (269) 
0.945 

>  <ROCS_ShapeTanimoto>  (269) 
0.515 

>  <ROCS_ColorTanimoto>  (269) 
0.430 

>  <ROCS_RefTversky>  (269) 
0.464 

>  <ROCS_RefColorTversky>  (269) 
0.496 

>  <ROCS_RefTverskyCombo>  (269) 
0.959 

>  <ROCS_FitTversky>  (269) 
1.276 

>  <ROCS_FitColorTversky>  (269) 
0.763 

>  <ROCS_FitTverskyCombo>  (269) 
2.039 

>  <ROCS_ColorScore>  (269) 
-4.718

>  <ROCS_Overlap>  (269) 
777.039

>  <ROCS_Rank>  (269) 
445                 

$$$$
untitled-dbase-1603_4
     RDKit          3D

 11 11  0  0  0  0  0  0  0  0999 V2000
   -4.6099   12.4980  -29.8469 C   0  0  0  0  0  0  0  0  0  0  0  0
   -4.3573   12.1868  -31.1829 C   0  0  0  0  0  0  0  0  0  0  0  0
   -5.5789   11.7891  -29.1368 C   0  0  0  0  0  0  0  0  0  0  0  0
   -5.0738   11.1668  -31.8089 C   0  0  0  0  0  0  0  0  0  0  0  0
   -6.2954   10.7691  -29.7628 C   0  0  0  0  0  0  0  0  0  0  0  0
   -6.0429   10.4579  -31.0989 C   0  0  0  0  0  0  0  0  0  0  0  0
   -4.7686   10.8862  -33.2069 C   0  0  0  0  0  0  0  0  0  0  0  0
   -5.8841   11.0294  -34.1985 C   0  0  0  0  0  0  0  0  0  0  0  0
   -3.6667   10.5369  -33.6291 O   0  0  0  0  0  0  0  0  0  0  0  0
   -7.2349   10.0985  -29.0369 O   0  0  0  0  0  0  0  0  0  0  0  0
   -7.0299    9.0626  -31.9381 Br  0  0  0  0  0  0  0  0  0  0  0  0
  1  2  2  0
  1  3  1  0
  2  4  1  0
  3  5  2  0
  4  6  2  0
  4  7  1  0
  5  6  1  0
  5 10  1  0
  6 11  1  0
  7  8  1  0
  7  9  2  0
M  END
>  <id>  (270) 
EN300-1914615

>  <smiles>  (270) 
CC(=O)C=1C=CC=C(O)C1Br

>  <MDLNUMBER>  (270) 
MFCD04038961

>  <IUPAC Name>  (270) 
1-(2-bromo-3-hydroxyphenyl)ethan-1-one

>  <CAS>  (270) 
1232407-20-3

>  <Purity>  (270) 
95

>  <URL>  (270) 
https://www.enaminestore.com/catalog/EN300-1914615

>  <ROCS_ShapeQuery>  (270) 
_x1604L0AP1_x0771L0AP1

>  <ROCS_TanimotoCombo>  (270) 
0.945 

>  <ROCS_ShapeTanimoto>  (270) 
0.447 

>  <ROCS_ColorTanimoto>  (270) 
0.497 

>  <ROCS_RefTversky>  (270) 
0.407 

>  <ROCS_RefColorTversky>  (270) 
0.516 

>  <ROCS_RefTverskyCombo>  (270) 
0.923 

>  <ROCS_FitTversky>  (270) 
1.287 

>  <ROCS_FitColorTversky>  (270) 
0.933 

>  <ROCS_FitTverskyCombo>  (270) 
2.220 

>  <ROCS_ColorScore>  (270) 
-4.883

>  <ROCS_Overlap>  (270) 
679.997

>  <ROCS_Rank>  (270) 
446                 

$$$$
untitled-dbase-1632_185
     RDKit          3D

 14 14  0  0  0  0  0  0  0  0999 V2000
   -4.5762   12.4656  -29.8480 C   0  0  0  0  0  0  0  0  0  0  0  0
   -5.0527   11.1220  -31.7985 C   0  0  0  0  0  0  0  0  0  0  0  0
   -4.3234   12.1374  -31.1799 C   0  0  0  0  0  0  0  0  0  0  0  0
   -5.5583   11.7783  -29.1346 C   0  0  0  0  0  0  0  0  0  0  0  0
   -6.2876   10.7630  -29.7532 C   0  0  0  0  0  0  0  0  0  0  0  0
   -6.0349   10.4348  -31.0852 C   0  0  0  0  0  0  0  0  0  0  0  0
   -3.3011   12.8561  -31.9243 C   0  0  0  0  0  0  0  0  0  0  0  0
   -2.5527   13.9400  -31.2045 C   0  0  0  0  0  0  0  0  0  0  0  0
   -4.5127   13.4989  -26.3635 C   0  0  0  0  0  0  0  0  0  0  0  0
   -5.5570   13.4658  -27.4589 C   0  0  0  0  0  0  0  0  0  0  0  0
   -3.0063   12.6458  -33.1026 O   0  0  0  0  0  0  0  0  0  0  0  0
   -7.2447   10.1029  -29.0391 O   0  0  0  0  0  0  0  0  0  0  0  0
   -5.7935   12.1105  -27.8345 O   0  0  0  0  0  0  0  0  0  0  0  0
   -7.0077    9.0630  -31.9604 Br  0  0  0  0  0  0  0  0  0  0  0  0
  1  3  2  0
  1  4  1  0
  2  3  1  0
  2  6  2  0
  3  7  1  0
  4  5  2  0
  4 13  1  0
  5  6  1  0
  5 12  1  0
  6 14  1  0
  7  8  1  0
  7 11  2  0
  9 10  1  0
 10 13  1  0
M  END
>  <id>  (271) 
EN300-1920019

>  <smiles>  (271) 
CCOC=1C=C(C=C(Br)C1O)C(=O)C

>  <IUPAC Name>  (271) 
1-(3-bromo-5-ethoxy-4-hydroxyphenyl)ethan-1-one

>  <CAS>  (271) 
1556173-17-1

>  <URL>  (271) 
https://www.enaminestore.com/catalog/EN300-1920019

>  <ROCS_ShapeQuery>  (271) 
_x1604L0AP1_x0771L0AP1

>  <ROCS_TanimotoCombo>  (271) 
0.945 

>  <ROCS_ShapeTanimoto>  (271) 
0.494 

>  <ROCS_ColorTanimoto>  (271) 
0.451 

>  <ROCS_RefTversky>  (271) 
0.459 

>  <ROCS_RefColorTversky>  (271) 
0.513 

>  <ROCS_RefTverskyCombo>  (271) 
0.972 

>  <ROCS_FitTversky>  (271) 
1.182 

>  <ROCS_FitColorTversky>  (271) 
0.789 

>  <ROCS_FitTverskyCombo>  (271) 
1.971 

>  <ROCS_ColorScore>  (271) 
-4.882

>  <ROCS_Overlap>  (271) 
769.678

>  <ROCS_Rank>  (271) 
447                 

$$$$
untitled-dbase-1534_47
     RDKit          3D

 12 12  0  0  1  0  0  0  0  0999 V2000
   -4.6094   12.4918  -29.8283 C   0  0  0  0  0  0  0  0  0  0  0  0
   -5.5847   11.7878  -29.1221 C   0  0  0  0  0  0  0  0  0  0  0  0
   -5.0670   11.1578  -31.7900 C   0  0  0  0  0  0  0  0  0  0  0  0
   -4.3506   12.1768  -31.1623 C   0  0  0  0  0  0  0  0  0  0  0  0
   -6.3011   10.7688  -29.7497 C   0  0  0  0  0  0  0  0  0  0  0  0
   -6.0423   10.4537  -31.0837 C   0  0  0  0  0  0  0  0  0  0  0  0
   -2.6793   12.1294  -33.0549 C   0  0  0  0  0  0  0  0  0  0  0  0
   -2.1802   13.4698  -31.0191 C   0  0  0  0  0  0  0  0  0  0  0  0
   -3.3075   12.9300  -31.9163 C   0  0  2  0  0  0  0  0  0  0  0  0
   -3.1058   12.1197  -34.2056 O   0  0  0  0  0  0  0  0  0  0  0  0
   -7.2464   10.0988  -29.0314 O   0  0  0  0  0  0  0  0  0  0  0  0
   -6.9953    9.0743  -31.9679 Br  0  0  0  0  0  0  0  0  0  0  0  0
  1  2  2  0
  1  4  1  0
  2  5  1  0
  3  4  2  0
  3  6  1  0
  4  9  1  0
  5  6  2  0
  5 11  1  0
  6 12  1  0
  7  9  1  0
  7 10  2  0
  9  8  1  1
M  END
>  <id>  (272) 
EN300-1907333

>  <smiles>  (272) 
CC(C=O)C=1C=CC(O)=C(Br)C1

>  <IUPAC Name>  (272) 
2-(3-bromo-4-hydroxyphenyl)propanal

>  <CAS>  (272) 
1785179-52-3

>  <URL>  (272) 
https://www.enaminestore.com/catalog/EN300-1907333

>  <ROCS_ShapeQuery>  (272) 
_x1604L0AP1_x0771L0AP1

>  <ROCS_TanimotoCombo>  (272) 
0.945 

>  <ROCS_ShapeTanimoto>  (272) 
0.494 

>  <ROCS_ColorTanimoto>  (272) 
0.451 

>  <ROCS_RefTversky>  (272) 
0.442 

>  <ROCS_RefColorTversky>  (272) 
0.513 

>  <ROCS_RefTverskyCombo>  (272) 
0.954 

>  <ROCS_FitTversky>  (272) 
1.315 

>  <ROCS_FitColorTversky>  (272) 
0.789 

>  <ROCS_FitTverskyCombo>  (272) 
2.104 

>  <ROCS_ColorScore>  (272) 
-4.877

>  <ROCS_Overlap>  (272) 
739.195

>  <ROCS_Rank>  (272) 
448                 

$$$$
untitled-dbase-360_2
     RDKit          3D

 11 11  0  0  0  0  0  0  0  0999 V2000
   -4.6059   12.4925  -29.8534 C   0  0  0  0  0  0  0  0  0  0  0  0
   -4.3548   12.1775  -31.1888 C   0  0  0  0  0  0  0  0  0  0  0  0
   -5.5757   11.7871  -29.1408 C   0  0  0  0  0  0  0  0  0  0  0  0
   -5.0736   11.1572  -31.8117 C   0  0  0  0  0  0  0  0  0  0  0  0
   -6.2944   10.7668  -29.7637 C   0  0  0  0  0  0  0  0  0  0  0  0
   -6.0434   10.4518  -31.0992 C   0  0  0  0  0  0  0  0  0  0  0  0
   -4.7670   10.8587  -33.2441 C   0  0  0  0  0  0  0  0  0  0  0  0
   -5.8206   11.4407  -34.1791 C   0  0  0  0  0  0  0  0  0  0  0  0
   -7.2348   10.0998  -29.0358 O   0  0  0  0  0  0  0  0  0  0  0  0
   -7.0300    9.0576  -31.9382 Br  0  0  0  0  0  0  0  0  0  0  0  0
   -5.8730   13.3791  -34.0076 Br  0  0  0  0  0  0  0  0  0  0  0  0
  1  2  2  0
  1  3  1  0
  2  4  1  0
  3  5  2  0
  4  6  2  0
  4  7  1  0
  5  6  1  0
  5  9  1  0
  6 10  1  0
  7  8  1  0
  8 11  1  0
M  END
>  <id>  (273) 
EN300-1904531

>  <smiles>  (273) 
OC=1C=CC=C(CCBr)C1Br

>  <MDLNUMBER>  (273) 
MFCD33499665

>  <IUPAC Name>  (273) 
2-bromo-3-(2-bromoethyl)phenol

>  <CAS>  (273) 
2228163-60-6

>  <URL>  (273) 
https://www.enaminestore.com/catalog/EN300-1904531

>  <ROCS_ShapeQuery>  (273) 
_x1604L0AP1_x0771L0AP1

>  <ROCS_TanimotoCombo>  (273) 
0.944 

>  <ROCS_ShapeTanimoto>  (273) 
0.447 

>  <ROCS_ColorTanimoto>  (273) 
0.497 

>  <ROCS_RefTversky>  (273) 
0.403 

>  <ROCS_RefColorTversky>  (273) 
0.516 

>  <ROCS_RefTverskyCombo>  (273) 
0.919 

>  <ROCS_FitTversky>  (273) 
1.327 

>  <ROCS_FitColorTversky>  (273) 
0.933 

>  <ROCS_FitTverskyCombo>  (273) 
2.260 

>  <ROCS_ColorScore>  (273) 
-4.883

>  <ROCS_Overlap>  (273) 
672.703

>  <ROCS_Rank>  (273) 
449                 

$$$$
untitled-dbase-99_1
     RDKit          3D

 12 12  0  0  0  0  0  0  0  0999 V2000
   -4.5954   12.4789  -29.8360 C   0  0  0  0  0  0  0  0  0  0  0  0
   -5.5721   11.7796  -29.1271 C   0  0  0  0  0  0  0  0  0  0  0  0
   -4.3416   12.1627  -31.1707 C   0  0  0  0  0  0  0  0  0  0  0  0
   -6.2951   10.7640  -29.7529 C   0  0  0  0  0  0  0  0  0  0  0  0
   -5.0645   11.1471  -31.7964 C   0  0  0  0  0  0  0  0  0  0  0  0
   -6.0413   10.4477  -31.0875 C   0  0  0  0  0  0  0  0  0  0  0  0
   -3.3461   12.8777  -31.8882 N   0  0  0  0  0  0  0  0  0  0  0  0
   -2.1659   12.4520  -31.8781 O   0  0  0  0  0  0  0  0  0  0  0  0
   -3.6742   13.9157  -32.5121 O   0  0  0  0  0  0  0  0  0  0  0  0
   -7.2424   10.1005  -29.0312 O   0  0  0  0  0  0  0  0  0  0  0  0
   -4.8153   10.8477  -33.0811 F   0  0  0  0  0  0  0  0  0  0  0  0
   -7.0109    9.0709  -31.9604 Br  0  0  0  0  0  0  0  0  0  0  0  0
  1  2  2  0
  1  3  1  0
  2  4  1  0
  3  5  2  0
  3  7  1  0
  4  6  2  0
  4 10  1  0
  5  6  1  0
  5 11  1  0
  6 12  1  0
  7  8  1  0
  7  9  2  0
M  CHG  2   7   1   8  -1
M  END
>  <id>  (274) 
EN300-316201

>  <smiles>  (274) 
OC=1C=CC([N+](=O)[O-])=C(F)C1Br

>  <MDLNUMBER>  (274) 
MFCD26407438

>  <IUPAC Name>  (274) 
2-bromo-3-fluoro-4-nitrophenol

>  <CAS>  (274) 
1806987-57-4

>  <Purity>  (274) 
95

>  <URL>  (274) 
https://www.enaminestore.com/catalog/EN300-316201

>  <ROCS_ShapeQuery>  (274) 
_x1604L0AP1_x0771L0AP1

>  <ROCS_TanimotoCombo>  (274) 
0.944 

>  <ROCS_ShapeTanimoto>  (274) 
0.494 

>  <ROCS_ColorTanimoto>  (274) 
0.450 

>  <ROCS_RefTversky>  (274) 
0.447 

>  <ROCS_RefColorTversky>  (274) 
0.513 

>  <ROCS_RefTverskyCombo>  (274) 
0.959 

>  <ROCS_FitTversky>  (274) 
1.271 

>  <ROCS_FitColorTversky>  (274) 
0.787 

>  <ROCS_FitTverskyCombo>  (274) 
2.058 

>  <ROCS_ColorScore>  (274) 
-4.879

>  <ROCS_Overlap>  (274) 
748.086

>  <ROCS_Rank>  (274) 
451                 

$$$$
untitled-dbase-1027_6
     RDKit          3D

 12 12  0  0  0  0  0  0  0  0999 V2000
   -3.8339   13.7182  -26.7987 C   0  0  0  0  0  0  0  0  0  0  0  0
   -4.7177   13.0188  -27.2128 C   0  0  0  0  0  0  0  0  0  0  0  0
   -4.5793   12.4743  -29.8727 C   0  0  0  0  0  0  0  0  0  0  0  0
   -5.0661   11.1218  -31.8146 C   0  0  0  0  0  0  0  0  0  0  0  0
   -5.5550   11.7878  -29.1500 C   0  0  0  0  0  0  0  0  0  0  0  0
   -6.2862   10.7683  -29.7595 C   0  0  0  0  0  0  0  0  0  0  0  0
   -4.3349   12.1414  -31.2051 C   0  0  0  0  0  0  0  0  0  0  0  0
   -6.0418   10.4353  -31.0919 C   0  0  0  0  0  0  0  0  0  0  0  0
   -5.8007   12.1603  -27.7247 C   0  0  0  0  0  0  0  0  0  0  0  0
   -7.2376   10.1060  -29.0392 O   0  0  0  0  0  0  0  0  0  0  0  0
   -3.1309   12.9890  -32.0965 Cl  0  0  0  0  0  0  0  0  0  0  0  0
   -7.0149    9.0559  -31.9551 Br  0  0  0  0  0  0  0  0  0  0  0  0
  1  2  3  0
  2  9  1  0
  3  5  2  0
  3  7  1  0
  4  7  2  0
  4  8  1  0
  5  6  1  0
  5  9  1  0
  6  8  2  0
  6 10  1  0
  7 11  1  0
  8 12  1  0
M  END
>  <id>  (275) 
EN300-1922881

>  <smiles>  (275) 
OC=1C(Br)=CC(Cl)=CC1CC#C

>  <IUPAC Name>  (275) 
2-bromo-4-chloro-6-(prop-2-yn-1-yl)phenol

>  <CAS>  (275) 
2229351-87-3

>  <URL>  (275) 
https://www.enaminestore.com/catalog/EN300-1922881

>  <ROCS_ShapeQuery>  (275) 
_x1604L0AP1_x0771L0AP1

>  <ROCS_TanimotoCombo>  (275) 
0.944 

>  <ROCS_ShapeTanimoto>  (275) 
0.447 

>  <ROCS_ColorTanimoto>  (275) 
0.497 

>  <ROCS_RefTversky>  (275) 
0.412 

>  <ROCS_RefColorTversky>  (275) 
0.516 

>  <ROCS_RefTverskyCombo>  (275) 
0.927 

>  <ROCS_FitTversky>  (275) 
1.237 

>  <ROCS_FitColorTversky>  (275) 
0.932 

>  <ROCS_FitTverskyCombo>  (275) 
2.169 

>  <ROCS_ColorScore>  (275) 
-4.881

>  <ROCS_Overlap>  (275) 
688.539

>  <ROCS_Rank>  (275) 
453                 

$$$$
untitled-dbase-1443_0
     RDKit          3D

 12 12  0  0  0  0  0  0  0  0999 V2000
   -4.5836   12.4724  -29.8663 C   0  0  0  0  0  0  0  0  0  0  0  0
   -5.0677   11.1257  -31.8128 C   0  0  0  0  0  0  0  0  0  0  0  0
   -4.3379   12.1440  -31.1995 C   0  0  0  0  0  0  0  0  0  0  0  0
   -5.5590   11.7825  -29.1463 C   0  0  0  0  0  0  0  0  0  0  0  0
   -6.2888   10.7643  -29.7596 C   0  0  0  0  0  0  0  0  0  0  0  0
   -6.0432   10.4358  -31.0929 C   0  0  0  0  0  0  0  0  0  0  0  0
   -2.6803   13.8492  -31.2148 C   0  0  0  0  0  0  0  0  0  0  0  0
   -4.9956   13.1649  -27.2950 C   0  0  0  0  0  0  0  0  0  0  0  0
   -7.2385   10.1011  -29.0386 O   0  0  0  0  0  0  0  0  0  0  0  0
   -3.3876   12.8185  -31.9026 O   0  0  0  0  0  0  0  0  0  0  0  0
   -5.7858   12.1122  -27.8441 O   0  0  0  0  0  0  0  0  0  0  0  0
   -7.0154    9.0596  -31.9615 Br  0  0  0  0  0  0  0  0  0  0  0  0
  1  3  2  0
  1  4  1  0
  2  3  1  0
  2  6  2  0
  3 10  1  0
  4  5  2  0
  4 11  1  0
  5  6  1  0
  5  9  1  0
  6 12  1  0
  7 10  1  0
  8 11  1  0
M  END
>  <id>  (276) 
EN300-1938211

>  <smiles>  (276) 
COC=1C=C(Br)C(O)=C(OC)C1

>  <IUPAC Name>  (276) 
2-bromo-4,6-dimethoxyphenol

>  <CAS>  (276) 
1219618-88-8

>  <URL>  (276) 
https://www.enaminestore.com/catalog/EN300-1938211

>  <ROCS_ShapeQuery>  (276) 
_x1604L0AP1_x0771L0AP1

>  <ROCS_TanimotoCombo>  (276) 
0.944 

>  <ROCS_ShapeTanimoto>  (276) 
0.493 

>  <ROCS_ColorTanimoto>  (276) 
0.451 

>  <ROCS_RefTversky>  (276) 
0.443 

>  <ROCS_RefColorTversky>  (276) 
0.513 

>  <ROCS_RefTverskyCombo>  (276) 
0.956 

>  <ROCS_FitTversky>  (276) 
1.295 

>  <ROCS_FitColorTversky>  (276) 
0.789 

>  <ROCS_FitTverskyCombo>  (276) 
2.084 

>  <ROCS_ColorScore>  (276) 
-4.881

>  <ROCS_Overlap>  (276) 
741.347

>  <ROCS_Rank>  (276) 
454                 

$$$$
untitled-dbase-1429_5
     RDKit          3D

 12 12  0  0  0  0  0  0  0  0999 V2000
   -4.7175   13.0157  -27.2218 C   0  0  0  0  0  0  0  0  0  0  0  0
   -4.5780   12.4727  -29.8730 C   0  0  0  0  0  0  0  0  0  0  0  0
   -5.0633   11.1192  -31.8145 C   0  0  0  0  0  0  0  0  0  0  0  0
   -5.5548   11.7872  -29.1509 C   0  0  0  0  0  0  0  0  0  0  0  0
   -6.2858   10.7676  -29.7605 C   0  0  0  0  0  0  0  0  0  0  0  0
   -4.3323   12.1388  -31.2049 C   0  0  0  0  0  0  0  0  0  0  0  0
   -6.0401   10.4336  -31.0924 C   0  0  0  0  0  0  0  0  0  0  0  0
   -5.8018   12.1608  -27.7261 C   0  0  0  0  0  0  0  0  0  0  0  0
   -3.8621   13.6898  -26.8212 N   0  0  0  0  0  0  0  0  0  0  0  0
   -7.2383   10.1063  -29.0408 O   0  0  0  0  0  0  0  0  0  0  0  0
   -3.1269   12.9852  -32.0956 Cl  0  0  0  0  0  0  0  0  0  0  0  0
   -7.0130    9.0541  -31.9557 Br  0  0  0  0  0  0  0  0  0  0  0  0
  1  8  1  0
  1  9  3  0
  2  4  2  0
  2  6  1  0
  3  6  2  0
  3  7  1  0
  4  5  1  0
  4  8  1  0
  5  7  2  0
  5 10  1  0
  6 11  1  0
  7 12  1  0
M  END
>  <id>  (277) 
EN300-1922571

>  <smiles>  (277) 
OC=1C(Br)=CC(Cl)=CC1CC#N

>  <IUPAC Name>  (277) 
2-(3-bromo-5-chloro-2-hydroxyphenyl)acetonitrile

>  <CAS>  (277) 
1508095-82-6

>  <URL>  (277) 
https://www.enaminestore.com/catalog/EN300-1922571

>  <ROCS_ShapeQuery>  (277) 
_x1604L0AP1_x0771L0AP1

>  <ROCS_TanimotoCombo>  (277) 
0.944 

>  <ROCS_ShapeTanimoto>  (277) 
0.447 

>  <ROCS_ColorTanimoto>  (277) 
0.497 

>  <ROCS_RefTversky>  (277) 
0.412 

>  <ROCS_RefColorTversky>  (277) 
0.516 

>  <ROCS_RefTverskyCombo>  (277) 
0.927 

>  <ROCS_FitTversky>  (277) 
1.234 

>  <ROCS_FitColorTversky>  (277) 
0.932 

>  <ROCS_FitTverskyCombo>  (277) 
2.166 

>  <ROCS_ColorScore>  (277) 
-4.881

>  <ROCS_Overlap>  (277) 
688.854

>  <ROCS_Rank>  (277) 
456                 

$$$$
untitled-dbase-1156_129
     RDKit          3D

 14 14  0  0  1  0  0  0  0  0999 V2000
   -4.5864   12.4659  -29.8271 C   0  0  0  0  0  0  0  0  0  0  0  0
   -5.5709   11.7733  -29.1224 C   0  0  0  0  0  0  0  0  0  0  0  0
   -5.0500   11.1312  -31.7869 C   0  0  0  0  0  0  0  0  0  0  0  0
   -4.3259   12.1450  -31.1593 C   0  0  0  0  0  0  0  0  0  0  0  0
   -6.2949   10.7596  -29.7499 C   0  0  0  0  0  0  0  0  0  0  0  0
   -6.0345   10.4385  -31.0822 C   0  0  0  0  0  0  0  0  0  0  0  0
   -2.1446   13.3929  -30.9979 C   0  0  0  0  0  0  0  0  0  0  0  0
   -3.2730   12.8860  -31.9116 C   0  0  2  0  0  0  0  0  0  0  0  0
   -4.5433   13.6466  -34.8611 N   0  0  0  0  0  0  0  0  0  0  0  0
   -3.8253   14.0560  -32.6319 N   0  0  0  0  0  0  0  0  0  0  0  0
   -4.1957   13.8322  -33.7907 N   0  0  0  0  0  0  0  0  0  0  0  0
   -7.2491   10.1007  -29.0332 O   0  0  0  0  0  0  0  0  0  0  0  0
   -2.5525   14.5896  -30.3436 O   0  0  0  0  0  0  0  0  0  0  0  0
   -6.9977    9.0660  -31.9660 Br  0  0  0  0  0  0  0  0  0  0  0  0
  1  2  2  0
  1  4  1  0
  2  5  1  0
  3  4  2  0
  3  6  1  0
  4  8  1  0
  5  6  2  0
  5 12  1  0
  6 14  1  0
  8  7  1  1
  7 13  1  0
  8 10  1  0
  9 11  2  0
 10 11  2  0
M  CHG  2   9  -1  11   1
M  END
>  <id>  (278) 
EN300-1906353

>  <smiles>  (278) 
OCC(N=[N+]=[N-])C=1C=CC(O)=C(Br)C1

>  <IUPAC Name>  (278) 
4-(1-azido-2-hydroxyethyl)-2-bromophenol

>  <CAS>  (278) 
2228196-15-2

>  <URL>  (278) 
https://www.enaminestore.com/catalog/EN300-1906353

>  <ROCS_ShapeQuery>  (278) 
_x1604L0AP1_x0771L0AP1

>  <ROCS_TanimotoCombo>  (278) 
0.943 

>  <ROCS_ShapeTanimoto>  (278) 
0.493 

>  <ROCS_ColorTanimoto>  (278) 
0.451 

>  <ROCS_RefTversky>  (278) 
0.458 

>  <ROCS_RefColorTversky>  (278) 
0.513 

>  <ROCS_RefTverskyCombo>  (278) 
0.970 

>  <ROCS_FitTversky>  (278) 
1.183 

>  <ROCS_FitColorTversky>  (278) 
0.789 

>  <ROCS_FitTverskyCombo>  (278) 
1.972 

>  <ROCS_ColorScore>  (278) 
-4.878

>  <ROCS_Overlap>  (278) 
768.088

>  <ROCS_Rank>  (278) 
457                 

$$$$
untitled-dbase-908_376
     RDKit          3D

 14 14  0  0  0  0  0  0  0  0999 V2000
   -4.5690   12.4599  -29.8474 C   0  0  0  0  0  0  0  0  0  0  0  0
   -5.0471   11.1158  -31.7972 C   0  0  0  0  0  0  0  0  0  0  0  0
   -4.3156   12.1297  -31.1787 C   0  0  0  0  0  0  0  0  0  0  0  0
   -5.5538   11.7760  -29.1345 C   0  0  0  0  0  0  0  0  0  0  0  0
   -6.2853   10.7621  -29.7529 C   0  0  0  0  0  0  0  0  0  0  0  0
   -6.0320   10.4319  -31.0843 C   0  0  0  0  0  0  0  0  0  0  0  0
   -3.2906   12.8450  -31.9226 C   0  0  0  0  0  0  0  0  0  0  0  0
   -6.4271   14.3709  -28.2978 C   0  0  0  0  0  0  0  0  0  0  0  0
   -5.5498   13.4651  -27.4603 C   0  0  0  0  0  0  0  0  0  0  0  0
   -2.6056   13.8364  -31.2576 N   0  0  0  0  0  0  0  0  0  0  0  0
   -7.2450   10.1054  -29.0393 O   0  0  0  0  0  0  0  0  0  0  0  0
   -5.7896   12.1100  -27.8349 O   0  0  0  0  0  0  0  0  0  0  0  0
   -2.9363   12.4628  -33.5145 S   0  0  0  0  0  0  0  0  0  0  0  0
   -7.0076    9.0621  -31.9594 Br  0  0  0  0  0  0  0  0  0  0  0  0
  1  3  2  0
  1  4  1  0
  2  3  1  0
  2  6  2  0
  3  7  1  0
  4  5  2  0
  4 12  1  0
  5  6  1  0
  5 11  1  0
  6 14  1  0
  7 10  1  0
  7 13  2  0
  8  9  1  0
  9 12  1  0
M  END
>  <id>  (279) 
EN300-1920595

>  <smiles>  (279) 
CCOC=1C=C(C=C(Br)C1O)C(=S)N

>  <IUPAC Name>  (279) 
3-bromo-5-ethoxy-4-hydroxybenzene-1-carbothioamide

>  <CAS>  (279) 
2229105-65-9

>  <URL>  (279) 
https://www.enaminestore.com/catalog/EN300-1920595

>  <ROCS_ShapeQuery>  (279) 
_x1604L0AP1_x0771L0AP1

>  <ROCS_TanimotoCombo>  (279) 
0.943 

>  <ROCS_ShapeTanimoto>  (279) 
0.492 

>  <ROCS_ColorTanimoto>  (279) 
0.451 

>  <ROCS_RefTversky>  (279) 
0.456 

>  <ROCS_RefColorTversky>  (279) 
0.513 

>  <ROCS_RefTverskyCombo>  (279) 
0.969 

>  <ROCS_FitTversky>  (279) 
1.193 

>  <ROCS_FitColorTversky>  (279) 
0.789 

>  <ROCS_FitTverskyCombo>  (279) 
1.982 

>  <ROCS_ColorScore>  (279) 
-4.882

>  <ROCS_Overlap>  (279) 
764.575

>  <ROCS_Rank>  (279) 
458                 

$$$$
untitled-dbase-2109_84
     RDKit          3D

 13 13  0  0  0  0  0  0  0  0999 V2000
   -4.6122   12.4982  -29.8420 C   0  0  0  0  0  0  0  0  0  0  0  0
   -5.5826   11.7926  -29.1306 C   0  0  0  0  0  0  0  0  0  0  0  0
   -5.0757   11.1614  -31.8004 C   0  0  0  0  0  0  0  0  0  0  0  0
   -4.3588   12.1826  -31.1769 C   0  0  0  0  0  0  0  0  0  0  0  0
   -6.2996   10.7713  -29.7541 C   0  0  0  0  0  0  0  0  0  0  0  0
   -6.0461   10.4557  -31.0890 C   0  0  0  0  0  0  0  0  0  0  0  0
   -1.9889   10.8547  -32.4472 C   0  0  0  0  0  0  0  0  0  0  0  0
   -0.8297   10.3348  -33.2293 C   0  0  0  0  0  0  0  0  0  0  0  0
   -3.3101   12.9453  -31.9442 C   0  0  0  0  0  0  0  0  0  0  0  0
   -2.6606   12.0821  -33.0245 C   0  0  0  0  0  0  0  0  0  0  0  0
   -2.3355   10.2896  -31.4179 O   0  0  0  0  0  0  0  0  0  0  0  0
   -7.2400   10.0999  -29.0308 O   0  0  0  0  0  0  0  0  0  0  0  0
   -7.0000    9.0733  -31.9675 Br  0  0  0  0  0  0  0  0  0  0  0  0
  1  2  2  0
  1  4  1  0
  2  5  1  0
  3  4  2  0
  3  6  1  0
  4  9  1  0
  5  6  2  0
  5 12  1  0
  6 13  1  0
  7  8  1  0
  7 10  1  0
  7 11  2  0
  9 10  1  0
M  END
>  <id>  (280) 
EN300-1910576

>  <smiles>  (280) 
CC(=O)CCC=1C=CC(O)=C(Br)C1

>  <MDLNUMBER>  (280) 
MFCD26654044

>  <IUPAC Name>  (280) 
4-(3-bromo-4-hydroxyphenyl)butan-2-one

>  <CAS>  (280) 
1534011-55-6

>  <URL>  (280) 
https://www.enaminestore.com/catalog/EN300-1910576

>  <ROCS_ShapeQuery>  (280) 
_x1604L0AP1_x0771L0AP1

>  <ROCS_TanimotoCombo>  (280) 
0.943 

>  <ROCS_ShapeTanimoto>  (280) 
0.447 

>  <ROCS_ColorTanimoto>  (280) 
0.496 

>  <ROCS_RefTversky>  (280) 
0.419 

>  <ROCS_RefColorTversky>  (280) 
0.515 

>  <ROCS_RefTverskyCombo>  (280) 
0.934 

>  <ROCS_FitTversky>  (280) 
1.173 

>  <ROCS_FitColorTversky>  (280) 
0.932 

>  <ROCS_FitTverskyCombo>  (280) 
2.105 

>  <ROCS_ColorScore>  (280) 
-4.877

>  <ROCS_Overlap>  (280) 
701.782

>  <ROCS_Rank>  (280) 
459                 

$$$$
untitled-dbase-1008_21
     RDKit          3D

 13 13  0  0  0  0  0  0  0  0999 V2000
   -4.5696   12.4566  -29.8903 C   0  0  0  0  0  0  0  0  0  0  0  0
   -4.4149   12.2044  -31.2534 C   0  0  0  0  0  0  0  0  0  0  0  0
   -5.5004   11.7299  -29.1478 C   0  0  0  0  0  0  0  0  0  0  0  0
   -5.1910   11.2257  -31.8741 C   0  0  0  0  0  0  0  0  0  0  0  0
   -6.2765   10.7511  -29.7685 C   0  0  0  0  0  0  0  0  0  0  0  0
   -6.1219   10.4990  -31.1316 C   0  0  0  0  0  0  0  0  0  0  0  0
   -5.2758    9.5345  -33.7472 C   0  0  0  0  0  0  0  0  0  0  0  0
   -5.8888   11.8326  -34.2913 C   0  0  0  0  0  0  0  0  0  0  0  0
   -3.5180   11.2946  -33.7479 C   0  0  0  0  0  0  0  0  0  0  0  0
   -4.9821   10.9883  -33.3741 C   0  0  0  0  0  0  0  0  0  0  0  0
   -6.1355    9.1798  -34.5490 O   0  0  0  0  0  0  0  0  0  0  0  0
   -7.1764   10.0616  -29.0109 O   0  0  0  0  0  0  0  0  0  0  0  0
   -7.1861    9.1611  -31.9674 Br  0  0  0  0  0  0  0  0  0  0  0  0
  1  2  2  0
  1  3  1  0
  2  4  1  0
  3  5  2  0
  4  6  2  0
  4 10  1  0
  5  6  1  0
  5 12  1  0
  6 13  1  0
  7 10  1  0
  7 11  2  0
  8 10  1  0
  9 10  1  0
M  END
>  <id>  (281) 
EN300-1904510

>  <smiles>  (281) 
CC(C)(C=O)C=1C=CC=C(O)C1Br

>  <IUPAC Name>  (281) 
2-(2-bromo-3-hydroxyphenyl)-2-methylpropanal

>  <CAS>  (281) 
2228768-54-3

>  <URL>  (281) 
https://www.enaminestore.com/catalog/EN300-1904510

>  <ROCS_ShapeQuery>  (281) 
_x1604L0AP1_x0771L0AP1

>  <ROCS_TanimotoCombo>  (281) 
0.943 

>  <ROCS_ShapeTanimoto>  (281) 
0.499 

>  <ROCS_ColorTanimoto>  (281) 
0.444 

>  <ROCS_RefTversky>  (281) 
0.453 

>  <ROCS_RefColorTversky>  (281) 
0.507 

>  <ROCS_RefTverskyCombo>  (281) 
0.960 

>  <ROCS_FitTversky>  (281) 
1.252 

>  <ROCS_FitColorTversky>  (281) 
0.780 

>  <ROCS_FitTverskyCombo>  (281) 
2.032 

>  <ROCS_ColorScore>  (281) 
-4.824

>  <ROCS_Overlap>  (281) 
759.789

>  <ROCS_Rank>  (281) 
461                 

$$$$
untitled-dbase-1524_0
     RDKit          3D

 10 10  0  0  0  0  0  0  0  0999 V2000
   -5.0685   11.1335  -31.8119 C   0  0  0  0  0  0  0  0  0  0  0  0
   -5.5674   11.7835  -29.1452 C   0  0  0  0  0  0  0  0  0  0  0  0
   -4.3426   12.1522  -31.1948 C   0  0  0  0  0  0  0  0  0  0  0  0
   -6.2934   10.7647  -29.7623 C   0  0  0  0  0  0  0  0  0  0  0  0
   -4.5920   12.4772  -29.8614 C   0  0  0  0  0  0  0  0  0  0  0  0
   -6.0440   10.4398  -31.0956 C   0  0  0  0  0  0  0  0  0  0  0  0
   -3.3564   12.8526  -31.9204 N   0  0  0  0  0  0  0  0  0  0  0  0
   -7.2393   10.1061  -29.0345 O   0  0  0  0  0  0  0  0  0  0  0  0
   -3.9004   13.4550  -29.2590 F   0  0  0  0  0  0  0  0  0  0  0  0
   -7.0106    9.0609  -31.9656 Br  0  0  0  0  0  0  0  0  0  0  0  0
  1  3  2  0
  1  6  1  0
  2  4  1  0
  2  5  2  0
  3  5  1  0
  3  7  1  0
  4  6  2  0
  4  8  1  0
  5  9  1  0
  6 10  1  0
M  END
>  <id>  (282) 
EN300-4334146

>  <smiles>  (282) 
NC=1C=C(Br)C(O)=CC1F

>  <MDLNUMBER>  (282) 
MFCD22041611

>  <IUPAC Name>  (282) 
4-amino-2-bromo-5-fluorophenol

>  <CAS>  (282) 
111856-96-3

>  <Purity>  (282) 
95

>  <URL>  (282) 
https://www.enaminestore.com/catalog/EN300-4334146

>  <ROCS_ShapeQuery>  (282) 
_x1604L0AP1_x0771L0AP1

>  <ROCS_TanimotoCombo>  (282) 
0.942 

>  <ROCS_ShapeTanimoto>  (282) 
0.491 

>  <ROCS_ColorTanimoto>  (282) 
0.451 

>  <ROCS_RefTversky>  (282) 
0.426 

>  <ROCS_RefColorTversky>  (282) 
0.513 

>  <ROCS_RefTverskyCombo>  (282) 
0.939 

>  <ROCS_FitTversky>  (282) 
1.452 

>  <ROCS_FitColorTversky>  (282) 
0.789 

>  <ROCS_FitTverskyCombo>  (282) 
2.241 

>  <ROCS_ColorScore>  (282) 
-4.879

>  <ROCS_Overlap>  (282) 
711.317

>  <ROCS_Rank>  (282) 
465                 

$$$$
untitled-dbase-2007_0
     RDKit          3D

 10 10  0  0  0  0  0  0  0  0999 V2000
   -5.0664   11.1307  -31.8123 C   0  0  0  0  0  0  0  0  0  0  0  0
   -5.5658   11.7837  -29.1464 C   0  0  0  0  0  0  0  0  0  0  0  0
   -4.3413   12.1507  -31.1965 C   0  0  0  0  0  0  0  0  0  0  0  0
   -4.5909   12.4772  -29.8635 C   0  0  0  0  0  0  0  0  0  0  0  0
   -6.2910   10.7636  -29.7623 C   0  0  0  0  0  0  0  0  0  0  0  0
   -6.0413   10.4371  -31.0952 C   0  0  0  0  0  0  0  0  0  0  0  0
   -3.3023   12.8765  -31.9880 C   0  0  0  0  0  0  0  0  0  0  0  0
   -3.8668   13.5078  -29.2248 N   0  0  0  0  0  0  0  0  0  0  0  0
   -7.2376   10.1062  -29.0344 O   0  0  0  0  0  0  0  0  0  0  0  0
   -7.0091    9.0585  -31.9645 Br  0  0  0  0  0  0  0  0  0  0  0  0
  1  3  2  0
  1  6  1  0
  2  4  2  0
  2  5  1  0
  3  4  1  0
  3  7  1  0
  4  8  1  0
  5  6  2  0
  5  9  1  0
  6 10  1  0
M  END
>  <id>  (283) 
EN300-27776897

>  <smiles>  (283) 
Cl.CC=1C=C(Br)C(O)=CC1N

>  <MDLNUMBER>  (283) 
MFCD33549973

>  <IUPAC Name>  (283) 
5-amino-2-bromo-4-methylphenol hydrochloride

>  <CAS>  (283) 
2639462-21-6

>  <Purity>  (283) 
95

>  <URL>  (283) 
https://www.enaminestore.com/catalog/EN300-27776897

>  <ROCS_ShapeQuery>  (283) 
_x1604L0AP1_x0771L0AP1

>  <ROCS_TanimotoCombo>  (283) 
0.942 

>  <ROCS_ShapeTanimoto>  (283) 
0.491 

>  <ROCS_ColorTanimoto>  (283) 
0.451 

>  <ROCS_RefTversky>  (283) 
0.425 

>  <ROCS_RefColorTversky>  (283) 
0.513 

>  <ROCS_RefTverskyCombo>  (283) 
0.938 

>  <ROCS_FitTversky>  (283) 
1.464 

>  <ROCS_FitColorTversky>  (283) 
0.789 

>  <ROCS_FitTverskyCombo>  (283) 
2.253 

>  <ROCS_ColorScore>  (283) 
-4.879

>  <ROCS_Overlap>  (283) 
709.385

>  <ROCS_Rank>  (283) 
466                 

$$$$
untitled-dbase-2006_0
     RDKit          3D

 10 10  0  0  0  0  0  0  0  0999 V2000
   -5.0664   11.1307  -31.8123 C   0  0  0  0  0  0  0  0  0  0  0  0
   -5.5658   11.7837  -29.1464 C   0  0  0  0  0  0  0  0  0  0  0  0
   -4.3413   12.1507  -31.1965 C   0  0  0  0  0  0  0  0  0  0  0  0
   -4.5909   12.4772  -29.8635 C   0  0  0  0  0  0  0  0  0  0  0  0
   -6.2910   10.7636  -29.7623 C   0  0  0  0  0  0  0  0  0  0  0  0
   -6.0413   10.4371  -31.0952 C   0  0  0  0  0  0  0  0  0  0  0  0
   -3.3023   12.8765  -31.9880 C   0  0  0  0  0  0  0  0  0  0  0  0
   -3.8668   13.5078  -29.2248 N   0  0  0  0  0  0  0  0  0  0  0  0
   -7.2376   10.1062  -29.0344 O   0  0  0  0  0  0  0  0  0  0  0  0
   -7.0091    9.0585  -31.9645 Br  0  0  0  0  0  0  0  0  0  0  0  0
  1  3  2  0
  1  6  1  0
  2  4  2  0
  2  5  1  0
  3  4  1  0
  3  7  1  0
  4  8  1  0
  5  6  2  0
  5  9  1  0
  6 10  1  0
M  END
>  <id>  (284) 
EN300-4478848

>  <smiles>  (284) 
CC=1C=C(Br)C(O)=CC1N

>  <MDLNUMBER>  (284) 
MFCD33526688

>  <IUPAC Name>  (284) 
5-amino-2-bromo-4-methylphenol

>  <CAS>  (284) 
1566908-49-3

>  <URL>  (284) 
https://www.enaminestore.com/catalog/EN300-4478848

>  <ROCS_ShapeQuery>  (284) 
_x1604L0AP1_x0771L0AP1

>  <ROCS_TanimotoCombo>  (284) 
0.942 

>  <ROCS_ShapeTanimoto>  (284) 
0.491 

>  <ROCS_ColorTanimoto>  (284) 
0.451 

>  <ROCS_RefTversky>  (284) 
0.425 

>  <ROCS_RefColorTversky>  (284) 
0.513 

>  <ROCS_RefTverskyCombo>  (284) 
0.938 

>  <ROCS_FitTversky>  (284) 
1.464 

>  <ROCS_FitColorTversky>  (284) 
0.789 

>  <ROCS_FitTverskyCombo>  (284) 
2.253 

>  <ROCS_ColorScore>  (284) 
-4.879

>  <ROCS_Overlap>  (284) 
709.385

>  <ROCS_Rank>  (284) 
467                 

$$$$
untitled-dbase-260_18
     RDKit          3D

 11 11  0  0  1  0  0  0  0  0999 V2000
   -4.5412   12.4298  -29.8238 C   0  0  0  0  0  0  0  0  0  0  0  0
   -5.5418   11.7567  -29.1229 C   0  0  0  0  0  0  0  0  0  0  0  0
   -5.0182   11.0988  -31.7829 C   0  0  0  0  0  0  0  0  0  0  0  0
   -4.2794   12.1009  -31.1539 C   0  0  0  0  0  0  0  0  0  0  0  0
   -6.2805   10.7546  -29.7519 C   0  0  0  0  0  0  0  0  0  0  0  0
   -6.0187   10.4256  -31.0820 C   0  0  0  0  0  0  0  0  0  0  0  0
   -3.7389   13.5991  -33.1080 C   0  0  0  0  0  0  0  0  0  0  0  0
   -3.2093   12.8211  -31.9022 C   0  0  1  0  0  0  0  0  0  0  0  0
   -7.2502   10.1147  -29.0388 O   0  0  0  0  0  0  0  0  0  0  0  0
   -2.5683   13.7527  -31.0231 O   0  0  0  0  0  0  0  0  0  0  0  0
   -7.0017    9.0685  -31.9678 Br  0  0  0  0  0  0  0  0  0  0  0  0
  1  2  2  0
  1  4  1  0
  2  5  1  0
  3  4  2  0
  3  6  1  0
  4  8  1  0
  5  6  2  0
  5  9  1  0
  6 11  1  0
  8  7  1  6
  8 10  1  0
M  END
>  <id>  (285) 
EN300-1895799

>  <smiles>  (285) 
C[C@@H](O)C=1C=CC(O)=C(Br)C1

>  <MDLNUMBER>  (285) 
MFCD22569960

>  <IUPAC Name>  (285) 
2-bromo-4-[(1R)-1-hydroxyethyl]phenol

>  <CAS>  (285) 
1932558-82-1

>  <URL>  (285) 
https://www.enaminestore.com/catalog/EN300-1895799

>  <ROCS_ShapeQuery>  (285) 
_x1604L0AP1_x0771L0AP1

>  <ROCS_TanimotoCombo>  (285) 
0.942 

>  <ROCS_ShapeTanimoto>  (285) 
0.491 

>  <ROCS_ColorTanimoto>  (285) 
0.451 

>  <ROCS_RefTversky>  (285) 
0.432 

>  <ROCS_RefColorTversky>  (285) 
0.513 

>  <ROCS_RefTverskyCombo>  (285) 
0.945 

>  <ROCS_FitTversky>  (285) 
1.384 

>  <ROCS_FitColorTversky>  (285) 
0.788 

>  <ROCS_FitTverskyCombo>  (285) 
2.173 

>  <ROCS_ColorScore>  (285) 
-4.877

>  <ROCS_Overlap>  (285) 
722.623

>  <ROCS_Rank>  (285) 
468                 

$$$$
untitled-dbase-2115_286
     RDKit          3D

 13 13  0  0  1  0  0  0  0  0999 V2000
   -4.6091   12.4915  -29.8273 C   0  0  0  0  0  0  0  0  0  0  0  0
   -5.5835   11.7863  -29.1209 C   0  0  0  0  0  0  0  0  0  0  0  0
   -5.0688   11.1602  -31.7903 C   0  0  0  0  0  0  0  0  0  0  0  0
   -4.3518   12.1785  -31.1620 C   0  0  0  0  0  0  0  0  0  0  0  0
   -6.3004   10.7681  -29.7491 C   0  0  0  0  0  0  0  0  0  0  0  0
   -6.0431   10.4550  -31.0839 C   0  0  0  0  0  0  0  0  0  0  0  0
   -2.1521   12.0625  -32.4445 C   0  0  0  0  0  0  0  0  0  0  0  0
   -2.5384   11.2422  -33.6782 C   0  0  0  0  0  0  0  0  0  0  0  0
   -3.2971   12.9421  -31.9253 C   0  0  2  0  0  0  0  0  0  0  0  0
   -2.9210   12.1288  -34.7719 N   0  0  0  0  0  0  0  0  0  0  0  0
   -7.2447   10.0969  -29.0306 O   0  0  0  0  0  0  0  0  0  0  0  0
   -2.7444   13.9596  -31.1986 F   0  0  0  0  0  0  0  0  0  0  0  0
   -6.9969    9.0766  -31.9688 Br  0  0  0  0  0  0  0  0  0  0  0  0
  1  2  2  0
  1  4  1  0
  2  5  1  0
  3  4  2  0
  3  6  1  0
  4  9  1  0
  5  6  2  0
  5 11  1  0
  6 13  1  0
  7  8  1  0
  7  9  1  0
  8 10  1  0
  9 12  1  1
M  END
>  <id>  (286) 
EN300-1906336

>  <smiles>  (286) 
NCCC(F)C=1C=CC(O)=C(Br)C1

>  <IUPAC Name>  (286) 
4-(3-amino-1-fluoropropyl)-2-bromophenol

>  <CAS>  (286) 
2228938-25-6

>  <URL>  (286) 
https://www.enaminestore.com/catalog/EN300-1906336

>  <ROCS_ShapeQuery>  (286) 
_x1604L0AP1_x0771L0AP1

>  <ROCS_TanimotoCombo>  (286) 
0.942 

>  <ROCS_ShapeTanimoto>  (286) 
0.491 

>  <ROCS_ColorTanimoto>  (286) 
0.451 

>  <ROCS_RefTversky>  (286) 
0.447 

>  <ROCS_RefColorTversky>  (286) 
0.513 

>  <ROCS_RefTverskyCombo>  (286) 
0.960 

>  <ROCS_FitTversky>  (286) 
1.251 

>  <ROCS_FitColorTversky>  (286) 
0.788 

>  <ROCS_FitTverskyCombo>  (286) 
2.040 

>  <ROCS_ColorScore>  (286) 
-4.877

>  <ROCS_Overlap>  (286) 
749.033

>  <ROCS_Rank>  (286) 
469                 

$$$$
untitled-dbase-1623_102
     RDKit          3D

 14 14  0  0  0  0  0  0  0  0999 V2000
   -4.3616   12.1833  -31.2080 C   0  0  0  0  0  0  0  0  0  0  0  0
   -4.6048   12.4997  -29.8715 C   0  0  0  0  0  0  0  0  0  0  0  0
   -5.0833   11.1616  -31.8253 C   0  0  0  0  0  0  0  0  0  0  0  0
   -5.5696   11.7944  -29.1522 C   0  0  0  0  0  0  0  0  0  0  0  0
   -6.2913   10.7727  -29.7695 C   0  0  0  0  0  0  0  0  0  0  0  0
   -6.0480   10.4563  -31.1061 C   0  0  0  0  0  0  0  0  0  0  0  0
   -3.5357   10.5019  -33.6068 C   0  0  0  0  0  0  0  0  0  0  0  0
   -4.7807   10.8809  -33.2246 C   0  0  0  0  0  0  0  0  0  0  0  0
   -5.0137   13.1722  -27.2953 C   0  0  0  0  0  0  0  0  0  0  0  0
   -5.8827   10.9564  -34.2635 C   0  0  0  0  0  0  0  0  0  0  0  0
   -7.2294   10.0980  -29.0433 O   0  0  0  0  0  0  0  0  0  0  0  0
   -5.7955   12.1150  -27.8475 O   0  0  0  0  0  0  0  0  0  0  0  0
   -6.1067    9.3747  -35.0497 Cl  0  0  0  0  0  0  0  0  0  0  0  0
   -7.0501    9.0552  -31.9258 Br  0  0  0  0  0  0  0  0  0  0  0  0
  1  2  2  0
  1  3  1  0
  2  4  1  0
  3  6  2  0
  3  8  1  0
  4  5  2  0
  4 12  1  0
  5  6  1  0
  5 11  1  0
  6 14  1  0
  7  8  2  0
  8 10  1  0
  9 12  1  0
 10 13  1  0
M  END
>  <id>  (287) 
EN300-1936271

>  <smiles>  (287) 
COC=1C=CC(C(=C)CCl)=C(Br)C1O

>  <IUPAC Name>  (287) 
2-bromo-3-(3-chloroprop-1-en-2-yl)-6-methoxyphenol

>  <CAS>  (287) 
2229228-37-7

>  <URL>  (287) 
https://www.enaminestore.com/catalog/EN300-1936271

>  <ROCS_ShapeQuery>  (287) 
_x1604L0AP1_x0771L0AP1

>  <ROCS_TanimotoCombo>  (287) 
0.942 

>  <ROCS_ShapeTanimoto>  (287) 
0.490 

>  <ROCS_ColorTanimoto>  (287) 
0.452 

>  <ROCS_RefTversky>  (287) 
0.455 

>  <ROCS_RefColorTversky>  (287) 
0.513 

>  <ROCS_RefTverskyCombo>  (287) 
0.968 

>  <ROCS_FitTversky>  (287) 
1.190 

>  <ROCS_FitColorTversky>  (287) 
0.790 

>  <ROCS_FitTverskyCombo>  (287) 
1.979 

>  <ROCS_ColorScore>  (287) 
-4.884

>  <ROCS_Overlap>  (287) 
762.673

>  <ROCS_Rank>  (287) 
471                 

$$$$
untitled-dbase-222_0
     RDKit          3D

 10 10  0  0  0  0  0  0  0  0999 V2000
   -5.5594   11.7775  -29.1441 C   0  0  0  0  0  0  0  0  0  0  0  0
   -5.0633   11.1248  -31.8107 C   0  0  0  0  0  0  0  0  0  0  0  0
   -4.5805   12.4663  -29.8602 C   0  0  0  0  0  0  0  0  0  0  0  0
   -4.3325   12.1401  -31.1935 C   0  0  0  0  0  0  0  0  0  0  0  0
   -6.2902   10.7622  -29.7613 C   0  0  0  0  0  0  0  0  0  0  0  0
   -6.0422   10.4359  -31.0946 C   0  0  0  0  0  0  0  0  0  0  0  0
   -3.8133   13.5494  -29.1740 C   0  0  0  0  0  0  0  0  0  0  0  0
   -3.3433   12.8260  -31.9321 N   0  0  0  0  0  0  0  0  0  0  0  0
   -7.2393   10.1081  -29.0336 O   0  0  0  0  0  0  0  0  0  0  0  0
   -7.0135    9.0596  -31.9637 Br  0  0  0  0  0  0  0  0  0  0  0  0
  1  3  2  0
  1  5  1  0
  2  4  2  0
  2  6  1  0
  3  4  1  0
  3  7  1  0
  4  8  1  0
  5  6  2  0
  5  9  1  0
  6 10  1  0
M  END
>  <id>  (288) 
EN300-183700

>  <smiles>  (288) 
CC=1C=C(O)C(Br)=CC1N

>  <MDLNUMBER>  (288) 
MFCD24623901

>  <IUPAC Name>  (288) 
4-amino-2-bromo-5-methylphenol

>  <CAS>  (288) 
1195190-04-5

>  <Purity>  (288) 
95

>  <URL>  (288) 
https://www.enaminestore.com/catalog/EN300-183700

>  <ROCS_ShapeQuery>  (288) 
_x1604L0AP1_x0771L0AP1

>  <ROCS_TanimotoCombo>  (288) 
0.941 

>  <ROCS_ShapeTanimoto>  (288) 
0.491 

>  <ROCS_ColorTanimoto>  (288) 
0.451 

>  <ROCS_RefTversky>  (288) 
0.425 

>  <ROCS_RefColorTversky>  (288) 
0.513 

>  <ROCS_RefTverskyCombo>  (288) 
0.937 

>  <ROCS_FitTversky>  (288) 
1.463 

>  <ROCS_FitColorTversky>  (288) 
0.789 

>  <ROCS_FitTverskyCombo>  (288) 
2.252 

>  <ROCS_ColorScore>  (288) 
-4.879

>  <ROCS_Overlap>  (288) 
708.876

>  <ROCS_Rank>  (288) 
472                 

$$$$
untitled-dbase-1195_274
     RDKit          3D

 16 17  0  0  0  0  0  0  0  0999 V2000
   -4.3627   12.1644  -31.2218 C   0  0  0  0  0  0  0  0  0  0  0  0
   -4.6090   12.4972  -29.8898 C   0  0  0  0  0  0  0  0  0  0  0  0
   -5.0814   11.1337  -31.8275 C   0  0  0  0  0  0  0  0  0  0  0  0
   -5.5738   11.7993  -29.1635 C   0  0  0  0  0  0  0  0  0  0  0  0
   -6.2924   10.7685  -29.7691 C   0  0  0  0  0  0  0  0  0  0  0  0
   -6.0462   10.4357  -31.1011 C   0  0  0  0  0  0  0  0  0  0  0  0
   -5.8304   10.6168  -35.6250 C   0  0  0  0  0  0  0  0  0  0  0  0
   -6.5469    9.6355  -34.7419 C   0  0  0  0  0  0  0  0  0  0  0  0
   -5.9938   10.9119  -34.1523 C   0  0  0  0  0  0  0  0  0  0  0  0
   -5.0239   13.2016  -27.3231 C   0  0  0  0  0  0  0  0  0  0  0  0
   -4.7768   10.8137  -33.2742 C   0  0  0  0  0  0  0  0  0  0  0  0
   -6.9694   11.9842  -33.7519 C   0  0  0  0  0  0  0  0  0  0  0  0
   -6.3861   13.2826  -33.9098 N   0  0  0  0  0  0  0  0  0  0  0  0
   -7.2313   10.1006  -29.0377 O   0  0  0  0  0  0  0  0  0  0  0  0
   -5.8029   12.1361  -27.8633 O   0  0  0  0  0  0  0  0  0  0  0  0
   -7.0378    9.0339  -31.9225 Br  0  0  0  0  0  0  0  0  0  0  0  0
  1  2  2  0
  1  3  1  0
  2  4  1  0
  3  6  2  0
  3 11  1  0
  4  5  2  0
  4 15  1  0
  5  6  1  0
  5 14  1  0
  6 16  1  0
  7  8  1  0
  7  9  1  0
  8  9  1  0
  9 11  1  0
  9 12  1  0
 10 15  1  0
 12 13  1  0
M  END
>  <id>  (289) 
EN300-1935618

>  <smiles>  (289) 
COC=1C=CC(CC2(CN)CC2)=C(Br)C1O

>  <IUPAC Name>  (289) 
3-{[1-(aminomethyl)cyclopropyl]methyl}-2-bromo-6-methoxyphenol

>  <CAS>  (289) 
2228221-12-1

>  <URL>  (289) 
https://www.enaminestore.com/catalog/EN300-1935618

>  <ROCS_ShapeQuery>  (289) 
_x1604L0AP1_x0771L0AP1

>  <ROCS_TanimotoCombo>  (289) 
0.941 

>  <ROCS_ShapeTanimoto>  (289) 
0.528 

>  <ROCS_ColorTanimoto>  (289) 
0.413 

>  <ROCS_RefTversky>  (289) 
0.497 

>  <ROCS_RefColorTversky>  (289) 
0.510 

>  <ROCS_RefTverskyCombo>  (289) 
1.007 

>  <ROCS_FitTversky>  (289) 
1.136 

>  <ROCS_FitColorTversky>  (289) 
0.684 

>  <ROCS_FitTverskyCombo>  (289) 
1.820 

>  <ROCS_ColorScore>  (289) 
-4.883

>  <ROCS_Overlap>  (289) 
835.992

>  <ROCS_Rank>  (289) 
474                 

$$$$
untitled-dbase-562_128
     RDKit          3D

 14 15  0  0  0  0  0  0  0  0999 V2000
   -4.5899   12.4700  -29.8184 C   0  0  0  0  0  0  0  0  0  0  0  0
   -5.5731   11.7737  -29.1156 C   0  0  0  0  0  0  0  0  0  0  0  0
   -5.0529   11.1413  -31.7824 C   0  0  0  0  0  0  0  0  0  0  0  0
   -4.3298   12.1538  -31.1519 C   0  0  0  0  0  0  0  0  0  0  0  0
   -6.2962   10.7611  -29.7461 C   0  0  0  0  0  0  0  0  0  0  0  0
   -6.0361   10.4449  -31.0796 C   0  0  0  0  0  0  0  0  0  0  0  0
   -2.0982   13.4427  -31.1193 C   0  0  0  0  0  0  0  0  0  0  0  0
   -3.1377   14.3864  -31.6378 C   0  0  0  0  0  0  0  0  0  0  0  0
   -3.2794   12.8982  -31.9022 C   0  0  0  0  0  0  0  0  0  0  0  0
   -3.0245   12.4007  -33.3179 C   0  0  0  0  0  0  0  0  0  0  0  0
   -4.0477   12.9232  -34.3190 C   0  0  0  0  0  0  0  0  0  0  0  0
   -3.8123   12.4327  -35.6487 N   0  0  0  0  0  0  0  0  0  0  0  0
   -7.2499   10.0996  -29.0312 O   0  0  0  0  0  0  0  0  0  0  0  0
   -6.9988    9.0752  -31.9683 Br  0  0  0  0  0  0  0  0  0  0  0  0
  1  2  2  0
  1  4  1  0
  2  5  1  0
  3  4  2  0
  3  6  1  0
  4  9  1  0
  5  6  2  0
  5 13  1  0
  6 14  1  0
  7  8  1  0
  7  9  1  0
  8  9  1  0
  9 10  1  0
 10 11  1  0
 11 12  1  0
M  END
>  <id>  (290) 
EN300-1906341

>  <smiles>  (290) 
NCCC1(CC1)C=2C=CC(O)=C(Br)C2

>  <IUPAC Name>  (290) 
4-[1-(2-aminoethyl)cyclopropyl]-2-bromophenol

>  <CAS>  (290) 
2228330-42-3

>  <URL>  (290) 
https://www.enaminestore.com/catalog/EN300-1906341

>  <ROCS_ShapeQuery>  (290) 
_x1604L0AP1_x0771L0AP1

>  <ROCS_TanimotoCombo>  (290) 
0.941 

>  <ROCS_ShapeTanimoto>  (290) 
0.491 

>  <ROCS_ColorTanimoto>  (290) 
0.451 

>  <ROCS_RefTversky>  (290) 
0.456 

>  <ROCS_RefColorTversky>  (290) 
0.513 

>  <ROCS_RefTverskyCombo>  (290) 
0.969 

>  <ROCS_FitTversky>  (290) 
1.183 

>  <ROCS_FitColorTversky>  (290) 
0.789 

>  <ROCS_FitTverskyCombo>  (290) 
1.972 

>  <ROCS_ColorScore>  (290) 
-4.877

>  <ROCS_Overlap>  (290) 
765.231

>  <ROCS_Rank>  (290) 
475                 

$$$$
untitled-dbase-847_184
     RDKit          3D

 14 14  0  0  0  0  0  0  0  0999 V2000
   -4.3659   12.1662  -31.2252 C   0  0  0  0  0  0  0  0  0  0  0  0
   -4.6068   12.4955  -29.8914 C   0  0  0  0  0  0  0  0  0  0  0  0
   -5.0885   11.1384  -31.8313 C   0  0  0  0  0  0  0  0  0  0  0  0
   -5.5702   11.7971  -29.1636 C   0  0  0  0  0  0  0  0  0  0  0  0
   -6.2928   10.7693  -29.7697 C   0  0  0  0  0  0  0  0  0  0  0  0
   -6.0519   10.4400  -31.1036 C   0  0  0  0  0  0  0  0  0  0  0  0
   -5.7623   10.6211  -35.5960 C   0  0  0  0  0  0  0  0  0  0  0  0
   -5.0114   13.1931  -27.3212 C   0  0  0  0  0  0  0  0  0  0  0  0
   -4.7932   10.8258  -33.2632 C   0  0  0  0  0  0  0  0  0  0  0  0
   -6.0369   10.9432  -34.1468 C   0  0  0  0  0  0  0  0  0  0  0  0
   -6.2767    9.6970  -36.2167 O   0  0  0  0  0  0  0  0  0  0  0  0
   -7.2302   10.1009  -29.0369 O   0  0  0  0  0  0  0  0  0  0  0  0
   -5.7941   12.1305  -27.8617 O   0  0  0  0  0  0  0  0  0  0  0  0
   -7.0489    9.0423  -31.9254 Br  0  0  0  0  0  0  0  0  0  0  0  0
  1  2  2  0
  1  3  1  0
  2  4  1  0
  3  6  2  0
  3  9  1  0
  4  5  2  0
  4 13  1  0
  5  6  1  0
  5 12  1  0
  6 14  1  0
  7 10  1  0
  7 11  2  0
  8 13  1  0
  9 10  1  0
M  END
>  <id>  (291) 
EN300-1935981

>  <smiles>  (291) 
COC=1C=CC(CCC=O)=C(Br)C1O

>  <IUPAC Name>  (291) 
3-(2-bromo-3-hydroxy-4-methoxyphenyl)propanal

>  <CAS>  (291) 
2229076-50-8

>  <URL>  (291) 
https://www.enaminestore.com/catalog/EN300-1935981

>  <ROCS_ShapeQuery>  (291) 
_x1604L0AP1_x0771L0AP1

>  <ROCS_TanimotoCombo>  (291) 
0.941 

>  <ROCS_ShapeTanimoto>  (291) 
0.490 

>  <ROCS_ColorTanimoto>  (291) 
0.451 

>  <ROCS_RefTversky>  (291) 
0.455 

>  <ROCS_RefColorTversky>  (291) 
0.513 

>  <ROCS_RefTverskyCombo>  (291) 
0.968 

>  <ROCS_FitTversky>  (291) 
1.183 

>  <ROCS_FitColorTversky>  (291) 
0.789 

>  <ROCS_FitTverskyCombo>  (291) 
1.972 

>  <ROCS_ColorScore>  (291) 
-4.882

>  <ROCS_Overlap>  (291) 
763.665

>  <ROCS_Rank>  (291) 
477                 

$$$$
untitled-dbase-1984_4
     RDKit          3D

 12 12  0  0  0  0  0  0  0  0999 V2000
   -4.5795   12.4684  -29.8615 C   0  0  0  0  0  0  0  0  0  0  0  0
   -5.0626   11.1232  -31.8092 C   0  0  0  0  0  0  0  0  0  0  0  0
   -4.3320   12.1399  -31.1943 C   0  0  0  0  0  0  0  0  0  0  0  0
   -5.5575   11.7801  -29.1435 C   0  0  0  0  0  0  0  0  0  0  0  0
   -6.2881   10.7634  -29.7584 C   0  0  0  0  0  0  0  0  0  0  0  0
   -6.0407   10.4349  -31.0913 C   0  0  0  0  0  0  0  0  0  0  0  0
   -3.3141   12.8598  -31.9434 C   0  0  0  0  0  0  0  0  0  0  0  0
   -4.9958   13.1635  -27.2924 C   0  0  0  0  0  0  0  0  0  0  0  0
   -2.6373   13.7699  -31.4571 O   0  0  0  0  0  0  0  0  0  0  0  0
   -7.2412   10.1023  -29.0398 O   0  0  0  0  0  0  0  0  0  0  0  0
   -5.7876   12.1125  -27.8425 O   0  0  0  0  0  0  0  0  0  0  0  0
   -7.0154    9.0614  -31.9617 Br  0  0  0  0  0  0  0  0  0  0  0  0
  1  3  2  0
  1  4  1  0
  2  3  1  0
  2  6  2  0
  3  7  1  0
  4  5  2  0
  4 11  1  0
  5  6  1  0
  5 10  1  0
  6 12  1  0
  7  9  2  0
  8 11  1  0
M  END
>  <id>  (292) 
EN300-18184

>  <smiles>  (292) 
COC=1C=C(C=O)C=C(Br)C1O

>  <MDLNUMBER>  (292) 
MFCD00006940

>  <IUPAC Name>  (292) 
3-bromo-4-hydroxy-5-methoxybenzaldehyde

>  <CAS>  (292) 
2973-76-4

>  <Purity>  (292) 
95

>  <URL>  (292) 
https://www.enaminestore.com/catalog/EN300-18184

>  <MP>  (292) 
164-166

>  <ROCS_ShapeQuery>  (292) 
_x1604L0AP1_x0771L0AP1

>  <ROCS_TanimotoCombo>  (292) 
0.941 

>  <ROCS_ShapeTanimoto>  (292) 
0.489 

>  <ROCS_ColorTanimoto>  (292) 
0.451 

>  <ROCS_RefTversky>  (292) 
0.441 

>  <ROCS_RefColorTversky>  (292) 
0.513 

>  <ROCS_RefTverskyCombo>  (292) 
0.954 

>  <ROCS_FitTversky>  (292) 
1.289 

>  <ROCS_FitColorTversky>  (292) 
0.789 

>  <ROCS_FitTverskyCombo>  (292) 
2.078 

>  <ROCS_ColorScore>  (292) 
-4.882

>  <ROCS_Overlap>  (292) 
738.016

>  <ROCS_Rank>  (292) 
481                 

$$$$
untitled-dbase-8_3
     RDKit          3D

 12 12  0  0  0  0  0  0  0  0999 V2000
   -4.5818   12.4753  -29.8610 C   0  0  0  0  0  0  0  0  0  0  0  0
   -5.0656   11.1295  -31.8083 C   0  0  0  0  0  0  0  0  0  0  0  0
   -5.5578   11.7855  -29.1418 C   0  0  0  0  0  0  0  0  0  0  0  0
   -4.3357   12.1473  -31.1943 C   0  0  0  0  0  0  0  0  0  0  0  0
   -6.2877   10.7677  -29.7558 C   0  0  0  0  0  0  0  0  0  0  0  0
   -6.0416   10.4396  -31.0890 C   0  0  0  0  0  0  0  0  0  0  0  0
   -5.7963   12.1471  -27.7510 C   0  0  0  0  0  0  0  0  0  0  0  0
   -2.6755   13.8500  -31.2073 C   0  0  0  0  0  0  0  0  0  0  0  0
   -6.6397   11.5877  -27.0469 O   0  0  0  0  0  0  0  0  0  0  0  0
   -7.2411   10.1011  -29.0416 O   0  0  0  0  0  0  0  0  0  0  0  0
   -3.3837   12.8209  -31.8963 O   0  0  0  0  0  0  0  0  0  0  0  0
   -7.0106    9.0615  -31.9586 Br  0  0  0  0  0  0  0  0  0  0  0  0
  1  3  2  0
  1  4  1  0
  2  4  2  0
  2  6  1  0
  3  5  1  0
  3  7  1  0
  4 11  1  0
  5  6  2  0
  5 10  1  0
  6 12  1  0
  7  9  2  0
  8 11  1  0
M  END
>  <id>  (293) 
EN300-68557

>  <smiles>  (293) 
COC=1C=C(Br)C(O)=C(C=O)C1

>  <MDLNUMBER>  (293) 
MFCD00091938

>  <IUPAC Name>  (293) 
3-bromo-2-hydroxy-5-methoxybenzaldehyde

>  <CAS>  (293) 
50343-02-7

>  <Purity>  (293) 
95

>  <URL>  (293) 
https://www.enaminestore.com/catalog/EN300-68557

>  <MP>  (293) 
108-109

>  <ROCS_ShapeQuery>  (293) 
_x1604L0AP1_x0771L0AP1

>  <ROCS_TanimotoCombo>  (293) 
0.941 

>  <ROCS_ShapeTanimoto>  (293) 
0.489 

>  <ROCS_ColorTanimoto>  (293) 
0.451 

>  <ROCS_RefTversky>  (293) 
0.441 

>  <ROCS_RefColorTversky>  (293) 
0.513 

>  <ROCS_RefTverskyCombo>  (293) 
0.954 

>  <ROCS_FitTversky>  (293) 
1.288 

>  <ROCS_FitColorTversky>  (293) 
0.790 

>  <ROCS_FitTverskyCombo>  (293) 
2.078 

>  <ROCS_ColorScore>  (293) 
-4.883

>  <ROCS_Overlap>  (293) 
737.867

>  <ROCS_Rank>  (293) 
482                 

$$$$
untitled-dbase-804_44
     RDKit          3D

 14 14  0  0  1  0  0  0  0  0999 V2000
   -2.6943   13.9972  -31.1504 C   0  0  0  0  0  0  0  0  0  0  0  0
   -4.6080   12.4901  -29.8546 C   0  0  0  0  0  0  0  0  0  0  0  0
   -5.0803   11.1465  -31.8061 C   0  0  0  0  0  0  0  0  0  0  0  0
   -4.3591   12.1685  -31.1888 C   0  0  0  0  0  0  0  0  0  0  0  0
   -5.5780   11.7896  -29.1376 C   0  0  0  0  0  0  0  0  0  0  0  0
   -6.2992   10.7676  -29.7549 C   0  0  0  0  0  0  0  0  0  0  0  0
   -6.0504   10.4460  -31.0892 C   0  0  0  0  0  0  0  0  0  0  0  0
   -2.2268   12.0019  -32.5327 C   0  0  0  0  0  0  0  0  0  0  0  0
   -5.0282   13.1727  -27.2827 C   0  0  0  0  0  0  0  0  0  0  0  0
   -3.3226   12.9183  -31.9553 C   0  0  2  0  0  0  0  0  0  0  0  0
   -2.2139   14.8370  -30.5094 N   0  0  0  0  0  0  0  0  0  0  0  0
   -7.2446   10.0946  -29.0372 O   0  0  0  0  0  0  0  0  0  0  0  0
   -5.8101   12.1156  -27.8353 O   0  0  0  0  0  0  0  0  0  0  0  0
   -7.0102    9.0637  -31.9621 Br  0  0  0  0  0  0  0  0  0  0  0  0
  1 10  1  0
  1 11  3  0
  2  4  2  0
  2  5  1  0
  3  4  1  0
  3  7  2  0
  4 10  1  0
  5  6  2  0
  5 13  1  0
  6  7  1  0
  6 12  1  0
  7 14  1  0
 10  8  1  1
  9 13  1  0
M  END
>  <id>  (294) 
EN300-1898184

>  <smiles>  (294) 
COC=1C=C(C=C(Br)C1O)C(C)C#N

>  <MDLNUMBER>  (294) 
MFCD28022021

>  <IUPAC Name>  (294) 
2-(3-bromo-4-hydroxy-5-methoxyphenyl)propanenitrile

>  <CAS>  (294) 
1823989-99-6

>  <URL>  (294) 
https://www.enaminestore.com/catalog/EN300-1898184

>  <ROCS_ShapeQuery>  (294) 
_x1604L0AP1_x0771L0AP1

>  <ROCS_TanimotoCombo>  (294) 
0.940 

>  <ROCS_ShapeTanimoto>  (294) 
0.527 

>  <ROCS_ColorTanimoto>  (294) 
0.413 

>  <ROCS_RefTversky>  (294) 
0.478 

>  <ROCS_RefColorTversky>  (294) 
0.510 

>  <ROCS_RefTverskyCombo>  (294) 
0.988 

>  <ROCS_FitTversky>  (294) 
1.238 

>  <ROCS_FitColorTversky>  (294) 
0.684 

>  <ROCS_FitTverskyCombo>  (294) 
1.922 

>  <ROCS_ColorScore>  (294) 
-4.880

>  <ROCS_Overlap>  (294) 
802.441

>  <ROCS_Rank>  (294) 
485                 

$$$$
untitled-dbase-1463_12
     RDKit          3D

 10 10  0  0  0  0  0  0  0  0999 V2000
   -4.3798   12.1788  -31.2237 C   0  0  0  0  0  0  0  0  0  0  0  0
   -5.0957   11.1467  -31.8300 C   0  0  0  0  0  0  0  0  0  0  0  0
   -5.5878   11.8074  -29.1647 C   0  0  0  0  0  0  0  0  0  0  0  0
   -4.6257   12.5092  -29.8910 C   0  0  0  0  0  0  0  0  0  0  0  0
   -6.3038   10.7752  -29.7710 C   0  0  0  0  0  0  0  0  0  0  0  0
   -6.0578   10.4449  -31.1037 C   0  0  0  0  0  0  0  0  0  0  0  0
   -3.8597   13.6119  -29.2422 C   0  0  0  0  0  0  0  0  0  0  0  0
   -7.2350   10.1067  -29.0331 O   0  0  0  0  0  0  0  0  0  0  0  0
   -2.5672   13.6987  -29.8296 O   0  0  0  0  0  0  0  0  0  0  0  0
   -7.0114    9.0490  -31.9605 Br  0  0  0  0  0  0  0  0  0  0  0  0
  1  2  2  0
  1  4  1  0
  2  6  1  0
  3  4  2  0
  3  5  1  0
  4  7  1  0
  5  6  2  0
  5  8  1  0
  6 10  1  0
  7  9  1  0
M  END
>  <id>  (295) 
EN300-199959

>  <smiles>  (295) 
OCC=1C=CC(Br)=C(O)C1

>  <MDLNUMBER>  (295) 
MFCD14705103

>  <IUPAC Name>  (295) 
2-bromo-5-(hydroxymethyl)phenol

>  <CAS>  (295) 
2737-19-1

>  <Purity>  (295) 
95

>  <URL>  (295) 
https://www.enaminestore.com/catalog/EN300-199959

>  <MP>  (295) 
101-102

>  <ROCS_ShapeQuery>  (295) 
_x1604L0AP1_x0771L0AP1

>  <ROCS_TanimotoCombo>  (295) 
0.939 

>  <ROCS_ShapeTanimoto>  (295) 
0.488 

>  <ROCS_ColorTanimoto>  (295) 
0.450 

>  <ROCS_RefTversky>  (295) 
0.423 

>  <ROCS_RefColorTversky>  (295) 
0.512 

>  <ROCS_RefTverskyCombo>  (295) 
0.935 

>  <ROCS_FitTversky>  (295) 
1.467 

>  <ROCS_FitColorTversky>  (295) 
0.788 

>  <ROCS_FitTverskyCombo>  (295) 
2.255 

>  <ROCS_ColorScore>  (295) 
-4.876

>  <ROCS_Overlap>  (295) 
705.583

>  <ROCS_Rank>  (295) 
491                 

$$$$
untitled-dbase-1074_243
     RDKit          3D

 14 14  0  0  1  0  0  0  0  0999 V2000
   -4.5701   12.4548  -29.8314 C   0  0  0  0  0  0  0  0  0  0  0  0
   -5.0439   11.1194  -31.7882 C   0  0  0  0  0  0  0  0  0  0  0  0
   -4.3127   12.1295  -31.1631 C   0  0  0  0  0  0  0  0  0  0  0  0
   -5.5586   11.7699  -29.1246 C   0  0  0  0  0  0  0  0  0  0  0  0
   -6.2898   10.7598  -29.7497 C   0  0  0  0  0  0  0  0  0  0  0  0
   -6.0324   10.4345  -31.0814 C   0  0  0  0  0  0  0  0  0  0  0  0
   -4.3619   15.1183  -31.5462 C   0  0  0  0  0  0  0  0  0  0  0  0
   -5.0524   11.4006  -26.8305 C   0  0  0  0  0  0  0  0  0  0  0  0
   -3.2564   12.8626  -31.9186 C   0  0  0  0  0  0  0  0  0  0  0  0
   -3.0731   14.3136  -31.4346 C   0  0  2  0  0  0  0  0  0  0  0  0
   -7.2533   10.1020  -29.0420 O   0  0  0  0  0  0  0  0  0  0  0  0
   -2.6582   14.3156  -30.0698 O   0  0  0  0  0  0  0  0  0  0  0  0
   -5.7988   12.0994  -27.8247 O   0  0  0  0  0  0  0  0  0  0  0  0
   -7.0053    9.0679  -31.9647 Br  0  0  0  0  0  0  0  0  0  0  0  0
  1  3  2  0
  1  4  1  0
  2  3  1  0
  2  6  2  0
  3  9  1  0
  4  5  2  0
  4 13  1  0
  5  6  1  0
  5 11  1  0
  6 14  1  0
 10  7  1  1
  8 13  1  0
  9 10  1  0
 10 12  1  0
M  END
>  <id>  (296) 
EN300-1927012

>  <smiles>  (296) 
COC=1C=C(C[C@@H](C)O)C=C(Br)C1O

>  <IUPAC Name>  (296) 
2-bromo-4-[(2R)-2-hydroxypropyl]-6-methoxyphenol

>  <CAS>  (296) 
2227685-76-7

>  <URL>  (296) 
https://www.enaminestore.com/catalog/EN300-1927012

>  <ROCS_ShapeQuery>  (296) 
_x1604L0AP1_x0771L0AP1

>  <ROCS_TanimotoCombo>  (296) 
0.939 

>  <ROCS_ShapeTanimoto>  (296) 
0.526 

>  <ROCS_ColorTanimoto>  (296) 
0.413 

>  <ROCS_RefTversky>  (296) 
0.477 

>  <ROCS_RefColorTversky>  (296) 
0.510 

>  <ROCS_RefTverskyCombo>  (296) 
0.987 

>  <ROCS_FitTversky>  (296) 
1.244 

>  <ROCS_FitColorTversky>  (296) 
0.684 

>  <ROCS_FitTverskyCombo>  (296) 
1.928 

>  <ROCS_ColorScore>  (296) 
-4.881

>  <ROCS_Overlap>  (296) 
799.849

>  <ROCS_Rank>  (296) 
492                 

$$$$
untitled-dbase-669_81
     RDKit          3D

 16 17  0  0  0  0  0  0  0  0999 V2000
   -4.3643   12.1721  -31.2155 C   0  0  0  0  0  0  0  0  0  0  0  0
   -4.6074   12.4969  -29.8810 C   0  0  0  0  0  0  0  0  0  0  0  0
   -5.0861   11.1467  -31.8264 C   0  0  0  0  0  0  0  0  0  0  0  0
   -5.5723   11.7963  -29.1573 C   0  0  0  0  0  0  0  0  0  0  0  0
   -6.2941   10.7708  -29.7682 C   0  0  0  0  0  0  0  0  0  0  0  0
   -6.0510   10.4461  -31.1028 C   0  0  0  0  0  0  0  0  0  0  0  0
   -5.9192   10.9824  -34.1922 C   0  0  0  0  0  0  0  0  0  0  0  0
   -3.7783    9.7402  -33.5451 C   0  0  0  0  0  0  0  0  0  0  0  0
   -3.4011   11.1674  -33.7765 C   0  0  0  0  0  0  0  0  0  0  0  0
   -4.7891   10.8360  -33.2581 C   0  0  0  0  0  0  0  0  0  0  0  0
   -5.9205   10.0834  -35.3989 C   0  0  0  0  0  0  0  0  0  0  0  0
   -5.0163   13.1848  -27.3083 C   0  0  0  0  0  0  0  0  0  0  0  0
   -6.8184   11.7980  -33.9943 O   0  0  0  0  0  0  0  0  0  0  0  0
   -7.2328   10.1003  -29.0389 O   0  0  0  0  0  0  0  0  0  0  0  0
   -5.7981   12.1244  -27.8544 O   0  0  0  0  0  0  0  0  0  0  0  0
   -7.0431    9.0445  -31.9254 Br  0  0  0  0  0  0  0  0  0  0  0  0
  1  2  2  0
  1  3  1  0
  2  4  1  0
  3  6  2  0
  3 10  1  0
  4  5  2  0
  4 15  1  0
  5  6  1  0
  5 14  1  0
  6 16  1  0
  7 10  1  0
  7 11  1  0
  7 13  2  0
  8  9  1  0
  8 10  1  0
  9 10  1  0
 12 15  1  0
M  END
>  <id>  (297) 
EN300-1935972

>  <smiles>  (297) 
COC=1C=CC(=C(Br)C1O)C2(CC2)C(=O)C

>  <IUPAC Name>  (297) 
1-[1-(2-bromo-3-hydroxy-4-methoxyphenyl)cyclopropyl]ethan-1-one

>  <CAS>  (297) 
2228443-69-2

>  <URL>  (297) 
https://www.enaminestore.com/catalog/EN300-1935972

>  <ROCS_ShapeQuery>  (297) 
_x1604L0AP1_x0771L0AP1

>  <ROCS_TanimotoCombo>  (297) 
0.939 

>  <ROCS_ShapeTanimoto>  (297) 
0.487 

>  <ROCS_ColorTanimoto>  (297) 
0.451 

>  <ROCS_RefTversky>  (297) 
0.473 

>  <ROCS_RefColorTversky>  (297) 
0.513 

>  <ROCS_RefTverskyCombo>  (297) 
0.986 

>  <ROCS_FitTversky>  (297) 
1.066 

>  <ROCS_FitColorTversky>  (297) 
0.789 

>  <ROCS_FitTverskyCombo>  (297) 
1.855 

>  <ROCS_ColorScore>  (297) 
-4.883

>  <ROCS_Overlap>  (297) 
795.972

>  <ROCS_Rank>  (297) 
495                 

$$$$
untitled-dbase-1731_236
     RDKit          3D

 15 15  0  0  0  0  0  0  0  0999 V2000
   -4.3910   12.1659  -31.2735 C   0  0  0  0  0  0  0  0  0  0  0  0
   -4.6199   12.5099  -29.9413 C   0  0  0  0  0  0  0  0  0  0  0  0
   -5.1139   11.1269  -31.8596 C   0  0  0  0  0  0  0  0  0  0  0  0
   -5.5717   11.8149  -29.1951 C   0  0  0  0  0  0  0  0  0  0  0  0
   -6.2945   10.7758  -29.7812 C   0  0  0  0  0  0  0  0  0  0  0  0
   -6.0656   10.4318  -31.1135 C   0  0  0  0  0  0  0  0  0  0  0  0
   -5.8139   10.5595  -35.6135 C   0  0  0  0  0  0  0  0  0  0  0  0
   -5.9408    9.1152  -35.9647 C   0  0  0  0  0  0  0  0  0  0  0  0
   -5.0018   13.2361  -27.3755 C   0  0  0  0  0  0  0  0  0  0  0  0
   -4.8294   10.7961  -33.3018 C   0  0  0  0  0  0  0  0  0  0  0  0
   -6.0864   10.8994  -34.1640 C   0  0  0  0  0  0  0  0  0  0  0  0
   -5.5050   11.3737  -36.4742 O   0  0  0  0  0  0  0  0  0  0  0  0
   -7.2204   10.1110  -29.0307 O   0  0  0  0  0  0  0  0  0  0  0  0
   -5.7839   12.1627  -27.8950 O   0  0  0  0  0  0  0  0  0  0  0  0
   -7.0629    9.0186  -31.9080 Br  0  0  0  0  0  0  0  0  0  0  0  0
  1  2  2  0
  1  3  1  0
  2  4  1  0
  3  6  2  0
  3 10  1  0
  4  5  2  0
  4 14  1  0
  5  6  1  0
  5 13  1  0
  6 15  1  0
  7  8  1  0
  7 11  1  0
  7 12  2  0
  9 14  1  0
 10 11  1  0
M  END
>  <id>  (298) 
EN300-1935984

>  <smiles>  (298) 
COC=1C=CC(CCC(=O)C)=C(Br)C1O

>  <IUPAC Name>  (298) 
4-(2-bromo-3-hydroxy-4-methoxyphenyl)butan-2-one

>  <CAS>  (298) 
2228742-47-8

>  <URL>  (298) 
https://www.enaminestore.com/catalog/EN300-1935984

>  <ROCS_ShapeQuery>  (298) 
_x1604L0AP1_x0771L0AP1

>  <ROCS_TanimotoCombo>  (298) 
0.939 

>  <ROCS_ShapeTanimoto>  (298) 
0.488 

>  <ROCS_ColorTanimoto>  (298) 
0.450 

>  <ROCS_RefTversky>  (298) 
0.462 

>  <ROCS_RefColorTversky>  (298) 
0.512 

>  <ROCS_RefTverskyCombo>  (298) 
0.974 

>  <ROCS_FitTversky>  (298) 
1.132 

>  <ROCS_FitColorTversky>  (298) 
0.788 

>  <ROCS_FitTverskyCombo>  (298) 
1.920 

>  <ROCS_ColorScore>  (298) 
-4.875

>  <ROCS_Overlap>  (298) 
776.061

>  <ROCS_Rank>  (298) 
496                 

$$$$
untitled-dbase-1316_10
     RDKit          3D

 10 10  0  0  0  0  0  0  0  0999 V2000
   -4.3786   12.1784  -31.2239 C   0  0  0  0  0  0  0  0  0  0  0  0
   -5.0948   11.1464  -31.8302 C   0  0  0  0  0  0  0  0  0  0  0  0
   -5.5856   11.8062  -29.1644 C   0  0  0  0  0  0  0  0  0  0  0  0
   -4.6240   12.5083  -29.8910 C   0  0  0  0  0  0  0  0  0  0  0  0
   -6.3019   10.7742  -29.7708 C   0  0  0  0  0  0  0  0  0  0  0  0
   -6.0564   10.4443  -31.1037 C   0  0  0  0  0  0  0  0  0  0  0  0
   -3.8578   13.6109  -29.2422 C   0  0  0  0  0  0  0  0  0  0  0  0
   -2.5310   13.7504  -29.7868 N   0  0  0  0  0  0  0  0  0  0  0  0
   -7.2326   10.1053  -29.0327 O   0  0  0  0  0  0  0  0  0  0  0  0
   -7.0103    9.0486  -31.9605 Br  0  0  0  0  0  0  0  0  0  0  0  0
  1  2  2  0
  1  4  1  0
  2  6  1  0
  3  4  2  0
  3  5  1  0
  4  7  1  0
  5  6  2  0
  5  9  1  0
  6 10  1  0
  7  8  1  0
M  END
>  <id>  (299) 
EN300-1272422

>  <smiles>  (299) 
NCC=1C=CC(Br)=C(O)C1

>  <MDLNUMBER>  (299) 
MFCD16999582

>  <IUPAC Name>  (299) 
5-(aminomethyl)-2-bromophenol

>  <CAS>  (299) 
916304-26-2

>  <URL>  (299) 
https://www.enaminestore.com/catalog/EN300-1272422

>  <ROCS_ShapeQuery>  (299) 
_x1604L0AP1_x0771L0AP1

>  <ROCS_TanimotoCombo>  (299) 
0.938 

>  <ROCS_ShapeTanimoto>  (299) 
0.488 

>  <ROCS_ColorTanimoto>  (299) 
0.451 

>  <ROCS_RefTversky>  (299) 
0.422 

>  <ROCS_RefColorTversky>  (299) 
0.512 

>  <ROCS_RefTverskyCombo>  (299) 
0.935 

>  <ROCS_FitTversky>  (299) 
1.468 

>  <ROCS_FitColorTversky>  (299) 
0.788 

>  <ROCS_FitTverskyCombo>  (299) 
2.256 

>  <ROCS_ColorScore>  (299) 
-4.876

>  <ROCS_Overlap>  (299) 
704.776

>  <ROCS_Rank>  (299) 
497                 

$$$$
untitled-dbase-1346_10
     RDKit          3D

 10 10  0  0  0  0  0  0  0  0999 V2000
   -4.3786   12.1784  -31.2239 C   0  0  0  0  0  0  0  0  0  0  0  0
   -5.0948   11.1464  -31.8302 C   0  0  0  0  0  0  0  0  0  0  0  0
   -5.5856   11.8062  -29.1644 C   0  0  0  0  0  0  0  0  0  0  0  0
   -4.6240   12.5083  -29.8910 C   0  0  0  0  0  0  0  0  0  0  0  0
   -6.3019   10.7742  -29.7708 C   0  0  0  0  0  0  0  0  0  0  0  0
   -6.0564   10.4443  -31.1037 C   0  0  0  0  0  0  0  0  0  0  0  0
   -3.8578   13.6109  -29.2422 C   0  0  0  0  0  0  0  0  0  0  0  0
   -2.5310   13.7504  -29.7868 N   0  0  0  0  0  0  0  0  0  0  0  0
   -7.2326   10.1053  -29.0327 O   0  0  0  0  0  0  0  0  0  0  0  0
   -7.0103    9.0486  -31.9605 Br  0  0  0  0  0  0  0  0  0  0  0  0
  1  2  2  0
  1  4  1  0
  2  6  1  0
  3  4  2  0
  3  5  1  0
  4  7  1  0
  5  6  2  0
  5  9  1  0
  6 10  1  0
  7  8  1  0
M  END
>  <id>  (300) 
EN300-6495042

>  <smiles>  (300) 
Cl.NCC=1C=CC(Br)=C(O)C1

>  <MDLNUMBER>  (300) 
MFCD27923601

>  <IUPAC Name>  (300) 
5-(aminomethyl)-2-bromophenol hydrochloride

>  <CAS>  (300) 
916213-66-6

>  <Purity>  (300) 
95

>  <URL>  (300) 
https://www.enaminestore.com/catalog/EN300-6495042

>  <Saltdate>  (300) 
Cl

>  <ROCS_ShapeQuery>  (300) 
_x1604L0AP1_x0771L0AP1

>  <ROCS_TanimotoCombo>  (300) 
0.938 

>  <ROCS_ShapeTanimoto>  (300) 
0.488 

>  <ROCS_ColorTanimoto>  (300) 
0.451 

>  <ROCS_RefTversky>  (300) 
0.422 

>  <ROCS_RefColorTversky>  (300) 
0.512 

>  <ROCS_RefTverskyCombo>  (300) 
0.935 

>  <ROCS_FitTversky>  (300) 
1.468 

>  <ROCS_FitColorTversky>  (300) 
0.788 

>  <ROCS_FitTverskyCombo>  (300) 
2.256 

>  <ROCS_ColorScore>  (300) 
-4.876

>  <ROCS_Overlap>  (300) 
704.776

>  <ROCS_Rank>  (300) 
498                 

$$$$
untitled-dbase-1423_10
     RDKit          3D

 13 13  0  0  0  0  0  0  0  0999 V2000
   -3.0642   11.9814  -34.4337 C   0  0  0  0  0  0  0  0  0  0  0  0
   -3.1415   12.3972  -33.3095 C   0  0  0  0  0  0  0  0  0  0  0  0
   -4.5831   12.4656  -29.8141 C   0  0  0  0  0  0  0  0  0  0  0  0
   -5.5696   11.7719  -29.1134 C   0  0  0  0  0  0  0  0  0  0  0  0
   -5.0445   11.1375  -31.7788 C   0  0  0  0  0  0  0  0  0  0  0  0
   -4.3205   12.1485  -31.1468 C   0  0  0  0  0  0  0  0  0  0  0  0
   -6.2936   10.7608  -29.7454 C   0  0  0  0  0  0  0  0  0  0  0  0
   -6.0310   10.4437  -31.0781 C   0  0  0  0  0  0  0  0  0  0  0  0
   -3.5933   14.4150  -31.9601 C   0  0  0  0  0  0  0  0  0  0  0  0
   -1.8228   12.7999  -31.2953 C   0  0  0  0  0  0  0  0  0  0  0  0
   -3.2334   12.9133  -31.9176 C   0  0  0  0  0  0  0  0  0  0  0  0
   -7.2498   10.1008  -29.0324 O   0  0  0  0  0  0  0  0  0  0  0  0
   -6.9940    9.0749  -31.9680 Br  0  0  0  0  0  0  0  0  0  0  0  0
  1  2  3  0
  2 11  1  0
  3  4  2  0
  3  6  1  0
  4  7  1  0
  5  6  2  0
  5  8  1  0
  6 11  1  0
  7  8  2  0
  7 12  1  0
  8 13  1  0
  9 11  1  0
 10 11  1  0
M  END
>  <id>  (301) 
EN300-1906340

>  <smiles>  (301) 
CC(C)(C#C)C=1C=CC(O)=C(Br)C1

>  <IUPAC Name>  (301) 
2-bromo-4-(2-methylbut-3-yn-2-yl)phenol

>  <CAS>  (301) 
2228385-81-5

>  <URL>  (301) 
https://www.enaminestore.com/catalog/EN300-1906340

>  <ROCS_ShapeQuery>  (301) 
_x1604L0AP1_x0771L0AP1

>  <ROCS_TanimotoCombo>  (301) 
0.938 

>  <ROCS_ShapeTanimoto>  (301) 
0.488 

>  <ROCS_ColorTanimoto>  (301) 
0.451 

>  <ROCS_RefTversky>  (301) 
0.446 

>  <ROCS_RefColorTversky>  (301) 
0.513 

>  <ROCS_RefTverskyCombo>  (301) 
0.958 

>  <ROCS_FitTversky>  (301) 
1.238 

>  <ROCS_FitColorTversky>  (301) 
0.789 

>  <ROCS_FitTverskyCombo>  (301) 
2.027 

>  <ROCS_ColorScore>  (301) 
-4.877

>  <ROCS_Overlap>  (301) 
746.975

>  <ROCS_Rank>  (301) 
500                 

$$$$
