untitled-dbase-120214_3
  -OEChem-06232314393D

 28 32  0     1  0  0  0  0  0999 V2000
   -9.9454   14.9397  -36.4783 C   0  0  0  0  0  0  0  0  0  0  0  0
  -12.0903   16.4644  -39.9978 C   0  0  0  0  0  0  0  0  0  0  0  0
  -14.6100   14.9294  -37.8704 C   0  0  0  0  0  0  0  0  0  0  0  0
  -11.0870   14.3138  -37.2137 C   0  0  0  0  0  0  0  0  0  0  0  0
  -13.2413   15.5196  -39.7280 C   0  0  2  0  0  0  0  0  0  0  0  0
  -13.8609   16.1122  -38.4466 C   0  0  2  0  0  0  0  0  0  0  0  0
  -11.4304   16.2167  -38.6563 C   0  0  2  0  0  0  0  0  0  0  0  0
  -13.3756   14.0572  -37.7753 C   0  0  2  0  0  0  0  0  0  0  0  0
  -11.1859   14.6933  -38.6793 C   0  0  2  0  0  0  0  0  0  0  0  0
  -12.4470   14.8867  -36.8643 C   0  0  2  0  0  0  0  0  0  0  0  0
  -12.6111   14.2211  -39.1322 C   0  0  2  0  0  0  0  0  0  0  0  0
  -12.5666   16.2735  -37.5866 C   0  0  2  0  0  0  0  0  0  0  0  0
   -9.0682   15.6189  -36.9909 O   0  0  0  0  0  0  0  0  0  0  0  0
  -10.0111   14.6495  -35.1559 O   0  0  0  0  0  0  0  0  0  0  0  0
  -11.4704   16.1525  -40.8439 H   0  0  0  0  0  0  0  0  0  0  0  0
  -12.4106   17.5024  -40.1302 H   0  0  0  0  0  0  0  0  0  0  0  0
  -15.0600   15.1419  -36.8959 H   0  0  0  0  0  0  0  0  0  0  0  0
  -15.3650   14.5272  -38.5526 H   0  0  0  0  0  0  0  0  0  0  0  0
  -11.0336   13.2283  -37.0735 H   0  0  0  0  0  0  0  0  0  0  0  0
  -13.9493   15.3570  -40.5430 H   0  0  0  0  0  0  0  0  0  0  0  0
  -14.4305   17.0311  -38.5993 H   0  0  0  0  0  0  0  0  0  0  0  0
  -10.5508   16.8229  -38.4317 H   0  0  0  0  0  0  0  0  0  0  0  0
  -13.5252   13.0248  -37.4529 H   0  0  0  0  0  0  0  0  0  0  0  0
  -10.3674   14.3808  -39.3315 H   0  0  0  0  0  0  0  0  0  0  0  0
  -12.7298   14.9012  -35.8093 H   0  0  0  0  0  0  0  0  0  0  0  0
  -12.6276   13.3480  -39.7866 H   0  0  0  0  0  0  0  0  0  0  0  0
  -12.5478   17.1444  -36.9292 H   0  0  0  0  0  0  0  0  0  0  0  0
  -10.7891   14.0918  -34.9414 H   0  0  0  0  0  0  0  0  0  0  0  0
  1  4  1  0  0  0  0
  1 13  2  0  0  0  0
  1 14  1  0  0  0  0
  2  5  1  0  0  0  0
  2  7  1  0  0  0  0
  3  6  1  0  0  0  0
  3  8  1  0  0  0  0
  4  9  1  0  0  0  0
  4 10  1  0  0  0  0
  5  6  1  0  0  0  0
  5 11  1  0  0  0  0
  6 12  1  0  0  0  0
  7  9  1  0  0  0  0
  7 12  1  0  0  0  0
  8 10  1  0  0  0  0
  8 11  1  0  0  0  0
  9 11  1  0  0  0  0
 10 12  1  0  0  0  0
  2 15  1  0  0  0  0
  2 16  1  0  0  0  0
  3 17  1  0  0  0  0
  3 18  1  0  0  0  0
  4 19  1  0  0  0  0
  5 20  1  0  0  0  0
  6 21  1  0  0  0  0
  7 22  1  0  0  0  0
  8 23  1  0  0  0  0
  9 24  1  0  0  0  0
 10 25  1  0  0  0  0
 11 26  1  0  0  0  0
 12 27  1  0  0  0  0
 14 28  1  0  0  0  0
M  END
> <id>
EN300-94447

> <smiles>
OC(=O)C1C2C3CC4C5CC(C1C53)C42

> <MDLNUMBER>
MFCD20264539

> <IUPAC Name>
pentacyclo[6.3.0.0^{2,6}.0^{3,10}.0^{5,9}]undecane-4-carboxylic acid

> <CAS>
115044-28-5

> <Purity>
95

> <URL>
https://www.enaminestore.com/catalog/EN300-94447

> <ROCS_ShapeQuery>
__x1247relevant_x1083L0AP1_x1305L0BP1_

> <ROCS_TanimotoCombo>
0.808 

> <ROCS_ShapeTanimoto>
0.557 

> <ROCS_ColorTanimoto>
0.251 

> <ROCS_RefTversky>
0.456 

> <ROCS_RefColorTversky>
0.570 

> <ROCS_RefTverskyCombo>
1.027 

> <ROCS_FitTversky>
1.656 

> <ROCS_FitColorTversky>
0.310 

> <ROCS_FitTverskyCombo>
1.966 

> <ROCS_ColorScore>
-20.257

> <ROCS_Overlap>
1344.297

> <ROCS_Rank>
1                   

$$$$
untitled-dbase-74407_38
  -OEChem-06232314393D

 40 44  0     1  0  0  0  0  0999 V2000
   -9.6363   15.2254  -37.1054 C   0  0  0  0  0  0  0  0  0  0  0  0
  -13.9974   14.7755  -36.8040 C   0  0  0  0  0  0  0  0  0  0  0  0
  -13.2575   15.0573  -40.3542 C   0  0  0  0  0  0  0  0  0  0  0  0
  -10.6979   15.9008  -37.9132 C   0  0  0  0  0  0  0  0  0  0  0  0
  -14.1730   15.3814  -38.1796 C   0  0  2  0  0  0  0  0  0  0  0  0
  -13.6010   14.2838  -39.0990 C   0  0  2  0  0  0  0  0  0  0  0  0
  -12.4971   14.6168  -36.9466 C   0  0  2  0  0  0  0  0  0  0  0  0
  -12.3173   16.0065  -39.6410 C   0  0  2  0  0  0  0  0  0  0  0  0
  -12.0300   16.0644  -37.2057 C   0  0  2  0  0  0  0  0  0  0  0  0
  -11.2743   15.0492  -39.0278 C   0  0  2  0  0  0  0  0  0  0  0  0
  -13.0496   16.4553  -38.3314 C   0  0  2  0  0  0  0  0  0  0  0  0
  -12.2482   14.0139  -38.3654 C   0  0  2  0  0  0  0  0  0  0  0  0
   -8.8034   14.0991  -34.6286 C   0  0  0  0  0  0  0  0  0  0  0  0
   -9.8877   11.9829  -35.4379 C   0  0  0  0  0  0  0  0  0  0  0  0
   -7.9515   12.9598  -36.7048 C   0  0  0  0  0  0  0  0  0  0  0  0
   -9.1831   13.2717  -35.8558 C   0  0  0  0  0  0  0  0  0  0  0  0
   -8.5259   15.6974  -36.9017 O   0  0  0  0  0  0  0  0  0  0  0  0
  -10.1032   14.0286  -36.6485 O   0  0  0  0  0  0  0  0  0  0  0  0
  -14.2809   15.4577  -35.9969 H   0  0  0  0  0  0  0  0  0  0  0  0
  -14.5180   13.8200  -36.6876 H   0  0  0  0  0  0  0  0  0  0  0  0
  -12.7557   14.4451  -41.1097 H   0  0  0  0  0  0  0  0  0  0  0  0
  -14.1215   15.5637  -40.7950 H   0  0  0  0  0  0  0  0  0  0  0  0
  -10.3025   16.8584  -38.2702 H   0  0  0  0  0  0  0  0  0  0  0  0
  -15.1756   15.7218  -38.4460 H   0  0  0  0  0  0  0  0  0  0  0  0
  -14.2436   13.4092  -39.2177 H   0  0  0  0  0  0  0  0  0  0  0  0
  -11.9859   14.1053  -36.1288 H   0  0  0  0  0  0  0  0  0  0  0  0
  -11.8947   16.8200  -40.2341 H   0  0  0  0  0  0  0  0  0  0  0  0
  -12.0497   16.7063  -36.3222 H   0  0  0  0  0  0  0  0  0  0  0  0
  -10.5716   14.6148  -39.7425 H   0  0  0  0  0  0  0  0  0  0  0  0
  -13.3866   17.4930  -38.3163 H   0  0  0  0  0  0  0  0  0  0  0  0
  -11.9071   12.9774  -38.3806 H   0  0  0  0  0  0  0  0  0  0  0  0
   -8.2974   15.0251  -34.9243 H   0  0  0  0  0  0  0  0  0  0  0  0
   -9.6824   14.3592  -34.0298 H   0  0  0  0  0  0  0  0  0  0  0  0
   -8.0996   13.5523  -33.9908 H   0  0  0  0  0  0  0  0  0  0  0  0
  -10.1619   11.3860  -36.3153 H   0  0  0  0  0  0  0  0  0  0  0  0
  -10.8226   12.2028  -34.9098 H   0  0  0  0  0  0  0  0  0  0  0  0
   -9.2567   11.3706  -34.7856 H   0  0  0  0  0  0  0  0  0  0  0  0
   -8.2236   12.3662  -37.5851 H   0  0  0  0  0  0  0  0  0  0  0  0
   -7.4539   13.8738  -37.0446 H   0  0  0  0  0  0  0  0  0  0  0  0
   -7.2296   12.3601  -36.1387 H   0  0  0  0  0  0  0  0  0  0  0  0
  1  4  1  0  0  0  0
  1 17  2  0  0  0  0
  1 18  1  0  0  0  0
  2  5  1  0  0  0  0
  2  7  1  0  0  0  0
  3  6  1  0  0  0  0
  3  8  1  0  0  0  0
  4  9  1  0  0  0  0
  4 10  1  0  0  0  0
  5  6  1  0  0  0  0
  5 11  1  0  0  0  0
  6 12  1  0  0  0  0
  7  9  1  0  0  0  0
  7 12  1  0  0  0  0
  8 10  1  0  0  0  0
  8 11  1  0  0  0  0
  9 11  1  0  0  0  0
 10 12  1  0  0  0  0
 13 16  1  0  0  0  0
 14 16  1  0  0  0  0
 15 16  1  0  0  0  0
 16 18  1  0  0  0  0
  2 19  1  0  0  0  0
  2 20  1  0  0  0  0
  3 21  1  0  0  0  0
  3 22  1  0  0  0  0
  4 23  1  0  0  0  0
  5 24  1  0  0  0  0
  6 25  1  0  0  0  0
  7 26  1  0  0  0  0
  8 27  1  0  0  0  0
  9 28  1  0  0  0  0
 10 29  1  0  0  0  0
 11 30  1  0  0  0  0
 12 31  1  0  0  0  0
 13 32  1  0  0  0  0
 13 33  1  0  0  0  0
 13 34  1  0  0  0  0
 14 35  1  0  0  0  0
 14 36  1  0  0  0  0
 14 37  1  0  0  0  0
 15 38  1  0  0  0  0
 15 39  1  0  0  0  0
 15 40  1  0  0  0  0
M  END
> <id>
EN300-27701179

> <smiles>
CC(C)(C)OC(=O)C1C2C3CC4C5CC(C1C53)C42

> <MDLNUMBER>
MFCD34167910

> <IUPAC Name>
tert-butyl pentacyclo[6.3.0.0^{2,6}.0^{3,10}.0^{5,9}]undecane-4-carboxylate

> <CAS>
2648945-36-0

> <Purity>
95

> <URL>
https://www.enaminestore.com/catalog/EN300-27701179

> <ROCS_ShapeQuery>
__x1247relevant_x1083L0AP1_x1305L0BP1_

> <ROCS_TanimotoCombo>
0.807 

> <ROCS_ShapeTanimoto>
0.562 

> <ROCS_ColorTanimoto>
0.245 

> <ROCS_RefTversky>
0.479 

> <ROCS_RefColorTversky>
0.553 

> <ROCS_RefTverskyCombo>
1.032 

> <ROCS_FitTversky>
1.448 

> <ROCS_FitColorTversky>
0.305 

> <ROCS_FitTverskyCombo>
1.752 

> <ROCS_ColorScore>
-19.626

> <ROCS_Overlap>
1415.033

> <ROCS_Rank>
2                   

$$$$
untitled-dbase-145345_36
  -OEChem-06232314393D

 30 32  0     1  0  0  0  0  0999 V2000
  -11.8797   14.1381  -40.7126 C   0  0  0  0  0  0  0  0  0  0  0  0
  -11.1996   13.3303  -39.6330 C   0  0  0  0  0  0  0  0  0  0  0  0
  -12.7836   14.5412  -37.0582 C   0  0  0  0  0  0  0  0  0  0  0  0
  -13.3172   14.4881  -38.5105 C   0  0  1  0  0  0  0  0  0  0  0  0
  -11.4801   15.8074  -38.6793 C   0  0  1  0  0  0  0  0  0  0  0  0
  -13.9064   15.8803  -38.8638 C   0  0  1  0  0  0  0  0  0  0  0  0
  -12.6463   16.7792  -39.0107 C   0  0  2  0  0  0  0  0  0  0  0  0
  -11.5691   15.4976  -37.1631 C   0  0  2  0  0  0  0  0  0  0  0  0
  -12.0226   14.5331  -39.2690 C   0  0  0  0  0  0  0  0  0  0  0  0
  -10.2672   13.1834  -37.1338 N   0  0  0  0  0  0  0  0  0  0  0  0
   -8.9584   15.3969  -37.2022 O   0  0  0  0  0  0  0  0  0  0  0  0
  -10.1749   14.7392  -35.0873 O   0  0  0  0  0  0  0  0  0  0  0  0
  -14.6538   15.7907  -40.0660 O   0  0  0  0  0  0  0  0  0  0  0  0
  -12.4837   17.2836  -40.3270 O   0  0  0  0  0  0  0  0  0  0  0  0
  -10.0875   14.7703  -36.5369 S   0  0  0  0  0  0  0  0  0  0  0  0
  -11.2511   14.7454  -41.3520 H   0  0  0  0  0  0  0  0  0  0  0  0
  -12.7315   13.6909  -41.2097 H   0  0  0  0  0  0  0  0  0  0  0  0
  -11.6016   12.3495  -39.4113 H   0  0  0  0  0  0  0  0  0  0  0  0
  -10.1210   13.4018  -39.5694 H   0  0  0  0  0  0  0  0  0  0  0  0
  -13.5379   14.9168  -36.3592 H   0  0  0  0  0  0  0  0  0  0  0  0
  -12.4833   13.5402  -36.7278 H   0  0  0  0  0  0  0  0  0  0  0  0
  -13.9743   13.6433  -38.7286 H   0  0  0  0  0  0  0  0  0  0  0  0
  -10.5018   16.1223  -39.0504 H   0  0  0  0  0  0  0  0  0  0  0  0
  -14.5704   16.2366  -38.0688 H   0  0  0  0  0  0  0  0  0  0  0  0
  -12.6661   17.6269  -38.3175 H   0  0  0  0  0  0  0  0  0  0  0  0
  -11.7205   16.4059  -36.5696 H   0  0  0  0  0  0  0  0  0  0  0  0
   -9.6475   12.8868  -37.8977 H   0  0  0  0  0  0  0  0  0  0  0  0
  -10.4762   12.4389  -36.4573 H   0  0  0  0  0  0  0  0  0  0  0  0
  -14.0410   15.4923  -40.7586 H   0  0  0  0  0  0  0  0  0  0  0  0
  -13.2294   17.8837  -40.4936 H   0  0  0  0  0  0  0  0  0  0  0  0
  1  2  1  0  0  0  0
  1  9  1  0  0  0  0
  2  9  1  0  0  0  0
  3  4  1  6  0  0  0
  3  8  1  0  0  0  0
  4  6  1  0  0  0  0
  4  9  1  0  0  0  0
  5  7  1  0  0  0  0
  5  8  1  0  0  0  0
  5  9  1  1  0  0  0
  6  7  1  0  0  0  0
  6 13  1  1  0  0  0
  7 14  1  1  0  0  0
  8 15  1  1  0  0  0
 10 15  1  0  0  0  0
 11 15  2  0  0  0  0
 12 15  2  0  0  0  0
  1 16  1  0  0  0  0
  1 17  1  0  0  0  0
  2 18  1  0  0  0  0
  2 19  1  0  0  0  0
  3 20  1  0  0  0  0
  3 21  1  0  0  0  0
  4 22  1  0  0  0  0
  5 23  1  0  0  0  0
  6 24  1  0  0  0  0
  7 25  1  0  0  0  0
  8 26  1  0  0  0  0
 10 27  1  0  0  0  0
 10 28  1  0  0  0  0
 13 29  1  0  0  0  0
 14 30  1  0  0  0  0
M  END
> <id>
EN300-27734386

> <smiles>
NS(=O)(=O)[C@@H]1C[C@H]2[C@H](O)[C@H](O)[C@@H]1C32CC3 |&1:4,6,7,9,11,r|

> <IUPAC Name>
rac-(1R,2S,3R,4S,6S)-2,3-dihydroxyspiro[bicyclo[2.2.1]heptane-7,1'-cyclopropane]-6-sulfonamide

> <CAS>
2580113-88-6

> <URL>
https://www.enaminestore.com/catalog/EN300-27734386

> <ROCS_ShapeQuery>
__x1247relevant_x1083L0AP1_x1305L0BP1_

> <ROCS_TanimotoCombo>
0.796 

> <ROCS_ShapeTanimoto>
0.504 

> <ROCS_ColorTanimoto>
0.291 

> <ROCS_RefTversky>
0.423 

> <ROCS_RefColorTversky>
0.324 

> <ROCS_RefTverskyCombo>
0.748 

> <ROCS_FitTversky>
1.610 

> <ROCS_FitColorTversky>
0.741 

> <ROCS_FitTverskyCombo>
2.351 

> <ROCS_ColorScore>
-10.646

> <ROCS_Overlap>
1246.680

> <ROCS_Rank>
3                   

$$$$
untitled-dbase-83565_7
  -OEChem-06232314393D

 50 55  0     1  0  0  0  0  0999 V2000
   -8.8255   12.6875  -34.5220 C   0  0  0  0  0  0  0  0  0  0  0  0
   -7.7290   13.4671  -34.9178 C   0  0  0  0  0  0  0  0  0  0  0  0
  -10.0814   12.8761  -35.1010 C   0  0  0  0  0  0  0  0  0  0  0  0
   -7.8689   14.4539  -35.8972 C   0  0  0  0  0  0  0  0  0  0  0  0
  -10.2183   13.8615  -36.0626 C   0  0  0  0  0  0  0  0  0  0  0  0
   -9.1188   14.6570  -36.4646 C   0  0  0  0  0  0  0  0  0  0  0  0
  -13.0933   16.8224  -37.8988 C   0  0  0  0  0  0  0  0  0  0  0  0
  -11.4273   13.3602  -38.1633 C   0  0  0  0  0  0  0  0  0  0  0  0
  -14.1872   15.7780  -38.1640 C   0  0  2  0  0  0  0  0  0  0  0  0
  -13.6319   14.3602  -37.8417 C   0  0  1  0  0  0  0  0  0  0  0  0
  -14.4857   15.9145  -39.6852 C   0  0  1  0  0  0  0  0  0  0  0  0
  -11.7583   16.2723  -38.4771 C   0  0  1  0  0  0  0  0  0  0  0  0
  -12.5607   14.0150  -38.9243 C   0  0  1  0  0  0  0  0  0  0  0  0
  -10.9468   15.6916  -37.2912 C   0  0  1  0  0  0  0  0  0  0  0  0
  -12.8691   14.2373  -36.4820 C   0  0  2  0  0  0  0  0  0  0  0  0
  -13.1405   15.7384  -40.4551 C   0  0  2  0  0  0  0  0  0  0  0  0
  -11.3899   14.2409  -36.9098 C   0  0  2  0  0  0  0  0  0  0  0  0
  -15.8585   15.1098  -41.6130 C   0  0  0  0  0  0  0  0  0  0  0  0
   -8.8455   15.5858  -38.7498 C   0  0  0  0  0  0  0  0  0  0  0  0
  -15.5593   14.9346  -40.1612 C   0  0  0  0  0  0  0  0  0  0  0  0
   -9.4867   15.6007  -37.4535 N   0  0  2  0  0  0  0  0  0  0  0  0
  -12.0548   15.2680  -39.5495 N   0  0  1  0  0  0  0  0  0  0  0  0
  -13.2336   12.9846  -35.9066 O   0  0  0  0  0  0  0  0  0  0  0  0
  -12.8086   16.9732  -41.0948 O   0  0  0  0  0  0  0  0  0  0  0  0
   -8.6914   11.9192  -33.7651 H   0  0  0  0  0  0  0  0  0  0  0  0
   -6.7582   13.2986  -34.4589 H   0  0  0  0  0  0  0  0  0  0  0  0
  -10.9096   12.2430  -34.8071 H   0  0  0  0  0  0  0  0  0  0  0  0
   -7.0063   15.0435  -36.1888 H   0  0  0  0  0  0  0  0  0  0  0  0
  -13.3467   17.7735  -38.3859 H   0  0  0  0  0  0  0  0  0  0  0  0
  -13.0314   17.0535  -36.8301 H   0  0  0  0  0  0  0  0  0  0  0  0
  -11.6664   12.3174  -37.9171 H   0  0  0  0  0  0  0  0  0  0  0  0
  -10.4928   13.3448  -38.7381 H   0  0  0  0  0  0  0  0  0  0  0  0
  -15.0798   15.9955  -37.5677 H   0  0  0  0  0  0  0  0  0  0  0  0
  -14.4482   13.6291  -37.8869 H   0  0  0  0  0  0  0  0  0  0  0  0
  -14.8783   16.9249  -39.8661 H   0  0  0  0  0  0  0  0  0  0  0  0
  -11.2138   17.1178  -38.9108 H   0  0  0  0  0  0  0  0  0  0  0  0
  -12.9387   13.3212  -39.6842 H   0  0  0  0  0  0  0  0  0  0  0  0
  -11.1024   16.3483  -36.4187 H   0  0  0  0  0  0  0  0  0  0  0  0
  -13.1336   15.0212  -35.7662 H   0  0  0  0  0  0  0  0  0  0  0  0
  -13.2610   15.0147  -41.2705 H   0  0  0  0  0  0  0  0  0  0  0  0
  -16.2029   16.1347  -41.7950 H   0  0  0  0  0  0  0  0  0  0  0  0
  -16.6488   14.4238  -41.9355 H   0  0  0  0  0  0  0  0  0  0  0  0
  -14.9632   14.9395  -42.2203 H   0  0  0  0  0  0  0  0  0  0  0  0
   -9.2630   16.3886  -39.3753 H   0  0  0  0  0  0  0  0  0  0  0  0
   -7.7639   15.7429  -38.6256 H   0  0  0  0  0  0  0  0  0  0  0  0
   -9.0215   14.6142  -39.2347 H   0  0  0  0  0  0  0  0  0  0  0  0
  -15.2157   13.9143  -39.9763 H   0  0  0  0  0  0  0  0  0  0  0  0
  -16.4682   15.0923  -39.5761 H   0  0  0  0  0  0  0  0  0  0  0  0
  -14.1949   13.0078  -35.7825 H   0  0  0  0  0  0  0  0  0  0  0  0
  -13.5379   17.1698  -41.7010 H   0  0  0  0  0  0  0  0  0  0  0  0
  1  2  2  0  0  0  0
  1  3  1  0  0  0  0
  2  4  1  0  0  0  0
  3  5  2  0  0  0  0
  4  6  2  0  0  0  0
  5  6  1  0  0  0  0
  5 17  1  1  0  0  0
  6 21  1  0  0  0  0
  7  9  1  1  0  0  0
  7 12  1  6  0  0  0
  8 13  1  1  0  0  0
  8 17  1  0  0  0  0
  9 10  1  0  0  0  0
  9 11  1  0  0  0  0
 10 13  1  0  0  0  0
 10 15  1  0  0  0  0
 11 16  1  0  0  0  0
 11 20  1  6  0  0  0
 12 14  1  0  0  0  0
 12 22  1  0  0  0  0
 13 22  1  0  0  0  0
 14 17  1  0  0  0  0
 14 21  1  1  0  0  0
 15 17  1  0  0  0  0
 15 23  1  1  0  0  0
 16 22  1  0  0  0  0
 16 24  1  1  0  0  0
 18 20  1  0  0  0  0
 19 21  1  0  0  0  0
  1 25  1  0  0  0  0
  2 26  1  0  0  0  0
  3 27  1  0  0  0  0
  4 28  1  0  0  0  0
  7 29  1  0  0  0  0
  7 30  1  0  0  0  0
  8 31  1  0  0  0  0
  8 32  1  0  0  0  0
  9 33  1  0  0  0  0
 10 34  1  0  0  0  0
 11 35  1  0  0  0  0
 12 36  1  0  0  0  0
 13 37  1  0  0  0  0
 14 38  1  0  0  0  0
 15 39  1  0  0  0  0
 16 40  1  0  0  0  0
 18 41  1  0  0  0  0
 18 42  1  0  0  0  0
 18 43  1  0  0  0  0
 19 44  1  0  0  0  0
 19 45  1  0  0  0  0
 19 46  1  0  0  0  0
 20 47  1  0  0  0  0
 20 48  1  0  0  0  0
 23 49  1  0  0  0  0
 24 50  1  0  0  0  0
M  END
> <id>
EN300-26869018

> <smiles>
CC[C@@H]1[C@@H](O)N2[C@H]3C[C@@]45[C@H](O)C3[C@H]1C[C@H]2[C@@H]5N(C)C=6C=CC=CC64

> <IUPAC Name>
(1R,9R,10S,12R,13S,14R,16S,18R)-13-ethyl-8-methyl-8,15-diazahexacyclo[14.2.1.0^{1,9}.0^{2,7}.0^{10,15}.0^{12,17}]nonadeca-2(7),3,5-triene-14,18-diol

> <URL>
https://www.enaminestore.com/catalog/EN300-26869018

> <ROCS_ShapeQuery>
__x1247relevant_x1083L0AP1_x1305L0BP1_

> <ROCS_TanimotoCombo>
0.795 

> <ROCS_ShapeTanimoto>
0.587 

> <ROCS_ColorTanimoto>
0.207 

> <ROCS_RefTversky>
0.524 

> <ROCS_RefColorTversky>
0.305 

> <ROCS_RefTverskyCombo>
0.829 

> <ROCS_FitTversky>
1.259 

> <ROCS_FitColorTversky>
0.393 

> <ROCS_FitTverskyCombo>
1.652 

> <ROCS_ColorScore>
-10.186

> <ROCS_Overlap>
1555.658

> <ROCS_Rank>
4                   

$$$$
untitled-dbase-144592_3
  -OEChem-06232314393D

 26 28  0     1  0  0  0  0  0999 V2000
  -12.4338   13.8814  -39.4010 C   0  0  0  0  0  0  0  0  0  0  0  0
  -11.3916   15.0166  -39.4642 C   0  0  0  0  0  0  0  0  0  0  0  0
  -12.6803   14.2106  -36.9422 C   0  0  0  0  0  0  0  0  0  0  0  0
  -13.4583   14.1614  -38.2802 C   0  0  1  0  0  0  0  0  0  0  0  0
  -11.6765   16.0639  -38.3619 C   0  0  1  0  0  0  0  0  0  0  0  0
  -14.1069   15.5194  -38.4745 C   0  0  1  0  0  0  0  0  0  0  0  0
  -13.0820   16.6183  -38.5325 C   0  0  2  0  0  0  0  0  0  0  0  0
  -11.6597   15.3746  -36.9719 C   0  0  2  0  0  0  0  0  0  0  0  0
   -9.9900   13.3334  -37.2824 N   0  0  0  0  0  0  0  0  0  0  0  0
   -9.0754   15.7319  -37.1169 O   0  0  0  0  0  0  0  0  0  0  0  0
  -10.0428   14.6277  -35.0600 O   0  0  0  0  0  0  0  0  0  0  0  0
  -13.8335   16.2288  -39.6860 O   0  0  0  0  0  0  0  0  0  0  0  0
  -10.0418   14.8444  -36.4955 S   0  0  0  0  0  0  0  0  0  0  0  0
  -12.9427   13.7969  -40.3688 H   0  0  0  0  0  0  0  0  0  0  0  0
  -11.9299   12.9236  -39.2249 H   0  0  0  0  0  0  0  0  0  0  0  0
  -10.3819   14.6038  -39.3680 H   0  0  0  0  0  0  0  0  0  0  0  0
  -11.4304   15.4924  -40.4522 H   0  0  0  0  0  0  0  0  0  0  0  0
  -13.3835   14.3745  -36.1159 H   0  0  0  0  0  0  0  0  0  0  0  0
  -12.1947   13.2456  -36.7558 H   0  0  0  0  0  0  0  0  0  0  0  0
  -14.2199   13.3755  -38.2547 H   0  0  0  0  0  0  0  0  0  0  0  0
  -10.9424   16.8748  -38.4140 H   0  0  0  0  0  0  0  0  0  0  0  0
  -15.0311   15.6847  -37.9427 H   0  0  0  0  0  0  0  0  0  0  0  0
  -13.2849   17.5581  -38.0427 H   0  0  0  0  0  0  0  0  0  0  0  0
  -11.9426   16.1074  -36.2047 H   0  0  0  0  0  0  0  0  0  0  0  0
   -9.3753   13.2403  -38.1004 H   0  0  0  0  0  0  0  0  0  0  0  0
  -10.0343   12.4884  -36.6996 H   0  0  0  0  0  0  0  0  0  0  0  0
  1  2  1  0  0  0  0
  1  4  1  0  0  0  0
  2  5  1  6  0  0  0
  3  4  1  1  0  0  0
  3  8  1  0  0  0  0
  4  6  1  0  0  0  0
  5  7  1  0  0  0  0
  5  8  1  0  0  0  0
  6  7  1  0  0  0  0
  6 12  1  6  0  0  0
  7 12  1  6  0  0  0
  8 13  1  6  0  0  0
  9 13  1  0  0  0  0
 10 13  2  0  0  0  0
 11 13  2  0  0  0  0
  1 14  1  0  0  0  0
  1 15  1  0  0  0  0
  2 16  1  0  0  0  0
  2 17  1  0  0  0  0
  3 18  1  0  0  0  0
  3 19  1  0  0  0  0
  4 20  1  0  0  0  0
  5 21  1  0  0  0  0
  6 22  1  0  0  0  0
  7 23  1  0  0  0  0
  8 24  1  0  0  0  0
  9 25  1  0  0  0  0
  9 26  1  0  0  0  0
M  END
> <id>
EN300-27734501

> <smiles>
NS(=O)(=O)[C@@H]1C[C@@H]2CC[C@H]1[C@H]3O[C@H]32 |&1:4,6,9,10,12,r|

> <IUPAC Name>
rac-(1R,2R,4S,5R,6S)-3-oxatricyclo[3.2.2.0,2,4]nonane-6-sulfonamide

> <CAS>
2580095-37-8

> <URL>
https://www.enaminestore.com/catalog/EN300-27734501

> <ROCS_ShapeQuery>
__x1247relevant_x1083L0AP1_x1305L0BP1_

> <ROCS_TanimotoCombo>
0.791 

> <ROCS_ShapeTanimoto>
0.487 

> <ROCS_ColorTanimoto>
0.304 

> <ROCS_RefTversky>
0.404 

> <ROCS_RefColorTversky>
0.381 

> <ROCS_RefTverskyCombo>
0.785 

> <ROCS_FitTversky>
1.727 

> <ROCS_FitColorTversky>
0.601 

> <ROCS_FitTverskyCombo>
2.328 

> <ROCS_ColorScore>
-12.640

> <ROCS_Overlap>
1188.019

> <ROCS_Rank>
5                   

$$$$
untitled-dbase-30078_6
  -OEChem-06232314393D

 26 29  0     1  0  0  0  0  0999 V2000
  -10.0579   14.7100  -37.1731 C   0  0  0  0  0  0  0  0  0  0  0  0
  -13.8540   16.9778  -39.5958 C   0  0  0  0  0  0  0  0  0  0  0  0
  -14.0564   14.6710  -40.2444 C   0  0  0  0  0  0  0  0  0  0  0  0
  -13.0809   16.5579  -38.3503 C   0  0  2  0  0  0  0  0  0  0  0  0
  -13.2829   14.2546  -38.9979 C   0  0  1  0  0  0  0  0  0  0  0  0
  -11.6872   16.0562  -38.6927 C   0  0  2  0  0  0  0  0  0  0  0  0
  -11.8125   14.6284  -39.0942 C   0  0  1  0  0  0  0  0  0  0  0  0
  -13.5810   15.1919  -37.7872 C   0  0  0  0  0  0  0  0  0  0  0  0
  -11.3725   14.9768  -37.7112 C   0  0  0  0  0  0  0  0  0  0  0  0
   -8.6837   12.9768  -36.3415 C   0  0  0  0  0  0  0  0  0  0  0  0
   -9.1971   15.5646  -37.0120 O   0  0  0  0  0  0  0  0  0  0  0  0
  -14.7021   15.9359  -40.0837 O   0  0  0  0  0  0  0  0  0  0  0  0
  -12.5300   14.8325  -36.8372 O   0  0  0  0  0  0  0  0  0  0  0  0
   -9.9442   13.3823  -36.8846 O   0  0  0  0  0  0  0  0  0  0  0  0
  -14.4639   17.8646  -39.3943 H   0  0  0  0  0  0  0  0  0  0  0  0
  -13.1568   17.2243  -40.4019 H   0  0  0  0  0  0  0  0  0  0  0  0
  -13.3726   14.7677  -41.0929 H   0  0  0  0  0  0  0  0  0  0  0  0
  -14.8100   13.9201  -40.5028 H   0  0  0  0  0  0  0  0  0  0  0  0
  -13.0423   17.3355  -37.5832 H   0  0  0  0  0  0  0  0  0  0  0  0
  -13.4052   13.1980  -38.7465 H   0  0  0  0  0  0  0  0  0  0  0  0
  -10.9509   16.7239  -39.0982 H   0  0  0  0  0  0  0  0  0  0  0  0
  -11.1759   14.1587  -39.8198 H   0  0  0  0  0  0  0  0  0  0  0  0
  -14.5836   15.1608  -37.3640 H   0  0  0  0  0  0  0  0  0  0  0  0
   -8.6987   11.9015  -36.1476 H   0  0  0  0  0  0  0  0  0  0  0  0
   -8.4932   13.5225  -35.4139 H   0  0  0  0  0  0  0  0  0  0  0  0
   -7.8960   13.2035  -37.0637 H   0  0  0  0  0  0  0  0  0  0  0  0
  1  9  1  0  0  0  0
  1 11  2  0  0  0  0
  1 14  1  0  0  0  0
  2  4  1  0  0  0  0
  2 12  1  0  0  0  0
  3  5  1  0  0  0  0
  3 12  1  0  0  0  0
  4  6  1  0  0  0  0
  4  8  1  0  0  0  0
  5  7  1  0  0  0  0
  5  8  1  0  0  0  0
  6  7  1  0  0  0  0
  6  9  1  0  0  0  0
  7  9  1  0  0  0  0
  8 13  1  0  0  0  0
  9 13  1  0  0  0  0
 10 14  1  0  0  0  0
  2 15  1  0  0  0  0
  2 16  1  0  0  0  0
  3 17  1  0  0  0  0
  3 18  1  0  0  0  0
  4 19  1  0  0  0  0
  5 20  1  0  0  0  0
  6 21  1  0  0  0  0
  7 22  1  0  0  0  0
  8 23  1  0  0  0  0
 10 24  1  0  0  0  0
 10 25  1  0  0  0  0
 10 26  1  0  0  0  0
M  END
> <id>
EN300-696464

> <smiles>
COC(=O)C12OC3C4COCC3C2C41

> <IUPAC Name>
methyl 5,9-dioxatetracyclo[4.4.0.0^{2,4}.0^{3,7}]decane-4-carboxylate

> <CAS>
135922-86-0

> <URL>
https://www.enaminestore.com/catalog/EN300-696464

> <ROCS_ShapeQuery>
__x1247relevant_x1083L0AP1_x1305L0BP1_

> <ROCS_TanimotoCombo>
0.789 

> <ROCS_ShapeTanimoto>
0.527 

> <ROCS_ColorTanimoto>
0.261 

> <ROCS_RefTversky>
0.438 

> <ROCS_RefColorTversky>
0.437 

> <ROCS_RefTverskyCombo>
0.874 

> <ROCS_FitTversky>
1.637 

> <ROCS_FitColorTversky>
0.394 

> <ROCS_FitTverskyCombo>
2.031 

> <ROCS_ColorScore>
-14.864

> <ROCS_Overlap>
1288.709

> <ROCS_Rank>
6                   

$$$$
untitled-dbase-20936_6
  -OEChem-06232314393D

 34 36  0     1  0  0  0  0  0999 V2000
   -9.9916   15.2106  -36.5712 C   0  0  0  0  0  0  0  0  0  0  0  0
  -12.9004   15.9856  -36.6818 C   0  0  0  0  0  0  0  0  0  0  0  0
  -11.5466   16.7315  -38.6611 C   0  0  0  0  0  0  0  0  0  0  0  0
  -13.9182   15.9859  -38.9711 C   0  0  0  0  0  0  0  0  0  0  0  0
  -13.3881   13.8175  -37.8229 C   0  0  0  0  0  0  0  0  0  0  0  0
  -12.0261   14.5678  -39.8141 C   0  0  0  0  0  0  0  0  0  0  0  0
  -12.9485   16.7203  -38.0310 C   0  0  0  0  0  0  0  0  0  0  0  0
  -12.3982   14.5377  -36.8779 C   0  0  1  0  0  0  0  0  0  0  0  0
  -11.0393   15.2864  -38.8646 C   0  0  2  0  0  0  0  0  0  0  0  0
  -10.9785   14.5467  -37.5026 C   0  0  0  0  0  0  0  0  0  0  0  0
  -13.4458   14.5310  -39.1963 C   0  0  0  0  0  0  0  0  0  0  0  0
  -14.4119   13.8002  -40.1329 C   0  0  0  0  0  0  0  0  0  0  0  0
  -10.4336   13.1913  -37.6356 N   0  0  0  0  0  0  0  0  0  0  0  0
   -8.9953   15.8232  -36.9252 O   0  0  0  0  0  0  0  0  0  0  0  0
  -10.3591   15.0330  -35.2786 O   0  0  0  0  0  0  0  0  0  0  0  0
  -14.4623   14.4282  -41.3160 F   0  0  0  0  0  0  0  0  0  0  0  0
  -13.9965   12.5403  -40.3234 F   0  0  0  0  0  0  0  0  0  0  0  0
  -15.6396   13.7799  -39.5957 F   0  0  0  0  0  0  0  0  0  0  0  0
  -12.2539   16.5283  -35.9825 H   0  0  0  0  0  0  0  0  0  0  0  0
  -13.9003   15.9729  -36.2298 H   0  0  0  0  0  0  0  0  0  0  0  0
  -11.5774   17.2525  -39.6264 H   0  0  0  0  0  0  0  0  0  0  0  0
  -10.8552   17.2987  -38.0271 H   0  0  0  0  0  0  0  0  0  0  0  0
  -14.9279   15.9956  -38.5404 H   0  0  0  0  0  0  0  0  0  0  0  0
  -13.9804   16.5190  -39.9285 H   0  0  0  0  0  0  0  0  0  0  0  0
  -13.1134   12.7637  -37.9470 H   0  0  0  0  0  0  0  0  0  0  0  0
  -14.3862   13.8125  -37.3640 H   0  0  0  0  0  0  0  0  0  0  0  0
  -12.0515   15.0962  -40.7766 H   0  0  0  0  0  0  0  0  0  0  0  0
  -11.6775   13.5529  -40.0383 H   0  0  0  0  0  0  0  0  0  0  0  0
  -13.2935   17.7493  -37.8792 H   0  0  0  0  0  0  0  0  0  0  0  0
  -12.3897   14.0320  -35.9040 H   0  0  0  0  0  0  0  0  0  0  0  0
  -10.0464   15.3243  -39.3304 H   0  0  0  0  0  0  0  0  0  0  0  0
  -11.1190   12.5546  -37.3103 H   0  0  0  0  0  0  0  0  0  0  0  0
  -10.2319   13.0379  -38.5932 H   0  0  0  0  0  0  0  0  0  0  0  0
   -9.7288   15.4558  -34.6571 H   0  0  0  0  0  0  0  0  0  0  0  0
  1 10  1  0  0  0  0
  1 14  2  0  0  0  0
  1 15  1  0  0  0  0
  2  7  1  0  0  0  0
  2  8  1  0  0  0  0
  3  7  1  0  0  0  0
  3  9  1  0  0  0  0
  4  7  1  0  0  0  0
  4 11  1  0  0  0  0
  5  8  1  0  0  0  0
  5 11  1  0  0  0  0
  6  9  1  0  0  0  0
  6 11  1  0  0  0  0
  8 10  1  0  0  0  0
  9 10  1  0  0  0  0
 10 13  1  0  0  0  0
 11 12  1  0  0  0  0
 12 16  1  0  0  0  0
 12 17  1  0  0  0  0
 12 18  1  0  0  0  0
  2 19  1  0  0  0  0
  2 20  1  0  0  0  0
  3 21  1  0  0  0  0
  3 22  1  0  0  0  0
  4 23  1  0  0  0  0
  4 24  1  0  0  0  0
  5 25  1  0  0  0  0
  5 26  1  0  0  0  0
  6 27  1  0  0  0  0
  6 28  1  0  0  0  0
  7 29  1  0  0  0  0
  8 30  1  0  0  0  0
  9 31  1  0  0  0  0
 13 32  1  0  0  0  0
 13 33  1  0  0  0  0
 15 34  1  0  0  0  0
M  END
> <id>
EN300-295820

> <smiles>
Cl.NC1(C2CC3CC1CC(C3)(C2)C(F)(F)F)C(=O)O

> <IUPAC Name>
2-amino-5-(trifluoromethyl)adamantane-2-carboxylic acid hydrochloride

> <CAS>
1303974-01-7

> <URL>
https://www.enaminestore.com/catalog/EN300-295820

> <Saltdate>
Cl

> <ROCS_ShapeQuery>
__x1247relevant_x1083L0AP1_x1305L0BP1_

> <ROCS_TanimotoCombo>
0.787 

> <ROCS_ShapeTanimoto>
0.543 

> <ROCS_ColorTanimoto>
0.244 

> <ROCS_RefTversky>
0.465 

> <ROCS_RefColorTversky>
0.271 

> <ROCS_RefTverskyCombo>
0.736 

> <ROCS_FitTversky>
1.449 

> <ROCS_FitColorTversky>
0.706 

> <ROCS_FitTverskyCombo>
2.155 

> <ROCS_ColorScore>
-8.876

> <ROCS_Overlap>
1373.196

> <ROCS_Rank>
7                   

$$$$
untitled-dbase-110101_6
  -OEChem-06232314393D

 34 36  0     1  0  0  0  0  0999 V2000
   -9.9907   15.2110  -36.5694 C   0  0  0  0  0  0  0  0  0  0  0  0
  -11.5508   16.7319  -38.6573 C   0  0  0  0  0  0  0  0  0  0  0  0
  -12.9033   15.9788  -36.6783 C   0  0  0  0  0  0  0  0  0  0  0  0
  -13.9237   15.9878  -38.9656 C   0  0  0  0  0  0  0  0  0  0  0  0
  -12.0325   14.5785  -39.8193 C   0  0  0  0  0  0  0  0  0  0  0  0
  -13.3908   13.8165  -37.8255 C   0  0  0  0  0  0  0  0  0  0  0  0
  -12.9520   16.7187  -38.0248 C   0  0  0  0  0  0  0  0  0  0  0  0
  -11.0421   15.2863  -38.8653 C   0  0  2  0  0  0  0  0  0  0  0  0
  -12.3986   14.5315  -36.8796 C   0  0  1  0  0  0  0  0  0  0  0  0
  -10.9760   14.5468  -37.5013 C   0  0  0  0  0  0  0  0  0  0  0  0
  -13.4499   14.5342  -39.1969 C   0  0  0  0  0  0  0  0  0  0  0  0
  -14.4175   13.8066  -40.1344 C   0  0  0  0  0  0  0  0  0  0  0  0
  -10.4304   13.1924  -37.6395 N   0  0  0  0  0  0  0  0  0  0  0  0
   -8.9892   15.8159  -36.9222 O   0  0  0  0  0  0  0  0  0  0  0  0
  -10.3660   15.0438  -35.2777 O   0  0  0  0  0  0  0  0  0  0  0  0
  -14.4709   14.4391  -41.3148 F   0  0  0  0  0  0  0  0  0  0  0  0
  -14.0019   12.5476  -40.3308 F   0  0  0  0  0  0  0  0  0  0  0  0
  -15.6441   13.7833  -39.5946 F   0  0  0  0  0  0  0  0  0  0  0  0
  -11.5828   17.2561  -39.6210 H   0  0  0  0  0  0  0  0  0  0  0  0
  -10.8586   17.2972  -38.0225 H   0  0  0  0  0  0  0  0  0  0  0  0
  -12.2570   16.5197  -35.9773 H   0  0  0  0  0  0  0  0  0  0  0  0
  -13.9031   15.9636  -36.2263 H   0  0  0  0  0  0  0  0  0  0  0  0
  -14.9329   15.9958  -38.5340 H   0  0  0  0  0  0  0  0  0  0  0  0
  -13.9870   16.5245  -39.9210 H   0  0  0  0  0  0  0  0  0  0  0  0
  -12.0604   15.1139  -40.7778 H   0  0  0  0  0  0  0  0  0  0  0  0
  -11.6841   13.5651  -40.0511 H   0  0  0  0  0  0  0  0  0  0  0  0
  -13.1159   12.7633  -37.9537 H   0  0  0  0  0  0  0  0  0  0  0  0
  -14.3882   13.8102  -37.3651 H   0  0  0  0  0  0  0  0  0  0  0  0
  -13.2963   17.7473  -37.8688 H   0  0  0  0  0  0  0  0  0  0  0  0
  -10.0498   15.3264  -39.3324 H   0  0  0  0  0  0  0  0  0  0  0  0
  -12.3897   14.0229  -35.9072 H   0  0  0  0  0  0  0  0  0  0  0  0
  -11.1149   12.5540  -37.3154 H   0  0  0  0  0  0  0  0  0  0  0  0
  -10.2296   13.0422  -38.5978 H   0  0  0  0  0  0  0  0  0  0  0  0
   -9.7366   15.4671  -34.6556 H   0  0  0  0  0  0  0  0  0  0  0  0
  1 10  1  0  0  0  0
  1 14  2  0  0  0  0
  1 15  1  0  0  0  0
  2  7  1  0  0  0  0
  2  8  1  0  0  0  0
  3  7  1  0  0  0  0
  3  9  1  0  0  0  0
  4  7  1  0  0  0  0
  4 11  1  0  0  0  0
  5  8  1  0  0  0  0
  5 11  1  0  0  0  0
  6  9  1  0  0  0  0
  6 11  1  0  0  0  0
  8 10  1  0  0  0  0
  9 10  1  0  0  0  0
 10 13  1  6  0  0  0
 11 12  1  6  0  0  0
 12 16  1  0  0  0  0
 12 17  1  0  0  0  0
 12 18  1  0  0  0  0
  2 19  1  0  0  0  0
  2 20  1  0  0  0  0
  3 21  1  0  0  0  0
  3 22  1  0  0  0  0
  4 23  1  0  0  0  0
  4 24  1  0  0  0  0
  5 25  1  0  0  0  0
  5 26  1  0  0  0  0
  6 27  1  0  0  0  0
  6 28  1  0  0  0  0
  7 29  1  0  0  0  0
  8 30  1  0  0  0  0
  9 31  1  0  0  0  0
 13 32  1  0  0  0  0
 13 33  1  0  0  0  0
 15 34  1  0  0  0  0
M  END
> <id>
EN300-88784

> <smiles>
Cl.N[C@]1(C2CC3CC1C[C@@](C3)(C2)C(F)(F)F)C(=O)O

> <IUPAC Name>
(2r,5s)-2-amino-5-(trifluoromethyl)adamantane-2-carboxylic acid hydrochloride

> <URL>
https://www.enaminestore.com/catalog/EN300-88784

> <Saltdate>
Cl

> <ROCS_ShapeQuery>
__x1247relevant_x1083L0AP1_x1305L0BP1_

> <ROCS_TanimotoCombo>
0.787 

> <ROCS_ShapeTanimoto>
0.544 

> <ROCS_ColorTanimoto>
0.243 

> <ROCS_RefTversky>
0.465 

> <ROCS_RefColorTversky>
0.271 

> <ROCS_RefTverskyCombo>
0.736 

> <ROCS_FitTversky>
1.450 

> <ROCS_FitColorTversky>
0.705 

> <ROCS_FitTverskyCombo>
2.155 

> <ROCS_ColorScore>
-8.869

> <ROCS_Overlap>
1373.343

> <ROCS_Rank>
8                   

$$$$
untitled-dbase-110540_6
  -OEChem-06232314393D

 34 36  0     1  0  0  0  0  0999 V2000
   -9.9907   15.2110  -36.5694 C   0  0  0  0  0  0  0  0  0  0  0  0
  -11.5508   16.7319  -38.6573 C   0  0  0  0  0  0  0  0  0  0  0  0
  -12.9033   15.9788  -36.6783 C   0  0  0  0  0  0  0  0  0  0  0  0
  -13.9237   15.9878  -38.9656 C   0  0  0  0  0  0  0  0  0  0  0  0
  -12.0325   14.5785  -39.8193 C   0  0  0  0  0  0  0  0  0  0  0  0
  -13.3908   13.8165  -37.8255 C   0  0  0  0  0  0  0  0  0  0  0  0
  -12.9520   16.7187  -38.0248 C   0  0  0  0  0  0  0  0  0  0  0  0
  -11.0421   15.2863  -38.8653 C   0  0  2  0  0  0  0  0  0  0  0  0
  -12.3986   14.5315  -36.8796 C   0  0  1  0  0  0  0  0  0  0  0  0
  -10.9760   14.5468  -37.5013 C   0  0  0  0  0  0  0  0  0  0  0  0
  -13.4499   14.5342  -39.1969 C   0  0  0  0  0  0  0  0  0  0  0  0
  -14.4175   13.8066  -40.1344 C   0  0  0  0  0  0  0  0  0  0  0  0
  -10.4304   13.1924  -37.6395 N   0  0  0  0  0  0  0  0  0  0  0  0
   -8.9892   15.8159  -36.9222 O   0  0  0  0  0  0  0  0  0  0  0  0
  -10.3660   15.0438  -35.2777 O   0  0  0  0  0  0  0  0  0  0  0  0
  -14.4709   14.4391  -41.3148 F   0  0  0  0  0  0  0  0  0  0  0  0
  -14.0019   12.5476  -40.3308 F   0  0  0  0  0  0  0  0  0  0  0  0
  -15.6441   13.7833  -39.5946 F   0  0  0  0  0  0  0  0  0  0  0  0
  -11.5828   17.2561  -39.6210 H   0  0  0  0  0  0  0  0  0  0  0  0
  -10.8586   17.2972  -38.0225 H   0  0  0  0  0  0  0  0  0  0  0  0
  -12.2570   16.5197  -35.9773 H   0  0  0  0  0  0  0  0  0  0  0  0
  -13.9031   15.9636  -36.2263 H   0  0  0  0  0  0  0  0  0  0  0  0
  -14.9329   15.9958  -38.5340 H   0  0  0  0  0  0  0  0  0  0  0  0
  -13.9870   16.5245  -39.9210 H   0  0  0  0  0  0  0  0  0  0  0  0
  -12.0604   15.1139  -40.7778 H   0  0  0  0  0  0  0  0  0  0  0  0
  -11.6841   13.5651  -40.0511 H   0  0  0  0  0  0  0  0  0  0  0  0
  -13.1159   12.7633  -37.9537 H   0  0  0  0  0  0  0  0  0  0  0  0
  -14.3882   13.8102  -37.3651 H   0  0  0  0  0  0  0  0  0  0  0  0
  -13.2963   17.7473  -37.8688 H   0  0  0  0  0  0  0  0  0  0  0  0
  -10.0498   15.3264  -39.3324 H   0  0  0  0  0  0  0  0  0  0  0  0
  -12.3897   14.0229  -35.9072 H   0  0  0  0  0  0  0  0  0  0  0  0
  -11.1149   12.5540  -37.3154 H   0  0  0  0  0  0  0  0  0  0  0  0
  -10.2296   13.0422  -38.5978 H   0  0  0  0  0  0  0  0  0  0  0  0
   -9.7366   15.4671  -34.6556 H   0  0  0  0  0  0  0  0  0  0  0  0
  1 10  1  0  0  0  0
  1 14  2  0  0  0  0
  1 15  1  0  0  0  0
  2  7  1  0  0  0  0
  2  8  1  0  0  0  0
  3  7  1  0  0  0  0
  3  9  1  0  0  0  0
  4  7  1  0  0  0  0
  4 11  1  0  0  0  0
  5  8  1  0  0  0  0
  5 11  1  0  0  0  0
  6  9  1  0  0  0  0
  6 11  1  0  0  0  0
  8 10  1  0  0  0  0
  9 10  1  0  0  0  0
 10 13  1  6  0  0  0
 11 12  1  6  0  0  0
 12 16  1  0  0  0  0
 12 17  1  0  0  0  0
 12 18  1  0  0  0  0
  2 19  1  0  0  0  0
  2 20  1  0  0  0  0
  3 21  1  0  0  0  0
  3 22  1  0  0  0  0
  4 23  1  0  0  0  0
  4 24  1  0  0  0  0
  5 25  1  0  0  0  0
  5 26  1  0  0  0  0
  6 27  1  0  0  0  0
  6 28  1  0  0  0  0
  7 29  1  0  0  0  0
  8 30  1  0  0  0  0
  9 31  1  0  0  0  0
 13 32  1  0  0  0  0
 13 33  1  0  0  0  0
 15 34  1  0  0  0  0
M  END
> <id>
EN300-146974

> <smiles>
N[C@]1(C2CC3CC1C[C@@](C3)(C2)C(F)(F)F)C(=O)O

> <IUPAC Name>
(2r,5s)-2-amino-5-(trifluoromethyl)adamantane-2-carboxylic acid

> <CAS>
1304192-59-3

> <URL>
https://www.enaminestore.com/catalog/EN300-146974

> <ROCS_ShapeQuery>
__x1247relevant_x1083L0AP1_x1305L0BP1_

> <ROCS_TanimotoCombo>
0.787 

> <ROCS_ShapeTanimoto>
0.544 

> <ROCS_ColorTanimoto>
0.243 

> <ROCS_RefTversky>
0.465 

> <ROCS_RefColorTversky>
0.271 

> <ROCS_RefTverskyCombo>
0.736 

> <ROCS_FitTversky>
1.450 

> <ROCS_FitColorTversky>
0.705 

> <ROCS_FitTverskyCombo>
2.155 

> <ROCS_ColorScore>
-8.869

> <ROCS_Overlap>
1373.343

> <ROCS_Rank>
9                   

$$$$
untitled-dbase-23866_14
  -OEChem-06232314393D

 23 26  0     1  0  0  0  0  0999 V2000
  -10.3303   15.0108  -36.6250 C   0  0  0  0  0  0  0  0  0  0  0  0
  -13.2556   15.7112  -40.6716 C   0  0  0  0  0  0  0  0  0  0  0  0
  -14.4041   14.0078  -39.4217 C   0  0  0  0  0  0  0  0  0  0  0  0
  -12.5462   16.1637  -39.3998 C   0  0  2  0  0  0  0  0  0  0  0  0
  -13.6929   14.4628  -38.1518 C   0  0  1  0  0  0  0  0  0  0  0  0
  -11.5061   15.1534  -38.9431 C   0  0  2  0  0  0  0  0  0  0  0  0
  -12.2169   14.0990  -38.1695 C   0  0  1  0  0  0  0  0  0  0  0  0
  -13.4515   16.0038  -38.1396 C   0  0  0  0  0  0  0  0  0  0  0  0
  -11.5020   15.1946  -37.4512 C   0  0  0  0  0  0  0  0  0  0  0  0
  -10.3329   14.5347  -35.4995 O   0  0  0  0  0  0  0  0  0  0  0  0
  -14.4923   15.0499  -40.3960 O   0  0  0  0  0  0  0  0  0  0  0  0
  -12.5031   16.1711  -37.0402 O   0  0  0  0  0  0  0  0  0  0  0  0
   -9.2182   15.4426  -37.2685 O   0  0  0  0  0  0  0  0  0  0  0  0
  -13.4498   16.5626  -41.3323 H   0  0  0  0  0  0  0  0  0  0  0  0
  -12.6280   14.9990  -41.2152 H   0  0  0  0  0  0  0  0  0  0  0  0
  -13.8514   13.1848  -39.8845 H   0  0  0  0  0  0  0  0  0  0  0  0
  -15.4136   13.6502  -39.1947 H   0  0  0  0  0  0  0  0  0  0  0  0
  -12.1151   17.1649  -39.4785 H   0  0  0  0  0  0  0  0  0  0  0  0
  -14.1748   14.1096  -37.2366 H   0  0  0  0  0  0  0  0  0  0  0  0
  -10.6303   14.9659  -39.5349 H   0  0  0  0  0  0  0  0  0  0  0  0
  -11.9074   13.0714  -38.1452 H   0  0  0  0  0  0  0  0  0  0  0  0
  -14.3262   16.6478  -38.0656 H   0  0  0  0  0  0  0  0  0  0  0  0
   -8.4113   15.3279  -36.7226 H   0  0  0  0  0  0  0  0  0  0  0  0
  1  9  1  0  0  0  0
  1 10  2  0  0  0  0
  1 13  1  0  0  0  0
  2  4  1  0  0  0  0
  2 11  1  0  0  0  0
  3  5  1  0  0  0  0
  3 11  1  0  0  0  0
  4  6  1  0  0  0  0
  4  8  1  0  0  0  0
  5  7  1  0  0  0  0
  5  8  1  0  0  0  0
  6  7  1  0  0  0  0
  6  9  1  0  0  0  0
  7  9  1  0  0  0  0
  8 12  1  0  0  0  0
  9 12  1  0  0  0  0
  2 14  1  0  0  0  0
  2 15  1  0  0  0  0
  3 16  1  0  0  0  0
  3 17  1  0  0  0  0
  4 18  1  0  0  0  0
  5 19  1  0  0  0  0
  6 20  1  0  0  0  0
  7 21  1  0  0  0  0
  8 22  1  0  0  0  0
 13 23  1  0  0  0  0
M  END
> <id>
EN300-631721

> <smiles>
OC(=O)C12OC3C4COCC3C2C41

> <MDLNUMBER>
MFCD20640364

> <IUPAC Name>
5,9-dioxatetracyclo[4.4.0.0^{2,4}.0^{3,7}]decane-4-carboxylic acid

> <CAS>
135922-85-9

> <Purity>
95

> <URL>
https://www.enaminestore.com/catalog/EN300-631721

> <ROCS_ShapeQuery>
__x1247relevant_x1083L0AP1_x1305L0BP1_

> <ROCS_TanimotoCombo>
0.781 

> <ROCS_ShapeTanimoto>
0.519 

> <ROCS_ColorTanimoto>
0.262 

> <ROCS_RefTversky>
0.428 

> <ROCS_RefColorTversky>
0.448 

> <ROCS_RefTverskyCombo>
0.877 

> <ROCS_FitTversky>
1.685 

> <ROCS_FitColorTversky>
0.387 

> <ROCS_FitTverskyCombo>
2.072 

> <ROCS_ColorScore>
-15.315

> <ROCS_Overlap>
1260.271

> <ROCS_Rank>
10                  

$$$$
untitled-dbase-80866_1
  -OEChem-06232314393D

 26 29  0     1  0  0  0  0  0999 V2000
  -11.1588   15.7042  -39.2902 C   0  0  0  0  0  0  0  0  0  0  0  0
   -9.7892   14.8088  -37.2741 C   0  0  0  0  0  0  0  0  0  0  0  0
  -13.2387   14.6030  -39.8054 C   0  0  0  0  0  0  0  0  0  0  0  0
  -14.3768   15.4229  -37.9206 C   0  0  0  0  0  0  0  0  0  0  0  0
  -12.6268   15.9969  -39.5328 C   0  0  1  0  0  0  0  0  0  0  0  0
  -13.5867   14.1725  -38.3688 C   0  0  2  0  0  0  0  0  0  0  0  0
  -13.1808   16.3651  -38.0970 C   0  0  2  0  0  0  0  0  0  0  0  0
  -12.3084   14.2462  -37.4988 C   0  0  2  0  0  0  0  0  0  0  0  0
  -12.1830   15.6950  -37.1707 C   0  0  1  0  0  0  0  0  0  0  0  0
  -11.0695   15.0774  -37.9377 C   0  0  2  0  0  0  0  0  0  0  0  0
   -8.4619   13.0674  -36.3854 C   0  0  0  0  0  0  0  0  0  0  0  0
  -10.2229   15.8651  -40.0524 O   0  0  0  0  0  0  0  0  0  0  0  0
   -8.9692   15.6721  -36.9920 O   0  0  0  0  0  0  0  0  0  0  0  0
   -9.6724   13.4720  -37.0329 O   0  0  0  0  0  0  0  0  0  0  0  0
  -14.1414   14.6860  -40.4212 H   0  0  0  0  0  0  0  0  0  0  0  0
  -12.5458   13.9071  -40.2908 H   0  0  0  0  0  0  0  0  0  0  0  0
  -15.2225   15.6662  -38.5714 H   0  0  0  0  0  0  0  0  0  0  0  0
  -14.7120   15.3535  -36.8798 H   0  0  0  0  0  0  0  0  0  0  0  0
  -12.8065   16.7420  -40.3079 H   0  0  0  0  0  0  0  0  0  0  0  0
  -14.1323   13.2304  -38.2916 H   0  0  0  0  0  0  0  0  0  0  0  0
  -13.3452   17.4270  -37.9104 H   0  0  0  0  0  0  0  0  0  0  0  0
  -12.2556   13.5352  -36.6887 H   0  0  0  0  0  0  0  0  0  0  0  0
  -12.1183   16.0226  -36.1496 H   0  0  0  0  0  0  0  0  0  0  0  0
   -8.4699   11.9844  -36.2402 H   0  0  0  0  0  0  0  0  0  0  0  0
   -8.3766   13.5744  -35.4210 H   0  0  0  0  0  0  0  0  0  0  0  0
   -7.6127   13.3420  -37.0156 H   0  0  0  0  0  0  0  0  0  0  0  0
  1  5  1  0  0  0  0
  1 10  1  0  0  0  0
  1 12  2  0  0  0  0
  2 10  1  0  0  0  0
  2 13  2  0  0  0  0
  2 14  1  0  0  0  0
  3  5  1  0  0  0  0
  3  6  1  0  0  0  0
  4  6  1  0  0  0  0
  4  7  1  0  0  0  0
  5  7  1  0  0  0  0
  6  8  1  0  0  0  0
  7  9  1  0  0  0  0
  8  9  1  0  0  0  0
  8 10  1  0  0  0  0
  9 10  1  0  0  0  0
 11 14  1  0  0  0  0
  3 15  1  0  0  0  0
  3 16  1  0  0  0  0
  4 17  1  0  0  0  0
  4 18  1  0  0  0  0
  5 19  1  0  0  0  0
  6 20  1  0  0  0  0
  7 21  1  0  0  0  0
  8 22  1  0  0  0  0
  9 23  1  0  0  0  0
 11 24  1  0  0  0  0
 11 25  1  0  0  0  0
 11 26  1  0  0  0  0
M  END
> <id>
EN300-7536983

> <smiles>
COC(=O)C12C3C2C4CC3CC4C1=O

> <MDLNUMBER>
MFCD32269188

> <IUPAC Name>
methyl 5-oxotetracyclo[4.3.0.0^{2,4}.0^{3,8}]nonane-4-carboxylate

> <CAS>
123005-01-6

> <Purity>
95

> <URL>
https://www.enaminestore.com/catalog/EN300-7536983

> <ROCS_ShapeQuery>
__x1247relevant_x1083L0AP1_x1305L0BP1_

> <ROCS_TanimotoCombo>
0.780 

> <ROCS_ShapeTanimoto>
0.530 

> <ROCS_ColorTanimoto>
0.250 

> <ROCS_RefTversky>
0.439 

> <ROCS_RefColorTversky>
0.546 

> <ROCS_RefTverskyCombo>
0.985 

> <ROCS_FitTversky>
1.646 

> <ROCS_FitColorTversky>
0.315 

> <ROCS_FitTverskyCombo>
1.961 

> <ROCS_ColorScore>
-19.273

> <ROCS_Overlap>
1292.453

> <ROCS_Rank>
11                  

$$$$
untitled-dbase-169560_24
  -OEChem-06232314393D

 34 36  0     1  0  0  0  0  0999 V2000
  -12.3821   16.0417  -39.5670 C   0  0  0  0  0  0  0  0  0  0  0  0
  -10.2914   14.8315  -36.7779 C   0  0  0  0  0  0  0  0  0  0  0  0
  -14.2487   14.7358  -38.7205 C   0  0  0  0  0  0  0  0  0  0  0  0
  -14.0445   15.3064  -37.2962 C   0  0  0  0  0  0  0  0  0  0  0  0
  -11.8610   13.9284  -38.6290 C   0  0  0  0  0  0  0  0  0  0  0  0
  -12.9293   14.6289  -39.5012 C   0  0  2  0  0  0  0  0  0  0  0  0
  -11.8274   16.3212  -38.2211 C   0  0  1  0  0  0  0  0  0  0  0  0
  -12.6418   15.8080  -37.0556 C   0  0  2  0  0  0  0  0  0  0  0  0
  -11.4995   14.9814  -37.5987 C   0  0  2  0  0  0  0  0  0  0  0  0
   -9.3468   12.4268  -37.1190 C   0  0  0  0  0  0  0  0  0  0  0  0
   -7.7785   13.3378  -38.8568 C   0  0  0  0  0  0  0  0  0  0  0  0
   -7.3431   13.7818  -36.4234 C   0  0  0  0  0  0  0  0  0  0  0  0
   -8.4174   13.5812  -37.4912 C   0  0  0  0  0  0  0  0  0  0  0  0
  -12.4377   16.8402  -40.4831 O   0  0  0  0  0  0  0  0  0  0  0  0
  -10.2970   14.7665  -35.5561 O   0  0  0  0  0  0  0  0  0  0  0  0
   -9.1947   14.7791  -37.5863 O   0  0  0  0  0  0  0  0  0  0  0  0
  -14.7251   13.7507  -38.6493 H   0  0  0  0  0  0  0  0  0  0  0  0
  -14.9491   15.3819  -39.2650 H   0  0  0  0  0  0  0  0  0  0  0  0
  -14.7582   16.1200  -37.1232 H   0  0  0  0  0  0  0  0  0  0  0  0
  -14.2698   14.5275  -36.5580 H   0  0  0  0  0  0  0  0  0  0  0  0
  -12.2395   13.0128  -38.1632 H   0  0  0  0  0  0  0  0  0  0  0  0
  -10.9795   13.6812  -39.2325 H   0  0  0  0  0  0  0  0  0  0  0  0
  -13.0421   14.1767  -40.4882 H   0  0  0  0  0  0  0  0  0  0  0  0
  -11.1497   17.1513  -38.0838 H   0  0  0  0  0  0  0  0  0  0  0  0
  -12.5266   16.2938  -36.0954 H   0  0  0  0  0  0  0  0  0  0  0  0
   -9.8074   12.5978  -36.1394 H   0  0  0  0  0  0  0  0  0  0  0  0
  -10.1427   12.2949  -37.8592 H   0  0  0  0  0  0  0  0  0  0  0  0
   -8.7895   11.4865  -37.0387 H   0  0  0  0  0  0  0  0  0  0  0  0
   -7.1108   14.1636  -39.1279 H   0  0  0  0  0  0  0  0  0  0  0  0
   -8.5419   13.2877  -39.6415 H   0  0  0  0  0  0  0  0  0  0  0  0
   -7.2027   12.4068  -38.8732 H   0  0  0  0  0  0  0  0  0  0  0  0
   -6.6763   14.6098  -36.6901 H   0  0  0  0  0  0  0  0  0  0  0  0
   -7.7830   13.9943  -35.4436 H   0  0  0  0  0  0  0  0  0  0  0  0
   -6.7103   12.8913  -36.3352 H   0  0  0  0  0  0  0  0  0  0  0  0
  1  6  1  0  0  0  0
  1  7  1  0  0  0  0
  1 14  2  0  0  0  0
  2  9  1  0  0  0  0
  2 15  2  0  0  0  0
  2 16  1  0  0  0  0
  3  4  1  0  0  0  0
  3  6  1  0  0  0  0
  4  8  1  0  0  0  0
  5  6  1  0  0  0  0
  5  9  1  0  0  0  0
  7  8  1  0  0  0  0
  7  9  1  0  0  0  0
  8  9  1  0  0  0  0
 10 13  1  0  0  0  0
 11 13  1  0  0  0  0
 12 13  1  0  0  0  0
 13 16  1  0  0  0  0
  3 17  1  0  0  0  0
  3 18  1  0  0  0  0
  4 19  1  0  0  0  0
  4 20  1  0  0  0  0
  5 21  1  0  0  0  0
  5 22  1  0  0  0  0
  6 23  1  0  0  0  0
  7 24  1  0  0  0  0
  8 25  1  0  0  0  0
 10 26  1  0  0  0  0
 10 27  1  0  0  0  0
 10 28  1  0  0  0  0
 11 29  1  0  0  0  0
 11 30  1  0  0  0  0
 11 31  1  0  0  0  0
 12 32  1  0  0  0  0
 12 33  1  0  0  0  0
 12 34  1  0  0  0  0
M  END
> <id>
EN300-37354083

> <smiles>
CC(C)(C)OC(=O)C12CC3CCC2C1C3=O

> <IUPAC Name>
tert-butyl 6-oxotricyclo[3.2.1.0,2,7]octane-1-carboxylate

> <Purity>
95

> <URL>
https://www.enaminestore.com/catalog/EN300-37354083

> <ROCS_ShapeQuery>
__x1247relevant_x1083L0AP1_x1305L0BP1_

> <ROCS_TanimotoCombo>
0.776 

> <ROCS_ShapeTanimoto>
0.495 

> <ROCS_ColorTanimoto>
0.282 

> <ROCS_RefTversky>
0.425 

> <ROCS_RefColorTversky>
0.409 

> <ROCS_RefTverskyCombo>
0.835 

> <ROCS_FitTversky>
1.490 

> <ROCS_FitColorTversky>
0.474 

> <ROCS_FitTverskyCombo>
1.964 

> <ROCS_ColorScore>
-13.755

> <ROCS_Overlap>
1254.084

> <ROCS_Rank>
12                  

$$$$
untitled-dbase-74406_37
  -OEChem-06232314393D

 40 44  0     1  0  0  0  0  0999 V2000
  -10.3539   14.3219  -36.3285 C   0  0  0  0  0  0  0  0  0  0  0  0
  -14.2685   14.2844  -38.0032 C   0  0  0  0  0  0  0  0  0  0  0  0
  -11.7756   15.4219  -40.3925 C   0  0  0  0  0  0  0  0  0  0  0  0
  -11.7373   14.3307  -36.9019 C   0  0  2  0  0  0  0  0  0  0  0  0
  -13.1691   13.9821  -39.0256 C   0  0  1  0  0  0  0  0  0  0  0  0
  -13.1929   15.2718  -39.8804 C   0  0  1  0  0  0  0  0  0  0  0  0
  -13.8491   15.6721  -37.5099 C   0  0  1  0  0  0  0  0  0  0  0  0
  -11.1497   15.3261  -39.0153 C   0  0  2  0  0  0  0  0  0  0  0  0
  -11.7211   14.0184  -38.4065 C   0  0  1  0  0  0  0  0  0  0  0  0
  -12.4101   15.7079  -36.8967 C   0  0  2  0  0  0  0  0  0  0  0  0
  -13.3135   16.3566  -38.7858 C   0  0  1  0  0  0  0  0  0  0  0  0
  -11.8959   16.3931  -38.1850 C   0  0  2  0  0  0  0  0  0  0  0  0
   -7.5638   14.0767  -35.8273 C   0  0  0  0  0  0  0  0  0  0  0  0
   -7.3047   14.0549  -38.3256 C   0  0  0  0  0  0  0  0  0  0  0  0
   -8.2731   16.0729  -37.1863 C   0  0  0  0  0  0  0  0  0  0  0  0
   -8.1522   14.5500  -37.1557 C   0  0  0  0  0  0  0  0  0  0  0  0
  -10.0944   14.5810  -35.1612 O   0  0  0  0  0  0  0  0  0  0  0  0
   -9.4595   13.9861  -37.3013 O   0  0  0  0  0  0  0  0  0  0  0  0
  -15.2511   14.3288  -38.4879 H   0  0  0  0  0  0  0  0  0  0  0  0
  -14.3265   13.5475  -37.1974 H   0  0  0  0  0  0  0  0  0  0  0  0
  -11.4712   14.6118  -41.0616 H   0  0  0  0  0  0  0  0  0  0  0  0
  -11.6010   16.3937  -40.8647 H   0  0  0  0  0  0  0  0  0  0  0  0
  -12.3092   13.5899  -36.3337 H   0  0  0  0  0  0  0  0  0  0  0  0
  -13.3392   13.0733  -39.6091 H   0  0  0  0  0  0  0  0  0  0  0  0
  -13.9889   15.3086  -40.6271 H   0  0  0  0  0  0  0  0  0  0  0  0
  -14.6016   16.2324  -36.9491 H   0  0  0  0  0  0  0  0  0  0  0  0
  -10.0619   15.4140  -38.9753 H   0  0  0  0  0  0  0  0  0  0  0  0
  -11.1370   13.1360  -38.6846 H   0  0  0  0  0  0  0  0  0  0  0  0
  -12.3264   16.2937  -35.9771 H   0  0  0  0  0  0  0  0  0  0  0  0
  -13.7429   17.3205  -39.0652 H   0  0  0  0  0  0  0  0  0  0  0  0
  -11.4394   17.3799  -38.0883 H   0  0  0  0  0  0  0  0  0  0  0  0
   -8.1692   14.4300  -34.9850 H   0  0  0  0  0  0  0  0  0  0  0  0
   -7.5042   12.9845  -35.7788 H   0  0  0  0  0  0  0  0  0  0  0  0
   -6.5578   14.4851  -35.6776 H   0  0  0  0  0  0  0  0  0  0  0  0
   -7.7232   14.3921  -39.2808 H   0  0  0  0  0  0  0  0  0  0  0  0
   -7.2932   12.9596  -38.3633 H   0  0  0  0  0  0  0  0  0  0  0  0
   -6.2716   14.4103  -38.2550 H   0  0  0  0  0  0  0  0  0  0  0  0
   -8.6951   16.4126  -38.1390 H   0  0  0  0  0  0  0  0  0  0  0  0
   -8.9083   16.4434  -36.3752 H   0  0  0  0  0  0  0  0  0  0  0  0
   -7.2872   16.5438  -37.0994 H   0  0  0  0  0  0  0  0  0  0  0  0
  1  4  1  0  0  0  0
  1 17  2  0  0  0  0
  1 18  1  0  0  0  0
  2  5  1  0  0  0  0
  2  7  1  0  0  0  0
  3  6  1  0  0  0  0
  3  8  1  0  0  0  0
  4  9  1  0  0  0  0
  4 10  1  0  0  0  0
  5  6  1  0  0  0  0
  5  9  1  0  0  0  0
  6 11  1  0  0  0  0
  7 10  1  0  0  0  0
  7 11  1  0  0  0  0
  8  9  1  0  0  0  0
  8 12  1  0  0  0  0
 10 12  1  0  0  0  0
 11 12  1  0  0  0  0
 13 16  1  0  0  0  0
 14 16  1  0  0  0  0
 15 16  1  0  0  0  0
 16 18  1  0  0  0  0
  2 19  1  0  0  0  0
  2 20  1  0  0  0  0
  3 21  1  0  0  0  0
  3 22  1  0  0  0  0
  4 23  1  0  0  0  0
  5 24  1  0  0  0  0
  6 25  1  0  0  0  0
  7 26  1  0  0  0  0
  8 27  1  0  0  0  0
  9 28  1  0  0  0  0
 10 29  1  0  0  0  0
 11 30  1  0  0  0  0
 12 31  1  0  0  0  0
 13 32  1  0  0  0  0
 13 33  1  0  0  0  0
 13 34  1  0  0  0  0
 14 35  1  0  0  0  0
 14 36  1  0  0  0  0
 14 37  1  0  0  0  0
 15 38  1  0  0  0  0
 15 39  1  0  0  0  0
 15 40  1  0  0  0  0
M  END
> <id>
EN300-27701177

> <smiles>
CC(C)(C)OC(=O)C1C2C3CC4C5CC(C2C35)C14

> <MDLNUMBER>
MFCD34167909

> <IUPAC Name>
tert-butyl pentacyclo[5.4.0.0^{2,6}.0^{3,10}.0^{5,9}]undecane-8-carboxylate

> <CAS>
2648938-88-7

> <Purity>
95

> <URL>
https://www.enaminestore.com/catalog/EN300-27701177

> <ROCS_ShapeQuery>
__x1247relevant_x1083L0AP1_x1305L0BP1_

> <ROCS_TanimotoCombo>
0.776 

> <ROCS_ShapeTanimoto>
0.552 

> <ROCS_ColorTanimoto>
0.224 

> <ROCS_RefTversky>
0.472 

> <ROCS_RefColorTversky>
0.623 

> <ROCS_RefTverskyCombo>
1.095 

> <ROCS_FitTversky>
1.438 

> <ROCS_FitColorTversky>
0.259 

> <ROCS_FitTverskyCombo>
1.697 

> <ROCS_ColorScore>
-22.868

> <ROCS_Overlap>
1395.704

> <ROCS_Rank>
13                  

$$$$
untitled-dbase-16773_2
  -OEChem-06232314393D

 28 32  0     1  0  0  0  0  0999 V2000
  -10.0136   14.9607  -36.5262 C   0  0  0  0  0  0  0  0  0  0  0  0
  -13.3951   13.5126  -38.6706 C   0  0  0  0  0  0  0  0  0  0  0  0
  -12.2056   16.6866  -39.9850 C   0  0  0  0  0  0  0  0  0  0  0  0
  -11.2190   14.4574  -37.2586 C   0  0  2  0  0  0  0  0  0  0  0  0
  -12.4216   14.3118  -39.5420 C   0  0  1  0  0  0  0  0  0  0  0  0
  -13.2420   15.5973  -39.8049 C   0  0  1  0  0  0  0  0  0  0  0  0
  -13.7684   14.5486  -37.6064 C   0  0  1  0  0  0  0  0  0  0  0  0
  -11.4972   16.3822  -38.6800 C   0  0  2  0  0  0  0  0  0  0  0  0
  -11.1833   14.8640  -38.7402 C   0  0  1  0  0  0  0  0  0  0  0  0
  -12.5377   15.0979  -36.8115 C   0  0  2  0  0  0  0  0  0  0  0  0
  -13.8333   15.8695  -38.4028 C   0  0  1  0  0  0  0  0  0  0  0  0
  -12.6219   16.4130  -37.6222 C   0  0  2  0  0  0  0  0  0  0  0  0
   -9.0898   15.5777  -37.0356 O   0  0  0  0  0  0  0  0  0  0  0  0
  -10.0818   14.6362  -35.2119 O   0  0  0  0  0  0  0  0  0  0  0  0
  -14.2802   13.2153  -39.2456 H   0  0  0  0  0  0  0  0  0  0  0  0
  -12.9537   12.6074  -38.2447 H   0  0  0  0  0  0  0  0  0  0  0  0
  -11.5721   16.5376  -40.8643 H   0  0  0  0  0  0  0  0  0  0  0  0
  -12.6474   17.6879  -39.9975 H   0  0  0  0  0  0  0  0  0  0  0  0
  -11.2238   13.3702  -37.1299 H   0  0  0  0  0  0  0  0  0  0  0  0
  -12.1169   13.7982  -40.4578 H   0  0  0  0  0  0  0  0  0  0  0  0
  -13.9950   15.5043  -40.5904 H   0  0  0  0  0  0  0  0  0  0  0  0
  -14.6444   14.3178  -36.9949 H   0  0  0  0  0  0  0  0  0  0  0  0
  -10.6431   17.0182  -38.4376 H   0  0  0  0  0  0  0  0  0  0  0  0
  -10.2395   14.6506  -39.2508 H   0  0  0  0  0  0  0  0  0  0  0  0
  -12.7011   15.1889  -35.7341 H   0  0  0  0  0  0  0  0  0  0  0  0
  -14.7504   16.4581  -38.3392 H   0  0  0  0  0  0  0  0  0  0  0  0
  -12.7821   17.3410  -37.0702 H   0  0  0  0  0  0  0  0  0  0  0  0
  -10.9014   14.1410  -34.9989 H   0  0  0  0  0  0  0  0  0  0  0  0
  1  4  1  0  0  0  0
  1 13  2  0  0  0  0
  1 14  1  0  0  0  0
  2  5  1  0  0  0  0
  2  7  1  0  0  0  0
  3  6  1  0  0  0  0
  3  8  1  0  0  0  0
  4  9  1  0  0  0  0
  4 10  1  0  0  0  0
  5  6  1  0  0  0  0
  5  9  1  0  0  0  0
  6 11  1  0  0  0  0
  7 10  1  0  0  0  0
  7 11  1  0  0  0  0
  8  9  1  0  0  0  0
  8 12  1  0  0  0  0
 10 12  1  0  0  0  0
 11 12  1  0  0  0  0
  2 15  1  0  0  0  0
  2 16  1  0  0  0  0
  3 17  1  0  0  0  0
  3 18  1  0  0  0  0
  4 19  1  0  0  0  0
  5 20  1  0  0  0  0
  6 21  1  0  0  0  0
  7 22  1  0  0  0  0
  8 23  1  0  0  0  0
  9 24  1  0  0  0  0
 10 25  1  0  0  0  0
 11 26  1  0  0  0  0
 12 27  1  0  0  0  0
 14 28  1  0  0  0  0
M  END
> <id>
EN300-187675

> <smiles>
OC(=O)C1C2C3CC4C5CC(C2C35)C14

> <MDLNUMBER>
MFCD20264555

> <IUPAC Name>
pentacyclo[5.4.0.0^{2,6}.0^{3,10}.0^{5,9}]undecane-8-carboxylic acid

> <CAS>
1803561-83-2

> <Purity>
95

> <URL>
https://www.enaminestore.com/catalog/EN300-187675

> <ROCS_ShapeQuery>
__x1247relevant_x1083L0AP1_x1305L0BP1_

> <ROCS_TanimotoCombo>
0.775 

> <ROCS_ShapeTanimoto>
0.546 

> <ROCS_ColorTanimoto>
0.230 

> <ROCS_RefTversky>
0.449 

> <ROCS_RefColorTversky>
0.640 

> <ROCS_RefTverskyCombo>
1.089 

> <ROCS_FitTversky>
1.645 

> <ROCS_FitColorTversky>
0.264 

> <ROCS_FitTverskyCombo>
1.909 

> <ROCS_ColorScore>
-23.525

> <ROCS_Overlap>
1323.641

> <ROCS_Rank>
14                  

$$$$
untitled-dbase-147864_0
  -OEChem-06232314393D

 30 32  0     1  0  0  0  0  0999 V2000
  -10.1043   15.2683  -36.4117 C   0  0  0  0  0  0  0  0  0  0  0  0
  -14.1994   14.6323  -38.2915 C   0  0  0  0  0  0  0  0  0  0  0  0
  -13.0631   16.4802  -39.5844 C   0  0  0  0  0  0  0  0  0  0  0  0
  -12.0642   14.3616  -39.6418 C   0  0  0  0  0  0  0  0  0  0  0  0
  -12.8961   16.4473  -37.1246 C   0  0  0  0  0  0  0  0  0  0  0  0
  -12.3114   14.0559  -36.6354 C   0  0  0  0  0  0  0  0  0  0  0  0
  -13.4471   15.0042  -39.5920 C   0  0  1  0  0  0  0  0  0  0  0  0
  -13.4624   15.0322  -36.9819 C   0  0  2  0  0  0  0  0  0  0  0  0
  -12.0683   16.5017  -38.4214 C   0  0  1  0  0  0  0  0  0  0  0  0
  -11.2255   15.1923  -38.6373 C   0  0  1  0  0  0  0  0  0  0  0  0
  -10.9857   14.4202  -37.3294 C   0  0  1  0  0  0  0  0  0  0  0  0
  -10.1609   13.2250  -37.5069 N   0  0  0  0  0  0  0  0  0  0  0  0
   -8.9932   15.6144  -36.9004 O   0  5  0  0  0  0  0  0  0  0  0  0
  -10.6031   15.5147  -35.2778 O   0  0  0  0  0  0  0  0  0  0  0  0
  -15.1682   15.1490  -38.3056 H   0  0  0  0  0  0  0  0  0  0  0  0
  -14.4215   13.5586  -38.2845 H   0  0  0  0  0  0  0  0  0  0  0  0
  -12.5719   16.7664  -40.5225 H   0  0  0  0  0  0  0  0  0  0  0  0
  -13.9223   17.1423  -39.4373 H   0  0  0  0  0  0  0  0  0  0  0  0
  -12.1003   13.2888  -39.4338 H   0  0  0  0  0  0  0  0  0  0  0  0
  -11.6383   14.4782  -40.6469 H   0  0  0  0  0  0  0  0  0  0  0  0
  -13.7097   17.1828  -37.1551 H   0  0  0  0  0  0  0  0  0  0  0  0
  -12.2858   16.7119  -36.2543 H   0  0  0  0  0  0  0  0  0  0  0  0
  -12.1755   14.0552  -35.5456 H   0  0  0  0  0  0  0  0  0  0  0  0
  -12.6274   13.0359  -36.8910 H   0  0  0  0  0  0  0  0  0  0  0  0
  -14.0475   14.7409  -40.4683 H   0  0  0  0  0  0  0  0  0  0  0  0
  -14.1886   15.0004  -36.1604 H   0  0  0  0  0  0  0  0  0  0  0  0
  -11.4465   17.4023  -38.4401 H   0  0  0  0  0  0  0  0  0  0  0  0
  -10.2701   15.4565  -39.1106 H   0  0  0  0  0  0  0  0  0  0  0  0
   -9.3027   13.5014  -37.9198 H   0  0  0  0  0  0  0  0  0  0  0  0
  -10.0088   12.8210  -36.6141 H   0  0  0  0  0  0  0  0  0  0  0  0
  1 11  1  0  0  0  0
  1 13  1  0  0  0  0
  1 14  2  0  0  0  0
  2  7  1  0  0  0  0
  2  8  1  0  0  0  0
  3  7  1  0  0  0  0
  3  9  1  0  0  0  0
  4  7  1  0  0  0  0
  4 10  1  0  0  0  0
  5  8  1  0  0  0  0
  5  9  1  0  0  0  0
  6  8  1  0  0  0  0
  6 11  1  0  0  0  0
  9 10  1  0  0  0  0
 10 11  1  0  0  0  0
 11 12  1  0  0  0  0
  2 15  1  0  0  0  0
  2 16  1  0  0  0  0
  3 17  1  0  0  0  0
  3 18  1  0  0  0  0
  4 19  1  0  0  0  0
  4 20  1  0  0  0  0
  5 21  1  0  0  0  0
  5 22  1  0  0  0  0
  6 23  1  0  0  0  0
  6 24  1  0  0  0  0
  7 25  1  0  0  0  0
  8 26  1  0  0  0  0
  9 27  1  0  0  0  0
 10 28  1  0  0  0  0
 12 29  1  0  0  0  0
 12 30  1  0  0  0  0
M  CHG  1  13  -1
M  END
> <id>
EN300-27777693

> <smiles>
[K+].NC1(CC2CC3CC(C2)C1C3)C(=O)[O-]

> <MDLNUMBER>
MFCD33549569

> <IUPAC Name>
potassium 4-aminotricyclo[4.3.1.0,3,8]decane-4-carboxylate

> <CAS>
2639426-25-6

> <Purity>
95

> <URL>
https://www.enaminestore.com/catalog/EN300-27777693

> <Saltdate>
[K+]

> <ROCS_ShapeQuery>
__x1247relevant_x1083L0AP1_x1305L0BP1_

> <ROCS_TanimotoCombo>
0.772 

> <ROCS_ShapeTanimoto>
0.507 

> <ROCS_ColorTanimoto>
0.266 

> <ROCS_RefTversky>
0.423 

> <ROCS_RefColorTversky>
0.321 

> <ROCS_RefTverskyCombo>
0.745 

> <ROCS_FitTversky>
1.640 

> <ROCS_FitColorTversky>
0.604 

> <ROCS_FitTverskyCombo>
2.244 

> <ROCS_ColorScore>
-10.607

> <ROCS_Overlap>
1245.224

> <ROCS_Rank>
15                  

$$$$
untitled-dbase-121167_0
  -OEChem-06232314393D

 27 32  0     1  0  0  0  0  0999 V2000
  -10.0665   15.1502  -36.5599 C   0  0  0  0  0  0  0  0  0  0  0  0
  -14.0414   13.3573  -38.3705 C   0  0  0  0  0  0  0  0  0  0  0  0
  -13.7374   14.4417  -39.4007 C   0  0  1  0  0  0  0  0  0  0  0  0
  -13.0698   13.9004  -37.3256 C   0  0  2  0  0  0  0  0  0  0  0  0
  -13.9613   15.7438  -38.6108 C   0  0  1  0  0  0  0  0  0  0  0  0
  -13.5004   15.3702  -37.1786 C   0  0  2  0  0  0  0  0  0  0  0  0
  -12.2085   14.3938  -39.5284 C   0  0  2  0  0  0  0  0  0  0  0  0
  -12.7084   16.6163  -38.7822 C   0  0  1  0  0  0  0  0  0  0  0  0
  -11.7456   14.0197  -38.0975 C   0  0  1  0  0  0  0  0  0  0  0  0
  -12.2487   16.2458  -37.3544 C   0  0  2  0  0  0  0  0  0  0  0  0
  -11.7155   15.8352  -39.6449 C   0  0  1  0  0  0  0  0  0  0  0  0
  -11.0684   15.3159  -37.6467 C   0  0  1  0  0  0  0  0  0  0  0  0
  -10.3040   14.6989  -35.4493 O   0  0  0  0  0  0  0  0  0  0  0  0
  -10.5141   15.8279  -38.8601 O   0  0  0  0  0  0  0  0  0  0  0  0
   -8.8445   15.5723  -36.9669 O   0  0  0  0  0  0  0  0  0  0  0  0
  -15.0810   13.3855  -38.0282 H   0  0  0  0  0  0  0  0  0  0  0  0
  -13.7814   12.3521  -38.7159 H   0  0  0  0  0  0  0  0  0  0  0  0
  -14.2806   14.3947  -40.3459 H   0  0  0  0  0  0  0  0  0  0  0  0
  -13.0043   13.3584  -36.3808 H   0  0  0  0  0  0  0  0  0  0  0  0
  -14.9343   16.2333  -38.6835 H   0  0  0  0  0  0  0  0  0  0  0  0
  -14.1916   15.6286  -36.3742 H   0  0  0  0  0  0  0  0  0  0  0  0
  -11.8146   13.7016  -40.2766 H   0  0  0  0  0  0  0  0  0  0  0  0
  -12.8486   17.6807  -38.9769 H   0  0  0  0  0  0  0  0  0  0  0  0
  -11.1233   13.1207  -38.0844 H   0  0  0  0  0  0  0  0  0  0  0  0
  -12.1146   17.0870  -36.6717 H   0  0  0  0  0  0  0  0  0  0  0  0
  -11.5828   16.2143  -40.6599 H   0  0  0  0  0  0  0  0  0  0  0  0
   -8.8592   15.8999  -37.8914 H   0  0  0  0  0  0  0  0  0  0  0  0
  1 12  1  0  0  0  0
  1 13  2  0  0  0  0
  1 15  1  0  0  0  0
  2  3  1  0  0  0  0
  2  4  1  0  0  0  0
  3  5  1  0  0  0  0
  3  7  1  0  0  0  0
  4  6  1  0  0  0  0
  4  9  1  0  0  0  0
  5  6  1  0  0  0  0
  5  8  1  0  0  0  0
  6 10  1  0  0  0  0
  7  9  1  0  0  0  0
  7 11  1  0  0  0  0
  8 10  1  0  0  0  0
  8 11  1  0  0  0  0
  9 12  1  0  0  0  0
 10 12  1  0  0  0  0
 11 14  1  0  0  0  0
 12 14  1  0  0  0  0
  2 16  1  0  0  0  0
  2 17  1  0  0  0  0
  3 18  1  0  0  0  0
  4 19  1  0  0  0  0
  5 20  1  0  0  0  0
  6 21  1  0  0  0  0
  7 22  1  0  0  0  0
  8 23  1  0  0  0  0
  9 24  1  0  0  0  0
 10 25  1  0  0  0  0
 11 26  1  0  0  0  0
 15 27  1  0  0  0  0
M  END
> <id>
EN300-9424653

> <smiles>
OC(=O)C1(OC2C3C4C5C31)C6C5CC4C26

> <MDLNUMBER>
MFCD24490434

> <IUPAC Name>
5-oxahexacyclo[5.4.1.0^{2,6}.0^{3,10}.0^{4,8}.0^{9,12}]dodecane-4-carboxylic acid

> <CAS>
151535-91-0

> <Purity>
95

> <URL>
https://www.enaminestore.com/catalog/EN300-9424653

> <ROCS_ShapeQuery>
__x1247relevant_x1083L0AP1_x1305L0BP1_

> <ROCS_TanimotoCombo>
0.771 

> <ROCS_ShapeTanimoto>
0.561 

> <ROCS_ColorTanimoto>
0.210 

> <ROCS_RefTversky>
0.468 

> <ROCS_RefColorTversky>
0.699 

> <ROCS_RefTverskyCombo>
1.166 

> <ROCS_FitTversky>
1.555 

> <ROCS_FitColorTversky>
0.231 

> <ROCS_FitTverskyCombo>
1.786 

> <ROCS_ColorScore>
-26.654

> <ROCS_Overlap>
1379.647

> <ROCS_Rank>
16                  

$$$$
untitled-dbase-155460_25
  -OEChem-06232314393D

 24 25  0     1  0  0  0  0  0999 V2000
  -13.2382   16.4333  -40.2211 C   0  0  0  0  0  0  0  0  0  0  0  0
  -10.1828   14.7055  -36.6887 C   0  0  0  0  0  0  0  0  0  0  0  0
  -13.3207   16.1396  -37.6900 C   0  0  0  0  0  0  0  0  0  0  0  0
  -11.3182   15.5202  -38.8263 C   0  0  0  0  0  0  0  0  0  0  0  0
  -13.3189   13.8142  -37.7072 C   0  0  0  0  0  0  0  0  0  0  0  0
  -12.6701   14.9790  -36.9576 C   0  0  1  0  0  0  0  0  0  0  0  0
  -12.8334   15.6230  -39.0382 C   0  0  2  0  0  0  0  0  0  0  0  0
   -9.0370   14.1216  -37.4747 C   0  0  0  0  0  0  0  0  0  0  0  0
  -11.2845   15.0626  -37.4351 N   0  0  0  0  0  0  0  0  0  0  0  0
  -12.4661   16.9718  -41.0005 O   0  0  0  0  0  0  0  0  0  0  0  0
  -10.1026   14.8368  -35.4669 O   0  0  0  0  0  0  0  0  0  0  0  0
  -13.3586   14.2830  -39.0850 O   0  0  0  0  0  0  0  0  0  0  0  0
  -14.5887   16.4973  -40.3181 O   0  0  0  0  0  0  0  0  0  0  0  0
   -9.3399   14.0695  -38.7843 F   0  0  0  0  0  0  0  0  0  0  0  0
   -7.9298   14.8714  -37.3279 F   0  0  0  0  0  0  0  0  0  0  0  0
   -8.7587   12.8736  -37.0567 F   0  0  0  0  0  0  0  0  0  0  0  0
  -14.4123   16.1443  -37.5958 H   0  0  0  0  0  0  0  0  0  0  0  0
  -12.9212   17.1225  -37.4187 H   0  0  0  0  0  0  0  0  0  0  0  0
  -10.8403   14.7731  -39.4672 H   0  0  0  0  0  0  0  0  0  0  0  0
  -10.7972   16.4796  -38.9037 H   0  0  0  0  0  0  0  0  0  0  0  0
  -12.7494   12.8815  -37.6529 H   0  0  0  0  0  0  0  0  0  0  0  0
  -14.3486   13.6335  -37.3822 H   0  0  0  0  0  0  0  0  0  0  0  0
  -12.7570   14.9455  -35.8707 H   0  0  0  0  0  0  0  0  0  0  0  0
  -15.0317   16.0001  -39.5978 H   0  0  0  0  0  0  0  0  0  0  0  0
  1  7  1  1  0  0  0
  1 10  2  0  0  0  0
  1 13  1  0  0  0  0
  2  8  1  0  0  0  0
  2  9  1  0  0  0  0
  2 11  2  0  0  0  0
  3  6  1  0  0  0  0
  3  7  1  0  0  0  0
  4  7  1  0  0  0  0
  4  9  1  0  0  0  0
  5  6  1  6  0  0  0
  5 12  1  0  0  0  0
  6  9  1  0  0  0  0
  7 12  1  0  0  0  0
  8 14  1  0  0  0  0
  8 15  1  0  0  0  0
  8 16  1  0  0  0  0
  3 17  1  0  0  0  0
  3 18  1  0  0  0  0
  4 19  1  0  0  0  0
  4 20  1  0  0  0  0
  5 21  1  0  0  0  0
  5 22  1  0  0  0  0
  6 23  1  0  0  0  0
 13 24  1  0  0  0  0
M  END
> <id>
EN300-28276565

> <smiles>
OC(=O)[C@]1(C[C@H]2CO1)CN2C(=O)C(F)(F)F

> <IUPAC Name>
(1S,4S)-5-(2,2,2-trifluoroacetyl)-2-oxa-5-azabicyclo[2.2.1]heptane-1-carboxylic acid

> <CAS>
2679832-28-9

> <URL>
https://www.enaminestore.com/catalog/EN300-28276565

> <ROCS_ShapeQuery>
__x1247relevant_x1083L0AP1_x1305L0BP1_

> <ROCS_TanimotoCombo>
0.769 

> <ROCS_ShapeTanimoto>
0.533 

> <ROCS_ColorTanimoto>
0.236 

> <ROCS_RefTversky>
0.450 

> <ROCS_RefColorTversky>
0.264 

> <ROCS_RefTverskyCombo>
0.714 

> <ROCS_FitTversky>
1.530 

> <ROCS_FitColorTversky>
0.688 

> <ROCS_FitTverskyCombo>
2.218 

> <ROCS_ColorScore>
-8.648

> <ROCS_Overlap>
1327.227

> <ROCS_Rank>
17                  

$$$$
untitled-dbase-142996_83
  -OEChem-06232314393D

 34 35  0     1  0  0  0  0  0999 V2000
  -10.4892   14.6483  -36.4582 C   0  0  0  0  0  0  0  0  0  0  0  0
  -11.7787   16.3404  -38.7467 C   0  0  0  0  0  0  0  0  0  0  0  0
  -13.8710   15.9687  -37.6954 C   0  0  0  0  0  0  0  0  0  0  0  0
  -11.8524   14.6573  -37.0722 C   0  0  1  0  0  0  0  0  0  0  0  0
  -12.3685   16.0723  -37.3645 C   0  0  1  0  0  0  0  0  0  0  0  0
  -12.3511   15.0524  -39.3250 C   0  0  2  0  0  0  0  0  0  0  0  0
  -13.8555   15.1889  -39.0227 C   0  0  2  0  0  0  0  0  0  0  0  0
   -7.6974   14.6035  -35.9099 C   0  0  0  0  0  0  0  0  0  0  0  0
   -7.4050   15.3361  -38.2946 C   0  0  0  0  0  0  0  0  0  0  0  0
   -8.6397   16.8078  -36.6767 C   0  0  0  0  0  0  0  0  0  0  0  0
   -8.3244   15.3669  -37.0756 C   0  0  0  0  0  0  0  0  0  0  0  0
  -11.7799   14.0326  -38.4135 N   0  0  0  0  0  0  0  0  0  0  0  0
  -10.2804   14.5879  -35.2541 O   0  0  0  0  0  0  0  0  0  0  0  0
  -14.5007   15.9498  -40.0339 O   0  0  0  0  0  0  0  0  0  0  0  0
   -9.5463   14.7174  -37.4407 O   0  0  0  0  0  0  0  0  0  0  0  0
  -12.1768   17.2457  -39.2176 H   0  0  0  0  0  0  0  0  0  0  0  0
  -10.6843   16.3797  -38.7618 H   0  0  0  0  0  0  0  0  0  0  0  0
  -14.4214   15.4328  -36.9153 H   0  0  0  0  0  0  0  0  0  0  0  0
  -14.3178   16.9623  -37.8130 H   0  0  0  0  0  0  0  0  0  0  0  0
  -12.5216   14.0893  -36.4176 H   0  0  0  0  0  0  0  0  0  0  0  0
  -12.1268   16.8207  -36.6069 H   0  0  0  0  0  0  0  0  0  0  0  0
  -12.1122   14.8812  -40.3775 H   0  0  0  0  0  0  0  0  0  0  0  0
  -14.3654   14.2230  -38.9389 H   0  0  0  0  0  0  0  0  0  0  0  0
   -8.3543   14.6233  -35.0329 H   0  0  0  0  0  0  0  0  0  0  0  0
   -7.4986   13.5592  -36.1719 H   0  0  0  0  0  0  0  0  0  0  0  0
   -6.7544   15.0683  -35.6002 H   0  0  0  0  0  0  0  0  0  0  0  0
   -7.8509   15.8826  -39.1335 H   0  0  0  0  0  0  0  0  0  0  0  0
   -7.2522   14.3080  -38.6424 H   0  0  0  0  0  0  0  0  0  0  0  0
   -6.4272   15.7765  -38.0744 H   0  0  0  0  0  0  0  0  0  0  0  0
   -9.0894   17.3555  -37.5127 H   0  0  0  0  0  0  0  0  0  0  0  0
   -9.3279   16.8494  -35.8262 H   0  0  0  0  0  0  0  0  0  0  0  0
   -7.7238   17.3476  -36.4103 H   0  0  0  0  0  0  0  0  0  0  0  0
  -10.8049   13.8795  -38.6731 H   0  0  0  0  0  0  0  0  0  0  0  0
  -14.4668   15.4213  -40.8479 H   0  0  0  0  0  0  0  0  0  0  0  0
  1  4  1  1  0  0  0
  1 13  2  0  0  0  0
  1 15  1  0  0  0  0
  2  5  1  0  0  0  0
  2  6  1  0  0  0  0
  3  5  1  6  0  0  0
  3  7  1  0  0  0  0
  4  5  1  0  0  0  0
  4 12  1  0  0  0  0
  6  7  1  0  0  0  0
  6 12  1  6  0  0  0
  7 14  1  1  0  0  0
  8 11  1  0  0  0  0
  9 11  1  0  0  0  0
 10 11  1  0  0  0  0
 11 15  1  0  0  0  0
  2 16  1  0  0  0  0
  2 17  1  0  0  0  0
  3 18  1  0  0  0  0
  3 19  1  0  0  0  0
  4 20  1  0  0  0  0
  5 21  1  0  0  0  0
  6 22  1  0  0  0  0
  7 23  1  0  0  0  0
  8 24  1  0  0  0  0
  8 25  1  0  0  0  0
  8 26  1  0  0  0  0
  9 27  1  0  0  0  0
  9 28  1  0  0  0  0
  9 29  1  0  0  0  0
 10 30  1  0  0  0  0
 10 31  1  0  0  0  0
 10 32  1  0  0  0  0
 12 33  1  0  0  0  0
 14 34  1  0  0  0  0
M  END
> <id>
EN300-27727968

> <smiles>
CC(C)(C)OC(=O)[C@@H]1N[C@@H]2C[C@H]1C[C@H]2O |&1:7,9,11,13,r|

> <IUPAC Name>
rac-tert-butyl (1R,3R,4S,6R)-6-hydroxy-2-azabicyclo[2.2.1]heptane-3-carboxylate

> <CAS>
2580102-01-6

> <URL>
https://www.enaminestore.com/catalog/EN300-27727968

> <ROCS_ShapeQuery>
__x1247relevant_x1083L0AP1_x1305L0BP1_

> <ROCS_TanimotoCombo>
0.768 

> <ROCS_ShapeTanimoto>
0.475 

> <ROCS_ColorTanimoto>
0.293 

> <ROCS_RefTversky>
0.408 

> <ROCS_RefColorTversky>
0.320 

> <ROCS_RefTverskyCombo>
0.728 

> <ROCS_FitTversky>
1.528 

> <ROCS_FitColorTversky>
0.779 

> <ROCS_FitTverskyCombo>
2.307 

> <ROCS_ColorScore>
-10.472

> <ROCS_Overlap>
1202.206

> <ROCS_Rank>
18                  

$$$$
untitled-dbase-102978_44
  -OEChem-06232314393D

 26 27  0     1  0  0  0  0  0999 V2000
  -10.1802   14.9072  -36.6239 C   0  0  0  0  0  0  0  0  0  0  0  0
  -12.7777   16.4218  -37.6115 C   0  0  0  0  0  0  0  0  0  0  0  0
  -11.1350   14.6735  -37.7594 C   0  0  2  0  0  0  0  0  0  0  0  0
  -11.5358   16.0145  -38.4154 C   0  0  1  0  0  0  0  0  0  0  0  0
  -13.5065   15.1049  -37.8923 C   0  0  2  0  0  0  0  0  0  0  0  0
  -12.5008   14.0541  -37.3591 C   0  0  2  0  0  0  0  0  0  0  0  0
  -12.1483   15.7151  -39.8000 C   0  0  1  0  0  0  0  0  0  0  0  0
  -13.5018   15.0681  -39.4388 C   0  0  2  0  0  0  0  0  0  0  0  0
  -12.6689   13.8597  -35.9218 N   0  0  0  0  0  0  0  0  0  0  0  0
  -10.3909   14.6103  -35.4573 O   0  0  0  0  0  0  0  0  0  0  0  0
   -9.0443   15.4989  -37.0676 O   0  0  0  0  0  0  0  0  0  0  0  0
  -12.2982   16.9263  -40.5239 O   0  0  0  0  0  0  0  0  0  0  0  0
  -14.6064   15.8076  -39.9350 O   0  0  0  0  0  0  0  0  0  0  0  0
  -12.5747   16.5936  -36.5498 H   0  0  0  0  0  0  0  0  0  0  0  0
  -13.2916   17.2976  -38.0213 H   0  0  0  0  0  0  0  0  0  0  0  0
  -10.6136   14.0183  -38.4675 H   0  0  0  0  0  0  0  0  0  0  0  0
  -10.7549   16.7796  -38.4282 H   0  0  0  0  0  0  0  0  0  0  0  0
  -14.5089   15.0472  -37.4586 H   0  0  0  0  0  0  0  0  0  0  0  0
  -12.6471   13.0907  -37.8610 H   0  0  0  0  0  0  0  0  0  0  0  0
  -11.5116   15.0390  -40.3805 H   0  0  0  0  0  0  0  0  0  0  0  0
  -13.5766   14.0401  -39.8091 H   0  0  0  0  0  0  0  0  0  0  0  0
  -13.5867   13.5183  -35.7595 H   0  0  0  0  0  0  0  0  0  0  0  0
  -11.9911   13.2020  -35.6162 H   0  0  0  0  0  0  0  0  0  0  0  0
   -8.4075   15.6619  -36.3394 H   0  0  0  0  0  0  0  0  0  0  0  0
  -12.6846   16.6949  -41.3847 H   0  0  0  0  0  0  0  0  0  0  0  0
  -14.5042   16.7185  -39.6130 H   0  0  0  0  0  0  0  0  0  0  0  0
  1  3  1  1  0  0  0
  1 10  2  0  0  0  0
  1 11  1  0  0  0  0
  2  4  1  1  0  0  0
  2  5  1  1  0  0  0
  3  4  1  0  0  0  0
  3  6  1  0  0  0  0
  4  7  1  0  0  0  0
  5  6  1  0  0  0  0
  5  8  1  0  0  0  0
  6  9  1  1  0  0  0
  7  8  1  0  0  0  0
  7 12  1  1  0  0  0
  8 13  1  1  0  0  0
  2 14  1  0  0  0  0
  2 15  1  0  0  0  0
  3 16  1  0  0  0  0
  4 17  1  0  0  0  0
  5 18  1  0  0  0  0
  6 19  1  0  0  0  0
  7 20  1  0  0  0  0
  8 21  1  0  0  0  0
  9 22  1  0  0  0  0
  9 23  1  0  0  0  0
 11 24  1  0  0  0  0
 12 25  1  0  0  0  0
 13 26  1  0  0  0  0
M  END
> <id>
EN300-26978993

> <smiles>
N[C@@H]1[C@@H]([C@@H]2C[C@H]1[C@@H](O)[C@H]2O)C(=O)O |&1:1,2,3,5,6,8,r|

> <IUPAC Name>
rac-(1R,2S,3R,4S,5S,6R)-3-amino-5,6-dihydroxybicyclo[2.2.1]heptane-2-carboxylic acid

> <CAS>
2490344-54-0

> <Purity>
95

> <URL>
https://www.enaminestore.com/catalog/EN300-26978993

> <ROCS_ShapeQuery>
__x1247relevant_x1083L0AP1_x1305L0BP1_

> <ROCS_TanimotoCombo>
0.768 

> <ROCS_ShapeTanimoto>
0.511 

> <ROCS_ColorTanimoto>
0.258 

> <ROCS_RefTversky>
0.419 

> <ROCS_RefColorTversky>
0.306 

> <ROCS_RefTverskyCombo>
0.725 

> <ROCS_FitTversky>
1.751 

> <ROCS_FitColorTversky>
0.620 

> <ROCS_FitTverskyCombo>
2.371 

> <ROCS_ColorScore>
-10.073

> <ROCS_Overlap>
1231.575

> <ROCS_Rank>
19                  

$$$$
untitled-dbase-149714_3
  -OEChem-06232314393D

 25 27  0     1  0  0  0  0  0999 V2000
  -11.9257   13.8640  -37.7455 C   0  0  0  0  0  0  0  0  0  0  0  0
  -10.0823   15.2209  -36.6419 C   0  0  0  0  0  0  0  0  0  0  0  0
  -13.0477   14.4546  -39.7677 C   0  0  0  0  0  0  0  0  0  0  0  0
  -13.6720   16.4682  -38.7502 C   0  0  0  0  0  0  0  0  0  0  0  0
  -11.2066   15.9377  -38.8092 C   0  0  0  0  0  0  0  0  0  0  0  0
  -12.5524   15.7429  -36.6568 C   0  0  0  0  0  0  0  0  0  0  0  0
  -13.3127   14.0840  -38.3060 C   0  0  2  0  0  0  0  0  0  0  0  0
  -12.5462   15.9040  -39.6169 C   0  0  1  0  0  0  0  0  0  0  0  0
  -13.7139   15.4319  -37.6178 C   0  0  2  0  0  0  0  0  0  0  0  0
  -11.3431   15.2165  -37.4363 C   0  0  1  0  0  0  0  0  0  0  0  0
  -11.3633   12.7865  -37.6406 O   0  0  0  0  0  0  0  0  0  0  0  0
   -9.0185   15.6914  -37.0164 O   0  0  0  0  0  0  0  0  0  0  0  0
  -10.2724   14.6261  -35.4388 O   0  0  0  0  0  0  0  0  0  0  0  0
  -12.3062   13.8121  -40.2549 H   0  0  0  0  0  0  0  0  0  0  0  0
  -13.9751   14.4199  -40.3514 H   0  0  0  0  0  0  0  0  0  0  0  0
  -13.4719   17.4861  -38.4003 H   0  0  0  0  0  0  0  0  0  0  0  0
  -14.6214   16.4783  -39.2992 H   0  0  0  0  0  0  0  0  0  0  0  0
  -10.4182   15.4607  -39.4054 H   0  0  0  0  0  0  0  0  0  0  0  0
  -10.9045   16.9807  -38.6504 H   0  0  0  0  0  0  0  0  0  0  0  0
  -12.4686   16.8090  -36.4187 H   0  0  0  0  0  0  0  0  0  0  0  0
  -12.6863   15.2022  -35.7100 H   0  0  0  0  0  0  0  0  0  0  0  0
  -13.9826   13.2441  -38.1225 H   0  0  0  0  0  0  0  0  0  0  0  0
  -12.4499   16.4177  -40.5771 H   0  0  0  0  0  0  0  0  0  0  0  0
  -14.6835   15.4065  -37.1141 H   0  0  0  0  0  0  0  0  0  0  0  0
   -9.4522   14.6173  -34.9008 H   0  0  0  0  0  0  0  0  0  0  0  0
  1  7  1  0  0  0  0
  1 10  1  0  0  0  0
  1 11  2  0  0  0  0
  2 10  1  0  0  0  0
  2 12  2  0  0  0  0
  2 13  1  0  0  0  0
  3  7  1  0  0  0  0
  3  8  1  0  0  0  0
  4  8  1  0  0  0  0
  4  9  1  0  0  0  0
  5  8  1  0  0  0  0
  5 10  1  0  0  0  0
  6  9  1  0  0  0  0
  6 10  1  0  0  0  0
  7  9  1  0  0  0  0
  3 14  1  0  0  0  0
  3 15  1  0  0  0  0
  4 16  1  0  0  0  0
  4 17  1  0  0  0  0
  5 18  1  0  0  0  0
  5 19  1  0  0  0  0
  6 20  1  0  0  0  0
  6 21  1  0  0  0  0
  7 22  1  0  0  0  0
  8 23  1  0  0  0  0
  9 24  1  0  0  0  0
 13 25  1  0  0  0  0
M  END
> <id>
EN300-27750833

> <smiles>
OC(=O)C1(CC2CC3CC2C1=O)C3

> <MDLNUMBER>
MFCD33550595

> <IUPAC Name>
2-oxotricyclo[3.3.1.0,3,7]nonane-1-carboxylic acid

> <CAS>
2649069-74-7

> <Purity>
95

> <URL>
https://www.enaminestore.com/catalog/EN300-27750833

> <ROCS_ShapeQuery>
__x1247relevant_x1083L0AP1_x1305L0BP1_

> <ROCS_TanimotoCombo>
0.768 

> <ROCS_ShapeTanimoto>
0.498 

> <ROCS_ColorTanimoto>
0.270 

> <ROCS_RefTversky>
0.415 

> <ROCS_RefColorTversky>
0.374 

> <ROCS_RefTverskyCombo>
0.789 

> <ROCS_FitTversky>
1.673 

> <ROCS_FitColorTversky>
0.492 

> <ROCS_FitTverskyCombo>
2.165 

> <ROCS_ColorScore>
-12.487

> <ROCS_Overlap>
1220.035

> <ROCS_Rank>
20                  

$$$$
untitled-dbase-119032_3
  -OEChem-06232314393D

 28 30  0     1  0  0  0  0  0999 V2000
  -10.1267   14.8134  -37.2808 C   0  0  0  0  0  0  0  0  0  0  0  0
  -12.4639   13.8117  -37.5896 C   0  0  0  0  0  0  0  0  0  0  0  0
  -12.3599   16.0194  -36.9334 C   0  0  0  0  0  0  0  0  0  0  0  0
  -12.8091   14.4743  -39.7687 C   0  0  0  0  0  0  0  0  0  0  0  0
  -12.7060   16.6844  -39.1114 C   0  0  0  0  0  0  0  0  0  0  0  0
  -13.5567   14.4802  -38.4310 C   0  0  2  0  0  0  0  0  0  0  0  0
  -13.4847   16.0146  -37.9746 C   0  0  1  0  0  0  0  0  0  0  0  0
  -11.5279   15.0156  -37.7379 C   0  0  0  0  0  0  0  0  0  0  0  0
  -11.7619   15.4787  -39.2599 C   0  0  0  0  0  0  0  0  0  0  0  0
   -8.6712   13.2100  -36.3351 C   0  0  0  0  0  0  0  0  0  0  0  0
  -10.6354   15.6838  -40.1275 N   0  0  0  0  0  0  0  0  0  0  0  0
   -9.2585   15.6741  -37.3316 O   0  0  0  0  0  0  0  0  0  0  0  0
   -9.9797   13.5423  -36.8100 O   0  0  0  0  0  0  0  0  0  0  0  0
  -12.7758   13.6049  -36.5598 H   0  0  0  0  0  0  0  0  0  0  0  0
  -12.0611   12.8838  -38.0108 H   0  0  0  0  0  0  0  0  0  0  0  0
  -11.8680   16.9883  -36.7909 H   0  0  0  0  0  0  0  0  0  0  0  0
  -12.6787   15.6574  -35.9496 H   0  0  0  0  0  0  0  0  0  0  0  0
  -12.3907   13.5001  -40.0460 H   0  0  0  0  0  0  0  0  0  0  0  0
  -13.4166   14.8357  -40.6060 H   0  0  0  0  0  0  0  0  0  0  0  0
  -13.3208   16.8916  -39.9944 H   0  0  0  0  0  0  0  0  0  0  0  0
  -12.1981   17.6119  -38.8236 H   0  0  0  0  0  0  0  0  0  0  0  0
  -14.5372   14.0047  -38.4202 H   0  0  0  0  0  0  0  0  0  0  0  0
  -14.4205   16.4894  -37.6808 H   0  0  0  0  0  0  0  0  0  0  0  0
   -8.6624   12.1757  -35.9827 H   0  0  0  0  0  0  0  0  0  0  0  0
   -8.3953   13.8857  -35.5216 H   0  0  0  0  0  0  0  0  0  0  0  0
   -7.9572   13.3192  -37.1549 H   0  0  0  0  0  0  0  0  0  0  0  0
  -10.1548   14.8171  -40.2623 H   0  0  0  0  0  0  0  0  0  0  0  0
  -10.9529   16.0292  -41.0109 H   0  0  0  0  0  0  0  0  0  0  0  0
  1  8  1  0  0  0  0
  1 12  2  0  0  0  0
  1 13  1  0  0  0  0
  2  6  1  0  0  0  0
  2  8  1  0  0  0  0
  3  7  1  0  0  0  0
  3  8  1  0  0  0  0
  4  6  1  0  0  0  0
  4  9  1  0  0  0  0
  5  7  1  0  0  0  0
  5  9  1  0  0  0  0
  6  7  1  0  0  0  0
  8  9  1  0  0  0  0
  9 11  1  0  0  0  0
 10 13  1  0  0  0  0
  2 14  1  0  0  0  0
  2 15  1  0  0  0  0
  3 16  1  0  0  0  0
  3 17  1  0  0  0  0
  4 18  1  0  0  0  0
  4 19  1  0  0  0  0
  5 20  1  0  0  0  0
  5 21  1  0  0  0  0
  6 22  1  0  0  0  0
  7 23  1  0  0  0  0
 10 24  1  0  0  0  0
 10 25  1  0  0  0  0
 10 26  1  0  0  0  0
 11 27  1  0  0  0  0
 11 28  1  0  0  0  0
M  END
> <id>
EN300-26865948

> <smiles>
COC(=O)C12CC3CC2(N)CC3C1

> <IUPAC Name>
methyl 5-aminotricyclo[3.3.0.0,3,7]octane-1-carboxylate

> <CAS>
2445784-81-4

> <URL>
https://www.enaminestore.com/catalog/EN300-26865948

> <ROCS_ShapeQuery>
__x1247relevant_x1083L0AP1_x1305L0BP1_

> <ROCS_TanimotoCombo>
0.766 

> <ROCS_ShapeTanimoto>
0.504 

> <ROCS_ColorTanimoto>
0.262 

> <ROCS_RefTversky>
0.418 

> <ROCS_RefColorTversky>
0.369 

> <ROCS_RefTverskyCombo>
0.787 

> <ROCS_FitTversky>
1.689 

> <ROCS_FitColorTversky>
0.476 

> <ROCS_FitTverskyCombo>
2.165 

> <ROCS_ColorScore>
-12.347

> <ROCS_Overlap>
1229.512

> <ROCS_Rank>
21                  

$$$$
untitled-dbase-146011_3
  -OEChem-06232314393D

 23 25  0     1  0  0  0  0  0999 V2000
  -10.3685   14.8000  -36.8473 C   0  0  0  0  0  0  0  0  0  0  0  0
  -13.2681   14.2023  -39.1710 C   0  0  0  0  0  0  0  0  0  0  0  0
  -13.5620   16.3513  -38.0968 C   0  0  0  0  0  0  0  0  0  0  0  0
  -12.9451   15.7138  -39.3797 C   0  0  0  0  0  0  0  0  0  0  0  0
  -12.6706   14.1140  -37.7831 C   0  0  2  0  0  0  0  0  0  0  0  0
  -12.8516   15.4374  -37.1216 C   0  0  1  0  0  0  0  0  0  0  0  0
  -11.5204   15.0699  -37.7016 C   0  0  0  0  0  0  0  0  0  0  0  0
  -11.4325   15.7509  -39.0398 C   0  0  0  0  0  0  0  0  0  0  0  0
   -8.0279   14.4789  -36.8945 C   0  0  0  0  0  0  0  0  0  0  0  0
  -10.4341   14.6554  -35.6341 O   0  0  0  0  0  0  0  0  0  0  0  0
   -9.2398   14.7390  -37.6098 O   0  0  0  0  0  0  0  0  0  0  0  0
  -10.9541   17.0067  -38.9496 F   0  0  0  0  0  0  0  0  0  0  0  0
  -10.6872   15.0595  -39.9232 F   0  0  0  0  0  0  0  0  0  0  0  0
  -14.3426   13.9975  -39.1711 H   0  0  0  0  0  0  0  0  0  0  0  0
  -12.7510   13.5551  -39.8852 H   0  0  0  0  0  0  0  0  0  0  0  0
  -13.2772   17.3989  -37.9640 H   0  0  0  0  0  0  0  0  0  0  0  0
  -14.6491   16.2378  -38.0513 H   0  0  0  0  0  0  0  0  0  0  0  0
  -13.2447   16.1491  -40.3325 H   0  0  0  0  0  0  0  0  0  0  0  0
  -12.7102   13.1869  -37.2452 H   0  0  0  0  0  0  0  0  0  0  0  0
  -13.0320   15.5398  -36.0693 H   0  0  0  0  0  0  0  0  0  0  0  0
   -7.1895   14.4505  -37.5948 H   0  0  0  0  0  0  0  0  0  0  0  0
   -8.1110   13.5236  -36.3702 H   0  0  0  0  0  0  0  0  0  0  0  0
   -7.8656   15.2783  -36.1676 H   0  0  0  0  0  0  0  0  0  0  0  0
  1  7  1  0  0  0  0
  1 10  2  0  0  0  0
  1 11  1  0  0  0  0
  2  4  1  0  0  0  0
  2  5  1  0  0  0  0
  3  4  1  0  0  0  0
  3  6  1  0  0  0  0
  4  8  1  0  0  0  0
  5  6  1  0  0  0  0
  5  7  1  0  0  0  0
  6  7  1  0  0  0  0
  7  8  1  0  0  0  0
  8 12  1  0  0  0  0
  8 13  1  0  0  0  0
  9 11  1  0  0  0  0
  2 14  1  0  0  0  0
  2 15  1  0  0  0  0
  3 16  1  0  0  0  0
  3 17  1  0  0  0  0
  4 18  1  0  0  0  0
  5 19  1  0  0  0  0
  6 20  1  0  0  0  0
  9 21  1  0  0  0  0
  9 22  1  0  0  0  0
  9 23  1  0  0  0  0
M  END
> <id>
EN300-27734675

> <smiles>
COC(=O)C1(C2CC3CC21)C3(F)F

> <MDLNUMBER>
MFCD33032040

> <IUPAC Name>
methyl 7,7-difluorotricyclo[2.2.1.0,2,6]heptane-1-carboxylate

> <CAS>
2613383-39-2

> <Purity>
95

> <URL>
https://www.enaminestore.com/catalog/EN300-27734675

> <ROCS_ShapeQuery>
__x1247relevant_x1083L0AP1_x1305L0BP1_

> <ROCS_TanimotoCombo>
0.766 

> <ROCS_ShapeTanimoto>
0.504 

> <ROCS_ColorTanimoto>
0.263 

> <ROCS_RefTversky>
0.419 

> <ROCS_RefColorTversky>
0.389 

> <ROCS_RefTverskyCombo>
0.808 

> <ROCS_FitTversky>
1.676 

> <ROCS_FitColorTversky>
0.447 

> <ROCS_FitTverskyCombo>
2.122 

> <ROCS_ColorScore>
-13.085

> <ROCS_Overlap>
1231.470

> <ROCS_Rank>
22                  

$$$$
untitled-dbase-52588_1
  -OEChem-06232314393D

 31 33  0     1  0  0  0  0  0999 V2000
   -9.9283   15.1565  -36.0723 C   0  0  0  0  0  0  0  0  0  0  0  0
  -13.8889   16.1569  -38.0632 C   0  0  0  0  0  0  0  0  0  0  0  0
  -11.0697   15.5501  -36.9091 C   0  0  2  0  0  0  0  0  0  0  0  0
  -13.4980   14.6718  -37.7191 C   0  0  2  0  0  0  0  0  0  0  0  0
  -13.2802   15.8374  -39.4672 C   0  0  1  0  0  0  0  0  0  0  0  0
  -12.0143   14.4822  -37.3944 C   0  0  1  0  0  0  0  0  0  0  0  0
  -11.0692   15.1610  -38.3721 C   0  0  1  0  0  0  0  0  0  0  0  0
  -11.7345   16.0299  -39.4374 C   0  0  1  0  0  0  0  0  0  0  0  0
  -13.8733   14.3666  -39.2467 C   0  0  0  0  0  0  0  0  0  0  0  0
  -15.3761   14.2123  -39.5550 C   0  0  0  0  0  0  0  0  0  0  0  0
  -13.1534   13.1832  -39.9029 C   0  0  0  0  0  0  0  0  0  0  0  0
  -11.1756   15.7636  -40.7626 N   0  0  0  0  0  0  0  0  0  0  0  0
  -10.0081   14.5305  -35.0258 O   0  0  0  0  0  0  0  0  0  0  0  0
   -8.7641   15.5857  -36.6180 O   0  0  0  0  0  0  0  0  0  0  0  0
  -14.9600   16.3817  -38.0412 H   0  0  0  0  0  0  0  0  0  0  0  0
  -13.4077   16.9549  -37.4921 H   0  0  0  0  0  0  0  0  0  0  0  0
  -11.4785   16.5177  -36.6489 H   0  0  0  0  0  0  0  0  0  0  0  0
  -14.1414   14.1960  -36.9719 H   0  0  0  0  0  0  0  0  0  0  0  0
  -13.7460   16.4054  -40.2817 H   0  0  0  0  0  0  0  0  0  0  0  0
  -11.8194   13.4467  -37.1430 H   0  0  0  0  0  0  0  0  0  0  0  0
  -10.2214   14.5907  -38.7342 H   0  0  0  0  0  0  0  0  0  0  0  0
  -11.5219   17.0813  -39.2088 H   0  0  0  0  0  0  0  0  0  0  0  0
  -15.5021   14.0098  -40.6124 H   0  0  0  0  0  0  0  0  0  0  0  0
  -15.8879   15.1311  -39.2929 H   0  0  0  0  0  0  0  0  0  0  0  0
  -15.7749   13.3897  -38.9726 H   0  0  0  0  0  0  0  0  0  0  0  0
  -13.4897   13.0778  -40.9311 H   0  0  0  0  0  0  0  0  0  0  0  0
  -13.3775   12.2719  -39.3546 H   0  0  0  0  0  0  0  0  0  0  0  0
  -12.0806   13.3578  -39.8901 H   0  0  0  0  0  0  0  0  0  0  0  0
  -11.6159   16.3715  -41.4108 H   0  0  0  0  0  0  0  0  0  0  0  0
  -10.1995   15.9355  -40.7251 H   0  0  0  0  0  0  0  0  0  0  0  0
   -7.9889   15.3340  -36.0721 H   0  0  0  0  0  0  0  0  0  0  0  0
  1  3  1  0  0  0  0
  1 13  2  0  0  0  0
  1 14  1  0  0  0  0
  2  4  1  6  0  0  0
  2  5  1  6  0  0  0
  3  6  1  0  0  0  0
  3  7  1  0  0  0  0
  4  6  1  0  0  0  0
  4  9  1  0  0  0  0
  5  8  1  0  0  0  0
  5  9  1  0  0  0  0
  6  7  1  0  0  0  0
  7  8  1  0  0  0  0
  8 12  1  0  0  0  0
  9 10  1  0  0  0  0
  9 11  1  0  0  0  0
  2 15  1  0  0  0  0
  2 16  1  0  0  0  0
  3 17  1  0  0  0  0
  4 18  1  0  0  0  0
  5 19  1  0  0  0  0
  6 20  1  0  0  0  0
  7 21  1  0  0  0  0
  8 22  1  0  0  0  0
 10 23  1  0  0  0  0
 10 24  1  0  0  0  0
 10 25  1  0  0  0  0
 11 26  1  0  0  0  0
 11 27  1  0  0  0  0
 11 28  1  0  0  0  0
 12 29  1  0  0  0  0
 12 30  1  0  0  0  0
 14 31  1  0  0  0  0
M  END
> <id>
EN300-1652888

> <smiles>
CC1(C)[C@@H]2C[C@H]1C(N)C3C(C32)C(=O)O

> <IUPAC Name>
(1R,6R)-5-amino-7,7-dimethyltricyclo[4.1.1.0,2,4]octane-3-carboxylic acid

> <CAS>
2171393-90-9

> <URL>
https://www.enaminestore.com/catalog/EN300-1652888

> <ROCS_ShapeQuery>
__x1247relevant_x1083L0AP1_x1305L0BP1_

> <ROCS_TanimotoCombo>
0.765 

> <ROCS_ShapeTanimoto>
0.495 

> <ROCS_ColorTanimoto>
0.270 

> <ROCS_RefTversky>
0.414 

> <ROCS_RefColorTversky>
0.366 

> <ROCS_RefTverskyCombo>
0.779 

> <ROCS_FitTversky>
1.656 

> <ROCS_FitColorTversky>
0.509 

> <ROCS_FitTverskyCombo>
2.165 

> <ROCS_ColorScore>
-12.187

> <ROCS_Overlap>
1217.016

> <ROCS_Rank>
23                  

$$$$
untitled-dbase-135811_1
  -OEChem-06232314393D

 22 24  0     1  0  0  0  0  0999 V2000
  -12.6101   16.0492  -39.5097 C   0  0  0  0  0  0  0  0  0  0  0  0
  -10.4109   14.7149  -36.8234 C   0  0  0  0  0  0  0  0  0  0  0  0
  -14.0092   15.0972  -37.8663 C   0  0  0  0  0  0  0  0  0  0  0  0
  -12.0702   13.9055  -38.6920 C   0  0  0  0  0  0  0  0  0  0  0  0
  -13.2979   14.7229  -39.2034 C   0  0  2  0  0  0  0  0  0  0  0  0
  -11.9143   16.2877  -38.2205 C   0  0  1  0  0  0  0  0  0  0  0  0
  -12.7837   15.6544  -37.1682 C   0  0  2  0  0  0  0  0  0  0  0  0
  -11.5823   14.9208  -37.6668 C   0  0  2  0  0  0  0  0  0  0  0  0
   -8.0792   14.3400  -36.9045 C   0  0  0  0  0  0  0  0  0  0  0  0
  -12.6001   16.7472  -40.5004 O   0  0  0  0  0  0  0  0  0  0  0  0
  -10.4418   14.6965  -35.6004 O   0  0  0  0  0  0  0  0  0  0  0  0
   -9.3075   14.5518  -37.6077 O   0  0  0  0  0  0  0  0  0  0  0  0
  -14.7803   15.8625  -37.9990 H   0  0  0  0  0  0  0  0  0  0  0  0
  -14.4142   14.2235  -37.3475 H   0  0  0  0  0  0  0  0  0  0  0  0
  -12.3649   12.9603  -38.2260 H   0  0  0  0  0  0  0  0  0  0  0  0
  -11.3255   13.7345  -39.4763 H   0  0  0  0  0  0  0  0  0  0  0  0
  -13.9003   14.2941  -40.0002 H   0  0  0  0  0  0  0  0  0  0  0  0
  -11.3194   17.1596  -38.0129 H   0  0  0  0  0  0  0  0  0  0  0  0
  -12.8704   16.0522  -36.1760 H   0  0  0  0  0  0  0  0  0  0  0  0
   -7.2634   14.2220  -37.6219 H   0  0  0  0  0  0  0  0  0  0  0  0
   -8.1639   13.4453  -36.2825 H   0  0  0  0  0  0  0  0  0  0  0  0
   -7.8798   15.2058  -36.2686 H   0  0  0  0  0  0  0  0  0  0  0  0
  1  5  1  0  0  0  0
  1  6  1  0  0  0  0
  1 10  2  0  0  0  0
  2  8  1  0  0  0  0
  2 11  2  0  0  0  0
  2 12  1  0  0  0  0
  3  5  1  0  0  0  0
  3  7  1  0  0  0  0
  4  5  1  0  0  0  0
  4  8  1  0  0  0  0
  6  7  1  0  0  0  0
  6  8  1  0  0  0  0
  7  8  1  0  0  0  0
  9 12  1  0  0  0  0
  3 13  1  0  0  0  0
  3 14  1  0  0  0  0
  4 15  1  0  0  0  0
  4 16  1  0  0  0  0
  5 17  1  0  0  0  0
  6 18  1  0  0  0  0
  7 19  1  0  0  0  0
  9 20  1  0  0  0  0
  9 21  1  0  0  0  0
  9 22  1  0  0  0  0
M  END
> <id>
EN300-7919086

> <smiles>
COC(=O)C12CC3CC2C1C3=O

> <MDLNUMBER>
MFCD24736699

> <IUPAC Name>
methyl 3-oxotricyclo[2.2.1.0,2,6]heptane-1-carboxylate

> <CAS>
90704-22-6

> <Purity>
95

> <URL>
https://www.enaminestore.com/catalog/EN300-7919086

> <ROCS_ShapeQuery>
__x1247relevant_x1083L0AP1_x1305L0BP1_

> <ROCS_TanimotoCombo>
0.765 

> <ROCS_ShapeTanimoto>
0.482 

> <ROCS_ColorTanimoto>
0.283 

> <ROCS_RefTversky>
0.401 

> <ROCS_RefColorTversky>
0.419 

> <ROCS_RefTverskyCombo>
0.820 

> <ROCS_FitTversky>
1.728 

> <ROCS_FitColorTversky>
0.465 

> <ROCS_FitTverskyCombo>
2.194 

> <ROCS_ColorScore>
-14.115

> <ROCS_Overlap>
1177.712

> <ROCS_Rank>
24                  

$$$$
untitled-dbase-92098_13
  -OEChem-06232314393D

 22 23  0     1  0  0  0  0  0999 V2000
  -10.1562   14.9160  -36.6030 C   0  0  0  0  0  0  0  0  0  0  0  0
  -12.2468   13.9937  -37.6003 C   0  0  0  0  0  0  0  0  0  0  0  0
  -10.9454   14.7572  -37.8665 C   0  0  1  0  0  0  0  0  0  0  0  0
  -13.3031   15.0058  -38.0440 C   0  0  2  0  0  0  0  0  0  0  0  0
  -11.4628   16.1167  -38.3531 C   0  0  1  0  0  0  0  0  0  0  0  0
  -13.2762   15.1782  -39.5678 C   0  0  2  0  0  0  0  0  0  0  0  0
  -12.0287   16.0450  -39.7734 C   0  0  2  0  0  0  0  0  0  0  0  0
  -10.4666   14.4471  -35.5181 O   0  0  0  0  0  0  0  0  0  0  0  0
  -12.6951   16.2453  -37.6004 O   0  0  0  0  0  0  0  0  0  0  0  0
   -9.0434   15.6578  -36.8237 O   0  0  0  0  0  0  0  0  0  0  0  0
  -14.4352   15.8989  -39.9682 O   0  0  0  0  0  0  0  0  0  0  0  0
  -11.1127   15.4632  -40.6778 O   0  0  0  0  0  0  0  0  0  0  0  0
  -12.3089   13.0586  -38.1656 H   0  0  0  0  0  0  0  0  0  0  0  0
  -12.3653   13.7593  -36.5361 H   0  0  0  0  0  0  0  0  0  0  0  0
  -10.3031   14.2530  -38.5947 H   0  0  0  0  0  0  0  0  0  0  0  0
  -14.2940   14.8674  -37.6054 H   0  0  0  0  0  0  0  0  0  0  0  0
  -10.7886   16.9595  -38.1790 H   0  0  0  0  0  0  0  0  0  0  0  0
  -13.2612   14.2234  -40.1028 H   0  0  0  0  0  0  0  0  0  0  0  0
  -12.2931   17.0471  -40.1311 H   0  0  0  0  0  0  0  0  0  0  0  0
   -8.5133   15.7750  -36.0066 H   0  0  0  0  0  0  0  0  0  0  0  0
  -14.3990   16.7580  -39.5180 H   0  0  0  0  0  0  0  0  0  0  0  0
  -11.5389   15.4515  -41.5529 H   0  0  0  0  0  0  0  0  0  0  0  0
  1  3  1  0  0  0  0
  1  8  2  0  0  0  0
  1 10  1  0  0  0  0
  2  3  1  0  0  0  0
  2  4  1  0  0  0  0
  3  5  1  0  0  0  0
  4  6  1  0  0  0  0
  4  9  1  0  0  0  0
  5  7  1  0  0  0  0
  5  9  1  0  0  0  0
  6  7  1  0  0  0  0
  6 11  1  0  0  0  0
  7 12  1  0  0  0  0
  2 13  1  0  0  0  0
  2 14  1  0  0  0  0
  3 15  1  0  0  0  0
  4 16  1  0  0  0  0
  5 17  1  0  0  0  0
  6 18  1  0  0  0  0
  7 19  1  0  0  0  0
 10 20  1  0  0  0  0
 11 21  1  0  0  0  0
 12 22  1  0  0  0  0
M  END
> <id>
EN300-6764836

> <smiles>
OC1C(O)C2OC1CC2C(=O)O

> <MDLNUMBER>
MFCD24531237

> <IUPAC Name>
5,6-dihydroxy-7-oxabicyclo[2.2.1]heptane-2-carboxylic acid

> <CAS>
1822577-96-7

> <Purity>
95

> <URL>
https://www.enaminestore.com/catalog/EN300-6764836

> <ROCS_ShapeQuery>
__x1247relevant_x1083L0AP1_x1305L0BP1_

> <ROCS_TanimotoCombo>
0.765 

> <ROCS_ShapeTanimoto>
0.497 

> <ROCS_ColorTanimoto>
0.268 

> <ROCS_RefTversky>
0.408 

> <ROCS_RefColorTversky>
0.310 

> <ROCS_RefTverskyCombo>
0.717 

> <ROCS_FitTversky>
1.792 

> <ROCS_FitColorTversky>
0.664 

> <ROCS_FitTverskyCombo>
2.456 

> <ROCS_ColorScore>
-10.179

> <ROCS_Overlap>
1197.564

> <ROCS_Rank>
25                  

$$$$
untitled-dbase-26352_3
  -OEChem-06232314393D

 21 23  0     1  0  0  0  0  0999 V2000
  -10.0347   15.0284  -36.6828 C   0  0  0  0  0  0  0  0  0  0  0  0
  -10.9336   14.9770  -39.0227 C   0  0  0  0  0  0  0  0  0  0  0  0
  -11.1443   14.5331  -37.5577 C   0  0  2  0  0  0  0  0  0  0  0  0
  -13.4021   14.8923  -39.3423 C   0  0  2  0  0  0  0  0  0  0  0  0
  -13.5983   14.4964  -37.9081 C   0  0  1  0  0  0  0  0  0  0  0  0
  -12.1991   15.8072  -39.2806 C   0  0  1  0  0  0  0  0  0  0  0  0
  -12.4728   15.2236  -37.2059 C   0  0  2  0  0  0  0  0  0  0  0  0
  -14.6826   15.1993  -38.6480 C   0  0  0  0  0  0  0  0  0  0  0  0
   -9.0553   15.6462  -37.0734 O   0  0  0  0  0  0  0  0  0  0  0  0
  -12.3388   16.4426  -37.9863 O   0  0  0  0  0  0  0  0  0  0  0  0
  -10.2607   14.6954  -35.3885 O   0  0  0  0  0  0  0  0  0  0  0  0
  -15.8356   14.5291  -38.9906 F   0  0  0  0  0  0  0  0  0  0  0  0
  -15.0381   16.4924  -38.3391 F   0  0  0  0  0  0  0  0  0  0  0  0
  -10.0367   15.5983  -39.1256 H   0  0  0  0  0  0  0  0  0  0  0  0
  -10.8505   14.1249  -39.7047 H   0  0  0  0  0  0  0  0  0  0  0  0
  -11.1938   13.4436  -37.4609 H   0  0  0  0  0  0  0  0  0  0  0  0
  -13.3712   14.1309  -40.1061 H   0  0  0  0  0  0  0  0  0  0  0  0
  -13.7098   13.4537  -37.6535 H   0  0  0  0  0  0  0  0  0  0  0  0
  -12.1303   16.5328  -40.0935 H   0  0  0  0  0  0  0  0  0  0  0  0
  -12.6475   15.4410  -36.1497 H   0  0  0  0  0  0  0  0  0  0  0  0
   -9.5427   15.0099  -34.7985 H   0  0  0  0  0  0  0  0  0  0  0  0
  1  3  1  0  0  0  0
  1  9  2  0  0  0  0
  1 11  1  0  0  0  0
  2  3  1  0  0  0  0
  2  6  1  0  0  0  0
  3  7  1  0  0  0  0
  4  5  1  0  0  0  0
  4  6  1  0  0  0  0
  4  8  1  0  0  0  0
  5  7  1  0  0  0  0
  5  8  1  0  0  0  0
  6 10  1  0  0  0  0
  7 10  1  0  0  0  0
  8 12  1  0  0  0  0
  8 13  1  0  0  0  0
  2 14  1  0  0  0  0
  2 15  1  0  0  0  0
  3 16  1  0  0  0  0
  4 17  1  0  0  0  0
  5 18  1  0  0  0  0
  6 19  1  0  0  0  0
  7 20  1  0  0  0  0
 11 21  1  0  0  0  0
M  END
> <id>
EN300-367172

> <smiles>
OC(=O)C1CC2OC1C3C2C3(F)F

> <MDLNUMBER>
MFCD30730707

> <IUPAC Name>
3,3-difluoro-8-oxatricyclo[3.2.1.0,2,4]octane-6-carboxylic acid

> <CAS>
2095410-32-3

> <Purity>
95

> <URL>
https://www.enaminestore.com/catalog/EN300-367172

> <ROCS_ShapeQuery>
__x1247relevant_x1083L0AP1_x1305L0BP1_

> <ROCS_TanimotoCombo>
0.765 

> <ROCS_ShapeTanimoto>
0.476 

> <ROCS_ColorTanimoto>
0.289 

> <ROCS_RefTversky>
0.402 

> <ROCS_RefColorTversky>
0.371 

> <ROCS_RefTverskyCombo>
0.774 

> <ROCS_FitTversky>
1.621 

> <ROCS_FitColorTversky>
0.565 

> <ROCS_FitTverskyCombo>
2.186 

> <ROCS_ColorScore>
-12.335

> <ROCS_Overlap>
1183.907

> <ROCS_Rank>
26                  

$$$$
untitled-dbase-178814_6
  -OEChem-06232314393D

 20 22  0     1  0  0  0  0  0999 V2000
  -10.1787   15.2338  -37.0614 C   0  0  0  0  0  0  0  0  0  0  0  0
  -13.0752   16.0519  -37.1546 C   0  0  0  0  0  0  0  0  0  0  0  0
  -11.0694   15.1664  -38.2549 C   0  0  2  0  0  0  0  0  0  0  0  0
  -12.0931   16.3496  -38.3375 C   0  0  1  0  0  0  0  0  0  0  0  0
  -13.3425   14.6138  -37.5431 C   0  0  2  0  0  0  0  0  0  0  0  0
  -12.1157   14.0722  -38.2028 C   0  0  1  0  0  0  0  0  0  0  0  0
  -13.2761   14.5240  -39.0305 C   0  0  2  0  0  0  0  0  0  0  0  0
  -12.9568   15.8959  -39.5486 C   0  0  0  0  0  0  0  0  0  0  0  0
   -9.0582   15.7214  -37.0485 O   0  0  0  0  0  0  0  0  0  0  0  0
  -10.7804   14.6754  -35.9828 O   0  0  0  0  0  0  0  0  0  0  0  0
  -14.0569   16.6527  -39.7169 F   0  0  0  0  0  0  0  0  0  0  0  0
  -12.2630   15.8635  -40.7013 F   0  0  0  0  0  0  0  0  0  0  0  0
  -12.6060   16.1388  -36.1713 H   0  0  0  0  0  0  0  0  0  0  0  0
  -13.9812   16.6641  -37.1960 H   0  0  0  0  0  0  0  0  0  0  0  0
  -10.4522   15.0985  -39.1571 H   0  0  0  0  0  0  0  0  0  0  0  0
  -11.6809   17.3579  -38.3760 H   0  0  0  0  0  0  0  0  0  0  0  0
  -14.0027   14.0112  -36.9514 H   0  0  0  0  0  0  0  0  0  0  0  0
  -11.8198   13.0430  -38.1445 H   0  0  0  0  0  0  0  0  0  0  0  0
  -13.8838   13.8544  -39.6051 H   0  0  0  0  0  0  0  0  0  0  0  0
  -10.2087   14.7083  -35.1863 H   0  0  0  0  0  0  0  0  0  0  0  0
  1  3  1  0  0  0  0
  1  9  2  0  0  0  0
  1 10  1  0  0  0  0
  2  4  1  0  0  0  0
  2  5  1  0  0  0  0
  3  4  1  0  0  0  0
  3  6  1  0  0  0  0
  4  8  1  0  0  0  0
  5  6  1  0  0  0  0
  5  7  1  0  0  0  0
  6  7  1  0  0  0  0
  7  8  1  0  0  0  0
  8 11  1  0  0  0  0
  8 12  1  0  0  0  0
  2 13  1  0  0  0  0
  2 14  1  0  0  0  0
  3 15  1  0  0  0  0
  4 16  1  0  0  0  0
  5 17  1  0  0  0  0
  6 18  1  0  0  0  0
  7 19  1  0  0  0  0
 10 20  1  0  0  0  0
M  END
> <id>
EN300-39920038

> <smiles>
OC(=O)C1C2C3CC1C(F)(F)C32

> <IUPAC Name>
5,5-difluorotricyclo[2.2.1.0,2,6]heptane-3-carboxylic acid

> <URL>
https://www.enaminestore.com/catalog/EN300-39920038

> <ROCS_ShapeQuery>
__x1247relevant_x1083L0AP1_x1305L0BP1_

> <ROCS_TanimotoCombo>
0.762 

> <ROCS_ShapeTanimoto>
0.498 

> <ROCS_ColorTanimoto>
0.265 

> <ROCS_RefTversky>
0.410 

> <ROCS_RefColorTversky>
0.403 

> <ROCS_RefTverskyCombo>
0.813 

> <ROCS_FitTversky>
1.748 

> <ROCS_FitColorTversky>
0.435 

> <ROCS_FitTverskyCombo>
2.183 

> <ROCS_ColorScore>
-13.579

> <ROCS_Overlap>
1206.389

> <ROCS_Rank>
27                  

$$$$
untitled-dbase-107783_82
  -OEChem-06232314393D

 40 41  0     1  0  0  0  0  0999 V2000
   -9.3679   14.6028  -36.4192 C   0  0  0  0  0  0  0  0  0  0  0  0
  -13.2281   15.3285  -37.3861 C   0  0  0  0  0  0  0  0  0  0  0  0
  -11.1209   15.9217  -38.2939 C   0  0  0  0  0  0  0  0  0  0  0  0
  -13.2554   14.2407  -39.5104 C   0  0  0  0  0  0  0  0  0  0  0  0
  -12.6106   16.2916  -38.4115 C   0  0  1  0  0  0  0  0  0  0  0  0
  -12.6715   14.0880  -38.0876 C   0  0  1  0  0  0  0  0  0  0  0  0
  -11.1540   14.3858  -38.1407 C   0  0  2  0  0  0  0  0  0  0  0  0
  -13.2299   15.7689  -39.7315 C   0  0  1  0  0  0  0  0  0  0  0  0
  -10.0752   15.7540  -34.1787 C   0  0  0  0  0  0  0  0  0  0  0  0
   -9.2099   13.7531  -32.9309 C   0  0  0  0  0  0  0  0  0  0  0  0
   -7.5961   15.3984  -33.9293 C   0  0  0  0  0  0  0  0  0  0  0  0
  -12.5122   16.1786  -41.0105 C   0  0  0  0  0  0  0  0  0  0  0  0
   -8.9555   14.7184  -34.0866 C   0  0  0  0  0  0  0  0  0  0  0  0
  -10.4653   13.9540  -36.9528 N   0  0  0  0  0  0  0  0  0  0  0  0
   -8.8443   15.6131  -36.8772 O   0  0  0  0  0  0  0  0  0  0  0  0
  -14.5788   16.2366  -39.8236 O   0  0  0  0  0  0  0  0  0  0  0  0
   -8.9442   13.9508  -35.2954 O   0  0  0  0  0  0  0  0  0  0  0  0
  -13.1186   15.6340  -42.0781 F   0  0  0  0  0  0  0  0  0  0  0  0
  -12.5254   17.5152  -41.1424 F   0  0  0  0  0  0  0  0  0  0  0  0
  -11.2358   15.7611  -40.9805 F   0  0  0  0  0  0  0  0  0  0  0  0
  -12.8401   15.4708  -36.3722 H   0  0  0  0  0  0  0  0  0  0  0  0
  -14.3224   15.3558  -37.3599 H   0  0  0  0  0  0  0  0  0  0  0  0
  -10.5214   16.2396  -39.1508 H   0  0  0  0  0  0  0  0  0  0  0  0
  -10.6901   16.3993  -37.4047 H   0  0  0  0  0  0  0  0  0  0  0  0
  -12.6553   13.6903  -40.2427 H   0  0  0  0  0  0  0  0  0  0  0  0
  -14.2791   13.8495  -39.5420 H   0  0  0  0  0  0  0  0  0  0  0  0
  -12.8241   17.3436  -38.2061 H   0  0  0  0  0  0  0  0  0  0  0  0
  -12.9227   13.1301  -37.6261 H   0  0  0  0  0  0  0  0  0  0  0  0
  -10.6706   13.8869  -38.9872 H   0  0  0  0  0  0  0  0  0  0  0  0
   -9.8963   16.4488  -35.0070 H   0  0  0  0  0  0  0  0  0  0  0  0
  -11.0513   15.2806  -34.3266 H   0  0  0  0  0  0  0  0  0  0  0  0
  -10.1204   16.3631  -33.2686 H   0  0  0  0  0  0  0  0  0  0  0  0
   -8.4089   13.0083  -32.8611 H   0  0  0  0  0  0  0  0  0  0  0  0
  -10.1391   13.1933  -33.0874 H   0  0  0  0  0  0  0  0  0  0  0  0
   -9.2790   14.2788  -31.9731 H   0  0  0  0  0  0  0  0  0  0  0  0
   -6.7928   14.6558  -33.8633 H   0  0  0  0  0  0  0  0  0  0  0  0
   -7.3803   16.0673  -34.7687 H   0  0  0  0  0  0  0  0  0  0  0  0
   -7.5565   15.9802  -33.0013 H   0  0  0  0  0  0  0  0  0  0  0  0
  -10.8069   13.1213  -36.4775 H   0  0  0  0  0  0  0  0  0  0  0  0
  -14.5248   17.1934  -39.9614 H   0  0  0  0  0  0  0  0  0  0  0  0
  1 14  1  0  0  0  0
  1 15  2  0  0  0  0
  1 17  1  0  0  0  0
  2  5  1  0  0  0  0
  2  6  1  0  0  0  0
  3  5  1  0  0  0  0
  3  7  1  0  0  0  0
  4  6  1  0  0  0  0
  4  8  1  0  0  0  0
  5  8  1  0  0  0  0
  6  7  1  0  0  0  0
  7 14  1  0  0  0  0
  8 12  1  0  0  0  0
  8 16  1  0  0  0  0
  9 13  1  0  0  0  0
 10 13  1  0  0  0  0
 11 13  1  0  0  0  0
 12 18  1  0  0  0  0
 12 19  1  0  0  0  0
 12 20  1  0  0  0  0
 13 17  1  0  0  0  0
  2 21  1  0  0  0  0
  2 22  1  0  0  0  0
  3 23  1  0  0  0  0
  3 24  1  0  0  0  0
  4 25  1  0  0  0  0
  4 26  1  0  0  0  0
  5 27  1  0  0  0  0
  6 28  1  0  0  0  0
  7 29  1  0  0  0  0
  9 30  1  0  0  0  0
  9 31  1  0  0  0  0
  9 32  1  0  0  0  0
 10 33  1  0  0  0  0
 10 34  1  0  0  0  0
 10 35  1  0  0  0  0
 11 36  1  0  0  0  0
 11 37  1  0  0  0  0
 11 38  1  0  0  0  0
 14 39  1  0  0  0  0
 16 40  1  0  0  0  0
M  END
> <id>
EN300-7548570

> <smiles>
CC(C)(C)OC(=O)NC1CC2CC1CC2(O)C(F)(F)F

> <IUPAC Name>
tert-butyl N-[5-hydroxy-5-(trifluoromethyl)bicyclo[2.2.1]heptan-2-yl]carbamate

> <CAS>
2408974-12-7

> <URL>
https://www.enaminestore.com/catalog/EN300-7548570

> <ROCS_ShapeQuery>
__x1247relevant_x1083L0AP1_x1305L0BP1_

> <ROCS_TanimotoCombo>
0.762 

> <ROCS_ShapeTanimoto>
0.506 

> <ROCS_ColorTanimoto>
0.256 

> <ROCS_RefTversky>
0.451 

> <ROCS_RefColorTversky>
0.281 

> <ROCS_RefTverskyCombo>
0.732 

> <ROCS_FitTversky>
1.317 

> <ROCS_FitColorTversky>
0.741 

> <ROCS_FitTverskyCombo>
2.057 

> <ROCS_ColorScore>
-9.199

> <ROCS_Overlap>
1333.865

> <ROCS_Rank>
28                  

$$$$
untitled-dbase-147901_161
  -OEChem-06232314393D

 38 39  0     1  0  0  0  0  0999 V2000
  -10.3916   14.6925  -36.5569 C   0  0  0  0  0  0  0  0  0  0  0  0
  -12.2861   14.2191  -39.0525 C   0  0  0  0  0  0  0  0  0  0  0  0
  -11.5577   15.4512  -37.1226 C   0  0  1  0  0  0  0  0  0  0  0  0
  -11.4925   15.4748  -38.6672 C   0  0  2  0  0  0  0  0  0  0  0  0
  -13.5274   14.6472  -38.2640 C   0  0  1  0  0  0  0  0  0  0  0  0
  -12.9520   14.8303  -36.8362 C   0  0  1  0  0  0  0  0  0  0  0  0
  -12.4199   16.5960  -39.1805 C   0  0  2  0  0  0  0  0  0  0  0  0
  -13.8247   16.0438  -38.8616 C   0  0  1  0  0  0  0  0  0  0  0  0
   -7.5937   14.2833  -36.2397 C   0  0  0  0  0  0  0  0  0  0  0  0
   -7.5169   14.1462  -38.7466 C   0  0  0  0  0  0  0  0  0  0  0  0
   -8.2714   16.2670  -37.6326 C   0  0  0  0  0  0  0  0  0  0  0  0
   -8.2451   14.7418  -37.5437 C   0  0  0  0  0  0  0  0  0  0  0  0
  -12.9038   13.5534  -36.1297 N   0  0  0  0  0  0  0  0  0  0  0  0
  -10.2107   14.5058  -35.3612 O   0  0  0  0  0  0  0  0  0  0  0  0
  -12.2158   16.7821  -40.5726 O   0  0  0  0  0  0  0  0  0  0  0  0
  -14.6482   15.9414  -40.0123 O   0  0  0  0  0  0  0  0  0  0  0  0
   -9.5925   14.2604  -37.5735 O   0  0  0  0  0  0  0  0  0  0  0  0
  -12.4681   14.1365  -40.1293 H   0  0  0  0  0  0  0  0  0  0  0  0
  -11.8315   13.2889  -38.7000 H   0  0  0  0  0  0  0  0  0  0  0  0
  -11.4969   16.4618  -36.7027 H   0  0  0  0  0  0  0  0  0  0  0  0
  -10.4852   15.5002  -39.0911 H   0  0  0  0  0  0  0  0  0  0  0  0
  -14.3680   13.9518  -38.3367 H   0  0  0  0  0  0  0  0  0  0  0  0
  -13.5637   15.5152  -36.2568 H   0  0  0  0  0  0  0  0  0  0  0  0
  -12.2251   17.5433  -38.6697 H   0  0  0  0  0  0  0  0  0  0  0  0
  -14.3466   16.6814  -38.1231 H   0  0  0  0  0  0  0  0  0  0  0  0
   -8.1135   14.7087  -35.3738 H   0  0  0  0  0  0  0  0  0  0  0  0
   -7.5999   13.1923  -36.1476 H   0  0  0  0  0  0  0  0  0  0  0  0
   -6.5558   14.6299  -36.1782 H   0  0  0  0  0  0  0  0  0  0  0  0
   -7.9810   14.4726  -39.6844 H   0  0  0  0  0  0  0  0  0  0  0  0
   -7.5773   13.0519  -38.7369 H   0  0  0  0  0  0  0  0  0  0  0  0
   -6.4611   14.4350  -38.7634 H   0  0  0  0  0  0  0  0  0  0  0  0
   -8.7386   16.5962  -38.5678 H   0  0  0  0  0  0  0  0  0  0  0  0
   -8.8220   16.7103  -36.7966 H   0  0  0  0  0  0  0  0  0  0  0  0
   -7.2541   16.6748  -37.6350 H   0  0  0  0  0  0  0  0  0  0  0  0
  -12.5051   13.7089  -35.2342 H   0  0  0  0  0  0  0  0  0  0  0  0
  -13.8313   13.2103  -36.0461 H   0  0  0  0  0  0  0  0  0  0  0  0
  -12.8158   17.4927  -40.8534 H   0  0  0  0  0  0  0  0  0  0  0  0
  -14.1650   15.3998  -40.6582 H   0  0  0  0  0  0  0  0  0  0  0  0
  1  3  1  1  0  0  0
  1 14  2  0  0  0  0
  1 17  1  0  0  0  0
  2  4  1  1  0  0  0
  2  5  1  1  0  0  0
  3  4  1  0  0  0  0
  3  6  1  0  0  0  0
  4  7  1  0  0  0  0
  5  6  1  0  0  0  0
  5  8  1  0  0  0  0
  6 13  1  1  0  0  0
  7  8  1  0  0  0  0
  7 15  1  1  0  0  0
  8 16  1  1  0  0  0
  9 12  1  0  0  0  0
 10 12  1  0  0  0  0
 11 12  1  0  0  0  0
 12 17  1  0  0  0  0
  2 18  1  0  0  0  0
  2 19  1  0  0  0  0
  3 20  1  0  0  0  0
  4 21  1  0  0  0  0
  5 22  1  0  0  0  0
  6 23  1  0  0  0  0
  7 24  1  0  0  0  0
  8 25  1  0  0  0  0
  9 26  1  0  0  0  0
  9 27  1  0  0  0  0
  9 28  1  0  0  0  0
 10 29  1  0  0  0  0
 10 30  1  0  0  0  0
 10 31  1  0  0  0  0
 11 32  1  0  0  0  0
 11 33  1  0  0  0  0
 11 34  1  0  0  0  0
 13 35  1  0  0  0  0
 13 36  1  0  0  0  0
 15 37  1  0  0  0  0
 16 38  1  0  0  0  0
M  END
> <id>
EN300-27730074

> <smiles>
CC(C)(C)OC(=O)[C@@H]1[C@H](N)[C@@H]2C[C@H]1[C@@H](O)[C@H]2O |&1:7,8,10,12,13,15,r|

> <IUPAC Name>
rac-tert-butyl (1R,2S,3R,4S,5S,6R)-3-amino-5,6-dihydroxybicyclo[2.2.1]heptane-2-carboxylate

> <CAS>
2639389-01-6

> <URL>
https://www.enaminestore.com/catalog/EN300-27730074

> <ROCS_ShapeQuery>
__x1247relevant_x1083L0AP1_x1305L0BP1_

> <ROCS_TanimotoCombo>
0.762 

> <ROCS_ShapeTanimoto>
0.518 

> <ROCS_ColorTanimoto>
0.244 

> <ROCS_RefTversky>
0.442 

> <ROCS_RefColorTversky>
0.287 

> <ROCS_RefTverskyCombo>
0.729 

> <ROCS_FitTversky>
1.499 

> <ROCS_FitColorTversky>
0.618 

> <ROCS_FitTverskyCombo>
2.117 

> <ROCS_ColorScore>
-9.449

> <ROCS_Overlap>
1302.562

> <ROCS_Rank>
29                  

$$$$
untitled-dbase-158283_2
  -OEChem-06232314393D

 25 27  0     1  0  0  0  0  0999 V2000
  -11.8904   13.7934  -37.9604 C   0  0  0  0  0  0  0  0  0  0  0  0
  -10.1387   15.2094  -36.7677 C   0  0  0  0  0  0  0  0  0  0  0  0
  -13.3898   14.8056  -39.5975 C   0  0  0  0  0  0  0  0  0  0  0  0
  -13.6843   14.8405  -37.0745 C   0  0  0  0  0  0  0  0  0  0  0  0
  -12.9545   16.8986  -38.2539 C   0  0  0  0  0  0  0  0  0  0  0  0
  -11.0841   15.7525  -39.0694 C   0  0  0  0  0  0  0  0  0  0  0  0
  -13.3470   13.9731  -38.2884 C   0  0  2  0  0  0  0  0  0  0  0  0
  -12.5241   16.1046  -39.4869 C   0  0  1  0  0  0  0  0  0  0  0  0
  -12.5844   15.9186  -37.1302 C   0  0  2  0  0  0  0  0  0  0  0  0
  -11.3191   15.1623  -37.6707 C   0  0  1  0  0  0  0  0  0  0  0  0
  -11.2759   12.7400  -37.9866 O   0  0  0  0  0  0  0  0  0  0  0  0
   -9.0415   15.6549  -37.0695 O   0  0  0  0  0  0  0  0  0  0  0  0
  -10.4425   14.6858  -35.5550 O   0  0  0  0  0  0  0  0  0  0  0  0
  -13.0155   14.1985  -40.4308 H   0  0  0  0  0  0  0  0  0  0  0  0
  -14.4276   15.0786  -39.8219 H   0  0  0  0  0  0  0  0  0  0  0  0
  -14.6952   15.2576  -37.1255 H   0  0  0  0  0  0  0  0  0  0  0  0
  -13.5995   14.2631  -36.1449 H   0  0  0  0  0  0  0  0  0  0  0  0
  -12.3747   17.8250  -38.1628 H   0  0  0  0  0  0  0  0  0  0  0  0
  -14.0167   17.1628  -38.2667 H   0  0  0  0  0  0  0  0  0  0  0  0
  -10.6207   15.0442  -39.7661 H   0  0  0  0  0  0  0  0  0  0  0  0
  -10.4516   16.6478  -39.0281 H   0  0  0  0  0  0  0  0  0  0  0  0
  -13.8988   13.0333  -38.3313 H   0  0  0  0  0  0  0  0  0  0  0  0
  -12.5629   16.6927  -40.4076 H   0  0  0  0  0  0  0  0  0  0  0  0
  -12.4522   16.4243  -36.1696 H   0  0  0  0  0  0  0  0  0  0  0  0
   -9.6750   14.7061  -34.9444 H   0  0  0  0  0  0  0  0  0  0  0  0
  1  7  1  0  0  0  0
  1 10  1  0  0  0  0
  1 11  2  0  0  0  0
  2 10  1  0  0  0  0
  2 12  2  0  0  0  0
  2 13  1  0  0  0  0
  3  7  1  0  0  0  0
  3  8  1  0  0  0  0
  4  7  1  0  0  0  0
  4  9  1  0  0  0  0
  5  8  1  0  0  0  0
  5  9  1  0  0  0  0
  6  8  1  0  0  0  0
  6 10  1  0  0  0  0
  9 10  1  0  0  0  0
  3 14  1  0  0  0  0
  3 15  1  0  0  0  0
  4 16  1  0  0  0  0
  4 17  1  0  0  0  0
  5 18  1  0  0  0  0
  5 19  1  0  0  0  0
  6 20  1  0  0  0  0
  6 21  1  0  0  0  0
  7 22  1  0  0  0  0
  8 23  1  0  0  0  0
  9 24  1  0  0  0  0
 13 25  1  0  0  0  0
M  END
> <id>
EN300-26681594

> <smiles>
OC(=O)C12CC3CC2CC(C3)C1=O

> <MDLNUMBER>
MFCD32692249

> <IUPAC Name>
2-oxotricyclo[3.3.1.0,3,7]nonane-3-carboxylic acid

> <URL>
https://www.enaminestore.com/catalog/EN300-26681594

> <ROCS_ShapeQuery>
__x1247relevant_x1083L0AP1_x1305L0BP1_

> <ROCS_TanimotoCombo>
0.761 

> <ROCS_ShapeTanimoto>
0.498 

> <ROCS_ColorTanimoto>
0.263 

> <ROCS_RefTversky>
0.415 

> <ROCS_RefColorTversky>
0.367 

> <ROCS_RefTverskyCombo>
0.781 

> <ROCS_FitTversky>
1.674 

> <ROCS_FitColorTversky>
0.483 

> <ROCS_FitTverskyCombo>
2.157 

> <ROCS_ColorScore>
-12.250

> <ROCS_Overlap>
1220.022

> <ROCS_Rank>
30                  

$$$$
untitled-dbase-56603_2
  -OEChem-06232314393D

 23 25  0     1  0  0  0  0  0999 V2000
  -10.0753   14.9823  -36.5598 C   0  0  0  0  0  0  0  0  0  0  0  0
  -12.2721   13.9001  -37.1730 C   0  0  0  0  0  0  0  0  0  0  0  0
  -12.8447   16.1902  -37.3086 C   0  0  0  0  0  0  0  0  0  0  0  0
  -11.0308   14.6846  -37.6740 C   0  0  1  0  0  0  0  0  0  0  0  0
  -13.4488   14.8117  -37.6061 C   0  0  1  0  0  0  0  0  0  0  0  0
  -11.6605   15.9738  -38.2686 C   0  0  1  0  0  0  0  0  0  0  0  0
  -13.5265   14.7623  -39.1299 C   0  0  2  0  0  0  0  0  0  0  0  0
  -12.3257   15.5611  -39.5803 C   0  0  1  0  0  0  0  0  0  0  0  0
  -13.6976   15.9433  -40.0226 C   0  0  0  0  0  0  0  0  0  0  0  0
  -10.2209   14.6324  -35.3981 O   0  0  0  0  0  0  0  0  0  0  0  0
   -9.0190   15.7002  -37.0140 O   0  0  0  0  0  0  0  0  0  0  0  0
  -14.0667   15.7554  -41.3376 F   0  0  0  0  0  0  0  0  0  0  0  0
  -14.3101   17.0996  -39.6031 F   0  0  0  0  0  0  0  0  0  0  0  0
  -12.3315   12.9108  -37.6400 H   0  0  0  0  0  0  0  0  0  0  0  0
  -12.2600   13.7702  -36.0848 H   0  0  0  0  0  0  0  0  0  0  0  0
  -13.4891   17.0269  -37.5846 H   0  0  0  0  0  0  0  0  0  0  0  0
  -12.5513   16.3174  -36.2613 H   0  0  0  0  0  0  0  0  0  0  0  0
  -10.4862   14.1060  -38.4289 H   0  0  0  0  0  0  0  0  0  0  0  0
  -14.3950   14.5948  -37.1077 H   0  0  0  0  0  0  0  0  0  0  0  0
  -10.9837   16.8260  -38.3593 H   0  0  0  0  0  0  0  0  0  0  0  0
  -13.6864   13.7744  -39.5377 H   0  0  0  0  0  0  0  0  0  0  0  0
  -11.6494   15.1342  -40.3076 H   0  0  0  0  0  0  0  0  0  0  0  0
   -9.0854   15.8811  -37.9759 H   0  0  0  0  0  0  0  0  0  0  0  0
  1  4  1  0  0  0  0
  1 10  2  0  0  0  0
  1 11  1  0  0  0  0
  2  4  1  0  0  0  0
  2  5  1  0  0  0  0
  3  5  1  0  0  0  0
  3  6  1  0  0  0  0
  4  6  1  0  0  0  0
  5  7  1  0  0  0  0
  6  8  1  0  0  0  0
  7  8  1  0  0  0  0
  7  9  1  0  0  0  0
  8  9  1  0  0  0  0
  9 12  1  0  0  0  0
  9 13  1  0  0  0  0
  2 14  1  0  0  0  0
  2 15  1  0  0  0  0
  3 16  1  0  0  0  0
  3 17  1  0  0  0  0
  4 18  1  0  0  0  0
  5 19  1  0  0  0  0
  6 20  1  0  0  0  0
  7 21  1  0  0  0  0
  8 22  1  0  0  0  0
 11 23  1  0  0  0  0
M  END
> <id>
EN300-367535

> <smiles>
OC(=O)C1CC2CC1C3C2C3(F)F

> <MDLNUMBER>
MFCD31665811

> <IUPAC Name>
3,3-difluorotricyclo[3.2.1.0,2,4]octane-6-carboxylic acid

> <CAS>
2167718-13-8

> <Purity>
95

> <URL>
https://www.enaminestore.com/catalog/EN300-367535

> <ROCS_ShapeQuery>
__x1247relevant_x1083L0AP1_x1305L0BP1_

> <ROCS_TanimotoCombo>
0.761 

> <ROCS_ShapeTanimoto>
0.494 

> <ROCS_ColorTanimoto>
0.267 

> <ROCS_RefTversky>
0.411 

> <ROCS_RefColorTversky>
0.343 

> <ROCS_RefTverskyCombo>
0.754 

> <ROCS_FitTversky>
1.683 

> <ROCS_FitColorTversky>
0.548 

> <ROCS_FitTverskyCombo>
2.231 

> <ROCS_ColorScore>
-11.363

> <ROCS_Overlap>
1210.023

> <ROCS_Rank>
31                  

$$$$
untitled-dbase-98636_12
  -OEChem-06232314393D

 40 42  0     1  0  0  0  0  0999 V2000
   -9.3003   14.3378  -36.9587 C   0  0  0  0  0  0  0  0  0  0  0  0
  -13.6527   15.5713  -39.4965 C   0  0  0  0  0  0  0  0  0  0  0  0
  -12.1033   16.8357  -37.9556 C   0  0  0  0  0  0  0  0  0  0  0  0
  -13.6822   15.1942  -37.0001 C   0  0  0  0  0  0  0  0  0  0  0  0
  -11.1686   15.1684  -39.2895 C   0  0  0  0  0  0  0  0  0  0  0  0
  -12.7541   13.5200  -38.3299 C   0  0  0  0  0  0  0  0  0  0  0  0
  -12.2565   16.2429  -39.3592 C   0  0  1  0  0  0  0  0  0  0  0  0
  -13.9005   14.5337  -38.3644 C   0  0  2  0  0  0  0  0  0  0  0  0
  -12.1934   15.5687  -37.0888 C   0  0  0  0  0  0  0  0  0  0  0  0
  -11.5651   14.4400  -37.9888 C   0  0  0  0  0  0  0  0  0  0  0  0
   -9.2360   14.3015  -34.3433 C   0  0  0  0  0  0  0  0  0  0  0  0
   -7.8414   12.2153  -34.4525 C   0  0  0  0  0  0  0  0  0  0  0  0
   -6.8140   14.4371  -35.0145 C   0  0  0  0  0  0  0  0  0  0  0  0
   -8.0875   13.5940  -35.0612 C   0  0  0  0  0  0  0  0  0  0  0  0
  -10.4743   13.7365  -37.3881 N   0  0  0  0  0  0  0  0  0  0  0  0
   -9.0488   15.5358  -37.0375 O   0  0  0  0  0  0  0  0  0  0  0  0
   -8.4566   13.4011  -36.4314 O   0  0  0  0  0  0  0  0  0  0  0  0
  -14.4325   16.3414  -39.4622 H   0  0  0  0  0  0  0  0  0  0  0  0
  -13.7234   15.0726  -40.4705 H   0  0  0  0  0  0  0  0  0  0  0  0
  -11.1244   17.3158  -37.8361 H   0  0  0  0  0  0  0  0  0  0  0  0
  -12.8734   17.5778  -37.7217 H   0  0  0  0  0  0  0  0  0  0  0  0
  -14.3384   16.0547  -36.8353 H   0  0  0  0  0  0  0  0  0  0  0  0
  -13.8510   14.4791  -36.1859 H   0  0  0  0  0  0  0  0  0  0  0  0
  -11.1629   14.5153  -40.1687 H   0  0  0  0  0  0  0  0  0  0  0  0
  -10.1765   15.6299  -39.2042 H   0  0  0  0  0  0  0  0  0  0  0  0
  -12.9238   12.7744  -37.5426 H   0  0  0  0  0  0  0  0  0  0  0  0
  -12.6337   12.9872  -39.2791 H   0  0  0  0  0  0  0  0  0  0  0  0
  -12.0785   16.9756  -40.1507 H   0  0  0  0  0  0  0  0  0  0  0  0
  -14.8817   14.0606  -38.4542 H   0  0  0  0  0  0  0  0  0  0  0  0
  -11.7333   15.6993  -36.1058 H   0  0  0  0  0  0  0  0  0  0  0  0
   -9.4158   15.2916  -34.7773 H   0  0  0  0  0  0  0  0  0  0  0  0
  -10.1641   13.7234  -34.3997 H   0  0  0  0  0  0  0  0  0  0  0  0
   -8.9945   14.4663  -33.2870 H   0  0  0  0  0  0  0  0  0  0  0  0
   -7.0182   11.7040  -34.9645 H   0  0  0  0  0  0  0  0  0  0  0  0
   -8.7228   11.5742  -34.5688 H   0  0  0  0  0  0  0  0  0  0  0  0
   -7.5991   12.2815  -33.3869 H   0  0  0  0  0  0  0  0  0  0  0  0
   -5.9901   13.9299  -35.5293 H   0  0  0  0  0  0  0  0  0  0  0  0
   -6.9616   15.4169  -35.4803 H   0  0  0  0  0  0  0  0  0  0  0  0
   -6.4853   14.5894  -33.9801 H   0  0  0  0  0  0  0  0  0  0  0  0
  -10.5657   12.7256  -37.2675 H   0  0  0  0  0  0  0  0  0  0  0  0
  1 15  1  0  0  0  0
  1 16  2  0  0  0  0
  1 17  1  0  0  0  0
  2  7  1  0  0  0  0
  2  8  1  0  0  0  0
  3  7  1  0  0  0  0
  3  9  1  0  0  0  0
  4  8  1  0  0  0  0
  4  9  1  0  0  0  0
  5  7  1  0  0  0  0
  5 10  1  0  0  0  0
  6  8  1  0  0  0  0
  6 10  1  0  0  0  0
  9 10  1  0  0  0  0
 10 15  1  0  0  0  0
 11 14  1  0  0  0  0
 12 14  1  0  0  0  0
 13 14  1  0  0  0  0
 14 17  1  0  0  0  0
  2 18  1  0  0  0  0
  2 19  1  0  0  0  0
  3 20  1  0  0  0  0
  3 21  1  0  0  0  0
  4 22  1  0  0  0  0
  4 23  1  0  0  0  0
  5 24  1  0  0  0  0
  5 25  1  0  0  0  0
  6 26  1  0  0  0  0
  6 27  1  0  0  0  0
  7 28  1  0  0  0  0
  8 29  1  0  0  0  0
  9 30  1  0  0  0  0
 11 31  1  0  0  0  0
 11 32  1  0  0  0  0
 11 33  1  0  0  0  0
 12 34  1  0  0  0  0
 12 35  1  0  0  0  0
 12 36  1  0  0  0  0
 13 37  1  0  0  0  0
 13 38  1  0  0  0  0
 13 39  1  0  0  0  0
 15 40  1  0  0  0  0
M  END
> <id>
EN300-37447151

> <smiles>
CC(C)(C)OC(=O)NC12CC3CC2CC(C1)C3

> <IUPAC Name>
tert-butyl N-{tricyclo[3.3.1.0,3,7]nonan-3-yl}carbamate

> <URL>
https://www.enaminestore.com/catalog/EN300-37447151

> <ROCS_ShapeQuery>
__x1247relevant_x1083L0AP1_x1305L0BP1_

> <ROCS_TanimotoCombo>
0.761 

> <ROCS_ShapeTanimoto>
0.486 

> <ROCS_ColorTanimoto>
0.275 

> <ROCS_RefTversky>
0.425 

> <ROCS_RefColorTversky>
0.372 

> <ROCS_RefTverskyCombo>
0.798 

> <ROCS_FitTversky>
1.418 

> <ROCS_FitColorTversky>
0.511 

> <ROCS_FitTverskyCombo>
1.929 

> <ROCS_ColorScore>
-12.421

> <ROCS_Overlap>
1254.492

> <ROCS_Rank>
32                  

$$$$
untitled-dbase-123296_1
  -OEChem-06232314393D

 22 24  0     1  0  0  0  0  0999 V2000
  -10.2208   14.4366  -36.8428 C   0  0  0  0  0  0  0  0  0  0  0  0
  -12.7268   14.4777  -36.7563 C   0  0  0  0  0  0  0  0  0  0  0  0
  -11.4766   14.2253  -37.6300 C   0  0  1  0  0  0  0  0  0  0  0  0
  -13.4122   15.6210  -37.5179 C   0  0  2  0  0  0  0  0  0  0  0  0
  -11.6305   15.2992  -38.7201 C   0  0  1  0  0  0  0  0  0  0  0  0
  -13.9634   15.0969  -38.8204 C   0  0  2  0  0  0  0  0  0  0  0  0
  -12.7467   14.8853  -39.6467 C   0  0  1  0  0  0  0  0  0  0  0  0
   -7.8654   14.4560  -37.0312 C   0  0  0  0  0  0  0  0  0  0  0  0
  -10.1974   14.7081  -35.6499 O   0  0  0  0  0  0  0  0  0  0  0  0
  -12.2415   16.3652  -37.9404 O   0  0  0  0  0  0  0  0  0  0  0  0
  -13.7150   15.8806  -39.9914 O   0  0  0  0  0  0  0  0  0  0  0  0
   -9.1396   14.2799  -37.6585 O   0  0  0  0  0  0  0  0  0  0  0  0
  -13.3636   13.5905  -36.6810 H   0  0  0  0  0  0  0  0  0  0  0  0
  -12.4486   14.7983  -35.7460 H   0  0  0  0  0  0  0  0  0  0  0  0
  -11.4574   13.2091  -38.0373 H   0  0  0  0  0  0  0  0  0  0  0  0
  -14.1025   16.2329  -36.9341 H   0  0  0  0  0  0  0  0  0  0  0  0
  -10.7152   15.6363  -39.2117 H   0  0  0  0  0  0  0  0  0  0  0  0
  -14.7492   14.3624  -38.7894 H   0  0  0  0  0  0  0  0  0  0  0  0
  -12.6232   13.9924  -40.2346 H   0  0  0  0  0  0  0  0  0  0  0  0
   -7.0722   14.3096  -37.7684 H   0  0  0  0  0  0  0  0  0  0  0  0
   -7.7571   13.7363  -36.2159 H   0  0  0  0  0  0  0  0  0  0  0  0
   -7.8039   15.4703  -36.6298 H   0  0  0  0  0  0  0  0  0  0  0  0
  1  3  1  0  0  0  0
  1  9  2  0  0  0  0
  1 12  1  0  0  0  0
  2  3  1  0  0  0  0
  2  4  1  0  0  0  0
  3  5  1  0  0  0  0
  4  6  1  0  0  0  0
  4 10  1  0  0  0  0
  5  7  1  0  0  0  0
  5 10  1  0  0  0  0
  6  7  1  0  0  0  0
  6 11  1  0  0  0  0
  7 11  1  0  0  0  0
  8 12  1  0  0  0  0
  2 13  1  0  0  0  0
  2 14  1  0  0  0  0
  3 15  1  0  0  0  0
  4 16  1  0  0  0  0
  5 17  1  0  0  0  0
  6 18  1  0  0  0  0
  7 19  1  0  0  0  0
  8 20  1  0  0  0  0
  8 21  1  0  0  0  0
  8 22  1  0  0  0  0
M  END
> <id>
EN300-718776

> <smiles>
COC(=O)C1CC2OC1C3OC32

> <MDLNUMBER>
MFCD00599873

> <IUPAC Name>
methyl 3,8-dioxatricyclo[3.2.1.0,2,4]octane-6-carboxylate

> <CAS>
827607-30-7

> <URL>
https://www.enaminestore.com/catalog/EN300-718776

> <ROCS_ShapeQuery>
__x1247relevant_x1083L0AP1_x1305L0BP1_

> <ROCS_TanimotoCombo>
0.761 

> <ROCS_ShapeTanimoto>
0.477 

> <ROCS_ColorTanimoto>
0.284 

> <ROCS_RefTversky>
0.398 

> <ROCS_RefColorTversky>
0.361 

> <ROCS_RefTverskyCombo>
0.759 

> <ROCS_FitTversky>
1.712 

> <ROCS_FitColorTversky>
0.570 

> <ROCS_FitTverskyCombo>
2.282 

> <ROCS_ColorScore>
-11.980

> <ROCS_Overlap>
1169.535

> <ROCS_Rank>
33                  

$$$$
untitled-dbase-180346_6
  -OEChem-06232314393D

 25 26  0     1  0  0  0  0  0999 V2000
  -10.4925   14.8713  -36.4167 C   0  0  0  0  0  0  0  0  0  0  0  0
  -11.7878   16.3487  -38.8462 C   0  0  0  0  0  0  0  0  0  0  0  0
  -13.8779   16.0715  -37.7618 C   0  0  0  0  0  0  0  0  0  0  0  0
  -11.8568   14.8235  -37.0265 C   0  0  1  0  0  0  0  0  0  0  0  0
  -12.3749   16.2059  -37.4444 C   0  0  1  0  0  0  0  0  0  0  0  0
  -12.3599   15.0132  -39.3048 C   0  0  2  0  0  0  0  0  0  0  0  0
  -13.8639   15.1750  -39.0133 C   0  0  2  0  0  0  0  0  0  0  0  0
   -8.2839   15.6149  -36.8082 C   0  0  0  0  0  0  0  0  0  0  0  0
  -11.7860   14.0803  -38.3060 N   0  0  0  0  0  0  0  0  0  0  0  0
  -10.2167   14.4100  -35.3175 O   0  0  0  0  0  0  0  0  0  0  0  0
  -14.5117   15.8409  -40.0878 O   0  0  0  0  0  0  0  0  0  0  0  0
   -9.6336   15.4987  -37.2698 O   0  0  0  0  0  0  0  0  0  0  0  0
  -12.1878   17.2074  -39.3962 H   0  0  0  0  0  0  0  0  0  0  0  0
  -10.6935   16.3874  -38.8668 H   0  0  0  0  0  0  0  0  0  0  0  0
  -14.4263   15.6077  -36.9355 H   0  0  0  0  0  0  0  0  0  0  0  0
  -14.3260   17.0500  -37.9678 H   0  0  0  0  0  0  0  0  0  0  0  0
  -12.5242   14.3164  -36.3220 H   0  0  0  0  0  0  0  0  0  0  0  0
  -12.1327   17.0199  -36.7579 H   0  0  0  0  0  0  0  0  0  0  0  0
  -12.1227   14.7478  -40.3380 H   0  0  0  0  0  0  0  0  0  0  0  0
  -14.3726   14.2202  -38.8417 H   0  0  0  0  0  0  0  0  0  0  0  0
   -7.6833   16.1297  -37.5621 H   0  0  0  0  0  0  0  0  0  0  0  0
   -7.8755   14.6190  -36.6193 H   0  0  0  0  0  0  0  0  0  0  0  0
   -8.2739   16.1927  -35.8810 H   0  0  0  0  0  0  0  0  0  0  0  0
  -10.8113   13.9053  -38.5525 H   0  0  0  0  0  0  0  0  0  0  0  0
  -14.4787   15.2411  -40.8508 H   0  0  0  0  0  0  0  0  0  0  0  0
  1  4  1  1  0  0  0
  1 10  2  0  0  0  0
  1 12  1  0  0  0  0
  2  5  1  0  0  0  0
  2  6  1  0  0  0  0
  3  5  1  6  0  0  0
  3  7  1  0  0  0  0
  4  5  1  0  0  0  0
  4  9  1  0  0  0  0
  6  7  1  0  0  0  0
  6  9  1  6  0  0  0
  7 11  1  1  0  0  0
  8 12  1  0  0  0  0
  2 13  1  0  0  0  0
  2 14  1  0  0  0  0
  3 15  1  0  0  0  0
  3 16  1  0  0  0  0
  4 17  1  0  0  0  0
  5 18  1  0  0  0  0
  6 19  1  0  0  0  0
  7 20  1  0  0  0  0
  8 21  1  0  0  0  0
  8 22  1  0  0  0  0
  8 23  1  0  0  0  0
  9 24  1  0  0  0  0
 11 25  1  0  0  0  0
M  END
> <id>
EN300-27727966

> <smiles>
COC(=O)[C@@H]1N[C@@H]2C[C@H]1C[C@H]2O |&1:4,6,8,10,r|

> <IUPAC Name>
rac-methyl (1R,3R,4S,6R)-6-hydroxy-2-azabicyclo[2.2.1]heptane-3-carboxylate

> <CAS>
2580103-67-7

> <URL>
https://www.enaminestore.com/catalog/EN300-27727966

> <ROCS_ShapeQuery>
__x1247relevant_x1083L0AP1_x1305L0BP1_

> <ROCS_TanimotoCombo>
0.760 

> <ROCS_ShapeTanimoto>
0.462 

> <ROCS_ColorTanimoto>
0.298 

> <ROCS_RefTversky>
0.387 

> <ROCS_RefColorTversky>
0.318 

> <ROCS_RefTverskyCombo>
0.705 

> <ROCS_FitTversky>
1.719 

> <ROCS_FitColorTversky>
0.832 

> <ROCS_FitTverskyCombo>
2.551 

> <ROCS_ColorScore>
-10.391

> <ROCS_Overlap>
1137.371

> <ROCS_Rank>
34                  

$$$$
untitled-dbase-144639_25
  -OEChem-06232314393D

 37 39  0     1  0  0  0  0  0999 V2000
   -9.9695   14.8342  -37.2424 C   0  0  0  0  0  0  0  0  0  0  0  0
  -13.5756   16.1643  -39.4079 C   0  0  0  0  0  0  0  0  0  0  0  0
  -13.0695   16.9103  -38.1591 C   0  0  0  0  0  0  0  0  0  0  0  0
  -13.4408   13.9715  -38.2232 C   0  0  0  0  0  0  0  0  0  0  0  0
  -13.0116   14.7301  -39.5025 C   0  0  2  0  0  0  0  0  0  0  0  0
  -12.2333   16.0424  -37.2610 C   0  0  1  0  0  0  0  0  0  0  0  0
  -12.5213   14.5689  -37.1924 C   0  0  2  0  0  0  0  0  0  0  0  0
  -11.4628   14.7265  -39.3612 C   0  0  2  0  0  0  0  0  0  0  0  0
  -11.2749   15.0444  -37.8873 C   0  0  2  0  0  0  0  0  0  0  0  0
  -10.3552   14.4187  -34.6989 C   0  0  0  0  0  0  0  0  0  0  0  0
  -10.2821   11.9465  -35.1374 C   0  0  0  0  0  0  0  0  0  0  0  0
   -8.1590   13.2877  -35.1807 C   0  0  0  0  0  0  0  0  0  0  0  0
   -9.6589   13.2999  -35.4723 C   0  0  0  0  0  0  0  0  0  0  0  0
  -10.7818   15.6745  -40.2266 N   0  0  0  0  0  0  0  0  0  0  0  0
   -9.1373   15.7157  -37.0767 O   0  0  0  0  0  0  0  0  0  0  0  0
   -9.8490   13.5275  -36.8724 O   0  0  0  0  0  0  0  0  0  0  0  0
  -14.6720   16.1241  -39.3835 H   0  0  0  0  0  0  0  0  0  0  0  0
  -13.3195   16.7379  -40.3067 H   0  0  0  0  0  0  0  0  0  0  0  0
  -12.4757   17.7787  -38.4674 H   0  0  0  0  0  0  0  0  0  0  0  0
  -13.9245   17.3002  -37.5947 H   0  0  0  0  0  0  0  0  0  0  0  0
  -14.4949   14.1231  -37.9719 H   0  0  0  0  0  0  0  0  0  0  0  0
  -13.2487   12.8975  -38.3228 H   0  0  0  0  0  0  0  0  0  0  0  0
  -13.3567   14.2377  -40.4167 H   0  0  0  0  0  0  0  0  0  0  0  0
  -11.9364   16.5480  -36.3510 H   0  0  0  0  0  0  0  0  0  0  0  0
  -12.4683   14.0471  -36.2507 H   0  0  0  0  0  0  0  0  0  0  0  0
  -11.0845   13.7161  -39.5640 H   0  0  0  0  0  0  0  0  0  0  0  0
   -9.9107   15.3918  -34.9366 H   0  0  0  0  0  0  0  0  0  0  0  0
  -11.4255   14.4605  -34.9260 H   0  0  0  0  0  0  0  0  0  0  0  0
  -10.2359   14.2800  -33.6183 H   0  0  0  0  0  0  0  0  0  0  0  0
   -9.7856   11.1408  -35.6901 H   0  0  0  0  0  0  0  0  0  0  0  0
  -11.3372   11.9189  -35.4329 H   0  0  0  0  0  0  0  0  0  0  0  0
  -10.2158   11.7249  -34.0673 H   0  0  0  0  0  0  0  0  0  0  0  0
   -7.6593   12.4852  -35.7353 H   0  0  0  0  0  0  0  0  0  0  0  0
   -7.6881   14.2388  -35.4496 H   0  0  0  0  0  0  0  0  0  0  0  0
   -7.9701   13.0935  -34.1187 H   0  0  0  0  0  0  0  0  0  0  0  0
   -9.8057   15.6319  -40.0390 H   0  0  0  0  0  0  0  0  0  0  0  0
  -10.9627   15.4269  -41.1730 H   0  0  0  0  0  0  0  0  0  0  0  0
  1  9  1  0  0  0  0
  1 15  2  0  0  0  0
  1 16  1  0  0  0  0
  2  3  1  0  0  0  0
  2  5  1  0  0  0  0
  3  6  1  0  0  0  0
  4  5  1  0  0  0  0
  4  7  1  0  0  0  0
  5  8  1  0  0  0  0
  6  7  1  0  0  0  0
  6  9  1  0  0  0  0
  7  9  1  0  0  0  0
  8  9  1  0  0  0  0
  8 14  1  0  0  0  0
 10 13  1  0  0  0  0
 11 13  1  0  0  0  0
 12 13  1  0  0  0  0
 13 16  1  0  0  0  0
  2 17  1  0  0  0  0
  2 18  1  0  0  0  0
  3 19  1  0  0  0  0
  3 20  1  0  0  0  0
  4 21  1  0  0  0  0
  4 22  1  0  0  0  0
  5 23  1  0  0  0  0
  6 24  1  0  0  0  0
  7 25  1  0  0  0  0
  8 26  1  0  0  0  0
 10 27  1  0  0  0  0
 10 28  1  0  0  0  0
 10 29  1  0  0  0  0
 11 30  1  0  0  0  0
 11 31  1  0  0  0  0
 11 32  1  0  0  0  0
 12 33  1  0  0  0  0
 12 34  1  0  0  0  0
 12 35  1  0  0  0  0
 14 36  1  0  0  0  0
 14 37  1  0  0  0  0
M  END
> <id>
EN300-27726702

> <smiles>
CC(C)(C)OC(=O)C1(C2CC3CCC21)C3N

> <IUPAC Name>
tert-butyl 8-aminotricyclo[3.2.1.0,2,7]octane-1-carboxylate

> <CAS>
2649046-71-7

> <URL>
https://www.enaminestore.com/catalog/EN300-27726702

> <ROCS_ShapeQuery>
__x1247relevant_x1083L0AP1_x1305L0BP1_

> <ROCS_TanimotoCombo>
0.760 

> <ROCS_ShapeTanimoto>
0.498 

> <ROCS_ColorTanimoto>
0.262 

> <ROCS_RefTversky>
0.427 

> <ROCS_RefColorTversky>
0.391 

> <ROCS_RefTverskyCombo>
0.818 

> <ROCS_FitTversky>
1.506 

> <ROCS_FitColorTversky>
0.441 

> <ROCS_FitTverskyCombo>
1.947 

> <ROCS_ColorScore>
-13.151

> <ROCS_Overlap>
1258.199

> <ROCS_Rank>
35                  

$$$$
untitled-dbase-142055_191
  -OEChem-06232314393D

 35 36  0     1  0  0  0  0  0999 V2000
  -10.4853   14.6391  -36.4646 C   0  0  0  0  0  0  0  0  0  0  0  0
  -11.7746   16.3504  -38.7290 C   0  0  0  0  0  0  0  0  0  0  0  0
  -11.8531   14.6518  -37.0697 C   0  0  1  0  0  0  0  0  0  0  0  0
  -12.3683   16.0717  -37.3501 C   0  0  2  0  0  0  0  0  0  0  0  0
  -12.3557   15.0693  -39.3184 C   0  0  2  0  0  0  0  0  0  0  0  0
  -13.8704   16.0132  -37.7022 C   0  0  1  0  0  0  0  0  0  0  0  0
  -13.8625   15.1973  -39.0081 C   0  0  1  0  0  0  0  0  0  0  0  0
   -7.6899   14.5968  -35.9351 C   0  0  0  0  0  0  0  0  0  0  0  0
   -7.4157   15.3645  -38.3110 C   0  0  0  0  0  0  0  0  0  0  0  0
   -8.6451   16.8083  -36.6641 C   0  0  0  0  0  0  0  0  0  0  0  0
   -8.3272   15.3745  -37.0857 C   0  0  0  0  0  0  0  0  0  0  0  0
  -11.7854   14.0396  -38.4170 N   0  0  0  0  0  0  0  0  0  0  0  0
  -10.2684   14.5622  -35.2629 O   0  0  0  0  0  0  0  0  0  0  0  0
  -14.6255   15.3813  -36.6863 O   0  0  0  0  0  0  0  0  0  0  0  0
  -14.4966   15.9281  -40.0495 O   0  0  0  0  0  0  0  0  0  0  0  0
   -9.5491   14.7258  -37.4521 O   0  0  0  0  0  0  0  0  0  0  0  0
  -12.1660   17.2615  -39.1942 H   0  0  0  0  0  0  0  0  0  0  0  0
  -10.6802   16.3818  -38.7432 H   0  0  0  0  0  0  0  0  0  0  0  0
  -12.5110   14.0714  -36.4159 H   0  0  0  0  0  0  0  0  0  0  0  0
  -12.1202   16.8031  -36.5774 H   0  0  0  0  0  0  0  0  0  0  0  0
  -12.1216   14.9051  -40.3731 H   0  0  0  0  0  0  0  0  0  0  0  0
  -14.2717   17.0227  -37.8529 H   0  0  0  0  0  0  0  0  0  0  0  0
  -14.3572   14.2233  -38.9224 H   0  0  0  0  0  0  0  0  0  0  0  0
   -8.3411   14.6016  -35.0537 H   0  0  0  0  0  0  0  0  0  0  0  0
   -7.4890   13.5571  -36.2134 H   0  0  0  0  0  0  0  0  0  0  0  0
   -6.7465   15.0606  -35.6250 H   0  0  0  0  0  0  0  0  0  0  0  0
   -7.8691   15.9214  -39.1390 H   0  0  0  0  0  0  0  0  0  0  0  0
   -7.2615   14.3421  -38.6745 H   0  0  0  0  0  0  0  0  0  0  0  0
   -6.4381   15.8054  -38.0909 H   0  0  0  0  0  0  0  0  0  0  0  0
   -9.1023   17.3664  -37.4892 H   0  0  0  0  0  0  0  0  0  0  0  0
   -9.3278   16.8352  -35.8086 H   0  0  0  0  0  0  0  0  0  0  0  0
   -7.7294   17.3477  -36.3960 H   0  0  0  0  0  0  0  0  0  0  0  0
  -10.8117   13.8846  -38.6803 H   0  0  0  0  0  0  0  0  0  0  0  0
  -15.5539   15.3819  -36.9767 H   0  0  0  0  0  0  0  0  0  0  0  0
  -14.3534   15.4284  -40.8695 H   0  0  0  0  0  0  0  0  0  0  0  0
  1  3  1  0  0  0  0
  1 13  2  0  0  0  0
  1 16  1  0  0  0  0
  2  4  1  0  0  0  0
  2  5  1  0  0  0  0
  3  4  1  0  0  0  0
  3 12  1  0  0  0  0
  4  6  1  0  0  0  0
  5  7  1  0  0  0  0
  5 12  1  0  0  0  0
  6  7  1  0  0  0  0
  6 14  1  0  0  0  0
  7 15  1  0  0  0  0
  8 11  1  0  0  0  0
  9 11  1  0  0  0  0
 10 11  1  0  0  0  0
 11 16  1  0  0  0  0
  2 17  1  0  0  0  0
  2 18  1  0  0  0  0
  3 19  1  0  0  0  0
  4 20  1  0  0  0  0
  5 21  1  0  0  0  0
  6 22  1  0  0  0  0
  7 23  1  0  0  0  0
  8 24  1  0  0  0  0
  8 25  1  0  0  0  0
  8 26  1  0  0  0  0
  9 27  1  0  0  0  0
  9 28  1  0  0  0  0
  9 29  1  0  0  0  0
 10 30  1  0  0  0  0
 10 31  1  0  0  0  0
 10 32  1  0  0  0  0
 12 33  1  0  0  0  0
 14 34  1  0  0  0  0
 15 35  1  0  0  0  0
M  END
> <id>
EN300-27727917

> <smiles>
CC(C)(C)OC(=O)C1NC2CC1C(O)C2O

> <IUPAC Name>
tert-butyl 5,6-dihydroxy-2-azabicyclo[2.2.1]heptane-3-carboxylate

> <CAS>
2580183-35-1

> <URL>
https://www.enaminestore.com/catalog/EN300-27727917

> <ROCS_ShapeQuery>
__x1247relevant_x1083L0AP1_x1305L0BP1_

> <ROCS_TanimotoCombo>
0.759 

> <ROCS_ShapeTanimoto>
0.483 

> <ROCS_ColorTanimoto>
0.276 

> <ROCS_RefTversky>
0.417 

> <ROCS_RefColorTversky>
0.318 

> <ROCS_RefTverskyCombo>
0.735 

> <ROCS_FitTversky>
1.481 

> <ROCS_FitColorTversky>
0.681 

> <ROCS_FitTverskyCombo>
2.162 

> <ROCS_ColorScore>
-10.439

> <ROCS_Overlap>
1229.868

> <ROCS_Rank>
36                  

$$$$
untitled-dbase-112657_5
  -OEChem-06232314393D

 31 33  0     1  0  0  0  0  0999 V2000
  -13.8786   15.1519  -37.2782 C   0  0  0  0  0  0  0  0  0  0  0  0
  -13.5900   13.9169  -38.1641 C   0  0  0  0  0  0  0  0  0  0  0  0
  -11.6832   16.4489  -37.4542 C   0  0  0  0  0  0  0  0  0  0  0  0
  -11.2004   14.3733  -38.9466 C   0  0  0  0  0  0  0  0  0  0  0  0
   -9.0158   15.2791  -36.3399 C   0  0  0  0  0  0  0  0  0  0  0  0
  -13.1575   16.3673  -37.8884 C   0  0  1  0  0  0  0  0  0  0  0  0
  -12.6900   14.3566  -39.3331 C   0  0  2  0  0  0  0  0  0  0  0  0
   -9.8403   14.1082  -35.8657 C   0  0  2  0  0  0  0  0  0  0  0  0
  -10.8690   15.1441  -37.6482 C   0  0  0  0  0  0  0  0  0  0  0  0
   -9.2545   12.7637  -36.2762 C   0  0  0  0  0  0  0  0  0  0  0  0
  -14.6049   16.0279  -40.0816 O   0  0  0  0  0  0  0  0  0  0  0  0
  -12.2040   16.7781  -40.3488 O   0  0  0  0  0  0  0  0  0  0  0  0
   -9.4676   15.4825  -37.6764 O   0  0  0  0  0  0  0  0  0  0  0  0
  -11.1038   14.2894  -36.5106 O   0  0  0  0  0  0  0  0  0  0  0  0
  -13.2245   16.0340  -39.6433 S   0  0  0  0  0  0  0  0  0  0  0  0
   -8.6250   12.8387  -37.9362 Cl  0  0  0  0  0  0  0  0  0  0  0  0
  -14.9609   15.3334  -37.2812 H   0  0  0  0  0  0  0  0  0  0  0  0
  -13.5984   14.9834  -36.2335 H   0  0  0  0  0  0  0  0  0  0  0  0
  -13.1549   13.0919  -37.5913 H   0  0  0  0  0  0  0  0  0  0  0  0
  -14.5439   13.5464  -38.5607 H   0  0  0  0  0  0  0  0  0  0  0  0
  -11.1910   17.2652  -37.9987 H   0  0  0  0  0  0  0  0  0  0  0  0
  -11.6490   16.7355  -36.3949 H   0  0  0  0  0  0  0  0  0  0  0  0
  -10.8589   13.3341  -38.8426 H   0  0  0  0  0  0  0  0  0  0  0  0
  -10.6176   14.7944  -39.7770 H   0  0  0  0  0  0  0  0  0  0  0  0
   -9.1675   16.1845  -35.7421 H   0  0  0  0  0  0  0  0  0  0  0  0
   -7.9422   15.0509  -36.3733 H   0  0  0  0  0  0  0  0  0  0  0  0
  -13.6816   17.3046  -37.6825 H   0  0  0  0  0  0  0  0  0  0  0  0
  -12.8572   13.7561  -40.2315 H   0  0  0  0  0  0  0  0  0  0  0  0
   -9.9981   14.1387  -34.7892 H   0  0  0  0  0  0  0  0  0  0  0  0
  -10.0167   11.9800  -36.2400 H   0  0  0  0  0  0  0  0  0  0  0  0
   -8.4300   12.4806  -35.6156 H   0  0  0  0  0  0  0  0  0  0  0  0
  1  2  1  0  0  0  0
  1  6  1  0  0  0  0
  2  7  1  0  0  0  0
  3  6  1  0  0  0  0
  3  9  1  0  0  0  0
  4  7  1  0  0  0  0
  4  9  1  0  0  0  0
  5  8  1  0  0  0  0
  5 13  1  0  0  0  0
  6 15  1  0  0  0  0
  7 15  1  0  0  0  0
  8 10  1  0  0  0  0
  8 14  1  0  0  0  0
  9 13  1  0  0  0  0
  9 14  1  0  0  0  0
 10 16  1  0  0  0  0
 11 15  2  0  0  0  0
 12 15  2  0  0  0  0
  1 17  1  0  0  0  0
  1 18  1  0  0  0  0
  2 19  1  0  0  0  0
  2 20  1  0  0  0  0
  3 21  1  0  0  0  0
  3 22  1  0  0  0  0
  4 23  1  0  0  0  0
  4 24  1  0  0  0  0
  5 25  1  0  0  0  0
  5 26  1  0  0  0  0
  6 27  1  0  0  0  0
  7 28  1  0  0  0  0
  8 29  1  0  0  0  0
 10 30  1  0  0  0  0
 10 31  1  0  0  0  0
M  END
> <id>
EN300-1614734

> <smiles>
ClCC1COC2(CC3CCC(C2)S3(=O)=O)O1

> <IUPAC Name>
4'-(chloromethyl)-8lambda6-thiaspiro[bicyclo[3.2.1]octane-3,2'-[1,3]dioxolane]-8,8-dione

> <CAS>
2172251-80-6

> <URL>
https://www.enaminestore.com/catalog/EN300-1614734

> <ROCS_ShapeQuery>
__x1247relevant_x1083L0AP1_x1305L0BP1_

> <ROCS_TanimotoCombo>
0.759 

> <ROCS_ShapeTanimoto>
0.519 

> <ROCS_ColorTanimoto>
0.240 

> <ROCS_RefTversky>
0.436 

> <ROCS_RefColorTversky>
0.263 

> <ROCS_RefTverskyCombo>
0.699 

> <ROCS_FitTversky>
1.585 

> <ROCS_FitColorTversky>
0.726 

> <ROCS_FitTverskyCombo>
2.312 

> <ROCS_ColorScore>
-8.614

> <ROCS_Overlap>
1283.090

> <ROCS_Rank>
37                  

$$$$
untitled-dbase-6874_0
  -OEChem-06232314393D

 30 34  0     1  0  0  0  0  0999 V2000
  -13.2691   15.6845  -40.3308 C   0  0  0  0  0  0  0  0  0  0  0  0
  -14.0724   15.4472  -36.7924 C   0  0  0  0  0  0  0  0  0  0  0  0
  -13.9984   15.0905  -39.1445 C   0  0  2  0  0  0  0  0  0  0  0  0
  -13.8637   16.2036  -38.0856 C   0  0  2  0  0  0  0  0  0  0  0  0
  -11.9651   15.8564  -39.5796 C   0  0  1  0  0  0  0  0  0  0  0  0
  -12.9199   14.4942  -37.0372 C   0  0  1  0  0  0  0  0  0  0  0  0
  -13.0368   14.0259  -38.5237 C   0  0  2  0  0  0  0  0  0  0  0  0
  -12.3295   16.4758  -38.1907 C   0  0  2  0  0  0  0  0  0  0  0  0
  -11.6443   14.4145  -39.1332 C   0  0  2  0  0  0  0  0  0  0  0  0
  -11.7158   15.4498  -37.1749 C   0  0  2  0  0  0  0  0  0  0  0  0
  -10.6889   14.6541  -37.9731 C   0  0  0  0  0  0  0  0  0  0  0  0
   -9.3077   13.7465  -36.2323 C   0  0  0  0  0  0  0  0  0  0  0  0
  -10.2069   13.4399  -37.3385 N   0  0  0  0  0  0  0  0  0  0  0  0
  -13.1896   14.9917  -41.1740 H   0  0  0  0  0  0  0  0  0  0  0  0
  -13.6972   16.6345  -40.6650 H   0  0  0  0  0  0  0  0  0  0  0  0
  -13.9305   16.0708  -35.9045 H   0  0  0  0  0  0  0  0  0  0  0  0
  -15.0412   14.9408  -36.7439 H   0  0  0  0  0  0  0  0  0  0  0  0
  -15.0203   14.7455  -39.3143 H   0  0  0  0  0  0  0  0  0  0  0  0
  -14.4996   17.0744  -38.2575 H   0  0  0  0  0  0  0  0  0  0  0  0
  -11.1541   16.3595  -40.1102 H   0  0  0  0  0  0  0  0  0  0  0  0
  -12.7974   13.6945  -36.3045 H   0  0  0  0  0  0  0  0  0  0  0  0
  -13.3344   12.9858  -38.6660 H   0  0  0  0  0  0  0  0  0  0  0  0
  -12.0259   17.5140  -38.0467 H   0  0  0  0  0  0  0  0  0  0  0  0
  -11.2989   13.7630  -39.9396 H   0  0  0  0  0  0  0  0  0  0  0  0
  -11.3779   15.8907  -36.2341 H   0  0  0  0  0  0  0  0  0  0  0  0
   -9.8344   15.2752  -38.2647 H   0  0  0  0  0  0  0  0  0  0  0  0
   -9.8376   14.3581  -35.4871 H   0  0  0  0  0  0  0  0  0  0  0  0
   -8.9696   12.8102  -35.7644 H   0  0  0  0  0  0  0  0  0  0  0  0
   -8.4373   14.3025  -36.6108 H   0  0  0  0  0  0  0  0  0  0  0  0
   -9.7082   12.8724  -38.0254 H   0  0  0  0  0  0  0  0  0  0  0  0
  1  3  1  0  0  0  0
  1  5  1  0  0  0  0
  2  4  1  0  0  0  0
  2  6  1  0  0  0  0
  3  4  1  0  0  0  0
  3  7  1  0  0  0  0
  4  8  1  0  0  0  0
  5  8  1  0  0  0  0
  5  9  1  0  0  0  0
  6  7  1  0  0  0  0
  6 10  1  0  0  0  0
  7  9  1  0  0  0  0
  8 10  1  0  0  0  0
  9 11  1  0  0  0  0
 10 11  1  0  0  0  0
 11 13  1  0  0  0  0
 12 13  1  0  0  0  0
  1 14  1  0  0  0  0
  1 15  1  0  0  0  0
  2 16  1  0  0  0  0
  2 17  1  0  0  0  0
  3 18  1  0  0  0  0
  4 19  1  0  0  0  0
  5 20  1  0  0  0  0
  6 21  1  0  0  0  0
  7 22  1  0  0  0  0
  8 23  1  0  0  0  0
  9 24  1  0  0  0  0
 10 25  1  0  0  0  0
 11 26  1  0  0  0  0
 12 27  1  0  0  0  0
 12 28  1  0  0  0  0
 12 29  1  0  0  0  0
 13 30  1  0  0  0  0
M  END
> <id>
EN300-101099

> <smiles>
CNC1C2C3CC4C5CC(C1C53)C42

> <MDLNUMBER>
MFCD22196384

> <IUPAC Name>
N-methylpentacyclo[6.3.0.0^{2,6}.0^{3,10}.0^{5,9}]undecan-4-amine

> <CAS>
93779-12-5

> <URL>
https://www.enaminestore.com/catalog/EN300-101099

> <ROCS_ShapeQuery>
__x1247relevant_x1083L0AP1_x1305L0BP1_

> <ROCS_TanimotoCombo>
0.758 

> <ROCS_ShapeTanimoto>
0.500 

> <ROCS_ColorTanimoto>
0.258 

> <ROCS_RefTversky>
0.420 

> <ROCS_RefColorTversky>
0.577 

> <ROCS_RefTverskyCombo>
0.997 

> <ROCS_FitTversky>
1.625 

> <ROCS_FitColorTversky>
0.318 

> <ROCS_FitTverskyCombo>
1.943 

> <ROCS_ColorScore>
-20.475

> <ROCS_Overlap>
1234.903

> <ROCS_Rank>
38                  

$$$$
untitled-dbase-56092_30
  -OEChem-06232314393D

 41 43  0     1  0  0  0  0  0999 V2000
  -12.4299   17.0762  -40.5269 C   0  0  0  0  0  0  0  0  0  0  0  0
   -9.8297   14.8174  -37.2093 C   0  0  0  0  0  0  0  0  0  0  0  0
  -12.9880   14.6844  -39.9557 C   0  0  0  0  0  0  0  0  0  0  0  0
  -11.9853   13.6953  -37.8934 C   0  0  0  0  0  0  0  0  0  0  0  0
  -11.9503   15.8340  -39.8364 C   0  0  2  0  0  0  0  0  0  0  0  0
  -13.3176   14.1303  -38.5437 C   0  0  1  0  0  0  0  0  0  0  0  0
  -11.6548   16.1199  -38.3406 C   0  0  1  0  0  0  0  0  0  0  0  0
  -13.9322   15.2754  -37.7598 C   0  0  2  0  0  0  0  0  0  0  0  0
  -12.9712   16.4244  -37.6423 C   0  0  1  0  0  0  0  0  0  0  0  0
  -10.0459   14.4852  -34.6182 C   0  0  0  0  0  0  0  0  0  0  0  0
   -9.6566   12.0255  -34.9460 C   0  0  0  0  0  0  0  0  0  0  0  0
   -7.7386   13.6338  -35.1533 C   0  0  0  0  0  0  0  0  0  0  0  0
  -14.1590   18.6867  -40.5112 C   0  0  0  0  0  0  0  0  0  0  0  0
   -9.2372   13.4307  -35.3723 C   0  0  0  0  0  0  0  0  0  0  0  0
  -11.0970   14.8688  -37.7806 N   0  0  0  0  0  0  0  0  0  0  0  0
  -11.8500   17.6059  -41.4652 O   0  0  0  0  0  0  0  0  0  0  0  0
   -9.0743   15.7810  -37.1053 O   0  0  0  0  0  0  0  0  0  0  0  0
  -13.3361   15.6310  -36.5077 O   0  0  0  0  0  0  0  0  0  0  0  0
  -13.5880   17.5020  -39.9469 O   0  0  0  0  0  0  0  0  0  0  0  0
   -9.5149   13.5580  -36.7714 O   0  0  0  0  0  0  0  0  0  0  0  0
  -13.9094   15.0236  -40.4451 H   0  0  0  0  0  0  0  0  0  0  0  0
  -12.5724   13.8826  -40.5784 H   0  0  0  0  0  0  0  0  0  0  0  0
  -12.1431   13.2875  -36.8882 H   0  0  0  0  0  0  0  0  0  0  0  0
  -11.4750   12.9324  -38.4921 H   0  0  0  0  0  0  0  0  0  0  0  0
  -11.0244   15.5459  -40.3452 H   0  0  0  0  0  0  0  0  0  0  0  0
  -14.0133   13.2880  -38.6059 H   0  0  0  0  0  0  0  0  0  0  0  0
  -10.9543   16.9515  -38.2133 H   0  0  0  0  0  0  0  0  0  0  0  0
  -14.9766   15.4732  -37.9430 H   0  0  0  0  0  0  0  0  0  0  0  0
  -13.3354   17.4360  -37.7318 H   0  0  0  0  0  0  0  0  0  0  0  0
   -9.7478   15.4953  -34.9214 H   0  0  0  0  0  0  0  0  0  0  0  0
  -11.1205   14.3721  -34.7949 H   0  0  0  0  0  0  0  0  0  0  0  0
   -9.8638   14.4200  -33.5394 H   0  0  0  0  0  0  0  0  0  0  0  0
   -9.0789   11.2657  -35.4847 H   0  0  0  0  0  0  0  0  0  0  0  0
  -10.7096   11.8421  -35.1886 H   0  0  0  0  0  0  0  0  0  0  0  0
   -9.5162   11.8706  -33.8714 H   0  0  0  0  0  0  0  0  0  0  0  0
   -7.1583   12.8776  -35.6942 H   0  0  0  0  0  0  0  0  0  0  0  0
   -7.4127   14.6240  -35.4879 H   0  0  0  0  0  0  0  0  0  0  0  0
   -7.4810   13.5220  -34.0939 H   0  0  0  0  0  0  0  0  0  0  0  0
  -15.0780   18.9394  -39.9767 H   0  0  0  0  0  0  0  0  0  0  0  0
  -14.3745   18.5199  -41.5696 H   0  0  0  0  0  0  0  0  0  0  0  0
  -13.4449   19.5076  -40.4117 H   0  0  0  0  0  0  0  0  0  0  0  0
  1  5  1  0  0  0  0
  1 16  2  0  0  0  0
  1 19  1  0  0  0  0
  2 15  1  0  0  0  0
  2 17  2  0  0  0  0
  2 20  1  0  0  0  0
  3  5  1  0  0  0  0
  3  6  1  0  0  0  0
  4  6  1  0  0  0  0
  4 15  1  0  0  0  0
  5  7  1  0  0  0  0
  6  8  1  0  0  0  0
  7  9  1  0  0  0  0
  7 15  1  0  0  0  0
  8  9  1  0  0  0  0
  8 18  1  0  0  0  0
  9 18  1  0  0  0  0
 10 14  1  0  0  0  0
 11 14  1  0  0  0  0
 12 14  1  0  0  0  0
 13 19  1  0  0  0  0
 14 20  1  0  0  0  0
  3 21  1  0  0  0  0
  3 22  1  0  0  0  0
  4 23  1  0  0  0  0
  4 24  1  0  0  0  0
  5 25  1  0  0  0  0
  6 26  1  0  0  0  0
  7 27  1  0  0  0  0
  8 28  1  0  0  0  0
  9 29  1  0  0  0  0
 10 30  1  0  0  0  0
 10 31  1  0  0  0  0
 10 32  1  0  0  0  0
 11 33  1  0  0  0  0
 11 34  1  0  0  0  0
 11 35  1  0  0  0  0
 12 36  1  0  0  0  0
 12 37  1  0  0  0  0
 12 38  1  0  0  0  0
 13 39  1  0  0  0  0
 13 40  1  0  0  0  0
 13 41  1  0  0  0  0
M  END
> <id>
EN300-1708474

> <smiles>
COC(=O)C1CC2CN(C1C3OC32)C(=O)OC(C)(C)C

> <IUPAC Name>
6-tert-butyl 9-methyl 3-oxa-6-azatricyclo[3.2.2.0,2,4]nonane-6,9-dicarboxylate

> <CAS>
2219418-94-5

> <URL>
https://www.enaminestore.com/catalog/EN300-1708474

> <ROCS_ShapeQuery>
__x1247relevant_x1083L0AP1_x1305L0BP1_

> <ROCS_TanimotoCombo>
0.758 

> <ROCS_ShapeTanimoto>
0.520 

> <ROCS_ColorTanimoto>
0.238 

> <ROCS_RefTversky>
0.460 

> <ROCS_RefColorTversky>
0.315 

> <ROCS_RefTverskyCombo>
0.774 

> <ROCS_FitTversky>
1.339 

> <ROCS_FitColorTversky>
0.494 

> <ROCS_FitTverskyCombo>
1.833 

> <ROCS_ColorScore>
-10.442

> <ROCS_Overlap>
1358.693

> <ROCS_Rank>
39                  

$$$$
untitled-dbase-122553_7
  -OEChem-06232314393D

 33 35  0     1  0  0  0  0  0999 V2000
  -13.8139   15.4072  -37.1780 C   0  0  0  0  0  0  0  0  0  0  0  0
  -13.5394   14.0370  -37.8418 C   0  0  0  0  0  0  0  0  0  0  0  0
  -11.6025   16.6296  -37.5629 C   0  0  0  0  0  0  0  0  0  0  0  0
  -11.1433   14.3263  -38.6820 C   0  0  0  0  0  0  0  0  0  0  0  0
   -8.9512   15.6331  -36.2581 C   0  0  0  0  0  0  0  0  0  0  0  0
  -13.0771   16.4934  -37.9821 C   0  0  1  0  0  0  0  0  0  0  0  0
  -12.6325   14.2623  -39.0651 C   0  0  2  0  0  0  0  0  0  0  0  0
   -9.7907   14.5689  -35.5959 C   0  0  2  0  0  0  0  0  0  0  0  0
  -10.8041   15.3012  -37.5312 C   0  0  0  0  0  0  0  0  0  0  0  0
   -9.2209   13.1675  -35.7716 C   0  0  0  0  0  0  0  0  0  0  0  0
   -9.7502   12.2889  -34.7770 N   0  0  0  0  0  0  0  0  0  0  0  0
  -14.5256   15.8059  -40.0915 O   0  0  0  0  0  0  0  0  0  0  0  0
  -12.1154   16.4716  -40.4733 O   0  0  0  0  0  0  0  0  0  0  0  0
   -9.3987   15.6133  -37.6114 O   0  0  0  0  0  0  0  0  0  0  0  0
  -11.0510   14.6536  -36.2665 O   0  0  0  0  0  0  0  0  0  0  0  0
  -13.1458   15.8695  -39.6558 S   0  0  0  0  0  0  0  0  0  0  0  0
  -14.8939   15.5984  -37.2153 H   0  0  0  0  0  0  0  0  0  0  0  0
  -13.5372   15.4141  -36.1189 H   0  0  0  0  0  0  0  0  0  0  0  0
  -13.1152   13.3154  -37.1364 H   0  0  0  0  0  0  0  0  0  0  0  0
  -14.4972   13.6162  -38.1734 H   0  0  0  0  0  0  0  0  0  0  0  0
  -11.0996   17.3364  -38.2357 H   0  0  0  0  0  0  0  0  0  0  0  0
  -11.5662   17.0905  -36.5671 H   0  0  0  0  0  0  0  0  0  0  0  0
  -10.8147   13.3156  -38.4029 H   0  0  0  0  0  0  0  0  0  0  0  0
  -10.5542   14.5942  -39.5695 H   0  0  0  0  0  0  0  0  0  0  0  0
   -9.0926   16.6282  -35.8223 H   0  0  0  0  0  0  0  0  0  0  0  0
   -7.8804   15.3897  -36.2489 H   0  0  0  0  0  0  0  0  0  0  0  0
  -13.5900   17.4582  -37.9391 H   0  0  0  0  0  0  0  0  0  0  0  0
  -12.8059   13.5207  -39.8499 H   0  0  0  0  0  0  0  0  0  0  0  0
   -9.9495   14.7825  -34.5406 H   0  0  0  0  0  0  0  0  0  0  0  0
   -9.4970   12.8147  -36.7684 H   0  0  0  0  0  0  0  0  0  0  0  0
   -8.1343   13.2317  -35.6749 H   0  0  0  0  0  0  0  0  0  0  0  0
   -9.0038   11.9001  -34.2316 H   0  0  0  0  0  0  0  0  0  0  0  0
  -10.3695   12.7931  -34.1704 H   0  0  0  0  0  0  0  0  0  0  0  0
  1  2  1  0  0  0  0
  1  6  1  0  0  0  0
  2  7  1  0  0  0  0
  3  6  1  0  0  0  0
  3  9  1  0  0  0  0
  4  7  1  0  0  0  0
  4  9  1  0  0  0  0
  5  8  1  0  0  0  0
  5 14  1  0  0  0  0
  6 16  1  0  0  0  0
  7 16  1  0  0  0  0
  8 10  1  0  0  0  0
  8 15  1  0  0  0  0
  9 14  1  0  0  0  0
  9 15  1  0  0  0  0
 10 11  1  0  0  0  0
 12 16  2  0  0  0  0
 13 16  2  0  0  0  0
  1 17  1  0  0  0  0
  1 18  1  0  0  0  0
  2 19  1  0  0  0  0
  2 20  1  0  0  0  0
  3 21  1  0  0  0  0
  3 22  1  0  0  0  0
  4 23  1  0  0  0  0
  4 24  1  0  0  0  0
  5 25  1  0  0  0  0
  5 26  1  0  0  0  0
  6 27  1  0  0  0  0
  7 28  1  0  0  0  0
  8 29  1  0  0  0  0
 10 30  1  0  0  0  0
 10 31  1  0  0  0  0
 11 32  1  0  0  0  0
 11 33  1  0  0  0  0
M  END
> <id>
EN300-1614855

> <smiles>
NCC1COC2(CC3CCC(C2)S3(=O)=O)O1

> <IUPAC Name>
4'-(aminomethyl)-8lambda6-thiaspiro[bicyclo[3.2.1]octane-3,2'-[1,3]dioxolane]-8,8-dione

> <CAS>
2172473-58-2

> <URL>
https://www.enaminestore.com/catalog/EN300-1614855

> <ROCS_ShapeQuery>
__x1247relevant_x1083L0AP1_x1305L0BP1_

> <ROCS_TanimotoCombo>
0.756 

> <ROCS_ShapeTanimoto>
0.511 

> <ROCS_ColorTanimoto>
0.245 

> <ROCS_RefTversky>
0.432 

> <ROCS_RefColorTversky>
0.279 

> <ROCS_RefTverskyCombo>
0.711 

> <ROCS_FitTversky>
1.558 

> <ROCS_FitColorTversky>
0.665 

> <ROCS_FitTverskyCombo>
2.223 

> <ROCS_ColorScore>
-9.154

> <ROCS_Overlap>
1273.463

> <ROCS_Rank>
40                  

$$$$
untitled-dbase-110727_18
  -OEChem-06232314393D

 32 34  0     1  0  0  0  0  0999 V2000
   -9.9838   15.2103  -36.5679 C   0  0  0  0  0  0  0  0  0  0  0  0
  -11.5458   16.7408  -38.6480 C   0  0  0  0  0  0  0  0  0  0  0  0
  -12.8928   15.9888  -36.6652 C   0  0  0  0  0  0  0  0  0  0  0  0
  -13.9177   15.9961  -38.9499 C   0  0  0  0  0  0  0  0  0  0  0  0
  -12.0302   14.5807  -39.8040 C   0  0  0  0  0  0  0  0  0  0  0  0
  -13.3838   13.8271  -37.8147 C   0  0  0  0  0  0  0  0  0  0  0  0
  -12.9468   16.7297  -38.0124 C   0  0  0  0  0  0  0  0  0  0  0  0
  -11.0382   15.2953  -38.8593 C   0  0  2  0  0  0  0  0  0  0  0  0
  -12.3926   14.5397  -36.8678 C   0  0  1  0  0  0  0  0  0  0  0  0
  -10.9742   14.5510  -37.4985 C   0  0  0  0  0  0  0  0  0  0  0  0
  -13.4352   14.5526  -39.1721 C   0  0  0  0  0  0  0  0  0  0  0  0
  -10.4317   13.1953  -37.6388 N   0  0  0  0  0  0  0  0  0  0  0  0
   -8.9810   15.8121  -36.9223 O   0  0  0  0  0  0  0  0  0  0  0  0
  -10.3564   15.0424  -35.2755 O   0  0  0  0  0  0  0  0  0  0  0  0
  -14.3442   13.8919  -40.0411 O   0  0  0  0  0  0  0  0  0  0  0  0
  -11.5797   17.2650  -39.6115 H   0  0  0  0  0  0  0  0  0  0  0  0
  -10.8522   17.3053  -38.0142 H   0  0  0  0  0  0  0  0  0  0  0  0
  -12.2425   16.5282  -35.9666 H   0  0  0  0  0  0  0  0  0  0  0  0
  -13.8909   15.9751  -36.2097 H   0  0  0  0  0  0  0  0  0  0  0  0
  -14.9322   15.9969  -38.5305 H   0  0  0  0  0  0  0  0  0  0  0  0
  -13.9947   16.5214  -39.9111 H   0  0  0  0  0  0  0  0  0  0  0  0
  -12.0690   15.0992  -40.7715 H   0  0  0  0  0  0  0  0  0  0  0  0
  -11.6956   13.5641  -40.0424 H   0  0  0  0  0  0  0  0  0  0  0  0
  -13.1240   12.7710  -37.9516 H   0  0  0  0  0  0  0  0  0  0  0  0
  -14.3863   13.8119  -37.3659 H   0  0  0  0  0  0  0  0  0  0  0  0
  -13.2910   17.7581  -37.8565 H   0  0  0  0  0  0  0  0  0  0  0  0
  -10.0469   15.3336  -39.3283 H   0  0  0  0  0  0  0  0  0  0  0  0
  -12.3822   14.0298  -35.8961 H   0  0  0  0  0  0  0  0  0  0  0  0
  -11.1170   12.5583  -37.3137 H   0  0  0  0  0  0  0  0  0  0  0  0
  -10.2334   13.0455  -38.5976 H   0  0  0  0  0  0  0  0  0  0  0  0
   -9.7239   15.4625  -34.6544 H   0  0  0  0  0  0  0  0  0  0  0  0
  -14.0118   12.9872  -40.1600 H   0  0  0  0  0  0  0  0  0  0  0  0
  1 10  1  0  0  0  0
  1 13  2  0  0  0  0
  1 14  1  0  0  0  0
  2  7  1  0  0  0  0
  2  8  1  0  0  0  0
  3  7  1  0  0  0  0
  3  9  1  0  0  0  0
  4  7  1  0  0  0  0
  4 11  1  0  0  0  0
  5  8  1  0  0  0  0
  5 11  1  0  0  0  0
  6  9  1  0  0  0  0
  6 11  1  0  0  0  0
  8 10  1  0  0  0  0
  9 10  1  0  0  0  0
 10 12  1  0  0  0  0
 11 15  1  0  0  0  0
  2 16  1  0  0  0  0
  2 17  1  0  0  0  0
  3 18  1  0  0  0  0
  3 19  1  0  0  0  0
  4 20  1  0  0  0  0
  4 21  1  0  0  0  0
  5 22  1  0  0  0  0
  5 23  1  0  0  0  0
  6 24  1  0  0  0  0
  6 25  1  0  0  0  0
  7 26  1  0  0  0  0
  8 27  1  0  0  0  0
  9 28  1  0  0  0  0
 12 29  1  0  0  0  0
 12 30  1  0  0  0  0
 14 31  1  0  0  0  0
 15 32  1  0  0  0  0
M  END
> <id>
EN300-295714

> <smiles>
NC1(C2CC3CC1CC(O)(C3)C2)C(=O)O

> <IUPAC Name>
2-amino-5-hydroxyadamantane-2-carboxylic acid

> <CAS>
908857-83-0

> <URL>
https://www.enaminestore.com/catalog/EN300-295714

> <ROCS_ShapeQuery>
__x1247relevant_x1083L0AP1_x1305L0BP1_

> <ROCS_TanimotoCombo>
0.755 

> <ROCS_ShapeTanimoto>
0.523 

> <ROCS_ColorTanimoto>
0.232 

> <ROCS_RefTversky>
0.437 

> <ROCS_RefColorTversky>
0.272 

> <ROCS_RefTverskyCombo>
0.709 

> <ROCS_FitTversky>
1.599 

> <ROCS_FitColorTversky>
0.616 

> <ROCS_FitTverskyCombo>
2.215 

> <ROCS_ColorScore>
-8.917

> <ROCS_Overlap>
1288.498

> <ROCS_Rank>
41                  

$$$$
untitled-dbase-110291_18
  -OEChem-06232314393D

 32 34  0     1  0  0  0  0  0999 V2000
   -9.9838   15.2103  -36.5679 C   0  0  0  0  0  0  0  0  0  0  0  0
  -11.5458   16.7408  -38.6480 C   0  0  0  0  0  0  0  0  0  0  0  0
  -12.8928   15.9888  -36.6652 C   0  0  0  0  0  0  0  0  0  0  0  0
  -13.9177   15.9961  -38.9499 C   0  0  0  0  0  0  0  0  0  0  0  0
  -12.0302   14.5807  -39.8040 C   0  0  0  0  0  0  0  0  0  0  0  0
  -13.3838   13.8271  -37.8147 C   0  0  0  0  0  0  0  0  0  0  0  0
  -12.9468   16.7297  -38.0124 C   0  0  0  0  0  0  0  0  0  0  0  0
  -11.0382   15.2953  -38.8593 C   0  0  2  0  0  0  0  0  0  0  0  0
  -12.3926   14.5397  -36.8678 C   0  0  1  0  0  0  0  0  0  0  0  0
  -10.9742   14.5510  -37.4985 C   0  0  0  0  0  0  0  0  0  0  0  0
  -13.4352   14.5526  -39.1721 C   0  0  0  0  0  0  0  0  0  0  0  0
  -10.4317   13.1953  -37.6388 N   0  0  0  0  0  0  0  0  0  0  0  0
   -8.9810   15.8121  -36.9223 O   0  0  0  0  0  0  0  0  0  0  0  0
  -10.3564   15.0424  -35.2755 O   0  0  0  0  0  0  0  0  0  0  0  0
  -14.3442   13.8919  -40.0411 O   0  0  0  0  0  0  0  0  0  0  0  0
  -11.5797   17.2650  -39.6115 H   0  0  0  0  0  0  0  0  0  0  0  0
  -10.8522   17.3053  -38.0142 H   0  0  0  0  0  0  0  0  0  0  0  0
  -12.2425   16.5282  -35.9666 H   0  0  0  0  0  0  0  0  0  0  0  0
  -13.8909   15.9751  -36.2097 H   0  0  0  0  0  0  0  0  0  0  0  0
  -14.9322   15.9969  -38.5305 H   0  0  0  0  0  0  0  0  0  0  0  0
  -13.9947   16.5214  -39.9111 H   0  0  0  0  0  0  0  0  0  0  0  0
  -12.0690   15.0992  -40.7715 H   0  0  0  0  0  0  0  0  0  0  0  0
  -11.6956   13.5641  -40.0424 H   0  0  0  0  0  0  0  0  0  0  0  0
  -13.1240   12.7710  -37.9516 H   0  0  0  0  0  0  0  0  0  0  0  0
  -14.3863   13.8119  -37.3659 H   0  0  0  0  0  0  0  0  0  0  0  0
  -13.2910   17.7581  -37.8565 H   0  0  0  0  0  0  0  0  0  0  0  0
  -10.0469   15.3336  -39.3283 H   0  0  0  0  0  0  0  0  0  0  0  0
  -12.3822   14.0298  -35.8961 H   0  0  0  0  0  0  0  0  0  0  0  0
  -11.1170   12.5583  -37.3137 H   0  0  0  0  0  0  0  0  0  0  0  0
  -10.2334   13.0455  -38.5976 H   0  0  0  0  0  0  0  0  0  0  0  0
   -9.7239   15.4625  -34.6544 H   0  0  0  0  0  0  0  0  0  0  0  0
  -14.0118   12.9872  -40.1600 H   0  0  0  0  0  0  0  0  0  0  0  0
  1 10  1  0  0  0  0
  1 13  2  0  0  0  0
  1 14  1  0  0  0  0
  2  7  1  0  0  0  0
  2  8  1  0  0  0  0
  3  7  1  0  0  0  0
  3  9  1  0  0  0  0
  4  7  1  0  0  0  0
  4 11  1  0  0  0  0
  5  8  1  0  0  0  0
  5 11  1  0  0  0  0
  6  9  1  0  0  0  0
  6 11  1  0  0  0  0
  8 10  1  0  0  0  0
  9 10  1  0  0  0  0
 10 12  1  0  0  0  0
 11 15  1  0  0  0  0
  2 16  1  0  0  0  0
  2 17  1  0  0  0  0
  3 18  1  0  0  0  0
  3 19  1  0  0  0  0
  4 20  1  0  0  0  0
  4 21  1  0  0  0  0
  5 22  1  0  0  0  0
  5 23  1  0  0  0  0
  6 24  1  0  0  0  0
  6 25  1  0  0  0  0
  7 26  1  0  0  0  0
  8 27  1  0  0  0  0
  9 28  1  0  0  0  0
 12 29  1  0  0  0  0
 12 30  1  0  0  0  0
 14 31  1  0  0  0  0
 15 32  1  0  0  0  0
M  END
> <id>
EN300-295713

> <smiles>
Cl.NC1(C2CC3CC1CC(O)(C3)C2)C(=O)O

> <IUPAC Name>
2-amino-5-hydroxyadamantane-2-carboxylic acid hydrochloride

> <CAS>
1212484-85-9

> <URL>
https://www.enaminestore.com/catalog/EN300-295713

> <Saltdate>
Cl

> <ROCS_ShapeQuery>
__x1247relevant_x1083L0AP1_x1305L0BP1_

> <ROCS_TanimotoCombo>
0.755 

> <ROCS_ShapeTanimoto>
0.523 

> <ROCS_ColorTanimoto>
0.232 

> <ROCS_RefTversky>
0.437 

> <ROCS_RefColorTversky>
0.272 

> <ROCS_RefTverskyCombo>
0.709 

> <ROCS_FitTversky>
1.599 

> <ROCS_FitColorTversky>
0.616 

> <ROCS_FitTverskyCombo>
2.215 

> <ROCS_ColorScore>
-8.917

> <ROCS_Overlap>
1288.498

> <ROCS_Rank>
42                  

$$$$
untitled-dbase-110598_18
  -OEChem-06232314393D

 32 34  0     1  0  0  0  0  0999 V2000
   -9.9837   15.2102  -36.5679 C   0  0  0  0  0  0  0  0  0  0  0  0
  -11.5459   16.7410  -38.6476 C   0  0  0  0  0  0  0  0  0  0  0  0
  -12.8932   15.9886  -36.6653 C   0  0  0  0  0  0  0  0  0  0  0  0
  -13.9178   15.9961  -38.9501 C   0  0  0  0  0  0  0  0  0  0  0  0
  -12.0299   14.5811  -39.8041 C   0  0  0  0  0  0  0  0  0  0  0  0
  -13.3838   13.8269  -37.8151 C   0  0  0  0  0  0  0  0  0  0  0  0
  -12.9471   16.7296  -38.0123 C   0  0  0  0  0  0  0  0  0  0  0  0
  -11.0380   15.2956  -38.8591 C   0  0  2  0  0  0  0  0  0  0  0  0
  -12.3927   14.5395  -36.8679 C   0  0  1  0  0  0  0  0  0  0  0  0
  -10.9742   14.5509  -37.4985 C   0  0  0  0  0  0  0  0  0  0  0  0
  -13.4350   14.5526  -39.1724 C   0  0  0  0  0  0  0  0  0  0  0  0
  -10.4317   13.1952  -37.6388 N   0  0  0  0  0  0  0  0  0  0  0  0
   -8.9810   15.8122  -36.9223 O   0  0  0  0  0  0  0  0  0  0  0  0
  -10.3562   15.0422  -35.2754 O   0  0  0  0  0  0  0  0  0  0  0  0
  -14.3438   13.8919  -40.0416 O   0  0  0  0  0  0  0  0  0  0  0  0
  -11.5805   17.2648  -39.6113 H   0  0  0  0  0  0  0  0  0  0  0  0
  -10.8521   17.3054  -38.0138 H   0  0  0  0  0  0  0  0  0  0  0  0
  -12.2431   16.5282  -35.9670 H   0  0  0  0  0  0  0  0  0  0  0  0
  -13.8912   15.9749  -36.2090 H   0  0  0  0  0  0  0  0  0  0  0  0
  -14.9324   15.9964  -38.5309 H   0  0  0  0  0  0  0  0  0  0  0  0
  -13.9948   16.5215  -39.9108 H   0  0  0  0  0  0  0  0  0  0  0  0
  -12.0688   15.1001  -40.7713 H   0  0  0  0  0  0  0  0  0  0  0  0
  -11.6949   13.5650  -40.0437 H   0  0  0  0  0  0  0  0  0  0  0  0
  -13.1233   12.7711  -37.9527 H   0  0  0  0  0  0  0  0  0  0  0  0
  -14.3863   13.8110  -37.3664 H   0  0  0  0  0  0  0  0  0  0  0  0
  -13.2917   17.7580  -37.8561 H   0  0  0  0  0  0  0  0  0  0  0  0
  -10.0470   15.3347  -39.3286 H   0  0  0  0  0  0  0  0  0  0  0  0
  -12.3818   14.0292  -35.8966 H   0  0  0  0  0  0  0  0  0  0  0  0
  -11.1170   12.5582  -37.3137 H   0  0  0  0  0  0  0  0  0  0  0  0
  -10.2334   13.0454  -38.5976 H   0  0  0  0  0  0  0  0  0  0  0  0
   -9.7237   15.4623  -34.6543 H   0  0  0  0  0  0  0  0  0  0  0  0
  -14.0113   12.9873  -40.1606 H   0  0  0  0  0  0  0  0  0  0  0  0
  1 10  1  0  0  0  0
  1 13  2  0  0  0  0
  1 14  1  0  0  0  0
  2  7  1  0  0  0  0
  2  8  1  0  0  0  0
  3  7  1  0  0  0  0
  3  9  1  0  0  0  0
  4  7  1  0  0  0  0
  4 11  1  0  0  0  0
  5  8  1  0  0  0  0
  5 11  1  0  0  0  0
  6  9  1  0  0  0  0
  6 11  1  0  0  0  0
  8 10  1  0  0  0  0
  9 10  1  0  0  0  0
 10 12  1  6  0  0  0
 11 15  1  6  0  0  0
  2 16  1  0  0  0  0
  2 17  1  0  0  0  0
  3 18  1  0  0  0  0
  3 19  1  0  0  0  0
  4 20  1  0  0  0  0
  4 21  1  0  0  0  0
  5 22  1  0  0  0  0
  5 23  1  0  0  0  0
  6 24  1  0  0  0  0
  6 25  1  0  0  0  0
  7 26  1  0  0  0  0
  8 27  1  0  0  0  0
  9 28  1  0  0  0  0
 12 29  1  0  0  0  0
 12 30  1  0  0  0  0
 14 31  1  0  0  0  0
 15 32  1  0  0  0  0
M  END
> <id>
EN300-88875

> <smiles>
Cl.N[C@]1(C2CC3CC1C[C@@](O)(C3)C2)C(=O)O

> <IUPAC Name>
(2r,5s)-2-amino-5-hydroxyadamantane-2-carboxylic acid hydrochloride

> <CAS>
1212484-85-9

> <URL>
https://www.enaminestore.com/catalog/EN300-88875

> <Saltdate>
Cl

> <ROCS_ShapeQuery>
__x1247relevant_x1083L0AP1_x1305L0BP1_

> <ROCS_TanimotoCombo>
0.755 

> <ROCS_ShapeTanimoto>
0.523 

> <ROCS_ColorTanimoto>
0.232 

> <ROCS_RefTversky>
0.437 

> <ROCS_RefColorTversky>
0.272 

> <ROCS_RefTverskyCombo>
0.709 

> <ROCS_FitTversky>
1.599 

> <ROCS_FitColorTversky>
0.616 

> <ROCS_FitTverskyCombo>
2.215 

> <ROCS_ColorScore>
-8.917

> <ROCS_Overlap>
1288.464

> <ROCS_Rank>
43                  

$$$$
untitled-dbase-110474_18
  -OEChem-06232314393D

 32 34  0     1  0  0  0  0  0999 V2000
   -9.9837   15.2102  -36.5679 C   0  0  0  0  0  0  0  0  0  0  0  0
  -11.5459   16.7410  -38.6476 C   0  0  0  0  0  0  0  0  0  0  0  0
  -12.8932   15.9886  -36.6653 C   0  0  0  0  0  0  0  0  0  0  0  0
  -13.9178   15.9961  -38.9501 C   0  0  0  0  0  0  0  0  0  0  0  0
  -12.0299   14.5811  -39.8041 C   0  0  0  0  0  0  0  0  0  0  0  0
  -13.3838   13.8269  -37.8151 C   0  0  0  0  0  0  0  0  0  0  0  0
  -12.9471   16.7296  -38.0123 C   0  0  0  0  0  0  0  0  0  0  0  0
  -11.0380   15.2956  -38.8591 C   0  0  2  0  0  0  0  0  0  0  0  0
  -12.3927   14.5395  -36.8679 C   0  0  1  0  0  0  0  0  0  0  0  0
  -10.9742   14.5509  -37.4985 C   0  0  0  0  0  0  0  0  0  0  0  0
  -13.4350   14.5526  -39.1724 C   0  0  0  0  0  0  0  0  0  0  0  0
  -10.4317   13.1952  -37.6388 N   0  0  0  0  0  0  0  0  0  0  0  0
   -8.9810   15.8122  -36.9223 O   0  0  0  0  0  0  0  0  0  0  0  0
  -10.3562   15.0422  -35.2754 O   0  0  0  0  0  0  0  0  0  0  0  0
  -14.3438   13.8919  -40.0416 O   0  0  0  0  0  0  0  0  0  0  0  0
  -11.5805   17.2648  -39.6113 H   0  0  0  0  0  0  0  0  0  0  0  0
  -10.8521   17.3054  -38.0138 H   0  0  0  0  0  0  0  0  0  0  0  0
  -12.2431   16.5282  -35.9670 H   0  0  0  0  0  0  0  0  0  0  0  0
  -13.8912   15.9749  -36.2090 H   0  0  0  0  0  0  0  0  0  0  0  0
  -14.9324   15.9964  -38.5309 H   0  0  0  0  0  0  0  0  0  0  0  0
  -13.9948   16.5215  -39.9108 H   0  0  0  0  0  0  0  0  0  0  0  0
  -12.0688   15.1001  -40.7713 H   0  0  0  0  0  0  0  0  0  0  0  0
  -11.6949   13.5650  -40.0437 H   0  0  0  0  0  0  0  0  0  0  0  0
  -13.1233   12.7711  -37.9527 H   0  0  0  0  0  0  0  0  0  0  0  0
  -14.3863   13.8110  -37.3664 H   0  0  0  0  0  0  0  0  0  0  0  0
  -13.2917   17.7580  -37.8561 H   0  0  0  0  0  0  0  0  0  0  0  0
  -10.0470   15.3347  -39.3286 H   0  0  0  0  0  0  0  0  0  0  0  0
  -12.3818   14.0292  -35.8966 H   0  0  0  0  0  0  0  0  0  0  0  0
  -11.1170   12.5582  -37.3137 H   0  0  0  0  0  0  0  0  0  0  0  0
  -10.2334   13.0454  -38.5976 H   0  0  0  0  0  0  0  0  0  0  0  0
   -9.7237   15.4623  -34.6543 H   0  0  0  0  0  0  0  0  0  0  0  0
  -14.0113   12.9873  -40.1606 H   0  0  0  0  0  0  0  0  0  0  0  0
  1 10  1  0  0  0  0
  1 13  2  0  0  0  0
  1 14  1  0  0  0  0
  2  7  1  0  0  0  0
  2  8  1  0  0  0  0
  3  7  1  0  0  0  0
  3  9  1  0  0  0  0
  4  7  1  0  0  0  0
  4 11  1  0  0  0  0
  5  8  1  0  0  0  0
  5 11  1  0  0  0  0
  6  9  1  0  0  0  0
  6 11  1  0  0  0  0
  8 10  1  0  0  0  0
  9 10  1  0  0  0  0
 10 12  1  6  0  0  0
 11 15  1  6  0  0  0
  2 16  1  0  0  0  0
  2 17  1  0  0  0  0
  3 18  1  0  0  0  0
  3 19  1  0  0  0  0
  4 20  1  0  0  0  0
  4 21  1  0  0  0  0
  5 22  1  0  0  0  0
  5 23  1  0  0  0  0
  6 24  1  0  0  0  0
  6 25  1  0  0  0  0
  7 26  1  0  0  0  0
  8 27  1  0  0  0  0
  9 28  1  0  0  0  0
 12 29  1  0  0  0  0
 12 30  1  0  0  0  0
 14 31  1  0  0  0  0
 15 32  1  0  0  0  0
M  END
> <id>
EN300-146822

> <smiles>
N[C@]1(C2CC3CC1C[C@@](O)(C3)C2)C(=O)O

> <IUPAC Name>
(2r,5s)-2-amino-5-hydroxyadamantane-2-carboxylic acid

> <URL>
https://www.enaminestore.com/catalog/EN300-146822

> <ROCS_ShapeQuery>
__x1247relevant_x1083L0AP1_x1305L0BP1_

> <ROCS_TanimotoCombo>
0.755 

> <ROCS_ShapeTanimoto>
0.523 

> <ROCS_ColorTanimoto>
0.232 

> <ROCS_RefTversky>
0.437 

> <ROCS_RefColorTversky>
0.272 

> <ROCS_RefTverskyCombo>
0.709 

> <ROCS_FitTversky>
1.599 

> <ROCS_FitColorTversky>
0.616 

> <ROCS_FitTverskyCombo>
2.215 

> <ROCS_ColorScore>
-8.917

> <ROCS_Overlap>
1288.464

> <ROCS_Rank>
44                  

$$$$
untitled-dbase-108876_3
  -OEChem-06232314393D

 28 30  0     1  0  0  0  0  0999 V2000
   -9.5630   15.9003  -40.6489 C   0  0  0  0  0  0  0  0  0  0  0  0
  -10.5477   15.7156  -39.9876 C   0  0  0  0  0  0  0  0  0  0  0  0
  -10.1801   14.7971  -37.1400 C   0  0  0  0  0  0  0  0  0  0  0  0
  -12.7444   14.4841  -39.7517 C   0  0  0  0  0  0  0  0  0  0  0  0
  -12.6918   16.6856  -39.0698 C   0  0  0  0  0  0  0  0  0  0  0  0
  -12.4857   13.8030  -37.5674 C   0  0  0  0  0  0  0  0  0  0  0  0
  -12.4299   16.0036  -36.8861 C   0  0  0  0  0  0  0  0  0  0  0  0
  -13.5488   14.4678  -38.4472 C   0  0  1  0  0  0  0  0  0  0  0  0
  -13.5111   15.9991  -37.9721 C   0  0  2  0  0  0  0  0  0  0  0  0
  -11.7364   15.4922  -39.1889 C   0  0  0  0  0  0  0  0  0  0  0  0
  -11.5543   15.0177  -37.6683 C   0  0  0  0  0  0  0  0  0  0  0  0
   -8.7915   13.1703  -36.1352 C   0  0  0  0  0  0  0  0  0  0  0  0
   -9.3022   15.6495  -37.1366 O   0  0  0  0  0  0  0  0  0  0  0  0
  -10.0701   13.5202  -36.6747 O   0  0  0  0  0  0  0  0  0  0  0  0
   -8.6896   16.0643  -41.2357 H   0  0  0  0  0  0  0  0  0  0  0  0
  -12.3030   13.5190  -40.0261 H   0  0  0  0  0  0  0  0  0  0  0  0
  -13.3199   14.8469  -40.6108 H   0  0  0  0  0  0  0  0  0  0  0  0
  -13.2720   16.8966  -39.9754 H   0  0  0  0  0  0  0  0  0  0  0  0
  -12.2044   17.6168  -38.7586 H   0  0  0  0  0  0  0  0  0  0  0  0
  -12.8373   13.5840  -36.5530 H   0  0  0  0  0  0  0  0  0  0  0  0
  -12.0565   12.8828  -37.9796 H   0  0  0  0  0  0  0  0  0  0  0  0
  -11.9535   16.9753  -36.7142 H   0  0  0  0  0  0  0  0  0  0  0  0
  -12.7842   15.6278  -35.9198 H   0  0  0  0  0  0  0  0  0  0  0  0
  -14.5240   13.9830  -38.4830 H   0  0  0  0  0  0  0  0  0  0  0  0
  -14.4629   16.4621  -37.7132 H   0  0  0  0  0  0  0  0  0  0  0  0
   -8.8112   12.1327  -35.7931 H   0  0  0  0  0  0  0  0  0  0  0  0
   -8.5524   13.8355  -35.3017 H   0  0  0  0  0  0  0  0  0  0  0  0
   -8.0344   13.2802  -36.9153 H   0  0  0  0  0  0  0  0  0  0  0  0
  1  2  3  0  0  0  0
  2 10  1  0  0  0  0
  3 11  1  0  0  0  0
  3 13  2  0  0  0  0
  3 14  1  0  0  0  0
  4  8  1  0  0  0  0
  4 10  1  0  0  0  0
  5  9  1  0  0  0  0
  5 10  1  0  0  0  0
  6  8  1  0  0  0  0
  6 11  1  0  0  0  0
  7  9  1  0  0  0  0
  7 11  1  0  0  0  0
  8  9  1  0  0  0  0
 10 11  1  0  0  0  0
 12 14  1  0  0  0  0
  1 15  1  0  0  0  0
  4 16  1  0  0  0  0
  4 17  1  0  0  0  0
  5 18  1  0  0  0  0
  5 19  1  0  0  0  0
  6 20  1  0  0  0  0
  6 21  1  0  0  0  0
  7 22  1  0  0  0  0
  7 23  1  0  0  0  0
  8 24  1  0  0  0  0
  9 25  1  0  0  0  0
 12 26  1  0  0  0  0
 12 27  1  0  0  0  0
 12 28  1  0  0  0  0
M  END
> <id>
EN300-26865954

> <smiles>
COC(=O)C12CC3CC2(CC3C1)C#C

> <MDLNUMBER>
MFCD32859388

> <IUPAC Name>
methyl 5-ethynyltricyclo[3.3.0.0,3,7]octane-1-carboxylate

> <CAS>
2445791-92-2

> <Purity>
95

> <URL>
https://www.enaminestore.com/catalog/EN300-26865954

> <ROCS_ShapeQuery>
__x1247relevant_x1083L0AP1_x1305L0BP1_

> <ROCS_TanimotoCombo>
0.755 

> <ROCS_ShapeTanimoto>
0.508 

> <ROCS_ColorTanimoto>
0.247 

> <ROCS_RefTversky>
0.425 

> <ROCS_RefColorTversky>
0.346 

> <ROCS_RefTverskyCombo>
0.771 

> <ROCS_FitTversky>
1.624 

> <ROCS_FitColorTversky>
0.462 

> <ROCS_FitTverskyCombo>
2.086 

> <ROCS_ColorScore>
-11.560

> <ROCS_Overlap>
1251.313

> <ROCS_Rank>
45                  

$$$$
untitled-dbase-123644_3
  -OEChem-06232314393D

 27 29  0     1  0  0  0  0  0999 V2000
  -10.5346   15.6240  -39.9948 C   0  0  0  0  0  0  0  0  0  0  0  0
  -10.1919   14.8081  -37.1130 C   0  0  0  0  0  0  0  0  0  0  0  0
  -12.7492   14.4327  -39.7234 C   0  0  0  0  0  0  0  0  0  0  0  0
  -12.6688   16.6573  -39.1243 C   0  0  0  0  0  0  0  0  0  0  0  0
  -12.5093   13.8306  -37.5139 C   0  0  0  0  0  0  0  0  0  0  0  0
  -12.4258   16.0543  -36.9154 C   0  0  0  0  0  0  0  0  0  0  0  0
  -13.5594   14.4765  -38.4231 C   0  0  1  0  0  0  0  0  0  0  0  0
  -13.5022   16.0239  -38.0056 C   0  0  2  0  0  0  0  0  0  0  0  0
  -11.7297   15.4471  -39.1940 C   0  0  0  0  0  0  0  0  0  0  0  0
  -11.5607   15.0277  -37.6558 C   0  0  0  0  0  0  0  0  0  0  0  0
   -8.8305   13.2012  -36.0414 C   0  0  0  0  0  0  0  0  0  0  0  0
   -9.5780   15.7657  -40.6359 N   0  0  0  0  0  0  0  0  0  0  0  0
   -9.3023   15.6478  -37.1375 O   0  0  0  0  0  0  0  0  0  0  0  0
  -10.1018   13.5482  -36.5997 O   0  0  0  0  0  0  0  0  0  0  0  0
  -12.3202   13.4520  -39.9593 H   0  0  0  0  0  0  0  0  0  0  0  0
  -13.3160   14.7709  -40.5983 H   0  0  0  0  0  0  0  0  0  0  0  0
  -13.2422   16.8421  -40.0400 H   0  0  0  0  0  0  0  0  0  0  0  0
  -12.1698   17.5927  -38.8459 H   0  0  0  0  0  0  0  0  0  0  0  0
  -12.8683   13.6547  -36.4937 H   0  0  0  0  0  0  0  0  0  0  0  0
  -12.0914   12.8897  -37.8892 H   0  0  0  0  0  0  0  0  0  0  0  0
  -11.9365   17.0250  -36.7778 H   0  0  0  0  0  0  0  0  0  0  0  0
  -12.7894   15.7199  -35.9373 H   0  0  0  0  0  0  0  0  0  0  0  0
  -14.5411   14.0042  -38.4454 H   0  0  0  0  0  0  0  0  0  0  0  0
  -14.4486   16.5094  -37.7687 H   0  0  0  0  0  0  0  0  0  0  0  0
   -8.8661   12.1776  -35.6607 H   0  0  0  0  0  0  0  0  0  0  0  0
   -8.5856   13.8939  -35.2323 H   0  0  0  0  0  0  0  0  0  0  0  0
   -8.0687   13.2712  -36.8214 H   0  0  0  0  0  0  0  0  0  0  0  0
  1  9  1  0  0  0  0
  1 12  3  0  0  0  0
  2 10  1  0  0  0  0
  2 13  2  0  0  0  0
  2 14  1  0  0  0  0
  3  7  1  0  0  0  0
  3  9  1  0  0  0  0
  4  8  1  0  0  0  0
  4  9  1  0  0  0  0
  5  7  1  0  0  0  0
  5 10  1  0  0  0  0
  6  8  1  0  0  0  0
  6 10  1  0  0  0  0
  7  8  1  0  0  0  0
  9 10  1  0  0  0  0
 11 14  1  0  0  0  0
  3 15  1  0  0  0  0
  3 16  1  0  0  0  0
  4 17  1  0  0  0  0
  4 18  1  0  0  0  0
  5 19  1  0  0  0  0
  5 20  1  0  0  0  0
  6 21  1  0  0  0  0
  6 22  1  0  0  0  0
  7 23  1  0  0  0  0
  8 24  1  0  0  0  0
 11 25  1  0  0  0  0
 11 26  1  0  0  0  0
 11 27  1  0  0  0  0
M  END
> <id>
EN300-26975753

> <smiles>
COC(=O)C12CC3CC2(CC3C1)C#N

> <IUPAC Name>
methyl 5-cyanotricyclo[3.3.0.0,3,7]octane-1-carboxylate

> <CAS>
2445793-75-7

> <URL>
https://www.enaminestore.com/catalog/EN300-26975753

> <ROCS_ShapeQuery>
__x1247relevant_x1083L0AP1_x1305L0BP1_

> <ROCS_TanimotoCombo>
0.754 

> <ROCS_ShapeTanimoto>
0.507 

> <ROCS_ColorTanimoto>
0.247 

> <ROCS_RefTversky>
0.425 

> <ROCS_RefColorTversky>
0.346 

> <ROCS_RefTverskyCombo>
0.771 

> <ROCS_FitTversky>
1.620 

> <ROCS_FitColorTversky>
0.462 

> <ROCS_FitTverskyCombo>
2.082 

> <ROCS_ColorScore>
-11.561

> <ROCS_Overlap>
1250.169

> <ROCS_Rank>
46                  

$$$$
untitled-dbase-59238_62
  -OEChem-06232314393D

 32 33  0     1  0  0  0  0  0999 V2000
  -12.2435   14.9142  -37.8457 C   0  0  0  0  0  0  0  0  0  0  0  0
   -9.0588   13.4396  -36.7221 C   0  0  0  0  0  0  0  0  0  0  0  0
   -8.3785   14.7595  -37.0824 C   0  0  0  0  0  0  0  0  0  0  0  0
  -10.4139   15.6792  -36.2631 C   0  0  0  0  0  0  0  0  0  0  0  0
  -11.2384   14.4868  -36.7892 C   0  0  2  0  0  0  0  0  0  0  0  0
  -15.9442   13.8957  -39.2882 C   0  0  0  0  0  0  0  0  0  0  0  0
  -14.2494   13.4024  -41.0949 C   0  0  0  0  0  0  0  0  0  0  0  0
  -15.3799   15.6117  -40.9940 C   0  0  0  0  0  0  0  0  0  0  0  0
  -14.7825   14.4788  -40.1231 C   0  0  0  0  0  0  0  0  0  0  0  0
  -12.3470   16.1961  -38.2979 N   0  0  0  0  0  0  0  0  0  0  0  0
  -13.0972   14.0630  -38.4201 N   0  0  0  0  0  0  0  0  0  0  0  0
  -13.3116   16.1854  -39.2094 N   0  0  0  0  0  0  0  0  0  0  0  0
  -13.7242   14.9108  -39.2477 N   0  0  0  0  0  0  0  0  0  0  0  0
  -10.3938   13.3959  -37.2998 N   0  0  0  0  0  0  0  0  0  0  0  0
   -9.2555   15.8888  -37.0657 O   0  0  0  0  0  0  0  0  0  0  0  0
   -8.4665   12.5998  -37.0938 H   0  0  0  0  0  0  0  0  0  0  0  0
   -9.1312   13.3402  -35.6349 H   0  0  0  0  0  0  0  0  0  0  0  0
   -7.5634   14.9650  -36.3590 H   0  0  0  0  0  0  0  0  0  0  0  0
   -7.8841   14.6999  -38.0774 H   0  0  0  0  0  0  0  0  0  0  0  0
  -11.0083   16.6045  -36.2267 H   0  0  0  0  0  0  0  0  0  0  0  0
  -10.0770   15.4788  -35.2375 H   0  0  0  0  0  0  0  0  0  0  0  0
  -11.8451   14.0791  -35.9356 H   0  0  0  0  0  0  0  0  0  0  0  0
  -16.3414   14.6407  -38.5892 H   0  0  0  0  0  0  0  0  0  0  0  0
  -16.7809   13.5672  -39.9139 H   0  0  0  0  0  0  0  0  0  0  0  0
  -15.6114   13.0306  -38.7030 H   0  0  0  0  0  0  0  0  0  0  0  0
  -13.4219   13.7716  -41.7099 H   0  0  0  0  0  0  0  0  0  0  0  0
  -13.8764   12.5275  -40.5500 H   0  0  0  0  0  0  0  0  0  0  0  0
  -15.0388   13.0622  -41.7752 H   0  0  0  0  0  0  0  0  0  0  0  0
  -14.6080   16.0767  -41.6191 H   0  0  0  0  0  0  0  0  0  0  0  0
  -16.1552   15.2348  -41.6712 H   0  0  0  0  0  0  0  0  0  0  0  0
  -15.8156   16.4073  -40.3784 H   0  0  0  0  0  0  0  0  0  0  0  0
  -10.3090   13.4905  -38.3179 H   0  0  0  0  0  0  0  0  0  0  0  0
  1  5  1  0  0  0  0
  1 10  1  0  0  0  0
  1 11  2  0  0  0  0
  2  3  1  0  0  0  0
  2 14  1  0  0  0  0
  3 15  1  0  0  0  0
  4  5  1  0  0  0  0
  4 15  1  0  0  0  0
  5 14  1  0  0  0  0
  6  9  1  0  0  0  0
  7  9  1  0  0  0  0
  8  9  1  0  0  0  0
  9 13  1  0  0  0  0
 10 12  2  0  0  0  0
 11 13  1  0  0  0  0
 12 13  1  0  0  0  0
  2 16  1  0  0  0  0
  2 17  1  0  0  0  0
  3 18  1  0  0  0  0
  3 19  1  0  0  0  0
  4 20  1  0  0  0  0
  4 21  1  0  0  0  0
  5 22  1  0  0  0  0
  6 23  1  0  0  0  0
  6 24  1  0  0  0  0
  6 25  1  0  0  0  0
  7 26  1  0  0  0  0
  7 27  1  0  0  0  0
  7 28  1  0  0  0  0
  8 29  1  0  0  0  0
  8 30  1  0  0  0  0
  8 31  1  0  0  0  0
 14 32  1  0  0  0  0
M  END
> <id>
EN300-1751998

> <smiles>
CC(C)(C)N1N=NC(=N1)C2COCCN2

> <IUPAC Name>
3-(2-tert-butyl-2H-1,2,3,4-tetrazol-5-yl)morpholine

> <CAS>
2228608-43-1

> <URL>
https://www.enaminestore.com/catalog/EN300-1751998

> <ROCS_ShapeQuery>
__x1247relevant_x1083L0AP1_x1305L0BP1_

> <ROCS_TanimotoCombo>
0.754 

> <ROCS_ShapeTanimoto>
0.495 

> <ROCS_ColorTanimoto>
0.259 

> <ROCS_RefTversky>
0.420 

> <ROCS_RefColorTversky>
0.272 

> <ROCS_RefTverskyCombo>
0.692 

> <ROCS_FitTversky>
1.571 

> <ROCS_FitColorTversky>
0.839 

> <ROCS_FitTverskyCombo>
2.409 

> <ROCS_ColorScore>
-8.882

> <ROCS_Overlap>
1235.797

> <ROCS_Rank>
47                  

$$$$
untitled-dbase-122645_5
  -OEChem-06232314393D

 30 32  0     1  0  0  0  0  0999 V2000
  -13.9618   15.8805  -39.0835 C   0  0  0  0  0  0  0  0  0  0  0  0
  -12.8423   16.8260  -38.6465 C   0  0  0  0  0  0  0  0  0  0  0  0
  -13.2171   14.1844  -37.3810 C   0  0  0  0  0  0  0  0  0  0  0  0
   -8.9995   13.3842  -37.4027 C   0  0  0  0  0  0  0  0  0  0  0  0
   -8.4352   14.7724  -37.7034 C   0  0  0  0  0  0  0  0  0  0  0  0
   -9.8228   15.3638  -35.8658 C   0  0  0  0  0  0  0  0  0  0  0  0
  -12.1112   15.1474  -36.9181 C   0  0  1  0  0  0  0  0  0  0  0  0
  -10.9227   14.3938  -36.3215 C   0  0  1  0  0  0  0  0  0  0  0  0
  -13.3226   14.5101  -38.8708 C   0  0  2  0  0  0  0  0  0  0  0  0
  -11.7416   15.8490  -38.2337 C   0  0  1  0  0  0  0  0  0  0  0  0
  -10.4525   13.4421  -37.3366 N   0  0  0  0  0  0  0  0  0  0  0  0
   -9.0764   15.8301  -36.9851 O   0  0  0  0  0  0  0  0  0  0  0  0
  -11.9415   14.7871  -39.1973 O   0  0  0  0  0  0  0  0  0  0  0  0
  -14.8852   16.0162  -38.5129 H   0  0  0  0  0  0  0  0  0  0  0  0
  -14.1833   16.0428  -40.1443 H   0  0  0  0  0  0  0  0  0  0  0  0
  -12.5195   17.4297  -39.5024 H   0  0  0  0  0  0  0  0  0  0  0  0
  -13.1406   17.5026  -37.8405 H   0  0  0  0  0  0  0  0  0  0  0  0
  -12.9165   13.1399  -37.2413 H   0  0  0  0  0  0  0  0  0  0  0  0
  -14.1614   14.3416  -36.8503 H   0  0  0  0  0  0  0  0  0  0  0  0
   -8.6905   12.6791  -38.1798 H   0  0  0  0  0  0  0  0  0  0  0  0
   -8.6054   13.0173  -36.4486 H   0  0  0  0  0  0  0  0  0  0  0  0
   -7.3587   14.8003  -37.4382 H   0  0  0  0  0  0  0  0  0  0  0  0
   -8.4791   14.9974  -38.7920 H   0  0  0  0  0  0  0  0  0  0  0  0
  -10.2337   16.2215  -35.3169 H   0  0  0  0  0  0  0  0  0  0  0  0
   -9.1256   14.8502  -35.1941 H   0  0  0  0  0  0  0  0  0  0  0  0
  -12.4834   15.8607  -36.1743 H   0  0  0  0  0  0  0  0  0  0  0  0
  -11.2934   13.8184  -35.4560 H   0  0  0  0  0  0  0  0  0  0  0  0
  -13.7462   13.7105  -39.4824 H   0  0  0  0  0  0  0  0  0  0  0  0
  -10.7317   16.2639  -38.2764 H   0  0  0  0  0  0  0  0  0  0  0  0
  -10.8188   13.7261  -38.2545 H   0  0  0  0  0  0  0  0  0  0  0  0
  1  2  1  0  0  0  0
  1  9  1  0  0  0  0
  2 10  1  0  0  0  0
  3  7  1  0  0  0  0
  3  9  1  0  0  0  0
  4  5  1  0  0  0  0
  4 11  1  0  0  0  0
  5 12  1  0  0  0  0
  6  8  1  0  0  0  0
  6 12  1  0  0  0  0
  7  8  1  0  0  0  0
  7 10  1  0  0  0  0
  8 11  1  0  0  0  0
  9 13  1  0  0  0  0
 10 13  1  0  0  0  0
  1 14  1  0  0  0  0
  1 15  1  0  0  0  0
  2 16  1  0  0  0  0
  2 17  1  0  0  0  0
  3 18  1  0  0  0  0
  3 19  1  0  0  0  0
  4 20  1  0  0  0  0
  4 21  1  0  0  0  0
  5 22  1  0  0  0  0
  5 23  1  0  0  0  0
  6 24  1  0  0  0  0
  6 25  1  0  0  0  0
  7 26  1  0  0  0  0
  8 27  1  0  0  0  0
  9 28  1  0  0  0  0
 10 29  1  0  0  0  0
 11 30  1  0  0  0  0
M  END
> <id>
EN300-1756188

> <smiles>
C1CC2OC1CC2C3COCCN3

> <IUPAC Name>
3-{7-oxabicyclo[2.2.1]heptan-2-yl}morpholine

> <CAS>
2228308-43-6

> <URL>
https://www.enaminestore.com/catalog/EN300-1756188

> <ROCS_ShapeQuery>
__x1247relevant_x1083L0AP1_x1305L0BP1_

> <ROCS_TanimotoCombo>
0.754 

> <ROCS_ShapeTanimoto>
0.490 

> <ROCS_ColorTanimoto>
0.263 

> <ROCS_RefTversky>
0.408 

> <ROCS_RefColorTversky>
0.288 

> <ROCS_RefTverskyCombo>
0.696 

> <ROCS_FitTversky>
1.695 

> <ROCS_FitColorTversky>
0.755 

> <ROCS_FitTverskyCombo>
2.450 

> <ROCS_ColorScore>
-9.424

> <ROCS_Overlap>
1200.479

> <ROCS_Rank>
48                  

$$$$
untitled-dbase-4167_7
  -OEChem-06232314393D

 33 35  0     1  0  0  0  0  0999 V2000
   -9.9917   15.2104  -36.5697 C   0  0  0  0  0  0  0  0  0  0  0  0
  -11.5502   16.7344  -38.6576 C   0  0  0  0  0  0  0  0  0  0  0  0
  -12.9038   15.9787  -36.6797 C   0  0  0  0  0  0  0  0  0  0  0  0
  -13.9226   15.9923  -38.9698 C   0  0  0  0  0  0  0  0  0  0  0  0
  -12.0302   14.5766  -39.8194 C   0  0  0  0  0  0  0  0  0  0  0  0
  -13.3968   13.8193  -37.8284 C   0  0  0  0  0  0  0  0  0  0  0  0
  -12.9517   16.7212  -38.0256 C   0  0  0  0  0  0  0  0  0  0  0  0
  -11.0413   15.2891  -38.8665 C   0  0  2  0  0  0  0  0  0  0  0  0
  -12.3997   14.5302  -36.8822 C   0  0  1  0  0  0  0  0  0  0  0  0
  -10.9761   14.5476  -37.5034 C   0  0  0  0  0  0  0  0  0  0  0  0
  -13.4439   14.5412  -39.1946 C   0  0  0  0  0  0  0  0  0  0  0  0
  -10.4313   13.1928  -37.6418 N   0  0  0  0  0  0  0  0  0  0  0  0
  -14.3664   13.8580  -40.1001 N   0  0  0  0  0  0  0  0  0  0  0  0
   -8.9900   15.8161  -36.9207 O   0  0  0  0  0  0  0  0  0  0  0  0
  -10.3680   15.0410  -35.2786 O   0  0  0  0  0  0  0  0  0  0  0  0
  -11.5816   17.2591  -39.6209 H   0  0  0  0  0  0  0  0  0  0  0  0
  -10.8584   17.2993  -38.0220 H   0  0  0  0  0  0  0  0  0  0  0  0
  -12.2572   16.5180  -35.9778 H   0  0  0  0  0  0  0  0  0  0  0  0
  -13.9037   15.9635  -36.2275 H   0  0  0  0  0  0  0  0  0  0  0  0
  -14.9328   16.0040  -38.5395 H   0  0  0  0  0  0  0  0  0  0  0  0
  -13.9810   16.5305  -39.9254 H   0  0  0  0  0  0  0  0  0  0  0  0
  -12.0545   15.1091  -40.7801 H   0  0  0  0  0  0  0  0  0  0  0  0
  -11.6797   13.5625  -40.0466 H   0  0  0  0  0  0  0  0  0  0  0  0
  -13.1236   12.7649  -37.9545 H   0  0  0  0  0  0  0  0  0  0  0  0
  -14.3939   13.8167  -37.3668 H   0  0  0  0  0  0  0  0  0  0  0  0
  -13.2959   17.7496  -37.8685 H   0  0  0  0  0  0  0  0  0  0  0  0
  -10.0489   15.3294  -39.3331 H   0  0  0  0  0  0  0  0  0  0  0  0
  -12.3914   14.0204  -35.9104 H   0  0  0  0  0  0  0  0  0  0  0  0
   -9.5197   13.2687  -38.0217 H   0  0  0  0  0  0  0  0  0  0  0  0
  -10.4077   12.7815  -36.7409 H   0  0  0  0  0  0  0  0  0  0  0  0
  -13.8560   13.5671  -40.8994 H   0  0  0  0  0  0  0  0  0  0  0  0
  -14.7463   13.0766  -39.6215 H   0  0  0  0  0  0  0  0  0  0  0  0
   -9.7392   15.4635  -34.6553 H   0  0  0  0  0  0  0  0  0  0  0  0
  1 10  1  0  0  0  0
  1 14  2  0  0  0  0
  1 15  1  0  0  0  0
  2  7  1  0  0  0  0
  2  8  1  0  0  0  0
  3  7  1  0  0  0  0
  3  9  1  0  0  0  0
  4  7  1  0  0  0  0
  4 11  1  0  0  0  0
  5  8  1  0  0  0  0
  5 11  1  0  0  0  0
  6  9  1  0  0  0  0
  6 11  1  0  0  0  0
  8 10  1  0  0  0  0
  9 10  1  0  0  0  0
 10 12  1  6  0  0  0
 11 13  1  6  0  0  0
  2 16  1  0  0  0  0
  2 17  1  0  0  0  0
  3 18  1  0  0  0  0
  3 19  1  0  0  0  0
  4 20  1  0  0  0  0
  4 21  1  0  0  0  0
  5 22  1  0  0  0  0
  5 23  1  0  0  0  0
  6 24  1  0  0  0  0
  6 25  1  0  0  0  0
  7 26  1  0  0  0  0
  8 27  1  0  0  0  0
  9 28  1  0  0  0  0
 12 29  1  0  0  0  0
 12 30  1  0  0  0  0
 13 31  1  0  0  0  0
 13 32  1  0  0  0  0
 15 33  1  0  0  0  0
M  END
> <id>
EN300-88876

> <smiles>
Cl.Cl.N[C@]1(C2CC3CC1C[C@@](N)(C3)C2)C(=O)O

> <IUPAC Name>
(2r,5s)-2,5-diaminoadamantane-2-carboxylic acid dihydrochloride

> <URL>
https://www.enaminestore.com/catalog/EN300-88876

> <Saltdate>
Cl

> <ROCS_ShapeQuery>
__x1247relevant_x1083L0AP1_x1305L0BP1_

> <ROCS_TanimotoCombo>
0.754 

> <ROCS_ShapeTanimoto>
0.523 

> <ROCS_ColorTanimoto>
0.231 

> <ROCS_RefTversky>
0.437 

> <ROCS_RefColorTversky>
0.270 

> <ROCS_RefTverskyCombo>
0.707 

> <ROCS_FitTversky>
1.602 

> <ROCS_FitColorTversky>
0.613 

> <ROCS_FitTverskyCombo>
2.216 

> <ROCS_ColorScore>
-8.876

> <ROCS_Overlap>
1286.758

> <ROCS_Rank>
49                  

$$$$
untitled-dbase-9976_7
  -OEChem-06232314393D

 33 35  0     1  0  0  0  0  0999 V2000
   -9.9917   15.2104  -36.5697 C   0  0  0  0  0  0  0  0  0  0  0  0
  -11.5502   16.7344  -38.6576 C   0  0  0  0  0  0  0  0  0  0  0  0
  -12.9038   15.9787  -36.6797 C   0  0  0  0  0  0  0  0  0  0  0  0
  -13.9226   15.9923  -38.9698 C   0  0  0  0  0  0  0  0  0  0  0  0
  -12.0302   14.5766  -39.8194 C   0  0  0  0  0  0  0  0  0  0  0  0
  -13.3968   13.8193  -37.8284 C   0  0  0  0  0  0  0  0  0  0  0  0
  -12.9517   16.7212  -38.0256 C   0  0  0  0  0  0  0  0  0  0  0  0
  -11.0413   15.2891  -38.8665 C   0  0  2  0  0  0  0  0  0  0  0  0
  -12.3997   14.5302  -36.8822 C   0  0  1  0  0  0  0  0  0  0  0  0
  -10.9761   14.5476  -37.5034 C   0  0  0  0  0  0  0  0  0  0  0  0
  -13.4439   14.5412  -39.1946 C   0  0  0  0  0  0  0  0  0  0  0  0
  -10.4313   13.1928  -37.6418 N   0  0  0  0  0  0  0  0  0  0  0  0
  -14.3664   13.8580  -40.1001 N   0  0  0  0  0  0  0  0  0  0  0  0
   -8.9900   15.8161  -36.9207 O   0  0  0  0  0  0  0  0  0  0  0  0
  -10.3680   15.0410  -35.2786 O   0  0  0  0  0  0  0  0  0  0  0  0
  -11.5816   17.2591  -39.6209 H   0  0  0  0  0  0  0  0  0  0  0  0
  -10.8584   17.2993  -38.0220 H   0  0  0  0  0  0  0  0  0  0  0  0
  -12.2572   16.5180  -35.9778 H   0  0  0  0  0  0  0  0  0  0  0  0
  -13.9037   15.9635  -36.2275 H   0  0  0  0  0  0  0  0  0  0  0  0
  -14.9328   16.0040  -38.5395 H   0  0  0  0  0  0  0  0  0  0  0  0
  -13.9810   16.5305  -39.9254 H   0  0  0  0  0  0  0  0  0  0  0  0
  -12.0545   15.1091  -40.7801 H   0  0  0  0  0  0  0  0  0  0  0  0
  -11.6797   13.5625  -40.0466 H   0  0  0  0  0  0  0  0  0  0  0  0
  -13.1236   12.7649  -37.9545 H   0  0  0  0  0  0  0  0  0  0  0  0
  -14.3939   13.8167  -37.3668 H   0  0  0  0  0  0  0  0  0  0  0  0
  -13.2959   17.7496  -37.8685 H   0  0  0  0  0  0  0  0  0  0  0  0
  -10.0489   15.3294  -39.3331 H   0  0  0  0  0  0  0  0  0  0  0  0
  -12.3914   14.0204  -35.9104 H   0  0  0  0  0  0  0  0  0  0  0  0
   -9.5197   13.2687  -38.0217 H   0  0  0  0  0  0  0  0  0  0  0  0
  -10.4077   12.7815  -36.7409 H   0  0  0  0  0  0  0  0  0  0  0  0
  -13.8560   13.5671  -40.8994 H   0  0  0  0  0  0  0  0  0  0  0  0
  -14.7463   13.0766  -39.6215 H   0  0  0  0  0  0  0  0  0  0  0  0
   -9.7392   15.4635  -34.6553 H   0  0  0  0  0  0  0  0  0  0  0  0
  1 10  1  0  0  0  0
  1 14  2  0  0  0  0
  1 15  1  0  0  0  0
  2  7  1  0  0  0  0
  2  8  1  0  0  0  0
  3  7  1  0  0  0  0
  3  9  1  0  0  0  0
  4  7  1  0  0  0  0
  4 11  1  0  0  0  0
  5  8  1  0  0  0  0
  5 11  1  0  0  0  0
  6  9  1  0  0  0  0
  6 11  1  0  0  0  0
  8 10  1  0  0  0  0
  9 10  1  0  0  0  0
 10 12  1  6  0  0  0
 11 13  1  6  0  0  0
  2 16  1  0  0  0  0
  2 17  1  0  0  0  0
  3 18  1  0  0  0  0
  3 19  1  0  0  0  0
  4 20  1  0  0  0  0
  4 21  1  0  0  0  0
  5 22  1  0  0  0  0
  5 23  1  0  0  0  0
  6 24  1  0  0  0  0
  6 25  1  0  0  0  0
  7 26  1  0  0  0  0
  8 27  1  0  0  0  0
  9 28  1  0  0  0  0
 12 29  1  0  0  0  0
 12 30  1  0  0  0  0
 13 31  1  0  0  0  0
 13 32  1  0  0  0  0
 15 33  1  0  0  0  0
M  END
> <id>
EN300-146823

> <smiles>
N[C@]1(C2CC3CC1C[C@@](N)(C3)C2)C(=O)O

> <IUPAC Name>
(2r,5s)-2,5-diaminoadamantane-2-carboxylic acid

> <CAS>
1822968-48-8

> <URL>
https://www.enaminestore.com/catalog/EN300-146823

> <ROCS_ShapeQuery>
__x1247relevant_x1083L0AP1_x1305L0BP1_

> <ROCS_TanimotoCombo>
0.754 

> <ROCS_ShapeTanimoto>
0.523 

> <ROCS_ColorTanimoto>
0.231 

> <ROCS_RefTversky>
0.437 

> <ROCS_RefColorTversky>
0.270 

> <ROCS_RefTverskyCombo>
0.707 

> <ROCS_FitTversky>
1.602 

> <ROCS_FitColorTversky>
0.613 

> <ROCS_FitTverskyCombo>
2.216 

> <ROCS_ColorScore>
-8.876

> <ROCS_Overlap>
1286.758

> <ROCS_Rank>
50                  

$$$$
untitled-dbase-143154_22
  -OEChem-06232314393D

 44 46  0     1  0  0  0  0  0999 V2000
   -8.9851   14.2352  -37.0379 C   0  0  0  0  0  0  0  0  0  0  0  0
  -14.1802   15.1443  -37.4091 C   0  0  0  0  0  0  0  0  0  0  0  0
  -12.7101   17.0562  -38.1004 C   0  0  0  0  0  0  0  0  0  0  0  0
  -11.8103   15.2631  -36.5947 C   0  0  0  0  0  0  0  0  0  0  0  0
  -12.4794   13.5165  -38.2757 C   0  0  0  0  0  0  0  0  0  0  0  0
  -11.0036   15.4368  -38.9705 C   0  0  0  0  0  0  0  0  0  0  0  0
  -13.0573   16.0915  -36.9541 C   0  0  0  0  0  0  0  0  0  0  0  0
  -13.7268   14.3412  -38.6436 C   0  0  2  0  0  0  0  0  0  0  0  0
  -12.2505   16.2622  -39.3388 C   0  0  1  0  0  0  0  0  0  0  0  0
  -13.3648   15.3008  -39.7944 C   0  0  0  0  0  0  0  0  0  0  0  0
  -11.3376   14.4552  -37.8243 C   0  0  0  0  0  0  0  0  0  0  0  0
   -8.6773   13.6505  -34.5063 C   0  0  0  0  0  0  0  0  0  0  0  0
   -7.2498   11.6962  -35.1787 C   0  0  0  0  0  0  0  0  0  0  0  0
   -6.3321   14.0287  -35.3378 C   0  0  0  0  0  0  0  0  0  0  0  0
   -7.5841   13.1605  -35.4547 C   0  0  0  0  0  0  0  0  0  0  0  0
  -10.1654   13.6791  -37.4799 N   0  0  0  0  0  0  0  0  0  0  0  0
   -8.7705   15.4325  -36.8796 O   0  0  0  0  0  0  0  0  0  0  0  0
  -14.5221   16.0268  -40.1954 O   0  0  0  0  0  0  0  0  0  0  0  0
   -8.0740   13.2455  -36.7976 O   0  0  0  0  0  0  0  0  0  0  0  0
  -14.4427   14.4580  -36.5942 H   0  0  0  0  0  0  0  0  0  0  0  0
  -15.0857   15.7188  -37.6383 H   0  0  0  0  0  0  0  0  0  0  0  0
  -13.5813   17.6750  -38.3466 H   0  0  0  0  0  0  0  0  0  0  0  0
  -11.9161   17.7434  -37.7826 H   0  0  0  0  0  0  0  0  0  0  0  0
  -11.0126   15.9328  -36.2481 H   0  0  0  0  0  0  0  0  0  0  0  0
  -12.0460   14.5880  -35.7617 H   0  0  0  0  0  0  0  0  0  0  0  0
  -12.7319   12.8086  -37.4755 H   0  0  0  0  0  0  0  0  0  0  0  0
  -12.1642   12.9209  -39.1423 H   0  0  0  0  0  0  0  0  0  0  0  0
  -10.6526   14.8875  -39.8538 H   0  0  0  0  0  0  0  0  0  0  0  0
  -10.1925   16.1133  -38.6710 H   0  0  0  0  0  0  0  0  0  0  0  0
  -13.3863   16.6613  -36.0780 H   0  0  0  0  0  0  0  0  0  0  0  0
  -14.5431   13.6781  -38.9527 H   0  0  0  0  0  0  0  0  0  0  0  0
  -12.0124   16.9685  -40.1426 H   0  0  0  0  0  0  0  0  0  0  0  0
  -13.0308   14.7224  -40.6644 H   0  0  0  0  0  0  0  0  0  0  0  0
   -8.9201   14.7012  -34.7012 H   0  0  0  0  0  0  0  0  0  0  0  0
   -9.5927   13.0579  -34.6054 H   0  0  0  0  0  0  0  0  0  0  0  0
   -8.3428   13.5988  -33.4639 H   0  0  0  0  0  0  0  0  0  0  0  0
   -6.4658   11.3404  -35.8569 H   0  0  0  0  0  0  0  0  0  0  0  0
   -8.1227   11.0569  -35.3537 H   0  0  0  0  0  0  0  0  0  0  0  0
   -6.9112   11.5463  -34.1484 H   0  0  0  0  0  0  0  0  0  0  0  0
   -5.5477   13.6775  -36.0180 H   0  0  0  0  0  0  0  0  0  0  0  0
   -6.5455   15.0774  -35.5687 H   0  0  0  0  0  0  0  0  0  0  0  0
   -5.9124   13.9731  -34.3269 H   0  0  0  0  0  0  0  0  0  0  0  0
  -10.2159   12.6702  -37.5687 H   0  0  0  0  0  0  0  0  0  0  0  0
  -14.2456   16.6134  -40.9170 H   0  0  0  0  0  0  0  0  0  0  0  0
  1 16  1  0  0  0  0
  1 17  2  0  0  0  0
  1 19  1  0  0  0  0
  2  7  1  0  0  0  0
  2  8  1  0  0  0  0
  3  7  1  0  0  0  0
  3  9  1  0  0  0  0
  4  7  1  0  0  0  0
  4 11  1  0  0  0  0
  5  8  1  0  0  0  0
  5 11  1  0  0  0  0
  6  9  1  0  0  0  0
  6 11  1  0  0  0  0
  8 10  1  0  0  0  0
  9 10  1  0  0  0  0
 10 18  1  0  0  0  0
 11 16  1  0  0  0  0
 12 15  1  0  0  0  0
 13 15  1  0  0  0  0
 14 15  1  0  0  0  0
 15 19  1  0  0  0  0
  2 20  1  0  0  0  0
  2 21  1  0  0  0  0
  3 22  1  0  0  0  0
  3 23  1  0  0  0  0
  4 24  1  0  0  0  0
  4 25  1  0  0  0  0
  5 26  1  0  0  0  0
  5 27  1  0  0  0  0
  6 28  1  0  0  0  0
  6 29  1  0  0  0  0
  7 30  1  0  0  0  0
  8 31  1  0  0  0  0
  9 32  1  0  0  0  0
 10 33  1  0  0  0  0
 12 34  1  0  0  0  0
 12 35  1  0  0  0  0
 12 36  1  0  0  0  0
 13 37  1  0  0  0  0
 13 38  1  0  0  0  0
 13 39  1  0  0  0  0
 14 40  1  0  0  0  0
 14 41  1  0  0  0  0
 14 42  1  0  0  0  0
 16 43  1  0  0  0  0
 18 44  1  0  0  0  0
M  END
> <id>
EN300-27718406

> <smiles>
CC(C)(C)OC(=O)NC1(CC2CC3C1)CC(C2)C3O

> <IUPAC Name>
tert-butyl N-(4-hydroxyadamantan-1-yl)carbamate

> <CAS>
2136254-89-0

> <URL>
https://www.enaminestore.com/catalog/EN300-27718406

> <ROCS_ShapeQuery>
__x1247relevant_x1083L0AP1_x1305L0BP1_

> <ROCS_TanimotoCombo>
0.754 

> <ROCS_ShapeTanimoto>
0.499 

> <ROCS_ColorTanimoto>
0.254 

> <ROCS_RefTversky>
0.442 

> <ROCS_RefColorTversky>
0.281 

> <ROCS_RefTverskyCombo>
0.722 

> <ROCS_FitTversky>
1.353 

> <ROCS_FitColorTversky>
0.730 

> <ROCS_FitTverskyCombo>
2.084 

> <ROCS_ColorScore>
-9.190

> <ROCS_Overlap>
1304.509

> <ROCS_Rank>
51                  

$$$$
untitled-dbase-167963_6
  -OEChem-06232314393D

 23 25  0     1  0  0  0  0  0999 V2000
  -10.1835   15.2517  -36.7481 C   0  0  0  0  0  0  0  0  0  0  0  0
  -14.0580   16.0223  -38.6559 C   0  0  0  0  0  0  0  0  0  0  0  0
  -13.9774   15.3469  -37.2732 C   0  0  0  0  0  0  0  0  0  0  0  0
  -12.4142   14.3753  -39.5878 C   0  0  0  0  0  0  0  0  0  0  0  0
  -12.7506   15.8798  -39.4565 C   0  0  2  0  0  0  0  0  0  0  0  0
  -12.6598   14.6642  -37.0323 C   0  0  1  0  0  0  0  0  0  0  0  0
  -11.9359   14.0466  -38.1964 C   0  0  2  0  0  0  0  0  0  0  0  0
  -11.3957   15.3023  -37.5740 C   0  0  2  0  0  0  0  0  0  0  0  0
  -11.5747   16.3846  -38.6040 C   0  0  0  0  0  0  0  0  0  0  0  0
   -9.1007   15.7239  -37.0611 O   0  0  0  0  0  0  0  0  0  0  0  0
  -10.4251   14.6036  -35.5824 O   0  0  0  0  0  0  0  0  0  0  0  0
  -10.4575   16.4973  -39.3615 F   0  0  0  0  0  0  0  0  0  0  0  0
  -11.8202   17.5871  -38.0456 F   0  0  0  0  0  0  0  0  0  0  0  0
  -14.8888   15.5862  -39.2242 H   0  0  0  0  0  0  0  0  0  0  0  0
  -14.3019   17.0838  -38.5266 H   0  0  0  0  0  0  0  0  0  0  0  0
  -14.1391   16.0972  -36.4905 H   0  0  0  0  0  0  0  0  0  0  0  0
  -14.7867   14.6138  -37.1773 H   0  0  0  0  0  0  0  0  0  0  0  0
  -13.2792   13.7717  -39.8786 H   0  0  0  0  0  0  0  0  0  0  0  0
  -11.6066   14.2159  -40.3107 H   0  0  0  0  0  0  0  0  0  0  0  0
  -12.8207   16.3767  -40.4278 H   0  0  0  0  0  0  0  0  0  0  0  0
  -12.6207   14.1542  -36.0783 H   0  0  0  0  0  0  0  0  0  0  0  0
  -11.4247   13.1046  -38.0834 H   0  0  0  0  0  0  0  0  0  0  0  0
   -9.6253   14.5575  -35.0162 H   0  0  0  0  0  0  0  0  0  0  0  0
  1  8  1  0  0  0  0
  1 10  2  0  0  0  0
  1 11  1  0  0  0  0
  2  3  1  0  0  0  0
  2  5  1  0  0  0  0
  3  6  1  0  0  0  0
  4  5  1  0  0  0  0
  4  7  1  0  0  0  0
  5  9  1  0  0  0  0
  6  7  1  0  0  0  0
  6  8  1  0  0  0  0
  7  8  1  0  0  0  0
  8  9  1  0  0  0  0
  9 12  1  0  0  0  0
  9 13  1  0  0  0  0
  2 14  1  0  0  0  0
  2 15  1  0  0  0  0
  3 16  1  0  0  0  0
  3 17  1  0  0  0  0
  4 18  1  0  0  0  0
  4 19  1  0  0  0  0
  5 20  1  0  0  0  0
  6 21  1  0  0  0  0
  7 22  1  0  0  0  0
 11 23  1  0  0  0  0
M  END
> <id>
EN300-7466734

> <smiles>
OC(=O)C1(C2CC3CCC21)C3(F)F

> <MDLNUMBER>
MFCD32219926

> <IUPAC Name>
8,8-difluorotricyclo[3.2.1.0,2,7]octane-1-carboxylic acid

> <CAS>
2649058-02-4

> <Purity>
95

> <URL>
https://www.enaminestore.com/catalog/EN300-7466734

> <ROCS_ShapeQuery>
__x1247relevant_x1083L0AP1_x1305L0BP1_

> <ROCS_TanimotoCombo>
0.753 

> <ROCS_ShapeTanimoto>
0.479 

> <ROCS_ColorTanimoto>
0.275 

> <ROCS_RefTversky>
0.404 

> <ROCS_RefColorTversky>
0.401 

> <ROCS_RefTverskyCombo>
0.805 

> <ROCS_FitTversky>
1.629 

> <ROCS_FitColorTversky>
0.466 

> <ROCS_FitTverskyCombo>
2.095 

> <ROCS_ColorScore>
-13.480

> <ROCS_Overlap>
1188.286

> <ROCS_Rank>
52                  

$$$$
untitled-dbase-67013_13
  -OEChem-06232314393D

 24 25  0     1  0  0  0  0  0999 V2000
  -10.0580   14.9782  -36.5673 C   0  0  0  0  0  0  0  0  0  0  0  0
  -12.9633   16.0248  -37.3614 C   0  0  0  0  0  0  0  0  0  0  0  0
  -10.8205   14.9102  -37.8487 C   0  0  2  0  0  0  0  0  0  0  0  0
  -11.6368   16.2030  -38.1184 C   0  0  1  0  0  0  0  0  0  0  0  0
  -12.1648   16.2639  -39.5712 C   0  0  2  0  0  0  0  0  0  0  0  0
  -13.3184   15.2403  -39.5945 C   0  0  1  0  0  0  0  0  0  0  0  0
  -13.4171   14.7757  -38.1316 C   0  0  1  0  0  0  0  0  0  0  0  0
  -10.5098   14.7006  -35.4663 O   0  0  0  0  0  0  0  0  0  0  0  0
  -11.8907   12.7233  -38.9164 O   0  0  0  0  0  0  0  0  0  0  0  0
  -12.2250   13.1251  -36.4414 O   0  0  0  0  0  0  0  0  0  0  0  0
   -8.7872   15.3949  -36.7879 O   0  0  0  0  0  0  0  0  0  0  0  0
  -11.1577   15.9435  -40.5130 O   0  0  0  0  0  0  0  0  0  0  0  0
  -14.5223   15.8986  -39.9714 O   0  0  0  0  0  0  0  0  0  0  0  0
  -12.0715   13.6196  -37.7943 S   0  0  0  0  0  0  0  0  0  0  0  0
  -12.8260   15.8489  -36.2901 H   0  0  0  0  0  0  0  0  0  0  0  0
  -13.6442   16.8726  -37.4966 H   0  0  0  0  0  0  0  0  0  0  0  0
  -10.1175   14.6798  -38.6530 H   0  0  0  0  0  0  0  0  0  0  0  0
  -11.0851   17.1060  -37.8419 H   0  0  0  0  0  0  0  0  0  0  0  0
  -12.5275   17.2749  -39.7949 H   0  0  0  0  0  0  0  0  0  0  0  0
  -13.1467   14.4269  -40.3055 H   0  0  0  0  0  0  0  0  0  0  0  0
  -14.3807   14.3710  -37.8213 H   0  0  0  0  0  0  0  0  0  0  0  0
   -8.2695   15.4480  -35.9564 H   0  0  0  0  0  0  0  0  0  0  0  0
  -11.5622   16.0029  -41.3954 H   0  0  0  0  0  0  0  0  0  0  0  0
  -14.3711   16.2712  -40.8546 H   0  0  0  0  0  0  0  0  0  0  0  0
  1  3  1  0  0  0  0
  1  8  2  0  0  0  0
  1 11  1  0  0  0  0
  2  4  1  0  0  0  0
  2  7  1  0  0  0  0
  3  4  1  0  0  0  0
  3 14  1  0  0  0  0
  4  5  1  0  0  0  0
  5  6  1  0  0  0  0
  5 12  1  0  0  0  0
  6  7  1  0  0  0  0
  6 13  1  0  0  0  0
  7 14  1  0  0  0  0
  9 14  2  0  0  0  0
 10 14  2  0  0  0  0
  2 15  1  0  0  0  0
  2 16  1  0  0  0  0
  3 17  1  0  0  0  0
  4 18  1  0  0  0  0
  5 19  1  0  0  0  0
  6 20  1  0  0  0  0
  7 21  1  0  0  0  0
 11 22  1  0  0  0  0
 12 23  1  0  0  0  0
 13 24  1  0  0  0  0
M  END
> <id>
EN300-27081549

> <smiles>
OC1C(O)C2CC1C(C(=O)O)S2(=O)=O

> <MDLNUMBER>
MFCD32710862

> <IUPAC Name>
5,6-dihydroxy-2,2-dioxo-2lambda6-thiabicyclo[2.2.1]heptane-3-carboxylic acid

> <CAS>
2470440-16-3

> <Purity>
95

> <URL>
https://www.enaminestore.com/catalog/EN300-27081549

> <ROCS_ShapeQuery>
__x1247relevant_x1083L0AP1_x1305L0BP1_

> <ROCS_TanimotoCombo>
0.753 

> <ROCS_ShapeTanimoto>
0.505 

> <ROCS_ColorTanimoto>
0.249 

> <ROCS_RefTversky>
0.418 

> <ROCS_RefColorTversky>
0.296 

> <ROCS_RefTverskyCombo>
0.715 

> <ROCS_FitTversky>
1.694 

> <ROCS_FitColorTversky>
0.606 

> <ROCS_FitTverskyCombo>
2.300 

> <ROCS_ColorScore>
-9.757

> <ROCS_Overlap>
1230.421

> <ROCS_Rank>
53                  

$$$$
untitled-dbase-181413_112
  -OEChem-06232314393D

 37 38  0     1  0  0  0  0  0999 V2000
  -13.2566   16.4501  -40.3048 C   0  0  0  0  0  0  0  0  0  0  0  0
   -9.8729   14.8553  -37.0225 C   0  0  0  0  0  0  0  0  0  0  0  0
  -12.8756   14.2761  -39.0355 C   0  0  0  0  0  0  0  0  0  0  0  0
  -11.2373   15.9824  -38.8191 C   0  0  0  0  0  0  0  0  0  0  0  0
  -13.2320   15.1665  -36.9152 C   0  0  0  0  0  0  0  0  0  0  0  0
  -12.7326   15.7880  -39.0778 C   0  0  1  0  0  0  0  0  0  0  0  0
  -12.2758   14.2054  -37.6313 C   0  0  1  0  0  0  0  0  0  0  0  0
  -12.1943   12.8083  -37.0577 C   0  0  0  0  0  0  0  0  0  0  0  0
   -9.8507   15.1249  -34.1746 C   0  0  0  0  0  0  0  0  0  0  0  0
   -9.4463   12.6463  -34.1273 C   0  0  0  0  0  0  0  0  0  0  0  0
   -7.7641   14.1675  -35.2062 C   0  0  0  0  0  0  0  0  0  0  0  0
   -9.2472   13.9358  -34.9208 C   0  0  0  0  0  0  0  0  0  0  0  0
  -11.0059   14.9420  -37.8130 N   0  0  0  0  0  0  0  0  0  0  0  0
  -12.5913   17.1237  -41.0775 O   0  0  0  0  0  0  0  0  0  0  0  0
   -8.9238   15.6333  -37.0629 O   0  0  0  0  0  0  0  0  0  0  0  0
  -13.4431   16.2204  -37.8997 O   0  0  0  0  0  0  0  0  0  0  0  0
  -14.5820   16.2069  -40.4512 O   0  0  0  0  0  0  0  0  0  0  0  0
   -9.9335   13.7849  -36.1686 O   0  0  0  0  0  0  0  0  0  0  0  0
  -13.9183   13.9394  -39.0735 H   0  0  0  0  0  0  0  0  0  0  0  0
  -12.2932   13.7504  -39.8003 H   0  0  0  0  0  0  0  0  0  0  0  0
  -10.6077   15.7810  -39.6917 H   0  0  0  0  0  0  0  0  0  0  0  0
  -10.9969   16.9632  -38.3965 H   0  0  0  0  0  0  0  0  0  0  0  0
  -14.2041   14.7133  -36.6941 H   0  0  0  0  0  0  0  0  0  0  0  0
  -12.8181   15.6001  -35.9994 H   0  0  0  0  0  0  0  0  0  0  0  0
  -11.7574   12.8297  -36.0551 H   0  0  0  0  0  0  0  0  0  0  0  0
  -11.5724   12.1689  -37.6911 H   0  0  0  0  0  0  0  0  0  0  0  0
  -13.1908   12.3622  -36.9902 H   0  0  0  0  0  0  0  0  0  0  0  0
   -9.7099   16.0525  -34.7409 H   0  0  0  0  0  0  0  0  0  0  0  0
  -10.9218   14.9866  -33.9946 H   0  0  0  0  0  0  0  0  0  0  0  0
   -9.3539   15.2737  -33.2091 H   0  0  0  0  0  0  0  0  0  0  0  0
   -9.0148   11.7905  -34.6590 H   0  0  0  0  0  0  0  0  0  0  0  0
  -10.5126   12.4259  -34.0018 H   0  0  0  0  0  0  0  0  0  0  0  0
   -8.9857   12.7066  -33.1360 H   0  0  0  0  0  0  0  0  0  0  0  0
   -7.3310   13.3148  -35.7414 H   0  0  0  0  0  0  0  0  0  0  0  0
   -7.6050   15.0692  -35.8064 H   0  0  0  0  0  0  0  0  0  0  0  0
   -7.1984   14.2663  -34.2726 H   0  0  0  0  0  0  0  0  0  0  0  0
  -14.9336   15.6455  -39.7276 H   0  0  0  0  0  0  0  0  0  0  0  0
  1  6  1  0  0  0  0
  1 14  2  0  0  0  0
  1 17  1  0  0  0  0
  2 13  1  0  0  0  0
  2 15  2  0  0  0  0
  2 18  1  0  0  0  0
  3  6  1  0  0  0  0
  3  7  1  0  0  0  0
  4  6  1  0  0  0  0
  4 13  1  0  0  0  0
  5  7  1  0  0  0  0
  5 16  1  0  0  0  0
  6 16  1  0  0  0  0
  7  8  1  0  0  0  0
  7 13  1  0  0  0  0
  9 12  1  0  0  0  0
 10 12  1  0  0  0  0
 11 12  1  0  0  0  0
 12 18  1  0  0  0  0
  3 19  1  0  0  0  0
  3 20  1  0  0  0  0
  4 21  1  0  0  0  0
  4 22  1  0  0  0  0
  5 23  1  0  0  0  0
  5 24  1  0  0  0  0
  8 25  1  0  0  0  0
  8 26  1  0  0  0  0
  8 27  1  0  0  0  0
  9 28  1  0  0  0  0
  9 29  1  0  0  0  0
  9 30  1  0  0  0  0
 10 31  1  0  0  0  0
 10 32  1  0  0  0  0
 10 33  1  0  0  0  0
 11 34  1  0  0  0  0
 11 35  1  0  0  0  0
 11 36  1  0  0  0  0
 17 37  1  0  0  0  0
M  END
> <id>
EN300-45274164

> <smiles>
CC(C)(C)OC(=O)N1CC2(CC1(C)CO2)C(=O)O

> <IUPAC Name>
5-[(tert-butoxy)carbonyl]-4-methyl-2-oxa-5-azabicyclo[2.2.1]heptane-1-carboxylic acid

> <Purity>
95

> <URL>
https://www.enaminestore.com/catalog/EN300-45274164

> <ROCS_ShapeQuery>
__x1247relevant_x1083L0AP1_x1305L0BP1_

> <ROCS_TanimotoCombo>
0.753 

> <ROCS_ShapeTanimoto>
0.532 

> <ROCS_ColorTanimoto>
0.221 

> <ROCS_RefTversky>
0.457 

> <ROCS_RefColorTversky>
0.256 

> <ROCS_RefTverskyCombo>
0.713 

> <ROCS_FitTversky>
1.447 

> <ROCS_FitColorTversky>
0.621 

> <ROCS_FitTverskyCombo>
2.067 

> <ROCS_ColorScore>
-8.391

> <ROCS_Overlap>
1348.579

> <ROCS_Rank>
54                  

$$$$
untitled-dbase-14726_10
  -OEChem-06232314393D

 34 36  0     1  0  0  0  0  0999 V2000
  -10.1333   14.7603  -37.5473 C   0  0  0  0  0  0  0  0  0  0  0  0
  -14.1339   14.2981  -37.2938 C   0  0  0  0  0  0  0  0  0  0  0  0
  -13.1785   15.1177  -36.4209 C   0  0  0  0  0  0  0  0  0  0  0  0
  -12.2332   13.9943  -38.8226 C   0  0  0  0  0  0  0  0  0  0  0  0
  -12.3994   16.5953  -39.7976 C   0  0  0  0  0  0  0  0  0  0  0  0
  -13.6377   14.6217  -38.7061 C   0  0  2  0  0  0  0  0  0  0  0  0
  -11.3674   15.1574  -38.2860 C   0  0  1  0  0  0  0  0  0  0  0  0
  -12.3846   15.9824  -37.4312 C   0  0  1  0  0  0  0  0  0  0  0  0
  -13.3269   16.1498  -38.6424 C   0  0  1  0  0  0  0  0  0  0  0  0
  -11.8585   17.2598  -36.7799 C   0  0  0  0  0  0  0  0  0  0  0  0
  -14.5382   17.0566  -38.4898 C   0  0  0  0  0  0  0  0  0  0  0  0
  -11.0669   16.1346  -39.3556 N   0  0  1  0  0  0  0  0  0  0  0  0
   -9.9547   13.4000  -37.4569 N   0  0  0  0  0  0  0  0  0  0  0  0
  -10.3597   15.5474  -40.4506 N   0  0  0  0  0  0  0  0  0  0  0  0
   -9.3536   15.5897  -37.0854 O   0  0  0  0  0  0  0  0  0  0  0  0
  -14.0893   13.2300  -37.0573 H   0  0  0  0  0  0  0  0  0  0  0  0
  -15.1700   14.6223  -37.1508 H   0  0  0  0  0  0  0  0  0  0  0  0
  -13.7549   15.7294  -35.7177 H   0  0  0  0  0  0  0  0  0  0  0  0
  -12.5138   14.4736  -35.8353 H   0  0  0  0  0  0  0  0  0  0  0  0
  -12.1244   13.0794  -38.2283 H   0  0  0  0  0  0  0  0  0  0  0  0
  -12.0164   13.7120  -39.8563 H   0  0  0  0  0  0  0  0  0  0  0  0
  -12.7349   16.1589  -40.7472 H   0  0  0  0  0  0  0  0  0  0  0  0
  -12.3751   17.6851  -39.9071 H   0  0  0  0  0  0  0  0  0  0  0  0
  -14.3237   14.3097  -39.4968 H   0  0  0  0  0  0  0  0  0  0  0  0
  -11.3058   17.8466  -37.5118 H   0  0  0  0  0  0  0  0  0  0  0  0
  -11.1972   17.0069  -35.9528 H   0  0  0  0  0  0  0  0  0  0  0  0
  -12.6910   17.8518  -36.4031 H   0  0  0  0  0  0  0  0  0  0  0  0
  -15.1656   16.7101  -37.6673 H   0  0  0  0  0  0  0  0  0  0  0  0
  -15.1281   17.0528  -39.4076 H   0  0  0  0  0  0  0  0  0  0  0  0
  -14.2183   18.0787  -38.2816 H   0  0  0  0  0  0  0  0  0  0  0  0
   -9.1378   13.0475  -36.9690 H   0  0  0  0  0  0  0  0  0  0  0  0
  -10.6071   12.7344  -37.8585 H   0  0  0  0  0  0  0  0  0  0  0  0
  -10.2837   16.2310  -41.2012 H   0  0  0  0  0  0  0  0  0  0  0  0
  -10.9098   14.7757  -40.8221 H   0  0  0  0  0  0  0  0  0  0  0  0
  1  7  1  0  0  0  0
  1 13  1  0  0  0  0
  1 15  2  0  0  0  0
  2  3  1  0  0  0  0
  2  6  1  0  0  0  0
  3  8  1  0  0  0  0
  4  6  1  0  0  0  0
  4  7  1  0  0  0  0
  5  9  1  0  0  0  0
  5 12  1  0  0  0  0
  6  9  1  0  0  0  0
  7  8  1  0  0  0  0
  7 12  1  0  0  0  0
  8  9  1  0  0  0  0
  8 10  1  0  0  0  0
  9 11  1  0  0  0  0
 12 14  1  0  0  0  0
  2 16  1  0  0  0  0
  2 17  1  0  0  0  0
  3 18  1  0  0  0  0
  3 19  1  0  0  0  0
  4 20  1  0  0  0  0
  4 21  1  0  0  0  0
  5 22  1  0  0  0  0
  5 23  1  0  0  0  0
  6 24  1  0  0  0  0
 10 25  1  0  0  0  0
 10 26  1  0  0  0  0
 10 27  1  0  0  0  0
 11 28  1  0  0  0  0
 11 29  1  0  0  0  0
 11 30  1  0  0  0  0
 13 31  1  0  0  0  0
 13 32  1  0  0  0  0
 14 33  1  0  0  0  0
 14 34  1  0  0  0  0
M  END
> <id>
EN300-236460

> <smiles>
CC12CN(N)C3(CC2CCC13C)C(=O)N

> <MDLNUMBER>
MFCD03731244

> <IUPAC Name>
4-amino-6,7-dimethyl-4-azatricyclo[4.3.0.0,3,7]nonane-3-carboxamide

> <CAS>
1212089-56-9

> <URL>
https://www.enaminestore.com/catalog/EN300-236460

> <ROCS_ShapeQuery>
__x1247relevant_x1083L0AP1_x1305L0BP1_

> <ROCS_TanimotoCombo>
0.753 

> <ROCS_ShapeTanimoto>
0.501 

> <ROCS_ColorTanimoto>
0.253 

> <ROCS_RefTversky>
0.426 

> <ROCS_RefColorTversky>
0.301 

> <ROCS_RefTverskyCombo>
0.727 

> <ROCS_FitTversky>
1.543 

> <ROCS_FitColorTversky>
0.609 

> <ROCS_FitTverskyCombo>
2.152 

> <ROCS_ColorScore>
-9.922

> <ROCS_Overlap>
1253.934

> <ROCS_Rank>
55                  

$$$$
untitled-dbase-157906_3
  -OEChem-06232314393D

 26 28  0     1  0  0  0  0  0999 V2000
  -10.1617   15.1978  -36.7765 C   0  0  0  0  0  0  0  0  0  0  0  0
  -13.3746   14.7967  -39.5874 C   0  0  0  0  0  0  0  0  0  0  0  0
  -12.9044   16.9192  -38.3054 C   0  0  0  0  0  0  0  0  0  0  0  0
  -13.7276   14.9284  -37.0925 C   0  0  0  0  0  0  0  0  0  0  0  0
  -11.0725   15.6973  -39.0729 C   0  0  0  0  0  0  0  0  0  0  0  0
  -11.8971   13.7019  -37.8566 C   0  0  0  0  0  0  0  0  0  0  0  0
  -12.4888   16.0765  -39.5129 C   0  0  1  0  0  0  0  0  0  0  0  0
  -13.3465   14.0010  -38.2481 C   0  0  2  0  0  0  0  0  0  0  0  0
  -12.5850   15.9545  -37.1526 C   0  0  0  0  0  0  0  0  0  0  0  0
  -11.3529   15.1268  -37.6742 C   0  0  0  0  0  0  0  0  0  0  0  0
   -9.0722   15.6533  -37.0909 O   0  0  0  0  0  0  0  0  0  0  0  0
  -10.4505   14.6831  -35.5563 O   0  0  0  0  0  0  0  0  0  0  0  0
  -14.4075   15.0820  -39.8197 H   0  0  0  0  0  0  0  0  0  0  0  0
  -13.0177   14.1536  -40.4007 H   0  0  0  0  0  0  0  0  0  0  0  0
  -12.2924   17.8262  -38.2299 H   0  0  0  0  0  0  0  0  0  0  0  0
  -13.9557   17.2225  -38.3403 H   0  0  0  0  0  0  0  0  0  0  0  0
  -14.7197   15.3745  -37.2148 H   0  0  0  0  0  0  0  0  0  0  0  0
  -13.7133   14.3908  -36.1366 H   0  0  0  0  0  0  0  0  0  0  0  0
  -10.6032   14.9744  -39.7492 H   0  0  0  0  0  0  0  0  0  0  0  0
  -10.4194   16.5780  -39.0279 H   0  0  0  0  0  0  0  0  0  0  0  0
  -11.8463   13.1273  -36.9231 H   0  0  0  0  0  0  0  0  0  0  0  0
  -11.3649   13.1300  -38.6244 H   0  0  0  0  0  0  0  0  0  0  0  0
  -12.5062   16.6386  -40.4502 H   0  0  0  0  0  0  0  0  0  0  0  0
  -13.9675   13.1027  -38.2955 H   0  0  0  0  0  0  0  0  0  0  0  0
  -12.4399   16.4732  -36.2012 H   0  0  0  0  0  0  0  0  0  0  0  0
   -9.6789   14.7189  -34.9516 H   0  0  0  0  0  0  0  0  0  0  0  0
  1 10  1  0  0  0  0
  1 11  2  0  0  0  0
  1 12  1  0  0  0  0
  2  7  1  0  0  0  0
  2  8  1  0  0  0  0
  3  7  1  0  0  0  0
  3  9  1  0  0  0  0
  4  8  1  0  0  0  0
  4  9  1  0  0  0  0
  5  7  1  0  0  0  0
  5 10  1  0  0  0  0
  6  8  1  0  0  0  0
  6 10  1  0  0  0  0
  9 10  1  0  0  0  0
  2 13  1  0  0  0  0
  2 14  1  0  0  0  0
  3 15  1  0  0  0  0
  3 16  1  0  0  0  0
  4 17  1  0  0  0  0
  4 18  1  0  0  0  0
  5 19  1  0  0  0  0
  5 20  1  0  0  0  0
  6 21  1  0  0  0  0
  6 22  1  0  0  0  0
  7 23  1  0  0  0  0
  8 24  1  0  0  0  0
  9 25  1  0  0  0  0
 12 26  1  0  0  0  0
M  END
> <id>
EN300-3022817

> <smiles>
OC(=O)C12CC3CC2CC(C1)C3

> <IUPAC Name>
tricyclo[3.3.1.0,3,7]nonane-3-carboxylic acid

> <CAS>
16200-53-6

> <Purity>
95

> <URL>
https://www.enaminestore.com/catalog/EN300-3022817

> <MP>
105-107

> <ROCS_ShapeQuery>
__x1247relevant_x1083L0AP1_x1305L0BP1_

> <ROCS_TanimotoCombo>
0.753 

> <ROCS_ShapeTanimoto>
0.485 

> <ROCS_ColorTanimoto>
0.268 

> <ROCS_RefTversky>
0.402 

> <ROCS_RefColorTversky>
0.365 

> <ROCS_RefTverskyCombo>
0.767 

> <ROCS_FitTversky>
1.743 

> <ROCS_FitColorTversky>
0.501 

> <ROCS_FitTverskyCombo>
2.244 

> <ROCS_ColorScore>
-12.185

> <ROCS_Overlap>
1180.427

> <ROCS_Rank>
56                  

$$$$
untitled-dbase-91162_0
  -OEChem-06232314393D

 31 33  0     1  0  0  0  0  0999 V2000
  -10.0502   15.0176  -36.5803 C   0  0  0  0  0  0  0  0  0  0  0  0
  -11.1521   16.5225  -38.2660 C   0  0  0  0  0  0  0  0  0  0  0  0
  -13.0628   15.5627  -37.2366 C   0  0  0  0  0  0  0  0  0  0  0  0
  -10.8068   15.0730  -37.8720 C   0  0  2  0  0  0  0  0  0  0  0  0
  -12.6876   16.4881  -38.3956 C   0  0  2  0  0  0  0  0  0  0  0  0
  -12.1945   14.4070  -37.7546 C   0  0  2  0  0  0  0  0  0  0  0  0
  -13.0623   15.6392  -39.6265 C   0  0  1  0  0  0  0  0  0  0  0  0
  -12.7452   14.2128  -39.1805 C   0  0  2  0  0  0  0  0  0  0  0  0
  -14.8976   14.3186  -39.9161 C   0  0  0  0  0  0  0  0  0  0  0  0
  -14.9376   13.8371  -41.3661 C   0  0  0  0  0  0  0  0  0  0  0  0
  -16.2754   14.2228  -39.2772 C   0  0  0  0  0  0  0  0  0  0  0  0
  -10.4384   14.4632  -35.5628 O   0  0  0  0  0  0  0  0  0  0  0  0
  -14.4618   15.6798  -39.8843 O   0  0  0  0  0  0  0  0  0  0  0  0
  -13.9821   13.5082  -39.1752 O   0  0  0  0  0  0  0  0  0  0  0  0
   -8.8682   15.6721  -36.6893 O   0  0  0  0  0  0  0  0  0  0  0  0
  -10.8458   17.2391  -37.4949 H   0  0  0  0  0  0  0  0  0  0  0  0
  -10.6719   16.8114  -39.2070 H   0  0  0  0  0  0  0  0  0  0  0  0
  -12.7466   15.9470  -36.2613 H   0  0  0  0  0  0  0  0  0  0  0  0
  -14.1292   15.3243  -37.1924 H   0  0  0  0  0  0  0  0  0  0  0  0
  -10.1838   14.5928  -38.6349 H   0  0  0  0  0  0  0  0  0  0  0  0
  -13.1679   17.4683  -38.3651 H   0  0  0  0  0  0  0  0  0  0  0  0
  -12.2372   13.5124  -37.1288 H   0  0  0  0  0  0  0  0  0  0  0  0
  -12.5158   15.9425  -40.5255 H   0  0  0  0  0  0  0  0  0  0  0  0
  -12.0371   13.7009  -39.8402 H   0  0  0  0  0  0  0  0  0  0  0  0
  -13.9452   13.9125  -41.8065 H   0  0  0  0  0  0  0  0  0  0  0  0
  -15.6303   14.4511  -41.9386 H   0  0  0  0  0  0  0  0  0  0  0  0
  -15.2663   12.8001  -41.4005 H   0  0  0  0  0  0  0  0  0  0  0  0
  -16.2341   14.5688  -38.2437 H   0  0  0  0  0  0  0  0  0  0  0  0
  -16.6227   13.1890  -39.2889 H   0  0  0  0  0  0  0  0  0  0  0  0
  -16.9870   14.8399  -39.8272 H   0  0  0  0  0  0  0  0  0  0  0  0
   -8.7395   16.0492  -37.5857 H   0  0  0  0  0  0  0  0  0  0  0  0
  1  4  1  0  0  0  0
  1 12  2  0  0  0  0
  1 15  1  0  0  0  0
  2  4  1  0  0  0  0
  2  5  1  0  0  0  0
  3  5  1  0  0  0  0
  3  6  1  0  0  0  0
  4  6  1  0  0  0  0
  5  7  1  0  0  0  0
  6  8  1  0  0  0  0
  7  8  1  0  0  0  0
  7 13  1  0  0  0  0
  8 14  1  0  0  0  0
  9 10  1  0  0  0  0
  9 11  1  0  0  0  0
  9 13  1  0  0  0  0
  9 14  1  0  0  0  0
  2 16  1  0  0  0  0
  2 17  1  0  0  0  0
  3 18  1  0  0  0  0
  3 19  1  0  0  0  0
  4 20  1  0  0  0  0
  5 21  1  0  0  0  0
  6 22  1  0  0  0  0
  7 23  1  0  0  0  0
  8 24  1  0  0  0  0
 10 25  1  0  0  0  0
 10 26  1  0  0  0  0
 10 27  1  0  0  0  0
 11 28  1  0  0  0  0
 11 29  1  0  0  0  0
 11 30  1  0  0  0  0
 15 31  1  0  0  0  0
M  END
> <id>
EN300-6744027

> <smiles>
CC1(C)OC2C3CC(C(C3)C2O1)C(=O)O

> <MDLNUMBER>
MFCD31810696

> <IUPAC Name>
4,4-dimethyl-3,5-dioxatricyclo[5.2.1.0,2,6]decane-8-carboxylic acid

> <CAS>
2305251-72-1

> <Purity>
95

> <URL>
https://www.enaminestore.com/catalog/EN300-6744027

> <ROCS_ShapeQuery>
__x1247relevant_x1083L0AP1_x1305L0BP1_

> <ROCS_TanimotoCombo>
0.753 

> <ROCS_ShapeTanimoto>
0.506 

> <ROCS_ColorTanimoto>
0.246 

> <ROCS_RefTversky>
0.429 

> <ROCS_RefColorTversky>
0.285 

> <ROCS_RefTverskyCombo>
0.713 

> <ROCS_FitTversky>
1.558 

> <ROCS_FitColorTversky>
0.645 

> <ROCS_FitTverskyCombo>
2.203 

> <ROCS_ColorScore>
-9.353

> <ROCS_Overlap>
1262.494

> <ROCS_Rank>
57                  

$$$$
untitled-dbase-91956_166
  -OEChem-06232314393D

 34 35  0     1  0  0  0  0  0999 V2000
  -13.3249   16.3375  -40.2619 C   0  0  0  0  0  0  0  0  0  0  0  0
   -9.9785   15.1075  -36.7867 C   0  0  0  0  0  0  0  0  0  0  0  0
  -13.2727   16.2034  -37.7161 C   0  0  0  0  0  0  0  0  0  0  0  0
  -11.2668   15.6849  -38.9002 C   0  0  0  0  0  0  0  0  0  0  0  0
  -13.0729   13.8900  -37.6012 C   0  0  0  0  0  0  0  0  0  0  0  0
  -12.4980   15.1473  -36.9468 C   0  0  1  0  0  0  0  0  0  0  0  0
  -12.7915   15.6505  -39.0525 C   0  0  2  0  0  0  0  0  0  0  0  0
   -7.8860   14.3605  -34.9895 C   0  0  0  0  0  0  0  0  0  0  0  0
   -9.3986   12.4760  -34.3040 C   0  0  0  0  0  0  0  0  0  0  0  0
   -8.5697   12.6168  -36.6707 C   0  0  0  0  0  0  0  0  0  0  0  0
   -8.9983   13.4147  -35.4401 C   0  0  0  0  0  0  0  0  0  0  0  0
  -11.1457   15.3178  -37.4892 N   0  0  0  0  0  0  0  0  0  0  0  0
  -12.6444   16.8974  -41.1085 O   0  0  0  0  0  0  0  0  0  0  0  0
   -8.9129   15.6681  -37.0305 O   0  0  0  0  0  0  0  0  0  0  0  0
  -13.2039   14.2704  -39.0008 O   0  0  0  0  0  0  0  0  0  0  0  0
  -14.6778   16.2612  -40.2983 O   0  0  0  0  0  0  0  0  0  0  0  0
  -10.1496   14.1950  -35.7809 O   0  0  0  0  0  0  0  0  0  0  0  0
  -14.3565   16.1223  -37.5771 H   0  0  0  0  0  0  0  0  0  0  0  0
  -12.9495   17.2307  -37.5172 H   0  0  0  0  0  0  0  0  0  0  0  0
  -10.7478   14.9410  -39.5126 H   0  0  0  0  0  0  0  0  0  0  0  0
  -10.8272   16.6757  -39.0524 H   0  0  0  0  0  0  0  0  0  0  0  0
  -12.4244   13.0126  -37.5184 H   0  0  0  0  0  0  0  0  0  0  0  0
  -14.0706   13.6446  -37.2234 H   0  0  0  0  0  0  0  0  0  0  0  0
  -12.5381   15.1723  -35.8572 H   0  0  0  0  0  0  0  0  0  0  0  0
   -7.5958   15.0360  -35.8021 H   0  0  0  0  0  0  0  0  0  0  0  0
   -8.1934   14.9637  -34.1290 H   0  0  0  0  0  0  0  0  0  0  0  0
   -6.9841   13.8011  -34.7156 H   0  0  0  0  0  0  0  0  0  0  0  0
  -10.1965   11.7956  -34.6229 H   0  0  0  0  0  0  0  0  0  0  0  0
   -9.7963   13.0406  -33.4530 H   0  0  0  0  0  0  0  0  0  0  0  0
   -8.5504   11.8771  -33.9569 H   0  0  0  0  0  0  0  0  0  0  0  0
   -9.3674   11.9383  -36.9942 H   0  0  0  0  0  0  0  0  0  0  0  0
   -8.3140   13.2737  -37.5084 H   0  0  0  0  0  0  0  0  0  0  0  0
   -7.7015   11.9874  -36.4441 H   0  0  0  0  0  0  0  0  0  0  0  0
  -15.0379   15.7710  -39.5286 H   0  0  0  0  0  0  0  0  0  0  0  0
  1  7  1  1  0  0  0
  1 13  2  0  0  0  0
  1 16  1  0  0  0  0
  2 12  1  0  0  0  0
  2 14  2  0  0  0  0
  2 17  1  0  0  0  0
  3  6  1  0  0  0  0
  3  7  1  0  0  0  0
  4  7  1  0  0  0  0
  4 12  1  0  0  0  0
  5  6  1  6  0  0  0
  5 15  1  0  0  0  0
  6 12  1  0  0  0  0
  7 15  1  0  0  0  0
  8 11  1  0  0  0  0
  9 11  1  0  0  0  0
 10 11  1  0  0  0  0
 11 17  1  0  0  0  0
  3 18  1  0  0  0  0
  3 19  1  0  0  0  0
  4 20  1  0  0  0  0
  4 21  1  0  0  0  0
  5 22  1  0  0  0  0
  5 23  1  0  0  0  0
  6 24  1  0  0  0  0
  8 25  1  0  0  0  0
  8 26  1  0  0  0  0
  8 27  1  0  0  0  0
  9 28  1  0  0  0  0
  9 29  1  0  0  0  0
  9 30  1  0  0  0  0
 10 31  1  0  0  0  0
 10 32  1  0  0  0  0
 10 33  1  0  0  0  0
 16 34  1  0  0  0  0
M  END
> <id>
EN300-6738751

> <smiles>
CC(C)(C)OC(=O)N1C[C@@]2(C[C@H]1CO2)C(=O)O

> <MDLNUMBER>
MFCD31802546

> <IUPAC Name>
(1S,4S)-5-[(tert-butoxy)carbonyl]-2-oxa-5-azabicyclo[2.2.1]heptane-1-carboxylic acid

> <CAS>
1932599-21-7

> <Purity>
95

> <URL>
https://www.enaminestore.com/catalog/EN300-6738751

> <ROCS_ShapeQuery>
__x1247relevant_x1083L0AP1_x1305L0BP1_

> <ROCS_TanimotoCombo>
0.752 

> <ROCS_ShapeTanimoto>
0.518 

> <ROCS_ColorTanimoto>
0.234 

> <ROCS_RefTversky>
0.444 

> <ROCS_RefColorTversky>
0.268 

> <ROCS_RefTverskyCombo>
0.712 

> <ROCS_FitTversky>
1.473 

> <ROCS_FitColorTversky>
0.649 

> <ROCS_FitTverskyCombo>
2.122 

> <ROCS_ColorScore>
-8.777

> <ROCS_Overlap>
1310.304

> <ROCS_Rank>
58                  

$$$$
untitled-dbase-148785_96
  -OEChem-06232314393D

 38 39  0     1  0  0  0  0  0999 V2000
   -9.3412   14.7015  -36.3104 C   0  0  0  0  0  0  0  0  0  0  0  0
  -13.0336   15.7712  -37.3566 C   0  0  0  0  0  0  0  0  0  0  0  0
  -12.4713   13.5935  -38.1454 C   0  0  0  0  0  0  0  0  0  0  0  0
  -13.5388   14.6894  -38.3191 C   0  0  2  0  0  0  0  0  0  0  0  0
  -11.6673   15.8628  -38.0406 C   0  0  1  0  0  0  0  0  0  0  0  0
  -11.1646   14.3995  -37.9791 C   0  0  1  0  0  0  0  0  0  0  0  0
  -13.3385   15.3500  -39.6990 C   0  0  2  0  0  0  0  0  0  0  0  0
  -12.0957   16.2284  -39.4789 C   0  0  2  0  0  0  0  0  0  0  0  0
   -9.8894   16.2732  -34.2918 C   0  0  0  0  0  0  0  0  0  0  0  0
   -9.2252   14.4220  -32.7294 C   0  0  0  0  0  0  0  0  0  0  0  0
   -7.4592   15.6981  -33.9788 C   0  0  0  0  0  0  0  0  0  0  0  0
   -8.8855   15.1521  -34.0270 C   0  0  0  0  0  0  0  0  0  0  0  0
  -10.5086   14.0960  -36.7331 N   0  0  0  0  0  0  0  0  0  0  0  0
   -8.7192   15.5608  -36.9262 O   0  0  0  0  0  0  0  0  0  0  0  0
  -14.4662   16.1626  -39.9985 O   0  0  0  0  0  0  0  0  0  0  0  0
  -11.0756   15.9455  -40.4178 O   0  0  0  0  0  0  0  0  0  0  0  0
   -8.9735   14.2004  -35.0934 O   0  0  0  0  0  0  0  0  0  0  0  0
  -13.6085   16.7018  -37.4089 H   0  0  0  0  0  0  0  0  0  0  0  0
  -12.9847   15.4335  -36.3167 H   0  0  0  0  0  0  0  0  0  0  0  0
  -12.6886   12.9910  -37.2551 H   0  0  0  0  0  0  0  0  0  0  0  0
  -12.4242   12.9161  -39.0045 H   0  0  0  0  0  0  0  0  0  0  0  0
  -14.5608   14.3556  -38.1264 H   0  0  0  0  0  0  0  0  0  0  0  0
  -10.9657   16.5836  -37.6132 H   0  0  0  0  0  0  0  0  0  0  0  0
  -10.4473   14.1686  -38.7722 H   0  0  0  0  0  0  0  0  0  0  0  0
  -13.2214   14.6145  -40.5017 H   0  0  0  0  0  0  0  0  0  0  0  0
  -12.3365   17.2962  -39.5447 H   0  0  0  0  0  0  0  0  0  0  0  0
   -9.6490   16.7998  -35.2224 H   0  0  0  0  0  0  0  0  0  0  0  0
  -10.9125   15.8900  -34.3635 H   0  0  0  0  0  0  0  0  0  0  0  0
   -9.8562   17.0243  -33.4943 H   0  0  0  0  0  0  0  0  0  0  0  0
   -8.5074   13.6168  -32.5355 H   0  0  0  0  0  0  0  0  0  0  0  0
  -10.2110   13.9476  -32.7951 H   0  0  0  0  0  0  0  0  0  0  0  0
   -9.2240   15.1017  -31.8712 H   0  0  0  0  0  0  0  0  0  0  0  0
   -6.7389   14.8942  -33.7889 H   0  0  0  0  0  0  0  0  0  0  0  0
   -7.1850   16.1934  -34.9159 H   0  0  0  0  0  0  0  0  0  0  0  0
   -7.3444   16.4162  -33.1588 H   0  0  0  0  0  0  0  0  0  0  0  0
  -10.9300   13.3945  -36.1288 H   0  0  0  0  0  0  0  0  0  0  0  0
  -14.3022   16.5582  -40.8697 H   0  0  0  0  0  0  0  0  0  0  0  0
  -10.2992   16.4741  -40.1651 H   0  0  0  0  0  0  0  0  0  0  0  0
  1 13  1  0  0  0  0
  1 14  2  0  0  0  0
  1 17  1  0  0  0  0
  2  4  1  0  0  0  0
  2  5  1  0  0  0  0
  3  4  1  0  0  0  0
  3  6  1  0  0  0  0
  4  7  1  0  0  0  0
  5  6  1  0  0  0  0
  5  8  1  0  0  0  0
  6 13  1  0  0  0  0
  7  8  1  0  0  0  0
  7 15  1  0  0  0  0
  8 16  1  0  0  0  0
  9 12  1  0  0  0  0
 10 12  1  0  0  0  0
 11 12  1  0  0  0  0
 12 17  1  0  0  0  0
  2 18  1  0  0  0  0
  2 19  1  0  0  0  0
  3 20  1  0  0  0  0
  3 21  1  0  0  0  0
  4 22  1  0  0  0  0
  5 23  1  0  0  0  0
  6 24  1  0  0  0  0
  7 25  1  0  0  0  0
  8 26  1  0  0  0  0
  9 27  1  0  0  0  0
  9 28  1  0  0  0  0
  9 29  1  0  0  0  0
 10 30  1  0  0  0  0
 10 31  1  0  0  0  0
 10 32  1  0  0  0  0
 11 33  1  0  0  0  0
 11 34  1  0  0  0  0
 11 35  1  0  0  0  0
 13 36  1  0  0  0  0
 15 37  1  0  0  0  0
 16 38  1  0  0  0  0
M  END
> <id>
EN300-28228704

> <smiles>
CC(C)(C)OC(=O)NC1CC2CC1C(O)C2O

> <IUPAC Name>
tert-butyl N-{5,6-dihydroxybicyclo[2.2.1]heptan-2-yl}carbamate

> <CAS>
2639462-62-5

> <URL>
https://www.enaminestore.com/catalog/EN300-28228704

> <ROCS_ShapeQuery>
__x1247relevant_x1083L0AP1_x1305L0BP1_

> <ROCS_TanimotoCombo>
0.752 

> <ROCS_ShapeTanimoto>
0.491 

> <ROCS_ColorTanimoto>
0.261 

> <ROCS_RefTversky>
0.426 

> <ROCS_RefColorTversky>
0.297 

> <ROCS_RefTverskyCombo>
0.723 

> <ROCS_FitTversky>
1.452 

> <ROCS_FitColorTversky>
0.681 

> <ROCS_FitTverskyCombo>
2.133 

> <ROCS_ColorScore>
-9.757

> <ROCS_Overlap>
1255.757

> <ROCS_Rank>
59                  

$$$$
untitled-dbase-75071_5
  -OEChem-06232314393D

 32 34  0     1  0  0  0  0  0999 V2000
  -12.3709   16.3449  -39.5700 C   0  0  0  0  0  0  0  0  0  0  0  0
  -14.0740   14.6604  -38.8566 C   0  0  0  0  0  0  0  0  0  0  0  0
  -11.2601   15.4991  -38.9292 C   0  0  0  0  0  0  0  0  0  0  0  0
  -12.9688   13.8092  -38.2131 C   0  0  0  0  0  0  0  0  0  0  0  0
  -12.9020   16.0005  -37.2731 C   0  0  0  0  0  0  0  0  0  0  0  0
   -8.8197   13.3253  -36.8450 C   0  0  0  0  0  0  0  0  0  0  0  0
   -8.2210   14.6716  -37.2511 C   0  0  0  0  0  0  0  0  0  0  0  0
  -10.1271   15.4877  -36.0881 C   0  0  0  0  0  0  0  0  0  0  0  0
  -13.5729   16.0983  -38.6435 C   0  0  0  0  0  0  0  0  0  0  0  0
  -11.0069   14.3545  -36.6355 C   0  0  1  0  0  0  0  0  0  0  0  0
  -11.9656   14.8690  -37.7090 C   0  0  0  0  0  0  0  0  0  0  0  0
  -10.2213   13.2672  -37.2337 N   0  0  0  0  0  0  0  0  0  0  0  0
   -9.0785   15.7891  -37.0030 O   0  0  0  0  0  0  0  0  0  0  0  0
  -12.0872   17.4033  -39.5653 H   0  0  0  0  0  0  0  0  0  0  0  0
  -12.5681   16.0489  -40.6052 H   0  0  0  0  0  0  0  0  0  0  0  0
  -14.2187   14.4160  -39.9137 H   0  0  0  0  0  0  0  0  0  0  0  0
  -15.0242   14.4988  -38.3351 H   0  0  0  0  0  0  0  0  0  0  0  0
  -10.8695   14.7466  -39.6224 H   0  0  0  0  0  0  0  0  0  0  0  0
  -10.4267   16.1436  -38.6258 H   0  0  0  0  0  0  0  0  0  0  0  0
  -13.3835   13.2207  -37.3865 H   0  0  0  0  0  0  0  0  0  0  0  0
  -12.5194   13.1151  -38.9310 H   0  0  0  0  0  0  0  0  0  0  0  0
  -12.3738   16.9161  -36.9854 H   0  0  0  0  0  0  0  0  0  0  0  0
  -13.5932   15.7101  -36.4744 H   0  0  0  0  0  0  0  0  0  0  0  0
   -8.2672   12.5113  -37.3234 H   0  0  0  0  0  0  0  0  0  0  0  0
   -8.7359   13.1887  -35.7613 H   0  0  0  0  0  0  0  0  0  0  0  0
   -7.2825   14.8455  -36.6864 H   0  0  0  0  0  0  0  0  0  0  0  0
   -7.9270   14.6740  -38.3242 H   0  0  0  0  0  0  0  0  0  0  0  0
  -10.7083   16.3969  -35.8852 H   0  0  0  0  0  0  0  0  0  0  0  0
   -9.6637   15.1791  -35.1441 H   0  0  0  0  0  0  0  0  0  0  0  0
  -14.3567   16.8529  -38.7328 H   0  0  0  0  0  0  0  0  0  0  0  0
  -11.6201   13.9312  -35.8228 H   0  0  0  0  0  0  0  0  0  0  0  0
  -10.2882   13.3324  -38.2578 H   0  0  0  0  0  0  0  0  0  0  0  0
  1  3  1  0  0  0  0
  1  9  1  0  0  0  0
  2  4  1  0  0  0  0
  2  9  1  0  0  0  0
  3 11  1  0  0  0  0
  4 11  1  0  0  0  0
  5  9  1  0  0  0  0
  5 11  1  0  0  0  0
  6  7  1  0  0  0  0
  6 12  1  0  0  0  0
  7 13  1  0  0  0  0
  8 10  1  0  0  0  0
  8 13  1  0  0  0  0
 10 11  1  0  0  0  0
 10 12  1  0  0  0  0
  1 14  1  0  0  0  0
  1 15  1  0  0  0  0
  2 16  1  0  0  0  0
  2 17  1  0  0  0  0
  3 18  1  0  0  0  0
  3 19  1  0  0  0  0
  4 20  1  0  0  0  0
  4 21  1  0  0  0  0
  5 22  1  0  0  0  0
  5 23  1  0  0  0  0
  6 24  1  0  0  0  0
  6 25  1  0  0  0  0
  7 26  1  0  0  0  0
  7 27  1  0  0  0  0
  8 28  1  0  0  0  0
  8 29  1  0  0  0  0
  9 30  1  0  0  0  0
 10 31  1  0  0  0  0
 12 32  1  0  0  0  0
M  END
> <id>
EN300-37409319

> <smiles>
C1CC2(CCC1C2)C3COCCN3

> <IUPAC Name>
3-{bicyclo[2.2.1]heptan-1-yl}morpholine

> <CAS>
2803852-08-4

> <Purity>
95

> <URL>
https://www.enaminestore.com/catalog/EN300-37409319

> <ROCS_ShapeQuery>
__x1247relevant_x1083L0AP1_x1305L0BP1_

> <ROCS_TanimotoCombo>
0.751 

> <ROCS_ShapeTanimoto>
0.499 

> <ROCS_ColorTanimoto>
0.253 

> <ROCS_RefTversky>
0.412 

> <ROCS_RefColorTversky>
0.273 

> <ROCS_RefTverskyCombo>
0.685 

> <ROCS_FitTversky>
1.723 

> <ROCS_FitColorTversky>
0.775 

> <ROCS_FitTverskyCombo>
2.499 

> <ROCS_ColorScore>
-8.913

> <ROCS_Overlap>
1212.162

> <ROCS_Rank>
60                  

$$$$
untitled-dbase-68579_5
  -OEChem-06232314393D

 32 34  0     1  0  0  0  0  0999 V2000
  -12.3709   16.3449  -39.5700 C   0  0  0  0  0  0  0  0  0  0  0  0
  -14.0740   14.6604  -38.8566 C   0  0  0  0  0  0  0  0  0  0  0  0
  -11.2601   15.4991  -38.9292 C   0  0  0  0  0  0  0  0  0  0  0  0
  -12.9688   13.8092  -38.2131 C   0  0  0  0  0  0  0  0  0  0  0  0
  -12.9020   16.0005  -37.2731 C   0  0  0  0  0  0  0  0  0  0  0  0
   -8.8197   13.3253  -36.8450 C   0  0  0  0  0  0  0  0  0  0  0  0
   -8.2210   14.6716  -37.2511 C   0  0  0  0  0  0  0  0  0  0  0  0
  -10.1271   15.4877  -36.0881 C   0  0  0  0  0  0  0  0  0  0  0  0
  -13.5729   16.0983  -38.6435 C   0  0  0  0  0  0  0  0  0  0  0  0
  -11.0069   14.3545  -36.6355 C   0  0  1  0  0  0  0  0  0  0  0  0
  -11.9656   14.8690  -37.7090 C   0  0  0  0  0  0  0  0  0  0  0  0
  -10.2213   13.2672  -37.2337 N   0  0  0  0  0  0  0  0  0  0  0  0
   -9.0785   15.7891  -37.0030 O   0  0  0  0  0  0  0  0  0  0  0  0
  -12.0872   17.4033  -39.5653 H   0  0  0  0  0  0  0  0  0  0  0  0
  -12.5681   16.0489  -40.6052 H   0  0  0  0  0  0  0  0  0  0  0  0
  -14.2187   14.4160  -39.9137 H   0  0  0  0  0  0  0  0  0  0  0  0
  -15.0242   14.4988  -38.3351 H   0  0  0  0  0  0  0  0  0  0  0  0
  -10.8695   14.7466  -39.6224 H   0  0  0  0  0  0  0  0  0  0  0  0
  -10.4267   16.1436  -38.6258 H   0  0  0  0  0  0  0  0  0  0  0  0
  -13.3835   13.2207  -37.3865 H   0  0  0  0  0  0  0  0  0  0  0  0
  -12.5194   13.1151  -38.9310 H   0  0  0  0  0  0  0  0  0  0  0  0
  -12.3738   16.9161  -36.9854 H   0  0  0  0  0  0  0  0  0  0  0  0
  -13.5932   15.7101  -36.4744 H   0  0  0  0  0  0  0  0  0  0  0  0
   -8.2672   12.5113  -37.3234 H   0  0  0  0  0  0  0  0  0  0  0  0
   -8.7359   13.1887  -35.7613 H   0  0  0  0  0  0  0  0  0  0  0  0
   -7.2825   14.8455  -36.6864 H   0  0  0  0  0  0  0  0  0  0  0  0
   -7.9270   14.6740  -38.3242 H   0  0  0  0  0  0  0  0  0  0  0  0
  -10.7083   16.3969  -35.8852 H   0  0  0  0  0  0  0  0  0  0  0  0
   -9.6637   15.1791  -35.1441 H   0  0  0  0  0  0  0  0  0  0  0  0
  -14.3567   16.8529  -38.7328 H   0  0  0  0  0  0  0  0  0  0  0  0
  -11.6201   13.9312  -35.8228 H   0  0  0  0  0  0  0  0  0  0  0  0
  -10.2882   13.3324  -38.2578 H   0  0  0  0  0  0  0  0  0  0  0  0
  1  3  1  0  0  0  0
  1  9  1  0  0  0  0
  2  4  1  0  0  0  0
  2  9  1  0  0  0  0
  3 11  1  0  0  0  0
  4 11  1  0  0  0  0
  5  9  1  0  0  0  0
  5 11  1  0  0  0  0
  6  7  1  0  0  0  0
  6 12  1  0  0  0  0
  7 13  1  0  0  0  0
  8 10  1  0  0  0  0
  8 13  1  0  0  0  0
 10 11  1  0  0  0  0
 10 12  1  0  0  0  0
  1 14  1  0  0  0  0
  1 15  1  0  0  0  0
  2 16  1  0  0  0  0
  2 17  1  0  0  0  0
  3 18  1  0  0  0  0
  3 19  1  0  0  0  0
  4 20  1  0  0  0  0
  4 21  1  0  0  0  0
  5 22  1  0  0  0  0
  5 23  1  0  0  0  0
  6 24  1  0  0  0  0
  6 25  1  0  0  0  0
  7 26  1  0  0  0  0
  7 27  1  0  0  0  0
  8 28  1  0  0  0  0
  8 29  1  0  0  0  0
  9 30  1  0  0  0  0
 10 31  1  0  0  0  0
 12 32  1  0  0  0  0
M  END
> <id>
EN300-37409318

> <smiles>
Cl.C1CC2(CCC1C2)C3COCCN3

> <IUPAC Name>
3-{bicyclo[2.2.1]heptan-1-yl}morpholine hydrochloride

> <URL>
https://www.enaminestore.com/catalog/EN300-37409318

> <ROCS_ShapeQuery>
__x1247relevant_x1083L0AP1_x1305L0BP1_

> <ROCS_TanimotoCombo>
0.751 

> <ROCS_ShapeTanimoto>
0.499 

> <ROCS_ColorTanimoto>
0.253 

> <ROCS_RefTversky>
0.412 

> <ROCS_RefColorTversky>
0.273 

> <ROCS_RefTverskyCombo>
0.685 

> <ROCS_FitTversky>
1.723 

> <ROCS_FitColorTversky>
0.775 

> <ROCS_FitTverskyCombo>
2.499 

> <ROCS_ColorScore>
-8.913

> <ROCS_Overlap>
1212.162

> <ROCS_Rank>
61                  

$$$$
untitled-dbase-101608_45
  -OEChem-06232314393D

 33 35  0     1  0  0  0  0  0999 V2000
   -9.9518   13.5683  -36.1210 C   0  0  0  0  0  0  0  0  0  0  0  0
  -11.9844   15.4848  -36.8410 C   0  0  0  0  0  0  0  0  0  0  0  0
  -11.0909   14.8443  -37.9308 C   0  0  2  0  0  0  0  0  0  0  0  0
  -13.3742   15.3979  -37.4862 C   0  0  1  0  0  0  0  0  0  0  0  0
  -12.1289   14.4629  -39.0004 C   0  0  2  0  0  0  0  0  0  0  0  0
  -13.4515   16.3656  -38.6394 C   0  0  1  0  0  0  0  0  0  0  0  0
  -12.6055   15.7251  -39.6782 C   0  0  2  0  0  0  0  0  0  0  0  0
  -10.8817   11.5724  -34.3040 C   0  0  0  0  0  0  0  0  0  0  0  0
   -8.6584   10.4638  -34.6742 C   0  0  0  0  0  0  0  0  0  0  0  0
   -8.7582   12.7554  -33.6512 C   0  0  0  0  0  0  0  0  0  0  0  0
   -9.4087   11.7936  -34.6445 C   0  0  0  0  0  0  0  0  0  0  0  0
  -10.3901   13.6927  -37.4256 N   0  0  0  0  0  0  0  0  0  0  0  0
  -10.0981   14.4054  -35.2365 O   0  0  0  0  0  0  0  0  0  0  0  0
  -13.2527   14.1121  -38.1493 O   0  0  0  0  0  0  0  0  0  0  0  0
  -14.0166   15.8768  -39.8596 O   0  0  0  0  0  0  0  0  0  0  0  0
   -9.3248   12.3656  -35.9547 O   0  0  0  0  0  0  0  0  0  0  0  0
  -11.9578   14.8980  -35.9153 H   0  0  0  0  0  0  0  0  0  0  0  0
  -11.6861   16.5124  -36.6108 H   0  0  0  0  0  0  0  0  0  0  0  0
  -10.3378   15.5431  -38.3093 H   0  0  0  0  0  0  0  0  0  0  0  0
  -14.2199   15.4287  -36.7965 H   0  0  0  0  0  0  0  0  0  0  0  0
  -11.8548   13.6548  -39.6825 H   0  0  0  0  0  0  0  0  0  0  0  0
  -13.3777   17.4194  -38.4341 H   0  0  0  0  0  0  0  0  0  0  0  0
  -11.8991   16.2998  -40.2518 H   0  0  0  0  0  0  0  0  0  0  0  0
  -11.4237   12.5247  -34.2817 H   0  0  0  0  0  0  0  0  0  0  0  0
  -11.3686   10.9121  -35.0289 H   0  0  0  0  0  0  0  0  0  0  0  0
  -10.9905   11.1315  -33.3065 H   0  0  0  0  0  0  0  0  0  0  0  0
   -7.6011   10.6177  -34.9181 H   0  0  0  0  0  0  0  0  0  0  0  0
   -9.0619    9.8052  -35.4518 H   0  0  0  0  0  0  0  0  0  0  0  0
   -8.7202    9.9435  -33.7129 H   0  0  0  0  0  0  0  0  0  0  0  0
   -7.7016   12.9142  -33.8953 H   0  0  0  0  0  0  0  0  0  0  0  0
   -9.2610   13.7280  -33.6433 H   0  0  0  0  0  0  0  0  0  0  0  0
   -8.7825   12.3426  -32.6362 H   0  0  0  0  0  0  0  0  0  0  0  0
  -10.2066   12.9245  -38.0675 H   0  0  0  0  0  0  0  0  0  0  0  0
  1 12  1  0  0  0  0
  1 13  2  0  0  0  0
  1 16  1  0  0  0  0
  2  3  1  0  0  0  0
  2  4  1  0  0  0  0
  3  5  1  0  0  0  0
  3 12  1  0  0  0  0
  4  6  1  0  0  0  0
  4 14  1  0  0  0  0
  5  7  1  0  0  0  0
  5 14  1  0  0  0  0
  6  7  1  0  0  0  0
  6 15  1  0  0  0  0
  7 15  1  0  0  0  0
  8 11  1  0  0  0  0
  9 11  1  0  0  0  0
 10 11  1  0  0  0  0
 11 16  1  0  0  0  0
  2 17  1  0  0  0  0
  2 18  1  0  0  0  0
  3 19  1  0  0  0  0
  4 20  1  0  0  0  0
  5 21  1  0  0  0  0
  6 22  1  0  0  0  0
  7 23  1  0  0  0  0
  8 24  1  0  0  0  0
  8 25  1  0  0  0  0
  8 26  1  0  0  0  0
  9 27  1  0  0  0  0
  9 28  1  0  0  0  0
  9 29  1  0  0  0  0
 10 30  1  0  0  0  0
 10 31  1  0  0  0  0
 10 32  1  0  0  0  0
 12 33  1  0  0  0  0
M  END
> <id>
EN300-1708451

> <smiles>
CC(C)(C)OC(=O)NC1CC2OC1C3OC32

> <MDLNUMBER>
MFCD32760821

> <IUPAC Name>
tert-butyl N-{3,8-dioxatricyclo[3.2.1.0,2,4]octan-6-yl}carbamate

> <CAS>
2219369-54-5

> <URL>
https://www.enaminestore.com/catalog/EN300-1708451

> <ROCS_ShapeQuery>
__x1247relevant_x1083L0AP1_x1305L0BP1_

> <ROCS_TanimotoCombo>
0.751 

> <ROCS_ShapeTanimoto>
0.440 

> <ROCS_ColorTanimoto>
0.312 

> <ROCS_RefTversky>
0.393 

> <ROCS_RefColorTversky>
0.401 

> <ROCS_RefTverskyCombo>
0.795 

> <ROCS_FitTversky>
1.367 

> <ROCS_FitColorTversky>
0.583 

> <ROCS_FitTverskyCombo>
1.949 

> <ROCS_ColorScore>
-13.351

> <ROCS_Overlap>
1159.375

> <ROCS_Rank>
62                  

$$$$
untitled-dbase-91935_5
  -OEChem-06232314393D

 24 25  0     1  0  0  0  0  0999 V2000
  -10.1469   14.8865  -36.5670 C   0  0  0  0  0  0  0  0  0  0  0  0
  -12.2385   13.9729  -37.6066 C   0  0  0  0  0  0  0  0  0  0  0  0
  -12.8172   16.2734  -37.4463 C   0  0  0  0  0  0  0  0  0  0  0  0
  -10.9602   14.8007  -37.8227 C   0  0  1  0  0  0  0  0  0  0  0  0
  -13.3550   14.9543  -38.0089 C   0  0  1  0  0  0  0  0  0  0  0  0
  -11.5107   16.1835  -38.2406 C   0  0  1  0  0  0  0  0  0  0  0  0
  -13.2814   15.1901  -39.5331 C   0  0  2  0  0  0  0  0  0  0  0  0
  -12.0654   16.1234  -39.6796 C   0  0  2  0  0  0  0  0  0  0  0  0
  -10.4304   14.3449  -35.5088 O   0  0  0  0  0  0  0  0  0  0  0  0
   -9.0463   15.6535  -36.7609 O   0  0  0  0  0  0  0  0  0  0  0  0
  -14.4626   15.8550  -39.9622 O   0  0  0  0  0  0  0  0  0  0  0  0
  -11.1118   15.6106  -40.5905 O   0  0  0  0  0  0  0  0  0  0  0  0
  -12.2481   13.0715  -38.2285 H   0  0  0  0  0  0  0  0  0  0  0  0
  -12.3547   13.6641  -36.5611 H   0  0  0  0  0  0  0  0  0  0  0  0
  -13.4280   17.1420  -37.7145 H   0  0  0  0  0  0  0  0  0  0  0  0
  -12.6766   16.2530  -36.3611 H   0  0  0  0  0  0  0  0  0  0  0  0
  -10.3200   14.3511  -38.5885 H   0  0  0  0  0  0  0  0  0  0  0  0
  -14.3471   14.6785  -37.6447 H   0  0  0  0  0  0  0  0  0  0  0  0
  -10.8109   17.0069  -38.0776 H   0  0  0  0  0  0  0  0  0  0  0  0
  -13.1884   14.2556  -40.0963 H   0  0  0  0  0  0  0  0  0  0  0  0
  -12.3604   17.1241  -40.0177 H   0  0  0  0  0  0  0  0  0  0  0  0
   -8.9967   15.9980  -37.6781 H   0  0  0  0  0  0  0  0  0  0  0  0
  -14.3782   15.9842  -40.9206 H   0  0  0  0  0  0  0  0  0  0  0  0
  -11.5299   15.6029  -41.4688 H   0  0  0  0  0  0  0  0  0  0  0  0
  1  4  1  0  0  0  0
  1  9  2  0  0  0  0
  1 10  1  0  0  0  0
  2  4  1  0  0  0  0
  2  5  1  0  0  0  0
  3  5  1  0  0  0  0
  3  6  1  0  0  0  0
  4  6  1  0  0  0  0
  5  7  1  0  0  0  0
  6  8  1  0  0  0  0
  7  8  1  0  0  0  0
  7 11  1  0  0  0  0
  8 12  1  0  0  0  0
  2 13  1  0  0  0  0
  2 14  1  0  0  0  0
  3 15  1  0  0  0  0
  3 16  1  0  0  0  0
  4 17  1  0  0  0  0
  5 18  1  0  0  0  0
  6 19  1  0  0  0  0
  7 20  1  0  0  0  0
  8 21  1  0  0  0  0
 10 22  1  0  0  0  0
 11 23  1  0  0  0  0
 12 24  1  0  0  0  0
M  END
> <id>
EN300-6744028

> <smiles>
OC1C(O)C2CC1CC2C(=O)O

> <MDLNUMBER>
MFCD24531129

> <IUPAC Name>
5,6-dihydroxybicyclo[2.2.1]heptane-2-carboxylic acid

> <CAS>
232919-97-0

> <URL>
https://www.enaminestore.com/catalog/EN300-6744028

> <ROCS_ShapeQuery>
__x1247relevant_x1083L0AP1_x1305L0BP1_

> <ROCS_TanimotoCombo>
0.751 

> <ROCS_ShapeTanimoto>
0.494 

> <ROCS_ColorTanimoto>
0.257 

> <ROCS_RefTversky>
0.405 

> <ROCS_RefColorTversky>
0.294 

> <ROCS_RefTverskyCombo>
0.699 

> <ROCS_FitTversky>
1.804 

> <ROCS_FitColorTversky>
0.673 

> <ROCS_FitTverskyCombo>
2.477 

> <ROCS_ColorScore>
-9.652

> <ROCS_Overlap>
1189.134

> <ROCS_Rank>
63                  

$$$$
untitled-dbase-152970_17
  -OEChem-06232314393D

 30 32  0     1  0  0  0  0  0999 V2000
   -9.9274   15.1795  -36.8183 C   0  0  0  0  0  0  0  0  0  0  0  0
  -13.5993   15.0863  -40.6666 C   0  0  0  0  0  0  0  0  0  0  0  0
  -13.8435   14.7096  -37.0755 C   0  0  0  0  0  0  0  0  0  0  0  0
  -13.8688   16.2316  -37.3240 C   0  0  0  0  0  0  0  0  0  0  0  0
  -10.5202   15.9347  -39.1859 C   0  0  0  0  0  0  0  0  0  0  0  0
  -11.6927   13.8540  -38.1367 C   0  0  0  0  0  0  0  0  0  0  0  0
  -11.5926   16.4682  -38.2803 C   0  0  1  0  0  0  0  0  0  0  0  0
  -13.2026   14.1039  -38.3375 C   0  0  2  0  0  0  0  0  0  0  0  0
  -13.0672   16.4183  -38.6154 C   0  0  1  0  0  0  0  0  0  0  0  0
  -10.8966   15.1503  -37.9361 C   0  0  1  0  0  0  0  0  0  0  0  0
  -14.4091   13.8937  -41.1041 C   0  0  0  0  0  0  0  0  0  0  0  0
  -13.3505   15.1757  -39.3125 N   0  0  0  0  0  0  0  0  0  0  0  0
   -8.8629   15.7796  -36.8279 O   0  0  0  0  0  0  0  0  0  0  0  0
  -13.2084   15.9098  -41.4956 O   0  0  0  0  0  0  0  0  0  0  0  0
  -10.3793   14.4436  -35.7735 O   0  0  0  0  0  0  0  0  0  0  0  0
  -14.7372   13.1301  -40.0461 F   0  0  0  0  0  0  0  0  0  0  0  0
  -15.5455   14.2865  -41.7080 F   0  0  0  0  0  0  0  0  0  0  0  0
  -13.7131   13.1354  -41.9707 F   0  0  0  0  0  0  0  0  0  0  0  0
  -13.2919   14.4631  -36.1623 H   0  0  0  0  0  0  0  0  0  0  0  0
  -14.8706   14.3468  -36.9536 H   0  0  0  0  0  0  0  0  0  0  0  0
  -14.9056   16.5566  -37.4720 H   0  0  0  0  0  0  0  0  0  0  0  0
  -13.4573   16.7833  -36.4726 H   0  0  0  0  0  0  0  0  0  0  0  0
  -10.7911   15.5362  -40.1555 H   0  0  0  0  0  0  0  0  0  0  0  0
   -9.5703   16.4592  -39.1964 H   0  0  0  0  0  0  0  0  0  0  0  0
  -11.5483   13.1941  -37.2724 H   0  0  0  0  0  0  0  0  0  0  0  0
  -11.2861   13.3220  -39.0059 H   0  0  0  0  0  0  0  0  0  0  0  0
  -11.3432   17.3519  -37.7023 H   0  0  0  0  0  0  0  0  0  0  0  0
  -13.7046   13.1814  -38.6401 H   0  0  0  0  0  0  0  0  0  0  0  0
  -13.3710   17.2989  -39.1887 H   0  0  0  0  0  0  0  0  0  0  0  0
   -9.7490   14.4488  -35.0219 H   0  0  0  0  0  0  0  0  0  0  0  0
  1 10  1  1  0  0  0
  1 13  2  0  0  0  0
  1 15  1  0  0  0  0
  2 11  1  0  0  0  0
  2 12  1  0  0  0  0
  2 14  2  0  0  0  0
  3  4  1  0  0  0  0
  3  8  1  1  0  0  0
  4  9  1  1  0  0  0
  5  7  1  6  0  0  0
  5 10  1  0  0  0  0
  6  8  1  0  0  0  0
  6 10  1  0  0  0  0
  7  9  1  0  0  0  0
  7 10  1  0  0  0  0
  8 12  1  0  0  0  0
  9 12  1  0  0  0  0
 11 16  1  0  0  0  0
 11 17  1  0  0  0  0
 11 18  1  0  0  0  0
  3 19  1  0  0  0  0
  3 20  1  0  0  0  0
  4 21  1  0  0  0  0
  4 22  1  0  0  0  0
  5 23  1  0  0  0  0
  5 24  1  0  0  0  0
  6 25  1  0  0  0  0
  6 26  1  0  0  0  0
  7 27  1  0  0  0  0
  8 28  1  0  0  0  0
  9 29  1  0  0  0  0
 15 30  1  0  0  0  0
M  END
> <id>
EN300-28281385

> <smiles>
OC(=O)[C@@]12C[C@H]2[C@@H]3CC[C@H](C1)N3C(=O)C(F)(F)F |&1:3,5,6,9,r|

> <IUPAC Name>
rac-(1R,2S,4R,6S)-9-(trifluoroacetyl)-9-azatricyclo[4.2.1.0,2,4]nonane-4-carboxylic acid

> <CAS>
2679827-94-0

> <URL>
https://www.enaminestore.com/catalog/EN300-28281385

> <ROCS_ShapeQuery>
__x1247relevant_x1083L0AP1_x1305L0BP1_

> <ROCS_TanimotoCombo>
0.751 

> <ROCS_ShapeTanimoto>
0.517 

> <ROCS_ColorTanimoto>
0.234 

> <ROCS_RefTversky>
0.450 

> <ROCS_RefColorTversky>
0.276 

> <ROCS_RefTverskyCombo>
0.726 

> <ROCS_FitTversky>
1.405 

> <ROCS_FitColorTversky>
0.607 

> <ROCS_FitTverskyCombo>
2.011 

> <ROCS_ColorScore>
-9.060

> <ROCS_Overlap>
1328.486

> <ROCS_Rank>
64                  

$$$$
untitled-dbase-66401_2
  -OEChem-06232314393D

 22 24  0     1  0  0  0  0  0999 V2000
  -12.4513   16.1376  -39.5192 C   0  0  0  0  0  0  0  0  0  0  0  0
  -10.2008   15.2324  -36.7388 C   0  0  0  0  0  0  0  0  0  0  0  0
  -14.0159   14.4241  -38.7966 C   0  0  0  0  0  0  0  0  0  0  0  0
  -13.9605   14.9419  -37.3389 C   0  0  0  0  0  0  0  0  0  0  0  0
  -11.5138   14.1294  -38.6792 C   0  0  0  0  0  0  0  0  0  0  0  0
  -12.6904   14.6403  -39.5436 C   0  0  2  0  0  0  0  0  0  0  0  0
  -11.9907   16.4489  -38.1450 C   0  0  1  0  0  0  0  0  0  0  0  0
  -12.6988   15.7108  -37.0320 C   0  0  2  0  0  0  0  0  0  0  0  0
  -11.3992   15.1736  -37.5849 C   0  0  2  0  0  0  0  0  0  0  0  0
  -12.6578   16.9582  -40.3931 O   0  0  0  0  0  0  0  0  0  0  0  0
   -9.0637   15.4206  -37.1447 O   0  0  0  0  0  0  0  0  0  0  0  0
  -10.5251   15.0459  -35.4359 O   0  0  0  0  0  0  0  0  0  0  0  0
  -14.2758   13.3589  -38.7911 H   0  0  0  0  0  0  0  0  0  0  0  0
  -14.8271   14.9399  -39.3262 H   0  0  0  0  0  0  0  0  0  0  0  0
  -14.8321   15.5772  -37.1439 H   0  0  0  0  0  0  0  0  0  0  0  0
  -14.0297   14.0920  -36.6496 H   0  0  0  0  0  0  0  0  0  0  0  0
  -11.6993   13.1297  -38.2733 H   0  0  0  0  0  0  0  0  0  0  0  0
  -10.5899   14.1069  -39.2693 H   0  0  0  0  0  0  0  0  0  0  0  0
  -12.6888   14.2320  -40.5559 H   0  0  0  0  0  0  0  0  0  0  0  0
  -11.5051   17.3929  -37.9448 H   0  0  0  0  0  0  0  0  0  0  0  0
  -12.7047   16.1539  -36.0447 H   0  0  0  0  0  0  0  0  0  0  0  0
   -9.7364   15.0798  -34.8536 H   0  0  0  0  0  0  0  0  0  0  0  0
  1  6  1  0  0  0  0
  1  7  1  0  0  0  0
  1 10  2  0  0  0  0
  2  9  1  0  0  0  0
  2 11  2  0  0  0  0
  2 12  1  0  0  0  0
  3  4  1  0  0  0  0
  3  6  1  0  0  0  0
  4  8  1  0  0  0  0
  5  6  1  0  0  0  0
  5  9  1  0  0  0  0
  7  8  1  0  0  0  0
  7  9  1  0  0  0  0
  8  9  1  0  0  0  0
  3 13  1  0  0  0  0
  3 14  1  0  0  0  0
  4 15  1  0  0  0  0
  4 16  1  0  0  0  0
  5 17  1  0  0  0  0
  5 18  1  0  0  0  0
  6 19  1  0  0  0  0
  7 20  1  0  0  0  0
  8 21  1  0  0  0  0
 12 22  1  0  0  0  0
M  END
> <id>
EN300-37269555

> <smiles>
OC(=O)C12CC3CCC2C1C3=O

> <MDLNUMBER>
MFCD34594372

> <IUPAC Name>
6-oxotricyclo[3.2.1.0,2,7]octane-1-carboxylic acid

> <Purity>
95

> <URL>
https://www.enaminestore.com/catalog/EN300-37269555

> <ROCS_ShapeQuery>
__x1247relevant_x1083L0AP1_x1305L0BP1_

> <ROCS_TanimotoCombo>
0.750 

> <ROCS_ShapeTanimoto>
0.462 

> <ROCS_ColorTanimoto>
0.289 

> <ROCS_RefTversky>
0.389 

> <ROCS_RefColorTversky>
0.423 

> <ROCS_RefTverskyCombo>
0.812 

> <ROCS_FitTversky>
1.690 

> <ROCS_FitColorTversky>
0.475 

> <ROCS_FitTverskyCombo>
2.166 

> <ROCS_ColorScore>
-14.249

> <ROCS_Overlap>
1142.019

> <ROCS_Rank>
65                  

$$$$
untitled-dbase-48912_15
  -OEChem-06232314393D

 32 34  0     1  0  0  0  0  0999 V2000
  -13.8982   15.1872  -37.2761 C   0  0  0  0  0  0  0  0  0  0  0  0
  -13.6244   13.9381  -38.1470 C   0  0  0  0  0  0  0  0  0  0  0  0
  -11.6878   16.4561  -37.4685 C   0  0  0  0  0  0  0  0  0  0  0  0
  -11.2299   14.3568  -38.9355 C   0  0  0  0  0  0  0  0  0  0  0  0
   -9.0339   15.2688  -36.3404 C   0  0  0  0  0  0  0  0  0  0  0  0
  -13.1631   16.3864  -37.9014 C   0  0  1  0  0  0  0  0  0  0  0  0
  -12.7197   14.3528  -39.3214 C   0  0  2  0  0  0  0  0  0  0  0  0
   -9.8720   14.1136  -35.8518 C   0  0  2  0  0  0  0  0  0  0  0  0
  -10.8890   15.1395  -37.6466 C   0  0  0  0  0  0  0  0  0  0  0  0
   -9.3021   12.7573  -36.2458 C   0  0  0  0  0  0  0  0  0  0  0  0
  -14.6151   16.0372  -40.0900 O   0  0  0  0  0  0  0  0  0  0  0  0
  -12.2057   16.7558  -40.3669 O   0  0  0  0  0  0  0  0  0  0  0  0
   -9.4838   15.4610  -37.6793 O   0  0  0  0  0  0  0  0  0  0  0  0
  -11.1335   14.3016  -36.4986 O   0  0  0  0  0  0  0  0  0  0  0  0
   -8.8114   12.8304  -37.5761 O   0  0  0  0  0  0  0  0  0  0  0  0
  -13.2346   16.0324  -39.6521 S   0  0  0  0  0  0  0  0  0  0  0  0
  -14.9783   15.3813  -37.2812 H   0  0  0  0  0  0  0  0  0  0  0  0
  -13.6196   15.0282  -36.2296 H   0  0  0  0  0  0  0  0  0  0  0  0
  -13.1988   13.1151  -37.5641 H   0  0  0  0  0  0  0  0  0  0  0  0
  -14.5828   13.5740  -38.5388 H   0  0  0  0  0  0  0  0  0  0  0  0
  -11.1862   17.2598  -38.0231 H   0  0  0  0  0  0  0  0  0  0  0  0
  -11.6499   16.7552  -36.4128 H   0  0  0  0  0  0  0  0  0  0  0  0
  -10.9005   13.3150  -38.8187 H   0  0  0  0  0  0  0  0  0  0  0  0
  -10.6425   14.7607  -39.7710 H   0  0  0  0  0  0  0  0  0  0  0  0
   -9.1748   16.1832  -35.7538 H   0  0  0  0  0  0  0  0  0  0  0  0
   -7.9631   15.0276  -36.3712 H   0  0  0  0  0  0  0  0  0  0  0  0
  -13.6761   17.3323  -37.7069 H   0  0  0  0  0  0  0  0  0  0  0  0
  -12.8943   13.7433  -40.2123 H   0  0  0  0  0  0  0  0  0  0  0  0
  -10.0291   14.1591  -34.7757 H   0  0  0  0  0  0  0  0  0  0  0  0
  -10.0773   11.9866  -36.1982 H   0  0  0  0  0  0  0  0  0  0  0  0
   -8.4787   12.4787  -35.5813 H   0  0  0  0  0  0  0  0  0  0  0  0
   -8.4569   11.9528  -37.7941 H   0  0  0  0  0  0  0  0  0  0  0  0
  1  2  1  0  0  0  0
  1  6  1  0  0  0  0
  2  7  1  0  0  0  0
  3  6  1  0  0  0  0
  3  9  1  0  0  0  0
  4  7  1  0  0  0  0
  4  9  1  0  0  0  0
  5  8  1  0  0  0  0
  5 13  1  0  0  0  0
  6 16  1  0  0  0  0
  7 16  1  0  0  0  0
  8 10  1  0  0  0  0
  8 14  1  0  0  0  0
  9 13  1  0  0  0  0
  9 14  1  0  0  0  0
 10 15  1  0  0  0  0
 11 16  2  0  0  0  0
 12 16  2  0  0  0  0
  1 17  1  0  0  0  0
  1 18  1  0  0  0  0
  2 19  1  0  0  0  0
  2 20  1  0  0  0  0
  3 21  1  0  0  0  0
  3 22  1  0  0  0  0
  4 23  1  0  0  0  0
  4 24  1  0  0  0  0
  5 25  1  0  0  0  0
  5 26  1  0  0  0  0
  6 27  1  0  0  0  0
  7 28  1  0  0  0  0
  8 29  1  0  0  0  0
 10 30  1  0  0  0  0
 10 31  1  0  0  0  0
 15 32  1  0  0  0  0
M  END
> <id>
EN300-1614614

> <smiles>
OCC1COC2(CC3CCC(C2)S3(=O)=O)O1

> <IUPAC Name>
4'-(hydroxymethyl)-8lambda6-thiaspiro[bicyclo[3.2.1]octane-3,2'-[1,3]dioxolane]-8,8-dione

> <CAS>
2172263-42-0

> <URL>
https://www.enaminestore.com/catalog/EN300-1614614

> <ROCS_ShapeQuery>
__x1247relevant_x1083L0AP1_x1305L0BP1_

> <ROCS_TanimotoCombo>
0.750 

> <ROCS_ShapeTanimoto>
0.522 

> <ROCS_ColorTanimoto>
0.228 

> <ROCS_RefTversky>
0.438 

> <ROCS_RefColorTversky>
0.264 

> <ROCS_RefTverskyCombo>
0.702 

> <ROCS_FitTversky>
1.578 

> <ROCS_FitColorTversky>
0.629 

> <ROCS_FitTverskyCombo>
2.207 

> <ROCS_ColorScore>
-8.655

> <ROCS_Overlap>
1290.733

> <ROCS_Rank>
66                  

$$$$
untitled-dbase-142308_32
  -OEChem-06232314393D

 34 36  0     1  0  0  0  0  0999 V2000
  -10.0868   14.7839  -37.3159 C   0  0  0  0  0  0  0  0  0  0  0  0
  -13.6763   14.2786  -38.3011 C   0  0  0  0  0  0  0  0  0  0  0  0
  -13.1122   16.5974  -38.6638 C   0  0  0  0  0  0  0  0  0  0  0  0
  -13.1363   15.2280  -39.4170 C   0  0  0  0  0  0  0  0  0  0  0  0
  -12.6519   14.6751  -37.2628 C   0  0  2  0  0  0  0  0  0  0  0  0
  -12.2995   16.1041  -37.4896 C   0  0  1  0  0  0  0  0  0  0  0  0
  -11.6224   14.8170  -39.4510 C   0  0  2  0  0  0  0  0  0  0  0  0
  -11.3729   15.0240  -37.9649 C   0  0  0  0  0  0  0  0  0  0  0  0
  -10.5159   14.1717  -34.8195 C   0  0  0  0  0  0  0  0  0  0  0  0
  -10.3991   11.7411  -35.4421 C   0  0  0  0  0  0  0  0  0  0  0  0
   -8.2949   13.1085  -35.3405 C   0  0  0  0  0  0  0  0  0  0  0  0
   -9.7888   13.1238  -35.6609 C   0  0  0  0  0  0  0  0  0  0  0  0
  -10.8017   15.6801  -40.2816 N   0  0  0  0  0  0  0  0  0  0  0  0
   -9.2706   15.6608  -37.0671 O   0  0  0  0  0  0  0  0  0  0  0  0
   -9.9549   13.4545  -37.0434 O   0  0  0  0  0  0  0  0  0  0  0  0
  -14.6959   14.5274  -37.9925 H   0  0  0  0  0  0  0  0  0  0  0  0
  -13.6027   13.2215  -38.5728 H   0  0  0  0  0  0  0  0  0  0  0  0
  -12.6044   17.3898  -39.2201 H   0  0  0  0  0  0  0  0  0  0  0  0
  -14.1114   16.9265  -38.3626 H   0  0  0  0  0  0  0  0  0  0  0  0
  -13.6719   15.2074  -40.3666 H   0  0  0  0  0  0  0  0  0  0  0  0
  -12.6904   14.2365  -36.2847 H   0  0  0  0  0  0  0  0  0  0  0  0
  -12.0639   16.7761  -36.6875 H   0  0  0  0  0  0  0  0  0  0  0  0
  -11.4973   13.7664  -39.7381 H   0  0  0  0  0  0  0  0  0  0  0  0
  -10.0808   15.1656  -34.9738 H   0  0  0  0  0  0  0  0  0  0  0  0
  -11.5820   14.2170  -35.0647 H   0  0  0  0  0  0  0  0  0  0  0  0
  -10.4156   13.9530  -33.7503 H   0  0  0  0  0  0  0  0  0  0  0  0
   -9.8805   10.9860  -36.0438 H   0  0  0  0  0  0  0  0  0  0  0  0
  -11.4478   11.7225  -35.7603 H   0  0  0  0  0  0  0  0  0  0  0  0
  -10.3505   11.4398  -34.3907 H   0  0  0  0  0  0  0  0  0  0  0  0
   -7.7731   12.3569  -35.9438 H   0  0  0  0  0  0  0  0  0  0  0  0
   -7.8324   14.0832  -35.5270 H   0  0  0  0  0  0  0  0  0  0  0  0
   -8.1239   12.8368  -34.2925 H   0  0  0  0  0  0  0  0  0  0  0  0
   -9.8479   15.4204  -40.1667 H   0  0  0  0  0  0  0  0  0  0  0  0
  -11.0781   15.5654  -41.2306 H   0  0  0  0  0  0  0  0  0  0  0  0
  1  8  1  0  0  0  0
  1 14  2  0  0  0  0
  1 15  1  0  0  0  0
  2  4  1  0  0  0  0
  2  5  1  0  0  0  0
  3  4  1  0  0  0  0
  3  6  1  0  0  0  0
  4  7  1  0  0  0  0
  5  6  1  0  0  0  0
  5  8  1  0  0  0  0
  6  8  1  0  0  0  0
  7  8  1  0  0  0  0
  7 13  1  0  0  0  0
  9 12  1  0  0  0  0
 10 12  1  0  0  0  0
 11 12  1  0  0  0  0
 12 15  1  0  0  0  0
  2 16  1  0  0  0  0
  2 17  1  0  0  0  0
  3 18  1  0  0  0  0
  3 19  1  0  0  0  0
  4 20  1  0  0  0  0
  5 21  1  0  0  0  0
  6 22  1  0  0  0  0
  7 23  1  0  0  0  0
  9 24  1  0  0  0  0
  9 25  1  0  0  0  0
  9 26  1  0  0  0  0
 10 27  1  0  0  0  0
 10 28  1  0  0  0  0
 10 29  1  0  0  0  0
 11 30  1  0  0  0  0
 11 31  1  0  0  0  0
 11 32  1  0  0  0  0
 13 33  1  0  0  0  0
 13 34  1  0  0  0  0
M  END
> <id>
EN300-27726543

> <smiles>
CC(C)(C)OC(=O)C1(C2CC3CC21)C3N

> <IUPAC Name>
tert-butyl 7-aminotricyclo[2.2.1.0,2,6]heptane-1-carboxylate

> <CAS>
2580205-85-0

> <URL>
https://www.enaminestore.com/catalog/EN300-27726543

> <ROCS_ShapeQuery>
__x1247relevant_x1083L0AP1_x1305L0BP1_

> <ROCS_TanimotoCombo>
0.750 

> <ROCS_ShapeTanimoto>
0.486 

> <ROCS_ColorTanimoto>
0.264 

> <ROCS_RefTversky>
0.416 

> <ROCS_RefColorTversky>
0.407 

> <ROCS_RefTverskyCombo>
0.823 

> <ROCS_FitTversky>
1.530 

> <ROCS_FitColorTversky>
0.428 

> <ROCS_FitTverskyCombo>
1.959 

> <ROCS_ColorScore>
-13.747

> <ROCS_Overlap>
1225.918

> <ROCS_Rank>
67                  

$$$$
untitled-dbase-106596_58
  -OEChem-06232314393D

 31 33  0     0  0  0  0  0  0999 V2000
  -10.3547   14.0425  -38.0983 C   0  0  0  0  0  0  0  0  0  0  0  0
  -11.2230   15.3509  -36.1169 C   0  0  0  0  0  0  0  0  0  0  0  0
  -13.9370   15.4575  -37.6987 C   0  0  0  0  0  0  0  0  0  0  0  0
  -13.1813   14.3568  -39.2974 C   0  0  0  0  0  0  0  0  0  0  0  0
   -9.0578   14.2426  -37.3149 C   0  0  0  0  0  0  0  0  0  0  0  0
   -9.8622   16.0431  -35.9950 C   0  0  0  0  0  0  0  0  0  0  0  0
  -12.8810   14.3052  -37.7654 C   0  0  0  0  0  0  0  0  0  0  0  0
  -11.4946   14.9142  -37.5524 C   0  0  0  0  0  0  0  0  0  0  0  0
  -13.0227   15.8934  -38.9199 C   0  0  0  0  0  0  0  0  0  0  0  0
  -13.4445   16.9773  -39.8637 C   0  0  0  0  0  0  0  0  0  0  0  0
  -13.3194   13.0929  -37.1251 N   0  0  0  0  0  0  0  0  0  0  0  0
   -8.9065   15.6122  -36.9647 O   0  0  0  0  0  0  0  0  0  0  0  0
  -11.6645   16.0784  -38.4000 O   0  0  0  0  0  0  0  0  0  0  0  0
  -12.4366   17.1694  -40.8525 O   0  0  0  0  0  0  0  0  0  0  0  0
  -10.1508   14.2537  -39.1560 H   0  0  0  0  0  0  0  0  0  0  0  0
  -10.6490   12.9848  -38.0281 H   0  0  0  0  0  0  0  0  0  0  0  0
  -11.2252   14.4691  -35.4626 H   0  0  0  0  0  0  0  0  0  0  0  0
  -11.9874   16.0409  -35.7428 H   0  0  0  0  0  0  0  0  0  0  0  0
  -14.9826   15.2137  -37.9257 H   0  0  0  0  0  0  0  0  0  0  0  0
  -13.9165   16.1143  -36.8254 H   0  0  0  0  0  0  0  0  0  0  0  0
  -12.4274   13.9507  -39.9762 H   0  0  0  0  0  0  0  0  0  0  0  0
  -14.1712   14.0334  -39.6425 H   0  0  0  0  0  0  0  0  0  0  0  0
   -9.0927   13.6614  -36.3912 H   0  0  0  0  0  0  0  0  0  0  0  0
   -8.1891   13.9089  -37.8886 H   0  0  0  0  0  0  0  0  0  0  0  0
   -9.9701   17.1449  -36.0569 H   0  0  0  0  0  0  0  0  0  0  0  0
   -9.4339   15.8387  -34.9958 H   0  0  0  0  0  0  0  0  0  0  0  0
  -13.5920   17.9311  -39.3366 H   0  0  0  0  0  0  0  0  0  0  0  0
  -14.3818   16.7179  -40.3771 H   0  0  0  0  0  0  0  0  0  0  0  0
  -13.3352   12.3500  -37.7939 H   0  0  0  0  0  0  0  0  0  0  0  0
  -12.6892   12.8617  -36.3842 H   0  0  0  0  0  0  0  0  0  0  0  0
  -11.6284   17.4198  -40.3785 H   0  0  0  0  0  0  0  0  0  0  0  0
  1  5  1  0  0  0  0
  1  8  1  0  0  0  0
  2  6  1  0  0  0  0
  2  8  1  0  0  0  0
  3  7  1  0  0  0  0
  3  9  1  0  0  0  0
  4  7  1  0  0  0  0
  4  9  1  0  0  0  0
  5 12  1  0  0  0  0
  6 12  1  0  0  0  0
  7  8  1  0  0  0  0
  7 11  1  0  0  0  0
  8 13  1  0  0  0  0
  9 10  1  0  0  0  0
  9 13  1  0  0  0  0
 10 14  1  0  0  0  0
  1 15  1  0  0  0  0
  1 16  1  0  0  0  0
  2 17  1  0  0  0  0
  2 18  1  0  0  0  0
  3 19  1  0  0  0  0
  3 20  1  0  0  0  0
  4 21  1  0  0  0  0
  4 22  1  0  0  0  0
  5 23  1  0  0  0  0
  5 24  1  0  0  0  0
  6 25  1  0  0  0  0
  6 26  1  0  0  0  0
 10 27  1  0  0  0  0
 10 28  1  0  0  0  0
 11 29  1  0  0  0  0
 11 30  1  0  0  0  0
 14 31  1  0  0  0  0
M  END
> <id>
EN300-6505021

> <smiles>
NC1(CC2(CO)C1)C3(CCOCC3)O2

> <MDLNUMBER>
MFCD31719452

> <IUPAC Name>
{1-amino-3-oxaspiro[bicyclo[2.1.1]hexane-2,4'-oxane]-4-yl}methanol

> <CAS>
2253629-55-7

> <Purity>
95

> <URL>
https://www.enaminestore.com/catalog/EN300-6505021

> <ROCS_ShapeQuery>
__x1247relevant_x1083L0AP1_x1305L0BP1_

> <ROCS_TanimotoCombo>
0.750 

> <ROCS_ShapeTanimoto>
0.509 

> <ROCS_ColorTanimoto>
0.241 

> <ROCS_RefTversky>
0.424 

> <ROCS_RefColorTversky>
0.281 

> <ROCS_RefTverskyCombo>
0.705 

> <ROCS_FitTversky>
1.659 

> <ROCS_FitColorTversky>
0.626 

> <ROCS_FitTverskyCombo>
2.285 

> <ROCS_ColorScore>
-9.235

> <ROCS_Overlap>
1246.542

> <ROCS_Rank>
68                  

$$$$
untitled-dbase-172416_54
  -OEChem-06232314393D

 31 33  0     0  0  0  0  0  0999 V2000
  -10.3700   13.9848  -38.0660 C   0  0  0  0  0  0  0  0  0  0  0  0
  -11.2008   15.3934  -36.1388 C   0  0  0  0  0  0  0  0  0  0  0  0
  -13.2526   14.3764  -39.2606 C   0  0  0  0  0  0  0  0  0  0  0  0
  -13.8909   15.5225  -37.6425 C   0  0  0  0  0  0  0  0  0  0  0  0
   -9.0007   14.6616  -37.9534 C   0  0  0  0  0  0  0  0  0  0  0  0
   -9.7184   15.2926  -35.7815 C   0  0  0  0  0  0  0  0  0  0  0  0
  -12.8883   14.3277  -37.7408 C   0  0  0  0  0  0  0  0  0  0  0  0
  -11.4815   14.9005  -37.5651 C   0  0  0  0  0  0  0  0  0  0  0  0
  -13.0123   15.9060  -38.9104 C   0  0  0  0  0  0  0  0  0  0  0  0
  -13.4285   16.9969  -39.8488 C   0  0  0  0  0  0  0  0  0  0  0  0
  -13.3439   13.1361  -37.0745 N   0  0  0  0  0  0  0  0  0  0  0  0
   -8.9213   15.6322  -36.9089 O   0  0  0  0  0  0  0  0  0  0  0  0
  -11.6243   16.0355  -38.4559 O   0  0  0  0  0  0  0  0  0  0  0  0
  -12.4530   17.1411  -40.8773 O   0  0  0  0  0  0  0  0  0  0  0  0
  -10.5162   13.6905  -39.1111 H   0  0  0  0  0  0  0  0  0  0  0  0
  -10.3572   13.0671  -37.4633 H   0  0  0  0  0  0  0  0  0  0  0  0
  -11.7761   14.7806  -35.4292 H   0  0  0  0  0  0  0  0  0  0  0  0
  -11.5155   16.4355  -35.9981 H   0  0  0  0  0  0  0  0  0  0  0  0
  -12.5475   13.9296  -39.9657 H   0  0  0  0  0  0  0  0  0  0  0  0
  -14.2697   14.0915  -39.5582 H   0  0  0  0  0  0  0  0  0  0  0  0
  -14.9545   15.3227  -37.8226 H   0  0  0  0  0  0  0  0  0  0  0  0
  -13.8043   16.1886  -36.7809 H   0  0  0  0  0  0  0  0  0  0  0  0
   -8.2278   13.8962  -37.7524 H   0  0  0  0  0  0  0  0  0  0  0  0
   -8.7118   15.1367  -38.9128 H   0  0  0  0  0  0  0  0  0  0  0  0
   -9.4655   15.9432  -34.9401 H   0  0  0  0  0  0  0  0  0  0  0  0
   -9.4776   14.2666  -35.4963 H   0  0  0  0  0  0  0  0  0  0  0  0
  -13.5191   17.9604  -39.3263 H   0  0  0  0  0  0  0  0  0  0  0  0
  -14.3942   16.7693  -40.3233 H   0  0  0  0  0  0  0  0  0  0  0  0
  -12.5591   12.6463  -36.6967 H   0  0  0  0  0  0  0  0  0  0  0  0
  -13.9686   13.3876  -36.3360 H   0  0  0  0  0  0  0  0  0  0  0  0
  -11.6181   17.3644  -40.4372 H   0  0  0  0  0  0  0  0  0  0  0  0
  1  5  1  0  0  0  0
  1  8  1  0  0  0  0
  2  6  1  0  0  0  0
  2  8  1  0  0  0  0
  3  7  1  0  0  0  0
  3  9  1  0  0  0  0
  4  7  1  0  0  0  0
  4  9  1  0  0  0  0
  5 12  1  0  0  0  0
  6 12  1  0  0  0  0
  7  8  1  0  0  0  0
  7 11  1  1  0  0  0
  8 13  1  0  0  0  0
  9 10  1  1  0  0  0
  9 13  1  0  0  0  0
 10 14  1  0  0  0  0
  1 15  1  0  0  0  0
  1 16  1  0  0  0  0
  2 17  1  0  0  0  0
  2 18  1  0  0  0  0
  3 19  1  0  0  0  0
  3 20  1  0  0  0  0
  4 21  1  0  0  0  0
  4 22  1  0  0  0  0
  5 23  1  0  0  0  0
  5 24  1  0  0  0  0
  6 25  1  0  0  0  0
  6 26  1  0  0  0  0
 10 27  1  0  0  0  0
 10 28  1  0  0  0  0
 11 29  1  0  0  0  0
 11 30  1  0  0  0  0
 14 31  1  0  0  0  0
M  END
> <id>
EN300-37375290

> <smiles>
N[C@]1(C[C@@]2(CO)C1)C3(CCOCC3)O2

> <IUPAC Name>
{1-amino-3-oxaspiro[bicyclo[2.1.1]hexane-2,4'-oxan]-4-yl}methanol

> <CAS>
2253629-55-7

> <URL>
https://www.enaminestore.com/catalog/EN300-37375290

> <ROCS_ShapeQuery>
__x1247relevant_x1083L0AP1_x1305L0BP1_

> <ROCS_TanimotoCombo>
0.750 

> <ROCS_ShapeTanimoto>
0.509 

> <ROCS_ColorTanimoto>
0.240 

> <ROCS_RefTversky>
0.424 

> <ROCS_RefColorTversky>
0.281 

> <ROCS_RefTverskyCombo>
0.704 

> <ROCS_FitTversky>
1.658 

> <ROCS_FitColorTversky>
0.625 

> <ROCS_FitTverskyCombo>
2.284 

> <ROCS_ColorScore>
-9.223

> <ROCS_Overlap>
1246.292

> <ROCS_Rank>
69                  

$$$$
untitled-dbase-75587_2
  -OEChem-06232314393D

 25 27  0     1  0  0  0  0  0999 V2000
  -11.4079   16.0861  -38.5959 C   0  0  0  0  0  0  0  0  0  0  0  0
  -10.3202   14.6019  -36.7642 C   0  0  0  0  0  0  0  0  0  0  0  0
  -13.2973   15.3036  -39.9075 C   0  0  0  0  0  0  0  0  0  0  0  0
  -13.1741   13.8917  -39.2839 C   0  0  0  0  0  0  0  0  0  0  0  0
  -13.5447   16.2276  -37.5731 C   0  0  0  0  0  0  0  0  0  0  0  0
  -12.8493   16.4123  -38.9416 C   0  0  1  0  0  0  0  0  0  0  0  0
  -12.5087   13.8978  -37.9295 C   0  0  2  0  0  0  0  0  0  0  0  0
  -12.8444   15.0258  -37.0001 C   0  0  1  0  0  0  0  0  0  0  0  0
  -11.4622   14.9596  -37.6136 C   0  0  2  0  0  0  0  0  0  0  0  0
   -8.0680   13.8914  -36.8443 C   0  0  0  0  0  0  0  0  0  0  0  0
  -10.3901   16.5621  -39.0643 O   0  0  0  0  0  0  0  0  0  0  0  0
  -10.3458   14.6143  -35.5409 O   0  0  0  0  0  0  0  0  0  0  0  0
   -9.2571   14.2639  -37.5481 O   0  0  0  0  0  0  0  0  0  0  0  0
  -12.6916   15.3419  -40.8218 H   0  0  0  0  0  0  0  0  0  0  0  0
  -14.3361   15.4720  -40.2158 H   0  0  0  0  0  0  0  0  0  0  0  0
  -14.1737   13.4524  -39.1833 H   0  0  0  0  0  0  0  0  0  0  0  0
  -12.6110   13.2406  -39.9624 H   0  0  0  0  0  0  0  0  0  0  0  0
  -13.3702   17.0977  -36.9301 H   0  0  0  0  0  0  0  0  0  0  0  0
  -14.6228   16.0676  -37.6705 H   0  0  0  0  0  0  0  0  0  0  0  0
  -12.9652   17.4184  -39.3489 H   0  0  0  0  0  0  0  0  0  0  0  0
  -12.3954   12.9067  -37.5100 H   0  0  0  0  0  0  0  0  0  0  0  0
  -12.9964   14.8432  -35.9491 H   0  0  0  0  0  0  0  0  0  0  0  0
   -7.2825   13.6412  -37.5616 H   0  0  0  0  0  0  0  0  0  0  0  0
   -8.2775   13.0319  -36.2026 H   0  0  0  0  0  0  0  0  0  0  0  0
   -7.7413   14.7326  -36.2284 H   0  0  0  0  0  0  0  0  0  0  0  0
  1  6  1  0  0  0  0
  1  9  1  0  0  0  0
  1 11  2  0  0  0  0
  2  9  1  0  0  0  0
  2 12  2  0  0  0  0
  2 13  1  0  0  0  0
  3  4  1  0  0  0  0
  3  6  1  0  0  0  0
  4  7  1  0  0  0  0
  5  6  1  0  0  0  0
  5  8  1  0  0  0  0
  7  8  1  0  0  0  0
  7  9  1  0  0  0  0
  8  9  1  0  0  0  0
 10 13  1  0  0  0  0
  3 14  1  0  0  0  0
  3 15  1  0  0  0  0
  4 16  1  0  0  0  0
  4 17  1  0  0  0  0
  5 18  1  0  0  0  0
  5 19  1  0  0  0  0
  6 20  1  0  0  0  0
  7 21  1  0  0  0  0
  8 22  1  0  0  0  0
 10 23  1  0  0  0  0
 10 24  1  0  0  0  0
 10 25  1  0  0  0  0
M  END
> <id>
EN300-7472239

> <smiles>
COC(=O)C1(C2CC3CCC21)C3=O

> <MDLNUMBER>
MFCD32268290

> <IUPAC Name>
methyl 8-oxotricyclo[3.2.1.0,2,7]octane-1-carboxylate

> <CAS>
1243167-68-1

> <Purity>
95

> <URL>
https://www.enaminestore.com/catalog/EN300-7472239

> <ROCS_ShapeQuery>
__x1247relevant_x1083L0AP1_x1305L0BP1_

> <ROCS_TanimotoCombo>
0.749 

> <ROCS_ShapeTanimoto>
0.491 

> <ROCS_ColorTanimoto>
0.258 

> <ROCS_RefTversky>
0.410 

> <ROCS_RefColorTversky>
0.377 

> <ROCS_RefTverskyCombo>
0.787 

> <ROCS_FitTversky>
1.679 

> <ROCS_FitColorTversky>
0.451 

> <ROCS_FitTverskyCombo>
2.130 

> <ROCS_ColorScore>
-12.645

> <ROCS_Overlap>
1204.943

> <ROCS_Rank>
70                  

$$$$
untitled-dbase-142845_25
  -OEChem-06232314393D

 34 36  0     1  0  0  0  0  0999 V2000
  -10.5836   14.5309  -36.5875 C   0  0  0  0  0  0  0  0  0  0  0  0
  -13.9803   15.3162  -37.9911 C   0  0  0  0  0  0  0  0  0  0  0  0
  -12.1822   13.8014  -38.5309 C   0  0  0  0  0  0  0  0  0  0  0  0
  -13.2007   14.7626  -39.2261 C   0  0  2  0  0  0  0  0  0  0  0  0
  -12.7520   15.7622  -37.2305 C   0  0  2  0  0  0  0  0  0  0  0  0
  -11.7152   16.1683  -38.2241 C   0  0  2  0  0  0  0  0  0  0  0  0
  -12.3168   16.0019  -39.6025 C   0  0  1  0  0  0  0  0  0  0  0  0
  -11.6313   14.8268  -37.5574 C   0  0  1  0  0  0  0  0  0  0  0  0
   -7.9706   14.9269  -35.5331 C   0  0  0  0  0  0  0  0  0  0  0  0
   -7.1526   14.3177  -37.8285 C   0  0  0  0  0  0  0  0  0  0  0  0
   -8.5929   16.3509  -37.5129 C   0  0  0  0  0  0  0  0  0  0  0  0
   -8.2967   14.9332  -37.0259 C   0  0  0  0  0  0  0  0  0  0  0  0
  -11.3241   15.7758  -40.6363 N   0  0  0  0  0  0  0  0  0  0  0  0
  -10.7206   14.6391  -35.3764 O   0  0  0  0  0  0  0  0  0  0  0  0
   -9.4582   14.1254  -37.2416 O   0  0  0  0  0  0  0  0  0  0  0  0
  -14.6370   16.1529  -38.2468 H   0  0  0  0  0  0  0  0  0  0  0  0
  -14.5362   14.5379  -37.4603 H   0  0  0  0  0  0  0  0  0  0  0  0
  -12.6819   12.9757  -38.0135 H   0  0  0  0  0  0  0  0  0  0  0  0
  -11.4207   13.4064  -39.2080 H   0  0  0  0  0  0  0  0  0  0  0  0
  -13.8069   14.3326  -40.0239 H   0  0  0  0  0  0  0  0  0  0  0  0
  -12.8626   16.2435  -36.2784 H   0  0  0  0  0  0  0  0  0  0  0  0
  -11.0343   16.9756  -38.0314 H   0  0  0  0  0  0  0  0  0  0  0  0
  -12.9399   16.8638  -39.8672 H   0  0  0  0  0  0  0  0  0  0  0  0
   -8.7894   15.3680  -34.9535 H   0  0  0  0  0  0  0  0  0  0  0  0
   -7.7904   13.9121  -35.1638 H   0  0  0  0  0  0  0  0  0  0  0  0
   -7.0822   15.5340  -35.3244 H   0  0  0  0  0  0  0  0  0  0  0  0
   -7.3823   14.3201  -38.9001 H   0  0  0  0  0  0  0  0  0  0  0  0
   -6.9989   13.2693  -37.5481 H   0  0  0  0  0  0  0  0  0  0  0  0
   -6.2137   14.8591  -37.6740 H   0  0  0  0  0  0  0  0  0  0  0  0
   -8.8269   16.3557  -38.5836 H   0  0  0  0  0  0  0  0  0  0  0  0
   -9.4355   16.7950  -36.9731 H   0  0  0  0  0  0  0  0  0  0  0  0
   -7.7174   16.9978  -37.3848 H   0  0  0  0  0  0  0  0  0  0  0  0
  -11.7926   15.5991  -41.4967 H   0  0  0  0  0  0  0  0  0  0  0  0
  -10.7547   16.5885  -40.7156 H   0  0  0  0  0  0  0  0  0  0  0  0
  1  8  1  0  0  0  0
  1 14  2  0  0  0  0
  1 15  1  0  0  0  0
  2  4  1  0  0  0  0
  2  5  1  0  0  0  0
  3  4  1  0  0  0  0
  3  8  1  0  0  0  0
  4  7  1  0  0  0  0
  5  6  1  0  0  0  0
  5  8  1  0  0  0  0
  6  7  1  0  0  0  0
  6  8  1  0  0  0  0
  7 13  1  0  0  0  0
  9 12  1  0  0  0  0
 10 12  1  0  0  0  0
 11 12  1  0  0  0  0
 12 15  1  0  0  0  0
  2 16  1  0  0  0  0
  2 17  1  0  0  0  0
  3 18  1  0  0  0  0
  3 19  1  0  0  0  0
  4 20  1  0  0  0  0
  5 21  1  0  0  0  0
  6 22  1  0  0  0  0
  7 23  1  0  0  0  0
  9 24  1  0  0  0  0
  9 25  1  0  0  0  0
  9 26  1  0  0  0  0
 10 27  1  0  0  0  0
 10 28  1  0  0  0  0
 10 29  1  0  0  0  0
 11 30  1  0  0  0  0
 11 31  1  0  0  0  0
 11 32  1  0  0  0  0
 13 33  1  0  0  0  0
 13 34  1  0  0  0  0
M  END
> <id>
EN300-27729092

> <smiles>
CC(C)(C)OC(=O)C12CC3CC2C1C3N

> <IUPAC Name>
tert-butyl 3-aminotricyclo[2.2.1.0,2,6]heptane-1-carboxylate

> <CAS>
2580214-88-4

> <URL>
https://www.enaminestore.com/catalog/EN300-27729092

> <ROCS_ShapeQuery>
__x1247relevant_x1083L0AP1_x1305L0BP1_

> <ROCS_TanimotoCombo>
0.749 

> <ROCS_ShapeTanimoto>
0.493 

> <ROCS_ColorTanimoto>
0.256 

> <ROCS_RefTversky>
0.420 

> <ROCS_RefColorTversky>
0.398 

> <ROCS_RefTverskyCombo>
0.818 

> <ROCS_FitTversky>
1.546 

> <ROCS_FitColorTversky>
0.418 

> <ROCS_FitTverskyCombo>
1.964 

> <ROCS_ColorScore>
-13.432

> <ROCS_Overlap>
1236.750

> <ROCS_Rank>
71                  

$$$$
untitled-dbase-110099_11
  -OEChem-06232314393D

 27 28  0     1  0  0  0  0  0999 V2000
  -10.0955   15.2990  -36.7427 C   0  0  0  0  0  0  0  0  0  0  0  0
  -13.8231   15.9509  -37.3909 C   0  0  0  0  0  0  0  0  0  0  0  0
  -12.4725   15.9480  -36.6851 C   0  0  0  0  0  0  0  0  0  0  0  0
  -11.0821   16.2804  -38.7988 C   0  0  0  0  0  0  0  0  0  0  0  0
  -11.8558   15.9087  -40.0636 C   0  0  0  0  0  0  0  0  0  0  0  0
  -13.0389   13.7530  -38.3312 C   0  0  0  0  0  0  0  0  0  0  0  0
  -13.8439   15.0318  -38.6202 C   0  0  2  0  0  0  0  0  0  0  0  0
  -11.3547   15.3788  -37.5690 C   0  0  1  0  0  0  0  0  0  0  0  0
  -13.3568   15.7450  -39.8890 C   0  0  0  0  0  0  0  0  0  0  0  0
  -11.6449   13.9860  -37.9313 N   0  0  0  0  0  0  0  0  0  0  0  0
   -9.0501   15.8778  -36.9988 O   0  0  0  0  0  0  0  0  0  0  0  0
  -10.2774   14.4908  -35.6699 O   0  0  0  0  0  0  0  0  0  0  0  0
  -13.8117   15.0428  -40.9693 F   0  0  0  0  0  0  0  0  0  0  0  0
  -13.9529   16.9646  -39.9773 F   0  0  0  0  0  0  0  0  0  0  0  0
  -14.5936   15.6124  -36.6813 H   0  0  0  0  0  0  0  0  0  0  0  0
  -14.1135   16.9743  -37.6699 H   0  0  0  0  0  0  0  0  0  0  0  0
  -12.2221   16.9613  -36.3586 H   0  0  0  0  0  0  0  0  0  0  0  0
  -12.5610   15.3548  -35.7688 H   0  0  0  0  0  0  0  0  0  0  0  0
  -10.0088   16.2790  -39.0251 H   0  0  0  0  0  0  0  0  0  0  0  0
  -11.3229   17.3226  -38.5574 H   0  0  0  0  0  0  0  0  0  0  0  0
  -11.6610   16.6614  -40.8370 H   0  0  0  0  0  0  0  0  0  0  0  0
  -11.4429   14.9741  -40.4619 H   0  0  0  0  0  0  0  0  0  0  0  0
  -13.5366   13.2114  -37.5220 H   0  0  0  0  0  0  0  0  0  0  0  0
  -13.0481   13.0897  -39.1969 H   0  0  0  0  0  0  0  0  0  0  0  0
  -14.8848   14.7300  -38.8061 H   0  0  0  0  0  0  0  0  0  0  0  0
  -11.4315   13.3664  -37.1570 H   0  0  0  0  0  0  0  0  0  0  0  0
  -11.1853   14.1205  -35.6399 H   0  0  0  0  0  0  0  0  0  0  0  0
  1  8  1  0  0  0  0
  1 11  2  0  0  0  0
  1 12  1  0  0  0  0
  2  3  1  0  0  0  0
  2  7  1  0  0  0  0
  3  8  1  0  0  0  0
  4  5  1  0  0  0  0
  4  8  1  0  0  0  0
  5  9  1  0  0  0  0
  6  7  1  0  0  0  0
  6 10  1  0  0  0  0
  7  9  1  0  0  0  0
  8 10  1  0  0  0  0
  9 13  1  0  0  0  0
  9 14  1  0  0  0  0
  2 15  1  0  0  0  0
  2 16  1  0  0  0  0
  3 17  1  0  0  0  0
  3 18  1  0  0  0  0
  4 19  1  0  0  0  0
  4 20  1  0  0  0  0
  5 21  1  0  0  0  0
  5 22  1  0  0  0  0
  6 23  1  0  0  0  0
  6 24  1  0  0  0  0
  7 25  1  0  0  0  0
 10 26  1  0  0  0  0
 12 27  1  0  0  0  0
M  END
> <id>
EN300-109778

> <smiles>
Cl.OC(=O)C1(CCC2CN1)CCC2(F)F

> <MDLNUMBER>
MFCD22378703

> <IUPAC Name>
2,2-difluoro-6-azabicyclo[3.2.2]nonane-5-carboxylic acid hydrochloride

> <CAS>
1394042-78-4

> <URL>
https://www.enaminestore.com/catalog/EN300-109778

> <Saltdate>
Cl

> <ROCS_ShapeQuery>
__x1247relevant_x1083L0AP1_x1305L0BP1_

> <ROCS_TanimotoCombo>
0.749 

> <ROCS_ShapeTanimoto>
0.502 

> <ROCS_ColorTanimoto>
0.247 

> <ROCS_RefTversky>
0.420 

> <ROCS_RefColorTversky>
0.269 

> <ROCS_RefTverskyCombo>
0.689 

> <ROCS_FitTversky>
1.645 

> <ROCS_FitColorTversky>
0.750 

> <ROCS_FitTverskyCombo>
2.395 

> <ROCS_ColorScore>
-8.798

> <ROCS_Overlap>
1234.761

> <ROCS_Rank>
72                  

$$$$
untitled-dbase-110471_11
  -OEChem-06232314393D

 27 28  0     1  0  0  0  0  0999 V2000
  -10.0955   15.2990  -36.7427 C   0  0  0  0  0  0  0  0  0  0  0  0
  -13.8231   15.9509  -37.3909 C   0  0  0  0  0  0  0  0  0  0  0  0
  -12.4725   15.9480  -36.6851 C   0  0  0  0  0  0  0  0  0  0  0  0
  -11.0821   16.2804  -38.7988 C   0  0  0  0  0  0  0  0  0  0  0  0
  -11.8558   15.9087  -40.0636 C   0  0  0  0  0  0  0  0  0  0  0  0
  -13.0389   13.7530  -38.3312 C   0  0  0  0  0  0  0  0  0  0  0  0
  -13.8439   15.0318  -38.6202 C   0  0  2  0  0  0  0  0  0  0  0  0
  -11.3547   15.3788  -37.5690 C   0  0  1  0  0  0  0  0  0  0  0  0
  -13.3568   15.7450  -39.8890 C   0  0  0  0  0  0  0  0  0  0  0  0
  -11.6449   13.9860  -37.9313 N   0  0  0  0  0  0  0  0  0  0  0  0
   -9.0501   15.8778  -36.9988 O   0  0  0  0  0  0  0  0  0  0  0  0
  -10.2774   14.4908  -35.6699 O   0  0  0  0  0  0  0  0  0  0  0  0
  -13.8117   15.0428  -40.9693 F   0  0  0  0  0  0  0  0  0  0  0  0
  -13.9529   16.9646  -39.9773 F   0  0  0  0  0  0  0  0  0  0  0  0
  -14.5936   15.6124  -36.6813 H   0  0  0  0  0  0  0  0  0  0  0  0
  -14.1135   16.9743  -37.6699 H   0  0  0  0  0  0  0  0  0  0  0  0
  -12.2221   16.9613  -36.3586 H   0  0  0  0  0  0  0  0  0  0  0  0
  -12.5610   15.3548  -35.7688 H   0  0  0  0  0  0  0  0  0  0  0  0
  -10.0088   16.2790  -39.0251 H   0  0  0  0  0  0  0  0  0  0  0  0
  -11.3229   17.3226  -38.5574 H   0  0  0  0  0  0  0  0  0  0  0  0
  -11.6610   16.6614  -40.8370 H   0  0  0  0  0  0  0  0  0  0  0  0
  -11.4429   14.9741  -40.4619 H   0  0  0  0  0  0  0  0  0  0  0  0
  -13.5366   13.2114  -37.5220 H   0  0  0  0  0  0  0  0  0  0  0  0
  -13.0481   13.0897  -39.1969 H   0  0  0  0  0  0  0  0  0  0  0  0
  -14.8848   14.7300  -38.8061 H   0  0  0  0  0  0  0  0  0  0  0  0
  -11.4315   13.3664  -37.1570 H   0  0  0  0  0  0  0  0  0  0  0  0
  -11.1853   14.1205  -35.6399 H   0  0  0  0  0  0  0  0  0  0  0  0
  1  8  1  0  0  0  0
  1 11  2  0  0  0  0
  1 12  1  0  0  0  0
  2  3  1  0  0  0  0
  2  7  1  0  0  0  0
  3  8  1  0  0  0  0
  4  5  1  0  0  0  0
  4  8  1  0  0  0  0
  5  9  1  0  0  0  0
  6  7  1  0  0  0  0
  6 10  1  0  0  0  0
  7  9  1  0  0  0  0
  8 10  1  0  0  0  0
  9 13  1  0  0  0  0
  9 14  1  0  0  0  0
  2 15  1  0  0  0  0
  2 16  1  0  0  0  0
  3 17  1  0  0  0  0
  3 18  1  0  0  0  0
  4 19  1  0  0  0  0
  4 20  1  0  0  0  0
  5 21  1  0  0  0  0
  5 22  1  0  0  0  0
  6 23  1  0  0  0  0
  6 24  1  0  0  0  0
  7 25  1  0  0  0  0
 10 26  1  0  0  0  0
 12 27  1  0  0  0  0
M  END
> <id>
EN300-109610

> <smiles>
OC(=O)C1(CCC2CN1)CCC2(F)F

> <MDLNUMBER>
MFCD27919992

> <IUPAC Name>
2,2-difluoro-6-azabicyclo[3.2.2]nonane-5-carboxylic acid

> <CAS>
1394116-73-4

> <URL>
https://www.enaminestore.com/catalog/EN300-109610

> <ROCS_ShapeQuery>
__x1247relevant_x1083L0AP1_x1305L0BP1_

> <ROCS_TanimotoCombo>
0.749 

> <ROCS_ShapeTanimoto>
0.502 

> <ROCS_ColorTanimoto>
0.247 

> <ROCS_RefTversky>
0.420 

> <ROCS_RefColorTversky>
0.269 

> <ROCS_RefTverskyCombo>
0.689 

> <ROCS_FitTversky>
1.645 

> <ROCS_FitColorTversky>
0.750 

> <ROCS_FitTverskyCombo>
2.395 

> <ROCS_ColorScore>
-8.798

> <ROCS_Overlap>
1234.761

> <ROCS_Rank>
73                  

$$$$
untitled-dbase-144211_18
  -OEChem-06232314393D

 26 27  0     1  0  0  0  0  0999 V2000
  -10.4913   14.8594  -36.4190 C   0  0  0  0  0  0  0  0  0  0  0  0
  -11.7837   16.3605  -38.8262 C   0  0  0  0  0  0  0  0  0  0  0  0
  -11.8593   14.8163  -37.0222 C   0  0  1  0  0  0  0  0  0  0  0  0
  -12.3767   16.2049  -37.4276 C   0  0  2  0  0  0  0  0  0  0  0  0
  -12.3632   15.0312  -39.2989 C   0  0  2  0  0  0  0  0  0  0  0  0
  -13.8788   16.1132  -37.7724 C   0  0  1  0  0  0  0  0  0  0  0  0
  -13.8701   15.1843  -39.0006 C   0  0  1  0  0  0  0  0  0  0  0  0
   -8.2876   15.6169  -36.8108 C   0  0  0  0  0  0  0  0  0  0  0  0
  -11.7912   14.0866  -38.3097 N   0  0  0  0  0  0  0  0  0  0  0  0
  -10.2080   14.3820  -35.3286 O   0  0  0  0  0  0  0  0  0  0  0  0
  -14.6326   15.5732  -36.7040 O   0  0  0  0  0  0  0  0  0  0  0  0
  -14.5056   15.8185  -40.1025 O   0  0  0  0  0  0  0  0  0  0  0  0
   -9.6393   15.5031  -37.2668 O   0  0  0  0  0  0  0  0  0  0  0  0
  -12.1766   17.2260  -39.3705 H   0  0  0  0  0  0  0  0  0  0  0  0
  -10.6894   16.3920  -38.8436 H   0  0  0  0  0  0  0  0  0  0  0  0
  -12.5162   14.2956  -36.3190 H   0  0  0  0  0  0  0  0  0  0  0  0
  -12.1293   17.0025  -36.7233 H   0  0  0  0  0  0  0  0  0  0  0  0
  -12.1293   14.7741  -40.3348 H   0  0  0  0  0  0  0  0  0  0  0  0
  -14.2815   17.1047  -38.0123 H   0  0  0  0  0  0  0  0  0  0  0  0
  -14.3634   14.2211  -38.8282 H   0  0  0  0  0  0  0  0  0  0  0  0
   -7.6928   16.1454  -37.5599 H   0  0  0  0  0  0  0  0  0  0  0  0
   -7.8746   14.6196  -36.6396 H   0  0  0  0  0  0  0  0  0  0  0  0
   -8.2744   16.1801  -35.8747 H   0  0  0  0  0  0  0  0  0  0  0  0
  -10.8173   13.9102  -38.5585 H   0  0  0  0  0  0  0  0  0  0  0  0
  -15.5611   15.5466  -36.9929 H   0  0  0  0  0  0  0  0  0  0  0  0
  -14.3620   15.2480  -40.8749 H   0  0  0  0  0  0  0  0  0  0  0  0
  1  3  1  0  0  0  0
  1 10  2  0  0  0  0
  1 13  1  0  0  0  0
  2  4  1  0  0  0  0
  2  5  1  0  0  0  0
  3  4  1  0  0  0  0
  3  9  1  0  0  0  0
  4  6  1  0  0  0  0
  5  7  1  0  0  0  0
  5  9  1  0  0  0  0
  6  7  1  0  0  0  0
  6 11  1  0  0  0  0
  7 12  1  0  0  0  0
  8 13  1  0  0  0  0
  2 14  1  0  0  0  0
  2 15  1  0  0  0  0
  3 16  1  0  0  0  0
  4 17  1  0  0  0  0
  5 18  1  0  0  0  0
  6 19  1  0  0  0  0
  7 20  1  0  0  0  0
  8 21  1  0  0  0  0
  8 22  1  0  0  0  0
  8 23  1  0  0  0  0
  9 24  1  0  0  0  0
 11 25  1  0  0  0  0
 12 26  1  0  0  0  0
M  END
> <id>
EN300-27727916

> <smiles>
COC(=O)C1NC2CC1C(O)C2O

> <IUPAC Name>
methyl 5,6-dihydroxy-2-azabicyclo[2.2.1]heptane-3-carboxylate

> <CAS>
2580177-71-3

> <URL>
https://www.enaminestore.com/catalog/EN300-27727916

> <ROCS_ShapeQuery>
__x1247relevant_x1083L0AP1_x1305L0BP1_

> <ROCS_TanimotoCombo>
0.749 

> <ROCS_ShapeTanimoto>
0.469 

> <ROCS_ColorTanimoto>
0.280 

> <ROCS_RefTversky>
0.396 

> <ROCS_RefColorTversky>
0.315 

> <ROCS_RefTverskyCombo>
0.710 

> <ROCS_FitTversky>
1.650 

> <ROCS_FitColorTversky>
0.718 

> <ROCS_FitTverskyCombo>
2.369 

> <ROCS_ColorScore>
-10.329

> <ROCS_Overlap>
1163.795

> <ROCS_Rank>
74                  

$$$$
untitled-dbase-76147_1
  -OEChem-06232314393D

 28 30  0     1  0  0  0  0  0999 V2000
   -9.9725   14.8292  -37.2392 C   0  0  0  0  0  0  0  0  0  0  0  0
  -13.5739   16.1671  -39.4077 C   0  0  0  0  0  0  0  0  0  0  0  0
  -13.0687   16.9105  -38.1571 C   0  0  0  0  0  0  0  0  0  0  0  0
  -13.4434   13.9722  -38.2263 C   0  0  0  0  0  0  0  0  0  0  0  0
  -13.0114   14.7323  -39.5038 C   0  0  2  0  0  0  0  0  0  0  0  0
  -12.2348   16.0402  -37.2591 C   0  0  1  0  0  0  0  0  0  0  0  0
  -12.5246   14.5669  -37.1932 C   0  0  2  0  0  0  0  0  0  0  0  0
  -11.4629   14.7266  -39.3603 C   0  0  2  0  0  0  0  0  0  0  0  0
  -11.2767   15.0420  -37.8856 C   0  0  2  0  0  0  0  0  0  0  0  0
   -8.6247   13.1733  -36.2267 C   0  0  0  0  0  0  0  0  0  0  0  0
  -10.7795   15.6751  -40.2232 N   0  0  0  0  0  0  0  0  0  0  0  0
   -9.1395   15.7094  -37.0708 O   0  0  0  0  0  0  0  0  0  0  0  0
   -9.8541   13.5217  -36.8710 O   0  0  0  0  0  0  0  0  0  0  0  0
  -14.6704   16.1282  -39.3850 H   0  0  0  0  0  0  0  0  0  0  0  0
  -13.3157   16.7418  -40.3053 H   0  0  0  0  0  0  0  0  0  0  0  0
  -12.4734   17.7787  -38.4632 H   0  0  0  0  0  0  0  0  0  0  0  0
  -13.9240   17.3005  -37.5933 H   0  0  0  0  0  0  0  0  0  0  0  0
  -14.4977   14.1247  -37.9763 H   0  0  0  0  0  0  0  0  0  0  0  0
  -13.2525   12.8982  -38.3273 H   0  0  0  0  0  0  0  0  0  0  0  0
  -13.3558   14.2418  -40.4192 H   0  0  0  0  0  0  0  0  0  0  0  0
  -11.9386   16.5440  -36.3478 H   0  0  0  0  0  0  0  0  0  0  0  0
  -12.4737   14.0436  -36.2523 H   0  0  0  0  0  0  0  0  0  0  0  0
  -11.0855   13.7161  -39.5641 H   0  0  0  0  0  0  0  0  0  0  0  0
   -8.6330   12.1099  -35.9750 H   0  0  0  0  0  0  0  0  0  0  0  0
   -8.5047   13.7722  -35.3204 H   0  0  0  0  0  0  0  0  0  0  0  0
   -7.7957   13.3775  -36.9085 H   0  0  0  0  0  0  0  0  0  0  0  0
   -9.8038   15.6311  -40.0343 H   0  0  0  0  0  0  0  0  0  0  0  0
  -10.9593   15.4293  -41.1703 H   0  0  0  0  0  0  0  0  0  0  0  0
  1  9  1  0  0  0  0
  1 12  2  0  0  0  0
  1 13  1  0  0  0  0
  2  3  1  0  0  0  0
  2  5  1  0  0  0  0
  3  6  1  0  0  0  0
  4  5  1  0  0  0  0
  4  7  1  0  0  0  0
  5  8  1  0  0  0  0
  6  7  1  0  0  0  0
  6  9  1  0  0  0  0
  7  9  1  0  0  0  0
  8  9  1  0  0  0  0
  8 11  1  0  0  0  0
 10 13  1  0  0  0  0
  2 14  1  0  0  0  0
  2 15  1  0  0  0  0
  3 16  1  0  0  0  0
  3 17  1  0  0  0  0
  4 18  1  0  0  0  0
  4 19  1  0  0  0  0
  5 20  1  0  0  0  0
  6 21  1  0  0  0  0
  7 22  1  0  0  0  0
  8 23  1  0  0  0  0
 10 24  1  0  0  0  0
 10 25  1  0  0  0  0
 10 26  1  0  0  0  0
 11 27  1  0  0  0  0
 11 28  1  0  0  0  0
M  END
> <id>
EN300-7501688

> <smiles>
COC(=O)C1(C2CC3CCC21)C3N

> <MDLNUMBER>
MFCD32268471

> <IUPAC Name>
methyl 8-aminotricyclo[3.2.1.0,2,7]octane-1-carboxylate

> <CAS>
2649081-83-2

> <Purity>
95

> <URL>
https://www.enaminestore.com/catalog/EN300-7501688

> <ROCS_ShapeQuery>
__x1247relevant_x1083L0AP1_x1305L0BP1_

> <ROCS_TanimotoCombo>
0.749 

> <ROCS_ShapeTanimoto>
0.482 

> <ROCS_ColorTanimoto>
0.267 

> <ROCS_RefTversky>
0.404 

> <ROCS_RefColorTversky>
0.392 

> <ROCS_RefTverskyCombo>
0.795 

> <ROCS_FitTversky>
1.672 

> <ROCS_FitColorTversky>
0.456 

> <ROCS_FitTverskyCombo>
2.128 

> <ROCS_ColorScore>
-13.151

> <ROCS_Overlap>
1187.643

> <ROCS_Rank>
75                  

$$$$
untitled-dbase-172214_46
  -OEChem-06232314393D

 40 41  0     1  0  0  0  0  0999 V2000
   -9.6882   14.8433  -37.1745 C   0  0  0  0  0  0  0  0  0  0  0  0
  -13.7610   15.0136  -37.0684 C   0  0  0  0  0  0  0  0  0  0  0  0
  -13.4196   16.4430  -37.5338 C   0  0  0  0  0  0  0  0  0  0  0  0
  -11.7883   13.7027  -37.9664 C   0  0  0  0  0  0  0  0  0  0  0  0
  -11.2128   16.0275  -38.7219 C   0  0  0  0  0  0  0  0  0  0  0  0
  -13.2558   14.0876  -38.1897 C   0  0  2  0  0  0  0  0  0  0  0  0
  -12.7285   16.2679  -38.9047 C   0  0  1  0  0  0  0  0  0  0  0  0
  -13.3811   14.9847  -39.4090 C   0  0  0  0  0  0  0  0  0  0  0  0
  -10.1346   14.7148  -34.5925 C   0  0  0  0  0  0  0  0  0  0  0  0
   -9.7561   12.2338  -34.6968 C   0  0  0  0  0  0  0  0  0  0  0  0
   -7.8028   13.8047  -34.8559 C   0  0  0  0  0  0  0  0  0  0  0  0
  -12.9641   17.4552  -39.8323 C   0  0  0  0  0  0  0  0  0  0  0  0
   -9.2795   13.5983  -35.1901 C   0  0  0  0  0  0  0  0  0  0  0  0
  -10.9031   14.8727  -37.8711 N   0  0  0  0  0  0  0  0  0  0  0  0
   -8.9245   15.8020  -37.0747 O   0  0  0  0  0  0  0  0  0  0  0  0
  -12.2892   17.2145  -41.0537 O   0  0  0  0  0  0  0  0  0  0  0  0
   -9.4321   13.6198  -36.6139 O   0  0  0  0  0  0  0  0  0  0  0  0
  -12.7867   14.4782  -40.5018 F   0  0  0  0  0  0  0  0  0  0  0  0
  -14.6862   15.1837  -39.7070 F   0  0  0  0  0  0  0  0  0  0  0  0
  -13.3145   14.7829  -36.0956 H   0  0  0  0  0  0  0  0  0  0  0  0
  -14.8482   14.9183  -36.9620 H   0  0  0  0  0  0  0  0  0  0  0  0
  -14.3462   17.0229  -37.6241 H   0  0  0  0  0  0  0  0  0  0  0  0
  -12.7817   16.9594  -36.8083 H   0  0  0  0  0  0  0  0  0  0  0  0
  -11.7003   13.0948  -37.0599 H   0  0  0  0  0  0  0  0  0  0  0  0
  -11.4220   13.0954  -38.8026 H   0  0  0  0  0  0  0  0  0  0  0  0
  -10.7369   15.8344  -39.6918 H   0  0  0  0  0  0  0  0  0  0  0  0
  -10.7325   16.9205  -38.3043 H   0  0  0  0  0  0  0  0  0  0  0  0
  -13.8745   13.1887  -38.2723 H   0  0  0  0  0  0  0  0  0  0  0  0
   -9.7956   15.6958  -34.9442 H   0  0  0  0  0  0  0  0  0  0  0  0
  -11.1912   14.5976  -34.8542 H   0  0  0  0  0  0  0  0  0  0  0  0
  -10.0483   14.7313  -33.5000 H   0  0  0  0  0  0  0  0  0  0  0  0
   -9.1453   11.4298  -35.1231 H   0  0  0  0  0  0  0  0  0  0  0  0
  -10.7866   12.0413  -35.0166 H   0  0  0  0  0  0  0  0  0  0  0  0
   -9.7124   12.1609  -33.6053 H   0  0  0  0  0  0  0  0  0  0  0  0
   -7.1893   13.0040  -35.2844 H   0  0  0  0  0  0  0  0  0  0  0  0
   -7.4337   14.7633  -35.2348 H   0  0  0  0  0  0  0  0  0  0  0  0
   -7.6403   13.7726  -33.7725 H   0  0  0  0  0  0  0  0  0  0  0  0
  -12.5729   18.3659  -39.3783 H   0  0  0  0  0  0  0  0  0  0  0  0
  -14.0306   17.5704  -40.0268 H   0  0  0  0  0  0  0  0  0  0  0  0
  -12.4537   17.9826  -41.6268 H   0  0  0  0  0  0  0  0  0  0  0  0
  1 14  1  0  0  0  0
  1 15  2  0  0  0  0
  1 17  1  0  0  0  0
  2  3  1  0  0  0  0
  2  6  1  0  0  0  0
  3  7  1  0  0  0  0
  4  6  1  0  0  0  0
  4 14  1  0  0  0  0
  5  7  1  0  0  0  0
  5 14  1  0  0  0  0
  6  8  1  0  0  0  0
  7  8  1  0  0  0  0
  7 12  1  0  0  0  0
  8 18  1  0  0  0  0
  8 19  1  0  0  0  0
  9 13  1  0  0  0  0
 10 13  1  0  0  0  0
 11 13  1  0  0  0  0
 12 16  1  0  0  0  0
 13 17  1  0  0  0  0
  2 20  1  0  0  0  0
  2 21  1  0  0  0  0
  3 22  1  0  0  0  0
  3 23  1  0  0  0  0
  4 24  1  0  0  0  0
  4 25  1  0  0  0  0
  5 26  1  0  0  0  0
  5 27  1  0  0  0  0
  6 28  1  0  0  0  0
  9 29  1  0  0  0  0
  9 30  1  0  0  0  0
  9 31  1  0  0  0  0
 10 32  1  0  0  0  0
 10 33  1  0  0  0  0
 10 34  1  0  0  0  0
 11 35  1  0  0  0  0
 11 36  1  0  0  0  0
 11 37  1  0  0  0  0
 12 38  1  0  0  0  0
 12 39  1  0  0  0  0
 16 40  1  0  0  0  0
M  END
> <id>
EN300-3379026

> <smiles>
CC(C)(C)OC(=O)N1CC2CCC(CO)(C1)C2(F)F

> <MDLNUMBER>
MFCD22209815

> <IUPAC Name>
tert-butyl 8,8-difluoro-1-(hydroxymethyl)-3-azabicyclo[3.2.1]octane-3-carboxylate

> <CAS>
1373028-95-5

> <Purity>
95

> <URL>
https://www.enaminestore.com/catalog/EN300-3379026

> <ROCS_ShapeQuery>
__x1247relevant_x1083L0AP1_x1305L0BP1_

> <ROCS_TanimotoCombo>
0.749 

> <ROCS_ShapeTanimoto>
0.554 

> <ROCS_ColorTanimoto>
0.195 

> <ROCS_RefTversky>
0.473 

> <ROCS_RefColorTversky>
0.218 

> <ROCS_RefTverskyCombo>
0.691 

> <ROCS_FitTversky>
1.447 

> <ROCS_FitColorTversky>
0.647 

> <ROCS_FitTverskyCombo>
2.094 

> <ROCS_ColorScore>
-7.127

> <ROCS_Overlap>
1396.378

> <ROCS_Rank>
76                  

$$$$
untitled-dbase-97675_3
  -OEChem-06232314393D

 21 23  0     1  0  0  0  0  0999 V2000
  -10.0349   15.0277  -36.6853 C   0  0  0  0  0  0  0  0  0  0  0  0
  -10.9377   14.9745  -39.0244 C   0  0  0  0  0  0  0  0  0  0  0  0
  -14.7023   15.2174  -38.6413 C   0  0  0  0  0  0  0  0  0  0  0  0
  -11.1450   14.5313  -37.5591 C   0  0  2  0  0  0  0  0  0  0  0  0
  -13.4068   14.8938  -39.3367 C   0  0  2  0  0  0  0  0  0  0  0  0
  -13.5995   14.4971  -37.9115 C   0  0  1  0  0  0  0  0  0  0  0  0
  -12.2023   15.8073  -39.2785 C   0  0  1  0  0  0  0  0  0  0  0  0
  -12.4738   15.2208  -37.2057 C   0  0  2  0  0  0  0  0  0  0  0  0
   -9.0562   15.6459  -37.0770 O   0  0  0  0  0  0  0  0  0  0  0  0
  -12.3394   16.4417  -37.9834 O   0  0  0  0  0  0  0  0  0  0  0  0
  -10.2597   14.6954  -35.3905 O   0  0  0  0  0  0  0  0  0  0  0  0
  -10.0401   15.5943  -39.1305 H   0  0  0  0  0  0  0  0  0  0  0  0
  -10.8588   14.1222  -39.7067 H   0  0  0  0  0  0  0  0  0  0  0  0
  -14.9148   16.2473  -38.3834 H   0  0  0  0  0  0  0  0  0  0  0  0
  -15.5774   14.6427  -38.9201 H   0  0  0  0  0  0  0  0  0  0  0  0
  -11.1940   13.4417  -37.4617 H   0  0  0  0  0  0  0  0  0  0  0  0
  -13.3830   14.1372  -40.1056 H   0  0  0  0  0  0  0  0  0  0  0  0
  -13.7160   13.4549  -37.6566 H   0  0  0  0  0  0  0  0  0  0  0  0
  -12.1342   16.5335  -40.0908 H   0  0  0  0  0  0  0  0  0  0  0  0
  -12.6484   15.4360  -36.1490 H   0  0  0  0  0  0  0  0  0  0  0  0
   -9.5415   15.0106  -34.8014 H   0  0  0  0  0  0  0  0  0  0  0  0
  1  4  1  0  0  0  0
  1  9  2  0  0  0  0
  1 11  1  0  0  0  0
  2  4  1  0  0  0  0
  2  7  1  0  0  0  0
  3  5  1  0  0  0  0
  3  6  1  0  0  0  0
  4  8  1  0  0  0  0
  5  6  1  0  0  0  0
  5  7  1  0  0  0  0
  6  8  1  0  0  0  0
  7 10  1  0  0  0  0
  8 10  1  0  0  0  0
  2 12  1  0  0  0  0
  2 13  1  0  0  0  0
  3 14  1  0  0  0  0
  3 15  1  0  0  0  0
  4 16  1  0  0  0  0
  5 17  1  0  0  0  0
  6 18  1  0  0  0  0
  7 19  1  0  0  0  0
  8 20  1  0  0  0  0
 11 21  1  0  0  0  0
M  END
> <id>
EN300-367594

> <smiles>
OC(=O)C1CC2OC1C3CC32

> <MDLNUMBER>
MFCD30724178

> <IUPAC Name>
8-oxatricyclo[3.2.1.0,2,4]octane-6-carboxylic acid

> <CAS>
2089277-37-0

> <URL>
https://www.enaminestore.com/catalog/EN300-367594

> <ROCS_ShapeQuery>
__x1247relevant_x1083L0AP1_x1305L0BP1_

> <ROCS_TanimotoCombo>
0.749 

> <ROCS_ShapeTanimoto>
0.460 

> <ROCS_ColorTanimoto>
0.289 

> <ROCS_RefTversky>
0.383 

> <ROCS_RefColorTversky>
0.371 

> <ROCS_RefTverskyCombo>
0.755 

> <ROCS_FitTversky>
1.767 

> <ROCS_FitColorTversky>
0.565 

> <ROCS_FitTverskyCombo>
2.332 

> <ROCS_ColorScore>
-12.331

> <ROCS_Overlap>
1125.837

> <ROCS_Rank>
77                  

$$$$
untitled-dbase-57550_3
  -OEChem-06232314393D

 21 23  0     1  0  0  0  0  0999 V2000
  -10.0350   15.0278  -36.6847 C   0  0  0  0  0  0  0  0  0  0  0  0
  -10.9380   14.9741  -39.0240 C   0  0  0  0  0  0  0  0  0  0  0  0
  -14.7024   15.2184  -38.6430 C   0  0  0  0  0  0  0  0  0  0  0  0
  -11.1455   14.5315  -37.5578 C   0  0  2  0  0  0  0  0  0  0  0  0
  -13.4066   14.8945  -39.3377 C   0  0  2  0  0  0  0  0  0  0  0  0
  -13.6004   14.4972  -37.9131 C   0  0  1  0  0  0  0  0  0  0  0  0
  -12.2020   15.8073  -39.2782 C   0  0  1  0  0  0  0  0  0  0  0  0
  -12.4751   15.2203  -37.2057 C   0  0  2  0  0  0  0  0  0  0  0  0
   -9.0565   15.6460  -37.0771 O   0  0  0  0  0  0  0  0  0  0  0  0
  -12.3384   16.4412  -37.9826 O   0  0  0  0  0  0  0  0  0  0  0  0
  -10.2590   14.6954  -35.3899 O   0  0  0  0  0  0  0  0  0  0  0  0
  -10.0401   15.5933  -39.1305 H   0  0  0  0  0  0  0  0  0  0  0  0
  -10.8591   14.1216  -39.7062 H   0  0  0  0  0  0  0  0  0  0  0  0
  -14.9141   16.2484  -38.3858 H   0  0  0  0  0  0  0  0  0  0  0  0
  -15.5782   14.6443  -38.9216 H   0  0  0  0  0  0  0  0  0  0  0  0
  -11.1945   13.4420  -37.4605 H   0  0  0  0  0  0  0  0  0  0  0  0
  -13.3821   14.1377  -40.1064 H   0  0  0  0  0  0  0  0  0  0  0  0
  -13.7175   13.4550  -37.6588 H   0  0  0  0  0  0  0  0  0  0  0  0
  -12.1334   16.5338  -40.0904 H   0  0  0  0  0  0  0  0  0  0  0  0
  -12.6514   15.4349  -36.1492 H   0  0  0  0  0  0  0  0  0  0  0  0
   -9.5404   15.0106  -34.8011 H   0  0  0  0  0  0  0  0  0  0  0  0
  1  4  1  1  0  0  0
  1  9  2  0  0  0  0
  1 11  1  0  0  0  0
  2  4  1  0  0  0  0
  2  7  1  6  0  0  0
  3  5  1  1  0  0  0
  3  6  1  1  0  0  0
  4  8  1  0  0  0  0
  5  6  1  0  0  0  0
  5  7  1  0  0  0  0
  6  8  1  0  0  0  0
  7 10  1  0  0  0  0
  8 10  1  1  0  0  0
  2 12  1  0  0  0  0
  2 13  1  0  0  0  0
  3 14  1  0  0  0  0
  3 15  1  0  0  0  0
  4 16  1  0  0  0  0
  5 17  1  0  0  0  0
  6 18  1  0  0  0  0
  7 19  1  0  0  0  0
  8 20  1  0  0  0  0
 11 21  1  0  0  0  0
M  END
> <id>
EN300-373400

> <smiles>
OC(=O)[C@@H]1C[C@@H]2O[C@H]1[C@H]3C[C@H]32 |&1:3,5,7,8,10,r|

> <IUPAC Name>
rac-(1R,2S,4R,5R,6S)-8-oxatricyclo[3.2.1.0,2,4]octane-6-carboxylic acid

> <CAS>
2089245-77-0

> <Purity>
95

> <URL>
https://www.enaminestore.com/catalog/EN300-373400

> <ROCS_ShapeQuery>
__x1247relevant_x1083L0AP1_x1305L0BP1_

> <ROCS_TanimotoCombo>
0.749 

> <ROCS_ShapeTanimoto>
0.460 

> <ROCS_ColorTanimoto>
0.289 

> <ROCS_RefTversky>
0.383 

> <ROCS_RefColorTversky>
0.371 

> <ROCS_RefTverskyCombo>
0.755 

> <ROCS_FitTversky>
1.767 

> <ROCS_FitColorTversky>
0.565 

> <ROCS_FitTverskyCombo>
2.332 

> <ROCS_ColorScore>
-12.330

> <ROCS_Overlap>
1125.830

> <ROCS_Rank>
78                  

$$$$
untitled-dbase-108875_6
  -OEChem-06232314393D

 25 27  0     1  0  0  0  0  0999 V2000
  -10.2516   15.1370  -36.9448 C   0  0  0  0  0  0  0  0  0  0  0  0
  -12.3915   13.8387  -37.4895 C   0  0  0  0  0  0  0  0  0  0  0  0
  -12.6412   16.0597  -36.9238 C   0  0  0  0  0  0  0  0  0  0  0  0
  -12.5386   14.3893  -39.7215 C   0  0  0  0  0  0  0  0  0  0  0  0
  -12.7898   16.6126  -39.1550 C   0  0  0  0  0  0  0  0  0  0  0  0
  -13.4434   14.3389  -38.4857 C   0  0  2  0  0  0  0  0  0  0  0  0
  -13.6174   15.8825  -38.0922 C   0  0  1  0  0  0  0  0  0  0  0  0
  -11.5985   15.1467  -37.5765 C   0  0  0  0  0  0  0  0  0  0  0  0
  -11.6942   15.5325  -39.1347 C   0  0  0  0  0  0  0  0  0  0  0  0
  -10.5014   15.8537  -39.8678 N   0  0  0  0  0  0  0  0  0  0  0  0
   -9.2001   15.3478  -37.5306 O   0  0  0  0  0  0  0  0  0  0  0  0
  -10.3455   14.8583  -35.6216 O   0  0  0  0  0  0  0  0  0  0  0  0
  -12.8026   13.6237  -36.4969 H   0  0  0  0  0  0  0  0  0  0  0  0
  -11.8287   12.9575  -37.8175 H   0  0  0  0  0  0  0  0  0  0  0  0
  -12.2933   17.0868  -36.7658 H   0  0  0  0  0  0  0  0  0  0  0  0
  -13.0344   15.6886  -35.9709 H   0  0  0  0  0  0  0  0  0  0  0  0
  -11.9728   13.4684  -39.9028 H   0  0  0  0  0  0  0  0  0  0  0  0
  -13.0757   14.6465  -40.6413 H   0  0  0  0  0  0  0  0  0  0  0  0
  -13.3095   16.7147  -40.1142 H   0  0  0  0  0  0  0  0  0  0  0  0
  -12.4392   17.6049  -38.8491 H   0  0  0  0  0  0  0  0  0  0  0  0
  -14.3520   13.7434  -38.5726 H   0  0  0  0  0  0  0  0  0  0  0  0
  -14.6335   16.2430  -37.9352 H   0  0  0  0  0  0  0  0  0  0  0  0
  -10.5418   16.8057  -40.1719 H   0  0  0  0  0  0  0  0  0  0  0  0
   -9.7030   15.7263  -39.2788 H   0  0  0  0  0  0  0  0  0  0  0  0
   -9.4663   14.8453  -35.1866 H   0  0  0  0  0  0  0  0  0  0  0  0
  1  8  1  0  0  0  0
  1 11  2  0  0  0  0
  1 12  1  0  0  0  0
  2  6  1  0  0  0  0
  2  8  1  0  0  0  0
  3  7  1  0  0  0  0
  3  8  1  0  0  0  0
  4  6  1  0  0  0  0
  4  9  1  0  0  0  0
  5  7  1  0  0  0  0
  5  9  1  0  0  0  0
  6  7  1  0  0  0  0
  8  9  1  0  0  0  0
  9 10  1  0  0  0  0
  2 13  1  0  0  0  0
  2 14  1  0  0  0  0
  3 15  1  0  0  0  0
  3 16  1  0  0  0  0
  4 17  1  0  0  0  0
  4 18  1  0  0  0  0
  5 19  1  0  0  0  0
  5 20  1  0  0  0  0
  6 21  1  0  0  0  0
  7 22  1  0  0  0  0
 10 23  1  0  0  0  0
 10 24  1  0  0  0  0
 12 25  1  0  0  0  0
M  END
> <id>
EN300-26865949

> <smiles>
NC12CC3CC2(CC3C1)C(=O)O

> <IUPAC Name>
5-aminotricyclo[3.3.0.0,3,7]octane-1-carboxylic acid

> <CAS>
2445793-12-2

> <URL>
https://www.enaminestore.com/catalog/EN300-26865949

> <ROCS_ShapeQuery>
__x1247relevant_x1083L0AP1_x1305L0BP1_

> <ROCS_TanimotoCombo>
0.749 

> <ROCS_ShapeTanimoto>
0.485 

> <ROCS_ColorTanimoto>
0.264 

> <ROCS_RefTversky>
0.403 

> <ROCS_RefColorTversky>
0.382 

> <ROCS_RefTverskyCombo>
0.785 

> <ROCS_FitTversky>
1.723 

> <ROCS_FitColorTversky>
0.460 

> <ROCS_FitTverskyCombo>
2.183 

> <ROCS_ColorScore>
-12.808

> <ROCS_Overlap>
1184.417

> <ROCS_Rank>
79                  

$$$$
untitled-dbase-38057_52
  -OEChem-06232314393D

 45 47  0     1  0  0  0  0  0999 V2000
  -14.0484   15.2968  -40.4908 C   0  0  0  0  0  0  0  0  0  0  0  0
  -10.1408   14.8989  -37.0229 C   0  0  0  0  0  0  0  0  0  0  0  0
  -13.7146   14.5848  -37.2695 C   0  0  0  0  0  0  0  0  0  0  0  0
  -13.4870   16.1069  -37.2390 C   0  0  0  0  0  0  0  0  0  0  0  0
  -12.3800   13.8372  -39.3098 C   0  0  0  0  0  0  0  0  0  0  0  0
  -10.7424   16.7650  -39.9654 C   0  0  0  0  0  0  0  0  0  0  0  0
  -11.7619   15.2097  -41.3684 C   0  0  0  0  0  0  0  0  0  0  0  0
  -12.1106   16.4495  -39.3379 C   0  0  2  0  0  0  0  0  0  0  0  0
  -12.3947   13.9988  -37.7814 C   0  0  1  0  0  0  0  0  0  0  0  0
  -12.0725   16.3063  -37.7993 C   0  0  2  0  0  0  0  0  0  0  0  0
  -12.6008   15.1727  -40.0866 C   0  0  1  0  0  0  0  0  0  0  0  0
  -10.1415   14.0071  -34.5591 C   0  0  0  0  0  0  0  0  0  0  0  0
   -9.7719   11.6868  -35.4472 C   0  0  0  0  0  0  0  0  0  0  0  0
   -7.8833   13.3425  -35.4500 C   0  0  0  0  0  0  0  0  0  0  0  0
   -9.3941   13.1597  -35.5878 C   0  0  0  0  0  0  0  0  0  0  0  0
  -10.4600   15.6696  -40.8918 N   0  0  0  0  0  0  0  0  0  0  0  0
  -11.4412   15.0461  -37.4638 N   0  0  0  0  0  0  0  0  0  0  0  0
  -14.6467   14.5091  -41.2086 O   0  0  0  0  0  0  0  0  0  0  0  0
   -9.3849   15.8346  -36.7717 O   0  0  0  0  0  0  0  0  0  0  0  0
  -14.6028   16.4091  -39.9500 O   0  0  0  0  0  0  0  0  0  0  0  0
   -9.7868   13.5826  -36.8983 O   0  0  0  0  0  0  0  0  0  0  0  0
  -13.9158   14.2327  -36.2505 H   0  0  0  0  0  0  0  0  0  0  0  0
  -14.5747   14.3084  -37.8866 H   0  0  0  0  0  0  0  0  0  0  0  0
  -14.2560   16.6463  -37.8007 H   0  0  0  0  0  0  0  0  0  0  0  0
  -13.5316   16.4557  -36.2000 H   0  0  0  0  0  0  0  0  0  0  0  0
  -11.4053   13.4080  -39.5781 H   0  0  0  0  0  0  0  0  0  0  0  0
  -13.1259   13.0880  -39.6032 H   0  0  0  0  0  0  0  0  0  0  0  0
  -10.7527   17.7418  -40.4913 H   0  0  0  0  0  0  0  0  0  0  0  0
   -9.9336   16.8296  -39.2086 H   0  0  0  0  0  0  0  0  0  0  0  0
  -11.6396   14.2277  -41.8184 H   0  0  0  0  0  0  0  0  0  0  0  0
  -12.1461   15.8865  -42.1272 H   0  0  0  0  0  0  0  0  0  0  0  0
  -12.7754   17.2981  -39.5628 H   0  0  0  0  0  0  0  0  0  0  0  0
  -12.1406   13.0553  -37.2925 H   0  0  0  0  0  0  0  0  0  0  0  0
  -11.5672   17.1648  -37.3395 H   0  0  0  0  0  0  0  0  0  0  0  0
   -9.8731   15.0651  -34.6568 H   0  0  0  0  0  0  0  0  0  0  0  0
  -11.2266   13.9120  -34.6700 H   0  0  0  0  0  0  0  0  0  0  0  0
   -9.8708   13.7124  -33.5388 H   0  0  0  0  0  0  0  0  0  0  0  0
   -9.2379   11.0751  -36.1834 H   0  0  0  0  0  0  0  0  0  0  0  0
  -10.8406   11.5379  -35.6392 H   0  0  0  0  0  0  0  0  0  0  0  0
   -9.5427   11.3045  -34.4473 H   0  0  0  0  0  0  0  0  0  0  0  0
   -7.3470   12.7348  -36.1877 H   0  0  0  0  0  0  0  0  0  0  0  0
   -7.5897   14.3886  -35.5847 H   0  0  0  0  0  0  0  0  0  0  0  0
   -7.5387   13.0082  -34.4647 H   0  0  0  0  0  0  0  0  0  0  0  0
   -9.9360   16.0437  -41.6845 H   0  0  0  0  0  0  0  0  0  0  0  0
  -15.5453   16.5089  -40.2031 H   0  0  0  0  0  0  0  0  0  0  0  0
  1 11  1  0  0  0  0
  1 18  2  0  0  0  0
  1 20  1  0  0  0  0
  2 17  1  0  0  0  0
  2 19  2  0  0  0  0
  2 21  1  0  0  0  0
  3  4  1  0  0  0  0
  3  9  1  0  0  0  0
  4 10  1  0  0  0  0
  5  9  1  0  0  0  0
  5 11  1  0  0  0  0
  6  8  1  0  0  0  0
  6 16  1  0  0  0  0
  7 11  1  0  0  0  0
  7 16  1  0  0  0  0
  8 10  1  0  0  0  0
  8 11  1  0  0  0  0
  9 17  1  0  0  0  0
 10 17  1  0  0  0  0
 12 15  1  0  0  0  0
 13 15  1  0  0  0  0
 14 15  1  0  0  0  0
 15 21  1  0  0  0  0
  3 22  1  0  0  0  0
  3 23  1  0  0  0  0
  4 24  1  0  0  0  0
  4 25  1  0  0  0  0
  5 26  1  0  0  0  0
  5 27  1  0  0  0  0
  6 28  1  0  0  0  0
  6 29  1  0  0  0  0
  7 30  1  0  0  0  0
  7 31  1  0  0  0  0
  8 32  1  0  0  0  0
  9 33  1  0  0  0  0
 10 34  1  0  0  0  0
 12 35  1  0  0  0  0
 12 36  1  0  0  0  0
 12 37  1  0  0  0  0
 13 38  1  0  0  0  0
 13 39  1  0  0  0  0
 13 40  1  0  0  0  0
 14 41  1  0  0  0  0
 14 42  1  0  0  0  0
 14 43  1  0  0  0  0
 16 44  1  0  0  0  0
 20 45  1  0  0  0  0
M  END
> <id>
EN300-1165330

> <smiles>
CC(C)(C)OC(=O)N1C2CCC1C3CNCC3(C2)C(=O)O

> <IUPAC Name>
11-[(tert-butoxy)carbonyl]-4,11-diazatricyclo[6.2.1.0,2,6]undecane-6-carboxylic acid

> <CAS>
2138229-73-7

> <URL>
https://www.enaminestore.com/catalog/EN300-1165330

> <ROCS_ShapeQuery>
__x1247relevant_x1083L0AP1_x1305L0BP1_

> <ROCS_TanimotoCombo>
0.748 

> <ROCS_ShapeTanimoto>
0.553 

> <ROCS_ColorTanimoto>
0.195 

> <ROCS_RefTversky>
0.484 

> <ROCS_RefColorTversky>
0.237 

> <ROCS_RefTverskyCombo>
0.721 

> <ROCS_FitTversky>
1.350 

> <ROCS_FitColorTversky>
0.524 

> <ROCS_FitTverskyCombo>
1.874 

> <ROCS_ColorScore>
-7.794

> <ROCS_Overlap>
1431.737

> <ROCS_Rank>
80                  

$$$$
untitled-dbase-97390_7
  -OEChem-06232314393D

 31 33  0     1  0  0  0  0  0999 V2000
  -14.3188   16.3320  -41.1684 C   0  0  0  0  0  0  0  0  0  0  0  0
  -14.8992   15.5526  -39.9979 C   0  0  0  0  0  0  0  0  0  0  0  0
  -12.8165   16.1826  -40.9818 C   0  0  0  0  0  0  0  0  0  0  0  0
  -12.4597   14.0129  -38.7563 C   0  0  0  0  0  0  0  0  0  0  0  0
  -12.7767   15.2013  -36.7305 C   0  0  0  0  0  0  0  0  0  0  0  0
  -13.9672   15.8815  -38.8304 C   0  0  2  0  0  0  0  0  0  0  0  0
  -12.6187   16.2988  -39.4699 C   0  0  1  0  0  0  0  0  0  0  0  0
  -13.5728   14.6795  -37.9455 C   0  0  1  0  0  0  0  0  0  0  0  0
  -11.6221   15.2951  -38.8499 C   0  0  1  0  0  0  0  0  0  0  0  0
  -11.4536   15.6717  -37.3619 C   0  0  2  0  0  0  0  0  0  0  0  0
  -10.0839   13.3983  -37.4419 N   0  0  0  0  0  0  0  0  0  0  0  0
   -8.8602   15.6263  -37.0479 O   0  0  0  0  0  0  0  0  0  0  0  0
  -10.3286   14.6772  -35.2235 O   0  0  0  0  0  0  0  0  0  0  0  0
  -10.0453   14.8974  -36.6309 S   0  0  0  0  0  0  0  0  0  0  0  0
  -14.6578   15.9456  -42.1337 H   0  0  0  0  0  0  0  0  0  0  0  0
  -14.6063   17.3880  -41.1010 H   0  0  0  0  0  0  0  0  0  0  0  0
  -15.9316   15.8487  -39.7866 H   0  0  0  0  0  0  0  0  0  0  0  0
  -14.9075   14.4800  -40.2226 H   0  0  0  0  0  0  0  0  0  0  0  0
  -12.4790   15.2134  -41.3654 H   0  0  0  0  0  0  0  0  0  0  0  0
  -12.2620   16.9564  -41.5221 H   0  0  0  0  0  0  0  0  0  0  0  0
  -11.9625   13.2024  -38.2143 H   0  0  0  0  0  0  0  0  0  0  0  0
  -12.7899   13.6293  -39.7254 H   0  0  0  0  0  0  0  0  0  0  0  0
  -13.2974   16.0213  -36.2250 H   0  0  0  0  0  0  0  0  0  0  0  0
  -12.6231   14.3979  -36.0012 H   0  0  0  0  0  0  0  0  0  0  0  0
  -14.3891   16.7009  -38.2363 H   0  0  0  0  0  0  0  0  0  0  0  0
  -12.3675   17.3343  -39.2103 H   0  0  0  0  0  0  0  0  0  0  0  0
  -14.4088   14.0320  -37.6730 H   0  0  0  0  0  0  0  0  0  0  0  0
  -10.6859   15.1959  -39.4040 H   0  0  0  0  0  0  0  0  0  0  0  0
  -11.3028   16.7477  -37.2236 H   0  0  0  0  0  0  0  0  0  0  0  0
   -9.3556   13.2149  -38.1430 H   0  0  0  0  0  0  0  0  0  0  0  0
  -10.3559   12.5685  -36.9006 H   0  0  0  0  0  0  0  0  0  0  0  0
  1  2  1  0  0  0  0
  1  3  1  0  0  0  0
  2  6  1  0  0  0  0
  3  7  1  0  0  0  0
  4  8  1  0  0  0  0
  4  9  1  0  0  0  0
  5  8  1  0  0  0  0
  5 10  1  0  0  0  0
  6  7  1  0  0  0  0
  6  8  1  0  0  0  0
  7  9  1  0  0  0  0
  9 10  1  0  0  0  0
 10 14  1  0  0  0  0
 11 14  1  0  0  0  0
 12 14  2  0  0  0  0
 13 14  2  0  0  0  0
  1 15  1  0  0  0  0
  1 16  1  0  0  0  0
  2 17  1  0  0  0  0
  2 18  1  0  0  0  0
  3 19  1  0  0  0  0
  3 20  1  0  0  0  0
  4 21  1  0  0  0  0
  4 22  1  0  0  0  0
  5 23  1  0  0  0  0
  5 24  1  0  0  0  0
  6 25  1  0  0  0  0
  7 26  1  0  0  0  0
  8 27  1  0  0  0  0
  9 28  1  0  0  0  0
 10 29  1  0  0  0  0
 11 30  1  0  0  0  0
 11 31  1  0  0  0  0
M  END
> <id>
EN300-274081

> <smiles>
NS(=O)(=O)C1CC2CC1C3CCCC23

> <MDLNUMBER>
MFCD16671964

> <IUPAC Name>
tricyclo[5.2.1.0,2,6]decane-8-sulfonamide

> <CAS>
1251092-93-9

> <URL>
https://www.enaminestore.com/catalog/EN300-274081

> <ROCS_ShapeQuery>
__x1247relevant_x1083L0AP1_x1305L0BP1_

> <ROCS_TanimotoCombo>
0.748 

> <ROCS_ShapeTanimoto>
0.505 

> <ROCS_ColorTanimoto>
0.243 

> <ROCS_RefTversky>
0.419 

> <ROCS_RefColorTversky>
0.265 

> <ROCS_RefTverskyCombo>
0.683 

> <ROCS_FitTversky>
1.689 

> <ROCS_FitColorTversky>
0.746 

> <ROCS_FitTverskyCombo>
2.435 

> <ROCS_ColorScore>
-8.645

> <ROCS_Overlap>
1231.840

> <ROCS_Rank>
81                  

$$$$
untitled-dbase-163181_7
  -OEChem-06232314393D

 25 28  0     1  0  0  0  0  0999 V2000
  -13.5794   16.2232  -40.5395 C   0  0  0  0  0  0  0  0  0  0  0  0
  -14.7738   14.4553  -39.4305 C   0  0  0  0  0  0  0  0  0  0  0  0
  -12.6666   16.3661  -39.3262 C   0  0  2  0  0  0  0  0  0  0  0  0
  -13.8591   14.5994  -38.2188 C   0  0  1  0  0  0  0  0  0  0  0  0
  -11.7154   15.1878  -39.1938 C   0  0  2  0  0  0  0  0  0  0  0  0
  -12.4557   14.0912  -38.5067 C   0  0  1  0  0  0  0  0  0  0  0  0
  -13.4229   16.0803  -37.9916 C   0  0  0  0  0  0  0  0  0  0  0  0
  -11.5222   14.9640  -37.7254 C   0  0  0  0  0  0  0  0  0  0  0  0
  -10.2661   14.5010  -37.1116 C   0  0  0  0  0  0  0  0  0  0  0  0
  -10.1052   13.0716  -37.2320 N   0  0  0  0  0  0  0  0  0  0  0  0
  -14.8474   15.6578  -40.1994 O   0  0  0  0  0  0  0  0  0  0  0  0
  -12.3341   15.9512  -37.0247 O   0  0  0  0  0  0  0  0  0  0  0  0
  -13.7422   17.1938  -41.0193 H   0  0  0  0  0  0  0  0  0  0  0  0
  -13.1205   15.5562  -41.2751 H   0  0  0  0  0  0  0  0  0  0  0  0
  -14.3917   13.6748  -40.0952 H   0  0  0  0  0  0  0  0  0  0  0  0
  -15.7852   14.1705  -39.1223 H   0  0  0  0  0  0  0  0  0  0  0  0
  -12.1247   17.3149  -39.3030 H   0  0  0  0  0  0  0  0  0  0  0  0
  -14.2655   14.1418  -37.3132 H   0  0  0  0  0  0  0  0  0  0  0  0
  -10.9478   15.0196  -39.9250 H   0  0  0  0  0  0  0  0  0  0  0  0
  -12.2780   13.0486  -38.6902 H   0  0  0  0  0  0  0  0  0  0  0  0
  -14.1931   16.7883  -37.6912 H   0  0  0  0  0  0  0  0  0  0  0  0
   -9.4038   14.9890  -37.6032 H   0  0  0  0  0  0  0  0  0  0  0  0
  -10.2531   14.7616  -36.0368 H   0  0  0  0  0  0  0  0  0  0  0  0
  -10.0740   12.8257  -38.1986 H   0  0  0  0  0  0  0  0  0  0  0  0
   -9.2548   12.7995  -36.7863 H   0  0  0  0  0  0  0  0  0  0  0  0
  1  3  1  0  0  0  0
  1 11  1  0  0  0  0
  2  4  1  0  0  0  0
  2 11  1  0  0  0  0
  3  5  1  0  0  0  0
  3  7  1  0  0  0  0
  4  6  1  0  0  0  0
  4  7  1  0  0  0  0
  5  6  1  0  0  0  0
  5  8  1  0  0  0  0
  6  8  1  0  0  0  0
  7 12  1  0  0  0  0
  8  9  1  0  0  0  0
  8 12  1  0  0  0  0
  9 10  1  0  0  0  0
  1 13  1  0  0  0  0
  1 14  1  0  0  0  0
  2 15  1  0  0  0  0
  2 16  1  0  0  0  0
  3 17  1  0  0  0  0
  4 18  1  0  0  0  0
  5 19  1  0  0  0  0
  6 20  1  0  0  0  0
  7 21  1  0  0  0  0
  9 22  1  0  0  0  0
  9 23  1  0  0  0  0
 10 24  1  0  0  0  0
 10 25  1  0  0  0  0
M  END
> <id>
EN300-696463

> <smiles>
NCC12OC3C4COCC3C2C41

> <IUPAC Name>
{5,9-dioxatetracyclo[4.4.0.0^{2,4}.0^{3,7}]decan-4-yl}methanamine

> <CAS>
2138399-44-5

> <URL>
https://www.enaminestore.com/catalog/EN300-696463

> <ROCS_ShapeQuery>
__x1247relevant_x1083L0AP1_x1305L0BP1_

> <ROCS_TanimotoCombo>
0.747 

> <ROCS_ShapeTanimoto>
0.474 

> <ROCS_ColorTanimoto>
0.273 

> <ROCS_RefTversky>
0.397 

> <ROCS_RefColorTversky>
0.457 

> <ROCS_RefTverskyCombo>
0.855 

> <ROCS_FitTversky>
1.685 

> <ROCS_FitColorTversky>
0.404 

> <ROCS_FitTverskyCombo>
2.088 

> <ROCS_ColorScore>
-15.587

> <ROCS_Overlap>
1168.425

> <ROCS_Rank>
82                  

$$$$
untitled-dbase-110826_4
  -OEChem-06232314393D

 24 25  0     1  0  0  0  0  0999 V2000
  -10.1274   15.1852  -36.7979 C   0  0  0  0  0  0  0  0  0  0  0  0
  -12.9766   16.2799  -37.0193 C   0  0  0  0  0  0  0  0  0  0  0  0
  -13.6929   14.9340  -37.1942 C   0  0  0  0  0  0  0  0  0  0  0  0
  -13.2705   15.0276  -39.6748 C   0  0  0  0  0  0  0  0  0  0  0  0
  -10.9354   15.2144  -38.0557 C   0  0  2  0  0  0  0  0  0  0  0  0
  -11.8926   16.4232  -38.1048 C   0  0  1  0  0  0  0  0  0  0  0  0
  -13.1065   14.1769  -38.3986 C   0  0  1  0  0  0  0  0  0  0  0  0
  -12.5881   16.3812  -39.4723 C   0  0  0  0  0  0  0  0  0  0  0  0
  -11.6732   13.9433  -38.1338 N   0  0  0  0  0  0  0  0  0  0  0  0
  -10.4603   14.6274  -35.7628 O   0  0  0  0  0  0  0  0  0  0  0  0
   -8.9674   15.8678  -36.9581 O   0  0  0  0  0  0  0  0  0  0  0  0
  -11.6835   16.5899  -40.4609 F   0  0  0  0  0  0  0  0  0  0  0  0
  -13.4968   17.3817  -39.5674 F   0  0  0  0  0  0  0  0  0  0  0  0
  -13.7008   17.1003  -37.0899 H   0  0  0  0  0  0  0  0  0  0  0  0
  -12.5374   16.3437  -36.0173 H   0  0  0  0  0  0  0  0  0  0  0  0
  -13.5912   14.3370  -36.2794 H   0  0  0  0  0  0  0  0  0  0  0  0
  -14.7667   15.1022  -37.3404 H   0  0  0  0  0  0  0  0  0  0  0  0
  -12.8313   14.5045  -40.5325 H   0  0  0  0  0  0  0  0  0  0  0  0
  -14.3358   15.1718  -39.8886 H   0  0  0  0  0  0  0  0  0  0  0  0
  -10.2235   15.2747  -38.8883 H   0  0  0  0  0  0  0  0  0  0  0  0
  -11.3498   17.3655  -37.9734 H   0  0  0  0  0  0  0  0  0  0  0  0
  -13.6158   13.2147  -38.5168 H   0  0  0  0  0  0  0  0  0  0  0  0
  -11.2776   13.3726  -38.8808 H   0  0  0  0  0  0  0  0  0  0  0  0
   -8.8846   16.2427  -37.8608 H   0  0  0  0  0  0  0  0  0  0  0  0
  1  5  1  1  0  0  0
  1 10  2  0  0  0  0
  1 11  1  0  0  0  0
  2  3  1  0  0  0  0
  2  6  1  0  0  0  0
  3  7  1  0  0  0  0
  4  7  1  0  0  0  0
  4  8  1  0  0  0  0
  5  6  1  0  0  0  0
  5  9  1  0  0  0  0
  6  8  1  0  0  0  0
  7  9  1  0  0  0  0
  8 12  1  0  0  0  0
  8 13  1  0  0  0  0
  2 14  1  0  0  0  0
  2 15  1  0  0  0  0
  3 16  1  0  0  0  0
  3 17  1  0  0  0  0
  4 18  1  0  0  0  0
  4 19  1  0  0  0  0
  5 20  1  0  0  0  0
  6 21  1  0  0  0  0
  7 22  1  0  0  0  0
  9 23  1  0  0  0  0
 11 24  1  0  0  0  0
M  END
> <id>
EN300-109781

> <smiles>
Cl.OC(=O)[C@H]1NC2CCC1C(F)(F)C2

> <MDLNUMBER>
MFCD22378706

> <IUPAC Name>
(3S)-5,5-difluoro-2-azabicyclo[2.2.2]octane-3-carboxylic acid hydrochloride

> <CAS>
1394052-54-0

> <URL>
https://www.enaminestore.com/catalog/EN300-109781

> <Saltdate>
Cl

> <ROCS_ShapeQuery>
__x1247relevant_x1083L0AP1_x1305L0BP1_

> <ROCS_TanimotoCombo>
0.747 

> <ROCS_ShapeTanimoto>
0.491 

> <ROCS_ColorTanimoto>
0.256 

> <ROCS_RefTversky>
0.409 

> <ROCS_RefColorTversky>
0.279 

> <ROCS_RefTverskyCombo>
0.689 

> <ROCS_FitTversky>
1.689 

> <ROCS_FitColorTversky>
0.751 

> <ROCS_FitTverskyCombo>
2.439 

> <ROCS_ColorScore>
-9.140

> <ROCS_Overlap>
1203.270

> <ROCS_Rank>
83                  

$$$$
untitled-dbase-110468_4
  -OEChem-06232314393D

 24 25  0     1  0  0  0  0  0999 V2000
  -10.1274   15.1852  -36.7979 C   0  0  0  0  0  0  0  0  0  0  0  0
  -12.9766   16.2799  -37.0193 C   0  0  0  0  0  0  0  0  0  0  0  0
  -13.6929   14.9340  -37.1942 C   0  0  0  0  0  0  0  0  0  0  0  0
  -13.2705   15.0276  -39.6748 C   0  0  0  0  0  0  0  0  0  0  0  0
  -10.9354   15.2144  -38.0557 C   0  0  2  0  0  0  0  0  0  0  0  0
  -11.8926   16.4232  -38.1048 C   0  0  1  0  0  0  0  0  0  0  0  0
  -13.1065   14.1769  -38.3986 C   0  0  1  0  0  0  0  0  0  0  0  0
  -12.5881   16.3812  -39.4723 C   0  0  0  0  0  0  0  0  0  0  0  0
  -11.6732   13.9433  -38.1338 N   0  0  0  0  0  0  0  0  0  0  0  0
  -10.4603   14.6274  -35.7628 O   0  0  0  0  0  0  0  0  0  0  0  0
   -8.9674   15.8678  -36.9581 O   0  0  0  0  0  0  0  0  0  0  0  0
  -11.6835   16.5899  -40.4609 F   0  0  0  0  0  0  0  0  0  0  0  0
  -13.4968   17.3817  -39.5674 F   0  0  0  0  0  0  0  0  0  0  0  0
  -13.7008   17.1003  -37.0899 H   0  0  0  0  0  0  0  0  0  0  0  0
  -12.5374   16.3437  -36.0173 H   0  0  0  0  0  0  0  0  0  0  0  0
  -13.5912   14.3370  -36.2794 H   0  0  0  0  0  0  0  0  0  0  0  0
  -14.7667   15.1022  -37.3404 H   0  0  0  0  0  0  0  0  0  0  0  0
  -12.8313   14.5045  -40.5325 H   0  0  0  0  0  0  0  0  0  0  0  0
  -14.3358   15.1718  -39.8886 H   0  0  0  0  0  0  0  0  0  0  0  0
  -10.2235   15.2747  -38.8883 H   0  0  0  0  0  0  0  0  0  0  0  0
  -11.3498   17.3655  -37.9734 H   0  0  0  0  0  0  0  0  0  0  0  0
  -13.6158   13.2147  -38.5168 H   0  0  0  0  0  0  0  0  0  0  0  0
  -11.2776   13.3726  -38.8808 H   0  0  0  0  0  0  0  0  0  0  0  0
   -8.8846   16.2427  -37.8608 H   0  0  0  0  0  0  0  0  0  0  0  0
  1  5  1  1  0  0  0
  1 10  2  0  0  0  0
  1 11  1  0  0  0  0
  2  3  1  0  0  0  0
  2  6  1  0  0  0  0
  3  7  1  0  0  0  0
  4  7  1  0  0  0  0
  4  8  1  0  0  0  0
  5  6  1  0  0  0  0
  5  9  1  0  0  0  0
  6  8  1  0  0  0  0
  7  9  1  0  0  0  0
  8 12  1  0  0  0  0
  8 13  1  0  0  0  0
  2 14  1  0  0  0  0
  2 15  1  0  0  0  0
  3 16  1  0  0  0  0
  3 17  1  0  0  0  0
  4 18  1  0  0  0  0
  4 19  1  0  0  0  0
  5 20  1  0  0  0  0
  6 21  1  0  0  0  0
  7 22  1  0  0  0  0
  9 23  1  0  0  0  0
 11 24  1  0  0  0  0
M  END
> <id>
EN300-109614

> <smiles>
OC(=O)[C@H]1NC2CCC1C(F)(F)C2

> <MDLNUMBER>
MFCD27919995

> <IUPAC Name>
(3S)-5,5-difluoro-2-azabicyclo[2.2.2]octane-3-carboxylic acid

> <CAS>
1394117-04-4

> <URL>
https://www.enaminestore.com/catalog/EN300-109614

> <ROCS_ShapeQuery>
__x1247relevant_x1083L0AP1_x1305L0BP1_

> <ROCS_TanimotoCombo>
0.747 

> <ROCS_ShapeTanimoto>
0.491 

> <ROCS_ColorTanimoto>
0.256 

> <ROCS_RefTversky>
0.409 

> <ROCS_RefColorTversky>
0.279 

> <ROCS_RefTverskyCombo>
0.689 

> <ROCS_FitTversky>
1.689 

> <ROCS_FitColorTversky>
0.751 

> <ROCS_FitTverskyCombo>
2.439 

> <ROCS_ColorScore>
-9.140

> <ROCS_Overlap>
1203.270

> <ROCS_Rank>
84                  

$$$$
untitled-dbase-20957_4
  -OEChem-06232314393D

 24 25  0     1  0  0  0  0  0999 V2000
  -10.1275   15.1851  -36.7981 C   0  0  0  0  0  0  0  0  0  0  0  0
  -12.9761   16.2803  -37.0193 C   0  0  0  0  0  0  0  0  0  0  0  0
  -13.6923   14.9342  -37.1935 C   0  0  0  0  0  0  0  0  0  0  0  0
  -13.2712   15.0278  -39.6743 C   0  0  0  0  0  0  0  0  0  0  0  0
  -10.9352   15.2140  -38.0561 C   0  0  2  0  0  0  0  0  0  0  0  0
  -11.8922   16.4231  -38.1050 C   0  0  1  0  0  0  0  0  0  0  0  0
  -13.1068   14.1771  -38.3983 C   0  0  1  0  0  0  0  0  0  0  0  0
  -12.5880   16.3811  -39.4723 C   0  0  0  0  0  0  0  0  0  0  0  0
  -11.6734   13.9432  -38.1342 N   0  0  0  0  0  0  0  0  0  0  0  0
  -10.4604   14.6275  -35.7629 O   0  0  0  0  0  0  0  0  0  0  0  0
   -8.9675   15.8679  -36.9582 O   0  0  0  0  0  0  0  0  0  0  0  0
  -11.6835   16.5888  -40.4611 F   0  0  0  0  0  0  0  0  0  0  0  0
  -13.4961   17.3821  -39.5676 F   0  0  0  0  0  0  0  0  0  0  0  0
  -13.7002   17.1007  -37.0900 H   0  0  0  0  0  0  0  0  0  0  0  0
  -12.5365   16.3444  -36.0174 H   0  0  0  0  0  0  0  0  0  0  0  0
  -13.5898   14.3373  -36.2787 H   0  0  0  0  0  0  0  0  0  0  0  0
  -14.7662   15.1023  -37.3388 H   0  0  0  0  0  0  0  0  0  0  0  0
  -12.8330   14.5045  -40.5323 H   0  0  0  0  0  0  0  0  0  0  0  0
  -14.3366   15.1726  -39.8872 H   0  0  0  0  0  0  0  0  0  0  0  0
  -10.2234   15.2742  -38.8887 H   0  0  0  0  0  0  0  0  0  0  0  0
  -11.3492   17.3653  -37.9738 H   0  0  0  0  0  0  0  0  0  0  0  0
  -13.6164   13.2150  -38.5163 H   0  0  0  0  0  0  0  0  0  0  0  0
  -11.2783   13.3724  -38.8814 H   0  0  0  0  0  0  0  0  0  0  0  0
   -8.8846   16.2426  -37.8610 H   0  0  0  0  0  0  0  0  0  0  0  0
  1  5  1  0  0  0  0
  1 10  2  0  0  0  0
  1 11  1  0  0  0  0
  2  3  1  0  0  0  0
  2  6  1  0  0  0  0
  3  7  1  0  0  0  0
  4  7  1  0  0  0  0
  4  8  1  0  0  0  0
  5  6  1  0  0  0  0
  5  9  1  0  0  0  0
  6  8  1  0  0  0  0
  7  9  1  0  0  0  0
  8 12  1  0  0  0  0
  8 13  1  0  0  0  0
  2 14  1  0  0  0  0
  2 15  1  0  0  0  0
  3 16  1  0  0  0  0
  3 17  1  0  0  0  0
  4 18  1  0  0  0  0
  4 19  1  0  0  0  0
  5 20  1  0  0  0  0
  6 21  1  0  0  0  0
  7 22  1  0  0  0  0
  9 23  1  0  0  0  0
 11 24  1  0  0  0  0
M  END
> <id>
EN300-295921

> <smiles>
Cl.OC(=O)C1NC2CCC1C(F)(F)C2

> <MDLNUMBER>
MFCD24529235

> <IUPAC Name>
5,5-difluoro-2-azabicyclo[2.2.2]octane-3-carboxylic acid hydrochloride

> <CAS>
1822554-55-1

> <URL>
https://www.enaminestore.com/catalog/EN300-295921

> <Saltdate>
Cl

> <ROCS_ShapeQuery>
__x1247relevant_x1083L0AP1_x1305L0BP1_

> <ROCS_TanimotoCombo>
0.747 

> <ROCS_ShapeTanimoto>
0.491 

> <ROCS_ColorTanimoto>
0.256 

> <ROCS_RefTversky>
0.409 

> <ROCS_RefColorTversky>
0.279 

> <ROCS_RefTverskyCombo>
0.689 

> <ROCS_FitTversky>
1.689 

> <ROCS_FitColorTversky>
0.751 

> <ROCS_FitTverskyCombo>
2.439 

> <ROCS_ColorScore>
-9.140

> <ROCS_Overlap>
1203.303

> <ROCS_Rank>
85                  

$$$$
untitled-dbase-104099_4
  -OEChem-06232314393D

 22 24  0     1  0  0  0  0  0999 V2000
  -13.6634   16.2707  -38.3683 C   0  0  0  0  0  0  0  0  0  0  0  0
  -13.1152   14.0777  -37.5362 C   0  0  0  0  0  0  0  0  0  0  0  0
  -12.8943   15.5874  -37.1876 C   0  0  0  0  0  0  0  0  0  0  0  0
  -12.9335   15.5261  -39.4679 C   0  0  2  0  0  0  0  0  0  0  0  0
  -12.5891   14.1723  -38.9495 C   0  0  1  0  0  0  0  0  0  0  0  0
  -11.5448   15.2419  -38.9913 C   0  0  0  0  0  0  0  0  0  0  0  0
  -11.4240   15.8596  -37.6222 C   0  0  2  0  0  0  0  0  0  0  0  0
  -10.2555   13.4759  -37.5621 N   0  0  0  0  0  0  0  0  0  0  0  0
   -8.8834   15.5958  -37.0719 O   0  0  0  0  0  0  0  0  0  0  0  0
  -10.5880   14.8026  -35.3836 O   0  0  0  0  0  0  0  0  0  0  0  0
  -10.1750   14.9878  -36.7706 S   0  0  0  0  0  0  0  0  0  0  0  0
  -14.7347   16.0496  -38.3590 H   0  0  0  0  0  0  0  0  0  0  0  0
  -13.4922   17.3502  -38.4158 H   0  0  0  0  0  0  0  0  0  0  0  0
  -12.5334   13.3966  -36.9113 H   0  0  0  0  0  0  0  0  0  0  0  0
  -14.1723   13.7952  -37.5107 H   0  0  0  0  0  0  0  0  0  0  0  0
  -13.1761   15.8925  -36.1800 H   0  0  0  0  0  0  0  0  0  0  0  0
  -13.1723   15.7143  -40.4956 H   0  0  0  0  0  0  0  0  0  0  0  0
  -12.5584   13.3000  -39.5715 H   0  0  0  0  0  0  0  0  0  0  0  0
  -10.7099   15.2354  -39.6647 H   0  0  0  0  0  0  0  0  0  0  0  0
  -11.1698   16.9226  -37.6521 H   0  0  0  0  0  0  0  0  0  0  0  0
   -9.4768   13.2227  -38.1827 H   0  0  0  0  0  0  0  0  0  0  0  0
  -10.6379   12.6827  -37.0328 H   0  0  0  0  0  0  0  0  0  0  0  0
  1  3  1  0  0  0  0
  1  4  1  0  0  0  0
  2  3  1  0  0  0  0
  2  5  1  0  0  0  0
  3  7  1  0  0  0  0
  4  5  1  0  0  0  0
  4  6  1  0  0  0  0
  5  6  1  0  0  0  0
  6  7  1  0  0  0  0
  7 11  1  0  0  0  0
  8 11  1  0  0  0  0
  9 11  2  0  0  0  0
 10 11  2  0  0  0  0
  1 12  1  0  0  0  0
  1 13  1  0  0  0  0
  2 14  1  0  0  0  0
  2 15  1  0  0  0  0
  3 16  1  0  0  0  0
  4 17  1  0  0  0  0
  5 18  1  0  0  0  0
  6 19  1  0  0  0  0
  7 20  1  0  0  0  0
  8 21  1  0  0  0  0
  8 22  1  0  0  0  0
M  END
> <id>
EN300-6861220

> <smiles>
NS(=O)(=O)C1C2C3CC1CC32

> <MDLNUMBER>
MFCD32662674

> <IUPAC Name>
tricyclo[2.2.1.0,2,6]heptane-3-sulfonamide

> <CAS>
2413886-23-2

> <Purity>
95

> <URL>
https://www.enaminestore.com/catalog/EN300-6861220

> <ROCS_ShapeQuery>
__x1247relevant_x1083L0AP1_x1305L0BP1_

> <ROCS_TanimotoCombo>
0.747 

> <ROCS_ShapeTanimoto>
0.448 

> <ROCS_ColorTanimoto>
0.299 

> <ROCS_RefTversky>
0.374 

> <ROCS_RefColorTversky>
0.443 

> <ROCS_RefTverskyCombo>
0.817 

> <ROCS_FitTversky>
1.791 

> <ROCS_FitColorTversky>
0.479 

> <ROCS_FitTverskyCombo>
2.270 

> <ROCS_ColorScore>
-14.940

> <ROCS_Overlap>
1097.324

> <ROCS_Rank>
86                  

$$$$
untitled-dbase-177402_2
  -OEChem-06232314393D

 28 31  0     1  0  0  0  0  0999 V2000
  -11.7177   15.0659  -39.4660 C   0  0  0  0  0  0  0  0  0  0  0  0
  -10.5064   13.4145  -37.1115 C   0  0  0  0  0  0  0  0  0  0  0  0
   -9.8857   15.7280  -37.0280 C   0  0  0  0  0  0  0  0  0  0  0  0
  -12.5413   14.0934  -38.5956 C   0  0  1  0  0  0  0  0  0  0  0  0
  -11.9603   16.2588  -38.5175 C   0  0  2  0  0  0  0  0  0  0  0  0
  -11.8121   14.2011  -37.2310 C   0  0  2  0  0  0  0  0  0  0  0  0
  -11.4073   15.7097  -37.1766 C   0  0  1  0  0  0  0  0  0  0  0  0
   -9.5624   14.3768  -36.3902 C   0  0  0  0  0  0  0  0  0  0  0  0
  -13.8671   14.8301  -38.4349 C   0  0  1  0  0  0  0  0  0  0  0  0
  -13.4796   16.2747  -38.3829 C   0  0  2  0  0  0  0  0  0  0  0  0
   -8.1001   13.9891  -36.5271 C   0  0  0  0  0  0  0  0  0  0  0  0
  -14.2573   15.7468  -39.4614 O   0  0  0  0  0  0  0  0  0  0  0  0
   -7.6261   13.9603  -38.2375 Cl  0  0  0  0  0  0  0  0  0  0  0  0
  -10.6666   14.7879  -39.5779 H   0  0  0  0  0  0  0  0  0  0  0  0
  -12.1435   15.2161  -40.4640 H   0  0  0  0  0  0  0  0  0  0  0  0
  -10.6496   12.4893  -36.5432 H   0  0  0  0  0  0  0  0  0  0  0  0
  -10.1113   13.1309  -38.0936 H   0  0  0  0  0  0  0  0  0  0  0  0
   -9.3846   15.8406  -37.9962 H   0  0  0  0  0  0  0  0  0  0  0  0
   -9.5572   16.5604  -36.3966 H   0  0  0  0  0  0  0  0  0  0  0  0
  -12.6410   13.0812  -38.9912 H   0  0  0  0  0  0  0  0  0  0  0  0
  -11.5335   17.2093  -38.8425 H   0  0  0  0  0  0  0  0  0  0  0  0
  -12.4788   13.9542  -36.3954 H   0  0  0  0  0  0  0  0  0  0  0  0
  -11.8763   16.2001  -36.3145 H   0  0  0  0  0  0  0  0  0  0  0  0
   -9.8255   14.4090  -35.3245 H   0  0  0  0  0  0  0  0  0  0  0  0
  -14.5893   14.4282  -37.7445 H   0  0  0  0  0  0  0  0  0  0  0  0
  -13.9155   16.9359  -37.6531 H   0  0  0  0  0  0  0  0  0  0  0  0
   -7.9259   12.9957  -36.1088 H   0  0  0  0  0  0  0  0  0  0  0  0
   -7.4625   14.7084  -36.0092 H   0  0  0  0  0  0  0  0  0  0  0  0
  1  4  1  0  0  0  0
  1  5  1  0  0  0  0
  2  6  1  0  0  0  0
  2  8  1  0  0  0  0
  3  7  1  0  0  0  0
  3  8  1  0  0  0  0
  4  6  1  0  0  0  0
  4  9  1  0  0  0  0
  5  7  1  0  0  0  0
  5 10  1  0  0  0  0
  6  7  1  0  0  0  0
  8 11  1  0  0  0  0
  9 10  1  0  0  0  0
  9 12  1  0  0  0  0
 10 12  1  0  0  0  0
 11 13  1  0  0  0  0
  1 14  1  0  0  0  0
  1 15  1  0  0  0  0
  2 16  1  0  0  0  0
  2 17  1  0  0  0  0
  3 18  1  0  0  0  0
  3 19  1  0  0  0  0
  4 20  1  0  0  0  0
  5 21  1  0  0  0  0
  6 22  1  0  0  0  0
  7 23  1  0  0  0  0
  8 24  1  0  0  0  0
  9 25  1  0  0  0  0
 10 26  1  0  0  0  0
 11 27  1  0  0  0  0
 11 28  1  0  0  0  0
M  END
> <id>
EN300-8214141

> <smiles>
ClCC1CC2C3CC(C4OC43)C2C1

> <MDLNUMBER>
MFCD24512656

> <IUPAC Name>
4-(chloromethyl)-9-oxatetracyclo[5.3.1.0^{2,6}.0^{8,10}]undecane

> <URL>
https://www.enaminestore.com/catalog/EN300-8214141

> <ROCS_ShapeQuery>
__x1247relevant_x1083L0AP1_x1305L0BP1_

> <ROCS_TanimotoCombo>
0.747 

> <ROCS_ShapeTanimoto>
0.477 

> <ROCS_ColorTanimoto>
0.270 

> <ROCS_RefTversky>
0.401 

> <ROCS_RefColorTversky>
0.341 

> <ROCS_RefTverskyCombo>
0.742 

> <ROCS_FitTversky>
1.663 

> <ROCS_FitColorTversky>
0.564 

> <ROCS_FitTverskyCombo>
2.226 

> <ROCS_ColorScore>
-11.291

> <ROCS_Overlap>
1178.844

> <ROCS_Rank>
87                  

$$$$
untitled-dbase-130720_39
  -OEChem-06232314393D

 38 40  0     1  0  0  0  0  0999 V2000
   -9.2345   14.0598  -36.9483 C   0  0  0  0  0  0  0  0  0  0  0  0
  -14.1746   15.7515  -37.8111 C   0  0  0  0  0  0  0  0  0  0  0  0
  -12.9439   16.5012  -37.2571 C   0  0  0  0  0  0  0  0  0  0  0  0
  -12.9041   13.5964  -37.7978 C   0  0  0  0  0  0  0  0  0  0  0  0
  -13.7264   14.5608  -38.6871 C   0  0  2  0  0  0  0  0  0  0  0  0
  -11.6437   15.8026  -37.7221 C   0  0  1  0  0  0  0  0  0  0  0  0
  -11.6972   14.3485  -37.1774 C   0  0  2  0  0  0  0  0  0  0  0  0
  -12.8017   15.0285  -39.7938 C   0  0  2  0  0  0  0  0  0  0  0  0
  -11.6018   15.7409  -39.2391 C   0  0  1  0  0  0  0  0  0  0  0  0
   -7.9866   16.5140  -37.7030 C   0  0  0  0  0  0  0  0  0  0  0  0
   -8.6365   17.3320  -35.4188 C   0  0  0  0  0  0  0  0  0  0  0  0
   -7.0599   15.3907  -35.6502 C   0  0  0  0  0  0  0  0  0  0  0  0
   -8.2643   16.1101  -36.2558 C   0  0  0  0  0  0  0  0  0  0  0  0
  -10.4614   13.6412  -37.4193 N   0  0  0  0  0  0  0  0  0  0  0  0
   -8.1643   13.4889  -37.1315 O   0  0  0  0  0  0  0  0  0  0  0  0
  -12.6176   16.4357  -39.9708 O   0  0  0  0  0  0  0  0  0  0  0  0
   -9.3843   15.2179  -36.2386 O   0  0  0  0  0  0  0  0  0  0  0  0
  -14.7991   15.3985  -36.9819 H   0  0  0  0  0  0  0  0  0  0  0  0
  -14.7912   16.4434  -38.3976 H   0  0  0  0  0  0  0  0  0  0  0  0
  -12.9603   17.5425  -37.6015 H   0  0  0  0  0  0  0  0  0  0  0  0
  -12.9900   16.5331  -36.1620 H   0  0  0  0  0  0  0  0  0  0  0  0
  -13.5333   13.1882  -36.9976 H   0  0  0  0  0  0  0  0  0  0  0  0
  -12.5683   12.7427  -38.4006 H   0  0  0  0  0  0  0  0  0  0  0  0
  -14.5964   14.0486  -39.1102 H   0  0  0  0  0  0  0  0  0  0  0  0
  -10.7728   16.3425  -37.3353 H   0  0  0  0  0  0  0  0  0  0  0  0
  -11.8101   14.3706  -36.0868 H   0  0  0  0  0  0  0  0  0  0  0  0
  -12.6789   14.3540  -40.6268 H   0  0  0  0  0  0  0  0  0  0  0  0
  -10.6321   15.5769  -39.6830 H   0  0  0  0  0  0  0  0  0  0  0  0
   -7.7190   15.6397  -38.3071 H   0  0  0  0  0  0  0  0  0  0  0  0
   -8.8549   16.9998  -38.1599 H   0  0  0  0  0  0  0  0  0  0  0  0
   -7.1351   17.2017  -37.7605 H   0  0  0  0  0  0  0  0  0  0  0  0
   -8.8366   17.0469  -34.3796 H   0  0  0  0  0  0  0  0  0  0  0  0
   -9.5556   17.7967  -35.7938 H   0  0  0  0  0  0  0  0  0  0  0  0
   -7.8405   18.0837  -35.4249 H   0  0  0  0  0  0  0  0  0  0  0  0
   -7.2588   15.1009  -34.6121 H   0  0  0  0  0  0  0  0  0  0  0  0
   -6.8011   14.4903  -36.2168 H   0  0  0  0  0  0  0  0  0  0  0  0
   -6.1845   16.0498  -35.6249 H   0  0  0  0  0  0  0  0  0  0  0  0
  -10.4979   12.7871  -37.9674 H   0  0  0  0  0  0  0  0  0  0  0  0
  1 14  1  0  0  0  0
  1 15  2  0  0  0  0
  1 17  1  0  0  0  0
  2  3  1  0  0  0  0
  2  5  1  0  0  0  0
  3  6  1  0  0  0  0
  4  5  1  0  0  0  0
  4  7  1  0  0  0  0
  5  8  1  0  0  0  0
  6  7  1  0  0  0  0
  6  9  1  0  0  0  0
  7 14  1  0  0  0  0
  8  9  1  0  0  0  0
  8 16  1  0  0  0  0
  9 16  1  0  0  0  0
 10 13  1  0  0  0  0
 11 13  1  0  0  0  0
 12 13  1  0  0  0  0
 13 17  1  0  0  0  0
  2 18  1  0  0  0  0
  2 19  1  0  0  0  0
  3 20  1  0  0  0  0
  3 21  1  0  0  0  0
  4 22  1  0  0  0  0
  4 23  1  0  0  0  0
  5 24  1  0  0  0  0
  6 25  1  0  0  0  0
  7 26  1  0  0  0  0
  8 27  1  0  0  0  0
  9 28  1  0  0  0  0
 10 29  1  0  0  0  0
 10 30  1  0  0  0  0
 10 31  1  0  0  0  0
 11 32  1  0  0  0  0
 11 33  1  0  0  0  0
 11 34  1  0  0  0  0
 12 35  1  0  0  0  0
 12 36  1  0  0  0  0
 12 37  1  0  0  0  0
 14 38  1  0  0  0  0
M  END
> <id>
EN300-1708415

> <smiles>
CC(C)(C)OC(=O)NC1CC2CCC1C3OC32

> <IUPAC Name>
tert-butyl N-{3-oxatricyclo[3.2.2.0,2,4]nonan-6-yl}carbamate

> <CAS>
2219374-88-4

> <URL>
https://www.enaminestore.com/catalog/EN300-1708415

> <ROCS_ShapeQuery>
__x1247relevant_x1083L0AP1_x1305L0BP1_

> <ROCS_TanimotoCombo>
0.747 

> <ROCS_ShapeTanimoto>
0.495 

> <ROCS_ColorTanimoto>
0.252 

> <ROCS_RefTversky>
0.429 

> <ROCS_RefColorTversky>
0.329 

> <ROCS_RefTverskyCombo>
0.758 

> <ROCS_FitTversky>
1.447 

> <ROCS_FitColorTversky>
0.519 

> <ROCS_FitTverskyCombo>
1.966 

> <ROCS_ColorScore>
-10.915

> <ROCS_Overlap>
1265.531

> <ROCS_Rank>
88                  

$$$$
untitled-dbase-162994_12
  -OEChem-06232314393D

 24 27  0     1  0  0  0  0  0999 V2000
  -13.5791   16.9141  -39.8799 C   0  0  0  0  0  0  0  0  0  0  0  0
  -14.2341   14.6075  -40.0612 C   0  0  0  0  0  0  0  0  0  0  0  0
  -12.8366   16.6004  -38.5853 C   0  0  2  0  0  0  0  0  0  0  0  0
  -13.4901   14.2960  -38.7669 C   0  0  1  0  0  0  0  0  0  0  0  0
  -11.5770   15.7884  -38.8398 C   0  0  2  0  0  0  0  0  0  0  0  0
  -11.9827   14.3582  -38.9528 C   0  0  1  0  0  0  0  0  0  0  0  0
  -13.5515   15.4860  -37.7594 C   0  0  0  0  0  0  0  0  0  0  0  0
  -11.4194   14.8738  -37.6641 C   0  0  0  0  0  0  0  0  0  0  0  0
  -10.1242   14.4618  -37.0970 C   0  0  0  0  0  0  0  0  0  0  0  0
  -14.6278   15.9790  -40.1428 O   0  0  0  0  0  0  0  0  0  0  0  0
  -12.5417   15.1213  -36.7674 O   0  0  0  0  0  0  0  0  0  0  0  0
   -9.2052   15.5621  -37.0893 O   0  0  0  0  0  0  0  0  0  0  0  0
  -14.0041   17.9226  -39.8492 H   0  0  0  0  0  0  0  0  0  0  0  0
  -12.8889   16.8647  -40.7272 H   0  0  0  0  0  0  0  0  0  0  0  0
  -13.5861   14.4102  -40.9203 H   0  0  0  0  0  0  0  0  0  0  0  0
  -15.1246   13.9779  -40.1588 H   0  0  0  0  0  0  0  0  0  0  0  0
  -12.6192   17.4882  -37.9863 H   0  0  0  0  0  0  0  0  0  0  0  0
  -13.7919   13.3494  -38.3116 H   0  0  0  0  0  0  0  0  0  0  0  0
  -10.7494   16.2154  -39.3735 H   0  0  0  0  0  0  0  0  0  0  0  0
  -11.4783   13.6451  -39.5767 H   0  0  0  0  0  0  0  0  0  0  0  0
  -14.5214   15.7270  -37.3281 H   0  0  0  0  0  0  0  0  0  0  0  0
   -9.6470   13.6456  -37.6768 H   0  0  0  0  0  0  0  0  0  0  0  0
  -10.2124   14.1064  -36.0501 H   0  0  0  0  0  0  0  0  0  0  0  0
   -9.6137   16.2485  -36.5435 H   0  0  0  0  0  0  0  0  0  0  0  0
  1  3  1  0  0  0  0
  1 10  1  0  0  0  0
  2  4  1  0  0  0  0
  2 10  1  0  0  0  0
  3  5  1  0  0  0  0
  3  7  1  0  0  0  0
  4  6  1  0  0  0  0
  4  7  1  0  0  0  0
  5  6  1  0  0  0  0
  5  8  1  0  0  0  0
  6  8  1  0  0  0  0
  7 11  1  0  0  0  0
  8  9  1  0  0  0  0
  8 11  1  0  0  0  0
  9 12  1  0  0  0  0
  1 13  1  0  0  0  0
  1 14  1  0  0  0  0
  2 15  1  0  0  0  0
  2 16  1  0  0  0  0
  3 17  1  0  0  0  0
  4 18  1  0  0  0  0
  5 19  1  0  0  0  0
  6 20  1  0  0  0  0
  7 21  1  0  0  0  0
  9 22  1  0  0  0  0
  9 23  1  0  0  0  0
 12 24  1  0  0  0  0
M  END
> <id>
EN300-696462

> <smiles>
OCC12OC3C4COCC3C2C41

> <IUPAC Name>
{5,9-dioxatetracyclo[4.4.0.0^{2,4}.0^{3,7}]decan-4-yl}methanol

> <CAS>
2138198-41-9

> <URL>
https://www.enaminestore.com/catalog/EN300-696462

> <ROCS_ShapeQuery>
__x1247relevant_x1083L0AP1_x1305L0BP1_

> <ROCS_TanimotoCombo>
0.747 

> <ROCS_ShapeTanimoto>
0.489 

> <ROCS_ColorTanimoto>
0.257 

> <ROCS_RefTversky>
0.406 

> <ROCS_RefColorTversky>
0.437 

> <ROCS_RefTverskyCombo>
0.843 

> <ROCS_FitTversky>
1.720 

> <ROCS_FitColorTversky>
0.386 

> <ROCS_FitTverskyCombo>
2.105 

> <ROCS_ColorScore>
-14.888

> <ROCS_Overlap>
1193.563

> <ROCS_Rank>
89                  

$$$$
untitled-dbase-153385_25
  -OEChem-06232314393D

 26 27  0     1  0  0  0  0  0999 V2000
  -13.2260   16.5600  -40.2756 C   0  0  0  0  0  0  0  0  0  0  0  0
  -10.2225   14.7704  -36.7145 C   0  0  0  0  0  0  0  0  0  0  0  0
  -13.2398   13.6970  -37.8342 C   0  0  0  0  0  0  0  0  0  0  0  0
  -13.3027   14.2171  -39.2864 C   0  0  0  0  0  0  0  0  0  0  0  0
  -13.4178   16.0617  -37.7857 C   0  0  0  0  0  0  0  0  0  0  0  0
  -11.3190   15.6892  -38.8279 C   0  0  0  0  0  0  0  0  0  0  0  0
  -12.7087   14.9180  -37.0625 C   0  0  2  0  0  0  0  0  0  0  0  0
  -12.8228   15.6766  -39.1459 C   0  0  2  0  0  0  0  0  0  0  0  0
   -9.0128   14.3196  -37.4923 C   0  0  0  0  0  0  0  0  0  0  0  0
  -11.3150   15.1218  -37.4781 N   0  0  0  0  0  0  0  0  0  0  0  0
  -12.4531   17.1616  -41.0064 O   0  0  0  0  0  0  0  0  0  0  0  0
  -10.1992   14.8055  -35.4837 O   0  0  0  0  0  0  0  0  0  0  0  0
  -14.5761   16.6110  -40.3851 O   0  0  0  0  0  0  0  0  0  0  0  0
   -9.2601   14.3555  -38.8141 F   0  0  0  0  0  0  0  0  0  0  0  0
   -7.9606   15.1186  -37.2388 F   0  0  0  0  0  0  0  0  0  0  0  0
   -8.6745   13.0604  -37.1610 F   0  0  0  0  0  0  0  0  0  0  0  0
  -14.2426   13.4225  -37.4880 H   0  0  0  0  0  0  0  0  0  0  0  0
  -12.5909   12.8206  -37.7362 H   0  0  0  0  0  0  0  0  0  0  0  0
  -12.6609   13.6323  -39.9541 H   0  0  0  0  0  0  0  0  0  0  0  0
  -14.3275   14.1562  -39.6706 H   0  0  0  0  0  0  0  0  0  0  0  0
  -14.5110   15.9946  -37.7518 H   0  0  0  0  0  0  0  0  0  0  0  0
  -13.1079   17.0543  -37.4393 H   0  0  0  0  0  0  0  0  0  0  0  0
  -10.7226   15.0714  -39.5061 H   0  0  0  0  0  0  0  0  0  0  0  0
  -10.8962   16.6989  -38.7899 H   0  0  0  0  0  0  0  0  0  0  0  0
  -12.8328   14.8634  -35.9794 H   0  0  0  0  0  0  0  0  0  0  0  0
  -14.8621   17.1902  -41.1234 H   0  0  0  0  0  0  0  0  0  0  0  0
  1  8  1  0  0  0  0
  1 11  2  0  0  0  0
  1 13  1  0  0  0  0
  2  9  1  0  0  0  0
  2 10  1  0  0  0  0
  2 12  2  0  0  0  0
  3  4  1  0  0  0  0
  3  7  1  0  0  0  0
  4  8  1  0  0  0  0
  5  7  1  0  0  0  0
  5  8  1  0  0  0  0
  6  8  1  0  0  0  0
  6 10  1  0  0  0  0
  7 10  1  0  0  0  0
  9 14  1  0  0  0  0
  9 15  1  0  0  0  0
  9 16  1  0  0  0  0
  3 17  1  0  0  0  0
  3 18  1  0  0  0  0
  4 19  1  0  0  0  0
  4 20  1  0  0  0  0
  5 21  1  0  0  0  0
  5 22  1  0  0  0  0
  6 23  1  0  0  0  0
  6 24  1  0  0  0  0
  7 25  1  0  0  0  0
 13 26  1  0  0  0  0
M  END
> <id>
EN300-28276262

> <smiles>
OC(=O)C1(CCC2C1)CN2C(=O)C(F)(F)F

> <IUPAC Name>
2-(2,2,2-trifluoroacetyl)-2-azabicyclo[2.2.1]heptane-4-carboxylic acid

> <CAS>
2680720-49-2

> <URL>
https://www.enaminestore.com/catalog/EN300-28276262

> <ROCS_ShapeQuery>
__x1247relevant_x1083L0AP1_x1305L0BP1_

> <ROCS_TanimotoCombo>
0.746 

> <ROCS_ShapeTanimoto>
0.529 

> <ROCS_ColorTanimoto>
0.217 

> <ROCS_RefTversky>
0.446 

> <ROCS_RefColorTversky>
0.242 

> <ROCS_RefTverskyCombo>
0.688 

> <ROCS_FitTversky>
1.535 

> <ROCS_FitColorTversky>
0.684 

> <ROCS_FitTverskyCombo>
2.219 

> <ROCS_ColorScore>
-7.900

> <ROCS_Overlap>
1316.160

> <ROCS_Rank>
90                  

$$$$
untitled-dbase-69256_41
  -OEChem-06232314393D

 29 30  0     1  0  0  0  0  0999 V2000
  -11.9996   16.9017  -40.3710 C   0  0  0  0  0  0  0  0  0  0  0  0
  -10.1914   14.6213  -36.4040 C   0  0  0  0  0  0  0  0  0  0  0  0
  -13.4754   13.8684  -38.7839 C   0  0  0  0  0  0  0  0  0  0  0  0
  -12.4845   14.5032  -39.7779 C   0  0  0  0  0  0  0  0  0  0  0  0
  -12.6974   14.9178  -36.6084 C   0  0  0  0  0  0  0  0  0  0  0  0
  -11.1109   15.9838  -38.2395 C   0  0  0  0  0  0  0  0  0  0  0  0
  -13.7450   14.9583  -37.7312 C   0  0  1  0  0  0  0  0  0  0  0  0
  -12.2611   15.9358  -39.2565 C   0  0  1  0  0  0  0  0  0  0  0  0
  -13.5782   16.2238  -38.5528 C   0  0  0  0  0  0  0  0  0  0  0  0
   -8.9995   14.2360  -37.2448 C   0  0  0  0  0  0  0  0  0  0  0  0
  -11.3158   15.0868  -37.0931 N   0  0  0  0  0  0  0  0  0  0  0  0
  -12.7700   17.1386  -41.2896 O   0  0  0  0  0  0  0  0  0  0  0  0
  -10.1261   14.5192  -35.1764 O   0  0  0  0  0  0  0  0  0  0  0  0
  -10.7832   17.4818  -40.2263 O   0  0  0  0  0  0  0  0  0  0  0  0
  -14.5942   16.3445  -39.4380 F   0  0  0  0  0  0  0  0  0  0  0  0
  -13.5536   17.3377  -37.8027 F   0  0  0  0  0  0  0  0  0  0  0  0
   -9.2628   14.4236  -38.5500 F   0  0  0  0  0  0  0  0  0  0  0  0
   -7.9291   14.9816  -36.9182 F   0  0  0  0  0  0  0  0  0  0  0  0
   -8.6848   12.9418  -37.0590 F   0  0  0  0  0  0  0  0  0  0  0  0
  -14.4034   13.6144  -39.3098 H   0  0  0  0  0  0  0  0  0  0  0  0
  -13.0814   12.9455  -38.3458 H   0  0  0  0  0  0  0  0  0  0  0  0
  -11.5517   13.9303  -39.8298 H   0  0  0  0  0  0  0  0  0  0  0  0
  -12.9193   14.4999  -40.7849 H   0  0  0  0  0  0  0  0  0  0  0  0
  -12.8804   15.7284  -35.8929 H   0  0  0  0  0  0  0  0  0  0  0  0
  -12.7915   13.9748  -36.0627 H   0  0  0  0  0  0  0  0  0  0  0  0
  -10.1585   15.7417  -38.7271 H   0  0  0  0  0  0  0  0  0  0  0  0
  -10.9992   16.9968  -37.8311 H   0  0  0  0  0  0  0  0  0  0  0  0
  -14.7519   14.8658  -37.3127 H   0  0  0  0  0  0  0  0  0  0  0  0
  -10.5921   18.1174  -40.9487 H   0  0  0  0  0  0  0  0  0  0  0  0
  1  8  1  0  0  0  0
  1 12  2  0  0  0  0
  1 14  1  0  0  0  0
  2 10  1  0  0  0  0
  2 11  1  0  0  0  0
  2 13  2  0  0  0  0
  3  4  1  0  0  0  0
  3  7  1  0  0  0  0
  4  8  1  0  0  0  0
  5  7  1  0  0  0  0
  5 11  1  0  0  0  0
  6  8  1  0  0  0  0
  6 11  1  0  0  0  0
  7  9  1  0  0  0  0
  8  9  1  0  0  0  0
  9 15  1  0  0  0  0
  9 16  1  0  0  0  0
 10 17  1  0  0  0  0
 10 18  1  0  0  0  0
 10 19  1  0  0  0  0
  3 20  1  0  0  0  0
  3 21  1  0  0  0  0
  4 22  1  0  0  0  0
  4 23  1  0  0  0  0
  5 24  1  0  0  0  0
  5 25  1  0  0  0  0
  6 26  1  0  0  0  0
  6 27  1  0  0  0  0
  7 28  1  0  0  0  0
 14 29  1  0  0  0  0
M  END
> <id>
EN300-37419389

> <smiles>
OC(=O)C1(CCC2CN(C1)C(=O)C(F)(F)F)C2(F)F

> <IUPAC Name>
8,8-difluoro-3-(2,2,2-trifluoroacetyl)-3-azabicyclo[3.2.1]octane-1-carboxylic acid

> <URL>
https://www.enaminestore.com/catalog/EN300-37419389

> <ROCS_ShapeQuery>
__x1247relevant_x1083L0AP1_x1305L0BP1_

> <ROCS_TanimotoCombo>
0.746 

> <ROCS_ShapeTanimoto>
0.552 

> <ROCS_ColorTanimoto>
0.194 

> <ROCS_RefTversky>
0.475 

> <ROCS_RefColorTversky>
0.218 

> <ROCS_RefTverskyCombo>
0.693 

> <ROCS_FitTversky>
1.410 

> <ROCS_FitColorTversky>
0.645 

> <ROCS_FitTverskyCombo>
2.055 

> <ROCS_ColorScore>
-7.111

> <ROCS_Overlap>
1404.840

> <ROCS_Rank>
91                  

$$$$
untitled-dbase-175416_6
  -OEChem-06232314393D

 20 22  0     1  0  0  0  0  0999 V2000
  -10.2394   15.4426  -36.9725 C   0  0  0  0  0  0  0  0  0  0  0  0
  -12.4414   13.7567  -38.1652 C   0  0  0  0  0  0  0  0  0  0  0  0
  -11.2802   15.9112  -37.9314 C   0  0  1  0  0  0  0  0  0  0  0  0
  -11.6689   14.8345  -38.9998 C   0  0  2  0  0  0  0  0  0  0  0  0
  -13.3822   14.7335  -37.4955 C   0  0  1  0  0  0  0  0  0  0  0  0
  -12.6708   16.0383  -37.3410 C   0  0  2  0  0  0  0  0  0  0  0  0
  -13.6458   15.8418  -38.4579 C   0  0  1  0  0  0  0  0  0  0  0  0
  -12.8577   15.5517  -39.7026 C   0  0  0  0  0  0  0  0  0  0  0  0
   -9.0402   15.6507  -37.0814 O   0  0  0  0  0  0  0  0  0  0  0  0
  -10.8040   14.7463  -35.9557 O   0  0  0  0  0  0  0  0  0  0  0  0
  -12.4838   16.6712  -40.3492 F   0  0  0  0  0  0  0  0  0  0  0  0
  -13.5197   14.7492  -40.5566 F   0  0  0  0  0  0  0  0  0  0  0  0
  -12.9732   13.0378  -38.7957 H   0  0  0  0  0  0  0  0  0  0  0  0
  -11.8064   13.2315  -37.4470 H   0  0  0  0  0  0  0  0  0  0  0  0
  -10.9461   16.8462  -38.3934 H   0  0  0  0  0  0  0  0  0  0  0  0
  -10.8698   14.4630  -39.6414 H   0  0  0  0  0  0  0  0  0  0  0  0
  -14.1157   14.3809  -36.7979 H   0  0  0  0  0  0  0  0  0  0  0  0
  -12.8554   16.7203  -36.5342 H   0  0  0  0  0  0  0  0  0  0  0  0
  -14.5834   16.3569  -38.5166 H   0  0  0  0  0  0  0  0  0  0  0  0
  -10.1342   14.4272  -35.3139 H   0  0  0  0  0  0  0  0  0  0  0  0
  1  3  1  1  0  0  0
  1  9  2  0  0  0  0
  1 10  1  0  0  0  0
  2  4  1  1  0  0  0
  2  5  1  0  0  0  0
  3  4  1  0  0  0  0
  3  6  1  0  0  0  0
  4  8  1  0  0  0  0
  5  6  1  0  0  0  0
  5  7  1  0  0  0  0
  6  7  1  0  0  0  0
  7  8  1  6  0  0  0
  8 11  1  0  0  0  0
  8 12  1  0  0  0  0
  2 13  1  0  0  0  0
  2 14  1  0  0  0  0
  3 15  1  0  0  0  0
  4 16  1  0  0  0  0
  5 17  1  0  0  0  0
  6 18  1  0  0  0  0
  7 19  1  0  0  0  0
 10 20  1  0  0  0  0
M  END
> <id>
EN300-44825930

> <smiles>
OC(=O)[C@@H]1C2C3C[C@H]1C(F)(F)[C@@H]32 |&1:3,7,11,r|

> <IUPAC Name>
rac-(3R,4R,6S)-5,5-difluorotricyclo[2.2.1.0,2,6]heptane-3-carboxylic acid

> <Purity>
95

> <URL>
https://www.enaminestore.com/catalog/EN300-44825930

> <ROCS_ShapeQuery>
__x1247relevant_x1083L0AP1_x1305L0BP1_

> <ROCS_TanimotoCombo>
0.746 

> <ROCS_ShapeTanimoto>
0.484 

> <ROCS_ColorTanimoto>
0.262 

> <ROCS_RefTversky>
0.403 

> <ROCS_RefColorTversky>
0.400 

> <ROCS_RefTverskyCombo>
0.803 

> <ROCS_FitTversky>
1.715 

> <ROCS_FitColorTversky>
0.432 

> <ROCS_FitTverskyCombo>
2.147 

> <ROCS_ColorScore>
-13.482

> <ROCS_Overlap>
1183.410

> <ROCS_Rank>
92                  

$$$$
untitled-dbase-177547_6
  -OEChem-06232314393D

 20 22  0     1  0  0  0  0  0999 V2000
  -10.2393   15.4443  -36.9730 C   0  0  0  0  0  0  0  0  0  0  0  0
  -12.4403   13.7570  -38.1654 C   0  0  0  0  0  0  0  0  0  0  0  0
  -11.2804   15.9119  -37.9321 C   0  0  1  0  0  0  0  0  0  0  0  0
  -11.6685   14.8350  -39.0003 C   0  0  2  0  0  0  0  0  0  0  0  0
  -13.3817   14.7333  -37.4960 C   0  0  1  0  0  0  0  0  0  0  0  0
  -12.6711   16.0384  -37.3418 C   0  0  2  0  0  0  0  0  0  0  0  0
  -13.6461   15.8412  -38.4586 C   0  0  1  0  0  0  0  0  0  0  0  0
  -12.8578   15.5512  -39.7031 C   0  0  0  0  0  0  0  0  0  0  0  0
   -9.0400   15.6516  -37.0829 O   0  0  0  0  0  0  0  0  0  0  0  0
  -10.8037   14.7501  -35.9547 O   0  0  0  0  0  0  0  0  0  0  0  0
  -12.4844   16.6708  -40.3499 F   0  0  0  0  0  0  0  0  0  0  0  0
  -13.5191   14.7482  -40.5572 F   0  0  0  0  0  0  0  0  0  0  0  0
  -12.9719   13.0376  -38.7955 H   0  0  0  0  0  0  0  0  0  0  0  0
  -11.8043   13.2322  -37.4478 H   0  0  0  0  0  0  0  0  0  0  0  0
  -10.9459   16.8459  -38.3957 H   0  0  0  0  0  0  0  0  0  0  0  0
  -10.8693   14.4631  -39.6415 H   0  0  0  0  0  0  0  0  0  0  0  0
  -14.1149   14.3804  -36.7981 H   0  0  0  0  0  0  0  0  0  0  0  0
  -12.8560   16.7205  -36.5352 H   0  0  0  0  0  0  0  0  0  0  0  0
  -14.5840   16.3558  -38.5173 H   0  0  0  0  0  0  0  0  0  0  0  0
  -10.1337   14.4317  -35.3128 H   0  0  0  0  0  0  0  0  0  0  0  0
  1  3  1  1  0  0  0
  1  9  2  0  0  0  0
  1 10  1  0  0  0  0
  2  4  1  0  0  0  0
  2  5  1  0  0  0  0
  3  4  1  0  0  0  0
  3  6  1  0  0  0  0
  4  8  1  0  0  0  0
  5  6  1  1  0  0  0
  5  7  1  0  0  0  0
  6  7  1  0  0  0  0
  7  8  1  0  0  0  0
  8 11  1  0  0  0  0
  8 12  1  0  0  0  0
  2 13  1  0  0  0  0
  2 14  1  0  0  0  0
  3 15  1  0  0  0  0
  4 16  1  0  0  0  0
  5 17  1  0  0  0  0
  6 18  1  0  0  0  0
  7 19  1  0  0  0  0
 10 20  1  0  0  0  0
M  END
> <id>
EN300-45181351

> <smiles>
OC(=O)[C@@H]1[C@@H]2C3CC1C(F)(F)C32 |&1:3,4,r|

> <IUPAC Name>
rac-(2R,3S)-5,5-difluorotricyclo[2.2.1.0,2,6]heptane-3-carboxylic acid

> <Purity>
95

> <URL>
https://www.enaminestore.com/catalog/EN300-45181351

> <ROCS_ShapeQuery>
__x1247relevant_x1083L0AP1_x1305L0BP1_

> <ROCS_TanimotoCombo>
0.746 

> <ROCS_ShapeTanimoto>
0.484 

> <ROCS_ColorTanimoto>
0.262 

> <ROCS_RefTversky>
0.403 

> <ROCS_RefColorTversky>
0.400 

> <ROCS_RefTverskyCombo>
0.803 

> <ROCS_FitTversky>
1.714 

> <ROCS_FitColorTversky>
0.432 

> <ROCS_FitTverskyCombo>
2.147 

> <ROCS_ColorScore>
-13.482

> <ROCS_Overlap>
1183.247

> <ROCS_Rank>
93                  

$$$$
untitled-dbase-111870_5
  -OEChem-06232314393D

 26 27  0     0  0  0  0  0  0999 V2000
  -10.2913   15.1169  -36.5538 C   0  0  0  0  0  0  0  0  0  0  0  0
  -11.0623   15.8339  -38.8240 C   0  0  0  0  0  0  0  0  0  0  0  0
  -12.5480   16.1285  -36.8451 C   0  0  0  0  0  0  0  0  0  0  0  0
  -12.2757   15.8472  -39.7606 C   0  0  0  0  0  0  0  0  0  0  0  0
  -13.7830   16.1465  -37.7530 C   0  0  0  0  0  0  0  0  0  0  0  0
  -12.0994   13.8548  -37.7377 C   0  0  0  0  0  0  0  0  0  0  0  0
  -11.4711   15.2298  -37.4717 C   0  0  0  0  0  0  0  0  0  0  0  0
  -13.5122   15.3089  -39.0170 C   0  0  0  0  0  0  0  0  0  0  0  0
  -14.7334   15.2813  -39.9299 C   0  0  0  0  0  0  0  0  0  0  0  0
  -10.3270   14.6715  -35.4164 O   0  0  0  0  0  0  0  0  0  0  0  0
  -13.2362   13.9550  -38.6091 O   0  0  0  0  0  0  0  0  0  0  0  0
   -9.1695   15.5807  -37.1569 O   0  0  0  0  0  0  0  0  0  0  0  0
  -14.5009   14.4899  -40.9890 F   0  0  0  0  0  0  0  0  0  0  0  0
  -15.7985   14.8097  -39.2627 F   0  0  0  0  0  0  0  0  0  0  0  0
  -15.0107   16.5197  -40.3679 F   0  0  0  0  0  0  0  0  0  0  0  0
  -10.2465   15.2571  -39.2782 H   0  0  0  0  0  0  0  0  0  0  0  0
  -10.6766   16.8534  -38.6958 H   0  0  0  0  0  0  0  0  0  0  0  0
  -12.1700   17.1492  -36.7038 H   0  0  0  0  0  0  0  0  0  0  0  0
  -12.8252   15.7685  -35.8459 H   0  0  0  0  0  0  0  0  0  0  0  0
  -12.4510   16.8634  -40.1330 H   0  0  0  0  0  0  0  0  0  0  0  0
  -12.0539   15.2152  -40.6297 H   0  0  0  0  0  0  0  0  0  0  0  0
  -14.6315   15.7269  -37.1981 H   0  0  0  0  0  0  0  0  0  0  0  0
  -14.0427   17.1795  -38.0128 H   0  0  0  0  0  0  0  0  0  0  0  0
  -11.3801   13.1702  -38.2024 H   0  0  0  0  0  0  0  0  0  0  0  0
  -12.4332   13.3798  -36.8077 H   0  0  0  0  0  0  0  0  0  0  0  0
   -8.3854   15.5170  -36.5709 H   0  0  0  0  0  0  0  0  0  0  0  0
  1  7  1  0  0  0  0
  1 10  2  0  0  0  0
  1 12  1  0  0  0  0
  2  4  1  0  0  0  0
  2  7  1  0  0  0  0
  3  5  1  0  0  0  0
  3  7  1  0  0  0  0
  4  8  1  0  0  0  0
  5  8  1  0  0  0  0
  6  7  1  0  0  0  0
  6 11  1  0  0  0  0
  8  9  1  0  0  0  0
  8 11  1  0  0  0  0
  9 13  1  0  0  0  0
  9 14  1  0  0  0  0
  9 15  1  0  0  0  0
  2 16  1  0  0  0  0
  2 17  1  0  0  0  0
  3 18  1  0  0  0  0
  3 19  1  0  0  0  0
  4 20  1  0  0  0  0
  4 21  1  0  0  0  0
  5 22  1  0  0  0  0
  5 23  1  0  0  0  0
  6 24  1  0  0  0  0
  6 25  1  0  0  0  0
 12 26  1  0  0  0  0
M  END
> <id>
EN300-37385129

> <smiles>
OC(=O)C1(CCC2(CC1)C(F)(F)F)CO2

> <IUPAC Name>
1-(trifluoromethyl)-2-oxabicyclo[2.2.2]octane-4-carboxylic acid

> <CAS>
2825012-62-0

> <Purity>
95

> <URL>
https://www.enaminestore.com/catalog/EN300-37385129

> <ROCS_ShapeQuery>
__x1247relevant_x1083L0AP1_x1305L0BP1_

> <ROCS_TanimotoCombo>
0.746 

> <ROCS_ShapeTanimoto>
0.516 

> <ROCS_ColorTanimoto>
0.230 

> <ROCS_RefTversky>
0.434 

> <ROCS_RefColorTversky>
0.251 

> <ROCS_RefTverskyCombo>
0.685 

> <ROCS_FitTversky>
1.582 

> <ROCS_FitColorTversky>
0.729 

> <ROCS_FitTverskyCombo>
2.310 

> <ROCS_ColorScore>
-8.197

> <ROCS_Overlap>
1278.049

> <ROCS_Rank>
94                  

$$$$
untitled-dbase-112804_2
  -OEChem-06232314393D

 31 33  0     1  0  0  0  0  0999 V2000
  -13.8847   15.1564  -37.2788 C   0  0  0  0  0  0  0  0  0  0  0  0
  -13.5802   13.9181  -38.1554 C   0  0  0  0  0  0  0  0  0  0  0  0
  -11.6997   16.4729  -37.4446 C   0  0  0  0  0  0  0  0  0  0  0  0
  -11.1857   14.3883  -38.9175 C   0  0  0  0  0  0  0  0  0  0  0  0
   -8.8514   14.6297  -36.7314 C   0  0  0  0  0  0  0  0  0  0  0  0
  -13.1694   16.3745  -37.8912 C   0  0  1  0  0  0  0  0  0  0  0  0
  -12.6714   14.3562  -39.3184 C   0  0  2  0  0  0  0  0  0  0  0  0
   -9.9248   14.3865  -35.7031 C   0  0  2  0  0  0  0  0  0  0  0  0
  -10.8769   15.1758  -37.6223 C   0  0  0  0  0  0  0  0  0  0  0  0
   -9.7342   13.1162  -34.9026 C   0  0  0  0  0  0  0  0  0  0  0  0
  -14.5932   16.0072  -40.0962 O   0  0  0  0  0  0  0  0  0  0  0  0
  -12.1962   16.7752  -40.3464 O   0  0  0  0  0  0  0  0  0  0  0  0
   -9.4790   15.5393  -37.6336 O   0  0  0  0  0  0  0  0  0  0  0  0
  -11.1112   14.3059  -36.4947 O   0  0  0  0  0  0  0  0  0  0  0  0
  -13.2170   16.0276  -39.6451 S   0  0  0  0  0  0  0  0  0  0  0  0
   -8.3891   13.3990  -33.5285 Br  0  0  0  0  0  0  0  0  0  0  0  0
  -14.9685   15.3289  -37.2902 H   0  0  0  0  0  0  0  0  0  0  0  0
  -13.6104   14.9963  -36.2312 H   0  0  0  0  0  0  0  0  0  0  0  0
  -13.1460   13.0988  -37.5737 H   0  0  0  0  0  0  0  0  0  0  0  0
  -14.5282   13.5398  -38.5590 H   0  0  0  0  0  0  0  0  0  0  0  0
  -11.2112   17.2897  -37.9913 H   0  0  0  0  0  0  0  0  0  0  0  0
  -11.6785   16.7681  -36.3875 H   0  0  0  0  0  0  0  0  0  0  0  0
  -10.8374   13.3539  -38.7983 H   0  0  0  0  0  0  0  0  0  0  0  0
  -10.5980   14.8068  -39.7447 H   0  0  0  0  0  0  0  0  0  0  0  0
   -7.9430   15.0711  -36.3132 H   0  0  0  0  0  0  0  0  0  0  0  0
   -8.5889   13.7235  -37.2887 H   0  0  0  0  0  0  0  0  0  0  0  0
  -13.7041   17.3081  -37.6973 H   0  0  0  0  0  0  0  0  0  0  0  0
  -12.8252   13.7488  -40.2143 H   0  0  0  0  0  0  0  0  0  0  0  0
  -10.0285   15.2493  -35.0344 H   0  0  0  0  0  0  0  0  0  0  0  0
   -9.3815   12.2960  -35.5311 H   0  0  0  0  0  0  0  0  0  0  0  0
  -10.6542   12.8219  -34.3935 H   0  0  0  0  0  0  0  0  0  0  0  0
  1  2  1  0  0  0  0
  1  6  1  0  0  0  0
  2  7  1  0  0  0  0
  3  6  1  0  0  0  0
  3  9  1  0  0  0  0
  4  7  1  0  0  0  0
  4  9  1  0  0  0  0
  5  8  1  0  0  0  0
  5 13  1  0  0  0  0
  6 15  1  0  0  0  0
  7 15  1  0  0  0  0
  8 10  1  0  0  0  0
  8 14  1  0  0  0  0
  9 13  1  0  0  0  0
  9 14  1  0  0  0  0
 10 16  1  0  0  0  0
 11 15  2  0  0  0  0
 12 15  2  0  0  0  0
  1 17  1  0  0  0  0
  1 18  1  0  0  0  0
  2 19  1  0  0  0  0
  2 20  1  0  0  0  0
  3 21  1  0  0  0  0
  3 22  1  0  0  0  0
  4 23  1  0  0  0  0
  4 24  1  0  0  0  0
  5 25  1  0  0  0  0
  5 26  1  0  0  0  0
  6 27  1  0  0  0  0
  7 28  1  0  0  0  0
  8 29  1  0  0  0  0
 10 30  1  0  0  0  0
 10 31  1  0  0  0  0
M  END
> <id>
EN300-1614797

> <smiles>
BrCC1COC2(CC3CCC(C2)S3(=O)=O)O1

> <IUPAC Name>
4'-(bromomethyl)-8lambda6-thiaspiro[bicyclo[3.2.1]octane-3,2'-[1,3]dioxolane]-8,8-dione

> <CAS>
2171989-64-1

> <URL>
https://www.enaminestore.com/catalog/EN300-1614797

> <ROCS_ShapeQuery>
__x1247relevant_x1083L0AP1_x1305L0BP1_

> <ROCS_TanimotoCombo>
0.745 

> <ROCS_ShapeTanimoto>
0.511 

> <ROCS_ColorTanimoto>
0.234 

> <ROCS_RefTversky>
0.431 

> <ROCS_RefColorTversky>
0.264 

> <ROCS_RefTverskyCombo>
0.695 

> <ROCS_FitTversky>
1.573 

> <ROCS_FitColorTversky>
0.675 

> <ROCS_FitTverskyCombo>
2.248 

> <ROCS_ColorScore>
-8.650

> <ROCS_Overlap>
1268.626

> <ROCS_Rank>
95                  

$$$$
untitled-dbase-151533_0
  -OEChem-06232314393D

 28 29  0     1  0  0  0  0  0999 V2000
  -12.1471   15.7086  -35.5590 C   0  0  0  0  0  0  0  0  0  0  0  0
   -9.7406   14.9395  -37.4131 C   0  0  0  0  0  0  0  0  0  0  0  0
  -13.2792   14.2036  -37.9649 C   0  0  0  0  0  0  0  0  0  0  0  0
  -11.9816   15.9776  -37.0240 C   0  0  2  0  0  0  0  0  0  0  0  0
  -13.2944   15.7372  -37.7951 C   0  0  1  0  0  0  0  0  0  0  0  0
  -11.8938   14.2042  -38.6065 C   0  0  1  0  0  0  0  0  0  0  0  0
  -13.0771   16.2091  -39.2528 C   0  0  1  0  0  0  0  0  0  0  0  0
  -12.1665   15.1041  -39.8350 C   0  0  1  0  0  0  0  0  0  0  0  0
   -9.1075   13.5724  -37.4296 C   0  0  0  0  0  0  0  0  0  0  0  0
  -11.1064   14.9720  -37.6207 N   0  0  0  0  0  0  0  0  0  0  0  0
  -12.8467   16.3626  -34.8000 O   0  0  0  0  0  0  0  0  0  0  0  0
   -9.0538   15.9398  -37.1978 O   0  0  0  0  0  0  0  0  0  0  0  0
  -11.4093   14.6354  -35.1831 O   0  0  0  0  0  0  0  0  0  0  0  0
  -14.3136   16.2227  -39.9537 O   0  0  0  0  0  0  0  0  0  0  0  0
  -10.9820   15.6508  -40.3823 O   0  0  0  0  0  0  0  0  0  0  0  0
  -10.0354   12.6239  -37.6515 F   0  0  0  0  0  0  0  0  0  0  0  0
   -8.1805   13.4900  -38.4011 F   0  0  0  0  0  0  0  0  0  0  0  0
   -8.5091   13.3092  -36.2537 F   0  0  0  0  0  0  0  0  0  0  0  0
  -13.3168   13.6536  -37.0197 H   0  0  0  0  0  0  0  0  0  0  0  0
  -14.0692   13.8324  -38.6267 H   0  0  0  0  0  0  0  0  0  0  0  0
  -11.5691   16.9825  -37.1578 H   0  0  0  0  0  0  0  0  0  0  0  0
  -14.2005   16.1157  -37.3160 H   0  0  0  0  0  0  0  0  0  0  0  0
  -11.4599   13.2328  -38.8459 H   0  0  0  0  0  0  0  0  0  0  0  0
  -12.6359   17.2102  -39.3100 H   0  0  0  0  0  0  0  0  0  0  0  0
  -12.6783   14.5366  -40.6223 H   0  0  0  0  0  0  0  0  0  0  0  0
  -11.5028   14.4438  -34.2255 H   0  0  0  0  0  0  0  0  0  0  0  0
  -14.1207   16.5241  -40.8563 H   0  0  0  0  0  0  0  0  0  0  0  0
  -10.5627   16.1827  -39.6841 H   0  0  0  0  0  0  0  0  0  0  0  0
  1  4  1  0  0  0  0
  1 11  2  0  0  0  0
  1 13  1  0  0  0  0
  2  9  1  0  0  0  0
  2 10  1  0  0  0  0
  2 12  2  0  0  0  0
  3  5  1  0  0  0  0
  3  6  1  0  0  0  0
  4  5  1  0  0  0  0
  4 10  1  0  0  0  0
  5  7  1  0  0  0  0
  6  8  1  0  0  0  0
  6 10  1  0  0  0  0
  7  8  1  0  0  0  0
  7 14  1  0  0  0  0
  8 15  1  0  0  0  0
  9 16  1  0  0  0  0
  9 17  1  0  0  0  0
  9 18  1  0  0  0  0
  3 19  1  0  0  0  0
  3 20  1  0  0  0  0
  4 21  1  0  0  0  0
  5 22  1  0  0  0  0
  6 23  1  0  0  0  0
  7 24  1  0  0  0  0
  8 25  1  0  0  0  0
 13 26  1  0  0  0  0
 14 27  1  0  0  0  0
 15 28  1  0  0  0  0
M  END
> <id>
EN300-28282955

> <smiles>
OC1C(O)C2CC1C(N2C(=O)C(F)(F)F)C(=O)O

> <IUPAC Name>
5,6-dihydroxy-2-(2,2,2-trifluoroacetyl)-2-azabicyclo[2.2.1]heptane-3-carboxylic acid

> <CAS>
2680546-85-2

> <URL>
https://www.enaminestore.com/catalog/EN300-28282955

> <ROCS_ShapeQuery>
__x1247relevant_x1083L0AP1_x1305L0BP1_

> <ROCS_TanimotoCombo>
0.745 

> <ROCS_ShapeTanimoto>
0.502 

> <ROCS_ColorTanimoto>
0.243 

> <ROCS_RefTversky>
0.441 

> <ROCS_RefColorTversky>
0.286 

> <ROCS_RefTverskyCombo>
0.728 

> <ROCS_FitTversky>
1.379 

> <ROCS_FitColorTversky>
0.614 

> <ROCS_FitTverskyCombo>
1.993 

> <ROCS_ColorScore>
-9.418

> <ROCS_Overlap>
1303.598

> <ROCS_Rank>
96                  

$$$$
untitled-dbase-167598_73
  -OEChem-06232314393D

 40 42  0     1  0  0  0  0  0999 V2000
   -9.9108   15.1538  -36.8592 C   0  0  0  0  0  0  0  0  0  0  0  0
  -13.7321   14.9803  -40.5364 C   0  0  0  0  0  0  0  0  0  0  0  0
  -13.8485   14.8700  -36.9230 C   0  0  0  0  0  0  0  0  0  0  0  0
  -13.8145   16.3733  -37.2709 C   0  0  0  0  0  0  0  0  0  0  0  0
  -10.5683   15.7914  -39.2446 C   0  0  0  0  0  0  0  0  0  0  0  0
  -11.7926   13.8398  -38.0190 C   0  0  0  0  0  0  0  0  0  0  0  0
  -11.5737   16.4334  -38.3324 C   0  0  1  0  0  0  0  0  0  0  0  0
  -13.2958   14.1540  -38.1685 C   0  0  2  0  0  0  0  0  0  0  0  0
  -13.0625   16.4379  -38.6036 C   0  0  1  0  0  0  0  0  0  0  0  0
  -10.9272   15.1048  -37.9333 C   0  0  1  0  0  0  0  0  0  0  0  0
  -15.4132   14.0727  -42.6620 C   0  0  0  0  0  0  0  0  0  0  0  0
  -15.1482   11.7895  -41.6490 C   0  0  0  0  0  0  0  0  0  0  0  0
  -16.2458   13.6233  -40.3297 C   0  0  0  0  0  0  0  0  0  0  0  0
  -15.1777   13.2908  -41.3705 C   0  0  0  0  0  0  0  0  0  0  0  0
  -13.4335   15.1686  -39.2015 N   0  0  0  0  0  0  0  0  0  0  0  0
   -8.8204   15.6982  -36.9492 O   0  0  0  0  0  0  0  0  0  0  0  0
  -13.8331   15.8897  -41.3567 O   0  0  0  0  0  0  0  0  0  0  0  0
  -10.3519   14.5069  -35.7528 O   0  0  0  0  0  0  0  0  0  0  0  0
  -13.8978   13.6569  -40.8432 O   0  0  0  0  0  0  0  0  0  0  0  0
  -13.2666   14.6558  -36.0204 H   0  0  0  0  0  0  0  0  0  0  0  0
  -14.8844   14.5668  -36.7325 H   0  0  0  0  0  0  0  0  0  0  0  0
  -14.8408   16.7379  -37.3977 H   0  0  0  0  0  0  0  0  0  0  0  0
  -13.3413   16.9577  -36.4751 H   0  0  0  0  0  0  0  0  0  0  0  0
  -10.8999   15.3486  -40.1753 H   0  0  0  0  0  0  0  0  0  0  0  0
   -9.5957   16.2652  -39.3266 H   0  0  0  0  0  0  0  0  0  0  0  0
  -11.6394   13.2252  -37.1234 H   0  0  0  0  0  0  0  0  0  0  0  0
  -11.4544   13.2382  -38.8723 H   0  0  0  0  0  0  0  0  0  0  0  0
  -11.2571   17.3373  -37.8224 H   0  0  0  0  0  0  0  0  0  0  0  0
  -13.8569   13.2435  -38.3986 H   0  0  0  0  0  0  0  0  0  0  0  0
  -13.3494   17.2916  -39.2240 H   0  0  0  0  0  0  0  0  0  0  0  0
  -15.4351   15.1508  -42.4663 H   0  0  0  0  0  0  0  0  0  0  0  0
  -14.6344   13.8697  -43.4042 H   0  0  0  0  0  0  0  0  0  0  0  0
  -16.3847   13.8186  -43.1013 H   0  0  0  0  0  0  0  0  0  0  0  0
  -14.9795   11.2246  -40.7252 H   0  0  0  0  0  0  0  0  0  0  0  0
  -14.3223   11.5337  -42.3225 H   0  0  0  0  0  0  0  0  0  0  0  0
  -16.0837   11.4440  -42.1007 H   0  0  0  0  0  0  0  0  0  0  0  0
  -16.0771   13.0626  -39.4033 H   0  0  0  0  0  0  0  0  0  0  0  0
  -16.2566   14.6915  -40.0900 H   0  0  0  0  0  0  0  0  0  0  0  0
  -17.2413   13.3367  -40.6877 H   0  0  0  0  0  0  0  0  0  0  0  0
   -9.6904   14.5265  -35.0287 H   0  0  0  0  0  0  0  0  0  0  0  0
  1 10  1  6  0  0  0
  1 16  2  0  0  0  0
  1 18  1  0  0  0  0
  2 15  1  0  0  0  0
  2 17  2  0  0  0  0
  2 19  1  0  0  0  0
  3  4  1  0  0  0  0
  3  8  1  6  0  0  0
  4  9  1  6  0  0  0
  5  7  1  1  0  0  0
  5 10  1  0  0  0  0
  6  8  1  0  0  0  0
  6 10  1  0  0  0  0
  7  9  1  0  0  0  0
  7 10  1  0  0  0  0
  8 15  1  0  0  0  0
  9 15  1  0  0  0  0
 11 14  1  0  0  0  0
 12 14  1  0  0  0  0
 13 14  1  0  0  0  0
 14 19  1  0  0  0  0
  3 20  1  0  0  0  0
  3 21  1  0  0  0  0
  4 22  1  0  0  0  0
  4 23  1  0  0  0  0
  5 24  1  0  0  0  0
  5 25  1  0  0  0  0
  6 26  1  0  0  0  0
  6 27  1  0  0  0  0
  7 28  1  0  0  0  0
  8 29  1  0  0  0  0
  9 30  1  0  0  0  0
 11 31  1  0  0  0  0
 11 32  1  0  0  0  0
 11 33  1  0  0  0  0
 12 34  1  0  0  0  0
 12 35  1  0  0  0  0
 12 36  1  0  0  0  0
 13 37  1  0  0  0  0
 13 38  1  0  0  0  0
 13 39  1  0  0  0  0
 18 40  1  0  0  0  0
M  END
> <id>
EN300-6482949

> <smiles>
CC(C)(C)OC(=O)N1[C@@H]2CC[C@H]1[C@@H]3C[C@@]3(C2)C(=O)O |&1:8,11,12,14,r|

> <IUPAC Name>
rac-(1R,2S,4R,6S)-9-[(tert-butoxy)carbonyl]-9-azatricyclo[4.2.1.0,2,4]nonane-4-carboxylic acid

> <CAS>
2243512-38-9

> <Purity>
95

> <URL>
https://www.enaminestore.com/catalog/EN300-6482949

> <ROCS_ShapeQuery>
__x1247relevant_x1083L0AP1_x1305L0BP1_

> <ROCS_TanimotoCombo>
0.745 

> <ROCS_ShapeTanimoto>
0.513 

> <ROCS_ColorTanimoto>
0.231 

> <ROCS_RefTversky>
0.450 

> <ROCS_RefColorTversky>
0.279 

> <ROCS_RefTverskyCombo>
0.729 

> <ROCS_FitTversky>
1.373 

> <ROCS_FitColorTversky>
0.577 

> <ROCS_FitTverskyCombo>
1.950 

> <ROCS_ColorScore>
-9.165

> <ROCS_Overlap>
1330.829

> <ROCS_Rank>
97                  

$$$$
untitled-dbase-153040_3
  -OEChem-06232314393D

 26 27  0     1  0  0  0  0  0999 V2000
  -13.3649   16.2402  -40.2865 C   0  0  0  0  0  0  0  0  0  0  0  0
   -9.8659   14.7595  -37.1088 C   0  0  0  0  0  0  0  0  0  0  0  0
  -13.8439   15.3747  -37.4987 C   0  0  0  0  0  0  0  0  0  0  0  0
  -12.0510   13.6687  -37.8565 C   0  0  0  0  0  0  0  0  0  0  0  0
  -12.4980   15.3083  -39.4993 C   0  0  2  0  0  0  0  0  0  0  0  0
  -13.2440   14.3815  -38.5253 C   0  0  2  0  0  0  0  0  0  0  0  0
  -11.6804   15.9562  -38.3809 C   0  0  1  0  0  0  0  0  0  0  0  0
  -12.7736   16.4786  -37.4319 C   0  0  2  0  0  0  0  0  0  0  0  0
   -9.4885   13.4514  -36.4623 C   0  0  0  0  0  0  0  0  0  0  0  0
  -11.0908   14.7706  -37.7408 N   0  0  0  0  0  0  0  0  0  0  0  0
  -14.5869   16.2280  -40.2893 O   0  0  0  0  0  0  0  0  0  0  0  0
   -9.1084   15.7287  -37.0517 O   0  0  0  0  0  0  0  0  0  0  0  0
  -12.6086   17.1059  -41.0047 O   0  0  0  0  0  0  0  0  0  0  0  0
  -12.2961   16.6122  -36.1730 F   0  0  0  0  0  0  0  0  0  0  0  0
  -10.4586   12.5373  -36.6432 F   0  0  0  0  0  0  0  0  0  0  0  0
   -8.3510   12.9695  -36.9948 F   0  0  0  0  0  0  0  0  0  0  0  0
   -9.3001   13.6097  -35.1397 F   0  0  0  0  0  0  0  0  0  0  0  0
  -14.7871   15.7859  -37.8749 H   0  0  0  0  0  0  0  0  0  0  0  0
  -14.0302   14.9129  -36.5243 H   0  0  0  0  0  0  0  0  0  0  0  0
  -12.2810   13.2505  -36.8726 H   0  0  0  0  0  0  0  0  0  0  0  0
  -11.6177   12.8952  -38.4988 H   0  0  0  0  0  0  0  0  0  0  0  0
  -11.8720   14.7559  -40.2107 H   0  0  0  0  0  0  0  0  0  0  0  0
  -13.9794   13.7075  -38.9690 H   0  0  0  0  0  0  0  0  0  0  0  0
  -10.9357   16.7031  -38.6631 H   0  0  0  0  0  0  0  0  0  0  0  0
  -13.1757   17.4452  -37.7515 H   0  0  0  0  0  0  0  0  0  0  0  0
  -11.6490   16.9549  -40.8677 H   0  0  0  0  0  0  0  0  0  0  0  0
  1  5  1  6  0  0  0
  1 11  2  0  0  0  0
  1 13  1  0  0  0  0
  2  9  1  0  0  0  0
  2 10  1  0  0  0  0
  2 12  2  0  0  0  0
  3  6  1  6  0  0  0
  3  8  1  0  0  0  0
  4  6  1  0  0  0  0
  4 10  1  0  0  0  0
  5  6  1  0  0  0  0
  5  7  1  0  0  0  0
  7  8  1  0  0  0  0
  7 10  1  6  0  0  0
  8 14  1  6  0  0  0
  9 15  1  0  0  0  0
  9 16  1  0  0  0  0
  9 17  1  0  0  0  0
  3 18  1  0  0  0  0
  3 19  1  0  0  0  0
  4 20  1  0  0  0  0
  4 21  1  0  0  0  0
  5 22  1  0  0  0  0
  6 23  1  0  0  0  0
  7 24  1  0  0  0  0
  8 25  1  0  0  0  0
 13 26  1  0  0  0  0
M  END
> <id>
EN300-28279669

> <smiles>
OC(=O)[C@@H]1[C@@H]2C[C@@H](F)[C@H]1N(C2)C(=O)C(F)(F)F |&1:3,4,6,8,r|

> <IUPAC Name>
rac-(1R,4R,6S,7S)-6-fluoro-2-(2,2,2-trifluoroacetyl)-2-azabicyclo[2.2.1]heptane-7-carboxylic acid

> <CAS>
2679828-58-9

> <URL>
https://www.enaminestore.com/catalog/EN300-28279669

> <ROCS_ShapeQuery>
__x1247relevant_x1083L0AP1_x1305L0BP1_

> <ROCS_TanimotoCombo>
0.745 

> <ROCS_ShapeTanimoto>
0.523 

> <ROCS_ColorTanimoto>
0.221 

> <ROCS_RefTversky>
0.449 

> <ROCS_RefColorTversky>
0.245 

> <ROCS_RefTverskyCombo>
0.694 

> <ROCS_FitTversky>
1.465 

> <ROCS_FitColorTversky>
0.693 

> <ROCS_FitTverskyCombo>
2.159 

> <ROCS_ColorScore>
-8.011

> <ROCS_Overlap>
1324.209

> <ROCS_Rank>
98                  

$$$$
untitled-dbase-171889_16
  -OEChem-06232314393D

 24 25  0     1  0  0  0  0  0999 V2000
  -13.2661   16.4181  -40.3437 C   0  0  0  0  0  0  0  0  0  0  0  0
   -9.9923   15.1131  -36.8144 C   0  0  0  0  0  0  0  0  0  0  0  0
  -12.6375   14.2831  -39.0996 C   0  0  0  0  0  0  0  0  0  0  0  0
  -11.3988   16.2622  -38.6097 C   0  0  0  0  0  0  0  0  0  0  0  0
  -13.4000   14.9860  -37.0183 C   0  0  0  0  0  0  0  0  0  0  0  0
  -12.2092   14.2566  -37.6427 C   0  0  2  0  0  0  0  0  0  0  0  0
  -12.7833   15.7996  -39.0775 C   0  0  1  0  0  0  0  0  0  0  0  0
  -10.2315   14.3982  -35.5093 C   0  0  0  0  0  0  0  0  0  0  0  0
  -11.0902   15.2070  -37.6417 N   0  0  0  0  0  0  0  0  0  0  0  0
  -12.6505   17.2447  -41.0002 O   0  0  0  0  0  0  0  0  0  0  0  0
   -8.8801   15.5661  -37.0867 O   0  0  0  0  0  0  0  0  0  0  0  0
  -13.7067   16.0226  -37.9936 O   0  0  0  0  0  0  0  0  0  0  0  0
  -14.4911   15.9405  -40.6731 O   0  0  0  0  0  0  0  0  0  0  0  0
  -11.5095   13.9876  -35.4225 F   0  0  0  0  0  0  0  0  0  0  0  0
   -9.4344   13.3195  -35.4062 F   0  0  0  0  0  0  0  0  0  0  0  0
   -9.9780   15.2102  -34.4672 F   0  0  0  0  0  0  0  0  0  0  0  0
  -11.8764   13.9188  -39.7977 H   0  0  0  0  0  0  0  0  0  0  0  0
  -13.5833   13.7585  -39.2753 H   0  0  0  0  0  0  0  0  0  0  0  0
  -10.6432   16.2586  -39.4013 H   0  0  0  0  0  0  0  0  0  0  0  0
  -11.4137   17.2304  -38.1003 H   0  0  0  0  0  0  0  0  0  0  0  0
  -14.2790   14.3404  -36.9238 H   0  0  0  0  0  0  0  0  0  0  0  0
  -13.1784   15.4458  -36.0505 H   0  0  0  0  0  0  0  0  0  0  0  0
  -11.9636   13.2911  -37.1986 H   0  0  0  0  0  0  0  0  0  0  0  0
  -14.8166   15.2850  -40.0198 H   0  0  0  0  0  0  0  0  0  0  0  0
  1  7  1  0  0  0  0
  1 10  2  0  0  0  0
  1 13  1  0  0  0  0
  2  8  1  0  0  0  0
  2  9  1  0  0  0  0
  2 11  2  0  0  0  0
  3  6  1  0  0  0  0
  3  7  1  0  0  0  0
  4  7  1  0  0  0  0
  4  9  1  0  0  0  0
  5  6  1  0  0  0  0
  5 12  1  0  0  0  0
  6  9  1  0  0  0  0
  7 12  1  0  0  0  0
  8 14  1  0  0  0  0
  8 15  1  0  0  0  0
  8 16  1  0  0  0  0
  3 17  1  0  0  0  0
  3 18  1  0  0  0  0
  4 19  1  0  0  0  0
  4 20  1  0  0  0  0
  5 21  1  0  0  0  0
  5 22  1  0  0  0  0
  6 23  1  0  0  0  0
 13 24  1  0  0  0  0
M  END
> <id>
EN300-39689767

> <smiles>
OC(=O)C1(CC2CO1)CN2C(=O)C(F)(F)F

> <IUPAC Name>
5-(2,2,2-trifluoroacetyl)-2-oxa-5-azabicyclo[2.2.1]heptane-1-carboxylic acid

> <URL>
https://www.enaminestore.com/catalog/EN300-39689767

> <ROCS_ShapeQuery>
__x1247relevant_x1083L0AP1_x1305L0BP1_

> <ROCS_TanimotoCombo>
0.744 

> <ROCS_ShapeTanimoto>
0.524 

> <ROCS_ColorTanimoto>
0.220 

> <ROCS_RefTversky>
0.445 

> <ROCS_RefColorTversky>
0.250 

> <ROCS_RefTverskyCombo>
0.695 

> <ROCS_FitTversky>
1.513 

> <ROCS_FitColorTversky>
0.651 

> <ROCS_FitTverskyCombo>
2.163 

> <ROCS_ColorScore>
-8.182

> <ROCS_Overlap>
1312.250

> <ROCS_Rank>
99                  

$$$$
untitled-dbase-171393_16
  -OEChem-06232314393D

 24 25  0     1  0  0  0  0  0999 V2000
  -13.2661   16.4181  -40.3437 C   0  0  0  0  0  0  0  0  0  0  0  0
   -9.9924   15.1132  -36.8144 C   0  0  0  0  0  0  0  0  0  0  0  0
  -12.6373   14.2832  -39.0997 C   0  0  0  0  0  0  0  0  0  0  0  0
  -11.3989   16.2624  -38.6095 C   0  0  0  0  0  0  0  0  0  0  0  0
  -13.4001   14.9858  -37.0185 C   0  0  0  0  0  0  0  0  0  0  0  0
  -12.2091   14.2566  -37.6427 C   0  0  2  0  0  0  0  0  0  0  0  0
  -12.7834   15.7996  -39.0775 C   0  0  1  0  0  0  0  0  0  0  0  0
  -10.2315   14.3982  -35.5094 C   0  0  0  0  0  0  0  0  0  0  0  0
  -11.0903   15.2071  -37.6415 N   0  0  0  0  0  0  0  0  0  0  0  0
  -12.6506   17.2448  -41.0002 O   0  0  0  0  0  0  0  0  0  0  0  0
   -8.8801   15.5661  -37.0867 O   0  0  0  0  0  0  0  0  0  0  0  0
  -13.7068   16.0224  -37.9937 O   0  0  0  0  0  0  0  0  0  0  0  0
  -14.4909   15.9402  -40.6733 O   0  0  0  0  0  0  0  0  0  0  0  0
  -11.5095   13.9877  -35.4225 F   0  0  0  0  0  0  0  0  0  0  0  0
   -9.4344   13.3195  -35.4064 F   0  0  0  0  0  0  0  0  0  0  0  0
   -9.9778   15.2101  -34.4672 F   0  0  0  0  0  0  0  0  0  0  0  0
  -11.8765   13.9185  -39.7980 H   0  0  0  0  0  0  0  0  0  0  0  0
  -13.5831   13.7583  -39.2746 H   0  0  0  0  0  0  0  0  0  0  0  0
  -10.6434   16.2593  -39.4011 H   0  0  0  0  0  0  0  0  0  0  0  0
  -11.4142   17.2308  -38.1001 H   0  0  0  0  0  0  0  0  0  0  0  0
  -14.2792   14.3401  -36.9243 H   0  0  0  0  0  0  0  0  0  0  0  0
  -13.1793   15.4454  -36.0502 H   0  0  0  0  0  0  0  0  0  0  0  0
  -11.9635   13.2910  -37.1988 H   0  0  0  0  0  0  0  0  0  0  0  0
  -14.8164   15.2846  -40.0201 H   0  0  0  0  0  0  0  0  0  0  0  0
  1  7  1  6  0  0  0
  1 10  2  0  0  0  0
  1 13  1  0  0  0  0
  2  8  1  0  0  0  0
  2  9  1  0  0  0  0
  2 11  2  0  0  0  0
  3  6  1  0  0  0  0
  3  7  1  0  0  0  0
  4  7  1  0  0  0  0
  4  9  1  0  0  0  0
  5  6  1  1  0  0  0
  5 12  1  0  0  0  0
  6  9  1  0  0  0  0
  7 12  1  0  0  0  0
  8 14  1  0  0  0  0
  8 15  1  0  0  0  0
  8 16  1  0  0  0  0
  3 17  1  0  0  0  0
  3 18  1  0  0  0  0
  4 19  1  0  0  0  0
  4 20  1  0  0  0  0
  5 21  1  0  0  0  0
  5 22  1  0  0  0  0
  6 23  1  0  0  0  0
 13 24  1  0  0  0  0
M  END
> <id>
EN300-39918119

> <smiles>
OC(=O)[C@@]1(C[C@@H]2CO1)CN2C(=O)C(F)(F)F

> <IUPAC Name>
(1R,4R)-5-(2,2,2-trifluoroacetyl)-2-oxa-5-azabicyclo[2.2.1]heptane-1-carboxylic acid

> <URL>
https://www.enaminestore.com/catalog/EN300-39918119

> <ROCS_ShapeQuery>
__x1247relevant_x1083L0AP1_x1305L0BP1_

> <ROCS_TanimotoCombo>
0.744 

> <ROCS_ShapeTanimoto>
0.524 

> <ROCS_ColorTanimoto>
0.220 

> <ROCS_RefTversky>
0.445 

> <ROCS_RefColorTversky>
0.250 

> <ROCS_RefTverskyCombo>
0.695 

> <ROCS_FitTversky>
1.513 

> <ROCS_FitColorTversky>
0.651 

> <ROCS_FitTverskyCombo>
2.163 

> <ROCS_ColorScore>
-8.181

> <ROCS_Overlap>
1312.253

> <ROCS_Rank>
100                 

$$$$
untitled-dbase-96982_6
  -OEChem-06232314393D

 28 30  0     0  0  0  0  0  0999 V2000
  -10.7211   15.2662  -35.7136 C   0  0  0  0  0  0  0  0  0  0  0  0
   -9.9155   13.6592  -37.4665 C   0  0  0  0  0  0  0  0  0  0  0  0
  -12.8459   14.1067  -38.9518 C   0  0  0  0  0  0  0  0  0  0  0  0
  -13.5306   15.4693  -37.4644 C   0  0  0  0  0  0  0  0  0  0  0  0
  -11.9162   16.0121  -38.7450 C   0  0  0  0  0  0  0  0  0  0  0  0
   -9.7201   16.2700  -36.2749 C   0  0  0  0  0  0  0  0  0  0  0  0
   -8.9595   14.7533  -37.9288 C   0  0  0  0  0  0  0  0  0  0  0  0
  -11.1521   14.2328  -36.7625 C   0  0  0  0  0  0  0  0  0  0  0  0
  -12.1458   14.8268  -37.7640 C   0  0  0  0  0  0  0  0  0  0  0  0
  -13.3745   15.5609  -39.0020 C   0  0  0  0  0  0  0  0  0  0  0  0
   -8.5943   15.6001  -36.8402 O   0  0  0  0  0  0  0  0  0  0  0  0
  -14.2869   16.1016  -39.9236 O   0  0  0  0  0  0  0  0  0  0  0  0
  -10.2968   14.7619  -34.8305 H   0  0  0  0  0  0  0  0  0  0  0  0
  -11.6120   15.8123  -35.3589 H   0  0  0  0  0  0  0  0  0  0  0  0
  -10.2399   13.0757  -38.3451 H   0  0  0  0  0  0  0  0  0  0  0  0
   -9.3904   12.9526  -36.8036 H   0  0  0  0  0  0  0  0  0  0  0  0
  -12.2122   13.7748  -39.7807 H   0  0  0  0  0  0  0  0  0  0  0  0
  -13.5664   13.3196  -38.7067 H   0  0  0  0  0  0  0  0  0  0  0  0
  -14.3164   14.8117  -37.0785 H   0  0  0  0  0  0  0  0  0  0  0  0
  -13.5365   16.4099  -36.9041 H   0  0  0  0  0  0  0  0  0  0  0  0
  -11.7682   17.0043  -38.3066 H   0  0  0  0  0  0  0  0  0  0  0  0
  -11.1945   15.8612  -39.5544 H   0  0  0  0  0  0  0  0  0  0  0  0
  -10.1901   16.8598  -37.0682 H   0  0  0  0  0  0  0  0  0  0  0  0
   -9.3791   16.9673  -35.5007 H   0  0  0  0  0  0  0  0  0  0  0  0
   -8.0553   14.3275  -38.3797 H   0  0  0  0  0  0  0  0  0  0  0  0
   -9.4454   15.3756  -38.6871 H   0  0  0  0  0  0  0  0  0  0  0  0
  -11.6576   13.3952  -36.2273 H   0  0  0  0  0  0  0  0  0  0  0  0
  -15.1192   15.5983  -39.8467 H   0  0  0  0  0  0  0  0  0  0  0  0
  1  6  1  0  0  0  0
  1  8  1  0  0  0  0
  2  7  1  0  0  0  0
  2  8  1  0  0  0  0
  3  9  1  0  0  0  0
  3 10  1  0  0  0  0
  4  9  1  0  0  0  0
  4 10  1  0  0  0  0
  5  9  1  0  0  0  0
  5 10  1  0  0  0  0
  6 11  1  0  0  0  0
  7 11  1  0  0  0  0
  8  9  1  0  0  0  0
 10 12  1  0  0  0  0
  1 13  1  0  0  0  0
  1 14  1  0  0  0  0
  2 15  1  0  0  0  0
  2 16  1  0  0  0  0
  3 17  1  0  0  0  0
  3 18  1  0  0  0  0
  4 19  1  0  0  0  0
  4 20  1  0  0  0  0
  5 21  1  0  0  0  0
  5 22  1  0  0  0  0
  6 23  1  0  0  0  0
  6 24  1  0  0  0  0
  7 25  1  0  0  0  0
  7 26  1  0  0  0  0
  8 27  1  0  0  0  0
 12 28  1  0  0  0  0
M  END
> <id>
EN300-37148835

> <smiles>
OC1(CC2(C1)C3CCOCC3)C2

> <MDLNUMBER>
MFCD34594968

> <IUPAC Name>
3-(oxan-4-yl)bicyclo[1.1.1]pentan-1-ol

> <CAS>
2751614-34-1

> <Purity>
95

> <URL>
https://www.enaminestore.com/catalog/EN300-37148835

> <ROCS_ShapeQuery>
__x1247relevant_x1083L0AP1_x1305L0BP1_

> <ROCS_TanimotoCombo>
0.744 

> <ROCS_ShapeTanimoto>
0.462 

> <ROCS_ColorTanimoto>
0.282 

> <ROCS_RefTversky>
0.386 

> <ROCS_RefColorTversky>
0.305 

> <ROCS_RefTverskyCombo>
0.691 

> <ROCS_FitTversky>
1.737 

> <ROCS_FitColorTversky>
0.791 

> <ROCS_FitTverskyCombo>
2.527 

> <ROCS_ColorScore>
-9.991

> <ROCS_Overlap>
1134.171

> <ROCS_Rank>
101                 

$$$$
untitled-dbase-169832_6
  -OEChem-06232314393D

 28 30  0     0  0  0  0  0  0999 V2000
  -10.7207   15.2731  -35.7130 C   0  0  0  0  0  0  0  0  0  0  0  0
   -9.9147   13.6610  -37.4611 C   0  0  0  0  0  0  0  0  0  0  0  0
  -13.5291   15.4723  -37.4654 C   0  0  0  0  0  0  0  0  0  0  0  0
  -12.8453   14.1045  -38.9484 C   0  0  0  0  0  0  0  0  0  0  0  0
  -11.9147   16.0110  -38.7464 C   0  0  0  0  0  0  0  0  0  0  0  0
   -9.7194   16.2751  -36.2768 C   0  0  0  0  0  0  0  0  0  0  0  0
   -8.9585   14.7537  -37.9262 C   0  0  0  0  0  0  0  0  0  0  0  0
  -11.1515   14.2367  -36.7591 C   0  0  0  0  0  0  0  0  0  0  0  0
  -12.1448   14.8281  -37.7626 C   0  0  0  0  0  0  0  0  0  0  0  0
  -13.3728   15.5589  -39.0032 C   0  0  0  0  0  0  0  0  0  0  0  0
   -8.5935   15.6035  -36.8398 O   0  0  0  0  0  0  0  0  0  0  0  0
  -14.2876   16.1027  -39.9206 O   0  0  0  0  0  0  0  0  0  0  0  0
  -10.2968   14.7712  -34.8284 H   0  0  0  0  0  0  0  0  0  0  0  0
  -11.6116   15.8203  -35.3601 H   0  0  0  0  0  0  0  0  0  0  0  0
  -10.2390   13.0750  -38.3382 H   0  0  0  0  0  0  0  0  0  0  0  0
   -9.3900   12.9563  -36.7960 H   0  0  0  0  0  0  0  0  0  0  0  0
  -14.3149   14.8159  -37.0777 H   0  0  0  0  0  0  0  0  0  0  0  0
  -13.5344   16.4148  -36.9082 H   0  0  0  0  0  0  0  0  0  0  0  0
  -12.2126   13.7699  -39.7770 H   0  0  0  0  0  0  0  0  0  0  0  0
  -13.5655   13.3180  -38.7007 H   0  0  0  0  0  0  0  0  0  0  0  0
  -11.7662   17.0041  -38.3102 H   0  0  0  0  0  0  0  0  0  0  0  0
  -11.1932   15.8581  -39.5558 H   0  0  0  0  0  0  0  0  0  0  0  0
  -10.1891   16.8627  -37.0720 H   0  0  0  0  0  0  0  0  0  0  0  0
   -9.3785   16.9746  -35.5045 H   0  0  0  0  0  0  0  0  0  0  0  0
   -8.0542   14.3265  -38.3756 H   0  0  0  0  0  0  0  0  0  0  0  0
   -9.4440   15.3739  -38.6863 H   0  0  0  0  0  0  0  0  0  0  0  0
  -11.6573   13.4007  -36.2218 H   0  0  0  0  0  0  0  0  0  0  0  0
  -15.1207   15.6011  -39.8411 H   0  0  0  0  0  0  0  0  0  0  0  0
  1  6  1  0  0  0  0
  1  8  1  0  0  0  0
  2  7  1  0  0  0  0
  2  8  1  0  0  0  0
  3  9  1  0  0  0  0
  3 10  1  0  0  0  0
  4  9  1  0  0  0  0
  4 10  1  0  0  0  0
  5  9  1  0  0  0  0
  5 10  1  0  0  0  0
  6 11  1  0  0  0  0
  7 11  1  0  0  0  0
  8  9  1  6  0  0  0
 10 12  1  6  0  0  0
  1 13  1  0  0  0  0
  1 14  1  0  0  0  0
  2 15  1  0  0  0  0
  2 16  1  0  0  0  0
  3 17  1  0  0  0  0
  3 18  1  0  0  0  0
  4 19  1  0  0  0  0
  4 20  1  0  0  0  0
  5 21  1  0  0  0  0
  5 22  1  0  0  0  0
  6 23  1  0  0  0  0
  6 24  1  0  0  0  0
  7 25  1  0  0  0  0
  7 26  1  0  0  0  0
  8 27  1  0  0  0  0
 12 28  1  0  0  0  0
M  END
> <id>
EN300-37334809

> <smiles>
O[C@]1(C[C@]2(C1)C3CCOCC3)C2

> <IUPAC Name>
3-(oxan-4-yl)bicyclo[1.1.1]pentan-1-ol

> <CAS>
2751614-34-1

> <URL>
https://www.enaminestore.com/catalog/EN300-37334809

> <ROCS_ShapeQuery>
__x1247relevant_x1083L0AP1_x1305L0BP1_

> <ROCS_TanimotoCombo>
0.744 

> <ROCS_ShapeTanimoto>
0.462 

> <ROCS_ColorTanimoto>
0.282 

> <ROCS_RefTversky>
0.386 

> <ROCS_RefColorTversky>
0.305 

> <ROCS_RefTverskyCombo>
0.691 

> <ROCS_FitTversky>
1.736 

> <ROCS_FitColorTversky>
0.791 

> <ROCS_FitTverskyCombo>
2.527 

> <ROCS_ColorScore>
-9.990

> <ROCS_Overlap>
1133.959

> <ROCS_Rank>
102                 

$$$$
untitled-dbase-103085_4
  -OEChem-06232314393D

 24 26  0     1  0  0  0  0  0999 V2000
   -8.4680   13.8250  -37.8372 C   0  0  0  0  0  0  0  0  0  0  0  0
   -9.0034   14.9464  -37.3502 C   0  0  0  0  0  0  0  0  0  0  0  0
  -10.3367   14.8850  -36.7224 C   0  0  0  0  0  0  0  0  0  0  0  0
  -11.2023   16.0455  -39.7236 C   0  0  0  0  0  0  0  0  0  0  0  0
  -13.6375   14.4913  -36.9461 C   0  0  0  0  0  0  0  0  0  0  0  0
  -11.5108   14.7550  -38.9817 C   0  0  2  0  0  0  0  0  0  0  0  0
  -12.7091   15.6666  -37.2058 C   0  0  2  0  0  0  0  0  0  0  0  0
  -13.0347   14.7089  -39.1595 C   0  0  2  0  0  0  0  0  0  0  0  0
  -13.2089   16.1012  -38.5889 C   0  0  2  0  0  0  0  0  0  0  0  0
  -11.4126   15.0831  -37.5528 N   0  0  0  0  0  0  0  0  0  0  0  0
  -10.4174   14.6677  -35.5143 O   0  0  0  0  0  0  0  0  0  0  0  0
  -12.2672   16.9321  -39.2853 O   0  0  0  0  0  0  0  0  0  0  0  0
  -13.6743   13.8184  -38.2328 O   0  0  0  0  0  0  0  0  0  0  0  0
   -7.4916   13.8068  -38.3098 H   0  0  0  0  0  0  0  0  0  0  0  0
   -9.0108   12.8882  -37.7683 H   0  0  0  0  0  0  0  0  0  0  0  0
   -8.4930   15.8993  -37.3998 H   0  0  0  0  0  0  0  0  0  0  0  0
  -10.2338   16.4865  -39.4708 H   0  0  0  0  0  0  0  0  0  0  0  0
  -11.2798   15.9302  -40.8095 H   0  0  0  0  0  0  0  0  0  0  0  0
  -13.2761   13.7976  -36.1813 H   0  0  0  0  0  0  0  0  0  0  0  0
  -14.6549   14.8112  -36.6988 H   0  0  0  0  0  0  0  0  0  0  0  0
  -10.9507   13.8634  -39.2626 H   0  0  0  0  0  0  0  0  0  0  0  0
  -12.6356   16.4244  -36.4247 H   0  0  0  0  0  0  0  0  0  0  0  0
  -13.3669   14.5619  -40.1908 H   0  0  0  0  0  0  0  0  0  0  0  0
  -14.2244   16.5062  -38.5995 H   0  0  0  0  0  0  0  0  0  0  0  0
  1  2  2  0  0  0  0
  2  3  1  0  0  0  0
  3 10  1  0  0  0  0
  3 11  2  0  0  0  0
  4  6  1  1  0  0  0
  4 12  1  0  0  0  0
  5  7  1  6  0  0  0
  5 13  1  0  0  0  0
  6  8  1  0  0  0  0
  6 10  1  0  0  0  0
  7  9  1  0  0  0  0
  7 10  1  0  0  0  0
  8  9  1  0  0  0  0
  8 13  1  1  0  0  0
  9 12  1  6  0  0  0
  1 14  1  0  0  0  0
  1 15  1  0  0  0  0
  2 16  1  0  0  0  0
  4 17  1  0  0  0  0
  4 18  1  0  0  0  0
  5 19  1  0  0  0  0
  5 20  1  0  0  0  0
  6 21  1  0  0  0  0
  7 22  1  0  0  0  0
  8 23  1  0  0  0  0
  9 24  1  0  0  0  0
M  END
> <id>
EN300-7521965

> <smiles>
C=CC(=O)N1[C@@H]2CO[C@@H]3[C@H]1CO[C@H]23

> <IUPAC Name>
1-[(1R,3R,6R,7R)-5,8-dioxa-2-azatricyclo[4.3.0.0,3,7]nonan-2-yl]prop-2-en-1-one

> <CAS>
2093996-59-7

> <URL>
https://www.enaminestore.com/catalog/EN300-7521965

> <ROCS_ShapeQuery>
__x1247relevant_x1083L0AP1_x1305L0BP1_

> <ROCS_TanimotoCombo>
0.744 

> <ROCS_ShapeTanimoto>
0.507 

> <ROCS_ColorTanimoto>
0.237 

> <ROCS_RefTversky>
0.421 

> <ROCS_RefColorTversky>
0.294 

> <ROCS_RefTverskyCombo>
0.715 

> <ROCS_FitTversky>
1.677 

> <ROCS_FitColorTversky>
0.550 

> <ROCS_FitTverskyCombo>
2.227 

> <ROCS_ColorScore>
-9.689

> <ROCS_Overlap>
1238.258

> <ROCS_Rank>
103                 

$$$$
untitled-dbase-122425_17
  -OEChem-06232314393D

 34 36  0     1  0  0  0  0  0999 V2000
  -12.0280   14.9166  -39.8088 C   0  0  0  0  0  0  0  0  0  0  0  0
  -12.3782   16.8260  -38.2872 C   0  0  0  0  0  0  0  0  0  0  0  0
   -8.7699   15.1261  -36.6777 C   0  0  0  0  0  0  0  0  0  0  0  0
  -13.4685   14.4936  -39.4793 C   0  0  0  0  0  0  0  0  0  0  0  0
  -13.7485   16.2688  -37.8749 C   0  0  0  0  0  0  0  0  0  0  0  0
   -9.0926   13.9019  -37.5315 C   0  0  0  0  0  0  0  0  0  0  0  0
  -12.8520   14.1358  -37.1836 C   0  0  0  0  0  0  0  0  0  0  0  0
  -11.4284   15.6484  -38.5940 C   0  0  0  0  0  0  0  0  0  0  0  0
   -9.8285   15.3861  -35.6103 C   0  0  2  0  0  0  0  0  0  0  0  0
  -11.4044   14.6933  -37.3566 C   0  0  2  0  0  0  0  0  0  0  0  0
   -9.8252   14.3502  -34.4887 C   0  0  0  0  0  0  0  0  0  0  0  0
  -10.5047   13.5463  -37.5085 N   0  0  0  0  0  0  0  0  0  0  0  0
  -13.8266   14.8075  -38.0782 N   0  0  0  0  0  0  0  0  0  0  0  0
  -11.1405   15.4774  -36.1707 O   0  0  0  0  0  0  0  0  0  0  0  0
   -8.8112   14.6446  -33.6573 F   0  0  0  0  0  0  0  0  0  0  0  0
   -9.5851   13.1472  -35.0376 F   0  0  0  0  0  0  0  0  0  0  0  0
  -11.4264   14.0498  -40.0985 H   0  0  0  0  0  0  0  0  0  0  0  0
  -12.0380   15.5890  -40.6755 H   0  0  0  0  0  0  0  0  0  0  0  0
  -12.4838   17.4586  -39.1766 H   0  0  0  0  0  0  0  0  0  0  0  0
  -11.9747   17.4610  -37.4915 H   0  0  0  0  0  0  0  0  0  0  0  0
   -7.7870   14.9636  -36.1951 H   0  0  0  0  0  0  0  0  0  0  0  0
   -8.6504   16.0133  -37.3259 H   0  0  0  0  0  0  0  0  0  0  0  0
  -14.1727   14.9876  -40.1612 H   0  0  0  0  0  0  0  0  0  0  0  0
  -13.5907   13.4183  -39.6613 H   0  0  0  0  0  0  0  0  0  0  0  0
  -13.9526   16.5075  -36.8231 H   0  0  0  0  0  0  0  0  0  0  0  0
  -14.5402   16.7668  -38.4482 H   0  0  0  0  0  0  0  0  0  0  0  0
   -8.7479   14.0616  -38.5711 H   0  0  0  0  0  0  0  0  0  0  0  0
   -8.5045   13.0426  -37.1596 H   0  0  0  0  0  0  0  0  0  0  0  0
  -12.8995   13.0569  -37.3869 H   0  0  0  0  0  0  0  0  0  0  0  0
  -13.1888   14.2451  -36.1439 H   0  0  0  0  0  0  0  0  0  0  0  0
  -10.4378   16.0456  -38.8398 H   0  0  0  0  0  0  0  0  0  0  0  0
   -9.6046   16.3835  -35.1191 H   0  0  0  0  0  0  0  0  0  0  0  0
  -10.7679   14.3545  -33.9648 H   0  0  0  0  0  0  0  0  0  0  0  0
  -10.7386   12.9981  -38.3459 H   0  0  0  0  0  0  0  0  0  0  0  0
  1  4  1  0  0  0  0
  1  8  1  0  0  0  0
  2  5  1  0  0  0  0
  2  8  1  0  0  0  0
  3  6  1  0  0  0  0
  3  9  1  0  0  0  0
  4 13  1  0  0  0  0
  5 13  1  0  0  0  0
  6 12  1  0  0  0  0
  7 10  1  0  0  0  0
  7 13  1  0  0  0  0
  8 10  1  0  0  0  0
  9 11  1  0  0  0  0
  9 14  1  0  0  0  0
 10 12  1  0  0  0  0
 10 14  1  0  0  0  0
 11 15  1  0  0  0  0
 11 16  1  0  0  0  0
  1 17  1  0  0  0  0
  1 18  1  0  0  0  0
  2 19  1  0  0  0  0
  2 20  1  0  0  0  0
  3 21  1  0  0  0  0
  3 22  1  0  0  0  0
  4 23  1  0  0  0  0
  4 24  1  0  0  0  0
  5 25  1  0  0  0  0
  5 26  1  0  0  0  0
  6 27  1  0  0  0  0
  6 28  1  0  0  0  0
  7 29  1  0  0  0  0
  7 30  1  0  0  0  0
  8 31  1  0  0  0  0
  9 32  1  0  0  0  0
 11 33  1  0  0  0  0
 12 34  1  0  0  0  0
M  END
> <id>
EN300-1280424

> <smiles>
FC(F)C1CCNC2(CN3CCC2CC3)O1

> <IUPAC Name>
6'-(difluoromethyl)-4-azaspiro[bicyclo[2.2.2]octane-2,2'-[1,3]oxazinane]

> <CAS>
2166690-02-2

> <URL>
https://www.enaminestore.com/catalog/EN300-1280424

> <ROCS_ShapeQuery>
__x1247relevant_x1083L0AP1_x1305L0BP1_

> <ROCS_TanimotoCombo>
0.744 

> <ROCS_ShapeTanimoto>
0.501 

> <ROCS_ColorTanimoto>
0.243 

> <ROCS_RefTversky>
0.429 

> <ROCS_RefColorTversky>
0.268 

> <ROCS_RefTverskyCombo>
0.697 

> <ROCS_FitTversky>
1.503 

> <ROCS_FitColorTversky>
0.718 

> <ROCS_FitTverskyCombo>
2.221 

> <ROCS_ColorScore>
-8.768

> <ROCS_Overlap>
1265.180

> <ROCS_Rank>
104                 

$$$$
untitled-dbase-20279_4
  -OEChem-06232314393D

 24 26  0     1  0  0  0  0  0999 V2000
  -12.0125   16.3600  -39.7773 C   0  0  0  0  0  0  0  0  0  0  0  0
  -10.1958   15.3738  -36.8734 C   0  0  0  0  0  0  0  0  0  0  0  0
  -14.0721   15.2675  -38.8161 C   0  0  0  0  0  0  0  0  0  0  0  0
  -12.8721   13.6036  -37.6189 C   0  0  0  0  0  0  0  0  0  0  0  0
  -12.7149   15.8121  -36.7617 C   0  0  0  0  0  0  0  0  0  0  0  0
  -12.7371   15.0492  -39.5558 C   0  0  2  0  0  0  0  0  0  0  0  0
  -13.7399   14.8341  -37.3724 C   0  0  1  0  0  0  0  0  0  0  0  0
  -11.8682   14.3554  -38.4810 C   0  0  1  0  0  0  0  0  0  0  0  0
  -11.4661   15.5765  -37.6357 C   0  0  2  0  0  0  0  0  0  0  0  0
  -11.2789   16.6089  -38.6197 N   0  0  0  0  0  0  0  0  0  0  0  0
  -12.1082   17.0704  -40.7652 O   0  0  0  0  0  0  0  0  0  0  0  0
   -9.0818   15.6800  -37.2718 O   0  0  0  0  0  0  0  0  0  0  0  0
  -10.4451   14.7979  -35.6720 O   0  0  0  0  0  0  0  0  0  0  0  0
  -14.4366   16.2987  -38.8670 H   0  0  0  0  0  0  0  0  0  0  0  0
  -14.8408   14.6084  -39.2361 H   0  0  0  0  0  0  0  0  0  0  0  0
  -12.4314   13.1963  -36.7032 H   0  0  0  0  0  0  0  0  0  0  0  0
  -13.3933   12.8101  -38.1637 H   0  0  0  0  0  0  0  0  0  0  0  0
  -13.0679   16.8490  -36.7917 H   0  0  0  0  0  0  0  0  0  0  0  0
  -12.5266   15.5563  -35.7121 H   0  0  0  0  0  0  0  0  0  0  0  0
  -12.8377   14.4737  -40.4788 H   0  0  0  0  0  0  0  0  0  0  0  0
  -14.6194   14.6698  -36.7470 H   0  0  0  0  0  0  0  0  0  0  0  0
  -11.0390   13.7631  -38.8763 H   0  0  0  0  0  0  0  0  0  0  0  0
  -10.6839   17.4209  -38.4866 H   0  0  0  0  0  0  0  0  0  0  0  0
   -9.6228   14.6547  -35.1566 H   0  0  0  0  0  0  0  0  0  0  0  0
  1  6  1  0  0  0  0
  1 10  1  0  0  0  0
  1 11  2  0  0  0  0
  2  9  1  0  0  0  0
  2 12  2  0  0  0  0
  2 13  1  0  0  0  0
  3  6  1  0  0  0  0
  3  7  1  0  0  0  0
  4  7  1  0  0  0  0
  4  8  1  0  0  0  0
  5  7  1  0  0  0  0
  5  9  1  0  0  0  0
  6  8  1  0  0  0  0
  8  9  1  0  0  0  0
  9 10  1  0  0  0  0
  3 14  1  0  0  0  0
  3 15  1  0  0  0  0
  4 16  1  0  0  0  0
  4 17  1  0  0  0  0
  5 18  1  0  0  0  0
  5 19  1  0  0  0  0
  6 20  1  0  0  0  0
  7 21  1  0  0  0  0
  8 22  1  0  0  0  0
 10 23  1  0  0  0  0
 13 24  1  0  0  0  0
M  END
> <id>
EN300-264713

> <smiles>
OC(=O)C1(CC2CC3C1C2)NC3=O

> <MDLNUMBER>
MFCD24515724

> <IUPAC Name>
5-oxo-4-azatricyclo[4.2.1.0,3,7]nonane-3-carboxylic acid

> <CAS>
286456-64-2

> <Purity>
95

> <URL>
https://www.enaminestore.com/catalog/EN300-264713

> <MP>
302-305

> <ROCS_ShapeQuery>
__x1247relevant_x1083L0AP1_x1305L0BP1_

> <ROCS_TanimotoCombo>
0.744 

> <ROCS_ShapeTanimoto>
0.496 

> <ROCS_ColorTanimoto>
0.248 

> <ROCS_RefTversky>
0.414 

> <ROCS_RefColorTversky>
0.309 

> <ROCS_RefTverskyCombo>
0.724 

> <ROCS_FitTversky>
1.658 

> <ROCS_FitColorTversky>
0.554 

> <ROCS_FitTverskyCombo>
2.211 

> <ROCS_ColorScore>
-10.225

> <ROCS_Overlap>
1219.200

> <ROCS_Rank>
105                 

$$$$
untitled-dbase-16243_6
  -OEChem-06232314393D

 31 33  0     0  0  0  0  0  0999 V2000
   -9.9964   15.2152  -36.5733 C   0  0  0  0  0  0  0  0  0  0  0  0
  -13.9264   15.9639  -38.9774 C   0  0  0  0  0  0  0  0  0  0  0  0
  -12.9133   15.9799  -36.6887 C   0  0  0  0  0  0  0  0  0  0  0  0
  -11.5576   16.7254  -38.6730 C   0  0  0  0  0  0  0  0  0  0  0  0
  -13.3779   13.8063  -37.8263 C   0  0  0  0  0  0  0  0  0  0  0  0
  -12.0302   14.5633  -39.8165 C   0  0  0  0  0  0  0  0  0  0  0  0
  -12.9617   16.7105  -38.0418 C   0  0  0  0  0  0  0  0  0  0  0  0
  -13.4350   14.5224  -39.1885 C   0  0  0  0  0  0  0  0  0  0  0  0
  -12.3964   14.5345  -36.8778 C   0  0  0  0  0  0  0  0  0  0  0  0
  -11.0401   15.2791  -38.8666 C   0  0  0  0  0  0  0  0  0  0  0  0
  -10.9796   14.5430  -37.5027 C   0  0  0  0  0  0  0  0  0  0  0  0
  -10.4283   13.1899  -37.6316 N   0  0  0  0  0  0  0  0  0  0  0  0
   -9.0017   15.8294  -36.9290 O   0  0  0  0  0  0  0  0  0  0  0  0
  -10.3654   15.0431  -35.2804 O   0  0  0  0  0  0  0  0  0  0  0  0
  -14.9366   15.9581  -38.5499 H   0  0  0  0  0  0  0  0  0  0  0  0
  -13.9927   16.4834  -39.9411 H   0  0  0  0  0  0  0  0  0  0  0  0
  -12.2719   16.5297  -35.9902 H   0  0  0  0  0  0  0  0  0  0  0  0
  -13.9141   15.9605  -36.2391 H   0  0  0  0  0  0  0  0  0  0  0  0
  -11.5898   17.2409  -39.6413 H   0  0  0  0  0  0  0  0  0  0  0  0
  -10.8699   17.2986  -38.0405 H   0  0  0  0  0  0  0  0  0  0  0  0
  -14.3794   13.7942  -37.3768 H   0  0  0  0  0  0  0  0  0  0  0  0
  -13.0972   12.7562  -37.9605 H   0  0  0  0  0  0  0  0  0  0  0  0
  -11.6884   13.5469  -40.0419 H   0  0  0  0  0  0  0  0  0  0  0  0
  -12.0685   15.0917  -40.7778 H   0  0  0  0  0  0  0  0  0  0  0  0
  -13.3126   17.7384  -37.8951 H   0  0  0  0  0  0  0  0  0  0  0  0
  -14.1241   13.9934  -39.8564 H   0  0  0  0  0  0  0  0  0  0  0  0
  -12.3885   14.0311  -35.9029 H   0  0  0  0  0  0  0  0  0  0  0  0
  -10.0477   15.3187  -39.3333 H   0  0  0  0  0  0  0  0  0  0  0  0
  -11.1108   12.5509  -37.3044 H   0  0  0  0  0  0  0  0  0  0  0  0
  -10.2257   13.0344  -38.5886 H   0  0  0  0  0  0  0  0  0  0  0  0
   -9.7376   15.4714  -34.6601 H   0  0  0  0  0  0  0  0  0  0  0  0
  1 11  1  0  0  0  0
  1 13  2  0  0  0  0
  1 14  1  0  0  0  0
  2  7  1  0  0  0  0
  2  8  1  0  0  0  0
  3  7  1  0  0  0  0
  3  9  1  0  0  0  0
  4  7  1  0  0  0  0
  4 10  1  0  0  0  0
  5  8  1  0  0  0  0
  5  9  1  0  0  0  0
  6  8  1  0  0  0  0
  6 10  1  0  0  0  0
  9 11  1  0  0  0  0
 10 11  1  0  0  0  0
 11 12  1  0  0  0  0
  2 15  1  0  0  0  0
  2 16  1  0  0  0  0
  3 17  1  0  0  0  0
  3 18  1  0  0  0  0
  4 19  1  0  0  0  0
  4 20  1  0  0  0  0
  5 21  1  0  0  0  0
  5 22  1  0  0  0  0
  6 23  1  0  0  0  0
  6 24  1  0  0  0  0
  7 25  1  0  0  0  0
  8 26  1  0  0  0  0
  9 27  1  0  0  0  0
 10 28  1  0  0  0  0
 12 29  1  0  0  0  0
 12 30  1  0  0  0  0
 14 31  1  0  0  0  0
M  END
> <id>
EN300-42043

> <smiles>
Cl.NC1(C2CC3CC(C2)CC1C3)C(=O)O

> <IUPAC Name>
2-aminoadamantane-2-carboxylic acid hydrochloride

> <CAS>
50294-51-4

> <Purity>
95

> <URL>
https://www.enaminestore.com/catalog/EN300-42043

> <Saltdate>
Cl

> <ROCS_ShapeQuery>
__x1247relevant_x1083L0AP1_x1305L0BP1_

> <ROCS_TanimotoCombo>
0.743 

> <ROCS_ShapeTanimoto>
0.500 

> <ROCS_ColorTanimoto>
0.244 

> <ROCS_RefTversky>
0.419 

> <ROCS_RefColorTversky>
0.271 

> <ROCS_RefTverskyCombo>
0.690 

> <ROCS_FitTversky>
1.624 

> <ROCS_FitColorTversky>
0.705 

> <ROCS_FitTverskyCombo>
2.329 

> <ROCS_ColorScore>
-8.875

> <ROCS_Overlap>
1233.692

> <ROCS_Rank>
106                 

$$$$
untitled-dbase-97939_6
  -OEChem-06232314393D

 31 33  0     0  0  0  0  0  0999 V2000
   -9.9964   15.2152  -36.5733 C   0  0  0  0  0  0  0  0  0  0  0  0
  -13.9264   15.9639  -38.9774 C   0  0  0  0  0  0  0  0  0  0  0  0
  -12.9133   15.9799  -36.6887 C   0  0  0  0  0  0  0  0  0  0  0  0
  -11.5576   16.7254  -38.6730 C   0  0  0  0  0  0  0  0  0  0  0  0
  -13.3779   13.8063  -37.8263 C   0  0  0  0  0  0  0  0  0  0  0  0
  -12.0302   14.5633  -39.8165 C   0  0  0  0  0  0  0  0  0  0  0  0
  -12.9617   16.7105  -38.0418 C   0  0  0  0  0  0  0  0  0  0  0  0
  -13.4350   14.5224  -39.1885 C   0  0  0  0  0  0  0  0  0  0  0  0
  -12.3964   14.5345  -36.8778 C   0  0  0  0  0  0  0  0  0  0  0  0
  -11.0401   15.2791  -38.8666 C   0  0  0  0  0  0  0  0  0  0  0  0
  -10.9796   14.5430  -37.5027 C   0  0  0  0  0  0  0  0  0  0  0  0
  -10.4283   13.1899  -37.6316 N   0  0  0  0  0  0  0  0  0  0  0  0
   -9.0017   15.8294  -36.9290 O   0  0  0  0  0  0  0  0  0  0  0  0
  -10.3654   15.0431  -35.2804 O   0  0  0  0  0  0  0  0  0  0  0  0
  -14.9366   15.9581  -38.5499 H   0  0  0  0  0  0  0  0  0  0  0  0
  -13.9927   16.4834  -39.9411 H   0  0  0  0  0  0  0  0  0  0  0  0
  -12.2719   16.5297  -35.9902 H   0  0  0  0  0  0  0  0  0  0  0  0
  -13.9141   15.9605  -36.2391 H   0  0  0  0  0  0  0  0  0  0  0  0
  -11.5898   17.2409  -39.6413 H   0  0  0  0  0  0  0  0  0  0  0  0
  -10.8699   17.2986  -38.0405 H   0  0  0  0  0  0  0  0  0  0  0  0
  -14.3794   13.7942  -37.3768 H   0  0  0  0  0  0  0  0  0  0  0  0
  -13.0972   12.7562  -37.9605 H   0  0  0  0  0  0  0  0  0  0  0  0
  -11.6884   13.5469  -40.0419 H   0  0  0  0  0  0  0  0  0  0  0  0
  -12.0685   15.0917  -40.7778 H   0  0  0  0  0  0  0  0  0  0  0  0
  -13.3126   17.7384  -37.8951 H   0  0  0  0  0  0  0  0  0  0  0  0
  -14.1241   13.9934  -39.8564 H   0  0  0  0  0  0  0  0  0  0  0  0
  -12.3885   14.0311  -35.9029 H   0  0  0  0  0  0  0  0  0  0  0  0
  -10.0477   15.3187  -39.3333 H   0  0  0  0  0  0  0  0  0  0  0  0
  -11.1108   12.5509  -37.3044 H   0  0  0  0  0  0  0  0  0  0  0  0
  -10.2257   13.0344  -38.5886 H   0  0  0  0  0  0  0  0  0  0  0  0
   -9.7376   15.4714  -34.6601 H   0  0  0  0  0  0  0  0  0  0  0  0
  1 11  1  0  0  0  0
  1 13  2  0  0  0  0
  1 14  1  0  0  0  0
  2  7  1  0  0  0  0
  2  8  1  0  0  0  0
  3  7  1  0  0  0  0
  3  9  1  0  0  0  0
  4  7  1  0  0  0  0
  4 10  1  0  0  0  0
  5  8  1  0  0  0  0
  5  9  1  0  0  0  0
  6  8  1  0  0  0  0
  6 10  1  0  0  0  0
  9 11  1  0  0  0  0
 10 11  1  0  0  0  0
 11 12  1  0  0  0  0
  2 15  1  0  0  0  0
  2 16  1  0  0  0  0
  3 17  1  0  0  0  0
  3 18  1  0  0  0  0
  4 19  1  0  0  0  0
  4 20  1  0  0  0  0
  5 21  1  0  0  0  0
  5 22  1  0  0  0  0
  6 23  1  0  0  0  0
  6 24  1  0  0  0  0
  7 25  1  0  0  0  0
  8 26  1  0  0  0  0
  9 27  1  0  0  0  0
 10 28  1  0  0  0  0
 12 29  1  0  0  0  0
 12 30  1  0  0  0  0
 14 31  1  0  0  0  0
M  END
> <id>
EN300-43496

> <smiles>
NC1(C2CC3CC(C2)CC1C3)C(=O)O

> <IUPAC Name>
2-aminoadamantane-2-carboxylic acid

> <CAS>
42381-05-5

> <Purity>
95

> <URL>
https://www.enaminestore.com/catalog/EN300-43496

> <MP>
312-314

> <ROCS_ShapeQuery>
__x1247relevant_x1083L0AP1_x1305L0BP1_

> <ROCS_TanimotoCombo>
0.743 

> <ROCS_ShapeTanimoto>
0.500 

> <ROCS_ColorTanimoto>
0.244 

> <ROCS_RefTversky>
0.419 

> <ROCS_RefColorTversky>
0.271 

> <ROCS_RefTverskyCombo>
0.690 

> <ROCS_FitTversky>
1.624 

> <ROCS_FitColorTversky>
0.705 

> <ROCS_FitTverskyCombo>
2.329 

> <ROCS_ColorScore>
-8.875

> <ROCS_Overlap>
1233.692

> <ROCS_Rank>
107                 

$$$$
untitled-dbase-132018_8
  -OEChem-06232314393D

 22 24  0     1  0  0  0  0  0999 V2000
  -11.3534   15.8252  -38.9922 C   0  0  0  0  0  0  0  0  0  0  0  0
  -10.1584   15.2140  -36.7698 C   0  0  0  0  0  0  0  0  0  0  0  0
  -13.3609   14.6635  -39.7153 C   0  0  0  0  0  0  0  0  0  0  0  0
  -13.2224   13.6526  -38.5507 C   0  0  0  0  0  0  0  0  0  0  0  0
  -13.3969   16.5142  -38.0013 C   0  0  0  0  0  0  0  0  0  0  0  0
  -12.8096   16.0524  -39.3549 C   0  0  1  0  0  0  0  0  0  0  0  0
  -12.4502   14.2028  -37.3768 C   0  0  2  0  0  0  0  0  0  0  0  0
  -12.6822   15.6380  -37.0089 C   0  0  1  0  0  0  0  0  0  0  0  0
  -11.3559   15.2358  -37.6177 C   0  0  2  0  0  0  0  0  0  0  0  0
  -10.3654   15.9948  -39.6827 O   0  0  0  0  0  0  0  0  0  0  0  0
   -9.0660   15.6609  -37.0865 O   0  0  0  0  0  0  0  0  0  0  0  0
  -10.4258   14.6247  -35.5788 O   0  0  0  0  0  0  0  0  0  0  0  0
  -12.8301   14.2703  -40.5917 H   0  0  0  0  0  0  0  0  0  0  0  0
  -14.4167   14.7417  -40.0011 H   0  0  0  0  0  0  0  0  0  0  0  0
  -14.2211   13.3569  -38.2079 H   0  0  0  0  0  0  0  0  0  0  0  0
  -12.7319   12.7421  -38.9137 H   0  0  0  0  0  0  0  0  0  0  0  0
  -13.1499   17.5647  -37.8109 H   0  0  0  0  0  0  0  0  0  0  0  0
  -14.4829   16.3894  -37.9526 H   0  0  0  0  0  0  0  0  0  0  0  0
  -12.9333   16.7903  -40.1498 H   0  0  0  0  0  0  0  0  0  0  0  0
  -12.3277   13.4839  -36.5773 H   0  0  0  0  0  0  0  0  0  0  0  0
  -12.7535   15.9341  -35.9753 H   0  0  0  0  0  0  0  0  0  0  0  0
   -9.6361   14.5986  -34.9974 H   0  0  0  0  0  0  0  0  0  0  0  0
  1  6  1  0  0  0  0
  1  9  1  0  0  0  0
  1 10  2  0  0  0  0
  2  9  1  0  0  0  0
  2 11  2  0  0  0  0
  2 12  1  0  0  0  0
  3  4  1  0  0  0  0
  3  6  1  0  0  0  0
  4  7  1  0  0  0  0
  5  6  1  0  0  0  0
  5  8  1  0  0  0  0
  7  8  1  0  0  0  0
  7  9  1  0  0  0  0
  8  9  1  0  0  0  0
  3 13  1  0  0  0  0
  3 14  1  0  0  0  0
  4 15  1  0  0  0  0
  4 16  1  0  0  0  0
  5 17  1  0  0  0  0
  5 18  1  0  0  0  0
  6 19  1  0  0  0  0
  7 20  1  0  0  0  0
  8 21  1  0  0  0  0
 12 22  1  0  0  0  0
M  END
> <id>
EN300-7472240

> <smiles>
OC(=O)C1(C2CC3CCC21)C3=O

> <MDLNUMBER>
MFCD32662852

> <IUPAC Name>
8-oxotricyclo[3.2.1.0,2,7]octane-1-carboxylic acid

> <CAS>
2649080-29-3

> <Purity>
95

> <URL>
https://www.enaminestore.com/catalog/EN300-7472240

> <ROCS_ShapeQuery>
__x1247relevant_x1083L0AP1_x1305L0BP1_

> <ROCS_TanimotoCombo>
0.743 

> <ROCS_ShapeTanimoto>
0.478 

> <ROCS_ColorTanimoto>
0.265 

> <ROCS_RefTversky>
0.398 

> <ROCS_RefColorTversky>
0.396 

> <ROCS_RefTverskyCombo>
0.794 

> <ROCS_FitTversky>
1.729 

> <ROCS_FitColorTversky>
0.444 

> <ROCS_FitTverskyCombo>
2.173 

> <ROCS_ColorScore>
-13.312

> <ROCS_Overlap>
1169.885

> <ROCS_Rank>
108                 

$$$$
untitled-dbase-20908_3
  -OEChem-06232314393D

 24 25  0     1  0  0  0  0  0999 V2000
  -10.1269   15.1834  -36.7985 C   0  0  0  0  0  0  0  0  0  0  0  0
  -12.9797   16.2736  -37.0124 C   0  0  0  0  0  0  0  0  0  0  0  0
  -13.6921   14.9257  -37.1904 C   0  0  0  0  0  0  0  0  0  0  0  0
  -12.5931   16.4111  -39.4732 C   0  0  0  0  0  0  0  0  0  0  0  0
  -10.9372   15.2191  -38.0546 C   0  0  2  0  0  0  0  0  0  0  0  0
  -11.8948   16.4289  -38.0980 C   0  0  2  0  0  0  0  0  0  0  0  0
  -13.1059   14.1820  -38.4014 C   0  0  1  0  0  0  0  0  0  0  0  0
  -13.2626   15.0490  -39.6564 C   0  0  0  0  0  0  0  0  0  0  0  0
  -11.6741   13.9473  -38.1393 N   0  0  0  0  0  0  0  0  0  0  0  0
  -10.4569   14.6187  -35.7663 O   0  0  0  0  0  0  0  0  0  0  0  0
   -8.9683   15.8688  -36.9567 O   0  0  0  0  0  0  0  0  0  0  0  0
  -12.7276   14.4114  -40.7276 F   0  0  0  0  0  0  0  0  0  0  0  0
  -14.5792   15.2222  -39.9344 F   0  0  0  0  0  0  0  0  0  0  0  0
  -13.7071   17.0913  -37.0837 H   0  0  0  0  0  0  0  0  0  0  0  0
  -12.5419   16.3372  -36.0098 H   0  0  0  0  0  0  0  0  0  0  0  0
  -13.5823   14.3236  -36.2799 H   0  0  0  0  0  0  0  0  0  0  0  0
  -14.7675   15.0900  -37.3290 H   0  0  0  0  0  0  0  0  0  0  0  0
  -13.3346   17.2161  -39.5309 H   0  0  0  0  0  0  0  0  0  0  0  0
  -11.8584   16.5822  -40.2682 H   0  0  0  0  0  0  0  0  0  0  0  0
  -10.2282   15.2858  -38.8893 H   0  0  0  0  0  0  0  0  0  0  0  0
  -11.3530   17.3703  -37.9534 H   0  0  0  0  0  0  0  0  0  0  0  0
  -13.6161   13.2221  -38.5326 H   0  0  0  0  0  0  0  0  0  0  0  0
  -11.2792   13.3831  -38.8917 H   0  0  0  0  0  0  0  0  0  0  0  0
   -8.8877   16.2495  -37.8572 H   0  0  0  0  0  0  0  0  0  0  0  0
  1  5  1  0  0  0  0
  1 10  2  0  0  0  0
  1 11  1  0  0  0  0
  2  3  1  0  0  0  0
  2  6  1  0  0  0  0
  3  7  1  0  0  0  0
  4  6  1  0  0  0  0
  4  8  1  0  0  0  0
  5  6  1  0  0  0  0
  5  9  1  0  0  0  0
  7  8  1  0  0  0  0
  7  9  1  0  0  0  0
  8 12  1  0  0  0  0
  8 13  1  0  0  0  0
  2 14  1  0  0  0  0
  2 15  1  0  0  0  0
  3 16  1  0  0  0  0
  3 17  1  0  0  0  0
  4 18  1  0  0  0  0
  4 19  1  0  0  0  0
  5 20  1  0  0  0  0
  6 21  1  0  0  0  0
  7 22  1  0  0  0  0
  9 23  1  0  0  0  0
 11 24  1  0  0  0  0
M  END
> <id>
EN300-295932

> <smiles>
Cl.OC(=O)C1NC2CCC1CC2(F)F

> <MDLNUMBER>
MFCD24528908

> <IUPAC Name>
6,6-difluoro-2-azabicyclo[2.2.2]octane-3-carboxylic acid hydrochloride

> <CAS>
1822526-41-9

> <URL>
https://www.enaminestore.com/catalog/EN300-295932

> <Saltdate>
Cl

> <ROCS_ShapeQuery>
__x1247relevant_x1083L0AP1_x1305L0BP1_

> <ROCS_TanimotoCombo>
0.742 

> <ROCS_ShapeTanimoto>
0.487 

> <ROCS_ColorTanimoto>
0.256 

> <ROCS_RefTversky>
0.407 

> <ROCS_RefColorTversky>
0.279 

> <ROCS_RefTverskyCombo>
0.686 

> <ROCS_FitTversky>
1.678 

> <ROCS_FitColorTversky>
0.750 

> <ROCS_FitTverskyCombo>
2.429 

> <ROCS_ColorScore>
-9.137

> <ROCS_Overlap>
1196.113

> <ROCS_Rank>
109                 

$$$$
untitled-dbase-75243_5
  -OEChem-06232314393D

 20 22  0     1  0  0  0  0  0999 V2000
  -10.2699   15.2483  -36.8310 C   0  0  0  0  0  0  0  0  0  0  0  0
  -12.8136   14.3403  -39.4519 C   0  0  0  0  0  0  0  0  0  0  0  0
  -13.8508   15.8184  -37.8402 C   0  0  0  0  0  0  0  0  0  0  0  0
  -13.0837   15.8552  -39.1977 C   0  0  0  0  0  0  0  0  0  0  0  0
  -12.1807   14.0747  -38.1029 C   0  0  2  0  0  0  0  0  0  0  0  0
  -12.8194   14.9851  -37.1104 C   0  0  1  0  0  0  0  0  0  0  0  0
  -11.4671   15.3159  -37.6628 C   0  0  0  0  0  0  0  0  0  0  0  0
  -11.6832   16.3410  -38.7419 C   0  0  0  0  0  0  0  0  0  0  0  0
   -9.1721   15.6843  -37.1444 O   0  0  0  0  0  0  0  0  0  0  0  0
  -10.5383   14.6300  -35.6550 O   0  0  0  0  0  0  0  0  0  0  0  0
  -11.7041   17.5993  -38.2621 F   0  0  0  0  0  0  0  0  0  0  0  0
  -10.7638   16.2602  -39.7227 F   0  0  0  0  0  0  0  0  0  0  0  0
  -13.7340   13.7668  -39.5956 H   0  0  0  0  0  0  0  0  0  0  0  0
  -12.1167   14.1658  -40.2767 H   0  0  0  0  0  0  0  0  0  0  0  0
  -13.9722   16.8095  -37.3940 H   0  0  0  0  0  0  0  0  0  0  0  0
  -14.8154   15.3078  -37.9154 H   0  0  0  0  0  0  0  0  0  0  0  0
  -13.5551   16.4090  -40.0090 H   0  0  0  0  0  0  0  0  0  0  0  0
  -11.8545   13.0837  -37.8545 H   0  0  0  0  0  0  0  0  0  0  0  0
  -12.9901   14.7021  -36.0900 H   0  0  0  0  0  0  0  0  0  0  0  0
   -9.7444   14.5729  -35.0816 H   0  0  0  0  0  0  0  0  0  0  0  0
  1  7  1  0  0  0  0
  1  9  2  0  0  0  0
  1 10  1  0  0  0  0
  2  4  1  0  0  0  0
  2  5  1  0  0  0  0
  3  4  1  0  0  0  0
  3  6  1  0  0  0  0
  4  8  1  0  0  0  0
  5  6  1  0  0  0  0
  5  7  1  0  0  0  0
  6  7  1  0  0  0  0
  7  8  1  0  0  0  0
  8 11  1  0  0  0  0
  8 12  1  0  0  0  0
  2 13  1  0  0  0  0
  2 14  1  0  0  0  0
  3 15  1  0  0  0  0
  3 16  1  0  0  0  0
  4 17  1  0  0  0  0
  5 18  1  0  0  0  0
  6 19  1  0  0  0  0
 10 20  1  0  0  0  0
M  END
> <id>
EN300-7492663

> <smiles>
OC(=O)C1(C2CC3CC21)C3(F)F

> <MDLNUMBER>
MFCD32640507

> <IUPAC Name>
7,7-difluorotricyclo[2.2.1.0,2,6]heptane-1-carboxylic acid

> <CAS>
2408969-60-6

> <Purity>
95

> <URL>
https://www.enaminestore.com/catalog/EN300-7492663

> <ROCS_ShapeQuery>
__x1247relevant_x1083L0AP1_x1305L0BP1_

> <ROCS_TanimotoCombo>
0.742 

> <ROCS_ShapeTanimoto>
0.474 

> <ROCS_ColorTanimoto>
0.268 

> <ROCS_RefTversky>
0.397 

> <ROCS_RefColorTversky>
0.408 

> <ROCS_RefTverskyCombo>
0.805 

> <ROCS_FitTversky>
1.683 

> <ROCS_FitColorTversky>
0.440 

> <ROCS_FitTverskyCombo>
2.123 

> <ROCS_ColorScore>
-13.740

> <ROCS_Overlap>
1168.409

> <ROCS_Rank>
110                 

$$$$
untitled-dbase-117585_248
  -OEChem-06232314393D

 40 42  0     1  0  0  0  0  0999 V2000
  -11.7670   16.5880  -41.4388 C   0  0  0  0  0  0  0  0  0  0  0  0
   -9.8885   14.7362  -36.9741 C   0  0  0  0  0  0  0  0  0  0  0  0
  -14.0364   14.6634  -37.4491 C   0  0  0  0  0  0  0  0  0  0  0  0
  -13.2533   15.8017  -36.7469 C   0  0  0  0  0  0  0  0  0  0  0  0
  -11.8618   13.6733  -38.1305 C   0  0  0  0  0  0  0  0  0  0  0  0
  -11.7428   15.8199  -40.1857 C   0  0  2  0  0  0  0  0  0  0  0  0
  -13.2264   14.1457  -38.6663 C   0  0  2  0  0  0  0  0  0  0  0  0
  -13.0591   15.3272  -39.6149 C   0  0  1  0  0  0  0  0  0  0  0  0
  -12.3195   16.4530  -38.9374 C   0  0  1  0  0  0  0  0  0  0  0  0
  -11.9385   16.0782  -37.5123 C   0  0  2  0  0  0  0  0  0  0  0  0
  -10.0525   14.5558  -34.3642 C   0  0  0  0  0  0  0  0  0  0  0  0
   -9.7903   12.0657  -34.5645 C   0  0  0  0  0  0  0  0  0  0  0  0
   -7.8035   13.5639  -34.9055 C   0  0  0  0  0  0  0  0  0  0  0  0
   -9.3153   13.4234  -35.0776 C   0  0  0  0  0  0  0  0  0  0  0  0
  -11.1667   14.8192  -37.5177 N   0  0  0  0  0  0  0  0  0  0  0  0
  -10.9012   16.5526  -42.3005 O   0  0  0  0  0  0  0  0  0  0  0  0
   -9.0850   15.6654  -36.9412 O   0  0  0  0  0  0  0  0  0  0  0  0
  -12.8858   17.3497  -41.5119 O   0  0  0  0  0  0  0  0  0  0  0  0
   -9.6231   13.4883  -36.4746 O   0  0  0  0  0  0  0  0  0  0  0  0
  -14.2245   13.8490  -36.7396 H   0  0  0  0  0  0  0  0  0  0  0  0
  -15.0143   15.0385  -37.7746 H   0  0  0  0  0  0  0  0  0  0  0  0
  -13.8741   16.7052  -36.7174 H   0  0  0  0  0  0  0  0  0  0  0  0
  -13.0404   15.5251  -35.7073 H   0  0  0  0  0  0  0  0  0  0  0  0
  -11.9770   12.8945  -37.3680 H   0  0  0  0  0  0  0  0  0  0  0  0
  -11.2303   13.2658  -38.9276 H   0  0  0  0  0  0  0  0  0  0  0  0
  -10.8628   15.1987  -40.0867 H   0  0  0  0  0  0  0  0  0  0  0  0
  -13.7534   13.3265  -39.1653 H   0  0  0  0  0  0  0  0  0  0  0  0
  -13.9767   15.5723  -40.1368 H   0  0  0  0  0  0  0  0  0  0  0  0
  -12.7461   17.4468  -39.0052 H   0  0  0  0  0  0  0  0  0  0  0  0
  -11.3683   16.8843  -37.0410 H   0  0  0  0  0  0  0  0  0  0  0  0
   -9.7143   15.5320  -34.7298 H   0  0  0  0  0  0  0  0  0  0  0  0
  -11.1355   14.4864  -34.5091 H   0  0  0  0  0  0  0  0  0  0  0  0
   -9.8456   14.5401  -33.2880 H   0  0  0  0  0  0  0  0  0  0  0  0
   -9.2640   11.2503  -35.0736 H   0  0  0  0  0  0  0  0  0  0  0  0
  -10.8569   11.9216  -34.7717 H   0  0  0  0  0  0  0  0  0  0  0  0
   -9.6295   11.9625  -33.4865 H   0  0  0  0  0  0  0  0  0  0  0  0
   -7.2745   12.7518  -35.4171 H   0  0  0  0  0  0  0  0  0  0  0  0
   -7.4394   14.5172  -35.3019 H   0  0  0  0  0  0  0  0  0  0  0  0
   -7.5239   13.4970  -33.8478 H   0  0  0  0  0  0  0  0  0  0  0  0
  -12.9198   17.8722  -42.3414 H   0  0  0  0  0  0  0  0  0  0  0  0
  1  6  1  0  0  0  0
  1 16  2  0  0  0  0
  1 18  1  0  0  0  0
  2 15  1  0  0  0  0
  2 17  2  0  0  0  0
  2 19  1  0  0  0  0
  3  4  1  0  0  0  0
  3  7  1  0  0  0  0
  4 10  1  0  0  0  0
  5  7  1  0  0  0  0
  5 15  1  0  0  0  0
  6  8  1  0  0  0  0
  6  9  1  0  0  0  0
  7  8  1  0  0  0  0
  8  9  1  0  0  0  0
  9 10  1  0  0  0  0
 10 15  1  0  0  0  0
 11 14  1  0  0  0  0
 12 14  1  0  0  0  0
 13 14  1  0  0  0  0
 14 19  1  0  0  0  0
  3 20  1  0  0  0  0
  3 21  1  0  0  0  0
  4 22  1  0  0  0  0
  4 23  1  0  0  0  0
  5 24  1  0  0  0  0
  5 25  1  0  0  0  0
  6 26  1  0  0  0  0
  7 27  1  0  0  0  0
  8 28  1  0  0  0  0
  9 29  1  0  0  0  0
 10 30  1  0  0  0  0
 11 31  1  0  0  0  0
 11 32  1  0  0  0  0
 11 33  1  0  0  0  0
 12 34  1  0  0  0  0
 12 35  1  0  0  0  0
 12 36  1  0  0  0  0
 13 37  1  0  0  0  0
 13 38  1  0  0  0  0
 13 39  1  0  0  0  0
 18 40  1  0  0  0  0
M  END
> <id>
EN300-39671532

> <smiles>
CC(C)(C)OC(=O)N1CC2CCC1C3C(C32)C(=O)O

> <IUPAC Name>
6-[(tert-butoxy)carbonyl]-6-azatricyclo[3.2.2.0,2,4]nonane-3-carboxylic acid

> <URL>
https://www.enaminestore.com/catalog/EN300-39671532

> <ROCS_ShapeQuery>
__x1247relevant_x1083L0AP1_x1305L0BP1_

> <ROCS_TanimotoCombo>
0.742 

> <ROCS_ShapeTanimoto>
0.505 

> <ROCS_ColorTanimoto>
0.237 

> <ROCS_RefTversky>
0.445 

> <ROCS_RefColorTversky>
0.318 

> <ROCS_RefTverskyCombo>
0.763 

> <ROCS_FitTversky>
1.363 

> <ROCS_FitColorTversky>
0.482 

> <ROCS_FitTverskyCombo>
1.844 

> <ROCS_ColorScore>
-10.568

> <ROCS_Overlap>
1314.545

> <ROCS_Rank>
111                 

$$$$
untitled-dbase-142995_14
  -OEChem-06232314393D

 22 23  0     1  0  0  0  0  0999 V2000
  -10.3115   14.9796  -36.5119 C   0  0  0  0  0  0  0  0  0  0  0  0
  -11.7291   16.3476  -38.9373 C   0  0  0  0  0  0  0  0  0  0  0  0
  -13.7608   16.1273  -37.7352 C   0  0  0  0  0  0  0  0  0  0  0  0
  -11.7055   14.9082  -37.0479 C   0  0  1  0  0  0  0  0  0  0  0  0
  -12.2434   16.2715  -37.5020 C   0  0  1  0  0  0  0  0  0  0  0  0
  -12.3250   14.9942  -39.3037 C   0  0  2  0  0  0  0  0  0  0  0  0
  -13.8119   15.1740  -38.9430 C   0  0  2  0  0  0  0  0  0  0  0  0
  -11.7012   14.1065  -38.2937 N   0  0  0  0  0  0  0  0  0  0  0  0
   -9.3540   15.4511  -37.1072 O   0  0  0  0  0  0  0  0  0  0  0  0
  -10.2490   14.4451  -35.2679 O   0  0  0  0  0  0  0  0  0  0  0  0
  -14.5136   15.7917  -40.0124 O   0  0  0  0  0  0  0  0  0  0  0  0
  -12.1561   17.1812  -39.5051 H   0  0  0  0  0  0  0  0  0  0  0  0
  -10.6373   16.3818  -39.0158 H   0  0  0  0  0  0  0  0  0  0  0  0
  -14.2663   15.7038  -36.8613 H   0  0  0  0  0  0  0  0  0  0  0  0
  -14.2181   17.0967  -37.9629 H   0  0  0  0  0  0  0  0  0  0  0  0
  -12.3361   14.4361  -36.2873 H   0  0  0  0  0  0  0  0  0  0  0  0
  -11.9655   17.1154  -36.8672 H   0  0  0  0  0  0  0  0  0  0  0  0
  -12.1415   14.6807  -40.3343 H   0  0  0  0  0  0  0  0  0  0  0  0
  -14.3118   14.2297  -38.7016 H   0  0  0  0  0  0  0  0  0  0  0  0
  -10.7406   13.9173  -38.5815 H   0  0  0  0  0  0  0  0  0  0  0  0
   -9.3407   14.4808  -34.8990 H   0  0  0  0  0  0  0  0  0  0  0  0
  -14.5204   15.1573  -40.7476 H   0  0  0  0  0  0  0  0  0  0  0  0
  1  4  1  1  0  0  0
  1  9  2  0  0  0  0
  1 10  1  0  0  0  0
  2  5  1  0  0  0  0
  2  6  1  0  0  0  0
  3  5  1  6  0  0  0
  3  7  1  0  0  0  0
  4  5  1  0  0  0  0
  4  8  1  0  0  0  0
  6  7  1  0  0  0  0
  6  8  1  6  0  0  0
  7 11  1  1  0  0  0
  2 12  1  0  0  0  0
  2 13  1  0  0  0  0
  3 14  1  0  0  0  0
  3 15  1  0  0  0  0
  4 16  1  0  0  0  0
  5 17  1  0  0  0  0
  6 18  1  0  0  0  0
  7 19  1  0  0  0  0
  8 20  1  0  0  0  0
 10 21  1  0  0  0  0
 11 22  1  0  0  0  0
M  END
> <id>
EN300-27727965

> <smiles>
O[C@@H]1C[C@@H]2C[C@H]1N[C@H]2C(=O)O |&1:1,3,5,7,r|

> <IUPAC Name>
rac-(1R,3R,4S,6R)-6-hydroxy-2-azabicyclo[2.2.1]heptane-3-carboxylic acid

> <CAS>
2580098-64-0

> <URL>
https://www.enaminestore.com/catalog/EN300-27727965

> <ROCS_ShapeQuery>
__x1247relevant_x1083L0AP1_x1305L0BP1_

> <ROCS_TanimotoCombo>
0.742 

> <ROCS_ShapeTanimoto>
0.443 

> <ROCS_ColorTanimoto>
0.299 

> <ROCS_RefTversky>
0.372 

> <ROCS_RefColorTversky>
0.331 

> <ROCS_RefTverskyCombo>
0.703 

> <ROCS_FitTversky>
1.758 

> <ROCS_FitColorTversky>
0.754 

> <ROCS_FitTverskyCombo>
2.513 

> <ROCS_ColorScore>
-10.858

> <ROCS_Overlap>
1092.145

> <ROCS_Rank>
112                 

$$$$
untitled-dbase-151118_10
  -OEChem-06232314393D

 29 30  0     1  0  0  0  0  0999 V2000
  -13.2550   16.4411  -40.3401 C   0  0  0  0  0  0  0  0  0  0  0  0
  -10.2014   15.0628  -36.6578 C   0  0  0  0  0  0  0  0  0  0  0  0
  -13.0679   14.1515  -39.2229 C   0  0  0  0  0  0  0  0  0  0  0  0
  -13.0549   13.7161  -37.7402 C   0  0  0  0  0  0  0  0  0  0  0  0
  -13.5404   16.0373  -37.8467 C   0  0  0  0  0  0  0  0  0  0  0  0
  -11.3584   15.9308  -38.7372 C   0  0  0  0  0  0  0  0  0  0  0  0
  -12.8161   15.6725  -39.1417 C   0  0  2  0  0  0  0  0  0  0  0  0
  -12.7291   15.0347  -37.0080 C   0  0  1  0  0  0  0  0  0  0  0  0
  -13.0839   15.0617  -35.5351 C   0  0  0  0  0  0  0  0  0  0  0  0
   -8.8980   15.2739  -37.3883 C   0  0  0  0  0  0  0  0  0  0  0  0
  -11.3396   15.3999  -37.3701 N   0  0  0  0  0  0  0  0  0  0  0  0
  -12.5225   17.1166  -41.0477 O   0  0  0  0  0  0  0  0  0  0  0  0
  -10.1954   14.6175  -35.5100 O   0  0  0  0  0  0  0  0  0  0  0  0
  -14.5871   16.2929  -40.5425 O   0  0  0  0  0  0  0  0  0  0  0  0
   -9.1223   15.7621  -38.6207 F   0  0  0  0  0  0  0  0  0  0  0  0
   -8.1192   16.1454  -36.7235 F   0  0  0  0  0  0  0  0  0  0  0  0
   -8.2273   14.1146  -37.5084 F   0  0  0  0  0  0  0  0  0  0  0  0
  -12.2939   13.6356  -39.8014 H   0  0  0  0  0  0  0  0  0  0  0  0
  -14.0367   13.9187  -39.6797 H   0  0  0  0  0  0  0  0  0  0  0  0
  -14.0406   13.3311  -37.4536 H   0  0  0  0  0  0  0  0  0  0  0  0
  -12.3157   12.9314  -37.5476 H   0  0  0  0  0  0  0  0  0  0  0  0
  -13.3949   17.0806  -37.5417 H   0  0  0  0  0  0  0  0  0  0  0  0
  -14.6154   15.8229  -37.8745 H   0  0  0  0  0  0  0  0  0  0  0  0
  -10.6376   15.4068  -39.3722 H   0  0  0  0  0  0  0  0  0  0  0  0
  -11.1059   16.9964  -38.7043 H   0  0  0  0  0  0  0  0  0  0  0  0
  -12.8207   16.0279  -35.0973 H   0  0  0  0  0  0  0  0  0  0  0  0
  -12.5427   14.2785  -34.9983 H   0  0  0  0  0  0  0  0  0  0  0  0
  -14.1560   14.8991  -35.3983 H   0  0  0  0  0  0  0  0  0  0  0  0
  -14.8964   16.7937  -41.3272 H   0  0  0  0  0  0  0  0  0  0  0  0
  1  7  1  0  0  0  0
  1 12  2  0  0  0  0
  1 14  1  0  0  0  0
  2 10  1  0  0  0  0
  2 11  1  0  0  0  0
  2 13  2  0  0  0  0
  3  4  1  0  0  0  0
  3  7  1  0  0  0  0
  4  8  1  0  0  0  0
  5  7  1  0  0  0  0
  5  8  1  0  0  0  0
  6  7  1  0  0  0  0
  6 11  1  0  0  0  0
  8  9  1  0  0  0  0
  8 11  1  0  0  0  0
 10 15  1  0  0  0  0
 10 16  1  0  0  0  0
 10 17  1  0  0  0  0
  3 18  1  0  0  0  0
  3 19  1  0  0  0  0
  4 20  1  0  0  0  0
  4 21  1  0  0  0  0
  5 22  1  0  0  0  0
  5 23  1  0  0  0  0
  6 24  1  0  0  0  0
  6 25  1  0  0  0  0
  9 26  1  0  0  0  0
  9 27  1  0  0  0  0
  9 28  1  0  0  0  0
 14 29  1  0  0  0  0
M  END
> <id>
EN300-28278754

> <smiles>
CC1(CCC2(CN1C(=O)C(F)(F)F)C(=O)O)C2

> <IUPAC Name>
1-methyl-2-(2,2,2-trifluoroacetyl)-2-azabicyclo[2.2.1]heptane-4-carboxylic acid

> <CAS>
2680873-22-5

> <URL>
https://www.enaminestore.com/catalog/EN300-28278754

> <ROCS_ShapeQuery>
__x1247relevant_x1083L0AP1_x1305L0BP1_

> <ROCS_TanimotoCombo>
0.741 

> <ROCS_ShapeTanimoto>
0.522 

> <ROCS_ColorTanimoto>
0.220 

> <ROCS_RefTversky>
0.447 

> <ROCS_RefColorTversky>
0.244 

> <ROCS_RefTverskyCombo>
0.691 

> <ROCS_FitTversky>
1.468 

> <ROCS_FitColorTversky>
0.690 

> <ROCS_FitTverskyCombo>
2.158 

> <ROCS_ColorScore>
-7.960

> <ROCS_Overlap>
1319.735

> <ROCS_Rank>
113                 

$$$$
untitled-dbase-43881_6
  -OEChem-06232314393D

 34 36  0     1  0  0  0  0  0999 V2000
   -9.8088   14.5744  -35.8906 C   0  0  0  0  0  0  0  0  0  0  0  0
  -11.0480   14.1126  -36.6038 C   0  0  0  0  0  0  0  0  0  0  0  0
  -14.0494   15.4254  -37.2642 C   0  0  0  0  0  0  0  0  0  0  0  0
  -13.9881   14.1010  -38.0559 C   0  0  0  0  0  0  0  0  0  0  0  0
  -11.6814   16.3344  -37.6815 C   0  0  0  0  0  0  0  0  0  0  0  0
  -11.6592   14.1319  -39.1011 C   0  0  0  0  0  0  0  0  0  0  0  0
  -13.1859   16.4618  -37.9961 C   0  0  1  0  0  0  0  0  0  0  0  0
  -13.1638   14.3365  -39.3339 C   0  0  2  0  0  0  0  0  0  0  0  0
   -9.4948   14.9933  -38.1012 C   0  0  1  0  0  0  0  0  0  0  0  0
  -11.0308   14.9246  -37.9152 C   0  0  0  0  0  0  0  0  0  0  0  0
   -8.9389   16.0846  -39.0028 C   0  0  0  0  0  0  0  0  0  0  0  0
   -9.4594   15.9314  -40.3187 N   0  0  0  0  0  0  0  0  0  0  0  0
   -9.5790   14.4323  -34.6998 O   0  0  0  0  0  0  0  0  0  0  0  0
  -12.4040   16.5923  -40.5447 O   0  0  0  0  0  0  0  0  0  0  0  0
  -14.8578   16.2438  -40.0398 O   0  0  0  0  0  0  0  0  0  0  0  0
   -8.9594   15.1607  -36.7823 O   0  0  0  0  0  0  0  0  0  0  0  0
  -13.4594   16.0556  -39.7136 S   0  0  0  0  0  0  0  0  0  0  0  0
  -10.9899   13.0356  -36.7528 H   0  0  0  0  0  0  0  0  0  0  0  0
  -11.9115   14.3492  -35.9744 H   0  0  0  0  0  0  0  0  0  0  0  0
  -15.0920   15.7667  -37.2445 H   0  0  0  0  0  0  0  0  0  0  0  0
  -13.7498   15.2968  -36.2200 H   0  0  0  0  0  0  0  0  0  0  0  0
  -13.6101   13.2667  -37.4583 H   0  0  0  0  0  0  0  0  0  0  0  0
  -15.0128   13.8235  -38.3387 H   0  0  0  0  0  0  0  0  0  0  0  0
  -11.1544   17.0692  -38.3014 H   0  0  0  0  0  0  0  0  0  0  0  0
  -11.5172   16.6460  -36.6432 H   0  0  0  0  0  0  0  0  0  0  0  0
  -11.4754   13.0570  -38.9823 H   0  0  0  0  0  0  0  0  0  0  0  0
  -11.1494   14.4132  -40.0312 H   0  0  0  0  0  0  0  0  0  0  0  0
  -13.5369   17.4847  -37.8199 H   0  0  0  0  0  0  0  0  0  0  0  0
  -13.5156   13.7214  -40.1643 H   0  0  0  0  0  0  0  0  0  0  0  0
   -9.1124   14.0167  -38.4861 H   0  0  0  0  0  0  0  0  0  0  0  0
   -9.2435   17.0384  -38.5768 H   0  0  0  0  0  0  0  0  0  0  0  0
   -7.8559   15.9800  -39.0024 H   0  0  0  0  0  0  0  0  0  0  0  0
  -10.4633   15.9662  -40.3017 H   0  0  0  0  0  0  0  0  0  0  0  0
   -9.1214   16.6673  -40.9134 H   0  0  0  0  0  0  0  0  0  0  0  0
  1  2  1  0  0  0  0
  1 13  2  0  0  0  0
  1 16  1  0  0  0  0
  2 10  1  0  0  0  0
  3  4  1  0  0  0  0
  3  7  1  0  0  0  0
  4  8  1  0  0  0  0
  5  7  1  0  0  0  0
  5 10  1  0  0  0  0
  6  8  1  0  0  0  0
  6 10  1  0  0  0  0
  7 17  1  0  0  0  0
  8 17  1  0  0  0  0
  9 10  1  0  0  0  0
  9 11  1  0  0  0  0
  9 16  1  0  0  0  0
 11 12  1  0  0  0  0
 14 17  2  0  0  0  0
 15 17  2  0  0  0  0
  2 18  1  0  0  0  0
  2 19  1  0  0  0  0
  3 20  1  0  0  0  0
  3 21  1  0  0  0  0
  4 22  1  0  0  0  0
  4 23  1  0  0  0  0
  5 24  1  0  0  0  0
  5 25  1  0  0  0  0
  6 26  1  0  0  0  0
  6 27  1  0  0  0  0
  7 28  1  0  0  0  0
  8 29  1  0  0  0  0
  9 30  1  0  0  0  0
 11 31  1  0  0  0  0
 11 32  1  0  0  0  0
 12 33  1  0  0  0  0
 12 34  1  0  0  0  0
M  END
> <id>
EN300-1479120

> <smiles>
NCC1OC(=O)CC21CC3CCC(C2)S3(=O)=O

> <IUPAC Name>
2'-(aminomethyl)-8lambda6-thiaspiro[bicyclo[3.2.1]octane-3,3'-oxolane]-5',8,8-trione

> <CAS>
2172527-59-0

> <URL>
https://www.enaminestore.com/catalog/EN300-1479120

> <ROCS_ShapeQuery>
__x1247relevant_x1083L0AP1_x1305L0BP1_

> <ROCS_TanimotoCombo>
0.741 

> <ROCS_ShapeTanimoto>
0.500 

> <ROCS_ColorTanimoto>
0.241 

> <ROCS_RefTversky>
0.430 

> <ROCS_RefColorTversky>
0.270 

> <ROCS_RefTverskyCombo>
0.700 

> <ROCS_FitTversky>
1.481 

> <ROCS_FitColorTversky>
0.691 

> <ROCS_FitTverskyCombo>
2.173 

> <ROCS_ColorScore>
-8.829

> <ROCS_Overlap>
1269.087

> <ROCS_Rank>
114                 

$$$$
untitled-dbase-117934_1
  -OEChem-06232314393D

 25 27  0     1  0  0  0  0  0999 V2000
  -10.0895   14.7778  -37.3122 C   0  0  0  0  0  0  0  0  0  0  0  0
  -13.6777   14.2796  -38.3057 C   0  0  0  0  0  0  0  0  0  0  0  0
  -13.1099   16.5985  -38.6617 C   0  0  0  0  0  0  0  0  0  0  0  0
  -13.1343   15.2310  -39.4182 C   0  0  0  0  0  0  0  0  0  0  0  0
  -12.6548   14.6723  -37.2645 C   0  0  2  0  0  0  0  0  0  0  0  0
  -12.3001   16.1013  -37.4871 C   0  0  1  0  0  0  0  0  0  0  0  0
  -11.6208   14.8181  -39.4502 C   0  0  2  0  0  0  0  0  0  0  0  0
  -11.3740   15.0212  -37.9632 C   0  0  0  0  0  0  0  0  0  0  0  0
   -8.7388   13.0664  -36.4010 C   0  0  0  0  0  0  0  0  0  0  0  0
  -10.7973   15.6822  -40.2771 N   0  0  0  0  0  0  0  0  0  0  0  0
   -9.2726   15.6531  -37.0597 O   0  0  0  0  0  0  0  0  0  0  0  0
   -9.9599   13.4476  -37.0426 O   0  0  0  0  0  0  0  0  0  0  0  0
  -14.6976   14.5290  -37.9985 H   0  0  0  0  0  0  0  0  0  0  0  0
  -13.6049   13.2231  -38.5798 H   0  0  0  0  0  0  0  0  0  0  0  0
  -12.5999   17.3916  -39.2151 H   0  0  0  0  0  0  0  0  0  0  0  0
  -14.1093   16.9282  -38.3617 H   0  0  0  0  0  0  0  0  0  0  0  0
  -13.6680   15.2133  -40.3689 H   0  0  0  0  0  0  0  0  0  0  0  0
  -12.6959   14.2314  -36.2875 H   0  0  0  0  0  0  0  0  0  0  0  0
  -12.0652   16.7711  -36.6829 H   0  0  0  0  0  0  0  0  0  0  0  0
  -11.4966   13.7681  -39.7396 H   0  0  0  0  0  0  0  0  0  0  0  0
   -8.7370   11.9869  -36.2314 H   0  0  0  0  0  0  0  0  0  0  0  0
   -8.6456   13.5956  -35.4493 H   0  0  0  0  0  0  0  0  0  0  0  0
   -7.8993   13.3328  -37.0475 H   0  0  0  0  0  0  0  0  0  0  0  0
   -9.8441   15.4209  -40.1610 H   0  0  0  0  0  0  0  0  0  0  0  0
  -11.0721   15.5700  -41.2270 H   0  0  0  0  0  0  0  0  0  0  0  0
  1  8  1  0  0  0  0
  1 11  2  0  0  0  0
  1 12  1  0  0  0  0
  2  4  1  0  0  0  0
  2  5  1  0  0  0  0
  3  4  1  0  0  0  0
  3  6  1  0  0  0  0
  4  7  1  0  0  0  0
  5  6  1  0  0  0  0
  5  8  1  0  0  0  0
  6  8  1  0  0  0  0
  7  8  1  0  0  0  0
  7 10  1  0  0  0  0
  9 12  1  0  0  0  0
  2 13  1  0  0  0  0
  2 14  1  0  0  0  0
  3 15  1  0  0  0  0
  3 16  1  0  0  0  0
  4 17  1  0  0  0  0
  5 18  1  0  0  0  0
  6 19  1  0  0  0  0
  7 20  1  0  0  0  0
  9 21  1  0  0  0  0
  9 22  1  0  0  0  0
  9 23  1  0  0  0  0
 10 24  1  0  0  0  0
 10 25  1  0  0  0  0
M  END
> <id>
EN300-7492562

> <smiles>
COC(=O)C1(C2CC3CC21)C3N

> <MDLNUMBER>
MFCD32640393

> <IUPAC Name>
methyl 7-aminotricyclo[2.2.1.0,2,6]heptane-1-carboxylate

> <CAS>
2408965-41-1

> <Purity>
95

> <URL>
https://www.enaminestore.com/catalog/EN300-7492562

> <ROCS_ShapeQuery>
__x1247relevant_x1083L0AP1_x1305L0BP1_

> <ROCS_TanimotoCombo>
0.741 

> <ROCS_ShapeTanimoto>
0.472 

> <ROCS_ColorTanimoto>
0.269 

> <ROCS_RefTversky>
0.394 

> <ROCS_RefColorTversky>
0.408 

> <ROCS_RefTverskyCombo>
0.802 

> <ROCS_FitTversky>
1.715 

> <ROCS_FitColorTversky>
0.441 

> <ROCS_FitTverskyCombo>
2.156 

> <ROCS_ColorScore>
-13.747

> <ROCS_Overlap>
1158.958

> <ROCS_Rank>
115                 

$$$$
untitled-dbase-122235_6
  -OEChem-06232314393D

 35 37  0     1  0  0  0  0  0999 V2000
  -13.9041   15.3589  -37.1858 C   0  0  0  0  0  0  0  0  0  0  0  0
  -13.7867   14.0357  -37.9734 C   0  0  0  0  0  0  0  0  0  0  0  0
  -10.7959   14.2581  -36.5989 C   0  0  0  0  0  0  0  0  0  0  0  0
  -11.6202   16.4215  -37.6788 C   0  0  0  0  0  0  0  0  0  0  0  0
  -11.4898   14.2088  -39.0745 C   0  0  0  0  0  0  0  0  0  0  0  0
   -9.6290   14.8894  -35.8593 C   0  0  0  0  0  0  0  0  0  0  0  0
  -13.1369   16.4441  -37.9539 C   0  0  1  0  0  0  0  0  0  0  0  0
  -13.0099   14.3115  -39.2724 C   0  0  2  0  0  0  0  0  0  0  0  0
   -9.3557   15.2303  -38.1365 C   0  0  1  0  0  0  0  0  0  0  0  0
  -10.8844   15.0557  -37.9142 C   0  0  0  0  0  0  0  0  0  0  0  0
   -8.8967   16.3107  -39.1029 C   0  0  0  0  0  0  0  0  0  0  0  0
   -9.4224   16.0577  -40.4045 N   0  0  0  0  0  0  0  0  0  0  0  0
  -14.8449   16.0952  -39.9478 O   0  0  0  0  0  0  0  0  0  0  0  0
  -12.4336   16.5988  -40.5234 O   0  0  0  0  0  0  0  0  0  0  0  0
   -8.7816   15.4873  -36.8446 O   0  0  0  0  0  0  0  0  0  0  0  0
  -13.4287   16.0028  -39.6590 S   0  0  0  0  0  0  0  0  0  0  0  0
  -14.9657   15.6353  -37.1388 H   0  0  0  0  0  0  0  0  0  0  0  0
  -13.5749   15.2645  -36.1478 H   0  0  0  0  0  0  0  0  0  0  0  0
  -13.3304   13.2383  -37.3791 H   0  0  0  0  0  0  0  0  0  0  0  0
  -14.7988   13.6911  -38.2215 H   0  0  0  0  0  0  0  0  0  0  0  0
  -10.5520   13.2072  -36.8018 H   0  0  0  0  0  0  0  0  0  0  0  0
  -11.6937   14.2582  -35.9811 H   0  0  0  0  0  0  0  0  0  0  0  0
  -11.1806   17.1920  -38.3198 H   0  0  0  0  0  0  0  0  0  0  0  0
  -11.4539   16.7695  -36.6522 H   0  0  0  0  0  0  0  0  0  0  0  0
  -11.2297   13.1516  -38.9349 H   0  0  0  0  0  0  0  0  0  0  0  0
  -11.0091   14.4986  -40.0175 H   0  0  0  0  0  0  0  0  0  0  0  0
   -9.9599   15.6762  -35.1742 H   0  0  0  0  0  0  0  0  0  0  0  0
   -9.0595   14.1521  -35.2856 H   0  0  0  0  0  0  0  0  0  0  0  0
  -13.5502   17.4400  -37.7713 H   0  0  0  0  0  0  0  0  0  0  0  0
  -13.3416   13.6679  -40.0918 H   0  0  0  0  0  0  0  0  0  0  0  0
   -8.9295   14.2762  -38.4784 H   0  0  0  0  0  0  0  0  0  0  0  0
   -9.2617   17.2667  -38.7256 H   0  0  0  0  0  0  0  0  0  0  0  0
   -7.8064   16.2921  -39.1240 H   0  0  0  0  0  0  0  0  0  0  0  0
  -10.4252   16.0297  -40.3717 H   0  0  0  0  0  0  0  0  0  0  0  0
   -9.1383   16.7831  -41.0373 H   0  0  0  0  0  0  0  0  0  0  0  0
  1  2  1  0  0  0  0
  1  7  1  0  0  0  0
  2  8  1  0  0  0  0
  3  6  1  0  0  0  0
  3 10  1  0  0  0  0
  4  7  1  0  0  0  0
  4 10  1  0  0  0  0
  5  8  1  0  0  0  0
  5 10  1  0  0  0  0
  6 15  1  0  0  0  0
  7 16  1  0  0  0  0
  8 16  1  0  0  0  0
  9 10  1  0  0  0  0
  9 11  1  0  0  0  0
  9 15  1  0  0  0  0
 11 12  1  0  0  0  0
 13 16  2  0  0  0  0
 14 16  2  0  0  0  0
  1 17  1  0  0  0  0
  1 18  1  0  0  0  0
  2 19  1  0  0  0  0
  2 20  1  0  0  0  0
  3 21  1  0  0  0  0
  3 22  1  0  0  0  0
  4 23  1  0  0  0  0
  4 24  1  0  0  0  0
  5 25  1  0  0  0  0
  5 26  1  0  0  0  0
  6 27  1  0  0  0  0
  6 28  1  0  0  0  0
  7 29  1  0  0  0  0
  8 30  1  0  0  0  0
  9 31  1  0  0  0  0
 11 32  1  0  0  0  0
 11 33  1  0  0  0  0
 12 34  1  0  0  0  0
 12 35  1  0  0  0  0
M  END
> <id>
EN300-1479088

> <smiles>
NCC1OCCC21CC3CCC(C2)S3(=O)=O

> <IUPAC Name>
2'-(aminomethyl)-8lambda6-thiaspiro[bicyclo[3.2.1]octane-3,3'-oxolane]-8,8-dione

> <CAS>
2167068-25-7

> <URL>
https://www.enaminestore.com/catalog/EN300-1479088

> <ROCS_ShapeQuery>
__x1247relevant_x1083L0AP1_x1305L0BP1_

> <ROCS_TanimotoCombo>
0.741 

> <ROCS_ShapeTanimoto>
0.486 

> <ROCS_ColorTanimoto>
0.255 

> <ROCS_RefTversky>
0.416 

> <ROCS_RefColorTversky>
0.283 

> <ROCS_RefTverskyCombo>
0.699 

> <ROCS_FitTversky>
1.523 

> <ROCS_FitColorTversky>
0.724 

> <ROCS_FitTverskyCombo>
2.247 

> <ROCS_ColorScore>
-9.251

> <ROCS_Overlap>
1226.064

> <ROCS_Rank>
116                 

$$$$
untitled-dbase-175437_25
  -OEChem-06232314393D

 37 39  0     1  0  0  0  0  0999 V2000
   -9.9577   14.9955  -37.0611 C   0  0  0  0  0  0  0  0  0  0  0  0
  -14.4505   15.1385  -38.5330 C   0  0  0  0  0  0  0  0  0  0  0  0
  -13.7781   13.7261  -38.2166 C   0  0  0  0  0  0  0  0  0  0  0  0
  -12.3513   16.9945  -39.2339 C   0  0  0  0  0  0  0  0  0  0  0  0
  -13.1631   15.8142  -38.8383 C   0  0  1  0  0  0  0  0  0  0  0  0
  -12.3629   14.0119  -37.6272 C   0  0  2  0  0  0  0  0  0  0  0  0
  -12.4176   15.4405  -37.5835 C   0  0  1  0  0  0  0  0  0  0  0  0
  -10.9325   16.2533  -39.1283 C   0  0  1  0  0  0  0  0  0  0  0  0
  -11.0819   15.1444  -38.0102 C   0  0  1  0  0  0  0  0  0  0  0  0
   -7.9461   13.4303  -35.7961 C   0  0  0  0  0  0  0  0  0  0  0  0
   -9.8276   11.9313  -35.0733 C   0  0  0  0  0  0  0  0  0  0  0  0
   -9.3493   12.2474  -37.5185 C   0  0  0  0  0  0  0  0  0  0  0  0
   -9.3403   12.9084  -36.1410 C   0  0  0  0  0  0  0  0  0  0  0  0
  -10.4795   15.6392  -40.3724 N   0  0  0  0  0  0  0  0  0  0  0  0
   -8.9338   15.6643  -37.1013 O   0  0  0  0  0  0  0  0  0  0  0  0
  -10.2485   14.0142  -36.1602 O   0  0  0  0  0  0  0  0  0  0  0  0
  -15.1526   15.0759  -39.3680 H   0  0  0  0  0  0  0  0  0  0  0  0
  -14.9536   15.5414  -37.6473 H   0  0  0  0  0  0  0  0  0  0  0  0
  -14.3952   13.1667  -37.5060 H   0  0  0  0  0  0  0  0  0  0  0  0
  -13.6723   13.1321  -39.1320 H   0  0  0  0  0  0  0  0  0  0  0  0
  -12.5527   17.3756  -40.2390 H   0  0  0  0  0  0  0  0  0  0  0  0
  -12.4116   17.8161  -38.5116 H   0  0  0  0  0  0  0  0  0  0  0  0
  -12.9208   15.1913  -39.7239 H   0  0  0  0  0  0  0  0  0  0  0  0
  -12.2051   13.4518  -36.7112 H   0  0  0  0  0  0  0  0  0  0  0  0
  -12.6381   15.9907  -36.6837 H   0  0  0  0  0  0  0  0  0  0  0  0
  -10.1885   16.9972  -38.8188 H   0  0  0  0  0  0  0  0  0  0  0  0
   -7.5927   14.1320  -36.5601 H   0  0  0  0  0  0  0  0  0  0  0  0
   -7.9339   13.9374  -34.8259 H   0  0  0  0  0  0  0  0  0  0  0  0
   -7.2181   12.6115  -35.7679 H   0  0  0  0  0  0  0  0  0  0  0  0
  -10.8276   11.5544  -35.3166 H   0  0  0  0  0  0  0  0  0  0  0  0
   -9.9133   12.4277  -34.0999 H   0  0  0  0  0  0  0  0  0  0  0  0
   -9.1511   11.0770  -34.9684 H   0  0  0  0  0  0  0  0  0  0  0  0
  -10.3491   11.8730  -37.7661 H   0  0  0  0  0  0  0  0  0  0  0  0
   -9.0375   12.9450  -38.3027 H   0  0  0  0  0  0  0  0  0  0  0  0
   -8.6804   11.3794  -37.5386 H   0  0  0  0  0  0  0  0  0  0  0  0
  -10.3921   16.3520  -41.0579 H   0  0  0  0  0  0  0  0  0  0  0  0
   -9.6023   15.2059  -40.2040 H   0  0  0  0  0  0  0  0  0  0  0  0
  1  9  1  1  0  0  0
  1 15  2  0  0  0  0
  1 16  1  0  0  0  0
  2  3  1  0  0  0  0
  2  5  1  1  0  0  0
  3  6  1  6  0  0  0
  4  5  1  0  0  0  0
  4  8  1  0  0  0  0
  5  7  1  0  0  0  0
  6  7  1  0  0  0  0
  6  9  1  0  0  0  0
  7  9  1  0  0  0  0
  8  9  1  0  0  0  0
  8 14  1  6  0  0  0
 10 13  1  0  0  0  0
 11 13  1  0  0  0  0
 12 13  1  0  0  0  0
 13 16  1  0  0  0  0
  2 17  1  0  0  0  0
  2 18  1  0  0  0  0
  3 19  1  0  0  0  0
  3 20  1  0  0  0  0
  4 21  1  0  0  0  0
  4 22  1  0  0  0  0
  5 23  1  0  0  0  0
  6 24  1  0  0  0  0
  7 25  1  0  0  0  0
  8 26  1  0  0  0  0
 10 27  1  0  0  0  0
 10 28  1  0  0  0  0
 10 29  1  0  0  0  0
 11 30  1  0  0  0  0
 11 31  1  0  0  0  0
 11 32  1  0  0  0  0
 12 33  1  0  0  0  0
 12 34  1  0  0  0  0
 12 35  1  0  0  0  0
 14 36  1  0  0  0  0
 14 37  1  0  0  0  0
M  END
> <id>
EN300-45377092

> <smiles>
CC(C)(C)OC(=O)[C@@]1([C@@H]2CC[C@H]3C[C@@H]1N)C23 |&1:7,8,11,13,r|

> <IUPAC Name>
rac-tert-butyl (2R,3R,5R,8S)-3-aminotricyclo[3.3.0.0,2,8]octane-2-carboxylate

> <URL>
https://www.enaminestore.com/catalog/EN300-45377092

> <ROCS_ShapeQuery>
__x1247relevant_x1083L0AP1_x1305L0BP1_

> <ROCS_TanimotoCombo>
0.741 

> <ROCS_ShapeTanimoto>
0.499 

> <ROCS_ColorTanimoto>
0.241 

> <ROCS_RefTversky>
0.427 

> <ROCS_RefColorTversky>
0.306 

> <ROCS_RefTverskyCombo>
0.733 

> <ROCS_FitTversky>
1.515 

> <ROCS_FitColorTversky>
0.533 

> <ROCS_FitTverskyCombo>
2.048 

> <ROCS_ColorScore>
-10.129

> <ROCS_Overlap>
1257.223

> <ROCS_Rank>
117                 

$$$$
untitled-dbase-68904_41
  -OEChem-06232314393D

 26 27  0     1  0  0  0  0  0999 V2000
  -13.3740   16.4562  -40.2998 C   0  0  0  0  0  0  0  0  0  0  0  0
   -9.8175   14.7347  -37.2513 C   0  0  0  0  0  0  0  0  0  0  0  0
  -13.1588   15.0907  -36.7940 C   0  0  0  0  0  0  0  0  0  0  0  0
  -13.5455   16.2331  -37.7578 C   0  0  0  0  0  0  0  0  0  0  0  0
  -12.9333   14.3113  -39.0230 C   0  0  0  0  0  0  0  0  0  0  0  0
  -11.3031   16.0273  -38.8746 C   0  0  0  0  0  0  0  0  0  0  0  0
  -12.2424   14.2127  -37.6640 C   0  0  1  0  0  0  0  0  0  0  0  0
  -12.8183   15.8408  -39.0612 C   0  0  1  0  0  0  0  0  0  0  0  0
   -9.5571   13.2934  -36.8960 C   0  0  0  0  0  0  0  0  0  0  0  0
  -11.0095   14.9739  -37.9010 N   0  0  0  0  0  0  0  0  0  0  0  0
  -12.7543   17.1847  -41.0604 O   0  0  0  0  0  0  0  0  0  0  0  0
   -8.9973   15.6084  -36.9673 O   0  0  0  0  0  0  0  0  0  0  0  0
  -14.6705   16.0998  -40.4713 O   0  0  0  0  0  0  0  0  0  0  0  0
  -10.5768   12.5149  -37.3008 F   0  0  0  0  0  0  0  0  0  0  0  0
   -8.4315   12.8546  -37.4877 F   0  0  0  0  0  0  0  0  0  0  0  0
   -9.4179   13.1474  -35.5659 F   0  0  0  0  0  0  0  0  0  0  0  0
  -12.6585   15.4609  -35.8933 H   0  0  0  0  0  0  0  0  0  0  0  0
  -14.0532   14.5371  -36.4868 H   0  0  0  0  0  0  0  0  0  0  0  0
  -14.6331   16.2706  -37.8893 H   0  0  0  0  0  0  0  0  0  0  0  0
  -13.2211   17.2087  -37.3800 H   0  0  0  0  0  0  0  0  0  0  0  0
  -12.3825   13.8121  -39.8283 H   0  0  0  0  0  0  0  0  0  0  0  0
  -13.9682   13.9511  -39.0189 H   0  0  0  0  0  0  0  0  0  0  0  0
  -10.7307   15.8355  -39.7885 H   0  0  0  0  0  0  0  0  0  0  0  0
  -11.0289   17.0080  -38.4741 H   0  0  0  0  0  0  0  0  0  0  0  0
  -12.0622   13.2105  -37.2709 H   0  0  0  0  0  0  0  0  0  0  0  0
  -15.0555   16.4969  -41.2814 H   0  0  0  0  0  0  0  0  0  0  0  0
  1  8  1  6  0  0  0
  1 11  2  0  0  0  0
  1 13  1  0  0  0  0
  2  9  1  0  0  0  0
  2 10  1  0  0  0  0
  2 12  2  0  0  0  0
  3  4  1  0  0  0  0
  3  7  1  1  0  0  0
  4  8  1  0  0  0  0
  5  7  1  0  0  0  0
  5  8  1  0  0  0  0
  6  8  1  0  0  0  0
  6 10  1  0  0  0  0
  7 10  1  0  0  0  0
  9 14  1  0  0  0  0
  9 15  1  0  0  0  0
  9 16  1  0  0  0  0
  3 17  1  0  0  0  0
  3 18  1  0  0  0  0
  4 19  1  0  0  0  0
  4 20  1  0  0  0  0
  5 21  1  0  0  0  0
  5 22  1  0  0  0  0
  6 23  1  0  0  0  0
  6 24  1  0  0  0  0
  7 25  1  0  0  0  0
 13 26  1  0  0  0  0
M  END
> <id>
EN300-37419275

> <smiles>
OC(=O)[C@]1(CC[C@H]2C1)CN2C(=O)C(F)(F)F

> <IUPAC Name>
(1S,4S)-2-(2,2,2-trifluoroacetyl)-2-azabicyclo[2.2.1]heptane-4-carboxylic acid

> <URL>
https://www.enaminestore.com/catalog/EN300-37419275

> <ROCS_ShapeQuery>
__x1247relevant_x1083L0AP1_x1305L0BP1_

> <ROCS_TanimotoCombo>
0.740 

> <ROCS_ShapeTanimoto>
0.521 

> <ROCS_ColorTanimoto>
0.220 

> <ROCS_RefTversky>
0.442 

> <ROCS_RefColorTversky>
0.244 

> <ROCS_RefTverskyCombo>
0.686 

> <ROCS_FitTversky>
1.519 

> <ROCS_FitColorTversky>
0.690 

> <ROCS_FitTverskyCombo>
2.210 

> <ROCS_ColorScore>
-7.975

> <ROCS_Overlap>
1302.767

> <ROCS_Rank>
118                 

$$$$
untitled-dbase-178788_2
  -OEChem-06232314393D

 21 22  0     1  0  0  0  0  0999 V2000
  -10.0316   15.3072  -36.9816 C   0  0  0  0  0  0  0  0  0  0  0  0
  -13.1212   15.5980  -37.1501 C   0  0  0  0  0  0  0  0  0  0  0  0
  -13.5051   14.9712  -39.4324 C   0  0  0  0  0  0  0  0  0  0  0  0
  -10.9805   15.2783  -38.1348 C   0  0  2  0  0  0  0  0  0  0  0  0
  -12.0981   16.3207  -38.0266 C   0  0  1  0  0  0  0  0  0  0  0  0
  -13.1417   14.3740  -38.0567 C   0  0  1  0  0  0  0  0  0  0  0  0
  -12.8541   16.3533  -39.3599 C   0  0  0  0  0  0  0  0  0  0  0  0
  -11.7081   13.9890  -38.0778 N   0  0  0  0  0  0  0  0  0  0  0  0
   -8.9630   15.8999  -36.9668 O   0  0  0  0  0  0  0  0  0  0  0  0
  -10.5155   14.5802  -35.9450 O   0  0  0  0  0  0  0  0  0  0  0  0
  -13.8007   17.3191  -39.3407 F   0  0  0  0  0  0  0  0  0  0  0  0
  -12.0451   16.5955  -40.4063 F   0  0  0  0  0  0  0  0  0  0  0  0
  -12.7667   15.3857  -36.1361 H   0  0  0  0  0  0  0  0  0  0  0  0
  -14.0871   16.1118  -37.0943 H   0  0  0  0  0  0  0  0  0  0  0  0
  -13.1270   14.3685  -40.2643 H   0  0  0  0  0  0  0  0  0  0  0  0
  -14.5921   15.0646  -39.5290 H   0  0  0  0  0  0  0  0  0  0  0  0
  -10.4011   15.3691  -39.0596 H   0  0  0  0  0  0  0  0  0  0  0  0
  -11.7952   17.3009  -37.6525 H   0  0  0  0  0  0  0  0  0  0  0  0
  -13.7927   13.5578  -37.7375 H   0  0  0  0  0  0  0  0  0  0  0  0
  -11.5061   13.4378  -38.9110 H   0  0  0  0  0  0  0  0  0  0  0  0
  -11.3878   14.1821  -36.1524 H   0  0  0  0  0  0  0  0  0  0  0  0
  1  4  1  6  0  0  0
  1  9  2  0  0  0  0
  1 10  1  0  0  0  0
  2  5  1  0  0  0  0
  2  6  1  0  0  0  0
  3  6  1  0  0  0  0
  3  7  1  0  0  0  0
  4  5  1  0  0  0  0
  4  8  1  0  0  0  0
  5  7  1  0  0  0  0
  6  8  1  0  0  0  0
  7 11  1  0  0  0  0
  7 12  1  0  0  0  0
  2 13  1  0  0  0  0
  2 14  1  0  0  0  0
  3 15  1  0  0  0  0
  3 16  1  0  0  0  0
  4 17  1  0  0  0  0
  5 18  1  0  0  0  0
  6 19  1  0  0  0  0
  8 20  1  0  0  0  0
 10 21  1  0  0  0  0
M  END
> <id>
EN300-109611

> <smiles>
OC(=O)[C@H]1NC2CC1C(F)(F)C2

> <MDLNUMBER>
MFCD27919993

> <IUPAC Name>
(3S)-5,5-difluoro-2-azabicyclo[2.2.1]heptane-3-carboxylic acid

> <CAS>
1394117-05-5

> <URL>
https://www.enaminestore.com/catalog/EN300-109611

> <ROCS_ShapeQuery>
__x1247relevant_x1083L0AP1_x1305L0BP1_

> <ROCS_TanimotoCombo>
0.740 

> <ROCS_ShapeTanimoto>
0.486 

> <ROCS_ColorTanimoto>
0.254 

> <ROCS_RefTversky>
0.402 

> <ROCS_RefColorTversky>
0.280 

> <ROCS_RefTverskyCombo>
0.682 

> <ROCS_FitTversky>
1.746 

> <ROCS_FitColorTversky>
0.733 

> <ROCS_FitTverskyCombo>
2.479 

> <ROCS_ColorScore>
-9.160

> <ROCS_Overlap>
1182.764

> <ROCS_Rank>
119                 

$$$$
untitled-dbase-109965_2
  -OEChem-06232314393D

 21 22  0     1  0  0  0  0  0999 V2000
  -10.0316   15.3072  -36.9816 C   0  0  0  0  0  0  0  0  0  0  0  0
  -13.1212   15.5980  -37.1501 C   0  0  0  0  0  0  0  0  0  0  0  0
  -13.5051   14.9712  -39.4324 C   0  0  0  0  0  0  0  0  0  0  0  0
  -10.9805   15.2783  -38.1348 C   0  0  2  0  0  0  0  0  0  0  0  0
  -12.0981   16.3207  -38.0266 C   0  0  1  0  0  0  0  0  0  0  0  0
  -13.1417   14.3740  -38.0567 C   0  0  1  0  0  0  0  0  0  0  0  0
  -12.8541   16.3533  -39.3599 C   0  0  0  0  0  0  0  0  0  0  0  0
  -11.7081   13.9890  -38.0778 N   0  0  0  0  0  0  0  0  0  0  0  0
   -8.9630   15.8999  -36.9668 O   0  0  0  0  0  0  0  0  0  0  0  0
  -10.5155   14.5802  -35.9450 O   0  0  0  0  0  0  0  0  0  0  0  0
  -13.8007   17.3191  -39.3407 F   0  0  0  0  0  0  0  0  0  0  0  0
  -12.0451   16.5955  -40.4063 F   0  0  0  0  0  0  0  0  0  0  0  0
  -12.7667   15.3857  -36.1361 H   0  0  0  0  0  0  0  0  0  0  0  0
  -14.0871   16.1118  -37.0943 H   0  0  0  0  0  0  0  0  0  0  0  0
  -13.1270   14.3685  -40.2643 H   0  0  0  0  0  0  0  0  0  0  0  0
  -14.5921   15.0646  -39.5290 H   0  0  0  0  0  0  0  0  0  0  0  0
  -10.4011   15.3691  -39.0596 H   0  0  0  0  0  0  0  0  0  0  0  0
  -11.7952   17.3009  -37.6525 H   0  0  0  0  0  0  0  0  0  0  0  0
  -13.7927   13.5578  -37.7375 H   0  0  0  0  0  0  0  0  0  0  0  0
  -11.5061   13.4378  -38.9110 H   0  0  0  0  0  0  0  0  0  0  0  0
  -11.3878   14.1821  -36.1524 H   0  0  0  0  0  0  0  0  0  0  0  0
  1  4  1  6  0  0  0
  1  9  2  0  0  0  0
  1 10  1  0  0  0  0
  2  5  1  0  0  0  0
  2  6  1  0  0  0  0
  3  6  1  0  0  0  0
  3  7  1  0  0  0  0
  4  5  1  0  0  0  0
  4  8  1  0  0  0  0
  5  7  1  0  0  0  0
  6  8  1  0  0  0  0
  7 11  1  0  0  0  0
  7 12  1  0  0  0  0
  2 13  1  0  0  0  0
  2 14  1  0  0  0  0
  3 15  1  0  0  0  0
  3 16  1  0  0  0  0
  4 17  1  0  0  0  0
  5 18  1  0  0  0  0
  6 19  1  0  0  0  0
  8 20  1  0  0  0  0
 10 21  1  0  0  0  0
M  END
> <id>
EN300-109779

> <smiles>
Cl.OC(=O)[C@H]1NC2CC1C(F)(F)C2

> <MDLNUMBER>
MFCD22378704

> <IUPAC Name>
(3S)-5,5-difluoro-2-azabicyclo[2.2.1]heptane-3-carboxylic acid hydrochloride

> <CAS>
1394052-55-1

> <URL>
https://www.enaminestore.com/catalog/EN300-109779

> <Saltdate>
Cl

> <ROCS_ShapeQuery>
__x1247relevant_x1083L0AP1_x1305L0BP1_

> <ROCS_TanimotoCombo>
0.740 

> <ROCS_ShapeTanimoto>
0.486 

> <ROCS_ColorTanimoto>
0.254 

> <ROCS_RefTversky>
0.402 

> <ROCS_RefColorTversky>
0.280 

> <ROCS_RefTverskyCombo>
0.682 

> <ROCS_FitTversky>
1.746 

> <ROCS_FitColorTversky>
0.733 

> <ROCS_FitTverskyCombo>
2.479 

> <ROCS_ColorScore>
-9.160

> <ROCS_Overlap>
1182.764

> <ROCS_Rank>
120                 

$$$$
untitled-dbase-110294_2
  -OEChem-06232314393D

 21 22  0     1  0  0  0  0  0999 V2000
  -10.0317   15.3009  -36.9759 C   0  0  0  0  0  0  0  0  0  0  0  0
  -13.1309   15.5829  -37.1611 C   0  0  0  0  0  0  0  0  0  0  0  0
  -13.4952   14.9935  -39.4547 C   0  0  0  0  0  0  0  0  0  0  0  0
  -10.9797   15.2755  -38.1297 C   0  0  2  0  0  0  0  0  0  0  0  0
  -12.0967   16.3179  -38.0151 C   0  0  1  0  0  0  0  0  0  0  0  0
  -13.1420   14.3724  -38.0859 C   0  0  1  0  0  0  0  0  0  0  0  0
  -12.8396   16.3721  -39.3555 C   0  0  0  0  0  0  0  0  0  0  0  0
  -11.7095   13.9944  -38.0726 N   0  0  0  0  0  0  0  0  0  0  0  0
   -8.9635   15.8942  -36.9582 O   0  0  0  0  0  0  0  0  0  0  0  0
  -10.5159   14.5699  -35.9423 O   0  0  0  0  0  0  0  0  0  0  0  0
  -13.7834   17.3407  -39.3319 F   0  0  0  0  0  0  0  0  0  0  0  0
  -12.0195   16.6267  -40.3904 F   0  0  0  0  0  0  0  0  0  0  0  0
  -12.7879   15.3570  -36.1458 H   0  0  0  0  0  0  0  0  0  0  0  0
  -14.0968   16.0969  -37.1083 H   0  0  0  0  0  0  0  0  0  0  0  0
  -13.1099   14.4017  -40.2910 H   0  0  0  0  0  0  0  0  0  0  0  0
  -14.5811   15.0911  -39.5583 H   0  0  0  0  0  0  0  0  0  0  0  0
  -10.4007   15.3699  -39.0543 H   0  0  0  0  0  0  0  0  0  0  0  0
  -11.7969   17.2919  -37.6230 H   0  0  0  0  0  0  0  0  0  0  0  0
  -13.7982   13.5538  -37.7837 H   0  0  0  0  0  0  0  0  0  0  0  0
  -11.4896   13.4305  -38.8928 H   0  0  0  0  0  0  0  0  0  0  0  0
  -11.3878   14.1720  -36.1517 H   0  0  0  0  0  0  0  0  0  0  0  0
  1  4  1  0  0  0  0
  1  9  2  0  0  0  0
  1 10  1  0  0  0  0
  2  5  1  0  0  0  0
  2  6  1  0  0  0  0
  3  6  1  0  0  0  0
  3  7  1  0  0  0  0
  4  5  1  0  0  0  0
  4  8  1  0  0  0  0
  5  7  1  0  0  0  0
  6  8  1  0  0  0  0
  7 11  1  0  0  0  0
  7 12  1  0  0  0  0
  2 13  1  0  0  0  0
  2 14  1  0  0  0  0
  3 15  1  0  0  0  0
  3 16  1  0  0  0  0
  4 17  1  0  0  0  0
  5 18  1  0  0  0  0
  6 19  1  0  0  0  0
  8 20  1  0  0  0  0
 10 21  1  0  0  0  0
M  END
> <id>
EN300-295916

> <smiles>
Cl.OC(=O)C1NC2CC1C(F)(F)C2

> <MDLNUMBER>
MFCD24528907

> <IUPAC Name>
5,5-difluoro-2-azabicyclo[2.2.1]heptane-3-carboxylic acid hydrochloride

> <CAS>
1822524-20-8

> <URL>
https://www.enaminestore.com/catalog/EN300-295916

> <Saltdate>
Cl

> <ROCS_ShapeQuery>
__x1247relevant_x1083L0AP1_x1305L0BP1_

> <ROCS_TanimotoCombo>
0.740 

> <ROCS_ShapeTanimoto>
0.486 

> <ROCS_ColorTanimoto>
0.254 

> <ROCS_RefTversky>
0.402 

> <ROCS_RefColorTversky>
0.280 

> <ROCS_RefTverskyCombo>
0.682 

> <ROCS_FitTversky>
1.745 

> <ROCS_FitColorTversky>
0.733 

> <ROCS_FitTverskyCombo>
2.478 

> <ROCS_ColorScore>
-9.164

> <ROCS_Overlap>
1182.463

> <ROCS_Rank>
121                 

$$$$
untitled-dbase-177426_3
  -OEChem-06232314393D

 28 31  0     1  0  0  0  0  0999 V2000
  -13.7752   14.7693  -37.6306 C   0  0  0  0  0  0  0  0  0  0  0  0
  -10.2787   16.0744  -37.0220 C   0  0  0  0  0  0  0  0  0  0  0  0
  -10.1202   13.9673  -38.1760 C   0  0  0  0  0  0  0  0  0  0  0  0
  -12.9006   16.0417  -37.4838 C   0  0  1  0  0  0  0  0  0  0  0  0
  -12.7523   14.0708  -38.5639 C   0  0  2  0  0  0  0  0  0  0  0  0
  -11.6371   15.3975  -36.8589 C   0  0  1  0  0  0  0  0  0  0  0  0
  -11.5346   14.0341  -37.6059 C   0  0  2  0  0  0  0  0  0  0  0  0
   -9.3045   14.9194  -37.2912 C   0  0  0  0  0  0  0  0  0  0  0  0
  -12.6323   16.4203  -38.9332 C   0  0  1  0  0  0  0  0  0  0  0  0
  -12.5341   15.1169  -39.6474 C   0  0  2  0  0  0  0  0  0  0  0  0
   -8.8337   14.2484  -36.0014 C   0  0  0  0  0  0  0  0  0  0  0  0
  -13.6047   16.0318  -39.9112 O   0  0  0  0  0  0  0  0  0  0  0  0
   -7.7208   12.9174  -36.3714 Cl  0  0  0  0  0  0  0  0  0  0  0  0
  -13.9417   14.2393  -36.6863 H   0  0  0  0  0  0  0  0  0  0  0  0
  -14.7418   14.9588  -38.1091 H   0  0  0  0  0  0  0  0  0  0  0  0
  -10.2667   16.8213  -37.8120 H   0  0  0  0  0  0  0  0  0  0  0  0
  -10.0160   16.5683  -36.0851 H   0  0  0  0  0  0  0  0  0  0  0  0
   -9.7438   12.9486  -38.0680 H   0  0  0  0  0  0  0  0  0  0  0  0
  -10.0722   14.2346  -39.2288 H   0  0  0  0  0  0  0  0  0  0  0  0
  -13.3463   16.8400  -36.8925 H   0  0  0  0  0  0  0  0  0  0  0  0
  -13.0646   13.0992  -38.9427 H   0  0  0  0  0  0  0  0  0  0  0  0
  -11.8273   15.2160  -35.7874 H   0  0  0  0  0  0  0  0  0  0  0  0
  -11.6768   13.2095  -36.8865 H   0  0  0  0  0  0  0  0  0  0  0  0
   -8.4372   15.2767  -37.8241 H   0  0  0  0  0  0  0  0  0  0  0  0
  -11.9610   17.2362  -39.1325 H   0  0  0  0  0  0  0  0  0  0  0  0
  -11.7849   14.9293  -40.3955 H   0  0  0  0  0  0  0  0  0  0  0  0
   -9.6837   13.8412  -35.4521 H   0  0  0  0  0  0  0  0  0  0  0  0
   -8.3105   14.9661  -35.3681 H   0  0  0  0  0  0  0  0  0  0  0  0
  1  4  1  0  0  0  0
  1  5  1  0  0  0  0
  2  6  1  6  0  0  0
  2  8  1  0  0  0  0
  3  7  1  6  0  0  0
  3  8  1  0  0  0  0
  4  6  1  0  0  0  0
  4  9  1  6  0  0  0
  5  7  1  0  0  0  0
  5 10  1  6  0  0  0
  6  7  1  0  0  0  0
  8 11  1  0  0  0  0
  9 10  1  0  0  0  0
  9 12  1  0  0  0  0
 10 12  1  0  0  0  0
 11 13  1  0  0  0  0
  1 14  1  0  0  0  0
  1 15  1  0  0  0  0
  2 16  1  0  0  0  0
  2 17  1  0  0  0  0
  3 18  1  0  0  0  0
  3 19  1  0  0  0  0
  4 20  1  0  0  0  0
  5 21  1  0  0  0  0
  6 22  1  0  0  0  0
  7 23  1  0  0  0  0
  8 24  1  0  0  0  0
  9 25  1  0  0  0  0
 10 26  1  0  0  0  0
 11 27  1  0  0  0  0
 11 28  1  0  0  0  0
M  END
> <id>
EN300-45217086

> <smiles>
ClCC1C[C@H]2[C@@H]3C[C@@H](C4OC43)[C@H]2C1

> <IUPAC Name>
(1R,2S,6R,7S)-4-(chloromethyl)-9-oxatetracyclo[5.3.1.0^{2,6}.0^{8,10}]undecane

> <URL>
https://www.enaminestore.com/catalog/EN300-45217086

> <ROCS_ShapeQuery>
__x1247relevant_x1083L0AP1_x1305L0BP1_

> <ROCS_TanimotoCombo>
0.740 

> <ROCS_ShapeTanimoto>
0.477 

> <ROCS_ColorTanimoto>
0.263 

> <ROCS_RefTversky>
0.401 

> <ROCS_RefColorTversky>
0.334 

> <ROCS_RefTverskyCombo>
0.735 

> <ROCS_FitTversky>
1.661 

> <ROCS_FitColorTversky>
0.552 

> <ROCS_FitTverskyCombo>
2.213 

> <ROCS_ColorScore>
-11.061

> <ROCS_Overlap>
1179.051

> <ROCS_Rank>
122                 

$$$$
untitled-dbase-151765_3
  -OEChem-06232314393D

 26 27  0     1  0  0  0  0  0999 V2000
  -13.3654   16.2396  -40.2857 C   0  0  0  0  0  0  0  0  0  0  0  0
   -9.8693   14.7617  -37.1061 C   0  0  0  0  0  0  0  0  0  0  0  0
  -13.8463   15.3809  -37.5063 C   0  0  0  0  0  0  0  0  0  0  0  0
  -12.7652   16.4777  -37.4170 C   0  0  0  0  0  0  0  0  0  0  0  0
  -12.0546   13.6707  -37.8539 C   0  0  0  0  0  0  0  0  0  0  0  0
  -12.5004   15.3068  -39.4974 C   0  0  2  0  0  0  0  0  0  0  0  0
  -13.2469   14.3829  -38.5250 C   0  0  2  0  0  0  0  0  0  0  0  0
  -11.6812   15.9578  -38.3808 C   0  0  2  0  0  0  0  0  0  0  0  0
   -9.4947   13.4554  -36.4545 C   0  0  0  0  0  0  0  0  0  0  0  0
  -11.0928   14.7719  -37.7407 N   0  0  0  0  0  0  0  0  0  0  0  0
  -14.5874   16.2286  -40.2901 O   0  0  0  0  0  0  0  0  0  0  0  0
   -9.1106   15.7301  -37.0515 O   0  0  0  0  0  0  0  0  0  0  0  0
  -12.6073   17.1046  -41.0029 O   0  0  0  0  0  0  0  0  0  0  0  0
  -10.4654   12.5417  -36.6344 F   0  0  0  0  0  0  0  0  0  0  0  0
   -8.3566   12.9705  -36.9829 F   0  0  0  0  0  0  0  0  0  0  0  0
   -9.3089   13.6178  -35.1320 F   0  0  0  0  0  0  0  0  0  0  0  0
  -14.0382   14.9171  -36.5334 H   0  0  0  0  0  0  0  0  0  0  0  0
  -14.7879   15.8042  -37.8730 H   0  0  0  0  0  0  0  0  0  0  0  0
  -13.1677   17.4401  -37.7519 H   0  0  0  0  0  0  0  0  0  0  0  0
  -12.3923   16.6058  -36.3953 H   0  0  0  0  0  0  0  0  0  0  0  0
  -12.2855   13.2553  -36.8690 H   0  0  0  0  0  0  0  0  0  0  0  0
  -11.6219   12.8950  -38.4939 H   0  0  0  0  0  0  0  0  0  0  0  0
  -11.8744   14.7541  -40.2086 H   0  0  0  0  0  0  0  0  0  0  0  0
  -13.9822   13.7086  -38.9681 H   0  0  0  0  0  0  0  0  0  0  0  0
  -10.9405   16.7053  -38.6722 H   0  0  0  0  0  0  0  0  0  0  0  0
  -11.6481   16.9526  -40.8647 H   0  0  0  0  0  0  0  0  0  0  0  0
  1  6  1  6  0  0  0
  1 11  2  0  0  0  0
  1 13  1  0  0  0  0
  2  9  1  0  0  0  0
  2 10  1  0  0  0  0
  2 12  2  0  0  0  0
  3  4  1  0  0  0  0
  3  7  1  6  0  0  0
  4  8  1  6  0  0  0
  5  7  1  0  0  0  0
  5 10  1  0  0  0  0
  6  7  1  0  0  0  0
  6  8  1  0  0  0  0
  8 10  1  0  0  0  0
  9 14  1  0  0  0  0
  9 15  1  0  0  0  0
  9 16  1  0  0  0  0
  3 17  1  0  0  0  0
  3 18  1  0  0  0  0
  4 19  1  0  0  0  0
  4 20  1  0  0  0  0
  5 21  1  0  0  0  0
  5 22  1  0  0  0  0
  6 23  1  0  0  0  0
  7 24  1  0  0  0  0
  8 25  1  0  0  0  0
 13 26  1  0  0  0  0
M  END
> <id>
EN300-7004256

> <smiles>
OC(=O)[C@@H]1[C@@H]2CC[C@H]1N(C2)C(=O)C(F)(F)F |&1:3,4,7,r|

> <IUPAC Name>
rac-(1R,4S,7R)-2-(trifluoroacetyl)-2-azabicyclo[2.2.1]heptane-7-carboxylic acid

> <CAS>
2679831-69-5

> <URL>
https://www.enaminestore.com/catalog/EN300-7004256

> <ROCS_ShapeQuery>
__x1247relevant_x1083L0AP1_x1305L0BP1_

> <ROCS_TanimotoCombo>
0.740 

> <ROCS_ShapeTanimoto>
0.519 

> <ROCS_ColorTanimoto>
0.221 

> <ROCS_RefTversky>
0.441 

> <ROCS_RefColorTversky>
0.245 

> <ROCS_RefTverskyCombo>
0.686 

> <ROCS_FitTversky>
1.517 

> <ROCS_FitColorTversky>
0.693 

> <ROCS_FitTverskyCombo>
2.211 

> <ROCS_ColorScore>
-8.011

> <ROCS_Overlap>
1299.070

> <ROCS_Rank>
123                 

$$$$
untitled-dbase-77539_96
  -OEChem-06232314393D

 34 35  0     1  0  0  0  0  0999 V2000
  -13.2622   16.4417  -40.3127 C   0  0  0  0  0  0  0  0  0  0  0  0
   -9.8846   14.8705  -37.0208 C   0  0  0  0  0  0  0  0  0  0  0  0
  -12.7816   14.2725  -39.0616 C   0  0  0  0  0  0  0  0  0  0  0  0
  -11.3095   16.1173  -38.7168 C   0  0  0  0  0  0  0  0  0  0  0  0
  -13.2994   15.0828  -36.9447 C   0  0  0  0  0  0  0  0  0  0  0  0
  -12.2442   14.2225  -37.6418 C   0  0  2  0  0  0  0  0  0  0  0  0
  -12.7682   15.7969  -39.0636 C   0  0  1  0  0  0  0  0  0  0  0  0
  -10.3525   15.4165  -34.5023 C   0  0  0  0  0  0  0  0  0  0  0  0
  -10.6485   12.9597  -34.0713 C   0  0  0  0  0  0  0  0  0  0  0  0
   -8.3472   13.8969  -34.4368 C   0  0  0  0  0  0  0  0  0  0  0  0
   -9.8251   14.0150  -34.8064 C   0  0  0  0  0  0  0  0  0  0  0  0
  -11.0387   15.0509  -37.7524 N   0  0  0  0  0  0  0  0  0  0  0  0
  -12.6065   17.1888  -41.0235 O   0  0  0  0  0  0  0  0  0  0  0  0
   -8.9019   15.6049  -37.0854 O   0  0  0  0  0  0  0  0  0  0  0  0
  -13.5724   16.1320  -37.9169 O   0  0  0  0  0  0  0  0  0  0  0  0
  -14.5478   16.0889  -40.5574 O   0  0  0  0  0  0  0  0  0  0  0  0
   -9.9649   13.7703  -36.2104 O   0  0  0  0  0  0  0  0  0  0  0  0
  -12.1206   13.8197  -39.8083 H   0  0  0  0  0  0  0  0  0  0  0  0
  -13.7876   13.8476  -39.1508 H   0  0  0  0  0  0  0  0  0  0  0  0
  -10.6205   16.0206  -39.5619 H   0  0  0  0  0  0  0  0  0  0  0  0
  -11.1775   17.0877  -38.2284 H   0  0  0  0  0  0  0  0  0  0  0  0
  -14.2309   14.5354  -36.7685 H   0  0  0  0  0  0  0  0  0  0  0  0
  -12.9557   15.5307  -36.0076 H   0  0  0  0  0  0  0  0  0  0  0  0
  -12.0627   13.2440  -37.1954 H   0  0  0  0  0  0  0  0  0  0  0  0
   -9.7640   16.1769  -35.0282 H   0  0  0  0  0  0  0  0  0  0  0  0
  -11.4019   15.5249  -34.7952 H   0  0  0  0  0  0  0  0  0  0  0  0
  -10.2662   15.6434  -33.4335 H   0  0  0  0  0  0  0  0  0  0  0  0
  -10.2736   11.9526  -34.2866 H   0  0  0  0  0  0  0  0  0  0  0  0
  -11.6927   12.9780  -34.4038 H   0  0  0  0  0  0  0  0  0  0  0  0
  -10.6270   13.1133  -32.9875 H   0  0  0  0  0  0  0  0  0  0  0  0
   -7.9686   12.8917  -34.6548 H   0  0  0  0  0  0  0  0  0  0  0  0
   -7.7356   14.6225  -34.9829 H   0  0  0  0  0  0  0  0  0  0  0  0
   -8.2003   14.0563  -33.3624 H   0  0  0  0  0  0  0  0  0  0  0  0
  -14.8981   15.4817  -39.8711 H   0  0  0  0  0  0  0  0  0  0  0  0
  1  7  1  6  0  0  0
  1 13  2  0  0  0  0
  1 16  1  0  0  0  0
  2 12  1  0  0  0  0
  2 14  2  0  0  0  0
  2 17  1  0  0  0  0
  3  6  1  0  0  0  0
  3  7  1  0  0  0  0
  4  7  1  0  0  0  0
  4 12  1  0  0  0  0
  5  6  1  1  0  0  0
  5 15  1  0  0  0  0
  6 12  1  0  0  0  0
  7 15  1  0  0  0  0
  8 11  1  0  0  0  0
  9 11  1  0  0  0  0
 10 11  1  0  0  0  0
 11 17  1  0  0  0  0
  3 18  1  0  0  0  0
  3 19  1  0  0  0  0
  4 20  1  0  0  0  0
  4 21  1  0  0  0  0
  5 22  1  0  0  0  0
  5 23  1  0  0  0  0
  6 24  1  0  0  0  0
  8 25  1  0  0  0  0
  8 26  1  0  0  0  0
  8 27  1  0  0  0  0
  9 28  1  0  0  0  0
  9 29  1  0  0  0  0
  9 30  1  0  0  0  0
 10 31  1  0  0  0  0
 10 32  1  0  0  0  0
 10 33  1  0  0  0  0
 16 34  1  0  0  0  0
M  END
> <id>
EN300-6498224

> <smiles>
CC(C)(C)OC(=O)N1C[C@]2(C[C@@H]1CO2)C(=O)O

> <MDLNUMBER>
MFCD31802547

> <IUPAC Name>
(1R,4R)-5-[(tert-butoxy)carbonyl]-2-oxa-5-azabicyclo[2.2.1]heptane-1-carboxylic acid

> <CAS>
2408936-49-0

> <Purity>
95

> <URL>
https://www.enaminestore.com/catalog/EN300-6498224

> <ROCS_ShapeQuery>
__x1247relevant_x1083L0AP1_x1305L0BP1_

> <ROCS_TanimotoCombo>
0.740 

> <ROCS_ShapeTanimoto>
0.521 

> <ROCS_ColorTanimoto>
0.219 

> <ROCS_RefTversky>
0.446 

> <ROCS_RefColorTversky>
0.253 

> <ROCS_RefTverskyCombo>
0.699 

> <ROCS_FitTversky>
1.479 

> <ROCS_FitColorTversky>
0.614 

> <ROCS_FitTverskyCombo>
2.093 

> <ROCS_ColorScore>
-8.304

> <ROCS_Overlap>
1315.512

> <ROCS_Rank>
124                 

$$$$
untitled-dbase-151827_4
  -OEChem-06232314393D

 30 32  0     1  0  0  0  0  0999 V2000
   -9.9283   15.1897  -36.8351 C   0  0  0  0  0  0  0  0  0  0  0  0
  -13.6544   14.9334  -40.6234 C   0  0  0  0  0  0  0  0  0  0  0  0
  -13.8591   14.8151  -37.0121 C   0  0  0  0  0  0  0  0  0  0  0  0
  -13.8457   16.3162  -37.3663 C   0  0  0  0  0  0  0  0  0  0  0  0
  -10.5327   15.7947  -39.2426 C   0  0  0  0  0  0  0  0  0  0  0  0
  -11.7477   13.8265  -38.0363 C   0  0  0  0  0  0  0  0  0  0  0  0
  -11.5773   16.4204  -38.3638 C   0  0  1  0  0  0  0  0  0  0  0  0
  -13.2527   14.1049  -38.2361 C   0  0  2  0  0  0  0  0  0  0  0  0
  -13.0573   16.3894  -38.6771 C   0  0  1  0  0  0  0  0  0  0  0  0
  -10.9133   15.1103  -37.9365 C   0  0  1  0  0  0  0  0  0  0  0  0
  -13.8466   13.5071  -41.0685 C   0  0  0  0  0  0  0  0  0  0  0  0
  -13.3844   15.1098  -39.2819 N   0  0  0  0  0  0  0  0  0  0  0  0
   -8.8479   15.7570  -36.8993 O   0  0  0  0  0  0  0  0  0  0  0  0
  -13.7469   15.8555  -41.4354 O   0  0  0  0  0  0  0  0  0  0  0  0
  -10.3859   14.5416  -35.7360 O   0  0  0  0  0  0  0  0  0  0  0  0
  -13.3019   14.6171  -36.0905 H   0  0  0  0  0  0  0  0  0  0  0  0
  -14.8940   14.4911  -36.8529 H   0  0  0  0  0  0  0  0  0  0  0  0
  -14.8750   16.6595  -37.5243 H   0  0  0  0  0  0  0  0  0  0  0  0
  -13.4073   16.9139  -36.5606 H   0  0  0  0  0  0  0  0  0  0  0  0
  -10.8280   15.3375  -40.1785 H   0  0  0  0  0  0  0  0  0  0  0  0
   -9.5690   16.2898  -39.3011 H   0  0  0  0  0  0  0  0  0  0  0  0
  -11.6097   13.2246  -37.1296 H   0  0  0  0  0  0  0  0  0  0  0  0
  -11.3680   13.2239  -38.8709 H   0  0  0  0  0  0  0  0  0  0  0  0
  -11.2956   17.3348  -37.8522 H   0  0  0  0  0  0  0  0  0  0  0  0
  -13.7843   13.1782  -38.4673 H   0  0  0  0  0  0  0  0  0  0  0  0
  -13.3445   17.2362  -39.3069 H   0  0  0  0  0  0  0  0  0  0  0  0
  -14.8963   13.2450  -40.9816 H   0  0  0  0  0  0  0  0  0  0  0  0
  -13.2491   12.8536  -40.4401 H   0  0  0  0  0  0  0  0  0  0  0  0
  -13.5252   13.4094  -42.1010 H   0  0  0  0  0  0  0  0  0  0  0  0
   -9.7453   14.5812  -34.9941 H   0  0  0  0  0  0  0  0  0  0  0  0
  1 10  1  6  0  0  0
  1 13  2  0  0  0  0
  1 15  1  0  0  0  0
  2 11  1  0  0  0  0
  2 12  1  0  0  0  0
  2 14  2  0  0  0  0
  3  4  1  0  0  0  0
  3  8  1  6  0  0  0
  4  9  1  6  0  0  0
  5  7  1  1  0  0  0
  5 10  1  0  0  0  0
  6  8  1  0  0  0  0
  6 10  1  0  0  0  0
  7  9  1  0  0  0  0
  7 10  1  0  0  0  0
  8 12  1  0  0  0  0
  9 12  1  0  0  0  0
  3 16  1  0  0  0  0
  3 17  1  0  0  0  0
  4 18  1  0  0  0  0
  4 19  1  0  0  0  0
  5 20  1  0  0  0  0
  5 21  1  0  0  0  0
  6 22  1  0  0  0  0
  6 23  1  0  0  0  0
  7 24  1  0  0  0  0
  8 25  1  0  0  0  0
  9 26  1  0  0  0  0
 11 27  1  0  0  0  0
 11 28  1  0  0  0  0
 11 29  1  0  0  0  0
 15 30  1  0  0  0  0
M  END
> <id>
EN300-28272803

> <smiles>
CC(=O)N1[C@@H]2CC[C@H]1[C@@H]3C[C@@]3(C2)C(=O)O |&1:4,7,8,10,r|

> <IUPAC Name>
rac-(1R,2S,4R,6S)-9-acetyl-9-azatricyclo[4.2.1.0,2,4]nonane-4-carboxylic acid

> <CAS>
2679940-52-2

> <URL>
https://www.enaminestore.com/catalog/EN300-28272803

> <ROCS_ShapeQuery>
__x1247relevant_x1083L0AP1_x1305L0BP1_

> <ROCS_TanimotoCombo>
0.740 

> <ROCS_ShapeTanimoto>
0.505 

> <ROCS_ColorTanimoto>
0.234 

> <ROCS_RefTversky>
0.427 

> <ROCS_RefColorTversky>
0.276 

> <ROCS_RefTverskyCombo>
0.703 

> <ROCS_FitTversky>
1.575 

> <ROCS_FitColorTversky>
0.608 

> <ROCS_FitTverskyCombo>
2.182 

> <ROCS_ColorScore>
-9.070

> <ROCS_Overlap>
1256.640

> <ROCS_Rank>
125                 

$$$$
untitled-dbase-55900_0
  -OEChem-06232314393D

 37 41  0     1  0  0  0  0  0999 V2000
  -10.0984   15.2926  -36.3475 C   0  0  0  0  0  0  0  0  0  0  0  0
  -13.7759   15.4312  -40.7353 C   0  0  0  0  0  0  0  0  0  0  0  0
  -11.4555   16.3361  -40.5106 C   0  0  0  0  0  0  0  0  0  0  0  0
  -13.3721   17.5429  -39.4554 C   0  0  0  0  0  0  0  0  0  0  0  0
  -11.9047   13.4143  -37.9939 C   0  0  0  0  0  0  0  0  0  0  0  0
  -13.8295   14.6073  -36.9414 C   0  0  0  0  0  0  0  0  0  0  0  0
  -11.5400   15.5491  -36.6818 C   0  0  2  0  0  0  0  0  0  0  0  0
  -12.9340   16.7131  -40.6692 C   0  0  0  0  0  0  0  0  0  0  0  0
  -12.3445   14.2406  -36.7734 C   0  0  0  0  0  0  0  0  0  0  0  0
  -13.5881   14.6053  -39.4530 C   0  0  0  0  0  0  0  0  0  0  0  0
  -11.2485   15.5165  -39.2260 C   0  0  2  0  0  0  0  0  0  0  0  0
  -13.1814   16.7348  -38.1627 C   0  0  1  0  0  0  0  0  0  0  0  0
  -12.0960   14.2223  -39.2862 C   0  0  1  0  0  0  0  0  0  0  0  0
  -14.0309   15.4361  -38.2225 C   0  0  2  0  0  0  0  0  0  0  0  0
  -11.6843   16.3508  -37.9897 C   0  0  0  0  0  0  0  0  0  0  0  0
   -9.1471   15.6363  -37.0331 O   0  0  0  0  0  0  0  0  0  0  0  0
   -9.9911   14.6209  -35.1750 O   0  0  0  0  0  0  0  0  0  0  0  0
  -14.8353   15.6852  -40.8633 H   0  0  0  0  0  0  0  0  0  0  0  0
  -13.4838   14.8357  -41.6088 H   0  0  0  0  0  0  0  0  0  0  0  0
  -11.1221   15.7559  -41.3799 H   0  0  0  0  0  0  0  0  0  0  0  0
  -10.8384   17.2424  -40.4782 H   0  0  0  0  0  0  0  0  0  0  0  0
  -12.7884   18.4703  -39.4050 H   0  0  0  0  0  0  0  0  0  0  0  0
  -14.4242   17.8348  -39.5611 H   0  0  0  0  0  0  0  0  0  0  0  0
  -10.8553   13.1131  -37.8935 H   0  0  0  0  0  0  0  0  0  0  0  0
  -12.4909   12.4883  -38.0461 H   0  0  0  0  0  0  0  0  0  0  0  0
  -14.4383   13.6959  -36.9868 H   0  0  0  0  0  0  0  0  0  0  0  0
  -14.1763   15.1775  -36.0709 H   0  0  0  0  0  0  0  0  0  0  0  0
  -11.9225   16.1508  -35.8463 H   0  0  0  0  0  0  0  0  0  0  0  0
  -13.0724   17.2955  -41.5868 H   0  0  0  0  0  0  0  0  0  0  0  0
  -12.2123   13.6438  -35.8633 H   0  0  0  0  0  0  0  0  0  0  0  0
  -14.1972   13.6954  -39.5230 H   0  0  0  0  0  0  0  0  0  0  0  0
  -10.1861   15.2566  -39.1441 H   0  0  0  0  0  0  0  0  0  0  0  0
  -13.5057   17.3469  -37.3116 H   0  0  0  0  0  0  0  0  0  0  0  0
  -11.7759   13.6112  -40.1394 H   0  0  0  0  0  0  0  0  0  0  0  0
  -15.0931   15.6952  -38.3154 H   0  0  0  0  0  0  0  0  0  0  0  0
  -11.0754   17.2627  -37.9347 H   0  0  0  0  0  0  0  0  0  0  0  0
   -9.0558   14.4418  -34.9397 H   0  0  0  0  0  0  0  0  0  0  0  0
  1  7  1  0  0  0  0
  1 16  2  0  0  0  0
  1 17  1  0  0  0  0
  2  8  1  0  0  0  0
  2 10  1  0  0  0  0
  3  8  1  0  0  0  0
  3 11  1  0  0  0  0
  4  8  1  0  0  0  0
  4 12  1  0  0  0  0
  5  9  1  0  0  0  0
  5 13  1  0  0  0  0
  6  9  1  0  0  0  0
  6 14  1  0  0  0  0
  7  9  1  0  0  0  0
  7 15  1  0  0  0  0
 10 13  1  0  0  0  0
 10 14  1  0  0  0  0
 11 13  1  0  0  0  0
 11 15  1  0  0  0  0
 12 14  1  0  0  0  0
 12 15  1  0  0  0  0
  2 18  1  0  0  0  0
  2 19  1  0  0  0  0
  3 20  1  0  0  0  0
  3 21  1  0  0  0  0
  4 22  1  0  0  0  0
  4 23  1  0  0  0  0
  5 24  1  0  0  0  0
  5 25  1  0  0  0  0
  6 26  1  0  0  0  0
  6 27  1  0  0  0  0
  7 28  1  0  0  0  0
  8 29  1  0  0  0  0
  9 30  1  0  0  0  0
 10 31  1  0  0  0  0
 11 32  1  0  0  0  0
 12 33  1  0  0  0  0
 13 34  1  0  0  0  0
 14 35  1  0  0  0  0
 15 36  1  0  0  0  0
 17 37  1  0  0  0  0
M  END
> <id>
EN300-7500004

> <smiles>
OC(=O)C1C2CC3C4CC5CC3C1C(C5)C4C2

> <IUPAC Name>
pentacyclo[7.3.1.1^{4,12}.0^{2,7}.0^{6,11}]tetradecane-3-carboxylic acid

> <CAS>
78010-42-1

> <Purity>
95

> <URL>
https://www.enaminestore.com/catalog/EN300-7500004

> <MP>
165-166

> <ROCS_ShapeQuery>
__x1247relevant_x1083L0AP1_x1305L0BP1_

> <ROCS_TanimotoCombo>
0.739 

> <ROCS_ShapeTanimoto>
0.551 

> <ROCS_ColorTanimoto>
0.188 

> <ROCS_RefTversky>
0.465 

> <ROCS_RefColorTversky>
0.235 

> <ROCS_RefTverskyCombo>
0.701 

> <ROCS_FitTversky>
1.504 

> <ROCS_FitColorTversky>
0.485 

> <ROCS_FitTverskyCombo>
1.988 

> <ROCS_ColorScore>
-7.737

> <ROCS_Overlap>
1373.500

> <ROCS_Rank>
126                 

$$$$
untitled-dbase-176752_22
  -OEChem-06232314393D

 25 26  0     1  0  0  0  0  0999 V2000
   -9.8319   15.2745  -36.4951 C   0  0  0  0  0  0  0  0  0  0  0  0
  -13.2569   16.5337  -39.1099 C   0  0  0  0  0  0  0  0  0  0  0  0
  -14.0515   16.0903  -37.8934 C   0  0  0  0  0  0  0  0  0  0  0  0
  -10.9800   15.4704  -38.7038 C   0  0  0  0  0  0  0  0  0  0  0  0
  -12.2764   14.7842  -36.6226 C   0  0  0  0  0  0  0  0  0  0  0  0
  -12.3428   15.3492  -39.4105 C   0  0  1  0  0  0  0  0  0  0  0  0
  -13.4896   14.7112  -37.5693 C   0  0  2  0  0  0  0  0  0  0  0  0
  -10.9253   14.7141  -37.3611 C   0  0  0  0  0  0  0  0  0  0  0  0
  -10.5728   13.3099  -37.6033 N   0  0  0  0  0  0  0  0  0  0  0  0
   -8.7992   15.7808  -36.9083 O   0  0  0  0  0  0  0  0  0  0  0  0
  -13.0559   14.2310  -38.8539 O   0  0  0  0  0  0  0  0  0  0  0  0
  -10.1444   15.1405  -35.1830 O   0  0  0  0  0  0  0  0  0  0  0  0
  -13.9472   16.6882  -39.9482 H   0  0  0  0  0  0  0  0  0  0  0  0
  -12.7150   17.4728  -38.9660 H   0  0  0  0  0  0  0  0  0  0  0  0
  -13.9993   16.7889  -37.0540 H   0  0  0  0  0  0  0  0  0  0  0  0
  -15.1087   16.0023  -38.1714 H   0  0  0  0  0  0  0  0  0  0  0  0
  -10.2322   15.0369  -39.3832 H   0  0  0  0  0  0  0  0  0  0  0  0
  -10.7206   16.5295  -38.5805 H   0  0  0  0  0  0  0  0  0  0  0  0
  -12.3492   15.6845  -35.9988 H   0  0  0  0  0  0  0  0  0  0  0  0
  -12.3548   13.9216  -35.9448 H   0  0  0  0  0  0  0  0  0  0  0  0
  -12.2045   15.2118  -40.4824 H   0  0  0  0  0  0  0  0  0  0  0  0
  -14.2545   14.0530  -37.1597 H   0  0  0  0  0  0  0  0  0  0  0  0
  -11.3053   12.7460  -37.2470 H   0  0  0  0  0  0  0  0  0  0  0  0
  -10.4725   13.1858  -38.5811 H   0  0  0  0  0  0  0  0  0  0  0  0
   -9.4413   15.4991  -34.6004 H   0  0  0  0  0  0  0  0  0  0  0  0
  1  8  1  0  0  0  0
  1 10  2  0  0  0  0
  1 12  1  0  0  0  0
  2  3  1  0  0  0  0
  2  6  1  0  0  0  0
  3  7  1  0  0  0  0
  4  6  1  0  0  0  0
  4  8  1  0  0  0  0
  5  7  1  0  0  0  0
  5  8  1  0  0  0  0
  6 11  1  0  0  0  0
  7 11  1  0  0  0  0
  8  9  1  0  0  0  0
  2 13  1  0  0  0  0
  2 14  1  0  0  0  0
  3 15  1  0  0  0  0
  3 16  1  0  0  0  0
  4 17  1  0  0  0  0
  4 18  1  0  0  0  0
  5 19  1  0  0  0  0
  5 20  1  0  0  0  0
  6 21  1  0  0  0  0
  7 22  1  0  0  0  0
  9 23  1  0  0  0  0
  9 24  1  0  0  0  0
 12 25  1  0  0  0  0
M  END
> <id>
EN300-25382033

> <smiles>
NC1(CC2CCC(C1)O2)C(=O)O

> <MDLNUMBER>
MFCD31654894

> <IUPAC Name>
3-amino-8-oxabicyclo[3.2.1]octane-3-carboxylic acid

> <URL>
https://www.enaminestore.com/catalog/EN300-25382033

> <ROCS_ShapeQuery>
__x1247relevant_x1083L0AP1_x1305L0BP1_

> <ROCS_TanimotoCombo>
0.739 

> <ROCS_ShapeTanimoto>
0.464 

> <ROCS_ColorTanimoto>
0.275 

> <ROCS_RefTversky>
0.389 

> <ROCS_RefColorTversky>
0.301 

> <ROCS_RefTverskyCombo>
0.690 

> <ROCS_FitTversky>
1.720 

> <ROCS_FitColorTversky>
0.763 

> <ROCS_FitTverskyCombo>
2.483 

> <ROCS_ColorScore>
-9.857

> <ROCS_Overlap>
1141.517

> <ROCS_Rank>
127                 

$$$$
untitled-dbase-110422_5
  -OEChem-06232314393D

 34 36  0     1  0  0  0  0  0999 V2000
  -12.3399   16.6773  -40.7226 C   0  0  0  0  0  0  0  0  0  0  0  0
  -13.8316   15.9063  -37.2232 C   0  0  0  0  0  0  0  0  0  0  0  0
  -13.6244   13.7549  -38.5200 C   0  0  0  0  0  0  0  0  0  0  0  0
  -11.9719   14.3053  -36.7197 C   0  0  0  0  0  0  0  0  0  0  0  0
  -11.4839   16.5002  -37.8366 C   0  0  0  0  0  0  0  0  0  0  0  0
  -11.2769   14.3519  -39.1316 C   0  0  0  0  0  0  0  0  0  0  0  0
  -13.4459   14.4184  -37.1427 C   0  0  0  0  0  0  0  0  0  0  0  0
  -12.9603   16.6259  -38.2776 C   0  0  1  0  0  0  0  0  0  0  0  0
  -12.7531   14.4744  -39.5744 C   0  0  2  0  0  0  0  0  0  0  0  0
  -13.1581   15.9688  -39.6686 C   0  0  0  0  0  0  0  0  0  0  0  0
  -11.0640   15.0143  -37.7506 C   0  0  0  0  0  0  0  0  0  0  0  0
   -9.5966   14.9007  -37.3275 C   0  0  0  0  0  0  0  0  0  0  0  0
  -14.5295   16.1302  -40.1637 N   0  0  0  0  0  0  0  0  0  0  0  0
  -11.1926   16.3908  -41.0304 O   0  0  0  0  0  0  0  0  0  0  0  0
  -13.0524   17.6838  -41.2851 O   0  0  0  0  0  0  0  0  0  0  0  0
   -9.2428   13.6102  -37.2517 F   0  0  0  0  0  0  0  0  0  0  0  0
   -8.8147   15.5172  -38.2245 F   0  0  0  0  0  0  0  0  0  0  0  0
   -9.4227   15.4733  -36.1282 F   0  0  0  0  0  0  0  0  0  0  0  0
  -14.8969   16.0091  -37.4577 H   0  0  0  0  0  0  0  0  0  0  0  0
  -13.6894   16.3786  -36.2427 H   0  0  0  0  0  0  0  0  0  0  0  0
  -13.3315   12.6987  -38.4608 H   0  0  0  0  0  0  0  0  0  0  0  0
  -14.6809   13.7582  -38.8089 H   0  0  0  0  0  0  0  0  0  0  0  0
  -11.8378   14.7503  -35.7251 H   0  0  0  0  0  0  0  0  0  0  0  0
  -11.6930   13.2476  -36.6301 H   0  0  0  0  0  0  0  0  0  0  0  0
  -10.8313   17.0402  -38.5335 H   0  0  0  0  0  0  0  0  0  0  0  0
  -11.3534   16.9846  -36.8596 H   0  0  0  0  0  0  0  0  0  0  0  0
  -10.9975   13.2909  -39.0866 H   0  0  0  0  0  0  0  0  0  0  0  0
  -10.6160   14.8089  -39.8783 H   0  0  0  0  0  0  0  0  0  0  0  0
  -14.0784   13.9128  -36.4045 H   0  0  0  0  0  0  0  0  0  0  0  0
  -13.2289   17.6896  -38.3094 H   0  0  0  0  0  0  0  0  0  0  0  0
  -12.8719   13.9790  -40.5463 H   0  0  0  0  0  0  0  0  0  0  0  0
  -14.7191   17.1006  -40.2228 H   0  0  0  0  0  0  0  0  0  0  0  0
  -14.5825   15.7026  -41.0555 H   0  0  0  0  0  0  0  0  0  0  0  0
  -12.5370   18.1582  -41.9719 H   0  0  0  0  0  0  0  0  0  0  0  0
  1 10  1  0  0  0  0
  1 14  2  0  0  0  0
  1 15  1  0  0  0  0
  2  7  1  0  0  0  0
  2  8  1  0  0  0  0
  3  7  1  0  0  0  0
  3  9  1  0  0  0  0
  4  7  1  0  0  0  0
  4 11  1  0  0  0  0
  5  8  1  0  0  0  0
  5 11  1  0  0  0  0
  6  9  1  0  0  0  0
  6 11  1  0  0  0  0
  8 10  1  0  0  0  0
  9 10  1  0  0  0  0
 10 13  1  6  0  0  0
 11 12  1  1  0  0  0
 12 16  1  0  0  0  0
 12 17  1  0  0  0  0
 12 18  1  0  0  0  0
  2 19  1  0  0  0  0
  2 20  1  0  0  0  0
  3 21  1  0  0  0  0
  3 22  1  0  0  0  0
  4 23  1  0  0  0  0
  4 24  1  0  0  0  0
  5 25  1  0  0  0  0
  5 26  1  0  0  0  0
  6 27  1  0  0  0  0
  6 28  1  0  0  0  0
  7 29  1  0  0  0  0
  8 30  1  0  0  0  0
  9 31  1  0  0  0  0
 13 32  1  0  0  0  0
 13 33  1  0  0  0  0
 15 34  1  0  0  0  0
M  END
> <id>
EN300-53523

> <smiles>
N[C@]1(C2CC3CC1C[C@](C3)(C2)C(F)(F)F)C(=O)O

> <IUPAC Name>
(2s,5r)-2-amino-5-(trifluoromethyl)adamantane-2-carboxylic acid

> <URL>
https://www.enaminestore.com/catalog/EN300-53523

> <ROCS_ShapeQuery>
__x1247relevant_x1083L0AP1_x1305L0BP1_

> <ROCS_TanimotoCombo>
0.739 

> <ROCS_ShapeTanimoto>
0.562 

> <ROCS_ColorTanimoto>
0.177 

> <ROCS_RefTversky>
0.475 

> <ROCS_RefColorTversky>
0.208 

> <ROCS_RefTverskyCombo>
0.683 

> <ROCS_FitTversky>
1.482 

> <ROCS_FitColorTversky>
0.541 

> <ROCS_FitTverskyCombo>
2.023 

> <ROCS_ColorScore>
-6.806

> <ROCS_Overlap>
1404.116

> <ROCS_Rank>
128                 

$$$$
untitled-dbase-110660_5
  -OEChem-06232314393D

 34 36  0     1  0  0  0  0  0999 V2000
  -12.3399   16.6773  -40.7226 C   0  0  0  0  0  0  0  0  0  0  0  0
  -13.8316   15.9063  -37.2232 C   0  0  0  0  0  0  0  0  0  0  0  0
  -13.6244   13.7549  -38.5200 C   0  0  0  0  0  0  0  0  0  0  0  0
  -11.9719   14.3053  -36.7197 C   0  0  0  0  0  0  0  0  0  0  0  0
  -11.4839   16.5002  -37.8366 C   0  0  0  0  0  0  0  0  0  0  0  0
  -11.2769   14.3519  -39.1316 C   0  0  0  0  0  0  0  0  0  0  0  0
  -13.4459   14.4184  -37.1427 C   0  0  0  0  0  0  0  0  0  0  0  0
  -12.9603   16.6259  -38.2776 C   0  0  1  0  0  0  0  0  0  0  0  0
  -12.7531   14.4744  -39.5744 C   0  0  2  0  0  0  0  0  0  0  0  0
  -13.1581   15.9688  -39.6686 C   0  0  0  0  0  0  0  0  0  0  0  0
  -11.0640   15.0143  -37.7506 C   0  0  0  0  0  0  0  0  0  0  0  0
   -9.5966   14.9007  -37.3275 C   0  0  0  0  0  0  0  0  0  0  0  0
  -14.5295   16.1302  -40.1637 N   0  0  0  0  0  0  0  0  0  0  0  0
  -11.1926   16.3908  -41.0304 O   0  0  0  0  0  0  0  0  0  0  0  0
  -13.0524   17.6838  -41.2851 O   0  0  0  0  0  0  0  0  0  0  0  0
   -9.2428   13.6102  -37.2517 F   0  0  0  0  0  0  0  0  0  0  0  0
   -8.8147   15.5172  -38.2245 F   0  0  0  0  0  0  0  0  0  0  0  0
   -9.4227   15.4733  -36.1282 F   0  0  0  0  0  0  0  0  0  0  0  0
  -14.8969   16.0091  -37.4577 H   0  0  0  0  0  0  0  0  0  0  0  0
  -13.6894   16.3786  -36.2427 H   0  0  0  0  0  0  0  0  0  0  0  0
  -13.3315   12.6987  -38.4608 H   0  0  0  0  0  0  0  0  0  0  0  0
  -14.6809   13.7582  -38.8089 H   0  0  0  0  0  0  0  0  0  0  0  0
  -11.8378   14.7503  -35.7251 H   0  0  0  0  0  0  0  0  0  0  0  0
  -11.6930   13.2476  -36.6301 H   0  0  0  0  0  0  0  0  0  0  0  0
  -10.8313   17.0402  -38.5335 H   0  0  0  0  0  0  0  0  0  0  0  0
  -11.3534   16.9846  -36.8596 H   0  0  0  0  0  0  0  0  0  0  0  0
  -10.9975   13.2909  -39.0866 H   0  0  0  0  0  0  0  0  0  0  0  0
  -10.6160   14.8089  -39.8783 H   0  0  0  0  0  0  0  0  0  0  0  0
  -14.0784   13.9128  -36.4045 H   0  0  0  0  0  0  0  0  0  0  0  0
  -13.2289   17.6896  -38.3094 H   0  0  0  0  0  0  0  0  0  0  0  0
  -12.8719   13.9790  -40.5463 H   0  0  0  0  0  0  0  0  0  0  0  0
  -14.7191   17.1006  -40.2228 H   0  0  0  0  0  0  0  0  0  0  0  0
  -14.5825   15.7026  -41.0555 H   0  0  0  0  0  0  0  0  0  0  0  0
  -12.5370   18.1582  -41.9719 H   0  0  0  0  0  0  0  0  0  0  0  0
  1 10  1  0  0  0  0
  1 14  2  0  0  0  0
  1 15  1  0  0  0  0
  2  7  1  0  0  0  0
  2  8  1  0  0  0  0
  3  7  1  0  0  0  0
  3  9  1  0  0  0  0
  4  7  1  0  0  0  0
  4 11  1  0  0  0  0
  5  8  1  0  0  0  0
  5 11  1  0  0  0  0
  6  9  1  0  0  0  0
  6 11  1  0  0  0  0
  8 10  1  0  0  0  0
  9 10  1  0  0  0  0
 10 13  1  6  0  0  0
 11 12  1  1  0  0  0
 12 16  1  0  0  0  0
 12 17  1  0  0  0  0
 12 18  1  0  0  0  0
  2 19  1  0  0  0  0
  2 20  1  0  0  0  0
  3 21  1  0  0  0  0
  3 22  1  0  0  0  0
  4 23  1  0  0  0  0
  4 24  1  0  0  0  0
  5 25  1  0  0  0  0
  5 26  1  0  0  0  0
  6 27  1  0  0  0  0
  6 28  1  0  0  0  0
  7 29  1  0  0  0  0
  8 30  1  0  0  0  0
  9 31  1  0  0  0  0
 13 32  1  0  0  0  0
 13 33  1  0  0  0  0
 15 34  1  0  0  0  0
M  END
> <id>
EN300-88783

> <smiles>
Cl.N[C@]1(C2CC3CC1C[C@](C3)(C2)C(F)(F)F)C(=O)O

> <IUPAC Name>
(2s,5r)-2-amino-5-(trifluoromethyl)adamantane-2-carboxylic acid hydrochloride

> <URL>
https://www.enaminestore.com/catalog/EN300-88783

> <Saltdate>
Cl

> <ROCS_ShapeQuery>
__x1247relevant_x1083L0AP1_x1305L0BP1_

> <ROCS_TanimotoCombo>
0.739 

> <ROCS_ShapeTanimoto>
0.562 

> <ROCS_ColorTanimoto>
0.177 

> <ROCS_RefTversky>
0.475 

> <ROCS_RefColorTversky>
0.208 

> <ROCS_RefTverskyCombo>
0.683 

> <ROCS_FitTversky>
1.482 

> <ROCS_FitColorTversky>
0.541 

> <ROCS_FitTverskyCombo>
2.023 

> <ROCS_ColorScore>
-6.806

> <ROCS_Overlap>
1404.116

> <ROCS_Rank>
129                 

$$$$
untitled-dbase-93274_1
  -OEChem-06232314393D

 28 30  0     1  0  0  0  0  0999 V2000
  -10.0183   15.2893  -36.6759 C   0  0  0  0  0  0  0  0  0  0  0  0
  -13.5015   16.7651  -38.7776 C   0  0  0  0  0  0  0  0  0  0  0  0
  -12.5982   14.7730  -40.0102 C   0  0  0  0  0  0  0  0  0  0  0  0
  -13.9864   14.4469  -37.9421 C   0  0  0  0  0  0  0  0  0  0  0  0
  -11.0464   16.2395  -38.7383 C   0  0  0  0  0  0  0  0  0  0  0  0
  -12.4397   15.9109  -36.6690 C   0  0  0  0  0  0  0  0  0  0  0  0
  -12.3166   16.2288  -39.6042 C   0  0  2  0  0  0  0  0  0  0  0  0
  -13.7183   15.9000  -37.5207 C   0  0  1  0  0  0  0  0  0  0  0  0
  -12.7895   13.9155  -38.7473 C   0  0  0  0  0  0  0  0  0  0  0  0
  -11.2700   15.3540  -37.4993 C   0  0  0  0  0  0  0  0  0  0  0  0
  -11.5694   13.9693  -37.9146 N   0  0  0  0  0  0  0  0  0  0  0  0
   -8.9702   15.8564  -36.9463 O   0  0  0  0  0  0  0  0  0  0  0  0
  -10.2040   14.5092  -35.5831 O   0  0  0  0  0  0  0  0  0  0  0  0
  -13.3111   17.8051  -38.4854 H   0  0  0  0  0  0  0  0  0  0  0  0
  -14.4117   16.7665  -39.3898 H   0  0  0  0  0  0  0  0  0  0  0  0
  -13.4962   14.7243  -40.6383 H   0  0  0  0  0  0  0  0  0  0  0  0
  -11.7671   14.3816  -40.6103 H   0  0  0  0  0  0  0  0  0  0  0  0
  -14.1561   13.8219  -37.0561 H   0  0  0  0  0  0  0  0  0  0  0  0
  -14.8998   14.3941  -38.5473 H   0  0  0  0  0  0  0  0  0  0  0  0
  -10.1902   15.8801  -39.3249 H   0  0  0  0  0  0  0  0  0  0  0  0
  -10.8031   17.2667  -38.4368 H   0  0  0  0  0  0  0  0  0  0  0  0
  -12.2181   16.9327  -36.3342 H   0  0  0  0  0  0  0  0  0  0  0  0
  -12.5901   15.3166  -35.7576 H   0  0  0  0  0  0  0  0  0  0  0  0
  -12.1707   16.8480  -40.4959 H   0  0  0  0  0  0  0  0  0  0  0  0
  -14.5625   16.2872  -36.9401 H   0  0  0  0  0  0  0  0  0  0  0  0
  -12.9735   12.8759  -39.0391 H   0  0  0  0  0  0  0  0  0  0  0  0
  -11.7180   13.3941  -37.0845 H   0  0  0  0  0  0  0  0  0  0  0  0
   -9.3948   14.4525  -35.0315 H   0  0  0  0  0  0  0  0  0  0  0  0
  1 10  1  0  0  0  0
  1 12  2  0  0  0  0
  1 13  1  0  0  0  0
  2  7  1  0  0  0  0
  2  8  1  0  0  0  0
  3  7  1  0  0  0  0
  3  9  1  0  0  0  0
  4  8  1  0  0  0  0
  4  9  1  0  0  0  0
  5  7  1  0  0  0  0
  5 10  1  0  0  0  0
  6  8  1  0  0  0  0
  6 10  1  0  0  0  0
  9 11  1  0  0  0  0
 10 11  1  0  0  0  0
  2 14  1  0  0  0  0
  2 15  1  0  0  0  0
  3 16  1  0  0  0  0
  3 17  1  0  0  0  0
  4 18  1  0  0  0  0
  4 19  1  0  0  0  0
  5 20  1  0  0  0  0
  5 21  1  0  0  0  0
  6 22  1  0  0  0  0
  6 23  1  0  0  0  0
  7 24  1  0  0  0  0
  8 25  1  0  0  0  0
  9 26  1  0  0  0  0
 11 27  1  0  0  0  0
 13 28  1  0  0  0  0
M  END
> <id>
EN300-8097399

> <smiles>
OC(=O)C1(CC2CC3CC(C2)N1)C3

> <MDLNUMBER>
MFCD18909754

> <IUPAC Name>
2-azatricyclo[3.3.1.1,3,7]decane-1-carboxylic acid

> <CAS>
1303973-99-0

> <URL>
https://www.enaminestore.com/catalog/EN300-8097399

> <ROCS_ShapeQuery>
__x1247relevant_x1083L0AP1_x1305L0BP1_

> <ROCS_TanimotoCombo>
0.739 

> <ROCS_ShapeTanimoto>
0.482 

> <ROCS_ColorTanimoto>
0.257 

> <ROCS_RefTversky>
0.405 

> <ROCS_RefColorTversky>
0.284 

> <ROCS_RefTverskyCombo>
0.688 

> <ROCS_FitTversky>
1.655 

> <ROCS_FitColorTversky>
0.734 

> <ROCS_FitTverskyCombo>
2.389 

> <ROCS_ColorScore>
-9.291

> <ROCS_Overlap>
1190.026

> <ROCS_Rank>
130                 

$$$$
untitled-dbase-98438_1
  -OEChem-06232314393D

 28 30  0     1  0  0  0  0  0999 V2000
  -10.0183   15.2893  -36.6759 C   0  0  0  0  0  0  0  0  0  0  0  0
  -13.5015   16.7651  -38.7776 C   0  0  0  0  0  0  0  0  0  0  0  0
  -12.5982   14.7730  -40.0102 C   0  0  0  0  0  0  0  0  0  0  0  0
  -13.9864   14.4469  -37.9421 C   0  0  0  0  0  0  0  0  0  0  0  0
  -11.0464   16.2395  -38.7383 C   0  0  0  0  0  0  0  0  0  0  0  0
  -12.4397   15.9109  -36.6690 C   0  0  0  0  0  0  0  0  0  0  0  0
  -12.3166   16.2288  -39.6042 C   0  0  2  0  0  0  0  0  0  0  0  0
  -13.7183   15.9000  -37.5207 C   0  0  1  0  0  0  0  0  0  0  0  0
  -12.7895   13.9155  -38.7473 C   0  0  0  0  0  0  0  0  0  0  0  0
  -11.2700   15.3540  -37.4993 C   0  0  0  0  0  0  0  0  0  0  0  0
  -11.5694   13.9693  -37.9146 N   0  0  0  0  0  0  0  0  0  0  0  0
   -8.9702   15.8564  -36.9463 O   0  0  0  0  0  0  0  0  0  0  0  0
  -10.2040   14.5092  -35.5831 O   0  0  0  0  0  0  0  0  0  0  0  0
  -13.3111   17.8051  -38.4854 H   0  0  0  0  0  0  0  0  0  0  0  0
  -14.4117   16.7665  -39.3898 H   0  0  0  0  0  0  0  0  0  0  0  0
  -13.4962   14.7243  -40.6383 H   0  0  0  0  0  0  0  0  0  0  0  0
  -11.7671   14.3816  -40.6103 H   0  0  0  0  0  0  0  0  0  0  0  0
  -14.1561   13.8219  -37.0561 H   0  0  0  0  0  0  0  0  0  0  0  0
  -14.8998   14.3941  -38.5473 H   0  0  0  0  0  0  0  0  0  0  0  0
  -10.1902   15.8801  -39.3249 H   0  0  0  0  0  0  0  0  0  0  0  0
  -10.8031   17.2667  -38.4368 H   0  0  0  0  0  0  0  0  0  0  0  0
  -12.2181   16.9327  -36.3342 H   0  0  0  0  0  0  0  0  0  0  0  0
  -12.5901   15.3166  -35.7576 H   0  0  0  0  0  0  0  0  0  0  0  0
  -12.1707   16.8480  -40.4959 H   0  0  0  0  0  0  0  0  0  0  0  0
  -14.5625   16.2872  -36.9401 H   0  0  0  0  0  0  0  0  0  0  0  0
  -12.9735   12.8759  -39.0391 H   0  0  0  0  0  0  0  0  0  0  0  0
  -11.7180   13.3941  -37.0845 H   0  0  0  0  0  0  0  0  0  0  0  0
   -9.3948   14.4525  -35.0315 H   0  0  0  0  0  0  0  0  0  0  0  0
  1 10  1  0  0  0  0
  1 12  2  0  0  0  0
  1 13  1  0  0  0  0
  2  7  1  0  0  0  0
  2  8  1  0  0  0  0
  3  7  1  0  0  0  0
  3  9  1  0  0  0  0
  4  8  1  0  0  0  0
  4  9  1  0  0  0  0
  5  7  1  0  0  0  0
  5 10  1  0  0  0  0
  6  8  1  0  0  0  0
  6 10  1  0  0  0  0
  9 11  1  0  0  0  0
 10 11  1  0  0  0  0
  2 14  1  0  0  0  0
  2 15  1  0  0  0  0
  3 16  1  0  0  0  0
  3 17  1  0  0  0  0
  4 18  1  0  0  0  0
  4 19  1  0  0  0  0
  5 20  1  0  0  0  0
  5 21  1  0  0  0  0
  6 22  1  0  0  0  0
  6 23  1  0  0  0  0
  7 24  1  0  0  0  0
  8 25  1  0  0  0  0
  9 26  1  0  0  0  0
 11 27  1  0  0  0  0
 13 28  1  0  0  0  0
M  END
> <id>
EN300-37300147

> <smiles>
Cl.OC(=O)C1(CC2CC3CC(C2)N1)C3

> <IUPAC Name>
2-azatricyclo[3.3.1.1,3,7]decane-1-carboxylic acid hydrochloride

> <CAS>
2751621-74-4

> <Purity>
95

> <URL>
https://www.enaminestore.com/catalog/EN300-37300147

> <Saltdate>
Cl

> <ROCS_ShapeQuery>
__x1247relevant_x1083L0AP1_x1305L0BP1_

> <ROCS_TanimotoCombo>
0.739 

> <ROCS_ShapeTanimoto>
0.482 

> <ROCS_ColorTanimoto>
0.257 

> <ROCS_RefTversky>
0.405 

> <ROCS_RefColorTversky>
0.284 

> <ROCS_RefTverskyCombo>
0.688 

> <ROCS_FitTversky>
1.655 

> <ROCS_FitColorTversky>
0.734 

> <ROCS_FitTverskyCombo>
2.389 

> <ROCS_ColorScore>
-9.291

> <ROCS_Overlap>
1190.026

> <ROCS_Rank>
131                 

$$$$
untitled-dbase-55972_44
  -OEChem-06232314393D

 35 37  0     1  0  0  0  0  0999 V2000
   -9.2776   14.4897  -36.6941 C   0  0  0  0  0  0  0  0  0  0  0  0
  -12.6661   15.6987  -37.0636 C   0  0  0  0  0  0  0  0  0  0  0  0
  -12.6635   13.4937  -37.9376 C   0  0  0  0  0  0  0  0  0  0  0  0
  -13.5785   14.7384  -37.8486 C   0  0  2  0  0  0  0  0  0  0  0  0
  -11.5493   15.6372  -38.1243 C   0  0  1  0  0  0  0  0  0  0  0  0
  -11.2547   14.1146  -38.1607 C   0  0  1  0  0  0  0  0  0  0  0  0
  -13.6340   15.3607  -39.2347 C   0  0  2  0  0  0  0  0  0  0  0  0
  -12.2822   15.9675  -39.4186 C   0  0  1  0  0  0  0  0  0  0  0  0
   -9.7995   15.2574  -34.2479 C   0  0  0  0  0  0  0  0  0  0  0  0
   -8.4162   13.3399  -33.4000 C   0  0  0  0  0  0  0  0  0  0  0  0
   -7.2888   15.3505  -34.3972 C   0  0  0  0  0  0  0  0  0  0  0  0
   -8.5198   14.4466  -34.4472 C   0  0  0  0  0  0  0  0  0  0  0  0
  -10.3204   13.7033  -37.1468 N   0  0  0  0  0  0  0  0  0  0  0  0
   -9.0146   15.6210  -37.0884 O   0  0  0  0  0  0  0  0  0  0  0  0
  -13.4593   16.7768  -39.3391 O   0  0  0  0  0  0  0  0  0  0  0  0
   -8.5732   13.8197  -35.7336 O   0  0  0  0  0  0  0  0  0  0  0  0
  -13.0930   16.7002  -36.9446 H   0  0  0  0  0  0  0  0  0  0  0  0
  -12.3712   15.3166  -36.0812 H   0  0  0  0  0  0  0  0  0  0  0  0
  -12.7066   12.9190  -37.0048 H   0  0  0  0  0  0  0  0  0  0  0  0
  -12.9412   12.8306  -38.7639 H   0  0  0  0  0  0  0  0  0  0  0  0
  -14.5577   14.5536  -37.4041 H   0  0  0  0  0  0  0  0  0  0  0  0
  -10.6849   16.2775  -37.9369 H   0  0  0  0  0  0  0  0  0  0  0  0
  -10.8383   13.8034  -39.1251 H   0  0  0  0  0  0  0  0  0  0  0  0
  -14.0967   14.7956  -40.0259 H   0  0  0  0  0  0  0  0  0  0  0  0
  -11.7480   15.8513  -40.3464 H   0  0  0  0  0  0  0  0  0  0  0  0
   -9.8776   16.0528  -34.9976 H   0  0  0  0  0  0  0  0  0  0  0  0
  -10.6916   14.6263  -34.3163 H   0  0  0  0  0  0  0  0  0  0  0  0
   -9.8003   15.7529  -33.2703 H   0  0  0  0  0  0  0  0  0  0  0  0
   -7.4995   12.7556  -33.5392 H   0  0  0  0  0  0  0  0  0  0  0  0
   -9.2494   12.6340  -33.4944 H   0  0  0  0  0  0  0  0  0  0  0  0
   -8.4182   13.7446  -32.3828 H   0  0  0  0  0  0  0  0  0  0  0  0
   -6.3707   14.7692  -34.5402 H   0  0  0  0  0  0  0  0  0  0  0  0
   -7.3284   16.1287  -35.1663 H   0  0  0  0  0  0  0  0  0  0  0  0
   -7.1996   15.8335  -33.4174 H   0  0  0  0  0  0  0  0  0  0  0  0
  -10.4341   12.7776  -36.7384 H   0  0  0  0  0  0  0  0  0  0  0  0
  1 13  1  0  0  0  0
  1 14  2  0  0  0  0
  1 16  1  0  0  0  0
  2  4  1  0  0  0  0
  2  5  1  0  0  0  0
  3  4  1  0  0  0  0
  3  6  1  0  0  0  0
  4  7  1  0  0  0  0
  5  6  1  0  0  0  0
  5  8  1  0  0  0  0
  6 13  1  0  0  0  0
  7  8  1  0  0  0  0
  7 15  1  0  0  0  0
  8 15  1  0  0  0  0
  9 12  1  0  0  0  0
 10 12  1  0  0  0  0
 11 12  1  0  0  0  0
 12 16  1  0  0  0  0
  2 17  1  0  0  0  0
  2 18  1  0  0  0  0
  3 19  1  0  0  0  0
  3 20  1  0  0  0  0
  4 21  1  0  0  0  0
  5 22  1  0  0  0  0
  6 23  1  0  0  0  0
  7 24  1  0  0  0  0
  8 25  1  0  0  0  0
  9 26  1  0  0  0  0
  9 27  1  0  0  0  0
  9 28  1  0  0  0  0
 10 29  1  0  0  0  0
 10 30  1  0  0  0  0
 10 31  1  0  0  0  0
 11 32  1  0  0  0  0
 11 33  1  0  0  0  0
 11 34  1  0  0  0  0
 13 35  1  0  0  0  0
M  END
> <id>
EN300-1708416

> <smiles>
CC(C)(C)OC(=O)NC1CC2CC1C3OC32

> <MDLNUMBER>
MFCD32762801

> <IUPAC Name>
tert-butyl N-{3-oxatricyclo[3.2.1.0,2,4]octan-6-yl}carbamate

> <CAS>
2219408-55-4

> <URL>
https://www.enaminestore.com/catalog/EN300-1708416

> <ROCS_ShapeQuery>
__x1247relevant_x1083L0AP1_x1305L0BP1_

> <ROCS_TanimotoCombo>
0.739 

> <ROCS_ShapeTanimoto>
0.475 

> <ROCS_ColorTanimoto>
0.265 

> <ROCS_RefTversky>
0.413 

> <ROCS_RefColorTversky>
0.347 

> <ROCS_RefTverskyCombo>
0.760 

> <ROCS_FitTversky>
1.453 

> <ROCS_FitColorTversky>
0.527 

> <ROCS_FitTverskyCombo>
1.980 

> <ROCS_ColorScore>
-11.520

> <ROCS_Overlap>
1218.382

> <ROCS_Rank>
132                 

$$$$
untitled-dbase-119243_4
  -OEChem-06232314393D

 29 31  0     1  0  0  0  0  0999 V2000
   -9.9909   15.2146  -36.5934 C   0  0  0  0  0  0  0  0  0  0  0  0
  -13.4125   13.7637  -38.7944 C   0  0  0  0  0  0  0  0  0  0  0  0
  -14.0650   15.9895  -37.8277 C   0  0  0  0  0  0  0  0  0  0  0  0
  -12.3936   14.5446  -36.6388 C   0  0  0  0  0  0  0  0  0  0  0  0
  -10.9986   14.4391  -38.7255 C   0  0  0  0  0  0  0  0  0  0  0  0
  -11.6521   16.6686  -37.7571 C   0  0  0  0  0  0  0  0  0  0  0  0
  -13.6761   14.5382  -37.4897 C   0  0  0  0  0  0  0  0  0  0  0  0
  -12.2750   14.4343  -39.5854 C   0  0  2  0  0  0  0  0  0  0  0  0
  -12.9304   16.6702  -38.6143 C   0  0  1  0  0  0  0  0  0  0  0  0
  -11.2465   15.2190  -37.4173 C   0  0  0  0  0  0  0  0  0  0  0  0
  -12.6703   15.8802  -39.9005 C   0  0  0  0  0  0  0  0  0  0  0  0
   -8.9177   15.6796  -36.9473 O   0  0  0  0  0  0  0  0  0  0  0  0
  -10.2067   14.6186  -35.3953 O   0  0  0  0  0  0  0  0  0  0  0  0
  -11.6896   16.4804  -40.6207 F   0  0  0  0  0  0  0  0  0  0  0  0
  -13.7785   15.8953  -40.6831 F   0  0  0  0  0  0  0  0  0  0  0  0
  -13.1470   12.7243  -38.5656 H   0  0  0  0  0  0  0  0  0  0  0  0
  -14.3255   13.7330  -39.4016 H   0  0  0  0  0  0  0  0  0  0  0  0
  -14.9905   16.0011  -38.4162 H   0  0  0  0  0  0  0  0  0  0  0  0
  -14.2683   16.5470  -36.9053 H   0  0  0  0  0  0  0  0  0  0  0  0
  -12.5742   15.0719  -35.6927 H   0  0  0  0  0  0  0  0  0  0  0  0
  -12.1214   13.5158  -36.3689 H   0  0  0  0  0  0  0  0  0  0  0  0
  -10.6937   13.4079  -38.5033 H   0  0  0  0  0  0  0  0  0  0  0  0
  -10.1692   14.8890  -39.2868 H   0  0  0  0  0  0  0  0  0  0  0  0
  -10.8412   17.1775  -38.2945 H   0  0  0  0  0  0  0  0  0  0  0  0
  -11.8172   17.2440  -36.8367 H   0  0  0  0  0  0  0  0  0  0  0  0
  -14.4877   14.0579  -36.9319 H   0  0  0  0  0  0  0  0  0  0  0  0
  -12.0948   13.8846  -40.5156 H   0  0  0  0  0  0  0  0  0  0  0  0
  -13.2131   17.6999  -38.8583 H   0  0  0  0  0  0  0  0  0  0  0  0
   -9.3966   14.6040  -34.8422 H   0  0  0  0  0  0  0  0  0  0  0  0
  1 10  1  0  0  0  0
  1 12  2  0  0  0  0
  1 13  1  0  0  0  0
  2  7  1  0  0  0  0
  2  8  1  0  0  0  0
  3  7  1  0  0  0  0
  3  9  1  0  0  0  0
  4  7  1  0  0  0  0
  4 10  1  0  0  0  0
  5  8  1  0  0  0  0
  5 10  1  0  0  0  0
  6  9  1  0  0  0  0
  6 10  1  0  0  0  0
  8 11  1  0  0  0  0
  9 11  1  0  0  0  0
 11 14  1  0  0  0  0
 11 15  1  0  0  0  0
  2 16  1  0  0  0  0
  2 17  1  0  0  0  0
  3 18  1  0  0  0  0
  3 19  1  0  0  0  0
  4 20  1  0  0  0  0
  4 21  1  0  0  0  0
  5 22  1  0  0  0  0
  5 23  1  0  0  0  0
  6 24  1  0  0  0  0
  6 25  1  0  0  0  0
  7 26  1  0  0  0  0
  8 27  1  0  0  0  0
  9 28  1  0  0  0  0
 13 29  1  0  0  0  0
M  END
> <id>
EN300-88847

> <smiles>
OC(=O)C1(CC2CC3C1)CC(C2)C3(F)F

> <IUPAC Name>
4,4-difluoroadamantane-1-carboxylic acid

> <CAS>
438017-43-7

> <Purity>
95

> <URL>
https://www.enaminestore.com/catalog/EN300-88847

> <ROCS_ShapeQuery>
__x1247relevant_x1083L0AP1_x1305L0BP1_

> <ROCS_TanimotoCombo>
0.739 

> <ROCS_ShapeTanimoto>
0.526 

> <ROCS_ColorTanimoto>
0.213 

> <ROCS_RefTversky>
0.440 

> <ROCS_RefColorTversky>
0.233 

> <ROCS_RefTverskyCombo>
0.673 

> <ROCS_FitTversky>
1.595 

> <ROCS_FitColorTversky>
0.710 

> <ROCS_FitTverskyCombo>
2.305 

> <ROCS_ColorScore>
-7.598

> <ROCS_Overlap>
1296.307

> <ROCS_Rank>
133                 

$$$$
untitled-dbase-109966_5
  -OEChem-06232314393D

 24 25  0     1  0  0  0  0  0999 V2000
  -10.1665   15.3157  -36.8043 C   0  0  0  0  0  0  0  0  0  0  0  0
  -11.1282   16.1640  -38.9575 C   0  0  0  0  0  0  0  0  0  0  0  0
  -12.3122   16.1119  -39.9320 C   0  0  0  0  0  0  0  0  0  0  0  0
  -12.6225   15.8310  -36.9681 C   0  0  0  0  0  0  0  0  0  0  0  0
  -13.1908   13.8747  -38.1464 C   0  0  0  0  0  0  0  0  0  0  0  0
  -13.6854   15.3047  -37.9196 C   0  0  2  0  0  0  0  0  0  0  0  0
  -11.3768   15.3318  -37.6842 C   0  0  2  0  0  0  0  0  0  0  0  0
  -13.6568   16.1343  -39.2104 C   0  0  0  0  0  0  0  0  0  0  0  0
  -11.7136   13.9354  -38.0386 N   0  0  0  0  0  0  0  0  0  0  0  0
   -9.1125   15.8831  -37.0501 O   0  0  0  0  0  0  0  0  0  0  0  0
  -10.3950   14.5793  -35.6895 O   0  0  0  0  0  0  0  0  0  0  0  0
  -14.6225   15.6942  -40.0572 F   0  0  0  0  0  0  0  0  0  0  0  0
  -13.9777   17.4216  -38.9102 F   0  0  0  0  0  0  0  0  0  0  0  0
  -10.2196   15.8293  -39.4738 H   0  0  0  0  0  0  0  0  0  0  0  0
  -10.9475   17.2098  -38.6737 H   0  0  0  0  0  0  0  0  0  0  0  0
  -12.2484   16.9502  -40.6349 H   0  0  0  0  0  0  0  0  0  0  0  0
  -12.2425   15.2005  -40.5388 H   0  0  0  0  0  0  0  0  0  0  0  0
  -12.6473   16.9199  -36.8511 H   0  0  0  0  0  0  0  0  0  0  0  0
  -12.7279   15.3856  -35.9702 H   0  0  0  0  0  0  0  0  0  0  0  0
  -13.5768   13.2160  -37.3593 H   0  0  0  0  0  0  0  0  0  0  0  0
  -13.4991   13.4630  -39.1121 H   0  0  0  0  0  0  0  0  0  0  0  0
  -14.6843   15.3287  -37.4737 H   0  0  0  0  0  0  0  0  0  0  0  0
  -11.4336   13.3084  -37.2833 H   0  0  0  0  0  0  0  0  0  0  0  0
  -11.3019   14.2058  -35.6766 H   0  0  0  0  0  0  0  0  0  0  0  0
  1  7  1  0  0  0  0
  1 10  2  0  0  0  0
  1 11  1  0  0  0  0
  2  3  1  0  0  0  0
  2  7  1  0  0  0  0
  3  8  1  0  0  0  0
  4  6  1  0  0  0  0
  4  7  1  0  0  0  0
  5  6  1  0  0  0  0
  5  9  1  0  0  0  0
  6  8  1  0  0  0  0
  7  9  1  0  0  0  0
  8 12  1  0  0  0  0
  8 13  1  0  0  0  0
  2 14  1  0  0  0  0
  2 15  1  0  0  0  0
  3 16  1  0  0  0  0
  3 17  1  0  0  0  0
  4 18  1  0  0  0  0
  4 19  1  0  0  0  0
  5 20  1  0  0  0  0
  5 21  1  0  0  0  0
  6 22  1  0  0  0  0
  9 23  1  0  0  0  0
 11 24  1  0  0  0  0
M  END
> <id>
EN300-109777

> <smiles>
Cl.OC(=O)C1(CC2CN1)CCC2(F)F

> <MDLNUMBER>
MFCD22378702

> <IUPAC Name>
2,2-difluoro-6-azabicyclo[3.2.1]octane-5-carboxylic acid hydrochloride

> <CAS>
1394040-76-6

> <URL>
https://www.enaminestore.com/catalog/EN300-109777

> <Saltdate>
Cl

> <ROCS_ShapeQuery>
__x1247relevant_x1083L0AP1_x1305L0BP1_

> <ROCS_TanimotoCombo>
0.739 

> <ROCS_ShapeTanimoto>
0.497 

> <ROCS_ColorTanimoto>
0.242 

> <ROCS_RefTversky>
0.413 

> <ROCS_RefColorTversky>
0.266 

> <ROCS_RefTverskyCombo>
0.679 

> <ROCS_FitTversky>
1.698 

> <ROCS_FitColorTversky>
0.726 

> <ROCS_FitTverskyCombo>
2.424 

> <ROCS_ColorScore>
-8.712

> <ROCS_Overlap>
1213.406

> <ROCS_Rank>
134                 

$$$$
untitled-dbase-110472_5
  -OEChem-06232314393D

 24 25  0     1  0  0  0  0  0999 V2000
  -10.1665   15.3157  -36.8043 C   0  0  0  0  0  0  0  0  0  0  0  0
  -11.1282   16.1640  -38.9575 C   0  0  0  0  0  0  0  0  0  0  0  0
  -12.3122   16.1119  -39.9320 C   0  0  0  0  0  0  0  0  0  0  0  0
  -12.6225   15.8310  -36.9681 C   0  0  0  0  0  0  0  0  0  0  0  0
  -13.1908   13.8747  -38.1464 C   0  0  0  0  0  0  0  0  0  0  0  0
  -13.6854   15.3047  -37.9196 C   0  0  2  0  0  0  0  0  0  0  0  0
  -11.3768   15.3318  -37.6842 C   0  0  2  0  0  0  0  0  0  0  0  0
  -13.6568   16.1343  -39.2104 C   0  0  0  0  0  0  0  0  0  0  0  0
  -11.7136   13.9354  -38.0386 N   0  0  0  0  0  0  0  0  0  0  0  0
   -9.1125   15.8831  -37.0501 O   0  0  0  0  0  0  0  0  0  0  0  0
  -10.3950   14.5793  -35.6895 O   0  0  0  0  0  0  0  0  0  0  0  0
  -14.6225   15.6942  -40.0572 F   0  0  0  0  0  0  0  0  0  0  0  0
  -13.9777   17.4216  -38.9102 F   0  0  0  0  0  0  0  0  0  0  0  0
  -10.2196   15.8293  -39.4738 H   0  0  0  0  0  0  0  0  0  0  0  0
  -10.9475   17.2098  -38.6737 H   0  0  0  0  0  0  0  0  0  0  0  0
  -12.2484   16.9502  -40.6349 H   0  0  0  0  0  0  0  0  0  0  0  0
  -12.2425   15.2005  -40.5388 H   0  0  0  0  0  0  0  0  0  0  0  0
  -12.6473   16.9199  -36.8511 H   0  0  0  0  0  0  0  0  0  0  0  0
  -12.7279   15.3856  -35.9702 H   0  0  0  0  0  0  0  0  0  0  0  0
  -13.5768   13.2160  -37.3593 H   0  0  0  0  0  0  0  0  0  0  0  0
  -13.4991   13.4630  -39.1121 H   0  0  0  0  0  0  0  0  0  0  0  0
  -14.6843   15.3287  -37.4737 H   0  0  0  0  0  0  0  0  0  0  0  0
  -11.4336   13.3084  -37.2833 H   0  0  0  0  0  0  0  0  0  0  0  0
  -11.3019   14.2058  -35.6766 H   0  0  0  0  0  0  0  0  0  0  0  0
  1  7  1  0  0  0  0
  1 10  2  0  0  0  0
  1 11  1  0  0  0  0
  2  3  1  0  0  0  0
  2  7  1  0  0  0  0
  3  8  1  0  0  0  0
  4  6  1  0  0  0  0
  4  7  1  0  0  0  0
  5  6  1  0  0  0  0
  5  9  1  0  0  0  0
  6  8  1  0  0  0  0
  7  9  1  0  0  0  0
  8 12  1  0  0  0  0
  8 13  1  0  0  0  0
  2 14  1  0  0  0  0
  2 15  1  0  0  0  0
  3 16  1  0  0  0  0
  3 17  1  0  0  0  0
  4 18  1  0  0  0  0
  4 19  1  0  0  0  0
  5 20  1  0  0  0  0
  5 21  1  0  0  0  0
  6 22  1  0  0  0  0
  9 23  1  0  0  0  0
 11 24  1  0  0  0  0
M  END
> <id>
EN300-109609

> <smiles>
OC(=O)C1(CC2CN1)CCC2(F)F

> <MDLNUMBER>
MFCD27919991

> <IUPAC Name>
2,2-difluoro-6-azabicyclo[3.2.1]octane-5-carboxylic acid

> <CAS>
1394116-55-2

> <URL>
https://www.enaminestore.com/catalog/EN300-109609

> <ROCS_ShapeQuery>
__x1247relevant_x1083L0AP1_x1305L0BP1_

> <ROCS_TanimotoCombo>
0.739 

> <ROCS_ShapeTanimoto>
0.497 

> <ROCS_ColorTanimoto>
0.242 

> <ROCS_RefTversky>
0.413 

> <ROCS_RefColorTversky>
0.266 

> <ROCS_RefTverskyCombo>
0.679 

> <ROCS_FitTversky>
1.698 

> <ROCS_FitColorTversky>
0.726 

> <ROCS_FitTverskyCombo>
2.424 

> <ROCS_ColorScore>
-8.712

> <ROCS_Overlap>
1213.406

> <ROCS_Rank>
135                 

$$$$
untitled-dbase-29888_1
  -OEChem-06232314393D

 34 36  0     1  0  0  0  0  0999 V2000
   -9.8043   13.6619  -35.1876 C   0  0  0  0  0  0  0  0  0  0  0  0
  -12.6744   14.1393  -39.5774 C   0  0  0  0  0  0  0  0  0  0  0  0
  -12.2021   16.5387  -39.2282 C   0  0  0  0  0  0  0  0  0  0  0  0
  -13.9298   14.3479  -38.7132 C   0  0  0  0  0  0  0  0  0  0  0  0
  -13.3774   16.6443  -38.2446 C   0  0  0  0  0  0  0  0  0  0  0  0
  -12.5484   14.8828  -36.8170 C   0  0  0  0  0  0  0  0  0  0  0  0
   -9.0988   15.3135  -36.9249 C   0  0  0  0  0  0  0  0  0  0  0  0
   -9.3965   13.8682  -36.6124 C   0  0  2  0  0  0  0  0  0  0  0  0
  -11.5854   15.1288  -39.1262 C   0  0  0  0  0  0  0  0  0  0  0  0
  -11.2325   14.8538  -37.6388 C   0  0  2  0  0  0  0  0  0  0  0  0
  -10.5724   12.0203  -33.6715 C   0  0  0  0  0  0  0  0  0  0  0  0
  -10.5489   13.5576  -37.4538 N   0  0  0  0  0  0  0  0  0  0  0  0
  -13.7000   15.3368  -37.6355 N   0  0  0  0  0  0  0  0  0  0  0  0
   -9.8090   14.5458  -34.3414 O   0  0  0  0  0  0  0  0  0  0  0  0
  -10.3761   15.9101  -37.1637 O   0  0  0  0  0  0  0  0  0  0  0  0
  -10.1586   12.3589  -34.9989 O   0  0  0  0  0  0  0  0  0  0  0  0
  -12.3230   13.1051  -39.4920 H   0  0  0  0  0  0  0  0  0  0  0  0
  -12.9204   14.3066  -40.6329 H   0  0  0  0  0  0  0  0  0  0  0  0
  -12.5525   16.7187  -40.2520 H   0  0  0  0  0  0  0  0  0  0  0  0
  -11.4555   17.3102  -39.0082 H   0  0  0  0  0  0  0  0  0  0  0  0
  -14.7681   14.6749  -39.3413 H   0  0  0  0  0  0  0  0  0  0  0  0
  -14.2455   13.3914  -38.2783 H   0  0  0  0  0  0  0  0  0  0  0  0
  -13.1461   17.3723  -37.4569 H   0  0  0  0  0  0  0  0  0  0  0  0
  -14.2600   17.0407  -38.7616 H   0  0  0  0  0  0  0  0  0  0  0  0
  -12.7916   13.8906  -36.4132 H   0  0  0  0  0  0  0  0  0  0  0  0
  -12.4480   15.5385  -35.9424 H   0  0  0  0  0  0  0  0  0  0  0  0
   -8.6037   15.8484  -36.1092 H   0  0  0  0  0  0  0  0  0  0  0  0
   -8.5015   15.4157  -37.8379 H   0  0  0  0  0  0  0  0  0  0  0  0
   -8.5461   13.2102  -36.8146 H   0  0  0  0  0  0  0  0  0  0  0  0
  -10.6998   15.0692  -39.7691 H   0  0  0  0  0  0  0  0  0  0  0  0
  -10.8327   10.9598  -33.6295 H   0  0  0  0  0  0  0  0  0  0  0  0
  -11.4353   12.6296  -33.3912 H   0  0  0  0  0  0  0  0  0  0  0  0
   -9.7492   12.2186  -32.9810 H   0  0  0  0  0  0  0  0  0  0  0  0
  -10.1978   13.2425  -38.3588 H   0  0  0  0  0  0  0  0  0  0  0  0
  1  8  1  0  0  0  0
  1 14  2  0  0  0  0
  1 16  1  0  0  0  0
  2  4  1  0  0  0  0
  2  9  1  0  0  0  0
  3  5  1  0  0  0  0
  3  9  1  0  0  0  0
  4 13  1  0  0  0  0
  5 13  1  0  0  0  0
  6 10  1  0  0  0  0
  6 13  1  0  0  0  0
  7  8  1  0  0  0  0
  7 15  1  0  0  0  0
  8 12  1  0  0  0  0
  9 10  1  0  0  0  0
 10 12  1  0  0  0  0
 10 15  1  0  0  0  0
 11 16  1  0  0  0  0
  2 17  1  0  0  0  0
  2 18  1  0  0  0  0
  3 19  1  0  0  0  0
  3 20  1  0  0  0  0
  4 21  1  0  0  0  0
  4 22  1  0  0  0  0
  5 23  1  0  0  0  0
  5 24  1  0  0  0  0
  6 25  1  0  0  0  0
  6 26  1  0  0  0  0
  7 27  1  0  0  0  0
  7 28  1  0  0  0  0
  8 29  1  0  0  0  0
  9 30  1  0  0  0  0
 11 31  1  0  0  0  0
 11 32  1  0  0  0  0
 11 33  1  0  0  0  0
 12 34  1  0  0  0  0
M  END
> <id>
EN300-691617

> <smiles>
COC(=O)C1COC2(CN3CCC2CC3)N1

> <IUPAC Name>
methyl 4-azaspiro[bicyclo[2.2.2]octane-2,2'-[1,3]oxazolidine]-4'-carboxylate

> <CAS>
2137458-16-1

> <URL>
https://www.enaminestore.com/catalog/EN300-691617

> <ROCS_ShapeQuery>
__x1247relevant_x1083L0AP1_x1305L0BP1_

> <ROCS_TanimotoCombo>
0.739 

> <ROCS_ShapeTanimoto>
0.492 

> <ROCS_ColorTanimoto>
0.247 

> <ROCS_RefTversky>
0.424 

> <ROCS_RefColorTversky>
0.278 

> <ROCS_RefTverskyCombo>
0.702 

> <ROCS_FitTversky>
1.475 

> <ROCS_FitColorTversky>
0.691 

> <ROCS_FitTverskyCombo>
2.166 

> <ROCS_ColorScore>
-9.100

> <ROCS_Overlap>
1251.190

> <ROCS_Rank>
136                 

$$$$
untitled-dbase-156048_52
  -OEChem-06232314393D

 23 24  0     0  0  0  0  0  0999 V2000
  -13.2893   16.3738  -40.2993 C   0  0  0  0  0  0  0  0  0  0  0  0
  -10.2253   14.6733  -36.7269 C   0  0  0  0  0  0  0  0  0  0  0  0
  -13.4935   16.0092  -37.6506 C   0  0  0  0  0  0  0  0  0  0  0  0
  -13.2591   14.2205  -38.7016 C   0  0  0  0  0  0  0  0  0  0  0  0
  -11.2862   15.7273  -38.7516 C   0  0  0  0  0  0  0  0  0  0  0  0
  -12.7546   14.6725  -37.2846 C   0  0  0  0  0  0  0  0  0  0  0  0
  -12.8019   15.6920  -39.0300 C   0  0  0  0  0  0  0  0  0  0  0  0
   -8.9433   14.4953  -37.4954 C   0  0  0  0  0  0  0  0  0  0  0  0
  -11.3251   14.9824  -37.4933 N   0  0  0  0  0  0  0  0  0  0  0  0
  -12.6075   17.0898  -41.0174 O   0  0  0  0  0  0  0  0  0  0  0  0
  -10.2521   14.5453  -35.5028 O   0  0  0  0  0  0  0  0  0  0  0  0
  -14.5928   16.0816  -40.5293 O   0  0  0  0  0  0  0  0  0  0  0  0
   -9.1494   14.6819  -38.8121 F   0  0  0  0  0  0  0  0  0  0  0  0
   -8.0157   15.3804  -37.0860 F   0  0  0  0  0  0  0  0  0  0  0  0
   -8.4475   13.2565  -37.3193 F   0  0  0  0  0  0  0  0  0  0  0  0
  -14.5892   15.9828  -37.6317 H   0  0  0  0  0  0  0  0  0  0  0  0
  -13.1514   16.9076  -37.1272 H   0  0  0  0  0  0  0  0  0  0  0  0
  -12.6937   13.4145  -39.1799 H   0  0  0  0  0  0  0  0  0  0  0  0
  -14.3301   14.0056  -38.7936 H   0  0  0  0  0  0  0  0  0  0  0  0
  -10.6881   15.1859  -39.4901 H   0  0  0  0  0  0  0  0  0  0  0  0
  -10.8920   16.7326  -38.5795 H   0  0  0  0  0  0  0  0  0  0  0  0
  -13.0554   14.1144  -36.4015 H   0  0  0  0  0  0  0  0  0  0  0  0
  -14.9270   16.5142  -41.3439 H   0  0  0  0  0  0  0  0  0  0  0  0
  1  7  1  0  0  0  0
  1 10  2  0  0  0  0
  1 12  1  0  0  0  0
  2  8  1  0  0  0  0
  2  9  1  0  0  0  0
  2 11  2  0  0  0  0
  3  6  1  0  0  0  0
  3  7  1  0  0  0  0
  4  6  1  0  0  0  0
  4  7  1  0  0  0  0
  5  7  1  0  0  0  0
  5  9  1  0  0  0  0
  6  9  1  0  0  0  0
  8 13  1  0  0  0  0
  8 14  1  0  0  0  0
  8 15  1  0  0  0  0
  3 16  1  0  0  0  0
  3 17  1  0  0  0  0
  4 18  1  0  0  0  0
  4 19  1  0  0  0  0
  5 20  1  0  0  0  0
  5 21  1  0  0  0  0
  6 22  1  0  0  0  0
 12 23  1  0  0  0  0
M  END
> <id>
EN300-28274149

> <smiles>
OC(=O)C1(CC2C1)CN2C(=O)C(F)(F)F

> <IUPAC Name>
2-(2,2,2-trifluoroacetyl)-2-azabicyclo[2.1.1]hexane-4-carboxylic acid

> <CAS>
2680841-96-5

> <URL>
https://www.enaminestore.com/catalog/EN300-28274149

> <ROCS_ShapeQuery>
__x1247relevant_x1083L0AP1_x1305L0BP1_

> <ROCS_TanimotoCombo>
0.739 

> <ROCS_ShapeTanimoto>
0.509 

> <ROCS_ColorTanimoto>
0.229 

> <ROCS_RefTversky>
0.430 

> <ROCS_RefColorTversky>
0.255 

> <ROCS_RefTverskyCombo>
0.685 

> <ROCS_FitTversky>
1.569 

> <ROCS_FitColorTversky>
0.697 

> <ROCS_FitTverskyCombo>
2.266 

> <ROCS_ColorScore>
-8.328

> <ROCS_Overlap>
1266.570

> <ROCS_Rank>
137                 

$$$$
untitled-dbase-111394_6
  -OEChem-06232314393D

 25 27  0     1  0  0  0  0  0999 V2000
  -10.1274   15.2357  -36.8578 C   0  0  0  0  0  0  0  0  0  0  0  0
  -13.5386   15.9397  -39.5653 C   0  0  0  0  0  0  0  0  0  0  0  0
  -13.3185   16.8059  -38.3109 C   0  0  0  0  0  0  0  0  0  0  0  0
  -13.2778   13.8443  -38.2343 C   0  0  0  0  0  0  0  0  0  0  0  0
  -12.7788   14.5975  -39.4912 C   0  0  2  0  0  0  0  0  0  0  0  0
  -12.5079   16.1074  -37.2554 C   0  0  1  0  0  0  0  0  0  0  0  0
  -12.6015   14.6126  -37.1309 C   0  0  2  0  0  0  0  0  0  0  0  0
  -11.2792   14.8207  -39.1451 C   0  0  2  0  0  0  0  0  0  0  0  0
  -11.3452   15.2286  -37.6829 C   0  0  2  0  0  0  0  0  0  0  0  0
  -10.6171   15.8158  -39.9714 N   0  0  0  0  0  0  0  0  0  0  0  0
   -9.0163   15.5607  -37.2493 O   0  0  0  0  0  0  0  0  0  0  0  0
  -10.4025   14.8279  -35.5947 O   0  0  0  0  0  0  0  0  0  0  0  0
  -14.6120   15.7450  -39.6845 H   0  0  0  0  0  0  0  0  0  0  0  0
  -13.2380   16.5025  -40.4571 H   0  0  0  0  0  0  0  0  0  0  0  0
  -12.8097   17.7351  -38.5928 H   0  0  0  0  0  0  0  0  0  0  0  0
  -14.2891   17.0953  -37.8917 H   0  0  0  0  0  0  0  0  0  0  0  0
  -14.3675   13.8555  -38.1358 H   0  0  0  0  0  0  0  0  0  0  0  0
  -12.9307   12.8052  -38.2379 H   0  0  0  0  0  0  0  0  0  0  0  0
  -12.9223   14.0201  -40.4096 H   0  0  0  0  0  0  0  0  0  0  0  0
  -12.4129   16.6909  -36.3485 H   0  0  0  0  0  0  0  0  0  0  0  0
  -12.6119   14.1469  -36.1589 H   0  0  0  0  0  0  0  0  0  0  0  0
  -10.7434   13.8663  -39.2301 H   0  0  0  0  0  0  0  0  0  0  0  0
   -9.6804   15.9211  -39.6532 H   0  0  0  0  0  0  0  0  0  0  0  0
  -10.6279   15.5024  -40.9156 H   0  0  0  0  0  0  0  0  0  0  0  0
   -9.6015   14.8240  -35.0283 H   0  0  0  0  0  0  0  0  0  0  0  0
  1  9  1  0  0  0  0
  1 11  2  0  0  0  0
  1 12  1  0  0  0  0
  2  3  1  0  0  0  0
  2  5  1  0  0  0  0
  3  6  1  0  0  0  0
  4  5  1  0  0  0  0
  4  7  1  0  0  0  0
  5  8  1  0  0  0  0
  6  7  1  0  0  0  0
  6  9  1  0  0  0  0
  7  9  1  0  0  0  0
  8  9  1  0  0  0  0
  8 10  1  0  0  0  0
  2 13  1  0  0  0  0
  2 14  1  0  0  0  0
  3 15  1  0  0  0  0
  3 16  1  0  0  0  0
  4 17  1  0  0  0  0
  4 18  1  0  0  0  0
  5 19  1  0  0  0  0
  6 20  1  0  0  0  0
  7 21  1  0  0  0  0
  8 22  1  0  0  0  0
 10 23  1  0  0  0  0
 10 24  1  0  0  0  0
 12 25  1  0  0  0  0
M  END
> <id>
EN300-26677876

> <smiles>
Cl.NC1C2CC3C(CC2)C31C(=O)O

> <MDLNUMBER>
MFCD32678884

> <IUPAC Name>
8-aminotricyclo[3.2.1.0,2,7]octane-1-carboxylic acid hydrochloride

> <CAS>
2649060-95-5

> <Purity>
95

> <URL>
https://www.enaminestore.com/catalog/EN300-26677876

> <Saltdate>
Cl

> <ROCS_ShapeQuery>
__x1247relevant_x1083L0AP1_x1305L0BP1_

> <ROCS_TanimotoCombo>
0.739 

> <ROCS_ShapeTanimoto>
0.464 

> <ROCS_ColorTanimoto>
0.275 

> <ROCS_RefTversky>
0.389 

> <ROCS_RefColorTversky>
0.412 

> <ROCS_RefTverskyCombo>
0.801 

> <ROCS_FitTversky>
1.707 

> <ROCS_FitColorTversky>
0.451 

> <ROCS_FitTverskyCombo>
2.159 

> <ROCS_ColorScore>
-13.885

> <ROCS_Overlap>
1143.413

> <ROCS_Rank>
138                 

$$$$
untitled-dbase-109451_5
  -OEChem-06232314393D

 24 26  0     1  0  0  0  0  0999 V2000
  -10.1604   14.7249  -37.3550 C   0  0  0  0  0  0  0  0  0  0  0  0
  -13.0018   14.3407  -39.6198 C   0  0  0  0  0  0  0  0  0  0  0  0
  -13.8119   14.5925  -37.4801 C   0  0  0  0  0  0  0  0  0  0  0  0
  -11.4146   15.9576  -39.2127 C   0  0  0  0  0  0  0  0  0  0  0  0
  -12.2268   16.2098  -37.0668 C   0  0  0  0  0  0  0  0  0  0  0  0
  -12.5642   14.0439  -38.1812 C   0  0  0  0  0  0  0  0  0  0  0  0
  -12.9323   15.8549  -39.3965 C   0  0  2  0  0  0  0  0  0  0  0  0
  -13.4969   16.0304  -37.9050 C   0  0  1  0  0  0  0  0  0  0  0  0
  -11.4676   15.1752  -37.8993 C   0  0  0  0  0  0  0  0  0  0  0  0
  -10.0486   13.3595  -37.2397 N   0  0  0  0  0  0  0  0  0  0  0  0
   -9.2692   15.5168  -37.0582 O   0  0  0  0  0  0  0  0  0  0  0  0
  -12.3026   13.9616  -40.3727 H   0  0  0  0  0  0  0  0  0  0  0  0
  -14.0062   13.9844  -39.8711 H   0  0  0  0  0  0  0  0  0  0  0  0
  -14.7594   14.2185  -37.8817 H   0  0  0  0  0  0  0  0  0  0  0  0
  -13.8078   14.4292  -36.3971 H   0  0  0  0  0  0  0  0  0  0  0  0
  -10.8196   15.4718  -39.9940 H   0  0  0  0  0  0  0  0  0  0  0  0
  -11.0593   16.9889  -39.1118 H   0  0  0  0  0  0  0  0  0  0  0  0
  -11.8139   17.2234  -37.1174 H   0  0  0  0  0  0  0  0  0  0  0  0
  -12.3275   15.9398  -36.0098 H   0  0  0  0  0  0  0  0  0  0  0  0
  -12.3018   13.0092  -37.9602 H   0  0  0  0  0  0  0  0  0  0  0  0
  -13.3725   16.4823  -40.1712 H   0  0  0  0  0  0  0  0  0  0  0  0
  -14.2865   16.7664  -37.7562 H   0  0  0  0  0  0  0  0  0  0  0  0
   -9.1850   12.9707  -36.8754 H   0  0  0  0  0  0  0  0  0  0  0  0
  -10.7950   12.7248  -37.5042 H   0  0  0  0  0  0  0  0  0  0  0  0
  1  9  1  0  0  0  0
  1 10  1  0  0  0  0
  1 11  2  0  0  0  0
  2  6  1  0  0  0  0
  2  7  1  0  0  0  0
  3  6  1  0  0  0  0
  3  8  1  0  0  0  0
  4  7  1  0  0  0  0
  4  9  1  0  0  0  0
  5  8  1  0  0  0  0
  5  9  1  0  0  0  0
  6  9  1  0  0  0  0
  7  8  1  0  0  0  0
  2 12  1  0  0  0  0
  2 13  1  0  0  0  0
  3 14  1  0  0  0  0
  3 15  1  0  0  0  0
  4 16  1  0  0  0  0
  4 17  1  0  0  0  0
  5 18  1  0  0  0  0
  5 19  1  0  0  0  0
  6 20  1  0  0  0  0
  7 21  1  0  0  0  0
  8 22  1  0  0  0  0
 10 23  1  0  0  0  0
 10 24  1  0  0  0  0
M  END
> <id>
EN300-26975742

> <smiles>
NC(=O)C12CC3CC2CC3C1

> <IUPAC Name>
tricyclo[3.3.0.0,3,7]octane-1-carboxamide

> <CAS>
2445793-13-3

> <URL>
https://www.enaminestore.com/catalog/EN300-26975742

> <ROCS_ShapeQuery>
__x1247relevant_x1083L0AP1_x1305L0BP1_

> <ROCS_TanimotoCombo>
0.738 

> <ROCS_ShapeTanimoto>
0.464 

> <ROCS_ColorTanimoto>
0.275 

> <ROCS_RefTversky>
0.386 

> <ROCS_RefColorTversky>
0.377 

> <ROCS_RefTverskyCombo>
0.763 

> <ROCS_FitTversky>
1.767 

> <ROCS_FitColorTversky>
0.503 

> <ROCS_FitTverskyCombo>
2.270 

> <ROCS_ColorScore>
-12.588

> <ROCS_Overlap>
1133.734

> <ROCS_Rank>
139                 

$$$$
untitled-dbase-55981_6
  -OEChem-06232314393D

 34 36  0     0  0  0  0  0  0999 V2000
  -10.0908   15.6347  -36.7171 C   0  0  0  0  0  0  0  0  0  0  0  0
  -14.0568   15.7470  -39.1754 C   0  0  0  0  0  0  0  0  0  0  0  0
  -13.0427   16.2212  -36.9367 C   0  0  0  0  0  0  0  0  0  0  0  0
  -11.7291   16.6670  -39.0359 C   0  0  0  0  0  0  0  0  0  0  0  0
  -13.3984   13.8593  -37.6642 C   0  0  0  0  0  0  0  0  0  0  0  0
  -12.0933   14.3148  -39.7712 C   0  0  0  0  0  0  0  0  0  0  0  0
  -13.1298   16.6954  -38.3977 C   0  0  0  0  0  0  0  0  0  0  0  0
  -13.4934   14.3171  -39.1315 C   0  0  0  0  0  0  0  0  0  0  0  0
  -12.4536   14.7927  -36.8707 C   0  0  0  0  0  0  0  0  0  0  0  0
  -11.1394   15.2367  -38.9742 C   0  0  0  0  0  0  0  0  0  0  0  0
  -11.0399   14.7597  -37.5017 C   0  0  0  0  0  0  0  0  0  0  0  0
   -9.9698   17.0646  -34.8397 C   0  0  0  0  0  0  0  0  0  0  0  0
  -10.4211   13.4343  -37.3932 N   0  0  0  0  0  0  0  0  0  0  0  0
   -8.9101   15.7895  -36.9986 O   0  0  0  0  0  0  0  0  0  0  0  0
  -10.7552   16.2053  -35.6721 O   0  0  0  0  0  0  0  0  0  0  0  0
  -15.0648   15.7676  -38.7433 H   0  0  0  0  0  0  0  0  0  0  0  0
  -14.1506   16.0823  -40.2155 H   0  0  0  0  0  0  0  0  0  0  0  0
  -12.4290   16.9179  -36.3539 H   0  0  0  0  0  0  0  0  0  0  0  0
  -14.0407   16.2328  -36.4806 H   0  0  0  0  0  0  0  0  0  0  0  0
  -11.7886   16.9992  -40.0802 H   0  0  0  0  0  0  0  0  0  0  0  0
  -11.0704   17.3771  -38.5228 H   0  0  0  0  0  0  0  0  0  0  0  0
  -14.3974   13.8780  -37.2094 H   0  0  0  0  0  0  0  0  0  0  0  0
  -13.0651   12.8173  -37.6121 H   0  0  0  0  0  0  0  0  0  0  0  0
  -11.7008   13.2927  -39.8155 H   0  0  0  0  0  0  0  0  0  0  0  0
  -12.1595   14.6607  -40.8107 H   0  0  0  0  0  0  0  0  0  0  0  0
  -13.5320   17.7143  -38.4329 H   0  0  0  0  0  0  0  0  0  0  0  0
  -14.1557   13.6440  -39.6874 H   0  0  0  0  0  0  0  0  0  0  0  0
  -12.4190   14.4723  -35.8218 H   0  0  0  0  0  0  0  0  0  0  0  0
  -10.1509   15.2416  -39.4507 H   0  0  0  0  0  0  0  0  0  0  0  0
  -10.5941   17.4669  -34.0381 H   0  0  0  0  0  0  0  0  0  0  0  0
   -9.5595   17.8801  -35.4406 H   0  0  0  0  0  0  0  0  0  0  0  0
   -9.1505   16.4869  -34.4052 H   0  0  0  0  0  0  0  0  0  0  0  0
  -11.0700   12.8309  -36.9504 H   0  0  0  0  0  0  0  0  0  0  0  0
  -10.2122   13.1208  -38.3093 H   0  0  0  0  0  0  0  0  0  0  0  0
  1 11  1  0  0  0  0
  1 14  2  0  0  0  0
  1 15  1  0  0  0  0
  2  7  1  0  0  0  0
  2  8  1  0  0  0  0
  3  7  1  0  0  0  0
  3  9  1  0  0  0  0
  4  7  1  0  0  0  0
  4 10  1  0  0  0  0
  5  8  1  0  0  0  0
  5  9  1  0  0  0  0
  6  8  1  0  0  0  0
  6 10  1  0  0  0  0
  9 11  1  0  0  0  0
 10 11  1  0  0  0  0
 11 13  1  0  0  0  0
 12 15  1  0  0  0  0
  2 16  1  0  0  0  0
  2 17  1  0  0  0  0
  3 18  1  0  0  0  0
  3 19  1  0  0  0  0
  4 20  1  0  0  0  0
  4 21  1  0  0  0  0
  5 22  1  0  0  0  0
  5 23  1  0  0  0  0
  6 24  1  0  0  0  0
  6 25  1  0  0  0  0
  7 26  1  0  0  0  0
  8 27  1  0  0  0  0
  9 28  1  0  0  0  0
 10 29  1  0  0  0  0
 12 30  1  0  0  0  0
 12 31  1  0  0  0  0
 12 32  1  0  0  0  0
 13 33  1  0  0  0  0
 13 34  1  0  0  0  0
M  END
> <id>
EN300-1068732

> <smiles>
COC(=O)C1(N)C2CC3CC(C2)CC1C3

> <MDLNUMBER>
MFCD09264354

> <IUPAC Name>
methyl 2-aminoadamantane-2-carboxylate

> <CAS>
144876-68-6

> <Purity>
95

> <URL>
https://www.enaminestore.com/catalog/EN300-1068732

> <ROCS_ShapeQuery>
__x1247relevant_x1083L0AP1_x1305L0BP1_

> <ROCS_TanimotoCombo>
0.737 

> <ROCS_ShapeTanimoto>
0.492 

> <ROCS_ColorTanimoto>
0.245 

> <ROCS_RefTversky>
0.419 

> <ROCS_RefColorTversky>
0.261 

> <ROCS_RefTverskyCombo>
0.681 

> <ROCS_FitTversky>
1.547 

> <ROCS_FitColorTversky>
0.799 

> <ROCS_FitTverskyCombo>
2.346 

> <ROCS_ColorScore>
-8.528

> <ROCS_Overlap>
1234.833

> <ROCS_Rank>
140                 

$$$$
untitled-dbase-181028_80
  -OEChem-06232314393D

 38 39  0     1  0  0  0  0  0999 V2000
   -9.9447   15.1395  -36.8163 C   0  0  0  0  0  0  0  0  0  0  0  0
  -13.2944   16.2646  -37.7845 C   0  0  0  0  0  0  0  0  0  0  0  0
  -11.2468   15.7636  -38.8833 C   0  0  0  0  0  0  0  0  0  0  0  0
  -13.0235   13.9653  -37.5119 C   0  0  0  0  0  0  0  0  0  0  0  0
  -12.5000   15.2799  -36.9242 C   0  0  2  0  0  0  0  0  0  0  0  0
  -12.7657   15.6542  -39.0741 C   0  0  2  0  0  0  0  0  0  0  0  0
  -12.6949   15.4584  -35.4348 C   0  0  0  0  0  0  0  0  0  0  0  0
   -7.8330   14.2214  -35.1193 C   0  0  0  0  0  0  0  0  0  0  0  0
   -9.5008   12.5540  -34.2547 C   0  0  0  0  0  0  0  0  0  0  0  0
   -8.8223   12.5057  -36.6725 C   0  0  0  0  0  0  0  0  0  0  0  0
  -13.2959   16.2332  -40.3613 C   0  0  0  0  0  0  0  0  0  0  0  0
   -9.0735   13.3951  -35.4556 C   0  0  0  0  0  0  0  0  0  0  0  0
  -11.1318   15.4523  -37.4562 N   0  0  0  0  0  0  0  0  0  0  0  0
   -8.8369   15.5562  -37.1423 O   0  0  0  0  0  0  0  0  0  0  0  0
  -13.1188   14.2505  -38.9371 O   0  0  0  0  0  0  0  0  0  0  0  0
  -14.7063   16.0603  -40.4070 O   0  0  0  0  0  0  0  0  0  0  0  0
  -10.1489   14.2906  -35.7596 O   0  0  0  0  0  0  0  0  0  0  0  0
  -14.3781   16.1498  -37.6656 H   0  0  0  0  0  0  0  0  0  0  0  0
  -13.0117   17.3126  -37.6372 H   0  0  0  0  0  0  0  0  0  0  0  0
  -10.6842   15.0278  -39.4664 H   0  0  0  0  0  0  0  0  0  0  0  0
  -10.8564   16.7719  -39.0534 H   0  0  0  0  0  0  0  0  0  0  0  0
  -12.3552   13.1131  -37.3537 H   0  0  0  0  0  0  0  0  0  0  0  0
  -14.0263   13.7097  -37.1529 H   0  0  0  0  0  0  0  0  0  0  0  0
  -12.1015   14.7261  -34.8797 H   0  0  0  0  0  0  0  0  0  0  0  0
  -13.7468   15.3243  -35.1667 H   0  0  0  0  0  0  0  0  0  0  0  0
  -12.3846   16.4604  -35.1246 H   0  0  0  0  0  0  0  0  0  0  0  0
   -7.5231   14.8266  -35.9788 H   0  0  0  0  0  0  0  0  0  0  0  0
   -8.0111   14.8891  -34.2701 H   0  0  0  0  0  0  0  0  0  0  0  0
   -6.9843   13.5717  -34.8767 H   0  0  0  0  0  0  0  0  0  0  0  0
  -10.3905   11.9595  -34.4915 H   0  0  0  0  0  0  0  0  0  0  0  0
   -9.7734   13.1936  -33.4074 H   0  0  0  0  0  0  0  0  0  0  0  0
   -8.7048   11.8742  -33.9339 H   0  0  0  0  0  0  0  0  0  0  0  0
   -9.7120   11.9129  -36.9139 H   0  0  0  0  0  0  0  0  0  0  0  0
   -8.5504   13.0955  -37.5539 H   0  0  0  0  0  0  0  0  0  0  0  0
   -8.0181   11.7886  -36.4716 H   0  0  0  0  0  0  0  0  0  0  0  0
  -12.8547   15.7265  -41.2276 H   0  0  0  0  0  0  0  0  0  0  0  0
  -13.0740   17.3047  -40.4278 H   0  0  0  0  0  0  0  0  0  0  0  0
  -14.8726   15.1049  -40.3622 H   0  0  0  0  0  0  0  0  0  0  0  0
  1 13  1  0  0  0  0
  1 14  2  0  0  0  0
  1 17  1  0  0  0  0
  2  5  1  0  0  0  0
  2  6  1  0  0  0  0
  3  6  1  0  0  0  0
  3 13  1  0  0  0  0
  4  5  1  0  0  0  0
  4 15  1  0  0  0  0
  5  7  1  0  0  0  0
  5 13  1  0  0  0  0
  6 11  1  0  0  0  0
  6 15  1  0  0  0  0
  8 12  1  0  0  0  0
  9 12  1  0  0  0  0
 10 12  1  0  0  0  0
 11 16  1  0  0  0  0
 12 17  1  0  0  0  0
  2 18  1  0  0  0  0
  2 19  1  0  0  0  0
  3 20  1  0  0  0  0
  3 21  1  0  0  0  0
  4 22  1  0  0  0  0
  4 23  1  0  0  0  0
  7 24  1  0  0  0  0
  7 25  1  0  0  0  0
  7 26  1  0  0  0  0
  8 27  1  0  0  0  0
  8 28  1  0  0  0  0
  8 29  1  0  0  0  0
  9 30  1  0  0  0  0
  9 31  1  0  0  0  0
  9 32  1  0  0  0  0
 10 33  1  0  0  0  0
 10 34  1  0  0  0  0
 10 35  1  0  0  0  0
 11 36  1  0  0  0  0
 11 37  1  0  0  0  0
 16 38  1  0  0  0  0
M  END
> <id>
EN300-45274166

> <smiles>
CC(C)(C)OC(=O)N1CC2(CO)CC1(C)CO2

> <IUPAC Name>
tert-butyl 1-(hydroxymethyl)-4-methyl-2-oxa-5-azabicyclo[2.2.1]heptane-5-carboxylate

> <Purity>
95

> <URL>
https://www.enaminestore.com/catalog/EN300-45274166

> <ROCS_ShapeQuery>
__x1247relevant_x1083L0AP1_x1305L0BP1_

> <ROCS_TanimotoCombo>
0.737 

> <ROCS_ShapeTanimoto>
0.504 

> <ROCS_ColorTanimoto>
0.233 

> <ROCS_RefTversky>
0.435 

> <ROCS_RefColorTversky>
0.262 

> <ROCS_RefTverskyCombo>
0.697 

> <ROCS_FitTversky>
1.459 

> <ROCS_FitColorTversky>
0.683 

> <ROCS_FitTverskyCombo>
2.142 

> <ROCS_ColorScore>
-8.571

> <ROCS_Overlap>
1283.028

> <ROCS_Rank>
141                 

$$$$
untitled-dbase-117589_286
  -OEChem-06232314393D

 37 39  0     1  0  0  0  0  0999 V2000
   -9.7584   15.1743  -36.3833 C   0  0  0  0  0  0  0  0  0  0  0  0
  -12.2133   16.2485  -40.7316 C   0  0  0  0  0  0  0  0  0  0  0  0
  -14.3734   15.6162  -38.2055 C   0  0  0  0  0  0  0  0  0  0  0  0
  -14.0340   14.1812  -38.7382 C   0  0  0  0  0  0  0  0  0  0  0  0
  -10.6533   15.3874  -37.5276 C   0  0  0  0  0  0  0  0  0  0  0  0
  -12.0941   15.7713  -37.2640 C   0  0  2  0  0  0  0  0  0  0  0  0
  -11.7688   14.3941  -37.7749 C   0  0  1  0  0  0  0  0  0  0  0  0
  -13.0192   16.3503  -38.3313 C   0  0  1  0  0  0  0  0  0  0  0  0
  -12.5343   14.3004  -39.0928 C   0  0  2  0  0  0  0  0  0  0  0  0
  -11.9578   16.1517  -43.5752 C   0  0  0  0  0  0  0  0  0  0  0  0
  -10.2932   14.3131  -43.1778 C   0  0  0  0  0  0  0  0  0  0  0  0
  -12.6815   14.0147  -42.4598 C   0  0  0  0  0  0  0  0  0  0  0  0
  -11.5405   15.0142  -42.6441 C   0  0  0  0  0  0  0  0  0  0  0  0
  -12.5165   15.6884  -39.5181 N   0  0  0  0  0  0  0  0  0  0  0  0
  -10.0937   14.6973  -35.3094 O   0  0  0  0  0  0  0  0  0  0  0  0
  -12.7722   17.2401  -41.1935 O   0  0  0  0  0  0  0  0  0  0  0  0
   -8.4998   15.5828  -36.6773 O   0  0  0  0  0  0  0  0  0  0  0  0
  -11.2099   15.5694  -41.3663 O   0  0  0  0  0  0  0  0  0  0  0  0
  -15.1357   16.0776  -38.8431 H   0  0  0  0  0  0  0  0  0  0  0  0
  -14.7440   15.5796  -37.1761 H   0  0  0  0  0  0  0  0  0  0  0  0
  -14.2329   13.4190  -37.9781 H   0  0  0  0  0  0  0  0  0  0  0  0
  -14.6359   13.9642  -39.6277 H   0  0  0  0  0  0  0  0  0  0  0  0
  -10.1628   15.8229  -38.3909 H   0  0  0  0  0  0  0  0  0  0  0  0
  -12.4407   15.8934  -36.2479 H   0  0  0  0  0  0  0  0  0  0  0  0
  -11.8862   13.5428  -37.1200 H   0  0  0  0  0  0  0  0  0  0  0  0
  -13.0598   17.4392  -38.3870 H   0  0  0  0  0  0  0  0  0  0  0  0
  -12.1485   13.5781  -39.8133 H   0  0  0  0  0  0  0  0  0  0  0  0
  -12.8528   16.6576  -43.1956 H   0  0  0  0  0  0  0  0  0  0  0  0
  -11.1606   16.8937  -43.6880 H   0  0  0  0  0  0  0  0  0  0  0  0
  -12.2173   15.7686  -44.5687 H   0  0  0  0  0  0  0  0  0  0  0  0
   -9.9903   13.4962  -42.5129 H   0  0  0  0  0  0  0  0  0  0  0  0
   -9.4450   15.0057  -43.2222 H   0  0  0  0  0  0  0  0  0  0  0  0
  -10.4580   13.9021  -44.1791 H   0  0  0  0  0  0  0  0  0  0  0  0
  -12.3824   13.1987  -41.7920 H   0  0  0  0  0  0  0  0  0  0  0  0
  -13.5735   14.4932  -42.0428 H   0  0  0  0  0  0  0  0  0  0  0  0
  -12.9502   13.5496  -43.4152 H   0  0  0  0  0  0  0  0  0  0  0  0
   -7.8861   15.4503  -35.9235 H   0  0  0  0  0  0  0  0  0  0  0  0
  1  5  1  0  0  0  0
  1 15  2  0  0  0  0
  1 17  1  0  0  0  0
  2 14  1  0  0  0  0
  2 16  2  0  0  0  0
  2 18  1  0  0  0  0
  3  4  1  0  0  0  0
  3  8  1  1  0  0  0
  4  9  1  1  0  0  0
  5  6  1  0  0  0  0
  5  7  1  0  0  0  0
  6  7  1  0  0  0  0
  6  8  1  0  0  0  0
  7  9  1  0  0  0  0
  8 14  1  0  0  0  0
  9 14  1  0  0  0  0
 10 13  1  0  0  0  0
 11 13  1  0  0  0  0
 12 13  1  0  0  0  0
 13 18  1  0  0  0  0
  3 19  1  0  0  0  0
  3 20  1  0  0  0  0
  4 21  1  0  0  0  0
  4 22  1  0  0  0  0
  5 23  1  0  0  0  0
  6 24  1  0  0  0  0
  7 25  1  0  0  0  0
  8 26  1  0  0  0  0
  9 27  1  0  0  0  0
 10 28  1  0  0  0  0
 10 29  1  0  0  0  0
 10 30  1  0  0  0  0
 11 31  1  0  0  0  0
 11 32  1  0  0  0  0
 11 33  1  0  0  0  0
 12 34  1  0  0  0  0
 12 35  1  0  0  0  0
 12 36  1  0  0  0  0
 17 37  1  0  0  0  0
M  END
> <id>
EN300-1653065

> <smiles>
CC(C)(C)OC(=O)N1[C@H]2CC[C@@H]1C3C(C32)C(=O)O

> <IUPAC Name>
(1R,5S)-8-[(tert-butoxy)carbonyl]-8-azatricyclo[3.2.1.0,2,4]octane-3-carboxylic acid

> <CAS>
2171379-41-0

> <URL>
https://www.enaminestore.com/catalog/EN300-1653065

> <ROCS_ShapeQuery>
__x1247relevant_x1083L0AP1_x1305L0BP1_

> <ROCS_TanimotoCombo>
0.737 

> <ROCS_ShapeTanimoto>
0.457 

> <ROCS_ColorTanimoto>
0.280 

> <ROCS_RefTversky>
0.413 

> <ROCS_RefColorTversky>
0.369 

> <ROCS_RefTverskyCombo>
0.782 

> <ROCS_FitTversky>
1.308 

> <ROCS_FitColorTversky>
0.538 

> <ROCS_FitTverskyCombo>
1.846 

> <ROCS_ColorScore>
-12.273

> <ROCS_Overlap>
1218.638

> <ROCS_Rank>
142                 

$$$$
untitled-dbase-43955_2
  -OEChem-06232314393D

 33 35  0     1  0  0  0  0  0999 V2000
  -13.8812   15.2704  -37.2417 C   0  0  0  0  0  0  0  0  0  0  0  0
  -13.7044   13.9857  -38.0803 C   0  0  0  0  0  0  0  0  0  0  0  0
  -10.7614   14.2291  -36.6094 C   0  0  0  0  0  0  0  0  0  0  0  0
  -11.6148   16.4138  -37.6216 C   0  0  0  0  0  0  0  0  0  0  0  0
  -11.3828   14.2672  -39.1045 C   0  0  0  0  0  0  0  0  0  0  0  0
   -9.6342   14.8592  -35.8097 C   0  0  0  0  0  0  0  0  0  0  0  0
  -13.1231   16.4075  -37.9404 C   0  0  1  0  0  0  0  0  0  0  0  0
  -12.8989   14.3375  -39.3429 C   0  0  2  0  0  0  0  0  0  0  0  0
   -9.3057   15.3043  -38.0615 C   0  0  1  0  0  0  0  0  0  0  0  0
  -10.8346   15.0795  -37.8921 C   0  0  0  0  0  0  0  0  0  0  0  0
   -8.8497   16.4369  -38.9676 C   0  0  0  0  0  0  0  0  0  0  0  0
  -14.7630   16.0987  -39.9970 O   0  0  0  0  0  0  0  0  0  0  0  0
  -12.3514   16.6908  -40.4791 O   0  0  0  0  0  0  0  0  0  0  0  0
   -8.7761   15.5211  -36.7434 O   0  0  0  0  0  0  0  0  0  0  0  0
  -13.3536   16.0320  -39.6704 S   0  0  0  0  0  0  0  0  0  0  0  0
   -8.9829   15.8687  -41.0172 I   0  0  0  0  0  0  0  0  0  0  0  0
  -14.9510   15.5160  -37.2146 H   0  0  0  0  0  0  0  0  0  0  0  0
  -13.5792   15.1405  -36.1992 H   0  0  0  0  0  0  0  0  0  0  0  0
  -13.2430   13.1761  -37.5066 H   0  0  0  0  0  0  0  0  0  0  0  0
  -14.6989   13.6251  -38.3725 H   0  0  0  0  0  0  0  0  0  0  0  0
  -10.4825   13.1947  -36.8489 H   0  0  0  0  0  0  0  0  0  0  0  0
  -11.6761   14.1787  -36.0191 H   0  0  0  0  0  0  0  0  0  0  0  0
  -11.1788   17.2225  -38.2163 H   0  0  0  0  0  0  0  0  0  0  0  0
  -11.4877   16.7220  -36.5768 H   0  0  0  0  0  0  0  0  0  0  0  0
  -11.0972   13.2122  -39.0017 H   0  0  0  0  0  0  0  0  0  0  0  0
  -10.8836   14.6098  -40.0197 H   0  0  0  0  0  0  0  0  0  0  0  0
  -10.0064   15.6068  -35.1023 H   0  0  0  0  0  0  0  0  0  0  0  0
   -9.0608   14.1135  -35.2508 H   0  0  0  0  0  0  0  0  0  0  0  0
  -13.5691   17.3834  -37.7285 H   0  0  0  0  0  0  0  0  0  0  0  0
  -13.1889   13.7208  -40.1981 H   0  0  0  0  0  0  0  0  0  0  0  0
   -8.8434   14.3775  -38.4303 H   0  0  0  0  0  0  0  0  0  0  0  0
   -7.8171   16.7059  -38.7233 H   0  0  0  0  0  0  0  0  0  0  0  0
   -9.4692   17.3211  -38.7861 H   0  0  0  0  0  0  0  0  0  0  0  0
  1  2  1  0  0  0  0
  1  7  1  0  0  0  0
  2  8  1  0  0  0  0
  3  6  1  0  0  0  0
  3 10  1  0  0  0  0
  4  7  1  0  0  0  0
  4 10  1  0  0  0  0
  5  8  1  0  0  0  0
  5 10  1  0  0  0  0
  6 14  1  0  0  0  0
  7 15  1  0  0  0  0
  8 15  1  0  0  0  0
  9 10  1  0  0  0  0
  9 11  1  0  0  0  0
  9 14  1  0  0  0  0
 11 16  1  0  0  0  0
 12 15  2  0  0  0  0
 13 15  2  0  0  0  0
  1 17  1  0  0  0  0
  1 18  1  0  0  0  0
  2 19  1  0  0  0  0
  2 20  1  0  0  0  0
  3 21  1  0  0  0  0
  3 22  1  0  0  0  0
  4 23  1  0  0  0  0
  4 24  1  0  0  0  0
  5 25  1  0  0  0  0
  5 26  1  0  0  0  0
  6 27  1  0  0  0  0
  6 28  1  0  0  0  0
  7 29  1  0  0  0  0
  8 30  1  0  0  0  0
  9 31  1  0  0  0  0
 11 32  1  0  0  0  0
 11 33  1  0  0  0  0
M  END
> <id>
EN300-1479348

> <smiles>
ICC1OCCC21CC3CCC(C2)S3(=O)=O

> <IUPAC Name>
2'-(iodomethyl)-8lambda6-thiaspiro[bicyclo[3.2.1]octane-3,3'-oxolane]-8,8-dione

> <CAS>
2169602-52-0

> <URL>
https://www.enaminestore.com/catalog/EN300-1479348

> <ROCS_ShapeQuery>
__x1247relevant_x1083L0AP1_x1305L0BP1_

> <ROCS_TanimotoCombo>
0.737 

> <ROCS_ShapeTanimoto>
0.483 

> <ROCS_ColorTanimoto>
0.255 

> <ROCS_RefTversky>
0.413 

> <ROCS_RefColorTversky>
0.276 

> <ROCS_RefTverskyCombo>
0.689 

> <ROCS_FitTversky>
1.537 

> <ROCS_FitColorTversky>
0.764 

> <ROCS_FitTverskyCombo>
2.301 

> <ROCS_ColorScore>
-9.034

> <ROCS_Overlap>
1215.932

> <ROCS_Rank>
143                 

$$$$
untitled-dbase-46588_2
  -OEChem-06232314393D

 32 34  0     1  0  0  0  0  0999 V2000
   -9.8291   14.5848  -35.7881 C   0  0  0  0  0  0  0  0  0  0  0  0
  -11.0059   14.0986  -36.5859 C   0  0  0  0  0  0  0  0  0  0  0  0
  -14.0354   15.2924  -37.3374 C   0  0  0  0  0  0  0  0  0  0  0  0
  -13.8662   14.0143  -38.1873 C   0  0  0  0  0  0  0  0  0  0  0  0
  -11.7003   16.3377  -37.5874 C   0  0  0  0  0  0  0  0  0  0  0  0
  -11.4933   14.2134  -39.1077 C   0  0  0  0  0  0  0  0  0  0  0  0
  -13.1921   16.4060  -37.9731 C   0  0  1  0  0  0  0  0  0  0  0  0
  -12.9933   14.3546  -39.4081 C   0  0  2  0  0  0  0  0  0  0  0  0
   -9.4288   15.1297  -37.9569 C   0  0  1  0  0  0  0  0  0  0  0  0
  -10.9664   14.9755  -37.8543 C   0  0  0  0  0  0  0  0  0  0  0  0
   -8.8867   16.2914  -38.7752 C   0  0  0  0  0  0  0  0  0  0  0  0
   -9.6512   14.3944  -34.5953 O   0  0  0  0  0  0  0  0  0  0  0  0
  -12.2933   16.7035  -40.4686 O   0  0  0  0  0  0  0  0  0  0  0  0
  -14.7476   16.2086  -40.1088 O   0  0  0  0  0  0  0  0  0  0  0  0
   -8.9685   15.2568  -36.6056 O   0  0  0  0  0  0  0  0  0  0  0  0
  -13.3590   16.0739  -39.7200 S   0  0  0  0  0  0  0  0  0  0  0  0
   -8.9771   15.8496  -40.8549 I   0  0  0  0  0  0  0  0  0  0  0  0
  -10.8844   13.0347  -36.7831 H   0  0  0  0  0  0  0  0  0  0  0  0
  -11.9106   14.2600  -35.9915 H   0  0  0  0  0  0  0  0  0  0  0  0
  -15.0940   15.5801  -37.3554 H   0  0  0  0  0  0  0  0  0  0  0  0
  -13.7813   15.1264  -36.2864 H   0  0  0  0  0  0  0  0  0  0  0  0
  -13.4752   13.1707  -37.6115 H   0  0  0  0  0  0  0  0  0  0  0  0
  -14.8598   13.7009  -38.5357 H   0  0  0  0  0  0  0  0  0  0  0  0
  -11.1824   17.1281  -38.1434 H   0  0  0  0  0  0  0  0  0  0  0  0
  -11.6040   16.6043  -36.5283 H   0  0  0  0  0  0  0  0  0  0  0  0
  -11.2598   13.1443  -39.0312 H   0  0  0  0  0  0  0  0  0  0  0  0
  -10.9536   14.5662  -39.9957 H   0  0  0  0  0  0  0  0  0  0  0  0
  -13.6042   17.4000  -37.7666 H   0  0  0  0  0  0  0  0  0  0  0  0
  -13.2711   13.7654  -40.2841 H   0  0  0  0  0  0  0  0  0  0  0  0
   -8.9775   14.1940  -38.3678 H   0  0  0  0  0  0  0  0  0  0  0  0
   -7.8548   16.4860  -38.4763 H   0  0  0  0  0  0  0  0  0  0  0  0
   -9.4722   17.1861  -38.5544 H   0  0  0  0  0  0  0  0  0  0  0  0
  1  2  1  0  0  0  0
  1 12  2  0  0  0  0
  1 15  1  0  0  0  0
  2 10  1  0  0  0  0
  3  4  1  0  0  0  0
  3  7  1  0  0  0  0
  4  8  1  0  0  0  0
  5  7  1  0  0  0  0
  5 10  1  0  0  0  0
  6  8  1  0  0  0  0
  6 10  1  0  0  0  0
  7 16  1  0  0  0  0
  8 16  1  0  0  0  0
  9 10  1  0  0  0  0
  9 11  1  0  0  0  0
  9 15  1  0  0  0  0
 11 17  1  0  0  0  0
 13 16  2  0  0  0  0
 14 16  2  0  0  0  0
  2 18  1  0  0  0  0
  2 19  1  0  0  0  0
  3 20  1  0  0  0  0
  3 21  1  0  0  0  0
  4 22  1  0  0  0  0
  4 23  1  0  0  0  0
  5 24  1  0  0  0  0
  5 25  1  0  0  0  0
  6 26  1  0  0  0  0
  6 27  1  0  0  0  0
  7 28  1  0  0  0  0
  8 29  1  0  0  0  0
  9 30  1  0  0  0  0
 11 31  1  0  0  0  0
 11 32  1  0  0  0  0
M  END
> <id>
EN300-1478881

> <smiles>
ICC1OC(=O)CC21CC3CCC(C2)S3(=O)=O

> <IUPAC Name>
2'-(iodomethyl)-8lambda6-thiaspiro[bicyclo[3.2.1]octane-3,3'-oxolane]-5',8,8-trione

> <CAS>
2172178-88-8

> <URL>
https://www.enaminestore.com/catalog/EN300-1478881

> <ROCS_ShapeQuery>
__x1247relevant_x1083L0AP1_x1305L0BP1_

> <ROCS_TanimotoCombo>
0.737 

> <ROCS_ShapeTanimoto>
0.497 

> <ROCS_ColorTanimoto>
0.240 

> <ROCS_RefTversky>
0.427 

> <ROCS_RefColorTversky>
0.263 

> <ROCS_RefTverskyCombo>
0.690 

> <ROCS_FitTversky>
1.494 

> <ROCS_FitColorTversky>
0.728 

> <ROCS_FitTverskyCombo>
2.222 

> <ROCS_ColorScore>
-8.603

> <ROCS_Overlap>
1258.742

> <ROCS_Rank>
144                 

$$$$
untitled-dbase-109452_11
  -OEChem-06232314393D

 28 30  0     1  0  0  0  0  0999 V2000
  -12.3693   15.1021  -39.9455 C   0  0  0  0  0  0  0  0  0  0  0  0
  -13.8115   14.0991  -38.4631 C   0  0  0  0  0  0  0  0  0  0  0  0
  -11.5878   16.4704  -38.2666 C   0  0  0  0  0  0  0  0  0  0  0  0
  -13.0359   15.4632  -36.7782 C   0  0  0  0  0  0  0  0  0  0  0  0
  -12.3045   14.1620  -38.7364 C   0  0  0  0  0  0  0  0  0  0  0  0
  -12.8635   16.2747  -39.0921 C   0  0  2  0  0  0  0  0  0  0  0  0
  -13.8680   15.5762  -38.0597 C   0  0  1  0  0  0  0  0  0  0  0  0
  -11.7641   15.1165  -37.5647 C   0  0  0  0  0  0  0  0  0  0  0  0
   -9.3973   15.5672  -36.8291 C   0  0  0  0  0  0  0  0  0  0  0  0
  -10.5938   14.6181  -36.7634 C   0  0  2  0  0  0  0  0  0  0  0  0
  -10.1615   13.2883  -37.2761 N   0  0  0  0  0  0  0  0  0  0  0  0
  -11.3957   15.2659  -40.4194 H   0  0  0  0  0  0  0  0  0  0  0  0
  -13.0821   14.7981  -40.7194 H   0  0  0  0  0  0  0  0  0  0  0  0
  -14.4229   13.8656  -39.3412 H   0  0  0  0  0  0  0  0  0  0  0  0
  -14.0780   13.4006  -37.6629 H   0  0  0  0  0  0  0  0  0  0  0  0
  -10.6696   16.5443  -38.8595 H   0  0  0  0  0  0  0  0  0  0  0  0
  -11.6348   17.3368  -37.5979 H   0  0  0  0  0  0  0  0  0  0  0  0
  -12.9793   16.4016  -36.2158 H   0  0  0  0  0  0  0  0  0  0  0  0
  -13.3610   14.6727  -36.0931 H   0  0  0  0  0  0  0  0  0  0  0  0
  -11.7991   13.2085  -38.8897 H   0  0  0  0  0  0  0  0  0  0  0  0
  -13.2320   17.1471  -39.6310 H   0  0  0  0  0  0  0  0  0  0  0  0
  -14.8603   16.0148  -37.9575 H   0  0  0  0  0  0  0  0  0  0  0  0
   -9.0752   15.7332  -37.8629 H   0  0  0  0  0  0  0  0  0  0  0  0
   -8.5494   15.1557  -36.2718 H   0  0  0  0  0  0  0  0  0  0  0  0
   -9.6450   16.5448  -36.4007 H   0  0  0  0  0  0  0  0  0  0  0  0
  -10.8786   14.4838  -35.7076 H   0  0  0  0  0  0  0  0  0  0  0  0
   -9.3981   13.0076  -36.7225 H   0  0  0  0  0  0  0  0  0  0  0  0
  -10.9326   12.6851  -37.1783 H   0  0  0  0  0  0  0  0  0  0  0  0
  1  5  1  0  0  0  0
  1  6  1  0  0  0  0
  2  5  1  0  0  0  0
  2  7  1  0  0  0  0
  3  6  1  0  0  0  0
  3  8  1  0  0  0  0
  4  7  1  0  0  0  0
  4  8  1  0  0  0  0
  5  8  1  0  0  0  0
  6  7  1  0  0  0  0
  8 10  1  0  0  0  0
  9 10  1  0  0  0  0
 10 11  1  0  0  0  0
  1 12  1  0  0  0  0
  1 13  1  0  0  0  0
  2 14  1  0  0  0  0
  2 15  1  0  0  0  0
  3 16  1  0  0  0  0
  3 17  1  0  0  0  0
  4 18  1  0  0  0  0
  4 19  1  0  0  0  0
  5 20  1  0  0  0  0
  6 21  1  0  0  0  0
  7 22  1  0  0  0  0
  9 23  1  0  0  0  0
  9 24  1  0  0  0  0
  9 25  1  0  0  0  0
 10 26  1  0  0  0  0
 11 27  1  0  0  0  0
 11 28  1  0  0  0  0
M  END
> <id>
EN300-26975743

> <smiles>
CC(N)C12CC3CC2CC3C1

> <IUPAC Name>
1-{tricyclo[3.3.0.0,3,7]octan-1-yl}ethan-1-amine

> <CAS>
2445793-08-6

> <URL>
https://www.enaminestore.com/catalog/EN300-26975743

> <ROCS_ShapeQuery>
__x1247relevant_x1083L0AP1_x1305L0BP1_

> <ROCS_TanimotoCombo>
0.737 

> <ROCS_ShapeTanimoto>
0.456 

> <ROCS_ColorTanimoto>
0.281 

> <ROCS_RefTversky>
0.381 

> <ROCS_RefColorTversky>
0.383 

> <ROCS_RefTverskyCombo>
0.764 

> <ROCS_FitTversky>
1.773 

> <ROCS_FitColorTversky>
0.511 

> <ROCS_FitTverskyCombo>
2.285 

> <ROCS_ColorScore>
-12.795

> <ROCS_Overlap>
1117.294

> <ROCS_Rank>
145                 

$$$$
untitled-dbase-151741_1
  -OEChem-06232314393D

 24 25  0     1  0  0  0  0  0999 V2000
  -13.2820   16.3539  -40.2586 C   0  0  0  0  0  0  0  0  0  0  0  0
  -10.1223   14.9836  -36.6617 C   0  0  0  0  0  0  0  0  0  0  0  0
  -13.3419   16.1790  -37.7158 C   0  0  0  0  0  0  0  0  0  0  0  0
  -11.3083   15.6249  -38.8306 C   0  0  0  0  0  0  0  0  0  0  0  0
  -13.2020   13.8597  -37.6206 C   0  0  0  0  0  0  0  0  0  0  0  0
  -12.6220   15.0960  -36.9313 C   0  0  1  0  0  0  0  0  0  0  0  0
  -12.8274   15.6274  -39.0398 C   0  0  2  0  0  0  0  0  0  0  0  0
   -8.8108   15.1233  -37.3911 C   0  0  0  0  0  0  0  0  0  0  0  0
  -11.2448   15.2382  -37.4191 N   0  0  0  0  0  0  0  0  0  0  0  0
  -12.5448   16.8986  -41.0668 O   0  0  0  0  0  0  0  0  0  0  0  0
  -10.1478   14.6615  -35.4734 O   0  0  0  0  0  0  0  0  0  0  0  0
  -13.2721   14.2579  -39.0192 O   0  0  0  0  0  0  0  0  0  0  0  0
  -14.6341   16.3329  -40.3520 O   0  0  0  0  0  0  0  0  0  0  0  0
  -14.4316   16.1236  -37.6166 H   0  0  0  0  0  0  0  0  0  0  0  0
  -13.0009   17.1959  -37.4943 H   0  0  0  0  0  0  0  0  0  0  0  0
  -10.7882   14.8772  -39.4370 H   0  0  0  0  0  0  0  0  0  0  0  0
  -10.8454   16.6086  -38.9568 H   0  0  0  0  0  0  0  0  0  0  0  0
  -12.5780   12.9661  -37.5240 H   0  0  0  0  0  0  0  0  0  0  0  0
  -14.2184   13.6343  -37.2822 H   0  0  0  0  0  0  0  0  0  0  0  0
  -12.7046   15.1101  -35.8437 H   0  0  0  0  0  0  0  0  0  0  0  0
   -8.4577   16.1450  -37.2955 H   0  0  0  0  0  0  0  0  0  0  0  0
   -8.9579   14.8788  -38.4385 H   0  0  0  0  0  0  0  0  0  0  0  0
   -8.0879   14.4394  -36.9574 H   0  0  0  0  0  0  0  0  0  0  0  0
  -15.0453   15.8460  -39.6062 H   0  0  0  0  0  0  0  0  0  0  0  0
  1  7  1  1  0  0  0
  1 10  2  0  0  0  0
  1 13  1  0  0  0  0
  2  8  1  0  0  0  0
  2  9  1  0  0  0  0
  2 11  2  0  0  0  0
  3  6  1  0  0  0  0
  3  7  1  0  0  0  0
  4  7  1  0  0  0  0
  4  9  1  0  0  0  0
  5  6  1  6  0  0  0
  5 12  1  0  0  0  0
  6  9  1  0  0  0  0
  7 12  1  0  0  0  0
  3 14  1  0  0  0  0
  3 15  1  0  0  0  0
  4 16  1  0  0  0  0
  4 17  1  0  0  0  0
  5 18  1  0  0  0  0
  5 19  1  0  0  0  0
  6 20  1  0  0  0  0
  8 21  1  0  0  0  0
  8 22  1  0  0  0  0
  8 23  1  0  0  0  0
 13 24  1  0  0  0  0
M  END
> <id>
EN300-28271497

> <smiles>
CC(=O)N1C[C@@]2(C[C@H]1CO2)C(=O)O

> <IUPAC Name>
(1S,4S)-5-acetyl-2-oxa-5-azabicyclo[2.2.1]heptane-1-carboxylic acid

> <CAS>
2679805-34-4

> <URL>
https://www.enaminestore.com/catalog/EN300-28271497

> <ROCS_ShapeQuery>
__x1247relevant_x1083L0AP1_x1305L0BP1_

> <ROCS_TanimotoCombo>
0.737 

> <ROCS_ShapeTanimoto>
0.496 

> <ROCS_ColorTanimoto>
0.241 

> <ROCS_RefTversky>
0.413 

> <ROCS_RefColorTversky>
0.268 

> <ROCS_RefTverskyCombo>
0.681 

> <ROCS_FitTversky>
1.689 

> <ROCS_FitColorTversky>
0.699 

> <ROCS_FitTverskyCombo>
2.388 

> <ROCS_ColorScore>
-8.784

> <ROCS_Overlap>
1213.369

> <ROCS_Rank>
146                 

$$$$
untitled-dbase-20556_7
  -OEChem-06232314393D

 36 39  0     1  0  0  0  0  0999 V2000
   -9.5894   14.3384  -35.8358 C   0  0  0  0  0  0  0  0  0  0  0  0
  -15.7061   13.0733  -38.0751 C   0  0  0  0  0  0  0  0  0  0  0  0
   -9.0570   13.9221  -37.0661 C   0  0  0  0  0  0  0  0  0  0  0  0
  -15.1645   12.6565  -39.3012 C   0  0  0  0  0  0  0  0  0  0  0  0
  -10.8671   14.8971  -35.7612 C   0  0  0  0  0  0  0  0  0  0  0  0
  -15.0563   14.0322  -37.2950 C   0  0  0  0  0  0  0  0  0  0  0  0
   -9.7914   14.0577  -38.2458 C   0  0  0  0  0  0  0  0  0  0  0  0
  -13.9636   13.1916  -39.7711 C   0  0  0  0  0  0  0  0  0  0  0  0
  -11.5991   15.0353  -36.9313 C   0  0  0  0  0  0  0  0  0  0  0  0
  -13.8640   14.5675  -37.7595 C   0  0  0  0  0  0  0  0  0  0  0  0
  -11.0595   14.6162  -38.1755 C   0  0  0  0  0  0  0  0  0  0  0  0
  -13.3177   14.1473  -38.9998 C   0  0  0  0  0  0  0  0  0  0  0  0
  -13.3123   16.6590  -40.4965 C   0  0  0  0  0  0  0  0  0  0  0  0
  -12.9098   16.8281  -37.9984 C   0  0  0  0  0  0  0  0  0  0  0  0
  -13.0099   15.6037  -37.0399 C   0  0  0  0  0  0  0  0  0  0  0  0
  -12.0020   14.8458  -39.3557 C   0  0  0  0  0  0  0  0  0  0  0  0
  -12.3142   16.3876  -39.3919 C   0  0  1  0  0  0  0  0  0  0  0  0
  -11.0670   17.2201  -39.7349 C   0  0  0  0  0  0  0  0  0  0  0  0
  -13.1183   17.3950  -41.4525 O   0  0  0  0  0  0  0  0  0  0  0  0
  -14.4618   15.9734  -40.2821 O   0  0  0  0  0  0  0  0  0  0  0  0
   -8.9995   14.2219  -34.9305 H   0  0  0  0  0  0  0  0  0  0  0  0
  -16.6416   12.6421  -37.7290 H   0  0  0  0  0  0  0  0  0  0  0  0
   -8.0609   13.4886  -37.0992 H   0  0  0  0  0  0  0  0  0  0  0  0
  -15.6874   11.9081  -39.8908 H   0  0  0  0  0  0  0  0  0  0  0  0
  -11.2723   15.2121  -34.8054 H   0  0  0  0  0  0  0  0  0  0  0  0
  -15.4797   14.3450  -36.3464 H   0  0  0  0  0  0  0  0  0  0  0  0
   -9.3727   13.7341  -39.1928 H   0  0  0  0  0  0  0  0  0  0  0  0
  -13.5521   12.8651  -40.7203 H   0  0  0  0  0  0  0  0  0  0  0  0
  -13.9020   17.2815  -38.1186 H   0  0  0  0  0  0  0  0  0  0  0  0
  -12.2727   17.5945  -37.5369 H   0  0  0  0  0  0  0  0  0  0  0  0
  -13.4229   15.8804  -36.0649 H   0  0  0  0  0  0  0  0  0  0  0  0
  -11.5894   14.4739  -40.2997 H   0  0  0  0  0  0  0  0  0  0  0  0
  -10.3115   17.0643  -38.9717 H   0  0  0  0  0  0  0  0  0  0  0  0
  -11.3368   18.2704  -39.7725 H   0  0  0  0  0  0  0  0  0  0  0  0
  -10.6816   16.9070  -40.6997 H   0  0  0  0  0  0  0  0  0  0  0  0
  -15.1234   16.1378  -40.9874 H   0  0  0  0  0  0  0  0  0  0  0  0
  1  3  2  0  0  0  0
  1  5  1  0  0  0  0
  2  4  2  0  0  0  0
  2  6  1  0  0  0  0
  3  7  1  0  0  0  0
  4  8  1  0  0  0  0
  5  9  2  0  0  0  0
  6 10  2  0  0  0  0
  7 11  2  0  0  0  0
  8 12  2  0  0  0  0
  9 11  1  0  0  0  0
  9 15  1  0  0  0  0
 10 12  1  0  0  0  0
 10 15  1  0  0  0  0
 11 16  1  0  0  0  0
 12 16  1  0  0  0  0
 13 17  1  0  0  0  0
 13 19  2  0  0  0  0
 13 20  1  0  0  0  0
 14 15  1  0  0  0  0
 14 17  1  0  0  0  0
 16 17  1  0  0  0  0
 17 18  1  0  0  0  0
  1 21  1  0  0  0  0
  2 22  1  0  0  0  0
  3 23  1  0  0  0  0
  4 24  1  0  0  0  0
  5 25  1  0  0  0  0
  6 26  1  0  0  0  0
  7 27  1  0  0  0  0
  8 28  1  0  0  0  0
 14 29  1  0  0  0  0
 14 30  1  0  0  0  0
 15 31  1  0  0  0  0
 16 32  1  0  0  0  0
 18 33  1  0  0  0  0
 18 34  1  0  0  0  0
 18 35  1  0  0  0  0
 20 36  1  0  0  0  0
M  END
> <id>
EN300-297977

> <smiles>
CC1(CC2C=3C=CC=CC3C1C=4C=CC=CC24)C(=O)O

> <MDLNUMBER>
MFCD29991793

> <IUPAC Name>
15-methyltetracyclo[6.6.2.0^{2,7}.0^{9,14}]hexadeca-2,4,6,9,11,13-hexaene-15-carboxylic acid

> <CAS>
13294-87-6

> <Purity>
95

> <URL>
https://www.enaminestore.com/catalog/EN300-297977

> <MP>
213-215

> <ROCS_ShapeQuery>
__x1247relevant_x1083L0AP1_x1305L0BP1_

> <ROCS_TanimotoCombo>
0.736 

> <ROCS_ShapeTanimoto>
0.529 

> <ROCS_ColorTanimoto>
0.207 

> <ROCS_RefTversky>
0.468 

> <ROCS_RefColorTversky>
0.235 

> <ROCS_RefTverskyCombo>
0.703 

> <ROCS_FitTversky>
1.329 

> <ROCS_FitColorTversky>
0.630 

> <ROCS_FitTverskyCombo>
1.959 

> <ROCS_ColorScore>
-7.703

> <ROCS_Overlap>
1383.915

> <ROCS_Rank>
147                 

$$$$
untitled-dbase-41402_8
  -OEChem-06232314393D

 30 32  0     1  0  0  0  0  0999 V2000
  -13.0123   14.0098  -37.3624 C   0  0  0  0  0  0  0  0  0  0  0  0
  -12.0886   15.8640  -39.1510 C   0  0  0  0  0  0  0  0  0  0  0  0
  -11.6628   14.3365  -37.3289 C   0  0  0  0  0  0  0  0  0  0  0  0
  -11.1963   15.2963  -38.2428 C   0  0  0  0  0  0  0  0  0  0  0  0
  -13.4134   15.4594  -39.1017 C   0  0  0  0  0  0  0  0  0  0  0  0
  -11.6404   16.8517  -40.1284 C   0  0  0  0  0  0  0  0  0  0  0  0
   -9.7331   15.6801  -38.2578 C   0  0  0  0  0  0  0  0  0  0  0  0
  -10.4444   14.7484  -35.1991 C   0  0  0  0  0  0  0  0  0  0  0  0
   -9.3186   15.6459  -35.7378 C   0  0  0  0  0  0  0  0  0  0  0  0
   -9.3276   13.5766  -36.9498 C   0  0  0  0  0  0  0  0  0  0  0  0
  -10.7143   13.7330  -36.3183 C   0  0  2  0  0  0  0  0  0  0  0  0
   -8.9274   15.0461  -37.1016 C   0  0  1  0  0  0  0  0  0  0  0  0
  -13.8990   14.5474  -38.2297 N   0  0  0  0  0  0  0  0  0  0  0  0
  -14.3267   16.0341  -40.0219 N   0  0  0  0  0  0  0  0  0  0  0  0
  -10.4848   17.2631  -40.2438 O   0  0  0  0  0  0  0  0  0  0  0  0
  -12.6535   17.2852  -40.9239 O   0  0  0  0  0  0  0  0  0  0  0  0
  -13.4339   13.2867  -36.6714 H   0  0  0  0  0  0  0  0  0  0  0  0
   -9.3026   15.3355  -39.2069 H   0  0  0  0  0  0  0  0  0  0  0  0
   -9.6287   16.7709  -38.2149 H   0  0  0  0  0  0  0  0  0  0  0  0
  -10.0892   14.2286  -34.3010 H   0  0  0  0  0  0  0  0  0  0  0  0
  -11.3278   15.3304  -34.9149 H   0  0  0  0  0  0  0  0  0  0  0  0
   -9.6333   16.6919  -35.8133 H   0  0  0  0  0  0  0  0  0  0  0  0
   -8.4660   15.6090  -35.0493 H   0  0  0  0  0  0  0  0  0  0  0  0
   -8.6447   13.0566  -36.2666 H   0  0  0  0  0  0  0  0  0  0  0  0
   -9.3399   13.0374  -37.9032 H   0  0  0  0  0  0  0  0  0  0  0  0
  -11.0969   12.7811  -35.9366 H   0  0  0  0  0  0  0  0  0  0  0  0
   -7.8561   15.1699  -37.2902 H   0  0  0  0  0  0  0  0  0  0  0  0
  -14.0016   16.7426  -40.6421 H   0  0  0  0  0  0  0  0  0  0  0  0
  -15.2892   15.7840  -39.9623 H   0  0  0  0  0  0  0  0  0  0  0  0
  -12.3623   17.9489  -41.5850 H   0  0  0  0  0  0  0  0  0  0  0  0
  1  3  2  0  0  0  0
  1 13  1  0  0  0  0
  2  4  2  0  0  0  0
  2  5  1  0  0  0  0
  2  6  1  0  0  0  0
  3  4  1  0  0  0  0
  3 11  1  0  0  0  0
  4  7  1  0  0  0  0
  5 13  2  0  0  0  0
  5 14  1  0  0  0  0
  6 15  2  0  0  0  0
  6 16  1  0  0  0  0
  7 12  1  0  0  0  0
  8  9  1  0  0  0  0
  8 11  1  0  0  0  0
  9 12  1  0  0  0  0
 10 11  1  0  0  0  0
 10 12  1  0  0  0  0
  1 17  1  0  0  0  0
  7 18  1  0  0  0  0
  7 19  1  0  0  0  0
  8 20  1  0  0  0  0
  8 21  1  0  0  0  0
  9 22  1  0  0  0  0
  9 23  1  0  0  0  0
 10 24  1  0  0  0  0
 10 25  1  0  0  0  0
 11 26  1  0  0  0  0
 12 27  1  0  0  0  0
 14 28  1  0  0  0  0
 14 29  1  0  0  0  0
 16 30  1  0  0  0  0
M  END
> <id>
EN300-1153957

> <smiles>
NC=1N=CC=2C3CCC(C3)CC2C1C(=O)O

> <IUPAC Name>
5-amino-4-azatricyclo[7.2.1.0,2,7]dodeca-2,4,6-triene-6-carboxylic acid

> <CAS>
2138559-28-9

> <URL>
https://www.enaminestore.com/catalog/EN300-1153957

> <ROCS_ShapeQuery>
__x1247relevant_x1083L0AP1_x1305L0BP1_

> <ROCS_TanimotoCombo>
0.736 

> <ROCS_ShapeTanimoto>
0.541 

> <ROCS_ColorTanimoto>
0.195 

> <ROCS_RefTversky>
0.453 

> <ROCS_RefColorTversky>
0.232 

> <ROCS_RefTverskyCombo>
0.685 

> <ROCS_FitTversky>
1.565 

> <ROCS_FitColorTversky>
0.549 

> <ROCS_FitTverskyCombo>
2.114 

> <ROCS_ColorScore>
-7.602

> <ROCS_Overlap>
1334.863

> <ROCS_Rank>
148                 

$$$$
untitled-dbase-4263_85
  -OEChem-06232314393D

 43 44  0     1  0  0  0  0  0999 V2000
   -8.8573   14.4295  -37.1177 C   0  0  0  0  0  0  0  0  0  0  0  0
  -14.2523   14.9444  -37.5892 C   0  0  0  0  0  0  0  0  0  0  0  0
  -13.5929   16.3193  -37.3819 C   0  0  0  0  0  0  0  0  0  0  0  0
  -12.2784   13.5295  -38.3254 C   0  0  0  0  0  0  0  0  0  0  0  0
  -11.1750   15.8271  -37.9803 C   0  0  0  0  0  0  0  0  0  0  0  0
  -13.5172   14.3195  -38.7956 C   0  0  2  0  0  0  0  0  0  0  0  0
  -12.5098   16.4192  -38.4781 C   0  0  1  0  0  0  0  0  0  0  0  0
  -11.3223   14.3816  -37.4675 C   0  0  0  0  0  0  0  0  0  0  0  0
  -13.1117   15.5627  -39.6066 C   0  0  0  0  0  0  0  0  0  0  0  0
   -8.0396   13.9322  -34.6826 C   0  0  0  0  0  0  0  0  0  0  0  0
   -6.5521   12.1279  -35.5999 C   0  0  0  0  0  0  0  0  0  0  0  0
   -5.9362   14.5413  -35.9234 C   0  0  0  0  0  0  0  0  0  0  0  0
  -12.2114   15.3061  -40.8106 C   0  0  0  0  0  0  0  0  0  0  0  0
   -7.0872   13.5424  -35.8121 C   0  0  0  0  0  0  0  0  0  0  0  0
  -10.0337   13.7437  -37.3397 N   0  0  0  0  0  0  0  0  0  0  0  0
   -8.7490   15.6458  -37.0015 O   0  0  0  0  0  0  0  0  0  0  0  0
  -14.2978   16.1917  -40.1096 O   0  0  0  0  0  0  0  0  0  0  0  0
   -7.8160   13.5475  -37.0448 O   0  0  0  0  0  0  0  0  0  0  0  0
  -12.8243   14.4864  -41.6793 F   0  0  0  0  0  0  0  0  0  0  0  0
  -11.9297   16.4624  -41.4315 F   0  0  0  0  0  0  0  0  0  0  0  0
  -11.0623   14.7361  -40.4149 F   0  0  0  0  0  0  0  0  0  0  0  0
  -14.1962   14.3216  -36.6903 H   0  0  0  0  0  0  0  0  0  0  0  0
  -15.3156   15.0814  -37.8208 H   0  0  0  0  0  0  0  0  0  0  0  0
  -14.3434   17.1075  -37.5156 H   0  0  0  0  0  0  0  0  0  0  0  0
  -13.1844   16.4313  -36.3722 H   0  0  0  0  0  0  0  0  0  0  0  0
  -12.6043   12.6600  -37.7399 H   0  0  0  0  0  0  0  0  0  0  0  0
  -11.7517   13.1247  -39.1978 H   0  0  0  0  0  0  0  0  0  0  0  0
  -10.4337   15.8731  -38.7868 H   0  0  0  0  0  0  0  0  0  0  0  0
  -10.7803   16.4545  -37.1706 H   0  0  0  0  0  0  0  0  0  0  0  0
  -14.1962   13.6645  -39.3528 H   0  0  0  0  0  0  0  0  0  0  0  0
  -12.3725   17.4638  -38.7784 H   0  0  0  0  0  0  0  0  0  0  0  0
  -11.7195   14.4186  -36.4458 H   0  0  0  0  0  0  0  0  0  0  0  0
   -8.4259   14.9469  -34.8313 H   0  0  0  0  0  0  0  0  0  0  0  0
   -8.8881   13.2436  -34.6148 H   0  0  0  0  0  0  0  0  0  0  0  0
   -7.5202   13.9375  -33.7175 H   0  0  0  0  0  0  0  0  0  0  0  0
   -5.8683   11.8441  -36.4080 H   0  0  0  0  0  0  0  0  0  0  0  0
   -7.3677   11.3959  -35.6143 H   0  0  0  0  0  0  0  0  0  0  0  0
   -6.0203   12.0358  -34.6474 H   0  0  0  0  0  0  0  0  0  0  0  0
   -5.2529   14.2619  -36.7335 H   0  0  0  0  0  0  0  0  0  0  0  0
   -6.3000   15.5564  -36.1127 H   0  0  0  0  0  0  0  0  0  0  0  0
   -5.3388   14.5512  -35.0046 H   0  0  0  0  0  0  0  0  0  0  0  0
   -9.9906   12.7317  -37.4176 H   0  0  0  0  0  0  0  0  0  0  0  0
  -13.9995   16.9638  -40.6103 H   0  0  0  0  0  0  0  0  0  0  0  0
  1 15  1  0  0  0  0
  1 16  2  0  0  0  0
  1 18  1  0  0  0  0
  2  3  1  0  0  0  0
  2  6  1  0  0  0  0
  3  7  1  0  0  0  0
  4  6  1  0  0  0  0
  4  8  1  0  0  0  0
  5  7  1  0  0  0  0
  5  8  1  0  0  0  0
  6  9  1  0  0  0  0
  7  9  1  0  0  0  0
  8 15  1  0  0  0  0
  9 13  1  0  0  0  0
  9 17  1  0  0  0  0
 10 14  1  0  0  0  0
 11 14  1  0  0  0  0
 12 14  1  0  0  0  0
 13 19  1  0  0  0  0
 13 20  1  0  0  0  0
 13 21  1  0  0  0  0
 14 18  1  0  0  0  0
  2 22  1  0  0  0  0
  2 23  1  0  0  0  0
  3 24  1  0  0  0  0
  3 25  1  0  0  0  0
  4 26  1  0  0  0  0
  4 27  1  0  0  0  0
  5 28  1  0  0  0  0
  5 29  1  0  0  0  0
  6 30  1  0  0  0  0
  7 31  1  0  0  0  0
  8 32  1  0  0  0  0
 10 33  1  0  0  0  0
 10 34  1  0  0  0  0
 10 35  1  0  0  0  0
 11 36  1  0  0  0  0
 11 37  1  0  0  0  0
 11 38  1  0  0  0  0
 12 39  1  0  0  0  0
 12 40  1  0  0  0  0
 12 41  1  0  0  0  0
 15 42  1  0  0  0  0
 17 43  1  0  0  0  0
M  END
> <id>
EN300-89653

> <smiles>
CC(C)(C)OC(=O)NC1CC2CCC(C1)C2(O)C(F)(F)F

> <MDLNUMBER>
MFCD19442744

> <IUPAC Name>
tert-butyl N-[8-hydroxy-8-(trifluoromethyl)bicyclo[3.2.1]octan-3-yl]carbamate

> <CAS>
1251924-94-3

> <URL>
https://www.enaminestore.com/catalog/EN300-89653

> <ROCS_ShapeQuery>
__x1247relevant_x1083L0AP1_x1305L0BP1_

> <ROCS_TanimotoCombo>
0.736 

> <ROCS_ShapeTanimoto>
0.477 

> <ROCS_ColorTanimoto>
0.259 

> <ROCS_RefTversky>
0.438 

> <ROCS_RefColorTversky>
0.281 

> <ROCS_RefTverskyCombo>
0.719 

> <ROCS_FitTversky>
1.231 

> <ROCS_FitColorTversky>
0.768 

> <ROCS_FitTverskyCombo>
2.000 

> <ROCS_ColorScore>
-9.181

> <ROCS_Overlap>
1294.960

> <ROCS_Rank>
149                 

$$$$
untitled-dbase-81113_96
  -OEChem-06232314393D

 44 46  0     1  0  0  0  0  0999 V2000
   -9.1200   14.4448  -36.8585 C   0  0  0  0  0  0  0  0  0  0  0  0
  -11.9424   16.1101  -36.7812 C   0  0  0  0  0  0  0  0  0  0  0  0
  -13.1470   13.9139  -36.9264 C   0  0  0  0  0  0  0  0  0  0  0  0
  -14.2024   15.9875  -37.8562 C   0  0  0  0  0  0  0  0  0  0  0  0
  -12.1646   16.4005  -39.2582 C   0  0  0  0  0  0  0  0  0  0  0  0
  -13.3732   14.1970  -39.4039 C   0  0  0  0  0  0  0  0  0  0  0  0
  -13.3210   15.4295  -36.7274 C   0  0  0  0  0  0  0  0  0  0  0  0
  -11.2664   15.8392  -38.1404 C   0  0  2  0  0  0  0  0  0  0  0  0
  -12.4795   13.6276  -38.2867 C   0  0  1  0  0  0  0  0  0  0  0  0
  -11.0996   14.3191  -38.3640 C   0  0  0  0  0  0  0  0  0  0  0  0
  -13.5440   15.7165  -39.2195 C   0  0  0  0  0  0  0  0  0  0  0  0
   -8.8671   14.9564  -34.0614 C   0  0  0  0  0  0  0  0  0  0  0  0
   -7.0786   13.1930  -34.0891 C   0  0  0  0  0  0  0  0  0  0  0  0
   -6.7863   15.2920  -35.4369 C   0  0  0  0  0  0  0  0  0  0  0  0
   -7.7904   14.2719  -34.9023 C   0  0  0  0  0  0  0  0  0  0  0  0
  -10.1652   13.7448  -37.4230 N   0  0  0  0  0  0  0  0  0  0  0  0
   -8.8471   15.6214  -37.0725 O   0  0  0  0  0  0  0  0  0  0  0  0
  -14.3736   16.2394  -40.2469 O   0  0  0  0  0  0  0  0  0  0  0  0
   -8.4219   13.6277  -36.0145 O   0  0  0  0  0  0  0  0  0  0  0  0
  -12.0559   17.1911  -36.6328 H   0  0  0  0  0  0  0  0  0  0  0  0
  -11.3119   15.7461  -35.9613 H   0  0  0  0  0  0  0  0  0  0  0  0
  -12.5470   13.4947  -36.1101 H   0  0  0  0  0  0  0  0  0  0  0  0
  -14.1250   13.4189  -36.8821 H   0  0  0  0  0  0  0  0  0  0  0  0
  -15.2017   15.5343  -37.8223 H   0  0  0  0  0  0  0  0  0  0  0  0
  -14.3616   17.0653  -37.7211 H   0  0  0  0  0  0  0  0  0  0  0  0
  -12.2792   17.4870  -39.1499 H   0  0  0  0  0  0  0  0  0  0  0  0
  -11.6948   16.2496  -40.2388 H   0  0  0  0  0  0  0  0  0  0  0  0
  -12.9390   13.9816  -40.3888 H   0  0  0  0  0  0  0  0  0  0  0  0
  -14.3542   13.7042  -39.3994 H   0  0  0  0  0  0  0  0  0  0  0  0
  -13.7933   15.6245  -35.7583 H   0  0  0  0  0  0  0  0  0  0  0  0
  -10.2909   16.3386  -38.1774 H   0  0  0  0  0  0  0  0  0  0  0  0
  -12.3714   12.5456  -38.4282 H   0  0  0  0  0  0  0  0  0  0  0  0
  -10.6590   14.1429  -39.3530 H   0  0  0  0  0  0  0  0  0  0  0  0
   -9.3804   15.7316  -34.6415 H   0  0  0  0  0  0  0  0  0  0  0  0
   -9.6131   14.2406  -33.7009 H   0  0  0  0  0  0  0  0  0  0  0  0
   -8.4245   15.4609  -33.1949 H   0  0  0  0  0  0  0  0  0  0  0  0
   -6.3052   12.6992  -34.6885 H   0  0  0  0  0  0  0  0  0  0  0  0
   -7.7799   12.4082  -33.7833 H   0  0  0  0  0  0  0  0  0  0  0  0
   -6.6092   13.6076  -33.1911 H   0  0  0  0  0  0  0  0  0  0  0  0
   -6.0139   14.8013  -36.0401 H   0  0  0  0  0  0  0  0  0  0  0  0
   -7.2745   16.0535  -36.0537 H   0  0  0  0  0  0  0  0  0  0  0  0
   -6.2640   15.7929  -34.6138 H   0  0  0  0  0  0  0  0  0  0  0  0
  -10.2851   12.7709  -37.1629 H   0  0  0  0  0  0  0  0  0  0  0  0
  -15.2285   15.7839  -40.1770 H   0  0  0  0  0  0  0  0  0  0  0  0
  1 16  1  0  0  0  0
  1 17  2  0  0  0  0
  1 19  1  0  0  0  0
  2  7  1  0  0  0  0
  2  8  1  0  0  0  0
  3  7  1  0  0  0  0
  3  9  1  0  0  0  0
  4  7  1  0  0  0  0
  4 11  1  0  0  0  0
  5  8  1  0  0  0  0
  5 11  1  0  0  0  0
  6  9  1  0  0  0  0
  6 11  1  0  0  0  0
  8 10  1  0  0  0  0
  9 10  1  0  0  0  0
 10 16  1  0  0  0  0
 11 18  1  0  0  0  0
 12 15  1  0  0  0  0
 13 15  1  0  0  0  0
 14 15  1  0  0  0  0
 15 19  1  0  0  0  0
  2 20  1  0  0  0  0
  2 21  1  0  0  0  0
  3 22  1  0  0  0  0
  3 23  1  0  0  0  0
  4 24  1  0  0  0  0
  4 25  1  0  0  0  0
  5 26  1  0  0  0  0
  5 27  1  0  0  0  0
  6 28  1  0  0  0  0
  6 29  1  0  0  0  0
  7 30  1  0  0  0  0
  8 31  1  0  0  0  0
  9 32  1  0  0  0  0
 10 33  1  0  0  0  0
 12 34  1  0  0  0  0
 12 35  1  0  0  0  0
 12 36  1  0  0  0  0
 13 37  1  0  0  0  0
 13 38  1  0  0  0  0
 13 39  1  0  0  0  0
 14 40  1  0  0  0  0
 14 41  1  0  0  0  0
 14 42  1  0  0  0  0
 16 43  1  0  0  0  0
 18 44  1  0  0  0  0
M  END
> <id>
EN300-7542895

> <smiles>
CC(C)(C)OC(=O)NC1C2CC3CC1CC(O)(C3)C2

> <IUPAC Name>
tert-butyl N-(5-hydroxyadamantan-2-yl)carbamate

> <CAS>
1049682-78-1

> <URL>
https://www.enaminestore.com/catalog/EN300-7542895

> <ROCS_ShapeQuery>
__x1247relevant_x1083L0AP1_x1305L0BP1_

> <ROCS_TanimotoCombo>
0.736 

> <ROCS_ShapeTanimoto>
0.489 

> <ROCS_ColorTanimoto>
0.247 

> <ROCS_RefTversky>
0.435 

> <ROCS_RefColorTversky>
0.274 

> <ROCS_RefTverskyCombo>
0.709 

> <ROCS_FitTversky>
1.337 

> <ROCS_FitColorTversky>
0.713 

> <ROCS_FitTverskyCombo>
2.050 

> <ROCS_ColorScore>
-8.968

> <ROCS_Overlap>
1285.662

> <ROCS_Rank>
150                 

$$$$
untitled-dbase-135801_1
  -OEChem-06232314393D

 19 21  0     1  0  0  0  0  0999 V2000
  -12.6508   16.1184  -39.4466 C   0  0  0  0  0  0  0  0  0  0  0  0
  -10.4362   15.1308  -36.6265 C   0  0  0  0  0  0  0  0  0  0  0  0
  -13.8931   14.6791  -38.0504 C   0  0  0  0  0  0  0  0  0  0  0  0
  -11.6387   14.1144  -38.7291 C   0  0  0  0  0  0  0  0  0  0  0  0
  -12.9864   14.6363  -39.3193 C   0  0  2  0  0  0  0  0  0  0  0  0
  -12.1668   16.3968  -38.0714 C   0  0  1  0  0  0  0  0  0  0  0  0
  -12.9306   15.4592  -37.1761 C   0  0  2  0  0  0  0  0  0  0  0  0
  -11.5363   15.1126  -37.5833 C   0  0  2  0  0  0  0  0  0  0  0  0
  -12.7344   16.8914  -40.3762 O   0  0  0  0  0  0  0  0  0  0  0  0
  -10.5539   14.9846  -35.4189 O   0  0  0  0  0  0  0  0  0  0  0  0
   -9.2550   15.3358  -37.2589 O   0  0  0  0  0  0  0  0  0  0  0  0
  -14.8241   15.2301  -38.2162 H   0  0  0  0  0  0  0  0  0  0  0  0
  -14.0977   13.6832  -37.6469 H   0  0  0  0  0  0  0  0  0  0  0  0
  -11.7136   13.0832  -38.3702 H   0  0  0  0  0  0  0  0  0  0  0  0
  -10.8056   14.2199  -39.4318 H   0  0  0  0  0  0  0  0  0  0  0  0
  -13.3761   14.1494  -40.2098 H   0  0  0  0  0  0  0  0  0  0  0  0
  -11.8473   17.3668  -37.7334 H   0  0  0  0  0  0  0  0  0  0  0  0
  -13.2121   15.7198  -36.1745 H   0  0  0  0  0  0  0  0  0  0  0  0
   -8.5015   15.3532  -36.6311 H   0  0  0  0  0  0  0  0  0  0  0  0
  1  5  1  0  0  0  0
  1  6  1  0  0  0  0
  1  9  2  0  0  0  0
  2  8  1  0  0  0  0
  2 10  2  0  0  0  0
  2 11  1  0  0  0  0
  3  5  1  0  0  0  0
  3  7  1  0  0  0  0
  4  5  1  0  0  0  0
  4  8  1  0  0  0  0
  6  7  1  0  0  0  0
  6  8  1  0  0  0  0
  7  8  1  0  0  0  0
  3 12  1  0  0  0  0
  3 13  1  0  0  0  0
  4 14  1  0  0  0  0
  4 15  1  0  0  0  0
  5 16  1  0  0  0  0
  6 17  1  0  0  0  0
  7 18  1  0  0  0  0
 11 19  1  0  0  0  0
M  END
> <id>
EN300-7731937

> <smiles>
OC(=O)C12CC3CC2C1C3=O

> <MDLNUMBER>
MFCD24511734

> <IUPAC Name>
3-oxotricyclo[2.2.1.0,2,6]heptane-1-carboxylic acid

> <CAS>
22630-90-6

> <Purity>
95

> <URL>
https://www.enaminestore.com/catalog/EN300-7731937

> <ROCS_ShapeQuery>
__x1247relevant_x1083L0AP1_x1305L0BP1_

> <ROCS_TanimotoCombo>
0.736 

> <ROCS_ShapeTanimoto>
0.455 

> <ROCS_ColorTanimoto>
0.281 

> <ROCS_RefTversky>
0.381 

> <ROCS_RefColorTversky>
0.429 

> <ROCS_RefTverskyCombo>
0.810 

> <ROCS_FitTversky>
1.746 

> <ROCS_FitColorTversky>
0.449 

> <ROCS_FitTverskyCombo>
2.195 

> <ROCS_ColorScore>
-14.476

> <ROCS_Overlap>
1118.445

> <ROCS_Rank>
151                 

$$$$
untitled-dbase-155709_67
  -OEChem-06232314393D

 27 28  0     1  0  0  0  0  0999 V2000
  -10.2791   14.8383  -36.5418 C   0  0  0  0  0  0  0  0  0  0  0  0
  -10.0868   14.6005  -39.6649 C   0  0  0  0  0  0  0  0  0  0  0  0
  -12.5498   16.5235  -37.7507 C   0  0  0  0  0  0  0  0  0  0  0  0
  -13.7911   14.5368  -38.1211 C   0  0  0  0  0  0  0  0  0  0  0  0
  -11.3584   14.4641  -37.5114 C   0  0  1  0  0  0  0  0  0  0  0  0
  -12.7168   15.1119  -37.1684 C   0  0  1  0  0  0  0  0  0  0  0  0
  -12.1623   15.9994  -39.1341 C   0  0  2  0  0  0  0  0  0  0  0  0
  -13.3904   15.1366  -39.4889 C   0  0  2  0  0  0  0  0  0  0  0  0
   -9.3268   13.3928  -39.1808 C   0  0  0  0  0  0  0  0  0  0  0  0
  -11.0673   15.0687  -38.8102 N   0  0  0  0  0  0  0  0  0  0  0  0
  -10.2421   14.5002  -35.3680 O   0  0  0  0  0  0  0  0  0  0  0  0
   -9.8310   15.1000  -40.7616 O   0  0  0  0  0  0  0  0  0  0  0  0
   -9.3419   15.6108  -37.1434 O   0  0  0  0  0  0  0  0  0  0  0  0
  -14.4266   15.9617  -40.0007 O   0  0  0  0  0  0  0  0  0  0  0  0
   -9.7746   13.0046  -37.9730 F   0  0  0  0  0  0  0  0  0  0  0  0
   -9.4750   12.3643  -40.0353 F   0  0  0  0  0  0  0  0  0  0  0  0
   -8.0136   13.6658  -39.0750 F   0  0  0  0  0  0  0  0  0  0  0  0
  -13.4772   17.1060  -37.7439 H   0  0  0  0  0  0  0  0  0  0  0  0
  -11.7563   17.1078  -37.2747 H   0  0  0  0  0  0  0  0  0  0  0  0
  -13.7643   13.4423  -38.1362 H   0  0  0  0  0  0  0  0  0  0  0  0
  -14.7946   14.8572  -37.8195 H   0  0  0  0  0  0  0  0  0  0  0  0
  -11.3991   13.3713  -37.5966 H   0  0  0  0  0  0  0  0  0  0  0  0
  -12.9881   15.0793  -36.1111 H   0  0  0  0  0  0  0  0  0  0  0  0
  -11.9036   16.7653  -39.8668 H   0  0  0  0  0  0  0  0  0  0  0  0
  -13.1674   14.3629  -40.2311 H   0  0  0  0  0  0  0  0  0  0  0  0
   -8.6264   15.8683  -36.5237 H   0  0  0  0  0  0  0  0  0  0  0  0
  -15.2118   15.3986  -40.0994 H   0  0  0  0  0  0  0  0  0  0  0  0
  1  5  1  1  0  0  0
  1 11  2  0  0  0  0
  1 13  1  0  0  0  0
  2  9  1  0  0  0  0
  2 10  1  0  0  0  0
  2 12  2  0  0  0  0
  3  6  1  0  0  0  0
  3  7  1  0  0  0  0
  4  6  1  6  0  0  0
  4  8  1  0  0  0  0
  5  6  1  0  0  0  0
  5 10  1  0  0  0  0
  7  8  1  0  0  0  0
  7 10  1  6  0  0  0
  8 14  1  1  0  0  0
  9 15  1  0  0  0  0
  9 16  1  0  0  0  0
  9 17  1  0  0  0  0
  3 18  1  0  0  0  0
  3 19  1  0  0  0  0
  4 20  1  0  0  0  0
  4 21  1  0  0  0  0
  5 22  1  0  0  0  0
  6 23  1  0  0  0  0
  7 24  1  0  0  0  0
  8 25  1  0  0  0  0
 13 26  1  0  0  0  0
 14 27  1  0  0  0  0
M  END
> <id>
EN300-28279177

> <smiles>
O[C@@H]1C[C@@H]2C[C@H]1N([C@H]2C(=O)O)C(=O)C(F)(F)F |&1:1,3,5,7,r|

> <IUPAC Name>
rac-(1R,3R,4S,6R)-6-hydroxy-2-(2,2,2-trifluoroacetyl)-2-azabicyclo[2.2.1]heptane-3-carboxylic acid

> <CAS>
2679825-85-3

> <URL>
https://www.enaminestore.com/catalog/EN300-28279177

> <ROCS_ShapeQuery>
__x1247relevant_x1083L0AP1_x1305L0BP1_

> <ROCS_TanimotoCombo>
0.736 

> <ROCS_ShapeTanimoto>
0.484 

> <ROCS_ColorTanimoto>
0.252 

> <ROCS_RefTversky>
0.425 

> <ROCS_RefColorTversky>
0.284 

> <ROCS_RefTverskyCombo>
0.709 

> <ROCS_FitTversky>
1.397 

> <ROCS_FitColorTversky>
0.692 

> <ROCS_FitTverskyCombo>
2.088 

> <ROCS_ColorScore>
-9.301

> <ROCS_Overlap>
1254.888

> <ROCS_Rank>
152                 

$$$$
untitled-dbase-21027_5
  -OEChem-06232314393D

 21 22  0     1  0  0  0  0  0999 V2000
  -10.1894   15.2545  -36.7304 C   0  0  0  0  0  0  0  0  0  0  0  0
  -13.2775   15.1608  -37.1122 C   0  0  0  0  0  0  0  0  0  0  0  0
  -12.9791   16.5560  -39.0198 C   0  0  0  0  0  0  0  0  0  0  0  0
  -11.0592   15.4167  -37.9338 C   0  0  2  0  0  0  0  0  0  0  0  0
  -12.3291   16.2322  -37.6566 C   0  0  2  0  0  0  0  0  0  0  0  0
  -13.0532   14.2505  -38.3103 C   0  0  1  0  0  0  0  0  0  0  0  0
  -13.4528   15.1721  -39.4680 C   0  0  0  0  0  0  0  0  0  0  0  0
  -11.5843   14.0826  -38.2830 N   0  0  0  0  0  0  0  0  0  0  0  0
  -10.5577   14.8106  -35.6530 O   0  0  0  0  0  0  0  0  0  0  0  0
   -8.9265   15.6710  -36.9928 O   0  0  0  0  0  0  0  0  0  0  0  0
  -12.8977   14.7936  -40.6342 F   0  0  0  0  0  0  0  0  0  0  0  0
  -14.7951   15.1681  -39.6328 F   0  0  0  0  0  0  0  0  0  0  0  0
  -12.9539   14.7238  -36.1617 H   0  0  0  0  0  0  0  0  0  0  0  0
  -14.3113   15.5101  -37.0154 H   0  0  0  0  0  0  0  0  0  0  0  0
  -13.8299   17.2325  -38.8857 H   0  0  0  0  0  0  0  0  0  0  0  0
  -12.2698   17.0057  -39.7209 H   0  0  0  0  0  0  0  0  0  0  0  0
  -10.4527   15.8362  -38.7436 H   0  0  0  0  0  0  0  0  0  0  0  0
  -12.1913   17.0992  -37.0070 H   0  0  0  0  0  0  0  0  0  0  0  0
  -13.5982   13.3050  -38.2799 H   0  0  0  0  0  0  0  0  0  0  0  0
  -11.2518   13.8104  -39.2075 H   0  0  0  0  0  0  0  0  0  0  0  0
   -8.3393   15.5741  -36.2129 H   0  0  0  0  0  0  0  0  0  0  0  0
  1  4  1  0  0  0  0
  1  9  2  0  0  0  0
  1 10  1  0  0  0  0
  2  5  1  0  0  0  0
  2  6  1  0  0  0  0
  3  5  1  0  0  0  0
  3  7  1  0  0  0  0
  4  5  1  0  0  0  0
  4  8  1  0  0  0  0
  6  7  1  0  0  0  0
  6  8  1  0  0  0  0
  7 11  1  0  0  0  0
  7 12  1  0  0  0  0
  2 13  1  0  0  0  0
  2 14  1  0  0  0  0
  3 15  1  0  0  0  0
  3 16  1  0  0  0  0
  4 17  1  0  0  0  0
  5 18  1  0  0  0  0
  6 19  1  0  0  0  0
  8 20  1  0  0  0  0
 10 21  1  0  0  0  0
M  END
> <id>
EN300-296019

> <smiles>
Cl.OC(=O)C1NC2CC1CC2(F)F

> <MDLNUMBER>
MFCD24529458

> <IUPAC Name>
6,6-difluoro-2-azabicyclo[2.2.1]heptane-3-carboxylic acid hydrochloride

> <CAS>
1822562-03-7

> <URL>
https://www.enaminestore.com/catalog/EN300-296019

> <Saltdate>
Cl

> <ROCS_ShapeQuery>
__x1247relevant_x1083L0AP1_x1305L0BP1_

> <ROCS_TanimotoCombo>
0.736 

> <ROCS_ShapeTanimoto>
0.474 

> <ROCS_ColorTanimoto>
0.262 

> <ROCS_RefTversky>
0.396 

> <ROCS_RefColorTversky>
0.287 

> <ROCS_RefTverskyCombo>
0.682 

> <ROCS_FitTversky>
1.715 

> <ROCS_FitColorTversky>
0.751 

> <ROCS_FitTverskyCombo>
2.466 

> <ROCS_ColorScore>
-9.380

> <ROCS_Overlap>
1162.725

> <ROCS_Rank>
153                 

$$$$
untitled-dbase-147761_5
  -OEChem-06232314393D

 21 22  0     1  0  0  0  0  0999 V2000
  -10.1905   15.2533  -36.7279 C   0  0  0  0  0  0  0  0  0  0  0  0
  -13.2782   15.1602  -37.1111 C   0  0  0  0  0  0  0  0  0  0  0  0
  -12.9791   16.5566  -39.0178 C   0  0  0  0  0  0  0  0  0  0  0  0
  -11.0597   15.4168  -37.9316 C   0  0  2  0  0  0  0  0  0  0  0  0
  -12.3297   16.2320  -37.6544 C   0  0  2  0  0  0  0  0  0  0  0  0
  -13.0535   14.2507  -38.3098 C   0  0  1  0  0  0  0  0  0  0  0  0
  -13.4531   15.1730  -39.4668 C   0  0  0  0  0  0  0  0  0  0  0  0
  -11.5847   14.0830  -38.2825 N   0  0  0  0  0  0  0  0  0  0  0  0
  -10.5593   14.8083  -35.6511 O   0  0  0  0  0  0  0  0  0  0  0  0
   -8.9275   15.6702  -36.9892 O   0  0  0  0  0  0  0  0  0  0  0  0
  -12.8984   14.7951  -40.6334 F   0  0  0  0  0  0  0  0  0  0  0  0
  -14.7955   15.1691  -39.6313 F   0  0  0  0  0  0  0  0  0  0  0  0
  -12.9549   14.7224  -36.1608 H   0  0  0  0  0  0  0  0  0  0  0  0
  -14.3120   15.5094  -37.0143 H   0  0  0  0  0  0  0  0  0  0  0  0
  -13.8297   17.2335  -38.8836 H   0  0  0  0  0  0  0  0  0  0  0  0
  -12.2694   17.0064  -39.7184 H   0  0  0  0  0  0  0  0  0  0  0  0
  -10.4527   15.8372  -38.7406 H   0  0  0  0  0  0  0  0  0  0  0  0
  -12.1921   17.0985  -37.0041 H   0  0  0  0  0  0  0  0  0  0  0  0
  -13.5984   13.3051  -38.2800 H   0  0  0  0  0  0  0  0  0  0  0  0
  -11.2519   13.8120  -39.2072 H   0  0  0  0  0  0  0  0  0  0  0  0
   -8.3407   15.5726  -36.2092 H   0  0  0  0  0  0  0  0  0  0  0  0
  1  4  1  6  0  0  0
  1  9  2  0  0  0  0
  1 10  1  0  0  0  0
  2  5  1  0  0  0  0
  2  6  1  0  0  0  0
  3  5  1  0  0  0  0
  3  7  1  0  0  0  0
  4  5  1  0  0  0  0
  4  8  1  0  0  0  0
  6  7  1  0  0  0  0
  6  8  1  0  0  0  0
  7 11  1  0  0  0  0
  7 12  1  0  0  0  0
  2 13  1  0  0  0  0
  2 14  1  0  0  0  0
  3 15  1  0  0  0  0
  3 16  1  0  0  0  0
  4 17  1  0  0  0  0
  5 18  1  0  0  0  0
  6 19  1  0  0  0  0
  8 20  1  0  0  0  0
 10 21  1  0  0  0  0
M  END
> <id>
EN300-109613

> <smiles>
OC(=O)[C@H]1NC2CC1CC2(F)F

> <MDLNUMBER>
MFCD27919994

> <IUPAC Name>
(3S)-6,6-difluoro-2-azabicyclo[2.2.1]heptane-3-carboxylic acid

> <CAS>
1394117-06-6

> <URL>
https://www.enaminestore.com/catalog/EN300-109613

> <ROCS_ShapeQuery>
__x1247relevant_x1083L0AP1_x1305L0BP1_

> <ROCS_TanimotoCombo>
0.736 

> <ROCS_ShapeTanimoto>
0.474 

> <ROCS_ColorTanimoto>
0.262 

> <ROCS_RefTversky>
0.396 

> <ROCS_RefColorTversky>
0.287 

> <ROCS_RefTverskyCombo>
0.682 

> <ROCS_FitTversky>
1.715 

> <ROCS_FitColorTversky>
0.751 

> <ROCS_FitTverskyCombo>
2.466 

> <ROCS_ColorScore>
-9.380

> <ROCS_Overlap>
1162.698

> <ROCS_Rank>
154                 

$$$$
untitled-dbase-6985_5
  -OEChem-06232314393D

 21 22  0     1  0  0  0  0  0999 V2000
  -10.1905   15.2533  -36.7279 C   0  0  0  0  0  0  0  0  0  0  0  0
  -13.2782   15.1602  -37.1111 C   0  0  0  0  0  0  0  0  0  0  0  0
  -12.9791   16.5566  -39.0178 C   0  0  0  0  0  0  0  0  0  0  0  0
  -11.0597   15.4168  -37.9316 C   0  0  2  0  0  0  0  0  0  0  0  0
  -12.3297   16.2320  -37.6544 C   0  0  2  0  0  0  0  0  0  0  0  0
  -13.0535   14.2507  -38.3098 C   0  0  1  0  0  0  0  0  0  0  0  0
  -13.4531   15.1730  -39.4668 C   0  0  0  0  0  0  0  0  0  0  0  0
  -11.5847   14.0830  -38.2825 N   0  0  0  0  0  0  0  0  0  0  0  0
  -10.5593   14.8083  -35.6511 O   0  0  0  0  0  0  0  0  0  0  0  0
   -8.9275   15.6702  -36.9892 O   0  0  0  0  0  0  0  0  0  0  0  0
  -12.8984   14.7951  -40.6334 F   0  0  0  0  0  0  0  0  0  0  0  0
  -14.7955   15.1691  -39.6313 F   0  0  0  0  0  0  0  0  0  0  0  0
  -12.9549   14.7224  -36.1608 H   0  0  0  0  0  0  0  0  0  0  0  0
  -14.3120   15.5094  -37.0143 H   0  0  0  0  0  0  0  0  0  0  0  0
  -13.8297   17.2335  -38.8836 H   0  0  0  0  0  0  0  0  0  0  0  0
  -12.2694   17.0064  -39.7184 H   0  0  0  0  0  0  0  0  0  0  0  0
  -10.4527   15.8372  -38.7406 H   0  0  0  0  0  0  0  0  0  0  0  0
  -12.1921   17.0985  -37.0041 H   0  0  0  0  0  0  0  0  0  0  0  0
  -13.5984   13.3051  -38.2800 H   0  0  0  0  0  0  0  0  0  0  0  0
  -11.2519   13.8120  -39.2072 H   0  0  0  0  0  0  0  0  0  0  0  0
   -8.3407   15.5726  -36.2092 H   0  0  0  0  0  0  0  0  0  0  0  0
  1  4  1  6  0  0  0
  1  9  2  0  0  0  0
  1 10  1  0  0  0  0
  2  5  1  0  0  0  0
  2  6  1  0  0  0  0
  3  5  1  0  0  0  0
  3  7  1  0  0  0  0
  4  5  1  0  0  0  0
  4  8  1  0  0  0  0
  6  7  1  0  0  0  0
  6  8  1  0  0  0  0
  7 11  1  0  0  0  0
  7 12  1  0  0  0  0
  2 13  1  0  0  0  0
  2 14  1  0  0  0  0
  3 15  1  0  0  0  0
  3 16  1  0  0  0  0
  4 17  1  0  0  0  0
  5 18  1  0  0  0  0
  6 19  1  0  0  0  0
  8 20  1  0  0  0  0
 10 21  1  0  0  0  0
M  END
> <id>
EN300-109780

> <smiles>
Cl.OC(=O)[C@H]1NC2CC1CC2(F)F

> <MDLNUMBER>
MFCD22378705

> <IUPAC Name>
(3S)-6,6-difluoro-2-azabicyclo[2.2.1]heptane-3-carboxylic acid hydrochloride

> <CAS>
1394052-57-3

> <URL>
https://www.enaminestore.com/catalog/EN300-109780

> <Saltdate>
Cl

> <ROCS_ShapeQuery>
__x1247relevant_x1083L0AP1_x1305L0BP1_

> <ROCS_TanimotoCombo>
0.736 

> <ROCS_ShapeTanimoto>
0.474 

> <ROCS_ColorTanimoto>
0.262 

> <ROCS_RefTversky>
0.396 

> <ROCS_RefColorTversky>
0.287 

> <ROCS_RefTverskyCombo>
0.682 

> <ROCS_FitTversky>
1.715 

> <ROCS_FitColorTversky>
0.751 

> <ROCS_FitTverskyCombo>
2.466 

> <ROCS_ColorScore>
-9.380

> <ROCS_Overlap>
1162.698

> <ROCS_Rank>
155                 

$$$$
untitled-dbase-179909_5
  -OEChem-06232314393D

 28 30  0     1  0  0  0  0  0999 V2000
   -9.9588   14.9835  -37.0623 C   0  0  0  0  0  0  0  0  0  0  0  0
  -14.4508   15.1424  -38.5352 C   0  0  0  0  0  0  0  0  0  0  0  0
  -13.7813   13.7272  -38.2252 C   0  0  0  0  0  0  0  0  0  0  0  0
  -12.3476   16.9975  -39.2266 C   0  0  0  0  0  0  0  0  0  0  0  0
  -13.1620   15.8170  -38.8368 C   0  0  1  0  0  0  0  0  0  0  0  0
  -12.3659   14.0074  -37.6339 C   0  0  2  0  0  0  0  0  0  0  0  0
  -12.4176   15.4359  -37.5835 C   0  0  1  0  0  0  0  0  0  0  0  0
  -10.9304   16.2529  -39.1240 C   0  0  1  0  0  0  0  0  0  0  0  0
  -11.0824   15.1391  -38.0112 C   0  0  1  0  0  0  0  0  0  0  0  0
   -9.2436   13.7410  -35.1839 C   0  0  0  0  0  0  0  0  0  0  0  0
  -10.4782   15.6437  -40.3708 N   0  0  0  0  0  0  0  0  0  0  0  0
   -8.9336   15.6504  -37.0991 O   0  0  0  0  0  0  0  0  0  0  0  0
  -10.2520   13.9986  -36.1663 O   0  0  0  0  0  0  0  0  0  0  0  0
  -15.1528   15.0852  -39.3706 H   0  0  0  0  0  0  0  0  0  0  0  0
  -14.9535   15.5422  -37.6477 H   0  0  0  0  0  0  0  0  0  0  0  0
  -14.3999   13.1657  -37.5174 H   0  0  0  0  0  0  0  0  0  0  0  0
  -13.6765   13.1373  -39.1433 H   0  0  0  0  0  0  0  0  0  0  0  0
  -12.5479   17.3837  -40.2300 H   0  0  0  0  0  0  0  0  0  0  0  0
  -12.4066   17.8158  -38.5004 H   0  0  0  0  0  0  0  0  0  0  0  0
  -12.9206   15.1978  -39.7253 H   0  0  0  0  0  0  0  0  0  0  0  0
  -12.2095   13.4427  -36.7205 H   0  0  0  0  0  0  0  0  0  0  0  0
  -12.6373   15.9823  -36.6812 H   0  0  0  0  0  0  0  0  0  0  0  0
  -10.1850   16.9938  -38.8107 H   0  0  0  0  0  0  0  0  0  0  0  0
   -9.5768   12.9395  -34.5201 H   0  0  0  0  0  0  0  0  0  0  0  0
   -9.0539   14.6503  -34.6081 H   0  0  0  0  0  0  0  0  0  0  0  0
   -8.3250   13.4339  -35.6895 H   0  0  0  0  0  0  0  0  0  0  0  0
  -10.3891   16.3596  -41.0529 H   0  0  0  0  0  0  0  0  0  0  0  0
   -9.6019   15.2079  -40.2041 H   0  0  0  0  0  0  0  0  0  0  0  0
  1  9  1  1  0  0  0
  1 12  2  0  0  0  0
  1 13  1  0  0  0  0
  2  3  1  0  0  0  0
  2  5  1  1  0  0  0
  3  6  1  6  0  0  0
  4  5  1  0  0  0  0
  4  8  1  0  0  0  0
  5  7  1  0  0  0  0
  6  7  1  0  0  0  0
  6  9  1  0  0  0  0
  7  9  1  0  0  0  0
  8  9  1  0  0  0  0
  8 11  1  6  0  0  0
 10 13  1  0  0  0  0
  2 14  1  0  0  0  0
  2 15  1  0  0  0  0
  3 16  1  0  0  0  0
  3 17  1  0  0  0  0
  4 18  1  0  0  0  0
  4 19  1  0  0  0  0
  5 20  1  0  0  0  0
  6 21  1  0  0  0  0
  7 22  1  0  0  0  0
  8 23  1  0  0  0  0
 10 24  1  0  0  0  0
 10 25  1  0  0  0  0
 10 26  1  0  0  0  0
 11 27  1  0  0  0  0
 11 28  1  0  0  0  0
M  END
> <id>
EN300-45377090

> <smiles>
COC(=O)[C@@]1([C@@H]2CC[C@H]3C[C@@H]1N)C23 |&1:4,5,8,10,r|

> <IUPAC Name>
rac-methyl (2R,3R,5R,8S)-3-aminotricyclo[3.3.0.0,2,8]octane-2-carboxylate

> <URL>
https://www.enaminestore.com/catalog/EN300-45377090

> <ROCS_ShapeQuery>
__x1247relevant_x1083L0AP1_x1305L0BP1_

> <ROCS_TanimotoCombo>
0.735 

> <ROCS_ShapeTanimoto>
0.488 

> <ROCS_ColorTanimoto>
0.247 

> <ROCS_RefTversky>
0.407 

> <ROCS_RefColorTversky>
0.307 

> <ROCS_RefTverskyCombo>
0.713 

> <ROCS_FitTversky>
1.696 

> <ROCS_FitColorTversky>
0.561 

> <ROCS_FitTverskyCombo>
2.257 

> <ROCS_ColorScore>
-10.130

> <ROCS_Overlap>
1195.338

> <ROCS_Rank>
156                 

$$$$
untitled-dbase-154696_28
  -OEChem-06232314393D

 29 30  0     0  0  0  0  0  0999 V2000
  -13.1972   16.6267  -40.4258 C   0  0  0  0  0  0  0  0  0  0  0  0
   -9.8161   14.9674  -37.1126 C   0  0  0  0  0  0  0  0  0  0  0  0
  -12.8681   13.5286  -38.1716 C   0  0  0  0  0  0  0  0  0  0  0  0
  -13.2819   15.5358  -36.7303 C   0  0  0  0  0  0  0  0  0  0  0  0
  -13.2403   14.3482  -39.4182 C   0  0  0  0  0  0  0  0  0  0  0  0
  -13.6541   16.3524  -37.9787 C   0  0  0  0  0  0  0  0  0  0  0  0
  -11.3648   15.9098  -38.8808 C   0  0  0  0  0  0  0  0  0  0  0  0
  -12.2588   14.4480  -37.0990 C   0  0  0  0  0  0  0  0  0  0  0  0
  -12.8700   15.8288  -39.1992 C   0  0  0  0  0  0  0  0  0  0  0  0
   -9.5627   13.6618  -36.3999 C   0  0  0  0  0  0  0  0  0  0  0  0
  -11.0773   15.1107  -37.6812 N   0  0  0  0  0  0  0  0  0  0  0  0
  -12.3886   17.2618  -41.0863 O   0  0  0  0  0  0  0  0  0  0  0  0
   -8.9303   15.8229  -37.1617 O   0  0  0  0  0  0  0  0  0  0  0  0
  -14.5212   16.5520  -40.7065 O   0  0  0  0  0  0  0  0  0  0  0  0
  -10.6494   12.8725  -36.4618 F   0  0  0  0  0  0  0  0  0  0  0  0
   -8.5322   13.0074  -36.9637 F   0  0  0  0  0  0  0  0  0  0  0  0
   -9.2691   13.8761  -35.1052 F   0  0  0  0  0  0  0  0  0  0  0  0
  -13.7604   13.0272  -37.7782 H   0  0  0  0  0  0  0  0  0  0  0  0
  -12.1573   12.7386  -38.4422 H   0  0  0  0  0  0  0  0  0  0  0  0
  -12.8700   16.1982  -35.9593 H   0  0  0  0  0  0  0  0  0  0  0  0
  -14.1832   15.0795  -36.3039 H   0  0  0  0  0  0  0  0  0  0  0  0
  -12.7199   13.9443  -40.2961 H   0  0  0  0  0  0  0  0  0  0  0  0
  -14.3126   14.2430  -39.6274 H   0  0  0  0  0  0  0  0  0  0  0  0
  -14.7355   16.2896  -38.1549 H   0  0  0  0  0  0  0  0  0  0  0  0
  -13.4370   17.4143  -37.8062 H   0  0  0  0  0  0  0  0  0  0  0  0
  -10.7584   15.5243  -39.7088 H   0  0  0  0  0  0  0  0  0  0  0  0
  -11.0509   16.9438  -38.6959 H   0  0  0  0  0  0  0  0  0  0  0  0
  -11.9826   13.8685  -36.2126 H   0  0  0  0  0  0  0  0  0  0  0  0
  -14.7561   17.0698  -41.5058 H   0  0  0  0  0  0  0  0  0  0  0  0
  1  9  1  0  0  0  0
  1 12  2  0  0  0  0
  1 14  1  0  0  0  0
  2 10  1  0  0  0  0
  2 11  1  0  0  0  0
  2 13  2  0  0  0  0
  3  5  1  0  0  0  0
  3  8  1  0  0  0  0
  4  6  1  0  0  0  0
  4  8  1  0  0  0  0
  5  9  1  0  0  0  0
  6  9  1  0  0  0  0
  7  9  1  0  0  0  0
  7 11  1  0  0  0  0
  8 11  1  0  0  0  0
 10 15  1  0  0  0  0
 10 16  1  0  0  0  0
 10 17  1  0  0  0  0
  3 18  1  0  0  0  0
  3 19  1  0  0  0  0
  4 20  1  0  0  0  0
  4 21  1  0  0  0  0
  5 22  1  0  0  0  0
  5 23  1  0  0  0  0
  6 24  1  0  0  0  0
  6 25  1  0  0  0  0
  7 26  1  0  0  0  0
  7 27  1  0  0  0  0
  8 28  1  0  0  0  0
 14 29  1  0  0  0  0
M  END
> <id>
EN300-6907150

> <smiles>
OC(=O)C1(CCC2CC1)CN2C(=O)C(F)(F)F

> <IUPAC Name>
2-(trifluoroacetyl)-2-azabicyclo[2.2.2]octane-4-carboxylic acid

> <CAS>
2680760-76-1

> <URL>
https://www.enaminestore.com/catalog/EN300-6907150

> <ROCS_ShapeQuery>
__x1247relevant_x1083L0AP1_x1305L0BP1_

> <ROCS_TanimotoCombo>
0.735 

> <ROCS_ShapeTanimoto>
0.531 

> <ROCS_ColorTanimoto>
0.204 

> <ROCS_RefTversky>
0.452 

> <ROCS_RefColorTversky>
0.227 

> <ROCS_RefTverskyCombo>
0.679 

> <ROCS_FitTversky>
1.493 

> <ROCS_FitColorTversky>
0.661 

> <ROCS_FitTverskyCombo>
2.154 

> <ROCS_ColorScore>
-7.427

> <ROCS_Overlap>
1333.433

> <ROCS_Rank>
157                 

$$$$
untitled-dbase-121497_6
  -OEChem-06232314393D

 24 26  0     1  0  0  0  0  0999 V2000
  -10.5367   16.5421  -39.4553 C   0  0  0  0  0  0  0  0  0  0  0  0
  -10.3054   15.2106  -36.7606 C   0  0  0  0  0  0  0  0  0  0  0  0
  -12.2914   14.7567  -39.8174 C   0  0  0  0  0  0  0  0  0  0  0  0
  -12.9735   16.7165  -38.8132 C   0  0  0  0  0  0  0  0  0  0  0  0
  -12.1428   13.7514  -37.7512 C   0  0  0  0  0  0  0  0  0  0  0  0
  -12.8215   15.7114  -36.7471 C   0  0  0  0  0  0  0  0  0  0  0  0
  -13.2246   14.2741  -38.7014 C   0  0  1  0  0  0  0  0  0  0  0  0
  -13.6980   15.6374  -38.0019 C   0  0  2  0  0  0  0  0  0  0  0  0
  -11.7055   15.8625  -38.9327 C   0  0  0  0  0  0  0  0  0  0  0  0
  -11.6001   15.1630  -37.4939 C   0  0  0  0  0  0  0  0  0  0  0  0
   -9.6012   17.0861  -39.8736 N   0  0  0  0  0  0  0  0  0  0  0  0
   -9.2737   15.7056  -37.1894 O   0  0  0  0  0  0  0  0  0  0  0  0
  -10.4224   14.6246  -35.5440 O   0  0  0  0  0  0  0  0  0  0  0  0
  -11.5558   14.0144  -40.1481 H   0  0  0  0  0  0  0  0  0  0  0  0
  -12.8263   15.1176  -40.7032 H   0  0  0  0  0  0  0  0  0  0  0  0
  -13.4624   16.9419  -39.7679 H   0  0  0  0  0  0  0  0  0  0  0  0
  -12.8244   17.6628  -38.2805 H   0  0  0  0  0  0  0  0  0  0  0  0
  -12.5491   13.2530  -36.8639 H   0  0  0  0  0  0  0  0  0  0  0  0
  -11.4133   13.0755  -38.2111 H   0  0  0  0  0  0  0  0  0  0  0  0
  -12.6758   16.7204  -36.3456 H   0  0  0  0  0  0  0  0  0  0  0  0
  -13.1782   15.0735  -35.9307 H   0  0  0  0  0  0  0  0  0  0  0  0
  -14.0027   13.5676  -38.9893 H   0  0  0  0  0  0  0  0  0  0  0  0
  -14.7691   15.7747  -37.8562 H   0  0  0  0  0  0  0  0  0  0  0  0
   -9.5780   14.6441  -35.0451 H   0  0  0  0  0  0  0  0  0  0  0  0
  1  9  1  0  0  0  0
  1 11  3  0  0  0  0
  2 10  1  0  0  0  0
  2 12  2  0  0  0  0
  2 13  1  0  0  0  0
  3  7  1  0  0  0  0
  3  9  1  0  0  0  0
  4  8  1  0  0  0  0
  4  9  1  0  0  0  0
  5  7  1  0  0  0  0
  5 10  1  0  0  0  0
  6  8  1  0  0  0  0
  6 10  1  0  0  0  0
  7  8  1  0  0  0  0
  9 10  1  0  0  0  0
  3 14  1  0  0  0  0
  3 15  1  0  0  0  0
  4 16  1  0  0  0  0
  4 17  1  0  0  0  0
  5 18  1  0  0  0  0
  5 19  1  0  0  0  0
  6 20  1  0  0  0  0
  6 21  1  0  0  0  0
  7 22  1  0  0  0  0
  8 23  1  0  0  0  0
 13 24  1  0  0  0  0
M  END
> <id>
EN300-26975748

> <smiles>
OC(=O)C12CC3CC2(CC3C1)C#N

> <IUPAC Name>
5-cyanotricyclo[3.3.0.0,3,7]octane-1-carboxylic acid

> <CAS>
2445794-12-5

> <URL>
https://www.enaminestore.com/catalog/EN300-26975748

> <ROCS_ShapeQuery>
__x1247relevant_x1083L0AP1_x1305L0BP1_

> <ROCS_TanimotoCombo>
0.735 

> <ROCS_ShapeTanimoto>
0.476 

> <ROCS_ColorTanimoto>
0.259 

> <ROCS_RefTversky>
0.403 

> <ROCS_RefColorTversky>
0.371 

> <ROCS_RefTverskyCombo>
0.774 

> <ROCS_FitTversky>
1.621 

> <ROCS_FitColorTversky>
0.461 

> <ROCS_FitTverskyCombo>
2.082 

> <ROCS_ColorScore>
-12.412

> <ROCS_Overlap>
1185.002

> <ROCS_Rank>
158                 

$$$$
untitled-dbase-108877_6
  -OEChem-06232314393D

 25 27  0     1  0  0  0  0  0999 V2000
   -9.5645   17.0970  -39.8911 C   0  0  0  0  0  0  0  0  0  0  0  0
  -10.5337   16.5368  -39.4576 C   0  0  0  0  0  0  0  0  0  0  0  0
  -10.3054   15.2110  -36.7598 C   0  0  0  0  0  0  0  0  0  0  0  0
  -12.2907   14.7530  -39.8166 C   0  0  0  0  0  0  0  0  0  0  0  0
  -12.9705   16.7160  -38.8170 C   0  0  0  0  0  0  0  0  0  0  0  0
  -12.1444   13.7522  -37.7481 C   0  0  0  0  0  0  0  0  0  0  0  0
  -12.8209   15.7153  -36.7486 C   0  0  0  0  0  0  0  0  0  0  0  0
  -13.2250   14.2742  -38.6999 C   0  0  1  0  0  0  0  0  0  0  0  0
  -13.6968   15.6397  -38.0037 C   0  0  2  0  0  0  0  0  0  0  0  0
  -11.7036   15.8600  -38.9340 C   0  0  0  0  0  0  0  0  0  0  0  0
  -11.5998   15.1635  -37.4937 C   0  0  0  0  0  0  0  0  0  0  0  0
   -9.2728   15.7037  -37.1893 O   0  0  0  0  0  0  0  0  0  0  0  0
  -10.4238   14.6278  -35.5420 O   0  0  0  0  0  0  0  0  0  0  0  0
   -8.7048   17.5941  -40.2757 H   0  0  0  0  0  0  0  0  0  0  0  0
  -11.5559   14.0091  -40.1453 H   0  0  0  0  0  0  0  0  0  0  0  0
  -12.8246   15.1128  -40.7034 H   0  0  0  0  0  0  0  0  0  0  0  0
  -13.4586   16.9399  -39.7725 H   0  0  0  0  0  0  0  0  0  0  0  0
  -12.8203   17.6633  -38.2863 H   0  0  0  0  0  0  0  0  0  0  0  0
  -12.5517   13.2563  -36.8599 H   0  0  0  0  0  0  0  0  0  0  0  0
  -11.4156   13.0742  -38.2062 H   0  0  0  0  0  0  0  0  0  0  0  0
  -12.6739   16.7250  -36.3493 H   0  0  0  0  0  0  0  0  0  0  0  0
  -13.1788   15.0797  -35.9310 H   0  0  0  0  0  0  0  0  0  0  0  0
  -14.0039   13.5682  -38.9867 H   0  0  0  0  0  0  0  0  0  0  0  0
  -14.7678   15.7788  -37.8588 H   0  0  0  0  0  0  0  0  0  0  0  0
   -9.5796   14.6473  -35.0428 H   0  0  0  0  0  0  0  0  0  0  0  0
  1  2  3  0  0  0  0
  2 10  1  0  0  0  0
  3 11  1  0  0  0  0
  3 12  2  0  0  0  0
  3 13  1  0  0  0  0
  4  8  1  0  0  0  0
  4 10  1  0  0  0  0
  5  9  1  0  0  0  0
  5 10  1  0  0  0  0
  6  8  1  0  0  0  0
  6 11  1  0  0  0  0
  7  9  1  0  0  0  0
  7 11  1  0  0  0  0
  8  9  1  0  0  0  0
 10 11  1  0  0  0  0
  1 14  1  0  0  0  0
  4 15  1  0  0  0  0
  4 16  1  0  0  0  0
  5 17  1  0  0  0  0
  5 18  1  0  0  0  0
  6 19  1  0  0  0  0
  6 20  1  0  0  0  0
  7 21  1  0  0  0  0
  7 22  1  0  0  0  0
  8 23  1  0  0  0  0
  9 24  1  0  0  0  0
 13 25  1  0  0  0  0
M  END
> <id>
EN300-26865955

> <smiles>
OC(=O)C12CC3CC2(CC3C1)C#C

> <IUPAC Name>
5-ethynyltricyclo[3.3.0.0,3,7]octane-1-carboxylic acid

> <CAS>
2445793-34-8

> <URL>
https://www.enaminestore.com/catalog/EN300-26865955

> <ROCS_ShapeQuery>
__x1247relevant_x1083L0AP1_x1305L0BP1_

> <ROCS_TanimotoCombo>
0.735 

> <ROCS_ShapeTanimoto>
0.476 

> <ROCS_ColorTanimoto>
0.259 

> <ROCS_RefTversky>
0.403 

> <ROCS_RefColorTversky>
0.371 

> <ROCS_RefTverskyCombo>
0.773 

> <ROCS_FitTversky>
1.623 

> <ROCS_FitColorTversky>
0.461 

> <ROCS_FitTverskyCombo>
2.084 

> <ROCS_ColorScore>
-12.412

> <ROCS_Overlap>
1184.106

> <ROCS_Rank>
159                 

$$$$
untitled-dbase-81046_95
  -OEChem-06232314393D

 44 46  0     1  0  0  0  0  0999 V2000
   -9.1158   14.4457  -36.8585 C   0  0  0  0  0  0  0  0  0  0  0  0
  -13.1579   13.9160  -36.9282 C   0  0  0  0  0  0  0  0  0  0  0  0
  -11.9504   16.1174  -36.7801 C   0  0  0  0  0  0  0  0  0  0  0  0
  -14.2075   15.9911  -37.8581 C   0  0  0  0  0  0  0  0  0  0  0  0
  -13.3696   14.1985  -39.4041 C   0  0  0  0  0  0  0  0  0  0  0  0
  -12.1666   16.3994  -39.2559 C   0  0  0  0  0  0  0  0  0  0  0  0
  -13.3277   15.4326  -36.7281 C   0  0  0  0  0  0  0  0  0  0  0  0
  -12.4771   13.6293  -38.2833 C   0  0  1  0  0  0  0  0  0  0  0  0
  -11.2678   15.8397  -38.1357 C   0  0  2  0  0  0  0  0  0  0  0  0
  -11.0919   14.3177  -38.3683 C   0  0  0  0  0  0  0  0  0  0  0  0
  -13.5454   15.7170  -39.2196 C   0  0  0  0  0  0  0  0  0  0  0  0
   -8.8695   14.9586  -34.0610 C   0  0  0  0  0  0  0  0  0  0  0  0
   -7.0794   13.1967  -34.0840 C   0  0  0  0  0  0  0  0  0  0  0  0
   -6.7859   15.2955  -35.4321 C   0  0  0  0  0  0  0  0  0  0  0  0
   -7.7904   14.2747  -34.8992 C   0  0  0  0  0  0  0  0  0  0  0  0
  -10.1595   13.7448  -37.4254 N   0  0  0  0  0  0  0  0  0  0  0  0
   -8.8434   15.6224  -37.0723 O   0  0  0  0  0  0  0  0  0  0  0  0
  -14.3726   16.2386  -40.2497 O   0  0  0  0  0  0  0  0  0  0  0  0
   -8.4189   13.6295  -36.0125 O   0  0  0  0  0  0  0  0  0  0  0  0
  -12.5631   13.4954  -36.1088 H   0  0  0  0  0  0  0  0  0  0  0  0
  -14.1372   13.4225  -36.8914 H   0  0  0  0  0  0  0  0  0  0  0  0
  -12.0653   17.1989  -36.6360 H   0  0  0  0  0  0  0  0  0  0  0  0
  -11.3222   15.7558  -35.9572 H   0  0  0  0  0  0  0  0  0  0  0  0
  -15.2070   15.5380  -37.8263 H   0  0  0  0  0  0  0  0  0  0  0  0
  -14.3666   17.0690  -37.7247 H   0  0  0  0  0  0  0  0  0  0  0  0
  -12.9315   13.9841  -40.3875 H   0  0  0  0  0  0  0  0  0  0  0  0
  -14.3492   13.7032  -39.4038 H   0  0  0  0  0  0  0  0  0  0  0  0
  -12.2809   17.4860  -39.1490 H   0  0  0  0  0  0  0  0  0  0  0  0
  -11.6950   16.2484  -40.2357 H   0  0  0  0  0  0  0  0  0  0  0  0
  -13.8022   15.6277  -35.7601 H   0  0  0  0  0  0  0  0  0  0  0  0
  -12.3707   12.5470  -38.4237 H   0  0  0  0  0  0  0  0  0  0  0  0
  -10.2940   16.3422  -38.1714 H   0  0  0  0  0  0  0  0  0  0  0  0
  -10.6535   14.1440  -39.3586 H   0  0  0  0  0  0  0  0  0  0  0  0
   -9.3822   15.7331  -34.6426 H   0  0  0  0  0  0  0  0  0  0  0  0
   -9.6156   14.2424  -33.7019 H   0  0  0  0  0  0  0  0  0  0  0  0
   -8.4292   15.4639  -33.1938 H   0  0  0  0  0  0  0  0  0  0  0  0
   -6.3043   12.7034  -34.6816 H   0  0  0  0  0  0  0  0  0  0  0  0
   -7.7808   12.4115  -33.7795 H   0  0  0  0  0  0  0  0  0  0  0  0
   -6.6123   13.6121  -33.1852 H   0  0  0  0  0  0  0  0  0  0  0  0
   -6.0118   14.8052  -36.0334 H   0  0  0  0  0  0  0  0  0  0  0  0
   -7.2734   16.0563  -36.0503 H   0  0  0  0  0  0  0  0  0  0  0  0
   -6.2658   15.7972  -34.6081 H   0  0  0  0  0  0  0  0  0  0  0  0
  -10.2794   12.7706  -37.1651 H   0  0  0  0  0  0  0  0  0  0  0  0
  -15.2279   15.7836  -40.1808 H   0  0  0  0  0  0  0  0  0  0  0  0
  1 16  1  0  0  0  0
  1 17  2  0  0  0  0
  1 19  1  0  0  0  0
  2  7  1  0  0  0  0
  2  8  1  0  0  0  0
  3  7  1  0  0  0  0
  3  9  1  0  0  0  0
  4  7  1  0  0  0  0
  4 11  1  0  0  0  0
  5  8  1  0  0  0  0
  5 11  1  0  0  0  0
  6  9  1  0  0  0  0
  6 11  1  0  0  0  0
  8 10  1  0  0  0  0
  9 10  1  0  0  0  0
 10 16  1  6  0  0  0
 11 18  1  1  0  0  0
 12 15  1  0  0  0  0
 13 15  1  0  0  0  0
 14 15  1  0  0  0  0
 15 19  1  0  0  0  0
  2 20  1  0  0  0  0
  2 21  1  0  0  0  0
  3 22  1  0  0  0  0
  3 23  1  0  0  0  0
  4 24  1  0  0  0  0
  4 25  1  0  0  0  0
  5 26  1  0  0  0  0
  5 27  1  0  0  0  0
  6 28  1  0  0  0  0
  6 29  1  0  0  0  0
  7 30  1  0  0  0  0
  8 31  1  0  0  0  0
  9 32  1  0  0  0  0
 10 33  1  0  0  0  0
 12 34  1  0  0  0  0
 12 35  1  0  0  0  0
 12 36  1  0  0  0  0
 13 37  1  0  0  0  0
 13 38  1  0  0  0  0
 13 39  1  0  0  0  0
 14 40  1  0  0  0  0
 14 41  1  0  0  0  0
 14 42  1  0  0  0  0
 16 43  1  0  0  0  0
 18 44  1  0  0  0  0
M  END
> <id>
EN300-7548431

> <smiles>
CC(C)(C)OC(=O)N[C@H]1C2CC3CC1C[C@](O)(C3)C2

> <IUPAC Name>
tert-butyl N-[(2s,5r)-5-hydroxyadamantan-2-yl]carbamate

> <URL>
https://www.enaminestore.com/catalog/EN300-7548431

> <ROCS_ShapeQuery>
__x1247relevant_x1083L0AP1_x1305L0BP1_

> <ROCS_TanimotoCombo>
0.735 

> <ROCS_ShapeTanimoto>
0.488 

> <ROCS_ColorTanimoto>
0.246 

> <ROCS_RefTversky>
0.435 

> <ROCS_RefColorTversky>
0.274 

> <ROCS_RefTverskyCombo>
0.708 

> <ROCS_FitTversky>
1.337 

> <ROCS_FitColorTversky>
0.712 

> <ROCS_FitTverskyCombo>
2.049 

> <ROCS_ColorScore>
-8.960

> <ROCS_Overlap>
1283.989

> <ROCS_Rank>
160                 

$$$$
untitled-dbase-175799_2
  -OEChem-06232314393D

 27 28  0     1  0  0  0  0  0999 V2000
  -13.2035   16.5036  -40.2856 C   0  0  0  0  0  0  0  0  0  0  0  0
  -10.0920   15.0552  -36.7272 C   0  0  0  0  0  0  0  0  0  0  0  0
  -13.1918   13.9301  -36.8934 C   0  0  0  0  0  0  0  0  0  0  0  0
  -13.3678   16.2239  -37.7904 C   0  0  0  0  0  0  0  0  0  0  0  0
  -11.3511   15.5596  -38.8859 C   0  0  0  0  0  0  0  0  0  0  0  0
  -13.1833   13.3814  -38.3276 C   0  0  0  0  0  0  0  0  0  0  0  0
  -12.5787   15.3365  -36.8316 C   0  0  2  0  0  0  0  0  0  0  0  0
  -12.8658   15.6451  -39.1099 C   0  0  2  0  0  0  0  0  0  0  0  0
   -8.8226   15.0166  -37.5392 C   0  0  0  0  0  0  0  0  0  0  0  0
  -11.2451   15.3169  -37.4422 N   0  0  0  0  0  0  0  0  0  0  0  0
  -12.3884   17.0069  -41.0443 O   0  0  0  0  0  0  0  0  0  0  0  0
  -10.0626   14.8586  -35.5115 O   0  0  0  0  0  0  0  0  0  0  0  0
  -13.4776   14.3714  -39.3224 O   0  0  0  0  0  0  0  0  0  0  0  0
  -14.5459   16.6539  -40.3988 O   0  0  0  0  0  0  0  0  0  0  0  0
   -9.0844   15.2531  -38.8372 F   0  0  0  0  0  0  0  0  0  0  0  0
   -7.9547   15.9493  -37.1076 F   0  0  0  0  0  0  0  0  0  0  0  0
   -8.2303   13.8128  -37.4412 F   0  0  0  0  0  0  0  0  0  0  0  0
  -14.2301   13.9863  -36.5427 H   0  0  0  0  0  0  0  0  0  0  0  0
  -12.6676   13.2373  -36.2256 H   0  0  0  0  0  0  0  0  0  0  0  0
  -14.4509   16.1213  -37.6627 H   0  0  0  0  0  0  0  0  0  0  0  0
  -13.0959   17.2796  -37.6706 H   0  0  0  0  0  0  0  0  0  0  0  0
  -10.8748   14.7423  -39.4357 H   0  0  0  0  0  0  0  0  0  0  0  0
  -10.8344   16.4994  -39.1091 H   0  0  0  0  0  0  0  0  0  0  0  0
  -12.2079   12.9393  -38.5618 H   0  0  0  0  0  0  0  0  0  0  0  0
  -13.9197   12.5771  -38.4259 H   0  0  0  0  0  0  0  0  0  0  0  0
  -12.5473   15.7177  -35.8069 H   0  0  0  0  0  0  0  0  0  0  0  0
  -15.0292   16.1723  -39.6940 H   0  0  0  0  0  0  0  0  0  0  0  0
  1  8  1  0  0  0  0
  1 11  2  0  0  0  0
  1 14  1  0  0  0  0
  2  9  1  0  0  0  0
  2 10  1  0  0  0  0
  2 12  2  0  0  0  0
  3  6  1  0  0  0  0
  3  7  1  0  0  0  0
  4  7  1  0  0  0  0
  4  8  1  0  0  0  0
  5  8  1  0  0  0  0
  5 10  1  0  0  0  0
  6 13  1  0  0  0  0
  7 10  1  0  0  0  0
  8 13  1  0  0  0  0
  9 15  1  0  0  0  0
  9 16  1  0  0  0  0
  9 17  1  0  0  0  0
  3 18  1  0  0  0  0
  3 19  1  0  0  0  0
  4 20  1  0  0  0  0
  4 21  1  0  0  0  0
  5 22  1  0  0  0  0
  5 23  1  0  0  0  0
  6 24  1  0  0  0  0
  6 25  1  0  0  0  0
  7 26  1  0  0  0  0
 14 27  1  0  0  0  0
M  END
> <id>
EN300-37454170

> <smiles>
OC(=O)C1(CC2CCO1)CN2C(=O)C(F)(F)F

> <IUPAC Name>
6-(2,2,2-trifluoroacetyl)-2-oxa-6-azabicyclo[3.2.1]octane-1-carboxylic acid

> <URL>
https://www.enaminestore.com/catalog/EN300-37454170

> <ROCS_ShapeQuery>
__x1247relevant_x1083L0AP1_x1305L0BP1_

> <ROCS_TanimotoCombo>
0.735 

> <ROCS_ShapeTanimoto>
0.526 

> <ROCS_ColorTanimoto>
0.209 

> <ROCS_RefTversky>
0.450 

> <ROCS_RefColorTversky>
0.237 

> <ROCS_RefTverskyCombo>
0.687 

> <ROCS_FitTversky>
1.468 

> <ROCS_FitColorTversky>
0.641 

> <ROCS_FitTverskyCombo>
2.109 

> <ROCS_ColorScore>
-7.744

> <ROCS_Overlap>
1328.128

> <ROCS_Rank>
161                 

$$$$
untitled-dbase-152486_33
  -OEChem-06232314393D

 27 28  0     1  0  0  0  0  0999 V2000
  -13.3750   16.5795  -40.1168 C   0  0  0  0  0  0  0  0  0  0  0  0
  -10.2308   14.8123  -36.6665 C   0  0  0  0  0  0  0  0  0  0  0  0
  -13.8199   14.1687  -38.4660 C   0  0  0  0  0  0  0  0  0  0  0  0
  -12.6628   15.3973  -36.6075 C   0  0  0  0  0  0  0  0  0  0  0  0
  -12.7562   16.3003  -38.7835 C   0  0  1  0  0  0  0  0  0  0  0  0
  -13.6466   15.5498  -37.7861 C   0  0  1  0  0  0  0  0  0  0  0  0
  -11.6695   15.2172  -38.7578 C   0  0  2  0  0  0  0  0  0  0  0  0
  -12.4385   13.9266  -39.1118 C   0  0  2  0  0  0  0  0  0  0  0  0
   -9.0403   14.5917  -37.5623 C   0  0  0  0  0  0  0  0  0  0  0  0
  -11.4047   15.1393  -37.3094 N   0  0  0  0  0  0  0  0  0  0  0  0
  -14.5396   16.3548  -40.4109 O   0  0  0  0  0  0  0  0  0  0  0  0
  -10.1232   14.7052  -35.4441 O   0  0  0  0  0  0  0  0  0  0  0  0
  -12.4639   17.1171  -40.9642 O   0  0  0  0  0  0  0  0  0  0  0  0
  -12.5447   13.7787  -40.5184 O   0  0  0  0  0  0  0  0  0  0  0  0
   -9.3795   14.7653  -38.8527 F   0  0  0  0  0  0  0  0  0  0  0  0
   -8.0550   15.4590  -37.2662 F   0  0  0  0  0  0  0  0  0  0  0  0
   -8.5585   13.3435  -37.4184 F   0  0  0  0  0  0  0  0  0  0  0  0
  -14.0602   13.3935  -37.7308 H   0  0  0  0  0  0  0  0  0  0  0  0
  -14.6192   14.1918  -39.2152 H   0  0  0  0  0  0  0  0  0  0  0  0
  -12.5532   16.3225  -36.0320 H   0  0  0  0  0  0  0  0  0  0  0  0
  -12.9001   14.5704  -35.9317 H   0  0  0  0  0  0  0  0  0  0  0  0
  -12.3957   17.2581  -38.3871 H   0  0  0  0  0  0  0  0  0  0  0  0
  -14.5898   16.0326  -37.5241 H   0  0  0  0  0  0  0  0  0  0  0  0
  -10.7905   15.4152  -39.3736 H   0  0  0  0  0  0  0  0  0  0  0  0
  -11.9525   13.0287  -38.7140 H   0  0  0  0  0  0  0  0  0  0  0  0
  -12.8503   17.3059  -41.8459 H   0  0  0  0  0  0  0  0  0  0  0  0
  -13.1227   13.0144  -40.6798 H   0  0  0  0  0  0  0  0  0  0  0  0
  1  5  1  6  0  0  0
  1 11  2  0  0  0  0
  1 13  1  0  0  0  0
  2  9  1  0  0  0  0
  2 10  1  0  0  0  0
  2 12  2  0  0  0  0
  3  6  1  6  0  0  0
  3  8  1  0  0  0  0
  4  6  1  0  0  0  0
  4 10  1  0  0  0  0
  5  6  1  0  0  0  0
  5  7  1  0  0  0  0
  7  8  1  0  0  0  0
  7 10  1  6  0  0  0
  8 14  1  1  0  0  0
  9 15  1  0  0  0  0
  9 16  1  0  0  0  0
  9 17  1  0  0  0  0
  3 18  1  0  0  0  0
  3 19  1  0  0  0  0
  4 20  1  0  0  0  0
  4 21  1  0  0  0  0
  5 22  1  0  0  0  0
  6 23  1  0  0  0  0
  7 24  1  0  0  0  0
  8 25  1  0  0  0  0
 13 26  1  0  0  0  0
 14 27  1  0  0  0  0
M  END
> <id>
EN300-28279174

> <smiles>
O[C@@H]1C[C@H]2CN([C@@H]1[C@H]2C(=O)O)C(=O)C(F)(F)F |&1:1,3,6,7,r|

> <IUPAC Name>
rac-(1R,4R,6R,7S)-6-hydroxy-2-(2,2,2-trifluoroacetyl)-2-azabicyclo[2.2.1]heptane-7-carboxylic acid

> <CAS>
2732255-84-2

> <URL>
https://www.enaminestore.com/catalog/EN300-28279174

> <ROCS_ShapeQuery>
__x1247relevant_x1083L0AP1_x1305L0BP1_

> <ROCS_TanimotoCombo>
0.734 

> <ROCS_ShapeTanimoto>
0.521 

> <ROCS_ColorTanimoto>
0.213 

> <ROCS_RefTversky>
0.447 

> <ROCS_RefColorTversky>
0.248 

> <ROCS_RefTverskyCombo>
0.695 

> <ROCS_FitTversky>
1.463 

> <ROCS_FitColorTversky>
0.604 

> <ROCS_FitTverskyCombo>
2.067 

> <ROCS_ColorScore>
-8.125

> <ROCS_Overlap>
1320.000

> <ROCS_Rank>
162                 

$$$$
untitled-dbase-149957_2
  -OEChem-06232314393D

 31 33  0     0  0  0  0  0  0999 V2000
  -14.2889   15.1116  -37.7662 C   0  0  0  0  0  0  0  0  0  0  0  0
  -13.0828   14.4609  -39.8668 C   0  0  0  0  0  0  0  0  0  0  0  0
  -13.0677   16.8491  -39.1006 C   0  0  0  0  0  0  0  0  0  0  0  0
  -12.1950   13.7378  -37.6358 C   0  0  0  0  0  0  0  0  0  0  0  0
  -12.1799   16.1290  -36.8687 C   0  0  0  0  0  0  0  0  0  0  0  0
  -10.9723   15.4774  -38.9719 C   0  0  0  0  0  0  0  0  0  0  0  0
  -13.4726   14.0020  -38.4512 C   0  0  0  0  0  0  0  0  0  0  0  0
  -13.4574   16.4031  -37.6808 C   0  0  0  0  0  0  0  0  0  0  0  0
  -12.2448   15.7489  -39.7928 C   0  0  0  0  0  0  0  0  0  0  0  0
  -11.3460   15.0224  -37.5464 C   0  0  0  0  0  0  0  0  0  0  0  0
   -9.4875   13.1594  -37.1914 N   0  0  0  0  0  0  0  0  0  0  0  0
   -8.8599   15.6495  -37.0431 O   0  0  0  0  0  0  0  0  0  0  0  0
  -10.2529   14.6093  -35.2092 O   0  0  0  0  0  0  0  0  0  0  0  0
   -9.8717   14.7105  -36.6033 S   0  0  0  0  0  0  0  0  0  0  0  0
  -15.2127   15.2977  -38.3278 H   0  0  0  0  0  0  0  0  0  0  0  0
  -14.5867   14.7908  -36.7604 H   0  0  0  0  0  0  0  0  0  0  0  0
  -12.5126   13.6721  -40.3724 H   0  0  0  0  0  0  0  0  0  0  0  0
  -13.9852   14.6356  -40.4655 H   0  0  0  0  0  0  0  0  0  0  0  0
  -13.9700   17.0659  -39.6857 H   0  0  0  0  0  0  0  0  0  0  0  0
  -12.4869   17.7785  -39.0550 H   0  0  0  0  0  0  0  0  0  0  0  0
  -12.4613   13.3856  -36.6307 H   0  0  0  0  0  0  0  0  0  0  0  0
  -11.6164   12.9298  -38.1022 H   0  0  0  0  0  0  0  0  0  0  0  0
  -11.5902   17.0506  -36.7804 H   0  0  0  0  0  0  0  0  0  0  0  0
  -12.4457   15.8334  -35.8455 H   0  0  0  0  0  0  0  0  0  0  0  0
  -10.3647   14.7107  -39.4699 H   0  0  0  0  0  0  0  0  0  0  0  0
  -10.3541   16.3837  -38.9331 H   0  0  0  0  0  0  0  0  0  0  0  0
  -14.0700   13.0854  -38.5103 H   0  0  0  0  0  0  0  0  0  0  0  0
  -14.0441   17.1898  -37.1936 H   0  0  0  0  0  0  0  0  0  0  0  0
  -11.9714   16.0716  -40.8035 H   0  0  0  0  0  0  0  0  0  0  0  0
  -10.0868   12.3752  -36.9058 H   0  0  0  0  0  0  0  0  0  0  0  0
   -9.1380   13.0838  -38.1546 H   0  0  0  0  0  0  0  0  0  0  0  0
  1  7  1  0  0  0  0
  1  8  1  0  0  0  0
  2  7  1  0  0  0  0
  2  9  1  0  0  0  0
  3  8  1  0  0  0  0
  3  9  1  0  0  0  0
  4  7  1  0  0  0  0
  4 10  1  0  0  0  0
  5  8  1  0  0  0  0
  5 10  1  0  0  0  0
  6  9  1  0  0  0  0
  6 10  1  0  0  0  0
 10 14  1  0  0  0  0
 11 14  1  0  0  0  0
 12 14  2  0  0  0  0
 13 14  2  0  0  0  0
  1 15  1  0  0  0  0
  1 16  1  0  0  0  0
  2 17  1  0  0  0  0
  2 18  1  0  0  0  0
  3 19  1  0  0  0  0
  3 20  1  0  0  0  0
  4 21  1  0  0  0  0
  4 22  1  0  0  0  0
  5 23  1  0  0  0  0
  5 24  1  0  0  0  0
  6 25  1  0  0  0  0
  6 26  1  0  0  0  0
  7 27  1  0  0  0  0
  8 28  1  0  0  0  0
  9 29  1  0  0  0  0
 11 30  1  0  0  0  0
 11 31  1  0  0  0  0
M  END
> <id>
EN300-1618325

> <smiles>
NS(=O)(=O)C1(CC2CC3CC(C2)C1)C3

> <MDLNUMBER>
MFCD34595284

> <IUPAC Name>
adamantane-1-sulfonamide

> <CAS>
21280-41-1

> <Purity>
95

> <URL>
https://www.enaminestore.com/catalog/EN300-1618325

> <MP>
196-198

> <ROCS_ShapeQuery>
__x1247relevant_x1083L0AP1_x1305L0BP1_

> <ROCS_TanimotoCombo>
0.733 

> <ROCS_ShapeTanimoto>
0.509 

> <ROCS_ColorTanimoto>
0.225 

> <ROCS_RefTversky>
0.421 

> <ROCS_RefColorTversky>
0.244 

> <ROCS_RefTverskyCombo>
0.665 

> <ROCS_FitTversky>
1.695 

> <ROCS_FitColorTversky>
0.743 

> <ROCS_FitTverskyCombo>
2.438 

> <ROCS_ColorScore>
-7.948

> <ROCS_Overlap>
1238.382

> <ROCS_Rank>
163                 

$$$$
untitled-dbase-46963_0
  -OEChem-06232314393D

 36 38  0     1  0  0  0  0  0999 V2000
   -9.0635   15.3904  -36.8787 C   0  0  0  0  0  0  0  0  0  0  0  0
  -10.4684   15.9184  -36.9430 C   0  0  0  0  0  0  0  0  0  0  0  0
  -12.6296   16.4574  -39.4876 C   0  0  0  0  0  0  0  0  0  0  0  0
  -13.4280   16.7083  -38.2098 C   0  0  0  0  0  0  0  0  0  0  0  0
  -11.3015   14.3715  -38.7909 C   0  0  0  0  0  0  0  0  0  0  0  0
  -12.7498   14.7485  -36.7059 C   0  0  0  0  0  0  0  0  0  0  0  0
  -12.5120   14.9362  -39.5690 C   0  0  1  0  0  0  0  0  0  0  0  0
  -13.7856   15.3101  -37.6993 C   0  0  2  0  0  0  0  0  0  0  0  0
  -10.4453   13.6019  -36.5209 C   0  0  2  0  0  0  0  0  0  0  0  0
  -11.3013   14.6636  -37.2504 C   0  0  0  0  0  0  0  0  0  0  0  0
  -14.9187   14.5187  -39.7135 C   0  0  0  0  0  0  0  0  0  0  0  0
  -10.6639   13.4607  -35.0144 C   0  0  0  0  0  0  0  0  0  0  0  0
  -13.7178   14.4401  -38.8858 N   0  0  0  0  0  0  0  0  0  0  0  0
   -9.8105   12.4450  -34.4982 N   0  0  0  0  0  0  0  0  0  0  0  0
   -8.0477   16.0652  -36.9382 O   0  0  0  0  0  0  0  0  0  0  0  0
   -9.0885   14.0343  -36.7233 O   0  0  0  0  0  0  0  0  0  0  0  0
  -10.7129   16.3580  -35.9708 H   0  0  0  0  0  0  0  0  0  0  0  0
  -10.5243   16.6847  -37.7150 H   0  0  0  0  0  0  0  0  0  0  0  0
  -13.1937   16.8427  -40.3462 H   0  0  0  0  0  0  0  0  0  0  0  0
  -11.6634   16.9675  -39.4955 H   0  0  0  0  0  0  0  0  0  0  0  0
  -12.8691   17.2989  -37.4780 H   0  0  0  0  0  0  0  0  0  0  0  0
  -14.3361   17.2717  -38.4560 H   0  0  0  0  0  0  0  0  0  0  0  0
  -11.3060   13.2833  -38.9450 H   0  0  0  0  0  0  0  0  0  0  0  0
  -10.3756   14.7336  -39.2556 H   0  0  0  0  0  0  0  0  0  0  0  0
  -12.7792   15.3395  -35.7820 H   0  0  0  0  0  0  0  0  0  0  0  0
  -13.0861   13.7383  -36.4331 H   0  0  0  0  0  0  0  0  0  0  0  0
  -12.4471   14.5941  -40.6085 H   0  0  0  0  0  0  0  0  0  0  0  0
  -14.7716   15.2944  -37.2204 H   0  0  0  0  0  0  0  0  0  0  0  0
  -10.5567   12.6134  -36.9803 H   0  0  0  0  0  0  0  0  0  0  0  0
  -15.7804   14.1348  -39.1478 H   0  0  0  0  0  0  0  0  0  0  0  0
  -15.1022   15.5662  -39.9948 H   0  0  0  0  0  0  0  0  0  0  0  0
  -14.7780   13.9144  -40.6218 H   0  0  0  0  0  0  0  0  0  0  0  0
  -10.4314   14.4240  -34.5647 H   0  0  0  0  0  0  0  0  0  0  0  0
  -11.7092   13.1977  -34.8650 H   0  0  0  0  0  0  0  0  0  0  0  0
   -8.8502   12.6648  -34.6951 H   0  0  0  0  0  0  0  0  0  0  0  0
   -9.9260   12.3674  -33.5032 H   0  0  0  0  0  0  0  0  0  0  0  0
  1  2  1  0  0  0  0
  1 15  2  0  0  0  0
  1 16  1  0  0  0  0
  2 10  1  0  0  0  0
  3  4  1  0  0  0  0
  3  7  1  0  0  0  0
  4  8  1  0  0  0  0
  5  7  1  0  0  0  0
  5 10  1  0  0  0  0
  6  8  1  0  0  0  0
  6 10  1  0  0  0  0
  7 13  1  0  0  0  0
  8 13  1  0  0  0  0
  9 10  1  0  0  0  0
  9 12  1  0  0  0  0
  9 16  1  0  0  0  0
 11 13  1  0  0  0  0
 12 14  1  0  0  0  0
  2 17  1  0  0  0  0
  2 18  1  0  0  0  0
  3 19  1  0  0  0  0
  3 20  1  0  0  0  0
  4 21  1  0  0  0  0
  4 22  1  0  0  0  0
  5 23  1  0  0  0  0
  5 24  1  0  0  0  0
  6 25  1  0  0  0  0
  6 26  1  0  0  0  0
  7 27  1  0  0  0  0
  8 28  1  0  0  0  0
  9 29  1  0  0  0  0
 11 30  1  0  0  0  0
 11 31  1  0  0  0  0
 11 32  1  0  0  0  0
 12 33  1  0  0  0  0
 12 34  1  0  0  0  0
 14 35  1  0  0  0  0
 14 36  1  0  0  0  0
M  END
> <id>
EN300-1479103

> <smiles>
CN1C2CCC1CC3(CC(=O)OC3CN)C2

> <IUPAC Name>
2'-(aminomethyl)-8-methyl-8-azaspiro[bicyclo[3.2.1]octane-3,3'-oxolane]-5'-one

> <CAS>
2166967-01-5

> <URL>
https://www.enaminestore.com/catalog/EN300-1479103

> <ROCS_ShapeQuery>
__x1247relevant_x1083L0AP1_x1305L0BP1_

> <ROCS_TanimotoCombo>
0.733 

> <ROCS_ShapeTanimoto>
0.517 

> <ROCS_ColorTanimoto>
0.216 

> <ROCS_RefTversky>
0.438 

> <ROCS_RefColorTversky>
0.243 

> <ROCS_RefTverskyCombo>
0.680 

> <ROCS_FitTversky>
1.543 

> <ROCS_FitColorTversky>
0.665 

> <ROCS_FitTverskyCombo>
2.208 

> <ROCS_ColorScore>
-7.930

> <ROCS_Overlap>
1289.797

> <ROCS_Rank>
164                 

$$$$
untitled-dbase-94143_5
  -OEChem-06232314393D

 30 32  0     1  0  0  0  0  0999 V2000
  -10.0019   15.2631  -36.6508 C   0  0  0  0  0  0  0  0  0  0  0  0
  -14.0973   14.4203  -37.7368 C   0  0  0  0  0  0  0  0  0  0  0  0
  -11.6628   13.8161  -37.7948 C   0  0  0  0  0  0  0  0  0  0  0  0
  -12.4184   15.8815  -36.5804 C   0  0  0  0  0  0  0  0  0  0  0  0
  -12.8059   14.6227  -39.8756 C   0  0  0  0  0  0  0  0  0  0  0  0
  -13.5575   16.6866  -38.6632 C   0  0  0  0  0  0  0  0  0  0  0  0
  -11.1225   16.0862  -38.7212 C   0  0  0  0  0  0  0  0  0  0  0  0
  -12.9800   13.7956  -38.5913 C   0  0  2  0  0  0  0  0  0  0  0  0
  -13.7379   15.8718  -37.3724 C   0  0  1  0  0  0  0  0  0  0  0  0
  -11.2869   15.2658  -37.4280 C   0  0  0  0  0  0  0  0  0  0  0  0
  -12.4373   16.0745  -39.5213 C   0  0  0  0  0  0  0  0  0  0  0  0
   -8.9749   15.8314  -36.9908 O   0  0  0  0  0  0  0  0  0  0  0  0
  -10.1322   14.5381  -35.5129 O   0  0  0  0  0  0  0  0  0  0  0  0
  -12.2825   16.8190  -40.7208 O   0  0  0  0  0  0  0  0  0  0  0  0
  -15.0459   14.3971  -38.2871 H   0  0  0  0  0  0  0  0  0  0  0  0
  -14.2441   13.8306  -36.8236 H   0  0  0  0  0  0  0  0  0  0  0  0
  -11.7661   13.2071  -36.8870 H   0  0  0  0  0  0  0  0  0  0  0  0
  -10.8621   13.3520  -38.3857 H   0  0  0  0  0  0  0  0  0  0  0  0
  -12.1622   16.9096  -36.2927 H   0  0  0  0  0  0  0  0  0  0  0  0
  -12.5434   15.3229  -35.6435 H   0  0  0  0  0  0  0  0  0  0  0  0
  -12.0287   14.1813  -40.5128 H   0  0  0  0  0  0  0  0  0  0  0  0
  -13.7266   14.6018  -40.4731 H   0  0  0  0  0  0  0  0  0  0  0  0
  -14.4955   16.7154  -39.2327 H   0  0  0  0  0  0  0  0  0  0  0  0
  -13.3239   17.7325  -38.4252 H   0  0  0  0  0  0  0  0  0  0  0  0
  -10.8273   17.1194  -38.4915 H   0  0  0  0  0  0  0  0  0  0  0  0
  -10.3052   15.6879  -39.3381 H   0  0  0  0  0  0  0  0  0  0  0  0
  -13.2421   12.7632  -38.8474 H   0  0  0  0  0  0  0  0  0  0  0  0
  -14.5376   16.3104  -36.7655 H   0  0  0  0  0  0  0  0  0  0  0  0
   -9.3016   14.5226  -34.9913 H   0  0  0  0  0  0  0  0  0  0  0  0
  -12.0513   17.7258  -40.4610 H   0  0  0  0  0  0  0  0  0  0  0  0
  1 10  1  0  0  0  0
  1 12  2  0  0  0  0
  1 13  1  0  0  0  0
  2  8  1  0  0  0  0
  2  9  1  0  0  0  0
  3  8  1  0  0  0  0
  3 10  1  0  0  0  0
  4  9  1  0  0  0  0
  4 10  1  0  0  0  0
  5  8  1  0  0  0  0
  5 11  1  0  0  0  0
  6  9  1  0  0  0  0
  6 11  1  0  0  0  0
  7 10  1  0  0  0  0
  7 11  1  0  0  0  0
 11 14  1  0  0  0  0
  2 15  1  0  0  0  0
  2 16  1  0  0  0  0
  3 17  1  0  0  0  0
  3 18  1  0  0  0  0
  4 19  1  0  0  0  0
  4 20  1  0  0  0  0
  5 21  1  0  0  0  0
  5 22  1  0  0  0  0
  6 23  1  0  0  0  0
  6 24  1  0  0  0  0
  7 25  1  0  0  0  0
  7 26  1  0  0  0  0
  8 27  1  0  0  0  0
  9 28  1  0  0  0  0
 13 29  1  0  0  0  0
 14 30  1  0  0  0  0
M  END
> <id>
EN300-16717

> <smiles>
OC(=O)C1(CC2CC3CC(O)(C2)C1)C3

> <MDLNUMBER>
MFCD00193929

> <IUPAC Name>
3-hydroxyadamantane-1-carboxylic acid

> <CAS>
42711-75-1

> <Purity>
95

> <URL>
https://www.enaminestore.com/catalog/EN300-16717

> <MP>
200-205

> <ROCS_ShapeQuery>
__x1247relevant_x1083L0AP1_x1305L0BP1_

> <ROCS_TanimotoCombo>
0.733 

> <ROCS_ShapeTanimoto>
0.504 

> <ROCS_ColorTanimoto>
0.229 

> <ROCS_RefTversky>
0.422 

> <ROCS_RefColorTversky>
0.258 

> <ROCS_RefTverskyCombo>
0.680 

> <ROCS_FitTversky>
1.636 

> <ROCS_FitColorTversky>
0.671 

> <ROCS_FitTverskyCombo>
2.307 

> <ROCS_ColorScore>
-8.454

> <ROCS_Overlap>
1240.581

> <ROCS_Rank>
165                 

$$$$
untitled-dbase-175385_0
  -OEChem-06232314393D

 19 21  0     1  0  0  0  0  0999 V2000
  -12.7285   16.0176  -39.4982 C   0  0  0  0  0  0  0  0  0  0  0  0
  -10.4251   15.3070  -36.6374 C   0  0  0  0  0  0  0  0  0  0  0  0
  -12.0965   13.8894  -38.7150 C   0  0  0  0  0  0  0  0  0  0  0  0
  -11.4847   15.3113  -38.9608 C   0  0  2  0  0  0  0  0  0  0  0  0
  -13.6995   15.6954  -38.4207 C   0  0  1  0  0  0  0  0  0  0  0  0
  -11.4507   15.9297  -37.5222 C   0  0  1  0  0  0  0  0  0  0  0  0
  -13.2807   14.3513  -37.8878 C   0  0  2  0  0  0  0  0  0  0  0  0
  -12.8846   15.5878  -37.1557 C   0  0  2  0  0  0  0  0  0  0  0  0
  -12.9208   16.6683  -40.5024 O   0  0  0  0  0  0  0  0  0  0  0  0
  -10.6676   14.6558  -35.6321 O   0  0  0  0  0  0  0  0  0  0  0  0
   -9.1763   15.5630  -37.0981 O   0  0  0  0  0  0  0  0  0  0  0  0
  -12.4206   13.4084  -39.6435 H   0  0  0  0  0  0  0  0  0  0  0  0
  -11.4316   13.2261  -38.1556 H   0  0  0  0  0  0  0  0  0  0  0  0
  -10.5865   15.3715  -39.5710 H   0  0  0  0  0  0  0  0  0  0  0  0
  -14.7249   16.0187  -38.4138 H   0  0  0  0  0  0  0  0  0  0  0  0
  -11.2953   17.0141  -37.5499 H   0  0  0  0  0  0  0  0  0  0  0  0
  -13.9808   13.6370  -37.5026 H   0  0  0  0  0  0  0  0  0  0  0  0
  -13.2795   15.8631  -36.1974 H   0  0  0  0  0  0  0  0  0  0  0  0
   -8.4860   15.1627  -36.5275 H   0  0  0  0  0  0  0  0  0  0  0  0
  1  4  1  0  0  0  0
  1  5  1  0  0  0  0
  1  9  2  0  0  0  0
  2  6  1  1  0  0  0
  2 10  2  0  0  0  0
  2 11  1  0  0  0  0
  3  4  1  1  0  0  0
  3  7  1  0  0  0  0
  4  6  1  0  0  0  0
  5  7  1  1  0  0  0
  5  8  1  0  0  0  0
  6  8  1  0  0  0  0
  7  8  1  0  0  0  0
  3 12  1  0  0  0  0
  3 13  1  0  0  0  0
  4 14  1  0  0  0  0
  5 15  1  0  0  0  0
  6 16  1  0  0  0  0
  7 17  1  0  0  0  0
  8 18  1  0  0  0  0
 11 19  1  0  0  0  0
M  END
> <id>
EN300-44825923

> <smiles>
OC(=O)[C@@H]1C2C3C[C@H]1C(=O)[C@@H]32 |&1:3,7,10,r|

> <IUPAC Name>
rac-(3R,4R,6S)-5-oxotricyclo[2.2.1.0,2,6]heptane-3-carboxylic acid

> <Purity>
95

> <URL>
https://www.enaminestore.com/catalog/EN300-44825923

> <ROCS_ShapeQuery>
__x1247relevant_x1083L0AP1_x1305L0BP1_

> <ROCS_TanimotoCombo>
0.733 

> <ROCS_ShapeTanimoto>
0.453 

> <ROCS_ColorTanimoto>
0.280 

> <ROCS_RefTversky>
0.380 

> <ROCS_RefColorTversky>
0.428 

> <ROCS_RefTverskyCombo>
0.808 

> <ROCS_FitTversky>
1.744 

> <ROCS_FitColorTversky>
0.448 

> <ROCS_FitTverskyCombo>
2.192 

> <ROCS_ColorScore>
-14.451

> <ROCS_Overlap>
1114.789

> <ROCS_Rank>
166                 

$$$$
untitled-dbase-120591_9
  -OEChem-06232314393D

 40 42  0     1  0  0  0  0  0999 V2000
  -12.3201   16.8118  -38.3875 C   0  0  0  0  0  0  0  0  0  0  0  0
  -12.0598   14.7926  -39.7860 C   0  0  0  0  0  0  0  0  0  0  0  0
   -8.7168   15.0503  -36.7721 C   0  0  0  0  0  0  0  0  0  0  0  0
  -13.6974   16.3315  -37.9110 C   0  0  0  0  0  0  0  0  0  0  0  0
  -13.5138   14.4599  -39.4150 C   0  0  0  0  0  0  0  0  0  0  0  0
  -12.8638   14.2113  -37.1144 C   0  0  0  0  0  0  0  0  0  0  0  0
   -9.7348   16.0050  -36.1610 C   0  0  0  0  0  0  0  0  0  0  0  0
  -11.4148   15.5866  -38.6338 C   0  0  0  0  0  0  0  0  0  0  0  0
  -11.3960   14.7056  -37.3434 C   0  0  2  0  0  0  0  0  0  0  0  0
   -9.2252   13.6043  -36.8185 C   0  0  1  0  0  0  0  0  0  0  0  0
   -8.2354   12.7417  -37.6181 C   0  0  0  0  0  0  0  0  0  0  0  0
   -9.8444   11.6085  -35.4436 C   0  0  0  0  0  0  0  0  0  0  0  0
   -9.3507   13.0130  -35.4014 C   0  0  0  0  0  0  0  0  0  0  0  0
  -10.5191   13.5312  -37.5129 N   0  0  0  0  0  0  0  0  0  0  0  0
  -13.8320   14.8660  -38.0284 N   0  0  0  0  0  0  0  0  0  0  0  0
  -11.0641   15.4934  -36.1867 O   0  0  0  0  0  0  0  0  0  0  0  0
  -12.4248   17.3890  -39.3158 H   0  0  0  0  0  0  0  0  0  0  0  0
  -11.8783   17.4892  -37.6465 H   0  0  0  0  0  0  0  0  0  0  0  0
  -11.4996   13.8777  -40.0082 H   0  0  0  0  0  0  0  0  0  0  0  0
  -12.0462   15.3943  -40.7041 H   0  0  0  0  0  0  0  0  0  0  0  0
   -8.5056   15.3957  -37.7979 H   0  0  0  0  0  0  0  0  0  0  0  0
   -7.7672   15.1184  -36.2193 H   0  0  0  0  0  0  0  0  0  0  0  0
  -13.8659   16.6374  -36.8704 H   0  0  0  0  0  0  0  0  0  0  0  0
  -14.4853   16.8257  -38.4936 H   0  0  0  0  0  0  0  0  0  0  0  0
  -14.2037   14.9518  -40.1129 H   0  0  0  0  0  0  0  0  0  0  0  0
  -13.6918   13.3840  -39.5377 H   0  0  0  0  0  0  0  0  0  0  0  0
  -12.9523   13.1307  -37.2718 H   0  0  0  0  0  0  0  0  0  0  0  0
  -13.1860   14.3929  -36.0848 H   0  0  0  0  0  0  0  0  0  0  0  0
   -9.4591   16.2920  -35.1271 H   0  0  0  0  0  0  0  0  0  0  0  0
   -9.7386   16.9536  -36.7319 H   0  0  0  0  0  0  0  0  0  0  0  0
  -10.4088   15.9239  -38.9011 H   0  0  0  0  0  0  0  0  0  0  0  0
   -8.5983   11.7206  -37.6485 H   0  0  0  0  0  0  0  0  0  0  0  0
   -7.2659   12.7728  -37.1340 H   0  0  0  0  0  0  0  0  0  0  0  0
   -8.1560   13.1339  -38.6256 H   0  0  0  0  0  0  0  0  0  0  0  0
  -10.8278   11.5866  -35.9279 H   0  0  0  0  0  0  0  0  0  0  0  0
   -9.9540   11.1984  -34.4341 H   0  0  0  0  0  0  0  0  0  0  0  0
   -9.1673   10.9699  -36.0207 H   0  0  0  0  0  0  0  0  0  0  0  0
   -8.3730   13.0524  -34.9225 H   0  0  0  0  0  0  0  0  0  0  0  0
  -10.0370   13.6343  -34.8270 H   0  0  0  0  0  0  0  0  0  0  0  0
  -11.0060   12.6770  -37.2532 H   0  0  0  0  0  0  0  0  0  0  0  0
  1  4  1  0  0  0  0
  1  8  1  0  0  0  0
  2  5  1  0  0  0  0
  2  8  1  0  0  0  0
  3  7  1  0  0  0  0
  3 10  1  0  0  0  0
  4 15  1  0  0  0  0
  5 15  1  0  0  0  0
  6  9  1  0  0  0  0
  6 15  1  0  0  0  0
  7 16  1  0  0  0  0
  8  9  1  0  0  0  0
  9 14  1  0  0  0  0
  9 16  1  0  0  0  0
 10 11  1  0  0  0  0
 10 13  1  0  0  0  0
 10 14  1  0  0  0  0
 12 13  1  0  0  0  0
  1 17  1  0  0  0  0
  1 18  1  0  0  0  0
  2 19  1  0  0  0  0
  2 20  1  0  0  0  0
  3 21  1  0  0  0  0
  3 22  1  0  0  0  0
  4 23  1  0  0  0  0
  4 24  1  0  0  0  0
  5 25  1  0  0  0  0
  5 26  1  0  0  0  0
  6 27  1  0  0  0  0
  6 28  1  0  0  0  0
  7 29  1  0  0  0  0
  7 30  1  0  0  0  0
  8 31  1  0  0  0  0
 11 32  1  0  0  0  0
 11 33  1  0  0  0  0
 11 34  1  0  0  0  0
 12 35  1  0  0  0  0
 12 36  1  0  0  0  0
 12 37  1  0  0  0  0
 13 38  1  0  0  0  0
 13 39  1  0  0  0  0
 14 40  1  0  0  0  0
M  END
> <id>
EN300-1279490

> <smiles>
CCC1(C)CCOC2(CN3CCC2CC3)N1

> <IUPAC Name>
4'-ethyl-4'-methyl-4-azaspiro[bicyclo[2.2.2]octane-2,2'-[1,3]oxazinane]

> <CAS>
2172024-34-7

> <URL>
https://www.enaminestore.com/catalog/EN300-1279490

> <ROCS_ShapeQuery>
__x1247relevant_x1083L0AP1_x1305L0BP1_

> <ROCS_TanimotoCombo>
0.733 

> <ROCS_ShapeTanimoto>
0.498 

> <ROCS_ColorTanimoto>
0.236 

> <ROCS_RefTversky>
0.426 

> <ROCS_RefColorTversky>
0.267 

> <ROCS_RefTverskyCombo>
0.693 

> <ROCS_FitTversky>
1.512 

> <ROCS_FitColorTversky>
0.666 

> <ROCS_FitTverskyCombo>
2.178 

> <ROCS_ColorScore>
-8.758

> <ROCS_Overlap>
1254.723

> <ROCS_Rank>
167                 

$$$$
untitled-dbase-125771_0
  -OEChem-06232314393D

 36 39  0     0  0  0  0  0  0999 V2000
   -8.2930   16.2792  -34.6443 C   0  0  0  0  0  0  0  0  0  0  0  0
   -8.0888   16.3676  -36.0062 C   0  0  0  0  0  0  0  0  0  0  0  0
   -9.4272   15.5971  -34.2537 C   0  0  0  0  0  0  0  0  0  0  0  0
   -9.9916   15.1943  -36.4185 C   0  0  0  0  0  0  0  0  0  0  0  0
  -13.9310   15.9341  -39.0644 C   0  0  0  0  0  0  0  0  0  0  0  0
  -11.9517   14.6092  -39.8318 C   0  0  0  0  0  0  0  0  0  0  0  0
  -13.3719   13.7623  -37.9541 C   0  0  0  0  0  0  0  0  0  0  0  0
  -11.6111   16.7595  -38.6101 C   0  0  0  0  0  0  0  0  0  0  0  0
  -13.0360   15.9098  -36.7260 C   0  0  0  0  0  0  0  0  0  0  0  0
  -13.3843   14.5160  -39.2905 C   0  0  0  0  0  0  0  0  0  0  0  0
  -13.0426   16.6796  -38.0563 C   0  0  0  0  0  0  0  0  0  0  0  0
  -11.0350   15.3381  -38.8173 C   0  0  0  0  0  0  0  0  0  0  0  0
  -12.4616   14.4876  -36.9311 C   0  0  0  0  0  0  0  0  0  0  0  0
  -10.9711   14.5686  -37.4417 C   0  0  0  0  0  0  0  0  0  0  0  0
   -8.9208   15.8348  -36.9250 N   0  0  0  0  0  0  0  0  0  0  0  0
  -10.3016   15.0400  -35.1171 N   0  0  0  0  0  0  0  0  0  0  0  0
  -10.4899   13.1941  -37.6975 N   0  0  0  0  0  0  0  0  0  0  0  0
   -7.6088   16.7162  -33.9296 H   0  0  0  0  0  0  0  0  0  0  0  0
   -7.2242   16.8849  -36.4083 H   0  0  0  0  0  0  0  0  0  0  0  0
   -9.6715   15.4760  -33.2037 H   0  0  0  0  0  0  0  0  0  0  0  0
  -13.9625   16.4812  -40.0146 H   0  0  0  0  0  0  0  0  0  0  0  0
  -14.9617   15.8846  -38.6921 H   0  0  0  0  0  0  0  0  0  0  0  0
  -11.5647   13.6094  -40.0578 H   0  0  0  0  0  0  0  0  0  0  0  0
  -11.9514   15.1557  -40.7840 H   0  0  0  0  0  0  0  0  0  0  0  0
  -14.3930   13.7042  -37.5554 H   0  0  0  0  0  0  0  0  0  0  0  0
  -13.0489   12.7265  -38.1032 H   0  0  0  0  0  0  0  0  0  0  0  0
  -11.6133   17.2993  -39.5656 H   0  0  0  0  0  0  0  0  0  0  0  0
  -10.9769   17.3425  -37.9323 H   0  0  0  0  0  0  0  0  0  0  0  0
  -12.4582   16.4603  -35.9747 H   0  0  0  0  0  0  0  0  0  0  0  0
  -14.0586   15.8409  -36.3336 H   0  0  0  0  0  0  0  0  0  0  0  0
  -14.0201   13.9877  -40.0095 H   0  0  0  0  0  0  0  0  0  0  0  0
  -13.4356   17.6902  -37.8978 H   0  0  0  0  0  0  0  0  0  0  0  0
  -10.0267   15.4268  -39.2423 H   0  0  0  0  0  0  0  0  0  0  0  0
  -12.4990   13.9517  -35.9736 H   0  0  0  0  0  0  0  0  0  0  0  0
   -9.5709   13.2564  -38.0616 H   0  0  0  0  0  0  0  0  0  0  0  0
  -10.4988   12.7042  -36.8367 H   0  0  0  0  0  0  0  0  0  0  0  0
  1  2  2  0  0  0  0
  1  3  1  0  0  0  0
  2 15  1  0  0  0  0
  3 16  2  0  0  0  0
  4 14  1  0  0  0  0
  4 15  2  0  0  0  0
  4 16  1  0  0  0  0
  5 10  1  0  0  0  0
  5 11  1  0  0  0  0
  6 10  1  0  0  0  0
  6 12  1  0  0  0  0
  7 10  1  0  0  0  0
  7 13  1  0  0  0  0
  8 11  1  0  0  0  0
  8 12  1  0  0  0  0
  9 11  1  0  0  0  0
  9 13  1  0  0  0  0
 12 14  1  0  0  0  0
 13 14  1  0  0  0  0
 14 17  1  0  0  0  0
  1 18  1  0  0  0  0
  2 19  1  0  0  0  0
  3 20  1  0  0  0  0
  5 21  1  0  0  0  0
  5 22  1  0  0  0  0
  6 23  1  0  0  0  0
  6 24  1  0  0  0  0
  7 25  1  0  0  0  0
  7 26  1  0  0  0  0
  8 27  1  0  0  0  0
  8 28  1  0  0  0  0
  9 29  1  0  0  0  0
  9 30  1  0  0  0  0
 10 31  1  0  0  0  0
 11 32  1  0  0  0  0
 12 33  1  0  0  0  0
 13 34  1  0  0  0  0
 17 35  1  0  0  0  0
 17 36  1  0  0  0  0
M  END
> <id>
EN300-1122023

> <smiles>
NC1(C2CC3CC(C2)CC1C3)C=4N=CC=CN4

> <IUPAC Name>
2-(pyrimidin-2-yl)adamantan-2-amine

> <CAS>
2138014-42-1

> <URL>
https://www.enaminestore.com/catalog/EN300-1122023

> <ROCS_ShapeQuery>
__x1247relevant_x1083L0AP1_x1305L0BP1_

> <ROCS_TanimotoCombo>
0.733 

> <ROCS_ShapeTanimoto>
0.489 

> <ROCS_ColorTanimoto>
0.244 

> <ROCS_RefTversky>
0.428 

> <ROCS_RefColorTversky>
0.272 

> <ROCS_RefTverskyCombo>
0.700 

> <ROCS_FitTversky>
1.405 

> <ROCS_FitColorTversky>
0.708 

> <ROCS_FitTverskyCombo>
2.113 

> <ROCS_ColorScore>
-8.895

> <ROCS_Overlap>
1264.027

> <ROCS_Rank>
168                 

$$$$
untitled-dbase-87380_20
  -OEChem-06232314393D

 43 45  0     0  0  0  0  0  0999 V2000
  -10.0487   15.4605  -36.6312 C   0  0  0  0  0  0  0  0  0  0  0  0
  -13.9407   15.8730  -39.1744 C   0  0  0  0  0  0  0  0  0  0  0  0
  -12.9615   16.2037  -36.8948 C   0  0  0  0  0  0  0  0  0  0  0  0
  -11.5745   16.6678  -38.9423 C   0  0  0  0  0  0  0  0  0  0  0  0
  -13.4150   13.8944  -37.7289 C   0  0  0  0  0  0  0  0  0  0  0  0
  -12.0359   14.3690  -39.7839 C   0  0  0  0  0  0  0  0  0  0  0  0
  -12.9879   16.7409  -38.3362 C   0  0  0  0  0  0  0  0  0  0  0  0
  -13.4500   14.4159  -39.1775 C   0  0  0  0  0  0  0  0  0  0  0  0
  -12.4457   14.7458  -36.8751 C   0  0  0  0  0  0  0  0  0  0  0  0
  -11.0581   15.2083  -38.9269 C   0  0  0  0  0  0  0  0  0  0  0  0
  -11.0198   14.6672  -37.4738 C   0  0  0  0  0  0  0  0  0  0  0  0
   -8.2407   15.6838  -34.4455 C   0  0  0  0  0  0  0  0  0  0  0  0
  -10.1779   14.9783  -33.0107 C   0  0  0  0  0  0  0  0  0  0  0  0
   -9.3005   13.4255  -34.7790 C   0  0  0  0  0  0  0  0  0  0  0  0
   -9.5422   14.8848  -34.3961 C   0  0  0  0  0  0  0  0  0  0  0  0
  -10.4703   13.3089  -37.4067 N   0  0  0  0  0  0  0  0  0  0  0  0
   -9.0505   16.0130  -37.0734 O   0  0  0  0  0  0  0  0  0  0  0  0
  -10.4624   15.4551  -35.3321 O   0  0  0  0  0  0  0  0  0  0  0  0
  -14.9571   15.9268  -38.7654 H   0  0  0  0  0  0  0  0  0  0  0  0
  -13.9913   16.2547  -40.2015 H   0  0  0  0  0  0  0  0  0  0  0  0
  -12.3290   16.8442  -36.2691 H   0  0  0  0  0  0  0  0  0  0  0  0
  -13.9689   16.2471  -36.4620 H   0  0  0  0  0  0  0  0  0  0  0  0
  -11.5911   17.0449  -39.9728 H   0  0  0  0  0  0  0  0  0  0  0  0
  -10.8948   17.3223  -38.3846 H   0  0  0  0  0  0  0  0  0  0  0  0
  -14.4231   13.9450  -37.2971 H   0  0  0  0  0  0  0  0  0  0  0  0
  -13.1351   12.8357  -37.7128 H   0  0  0  0  0  0  0  0  0  0  0  0
  -11.6935   13.3310  -39.8619 H   0  0  0  0  0  0  0  0  0  0  0  0
  -12.0586   14.7598  -40.8093 H   0  0  0  0  0  0  0  0  0  0  0  0
  -13.3382   17.7794  -38.3380 H   0  0  0  0  0  0  0  0  0  0  0  0
  -14.1305   13.8003  -39.7764 H   0  0  0  0  0  0  0  0  0  0  0  0
  -12.4536   14.3815  -35.8401 H   0  0  0  0  0  0  0  0  0  0  0  0
  -10.0588   15.1826  -39.3796 H   0  0  0  0  0  0  0  0  0  0  0  0
   -7.7813   15.6192  -35.4383 H   0  0  0  0  0  0  0  0  0  0  0  0
   -8.4061   16.7395  -34.2069 H   0  0  0  0  0  0  0  0  0  0  0  0
   -7.5069   15.2801  -33.7385 H   0  0  0  0  0  0  0  0  0  0  0  0
  -11.1121   14.4065  -32.9707 H   0  0  0  0  0  0  0  0  0  0  0  0
  -10.4402   16.0151  -32.7708 H   0  0  0  0  0  0  0  0  0  0  0  0
   -9.5071   14.6013  -32.2320 H   0  0  0  0  0  0  0  0  0  0  0  0
  -10.2340   12.8521  -34.7437 H   0  0  0  0  0  0  0  0  0  0  0  0
   -8.8786   13.3371  -35.7854 H   0  0  0  0  0  0  0  0  0  0  0  0
   -8.6156   12.9451  -34.0709 H   0  0  0  0  0  0  0  0  0  0  0  0
  -11.1592   12.7215  -37.0049 H   0  0  0  0  0  0  0  0  0  0  0  0
  -10.2540   13.0229  -38.3301 H   0  0  0  0  0  0  0  0  0  0  0  0
  1 11  1  0  0  0  0
  1 17  2  0  0  0  0
  1 18  1  0  0  0  0
  2  7  1  0  0  0  0
  2  8  1  0  0  0  0
  3  7  1  0  0  0  0
  3  9  1  0  0  0  0
  4  7  1  0  0  0  0
  4 10  1  0  0  0  0
  5  8  1  0  0  0  0
  5  9  1  0  0  0  0
  6  8  1  0  0  0  0
  6 10  1  0  0  0  0
  9 11  1  0  0  0  0
 10 11  1  0  0  0  0
 11 16  1  0  0  0  0
 12 15  1  0  0  0  0
 13 15  1  0  0  0  0
 14 15  1  0  0  0  0
 15 18  1  0  0  0  0
  2 19  1  0  0  0  0
  2 20  1  0  0  0  0
  3 21  1  0  0  0  0
  3 22  1  0  0  0  0
  4 23  1  0  0  0  0
  4 24  1  0  0  0  0
  5 25  1  0  0  0  0
  5 26  1  0  0  0  0
  6 27  1  0  0  0  0
  6 28  1  0  0  0  0
  7 29  1  0  0  0  0
  8 30  1  0  0  0  0
  9 31  1  0  0  0  0
 10 32  1  0  0  0  0
 12 33  1  0  0  0  0
 12 34  1  0  0  0  0
 12 35  1  0  0  0  0
 13 36  1  0  0  0  0
 13 37  1  0  0  0  0
 13 38  1  0  0  0  0
 14 39  1  0  0  0  0
 14 40  1  0  0  0  0
 14 41  1  0  0  0  0
 16 42  1  0  0  0  0
 16 43  1  0  0  0  0
M  END
> <id>
EN300-6511494

> <smiles>
CC(C)(C)OC(=O)C1(N)C2CC3CC(C2)CC1C3

> <IUPAC Name>
tert-butyl 2-aminoadamantane-2-carboxylate

> <CAS>
502937-07-7

> <Purity>
95

> <URL>
https://www.enaminestore.com/catalog/EN300-6511494

> <MP>
101-103

> <ROCS_ShapeQuery>
__x1247relevant_x1083L0AP1_x1305L0BP1_

> <ROCS_TanimotoCombo>
0.733 

> <ROCS_ShapeTanimoto>
0.504 

> <ROCS_ColorTanimoto>
0.229 

> <ROCS_RefTversky>
0.440 

> <ROCS_RefColorTversky>
0.252 

> <ROCS_RefTverskyCombo>
0.692 

> <ROCS_FitTversky>
1.406 

> <ROCS_FitColorTversky>
0.709 

> <ROCS_FitTverskyCombo>
2.116 

> <ROCS_ColorScore>
-8.245

> <ROCS_Overlap>
1299.026

> <ROCS_Rank>
169                 

$$$$
untitled-dbase-108126_1
  -OEChem-06232314393D

 25 27  0     1  0  0  0  0  0999 V2000
  -10.5662   14.5426  -36.6013 C   0  0  0  0  0  0  0  0  0  0  0  0
  -13.9784   15.3054  -37.9793 C   0  0  0  0  0  0  0  0  0  0  0  0
  -12.1738   13.8037  -38.5337 C   0  0  0  0  0  0  0  0  0  0  0  0
  -13.2040   14.7585  -39.2205 C   0  0  2  0  0  0  0  0  0  0  0  0
  -12.7478   15.7593  -37.2273 C   0  0  2  0  0  0  0  0  0  0  0  0
  -11.7211   16.1736  -38.2280 C   0  0  2  0  0  0  0  0  0  0  0  0
  -12.3316   16.0042  -39.6021 C   0  0  1  0  0  0  0  0  0  0  0  0
  -11.6229   14.8321  -37.5632 C   0  0  1  0  0  0  0  0  0  0  0  0
   -8.3198   13.8282  -36.4354 C   0  0  0  0  0  0  0  0  0  0  0  0
  -11.3449   15.7860  -40.6433 N   0  0  0  0  0  0  0  0  0  0  0  0
  -10.6951   14.6488  -35.3891 O   0  0  0  0  0  0  0  0  0  0  0  0
   -9.4427   14.1455  -37.2640 O   0  0  0  0  0  0  0  0  0  0  0  0
  -14.6428   16.1377  -38.2294 H   0  0  0  0  0  0  0  0  0  0  0  0
  -14.5250   14.5228  -37.4452 H   0  0  0  0  0  0  0  0  0  0  0  0
  -12.6640   12.9741  -38.0134 H   0  0  0  0  0  0  0  0  0  0  0  0
  -11.4145   13.4147  -39.2167 H   0  0  0  0  0  0  0  0  0  0  0  0
  -13.8130   14.3250  -40.0143 H   0  0  0  0  0  0  0  0  0  0  0  0
  -12.8548   16.2389  -36.2738 H   0  0  0  0  0  0  0  0  0  0  0  0
  -11.0445   16.9855  -38.0395 H   0  0  0  0  0  0  0  0  0  0  0  0
  -12.9626   16.8620  -39.8614 H   0  0  0  0  0  0  0  0  0  0  0  0
   -7.4781   13.5238  -37.0622 H   0  0  0  0  0  0  0  0  0  0  0  0
   -8.5884   13.0205  -35.7499 H   0  0  0  0  0  0  0  0  0  0  0  0
   -8.0410   14.7142  -35.8600 H   0  0  0  0  0  0  0  0  0  0  0  0
  -11.8184   15.6068  -41.5005 H   0  0  0  0  0  0  0  0  0  0  0  0
  -10.7817   16.6028  -40.7260 H   0  0  0  0  0  0  0  0  0  0  0  0
  1  8  1  0  0  0  0
  1 11  2  0  0  0  0
  1 12  1  0  0  0  0
  2  4  1  0  0  0  0
  2  5  1  0  0  0  0
  3  4  1  0  0  0  0
  3  8  1  0  0  0  0
  4  7  1  0  0  0  0
  5  6  1  0  0  0  0
  5  8  1  0  0  0  0
  6  7  1  0  0  0  0
  6  8  1  0  0  0  0
  7 10  1  0  0  0  0
  9 12  1  0  0  0  0
  2 13  1  0  0  0  0
  2 14  1  0  0  0  0
  3 15  1  0  0  0  0
  3 16  1  0  0  0  0
  4 17  1  0  0  0  0
  5 18  1  0  0  0  0
  6 19  1  0  0  0  0
  7 20  1  0  0  0  0
  9 21  1  0  0  0  0
  9 22  1  0  0  0  0
  9 23  1  0  0  0  0
 10 24  1  0  0  0  0
 10 25  1  0  0  0  0
M  END
> <id>
EN300-27144978

> <smiles>
Cl.COC(=O)C12CC3CC2C1C3N

> <MDLNUMBER>
MFCD32852927

> <IUPAC Name>
methyl 3-aminotricyclo[2.2.1.0,2,6]heptane-1-carboxylate hydrochloride

> <CAS>
2490400-52-5

> <Purity>
95

> <URL>
https://www.enaminestore.com/catalog/EN300-27144978

> <Saltdate>
Cl

> <ROCS_ShapeQuery>
__x1247relevant_x1083L0AP1_x1305L0BP1_

> <ROCS_TanimotoCombo>
0.733 

> <ROCS_ShapeTanimoto>
0.472 

> <ROCS_ColorTanimoto>
0.261 

> <ROCS_RefTversky>
0.394 

> <ROCS_RefColorTversky>
0.398 

> <ROCS_RefTverskyCombo>
0.793 

> <ROCS_FitTversky>
1.716 

> <ROCS_FitColorTversky>
0.431 

> <ROCS_FitTverskyCombo>
2.147 

> <ROCS_ColorScore>
-13.432

> <ROCS_Overlap>
1158.137

> <ROCS_Rank>
170                 

$$$$
untitled-dbase-108127_1
  -OEChem-06232314393D

 25 27  0     1  0  0  0  0  0999 V2000
  -10.5662   14.5426  -36.6013 C   0  0  0  0  0  0  0  0  0  0  0  0
  -13.9784   15.3054  -37.9793 C   0  0  0  0  0  0  0  0  0  0  0  0
  -12.1738   13.8037  -38.5337 C   0  0  0  0  0  0  0  0  0  0  0  0
  -13.2040   14.7585  -39.2205 C   0  0  2  0  0  0  0  0  0  0  0  0
  -12.7478   15.7593  -37.2273 C   0  0  2  0  0  0  0  0  0  0  0  0
  -11.7211   16.1736  -38.2280 C   0  0  2  0  0  0  0  0  0  0  0  0
  -12.3316   16.0042  -39.6021 C   0  0  1  0  0  0  0  0  0  0  0  0
  -11.6229   14.8321  -37.5632 C   0  0  1  0  0  0  0  0  0  0  0  0
   -8.3198   13.8282  -36.4354 C   0  0  0  0  0  0  0  0  0  0  0  0
  -11.3449   15.7860  -40.6433 N   0  0  0  0  0  0  0  0  0  0  0  0
  -10.6951   14.6488  -35.3891 O   0  0  0  0  0  0  0  0  0  0  0  0
   -9.4427   14.1455  -37.2640 O   0  0  0  0  0  0  0  0  0  0  0  0
  -14.6428   16.1377  -38.2294 H   0  0  0  0  0  0  0  0  0  0  0  0
  -14.5250   14.5228  -37.4452 H   0  0  0  0  0  0  0  0  0  0  0  0
  -12.6640   12.9741  -38.0134 H   0  0  0  0  0  0  0  0  0  0  0  0
  -11.4145   13.4147  -39.2167 H   0  0  0  0  0  0  0  0  0  0  0  0
  -13.8130   14.3250  -40.0143 H   0  0  0  0  0  0  0  0  0  0  0  0
  -12.8548   16.2389  -36.2738 H   0  0  0  0  0  0  0  0  0  0  0  0
  -11.0445   16.9855  -38.0395 H   0  0  0  0  0  0  0  0  0  0  0  0
  -12.9626   16.8620  -39.8614 H   0  0  0  0  0  0  0  0  0  0  0  0
   -7.4781   13.5238  -37.0622 H   0  0  0  0  0  0  0  0  0  0  0  0
   -8.5884   13.0205  -35.7499 H   0  0  0  0  0  0  0  0  0  0  0  0
   -8.0410   14.7142  -35.8600 H   0  0  0  0  0  0  0  0  0  0  0  0
  -11.8184   15.6068  -41.5005 H   0  0  0  0  0  0  0  0  0  0  0  0
  -10.7817   16.6028  -40.7260 H   0  0  0  0  0  0  0  0  0  0  0  0
  1  8  1  0  0  0  0
  1 11  2  0  0  0  0
  1 12  1  0  0  0  0
  2  4  1  0  0  0  0
  2  5  1  0  0  0  0
  3  4  1  0  0  0  0
  3  8  1  0  0  0  0
  4  7  1  0  0  0  0
  5  6  1  0  0  0  0
  5  8  1  0  0  0  0
  6  7  1  0  0  0  0
  6  8  1  0  0  0  0
  7 10  1  0  0  0  0
  9 12  1  0  0  0  0
  2 13  1  0  0  0  0
  2 14  1  0  0  0  0
  3 15  1  0  0  0  0
  3 16  1  0  0  0  0
  4 17  1  0  0  0  0
  5 18  1  0  0  0  0
  6 19  1  0  0  0  0
  7 20  1  0  0  0  0
  9 21  1  0  0  0  0
  9 22  1  0  0  0  0
  9 23  1  0  0  0  0
 10 24  1  0  0  0  0
 10 25  1  0  0  0  0
M  END
> <id>
EN300-27144979

> <smiles>
COC(=O)C12CC3CC2C1C3N

> <MDLNUMBER>
MFCD32852928

> <IUPAC Name>
methyl 3-aminotricyclo[2.2.1.0,2,6]heptane-1-carboxylate

> <CAS>
2490400-51-4

> <URL>
https://www.enaminestore.com/catalog/EN300-27144979

> <ROCS_ShapeQuery>
__x1247relevant_x1083L0AP1_x1305L0BP1_

> <ROCS_TanimotoCombo>
0.733 

> <ROCS_ShapeTanimoto>
0.472 

> <ROCS_ColorTanimoto>
0.261 

> <ROCS_RefTversky>
0.394 

> <ROCS_RefColorTversky>
0.398 

> <ROCS_RefTverskyCombo>
0.793 

> <ROCS_FitTversky>
1.716 

> <ROCS_FitColorTversky>
0.431 

> <ROCS_FitTverskyCombo>
2.147 

> <ROCS_ColorScore>
-13.432

> <ROCS_Overlap>
1158.137

> <ROCS_Rank>
171                 

$$$$
untitled-dbase-168637_0
  -OEChem-06232314393D

 28 30  0     1  0  0  0  0  0999 V2000
  -12.5667   16.1262  -39.7380 C   0  0  0  0  0  0  0  0  0  0  0  0
  -10.1134   15.0546  -36.4172 C   0  0  0  0  0  0  0  0  0  0  0  0
  -14.1067   15.9417  -37.8270 C   0  0  0  0  0  0  0  0  0  0  0  0
  -13.3462   13.8916  -39.0593 C   0  0  0  0  0  0  0  0  0  0  0  0
  -11.7058   16.6309  -37.4876 C   0  0  0  0  0  0  0  0  0  0  0  0
  -10.9448   14.5787  -38.7227 C   0  0  0  0  0  0  0  0  0  0  0  0
  -12.4859   14.3559  -36.7440 C   0  0  0  0  0  0  0  0  0  0  0  0
  -12.9342   16.7488  -38.3992 C   0  0  1  0  0  0  0  0  0  0  0  0
  -12.1608   14.6621  -39.6544 C   0  0  2  0  0  0  0  0  0  0  0  0
  -13.7077   14.4602  -37.6727 C   0  0  0  0  0  0  0  0  0  0  0  0
  -11.3012   15.1484  -37.3314 C   0  0  0  0  0  0  0  0  0  0  0  0
  -12.5943   16.7511  -40.7937 O   0  0  0  0  0  0  0  0  0  0  0  0
  -10.0874   14.4404  -35.3610 O   0  0  0  0  0  0  0  0  0  0  0  0
   -9.0649   15.7498  -36.9217 O   0  0  0  0  0  0  0  0  0  0  0  0
  -14.4035   16.3520  -36.8541 H   0  0  0  0  0  0  0  0  0  0  0  0
  -14.9770   16.0209  -38.4904 H   0  0  0  0  0  0  0  0  0  0  0  0
  -14.2152   13.9659  -39.7252 H   0  0  0  0  0  0  0  0  0  0  0  0
  -13.0952   12.8275  -38.9731 H   0  0  0  0  0  0  0  0  0  0  0  0
  -10.8699   17.2059  -37.9083 H   0  0  0  0  0  0  0  0  0  0  0  0
  -11.9248   17.0728  -36.5069 H   0  0  0  0  0  0  0  0  0  0  0  0
  -10.6120   13.5364  -38.6338 H   0  0  0  0  0  0  0  0  0  0  0  0
  -10.1044   15.1381  -39.1548 H   0  0  0  0  0  0  0  0  0  0  0  0
  -12.7443   14.7367  -35.7471 H   0  0  0  0  0  0  0  0  0  0  0  0
  -12.2087   13.3023  -36.6081 H   0  0  0  0  0  0  0  0  0  0  0  0
  -13.2148   17.7969  -38.5428 H   0  0  0  0  0  0  0  0  0  0  0  0
  -11.9139   14.2886  -40.6530 H   0  0  0  0  0  0  0  0  0  0  0  0
  -14.5456   13.8950  -37.2494 H   0  0  0  0  0  0  0  0  0  0  0  0
   -8.2785   15.7024  -36.3372 H   0  0  0  0  0  0  0  0  0  0  0  0
  1  8  1  0  0  0  0
  1  9  1  0  0  0  0
  1 12  2  0  0  0  0
  2 11  1  0  0  0  0
  2 13  2  0  0  0  0
  2 14  1  0  0  0  0
  3  8  1  0  0  0  0
  3 10  1  0  0  0  0
  4  9  1  0  0  0  0
  4 10  1  0  0  0  0
  5  8  1  0  0  0  0
  5 11  1  0  0  0  0
  6  9  1  0  0  0  0
  6 11  1  0  0  0  0
  7 10  1  0  0  0  0
  7 11  1  0  0  0  0
  3 15  1  0  0  0  0
  3 16  1  0  0  0  0
  4 17  1  0  0  0  0
  4 18  1  0  0  0  0
  5 19  1  0  0  0  0
  5 20  1  0  0  0  0
  6 21  1  0  0  0  0
  6 22  1  0  0  0  0
  7 23  1  0  0  0  0
  7 24  1  0  0  0  0
  8 25  1  0  0  0  0
  9 26  1  0  0  0  0
 10 27  1  0  0  0  0
 14 28  1  0  0  0  0
M  END
> <id>
EN300-53672

> <smiles>
OC(=O)C1(CC2CC3C1)CC(C2)C3=O

> <IUPAC Name>
4-oxoadamantane-1-carboxylic acid

> <CAS>
56674-87-4

> <Purity>
95

> <URL>
https://www.enaminestore.com/catalog/EN300-53672

> <MP>
167-172

> <ROCS_ShapeQuery>
__x1247relevant_x1083L0AP1_x1305L0BP1_

> <ROCS_TanimotoCombo>
0.733 

> <ROCS_ShapeTanimoto>
0.496 

> <ROCS_ColorTanimoto>
0.237 

> <ROCS_RefTversky>
0.417 

> <ROCS_RefColorTversky>
0.260 

> <ROCS_RefTverskyCombo>
0.677 

> <ROCS_FitTversky>
1.614 

> <ROCS_FitColorTversky>
0.727 

> <ROCS_FitTverskyCombo>
2.341 

> <ROCS_ColorScore>
-8.484

> <ROCS_Overlap>
1228.548

> <ROCS_Rank>
172                 

$$$$
untitled-dbase-57179_4
  -OEChem-06232314393D

 24 26  0     1  0  0  0  0  0999 V2000
   -9.7060   14.2296  -35.9639 C   0  0  0  0  0  0  0  0  0  0  0  0
   -9.0563   14.2076  -37.2145 C   0  0  0  0  0  0  0  0  0  0  0  0
  -11.0379   14.6365  -35.8521 C   0  0  0  0  0  0  0  0  0  0  0  0
   -9.7243   14.5919  -38.3807 C   0  0  0  0  0  0  0  0  0  0  0  0
  -11.6794   15.0198  -37.0086 C   0  0  0  0  0  0  0  0  0  0  0  0
  -11.0345   14.9985  -38.2551 C   0  0  0  0  0  0  0  0  0  0  0  0
  -11.5867   16.0970  -40.4823 C   0  0  0  0  0  0  0  0  0  0  0  0
  -13.8544   14.3939  -38.0275 C   0  0  0  0  0  0  0  0  0  0  0  0
  -13.1422   14.3592  -39.4023 C   0  0  0  0  0  0  0  0  0  0  0  0
  -13.0769   15.4822  -37.2797 C   0  0  2  0  0  0  0  0  0  0  0  0
  -12.0715   15.4446  -39.2400 C   0  0  1  0  0  0  0  0  0  0  0  0
  -10.5173   15.8643  -41.0259 O   0  0  0  0  0  0  0  0  0  0  0  0
  -12.7854   16.3836  -38.3921 O   0  0  0  0  0  0  0  0  0  0  0  0
  -12.4944   16.9953  -40.9369 O   0  0  0  0  0  0  0  0  0  0  0  0
   -9.1619   13.9208  -35.0750 H   0  0  0  0  0  0  0  0  0  0  0  0
   -8.0207   13.8820  -37.2712 H   0  0  0  0  0  0  0  0  0  0  0  0
  -11.5406   14.6464  -34.8923 H   0  0  0  0  0  0  0  0  0  0  0  0
   -9.2248   14.5641  -39.3419 H   0  0  0  0  0  0  0  0  0  0  0  0
  -14.8980   14.6957  -38.1710 H   0  0  0  0  0  0  0  0  0  0  0  0
  -13.8359   13.4238  -37.5210 H   0  0  0  0  0  0  0  0  0  0  0  0
  -12.7207   13.3727  -39.6244 H   0  0  0  0  0  0  0  0  0  0  0  0
  -13.8559   14.6108  -40.1954 H   0  0  0  0  0  0  0  0  0  0  0  0
  -13.5858   15.9949  -36.4621 H   0  0  0  0  0  0  0  0  0  0  0  0
  -12.1912   17.4392  -41.7575 H   0  0  0  0  0  0  0  0  0  0  0  0
  1  2  2  0  0  0  0
  1  3  1  0  0  0  0
  2  4  1  0  0  0  0
  3  5  2  0  0  0  0
  4  6  2  0  0  0  0
  5  6  1  0  0  0  0
  5 10  1  0  0  0  0
  6 11  1  0  0  0  0
  7 11  1  0  0  0  0
  7 12  2  0  0  0  0
  7 14  1  0  0  0  0
  8  9  1  0  0  0  0
  8 10  1  0  0  0  0
  9 11  1  0  0  0  0
 10 13  1  0  0  0  0
 11 13  1  0  0  0  0
  1 15  1  0  0  0  0
  2 16  1  0  0  0  0
  3 17  1  0  0  0  0
  4 18  1  0  0  0  0
  8 19  1  0  0  0  0
  8 20  1  0  0  0  0
  9 21  1  0  0  0  0
  9 22  1  0  0  0  0
 10 23  1  0  0  0  0
 14 24  1  0  0  0  0
M  END
> <id>
EN300-25406228

> <smiles>
OC(=O)C1(CCC2O1)C=3C=CC=CC23

> <MDLNUMBER>
MFCD20660900

> <IUPAC Name>
11-oxatricyclo[6.2.1.0,2,7]undeca-2,4,6-triene-1-carboxylic acid

> <CAS>
1244954-16-2

> <Purity>
95

> <URL>
https://www.enaminestore.com/catalog/EN300-25406228

> <MP>
145-147

> <ROCS_ShapeQuery>
__x1247relevant_x1083L0AP1_x1305L0BP1_

> <ROCS_TanimotoCombo>
0.733 

> <ROCS_ShapeTanimoto>
0.501 

> <ROCS_ColorTanimoto>
0.231 

> <ROCS_RefTversky>
0.423 

> <ROCS_RefColorTversky>
0.260 

> <ROCS_RefTverskyCombo>
0.683 

> <ROCS_FitTversky>
1.591 

> <ROCS_FitColorTversky>
0.677 

> <ROCS_FitTverskyCombo>
2.268 

> <ROCS_ColorScore>
-8.505

> <ROCS_Overlap>
1244.589

> <ROCS_Rank>
173                 

$$$$
untitled-dbase-79029_4
  -OEChem-06232314393D

 31 33  0     1  0  0  0  0  0999 V2000
  -12.5615   16.1783  -39.6898 C   0  0  0  0  0  0  0  0  0  0  0  0
  -10.2663   14.3933  -36.5688 C   0  0  0  0  0  0  0  0  0  0  0  0
  -14.0798   16.0571  -37.7564 C   0  0  0  0  0  0  0  0  0  0  0  0
  -13.6894   14.0443  -39.2042 C   0  0  0  0  0  0  0  0  0  0  0  0
  -11.5927   16.3077  -37.4305 C   0  0  0  0  0  0  0  0  0  0  0  0
  -11.2022   14.2929  -38.8811 C   0  0  0  0  0  0  0  0  0  0  0  0
  -12.7268   14.1277  -36.8841 C   0  0  0  0  0  0  0  0  0  0  0  0
  -12.7992   16.7152  -38.2861 C   0  0  1  0  0  0  0  0  0  0  0  0
  -12.4024   14.6666  -39.7605 C   0  0  2  0  0  0  0  0  0  0  0  0
  -13.9293   14.5225  -37.7583 C   0  0  0  0  0  0  0  0  0  0  0  0
  -11.4368   14.7709  -37.4307 C   0  0  0  0  0  0  0  0  0  0  0  0
   -8.1688   13.3062  -36.6187 C   0  0  0  0  0  0  0  0  0  0  0  0
  -12.5024   16.9018  -40.6791 O   0  0  0  0  0  0  0  0  0  0  0  0
  -10.1798   14.6567  -35.3770 O   0  0  0  0  0  0  0  0  0  0  0  0
   -9.3436   13.7270  -37.3194 O   0  0  0  0  0  0  0  0  0  0  0  0
  -14.2887   16.4108  -36.7395 H   0  0  0  0  0  0  0  0  0  0  0  0
  -14.9355   16.3434  -38.3805 H   0  0  0  0  0  0  0  0  0  0  0  0
  -14.5447   14.3257  -39.8312 H   0  0  0  0  0  0  0  0  0  0  0  0
  -13.6168   12.9503  -39.2288 H   0  0  0  0  0  0  0  0  0  0  0  0
  -10.6800   16.7777  -37.8207 H   0  0  0  0  0  0  0  0  0  0  0  0
  -11.7196   16.6788  -36.4052 H   0  0  0  0  0  0  0  0  0  0  0  0
  -11.0453   13.2067  -38.9037 H   0  0  0  0  0  0  0  0  0  0  0  0
  -10.2878   14.7481  -39.2845 H   0  0  0  0  0  0  0  0  0  0  0  0
  -12.9023   14.4436  -35.8473 H   0  0  0  0  0  0  0  0  0  0  0  0
  -12.6258   13.0347  -36.8591 H   0  0  0  0  0  0  0  0  0  0  0  0
  -12.9046   17.8041  -38.3191 H   0  0  0  0  0  0  0  0  0  0  0  0
  -12.2370   14.3598  -40.7980 H   0  0  0  0  0  0  0  0  0  0  0  0
  -14.8422   14.0621  -37.3644 H   0  0  0  0  0  0  0  0  0  0  0  0
   -7.4994   12.7855  -37.3079 H   0  0  0  0  0  0  0  0  0  0  0  0
   -8.4513   12.6429  -35.7973 H   0  0  0  0  0  0  0  0  0  0  0  0
   -7.6610   14.1858  -36.2160 H   0  0  0  0  0  0  0  0  0  0  0  0
  1  8  1  0  0  0  0
  1  9  1  0  0  0  0
  1 13  2  0  0  0  0
  2 11  1  0  0  0  0
  2 14  2  0  0  0  0
  2 15  1  0  0  0  0
  3  8  1  0  0  0  0
  3 10  1  0  0  0  0
  4  9  1  0  0  0  0
  4 10  1  0  0  0  0
  5  8  1  0  0  0  0
  5 11  1  0  0  0  0
  6  9  1  0  0  0  0
  6 11  1  0  0  0  0
  7 10  1  0  0  0  0
  7 11  1  0  0  0  0
 12 15  1  0  0  0  0
  3 16  1  0  0  0  0
  3 17  1  0  0  0  0
  4 18  1  0  0  0  0
  4 19  1  0  0  0  0
  5 20  1  0  0  0  0
  5 21  1  0  0  0  0
  6 22  1  0  0  0  0
  6 23  1  0  0  0  0
  7 24  1  0  0  0  0
  7 25  1  0  0  0  0
  8 26  1  0  0  0  0
  9 27  1  0  0  0  0
 10 28  1  0  0  0  0
 12 29  1  0  0  0  0
 12 30  1  0  0  0  0
 12 31  1  0  0  0  0
M  END
> <id>
EN300-1662931

> <smiles>
COC(=O)C1(CC2CC3C1)CC(C2)C3=O

> <MDLNUMBER>
MFCD00181718

> <IUPAC Name>
methyl 4-oxoadamantane-1-carboxylate

> <CAS>
56674-88-5

> <Purity>
95

> <URL>
https://www.enaminestore.com/catalog/EN300-1662931

> <ROCS_ShapeQuery>
__x1247relevant_x1083L0AP1_x1305L0BP1_

> <ROCS_TanimotoCombo>
0.733 

> <ROCS_ShapeTanimoto>
0.510 

> <ROCS_ColorTanimoto>
0.222 

> <ROCS_RefTversky>
0.430 

> <ROCS_RefColorTversky>
0.236 

> <ROCS_RefTverskyCombo>
0.666 

> <ROCS_FitTversky>
1.579 

> <ROCS_FitColorTversky>
0.789 

> <ROCS_FitTverskyCombo>
2.368 

> <ROCS_ColorScore>
-7.697

> <ROCS_Overlap>
1266.365

> <ROCS_Rank>
174                 

$$$$
untitled-dbase-123220_2
  -OEChem-06232314393D

 42 44  0     1  0  0  0  0  0999 V2000
  -13.5961   13.8749  -38.2648 C   0  0  0  0  0  0  0  0  0  0  0  0
  -13.9473   15.0745  -37.3569 C   0  0  0  0  0  0  0  0  0  0  0  0
   -8.6586   14.2271  -37.4000 C   0  0  0  0  0  0  0  0  0  0  0  0
  -11.2270   14.4556  -39.0496 C   0  0  0  0  0  0  0  0  0  0  0  0
  -11.7666   16.4508  -37.4965 C   0  0  0  0  0  0  0  0  0  0  0  0
   -9.6869   13.3626  -36.6784 C   0  0  0  0  0  0  0  0  0  0  0  0
   -9.3666   15.5604  -37.6063 C   0  0  2  0  0  0  0  0  0  0  0  0
  -12.7218   14.3883  -39.4197 C   0  0  2  0  0  0  0  0  0  0  0  0
  -13.2472   16.3262  -37.9125 C   0  0  1  0  0  0  0  0  0  0  0  0
  -10.8728   15.1768  -37.6848 C   0  0  0  0  0  0  0  0  0  0  0  0
   -9.7058   15.1467  -34.7407 C   0  0  0  0  0  0  0  0  0  0  0  0
  -11.6320   13.5763  -34.3284 C   0  0  0  0  0  0  0  0  0  0  0  0
  -11.0687   14.6710  -35.2228 C   0  0  0  0  0  0  0  0  0  0  0  0
  -10.9403   14.1499  -36.5880 N   0  0  2  0  0  0  0  0  0  0  0  0
   -8.8151   16.3231  -38.7198 N   0  0  0  0  0  0  0  0  0  0  0  0
  -14.7059   16.0046  -40.1050 O   0  0  0  0  0  0  0  0  0  0  0  0
  -12.3401   16.8556  -40.3725 O   0  0  0  0  0  0  0  0  0  0  0  0
  -13.3223   16.0512  -39.6792 S   0  0  0  0  0  0  0  0  0  0  0  0
  -13.1220   13.0588  -37.7116 H   0  0  0  0  0  0  0  0  0  0  0  0
  -14.5299   13.4655  -38.6712 H   0  0  0  0  0  0  0  0  0  0  0  0
  -15.0342   15.2262  -37.3995 H   0  0  0  0  0  0  0  0  0  0  0  0
  -13.7187   14.8812  -36.3081 H   0  0  0  0  0  0  0  0  0  0  0  0
   -7.7427   14.3508  -36.8122 H   0  0  0  0  0  0  0  0  0  0  0  0
   -8.3856   13.7590  -38.3539 H   0  0  0  0  0  0  0  0  0  0  0  0
  -10.8407   13.4292  -39.0588 H   0  0  0  0  0  0  0  0  0  0  0  0
  -10.7002   14.9554  -39.8716 H   0  0  0  0  0  0  0  0  0  0  0  0
  -11.3301   17.2751  -38.0746 H   0  0  0  0  0  0  0  0  0  0  0  0
  -11.7213   16.8086  -36.4624 H   0  0  0  0  0  0  0  0  0  0  0  0
   -9.8753   12.4466  -37.2505 H   0  0  0  0  0  0  0  0  0  0  0  0
   -9.3105   13.0336  -35.7021 H   0  0  0  0  0  0  0  0  0  0  0  0
   -9.2032   16.1769  -36.6968 H   0  0  0  0  0  0  0  0  0  0  0  0
  -12.8716   13.8126  -40.3371 H   0  0  0  0  0  0  0  0  0  0  0  0
  -13.7966   17.2421  -37.6781 H   0  0  0  0  0  0  0  0  0  0  0  0
   -8.9923   14.3169  -34.7081 H   0  0  0  0  0  0  0  0  0  0  0  0
   -9.2974   15.9224  -35.3981 H   0  0  0  0  0  0  0  0  0  0  0  0
   -9.7768   15.5727  -33.7339 H   0  0  0  0  0  0  0  0  0  0  0  0
  -10.9512   12.7190  -34.2885 H   0  0  0  0  0  0  0  0  0  0  0  0
  -12.5984   13.2246  -34.7043 H   0  0  0  0  0  0  0  0  0  0  0  0
  -11.7740   13.9317  -33.3016 H   0  0  0  0  0  0  0  0  0  0  0  0
  -11.7650   15.5164  -35.2474 H   0  0  0  0  0  0  0  0  0  0  0  0
   -9.2966   17.1904  -38.7750 H   0  0  0  0  0  0  0  0  0  0  0  0
   -7.8478   16.4718  -38.5489 H   0  0  0  0  0  0  0  0  0  0  0  0
  1  2  1  0  0  0  0
  1  8  1  0  0  0  0
  2  9  1  0  0  0  0
  3  6  1  0  0  0  0
  3  7  1  0  0  0  0
  4  8  1  0  0  0  0
  4 10  1  0  0  0  0
  5  9  1  0  0  0  0
  5 10  1  0  0  0  0
  6 14  1  0  0  0  0
  7 10  1  0  0  0  0
  7 15  1  0  0  0  0
  8 18  1  0  0  0  0
  9 18  1  0  0  0  0
 10 14  1  0  0  0  0
 11 13  1  0  0  0  0
 12 13  1  0  0  0  0
 13 14  1  0  0  0  0
 16 18  2  0  0  0  0
 17 18  2  0  0  0  0
  1 19  1  0  0  0  0
  1 20  1  0  0  0  0
  2 21  1  0  0  0  0
  2 22  1  0  0  0  0
  3 23  1  0  0  0  0
  3 24  1  0  0  0  0
  4 25  1  0  0  0  0
  4 26  1  0  0  0  0
  5 27  1  0  0  0  0
  5 28  1  0  0  0  0
  6 29  1  0  0  0  0
  6 30  1  0  0  0  0
  7 31  1  0  0  0  0
  8 32  1  0  0  0  0
  9 33  1  0  0  0  0
 11 34  1  0  0  0  0
 11 35  1  0  0  0  0
 11 36  1  0  0  0  0
 12 37  1  0  0  0  0
 12 38  1  0  0  0  0
 12 39  1  0  0  0  0
 13 40  1  0  0  0  0
 15 41  1  0  0  0  0
 15 42  1  0  0  0  0
M  END
> <id>
EN300-785693

> <smiles>
CC(C)N1CCC(N)C21CC3CCC(C2)S3(=O)=O

> <IUPAC Name>
3'-amino-1'-(propan-2-yl)-8lambda6-thiaspiro[bicyclo[3.2.1]octane-3,2'-pyrrolidine]-8,8-dione

> <CAS>
2137507-25-4

> <URL>
https://www.enaminestore.com/catalog/EN300-785693

> <ROCS_ShapeQuery>
__x1247relevant_x1083L0AP1_x1305L0BP1_

> <ROCS_TanimotoCombo>
0.732 

> <ROCS_ShapeTanimoto>
0.511 

> <ROCS_ColorTanimoto>
0.222 

> <ROCS_RefTversky>
0.440 

> <ROCS_RefColorTversky>
0.257 

> <ROCS_RefTverskyCombo>
0.697 

> <ROCS_FitTversky>
1.461 

> <ROCS_FitColorTversky>
0.616 

> <ROCS_FitTverskyCombo>
2.077 

> <ROCS_ColorScore>
-8.430

> <ROCS_Overlap>
1297.493

> <ROCS_Rank>
175                 

$$$$
untitled-dbase-102031_27
  -OEChem-06232314393D

 26 27  0     1  0  0  0  0  0999 V2000
  -14.3604   14.7427  -40.2904 C   0  0  0  0  0  0  0  0  0  0  0  0
   -9.9580   14.8439  -37.0354 C   0  0  0  0  0  0  0  0  0  0  0  0
  -12.8346   13.8133  -38.5040 C   0  0  0  0  0  0  0  0  0  0  0  0
  -13.3513   15.9409  -37.5852 C   0  0  0  0  0  0  0  0  0  0  0  0
  -11.2746   16.3135  -38.6545 C   0  0  0  0  0  0  0  0  0  0  0  0
  -12.9986   14.8126  -39.6710 C   0  0  2  0  0  0  0  0  0  0  0  0
  -12.7724   16.1837  -38.9879 C   0  0  1  0  0  0  0  0  0  0  0  0
  -12.4529   14.7335  -37.3290 C   0  0  2  0  0  0  0  0  0  0  0  0
   -9.9753   13.4094  -36.5735 C   0  0  0  0  0  0  0  0  0  0  0  0
  -11.1248   15.2872  -37.6204 N   0  0  0  0  0  0  0  0  0  0  0  0
  -14.8237   13.7650  -40.8586 O   0  0  0  0  0  0  0  0  0  0  0  0
   -8.9547   15.5407  -36.8792 O   0  0  0  0  0  0  0  0  0  0  0  0
  -15.0165   15.9190  -40.1383 O   0  0  0  0  0  0  0  0  0  0  0  0
  -11.1660   12.8418  -36.8374 F   0  0  0  0  0  0  0  0  0  0  0  0
   -9.0212   12.6974  -37.2000 F   0  0  0  0  0  0  0  0  0  0  0  0
   -9.7563   13.3321  -35.2484 F   0  0  0  0  0  0  0  0  0  0  0  0
  -13.7661   13.2767  -38.2895 H   0  0  0  0  0  0  0  0  0  0  0  0
  -12.0552   13.0716  -38.7106 H   0  0  0  0  0  0  0  0  0  0  0  0
  -13.1651   16.7696  -36.8932 H   0  0  0  0  0  0  0  0  0  0  0  0
  -14.4186   15.6987  -37.5825 H   0  0  0  0  0  0  0  0  0  0  0  0
  -10.6136   16.1122  -39.5020 H   0  0  0  0  0  0  0  0  0  0  0  0
  -11.0314   17.2865  -38.2155 H   0  0  0  0  0  0  0  0  0  0  0  0
  -12.2664   14.6289  -40.4630 H   0  0  0  0  0  0  0  0  0  0  0  0
  -13.1918   17.0410  -39.5181 H   0  0  0  0  0  0  0  0  0  0  0  0
  -12.5186   14.2670  -36.3446 H   0  0  0  0  0  0  0  0  0  0  0  0
  -15.9112   15.8941  -40.5396 H   0  0  0  0  0  0  0  0  0  0  0  0
  1  6  1  1  0  0  0
  1 11  2  0  0  0  0
  1 13  1  0  0  0  0
  2  9  1  0  0  0  0
  2 10  1  0  0  0  0
  2 12  2  0  0  0  0
  3  6  1  0  0  0  0
  3  8  1  6  0  0  0
  4  7  1  0  0  0  0
  4  8  1  0  0  0  0
  5  7  1  6  0  0  0
  5 10  1  0  0  0  0
  6  7  1  0  0  0  0
  8 10  1  0  0  0  0
  9 14  1  0  0  0  0
  9 15  1  0  0  0  0
  9 16  1  0  0  0  0
  3 17  1  0  0  0  0
  3 18  1  0  0  0  0
  4 19  1  0  0  0  0
  4 20  1  0  0  0  0
  5 21  1  0  0  0  0
  5 22  1  0  0  0  0
  6 23  1  0  0  0  0
  7 24  1  0  0  0  0
  8 25  1  0  0  0  0
 13 26  1  0  0  0  0
M  END
> <id>
EN300-37101475

> <smiles>
OC(=O)[C@@H]1C[C@@H]2C[C@H]1CN2C(=O)C(F)(F)F |&1:3,5,7,r|

> <IUPAC Name>
rac-(1R,4S,5S)-2-(2,2,2-trifluoroacetyl)-2-azabicyclo[2.2.1]heptane-5-carboxylic acid

> <URL>
https://www.enaminestore.com/catalog/EN300-37101475

> <ROCS_ShapeQuery>
__x1247relevant_x1083L0AP1_x1305L0BP1_

> <ROCS_TanimotoCombo>
0.732 

> <ROCS_ShapeTanimoto>
0.537 

> <ROCS_ColorTanimoto>
0.195 

> <ROCS_RefTversky>
0.451 

> <ROCS_RefColorTversky>
0.221 

> <ROCS_RefTverskyCombo>
0.672 

> <ROCS_FitTversky>
1.555 

> <ROCS_FitColorTversky>
0.625 

> <ROCS_FitTverskyCombo>
2.180 

> <ROCS_ColorScore>
-7.215

> <ROCS_Overlap>
1329.025

> <ROCS_Rank>
176                 

$$$$
untitled-dbase-171451_27
  -OEChem-06232314393D

 26 27  0     1  0  0  0  0  0999 V2000
  -14.3604   14.7427  -40.2904 C   0  0  0  0  0  0  0  0  0  0  0  0
   -9.9580   14.8439  -37.0354 C   0  0  0  0  0  0  0  0  0  0  0  0
  -12.8346   13.8133  -38.5040 C   0  0  0  0  0  0  0  0  0  0  0  0
  -13.3513   15.9409  -37.5852 C   0  0  0  0  0  0  0  0  0  0  0  0
  -11.2746   16.3135  -38.6545 C   0  0  0  0  0  0  0  0  0  0  0  0
  -12.9986   14.8126  -39.6710 C   0  0  2  0  0  0  0  0  0  0  0  0
  -12.7724   16.1837  -38.9879 C   0  0  1  0  0  0  0  0  0  0  0  0
  -12.4529   14.7335  -37.3290 C   0  0  2  0  0  0  0  0  0  0  0  0
   -9.9753   13.4094  -36.5735 C   0  0  0  0  0  0  0  0  0  0  0  0
  -11.1248   15.2872  -37.6204 N   0  0  0  0  0  0  0  0  0  0  0  0
  -14.8237   13.7650  -40.8586 O   0  0  0  0  0  0  0  0  0  0  0  0
   -8.9547   15.5407  -36.8792 O   0  0  0  0  0  0  0  0  0  0  0  0
  -15.0165   15.9190  -40.1383 O   0  0  0  0  0  0  0  0  0  0  0  0
  -11.1660   12.8418  -36.8374 F   0  0  0  0  0  0  0  0  0  0  0  0
   -9.0212   12.6974  -37.2000 F   0  0  0  0  0  0  0  0  0  0  0  0
   -9.7563   13.3321  -35.2484 F   0  0  0  0  0  0  0  0  0  0  0  0
  -13.7661   13.2767  -38.2895 H   0  0  0  0  0  0  0  0  0  0  0  0
  -12.0552   13.0716  -38.7106 H   0  0  0  0  0  0  0  0  0  0  0  0
  -13.1651   16.7696  -36.8932 H   0  0  0  0  0  0  0  0  0  0  0  0
  -14.4186   15.6987  -37.5825 H   0  0  0  0  0  0  0  0  0  0  0  0
  -10.6136   16.1122  -39.5020 H   0  0  0  0  0  0  0  0  0  0  0  0
  -11.0314   17.2865  -38.2155 H   0  0  0  0  0  0  0  0  0  0  0  0
  -12.2664   14.6289  -40.4630 H   0  0  0  0  0  0  0  0  0  0  0  0
  -13.1918   17.0410  -39.5181 H   0  0  0  0  0  0  0  0  0  0  0  0
  -12.5186   14.2670  -36.3446 H   0  0  0  0  0  0  0  0  0  0  0  0
  -15.9112   15.8941  -40.5396 H   0  0  0  0  0  0  0  0  0  0  0  0
  1  6  1  1  0  0  0
  1 11  2  0  0  0  0
  1 13  1  0  0  0  0
  2  9  1  0  0  0  0
  2 10  1  0  0  0  0
  2 12  2  0  0  0  0
  3  6  1  0  0  0  0
  3  8  1  6  0  0  0
  4  7  1  0  0  0  0
  4  8  1  0  0  0  0
  5  7  1  6  0  0  0
  5 10  1  0  0  0  0
  6  7  1  0  0  0  0
  8 10  1  0  0  0  0
  9 14  1  0  0  0  0
  9 15  1  0  0  0  0
  9 16  1  0  0  0  0
  3 17  1  0  0  0  0
  3 18  1  0  0  0  0
  4 19  1  0  0  0  0
  4 20  1  0  0  0  0
  5 21  1  0  0  0  0
  5 22  1  0  0  0  0
  6 23  1  0  0  0  0
  7 24  1  0  0  0  0
  8 25  1  0  0  0  0
 13 26  1  0  0  0  0
M  END
> <id>
EN300-39918053

> <smiles>
OC(=O)[C@@H]1C[C@@H]2C[C@H]1CN2C(=O)C(F)(F)F

> <IUPAC Name>
(1S,4R,5R)-2-(2,2,2-trifluoroacetyl)-2-azabicyclo[2.2.1]heptane-5-carboxylic acid

> <URL>
https://www.enaminestore.com/catalog/EN300-39918053

> <ROCS_ShapeQuery>
__x1247relevant_x1083L0AP1_x1305L0BP1_

> <ROCS_TanimotoCombo>
0.732 

> <ROCS_ShapeTanimoto>
0.537 

> <ROCS_ColorTanimoto>
0.195 

> <ROCS_RefTversky>
0.451 

> <ROCS_RefColorTversky>
0.221 

> <ROCS_RefTverskyCombo>
0.672 

> <ROCS_FitTversky>
1.555 

> <ROCS_FitColorTversky>
0.625 

> <ROCS_FitTverskyCombo>
2.180 

> <ROCS_ColorScore>
-7.215

> <ROCS_Overlap>
1329.025

> <ROCS_Rank>
177                 

$$$$
untitled-dbase-4501_2
  -OEChem-06232314393D

 30 34  0     1  0  0  0  0  0999 V2000
  -11.7178   16.0417  -40.0645 C   0  0  0  0  0  0  0  0  0  0  0  0
  -14.6829   14.9546  -38.2618 C   0  0  0  0  0  0  0  0  0  0  0  0
  -13.0469   16.2730  -39.3802 C   0  0  1  0  0  0  0  0  0  0  0  0
  -13.6694   14.8622  -39.3826 C   0  0  1  0  0  0  0  0  0  0  0  0
  -11.2544   15.0103  -39.0552 C   0  0  2  0  0  0  0  0  0  0  0  0
  -13.6513   15.3209  -37.2150 C   0  0  2  0  0  0  0  0  0  0  0  0
  -12.7351   16.4144  -37.8568 C   0  0  1  0  0  0  0  0  0  0  0  0
  -12.4615   14.0468  -38.8178 C   0  0  1  0  0  0  0  0  0  0  0  0
  -11.3000   15.7931  -37.7285 C   0  0  1  0  0  0  0  0  0  0  0  0
  -12.6819   14.1217  -37.2670 C   0  0  1  0  0  0  0  0  0  0  0  0
  -11.4205   14.7160  -36.6593 C   0  0  0  0  0  0  0  0  0  0  0  0
  -10.2554   13.7469  -36.5452 C   0  0  0  0  0  0  0  0  0  0  0  0
  -10.2632   13.1206  -35.2634 N   0  0  0  0  0  0  0  0  0  0  0  0
  -11.8214   15.6333  -41.0744 H   0  0  0  0  0  0  0  0  0  0  0  0
  -11.0855   16.9346  -40.0842 H   0  0  0  0  0  0  0  0  0  0  0  0
  -15.4271   15.7407  -38.4213 H   0  0  0  0  0  0  0  0  0  0  0  0
  -15.1816   14.0024  -38.0566 H   0  0  0  0  0  0  0  0  0  0  0  0
  -13.6877   17.0537  -39.7948 H   0  0  0  0  0  0  0  0  0  0  0  0
  -14.0366   14.5286  -40.3552 H   0  0  0  0  0  0  0  0  0  0  0  0
  -10.3031   14.5229  -39.2749 H   0  0  0  0  0  0  0  0  0  0  0  0
  -14.0260   15.5604  -36.2178 H   0  0  0  0  0  0  0  0  0  0  0  0
  -12.8471   17.4192  -37.4459 H   0  0  0  0  0  0  0  0  0  0  0  0
  -12.3449   13.0408  -39.2240 H   0  0  0  0  0  0  0  0  0  0  0  0
  -10.4990   16.5251  -37.6039 H   0  0  0  0  0  0  0  0  0  0  0  0
  -13.0713   13.2076  -36.8133 H   0  0  0  0  0  0  0  0  0  0  0  0
  -11.6138   15.1597  -35.6746 H   0  0  0  0  0  0  0  0  0  0  0  0
  -10.3688   13.0001  -37.3324 H   0  0  0  0  0  0  0  0  0  0  0  0
   -9.3361   14.3182  -36.6820 H   0  0  0  0  0  0  0  0  0  0  0  0
   -9.4010   13.3057  -34.7844 H   0  0  0  0  0  0  0  0  0  0  0  0
  -11.0236   13.4747  -34.7124 H   0  0  0  0  0  0  0  0  0  0  0  0
  1  3  1  0  0  0  0
  1  5  1  0  0  0  0
  2  4  1  0  0  0  0
  2  6  1  0  0  0  0
  3  4  1  0  0  0  0
  3  7  1  0  0  0  0
  4  8  1  0  0  0  0
  5  8  1  0  0  0  0
  5  9  1  0  0  0  0
  6  7  1  0  0  0  0
  6 10  1  0  0  0  0
  7  9  1  0  0  0  0
  8 10  1  0  0  0  0
  9 11  1  0  0  0  0
 10 11  1  0  0  0  0
 11 12  1  0  0  0  0
 12 13  1  0  0  0  0
  1 14  1  0  0  0  0
  1 15  1  0  0  0  0
  2 16  1  0  0  0  0
  2 17  1  0  0  0  0
  3 18  1  0  0  0  0
  4 19  1  0  0  0  0
  5 20  1  0  0  0  0
  6 21  1  0  0  0  0
  7 22  1  0  0  0  0
  8 23  1  0  0  0  0
  9 24  1  0  0  0  0
 10 25  1  0  0  0  0
 11 26  1  0  0  0  0
 12 27  1  0  0  0  0
 12 28  1  0  0  0  0
 13 29  1  0  0  0  0
 13 30  1  0  0  0  0
M  END
> <id>
EN300-102715

> <smiles>
NCC1C2C3CC4C5CC(C1C53)C42

> <MDLNUMBER>
MFCD20264537

> <IUPAC Name>
{pentacyclo[6.3.0.0^{2,6}.0^{3,10}.0^{5,9}]undecan-4-yl}methanamine

> <CAS>
1030836-17-9

> <URL>
https://www.enaminestore.com/catalog/EN300-102715

> <ROCS_ShapeQuery>
__x1247relevant_x1083L0AP1_x1305L0BP1_

> <ROCS_TanimotoCombo>
0.732 

> <ROCS_ShapeTanimoto>
0.501 

> <ROCS_ColorTanimoto>
0.231 

> <ROCS_RefTversky>
0.420 

> <ROCS_RefColorTversky>
0.529 

> <ROCS_RefTverskyCombo>
0.949 

> <ROCS_FitTversky>
1.628 

> <ROCS_FitColorTversky>
0.291 

> <ROCS_FitTverskyCombo>
1.919 

> <ROCS_ColorScore>
-18.763

> <ROCS_Overlap>
1234.960

> <ROCS_Rank>
178                 

$$$$
untitled-dbase-21199_7
  -OEChem-06232314393D

 28 30  0     1  0  0  0  0  0999 V2000
  -10.5917   13.4543  -37.4899 C   0  0  0  0  0  0  0  0  0  0  0  0
   -9.1701   15.1470  -36.9787 C   0  0  0  0  0  0  0  0  0  0  0  0
  -13.0242   16.6938  -40.5085 C   0  0  0  0  0  0  0  0  0  0  0  0
  -13.8192   16.3729  -38.1451 C   0  0  0  0  0  0  0  0  0  0  0  0
  -13.3777   14.1342  -38.8113 C   0  0  0  0  0  0  0  0  0  0  0  0
  -12.6386   14.7423  -36.6250 C   0  0  0  0  0  0  0  0  0  0  0  0
  -12.6134   16.3741  -39.1019 C   0  0  1  0  0  0  0  0  0  0  0  0
  -13.8282   14.9322  -37.5923 C   0  0  1  0  0  0  0  0  0  0  0  0
  -12.0701   14.9323  -38.9711 C   0  0  1  0  0  0  0  0  0  0  0  0
  -11.4291   14.7394  -37.5758 C   0  0  2  0  0  0  0  0  0  0  0  0
   -9.3039   13.7908  -37.1516 N   0  0  0  0  0  0  0  0  0  0  0  0
  -10.4201   15.7113  -37.2224 N   0  0  0  0  0  0  0  0  0  0  0  0
  -11.0050   12.3206  -37.6910 O   0  0  0  0  0  0  0  0  0  0  0  0
   -8.1523   15.7482  -36.6639 O   0  0  0  0  0  0  0  0  0  0  0  0
  -12.3132   17.2367  -41.3411 O   0  0  0  0  0  0  0  0  0  0  0  0
  -14.3010   16.2997  -40.7356 O   0  0  0  0  0  0  0  0  0  0  0  0
  -13.7009   17.1109  -37.3447 H   0  0  0  0  0  0  0  0  0  0  0  0
  -14.7564   16.5895  -38.6708 H   0  0  0  0  0  0  0  0  0  0  0  0
  -13.2302   13.0717  -38.5990 H   0  0  0  0  0  0  0  0  0  0  0  0
  -14.0604   14.2273  -39.6617 H   0  0  0  0  0  0  0  0  0  0  0  0
  -12.6004   15.5489  -35.8844 H   0  0  0  0  0  0  0  0  0  0  0  0
  -12.7313   13.7929  -36.0853 H   0  0  0  0  0  0  0  0  0  0  0  0
  -11.8827   17.1367  -38.8170 H   0  0  0  0  0  0  0  0  0  0  0  0
  -14.7877   14.6373  -37.1627 H   0  0  0  0  0  0  0  0  0  0  0  0
  -11.4540   14.5962  -39.8095 H   0  0  0  0  0  0  0  0  0  0  0  0
   -8.5510   13.1226  -37.0341 H   0  0  0  0  0  0  0  0  0  0  0  0
  -10.5956   16.7073  -37.1362 H   0  0  0  0  0  0  0  0  0  0  0  0
  -14.5896   16.5020  -41.6511 H   0  0  0  0  0  0  0  0  0  0  0  0
  1 10  1  0  0  0  0
  1 11  1  0  0  0  0
  1 13  2  0  0  0  0
  2 11  1  0  0  0  0
  2 12  1  0  0  0  0
  2 14  2  0  0  0  0
  3  7  1  0  0  0  0
  3 15  2  0  0  0  0
  3 16  1  0  0  0  0
  4  7  1  0  0  0  0
  4  8  1  0  0  0  0
  5  8  1  0  0  0  0
  5  9  1  0  0  0  0
  6  8  1  0  0  0  0
  6 10  1  0  0  0  0
  7  9  1  0  0  0  0
  9 10  1  0  0  0  0
 10 12  1  0  0  0  0
  4 17  1  0  0  0  0
  4 18  1  0  0  0  0
  5 19  1  0  0  0  0
  5 20  1  0  0  0  0
  6 21  1  0  0  0  0
  6 22  1  0  0  0  0
  7 23  1  0  0  0  0
  8 24  1  0  0  0  0
  9 25  1  0  0  0  0
 11 26  1  0  0  0  0
 12 27  1  0  0  0  0
 16 28  1  0  0  0  0
M  END
> <id>
EN300-267935

> <smiles>
OC(=O)C1CC2CC1C3(C2)NC(=O)NC3=O

> <MDLNUMBER>
MFCD30180414

> <IUPAC Name>
2',5'-dioxospiro[bicyclo[2.2.1]heptane-2,4'-imidazolidine]-6-carboxylic acid

> <CAS>
1955557-20-6

> <URL>
https://www.enaminestore.com/catalog/EN300-267935

> <ROCS_ShapeQuery>
__x1247relevant_x1083L0AP1_x1305L0BP1_

> <ROCS_TanimotoCombo>
0.732 

> <ROCS_ShapeTanimoto>
0.524 

> <ROCS_ColorTanimoto>
0.208 

> <ROCS_RefTversky>
0.444 

> <ROCS_RefColorTversky>
0.252 

> <ROCS_RefTverskyCombo>
0.696 

> <ROCS_FitTversky>
1.521 

> <ROCS_FitColorTversky>
0.541 

> <ROCS_FitTverskyCombo>
2.062 

> <ROCS_ColorScore>
-8.287

> <ROCS_Overlap>
1310.053

> <ROCS_Rank>
179                 

$$$$
untitled-dbase-138776_8
  -OEChem-06232314393D

 38 41  0     1  0  0  0  0  0999 V2000
   -8.7931   14.4227  -33.3933 C   0  0  0  0  0  0  0  0  0  0  0  0
  -10.2332   14.7378  -33.0988 C   0  0  0  0  0  0  0  0  0  0  0  0
  -12.0304   14.9150  -39.8065 C   0  0  0  0  0  0  0  0  0  0  0  0
  -12.3752   16.8253  -38.2849 C   0  0  0  0  0  0  0  0  0  0  0  0
   -8.7663   15.1210  -36.6816 C   0  0  0  0  0  0  0  0  0  0  0  0
  -13.4709   14.4940  -39.4742 C   0  0  0  0  0  0  0  0  0  0  0  0
  -13.7455   16.2702  -37.8699 C   0  0  0  0  0  0  0  0  0  0  0  0
   -9.0923   13.8970  -37.5343 C   0  0  0  0  0  0  0  0  0  0  0  0
  -12.8507   14.1362  -37.1796 C   0  0  0  0  0  0  0  0  0  0  0  0
   -9.8186   14.3473  -34.4903 C   0  0  0  0  0  0  0  0  0  0  0  0
  -11.4276   15.6463  -38.5931 C   0  0  0  0  0  0  0  0  0  0  0  0
   -9.8226   15.3828  -35.6123 C   0  0  2  0  0  0  0  0  0  0  0  0
  -11.4026   14.6916  -37.3554 C   0  0  2  0  0  0  0  0  0  0  0  0
  -10.5048   13.5434  -37.5086 N   0  0  0  0  0  0  0  0  0  0  0  0
  -13.8260   14.8089  -38.0726 N   0  0  0  0  0  0  0  0  0  0  0  0
  -11.1355   15.4757  -36.1703 O   0  0  0  0  0  0  0  0  0  0  0  0
   -8.0884   15.2450  -33.3974 H   0  0  0  0  0  0  0  0  0  0  0  0
   -8.3930   13.4909  -33.0128 H   0  0  0  0  0  0  0  0  0  0  0  0
  -10.7989   14.0171  -32.5210 H   0  0  0  0  0  0  0  0  0  0  0  0
  -10.4930   15.7712  -32.9053 H   0  0  0  0  0  0  0  0  0  0  0  0
  -11.4306   14.0472  -40.0972 H   0  0  0  0  0  0  0  0  0  0  0  0
  -12.0413   15.5874  -40.6735 H   0  0  0  0  0  0  0  0  0  0  0  0
  -12.4814   17.4583  -39.1738 H   0  0  0  0  0  0  0  0  0  0  0  0
  -11.9693   17.4597  -37.4900 H   0  0  0  0  0  0  0  0  0  0  0  0
   -7.7813   14.9617  -36.2014 H   0  0  0  0  0  0  0  0  0  0  0  0
   -8.6435   16.0089  -37.3287 H   0  0  0  0  0  0  0  0  0  0  0  0
  -14.1757   14.9889  -40.1549 H   0  0  0  0  0  0  0  0  0  0  0  0
  -13.5948   13.4187  -39.6556 H   0  0  0  0  0  0  0  0  0  0  0  0
  -13.9479   16.5099  -36.8182 H   0  0  0  0  0  0  0  0  0  0  0  0
  -14.5374   16.7689  -38.4426 H   0  0  0  0  0  0  0  0  0  0  0  0
   -8.7491   14.0557  -38.5745 H   0  0  0  0  0  0  0  0  0  0  0  0
   -8.5045   13.0369  -37.1636 H   0  0  0  0  0  0  0  0  0  0  0  0
  -12.9000   13.0573  -37.3827 H   0  0  0  0  0  0  0  0  0  0  0  0
  -13.1854   14.2460  -36.1393 H   0  0  0  0  0  0  0  0  0  0  0  0
  -10.1053   13.3641  -34.8433 H   0  0  0  0  0  0  0  0  0  0  0  0
  -10.4369   16.0421  -38.8409 H   0  0  0  0  0  0  0  0  0  0  0  0
   -9.5969   16.3692  -35.1117 H   0  0  0  0  0  0  0  0  0  0  0  0
  -10.7414   12.9951  -38.3451 H   0  0  0  0  0  0  0  0  0  0  0  0
  1  2  1  0  0  0  0
  1 10  1  0  0  0  0
  2 10  1  0  0  0  0
  3  6  1  0  0  0  0
  3 11  1  0  0  0  0
  4  7  1  0  0  0  0
  4 11  1  0  0  0  0
  5  8  1  0  0  0  0
  5 12  1  0  0  0  0
  6 15  1  0  0  0  0
  7 15  1  0  0  0  0
  8 14  1  0  0  0  0
  9 13  1  0  0  0  0
  9 15  1  0  0  0  0
 10 12  1  0  0  0  0
 11 13  1  0  0  0  0
 12 16  1  0  0  0  0
 13 14  1  0  0  0  0
 13 16  1  0  0  0  0
  1 17  1  0  0  0  0
  1 18  1  0  0  0  0
  2 19  1  0  0  0  0
  2 20  1  0  0  0  0
  3 21  1  0  0  0  0
  3 22  1  0  0  0  0
  4 23  1  0  0  0  0
  4 24  1  0  0  0  0
  5 25  1  0  0  0  0
  5 26  1  0  0  0  0
  6 27  1  0  0  0  0
  6 28  1  0  0  0  0
  7 29  1  0  0  0  0
  7 30  1  0  0  0  0
  8 31  1  0  0  0  0
  8 32  1  0  0  0  0
  9 33  1  0  0  0  0
  9 34  1  0  0  0  0
 10 35  1  0  0  0  0
 11 36  1  0  0  0  0
 12 37  1  0  0  0  0
 14 38  1  0  0  0  0
M  END
> <id>
EN300-1279571

> <smiles>
C1CC1C2CCNC3(CN4CCC3CC4)O2

> <IUPAC Name>
6'-cyclopropyl-4-azaspiro[bicyclo[2.2.2]octane-2,2'-[1,3]oxazinane]

> <CAS>
2168822-61-3

> <URL>
https://www.enaminestore.com/catalog/EN300-1279571

> <ROCS_ShapeQuery>
__x1247relevant_x1083L0AP1_x1305L0BP1_

> <ROCS_TanimotoCombo>
0.732 

> <ROCS_ShapeTanimoto>
0.489 

> <ROCS_ColorTanimoto>
0.243 

> <ROCS_RefTversky>
0.422 

> <ROCS_RefColorTversky>
0.268 

> <ROCS_RefTverskyCombo>
0.690 

> <ROCS_FitTversky>
1.485 

> <ROCS_FitColorTversky>
0.718 

> <ROCS_FitTverskyCombo>
2.203 

> <ROCS_ColorScore>
-8.769

> <ROCS_Overlap>
1242.656

> <ROCS_Rank>
180                 

$$$$
untitled-dbase-94138_17
  -OEChem-06232314393D

 28 30  0     1  0  0  0  0  0999 V2000
   -9.4218   14.5854  -37.1338 C   0  0  0  0  0  0  0  0  0  0  0  0
   -8.0529   14.0305  -36.7957 C   0  0  0  0  0  0  0  0  0  0  0  0
  -13.9904   16.0717  -39.8374 C   0  0  0  0  0  0  0  0  0  0  0  0
  -12.4190   14.7211  -36.6635 C   0  0  0  0  0  0  0  0  0  0  0  0
  -13.9607   15.6004  -38.4079 C   0  0  1  0  0  0  0  0  0  0  0  0
  -13.2602   14.8098  -39.4606 C   0  0  2  0  0  0  0  0  0  0  0  0
  -11.7174   13.8745  -37.7553 C   0  0  1  0  0  0  0  0  0  0  0  0
  -12.8449   15.9650  -37.4553 C   0  0  2  0  0  0  0  0  0  0  0  0
  -11.8238   14.8050  -38.9794 C   0  0  2  0  0  0  0  0  0  0  0  0
   -6.8689   12.0168  -36.5513 C   0  0  0  0  0  0  0  0  0  0  0  0
  -10.3484   13.5979  -37.4067 N   0  0  0  0  0  0  0  0  0  0  0  0
   -9.5969   15.7941  -37.1414 O   0  0  0  0  0  0  0  0  0  0  0  0
   -7.1089   14.7492  -36.5280 O   0  0  0  0  0  0  0  0  0  0  0  0
  -11.6980   16.0987  -38.3323 O   0  0  0  0  0  0  0  0  0  0  0  0
   -8.0990   12.6839  -36.8499 O   0  0  0  0  0  0  0  0  0  0  0  0
  -14.9231   15.9690  -40.3791 H   0  0  0  0  0  0  0  0  0  0  0  0
  -13.4146   16.9462  -40.1129 H   0  0  0  0  0  0  0  0  0  0  0  0
  -13.2649   14.1943  -36.2106 H   0  0  0  0  0  0  0  0  0  0  0  0
  -11.7156   14.9985  -35.8696 H   0  0  0  0  0  0  0  0  0  0  0  0
  -14.8562   15.2086  -37.9509 H   0  0  0  0  0  0  0  0  0  0  0  0
  -13.6541   13.8517  -39.7629 H   0  0  0  0  0  0  0  0  0  0  0  0
  -12.2146   12.9123  -37.9153 H   0  0  0  0  0  0  0  0  0  0  0  0
  -13.0200   16.8651  -36.8627 H   0  0  0  0  0  0  0  0  0  0  0  0
  -11.0819   14.6593  -39.7681 H   0  0  0  0  0  0  0  0  0  0  0  0
   -7.0130   10.9360  -36.6226 H   0  0  0  0  0  0  0  0  0  0  0  0
   -6.5427   12.2860  -35.5435 H   0  0  0  0  0  0  0  0  0  0  0  0
   -6.1107   12.3294  -37.2732 H   0  0  0  0  0  0  0  0  0  0  0  0
  -10.0522   12.6243  -37.3728 H   0  0  0  0  0  0  0  0  0  0  0  0
  1  2  1  0  0  0  0
  1 11  1  0  0  0  0
  1 12  2  0  0  0  0
  2 13  2  0  0  0  0
  2 15  1  0  0  0  0
  3  5  1  0  0  0  0
  3  6  1  0  0  0  0
  4  7  1  0  0  0  0
  4  8  1  0  0  0  0
  5  6  1  0  0  0  0
  5  8  1  0  0  0  0
  6  9  1  0  0  0  0
  7  9  1  0  0  0  0
  7 11  1  0  0  0  0
  8 14  1  0  0  0  0
  9 14  1  0  0  0  0
 10 15  1  0  0  0  0
  3 16  1  0  0  0  0
  3 17  1  0  0  0  0
  4 18  1  0  0  0  0
  4 19  1  0  0  0  0
  5 20  1  0  0  0  0
  6 21  1  0  0  0  0
  7 22  1  0  0  0  0
  8 23  1  0  0  0  0
  9 24  1  0  0  0  0
 10 25  1  0  0  0  0
 10 26  1  0  0  0  0
 10 27  1  0  0  0  0
 11 28  1  0  0  0  0
M  END
> <id>
EN300-740763

> <smiles>
COC(=O)C(=O)NC1CC2OC1C3CC32

> <IUPAC Name>
methyl ({8-oxatricyclo[3.2.1.0,2,4]octan-6-yl}carbamoyl)formate

> <CAS>
2137896-68-3

> <URL>
https://www.enaminestore.com/catalog/EN300-740763

> <ROCS_ShapeQuery>
__x1247relevant_x1083L0AP1_x1305L0BP1_

> <ROCS_TanimotoCombo>
0.731 

> <ROCS_ShapeTanimoto>
0.463 

> <ROCS_ColorTanimoto>
0.268 

> <ROCS_RefTversky>
0.403 

> <ROCS_RefColorTversky>
0.350 

> <ROCS_RefTverskyCombo>
0.753 

> <ROCS_FitTversky>
1.475 

> <ROCS_FitColorTversky>
0.533 

> <ROCS_FitTverskyCombo>
2.008 

> <ROCS_ColorScore>
-11.633

> <ROCS_Overlap>
1187.684

> <ROCS_Rank>
181                 

$$$$
untitled-dbase-155503_22
  -OEChem-06232314393D

 29 30  0     1  0  0  0  0  0999 V2000
  -14.4959   14.8610  -40.1613 C   0  0  0  0  0  0  0  0  0  0  0  0
  -10.1019   14.4764  -36.4324 C   0  0  0  0  0  0  0  0  0  0  0  0
  -13.4476   16.4112  -37.7430 C   0  0  0  0  0  0  0  0  0  0  0  0
  -12.4957   16.7616  -38.8930 C   0  0  0  0  0  0  0  0  0  0  0  0
  -12.4973   14.2111  -36.9479 C   0  0  0  0  0  0  0  0  0  0  0  0
  -10.9061   14.7976  -38.8126 C   0  0  0  0  0  0  0  0  0  0  0  0
  -13.3416   14.5344  -39.2603 C   0  0  0  0  0  0  0  0  0  0  0  0
  -13.5936   14.8797  -37.7941 C   0  0  2  0  0  0  0  0  0  0  0  0
  -12.1214   15.4122  -39.5308 C   0  0  1  0  0  0  0  0  0  0  0  0
   -8.7280   14.1675  -36.9734 C   0  0  0  0  0  0  0  0  0  0  0  0
  -11.1341   14.5723  -37.3713 N   0  0  0  0  0  0  0  0  0  0  0  0
  -15.0555   14.0656  -40.9012 O   0  0  0  0  0  0  0  0  0  0  0  0
  -10.2552   14.6334  -35.2185 O   0  0  0  0  0  0  0  0  0  0  0  0
  -14.8375   16.1677  -40.0471 O   0  0  0  0  0  0  0  0  0  0  0  0
   -8.7660   14.0392  -38.3114 F   0  0  0  0  0  0  0  0  0  0  0  0
   -7.8663   15.1537  -36.6679 F   0  0  0  0  0  0  0  0  0  0  0  0
   -8.2583   13.0202  -36.4521 F   0  0  0  0  0  0  0  0  0  0  0  0
  -13.0731   16.7678  -36.7777 H   0  0  0  0  0  0  0  0  0  0  0  0
  -14.4185   16.8914  -37.9134 H   0  0  0  0  0  0  0  0  0  0  0  0
  -13.0131   17.3996  -39.6189 H   0  0  0  0  0  0  0  0  0  0  0  0
  -11.6202   17.3173  -38.5410 H   0  0  0  0  0  0  0  0  0  0  0  0
  -12.6293   14.4679  -35.8905 H   0  0  0  0  0  0  0  0  0  0  0  0
  -12.5732   13.1195  -37.0253 H   0  0  0  0  0  0  0  0  0  0  0  0
  -10.6645   13.8210  -39.2490 H   0  0  0  0  0  0  0  0  0  0  0  0
  -10.0355   15.4436  -38.9577 H   0  0  0  0  0  0  0  0  0  0  0  0
  -13.1224   13.4708  -39.4075 H   0  0  0  0  0  0  0  0  0  0  0  0
  -14.5827   14.5653  -37.4449 H   0  0  0  0  0  0  0  0  0  0  0  0
  -11.9087   15.5273  -40.5989 H   0  0  0  0  0  0  0  0  0  0  0  0
  -15.5904   16.4020  -40.6307 H   0  0  0  0  0  0  0  0  0  0  0  0
  1  7  1  0  0  0  0
  1 12  2  0  0  0  0
  1 14  1  0  0  0  0
  2 10  1  0  0  0  0
  2 11  1  0  0  0  0
  2 13  2  0  0  0  0
  3  4  1  0  0  0  0
  3  8  1  0  0  0  0
  4  9  1  0  0  0  0
  5  8  1  0  0  0  0
  5 11  1  0  0  0  0
  6  9  1  0  0  0  0
  6 11  1  0  0  0  0
  7  8  1  0  0  0  0
  7  9  1  0  0  0  0
 10 15  1  0  0  0  0
 10 16  1  0  0  0  0
 10 17  1  0  0  0  0
  3 18  1  0  0  0  0
  3 19  1  0  0  0  0
  4 20  1  0  0  0  0
  4 21  1  0  0  0  0
  5 22  1  0  0  0  0
  5 23  1  0  0  0  0
  6 24  1  0  0  0  0
  6 25  1  0  0  0  0
  7 26  1  0  0  0  0
  8 27  1  0  0  0  0
  9 28  1  0  0  0  0
 14 29  1  0  0  0  0
M  END
> <id>
EN300-3260639

> <smiles>
OC(=O)C1C2CCC1CN(C2)C(=O)C(F)(F)F

> <IUPAC Name>
3-(trifluoroacetyl)-3-azabicyclo[3.2.1]octane-8-carboxylic acid

> <CAS>
2143459-36-1

> <URL>
https://www.enaminestore.com/catalog/EN300-3260639

> <ROCS_ShapeQuery>
__x1247relevant_x1083L0AP1_x1305L0BP1_

> <ROCS_TanimotoCombo>
0.731 

> <ROCS_ShapeTanimoto>
0.536 

> <ROCS_ColorTanimoto>
0.196 

> <ROCS_RefTversky>
0.454 

> <ROCS_RefColorTversky>
0.219 

> <ROCS_RefTverskyCombo>
0.673 

> <ROCS_FitTversky>
1.507 

> <ROCS_FitColorTversky>
0.648 

> <ROCS_FitTverskyCombo>
2.155 

> <ROCS_ColorScore>
-7.145

> <ROCS_Overlap>
1339.200

> <ROCS_Rank>
182                 

$$$$
untitled-dbase-148837_163
  -OEChem-06232314393D

 39 40  0     1  0  0  0  0  0999 V2000
   -9.1085   14.3185  -37.0478 C   0  0  0  0  0  0  0  0  0  0  0  0
  -12.6062   13.8616  -38.4842 C   0  0  0  0  0  0  0  0  0  0  0  0
  -11.0515   15.8424  -38.7891 C   0  0  0  0  0  0  0  0  0  0  0  0
  -12.1190   15.1378  -36.5888 C   0  0  0  0  0  0  0  0  0  0  0  0
  -13.7230   14.8722  -38.2599 C   0  0  2  0  0  0  0  0  0  0  0  0
  -12.1767   16.3047  -39.7287 C   0  0  2  0  0  0  0  0  0  0  0  0
  -13.5713   16.1497  -39.1062 C   0  0  1  0  0  0  0  0  0  0  0  0
  -11.4491   14.6453  -37.8805 C   0  0  1  0  0  0  0  0  0  0  0  0
   -8.8809   13.4180  -34.6018 C   0  0  0  0  0  0  0  0  0  0  0  0
   -7.4234   11.5651  -35.4687 C   0  0  0  0  0  0  0  0  0  0  0  0
   -6.5115   13.8992  -35.3011 C   0  0  0  0  0  0  0  0  0  0  0  0
   -7.7550   13.0524  -35.5681 C   0  0  0  0  0  0  0  0  0  0  0  0
  -10.2786   13.8276  -37.5970 N   0  0  0  0  0  0  0  0  0  0  0  0
   -8.9046   15.4862  -36.7323 O   0  0  0  0  0  0  0  0  0  0  0  0
  -13.5230   15.2736  -36.8836 O   0  0  0  0  0  0  0  0  0  0  0  0
  -12.0831   15.5277  -40.9281 O   0  0  0  0  0  0  0  0  0  0  0  0
  -14.5672   16.1596  -40.1249 O   0  0  0  0  0  0  0  0  0  0  0  0
   -8.2013   13.3066  -36.9048 O   0  0  0  0  0  0  0  0  0  0  0  0
  -12.8034   12.9511  -37.9043 H   0  0  0  0  0  0  0  0  0  0  0  0
  -12.4598   13.5798  -39.5306 H   0  0  0  0  0  0  0  0  0  0  0  0
  -10.1618   15.5784  -39.3856 H   0  0  0  0  0  0  0  0  0  0  0  0
  -10.7394   16.7006  -38.1715 H   0  0  0  0  0  0  0  0  0  0  0  0
  -12.0346   14.4040  -35.7771 H   0  0  0  0  0  0  0  0  0  0  0  0
  -11.7214   16.0936  -36.2289 H   0  0  0  0  0  0  0  0  0  0  0  0
  -14.7100   14.4321  -38.3734 H   0  0  0  0  0  0  0  0  0  0  0  0
  -12.0045   17.3337  -40.0046 H   0  0  0  0  0  0  0  0  0  0  0  0
  -13.7674   17.0429  -38.4724 H   0  0  0  0  0  0  0  0  0  0  0  0
   -9.1219   14.4849  -34.6701 H   0  0  0  0  0  0  0  0  0  0  0  0
   -9.7898   12.8425  -34.8052 H   0  0  0  0  0  0  0  0  0  0  0  0
   -8.5803   13.2348  -33.5639 H   0  0  0  0  0  0  0  0  0  0  0  0
   -6.6161   11.2983  -36.1603 H   0  0  0  0  0  0  0  0  0  0  0  0
   -8.2873   10.9528  -35.7518 H   0  0  0  0  0  0  0  0  0  0  0  0
   -7.1179   11.2860  -34.4551 H   0  0  0  0  0  0  0  0  0  0  0  0
   -5.7038   13.6372  -35.9940 H   0  0  0  0  0  0  0  0  0  0  0  0
   -6.7220   14.9687  -35.4043 H   0  0  0  0  0  0  0  0  0  0  0  0
   -6.1247   13.7162  -34.2920 H   0  0  0  0  0  0  0  0  0  0  0  0
  -10.3244   12.8341  -37.8163 H   0  0  0  0  0  0  0  0  0  0  0  0
  -12.7975   15.8284  -41.5124 H   0  0  0  0  0  0  0  0  0  0  0  0
  -15.4249   16.1419  -39.6728 H   0  0  0  0  0  0  0  0  0  0  0  0
  1 13  1  0  0  0  0
  1 14  2  0  0  0  0
  1 18  1  0  0  0  0
  2  5  1  0  0  0  0
  2  8  1  0  0  0  0
  3  6  1  0  0  0  0
  3  8  1  0  0  0  0
  4  8  1  0  0  0  0
  4 15  1  0  0  0  0
  5  7  1  0  0  0  0
  5 15  1  0  0  0  0
  6  7  1  0  0  0  0
  6 16  1  1  0  0  0
  7 17  1  1  0  0  0
  8 13  1  0  0  0  0
  9 12  1  0  0  0  0
 10 12  1  0  0  0  0
 11 12  1  0  0  0  0
 12 18  1  0  0  0  0
  2 19  1  0  0  0  0
  2 20  1  0  0  0  0
  3 21  1  0  0  0  0
  3 22  1  0  0  0  0
  4 23  1  0  0  0  0
  4 24  1  0  0  0  0
  5 25  1  0  0  0  0
  6 26  1  0  0  0  0
  7 27  1  0  0  0  0
  9 28  1  0  0  0  0
  9 29  1  0  0  0  0
  9 30  1  0  0  0  0
 10 31  1  0  0  0  0
 10 32  1  0  0  0  0
 10 33  1  0  0  0  0
 11 34  1  0  0  0  0
 11 35  1  0  0  0  0
 11 36  1  0  0  0  0
 13 37  1  0  0  0  0
 16 38  1  0  0  0  0
 17 39  1  0  0  0  0
M  END
> <id>
EN300-28228815

> <smiles>
CC(C)(C)OC(=O)NC1(COC2C1)C[C@@H](O)[C@H]2O |&1:14,16,r|

> <IUPAC Name>
rac-tert-butyl N-[(3R,4R)-3,4-dihydroxy-6-oxabicyclo[3.2.1]octan-1-yl]carbamate

> <CAS>
2731012-67-0

> <URL>
https://www.enaminestore.com/catalog/EN300-28228815

> <ROCS_ShapeQuery>
__x1247relevant_x1083L0AP1_x1305L0BP1_

> <ROCS_TanimotoCombo>
0.731 

> <ROCS_ShapeTanimoto>
0.493 

> <ROCS_ColorTanimoto>
0.239 

> <ROCS_RefTversky>
0.432 

> <ROCS_RefColorTversky>
0.280 

> <ROCS_RefTverskyCombo>
0.712 

> <ROCS_FitTversky>
1.397 

> <ROCS_FitColorTversky>
0.619 

> <ROCS_FitTverskyCombo>
2.015 

> <ROCS_ColorScore>
-9.201

> <ROCS_Overlap>
1275.275

> <ROCS_Rank>
183                 

$$$$
untitled-dbase-153302_122
  -OEChem-06232314393D

 28 29  0     1  0  0  0  0  0999 V2000
  -12.0643   15.4828  -35.5678 C   0  0  0  0  0  0  0  0  0  0  0  0
   -9.6909   14.8540  -37.5150 C   0  0  0  0  0  0  0  0  0  0  0  0
  -13.2357   14.1324  -38.0456 C   0  0  0  0  0  0  0  0  0  0  0  0
  -11.9292   15.8492  -37.0147 C   0  0  2  0  0  0  0  0  0  0  0  0
  -13.2558   15.6514  -37.7744 C   0  0  1  0  0  0  0  0  0  0  0  0
  -11.8632   14.1847  -38.7125 C   0  0  1  0  0  0  0  0  0  0  0  0
  -13.0699   16.2199  -39.2016 C   0  0  1  0  0  0  0  0  0  0  0  0
  -12.1650   15.1620  -39.8732 C   0  0  1  0  0  0  0  0  0  0  0  0
   -9.0508   13.4953  -37.6342 C   0  0  0  0  0  0  0  0  0  0  0  0
  -11.0607   14.8910  -37.6934 N   0  0  0  0  0  0  0  0  0  0  0  0
  -13.0566   15.6821  -34.8830 O   0  0  0  0  0  0  0  0  0  0  0  0
   -9.0054   15.8426  -37.2473 O   0  0  0  0  0  0  0  0  0  0  0  0
  -10.9287   14.8981  -35.1140 O   0  0  0  0  0  0  0  0  0  0  0  0
  -14.3201   16.2715  -39.8760 O   0  0  0  0  0  0  0  0  0  0  0  0
  -10.9946   15.7515  -40.4060 O   0  0  0  0  0  0  0  0  0  0  0  0
  -13.2515   13.5210  -37.1382 H   0  0  0  0  0  0  0  0  0  0  0  0
  -14.0365   13.8005  -38.7150 H   0  0  0  0  0  0  0  0  0  0  0  0
  -11.5250   16.8634  -37.0897 H   0  0  0  0  0  0  0  0  0  0  0  0
  -14.1543   15.9913  -37.2538 H   0  0  0  0  0  0  0  0  0  0  0  0
  -11.4289   13.2342  -39.0239 H   0  0  0  0  0  0  0  0  0  0  0  0
  -12.6354   17.2256  -39.2010 H   0  0  0  0  0  0  0  0  0  0  0  0
  -12.6892   14.6442  -40.6863 H   0  0  0  0  0  0  0  0  0  0  0  0
   -8.7646   13.3261  -38.6673 H   0  0  0  0  0  0  0  0  0  0  0  0
   -9.7612   12.7376  -37.3181 H   0  0  0  0  0  0  0  0  0  0  0  0
   -8.1734   13.4578  -36.9960 H   0  0  0  0  0  0  0  0  0  0  0  0
  -10.9966   14.6522  -34.1668 H   0  0  0  0  0  0  0  0  0  0  0  0
  -14.1467   16.6332  -40.7602 H   0  0  0  0  0  0  0  0  0  0  0  0
  -10.5644   16.2390  -39.6824 H   0  0  0  0  0  0  0  0  0  0  0  0
  1  4  1  0  0  0  0
  1 11  2  0  0  0  0
  1 13  1  0  0  0  0
  2  9  1  0  0  0  0
  2 10  1  0  0  0  0
  2 12  2  0  0  0  0
  3  5  1  0  0  0  0
  3  6  1  0  0  0  0
  4  5  1  0  0  0  0
  4 10  1  0  0  0  0
  5  7  1  0  0  0  0
  6  8  1  0  0  0  0
  6 10  1  0  0  0  0
  7  8  1  0  0  0  0
  7 14  1  0  0  0  0
  8 15  1  0  0  0  0
  3 16  1  0  0  0  0
  3 17  1  0  0  0  0
  4 18  1  0  0  0  0
  5 19  1  0  0  0  0
  6 20  1  0  0  0  0
  7 21  1  0  0  0  0
  8 22  1  0  0  0  0
  9 23  1  0  0  0  0
  9 24  1  0  0  0  0
  9 25  1  0  0  0  0
 13 26  1  0  0  0  0
 14 27  1  0  0  0  0
 15 28  1  0  0  0  0
M  END
> <id>
EN300-28273493

> <smiles>
CC(=O)N1C(C2CC1C(O)C2O)C(=O)O

> <IUPAC Name>
2-acetyl-5,6-dihydroxy-2-azabicyclo[2.2.1]heptane-3-carboxylic acid

> <CAS>
2680612-87-5

> <URL>
https://www.enaminestore.com/catalog/EN300-28273493

> <ROCS_ShapeQuery>
__x1247relevant_x1083L0AP1_x1305L0BP1_

> <ROCS_TanimotoCombo>
0.731 

> <ROCS_ShapeTanimoto>
0.483 

> <ROCS_ColorTanimoto>
0.248 

> <ROCS_RefTversky>
0.414 

> <ROCS_RefColorTversky>
0.292 

> <ROCS_RefTverskyCombo>
0.706 

> <ROCS_FitTversky>
1.525 

> <ROCS_FitColorTversky>
0.625 

> <ROCS_FitTverskyCombo>
2.151 

> <ROCS_ColorScore>
-9.596

> <ROCS_Overlap>
1219.201

> <ROCS_Rank>
184                 

$$$$
untitled-dbase-95578_9
  -OEChem-06232314393D

 38 41  0     1  0  0  0  0  0999 V2000
   -9.3369   11.4920  -35.2420 C   0  0  0  0  0  0  0  0  0  0  0  0
   -8.1518   12.3018  -34.7951 C   0  0  0  0  0  0  0  0  0  0  0  0
  -12.0624   14.7895  -39.7873 C   0  0  0  0  0  0  0  0  0  0  0  0
  -12.3174   16.8110  -38.3914 C   0  0  0  0  0  0  0  0  0  0  0  0
   -8.7153   15.0396  -36.7622 C   0  0  0  0  0  0  0  0  0  0  0  0
  -13.5167   14.4601  -39.4143 C   0  0  0  0  0  0  0  0  0  0  0  0
  -13.6950   16.3339  -37.9125 C   0  0  0  0  0  0  0  0  0  0  0  0
  -12.8646   14.2130  -37.1141 C   0  0  0  0  0  0  0  0  0  0  0  0
   -9.7314   16.0048  -36.1670 C   0  0  0  0  0  0  0  0  0  0  0  0
   -9.3413   12.9863  -35.4094 C   0  0  0  0  0  0  0  0  0  0  0  0
  -11.4145   15.5838  -38.6368 C   0  0  0  0  0  0  0  0  0  0  0  0
   -9.2374   13.6070  -36.8063 C   0  0  1  0  0  0  0  0  0  0  0  0
  -11.3963   14.7045  -37.3452 C   0  0  2  0  0  0  0  0  0  0  0  0
  -10.5197   13.5286  -37.5128 N   0  0  0  0  0  0  0  0  0  0  0  0
  -13.8325   14.8683  -38.0278 N   0  0  0  0  0  0  0  0  0  0  0  0
  -11.0619   15.4943  -36.1895 O   0  0  0  0  0  0  0  0  0  0  0  0
   -9.2199   10.8716  -36.1219 H   0  0  0  0  0  0  0  0  0  0  0  0
   -9.9758   11.0690  -34.4765 H   0  0  0  0  0  0  0  0  0  0  0  0
   -7.9961   12.4221  -33.7300 H   0  0  0  0  0  0  0  0  0  0  0  0
   -7.2409   12.2236  -35.3756 H   0  0  0  0  0  0  0  0  0  0  0  0
  -11.5041   13.8763  -40.0146 H   0  0  0  0  0  0  0  0  0  0  0  0
  -12.0514   15.3935  -40.7031 H   0  0  0  0  0  0  0  0  0  0  0  0
  -12.4223   17.3860  -39.3198 H   0  0  0  0  0  0  0  0  0  0  0  0
  -11.8728   17.4845  -37.6504 H   0  0  0  0  0  0  0  0  0  0  0  0
   -8.4238   15.3787  -37.7723 H   0  0  0  0  0  0  0  0  0  0  0  0
   -7.7918   15.0772  -36.1534 H   0  0  0  0  0  0  0  0  0  0  0  0
  -14.2064   14.9519  -40.1119 H   0  0  0  0  0  0  0  0  0  0  0  0
  -13.6959   13.3844  -39.5344 H   0  0  0  0  0  0  0  0  0  0  0  0
  -13.8611   16.6411  -36.8722 H   0  0  0  0  0  0  0  0  0  0  0  0
  -14.4827   16.8279  -38.4946 H   0  0  0  0  0  0  0  0  0  0  0  0
  -12.9548   13.1269  -37.2535 H   0  0  0  0  0  0  0  0  0  0  0  0
  -13.1740   14.3943  -36.0762 H   0  0  0  0  0  0  0  0  0  0  0  0
   -9.4741   16.2127  -35.1126 H   0  0  0  0  0  0  0  0  0  0  0  0
   -9.6995   16.9841  -36.6807 H   0  0  0  0  0  0  0  0  0  0  0  0
   -9.9831   13.5633  -34.7546 H   0  0  0  0  0  0  0  0  0  0  0  0
  -10.4165   15.9269  -38.9271 H   0  0  0  0  0  0  0  0  0  0  0  0
   -8.4853   12.9761  -37.3598 H   0  0  0  0  0  0  0  0  0  0  0  0
  -10.3578   13.3373  -38.5114 H   0  0  0  0  0  0  0  0  0  0  0  0
  1  2  1  0  0  0  0
  1 10  1  0  0  0  0
  2 10  1  0  0  0  0
  3  6  1  0  0  0  0
  3 11  1  0  0  0  0
  4  7  1  0  0  0  0
  4 11  1  0  0  0  0
  5  9  1  0  0  0  0
  5 12  1  0  0  0  0
  6 15  1  0  0  0  0
  7 15  1  0  0  0  0
  8 13  1  0  0  0  0
  8 15  1  0  0  0  0
  9 16  1  0  0  0  0
 10 12  1  0  0  0  0
 11 13  1  0  0  0  0
 12 14  1  0  0  0  0
 13 14  1  0  0  0  0
 13 16  1  0  0  0  0
  1 17  1  0  0  0  0
  1 18  1  0  0  0  0
  2 19  1  0  0  0  0
  2 20  1  0  0  0  0
  3 21  1  0  0  0  0
  3 22  1  0  0  0  0
  4 23  1  0  0  0  0
  4 24  1  0  0  0  0
  5 25  1  0  0  0  0
  5 26  1  0  0  0  0
  6 27  1  0  0  0  0
  6 28  1  0  0  0  0
  7 29  1  0  0  0  0
  7 30  1  0  0  0  0
  8 31  1  0  0  0  0
  8 32  1  0  0  0  0
  9 33  1  0  0  0  0
  9 34  1  0  0  0  0
 10 35  1  0  0  0  0
 11 36  1  0  0  0  0
 12 37  1  0  0  0  0
 14 38  1  0  0  0  0
M  END
> <id>
EN300-1279055

> <smiles>
C1CC1C2CCOC3(CN4CCC3CC4)N2

> <IUPAC Name>
4'-cyclopropyl-4-azaspiro[bicyclo[2.2.2]octane-2,2'-[1,3]oxazinane]

> <CAS>
2171859-34-8

> <URL>
https://www.enaminestore.com/catalog/EN300-1279055

> <ROCS_ShapeQuery>
__x1247relevant_x1083L0AP1_x1305L0BP1_

> <ROCS_TanimotoCombo>
0.731 

> <ROCS_ShapeTanimoto>
0.489 

> <ROCS_ColorTanimoto>
0.242 

> <ROCS_RefTversky>
0.422 

> <ROCS_RefColorTversky>
0.268 

> <ROCS_RefTverskyCombo>
0.689 

> <ROCS_FitTversky>
1.486 

> <ROCS_FitColorTversky>
0.717 

> <ROCS_FitTverskyCombo>
2.203 

> <ROCS_ColorScore>
-8.757

> <ROCS_Overlap>
1242.250

> <ROCS_Rank>
185                 

$$$$
untitled-dbase-150439_254
  -OEChem-06232314393D

 36 37  0     1  0  0  0  0  0999 V2000
  -13.3612   16.4616  -40.2959 C   0  0  0  0  0  0  0  0  0  0  0  0
   -9.8162   14.7429  -37.2589 C   0  0  0  0  0  0  0  0  0  0  0  0
  -13.1661   15.0921  -36.7897 C   0  0  0  0  0  0  0  0  0  0  0  0
  -13.5487   16.2313  -37.7593 C   0  0  0  0  0  0  0  0  0  0  0  0
  -12.9392   14.3010  -39.0143 C   0  0  0  0  0  0  0  0  0  0  0  0
  -11.3070   16.0172  -38.8731 C   0  0  0  0  0  0  0  0  0  0  0  0
  -12.2498   14.2079  -37.6539 C   0  0  1  0  0  0  0  0  0  0  0  0
  -12.8215   15.8303  -39.0594 C   0  0  1  0  0  0  0  0  0  0  0  0
  -10.2599   14.1408  -34.7489 C   0  0  0  0  0  0  0  0  0  0  0  0
  -10.0506   11.7090  -35.3420 C   0  0  0  0  0  0  0  0  0  0  0  0
   -7.9962   13.1491  -35.2253 C   0  0  0  0  0  0  0  0  0  0  0  0
   -9.4849   13.1094  -35.5677 C   0  0  0  0  0  0  0  0  0  0  0  0
  -11.0180   14.9675  -37.8966 N   0  0  0  0  0  0  0  0  0  0  0  0
  -12.7258   17.1828  -41.0505 O   0  0  0  0  0  0  0  0  0  0  0  0
   -8.9996   15.6211  -36.9920 O   0  0  0  0  0  0  0  0  0  0  0  0
  -14.6633   16.1295  -40.4737 O   0  0  0  0  0  0  0  0  0  0  0  0
   -9.6416   13.4194  -36.9568 O   0  0  0  0  0  0  0  0  0  0  0  0
  -12.6670   15.4649  -35.8894 H   0  0  0  0  0  0  0  0  0  0  0  0
  -14.0624   14.5417  -36.4821 H   0  0  0  0  0  0  0  0  0  0  0  0
  -14.6361   16.2709  -37.8918 H   0  0  0  0  0  0  0  0  0  0  0  0
  -13.2221   17.2077  -37.3856 H   0  0  0  0  0  0  0  0  0  0  0  0
  -12.3886   13.7972  -39.8170 H   0  0  0  0  0  0  0  0  0  0  0  0
  -13.9749   13.9429  -39.0096 H   0  0  0  0  0  0  0  0  0  0  0  0
  -10.7297   15.8222  -39.7833 H   0  0  0  0  0  0  0  0  0  0  0  0
  -11.0281   16.9970  -38.4722 H   0  0  0  0  0  0  0  0  0  0  0  0
  -12.0685   13.2082  -37.2549 H   0  0  0  0  0  0  0  0  0  0  0  0
   -9.8569   15.1474  -34.9081 H   0  0  0  0  0  0  0  0  0  0  0  0
  -11.3232   14.1467  -35.0101 H   0  0  0  0  0  0  0  0  0  0  0  0
  -10.1682   13.9373  -33.6759 H   0  0  0  0  0  0  0  0  0  0  0  0
   -9.4975   10.9658  -35.9276 H   0  0  0  0  0  0  0  0  0  0  0  0
  -11.0931   11.6509  -35.6753 H   0  0  0  0  0  0  0  0  0  0  0  0
  -10.0074   11.4210  -34.2867 H   0  0  0  0  0  0  0  0  0  0  0  0
   -7.4401   12.4094  -35.8124 H   0  0  0  0  0  0  0  0  0  0  0  0
   -7.5647   14.1371  -35.4161 H   0  0  0  0  0  0  0  0  0  0  0  0
   -7.8318   12.8949  -34.1719 H   0  0  0  0  0  0  0  0  0  0  0  0
  -15.0383   16.5377  -41.2831 H   0  0  0  0  0  0  0  0  0  0  0  0
  1  8  1  0  0  0  0
  1 14  2  0  0  0  0
  1 16  1  0  0  0  0
  2 13  1  0  0  0  0
  2 15  2  0  0  0  0
  2 17  1  0  0  0  0
  3  4  1  0  0  0  0
  3  7  1  0  0  0  0
  4  8  1  0  0  0  0
  5  7  1  0  0  0  0
  5  8  1  0  0  0  0
  6  8  1  0  0  0  0
  6 13  1  0  0  0  0
  7 13  1  0  0  0  0
  9 12  1  0  0  0  0
 10 12  1  0  0  0  0
 11 12  1  0  0  0  0
 12 17  1  0  0  0  0
  3 18  1  0  0  0  0
  3 19  1  0  0  0  0
  4 20  1  0  0  0  0
  4 21  1  0  0  0  0
  5 22  1  0  0  0  0
  5 23  1  0  0  0  0
  6 24  1  0  0  0  0
  6 25  1  0  0  0  0
  7 26  1  0  0  0  0
  9 27  1  0  0  0  0
  9 28  1  0  0  0  0
  9 29  1  0  0  0  0
 10 30  1  0  0  0  0
 10 31  1  0  0  0  0
 10 32  1  0  0  0  0
 11 33  1  0  0  0  0
 11 34  1  0  0  0  0
 11 35  1  0  0  0  0
 16 36  1  0  0  0  0
M  END
> <id>
EN300-1719015

> <smiles>
CC(C)(C)OC(=O)N1CC2(CCC1C2)C(=O)O

> <MDLNUMBER>
MFCD28388936

> <IUPAC Name>
2-[(tert-butoxy)carbonyl]-2-azabicyclo[2.2.1]heptane-4-carboxylic acid

> <CAS>
1935385-39-9

> <Purity>
95

> <URL>
https://www.enaminestore.com/catalog/EN300-1719015

> <ROCS_ShapeQuery>
__x1247relevant_x1083L0AP1_x1305L0BP1_

> <ROCS_TanimotoCombo>
0.731 

> <ROCS_ShapeTanimoto>
0.517 

> <ROCS_ColorTanimoto>
0.214 

> <ROCS_RefTversky>
0.442 

> <ROCS_RefColorTversky>
0.244 

> <ROCS_RefTverskyCombo>
0.686 

> <ROCS_FitTversky>
1.483 

> <ROCS_FitColorTversky>
0.639 

> <ROCS_FitTverskyCombo>
2.121 

> <ROCS_ColorScore>
-7.983

> <ROCS_Overlap>
1304.517

> <ROCS_Rank>
186                 

$$$$
untitled-dbase-94592_254
  -OEChem-06232314393D

 36 37  0     1  0  0  0  0  0999 V2000
  -13.3614   16.4616  -40.2957 C   0  0  0  0  0  0  0  0  0  0  0  0
   -9.8161   14.7427  -37.2591 C   0  0  0  0  0  0  0  0  0  0  0  0
  -13.1654   15.0925  -36.7895 C   0  0  0  0  0  0  0  0  0  0  0  0
  -13.5482   16.2317  -37.7591 C   0  0  0  0  0  0  0  0  0  0  0  0
  -12.9396   14.3009  -39.0141 C   0  0  0  0  0  0  0  0  0  0  0  0
  -11.3069   16.0169  -38.8735 C   0  0  0  0  0  0  0  0  0  0  0  0
  -12.2497   14.2079  -37.6540 C   0  0  1  0  0  0  0  0  0  0  0  0
  -12.8215   15.8302  -39.0594 C   0  0  1  0  0  0  0  0  0  0  0  0
  -10.2607   14.1402  -34.7494 C   0  0  0  0  0  0  0  0  0  0  0  0
  -10.0504   11.7085  -35.3425 C   0  0  0  0  0  0  0  0  0  0  0  0
   -7.9965   13.1493  -35.2248 C   0  0  0  0  0  0  0  0  0  0  0  0
   -9.4850   13.1091  -35.5678 C   0  0  0  0  0  0  0  0  0  0  0  0
  -11.0178   14.9671  -37.8972 N   0  0  0  0  0  0  0  0  0  0  0  0
  -12.7259   17.1825  -41.0506 O   0  0  0  0  0  0  0  0  0  0  0  0
   -8.9998   15.6211  -36.9918 O   0  0  0  0  0  0  0  0  0  0  0  0
  -14.6636   16.1299  -40.4732 O   0  0  0  0  0  0  0  0  0  0  0  0
   -9.6412   13.4190  -36.9570 O   0  0  0  0  0  0  0  0  0  0  0  0
  -12.6652   15.4663  -35.8902 H   0  0  0  0  0  0  0  0  0  0  0  0
  -14.0613   14.5421  -36.4807 H   0  0  0  0  0  0  0  0  0  0  0  0
  -14.6357   16.2717  -37.8917 H   0  0  0  0  0  0  0  0  0  0  0  0
  -13.2207   17.2082  -37.3862 H   0  0  0  0  0  0  0  0  0  0  0  0
  -12.3888   13.7974  -39.8168 H   0  0  0  0  0  0  0  0  0  0  0  0
  -13.9751   13.9427  -39.0095 H   0  0  0  0  0  0  0  0  0  0  0  0
  -10.7298   15.8203  -39.7838 H   0  0  0  0  0  0  0  0  0  0  0  0
  -11.0266   16.9967  -38.4738 H   0  0  0  0  0  0  0  0  0  0  0  0
  -12.0683   13.2082  -37.2556 H   0  0  0  0  0  0  0  0  0  0  0  0
   -9.8579   15.1469  -34.9084 H   0  0  0  0  0  0  0  0  0  0  0  0
  -11.3239   14.1458  -35.0110 H   0  0  0  0  0  0  0  0  0  0  0  0
  -10.1694   13.9367  -33.6763 H   0  0  0  0  0  0  0  0  0  0  0  0
   -9.4968   10.9654  -35.9277 H   0  0  0  0  0  0  0  0  0  0  0  0
  -11.0927   11.6500  -35.6762 H   0  0  0  0  0  0  0  0  0  0  0  0
  -10.0076   11.4205  -34.2871 H   0  0  0  0  0  0  0  0  0  0  0  0
   -7.4398   12.4097  -35.8116 H   0  0  0  0  0  0  0  0  0  0  0  0
   -7.5652   14.1373  -35.4154 H   0  0  0  0  0  0  0  0  0  0  0  0
   -7.8324   12.8950  -34.1713 H   0  0  0  0  0  0  0  0  0  0  0  0
  -15.0386   16.5381  -41.2825 H   0  0  0  0  0  0  0  0  0  0  0  0
  1  8  1  6  0  0  0
  1 14  2  0  0  0  0
  1 16  1  0  0  0  0
  2 13  1  0  0  0  0
  2 15  2  0  0  0  0
  2 17  1  0  0  0  0
  3  4  1  0  0  0  0
  3  7  1  1  0  0  0
  4  8  1  0  0  0  0
  5  7  1  0  0  0  0
  5  8  1  0  0  0  0
  6  8  1  0  0  0  0
  6 13  1  0  0  0  0
  7 13  1  0  0  0  0
  9 12  1  0  0  0  0
 10 12  1  0  0  0  0
 11 12  1  0  0  0  0
 12 17  1  0  0  0  0
  3 18  1  0  0  0  0
  3 19  1  0  0  0  0
  4 20  1  0  0  0  0
  4 21  1  0  0  0  0
  5 22  1  0  0  0  0
  5 23  1  0  0  0  0
  6 24  1  0  0  0  0
  6 25  1  0  0  0  0
  7 26  1  0  0  0  0
  9 27  1  0  0  0  0
  9 28  1  0  0  0  0
  9 29  1  0  0  0  0
 10 30  1  0  0  0  0
 10 31  1  0  0  0  0
 10 32  1  0  0  0  0
 11 33  1  0  0  0  0
 11 34  1  0  0  0  0
 11 35  1  0  0  0  0
 16 36  1  0  0  0  0
M  END
> <id>
EN300-28258162

> <smiles>
CC(C)(C)OC(=O)N1C[C@@]2(CC[C@H]1C2)C(=O)O

> <IUPAC Name>
(1S,4S)-2-[(tert-butoxy)carbonyl]-2-azabicyclo[2.2.1]heptane-4-carboxylic acid

> <CAS>
2031259-83-1

> <Purity>
95

> <URL>
https://www.enaminestore.com/catalog/EN300-28258162

> <ROCS_ShapeQuery>
__x1247relevant_x1083L0AP1_x1305L0BP1_

> <ROCS_TanimotoCombo>
0.731 

> <ROCS_ShapeTanimoto>
0.517 

> <ROCS_ColorTanimoto>
0.214 

> <ROCS_RefTversky>
0.442 

> <ROCS_RefColorTversky>
0.244 

> <ROCS_RefTverskyCombo>
0.686 

> <ROCS_FitTversky>
1.483 

> <ROCS_FitColorTversky>
0.639 

> <ROCS_FitTverskyCombo>
2.121 

> <ROCS_ColorScore>
-7.983

> <ROCS_Overlap>
1304.490

> <ROCS_Rank>
187                 

$$$$
untitled-dbase-146384_187
  -OEChem-06232314393D

 36 37  0     1  0  0  0  0  0999 V2000
  -13.2058   16.6278  -40.1513 C   0  0  0  0  0  0  0  0  0  0  0  0
  -10.2709   14.7963  -36.6004 C   0  0  0  0  0  0  0  0  0  0  0  0
  -13.7428   14.1813  -38.5778 C   0  0  0  0  0  0  0  0  0  0  0  0
  -12.7460   15.3754  -36.6199 C   0  0  0  0  0  0  0  0  0  0  0  0
  -12.6849   16.3396  -38.7783 C   0  0  1  0  0  0  0  0  0  0  0  0
  -13.6398   15.5528  -37.8641 C   0  0  1  0  0  0  0  0  0  0  0  0
  -11.5970   15.2674  -38.6985 C   0  0  2  0  0  0  0  0  0  0  0  0
  -12.3379   14.0085  -39.1827 C   0  0  1  0  0  0  0  0  0  0  0  0
   -8.8683   12.6119  -36.2546 C   0  0  0  0  0  0  0  0  0  0  0  0
   -7.6398   13.1169  -38.3865 C   0  0  0  0  0  0  0  0  0  0  0  0
   -7.1435   14.4440  -36.3127 C   0  0  0  0  0  0  0  0  0  0  0  0
   -8.2225   13.7059  -37.1037 C   0  0  0  0  0  0  0  0  0  0  0  0
  -11.4424   15.1365  -37.2429 N   0  0  0  0  0  0  0  0  0  0  0  0
  -12.5589   17.1360  -41.0550 O   0  0  0  0  0  0  0  0  0  0  0  0
  -10.1664   14.6452  -35.3857 O   0  0  0  0  0  0  0  0  0  0  0  0
  -14.5028   16.2494  -40.2605 O   0  0  0  0  0  0  0  0  0  0  0  0
   -9.2342   14.6461  -37.4815 O   0  0  0  0  0  0  0  0  0  0  0  0
  -11.7441   12.8882  -38.7110 F   0  0  0  0  0  0  0  0  0  0  0  0
  -14.0066   13.3688  -37.8938 H   0  0  0  0  0  0  0  0  0  0  0  0
  -14.4938   14.2235  -39.3742 H   0  0  0  0  0  0  0  0  0  0  0  0
  -12.6802   16.2879  -36.0184 H   0  0  0  0  0  0  0  0  0  0  0  0
  -13.0281   14.5312  -35.9839 H   0  0  0  0  0  0  0  0  0  0  0  0
  -12.3683   17.2922  -38.3363 H   0  0  0  0  0  0  0  0  0  0  0  0
  -14.6061   16.0185  -37.6613 H   0  0  0  0  0  0  0  0  0  0  0  0
  -10.6526   15.4595  -39.2114 H   0  0  0  0  0  0  0  0  0  0  0  0
  -12.3780   13.9428  -40.2747 H   0  0  0  0  0  0  0  0  0  0  0  0
   -9.2878   13.0307  -35.3329 H   0  0  0  0  0  0  0  0  0  0  0  0
   -9.6677   12.0982  -36.7985 H   0  0  0  0  0  0  0  0  0  0  0  0
   -8.1258   11.8672  -35.9458 H   0  0  0  0  0  0  0  0  0  0  0  0
   -7.1754   13.8983  -38.9989 H   0  0  0  0  0  0  0  0  0  0  0  0
   -8.4273   12.6687  -39.0032 H   0  0  0  0  0  0  0  0  0  0  0  0
   -6.8876   12.3504  -38.1738 H   0  0  0  0  0  0  0  0  0  0  0  0
   -6.6802   15.2287  -36.9216 H   0  0  0  0  0  0  0  0  0  0  0  0
   -7.5513   14.9047  -35.4072 H   0  0  0  0  0  0  0  0  0  0  0  0
   -6.3369   13.7608  -36.0229 H   0  0  0  0  0  0  0  0  0  0  0  0
  -14.8637   16.4320  -41.1542 H   0  0  0  0  0  0  0  0  0  0  0  0
  1  5  1  6  0  0  0
  1 14  2  0  0  0  0
  1 16  1  0  0  0  0
  2 13  1  0  0  0  0
  2 15  2  0  0  0  0
  2 17  1  0  0  0  0
  3  6  1  0  0  0  0
  3  8  1  0  0  0  0
  4  6  1  1  0  0  0
  4 13  1  0  0  0  0
  5  6  1  0  0  0  0
  5  7  1  0  0  0  0
  7  8  1  0  0  0  0
  7 13  1  1  0  0  0
  8 18  1  1  0  0  0
  9 12  1  0  0  0  0
 10 12  1  0  0  0  0
 11 12  1  0  0  0  0
 12 17  1  0  0  0  0
  3 19  1  0  0  0  0
  3 20  1  0  0  0  0
  4 21  1  0  0  0  0
  4 22  1  0  0  0  0
  5 23  1  0  0  0  0
  6 24  1  0  0  0  0
  7 25  1  0  0  0  0
  8 26  1  0  0  0  0
  9 27  1  0  0  0  0
  9 28  1  0  0  0  0
  9 29  1  0  0  0  0
 10 30  1  0  0  0  0
 10 31  1  0  0  0  0
 10 32  1  0  0  0  0
 11 33  1  0  0  0  0
 11 34  1  0  0  0  0
 11 35  1  0  0  0  0
 16 36  1  0  0  0  0
M  END
> <id>
EN300-7443350

> <smiles>
CC(C)(C)OC(=O)N1C[C@@H]2C[C@H](F)[C@H]1[C@H]2C(=O)O |&1:9,11,13,14,r|

> <IUPAC Name>
rac-(1R,4R,6S,7S)-2-[(tert-butoxy)carbonyl]-6-fluoro-2-azabicyclo[2.2.1]heptane-7-carboxylic acid

> <CAS>
2639392-79-1

> <URL>
https://www.enaminestore.com/catalog/EN300-7443350

> <ROCS_ShapeQuery>
__x1247relevant_x1083L0AP1_x1305L0BP1_

> <ROCS_TanimotoCombo>
0.731 

> <ROCS_ShapeTanimoto>
0.507 

> <ROCS_ColorTanimoto>
0.224 

> <ROCS_RefTversky>
0.442 

> <ROCS_RefColorTversky>
0.253 

> <ROCS_RefTverskyCombo>
0.695 

> <ROCS_FitTversky>
1.409 

> <ROCS_FitColorTversky>
0.661 

> <ROCS_FitTverskyCombo>
2.071 

> <ROCS_ColorScore>
-8.269

> <ROCS_Overlap>
1305.081

> <ROCS_Rank>
188                 

$$$$
untitled-dbase-152487_32
  -OEChem-06232314393D

 27 28  0     1  0  0  0  0  0999 V2000
  -13.1684   16.7564  -40.5306 C   0  0  0  0  0  0  0  0  0  0  0  0
  -10.0333   14.9618  -36.3601 C   0  0  0  0  0  0  0  0  0  0  0  0
  -13.4137   16.5307  -38.0722 C   0  0  0  0  0  0  0  0  0  0  0  0
  -12.5567   14.7321  -36.4825 C   0  0  0  0  0  0  0  0  0  0  0  0
  -11.1208   14.3057  -38.4777 C   0  0  0  0  0  0  0  0  0  0  0  0
  -12.5033   16.2873  -39.2719 C   0  0  1  0  0  0  0  0  0  0  0  0
  -13.6354   15.1354  -37.4950 C   0  0  2  0  0  0  0  0  0  0  0  0
  -12.3276   14.7685  -39.3004 C   0  0  2  0  0  0  0  0  0  0  0  0
   -8.8994   15.6170  -37.1081 C   0  0  0  0  0  0  0  0  0  0  0  0
  -11.2100   14.7490  -37.0797 N   0  0  0  0  0  0  0  0  0  0  0  0
  -12.7061   17.5835  -41.3023 O   0  0  0  0  0  0  0  0  0  0  0  0
   -9.8788   14.6443  -35.1783 O   0  0  0  0  0  0  0  0  0  0  0  0
  -13.5036   14.2694  -38.6337 O   0  0  0  0  0  0  0  0  0  0  0  0
  -14.3626   16.1381  -40.7001 O   0  0  0  0  0  0  0  0  0  0  0  0
   -9.2600   15.8790  -38.3769 F   0  0  0  0  0  0  0  0  0  0  0  0
   -8.5511   16.7755  -36.5205 F   0  0  0  0  0  0  0  0  0  0  0  0
   -7.8196   14.8155  -37.1331 F   0  0  0  0  0  0  0  0  0  0  0  0
  -12.9715   17.2155  -37.3410 H   0  0  0  0  0  0  0  0  0  0  0  0
  -14.3738   16.9612  -38.3815 H   0  0  0  0  0  0  0  0  0  0  0  0
  -12.6040   15.3824  -35.6056 H   0  0  0  0  0  0  0  0  0  0  0  0
  -12.7249   13.7004  -36.1518 H   0  0  0  0  0  0  0  0  0  0  0  0
  -11.0908   13.2100  -38.4452 H   0  0  0  0  0  0  0  0  0  0  0  0
  -10.1860   14.6566  -38.9272 H   0  0  0  0  0  0  0  0  0  0  0  0
  -11.5508   16.8215  -39.1913 H   0  0  0  0  0  0  0  0  0  0  0  0
  -14.6327   15.0220  -37.0595 H   0  0  0  0  0  0  0  0  0  0  0  0
  -12.2862   14.3491  -40.3108 H   0  0  0  0  0  0  0  0  0  0  0  0
  -14.5557   15.5085  -39.9730 H   0  0  0  0  0  0  0  0  0  0  0  0
  1  6  1  0  0  0  0
  1 11  2  0  0  0  0
  1 14  1  0  0  0  0
  2  9  1  0  0  0  0
  2 10  1  0  0  0  0
  2 12  2  0  0  0  0
  3  6  1  0  0  0  0
  3  7  1  0  0  0  0
  4  7  1  0  0  0  0
  4 10  1  0  0  0  0
  5  8  1  0  0  0  0
  5 10  1  0  0  0  0
  6  8  1  0  0  0  0
  7 13  1  0  0  0  0
  8 13  1  0  0  0  0
  9 15  1  0  0  0  0
  9 16  1  0  0  0  0
  9 17  1  0  0  0  0
  3 18  1  0  0  0  0
  3 19  1  0  0  0  0
  4 20  1  0  0  0  0
  4 21  1  0  0  0  0
  5 22  1  0  0  0  0
  5 23  1  0  0  0  0
  6 24  1  0  0  0  0
  7 25  1  0  0  0  0
  8 26  1  0  0  0  0
 14 27  1  0  0  0  0
M  END
> <id>
EN300-28279176

> <smiles>
OC(=O)C1CC2CN(CC1O2)C(=O)C(F)(F)F

> <IUPAC Name>
3-(2,2,2-trifluoroacetyl)-8-oxa-3-azabicyclo[3.2.1]octane-6-carboxylic acid

> <CAS>
2680855-26-7

> <URL>
https://www.enaminestore.com/catalog/EN300-28279176

> <ROCS_ShapeQuery>
__x1247relevant_x1083L0AP1_x1305L0BP1_

> <ROCS_TanimotoCombo>
0.731 

> <ROCS_ShapeTanimoto>
0.511 

> <ROCS_ColorTanimoto>
0.220 

> <ROCS_RefTversky>
0.441 

> <ROCS_RefColorTversky>
0.246 

> <ROCS_RefTverskyCombo>
0.687 

> <ROCS_FitTversky>
1.452 

> <ROCS_FitColorTversky>
0.671 

> <ROCS_FitTverskyCombo>
2.123 

> <ROCS_ColorScore>
-8.058

> <ROCS_Overlap>
1300.473

> <ROCS_Rank>
189                 

$$$$
untitled-dbase-86053_91
  -OEChem-06232314393D

 39 40  0     1  0  0  0  0  0999 V2000
  -13.2964   16.4548  -40.3264 C   0  0  0  0  0  0  0  0  0  0  0  0
  -10.0176   15.1227  -36.8373 C   0  0  0  0  0  0  0  0  0  0  0  0
  -13.0288   14.1672  -39.2210 C   0  0  0  0  0  0  0  0  0  0  0  0
  -12.9260   13.7327  -37.7413 C   0  0  0  0  0  0  0  0  0  0  0  0
  -13.4349   16.0500  -37.8195 C   0  0  0  0  0  0  0  0  0  0  0  0
  -11.3064   15.9584  -38.8366 C   0  0  0  0  0  0  0  0  0  0  0  0
  -12.7834   15.6902  -39.1552 C   0  0  2  0  0  0  0  0  0  0  0  0
  -12.5689   15.0541  -37.0289 C   0  0  1  0  0  0  0  0  0  0  0  0
  -12.8326   15.0770  -35.5375 C   0  0  0  0  0  0  0  0  0  0  0  0
   -7.8825   14.1317  -35.2121 C   0  0  0  0  0  0  0  0  0  0  0  0
   -9.4115   12.2057  -34.7003 C   0  0  0  0  0  0  0  0  0  0  0  0
   -8.6563   12.6099  -37.0614 C   0  0  0  0  0  0  0  0  0  0  0  0
   -9.0283   13.2646  -35.7318 C   0  0  0  0  0  0  0  0  0  0  0  0
  -11.2083   15.4305  -37.4736 N   0  0  0  0  0  0  0  0  0  0  0  0
  -12.6109   17.1348  -41.0755 O   0  0  0  0  0  0  0  0  0  0  0  0
   -8.9446   15.6834  -37.0423 O   0  0  0  0  0  0  0  0  0  0  0  0
  -14.6369   16.2973  -40.4509 O   0  0  0  0  0  0  0  0  0  0  0  0
  -10.1735   14.0993  -35.9392 O   0  0  0  0  0  0  0  0  0  0  0  0
  -12.2870   13.6560  -39.8442 H   0  0  0  0  0  0  0  0  0  0  0  0
  -14.0215   13.9276  -39.6196 H   0  0  0  0  0  0  0  0  0  0  0  0
  -13.8897   13.3389  -37.3979 H   0  0  0  0  0  0  0  0  0  0  0  0
  -12.1696   12.9549  -37.5927 H   0  0  0  0  0  0  0  0  0  0  0  0
  -13.2800   17.0946  -37.5238 H   0  0  0  0  0  0  0  0  0  0  0  0
  -14.5080   15.8272  -37.7855 H   0  0  0  0  0  0  0  0  0  0  0  0
  -10.6155   15.4361  -39.5065 H   0  0  0  0  0  0  0  0  0  0  0  0
  -11.0540   17.0245  -38.8184 H   0  0  0  0  0  0  0  0  0  0  0  0
  -12.5526   16.0456  -35.1152 H   0  0  0  0  0  0  0  0  0  0  0  0
  -12.2518   14.2990  -35.0353 H   0  0  0  0  0  0  0  0  0  0  0  0
  -13.8927   14.9038  -35.3346 H   0  0  0  0  0  0  0  0  0  0  0  0
   -7.6044   14.8930  -35.9496 H   0  0  0  0  0  0  0  0  0  0  0  0
   -8.1493   14.6345  -34.2768 H   0  0  0  0  0  0  0  0  0  0  0  0
   -6.9842   13.5286  -35.0367 H   0  0  0  0  0  0  0  0  0  0  0  0
  -10.2333   11.5813  -35.0691 H   0  0  0  0  0  0  0  0  0  0  0  0
   -9.7697   12.6729  -33.7759 H   0  0  0  0  0  0  0  0  0  0  0  0
   -8.5654   11.5557  -34.4551 H   0  0  0  0  0  0  0  0  0  0  0  0
   -9.4780   11.9879  -37.4344 H   0  0  0  0  0  0  0  0  0  0  0  0
   -8.4139   13.3563  -37.8247 H   0  0  0  0  0  0  0  0  0  0  0  0
   -7.7946   11.9435  -36.9399 H   0  0  0  0  0  0  0  0  0  0  0  0
  -14.9948   16.7953  -41.2166 H   0  0  0  0  0  0  0  0  0  0  0  0
  1  7  1  0  0  0  0
  1 15  2  0  0  0  0
  1 17  1  0  0  0  0
  2 14  1  0  0  0  0
  2 16  2  0  0  0  0
  2 18  1  0  0  0  0
  3  4  1  0  0  0  0
  3  7  1  0  0  0  0
  4  8  1  0  0  0  0
  5  7  1  0  0  0  0
  5  8  1  0  0  0  0
  6  7  1  0  0  0  0
  6 14  1  0  0  0  0
  8  9  1  0  0  0  0
  8 14  1  0  0  0  0
 10 13  1  0  0  0  0
 11 13  1  0  0  0  0
 12 13  1  0  0  0  0
 13 18  1  0  0  0  0
  3 19  1  0  0  0  0
  3 20  1  0  0  0  0
  4 21  1  0  0  0  0
  4 22  1  0  0  0  0
  5 23  1  0  0  0  0
  5 24  1  0  0  0  0
  6 25  1  0  0  0  0
  6 26  1  0  0  0  0
  9 27  1  0  0  0  0
  9 28  1  0  0  0  0
  9 29  1  0  0  0  0
 10 30  1  0  0  0  0
 10 31  1  0  0  0  0
 10 32  1  0  0  0  0
 11 33  1  0  0  0  0
 11 34  1  0  0  0  0
 11 35  1  0  0  0  0
 12 36  1  0  0  0  0
 12 37  1  0  0  0  0
 12 38  1  0  0  0  0
 17 39  1  0  0  0  0
M  END
> <id>
EN300-26981131

> <smiles>
CC(C)(C)OC(=O)N1CC2(CCC1(C)C2)C(=O)O

> <MDLNUMBER>
MFCD32702935

> <IUPAC Name>
2-[(tert-butoxy)carbonyl]-1-methyl-2-azabicyclo[2.2.1]heptane-4-carboxylic acid

> <CAS>
2460750-32-5

> <Purity>
95

> <URL>
https://www.enaminestore.com/catalog/EN300-26981131

> <ROCS_ShapeQuery>
__x1247relevant_x1083L0AP1_x1305L0BP1_

> <ROCS_TanimotoCombo>
0.731 

> <ROCS_ShapeTanimoto>
0.517 

> <ROCS_ColorTanimoto>
0.213 

> <ROCS_RefTversky>
0.447 

> <ROCS_RefColorTversky>
0.243 

> <ROCS_RefTverskyCombo>
0.690 

> <ROCS_FitTversky>
1.432 

> <ROCS_FitColorTversky>
0.636 

> <ROCS_FitTverskyCombo>
2.068 

> <ROCS_ColorScore>
-7.953

> <ROCS_Overlap>
1320.642

> <ROCS_Rank>
190                 

$$$$
untitled-dbase-40443_1
  -OEChem-06232314393D

 39 41  0     1  0  0  0  0  0999 V2000
  -13.5941   13.8741  -38.2644 C   0  0  0  0  0  0  0  0  0  0  0  0
  -13.9494   15.0739  -37.3584 C   0  0  0  0  0  0  0  0  0  0  0  0
   -8.6590   14.2367  -37.3902 C   0  0  0  0  0  0  0  0  0  0  0  0
  -11.2246   14.4587  -39.0451 C   0  0  0  0  0  0  0  0  0  0  0  0
  -11.7711   16.4543  -37.4949 C   0  0  0  0  0  0  0  0  0  0  0  0
   -9.6870   13.3708  -36.6698 C   0  0  0  0  0  0  0  0  0  0  0  0
   -9.3692   15.5684  -37.5992 C   0  0  2  0  0  0  0  0  0  0  0  0
  -12.7185   14.3882  -39.4180 C   0  0  2  0  0  0  0  0  0  0  0  0
  -13.2506   16.3264  -37.9137 C   0  0  1  0  0  0  0  0  0  0  0  0
  -10.8744   15.1818  -37.6803 C   0  0  0  0  0  0  0  0  0  0  0  0
  -11.1219   13.5709  -34.2208 C   0  0  0  0  0  0  0  0  0  0  0  0
  -11.0742   14.6780  -35.2181 C   0  0  0  0  0  0  0  0  0  0  0  0
  -10.9422   14.1558  -36.5827 N   0  0  2  0  0  0  0  0  0  0  0  0
   -8.8170   16.3312  -38.7123 N   0  0  0  0  0  0  0  0  0  0  0  0
  -14.7044   16.0000  -40.1088 O   0  0  0  0  0  0  0  0  0  0  0  0
  -12.3397   16.8553  -40.3724 O   0  0  0  0  0  0  0  0  0  0  0  0
  -13.3217   16.0496  -39.6803 S   0  0  0  0  0  0  0  0  0  0  0  0
  -13.1195   13.0594  -37.7095 H   0  0  0  0  0  0  0  0  0  0  0  0
  -14.5263   13.4625  -38.6722 H   0  0  0  0  0  0  0  0  0  0  0  0
  -15.0365   15.2234  -37.4032 H   0  0  0  0  0  0  0  0  0  0  0  0
  -13.7225   14.8820  -36.3089 H   0  0  0  0  0  0  0  0  0  0  0  0
   -7.7445   14.3627  -36.8007 H   0  0  0  0  0  0  0  0  0  0  0  0
   -8.3832   13.7682  -38.3431 H   0  0  0  0  0  0  0  0  0  0  0  0
  -10.8362   13.4330  -39.0525 H   0  0  0  0  0  0  0  0  0  0  0  0
  -10.6971   14.9587  -39.8665 H   0  0  0  0  0  0  0  0  0  0  0  0
  -11.3351   17.2789  -38.0729 H   0  0  0  0  0  0  0  0  0  0  0  0
  -11.7285   16.8131  -36.4611 H   0  0  0  0  0  0  0  0  0  0  0  0
   -9.8725   12.4540  -37.2414 H   0  0  0  0  0  0  0  0  0  0  0  0
   -9.3119   13.0436  -35.6924 H   0  0  0  0  0  0  0  0  0  0  0  0
   -9.2088   16.1861  -36.6899 H   0  0  0  0  0  0  0  0  0  0  0  0
  -12.8654   13.8113  -40.3353 H   0  0  0  0  0  0  0  0  0  0  0  0
  -13.8023   17.2415  -37.6812 H   0  0  0  0  0  0  0  0  0  0  0  0
  -10.1976   12.9781  -34.2858 H   0  0  0  0  0  0  0  0  0  0  0  0
  -11.2164   13.9927  -33.2092 H   0  0  0  0  0  0  0  0  0  0  0  0
  -11.9871   12.9251  -34.4311 H   0  0  0  0  0  0  0  0  0  0  0  0
  -12.0013   15.2657  -35.1468 H   0  0  0  0  0  0  0  0  0  0  0  0
  -10.2123   15.3244  -34.9961 H   0  0  0  0  0  0  0  0  0  0  0  0
   -9.3000   17.1975  -38.7692 H   0  0  0  0  0  0  0  0  0  0  0  0
   -7.8503   16.4819  -38.5396 H   0  0  0  0  0  0  0  0  0  0  0  0
  1  2  1  0  0  0  0
  1  8  1  0  0  0  0
  2  9  1  0  0  0  0
  3  6  1  0  0  0  0
  3  7  1  0  0  0  0
  4  8  1  0  0  0  0
  4 10  1  0  0  0  0
  5  9  1  0  0  0  0
  5 10  1  0  0  0  0
  6 13  1  0  0  0  0
  7 10  1  0  0  0  0
  7 14  1  0  0  0  0
  8 17  1  0  0  0  0
  9 17  1  0  0  0  0
 10 13  1  0  0  0  0
 11 12  1  0  0  0  0
 12 13  1  0  0  0  0
 15 17  2  0  0  0  0
 16 17  2  0  0  0  0
  1 18  1  0  0  0  0
  1 19  1  0  0  0  0
  2 20  1  0  0  0  0
  2 21  1  0  0  0  0
  3 22  1  0  0  0  0
  3 23  1  0  0  0  0
  4 24  1  0  0  0  0
  4 25  1  0  0  0  0
  5 26  1  0  0  0  0
  5 27  1  0  0  0  0
  6 28  1  0  0  0  0
  6 29  1  0  0  0  0
  7 30  1  0  0  0  0
  8 31  1  0  0  0  0
  9 32  1  0  0  0  0
 11 33  1  0  0  0  0
 11 34  1  0  0  0  0
 11 35  1  0  0  0  0
 12 36  1  0  0  0  0
 12 37  1  0  0  0  0
 14 38  1  0  0  0  0
 14 39  1  0  0  0  0
M  END
> <id>
EN300-785651

> <smiles>
CCN1CCC(N)C21CC3CCC(C2)S3(=O)=O

> <IUPAC Name>
3'-amino-1'-ethyl-8lambda6-thiaspiro[bicyclo[3.2.1]octane-3,2'-pyrrolidine]-8,8-dione

> <CAS>
2137509-89-6

> <URL>
https://www.enaminestore.com/catalog/EN300-785651

> <ROCS_ShapeQuery>
__x1247relevant_x1083L0AP1_x1305L0BP1_

> <ROCS_TanimotoCombo>
0.731 

> <ROCS_ShapeTanimoto>
0.503 

> <ROCS_ColorTanimoto>
0.228 

> <ROCS_RefTversky>
0.431 

> <ROCS_RefColorTversky>
0.257 

> <ROCS_RefTverskyCombo>
0.688 

> <ROCS_FitTversky>
1.501 

> <ROCS_FitColorTversky>
0.662 

> <ROCS_FitTverskyCombo>
2.163 

> <ROCS_ColorScore>
-8.430

> <ROCS_Overlap>
1269.666

> <ROCS_Rank>
191                 

$$$$
untitled-dbase-50317_3
  -OEChem-06232314393D

 31 33  0     1  0  0  0  0  0999 V2000
  -10.1650   15.2576  -36.9493 C   0  0  0  0  0  0  0  0  0  0  0  0
  -14.1087   14.4705  -37.3580 C   0  0  0  0  0  0  0  0  0  0  0  0
  -13.4227   15.6423  -36.6463 C   0  0  0  0  0  0  0  0  0  0  0  0
  -11.8918   13.9008  -38.2637 C   0  0  0  0  0  0  0  0  0  0  0  0
  -11.9214   16.0111  -40.0697 C   0  0  0  0  0  0  0  0  0  0  0  0
  -13.3088   14.3664  -38.6614 C   0  0  2  0  0  0  0  0  0  0  0  0
  -11.2404   15.2662  -37.9788 C   0  0  1  0  0  0  0  0  0  0  0  0
  -12.4436   16.2081  -37.7023 C   0  0  1  0  0  0  0  0  0  0  0  0
  -13.0785   15.8581  -39.0629 C   0  0  1  0  0  0  0  0  0  0  0  0
  -12.1133   17.6745  -37.4440 C   0  0  0  0  0  0  0  0  0  0  0  0
  -14.3234   16.6185  -39.4921 C   0  0  0  0  0  0  0  0  0  0  0  0
  -10.7122   15.7778  -39.2564 N   0  0  0  0  0  0  0  0  0  0  0  0
   -9.0060   15.5935  -37.1423 O   0  0  0  0  0  0  0  0  0  0  0  0
  -10.6451   14.8213  -35.7592 O   0  0  0  0  0  0  0  0  0  0  0  0
  -14.0753   13.5539  -36.7604 H   0  0  0  0  0  0  0  0  0  0  0  0
  -15.1622   14.6961  -37.5539 H   0  0  0  0  0  0  0  0  0  0  0  0
  -14.1732   16.3811  -36.3431 H   0  0  0  0  0  0  0  0  0  0  0  0
  -12.8942   15.3130  -35.7452 H   0  0  0  0  0  0  0  0  0  0  0  0
  -11.8864   13.2303  -37.3969 H   0  0  0  0  0  0  0  0  0  0  0  0
  -11.4027   13.3631  -39.0852 H   0  0  0  0  0  0  0  0  0  0  0  0
  -12.0022   15.2873  -40.8881 H   0  0  0  0  0  0  0  0  0  0  0  0
  -11.8708   17.0180  -40.4962 H   0  0  0  0  0  0  0  0  0  0  0  0
  -13.7798   13.7370  -39.4196 H   0  0  0  0  0  0  0  0  0  0  0  0
  -11.4234   18.0392  -38.2044 H   0  0  0  0  0  0  0  0  0  0  0  0
  -11.6509   17.7837  -36.4636 H   0  0  0  0  0  0  0  0  0  0  0  0
  -13.0242   18.2714  -37.4755 H   0  0  0  0  0  0  0  0  0  0  0  0
  -15.1174   16.4857  -38.7557 H   0  0  0  0  0  0  0  0  0  0  0  0
  -14.6743   16.2505  -40.4573 H   0  0  0  0  0  0  0  0  0  0  0  0
  -14.1014   17.6830  -39.5813 H   0  0  0  0  0  0  0  0  0  0  0  0
  -10.1126   15.0885  -39.7076 H   0  0  0  0  0  0  0  0  0  0  0  0
   -9.9501   14.8066  -35.0670 H   0  0  0  0  0  0  0  0  0  0  0  0
  1  7  1  1  0  0  0
  1 13  2  0  0  0  0
  1 14  1  0  0  0  0
  2  3  1  0  0  0  0
  2  6  1  0  0  0  0
  3  8  1  0  0  0  0
  4  6  1  1  0  0  0
  4  7  1  0  0  0  0
  5  9  1  0  0  0  0
  5 12  1  0  0  0  0
  6  9  1  0  0  0  0
  7  8  1  0  0  0  0
  7 12  1  0  0  0  0
  8  9  1  0  0  0  0
  8 10  1  6  0  0  0
  9 11  1  6  0  0  0
  2 15  1  0  0  0  0
  2 16  1  0  0  0  0
  3 17  1  0  0  0  0
  3 18  1  0  0  0  0
  4 19  1  0  0  0  0
  4 20  1  0  0  0  0
  5 21  1  0  0  0  0
  5 22  1  0  0  0  0
  6 23  1  0  0  0  0
 10 24  1  0  0  0  0
 10 25  1  0  0  0  0
 10 26  1  0  0  0  0
 11 27  1  0  0  0  0
 11 28  1  0  0  0  0
 11 29  1  0  0  0  0
 12 30  1  0  0  0  0
 14 31  1  0  0  0  0
M  END
> <id>
EN300-86491

> <smiles>
Cl.C[C@@]12CN[C@@]3(C[C@H]2CC[C@]13C)C(=O)O

> <MDLNUMBER>
MFCD08457557

> <IUPAC Name>
(1R,3R,6S,7R)-6,7-dimethyl-4-azatricyclo[4.3.0.0,3,7]nonane-3-carboxylic acid hydrochloride

> <CAS>
1955474-04-0

> <URL>
https://www.enaminestore.com/catalog/EN300-86491

> <Saltdate>
Cl

> <ROCS_ShapeQuery>
__x1247relevant_x1083L0AP1_x1305L0BP1_

> <ROCS_TanimotoCombo>
0.731 

> <ROCS_ShapeTanimoto>
0.509 

> <ROCS_ColorTanimoto>
0.222 

> <ROCS_RefTversky>
0.426 

> <ROCS_RefColorTversky>
0.281 

> <ROCS_RefTverskyCombo>
0.707 

> <ROCS_FitTversky>
1.627 

> <ROCS_FitColorTversky>
0.510 

> <ROCS_FitTverskyCombo>
2.137 

> <ROCS_ColorScore>
-9.295

> <ROCS_Overlap>
1252.571

> <ROCS_Rank>
192                 

$$$$
untitled-dbase-57610_3
  -OEChem-06232314393D

 31 33  0     1  0  0  0  0  0999 V2000
  -10.1650   15.2576  -36.9493 C   0  0  0  0  0  0  0  0  0  0  0  0
  -14.1087   14.4705  -37.3580 C   0  0  0  0  0  0  0  0  0  0  0  0
  -13.4227   15.6423  -36.6463 C   0  0  0  0  0  0  0  0  0  0  0  0
  -11.8918   13.9008  -38.2637 C   0  0  0  0  0  0  0  0  0  0  0  0
  -11.9214   16.0111  -40.0697 C   0  0  0  0  0  0  0  0  0  0  0  0
  -13.3088   14.3664  -38.6614 C   0  0  2  0  0  0  0  0  0  0  0  0
  -11.2404   15.2662  -37.9788 C   0  0  1  0  0  0  0  0  0  0  0  0
  -12.4436   16.2081  -37.7023 C   0  0  1  0  0  0  0  0  0  0  0  0
  -13.0785   15.8581  -39.0629 C   0  0  1  0  0  0  0  0  0  0  0  0
  -12.1133   17.6745  -37.4440 C   0  0  0  0  0  0  0  0  0  0  0  0
  -14.3234   16.6185  -39.4921 C   0  0  0  0  0  0  0  0  0  0  0  0
  -10.7122   15.7778  -39.2564 N   0  0  0  0  0  0  0  0  0  0  0  0
   -9.0060   15.5935  -37.1423 O   0  0  0  0  0  0  0  0  0  0  0  0
  -10.6451   14.8213  -35.7592 O   0  0  0  0  0  0  0  0  0  0  0  0
  -14.0753   13.5539  -36.7604 H   0  0  0  0  0  0  0  0  0  0  0  0
  -15.1622   14.6961  -37.5539 H   0  0  0  0  0  0  0  0  0  0  0  0
  -14.1732   16.3811  -36.3431 H   0  0  0  0  0  0  0  0  0  0  0  0
  -12.8942   15.3130  -35.7452 H   0  0  0  0  0  0  0  0  0  0  0  0
  -11.8864   13.2303  -37.3969 H   0  0  0  0  0  0  0  0  0  0  0  0
  -11.4027   13.3631  -39.0852 H   0  0  0  0  0  0  0  0  0  0  0  0
  -12.0022   15.2873  -40.8881 H   0  0  0  0  0  0  0  0  0  0  0  0
  -11.8708   17.0180  -40.4962 H   0  0  0  0  0  0  0  0  0  0  0  0
  -13.7798   13.7370  -39.4196 H   0  0  0  0  0  0  0  0  0  0  0  0
  -11.4234   18.0392  -38.2044 H   0  0  0  0  0  0  0  0  0  0  0  0
  -11.6509   17.7837  -36.4636 H   0  0  0  0  0  0  0  0  0  0  0  0
  -13.0242   18.2714  -37.4755 H   0  0  0  0  0  0  0  0  0  0  0  0
  -15.1174   16.4857  -38.7557 H   0  0  0  0  0  0  0  0  0  0  0  0
  -14.6743   16.2505  -40.4573 H   0  0  0  0  0  0  0  0  0  0  0  0
  -14.1014   17.6830  -39.5813 H   0  0  0  0  0  0  0  0  0  0  0  0
  -10.1126   15.0885  -39.7076 H   0  0  0  0  0  0  0  0  0  0  0  0
   -9.9501   14.8066  -35.0670 H   0  0  0  0  0  0  0  0  0  0  0  0
  1  7  1  1  0  0  0
  1 13  2  0  0  0  0
  1 14  1  0  0  0  0
  2  3  1  0  0  0  0
  2  6  1  0  0  0  0
  3  8  1  0  0  0  0
  4  6  1  1  0  0  0
  4  7  1  0  0  0  0
  5  9  1  0  0  0  0
  5 12  1  0  0  0  0
  6  9  1  0  0  0  0
  7  8  1  0  0  0  0
  7 12  1  0  0  0  0
  8  9  1  0  0  0  0
  8 10  1  6  0  0  0
  9 11  1  6  0  0  0
  2 15  1  0  0  0  0
  2 16  1  0  0  0  0
  3 17  1  0  0  0  0
  3 18  1  0  0  0  0
  4 19  1  0  0  0  0
  4 20  1  0  0  0  0
  5 21  1  0  0  0  0
  5 22  1  0  0  0  0
  6 23  1  0  0  0  0
 10 24  1  0  0  0  0
 10 25  1  0  0  0  0
 10 26  1  0  0  0  0
 11 27  1  0  0  0  0
 11 28  1  0  0  0  0
 11 29  1  0  0  0  0
 12 30  1  0  0  0  0
 14 31  1  0  0  0  0
M  END
> <id>
EN300-146950

> <smiles>
C[C@@]12CN[C@@]3(C[C@H]2CC[C@]13C)C(=O)O

> <MDLNUMBER>
MFCD08444517

> <IUPAC Name>
(1R,3R,6S,7R)-6,7-dimethyl-4-azatricyclo[4.3.0.0,3,7]nonane-3-carboxylic acid

> <CAS>
1212822-58-6

> <URL>
https://www.enaminestore.com/catalog/EN300-146950

> <ROCS_ShapeQuery>
__x1247relevant_x1083L0AP1_x1305L0BP1_

> <ROCS_TanimotoCombo>
0.731 

> <ROCS_ShapeTanimoto>
0.509 

> <ROCS_ColorTanimoto>
0.222 

> <ROCS_RefTversky>
0.426 

> <ROCS_RefColorTversky>
0.281 

> <ROCS_RefTverskyCombo>
0.707 

> <ROCS_FitTversky>
1.627 

> <ROCS_FitColorTversky>
0.510 

> <ROCS_FitTverskyCombo>
2.137 

> <ROCS_ColorScore>
-9.295

> <ROCS_Overlap>
1252.571

> <ROCS_Rank>
193                 

$$$$
untitled-dbase-92110_7
  -OEChem-06232314393D

 27 29  0     1  0  0  0  0  0999 V2000
  -11.0515   13.7354  -35.0734 C   0  0  0  0  0  0  0  0  0  0  0  0
  -11.5054   14.4399  -36.1082 C   0  0  0  0  0  0  0  0  0  0  0  0
   -9.6956   13.1451  -35.2210 C   0  0  0  0  0  0  0  0  0  0  0  0
   -9.4806   14.0470  -37.3738 C   0  0  0  0  0  0  0  0  0  0  0  0
  -14.0688   14.9432  -37.8168 C   0  0  0  0  0  0  0  0  0  0  0  0
  -13.4964   16.2155  -38.4263 C   0  0  2  0  0  0  0  0  0  0  0  0
  -12.2894   14.6180  -39.2440 C   0  0  1  0  0  0  0  0  0  0  0  0
  -13.1474   15.7245  -39.8150 C   0  0  2  0  0  0  0  0  0  0  0  0
  -11.3457   15.4019  -38.3323 C   0  0  2  0  0  0  0  0  0  0  0  0
   -8.9901   13.3107  -36.3089 N   0  0  0  0  0  0  0  0  0  0  0  0
  -10.7725   14.6279  -37.2723 N   0  0  0  0  0  0  0  0  0  0  0  0
   -9.1895   12.4098  -34.1743 N   0  0  0  0  0  0  0  0  0  0  0  0
   -8.8017   14.1923  -38.3919 O   0  0  0  0  0  0  0  0  0  0  0  0
  -13.2308   13.9076  -38.3993 O   0  0  0  0  0  0  0  0  0  0  0  0
  -12.2098   16.4258  -37.7859 O   0  0  0  0  0  0  0  0  0  0  0  0
  -12.4392   16.6790  -40.5712 O   0  0  0  0  0  0  0  0  0  0  0  0
  -11.6194   13.5867  -34.1648 H   0  0  0  0  0  0  0  0  0  0  0  0
  -12.4848   14.9047  -36.0845 H   0  0  0  0  0  0  0  0  0  0  0  0
  -13.9741   14.8979  -36.7283 H   0  0  0  0  0  0  0  0  0  0  0  0
  -15.1025   14.7541  -38.1205 H   0  0  0  0  0  0  0  0  0  0  0  0
  -14.1121   17.1122  -38.3435 H   0  0  0  0  0  0  0  0  0  0  0  0
  -11.7936   13.9519  -39.9527 H   0  0  0  0  0  0  0  0  0  0  0  0
  -14.0243   15.3738  -40.3705 H   0  0  0  0  0  0  0  0  0  0  0  0
  -10.5362   15.8918  -38.8830 H   0  0  0  0  0  0  0  0  0  0  0  0
   -8.2849   12.0171  -34.2753 H   0  0  0  0  0  0  0  0  0  0  0  0
   -9.7513   12.3043  -33.3643 H   0  0  0  0  0  0  0  0  0  0  0  0
  -13.0050   17.4686  -40.6498 H   0  0  0  0  0  0  0  0  0  0  0  0
  1  2  2  0  0  0  0
  1  3  1  0  0  0  0
  2 11  1  0  0  0  0
  3 10  2  0  0  0  0
  3 12  1  0  0  0  0
  4 10  1  0  0  0  0
  4 11  1  0  0  0  0
  4 13  2  0  0  0  0
  5  6  1  1  0  0  0
  5 14  1  0  0  0  0
  6  8  1  0  0  0  0
  6 15  1  0  0  0  0
  7  8  1  0  0  0  0
  7  9  1  0  0  0  0
  7 14  1  1  0  0  0
  8 16  1  1  0  0  0
  9 11  1  1  0  0  0
  9 15  1  0  0  0  0
  1 17  1  0  0  0  0
  2 18  1  0  0  0  0
  5 19  1  0  0  0  0
  5 20  1  0  0  0  0
  6 21  1  0  0  0  0
  7 22  1  0  0  0  0
  8 23  1  0  0  0  0
  9 24  1  0  0  0  0
 12 25  1  0  0  0  0
 12 26  1  0  0  0  0
 16 27  1  0  0  0  0
M  END
> <id>
EN300-6744223

> <smiles>
NC=1C=CN([C@@H]2O[C@@H]3CO[C@H]2[C@@H]3O)C(=O)N1

> <MDLNUMBER>
MFCD31924618

> <IUPAC Name>
4-amino-1-[(1R,3R,4S,7R)-7-hydroxy-2,5-dioxabicyclo[2.2.1]heptan-3-yl]-1,2-dihydropyrimidin-2-one

> <CAS>
32830-01-6

> <Purity>
95

> <URL>
https://www.enaminestore.com/catalog/EN300-6744223

> <MP>
255-258

> <ROCS_ShapeQuery>
__x1247relevant_x1083L0AP1_x1305L0BP1_

> <ROCS_TanimotoCombo>
0.730 

> <ROCS_ShapeTanimoto>
0.503 

> <ROCS_ColorTanimoto>
0.227 

> <ROCS_RefTversky>
0.434 

> <ROCS_RefColorTversky>
0.282 

> <ROCS_RefTverskyCombo>
0.716 

> <ROCS_FitTversky>
1.465 

> <ROCS_FitColorTversky>
0.537 

> <ROCS_FitTverskyCombo>
2.002 

> <ROCS_ColorScore>
-9.315

> <ROCS_Overlap>
1279.982

> <ROCS_Rank>
194                 

$$$$
untitled-dbase-44645_12
  -OEChem-06232314393D

 37 39  0     1  0  0  0  0  0999 V2000
  -12.0268   14.9170  -39.8070 C   0  0  0  0  0  0  0  0  0  0  0  0
  -12.3762   16.8264  -38.2853 C   0  0  0  0  0  0  0  0  0  0  0  0
   -8.7690   15.1245  -36.6755 C   0  0  0  0  0  0  0  0  0  0  0  0
  -13.4676   14.4947  -39.4777 C   0  0  0  0  0  0  0  0  0  0  0  0
  -13.7468   16.2700  -37.8732 C   0  0  0  0  0  0  0  0  0  0  0  0
   -9.0923   13.9005  -37.5295 C   0  0  0  0  0  0  0  0  0  0  0  0
  -12.8516   14.1364  -37.1820 C   0  0  0  0  0  0  0  0  0  0  0  0
  -11.4269   15.6483  -38.5921 C   0  0  0  0  0  0  0  0  0  0  0  0
   -9.8276   15.3849  -35.6082 C   0  0  2  0  0  0  0  0  0  0  0  0
  -11.4036   14.6931  -37.3548 C   0  0  2  0  0  0  0  0  0  0  0  0
   -8.5047   14.2892  -33.7871 C   0  0  0  0  0  0  0  0  0  0  0  0
   -9.8250   14.3489  -34.4867 C   0  0  0  0  0  0  0  0  0  0  0  0
  -10.5046   13.5457  -37.5066 N   0  0  0  0  0  0  0  0  0  0  0  0
  -13.8257   14.8087  -38.0767 N   0  0  0  0  0  0  0  0  0  0  0  0
  -11.1395   15.4770  -36.1688 O   0  0  0  0  0  0  0  0  0  0  0  0
  -11.4257   14.0499  -40.0967 H   0  0  0  0  0  0  0  0  0  0  0  0
  -12.0364   15.5895  -40.6736 H   0  0  0  0  0  0  0  0  0  0  0  0
  -12.4813   17.4592  -39.1746 H   0  0  0  0  0  0  0  0  0  0  0  0
  -11.9724   17.4611  -37.4895 H   0  0  0  0  0  0  0  0  0  0  0  0
   -7.7863   14.9614  -36.1928 H   0  0  0  0  0  0  0  0  0  0  0  0
   -8.6489   16.0116  -37.3236 H   0  0  0  0  0  0  0  0  0  0  0  0
  -14.1714   14.9892  -40.1597 H   0  0  0  0  0  0  0  0  0  0  0  0
  -13.5903   13.4196  -39.6599 H   0  0  0  0  0  0  0  0  0  0  0  0
  -13.9509   16.5087  -36.8214 H   0  0  0  0  0  0  0  0  0  0  0  0
  -14.5382   16.7685  -38.4466 H   0  0  0  0  0  0  0  0  0  0  0  0
   -8.7473   14.0601  -38.5690 H   0  0  0  0  0  0  0  0  0  0  0  0
   -8.5046   13.0408  -37.1576 H   0  0  0  0  0  0  0  0  0  0  0  0
  -12.8996   13.0576  -37.3854 H   0  0  0  0  0  0  0  0  0  0  0  0
  -13.1884   14.2458  -36.1424 H   0  0  0  0  0  0  0  0  0  0  0  0
  -10.4361   16.0451  -38.8377 H   0  0  0  0  0  0  0  0  0  0  0  0
   -9.6032   16.3822  -35.1169 H   0  0  0  0  0  0  0  0  0  0  0  0
   -7.7149   14.0417  -34.5061 H   0  0  0  0  0  0  0  0  0  0  0  0
   -8.5104   13.5174  -33.0101 H   0  0  0  0  0  0  0  0  0  0  0  0
   -8.2606   15.2556  -33.3336 H   0  0  0  0  0  0  0  0  0  0  0  0
  -10.6087   14.5963  -33.7634 H   0  0  0  0  0  0  0  0  0  0  0  0
  -10.0606   13.3642  -34.9028 H   0  0  0  0  0  0  0  0  0  0  0  0
  -10.7386   12.9977  -38.3441 H   0  0  0  0  0  0  0  0  0  0  0  0
  1  4  1  0  0  0  0
  1  8  1  0  0  0  0
  2  5  1  0  0  0  0
  2  8  1  0  0  0  0
  3  6  1  0  0  0  0
  3  9  1  0  0  0  0
  4 14  1  0  0  0  0
  5 14  1  0  0  0  0
  6 13  1  0  0  0  0
  7 10  1  0  0  0  0
  7 14  1  0  0  0  0
  8 10  1  0  0  0  0
  9 12  1  0  0  0  0
  9 15  1  0  0  0  0
 10 13  1  0  0  0  0
 10 15  1  0  0  0  0
 11 12  1  0  0  0  0
  1 16  1  0  0  0  0
  1 17  1  0  0  0  0
  2 18  1  0  0  0  0
  2 19  1  0  0  0  0
  3 20  1  0  0  0  0
  3 21  1  0  0  0  0
  4 22  1  0  0  0  0
  4 23  1  0  0  0  0
  5 24  1  0  0  0  0
  5 25  1  0  0  0  0
  6 26  1  0  0  0  0
  6 27  1  0  0  0  0
  7 28  1  0  0  0  0
  7 29  1  0  0  0  0
  8 30  1  0  0  0  0
  9 31  1  0  0  0  0
 11 32  1  0  0  0  0
 11 33  1  0  0  0  0
 11 34  1  0  0  0  0
 12 35  1  0  0  0  0
 12 36  1  0  0  0  0
 13 37  1  0  0  0  0
M  END
> <id>
EN300-1278709

> <smiles>
CCC1CCNC2(CN3CCC2CC3)O1

> <IUPAC Name>
6'-ethyl-4-azaspiro[bicyclo[2.2.2]octane-2,2'-[1,3]oxazinane]

> <CAS>
2168716-77-4

> <URL>
https://www.enaminestore.com/catalog/EN300-1278709

> <ROCS_ShapeQuery>
__x1247relevant_x1083L0AP1_x1305L0BP1_

> <ROCS_TanimotoCombo>
0.730 

> <ROCS_ShapeTanimoto>
0.494 

> <ROCS_ColorTanimoto>
0.236 

> <ROCS_RefTversky>
0.419 

> <ROCS_RefColorTversky>
0.268 

> <ROCS_RefTverskyCombo>
0.687 

> <ROCS_FitTversky>
1.568 

> <ROCS_FitColorTversky>
0.666 

> <ROCS_FitTverskyCombo>
2.235 

> <ROCS_ColorScore>
-8.769

> <ROCS_Overlap>
1234.670

> <ROCS_Rank>
195                 

$$$$
untitled-dbase-24682_56
  -OEChem-06232314393D

 47 51  0     1  0  0  0  0  0999 V2000
  -14.4013   15.5174  -37.7521 C   0  0  0  0  0  0  0  0  0  0  0  0
  -13.3535   15.5376  -36.9089 C   0  0  0  0  0  0  0  0  0  0  0  0
   -8.0606   13.7830  -35.8526 C   0  0  0  0  0  0  0  0  0  0  0  0
  -11.9450   16.0720  -39.5047 C   0  0  0  0  0  0  0  0  0  0  0  0
   -7.2590   13.3767  -34.8618 C   0  0  0  0  0  0  0  0  0  0  0  0
  -10.7767   11.9151  -38.6722 C   0  0  0  0  0  0  0  0  0  0  0  0
   -9.0555   12.8917  -36.5658 C   0  0  0  0  0  0  0  0  0  0  0  0
  -10.4242   15.5639  -35.3931 C   0  0  0  0  0  0  0  0  0  0  0  0
   -9.0288   16.1320  -35.6658 C   0  0  0  0  0  0  0  0  0  0  0  0
   -8.7914   14.8893  -37.7860 C   0  0  0  0  0  0  0  0  0  0  0  0
  -14.2383   15.0794  -39.1970 C   0  0  2  0  0  0  0  0  0  0  0  0
  -10.6966   13.4106  -38.5979 C   0  0  1  0  0  0  0  0  0  0  0  0
  -10.9691   14.5754  -36.4384 C   0  0  1  0  0  0  0  0  0  0  0  0
  -12.1245   13.9869  -38.4398 C   0  0  1  0  0  0  0  0  0  0  0  0
  -11.9978   15.1285  -37.4246 C   0  0  1  0  0  0  0  0  0  0  0  0
   -8.1222   15.1752  -36.4487 C   0  0  2  0  0  0  0  0  0  0  0  0
  -12.7531   14.7800  -39.5879 C   0  0  2  0  0  0  0  0  0  0  0  0
   -9.9006   13.9084  -37.3650 C   0  0  1  0  0  0  0  0  0  0  0  0
  -12.6396   14.1194  -40.9549 C   0  0  0  0  0  0  0  0  0  0  0  0
  -11.7371   16.8653  -40.4082 O   0  0  0  0  0  0  0  0  0  0  0  0
  -10.8805   11.2682  -39.7037 O   0  0  0  0  0  0  0  0  0  0  0  0
  -11.4984   16.2259  -38.2099 O   0  0  0  0  0  0  0  0  0  0  0  0
  -10.7208   11.3706  -37.4322 O   0  0  0  0  0  0  0  0  0  0  0  0
  -14.7799   16.0684  -40.0683 O   0  0  0  0  0  0  0  0  0  0  0  0
   -6.8428   15.7419  -36.6605 O   0  0  0  0  0  0  0  0  0  0  0  0
  -15.3831   15.8237  -37.4072 H   0  0  0  0  0  0  0  0  0  0  0  0
  -13.4727   15.8669  -35.8845 H   0  0  0  0  0  0  0  0  0  0  0  0
   -6.5691   14.0667  -34.3940 H   0  0  0  0  0  0  0  0  0  0  0  0
   -7.2891   12.3524  -34.5144 H   0  0  0  0  0  0  0  0  0  0  0  0
   -8.4940   12.2200  -37.2245 H   0  0  0  0  0  0  0  0  0  0  0  0
   -9.6525   12.2922  -35.8723 H   0  0  0  0  0  0  0  0  0  0  0  0
  -10.4427   15.0941  -34.3889 H   0  0  0  0  0  0  0  0  0  0  0  0
  -11.1153   16.4251  -35.2970 H   0  0  0  0  0  0  0  0  0  0  0  0
   -9.1397   17.0832  -36.2070 H   0  0  0  0  0  0  0  0  0  0  0  0
   -8.5566   16.4074  -34.7108 H   0  0  0  0  0  0  0  0  0  0  0  0
   -9.1733   15.7960  -38.2764 H   0  0  0  0  0  0  0  0  0  0  0  0
   -8.0921   14.4286  -38.5023 H   0  0  0  0  0  0  0  0  0  0  0  0
  -14.8347   14.1640  -39.3317 H   0  0  0  0  0  0  0  0  0  0  0  0
  -10.2223   13.7456  -39.5142 H   0  0  0  0  0  0  0  0  0  0  0  0
  -11.4793   13.7519  -35.8743 H   0  0  0  0  0  0  0  0  0  0  0  0
  -12.8129   13.1857  -38.0809 H   0  0  0  0  0  0  0  0  0  0  0  0
  -13.2283   13.2020  -40.9765 H   0  0  0  0  0  0  0  0  0  0  0  0
  -11.5982   13.8758  -41.1666 H   0  0  0  0  0  0  0  0  0  0  0  0
  -13.0087   14.7943  -41.7276 H   0  0  0  0  0  0  0  0  0  0  0  0
  -10.7736   10.3914  -37.4593 H   0  0  0  0  0  0  0  0  0  0  0  0
  -15.7188   16.1544  -39.8403 H   0  0  0  0  0  0  0  0  0  0  0  0
   -6.3680   15.1556  -37.2744 H   0  0  0  0  0  0  0  0  0  0  0  0
  1  2  2  0  0  0  0
  1 11  1  0  0  0  0
  2 15  1  0  0  0  0
  3  5  2  0  0  0  0
  3  7  1  0  0  0  0
  3 16  1  0  0  0  0
  4 17  1  0  0  0  0
  4 20  2  0  0  0  0
  4 22  1  0  0  0  0
  6 12  1  6  0  0  0
  6 21  2  0  0  0  0
  6 23  1  0  0  0  0
  7 18  1  0  0  0  0
  8  9  1  0  0  0  0
  8 13  1  0  0  0  0
  9 16  1  0  0  0  0
 10 16  1  0  0  0  0
 10 18  1  0  0  0  0
 11 17  1  0  0  0  0
 11 24  1  0  0  0  0
 12 14  1  0  0  0  0
 12 18  1  0  0  0  0
 13 15  1  0  0  0  0
 13 18  1  0  0  0  0
 14 15  1  0  0  0  0
 14 17  1  0  0  0  0
 15 22  1  0  0  0  0
 16 25  1  1  0  0  0
 17 19  1  0  0  0  0
  1 26  1  0  0  0  0
  2 27  1  0  0  0  0
  5 28  1  0  0  0  0
  5 29  1  0  0  0  0
  7 30  1  0  0  0  0
  7 31  1  0  0  0  0
  8 32  1  0  0  0  0
  8 33  1  0  0  0  0
  9 34  1  0  0  0  0
  9 35  1  0  0  0  0
 10 36  1  0  0  0  0
 10 37  1  0  0  0  0
 11 38  1  0  0  0  0
 12 39  1  0  0  0  0
 13 40  1  0  0  0  0
 14 41  1  0  0  0  0
 19 42  1  0  0  0  0
 19 43  1  0  0  0  0
 19 44  1  0  0  0  0
 23 45  1  0  0  0  0
 24 46  1  0  0  0  0
 25 47  1  0  0  0  0
M  END
> <id>
EN300-35037

> <smiles>
CC1(C2[C@H](C(=O)O)C3(CC(=C)[C@@]4(O)C3)C(CC4)C52OC1=O)C(O)C=C5

> <MDLNUMBER>
MFCD34184086

> <IUPAC Name>
(5S,9S)-5,12-dihydroxy-11-methyl-6-methylidene-16-oxo-15-oxapentacyclo[9.3.2.1^{5,8}.0^{1,10}.0^{2,8}]heptadec-13-ene-9-carboxylic acid

> <Purity>
95

> <URL>
https://www.enaminestore.com/catalog/EN300-35037

> <ROCS_ShapeQuery>
__x1247relevant_x1083L0AP1_x1305L0BP1_

> <ROCS_TanimotoCombo>
0.730 

> <ROCS_ShapeTanimoto>
0.536 

> <ROCS_ColorTanimoto>
0.194 

> <ROCS_RefTversky>
0.499 

> <ROCS_RefColorTversky>
0.267 

> <ROCS_RefTverskyCombo>
0.766 

> <ROCS_FitTversky>
1.165 

> <ROCS_FitColorTversky>
0.415 

> <ROCS_FitTverskyCombo>
1.580 

> <ROCS_ColorScore>
-8.869

> <ROCS_Overlap>
1480.726

> <ROCS_Rank>
196                 

$$$$
untitled-dbase-111055_5
  -OEChem-06232314393D

 25 27  0     1  0  0  0  0  0999 V2000
   -9.8921   15.2095  -36.3192 C   0  0  0  0  0  0  0  0  0  0  0  0
  -13.9750   15.2144  -37.7377 C   0  0  0  0  0  0  0  0  0  0  0  0
  -11.3035   15.2130  -36.7281 C   0  0  2  0  0  0  0  0  0  0  0  0
  -13.1275   14.1293  -38.4102 C   0  0  2  0  0  0  0  0  0  0  0  0
  -11.6954   14.4636  -37.9846 C   0  0  1  0  0  0  0  0  0  0  0  0
  -11.6926   15.9628  -37.9817 C   0  0  1  0  0  0  0  0  0  0  0  0
  -13.1287   16.3370  -38.3357 C   0  0  1  0  0  0  0  0  0  0  0  0
  -13.2410   14.5644  -39.8937 C   0  0  1  0  0  0  0  0  0  0  0  0
  -14.4699   14.0031  -40.6010 C   0  0  0  0  0  0  0  0  0  0  0  0
  -13.2865   16.0578  -39.7905 N   0  0  0  0  0  0  0  0  0  0  0  0
   -8.9760   15.7092  -36.9552 O   0  0  0  0  0  0  0  0  0  0  0  0
   -9.7388   14.5707  -35.1337 O   0  0  0  0  0  0  0  0  0  0  0  0
  -15.0221   15.2313  -38.0579 H   0  0  0  0  0  0  0  0  0  0  0  0
  -13.9530   15.1746  -36.6457 H   0  0  0  0  0  0  0  0  0  0  0  0
  -11.9902   15.2128  -35.8921 H   0  0  0  0  0  0  0  0  0  0  0  0
  -13.4242   13.1007  -38.1967 H   0  0  0  0  0  0  0  0  0  0  0  0
  -10.9338   13.9332  -38.5398 H   0  0  0  0  0  0  0  0  0  0  0  0
  -10.9357   16.4952  -38.5410 H   0  0  0  0  0  0  0  0  0  0  0  0
  -13.4116   17.3514  -38.0481 H   0  0  0  0  0  0  0  0  0  0  0  0
  -12.3488   14.2749  -40.4620 H   0  0  0  0  0  0  0  0  0  0  0  0
  -15.3713   14.2780  -40.0541 H   0  0  0  0  0  0  0  0  0  0  0  0
  -14.4044   12.9168  -40.6536 H   0  0  0  0  0  0  0  0  0  0  0  0
  -14.5321   14.4043  -41.6122 H   0  0  0  0  0  0  0  0  0  0  0  0
  -14.2063   16.3857  -40.0864 H   0  0  0  0  0  0  0  0  0  0  0  0
  -10.5930   14.2401  -34.7824 H   0  0  0  0  0  0  0  0  0  0  0  0
  1  3  1  0  0  0  0
  1 11  2  0  0  0  0
  1 12  1  0  0  0  0
  2  4  1  0  0  0  0
  2  7  1  0  0  0  0
  3  5  1  0  0  0  0
  3  6  1  0  0  0  0
  4  5  1  0  0  0  0
  4  8  1  0  0  0  0
  5  6  1  0  0  0  0
  6  7  1  0  0  0  0
  7 10  1  0  0  0  0
  8  9  1  0  0  0  0
  8 10  1  0  0  0  0
  2 13  1  0  0  0  0
  2 14  1  0  0  0  0
  3 15  1  0  0  0  0
  4 16  1  0  0  0  0
  5 17  1  0  0  0  0
  6 18  1  0  0  0  0
  7 19  1  0  0  0  0
  8 20  1  0  0  0  0
  9 21  1  0  0  0  0
  9 22  1  0  0  0  0
  9 23  1  0  0  0  0
 10 24  1  0  0  0  0
 12 25  1  0  0  0  0
M  END
> <id>
EN300-1653456

> <smiles>
CC1NC2CC1C3C(C32)C(=O)O

> <IUPAC Name>
7-methyl-6-azatricyclo[3.2.1.0,2,4]octane-3-carboxylic acid

> <CAS>
2172458-50-1

> <URL>
https://www.enaminestore.com/catalog/EN300-1653456

> <ROCS_ShapeQuery>
__x1247relevant_x1083L0AP1_x1305L0BP1_

> <ROCS_TanimotoCombo>
0.730 

> <ROCS_ShapeTanimoto>
0.466 

> <ROCS_ColorTanimoto>
0.264 

> <ROCS_RefTversky>
0.390 

> <ROCS_RefColorTversky>
0.352 

> <ROCS_RefTverskyCombo>
0.742 

> <ROCS_FitTversky>
1.714 

> <ROCS_FitColorTversky>
0.515 

> <ROCS_FitTverskyCombo>
2.229 

> <ROCS_ColorScore>
-11.713

> <ROCS_Overlap>
1146.563

> <ROCS_Rank>
197                 

$$$$
untitled-dbase-155146_30
  -OEChem-06232314393D

 26 27  0     1  0  0  0  0  0999 V2000
  -13.1746   16.4372  -40.4608 C   0  0  0  0  0  0  0  0  0  0  0  0
  -10.1726   14.7504  -37.0693 C   0  0  0  0  0  0  0  0  0  0  0  0
  -13.6304   15.0129  -37.1558 C   0  0  0  0  0  0  0  0  0  0  0  0
  -13.1249   16.4435  -37.4696 C   0  0  0  0  0  0  0  0  0  0  0  0
  -12.7446   14.1900  -39.3396 C   0  0  0  0  0  0  0  0  0  0  0  0
  -12.2054   15.6030  -39.6860 C   0  0  2  0  0  0  0  0  0  0  0  0
  -12.5579   14.1251  -37.8102 C   0  0  1  0  0  0  0  0  0  0  0  0
  -11.8544   16.1816  -38.2998 C   0  0  2  0  0  0  0  0  0  0  0  0
   -9.9871   13.3795  -36.4756 C   0  0  0  0  0  0  0  0  0  0  0  0
  -11.3909   14.9715  -37.6522 N   0  0  0  0  0  0  0  0  0  0  0  0
  -12.8679   17.3121  -41.2569 O   0  0  0  0  0  0  0  0  0  0  0  0
   -9.2706   15.5867  -37.0161 O   0  0  0  0  0  0  0  0  0  0  0  0
  -14.4505   16.0933  -40.1588 O   0  0  0  0  0  0  0  0  0  0  0  0
  -11.0941   12.6339  -36.6478 F   0  0  0  0  0  0  0  0  0  0  0  0
   -8.9563   12.7423  -37.0611 F   0  0  0  0  0  0  0  0  0  0  0  0
   -9.7357   13.4593  -35.1557 F   0  0  0  0  0  0  0  0  0  0  0  0
  -13.6610   14.8587  -36.0713 H   0  0  0  0  0  0  0  0  0  0  0  0
  -14.6321   14.8376  -37.5606 H   0  0  0  0  0  0  0  0  0  0  0  0
  -13.8801   17.0364  -37.9930 H   0  0  0  0  0  0  0  0  0  0  0  0
  -12.8763   16.9603  -36.5351 H   0  0  0  0  0  0  0  0  0  0  0  0
  -13.7847   14.0327  -39.6431 H   0  0  0  0  0  0  0  0  0  0  0  0
  -12.1234   13.4307  -39.8292 H   0  0  0  0  0  0  0  0  0  0  0  0
  -11.2998   15.5068  -40.2959 H   0  0  0  0  0  0  0  0  0  0  0  0
  -12.4828   13.1173  -37.4000 H   0  0  0  0  0  0  0  0  0  0  0  0
  -11.1339   17.0026  -38.3097 H   0  0  0  0  0  0  0  0  0  0  0  0
  -15.1026   16.6315  -40.6563 H   0  0  0  0  0  0  0  0  0  0  0  0
  1  6  1  1  0  0  0
  1 11  2  0  0  0  0
  1 13  1  0  0  0  0
  2  9  1  0  0  0  0
  2 10  1  0  0  0  0
  2 12  2  0  0  0  0
  3  4  1  0  0  0  0
  3  7  1  0  0  0  0
  4  8  1  1  0  0  0
  5  6  1  0  0  0  0
  5  7  1  1  0  0  0
  6  8  1  0  0  0  0
  7 10  1  0  0  0  0
  8 10  1  0  0  0  0
  9 14  1  0  0  0  0
  9 15  1  0  0  0  0
  9 16  1  0  0  0  0
  3 17  1  0  0  0  0
  3 18  1  0  0  0  0
  4 19  1  0  0  0  0
  4 20  1  0  0  0  0
  5 21  1  0  0  0  0
  5 22  1  0  0  0  0
  6 23  1  0  0  0  0
  7 24  1  0  0  0  0
  8 25  1  0  0  0  0
 13 26  1  0  0  0  0
M  END
> <id>
EN300-7063366

> <smiles>
OC(=O)[C@@H]1C[C@@H]2CC[C@H]1N2C(=O)C(F)(F)F |&1:3,5,8,r|

> <IUPAC Name>
rac-(1R,2R,4S)-7-(trifluoroacetyl)-7-azabicyclo[2.2.1]heptane-2-carboxylic acid

> <CAS>
2276275-39-7

> <URL>
https://www.enaminestore.com/catalog/EN300-7063366

> <ROCS_ShapeQuery>
__x1247relevant_x1083L0AP1_x1305L0BP1_

> <ROCS_TanimotoCombo>
0.730 

> <ROCS_ShapeTanimoto>
0.516 

> <ROCS_ColorTanimoto>
0.214 

> <ROCS_RefTversky>
0.439 

> <ROCS_RefColorTversky>
0.239 

> <ROCS_RefTverskyCombo>
0.678 

> <ROCS_FitTversky>
1.515 

> <ROCS_FitColorTversky>
0.675 

> <ROCS_FitTverskyCombo>
2.191 

> <ROCS_ColorScore>
-7.796

> <ROCS_Overlap>
1294.893

> <ROCS_Rank>
198                 

$$$$
untitled-dbase-119644_55
  -OEChem-06232314393D

 47 51  0     1  0  0  0  0  0999 V2000
  -14.3994   15.5184  -37.7496 C   0  0  0  0  0  0  0  0  0  0  0  0
  -13.3503   15.5388  -36.9081 C   0  0  0  0  0  0  0  0  0  0  0  0
   -8.0575   13.7885  -35.8584 C   0  0  0  0  0  0  0  0  0  0  0  0
  -11.9456   16.0712  -39.5065 C   0  0  0  0  0  0  0  0  0  0  0  0
   -7.2536   13.3885  -34.8669 C   0  0  0  0  0  0  0  0  0  0  0  0
  -10.7798   11.9140  -38.6711 C   0  0  0  0  0  0  0  0  0  0  0  0
   -9.0512   12.8942  -36.5693 C   0  0  0  0  0  0  0  0  0  0  0  0
  -10.4192   15.5644  -35.3957 C   0  0  0  0  0  0  0  0  0  0  0  0
   -9.0239   16.1321  -35.6695 C   0  0  0  0  0  0  0  0  0  0  0  0
   -8.7903   14.8902  -37.7947 C   0  0  0  0  0  0  0  0  0  0  0  0
  -14.2388   15.0797  -39.1945 C   0  0  2  0  0  0  0  0  0  0  0  0
  -10.6967   13.4094  -38.5996 C   0  0  1  0  0  0  0  0  0  0  0  0
  -10.9655   14.5763  -36.4410 C   0  0  1  0  0  0  0  0  0  0  0  0
  -12.1242   13.9868  -38.4401 C   0  0  1  0  0  0  0  0  0  0  0  0
  -11.9955   15.1289  -37.4258 C   0  0  1  0  0  0  0  0  0  0  0  0
   -8.1202   15.1778  -36.4582 C   0  0  2  0  0  0  0  0  0  0  0  0
  -12.7543   14.7794  -39.5877 C   0  0  2  0  0  0  0  0  0  0  0  0
   -9.8982   13.9091  -37.3692 C   0  0  1  0  0  0  0  0  0  0  0  0
  -12.6435   14.1182  -40.9546 C   0  0  0  0  0  0  0  0  0  0  0  0
  -11.7384   16.8637  -40.4109 O   0  0  0  0  0  0  0  0  0  0  0  0
  -10.8878   11.2655  -39.7012 O   0  0  0  0  0  0  0  0  0  0  0  0
  -11.4972   16.2258  -38.2124 O   0  0  0  0  0  0  0  0  0  0  0  0
  -10.7214   11.3714  -37.4303 O   0  0  0  0  0  0  0  0  0  0  0  0
  -14.7813   16.0684  -40.0656 O   0  0  0  0  0  0  0  0  0  0  0  0
   -6.8346   15.7384  -36.6444 O   0  0  0  0  0  0  0  0  0  0  0  0
  -15.3807   15.8246  -37.4031 H   0  0  0  0  0  0  0  0  0  0  0  0
  -13.4676   15.8692  -35.8837 H   0  0  0  0  0  0  0  0  0  0  0  0
   -6.5655   14.0826  -34.4025 H   0  0  0  0  0  0  0  0  0  0  0  0
   -7.2801   12.3655  -34.5155 H   0  0  0  0  0  0  0  0  0  0  0  0
   -8.4890   12.2230  -37.2276 H   0  0  0  0  0  0  0  0  0  0  0  0
   -9.6467   12.2954  -35.8744 H   0  0  0  0  0  0  0  0  0  0  0  0
  -10.4371   15.0945  -34.3916 H   0  0  0  0  0  0  0  0  0  0  0  0
  -11.1102   16.4257  -35.2987 H   0  0  0  0  0  0  0  0  0  0  0  0
   -9.1357   17.0857  -36.2078 H   0  0  0  0  0  0  0  0  0  0  0  0
   -8.5502   16.4059  -34.7142 H   0  0  0  0  0  0  0  0  0  0  0  0
   -9.1739   15.7955  -38.2860 H   0  0  0  0  0  0  0  0  0  0  0  0
   -8.0919   14.4277  -38.5105 H   0  0  0  0  0  0  0  0  0  0  0  0
  -14.8359   14.1645  -39.3276 H   0  0  0  0  0  0  0  0  0  0  0  0
  -10.2245   13.7417  -39.5175 H   0  0  0  0  0  0  0  0  0  0  0  0
  -11.4746   13.7522  -35.8763 H   0  0  0  0  0  0  0  0  0  0  0  0
  -12.8126   13.1863  -38.0793 H   0  0  0  0  0  0  0  0  0  0  0  0
  -13.2326   13.2010  -40.9747 H   0  0  0  0  0  0  0  0  0  0  0  0
  -11.6026   13.8741  -41.1681 H   0  0  0  0  0  0  0  0  0  0  0  0
  -13.0138   14.7929  -41.7269 H   0  0  0  0  0  0  0  0  0  0  0  0
  -10.7762   10.3923  -37.4556 H   0  0  0  0  0  0  0  0  0  0  0  0
  -15.7198   16.1548  -39.8363 H   0  0  0  0  0  0  0  0  0  0  0  0
   -6.9607   16.6226  -37.0297 H   0  0  0  0  0  0  0  0  0  0  0  0
  1  2  2  0  0  0  0
  1 11  1  0  0  0  0
  2 15  1  0  0  0  0
  3  5  2  0  0  0  0
  3  7  1  0  0  0  0
  3 16  1  0  0  0  0
  4 17  1  0  0  0  0
  4 20  2  0  0  0  0
  4 22  1  0  0  0  0
  6 12  1  0  0  0  0
  6 21  2  0  0  0  0
  6 23  1  0  0  0  0
  7 18  1  0  0  0  0
  8  9  1  0  0  0  0
  8 13  1  0  0  0  0
  9 16  1  0  0  0  0
 10 16  1  0  0  0  0
 10 18  1  0  0  0  0
 11 17  1  0  0  0  0
 11 24  1  0  0  0  0
 12 14  1  0  0  0  0
 12 18  1  0  0  0  0
 13 15  1  0  0  0  0
 13 18  1  0  0  0  0
 14 15  1  0  0  0  0
 14 17  1  0  0  0  0
 15 22  1  0  0  0  0
 16 25  1  0  0  0  0
 17 19  1  0  0  0  0
  1 26  1  0  0  0  0
  2 27  1  0  0  0  0
  5 28  1  0  0  0  0
  5 29  1  0  0  0  0
  7 30  1  0  0  0  0
  7 31  1  0  0  0  0
  8 32  1  0  0  0  0
  8 33  1  0  0  0  0
  9 34  1  0  0  0  0
  9 35  1  0  0  0  0
 10 36  1  0  0  0  0
 10 37  1  0  0  0  0
 11 38  1  0  0  0  0
 12 39  1  0  0  0  0
 13 40  1  0  0  0  0
 14 41  1  0  0  0  0
 19 42  1  0  0  0  0
 19 43  1  0  0  0  0
 19 44  1  0  0  0  0
 23 45  1  0  0  0  0
 24 46  1  0  0  0  0
 25 47  1  0  0  0  0
M  END
> <id>
EN300-19354

> <smiles>
CC1(C2C(C(=O)O)C3(CC(=C)C4(O)C3)C(CC4)C52OC1=O)C(O)C=C5

> <MDLNUMBER>
MFCD00066782

> <IUPAC Name>
5,12-dihydroxy-11-methyl-6-methylidene-16-oxo-15-oxapentacyclo[9.3.2.1^{5,8}.0^{1,10}.0^{2,8}]heptadec-13-ene-9-carboxylic acid

> <CAS>
1232779-37-1

> <URL>
https://www.enaminestore.com/catalog/EN300-19354

> <ROCS_ShapeQuery>
__x1247relevant_x1083L0AP1_x1305L0BP1_

> <ROCS_TanimotoCombo>
0.730 

> <ROCS_ShapeTanimoto>
0.536 

> <ROCS_ColorTanimoto>
0.194 

> <ROCS_RefTversky>
0.498 

> <ROCS_RefColorTversky>
0.267 

> <ROCS_RefTverskyCombo>
0.766 

> <ROCS_FitTversky>
1.164 

> <ROCS_FitColorTversky>
0.415 

> <ROCS_FitTverskyCombo>
1.579 

> <ROCS_ColorScore>
-8.869

> <ROCS_Overlap>
1480.491

> <ROCS_Rank>
199                 

$$$$
untitled-dbase-122937_19
  -OEChem-06232314393D

 33 35  0     1  0  0  0  0  0999 V2000
   -8.1798   14.0837  -34.9816 C   0  0  0  0  0  0  0  0  0  0  0  0
   -8.5994   15.3488  -35.3927 C   0  0  0  0  0  0  0  0  0  0  0  0
   -8.7289   12.9425  -35.5664 C   0  0  0  0  0  0  0  0  0  0  0  0
   -9.5682   15.4728  -36.3885 C   0  0  0  0  0  0  0  0  0  0  0  0
   -9.6978   13.0666  -36.5622 C   0  0  0  0  0  0  0  0  0  0  0  0
  -10.1174   14.3317  -36.9733 C   0  0  0  0  0  0  0  0  0  0  0  0
  -12.9393   16.0161  -37.4579 C   0  0  0  0  0  0  0  0  0  0  0  0
  -11.1722   14.4659  -38.0571 C   0  0  1  0  0  0  0  0  0  0  0  0
  -12.6616   14.5130  -37.6014 C   0  0  2  0  0  0  0  0  0  0  0  0
  -12.4885   16.3331  -38.8866 C   0  0  1  0  0  0  0  0  0  0  0  0
  -11.0353   15.8034  -38.8432 C   0  0  2  0  0  0  0  0  0  0  0  0
  -13.5493   14.1621  -38.8195 C   0  0  2  0  0  0  0  0  0  0  0  0
  -13.4114   15.4106  -39.7144 C   0  0  1  0  0  0  0  0  0  0  0  0
  -10.4457   15.6362  -40.1635 N   0  0  0  0  0  0  0  0  0  0  0  0
  -14.8933   13.9545  -38.4115 O   0  0  0  0  0  0  0  0  0  0  0  0
  -14.6561   16.0593  -39.9312 O   0  0  0  0  0  0  0  0  0  0  0  0
   -7.4244   13.9873  -34.2072 H   0  0  0  0  0  0  0  0  0  0  0  0
   -8.1711   16.2374  -34.9382 H   0  0  0  0  0  0  0  0  0  0  0  0
   -8.4017   11.9574  -35.2474 H   0  0  0  0  0  0  0  0  0  0  0  0
   -9.8892   16.4626  -36.7024 H   0  0  0  0  0  0  0  0  0  0  0  0
  -10.1201   12.1719  -37.0121 H   0  0  0  0  0  0  0  0  0  0  0  0
  -13.9927   16.2493  -37.2706 H   0  0  0  0  0  0  0  0  0  0  0  0
  -12.3244   16.4997  -36.6916 H   0  0  0  0  0  0  0  0  0  0  0  0
  -11.0078   13.5869  -38.7535 H   0  0  0  0  0  0  0  0  0  0  0  0
  -12.8939   13.9315  -36.7050 H   0  0  0  0  0  0  0  0  0  0  0  0
  -12.5682   17.3910  -39.1506 H   0  0  0  0  0  0  0  0  0  0  0  0
  -10.4169   16.5217  -38.2843 H   0  0  0  0  0  0  0  0  0  0  0  0
  -13.1967   13.2581  -39.3267 H   0  0  0  0  0  0  0  0  0  0  0  0
  -12.9795   15.1679  -40.6903 H   0  0  0  0  0  0  0  0  0  0  0  0
  -10.4351   16.5199  -40.6186 H   0  0  0  0  0  0  0  0  0  0  0  0
   -9.5199   15.2912  -40.0536 H   0  0  0  0  0  0  0  0  0  0  0  0
  -15.1951   14.7824  -38.0024 H   0  0  0  0  0  0  0  0  0  0  0  0
  -15.2040   15.4497  -40.4521 H   0  0  0  0  0  0  0  0  0  0  0  0
  1  2  2  0  0  0  0
  1  3  1  0  0  0  0
  2  4  1  0  0  0  0
  3  5  2  0  0  0  0
  4  6  2  0  0  0  0
  5  6  1  0  0  0  0
  6  8  1  6  0  0  0
  7  9  1  6  0  0  0
  7 10  1  6  0  0  0
  8  9  1  0  0  0  0
  8 11  1  0  0  0  0
  9 12  1  0  0  0  0
 10 11  1  0  0  0  0
 10 13  1  0  0  0  0
 11 14  1  1  0  0  0
 12 13  1  0  0  0  0
 12 15  1  6  0  0  0
 13 16  1  6  0  0  0
  1 17  1  0  0  0  0
  2 18  1  0  0  0  0
  3 19  1  0  0  0  0
  4 20  1  0  0  0  0
  5 21  1  0  0  0  0
  7 22  1  0  0  0  0
  7 23  1  0  0  0  0
  8 24  1  0  0  0  0
  9 25  1  0  0  0  0
 10 26  1  0  0  0  0
 11 27  1  0  0  0  0
 12 28  1  0  0  0  0
 13 29  1  0  0  0  0
 14 30  1  0  0  0  0
 14 31  1  0  0  0  0
 15 32  1  0  0  0  0
 16 33  1  0  0  0  0
M  END
> <id>
EN300-7470969

> <smiles>
Cl.N[C@@H]1[C@H]([C@H]2C[C@@H]1[C@H](O)[C@@H]2O)C=3C=CC=CC3 |&1:2,3,4,6,7,9,r|

> <IUPAC Name>
rac-(1R,2R,3S,4S,5R,6R)-5-amino-6-phenylbicyclo[2.2.1]heptane-2,3-diol hydrochloride

> <CAS>
2402789-77-7

> <Purity>
95

> <URL>
https://www.enaminestore.com/catalog/EN300-7470969

> <Saltdate>
Cl

> <ROCS_ShapeQuery>
__x1247relevant_x1083L0AP1_x1305L0BP1_

> <ROCS_TanimotoCombo>
0.730 

> <ROCS_ShapeTanimoto>
0.507 

> <ROCS_ColorTanimoto>
0.224 

> <ROCS_RefTversky>
0.432 

> <ROCS_RefColorTversky>
0.262 

> <ROCS_RefTverskyCombo>
0.694 

> <ROCS_FitTversky>
1.520 

> <ROCS_FitColorTversky>
0.601 

> <ROCS_FitTverskyCombo>
2.122 

> <ROCS_ColorScore>
-8.612

> <ROCS_Overlap>
1272.674

> <ROCS_Rank>
200                 

$$$$
untitled-dbase-100315_19
  -OEChem-06232314393D

 33 35  0     1  0  0  0  0  0999 V2000
   -8.1798   14.0837  -34.9816 C   0  0  0  0  0  0  0  0  0  0  0  0
   -8.5994   15.3488  -35.3927 C   0  0  0  0  0  0  0  0  0  0  0  0
   -8.7289   12.9425  -35.5664 C   0  0  0  0  0  0  0  0  0  0  0  0
   -9.5682   15.4728  -36.3885 C   0  0  0  0  0  0  0  0  0  0  0  0
   -9.6978   13.0666  -36.5622 C   0  0  0  0  0  0  0  0  0  0  0  0
  -10.1174   14.3317  -36.9733 C   0  0  0  0  0  0  0  0  0  0  0  0
  -12.9393   16.0161  -37.4579 C   0  0  0  0  0  0  0  0  0  0  0  0
  -11.1722   14.4659  -38.0571 C   0  0  1  0  0  0  0  0  0  0  0  0
  -12.6616   14.5130  -37.6014 C   0  0  2  0  0  0  0  0  0  0  0  0
  -12.4885   16.3331  -38.8866 C   0  0  1  0  0  0  0  0  0  0  0  0
  -11.0353   15.8034  -38.8432 C   0  0  2  0  0  0  0  0  0  0  0  0
  -13.5493   14.1621  -38.8195 C   0  0  2  0  0  0  0  0  0  0  0  0
  -13.4114   15.4106  -39.7144 C   0  0  1  0  0  0  0  0  0  0  0  0
  -10.4457   15.6362  -40.1635 N   0  0  0  0  0  0  0  0  0  0  0  0
  -14.8933   13.9545  -38.4115 O   0  0  0  0  0  0  0  0  0  0  0  0
  -14.6561   16.0593  -39.9312 O   0  0  0  0  0  0  0  0  0  0  0  0
   -7.4244   13.9873  -34.2072 H   0  0  0  0  0  0  0  0  0  0  0  0
   -8.1711   16.2374  -34.9382 H   0  0  0  0  0  0  0  0  0  0  0  0
   -8.4017   11.9574  -35.2474 H   0  0  0  0  0  0  0  0  0  0  0  0
   -9.8892   16.4626  -36.7024 H   0  0  0  0  0  0  0  0  0  0  0  0
  -10.1201   12.1719  -37.0121 H   0  0  0  0  0  0  0  0  0  0  0  0
  -13.9927   16.2493  -37.2706 H   0  0  0  0  0  0  0  0  0  0  0  0
  -12.3244   16.4997  -36.6916 H   0  0  0  0  0  0  0  0  0  0  0  0
  -11.0078   13.5869  -38.7535 H   0  0  0  0  0  0  0  0  0  0  0  0
  -12.8939   13.9315  -36.7050 H   0  0  0  0  0  0  0  0  0  0  0  0
  -12.5682   17.3910  -39.1506 H   0  0  0  0  0  0  0  0  0  0  0  0
  -10.4169   16.5217  -38.2843 H   0  0  0  0  0  0  0  0  0  0  0  0
  -13.1967   13.2581  -39.3267 H   0  0  0  0  0  0  0  0  0  0  0  0
  -12.9795   15.1679  -40.6903 H   0  0  0  0  0  0  0  0  0  0  0  0
  -10.4351   16.5199  -40.6186 H   0  0  0  0  0  0  0  0  0  0  0  0
   -9.5199   15.2912  -40.0536 H   0  0  0  0  0  0  0  0  0  0  0  0
  -15.1951   14.7824  -38.0024 H   0  0  0  0  0  0  0  0  0  0  0  0
  -15.2040   15.4497  -40.4521 H   0  0  0  0  0  0  0  0  0  0  0  0
  1  2  2  0  0  0  0
  1  3  1  0  0  0  0
  2  4  1  0  0  0  0
  3  5  2  0  0  0  0
  4  6  2  0  0  0  0
  5  6  1  0  0  0  0
  6  8  1  6  0  0  0
  7  9  1  6  0  0  0
  7 10  1  6  0  0  0
  8  9  1  0  0  0  0
  8 11  1  0  0  0  0
  9 12  1  0  0  0  0
 10 11  1  0  0  0  0
 10 13  1  0  0  0  0
 11 14  1  1  0  0  0
 12 13  1  0  0  0  0
 12 15  1  6  0  0  0
 13 16  1  6  0  0  0
  1 17  1  0  0  0  0
  2 18  1  0  0  0  0
  3 19  1  0  0  0  0
  4 20  1  0  0  0  0
  5 21  1  0  0  0  0
  7 22  1  0  0  0  0
  7 23  1  0  0  0  0
  8 24  1  0  0  0  0
  9 25  1  0  0  0  0
 10 26  1  0  0  0  0
 11 27  1  0  0  0  0
 12 28  1  0  0  0  0
 13 29  1  0  0  0  0
 14 30  1  0  0  0  0
 14 31  1  0  0  0  0
 15 32  1  0  0  0  0
 16 33  1  0  0  0  0
M  END
> <id>
EN300-7470970

> <smiles>
N[C@@H]1[C@H]([C@H]2C[C@@H]1[C@H](O)[C@@H]2O)C=3C=CC=CC3 |&1:1,2,3,5,6,8,r|

> <IUPAC Name>
rac-(1R,2R,3S,4S,5R,6R)-5-amino-6-phenylbicyclo[2.2.1]heptane-2,3-diol

> <CAS>
2402789-76-6

> <URL>
https://www.enaminestore.com/catalog/EN300-7470970

> <ROCS_ShapeQuery>
__x1247relevant_x1083L0AP1_x1305L0BP1_

> <ROCS_TanimotoCombo>
0.730 

> <ROCS_ShapeTanimoto>
0.507 

> <ROCS_ColorTanimoto>
0.224 

> <ROCS_RefTversky>
0.432 

> <ROCS_RefColorTversky>
0.262 

> <ROCS_RefTverskyCombo>
0.694 

> <ROCS_FitTversky>
1.520 

> <ROCS_FitColorTversky>
0.601 

> <ROCS_FitTverskyCombo>
2.122 

> <ROCS_ColorScore>
-8.612

> <ROCS_Overlap>
1272.674

> <ROCS_Rank>
201                 

$$$$
untitled-dbase-164236_3
  -OEChem-06232314393D

 36 38  0     1  0  0  0  0  0999 V2000
  -10.8495   14.3623  -36.3872 C   0  0  0  0  0  0  0  0  0  0  0  0
   -9.4577   13.8642  -36.1218 C   0  0  0  0  0  0  0  0  0  0  0  0
  -13.7369   13.9585  -38.1157 C   0  0  0  0  0  0  0  0  0  0  0  0
  -14.0600   15.2394  -37.3194 C   0  0  0  0  0  0  0  0  0  0  0  0
  -11.3265   14.3267  -38.8739 C   0  0  0  0  0  0  0  0  0  0  0  0
  -11.8203   16.4904  -37.4618 C   0  0  0  0  0  0  0  0  0  0  0  0
   -8.7272   14.3481  -37.3580 C   0  0  0  0  0  0  0  0  0  0  0  0
  -12.8088   14.3350  -39.2817 C   0  0  2  0  0  0  0  0  0  0  0  0
  -13.2808   16.4023  -37.9454 C   0  0  1  0  0  0  0  0  0  0  0  0
  -10.9199   15.2311  -37.6604 C   0  0  0  0  0  0  0  0  0  0  0  0
   -7.5252   16.9447  -37.3002 C   0  0  0  0  0  0  0  0  0  0  0  0
   -8.9842   16.7250  -37.0861 C   0  0  0  0  0  0  0  0  0  0  0  0
   -9.4556   15.5460  -37.8218 N   0  0  1  0  0  0  0  0  0  0  0  0
  -11.7851   14.0979  -35.6444 O   0  0  0  0  0  0  0  0  0  0  0  0
  -12.2325   16.6940  -40.3831 O   0  0  0  0  0  0  0  0  0  0  0  0
  -14.6575   16.0033  -40.1728 O   0  0  0  0  0  0  0  0  0  0  0  0
  -13.2938   16.0020  -39.6851 S   0  0  0  0  0  0  0  0  0  0  0  0
   -9.0501   14.3023  -35.2081 H   0  0  0  0  0  0  0  0  0  0  0  0
   -9.4771   12.7719  -36.0617 H   0  0  0  0  0  0  0  0  0  0  0  0
  -13.3231   13.1632  -37.4910 H   0  0  0  0  0  0  0  0  0  0  0  0
  -14.6768   13.5616  -38.5210 H   0  0  0  0  0  0  0  0  0  0  0  0
  -15.1358   15.4354  -37.4093 H   0  0  0  0  0  0  0  0  0  0  0  0
  -13.8615   15.1315  -36.2503 H   0  0  0  0  0  0  0  0  0  0  0  0
  -11.0224   13.2901  -38.6784 H   0  0  0  0  0  0  0  0  0  0  0  0
  -10.7571   14.6317  -39.7608 H   0  0  0  0  0  0  0  0  0  0  0  0
  -11.3874   17.3561  -37.9833 H   0  0  0  0  0  0  0  0  0  0  0  0
  -11.8280   16.7838  -36.3980 H   0  0  0  0  0  0  0  0  0  0  0  0
   -7.6759   14.5934  -37.1141 H   0  0  0  0  0  0  0  0  0  0  0  0
   -8.7042   13.5614  -38.1329 H   0  0  0  0  0  0  0  0  0  0  0  0
  -12.9730   13.6937  -40.1503 H   0  0  0  0  0  0  0  0  0  0  0  0
  -13.7948   17.3572  -37.8014 H   0  0  0  0  0  0  0  0  0  0  0  0
   -7.3298   17.0940  -38.3723 H   0  0  0  0  0  0  0  0  0  0  0  0
   -7.2028   17.8356  -36.7413 H   0  0  0  0  0  0  0  0  0  0  0  0
   -6.9662   16.0666  -36.9445 H   0  0  0  0  0  0  0  0  0  0  0  0
   -9.1711   16.5766  -36.0123 H   0  0  0  0  0  0  0  0  0  0  0  0
   -9.5356   17.6104  -37.4354 H   0  0  0  0  0  0  0  0  0  0  0  0
  1  2  1  0  0  0  0
  1 10  1  0  0  0  0
  1 14  2  0  0  0  0
  2  7  1  0  0  0  0
  3  4  1  0  0  0  0
  3  8  1  0  0  0  0
  4  9  1  0  0  0  0
  5  8  1  0  0  0  0
  5 10  1  0  0  0  0
  6  9  1  0  0  0  0
  6 10  1  0  0  0  0
  7 13  1  0  0  0  0
  8 17  1  0  0  0  0
  9 17  1  0  0  0  0
 10 13  1  0  0  0  0
 11 12  1  0  0  0  0
 12 13  1  0  0  0  0
 15 17  2  0  0  0  0
 16 17  2  0  0  0  0
  2 18  1  0  0  0  0
  2 19  1  0  0  0  0
  3 20  1  0  0  0  0
  3 21  1  0  0  0  0
  4 22  1  0  0  0  0
  4 23  1  0  0  0  0
  5 24  1  0  0  0  0
  5 25  1  0  0  0  0
  6 26  1  0  0  0  0
  6 27  1  0  0  0  0
  7 28  1  0  0  0  0
  7 29  1  0  0  0  0
  8 30  1  0  0  0  0
  9 31  1  0  0  0  0
 11 32  1  0  0  0  0
 11 33  1  0  0  0  0
 11 34  1  0  0  0  0
 12 35  1  0  0  0  0
 12 36  1  0  0  0  0
M  END
> <id>
EN300-785483

> <smiles>
CCN1CCC(=O)C21CC3CCC(C2)S3(=O)=O

> <IUPAC Name>
1'-ethyl-8lambda6-thiaspiro[bicyclo[3.2.1]octane-3,2'-pyrrolidine]-3',8,8-trione

> <CAS>
2138381-13-0

> <URL>
https://www.enaminestore.com/catalog/EN300-785483

> <ROCS_ShapeQuery>
__x1247relevant_x1083L0AP1_x1305L0BP1_

> <ROCS_TanimotoCombo>
0.730 

> <ROCS_ShapeTanimoto>
0.506 

> <ROCS_ColorTanimoto>
0.225 

> <ROCS_RefTversky>
0.433 

> <ROCS_RefColorTversky>
0.250 

> <ROCS_RefTverskyCombo>
0.683 

> <ROCS_FitTversky>
1.493 

> <ROCS_FitColorTversky>
0.691 

> <ROCS_FitTverskyCombo>
2.184 

> <ROCS_ColorScore>
-8.164

> <ROCS_Overlap>
1277.238

> <ROCS_Rank>
202                 

$$$$
untitled-dbase-75857_30
  -OEChem-06232314393D

 44 46  0     1  0  0  0  0  0999 V2000
   -9.0758   14.3987  -37.0946 C   0  0  0  0  0  0  0  0  0  0  0  0
  -14.3100   15.0866  -37.4722 C   0  0  0  0  0  0  0  0  0  0  0  0
  -11.9343   15.3763  -36.7221 C   0  0  0  0  0  0  0  0  0  0  0  0
  -12.5628   13.4344  -38.1847 C   0  0  0  0  0  0  0  0  0  0  0  0
  -12.9221   16.9577  -38.3971 C   0  0  0  0  0  0  0  0  0  0  0  0
  -13.5478   15.0178  -39.8590 C   0  0  0  0  0  0  0  0  0  0  0  0
  -11.1704   15.3058  -39.1127 C   0  0  0  0  0  0  0  0  0  0  0  0
  -13.2154   16.1167  -37.1447 C   0  0  1  0  0  0  0  0  0  0  0  0
  -13.8460   14.1668  -38.6146 C   0  0  2  0  0  0  0  0  0  0  0  0
  -11.4452   14.4505  -37.8587 C   0  0  0  0  0  0  0  0  0  0  0  0
  -12.4490   16.0463  -39.5431 C   0  0  0  0  0  0  0  0  0  0  0  0
   -8.7124   14.1111  -34.5196 C   0  0  0  0  0  0  0  0  0  0  0  0
   -7.2262   12.1429  -34.9958 C   0  0  0  0  0  0  0  0  0  0  0  0
   -6.3937   14.4725  -35.4294 C   0  0  0  0  0  0  0  0  0  0  0  0
   -7.6158   13.5552  -35.4269 C   0  0  0  0  0  0  0  0  0  0  0  0
  -10.2428   13.7581  -37.4513 N   0  0  0  0  0  0  0  0  0  0  0  0
   -8.9014   15.6127  -37.0742 O   0  0  0  0  0  0  0  0  0  0  0  0
  -12.1864   16.8430  -40.6893 O   0  0  0  0  0  0  0  0  0  0  0  0
   -8.1271   13.4731  -36.7620 O   0  0  0  0  0  0  0  0  0  0  0  0
  -14.5411   14.4897  -36.5815 H   0  0  0  0  0  0  0  0  0  0  0  0
  -15.2350   15.6019  -37.7589 H   0  0  0  0  0  0  0  0  0  0  0  0
  -11.1567   16.1080  -36.4664 H   0  0  0  0  0  0  0  0  0  0  0  0
  -12.1328   14.7916  -35.8143 H   0  0  0  0  0  0  0  0  0  0  0  0
  -12.7764   12.8082  -37.3087 H   0  0  0  0  0  0  0  0  0  0  0  0
  -12.2401   12.7596  -38.9883 H   0  0  0  0  0  0  0  0  0  0  0  0
  -13.8169   17.5151  -38.7030 H   0  0  0  0  0  0  0  0  0  0  0  0
  -12.1600   17.7172  -38.1794 H   0  0  0  0  0  0  0  0  0  0  0  0
  -13.2381   14.3769  -40.6947 H   0  0  0  0  0  0  0  0  0  0  0  0
  -14.4568   15.5298  -40.2004 H   0  0  0  0  0  0  0  0  0  0  0  0
  -10.3710   16.0345  -38.9209 H   0  0  0  0  0  0  0  0  0  0  0  0
  -10.8082   14.6787  -39.9390 H   0  0  0  0  0  0  0  0  0  0  0  0
  -13.5523   16.7686  -36.3309 H   0  0  0  0  0  0  0  0  0  0  0  0
  -14.6301   13.4368  -38.8439 H   0  0  0  0  0  0  0  0  0  0  0  0
   -8.9948   15.1247  -34.8257 H   0  0  0  0  0  0  0  0  0  0  0  0
   -9.6075   13.4808  -34.5359 H   0  0  0  0  0  0  0  0  0  0  0  0
   -8.3617   14.1874  -33.4840 H   0  0  0  0  0  0  0  0  0  0  0  0
   -6.4396   11.7401  -35.6441 H   0  0  0  0  0  0  0  0  0  0  0  0
   -8.0784   11.4592  -35.0831 H   0  0  0  0  0  0  0  0  0  0  0  0
   -6.8683   12.1205  -33.9614 H   0  0  0  0  0  0  0  0  0  0  0  0
   -5.6070   14.0740  -36.0802 H   0  0  0  0  0  0  0  0  0  0  0  0
   -6.6473   15.4811  -35.7716 H   0  0  0  0  0  0  0  0  0  0  0  0
   -5.9583   14.5443  -34.4262 H   0  0  0  0  0  0  0  0  0  0  0  0
  -10.2592   12.7438  -37.4267 H   0  0  0  0  0  0  0  0  0  0  0  0
  -13.0186   17.2876  -40.9192 H   0  0  0  0  0  0  0  0  0  0  0  0
  1 16  1  0  0  0  0
  1 17  2  0  0  0  0
  1 19  1  0  0  0  0
  2  8  1  0  0  0  0
  2  9  1  0  0  0  0
  3  8  1  0  0  0  0
  3 10  1  0  0  0  0
  4  9  1  0  0  0  0
  4 10  1  0  0  0  0
  5  8  1  0  0  0  0
  5 11  1  0  0  0  0
  6  9  1  0  0  0  0
  6 11  1  0  0  0  0
  7 10  1  0  0  0  0
  7 11  1  0  0  0  0
 10 16  1  0  0  0  0
 11 18  1  0  0  0  0
 12 15  1  0  0  0  0
 13 15  1  0  0  0  0
 14 15  1  0  0  0  0
 15 19  1  0  0  0  0
  2 20  1  0  0  0  0
  2 21  1  0  0  0  0
  3 22  1  0  0  0  0
  3 23  1  0  0  0  0
  4 24  1  0  0  0  0
  4 25  1  0  0  0  0
  5 26  1  0  0  0  0
  5 27  1  0  0  0  0
  6 28  1  0  0  0  0
  6 29  1  0  0  0  0
  7 30  1  0  0  0  0
  7 31  1  0  0  0  0
  8 32  1  0  0  0  0
  9 33  1  0  0  0  0
 12 34  1  0  0  0  0
 12 35  1  0  0  0  0
 12 36  1  0  0  0  0
 13 37  1  0  0  0  0
 13 38  1  0  0  0  0
 13 39  1  0  0  0  0
 14 40  1  0  0  0  0
 14 41  1  0  0  0  0
 14 42  1  0  0  0  0
 16 43  1  0  0  0  0
 18 44  1  0  0  0  0
M  END
> <id>
EN300-1590186

> <smiles>
CC(C)(C)OC(=O)NC1(CC2CC3CC(O)(C2)C1)C3

> <IUPAC Name>
tert-butyl N-(3-hydroxyadamantan-1-yl)carbamate

> <CAS>
847795-89-5

> <URL>
https://www.enaminestore.com/catalog/EN300-1590186

> <ROCS_ShapeQuery>
__x1247relevant_x1083L0AP1_x1305L0BP1_

> <ROCS_TanimotoCombo>
0.730 

> <ROCS_ShapeTanimoto>
0.505 

> <ROCS_ColorTanimoto>
0.226 

> <ROCS_RefTversky>
0.445 

> <ROCS_RefColorTversky>
0.255 

> <ROCS_RefTverskyCombo>
0.700 

> <ROCS_FitTversky>
1.361 

> <ROCS_FitColorTversky>
0.663 

> <ROCS_FitTverskyCombo>
2.024 

> <ROCS_ColorScore>
-8.342

> <ROCS_Overlap>
1314.643

> <ROCS_Rank>
203                 

$$$$
untitled-dbase-90918_169
  -OEChem-06232314393D

 37 38  0     1  0  0  0  0  0999 V2000
  -13.1725   16.5125  -40.4118 C   0  0  0  0  0  0  0  0  0  0  0  0
   -9.7978   14.8469  -37.2073 C   0  0  0  0  0  0  0  0  0  0  0  0
  -13.0364   14.3037  -36.7813 C   0  0  0  0  0  0  0  0  0  0  0  0
  -12.7734   14.3279  -39.2358 C   0  0  0  0  0  0  0  0  0  0  0  0
  -11.3573   16.1785  -38.7000 C   0  0  0  0  0  0  0  0  0  0  0  0
  -13.5359   15.7555  -36.8320 C   0  0  0  0  0  0  0  0  0  0  0  0
  -12.0562   14.0110  -37.9263 C   0  0  1  0  0  0  0  0  0  0  0  0
  -12.7921   15.8502  -39.1284 C   0  0  1  0  0  0  0  0  0  0  0  0
  -10.2936   14.9496  -34.6376 C   0  0  0  0  0  0  0  0  0  0  0  0
  -10.2975   12.4384  -34.5834 C   0  0  0  0  0  0  0  0  0  0  0  0
   -8.1251   13.6815  -34.7922 C   0  0  0  0  0  0  0  0  0  0  0  0
   -9.6113   13.6808  -35.1470 C   0  0  0  0  0  0  0  0  0  0  0  0
  -10.9770   15.0027  -37.9117 N   0  0  0  0  0  0  0  0  0  0  0  0
  -12.4708   17.2985  -41.0308 O   0  0  0  0  0  0  0  0  0  0  0  0
   -8.9069   15.6914  -37.1548 O   0  0  0  0  0  0  0  0  0  0  0  0
  -13.7723   16.2363  -38.1625 O   0  0  0  0  0  0  0  0  0  0  0  0
  -14.4115   16.1250  -40.8015 O   0  0  0  0  0  0  0  0  0  0  0  0
   -9.7397   13.6353  -36.5724 O   0  0  0  0  0  0  0  0  0  0  0  0
  -12.5814   14.0997  -35.8056 H   0  0  0  0  0  0  0  0  0  0  0  0
  -13.8973   13.6303  -36.8780 H   0  0  0  0  0  0  0  0  0  0  0  0
  -12.1955   13.9831  -40.1020 H   0  0  0  0  0  0  0  0  0  0  0  0
  -13.7764   13.8899  -39.2827 H   0  0  0  0  0  0  0  0  0  0  0  0
  -10.6593   16.2552  -39.5409 H   0  0  0  0  0  0  0  0  0  0  0  0
  -11.2779   17.0774  -38.0808 H   0  0  0  0  0  0  0  0  0  0  0  0
  -14.4705   15.8502  -36.2696 H   0  0  0  0  0  0  0  0  0  0  0  0
  -12.8142   16.4247  -36.3495 H   0  0  0  0  0  0  0  0  0  0  0  0
  -11.6665   12.9905  -37.8730 H   0  0  0  0  0  0  0  0  0  0  0  0
   -9.8040   15.8437  -35.0399 H   0  0  0  0  0  0  0  0  0  0  0  0
  -11.3522   14.9779  -34.9159 H   0  0  0  0  0  0  0  0  0  0  0  0
  -10.2205   15.0218  -33.5464 H   0  0  0  0  0  0  0  0  0  0  0  0
   -9.8112   11.5257  -34.9462 H   0  0  0  0  0  0  0  0  0  0  0  0
  -11.3409   12.3847  -34.9144 H   0  0  0  0  0  0  0  0  0  0  0  0
  -10.2801   12.4288  -33.4888 H   0  0  0  0  0  0  0  0  0  0  0  0
   -7.6355   12.7715  -35.1574 H   0  0  0  0  0  0  0  0  0  0  0  0
   -7.6088   14.5471  -35.2196 H   0  0  0  0  0  0  0  0  0  0  0  0
   -7.9840   13.6935  -33.7053 H   0  0  0  0  0  0  0  0  0  0  0  0
  -14.8119   15.4893  -40.1708 H   0  0  0  0  0  0  0  0  0  0  0  0
  1  8  1  0  0  0  0
  1 14  2  0  0  0  0
  1 17  1  0  0  0  0
  2 13  1  0  0  0  0
  2 15  2  0  0  0  0
  2 18  1  0  0  0  0
  3  6  1  0  0  0  0
  3  7  1  0  0  0  0
  4  7  1  0  0  0  0
  4  8  1  0  0  0  0
  5  8  1  0  0  0  0
  5 13  1  0  0  0  0
  6 16  1  0  0  0  0
  7 13  1  0  0  0  0
  8 16  1  0  0  0  0
  9 12  1  0  0  0  0
 10 12  1  0  0  0  0
 11 12  1  0  0  0  0
 12 18  1  0  0  0  0
  3 19  1  0  0  0  0
  3 20  1  0  0  0  0
  4 21  1  0  0  0  0
  4 22  1  0  0  0  0
  5 23  1  0  0  0  0
  5 24  1  0  0  0  0
  6 25  1  0  0  0  0
  6 26  1  0  0  0  0
  7 27  1  0  0  0  0
  9 28  1  0  0  0  0
  9 29  1  0  0  0  0
  9 30  1  0  0  0  0
 10 31  1  0  0  0  0
 10 32  1  0  0  0  0
 10 33  1  0  0  0  0
 11 34  1  0  0  0  0
 11 35  1  0  0  0  0
 11 36  1  0  0  0  0
 17 37  1  0  0  0  0
M  END
> <id>
EN300-37139112

> <smiles>
CC(C)(C)OC(=O)N1CC2(CC1CCO2)C(=O)O

> <IUPAC Name>
6-[(tert-butoxy)carbonyl]-2-oxa-6-azabicyclo[3.2.1]octane-1-carboxylic acid

> <CAS>
2803855-72-1

> <Purity>
95

> <URL>
https://www.enaminestore.com/catalog/EN300-37139112

> <ROCS_ShapeQuery>
__x1247relevant_x1083L0AP1_x1305L0BP1_

> <ROCS_TanimotoCombo>
0.730 

> <ROCS_ShapeTanimoto>
0.528 

> <ROCS_ColorTanimoto>
0.202 

> <ROCS_RefTversky>
0.454 

> <ROCS_RefColorTversky>
0.235 

> <ROCS_RefTverskyCombo>
0.689 

> <ROCS_FitTversky>
1.446 

> <ROCS_FitColorTversky>
0.591 

> <ROCS_FitTverskyCombo>
2.037 

> <ROCS_ColorScore>
-7.703

> <ROCS_Overlap>
1340.064

> <ROCS_Rank>
204                 

$$$$
untitled-dbase-64806_2
  -OEChem-06232314393D

 36 38  0     1  0  0  0  0  0999 V2000
  -10.0030   15.2658  -36.6548 C   0  0  0  0  0  0  0  0  0  0  0  0
  -11.6644   13.8145  -37.7882 C   0  0  0  0  0  0  0  0  0  0  0  0
  -12.4169   15.8874  -36.5841 C   0  0  0  0  0  0  0  0  0  0  0  0
  -11.1219   16.0784  -38.7259 C   0  0  0  0  0  0  0  0  0  0  0  0
  -14.1033   14.4204  -37.7342 C   0  0  0  0  0  0  0  0  0  0  0  0
  -12.8054   14.6172  -39.8759 C   0  0  0  0  0  0  0  0  0  0  0  0
  -13.5586   16.6857  -38.6736 C   0  0  0  0  0  0  0  0  0  0  0  0
  -11.2892   15.2658  -37.4310 C   0  0  0  0  0  0  0  0  0  0  0  0
  -12.9857   13.7796  -38.5908 C   0  0  1  0  0  0  0  0  0  0  0  0
  -13.7496   15.8815  -37.3687 C   0  0  2  0  0  0  0  0  0  0  0  0
  -12.4360   16.0672  -39.5236 C   0  0  0  0  0  0  0  0  0  0  0  0
  -13.3518   12.3357  -38.9462 C   0  0  0  0  0  0  0  0  0  0  0  0
  -14.8654   16.5016  -36.5230 C   0  0  0  0  0  0  0  0  0  0  0  0
   -8.9757   15.8312  -36.9988 O   0  0  0  0  0  0  0  0  0  0  0  0
  -10.1329   14.5469  -35.5131 O   0  0  0  0  0  0  0  0  0  0  0  0
  -12.2585   16.8236  -40.7135 O   0  0  0  0  0  0  0  0  0  0  0  0
  -10.8562   13.3496  -38.3696 H   0  0  0  0  0  0  0  0  0  0  0  0
  -11.7616   13.2148  -36.8727 H   0  0  0  0  0  0  0  0  0  0  0  0
  -12.5320   15.3322  -35.6430 H   0  0  0  0  0  0  0  0  0  0  0  0
  -12.1493   16.9142  -36.2990 H   0  0  0  0  0  0  0  0  0  0  0  0
  -10.8240   17.1122  -38.5025 H   0  0  0  0  0  0  0  0  0  0  0  0
  -10.3056   15.6747  -39.3408 H   0  0  0  0  0  0  0  0  0  0  0  0
  -15.0547   14.3934  -38.2824 H   0  0  0  0  0  0  0  0  0  0  0  0
  -14.2551   13.8329  -36.8187 H   0  0  0  0  0  0  0  0  0  0  0  0
  -12.0278   14.1811  -40.5176 H   0  0  0  0  0  0  0  0  0  0  0  0
  -13.7233   14.6020  -40.4791 H   0  0  0  0  0  0  0  0  0  0  0  0
  -14.4924   16.7138  -39.2512 H   0  0  0  0  0  0  0  0  0  0  0  0
  -13.3205   17.7349  -38.4522 H   0  0  0  0  0  0  0  0  0  0  0  0
  -14.2816   12.3230  -39.5099 H   0  0  0  0  0  0  0  0  0  0  0  0
  -13.4757   11.7557  -38.0348 H   0  0  0  0  0  0  0  0  0  0  0  0
  -12.5600   11.8959  -39.5480 H   0  0  0  0  0  0  0  0  0  0  0  0
  -15.7969   16.4922  -37.0841 H   0  0  0  0  0  0  0  0  0  0  0  0
  -14.6066   17.5276  -36.2727 H   0  0  0  0  0  0  0  0  0  0  0  0
  -14.9910   15.9284  -35.6075 H   0  0  0  0  0  0  0  0  0  0  0  0
   -9.3017   14.5332  -34.9922 H   0  0  0  0  0  0  0  0  0  0  0  0
  -13.1031   16.7962  -41.1917 H   0  0  0  0  0  0  0  0  0  0  0  0
  1  8  1  0  0  0  0
  1 14  2  0  0  0  0
  1 15  1  0  0  0  0
  2  8  1  0  0  0  0
  2  9  1  0  0  0  0
  3  8  1  0  0  0  0
  3 10  1  0  0  0  0
  4  8  1  0  0  0  0
  4 11  1  0  0  0  0
  5  9  1  0  0  0  0
  5 10  1  0  0  0  0
  6  9  1  0  0  0  0
  6 11  1  0  0  0  0
  7 10  1  0  0  0  0
  7 11  1  0  0  0  0
  9 12  1  0  0  0  0
 10 13  1  0  0  0  0
 11 16  1  0  0  0  0
  2 17  1  0  0  0  0
  2 18  1  0  0  0  0
  3 19  1  0  0  0  0
  3 20  1  0  0  0  0
  4 21  1  0  0  0  0
  4 22  1  0  0  0  0
  5 23  1  0  0  0  0
  5 24  1  0  0  0  0
  6 25  1  0  0  0  0
  6 26  1  0  0  0  0
  7 27  1  0  0  0  0
  7 28  1  0  0  0  0
 12 29  1  0  0  0  0
 12 30  1  0  0  0  0
 12 31  1  0  0  0  0
 13 32  1  0  0  0  0
 13 33  1  0  0  0  0
 13 34  1  0  0  0  0
 15 35  1  0  0  0  0
 16 36  1  0  0  0  0
M  END
> <id>
EN300-1725646

> <smiles>
CC1(CC2(C)CC3(O)C1)CC(C2)(C3)C(=O)O

> <MDLNUMBER>
MFCD31666673

> <IUPAC Name>
3-hydroxy-5,7-dimethyladamantane-1-carboxylic acid

> <CAS>
14575-03-2

> <Purity>
95

> <URL>
https://www.enaminestore.com/catalog/EN300-1725646

> <MP>
228-230

> <ROCS_ShapeQuery>
__x1247relevant_x1083L0AP1_x1305L0BP1_

> <ROCS_TanimotoCombo>
0.730 

> <ROCS_ShapeTanimoto>
0.501 

> <ROCS_ColorTanimoto>
0.229 

> <ROCS_RefTversky>
0.429 

> <ROCS_RefColorTversky>
0.258 

> <ROCS_RefTverskyCombo>
0.687 

> <ROCS_FitTversky>
1.505 

> <ROCS_FitColorTversky>
0.670 

> <ROCS_FitTverskyCombo>
2.174 

> <ROCS_ColorScore>
-8.432

> <ROCS_Overlap>
1264.965

> <ROCS_Rank>
205                 

$$$$
untitled-dbase-121833_2
  -OEChem-06232314393D

 41 43  0     1  0  0  0  0  0999 V2000
  -13.8419   15.2876  -37.2372 C   0  0  0  0  0  0  0  0  0  0  0  0
  -13.7822   14.0233  -38.1259 C   0  0  0  0  0  0  0  0  0  0  0  0
  -11.5435   16.3388  -37.6618 C   0  0  0  0  0  0  0  0  0  0  0  0
  -11.4366   14.2179  -39.1404 C   0  0  0  0  0  0  0  0  0  0  0  0
   -9.1076   14.6724  -35.5887 C   0  0  0  0  0  0  0  0  0  0  0  0
  -10.6072   14.4372  -35.5086 C   0  0  0  0  0  0  0  0  0  0  0  0
  -13.0578   16.4088  -37.9409 C   0  0  1  0  0  0  0  0  0  0  0  0
  -12.9539   14.3550  -39.3796 C   0  0  2  0  0  0  0  0  0  0  0  0
   -9.3211   15.0842  -37.9709 C   0  0  2  0  0  0  0  0  0  0  0  0
  -10.8747   14.9332  -37.8676 C   0  0  0  0  0  0  0  0  0  0  0  0
   -7.1069   13.8949  -38.0649 C   0  0  0  0  0  0  0  0  0  0  0  0
   -9.2274   12.5765  -37.8030 C   0  0  0  0  0  0  0  0  0  0  0  0
   -8.5861   13.8117  -38.4262 C   0  0  0  0  0  0  0  0  0  0  0  0
   -8.7723   15.5678  -36.6929 N   0  0  0  0  0  0  0  0  0  0  0  0
  -14.7526   16.2075  -39.9668 O   0  0  0  0  0  0  0  0  0  0  0  0
  -12.3284   16.6982  -40.4946 O   0  0  0  0  0  0  0  0  0  0  0  0
  -11.1556   14.0437  -36.7647 O   0  0  0  0  0  0  0  0  0  0  0  0
  -13.3410   16.0729  -39.6724 S   0  0  0  0  0  0  0  0  0  0  0  0
  -14.8928   15.5888  -37.1383 H   0  0  0  0  0  0  0  0  0  0  0  0
  -13.4831   15.0991  -36.2208 H   0  0  0  0  0  0  0  0  0  0  0  0
  -13.3945   13.1544  -37.5865 H   0  0  0  0  0  0  0  0  0  0  0  0
  -14.8055   13.7653  -38.4262 H   0  0  0  0  0  0  0  0  0  0  0  0
  -11.0543   17.0883  -38.2902 H   0  0  0  0  0  0  0  0  0  0  0  0
  -11.3804   16.6548  -36.6229 H   0  0  0  0  0  0  0  0  0  0  0  0
  -11.2027   13.1471  -39.1174 H   0  0  0  0  0  0  0  0  0  0  0  0
  -10.9335   14.6046  -40.0348 H   0  0  0  0  0  0  0  0  0  0  0  0
   -8.7413   15.1016  -34.6428 H   0  0  0  0  0  0  0  0  0  0  0  0
   -8.5896   13.7121  -35.7241 H   0  0  0  0  0  0  0  0  0  0  0  0
  -10.8625   13.7033  -34.7332 H   0  0  0  0  0  0  0  0  0  0  0  0
  -11.1059   15.3710  -35.2168 H   0  0  0  0  0  0  0  0  0  0  0  0
  -13.4542   17.3989  -37.7013 H   0  0  0  0  0  0  0  0  0  0  0  0
  -13.2681   13.7678  -40.2459 H   0  0  0  0  0  0  0  0  0  0  0  0
   -9.1202   15.8604  -38.7366 H   0  0  0  0  0  0  0  0  0  0  0  0
   -6.9629   13.9688  -36.9815 H   0  0  0  0  0  0  0  0  0  0  0  0
   -6.6401   14.7701  -38.5289 H   0  0  0  0  0  0  0  0  0  0  0  0
   -6.5742   13.0052  -38.4173 H   0  0  0  0  0  0  0  0  0  0  0  0
   -9.1636   12.6006  -36.7097 H   0  0  0  0  0  0  0  0  0  0  0  0
   -8.7281   11.6663  -38.1515 H   0  0  0  0  0  0  0  0  0  0  0  0
  -10.2849   12.5043  -38.0787 H   0  0  0  0  0  0  0  0  0  0  0  0
   -8.6758   13.7397  -39.5151 H   0  0  0  0  0  0  0  0  0  0  0  0
   -9.1475   16.5016  -36.4899 H   0  0  0  0  0  0  0  0  0  0  0  0
  1  2  1  0  0  0  0
  1  7  1  0  0  0  0
  2  8  1  0  0  0  0
  3  7  1  0  0  0  0
  3 10  1  0  0  0  0
  4  8  1  0  0  0  0
  4 10  1  0  0  0  0
  5  6  1  0  0  0  0
  5 14  1  0  0  0  0
  6 17  1  0  0  0  0
  7 18  1  0  0  0  0
  8 18  1  0  0  0  0
  9 10  1  0  0  0  0
  9 13  1  0  0  0  0
  9 14  1  0  0  0  0
 10 17  1  0  0  0  0
 11 13  1  0  0  0  0
 12 13  1  0  0  0  0
 15 18  2  0  0  0  0
 16 18  2  0  0  0  0
  1 19  1  0  0  0  0
  1 20  1  0  0  0  0
  2 21  1  0  0  0  0
  2 22  1  0  0  0  0
  3 23  1  0  0  0  0
  3 24  1  0  0  0  0
  4 25  1  0  0  0  0
  4 26  1  0  0  0  0
  5 27  1  0  0  0  0
  5 28  1  0  0  0  0
  6 29  1  0  0  0  0
  6 30  1  0  0  0  0
  7 31  1  0  0  0  0
  8 32  1  0  0  0  0
  9 33  1  0  0  0  0
 11 34  1  0  0  0  0
 11 35  1  0  0  0  0
 11 36  1  0  0  0  0
 12 37  1  0  0  0  0
 12 38  1  0  0  0  0
 12 39  1  0  0  0  0
 13 40  1  0  0  0  0
 14 41  1  0  0  0  0
M  END
> <id>
EN300-1639943

> <smiles>
CC(C)C1NCCOC21CC3CCC(C2)S3(=O)=O

> <IUPAC Name>
3'-(propan-2-yl)-8lambda6-thiaspiro[bicyclo[3.2.1]octane-3,2'-morpholine]-8,8-dione

> <CAS>
2171750-18-6

> <URL>
https://www.enaminestore.com/catalog/EN300-1639943

> <ROCS_ShapeQuery>
__x1247relevant_x1083L0AP1_x1305L0BP1_

> <ROCS_TanimotoCombo>
0.730 

> <ROCS_ShapeTanimoto>
0.515 

> <ROCS_ColorTanimoto>
0.214 

> <ROCS_RefTversky>
0.443 

> <ROCS_RefColorTversky>
0.250 

> <ROCS_RefTverskyCombo>
0.693 

> <ROCS_FitTversky>
1.468 

> <ROCS_FitColorTversky>
0.598 

> <ROCS_FitTverskyCombo>
2.066 

> <ROCS_ColorScore>
-8.213

> <ROCS_Overlap>
1305.946

> <ROCS_Rank>
206                 

$$$$
untitled-dbase-58130_17
  -OEChem-06232314393D

 50 52  0     1  0  0  0  0  0999 V2000
   -9.0733   14.3959  -37.0997 C   0  0  0  0  0  0  0  0  0  0  0  0
  -14.3122   15.0806  -37.4761 C   0  0  0  0  0  0  0  0  0  0  0  0
  -12.5541   13.4368  -38.1993 C   0  0  0  0  0  0  0  0  0  0  0  0
  -11.9333   15.3680  -36.7177 C   0  0  0  0  0  0  0  0  0  0  0  0
  -13.5431   15.0332  -39.8665 C   0  0  0  0  0  0  0  0  0  0  0  0
  -12.9206   16.9615  -38.3884 C   0  0  0  0  0  0  0  0  0  0  0  0
  -11.1671   15.3198  -39.1071 C   0  0  0  0  0  0  0  0  0  0  0  0
  -13.8507   14.1605  -38.6307 C   0  0  2  0  0  0  0  0  0  0  0  0
  -13.2202   16.1197  -37.1293 C   0  0  1  0  0  0  0  0  0  0  0  0
  -11.4433   14.4550  -37.8615 C   0  0  0  0  0  0  0  0  0  0  0  0
  -12.4452   16.0573  -39.5363 C   0  0  0  0  0  0  0  0  0  0  0  0
  -14.9425   13.1391  -38.9627 C   0  0  0  0  0  0  0  0  0  0  0  0
  -13.6935   17.0248  -35.9881 C   0  0  0  0  0  0  0  0  0  0  0  0
   -8.7079   14.0802  -34.5282 C   0  0  0  0  0  0  0  0  0  0  0  0
   -7.2213   12.1179  -35.0271 C   0  0  0  0  0  0  0  0  0  0  0  0
   -6.3901   14.4525  -35.4357 C   0  0  0  0  0  0  0  0  0  0  0  0
   -7.6117   13.5347  -35.4423 C   0  0  0  0  0  0  0  0  0  0  0  0
  -10.2396   13.7584  -37.4623 N   0  0  0  0  0  0  0  0  0  0  0  0
   -8.8994   15.6097  -37.0660 O   0  0  0  0  0  0  0  0  0  0  0  0
  -12.1853   16.8414  -40.6927 O   0  0  0  0  0  0  0  0  0  0  0  0
   -8.1240   13.4671  -36.7779 O   0  0  0  0  0  0  0  0  0  0  0  0
  -15.2405   15.5956  -37.7585 H   0  0  0  0  0  0  0  0  0  0  0  0
  -14.5485   14.4771  -36.5893 H   0  0  0  0  0  0  0  0  0  0  0  0
  -12.7573   12.8018  -37.3261 H   0  0  0  0  0  0  0  0  0  0  0  0
  -12.2174   12.7685  -39.0036 H   0  0  0  0  0  0  0  0  0  0  0  0
  -11.1493   16.0912  -36.4545 H   0  0  0  0  0  0  0  0  0  0  0  0
  -12.1262   14.7705  -35.8162 H   0  0  0  0  0  0  0  0  0  0  0  0
  -13.2273   14.4093  -40.7137 H   0  0  0  0  0  0  0  0  0  0  0  0
  -14.4474   15.5543  -40.2092 H   0  0  0  0  0  0  0  0  0  0  0  0
  -13.8117   17.5224  -38.7018 H   0  0  0  0  0  0  0  0  0  0  0  0
  -12.1584   17.7224  -38.1724 H   0  0  0  0  0  0  0  0  0  0  0  0
  -10.3683   16.0466  -38.9062 H   0  0  0  0  0  0  0  0  0  0  0  0
  -10.8025   14.7017  -39.9390 H   0  0  0  0  0  0  0  0  0  0  0  0
  -14.6079   12.4982  -39.7748 H   0  0  0  0  0  0  0  0  0  0  0  0
  -15.8487   13.6589  -39.2645 H   0  0  0  0  0  0  0  0  0  0  0  0
  -15.1515   12.5304  -38.0862 H   0  0  0  0  0  0  0  0  0  0  0  0
  -12.9188   17.7507  -35.7528 H   0  0  0  0  0  0  0  0  0  0  0  0
  -13.9018   16.4225  -35.1071 H   0  0  0  0  0  0  0  0  0  0  0  0
  -14.5980   17.5482  -36.2887 H   0  0  0  0  0  0  0  0  0  0  0  0
   -8.9910   15.0970  -34.8230 H   0  0  0  0  0  0  0  0  0  0  0  0
   -9.6028   13.4497  -34.5508 H   0  0  0  0  0  0  0  0  0  0  0  0
   -8.3566   14.1452  -33.4921 H   0  0  0  0  0  0  0  0  0  0  0  0
   -6.4350   11.7226  -35.6803 H   0  0  0  0  0  0  0  0  0  0  0  0
   -8.0732   11.4349  -35.1213 H   0  0  0  0  0  0  0  0  0  0  0  0
   -6.8626   12.0843  -33.9932 H   0  0  0  0  0  0  0  0  0  0  0  0
   -5.6037   14.0615  -36.0913 H   0  0  0  0  0  0  0  0  0  0  0  0
   -6.6443   15.4647  -35.7666 H   0  0  0  0  0  0  0  0  0  0  0  0
   -5.9540   14.5135  -34.4320 H   0  0  0  0  0  0  0  0  0  0  0  0
  -10.2553   12.7443  -37.4487 H   0  0  0  0  0  0  0  0  0  0  0  0
  -11.4906   17.4752  -40.4512 H   0  0  0  0  0  0  0  0  0  0  0  0
  1 18  1  0  0  0  0
  1 19  2  0  0  0  0
  1 21  1  0  0  0  0
  2  8  1  0  0  0  0
  2  9  1  0  0  0  0
  3  8  1  0  0  0  0
  3 10  1  0  0  0  0
  4  9  1  0  0  0  0
  4 10  1  0  0  0  0
  5  8  1  0  0  0  0
  5 11  1  0  0  0  0
  6  9  1  0  0  0  0
  6 11  1  0  0  0  0
  7 10  1  0  0  0  0
  7 11  1  0  0  0  0
  8 12  1  0  0  0  0
  9 13  1  0  0  0  0
 10 18  1  0  0  0  0
 11 20  1  0  0  0  0
 14 17  1  0  0  0  0
 15 17  1  0  0  0  0
 16 17  1  0  0  0  0
 17 21  1  0  0  0  0
  2 22  1  0  0  0  0
  2 23  1  0  0  0  0
  3 24  1  0  0  0  0
  3 25  1  0  0  0  0
  4 26  1  0  0  0  0
  4 27  1  0  0  0  0
  5 28  1  0  0  0  0
  5 29  1  0  0  0  0
  6 30  1  0  0  0  0
  6 31  1  0  0  0  0
  7 32  1  0  0  0  0
  7 33  1  0  0  0  0
 12 34  1  0  0  0  0
 12 35  1  0  0  0  0
 12 36  1  0  0  0  0
 13 37  1  0  0  0  0
 13 38  1  0  0  0  0
 13 39  1  0  0  0  0
 14 40  1  0  0  0  0
 14 41  1  0  0  0  0
 14 42  1  0  0  0  0
 15 43  1  0  0  0  0
 15 44  1  0  0  0  0
 15 45  1  0  0  0  0
 16 46  1  0  0  0  0
 16 47  1  0  0  0  0
 16 48  1  0  0  0  0
 18 49  1  0  0  0  0
 20 50  1  0  0  0  0
M  END
> <id>
EN300-7548425

> <smiles>
CC(C)(C)OC(=O)NC1(CC2(C)CC3(C)CC(O)(C2)C1)C3

> <IUPAC Name>
tert-butyl N-(3-hydroxy-5,7-dimethyladamantan-1-yl)carbamate

> <CAS>
356572-10-6

> <URL>
https://www.enaminestore.com/catalog/EN300-7548425

> <ROCS_ShapeQuery>
__x1247relevant_x1083L0AP1_x1305L0BP1_

> <ROCS_TanimotoCombo>
0.730 

> <ROCS_ShapeTanimoto>
0.505 

> <ROCS_ColorTanimoto>
0.225 

> <ROCS_RefTversky>
0.454 

> <ROCS_RefColorTversky>
0.255 

> <ROCS_RefTverskyCombo>
0.709 

> <ROCS_FitTversky>
1.282 

> <ROCS_FitColorTversky>
0.663 

> <ROCS_FitTverskyCombo>
1.944 

> <ROCS_ColorScore>
-8.331

> <ROCS_Overlap>
1343.574

> <ROCS_Rank>
207                 

$$$$
untitled-dbase-30817_9
  -OEChem-06232314393D

 32 34  0     1  0  0  0  0  0999 V2000
   -9.3496   14.0565  -36.7970 C   0  0  0  0  0  0  0  0  0  0  0  0
   -9.9375   15.3034  -36.2039 C   0  0  0  0  0  0  0  0  0  0  0  0
  -12.5773   16.5679  -37.5305 C   0  0  0  0  0  0  0  0  0  0  0  0
  -13.5657   15.4921  -37.0786 C   0  0  0  0  0  0  0  0  0  0  0  0
  -12.0094   15.7865  -39.9036 C   0  0  0  0  0  0  0  0  0  0  0  0
  -13.6683   13.9860  -39.1497 C   0  0  0  0  0  0  0  0  0  0  0  0
  -10.8426   14.2216  -36.7255 C   0  0  0  0  0  0  0  0  0  0  0  0
  -11.5779   15.8231  -38.4203 C   0  0  2  0  0  0  0  0  0  0  0  0
  -13.0657   14.2065  -37.7436 C   0  0  1  0  0  0  0  0  0  0  0  0
  -13.4024   15.1525  -40.1289 C   0  0  0  0  0  0  0  0  0  0  0  0
  -13.5609   14.6847  -41.5782 C   0  0  0  0  0  0  0  0  0  0  0  0
  -11.6224   14.4293  -37.9430 N   0  0  0  0  0  0  0  0  0  0  0  0
  -14.4096   16.1474  -39.9101 O   0  0  0  0  0  0  0  0  0  0  0  0
   -8.8615   14.1402  -37.7605 H   0  0  0  0  0  0  0  0  0  0  0  0
   -8.8877   13.3457  -36.1226 H   0  0  0  0  0  0  0  0  0  0  0  0
   -9.8710   15.4313  -35.1303 H   0  0  0  0  0  0  0  0  0  0  0  0
   -9.8438   16.2219  -36.7706 H   0  0  0  0  0  0  0  0  0  0  0  0
  -13.0716   17.3986  -38.0432 H   0  0  0  0  0  0  0  0  0  0  0  0
  -12.0705   16.9844  -36.6516 H   0  0  0  0  0  0  0  0  0  0  0  0
  -13.5247   15.3995  -35.9866 H   0  0  0  0  0  0  0  0  0  0  0  0
  -14.5978   15.7390  -37.3450 H   0  0  0  0  0  0  0  0  0  0  0  0
  -11.9963   16.8094  -40.3012 H   0  0  0  0  0  0  0  0  0  0  0  0
  -11.2527   15.2164  -40.4599 H   0  0  0  0  0  0  0  0  0  0  0  0
  -13.2377   13.0612  -39.5576 H   0  0  0  0  0  0  0  0  0  0  0  0
  -14.7479   13.8183  -39.0483 H   0  0  0  0  0  0  0  0  0  0  0  0
  -11.3576   13.6227  -35.9810 H   0  0  0  0  0  0  0  0  0  0  0  0
  -10.5747   16.2597  -38.3559 H   0  0  0  0  0  0  0  0  0  0  0  0
  -13.2747   13.3246  -37.1272 H   0  0  0  0  0  0  0  0  0  0  0  0
  -14.5454   14.2431  -41.7141 H   0  0  0  0  0  0  0  0  0  0  0  0
  -12.7995   13.9431  -41.8082 H   0  0  0  0  0  0  0  0  0  0  0  0
  -13.4514   15.5329  -42.2500 H   0  0  0  0  0  0  0  0  0  0  0  0
  -14.2359   16.8514  -40.5508 H   0  0  0  0  0  0  0  0  0  0  0  0
  1  2  1  0  0  0  0
  1  7  1  0  0  0  0
  2  7  1  0  0  0  0
  3  4  1  0  0  0  0
  3  8  1  0  0  0  0
  4  9  1  0  0  0  0
  5  8  1  0  0  0  0
  5 10  1  0  0  0  0
  6  9  1  0  0  0  0
  6 10  1  0  0  0  0
  7 12  1  0  0  0  0
  8 12  1  0  0  0  0
  9 12  1  0  0  0  0
 10 11  1  0  0  0  0
 10 13  1  0  0  0  0
  1 14  1  0  0  0  0
  1 15  1  0  0  0  0
  2 16  1  0  0  0  0
  2 17  1  0  0  0  0
  3 18  1  0  0  0  0
  3 19  1  0  0  0  0
  4 20  1  0  0  0  0
  4 21  1  0  0  0  0
  5 22  1  0  0  0  0
  5 23  1  0  0  0  0
  6 24  1  0  0  0  0
  6 25  1  0  0  0  0
  7 26  1  0  0  0  0
  8 27  1  0  0  0  0
  9 28  1  0  0  0  0
 11 29  1  0  0  0  0
 11 30  1  0  0  0  0
 11 31  1  0  0  0  0
 13 32  1  0  0  0  0
M  END
> <id>
EN300-89068

> <smiles>
CC1(O)CC2CCC(C1)N2C3CC3

> <MDLNUMBER>
MFCD13196436

> <IUPAC Name>
8-cyclopropyl-3-methyl-8-azabicyclo[3.2.1]octan-3-ol

> <CAS>
1210342-66-7

> <URL>
https://www.enaminestore.com/catalog/EN300-89068

> <ROCS_ShapeQuery>
__x1247relevant_x1083L0AP1_x1305L0BP1_

> <ROCS_TanimotoCombo>
0.730 

> <ROCS_ShapeTanimoto>
0.487 

> <ROCS_ColorTanimoto>
0.243 

> <ROCS_RefTversky>
0.405 

> <ROCS_RefColorTversky>
0.256 

> <ROCS_RefTverskyCombo>
0.661 

> <ROCS_FitTversky>
1.708 

> <ROCS_FitColorTversky>
0.829 

> <ROCS_FitTverskyCombo>
2.537 

> <ROCS_ColorScore>
-8.330

> <ROCS_Overlap>
1191.192

> <ROCS_Rank>
208                 

$$$$
untitled-dbase-175236_228
  -OEChem-06232314393D

 35 36  0     1  0  0  0  0  0999 V2000
   -9.6977   14.7504  -37.2959 C   0  0  0  0  0  0  0  0  0  0  0  0
  -12.8205   14.2850  -39.0186 C   0  0  0  0  0  0  0  0  0  0  0  0
  -11.1961   16.0320  -38.8989 C   0  0  0  0  0  0  0  0  0  0  0  0
  -13.0594   15.2079  -36.8935 C   0  0  0  0  0  0  0  0  0  0  0  0
  -12.1448   14.2504  -37.6572 C   0  0  2  0  0  0  0  0  0  0  0  0
  -12.7042   15.8052  -39.0957 C   0  0  1  0  0  0  0  0  0  0  0  0
  -10.1172   14.1675  -34.7768 C   0  0  0  0  0  0  0  0  0  0  0  0
   -9.9459   11.7301  -35.3588 C   0  0  0  0  0  0  0  0  0  0  0  0
   -7.8723   13.1449  -35.2759 C   0  0  0  0  0  0  0  0  0  0  0  0
  -13.3021   16.4667  -40.3114 C   0  0  0  0  0  0  0  0  0  0  0  0
   -9.3655   13.1220  -35.5994 C   0  0  0  0  0  0  0  0  0  0  0  0
  -10.9043   14.9857  -37.9196 N   0  0  0  0  0  0  0  0  0  0  0  0
   -8.8670   15.6197  -37.0444 O   0  0  0  0  0  0  0  0  0  0  0  0
  -13.3648   16.2374  -37.8756 O   0  0  0  0  0  0  0  0  0  0  0  0
  -14.6910   16.1692  -40.3713 O   0  0  0  0  0  0  0  0  0  0  0  0
   -9.5359   13.4264  -36.9882 O   0  0  0  0  0  0  0  0  0  0  0  0
  -12.2677   13.7565  -39.8020 H   0  0  0  0  0  0  0  0  0  0  0  0
  -13.8564   13.9303  -38.9819 H   0  0  0  0  0  0  0  0  0  0  0  0
  -10.6031   15.8460  -39.7998 H   0  0  0  0  0  0  0  0  0  0  0  0
  -10.9508   17.0078  -38.4688 H   0  0  0  0  0  0  0  0  0  0  0  0
  -14.0010   14.7341  -36.5980 H   0  0  0  0  0  0  0  0  0  0  0  0
  -12.5897   15.6639  -36.0168 H   0  0  0  0  0  0  0  0  0  0  0  0
  -11.9849   13.2783  -37.1889 H   0  0  0  0  0  0  0  0  0  0  0  0
   -9.7036   15.1681  -34.9466 H   0  0  0  0  0  0  0  0  0  0  0  0
  -11.1835   14.1854  -35.0246 H   0  0  0  0  0  0  0  0  0  0  0  0
  -10.0145   13.9687  -33.7038 H   0  0  0  0  0  0  0  0  0  0  0  0
   -9.4095   10.9768  -35.9471 H   0  0  0  0  0  0  0  0  0  0  0  0
  -10.9932   11.6833  -35.6787 H   0  0  0  0  0  0  0  0  0  0  0  0
   -9.8930   11.4473  -34.3025 H   0  0  0  0  0  0  0  0  0  0  0  0
   -7.3329   12.3950  -35.8658 H   0  0  0  0  0  0  0  0  0  0  0  0
   -7.4309   14.1262  -35.4777 H   0  0  0  0  0  0  0  0  0  0  0  0
   -7.6978   12.8943  -34.2233 H   0  0  0  0  0  0  0  0  0  0  0  0
  -12.8273   16.0990  -41.2286 H   0  0  0  0  0  0  0  0  0  0  0  0
  -13.1808   17.5551  -40.2627 H   0  0  0  0  0  0  0  0  0  0  0  0
  -15.0872   16.5182  -39.5567 H   0  0  0  0  0  0  0  0  0  0  0  0
  1 12  1  0  0  0  0
  1 13  2  0  0  0  0
  1 16  1  0  0  0  0
  2  5  1  0  0  0  0
  2  6  1  0  0  0  0
  3  6  1  0  0  0  0
  3 12  1  0  0  0  0
  4  5  1  0  0  0  0
  4 14  1  0  0  0  0
  5 12  1  0  0  0  0
  6 10  1  0  0  0  0
  6 14  1  0  0  0  0
  7 11  1  0  0  0  0
  8 11  1  0  0  0  0
  9 11  1  0  0  0  0
 10 15  1  0  0  0  0
 11 16  1  0  0  0  0
  2 17  1  0  0  0  0
  2 18  1  0  0  0  0
  3 19  1  0  0  0  0
  3 20  1  0  0  0  0
  4 21  1  0  0  0  0
  4 22  1  0  0  0  0
  5 23  1  0  0  0  0
  7 24  1  0  0  0  0
  7 25  1  0  0  0  0
  7 26  1  0  0  0  0
  8 27  1  0  0  0  0
  8 28  1  0  0  0  0
  8 29  1  0  0  0  0
  9 30  1  0  0  0  0
  9 31  1  0  0  0  0
  9 32  1  0  0  0  0
 10 33  1  0  0  0  0
 10 34  1  0  0  0  0
 15 35  1  0  0  0  0
M  END
> <id>
EN300-268842

> <smiles>
CC(C)(C)OC(=O)N1CC2(CO)CC1CO2

> <MDLNUMBER>
MFCD22209627

> <IUPAC Name>
tert-butyl 1-(hydroxymethyl)-2-oxa-5-azabicyclo[2.2.1]heptane-5-carboxylate

> <CAS>
1357351-86-0

> <Purity>
95

> <URL>
https://www.enaminestore.com/catalog/EN300-268842

> <ROCS_ShapeQuery>
__x1247relevant_x1083L0AP1_x1305L0BP1_

> <ROCS_TanimotoCombo>
0.730 

> <ROCS_ShapeTanimoto>
0.505 

> <ROCS_ColorTanimoto>
0.225 

> <ROCS_RefTversky>
0.431 

> <ROCS_RefColorTversky>
0.254 

> <ROCS_RefTverskyCombo>
0.685 

> <ROCS_FitTversky>
1.517 

> <ROCS_FitColorTversky>
0.662 

> <ROCS_FitTverskyCombo>
2.179 

> <ROCS_ColorScore>
-8.320

> <ROCS_Overlap>
1269.140

> <ROCS_Rank>
209                 

$$$$
untitled-dbase-11765_3
  -OEChem-06232314393D

 31 35  0     1  0  0  0  0  0999 V2000
  -14.7943   15.3903  -37.9136 C   0  0  0  0  0  0  0  0  0  0  0  0
  -11.9565   14.1116  -39.7800 C   0  0  0  0  0  0  0  0  0  0  0  0
  -14.0181   15.0964  -39.1771 C   0  0  2  0  0  0  0  0  0  0  0  0
  -13.1291   13.8774  -38.8251 C   0  0  2  0  0  0  0  0  0  0  0  0
  -13.5591   15.4641  -37.0406 C   0  0  2  0  0  0  0  0  0  0  0  0
  -11.5856   15.5584  -39.4513 C   0  0  1  0  0  0  0  0  0  0  0  0
  -12.9626   16.2251  -39.2454 C   0  0  2  0  0  0  0  0  0  0  0  0
  -12.6365   16.4762  -37.7632 C   0  0  2  0  0  0  0  0  0  0  0  0
  -12.7934   14.1427  -37.3011 C   0  0  2  0  0  0  0  0  0  0  0  0
  -11.2432   15.8114  -37.9417 C   0  0  1  0  0  0  0  0  0  0  0  0
  -11.3322   14.5642  -37.0498 C   0  0  1  0  0  0  0  0  0  0  0  0
  -11.0187   14.9011  -35.5907 C   0  0  0  0  0  0  0  0  0  0  0  0
   -9.6152   14.8163  -35.3701 N   0  0  0  0  0  0  0  0  0  0  0  0
  -10.4144   13.5591  -37.4541 O   0  0  0  0  0  0  0  0  0  0  0  0
  -15.3295   16.3437  -37.9618 H   0  0  0  0  0  0  0  0  0  0  0  0
  -15.4758   14.5837  -37.6285 H   0  0  0  0  0  0  0  0  0  0  0  0
  -11.1298   13.4111  -39.6512 H   0  0  0  0  0  0  0  0  0  0  0  0
  -12.2845   14.0287  -40.8239 H   0  0  0  0  0  0  0  0  0  0  0  0
  -14.6023   14.9839  -40.0931 H   0  0  0  0  0  0  0  0  0  0  0  0
  -13.6381   12.9203  -38.9681 H   0  0  0  0  0  0  0  0  0  0  0  0
  -13.7403   15.6962  -35.9893 H   0  0  0  0  0  0  0  0  0  0  0  0
  -10.9204   16.0559  -40.1618 H   0  0  0  0  0  0  0  0  0  0  0  0
  -13.1955   17.1080  -39.8436 H   0  0  0  0  0  0  0  0  0  0  0  0
  -12.6638   17.5162  -37.4326 H   0  0  0  0  0  0  0  0  0  0  0  0
  -13.1319   13.3075  -36.6806 H   0  0  0  0  0  0  0  0  0  0  0  0
  -10.3828   16.4682  -37.7831 H   0  0  0  0  0  0  0  0  0  0  0  0
  -11.3766   15.9127  -35.4119 H   0  0  0  0  0  0  0  0  0  0  0  0
  -11.5501   14.1792  -34.9743 H   0  0  0  0  0  0  0  0  0  0  0  0
   -9.4169   14.1511  -34.6437 H   0  0  0  0  0  0  0  0  0  0  0  0
   -9.1487   14.5240  -36.2106 H   0  0  0  0  0  0  0  0  0  0  0  0
  -10.6191   12.7651  -36.9336 H   0  0  0  0  0  0  0  0  0  0  0  0
  1  3  1  0  0  0  0
  1  5  1  0  0  0  0
  2  4  1  0  0  0  0
  2  6  1  0  0  0  0
  3  4  1  0  0  0  0
  3  7  1  0  0  0  0
  4  9  1  0  0  0  0
  5  8  1  0  0  0  0
  5  9  1  0  0  0  0
  6  7  1  0  0  0  0
  6 10  1  0  0  0  0
  7  8  1  0  0  0  0
  8 10  1  0  0  0  0
  9 11  1  0  0  0  0
 10 11  1  0  0  0  0
 11 12  1  0  0  0  0
 11 14  1  0  0  0  0
 12 13  1  0  0  0  0
  1 15  1  0  0  0  0
  1 16  1  0  0  0  0
  2 17  1  0  0  0  0
  2 18  1  0  0  0  0
  3 19  1  0  0  0  0
  4 20  1  0  0  0  0
  5 21  1  0  0  0  0
  6 22  1  0  0  0  0
  7 23  1  0  0  0  0
  8 24  1  0  0  0  0
  9 25  1  0  0  0  0
 10 26  1  0  0  0  0
 12 27  1  0  0  0  0
 12 28  1  0  0  0  0
 13 29  1  0  0  0  0
 13 30  1  0  0  0  0
 14 31  1  0  0  0  0
M  END
> <id>
EN300-186952

> <smiles>
NCC1(O)C2C3CC4C5CC(C2C35)C41

> <MDLNUMBER>
MFCD24519903

> <IUPAC Name>
8-(aminomethyl)pentacyclo[5.4.0.0^{2,6}.0^{3,10}.0^{5,9}]undecan-8-ol

> <CAS>
1795773-62-4

> <URL>
https://www.enaminestore.com/catalog/EN300-186952

> <ROCS_ShapeQuery>
__x1247relevant_x1083L0AP1_x1305L0BP1_

> <ROCS_TanimotoCombo>
0.730 

> <ROCS_ShapeTanimoto>
0.509 

> <ROCS_ColorTanimoto>
0.220 

> <ROCS_RefTversky>
0.429 

> <ROCS_RefColorTversky>
0.621 

> <ROCS_RefTverskyCombo>
1.051 

> <ROCS_FitTversky>
1.577 

> <ROCS_FitColorTversky>
0.254 

> <ROCS_FitTverskyCombo>
1.832 

> <ROCS_ColorScore>
-22.858

> <ROCS_Overlap>
1264.729

> <ROCS_Rank>
210                 

$$$$
untitled-dbase-11764_3
  -OEChem-06232314393D

 31 35  0     1  0  0  0  0  0999 V2000
  -14.7943   15.3903  -37.9136 C   0  0  0  0  0  0  0  0  0  0  0  0
  -11.9565   14.1116  -39.7800 C   0  0  0  0  0  0  0  0  0  0  0  0
  -14.0181   15.0964  -39.1771 C   0  0  2  0  0  0  0  0  0  0  0  0
  -13.1291   13.8774  -38.8251 C   0  0  2  0  0  0  0  0  0  0  0  0
  -13.5591   15.4641  -37.0406 C   0  0  2  0  0  0  0  0  0  0  0  0
  -11.5856   15.5584  -39.4513 C   0  0  1  0  0  0  0  0  0  0  0  0
  -12.9626   16.2251  -39.2454 C   0  0  2  0  0  0  0  0  0  0  0  0
  -12.6365   16.4762  -37.7632 C   0  0  2  0  0  0  0  0  0  0  0  0
  -12.7934   14.1427  -37.3011 C   0  0  2  0  0  0  0  0  0  0  0  0
  -11.2432   15.8114  -37.9417 C   0  0  1  0  0  0  0  0  0  0  0  0
  -11.3322   14.5642  -37.0498 C   0  0  1  0  0  0  0  0  0  0  0  0
  -11.0187   14.9011  -35.5907 C   0  0  0  0  0  0  0  0  0  0  0  0
   -9.6152   14.8163  -35.3701 N   0  0  0  0  0  0  0  0  0  0  0  0
  -10.4144   13.5591  -37.4541 O   0  0  0  0  0  0  0  0  0  0  0  0
  -15.3295   16.3437  -37.9618 H   0  0  0  0  0  0  0  0  0  0  0  0
  -15.4758   14.5837  -37.6285 H   0  0  0  0  0  0  0  0  0  0  0  0
  -11.1298   13.4111  -39.6512 H   0  0  0  0  0  0  0  0  0  0  0  0
  -12.2845   14.0287  -40.8239 H   0  0  0  0  0  0  0  0  0  0  0  0
  -14.6023   14.9839  -40.0931 H   0  0  0  0  0  0  0  0  0  0  0  0
  -13.6381   12.9203  -38.9681 H   0  0  0  0  0  0  0  0  0  0  0  0
  -13.7403   15.6962  -35.9893 H   0  0  0  0  0  0  0  0  0  0  0  0
  -10.9204   16.0559  -40.1618 H   0  0  0  0  0  0  0  0  0  0  0  0
  -13.1955   17.1080  -39.8436 H   0  0  0  0  0  0  0  0  0  0  0  0
  -12.6638   17.5162  -37.4326 H   0  0  0  0  0  0  0  0  0  0  0  0
  -13.1319   13.3075  -36.6806 H   0  0  0  0  0  0  0  0  0  0  0  0
  -10.3828   16.4682  -37.7831 H   0  0  0  0  0  0  0  0  0  0  0  0
  -11.3766   15.9127  -35.4119 H   0  0  0  0  0  0  0  0  0  0  0  0
  -11.5501   14.1792  -34.9743 H   0  0  0  0  0  0  0  0  0  0  0  0
   -9.4169   14.1511  -34.6437 H   0  0  0  0  0  0  0  0  0  0  0  0
   -9.1487   14.5240  -36.2106 H   0  0  0  0  0  0  0  0  0  0  0  0
  -10.6191   12.7651  -36.9336 H   0  0  0  0  0  0  0  0  0  0  0  0
  1  3  1  0  0  0  0
  1  5  1  0  0  0  0
  2  4  1  0  0  0  0
  2  6  1  0  0  0  0
  3  4  1  0  0  0  0
  3  7  1  0  0  0  0
  4  9  1  0  0  0  0
  5  8  1  0  0  0  0
  5  9  1  0  0  0  0
  6  7  1  0  0  0  0
  6 10  1  0  0  0  0
  7  8  1  0  0  0  0
  8 10  1  0  0  0  0
  9 11  1  0  0  0  0
 10 11  1  0  0  0  0
 11 12  1  0  0  0  0
 11 14  1  0  0  0  0
 12 13  1  0  0  0  0
  1 15  1  0  0  0  0
  1 16  1  0  0  0  0
  2 17  1  0  0  0  0
  2 18  1  0  0  0  0
  3 19  1  0  0  0  0
  4 20  1  0  0  0  0
  5 21  1  0  0  0  0
  6 22  1  0  0  0  0
  7 23  1  0  0  0  0
  8 24  1  0  0  0  0
  9 25  1  0  0  0  0
 10 26  1  0  0  0  0
 12 27  1  0  0  0  0
 12 28  1  0  0  0  0
 13 29  1  0  0  0  0
 13 30  1  0  0  0  0
 14 31  1  0  0  0  0
M  END
> <id>
EN300-186951

> <smiles>
Cl.NCC1(O)C2C3CC4C5CC(C2C35)C41

> <MDLNUMBER>
MFCD28118582

> <IUPAC Name>
8-(aminomethyl)pentacyclo[5.4.0.0^{2,6}.0^{3,10}.0^{5,9}]undecan-8-ol hydrochloride

> <CAS>
1795515-49-9

> <Purity>
95

> <URL>
https://www.enaminestore.com/catalog/EN300-186951

> <Saltdate>
Cl

> <ROCS_ShapeQuery>
__x1247relevant_x1083L0AP1_x1305L0BP1_

> <ROCS_TanimotoCombo>
0.730 

> <ROCS_ShapeTanimoto>
0.509 

> <ROCS_ColorTanimoto>
0.220 

> <ROCS_RefTversky>
0.429 

> <ROCS_RefColorTversky>
0.621 

> <ROCS_RefTverskyCombo>
1.051 

> <ROCS_FitTversky>
1.577 

> <ROCS_FitColorTversky>
0.254 

> <ROCS_FitTverskyCombo>
1.832 

> <ROCS_ColorScore>
-22.858

> <ROCS_Overlap>
1264.729

> <ROCS_Rank>
211                 

$$$$
untitled-dbase-103827_8
  -OEChem-06232314393D

 29 31  0     1  0  0  0  0  0999 V2000
  -11.2672   14.3502  -35.7633 C   0  0  0  0  0  0  0  0  0  0  0  0
   -9.1259   14.8685  -36.3363 C   0  0  0  0  0  0  0  0  0  0  0  0
  -11.7153   14.7144  -37.0181 C   0  0  0  0  0  0  0  0  0  0  0  0
  -10.7422   15.1804  -37.9112 C   0  0  0  0  0  0  0  0  0  0  0  0
  -15.3386   13.7150  -40.8496 C   0  0  0  0  0  0  0  0  0  0  0  0
  -14.1588   13.1104  -40.6945 C   0  0  0  0  0  0  0  0  0  0  0  0
  -13.5071   13.1486  -39.3718 C   0  0  0  0  0  0  0  0  0  0  0  0
  -11.1450   15.5839  -39.3211 C   0  0  0  0  0  0  0  0  0  0  0  0
  -13.7440   16.0984  -37.3807 C   0  0  0  0  0  0  0  0  0  0  0  0
  -13.3475   16.7247  -38.7332 C   0  0  0  0  0  0  0  0  0  0  0  0
  -13.1682   14.6805  -37.4318 C   0  0  1  0  0  0  0  0  0  0  0  0
  -12.6796   15.5840  -39.5250 C   0  0  2  0  0  0  0  0  0  0  0  0
   -9.9727   14.4132  -35.3914 N   0  0  0  0  0  0  0  0  0  0  0  0
   -9.4337   15.2601  -37.5887 N   0  0  0  0  0  0  0  0  0  0  0  0
  -13.2041   14.3913  -38.8600 N   0  0  0  0  0  0  0  0  0  0  0  0
  -13.2701   12.0831  -38.8028 O   0  0  0  0  0  0  0  0  0  0  0  0
  -11.9492   13.9916  -34.9997 H   0  0  0  0  0  0  0  0  0  0  0  0
   -8.0804   14.9250  -36.0581 H   0  0  0  0  0  0  0  0  0  0  0  0
  -15.8663   13.7212  -41.7974 H   0  0  0  0  0  0  0  0  0  0  0  0
  -15.8037   14.2236  -40.0118 H   0  0  0  0  0  0  0  0  0  0  0  0
  -13.6638   12.5928  -41.5057 H   0  0  0  0  0  0  0  0  0  0  0  0
  -10.7308   16.5732  -39.5467 H   0  0  0  0  0  0  0  0  0  0  0  0
  -10.6909   14.8646  -40.0137 H   0  0  0  0  0  0  0  0  0  0  0  0
  -13.3762   16.6934  -36.5378 H   0  0  0  0  0  0  0  0  0  0  0  0
  -14.8379   16.0582  -37.3125 H   0  0  0  0  0  0  0  0  0  0  0  0
  -14.2511   17.0702  -39.2488 H   0  0  0  0  0  0  0  0  0  0  0  0
  -12.6888   17.5888  -38.5986 H   0  0  0  0  0  0  0  0  0  0  0  0
  -13.7408   13.9518  -36.8500 H   0  0  0  0  0  0  0  0  0  0  0  0
  -12.9327   15.6417  -40.5859 H   0  0  0  0  0  0  0  0  0  0  0  0
  1  3  2  0  0  0  0
  1 13  1  0  0  0  0
  2 13  2  0  0  0  0
  2 14  1  0  0  0  0
  3  4  1  0  0  0  0
  3 11  1  0  0  0  0
  4  8  1  0  0  0  0
  4 14  2  0  0  0  0
  5  6  2  0  0  0  0
  6  7  1  0  0  0  0
  7 15  1  0  0  0  0
  7 16  2  0  0  0  0
  8 12  1  0  0  0  0
  9 10  1  0  0  0  0
  9 11  1  0  0  0  0
 10 12  1  0  0  0  0
 11 15  1  0  0  0  0
 12 15  1  0  0  0  0
  1 17  1  0  0  0  0
  2 18  1  0  0  0  0
  5 19  1  0  0  0  0
  5 20  1  0  0  0  0
  6 21  1  0  0  0  0
  8 22  1  0  0  0  0
  8 23  1  0  0  0  0
  9 24  1  0  0  0  0
  9 25  1  0  0  0  0
 10 26  1  0  0  0  0
 10 27  1  0  0  0  0
 11 28  1  0  0  0  0
 12 29  1  0  0  0  0
M  END
> <id>
EN300-26617194

> <smiles>
C=CC(=O)N1C2CCC1C=3C=NC=NC3C2

> <IUPAC Name>
1-{4,6,12-triazatricyclo[7.2.1.0,2,7]dodeca-2,4,6-trien-12-yl}prop-2-en-1-one

> <CAS>
2361657-35-2

> <URL>
https://www.enaminestore.com/catalog/EN300-26617194

> <ROCS_ShapeQuery>
__x1247relevant_x1083L0AP1_x1305L0BP1_

> <ROCS_TanimotoCombo>
0.730 

> <ROCS_ShapeTanimoto>
0.501 

> <ROCS_ColorTanimoto>
0.228 

> <ROCS_RefTversky>
0.431 

> <ROCS_RefColorTversky>
0.254 

> <ROCS_RefTverskyCombo>
0.685 

> <ROCS_FitTversky>
1.483 

> <ROCS_FitColorTversky>
0.693 

> <ROCS_FitTverskyCombo>
2.177 

> <ROCS_ColorScore>
-8.303

> <ROCS_Overlap>
1270.254

> <ROCS_Rank>
212                 

$$$$
untitled-dbase-40442_5
  -OEChem-06232314393D

 39 41  0     1  0  0  0  0  0999 V2000
  -10.8497   14.3600  -36.3901 C   0  0  0  0  0  0  0  0  0  0  0  0
   -9.4586   13.8592  -36.1261 C   0  0  0  0  0  0  0  0  0  0  0  0
  -13.7400   13.9612  -38.1148 C   0  0  0  0  0  0  0  0  0  0  0  0
  -14.0596   15.2432  -37.3189 C   0  0  0  0  0  0  0  0  0  0  0  0
  -11.3297   14.3241  -38.8762 C   0  0  0  0  0  0  0  0  0  0  0  0
  -11.8175   16.4896  -37.4646 C   0  0  0  0  0  0  0  0  0  0  0  0
   -8.7286   14.3409  -37.3634 C   0  0  0  0  0  0  0  0  0  0  0  0
  -12.8126   14.3352  -39.2823 C   0  0  2  0  0  0  0  0  0  0  0  0
  -13.2787   16.4041  -37.9464 C   0  0  1  0  0  0  0  0  0  0  0  0
  -10.9199   15.2283  -37.6636 C   0  0  0  0  0  0  0  0  0  0  0  0
   -7.6823   17.2067  -37.7190 C   0  0  0  0  0  0  0  0  0  0  0  0
   -8.7940   16.3450  -35.6292 C   0  0  0  0  0  0  0  0  0  0  0  0
   -8.9804   16.7185  -37.0924 C   0  0  0  0  0  0  0  0  0  0  0  0
   -9.4551   15.5401  -37.8269 N   0  0  1  0  0  0  0  0  0  0  0  0
  -11.7849   14.0978  -35.6460 O   0  0  0  0  0  0  0  0  0  0  0  0
  -12.2327   16.6925  -40.3855 O   0  0  0  0  0  0  0  0  0  0  0  0
  -14.6589   16.0068  -40.1719 O   0  0  0  0  0  0  0  0  0  0  0  0
  -13.2946   16.0030  -39.6859 S   0  0  0  0  0  0  0  0  0  0  0  0
   -9.0490   14.2969  -35.2132 H   0  0  0  0  0  0  0  0  0  0  0  0
   -9.4802   12.7670  -36.0654 H   0  0  0  0  0  0  0  0  0  0  0  0
  -13.3271   13.1654  -37.4903 H   0  0  0  0  0  0  0  0  0  0  0  0
  -14.6812   13.5661  -38.5188 H   0  0  0  0  0  0  0  0  0  0  0  0
  -15.1350   15.4413  -37.4076 H   0  0  0  0  0  0  0  0  0  0  0  0
  -13.8600   15.1354  -36.2500 H   0  0  0  0  0  0  0  0  0  0  0  0
  -11.0275   13.2870  -38.6806 H   0  0  0  0  0  0  0  0  0  0  0  0
  -10.7608   14.6275  -39.7639 H   0  0  0  0  0  0  0  0  0  0  0  0
  -11.3834   17.3541  -37.9871 H   0  0  0  0  0  0  0  0  0  0  0  0
  -11.8233   16.7835  -36.4010 H   0  0  0  0  0  0  0  0  0  0  0  0
   -7.6765   14.5842  -37.1209 H   0  0  0  0  0  0  0  0  0  0  0  0
   -8.7082   13.5538  -38.1379 H   0  0  0  0  0  0  0  0  0  0  0  0
  -12.9791   13.6938  -40.1503 H   0  0  0  0  0  0  0  0  0  0  0  0
  -13.7906   17.3602  -37.8023 H   0  0  0  0  0  0  0  0  0  0  0  0
   -6.9028   16.4411  -37.6476 H   0  0  0  0  0  0  0  0  0  0  0  0
   -7.8184   17.4577  -38.7769 H   0  0  0  0  0  0  0  0  0  0  0  0
   -7.3204   18.1074  -37.2112 H   0  0  0  0  0  0  0  0  0  0  0  0
   -8.0331   15.5642  -35.5216 H   0  0  0  0  0  0  0  0  0  0  0  0
   -9.7287   15.9686  -35.2007 H   0  0  0  0  0  0  0  0  0  0  0  0
   -8.4683   17.2058  -35.0345 H   0  0  0  0  0  0  0  0  0  0  0  0
   -9.7444   17.4992  -37.1752 H   0  0  0  0  0  0  0  0  0  0  0  0
  1  2  1  0  0  0  0
  1 10  1  0  0  0  0
  1 15  2  0  0  0  0
  2  7  1  0  0  0  0
  3  4  1  0  0  0  0
  3  8  1  0  0  0  0
  4  9  1  0  0  0  0
  5  8  1  0  0  0  0
  5 10  1  0  0  0  0
  6  9  1  0  0  0  0
  6 10  1  0  0  0  0
  7 14  1  0  0  0  0
  8 18  1  0  0  0  0
  9 18  1  0  0  0  0
 10 14  1  0  0  0  0
 11 13  1  0  0  0  0
 12 13  1  0  0  0  0
 13 14  1  0  0  0  0
 16 18  2  0  0  0  0
 17 18  2  0  0  0  0
  2 19  1  0  0  0  0
  2 20  1  0  0  0  0
  3 21  1  0  0  0  0
  3 22  1  0  0  0  0
  4 23  1  0  0  0  0
  4 24  1  0  0  0  0
  5 25  1  0  0  0  0
  5 26  1  0  0  0  0
  6 27  1  0  0  0  0
  6 28  1  0  0  0  0
  7 29  1  0  0  0  0
  7 30  1  0  0  0  0
  8 31  1  0  0  0  0
  9 32  1  0  0  0  0
 11 33  1  0  0  0  0
 11 34  1  0  0  0  0
 11 35  1  0  0  0  0
 12 36  1  0  0  0  0
 12 37  1  0  0  0  0
 12 38  1  0  0  0  0
 13 39  1  0  0  0  0
M  END
> <id>
EN300-785525

> <smiles>
CC(C)N1CCC(=O)C21CC3CCC(C2)S3(=O)=O

> <IUPAC Name>
1'-(propan-2-yl)-8lambda6-thiaspiro[bicyclo[3.2.1]octane-3,2'-pyrrolidine]-3',8,8-trione

> <CAS>
2138520-50-8

> <URL>
https://www.enaminestore.com/catalog/EN300-785525

> <ROCS_ShapeQuery>
__x1247relevant_x1083L0AP1_x1305L0BP1_

> <ROCS_TanimotoCombo>
0.729 

> <ROCS_ShapeTanimoto>
0.511 

> <ROCS_ColorTanimoto>
0.219 

> <ROCS_RefTversky>
0.441 

> <ROCS_RefColorTversky>
0.249 

> <ROCS_RefTverskyCombo>
0.690 

> <ROCS_FitTversky>
1.449 

> <ROCS_FitColorTversky>
0.640 

> <ROCS_FitTverskyCombo>
2.089 

> <ROCS_ColorScore>
-8.164

> <ROCS_Overlap>
1300.821

> <ROCS_Rank>
213                 

$$$$
untitled-dbase-59246_5
  -OEChem-06232314393D

 26 28  0     1  0  0  0  0  0999 V2000
   -9.3359   15.0332  -36.7792 C   0  0  0  0  0  0  0  0  0  0  0  0
  -13.7058   15.4101  -39.7537 C   0  0  0  0  0  0  0  0  0  0  0  0
  -14.3843   15.3658  -38.3841 C   0  0  0  0  0  0  0  0  0  0  0  0
  -11.6919   14.2314  -38.8129 C   0  0  0  0  0  0  0  0  0  0  0  0
  -10.3653   12.9870  -36.4588 C   0  0  0  0  0  0  0  0  0  0  0  0
  -12.3862   14.1569  -37.4429 C   0  0  2  0  0  0  0  0  0  0  0  0
  -12.2326   15.5461  -39.3752 C   0  0  2  0  0  0  0  0  0  0  0  0
  -13.1917   15.4649  -37.4331 C   0  0  1  0  0  0  0  0  0  0  0  0
  -11.3771   14.1047  -36.3062 C   0  0  2  0  0  0  0  0  0  0  0  0
   -9.1995   13.6710  -36.9117 N   0  0  0  0  0  0  0  0  0  0  0  0
   -8.4865   15.8816  -37.0118 O   0  0  0  0  0  0  0  0  0  0  0  0
  -10.5971   15.3183  -36.3226 O   0  0  0  0  0  0  0  0  0  0  0  0
  -12.3204   16.3503  -38.1767 O   0  0  0  0  0  0  0  0  0  0  0  0
  -13.9120   14.5256  -40.3635 H   0  0  0  0  0  0  0  0  0  0  0  0
  -14.0469   16.2955  -40.3016 H   0  0  0  0  0  0  0  0  0  0  0  0
  -15.0387   16.2380  -38.2726 H   0  0  0  0  0  0  0  0  0  0  0  0
  -14.9833   14.4638  -38.2295 H   0  0  0  0  0  0  0  0  0  0  0  0
  -10.6030   14.2854  -38.7025 H   0  0  0  0  0  0  0  0  0  0  0  0
  -11.9280   13.3745  -39.4516 H   0  0  0  0  0  0  0  0  0  0  0  0
  -10.1634   12.4666  -35.5167 H   0  0  0  0  0  0  0  0  0  0  0  0
  -10.6424   12.2508  -37.2225 H   0  0  0  0  0  0  0  0  0  0  0  0
  -13.0418   13.2820  -37.3704 H   0  0  0  0  0  0  0  0  0  0  0  0
  -11.6058   16.0044  -40.1432 H   0  0  0  0  0  0  0  0  0  0  0  0
  -13.4363   15.8578  -36.4433 H   0  0  0  0  0  0  0  0  0  0  0  0
  -11.8940   14.0525  -35.3488 H   0  0  0  0  0  0  0  0  0  0  0  0
   -8.3733   13.2104  -37.2848 H   0  0  0  0  0  0  0  0  0  0  0  0
  1 10  1  0  0  0  0
  1 11  2  0  0  0  0
  1 12  1  0  0  0  0
  2  3  1  0  0  0  0
  2  7  1  0  0  0  0
  3  8  1  0  0  0  0
  4  6  1  0  0  0  0
  4  7  1  0  0  0  0
  5  9  1  0  0  0  0
  5 10  1  0  0  0  0
  6  8  1  0  0  0  0
  6  9  1  0  0  0  0
  7 13  1  0  0  0  0
  8 13  1  0  0  0  0
  9 12  1  0  0  0  0
  2 14  1  0  0  0  0
  2 15  1  0  0  0  0
  3 16  1  0  0  0  0
  3 17  1  0  0  0  0
  4 18  1  0  0  0  0
  4 19  1  0  0  0  0
  5 20  1  0  0  0  0
  5 21  1  0  0  0  0
  6 22  1  0  0  0  0
  7 23  1  0  0  0  0
  8 24  1  0  0  0  0
  9 25  1  0  0  0  0
 10 26  1  0  0  0  0
M  END
> <id>
EN300-1754132

> <smiles>
O=C1NCC(O1)C2CC3CCC2O3

> <IUPAC Name>
5-{7-oxabicyclo[2.2.1]heptan-2-yl}-1,3-oxazolidin-2-one

> <CAS>
2228884-90-8

> <URL>
https://www.enaminestore.com/catalog/EN300-1754132

> <ROCS_ShapeQuery>
__x1247relevant_x1083L0AP1_x1305L0BP1_

> <ROCS_TanimotoCombo>
0.729 

> <ROCS_ShapeTanimoto>
0.494 

> <ROCS_ColorTanimoto>
0.235 

> <ROCS_RefTversky>
0.412 

> <ROCS_RefColorTversky>
0.258 

> <ROCS_RefTverskyCombo>
0.670 

> <ROCS_FitTversky>
1.672 

> <ROCS_FitColorTversky>
0.731 

> <ROCS_FitTverskyCombo>
2.403 

> <ROCS_ColorScore>
-8.425

> <ROCS_Overlap>
1211.508

> <ROCS_Rank>
214                 

$$$$
untitled-dbase-28913_3
  -OEChem-06232314393D

 30 32  0     1  0  0  0  0  0999 V2000
  -10.5163   16.5401  -39.9262 C   0  0  0  0  0  0  0  0  0  0  0  0
   -9.9187   15.1846  -39.7540 C   0  0  0  0  0  0  0  0  0  0  0  0
  -13.0313   14.0608  -37.2610 C   0  0  0  0  0  0  0  0  0  0  0  0
  -13.6966   16.3585  -37.8686 C   0  0  0  0  0  0  0  0  0  0  0  0
  -12.8017   13.7170  -38.7417 C   0  0  0  0  0  0  0  0  0  0  0  0
  -13.5939   15.9111  -39.3392 C   0  0  0  0  0  0  0  0  0  0  0  0
  -12.7002   15.5478  -37.0174 C   0  0  0  0  0  0  0  0  0  0  0  0
  -11.2806   15.8810  -37.5344 C   0  0  2  0  0  0  0  0  0  0  0  0
  -11.2100   15.5294  -39.0213 C   0  0  0  0  0  0  0  0  0  0  0  0
  -12.5008   14.9297  -39.5310 N   0  0  0  0  0  0  0  0  0  0  0  0
  -10.1526   13.4774  -37.4971 N   0  0  0  0  0  0  0  0  0  0  0  0
   -8.7443   15.5692  -36.9894 O   0  0  0  0  0  0  0  0  0  0  0  0
  -10.4604   14.7898  -35.3063 O   0  0  0  0  0  0  0  0  0  0  0  0
  -10.0340   14.9719  -36.6841 S   0  0  0  0  0  0  0  0  0  0  0  0
   -9.9958   17.3756  -39.4727 H   0  0  0  0  0  0  0  0  0  0  0  0
  -10.9619   16.7727  -40.8864 H   0  0  0  0  0  0  0  0  0  0  0  0
   -9.9759   14.4998  -40.5931 H   0  0  0  0  0  0  0  0  0  0  0  0
   -8.9758   15.1320  -39.2263 H   0  0  0  0  0  0  0  0  0  0  0  0
  -14.0780   13.8682  -36.9941 H   0  0  0  0  0  0  0  0  0  0  0  0
  -12.4220   13.4114  -36.6234 H   0  0  0  0  0  0  0  0  0  0  0  0
  -13.4781   17.4298  -37.7847 H   0  0  0  0  0  0  0  0  0  0  0  0
  -14.7193   16.2059  -37.5041 H   0  0  0  0  0  0  0  0  0  0  0  0
  -11.9766   13.0004  -38.8377 H   0  0  0  0  0  0  0  0  0  0  0  0
  -13.6846   13.2116  -39.1517 H   0  0  0  0  0  0  0  0  0  0  0  0
  -14.5456   15.4759  -39.6688 H   0  0  0  0  0  0  0  0  0  0  0  0
  -13.4300   16.7845  -39.9821 H   0  0  0  0  0  0  0  0  0  0  0  0
  -12.8029   15.7950  -35.9555 H   0  0  0  0  0  0  0  0  0  0  0  0
  -11.0605   16.9413  -37.3662 H   0  0  0  0  0  0  0  0  0  0  0  0
   -9.3859   13.2150  -38.1287 H   0  0  0  0  0  0  0  0  0  0  0  0
  -10.5549   12.6843  -36.9824 H   0  0  0  0  0  0  0  0  0  0  0  0
  1  2  1  0  0  0  0
  1  9  1  0  0  0  0
  2  9  1  0  0  0  0
  3  5  1  0  0  0  0
  3  7  1  0  0  0  0
  4  6  1  0  0  0  0
  4  7  1  0  0  0  0
  5 10  1  0  0  0  0
  6 10  1  0  0  0  0
  7  8  1  0  0  0  0
  8  9  1  0  0  0  0
  8 14  1  0  0  0  0
  9 10  1  0  0  0  0
 11 14  1  0  0  0  0
 12 14  2  0  0  0  0
 13 14  2  0  0  0  0
  1 15  1  0  0  0  0
  1 16  1  0  0  0  0
  2 17  1  0  0  0  0
  2 18  1  0  0  0  0
  3 19  1  0  0  0  0
  3 20  1  0  0  0  0
  4 21  1  0  0  0  0
  4 22  1  0  0  0  0
  5 23  1  0  0  0  0
  5 24  1  0  0  0  0
  6 25  1  0  0  0  0
  6 26  1  0  0  0  0
  7 27  1  0  0  0  0
  8 28  1  0  0  0  0
 11 29  1  0  0  0  0
 11 30  1  0  0  0  0
M  END
> <id>
EN300-680002

> <smiles>
NS(=O)(=O)C1C2CCN(CC2)C31CC3

> <IUPAC Name>
1-azaspiro[bicyclo[2.2.2]octane-2,1'-cyclopropane]-3-sulfonamide

> <CAS>
2138165-56-5

> <URL>
https://www.enaminestore.com/catalog/EN300-680002

> <ROCS_ShapeQuery>
__x1247relevant_x1083L0AP1_x1305L0BP1_

> <ROCS_TanimotoCombo>
0.729 

> <ROCS_ShapeTanimoto>
0.487 

> <ROCS_ColorTanimoto>
0.242 

> <ROCS_RefTversky>
0.409 

> <ROCS_RefColorTversky>
0.262 

> <ROCS_RefTverskyCombo>
0.670 

> <ROCS_FitTversky>
1.650 

> <ROCS_FitColorTversky>
0.760 

> <ROCS_FitTverskyCombo>
2.409 

> <ROCS_ColorScore>
-8.550

> <ROCS_Overlap>
1202.161

> <ROCS_Rank>
215                 

$$$$
untitled-dbase-51503_1
  -OEChem-06232314393D

 23 25  0     1  0  0  0  0  0999 V2000
  -10.2493   15.2099  -36.8383 C   0  0  0  0  0  0  0  0  0  0  0  0
  -13.8438   14.8857  -37.4081 C   0  0  0  0  0  0  0  0  0  0  0  0
  -13.0936   16.7339  -38.5569 C   0  0  0  0  0  0  0  0  0  0  0  0
  -11.9560   13.7264  -38.0339 C   0  0  0  0  0  0  0  0  0  0  0  0
  -11.2036   15.5799  -39.1857 C   0  0  0  0  0  0  0  0  0  0  0  0
  -12.7359   15.9389  -37.2961 C   0  0  0  0  0  0  0  0  0  0  0  0
  -13.2309   14.2829  -38.6764 C   0  0  2  0  0  0  0  0  0  0  0  0
  -12.7079   15.5712  -39.4771 C   0  0  1  0  0  0  0  0  0  0  0  0
  -11.4272   15.1315  -37.7404 C   0  0  0  0  0  0  0  0  0  0  0  0
   -9.1662   15.6897  -37.1383 O   0  0  0  0  0  0  0  0  0  0  0  0
  -10.5366   14.6716  -35.6279 O   0  0  0  0  0  0  0  0  0  0  0  0
  -13.8798   14.2017  -36.5536 H   0  0  0  0  0  0  0  0  0  0  0  0
  -14.8466   15.2969  -37.5636 H   0  0  0  0  0  0  0  0  0  0  0  0
  -14.1491   17.0152  -38.6316 H   0  0  0  0  0  0  0  0  0  0  0  0
  -12.4861   17.6357  -38.6878 H   0  0  0  0  0  0  0  0  0  0  0  0
  -12.1171   13.1175  -37.1374 H   0  0  0  0  0  0  0  0  0  0  0  0
  -11.3389   13.1458  -38.7283 H   0  0  0  0  0  0  0  0  0  0  0  0
  -10.6394   14.8684  -39.7987 H   0  0  0  0  0  0  0  0  0  0  0  0
  -10.7201   16.5590  -39.2755 H   0  0  0  0  0  0  0  0  0  0  0  0
  -12.6985   16.5030  -36.3641 H   0  0  0  0  0  0  0  0  0  0  0  0
  -13.8487   13.5734  -39.2263 H   0  0  0  0  0  0  0  0  0  0  0  0
  -13.0018   15.6593  -40.5227 H   0  0  0  0  0  0  0  0  0  0  0  0
  -11.4588   14.3399  -35.5840 H   0  0  0  0  0  0  0  0  0  0  0  0
  1  9  1  0  0  0  0
  1 10  2  0  0  0  0
  1 11  1  0  0  0  0
  2  6  1  0  0  0  0
  2  7  1  0  0  0  0
  3  6  1  0  0  0  0
  3  8  1  0  0  0  0
  4  7  1  0  0  0  0
  4  9  1  0  0  0  0
  5  8  1  0  0  0  0
  5  9  1  0  0  0  0
  6  9  1  0  0  0  0
  7  8  1  0  0  0  0
  2 12  1  0  0  0  0
  2 13  1  0  0  0  0
  3 14  1  0  0  0  0
  3 15  1  0  0  0  0
  4 16  1  0  0  0  0
  4 17  1  0  0  0  0
  5 18  1  0  0  0  0
  5 19  1  0  0  0  0
  6 20  1  0  0  0  0
  7 21  1  0  0  0  0
  8 22  1  0  0  0  0
 11 23  1  0  0  0  0
M  END
> <id>
EN300-7709573

> <smiles>
OC(=O)C12CC3CC2CC3C1

> <MDLNUMBER>
MFCD20643411

> <IUPAC Name>
tricyclo[3.3.0.0,3,7]octane-1-carboxylic acid

> <CAS>
19027-07-7

> <Purity>
95

> <URL>
https://www.enaminestore.com/catalog/EN300-7709573

> <ROCS_ShapeQuery>
__x1247relevant_x1083L0AP1_x1305L0BP1_

> <ROCS_TanimotoCombo>
0.729 

> <ROCS_ShapeTanimoto>
0.463 

> <ROCS_ColorTanimoto>
0.266 

> <ROCS_RefTversky>
0.386 

> <ROCS_RefColorTversky>
0.373 

> <ROCS_RefTverskyCombo>
0.759 

> <ROCS_FitTversky>
1.763 

> <ROCS_FitColorTversky>
0.480 

> <ROCS_FitTverskyCombo>
2.243 

> <ROCS_ColorScore>
-12.467

> <ROCS_Overlap>
1133.187

> <ROCS_Rank>
216                 

$$$$
untitled-dbase-107598_2
  -OEChem-06232314393D

 28 30  0     1  0  0  0  0  0999 V2000
  -13.4000   14.9854  -39.5071 C   0  0  0  0  0  0  0  0  0  0  0  0
  -13.6479   14.2930  -38.1673 C   0  0  0  0  0  0  0  0  0  0  0  0
  -10.9569   15.2619  -38.9742 C   0  0  0  0  0  0  0  0  0  0  0  0
   -9.8513   16.6229  -36.8016 C   0  0  0  0  0  0  0  0  0  0  0  0
   -8.7047   14.9090  -36.8609 C   0  0  0  0  0  0  0  0  0  0  0  0
  -12.2977   15.9809  -39.1513 C   0  0  2  0  0  0  0  0  0  0  0  0
  -12.5977   14.9469  -37.2662 C   0  0  1  0  0  0  0  0  0  0  0  0
  -11.1444   14.5538  -37.6143 C   0  0  2  0  0  0  0  0  0  0  0  0
  -10.1886   15.1476  -36.5711 C   0  0  0  0  0  0  0  0  0  0  0  0
  -10.9099   13.1177  -37.6956 N   0  0  0  0  0  0  0  0  0  0  0  0
   -8.5143   16.2911  -37.2419 O   0  0  0  0  0  0  0  0  0  0  0  0
  -12.6386   16.3042  -37.7836 O   0  0  0  0  0  0  0  0  0  0  0  0
  -10.6428   14.8076  -35.2521 O   0  0  0  0  0  0  0  0  0  0  0  0
  -13.1095   14.2920  -40.3019 H   0  0  0  0  0  0  0  0  0  0  0  0
  -14.3094   15.5091  -39.8221 H   0  0  0  0  0  0  0  0  0  0  0  0
  -14.6548   14.5466  -37.8146 H   0  0  0  0  0  0  0  0  0  0  0  0
  -13.5792   13.2039  -38.2211 H   0  0  0  0  0  0  0  0  0  0  0  0
  -10.7528   14.5830  -39.8095 H   0  0  0  0  0  0  0  0  0  0  0  0
  -10.1380   15.9896  -38.9315 H   0  0  0  0  0  0  0  0  0  0  0  0
  -10.4168   17.1405  -37.5820 H   0  0  0  0  0  0  0  0  0  0  0  0
   -9.8268   17.2433  -35.9002 H   0  0  0  0  0  0  0  0  0  0  0  0
   -8.0944   14.6516  -35.9894 H   0  0  0  0  0  0  0  0  0  0  0  0
   -8.4679   14.2277  -37.6834 H   0  0  0  0  0  0  0  0  0  0  0  0
  -12.2573   16.8631  -39.7938 H   0  0  0  0  0  0  0  0  0  0  0  0
  -12.8442   14.9171  -36.2014 H   0  0  0  0  0  0  0  0  0  0  0  0
  -11.5549   12.7308  -38.3445 H   0  0  0  0  0  0  0  0  0  0  0  0
   -9.9764   12.9698  -38.0017 H   0  0  0  0  0  0  0  0  0  0  0  0
  -10.8118   13.8558  -35.2665 H   0  0  0  0  0  0  0  0  0  0  0  0
  1  2  1  0  0  0  0
  1  6  1  0  0  0  0
  2  7  1  0  0  0  0
  3  6  1  0  0  0  0
  3  8  1  0  0  0  0
  4  9  1  0  0  0  0
  4 11  1  0  0  0  0
  5  9  1  0  0  0  0
  5 11  1  0  0  0  0
  6 12  1  0  0  0  0
  7  8  1  0  0  0  0
  7 12  1  0  0  0  0
  8  9  1  0  0  0  0
  8 10  1  0  0  0  0
  9 13  1  0  0  0  0
  1 14  1  0  0  0  0
  1 15  1  0  0  0  0
  2 16  1  0  0  0  0
  2 17  1  0  0  0  0
  3 18  1  0  0  0  0
  3 19  1  0  0  0  0
  4 20  1  0  0  0  0
  4 21  1  0  0  0  0
  5 22  1  0  0  0  0
  5 23  1  0  0  0  0
  6 24  1  0  0  0  0
  7 25  1  0  0  0  0
 10 26  1  0  0  0  0
 10 27  1  0  0  0  0
 13 28  1  0  0  0  0
M  END
> <id>
EN300-1647180

> <smiles>
NC1(CC2CCC1O2)C3(O)COC3

> <IUPAC Name>
3-{2-amino-7-oxabicyclo[2.2.1]heptan-2-yl}oxetan-3-ol

> <CAS>
2171759-46-7

> <URL>
https://www.enaminestore.com/catalog/EN300-1647180

> <ROCS_ShapeQuery>
__x1247relevant_x1083L0AP1_x1305L0BP1_

> <ROCS_TanimotoCombo>
0.729 

> <ROCS_ShapeTanimoto>
0.483 

> <ROCS_ColorTanimoto>
0.246 

> <ROCS_RefTversky>
0.406 

> <ROCS_RefColorTversky>
0.284 

> <ROCS_RefTverskyCombo>
0.689 

> <ROCS_FitTversky>
1.650 

> <ROCS_FitColorTversky>
0.649 

> <ROCS_FitTverskyCombo>
2.299 

> <ROCS_ColorScore>
-9.314

> <ROCS_Overlap>
1192.828

> <ROCS_Rank>
217                 

$$$$
untitled-dbase-74821_2
  -OEChem-06232314393D

 22 24  0     1  0  0  0  0  0999 V2000
  -11.7572   16.1079  -39.1059 C   0  0  0  0  0  0  0  0  0  0  0  0
   -9.9980   14.8369  -37.6174 C   0  0  0  0  0  0  0  0  0  0  0  0
  -13.5450   16.0950  -37.5660 C   0  0  0  0  0  0  0  0  0  0  0  0
  -13.3519   14.3760  -39.2635 C   0  0  0  0  0  0  0  0  0  0  0  0
  -13.2724   15.9258  -39.0938 C   0  0  0  0  0  0  0  0  0  0  0  0
  -12.5194   15.0830  -37.0925 C   0  0  1  0  0  0  0  0  0  0  0  0
  -12.4008   14.0277  -38.1346 C   0  0  2  0  0  0  0  0  0  0  0  0
  -11.3576   15.1181  -38.0580 C   0  0  0  0  0  0  0  0  0  0  0  0
   -8.3941   13.1091  -37.4560 C   0  0  0  0  0  0  0  0  0  0  0  0
  -11.0370   16.8330  -39.7583 O   0  0  0  0  0  0  0  0  0  0  0  0
   -9.2517   15.6710  -37.1228 O   0  0  0  0  0  0  0  0  0  0  0  0
   -9.7075   13.5242  -37.8443 O   0  0  0  0  0  0  0  0  0  0  0  0
  -13.3131   17.1019  -37.2052 H   0  0  0  0  0  0  0  0  0  0  0  0
  -14.5631   15.8075  -37.2879 H   0  0  0  0  0  0  0  0  0  0  0  0
  -14.3586   13.9864  -39.0861 H   0  0  0  0  0  0  0  0  0  0  0  0
  -12.9689   14.0375  -40.2312 H   0  0  0  0  0  0  0  0  0  0  0  0
  -13.8394   16.5445  -39.7848 H   0  0  0  0  0  0  0  0  0  0  0  0
  -12.4084   14.8852  -36.0444 H   0  0  0  0  0  0  0  0  0  0  0  0
  -12.1968   13.0001  -37.9058 H   0  0  0  0  0  0  0  0  0  0  0  0
   -8.2659   12.0472  -37.6797 H   0  0  0  0  0  0  0  0  0  0  0  0
   -8.2563   13.2863  -36.3864 H   0  0  0  0  0  0  0  0  0  0  0  0
   -7.6576   13.6889  -38.0173 H   0  0  0  0  0  0  0  0  0  0  0  0
  1  5  1  0  0  0  0
  1  8  1  0  0  0  0
  1 10  2  0  0  0  0
  2  8  1  0  0  0  0
  2 11  2  0  0  0  0
  2 12  1  0  0  0  0
  3  5  1  0  0  0  0
  3  6  1  0  0  0  0
  4  5  1  0  0  0  0
  4  7  1  0  0  0  0
  6  7  1  0  0  0  0
  6  8  1  0  0  0  0
  7  8  1  0  0  0  0
  9 12  1  0  0  0  0
  3 13  1  0  0  0  0
  3 14  1  0  0  0  0
  4 15  1  0  0  0  0
  4 16  1  0  0  0  0
  5 17  1  0  0  0  0
  6 18  1  0  0  0  0
  7 19  1  0  0  0  0
  9 20  1  0  0  0  0
  9 21  1  0  0  0  0
  9 22  1  0  0  0  0
M  END
> <id>
EN300-7492303

> <smiles>
COC(=O)C1(C2CC3CC21)C3=O

> <MDLNUMBER>
MFCD32640364

> <IUPAC Name>
methyl 7-oxotricyclo[2.2.1.0,2,6]heptane-1-carboxylate

> <CAS>
2408971-57-1

> <Purity>
95

> <URL>
https://www.enaminestore.com/catalog/EN300-7492303

> <ROCS_ShapeQuery>
__x1247relevant_x1083L0AP1_x1305L0BP1_

> <ROCS_TanimotoCombo>
0.729 

> <ROCS_ShapeTanimoto>
0.473 

> <ROCS_ColorTanimoto>
0.256 

> <ROCS_RefTversky>
0.396 

> <ROCS_RefColorTversky>
0.387 

> <ROCS_RefTverskyCombo>
0.783 

> <ROCS_FitTversky>
1.704 

> <ROCS_FitColorTversky>
0.430 

> <ROCS_FitTverskyCombo>
2.134 

> <ROCS_ColorScore>
-13.036

> <ROCS_Overlap>
1162.401

> <ROCS_Rank>
218                 

$$$$
untitled-dbase-178075_36
  -OEChem-06232314393D

 39 41  0     1  0  0  0  0  0999 V2000
  -13.3451   16.9194  -40.4831 C   0  0  0  0  0  0  0  0  0  0  0  0
  -10.5904   14.3988  -36.7132 C   0  0  0  0  0  0  0  0  0  0  0  0
  -14.1320   15.0132  -37.1161 C   0  0  0  0  0  0  0  0  0  0  0  0
  -13.8577   13.7345  -37.9359 C   0  0  0  0  0  0  0  0  0  0  0  0
  -11.1951   15.6506  -39.9386 C   0  0  0  0  0  0  0  0  0  0  0  0
  -12.5641   16.7978  -38.0361 C   0  0  0  0  0  0  0  0  0  0  0  0
  -12.3351   14.7249  -39.6248 C   0  0  1  0  0  0  0  0  0  0  0  0
  -12.7629   15.7009  -36.9691 C   0  0  2  0  0  0  0  0  0  0  0  0
  -12.3972   13.8718  -38.3764 C   0  0  1  0  0  0  0  0  0  0  0  0
  -12.5187   16.2358  -39.4639 C   0  0  1  0  0  0  0  0  0  0  0  0
   -7.9214   13.6436  -36.0250 C   0  0  0  0  0  0  0  0  0  0  0  0
   -7.5914   13.2643  -38.4860 C   0  0  0  0  0  0  0  0  0  0  0  0
   -8.1425   15.5632  -37.6377 C   0  0  0  0  0  0  0  0  0  0  0  0
   -8.3512   14.0638  -37.4298 C   0  0  0  0  0  0  0  0  0  0  0  0
  -11.8350   14.6216  -37.2683 N   0  0  0  0  0  0  0  0  0  0  0  0
  -14.4821   16.5670  -40.7790 O   0  0  0  0  0  0  0  0  0  0  0  0
  -10.2769   14.7194  -35.5691 O   0  0  0  0  0  0  0  0  0  0  0  0
   -9.7440   13.7714  -37.5867 O   0  0  0  0  0  0  0  0  0  0  0  0
  -12.8729   17.7855  -40.9770 H   0  0  0  0  0  0  0  0  0  0  0  0
  -14.8738   15.6511  -37.6078 H   0  0  0  0  0  0  0  0  0  0  0  0
  -14.5301   14.7339  -36.1339 H   0  0  0  0  0  0  0  0  0  0  0  0
  -13.9764   12.8578  -37.2880 H   0  0  0  0  0  0  0  0  0  0  0  0
  -14.5575   13.6373  -38.7722 H   0  0  0  0  0  0  0  0  0  0  0  0
  -10.3395   15.6857  -39.2761 H   0  0  0  0  0  0  0  0  0  0  0  0
  -10.9248   15.7725  -40.9824 H   0  0  0  0  0  0  0  0  0  0  0  0
  -13.3738   17.5331  -37.9533 H   0  0  0  0  0  0  0  0  0  0  0  0
  -11.6296   17.3387  -37.8401 H   0  0  0  0  0  0  0  0  0  0  0  0
  -12.8061   14.2330  -40.4695 H   0  0  0  0  0  0  0  0  0  0  0  0
  -12.6178   16.1114  -35.9655 H   0  0  0  0  0  0  0  0  0  0  0  0
  -11.8964   12.9114  -38.5278 H   0  0  0  0  0  0  0  0  0  0  0  0
   -8.4645   14.2152  -35.2640 H   0  0  0  0  0  0  0  0  0  0  0  0
   -8.0985   12.5772  -35.8511 H   0  0  0  0  0  0  0  0  0  0  0  0
   -6.8568   13.8484  -35.8642 H   0  0  0  0  0  0  0  0  0  0  0  0
   -7.8966   13.5626  -39.4955 H   0  0  0  0  0  0  0  0  0  0  0  0
   -7.8132   12.1944  -38.4000 H   0  0  0  0  0  0  0  0  0  0  0  0
   -6.5091   13.4023  -38.3961 H   0  0  0  0  0  0  0  0  0  0  0  0
   -8.4507   15.8649  -38.6453 H   0  0  0  0  0  0  0  0  0  0  0  0
   -8.7099   16.1539  -36.9113 H   0  0  0  0  0  0  0  0  0  0  0  0
   -7.0821   15.8252  -37.5473 H   0  0  0  0  0  0  0  0  0  0  0  0
  1 10  1  6  0  0  0
  1 16  2  0  0  0  0
  2 15  1  0  0  0  0
  2 17  2  0  0  0  0
  2 18  1  0  0  0  0
  3  4  1  0  0  0  0
  3  8  1  6  0  0  0
  4  9  1  6  0  0  0
  5  7  1  1  0  0  0
  5 10  1  0  0  0  0
  6  8  1  0  0  0  0
  6 10  1  0  0  0  0
  7  9  1  0  0  0  0
  7 10  1  0  0  0  0
  8 15  1  0  0  0  0
  9 15  1  0  0  0  0
 11 14  1  0  0  0  0
 12 14  1  0  0  0  0
 13 14  1  0  0  0  0
 14 18  1  0  0  0  0
  1 19  1  0  0  0  0
  3 20  1  0  0  0  0
  3 21  1  0  0  0  0
  4 22  1  0  0  0  0
  4 23  1  0  0  0  0
  5 24  1  0  0  0  0
  5 25  1  0  0  0  0
  6 26  1  0  0  0  0
  6 27  1  0  0  0  0
  7 28  1  0  0  0  0
  8 29  1  0  0  0  0
  9 30  1  0  0  0  0
 11 31  1  0  0  0  0
 11 32  1  0  0  0  0
 11 33  1  0  0  0  0
 12 34  1  0  0  0  0
 12 35  1  0  0  0  0
 12 36  1  0  0  0  0
 13 37  1  0  0  0  0
 13 38  1  0  0  0  0
 13 39  1  0  0  0  0
M  END
> <id>
EN300-7263117

> <smiles>
CC(C)(C)OC(=O)N1[C@@H]2CC[C@H]1[C@@H]3C[C@@]3(C2)C=O |&1:8,11,12,14,r|

> <IUPAC Name>
rac-tert-butyl (1R,2S,4R,6S)-4-formyl-9-azatricyclo[4.2.1.0,2,4]nonane-9-carboxylate

> <Purity>
95

> <URL>
https://www.enaminestore.com/catalog/EN300-7263117

> <ROCS_ShapeQuery>
__x1247relevant_x1083L0AP1_x1305L0BP1_

> <ROCS_TanimotoCombo>
0.729 

> <ROCS_ShapeTanimoto>
0.509 

> <ROCS_ColorTanimoto>
0.219 

> <ROCS_RefTversky>
0.443 

> <ROCS_RefColorTversky>
0.256 

> <ROCS_RefTverskyCombo>
0.699 

> <ROCS_FitTversky>
1.417 

> <ROCS_FitColorTversky>
0.602 

> <ROCS_FitTverskyCombo>
2.019 

> <ROCS_ColorScore>
-8.408

> <ROCS_Overlap>
1307.390

> <ROCS_Rank>
219                 

$$$$
untitled-dbase-121902_2
  -OEChem-06232314393D

 32 34  0     0  0  0  0  0  0999 V2000
  -10.0631   15.4660  -36.6075 C   0  0  0  0  0  0  0  0  0  0  0  0
  -13.9342   15.8700  -39.1835 C   0  0  0  0  0  0  0  0  0  0  0  0
  -12.9780   16.1926  -36.8930 C   0  0  0  0  0  0  0  0  0  0  0  0
  -11.5754   16.6782  -38.9248 C   0  0  0  0  0  0  0  0  0  0  0  0
  -13.4093   13.8857  -37.7456 C   0  0  0  0  0  0  0  0  0  0  0  0
  -12.0145   14.3819  -39.7849 C   0  0  0  0  0  0  0  0  0  0  0  0
  -12.9947   16.7386  -38.3313 C   0  0  0  0  0  0  0  0  0  0  0  0
  -13.4343   14.4161  -39.1912 C   0  0  0  0  0  0  0  0  0  0  0  0
  -12.4532   14.7378  -36.8777 C   0  0  0  0  0  0  0  0  0  0  0  0
  -11.0499   15.2219  -38.9138 C   0  0  0  0  0  0  0  0  0  0  0  0
  -11.0214   14.6719  -37.4638 C   0  0  0  0  0  0  0  0  0  0  0  0
  -10.4113   15.5075  -35.2781 N   0  0  0  0  0  0  0  0  0  0  0  0
  -10.4639   13.3168  -37.4002 N   0  0  0  0  0  0  0  0  0  0  0  0
   -9.0614   16.0027  -37.0744 O   0  0  0  0  0  0  0  0  0  0  0  0
  -14.9547   15.9149  -38.7835 H   0  0  0  0  0  0  0  0  0  0  0  0
  -13.9779   16.2579  -40.2086 H   0  0  0  0  0  0  0  0  0  0  0  0
  -12.3553   16.8330  -36.2576 H   0  0  0  0  0  0  0  0  0  0  0  0
  -13.9896   16.2268  -36.4692 H   0  0  0  0  0  0  0  0  0  0  0  0
  -11.5850   17.0617  -39.9531 H   0  0  0  0  0  0  0  0  0  0  0  0
  -10.9049   17.3334  -38.3568 H   0  0  0  0  0  0  0  0  0  0  0  0
  -14.4215   13.9273  -37.3227 H   0  0  0  0  0  0  0  0  0  0  0  0
  -13.1228   12.8287  -37.7336 H   0  0  0  0  0  0  0  0  0  0  0  0
  -11.6649   13.3466  -39.8663 H   0  0  0  0  0  0  0  0  0  0  0  0
  -12.0303   14.7790  -40.8080 H   0  0  0  0  0  0  0  0  0  0  0  0
  -13.3515   17.7748  -38.3297 H   0  0  0  0  0  0  0  0  0  0  0  0
  -14.1055   13.8000  -39.8001 H   0  0  0  0  0  0  0  0  0  0  0  0
  -12.4682   14.3670  -35.8451 H   0  0  0  0  0  0  0  0  0  0  0  0
  -10.0464   15.2053  -39.3575 H   0  0  0  0  0  0  0  0  0  0  0  0
   -9.8182   16.0217  -34.6351 H   0  0  0  0  0  0  0  0  0  0  0  0
  -11.2378   15.0445  -34.9140 H   0  0  0  0  0  0  0  0  0  0  0  0
   -9.5438   13.3487  -37.7656 H   0  0  0  0  0  0  0  0  0  0  0  0
  -10.4597   13.0344  -36.4507 H   0  0  0  0  0  0  0  0  0  0  0  0
  1 11  1  0  0  0  0
  1 12  1  0  0  0  0
  1 14  2  0  0  0  0
  2  7  1  0  0  0  0
  2  8  1  0  0  0  0
  3  7  1  0  0  0  0
  3  9  1  0  0  0  0
  4  7  1  0  0  0  0
  4 10  1  0  0  0  0
  5  8  1  0  0  0  0
  5  9  1  0  0  0  0
  6  8  1  0  0  0  0
  6 10  1  0  0  0  0
  9 11  1  0  0  0  0
 10 11  1  0  0  0  0
 11 13  1  0  0  0  0
  2 15  1  0  0  0  0
  2 16  1  0  0  0  0
  3 17  1  0  0  0  0
  3 18  1  0  0  0  0
  4 19  1  0  0  0  0
  4 20  1  0  0  0  0
  5 21  1  0  0  0  0
  5 22  1  0  0  0  0
  6 23  1  0  0  0  0
  6 24  1  0  0  0  0
  7 25  1  0  0  0  0
  8 26  1  0  0  0  0
  9 27  1  0  0  0  0
 10 28  1  0  0  0  0
 12 29  1  0  0  0  0
 12 30  1  0  0  0  0
 13 31  1  0  0  0  0
 13 32  1  0  0  0  0
M  END
> <id>
EN300-252329

> <smiles>
Cl.NC(=O)C1(N)C2CC3CC(C2)CC1C3

> <MDLNUMBER>
MFCD29055067

> <IUPAC Name>
2-aminoadamantane-2-carboxamide hydrochloride

> <CAS>
1909308-49-1

> <Purity>
95

> <URL>
https://www.enaminestore.com/catalog/EN300-252329

> <Saltdate>
Cl

> <ROCS_ShapeQuery>
__x1247relevant_x1083L0AP1_x1305L0BP1_

> <ROCS_TanimotoCombo>
0.729 

> <ROCS_ShapeTanimoto>
0.500 

> <ROCS_ColorTanimoto>
0.229 

> <ROCS_RefTversky>
0.419 

> <ROCS_RefColorTversky>
0.252 

> <ROCS_RefTverskyCombo>
0.671 

> <ROCS_FitTversky>
1.629 

> <ROCS_FitColorTversky>
0.710 

> <ROCS_FitTverskyCombo>
2.339 

> <ROCS_ColorScore>
-8.249

> <ROCS_Overlap>
1232.729

> <ROCS_Rank>
220                 

$$$$
untitled-dbase-19093_2
  -OEChem-06232314393D

 32 34  0     0  0  0  0  0  0999 V2000
  -10.0631   15.4660  -36.6075 C   0  0  0  0  0  0  0  0  0  0  0  0
  -13.9342   15.8700  -39.1835 C   0  0  0  0  0  0  0  0  0  0  0  0
  -12.9780   16.1926  -36.8930 C   0  0  0  0  0  0  0  0  0  0  0  0
  -11.5754   16.6782  -38.9248 C   0  0  0  0  0  0  0  0  0  0  0  0
  -13.4093   13.8857  -37.7456 C   0  0  0  0  0  0  0  0  0  0  0  0
  -12.0145   14.3819  -39.7849 C   0  0  0  0  0  0  0  0  0  0  0  0
  -12.9947   16.7386  -38.3313 C   0  0  0  0  0  0  0  0  0  0  0  0
  -13.4343   14.4161  -39.1912 C   0  0  0  0  0  0  0  0  0  0  0  0
  -12.4532   14.7378  -36.8777 C   0  0  0  0  0  0  0  0  0  0  0  0
  -11.0499   15.2219  -38.9138 C   0  0  0  0  0  0  0  0  0  0  0  0
  -11.0214   14.6719  -37.4638 C   0  0  0  0  0  0  0  0  0  0  0  0
  -10.4113   15.5075  -35.2781 N   0  0  0  0  0  0  0  0  0  0  0  0
  -10.4639   13.3168  -37.4002 N   0  0  0  0  0  0  0  0  0  0  0  0
   -9.0614   16.0027  -37.0744 O   0  0  0  0  0  0  0  0  0  0  0  0
  -14.9547   15.9149  -38.7835 H   0  0  0  0  0  0  0  0  0  0  0  0
  -13.9779   16.2579  -40.2086 H   0  0  0  0  0  0  0  0  0  0  0  0
  -12.3553   16.8330  -36.2576 H   0  0  0  0  0  0  0  0  0  0  0  0
  -13.9896   16.2268  -36.4692 H   0  0  0  0  0  0  0  0  0  0  0  0
  -11.5850   17.0617  -39.9531 H   0  0  0  0  0  0  0  0  0  0  0  0
  -10.9049   17.3334  -38.3568 H   0  0  0  0  0  0  0  0  0  0  0  0
  -14.4215   13.9273  -37.3227 H   0  0  0  0  0  0  0  0  0  0  0  0
  -13.1228   12.8287  -37.7336 H   0  0  0  0  0  0  0  0  0  0  0  0
  -11.6649   13.3466  -39.8663 H   0  0  0  0  0  0  0  0  0  0  0  0
  -12.0303   14.7790  -40.8080 H   0  0  0  0  0  0  0  0  0  0  0  0
  -13.3515   17.7748  -38.3297 H   0  0  0  0  0  0  0  0  0  0  0  0
  -14.1055   13.8000  -39.8001 H   0  0  0  0  0  0  0  0  0  0  0  0
  -12.4682   14.3670  -35.8451 H   0  0  0  0  0  0  0  0  0  0  0  0
  -10.0464   15.2053  -39.3575 H   0  0  0  0  0  0  0  0  0  0  0  0
   -9.8182   16.0217  -34.6351 H   0  0  0  0  0  0  0  0  0  0  0  0
  -11.2378   15.0445  -34.9140 H   0  0  0  0  0  0  0  0  0  0  0  0
   -9.5438   13.3487  -37.7656 H   0  0  0  0  0  0  0  0  0  0  0  0
  -10.4597   13.0344  -36.4507 H   0  0  0  0  0  0  0  0  0  0  0  0
  1 11  1  0  0  0  0
  1 12  1  0  0  0  0
  1 14  2  0  0  0  0
  2  7  1  0  0  0  0
  2  8  1  0  0  0  0
  3  7  1  0  0  0  0
  3  9  1  0  0  0  0
  4  7  1  0  0  0  0
  4 10  1  0  0  0  0
  5  8  1  0  0  0  0
  5  9  1  0  0  0  0
  6  8  1  0  0  0  0
  6 10  1  0  0  0  0
  9 11  1  0  0  0  0
 10 11  1  0  0  0  0
 11 13  1  0  0  0  0
  2 15  1  0  0  0  0
  2 16  1  0  0  0  0
  3 17  1  0  0  0  0
  3 18  1  0  0  0  0
  4 19  1  0  0  0  0
  4 20  1  0  0  0  0
  5 21  1  0  0  0  0
  5 22  1  0  0  0  0
  6 23  1  0  0  0  0
  6 24  1  0  0  0  0
  7 25  1  0  0  0  0
  8 26  1  0  0  0  0
  9 27  1  0  0  0  0
 10 28  1  0  0  0  0
 12 29  1  0  0  0  0
 12 30  1  0  0  0  0
 13 31  1  0  0  0  0
 13 32  1  0  0  0  0
M  END
> <id>
EN300-252330

> <smiles>
NC(=O)C1(N)C2CC3CC(C2)CC1C3

> <MDLNUMBER>
MFCD17226387

> <IUPAC Name>
2-aminoadamantane-2-carboxamide

> <CAS>
24779-96-2

> <URL>
https://www.enaminestore.com/catalog/EN300-252330

> <ROCS_ShapeQuery>
__x1247relevant_x1083L0AP1_x1305L0BP1_

> <ROCS_TanimotoCombo>
0.729 

> <ROCS_ShapeTanimoto>
0.500 

> <ROCS_ColorTanimoto>
0.229 

> <ROCS_RefTversky>
0.419 

> <ROCS_RefColorTversky>
0.252 

> <ROCS_RefTverskyCombo>
0.671 

> <ROCS_FitTversky>
1.629 

> <ROCS_FitColorTversky>
0.710 

> <ROCS_FitTverskyCombo>
2.339 

> <ROCS_ColorScore>
-8.249

> <ROCS_Overlap>
1232.729

> <ROCS_Rank>
221                 

$$$$
untitled-dbase-68088_2
  -OEChem-06232314393D

 33 35  0     1  0  0  0  0  0999 V2000
  -10.0510   15.2910  -36.5770 C   0  0  0  0  0  0  0  0  0  0  0  0
  -12.0209   14.4281  -39.8184 C   0  0  0  0  0  0  0  0  0  0  0  0
  -13.4586   13.8969  -37.8128 C   0  0  0  0  0  0  0  0  0  0  0  0
  -13.8853   15.9648  -39.1611 C   0  0  0  0  0  0  0  0  0  0  0  0
  -11.4925   16.6639  -38.8449 C   0  0  0  0  0  0  0  0  0  0  0  0
  -12.9309   16.1375  -36.8444 C   0  0  0  0  0  0  0  0  0  0  0  0
  -13.4430   14.4929  -39.2324 C   0  0  0  0  0  0  0  0  0  0  0  0
  -11.0316   15.1866  -38.9039 C   0  0  1  0  0  0  0  0  0  0  0  0
  -12.4710   14.6605  -36.9014 C   0  0  2  0  0  0  0  0  0  0  0  0
  -11.0307   14.5751  -37.4758 C   0  0  0  0  0  0  0  0  0  0  0  0
  -12.9173   16.7589  -38.2576 C   0  0  0  0  0  0  0  0  0  0  0  0
  -10.5280   13.1971  -37.4726 N   0  0  0  0  0  0  0  0  0  0  0  0
  -13.3481   18.1543  -38.1871 N   0  0  0  0  0  0  0  0  0  0  0  0
   -9.3450   16.2295  -36.9149 O   0  0  0  0  0  0  0  0  0  0  0  0
  -10.0561   14.7483  -35.3350 O   0  0  0  0  0  0  0  0  0  0  0  0
  -11.7130   13.3837  -39.9436 H   0  0  0  0  0  0  0  0  0  0  0  0
  -12.0121   14.8714  -40.8224 H   0  0  0  0  0  0  0  0  0  0  0  0
  -14.4716   13.9649  -37.3957 H   0  0  0  0  0  0  0  0  0  0  0  0
  -13.2187   12.8289  -37.8486 H   0  0  0  0  0  0  0  0  0  0  0  0
  -13.9072   16.3916  -40.1726 H   0  0  0  0  0  0  0  0  0  0  0  0
  -14.9109   16.0233  -38.7731 H   0  0  0  0  0  0  0  0  0  0  0  0
  -10.7885   17.2561  -38.2466 H   0  0  0  0  0  0  0  0  0  0  0  0
  -11.4679   17.0920  -39.8564 H   0  0  0  0  0  0  0  0  0  0  0  0
  -13.9417   16.1862  -36.4172 H   0  0  0  0  0  0  0  0  0  0  0  0
  -12.2855   16.7089  -36.1652 H   0  0  0  0  0  0  0  0  0  0  0  0
  -14.1329   13.9343  -39.8748 H   0  0  0  0  0  0  0  0  0  0  0  0
  -10.0260   15.1493  -39.3417 H   0  0  0  0  0  0  0  0  0  0  0  0
  -12.5082   14.2401  -35.8884 H   0  0  0  0  0  0  0  0  0  0  0  0
   -9.6043   13.2094  -37.8297 H   0  0  0  0  0  0  0  0  0  0  0  0
  -10.5433   12.8706  -36.5375 H   0  0  0  0  0  0  0  0  0  0  0  0
  -13.3402   18.5268  -39.1064 H   0  0  0  0  0  0  0  0  0  0  0  0
  -14.2640   18.1753  -37.8066 H   0  0  0  0  0  0  0  0  0  0  0  0
   -9.4237   15.1991  -34.7356 H   0  0  0  0  0  0  0  0  0  0  0  0
  1 10  1  0  0  0  0
  1 14  2  0  0  0  0
  1 15  1  0  0  0  0
  2  7  1  0  0  0  0
  2  8  1  0  0  0  0
  3  7  1  0  0  0  0
  3  9  1  0  0  0  0
  4  7  1  0  0  0  0
  4 11  1  0  0  0  0
  5  8  1  0  0  0  0
  5 11  1  0  0  0  0
  6  9  1  0  0  0  0
  6 11  1  0  0  0  0
  8 10  1  0  0  0  0
  9 10  1  0  0  0  0
 10 12  1  6  0  0  0
 11 13  1  1  0  0  0
  2 16  1  0  0  0  0
  2 17  1  0  0  0  0
  3 18  1  0  0  0  0
  3 19  1  0  0  0  0
  4 20  1  0  0  0  0
  4 21  1  0  0  0  0
  5 22  1  0  0  0  0
  5 23  1  0  0  0  0
  6 24  1  0  0  0  0
  6 25  1  0  0  0  0
  7 26  1  0  0  0  0
  8 27  1  0  0  0  0
  9 28  1  0  0  0  0
 12 29  1  0  0  0  0
 12 30  1  0  0  0  0
 13 31  1  0  0  0  0
 13 32  1  0  0  0  0
 15 33  1  0  0  0  0
M  END
> <id>
EN300-88877

> <smiles>
Cl.Cl.N[C@]1(C2CC3CC1C[C@](N)(C3)C2)C(=O)O

> <IUPAC Name>
(2s,5r)-2,5-diaminoadamantane-2-carboxylic acid dihydrochloride

> <URL>
https://www.enaminestore.com/catalog/EN300-88877

> <Saltdate>
Cl

> <ROCS_ShapeQuery>
__x1247relevant_x1083L0AP1_x1305L0BP1_

> <ROCS_TanimotoCombo>
0.728 

> <ROCS_ShapeTanimoto>
0.501 

> <ROCS_ColorTanimoto>
0.228 

> <ROCS_RefTversky>
0.425 

> <ROCS_RefColorTversky>
0.267 

> <ROCS_RefTverskyCombo>
0.692 

> <ROCS_FitTversky>
1.557 

> <ROCS_FitColorTversky>
0.606 

> <ROCS_FitTverskyCombo>
2.163 

> <ROCS_ColorScore>
-8.769

> <ROCS_Overlap>
1250.695

> <ROCS_Rank>
222                 

$$$$
untitled-dbase-10274_2
  -OEChem-06232314393D

 33 35  0     1  0  0  0  0  0999 V2000
  -10.0510   15.2910  -36.5770 C   0  0  0  0  0  0  0  0  0  0  0  0
  -12.0209   14.4281  -39.8184 C   0  0  0  0  0  0  0  0  0  0  0  0
  -13.4586   13.8969  -37.8128 C   0  0  0  0  0  0  0  0  0  0  0  0
  -13.8853   15.9648  -39.1611 C   0  0  0  0  0  0  0  0  0  0  0  0
  -11.4925   16.6639  -38.8449 C   0  0  0  0  0  0  0  0  0  0  0  0
  -12.9309   16.1375  -36.8444 C   0  0  0  0  0  0  0  0  0  0  0  0
  -13.4430   14.4929  -39.2324 C   0  0  0  0  0  0  0  0  0  0  0  0
  -11.0316   15.1866  -38.9039 C   0  0  1  0  0  0  0  0  0  0  0  0
  -12.4710   14.6605  -36.9014 C   0  0  2  0  0  0  0  0  0  0  0  0
  -11.0307   14.5751  -37.4758 C   0  0  0  0  0  0  0  0  0  0  0  0
  -12.9173   16.7589  -38.2576 C   0  0  0  0  0  0  0  0  0  0  0  0
  -10.5280   13.1971  -37.4726 N   0  0  0  0  0  0  0  0  0  0  0  0
  -13.3481   18.1543  -38.1871 N   0  0  0  0  0  0  0  0  0  0  0  0
   -9.3450   16.2295  -36.9149 O   0  0  0  0  0  0  0  0  0  0  0  0
  -10.0561   14.7483  -35.3350 O   0  0  0  0  0  0  0  0  0  0  0  0
  -11.7130   13.3837  -39.9436 H   0  0  0  0  0  0  0  0  0  0  0  0
  -12.0121   14.8714  -40.8224 H   0  0  0  0  0  0  0  0  0  0  0  0
  -14.4716   13.9649  -37.3957 H   0  0  0  0  0  0  0  0  0  0  0  0
  -13.2187   12.8289  -37.8486 H   0  0  0  0  0  0  0  0  0  0  0  0
  -13.9072   16.3916  -40.1726 H   0  0  0  0  0  0  0  0  0  0  0  0
  -14.9109   16.0233  -38.7731 H   0  0  0  0  0  0  0  0  0  0  0  0
  -10.7885   17.2561  -38.2466 H   0  0  0  0  0  0  0  0  0  0  0  0
  -11.4679   17.0920  -39.8564 H   0  0  0  0  0  0  0  0  0  0  0  0
  -13.9417   16.1862  -36.4172 H   0  0  0  0  0  0  0  0  0  0  0  0
  -12.2855   16.7089  -36.1652 H   0  0  0  0  0  0  0  0  0  0  0  0
  -14.1329   13.9343  -39.8748 H   0  0  0  0  0  0  0  0  0  0  0  0
  -10.0260   15.1493  -39.3417 H   0  0  0  0  0  0  0  0  0  0  0  0
  -12.5082   14.2401  -35.8884 H   0  0  0  0  0  0  0  0  0  0  0  0
   -9.6043   13.2094  -37.8297 H   0  0  0  0  0  0  0  0  0  0  0  0
  -10.5433   12.8706  -36.5375 H   0  0  0  0  0  0  0  0  0  0  0  0
  -13.3402   18.5268  -39.1064 H   0  0  0  0  0  0  0  0  0  0  0  0
  -14.2640   18.1753  -37.8066 H   0  0  0  0  0  0  0  0  0  0  0  0
   -9.4237   15.1991  -34.7356 H   0  0  0  0  0  0  0  0  0  0  0  0
  1 10  1  0  0  0  0
  1 14  2  0  0  0  0
  1 15  1  0  0  0  0
  2  7  1  0  0  0  0
  2  8  1  0  0  0  0
  3  7  1  0  0  0  0
  3  9  1  0  0  0  0
  4  7  1  0  0  0  0
  4 11  1  0  0  0  0
  5  8  1  0  0  0  0
  5 11  1  0  0  0  0
  6  9  1  0  0  0  0
  6 11  1  0  0  0  0
  8 10  1  0  0  0  0
  9 10  1  0  0  0  0
 10 12  1  6  0  0  0
 11 13  1  1  0  0  0
  2 16  1  0  0  0  0
  2 17  1  0  0  0  0
  3 18  1  0  0  0  0
  3 19  1  0  0  0  0
  4 20  1  0  0  0  0
  4 21  1  0  0  0  0
  5 22  1  0  0  0  0
  5 23  1  0  0  0  0
  6 24  1  0  0  0  0
  6 25  1  0  0  0  0
  7 26  1  0  0  0  0
  8 27  1  0  0  0  0
  9 28  1  0  0  0  0
 12 29  1  0  0  0  0
 12 30  1  0  0  0  0
 13 31  1  0  0  0  0
 13 32  1  0  0  0  0
 15 33  1  0  0  0  0
M  END
> <id>
EN300-149699

> <smiles>
N[C@]1(C2CC3CC1C[C@](N)(C3)C2)C(=O)O

> <IUPAC Name>
(2s,5r)-2,5-diaminoadamantane-2-carboxylic acid

> <URL>
https://www.enaminestore.com/catalog/EN300-149699

> <ROCS_ShapeQuery>
__x1247relevant_x1083L0AP1_x1305L0BP1_

> <ROCS_TanimotoCombo>
0.728 

> <ROCS_ShapeTanimoto>
0.501 

> <ROCS_ColorTanimoto>
0.228 

> <ROCS_RefTversky>
0.425 

> <ROCS_RefColorTversky>
0.267 

> <ROCS_RefTverskyCombo>
0.692 

> <ROCS_FitTversky>
1.557 

> <ROCS_FitColorTversky>
0.606 

> <ROCS_FitTverskyCombo>
2.163 

> <ROCS_ColorScore>
-8.769

> <ROCS_Overlap>
1250.695

> <ROCS_Rank>
223                 

$$$$
untitled-dbase-20888_2
  -OEChem-06232314393D

 33 35  0     1  0  0  0  0  0999 V2000
  -10.0512   15.2913  -36.5771 C   0  0  0  0  0  0  0  0  0  0  0  0
  -12.0210   14.4286  -39.8187 C   0  0  0  0  0  0  0  0  0  0  0  0
  -13.4585   13.8965  -37.8133 C   0  0  0  0  0  0  0  0  0  0  0  0
  -13.8854   15.9650  -39.1610 C   0  0  0  0  0  0  0  0  0  0  0  0
  -11.4927   16.6642  -38.8444 C   0  0  0  0  0  0  0  0  0  0  0  0
  -12.9311   16.1369  -36.8441 C   0  0  0  0  0  0  0  0  0  0  0  0
  -13.4431   14.4931  -39.2327 C   0  0  0  0  0  0  0  0  0  0  0  0
  -11.0317   15.1870  -38.9040 C   0  0  1  0  0  0  0  0  0  0  0  0
  -12.4709   14.6600  -36.9016 C   0  0  2  0  0  0  0  0  0  0  0  0
  -11.0305   14.5751  -37.4762 C   0  0  0  0  0  0  0  0  0  0  0  0
  -12.9176   16.7588  -38.2570 C   0  0  0  0  0  0  0  0  0  0  0  0
  -10.5278   13.1972  -37.4725 N   0  0  0  0  0  0  0  0  0  0  0  0
  -13.3483   18.1542  -38.1860 N   0  0  0  0  0  0  0  0  0  0  0  0
   -9.3458   16.2303  -36.9147 O   0  0  0  0  0  0  0  0  0  0  0  0
  -10.0561   14.7482  -35.3352 O   0  0  0  0  0  0  0  0  0  0  0  0
  -11.7129   13.3847  -39.9446 H   0  0  0  0  0  0  0  0  0  0  0  0
  -12.0125   14.8726  -40.8224 H   0  0  0  0  0  0  0  0  0  0  0  0
  -14.4714   13.9643  -37.3960 H   0  0  0  0  0  0  0  0  0  0  0  0
  -13.2183   12.8285  -37.8492 H   0  0  0  0  0  0  0  0  0  0  0  0
  -13.9072   16.3923  -40.1723 H   0  0  0  0  0  0  0  0  0  0  0  0
  -14.9112   16.0234  -38.7731 H   0  0  0  0  0  0  0  0  0  0  0  0
  -10.7889   17.2561  -38.2458 H   0  0  0  0  0  0  0  0  0  0  0  0
  -11.4681   17.0928  -39.8556 H   0  0  0  0  0  0  0  0  0  0  0  0
  -13.9420   16.1853  -36.4166 H   0  0  0  0  0  0  0  0  0  0  0  0
  -12.2858   16.7081  -36.1647 H   0  0  0  0  0  0  0  0  0  0  0  0
  -14.1329   13.9345  -39.8753 H   0  0  0  0  0  0  0  0  0  0  0  0
  -10.0262   15.1499  -39.3420 H   0  0  0  0  0  0  0  0  0  0  0  0
  -12.5084   14.2395  -35.8888 H   0  0  0  0  0  0  0  0  0  0  0  0
   -9.6039   13.2095  -37.8293 H   0  0  0  0  0  0  0  0  0  0  0  0
  -10.5434   12.8708  -36.5374 H   0  0  0  0  0  0  0  0  0  0  0  0
  -13.3402   18.5272  -39.1051 H   0  0  0  0  0  0  0  0  0  0  0  0
  -14.2642   18.1752  -37.8056 H   0  0  0  0  0  0  0  0  0  0  0  0
   -9.4240   15.1991  -34.7357 H   0  0  0  0  0  0  0  0  0  0  0  0
  1 10  1  0  0  0  0
  1 14  2  0  0  0  0
  1 15  1  0  0  0  0
  2  7  1  0  0  0  0
  2  8  1  0  0  0  0
  3  7  1  0  0  0  0
  3  9  1  0  0  0  0
  4  7  1  0  0  0  0
  4 11  1  0  0  0  0
  5  8  1  0  0  0  0
  5 11  1  0  0  0  0
  6  9  1  0  0  0  0
  6 11  1  0  0  0  0
  8 10  1  0  0  0  0
  9 10  1  0  0  0  0
 10 12  1  0  0  0  0
 11 13  1  0  0  0  0
  2 16  1  0  0  0  0
  2 17  1  0  0  0  0
  3 18  1  0  0  0  0
  3 19  1  0  0  0  0
  4 20  1  0  0  0  0
  4 21  1  0  0  0  0
  5 22  1  0  0  0  0
  5 23  1  0  0  0  0
  6 24  1  0  0  0  0
  6 25  1  0  0  0  0
  7 26  1  0  0  0  0
  8 27  1  0  0  0  0
  9 28  1  0  0  0  0
 12 29  1  0  0  0  0
 12 30  1  0  0  0  0
 13 31  1  0  0  0  0
 13 32  1  0  0  0  0
 15 33  1  0  0  0  0
M  END
> <id>
EN300-295715

> <smiles>
Cl.Cl.NC1(C2CC3CC1CC(N)(C3)C2)C(=O)O

> <IUPAC Name>
2,5-diaminoadamantane-2-carboxylic acid dihydrochloride

> <CAS>
1822968-49-9

> <URL>
https://www.enaminestore.com/catalog/EN300-295715

> <Saltdate>
Cl

> <ROCS_ShapeQuery>
__x1247relevant_x1083L0AP1_x1305L0BP1_

> <ROCS_TanimotoCombo>
0.728 

> <ROCS_ShapeTanimoto>
0.501 

> <ROCS_ColorTanimoto>
0.228 

> <ROCS_RefTversky>
0.425 

> <ROCS_RefColorTversky>
0.267 

> <ROCS_RefTverskyCombo>
0.692 

> <ROCS_FitTversky>
1.557 

> <ROCS_FitColorTversky>
0.606 

> <ROCS_FitTverskyCombo>
2.163 

> <ROCS_ColorScore>
-8.768

> <ROCS_Overlap>
1250.686

> <ROCS_Rank>
224                 

$$$$
untitled-dbase-75699_6
  -OEChem-06232314393D

 22 24  0     1  0  0  0  0  0999 V2000
  -10.2241   15.1949  -36.9293 C   0  0  0  0  0  0  0  0  0  0  0  0
  -13.5460   14.1350  -38.3263 C   0  0  0  0  0  0  0  0  0  0  0  0
  -13.2213   16.4714  -38.8388 C   0  0  0  0  0  0  0  0  0  0  0  0
  -12.9702   15.0545  -39.4493 C   0  0  0  0  0  0  0  0  0  0  0  0
  -12.7377   14.7481  -37.2059 C   0  0  2  0  0  0  0  0  0  0  0  0
  -12.5324   16.1882  -37.5243 C   0  0  1  0  0  0  0  0  0  0  0  0
  -11.4286   14.8487  -39.2416 C   0  0  2  0  0  0  0  0  0  0  0  0
  -11.4228   15.2071  -37.7634 C   0  0  0  0  0  0  0  0  0  0  0  0
  -10.6077   15.7437  -40.0375 N   0  0  0  0  0  0  0  0  0  0  0  0
   -9.1123   15.5484  -37.2930 O   0  0  0  0  0  0  0  0  0  0  0  0
  -10.5098   14.7328  -35.6874 O   0  0  0  0  0  0  0  0  0  0  0  0
  -14.6221   14.2691  -38.1817 H   0  0  0  0  0  0  0  0  0  0  0  0
  -13.3063   13.0788  -38.4799 H   0  0  0  0  0  0  0  0  0  0  0  0
  -12.7385   17.2769  -39.3986 H   0  0  0  0  0  0  0  0  0  0  0  0
  -14.2859   16.6869  -38.7067 H   0  0  0  0  0  0  0  0  0  0  0  0
  -13.3568   14.8854  -40.4547 H   0  0  0  0  0  0  0  0  0  0  0  0
  -12.8632   14.3891  -36.2029 H   0  0  0  0  0  0  0  0  0  0  0  0
  -12.4981   16.9486  -36.7685 H   0  0  0  0  0  0  0  0  0  0  0  0
  -11.1369   13.8045  -39.4042 H   0  0  0  0  0  0  0  0  0  0  0  0
   -9.6560   15.6243  -39.7721 H   0  0  0  0  0  0  0  0  0  0  0  0
  -10.7285   15.5163  -40.9987 H   0  0  0  0  0  0  0  0  0  0  0  0
   -9.7158   14.7150  -35.1115 H   0  0  0  0  0  0  0  0  0  0  0  0
  1  8  1  0  0  0  0
  1 10  2  0  0  0  0
  1 11  1  0  0  0  0
  2  4  1  0  0  0  0
  2  5  1  0  0  0  0
  3  4  1  0  0  0  0
  3  6  1  0  0  0  0
  4  7  1  0  0  0  0
  5  6  1  0  0  0  0
  5  8  1  0  0  0  0
  6  8  1  0  0  0  0
  7  8  1  0  0  0  0
  7  9  1  0  0  0  0
  2 12  1  0  0  0  0
  2 13  1  0  0  0  0
  3 14  1  0  0  0  0
  3 15  1  0  0  0  0
  4 16  1  0  0  0  0
  5 17  1  0  0  0  0
  6 18  1  0  0  0  0
  7 19  1  0  0  0  0
  9 20  1  0  0  0  0
  9 21  1  0  0  0  0
 11 22  1  0  0  0  0
M  END
> <id>
EN300-7535012

> <smiles>
Cl.NC1C2CC3C(C2)C31C(=O)O

> <MDLNUMBER>
MFCD32268321

> <IUPAC Name>
7-aminotricyclo[2.2.1.0,2,6]heptane-1-carboxylic acid hydrochloride

> <CAS>
2408974-75-2

> <Purity>
95

> <URL>
https://www.enaminestore.com/catalog/EN300-7535012

> <Saltdate>
Cl

> <ROCS_ShapeQuery>
__x1247relevant_x1083L0AP1_x1305L0BP1_

> <ROCS_TanimotoCombo>
0.728 

> <ROCS_ShapeTanimoto>
0.453 

> <ROCS_ColorTanimoto>
0.275 

> <ROCS_RefTversky>
0.379 

> <ROCS_RefColorTversky>
0.427 

> <ROCS_RefTverskyCombo>
0.806 

> <ROCS_FitTversky>
1.752 

> <ROCS_FitColorTversky>
0.437 

> <ROCS_FitTverskyCombo>
2.189 

> <ROCS_ColorScore>
-14.430

> <ROCS_Overlap>
1112.942

> <ROCS_Rank>
225                 

$$$$
untitled-dbase-74876_6
  -OEChem-06232314393D

 22 24  0     1  0  0  0  0  0999 V2000
  -10.2241   15.1949  -36.9293 C   0  0  0  0  0  0  0  0  0  0  0  0
  -13.5460   14.1350  -38.3263 C   0  0  0  0  0  0  0  0  0  0  0  0
  -13.2213   16.4714  -38.8388 C   0  0  0  0  0  0  0  0  0  0  0  0
  -12.9702   15.0545  -39.4493 C   0  0  0  0  0  0  0  0  0  0  0  0
  -12.7377   14.7481  -37.2059 C   0  0  2  0  0  0  0  0  0  0  0  0
  -12.5324   16.1882  -37.5243 C   0  0  1  0  0  0  0  0  0  0  0  0
  -11.4286   14.8487  -39.2416 C   0  0  2  0  0  0  0  0  0  0  0  0
  -11.4228   15.2071  -37.7634 C   0  0  0  0  0  0  0  0  0  0  0  0
  -10.6077   15.7437  -40.0375 N   0  0  0  0  0  0  0  0  0  0  0  0
   -9.1123   15.5484  -37.2930 O   0  0  0  0  0  0  0  0  0  0  0  0
  -10.5098   14.7328  -35.6874 O   0  0  0  0  0  0  0  0  0  0  0  0
  -14.6221   14.2691  -38.1817 H   0  0  0  0  0  0  0  0  0  0  0  0
  -13.3063   13.0788  -38.4799 H   0  0  0  0  0  0  0  0  0  0  0  0
  -12.7385   17.2769  -39.3986 H   0  0  0  0  0  0  0  0  0  0  0  0
  -14.2859   16.6869  -38.7067 H   0  0  0  0  0  0  0  0  0  0  0  0
  -13.3568   14.8854  -40.4547 H   0  0  0  0  0  0  0  0  0  0  0  0
  -12.8632   14.3891  -36.2029 H   0  0  0  0  0  0  0  0  0  0  0  0
  -12.4981   16.9486  -36.7685 H   0  0  0  0  0  0  0  0  0  0  0  0
  -11.1369   13.8045  -39.4042 H   0  0  0  0  0  0  0  0  0  0  0  0
   -9.6560   15.6243  -39.7721 H   0  0  0  0  0  0  0  0  0  0  0  0
  -10.7285   15.5163  -40.9987 H   0  0  0  0  0  0  0  0  0  0  0  0
   -9.7158   14.7150  -35.1115 H   0  0  0  0  0  0  0  0  0  0  0  0
  1  8  1  0  0  0  0
  1 10  2  0  0  0  0
  1 11  1  0  0  0  0
  2  4  1  0  0  0  0
  2  5  1  0  0  0  0
  3  4  1  0  0  0  0
  3  6  1  0  0  0  0
  4  7  1  0  0  0  0
  5  6  1  0  0  0  0
  5  8  1  0  0  0  0
  6  8  1  0  0  0  0
  7  8  1  0  0  0  0
  7  9  1  0  0  0  0
  2 12  1  0  0  0  0
  2 13  1  0  0  0  0
  3 14  1  0  0  0  0
  3 15  1  0  0  0  0
  4 16  1  0  0  0  0
  5 17  1  0  0  0  0
  6 18  1  0  0  0  0
  7 19  1  0  0  0  0
  9 20  1  0  0  0  0
  9 21  1  0  0  0  0
 11 22  1  0  0  0  0
M  END
> <id>
EN300-7492563

> <smiles>
NC1C2CC3C(C2)C31C(=O)O

> <MDLNUMBER>
MFCD32268211

> <IUPAC Name>
7-aminotricyclo[2.2.1.0,2,6]heptane-1-carboxylic acid

> <CAS>
2408962-29-6

> <URL>
https://www.enaminestore.com/catalog/EN300-7492563

> <ROCS_ShapeQuery>
__x1247relevant_x1083L0AP1_x1305L0BP1_

> <ROCS_TanimotoCombo>
0.728 

> <ROCS_ShapeTanimoto>
0.453 

> <ROCS_ColorTanimoto>
0.275 

> <ROCS_RefTversky>
0.379 

> <ROCS_RefColorTversky>
0.427 

> <ROCS_RefTverskyCombo>
0.806 

> <ROCS_FitTversky>
1.752 

> <ROCS_FitColorTversky>
0.437 

> <ROCS_FitTverskyCombo>
2.189 

> <ROCS_ColorScore>
-14.430

> <ROCS_Overlap>
1112.942

> <ROCS_Rank>
226                 

$$$$
untitled-dbase-153817_1231
  -OEChem-06232314393D

 53 54  0     1  0  0  0  0  0999 V2000
  -13.0372   17.0725  -40.2181 C   0  0  0  0  0  0  0  0  0  0  0  0
   -9.8201   14.8518  -37.1796 C   0  0  0  0  0  0  0  0  0  0  0  0
  -14.4232   14.4746  -40.3226 C   0  0  0  0  0  0  0  0  0  0  0  0
  -13.2728   15.3653  -36.7438 C   0  0  0  0  0  0  0  0  0  0  0  0
  -13.5753   16.4450  -37.8100 C   0  0  0  0  0  0  0  0  0  0  0  0
  -12.8728   13.6610  -38.5476 C   0  0  0  0  0  0  0  0  0  0  0  0
  -11.3324   16.0132  -38.8229 C   0  0  0  0  0  0  0  0  0  0  0  0
  -12.2663   14.3315  -37.3015 C   0  0  1  0  0  0  0  0  0  0  0  0
  -12.8552   16.0673  -39.1168 C   0  0  2  0  0  0  0  0  0  0  0  0
   -9.3388   14.2310  -34.4300 C   0  0  0  0  0  0  0  0  0  0  0  0
   -8.7856   11.9185  -35.2396 C   0  0  0  0  0  0  0  0  0  0  0  0
   -7.4010   13.8728  -35.9956 C   0  0  0  0  0  0  0  0  0  0  0  0
  -15.4601   13.5909  -42.8406 C   0  0  0  0  0  0  0  0  0  0  0  0
  -15.5772   11.3145  -41.7854 C   0  0  0  0  0  0  0  0  0  0  0  0
  -16.9410   13.2014  -40.8431 C   0  0  0  0  0  0  0  0  0  0  0  0
   -8.7990   13.4035  -35.5956 C   0  0  0  0  0  0  0  0  0  0  0  0
  -15.6320   12.8196  -41.5328 C   0  0  0  0  0  0  0  0  0  0  0  0
  -11.0741   15.0631  -37.7414 N   0  0  0  0  0  0  0  0  0  0  0  0
  -13.3197   14.7061  -39.4883 N   0  0  0  0  0  0  0  0  0  0  0  0
  -12.2250   17.2992  -41.1025 O   0  0  0  0  0  0  0  0  0  0  0  0
   -8.9404   15.7062  -37.1009 O   0  0  0  0  0  0  0  0  0  0  0  0
  -15.1927   15.3407  -40.7315 O   0  0  0  0  0  0  0  0  0  0  0  0
  -14.2313   17.7025  -40.0987 O   0  0  0  0  0  0  0  0  0  0  0  0
   -9.6741   13.5705  -36.7167 O   0  0  0  0  0  0  0  0  0  0  0  0
  -14.5443   13.1508  -40.6619 O   0  0  0  0  0  0  0  0  0  0  0  0
  -12.8734   15.8379  -35.8386 H   0  0  0  0  0  0  0  0  0  0  0  0
  -14.2036   14.8622  -36.4558 H   0  0  0  0  0  0  0  0  0  0  0  0
  -14.6579   16.5337  -37.9636 H   0  0  0  0  0  0  0  0  0  0  0  0
  -13.2368   17.4254  -37.4517 H   0  0  0  0  0  0  0  0  0  0  0  0
  -12.1442   13.0258  -39.0640 H   0  0  0  0  0  0  0  0  0  0  0  0
  -13.7243   13.0364  -38.2552 H   0  0  0  0  0  0  0  0  0  0  0  0
  -10.7604   15.6942  -39.7034 H   0  0  0  0  0  0  0  0  0  0  0  0
  -10.9443   16.9948  -38.5230 H   0  0  0  0  0  0  0  0  0  0  0  0
  -12.0107   13.5863  -36.5421 H   0  0  0  0  0  0  0  0  0  0  0  0
   -9.3500   15.2976  -34.6816 H   0  0  0  0  0  0  0  0  0  0  0  0
  -10.3545   13.9276  -34.1562 H   0  0  0  0  0  0  0  0  0  0  0  0
   -8.6971   14.1284  -33.5474 H   0  0  0  0  0  0  0  0  0  0  0  0
   -8.3990   11.3209  -36.0731 H   0  0  0  0  0  0  0  0  0  0  0  0
   -9.8009   11.5549  -35.0439 H   0  0  0  0  0  0  0  0  0  0  0  0
   -8.1701   11.7203  -34.3562 H   0  0  0  0  0  0  0  0  0  0  0  0
   -7.0136   13.2794  -36.8317 H   0  0  0  0  0  0  0  0  0  0  0  0
   -7.3983   14.9273  -36.2899 H   0  0  0  0  0  0  0  0  0  0  0  0
   -6.6940   13.7402  -35.1686 H   0  0  0  0  0  0  0  0  0  0  0  0
  -15.4988   14.6717  -42.6635 H   0  0  0  0  0  0  0  0  0  0  0  0
  -14.5090   13.3522  -43.3276 H   0  0  0  0  0  0  0  0  0  0  0  0
  -16.2734   13.3628  -43.5390 H   0  0  0  0  0  0  0  0  0  0  0  0
  -15.7002   10.7571  -40.8498 H   0  0  0  0  0  0  0  0  0  0  0  0
  -14.6026   11.0224  -42.1929 H   0  0  0  0  0  0  0  0  0  0  0  0
  -16.3558   10.9936  -42.4850 H   0  0  0  0  0  0  0  0  0  0  0  0
  -17.0646   12.6483  -39.9050 H   0  0  0  0  0  0  0  0  0  0  0  0
  -16.9821   14.2726  -40.6207 H   0  0  0  0  0  0  0  0  0  0  0  0
  -17.8018   12.9427  -41.4703 H   0  0  0  0  0  0  0  0  0  0  0  0
  -14.3685   18.3654  -40.8087 H   0  0  0  0  0  0  0  0  0  0  0  0
  1  9  1  0  0  0  0
  1 20  2  0  0  0  0
  1 23  1  0  0  0  0
  2 18  1  0  0  0  0
  2 21  2  0  0  0  0
  2 24  1  0  0  0  0
  3 19  1  0  0  0  0
  3 22  2  0  0  0  0
  3 25  1  0  0  0  0
  4  5  1  0  0  0  0
  4  8  1  0  0  0  0
  5  9  1  0  0  0  0
  6  8  1  0  0  0  0
  6 19  1  0  0  0  0
  7  9  1  0  0  0  0
  7 18  1  0  0  0  0
  8 18  1  0  0  0  0
  9 19  1  0  0  0  0
 10 16  1  0  0  0  0
 11 16  1  0  0  0  0
 12 16  1  0  0  0  0
 13 17  1  0  0  0  0
 14 17  1  0  0  0  0
 15 17  1  0  0  0  0
 16 24  1  0  0  0  0
 17 25  1  0  0  0  0
  4 26  1  0  0  0  0
  4 27  1  0  0  0  0
  5 28  1  0  0  0  0
  5 29  1  0  0  0  0
  6 30  1  0  0  0  0
  6 31  1  0  0  0  0
  7 32  1  0  0  0  0
  7 33  1  0  0  0  0
  8 34  1  0  0  0  0
 10 35  1  0  0  0  0
 10 36  1  0  0  0  0
 10 37  1  0  0  0  0
 11 38  1  0  0  0  0
 11 39  1  0  0  0  0
 11 40  1  0  0  0  0
 12 41  1  0  0  0  0
 12 42  1  0  0  0  0
 12 43  1  0  0  0  0
 13 44  1  0  0  0  0
 13 45  1  0  0  0  0
 13 46  1  0  0  0  0
 14 47  1  0  0  0  0
 14 48  1  0  0  0  0
 14 49  1  0  0  0  0
 15 50  1  0  0  0  0
 15 51  1  0  0  0  0
 15 52  1  0  0  0  0
 23 53  1  0  0  0  0
M  END
> <id>
EN300-28299304

> <smiles>
CC(C)(C)OC(=O)N1CC2(CCC1CN2C(=O)OC(C)(C)C)C(=O)O

> <IUPAC Name>
2,5-bis[(tert-butoxy)carbonyl]-2,5-diazabicyclo[2.2.2]octane-1-carboxylic acid

> <CAS>
2680550-36-9

> <URL>
https://www.enaminestore.com/catalog/EN300-28299304

> <ROCS_ShapeQuery>
__x1247relevant_x1083L0AP1_x1305L0BP1_

> <ROCS_TanimotoCombo>
0.728 

> <ROCS_ShapeTanimoto>
0.541 

> <ROCS_ColorTanimoto>
0.187 

> <ROCS_RefTversky>
0.496 

> <ROCS_RefColorTversky>
0.225 

> <ROCS_RefTverskyCombo>
0.721 

> <ROCS_FitTversky>
1.203 

> <ROCS_FitColorTversky>
0.523 

> <ROCS_FitTverskyCombo>
1.725 

> <ROCS_ColorScore>
-7.377

> <ROCS_Overlap>
1471.412

> <ROCS_Rank>
227                 

$$$$
untitled-dbase-145098_62
  -OEChem-06232314393D

 23 24  0     1  0  0  0  0  0999 V2000
  -10.4542   14.8704  -36.3904 C   0  0  0  0  0  0  0  0  0  0  0  0
  -11.7484   16.3800  -38.7914 C   0  0  0  0  0  0  0  0  0  0  0  0
  -11.8177   14.8176  -37.0028 C   0  0  1  0  0  0  0  0  0  0  0  0
  -12.3484   16.2041  -37.3982 C   0  0  2  0  0  0  0  0  0  0  0  0
  -12.3097   15.0488  -39.2805 C   0  0  2  0  0  0  0  0  0  0  0  0
  -13.8471   16.0987  -37.7536 C   0  0  1  0  0  0  0  0  0  0  0  0
  -13.8200   15.1819  -38.9905 C   0  0  1  0  0  0  0  0  0  0  0  0
  -11.7331   14.1013  -38.2968 N   0  0  0  0  0  0  0  0  0  0  0  0
  -10.1526   14.3930  -35.3066 O   0  0  0  0  0  0  0  0  0  0  0  0
   -9.5896   15.5261  -37.2027 O   0  0  0  0  0  0  0  0  0  0  0  0
  -14.6015   15.5398  -36.6953 O   0  0  0  0  0  0  0  0  0  0  0  0
  -14.4557   15.8195  -40.0904 O   0  0  0  0  0  0  0  0  0  0  0  0
  -12.1476   17.2462  -39.3298 H   0  0  0  0  0  0  0  0  0  0  0  0
  -10.6544   16.4241  -38.8014 H   0  0  0  0  0  0  0  0  0  0  0  0
  -12.4731   14.2826  -36.3089 H   0  0  0  0  0  0  0  0  0  0  0  0
  -12.1146   16.9976  -36.6846 H   0  0  0  0  0  0  0  0  0  0  0  0
  -12.0662   14.8044  -40.3174 H   0  0  0  0  0  0  0  0  0  0  0  0
  -14.2596   17.0878  -37.9865 H   0  0  0  0  0  0  0  0  0  0  0  0
  -14.3033   14.2115  -38.8306 H   0  0  0  0  0  0  0  0  0  0  0  0
  -10.7558   13.9383  -38.5410 H   0  0  0  0  0  0  0  0  0  0  0  0
   -8.6887   15.5732  -36.8173 H   0  0  0  0  0  0  0  0  0  0  0  0
  -15.5278   15.5055  -36.9904 H   0  0  0  0  0  0  0  0  0  0  0  0
  -14.3007   15.2582  -40.8672 H   0  0  0  0  0  0  0  0  0  0  0  0
  1  3  1  0  0  0  0
  1  9  2  0  0  0  0
  1 10  1  0  0  0  0
  2  4  1  0  0  0  0
  2  5  1  0  0  0  0
  3  4  1  0  0  0  0
  3  8  1  0  0  0  0
  4  6  1  0  0  0  0
  5  7  1  0  0  0  0
  5  8  1  0  0  0  0
  6  7  1  0  0  0  0
  6 11  1  0  0  0  0
  7 12  1  0  0  0  0
  2 13  1  0  0  0  0
  2 14  1  0  0  0  0
  3 15  1  0  0  0  0
  4 16  1  0  0  0  0
  5 17  1  0  0  0  0
  6 18  1  0  0  0  0
  7 19  1  0  0  0  0
  8 20  1  0  0  0  0
 10 21  1  0  0  0  0
 11 22  1  0  0  0  0
 12 23  1  0  0  0  0
M  END
> <id>
EN300-27727915

> <smiles>
OC1C(O)C2CC1NC2C(=O)O

> <IUPAC Name>
5,6-dihydroxy-2-azabicyclo[2.2.1]heptane-3-carboxylic acid

> <CAS>
2580186-46-3

> <URL>
https://www.enaminestore.com/catalog/EN300-27727915

> <ROCS_ShapeQuery>
__x1247relevant_x1083L0AP1_x1305L0BP1_

> <ROCS_TanimotoCombo>
0.728 

> <ROCS_ShapeTanimoto>
0.449 

> <ROCS_ColorTanimoto>
0.279 

> <ROCS_RefTversky>
0.380 

> <ROCS_RefColorTversky>
0.326 

> <ROCS_RefTverskyCombo>
0.706 

> <ROCS_FitTversky>
1.679 

> <ROCS_FitColorTversky>
0.658 

> <ROCS_FitTverskyCombo>
2.338 

> <ROCS_ColorScore>
-10.721

> <ROCS_Overlap>
1116.500

> <ROCS_Rank>
228                 

$$$$
untitled-dbase-134007_14
  -OEChem-06232314393D

 34 35  0     1  0  0  0  0  0999 V2000
  -12.3827   14.7563  -37.8712 C   0  0  0  0  0  0  0  0  0  0  0  0
   -9.8417   16.1415  -36.1366 C   0  0  0  0  0  0  0  0  0  0  0  0
   -8.7130   15.3392  -36.7702 C   0  0  0  0  0  0  0  0  0  0  0  0
  -10.9849   15.2250  -35.6956 C   0  0  0  0  0  0  0  0  0  0  0  0
   -9.2421   14.4125  -37.8584 C   0  0  0  0  0  0  0  0  0  0  0  0
  -11.4436   14.2313  -36.7869 C   0  0  2  0  0  0  0  0  0  0  0  0
  -16.1522   14.1396  -39.3627 C   0  0  0  0  0  0  0  0  0  0  0  0
  -14.4963   13.4325  -41.1342 C   0  0  0  0  0  0  0  0  0  0  0  0
  -15.3721   15.7561  -41.0805 C   0  0  0  0  0  0  0  0  0  0  0  0
  -14.9195   14.5760  -40.1854 C   0  0  0  0  0  0  0  0  0  0  0  0
  -12.3342   16.0350  -38.3415 N   0  0  0  0  0  0  0  0  0  0  0  0
  -13.3181   13.9983  -38.4490 N   0  0  0  0  0  0  0  0  0  0  0  0
  -13.2799   16.1196  -39.2689 N   0  0  0  0  0  0  0  0  0  0  0  0
  -13.8328   14.8990  -39.2978 N   0  0  0  0  0  0  0  0  0  0  0  0
  -10.2684   13.5202  -37.3270 N   0  0  0  0  0  0  0  0  0  0  0  0
   -9.4592   16.6919  -35.2658 H   0  0  0  0  0  0  0  0  0  0  0  0
  -10.2168   16.8902  -36.8462 H   0  0  0  0  0  0  0  0  0  0  0  0
   -7.9704   16.0254  -37.1969 H   0  0  0  0  0  0  0  0  0  0  0  0
   -8.1999   14.7519  -36.0002 H   0  0  0  0  0  0  0  0  0  0  0  0
  -10.6764   14.6680  -34.7897 H   0  0  0  0  0  0  0  0  0  0  0  0
  -11.8414   15.8500  -35.3709 H   0  0  0  0  0  0  0  0  0  0  0  0
   -9.6713   15.0068  -38.6684 H   0  0  0  0  0  0  0  0  0  0  0  0
   -8.4262   13.8257  -38.2891 H   0  0  0  0  0  0  0  0  0  0  0  0
  -12.0618   13.4186  -36.2339 H   0  0  0  0  0  0  0  0  0  0  0  0
  -16.4735   14.9346  -38.6800 H   0  0  0  0  0  0  0  0  0  0  0  0
  -17.0109   13.8981  -39.9982 H   0  0  0  0  0  0  0  0  0  0  0  0
  -15.9279   13.2511  -38.7610 H   0  0  0  0  0  0  0  0  0  0  0  0
  -13.6231   13.6972  -41.7398 H   0  0  0  0  0  0  0  0  0  0  0  0
  -14.2326   12.5292  -40.5719 H   0  0  0  0  0  0  0  0  0  0  0  0
  -15.3086   13.1733  -41.8233 H   0  0  0  0  0  0  0  0  0  0  0  0
  -14.5432   16.1221  -41.6984 H   0  0  0  0  0  0  0  0  0  0  0  0
  -16.1744   15.4590  -41.7658 H   0  0  0  0  0  0  0  0  0  0  0  0
  -15.7247   16.6045  -40.4826 H   0  0  0  0  0  0  0  0  0  0  0  0
  -10.5783   12.8979  -38.0841 H   0  0  0  0  0  0  0  0  0  0  0  0
  1  6  1  0  0  0  0
  1 11  1  0  0  0  0
  1 12  2  0  0  0  0
  2  3  1  0  0  0  0
  2  4  1  0  0  0  0
  3  5  1  0  0  0  0
  4  6  1  0  0  0  0
  5 15  1  0  0  0  0
  6 15  1  0  0  0  0
  7 10  1  0  0  0  0
  8 10  1  0  0  0  0
  9 10  1  0  0  0  0
 10 14  1  0  0  0  0
 11 13  2  0  0  0  0
 12 14  1  0  0  0  0
 13 14  1  0  0  0  0
  2 16  1  0  0  0  0
  2 17  1  0  0  0  0
  3 18  1  0  0  0  0
  3 19  1  0  0  0  0
  4 20  1  0  0  0  0
  4 21  1  0  0  0  0
  5 22  1  0  0  0  0
  5 23  1  0  0  0  0
  6 24  1  0  0  0  0
  7 25  1  0  0  0  0
  7 26  1  0  0  0  0
  7 27  1  0  0  0  0
  8 28  1  0  0  0  0
  8 29  1  0  0  0  0
  8 30  1  0  0  0  0
  9 31  1  0  0  0  0
  9 32  1  0  0  0  0
  9 33  1  0  0  0  0
 15 34  1  0  0  0  0
M  END
> <id>
EN300-1752000

> <smiles>
CC(C)(C)N1N=NC(=N1)C2CCCCN2

> <IUPAC Name>
2-(2-tert-butyl-2H-1,2,3,4-tetrazol-5-yl)piperidine

> <CAS>
2229248-49-9

> <URL>
https://www.enaminestore.com/catalog/EN300-1752000

> <ROCS_ShapeQuery>
__x1247relevant_x1083L0AP1_x1305L0BP1_

> <ROCS_TanimotoCombo>
0.727 

> <ROCS_ShapeTanimoto>
0.489 

> <ROCS_ColorTanimoto>
0.238 

> <ROCS_RefTversky>
0.415 

> <ROCS_RefColorTversky>
0.249 

> <ROCS_RefTverskyCombo>
0.665 

> <ROCS_FitTversky>
1.569 

> <ROCS_FitColorTversky>
0.843 

> <ROCS_FitTverskyCombo>
2.412 

> <ROCS_ColorScore>
-8.126

> <ROCS_Overlap>
1223.166

> <ROCS_Rank>
229                 

$$$$
untitled-dbase-161514_2
  -OEChem-06232314393D

 31 33  0     1  0  0  0  0  0999 V2000
  -10.1866   15.2938  -36.9313 C   0  0  0  0  0  0  0  0  0  0  0  0
  -14.1932   14.8201  -37.2386 C   0  0  0  0  0  0  0  0  0  0  0  0
  -13.1035   13.7430  -37.1860 C   0  0  0  0  0  0  0  0  0  0  0  0
  -12.3739   16.4566  -37.5044 C   0  0  0  0  0  0  0  0  0  0  0  0
  -11.8953   15.7239  -40.1394 C   0  0  0  0  0  0  0  0  0  0  0  0
  -13.5975   15.8411  -38.2145 C   0  0  1  0  0  0  0  0  0  0  0  0
  -11.2949   15.4376  -37.9152 C   0  0  2  0  0  0  0  0  0  0  0  0
  -12.1001   14.1625  -38.2861 C   0  0  2  0  0  0  0  0  0  0  0  0
  -12.9405   14.9478  -39.3138 C   0  0  2  0  0  0  0  0  0  0  0  0
  -11.3157   12.9621  -38.8096 C   0  0  0  0  0  0  0  0  0  0  0  0
  -13.9124   14.1739  -40.1909 C   0  0  0  0  0  0  0  0  0  0  0  0
  -10.7534   15.8710  -39.2159 N   0  0  0  0  0  0  0  0  0  0  0  0
   -9.0074   15.5131  -37.1654 O   0  0  0  0  0  0  0  0  0  0  0  0
  -10.6625   14.8811  -35.7311 O   0  0  0  0  0  0  0  0  0  0  0  0
  -15.1325   14.4062  -37.6200 H   0  0  0  0  0  0  0  0  0  0  0  0
  -14.3988   15.2425  -36.2496 H   0  0  0  0  0  0  0  0  0  0  0  0
  -12.6243   13.7027  -36.2020 H   0  0  0  0  0  0  0  0  0  0  0  0
  -13.5466   12.7601  -37.3826 H   0  0  0  0  0  0  0  0  0  0  0  0
  -12.1571   17.4643  -37.8800 H   0  0  0  0  0  0  0  0  0  0  0  0
  -12.4992   16.5380  -36.4186 H   0  0  0  0  0  0  0  0  0  0  0  0
  -11.5746   15.1699  -41.0284 H   0  0  0  0  0  0  0  0  0  0  0  0
  -12.2720   16.7016  -40.4577 H   0  0  0  0  0  0  0  0  0  0  0  0
  -14.3162   16.5826  -38.5706 H   0  0  0  0  0  0  0  0  0  0  0  0
  -10.6180   13.2842  -39.5812 H   0  0  0  0  0  0  0  0  0  0  0  0
  -12.0006   12.2287  -39.2326 H   0  0  0  0  0  0  0  0  0  0  0  0
  -10.7583   12.5010  -37.9955 H   0  0  0  0  0  0  0  0  0  0  0  0
  -14.6340   13.6396  -39.5711 H   0  0  0  0  0  0  0  0  0  0  0  0
  -13.3716   13.4508  -40.8032 H   0  0  0  0  0  0  0  0  0  0  0  0
  -14.4515   14.8578  -40.8481 H   0  0  0  0  0  0  0  0  0  0  0  0
  -10.0044   15.2439  -39.5080 H   0  0  0  0  0  0  0  0  0  0  0  0
   -9.9463   14.7784  -35.0687 H   0  0  0  0  0  0  0  0  0  0  0  0
  1  7  1  0  0  0  0
  1 13  2  0  0  0  0
  1 14  1  0  0  0  0
  2  3  1  0  0  0  0
  2  6  1  0  0  0  0
  3  8  1  0  0  0  0
  4  6  1  0  0  0  0
  4  7  1  0  0  0  0
  5  9  1  0  0  0  0
  5 12  1  0  0  0  0
  6  9  1  0  0  0  0
  7  8  1  0  0  0  0
  7 12  1  0  0  0  0
  8  9  1  0  0  0  0
  8 10  1  0  0  0  0
  9 11  1  0  0  0  0
  2 15  1  0  0  0  0
  2 16  1  0  0  0  0
  3 17  1  0  0  0  0
  3 18  1  0  0  0  0
  4 19  1  0  0  0  0
  4 20  1  0  0  0  0
  5 21  1  0  0  0  0
  5 22  1  0  0  0  0
  6 23  1  0  0  0  0
 10 24  1  0  0  0  0
 10 25  1  0  0  0  0
 10 26  1  0  0  0  0
 11 27  1  0  0  0  0
 11 28  1  0  0  0  0
 11 29  1  0  0  0  0
 12 30  1  0  0  0  0
 14 31  1  0  0  0  0
M  END
> <id>
EN300-295732

> <smiles>
Cl.CC12CNC3(CC2CCC13C)C(=O)O

> <MDLNUMBER>
MFCD07755134

> <IUPAC Name>
6,7-dimethyl-4-azatricyclo[4.3.0.0,3,7]nonane-3-carboxylic acid hydrochloride

> <CAS>
1217750-02-1

> <URL>
https://www.enaminestore.com/catalog/EN300-295732

> <Saltdate>
Cl

> <ROCS_ShapeQuery>
__x1247relevant_x1083L0AP1_x1305L0BP1_

> <ROCS_TanimotoCombo>
0.727 

> <ROCS_ShapeTanimoto>
0.509 

> <ROCS_ColorTanimoto>
0.219 

> <ROCS_RefTversky>
0.425 

> <ROCS_RefColorTversky>
0.279 

> <ROCS_RefTverskyCombo>
0.704 

> <ROCS_FitTversky>
1.626 

> <ROCS_FitColorTversky>
0.505 

> <ROCS_FitTverskyCombo>
2.132 

> <ROCS_ColorScore>
-9.208

> <ROCS_Overlap>
1251.676

> <ROCS_Rank>
230                 

$$$$
untitled-dbase-10002_2
  -OEChem-06232314393D

 31 33  0     1  0  0  0  0  0999 V2000
  -10.1863   15.2946  -36.9303 C   0  0  0  0  0  0  0  0  0  0  0  0
  -14.1921   14.8154  -37.2401 C   0  0  0  0  0  0  0  0  0  0  0  0
  -13.1005   13.7401  -37.1882 C   0  0  0  0  0  0  0  0  0  0  0  0
  -12.3753   16.4552  -37.5028 C   0  0  0  0  0  0  0  0  0  0  0  0
  -11.8945   15.7274  -40.1383 C   0  0  0  0  0  0  0  0  0  0  0  0
  -13.5975   15.8387  -38.2143 C   0  0  1  0  0  0  0  0  0  0  0  0
  -11.2943   15.4385  -37.9145 C   0  0  2  0  0  0  0  0  0  0  0  0
  -12.0974   14.1626  -38.2875 C   0  0  2  0  0  0  0  0  0  0  0  0
  -12.9386   14.9480  -39.3145 C   0  0  2  0  0  0  0  0  0  0  0  0
  -11.3113   12.9637  -38.8118 C   0  0  0  0  0  0  0  0  0  0  0  0
  -13.9089   14.1738  -40.1929 C   0  0  0  0  0  0  0  0  0  0  0  0
  -10.7529   15.8741  -39.2144 N   0  0  0  0  0  0  0  0  0  0  0  0
   -9.0074   15.5160  -37.1634 O   0  0  0  0  0  0  0  0  0  0  0  0
  -10.6623   14.8792  -35.7310 O   0  0  0  0  0  0  0  0  0  0  0  0
  -15.1302   14.4002  -37.6224 H   0  0  0  0  0  0  0  0  0  0  0  0
  -14.3981   15.2360  -36.2504 H   0  0  0  0  0  0  0  0  0  0  0  0
  -12.6217   13.6990  -36.2040 H   0  0  0  0  0  0  0  0  0  0  0  0
  -13.5420   12.7571  -37.3869 H   0  0  0  0  0  0  0  0  0  0  0  0
  -12.1599   17.4638  -37.8769 H   0  0  0  0  0  0  0  0  0  0  0  0
  -12.5014   16.5347  -36.4170 H   0  0  0  0  0  0  0  0  0  0  0  0
  -11.5729   15.1758  -41.0281 H   0  0  0  0  0  0  0  0  0  0  0  0
  -12.2725   16.7052  -40.4550 H   0  0  0  0  0  0  0  0  0  0  0  0
  -14.3171   16.5797  -38.5697 H   0  0  0  0  0  0  0  0  0  0  0  0
  -10.6136   13.2874  -39.5829 H   0  0  0  0  0  0  0  0  0  0  0  0
  -11.9951   12.2298  -39.2358 H   0  0  0  0  0  0  0  0  0  0  0  0
  -10.7536   12.5025  -37.9980 H   0  0  0  0  0  0  0  0  0  0  0  0
  -14.6297   13.6373  -39.5742 H   0  0  0  0  0  0  0  0  0  0  0  0
  -13.3668   13.4527  -40.8064 H   0  0  0  0  0  0  0  0  0  0  0  0
  -14.4493   14.8578  -40.8491 H   0  0  0  0  0  0  0  0  0  0  0  0
  -10.0036   15.2477  -39.5071 H   0  0  0  0  0  0  0  0  0  0  0  0
   -9.9462   14.7764  -35.0684 H   0  0  0  0  0  0  0  0  0  0  0  0
  1  7  1  6  0  0  0
  1 13  2  0  0  0  0
  1 14  1  0  0  0  0
  2  3  1  0  0  0  0
  2  6  1  0  0  0  0
  3  8  1  0  0  0  0
  4  6  1  6  0  0  0
  4  7  1  0  0  0  0
  5  9  1  0  0  0  0
  5 12  1  0  0  0  0
  6  9  1  0  0  0  0
  7  8  1  0  0  0  0
  7 12  1  0  0  0  0
  8  9  1  0  0  0  0
  8 10  1  1  0  0  0
  9 11  1  1  0  0  0
  2 15  1  0  0  0  0
  2 16  1  0  0  0  0
  3 17  1  0  0  0  0
  3 18  1  0  0  0  0
  4 19  1  0  0  0  0
  4 20  1  0  0  0  0
  5 21  1  0  0  0  0
  5 22  1  0  0  0  0
  6 23  1  0  0  0  0
 10 24  1  0  0  0  0
 10 25  1  0  0  0  0
 10 26  1  0  0  0  0
 11 27  1  0  0  0  0
 11 28  1  0  0  0  0
 11 29  1  0  0  0  0
 12 30  1  0  0  0  0
 14 31  1  0  0  0  0
M  END
> <id>
EN300-146862

> <smiles>
C[C@]12CN[C@]3(C[C@@H]2CC[C@@]13C)C(=O)O

> <MDLNUMBER>
MFCD08444730

> <IUPAC Name>
(1S,3S,6R,7S)-6,7-dimethyl-4-azatricyclo[4.3.0.0,3,7]nonane-3-carboxylic acid

> <CAS>
1932582-78-9

> <URL>
https://www.enaminestore.com/catalog/EN300-146862

> <ROCS_ShapeQuery>
__x1247relevant_x1083L0AP1_x1305L0BP1_

> <ROCS_TanimotoCombo>
0.727 

> <ROCS_ShapeTanimoto>
0.508 

> <ROCS_ColorTanimoto>
0.219 

> <ROCS_RefTversky>
0.425 

> <ROCS_RefColorTversky>
0.279 

> <ROCS_RefTverskyCombo>
0.704 

> <ROCS_FitTversky>
1.626 

> <ROCS_FitColorTversky>
0.505 

> <ROCS_FitTverskyCombo>
2.131 

> <ROCS_ColorScore>
-9.208

> <ROCS_Overlap>
1251.623

> <ROCS_Rank>
231                 

$$$$
untitled-dbase-110599_2
  -OEChem-06232314393D

 31 33  0     1  0  0  0  0  0999 V2000
  -10.1863   15.2946  -36.9303 C   0  0  0  0  0  0  0  0  0  0  0  0
  -14.1921   14.8154  -37.2401 C   0  0  0  0  0  0  0  0  0  0  0  0
  -13.1005   13.7401  -37.1882 C   0  0  0  0  0  0  0  0  0  0  0  0
  -12.3753   16.4552  -37.5028 C   0  0  0  0  0  0  0  0  0  0  0  0
  -11.8945   15.7274  -40.1383 C   0  0  0  0  0  0  0  0  0  0  0  0
  -13.5975   15.8387  -38.2143 C   0  0  1  0  0  0  0  0  0  0  0  0
  -11.2943   15.4385  -37.9145 C   0  0  2  0  0  0  0  0  0  0  0  0
  -12.0974   14.1626  -38.2875 C   0  0  2  0  0  0  0  0  0  0  0  0
  -12.9386   14.9480  -39.3145 C   0  0  2  0  0  0  0  0  0  0  0  0
  -11.3113   12.9637  -38.8118 C   0  0  0  0  0  0  0  0  0  0  0  0
  -13.9089   14.1738  -40.1929 C   0  0  0  0  0  0  0  0  0  0  0  0
  -10.7529   15.8741  -39.2144 N   0  0  0  0  0  0  0  0  0  0  0  0
   -9.0074   15.5160  -37.1634 O   0  0  0  0  0  0  0  0  0  0  0  0
  -10.6623   14.8792  -35.7310 O   0  0  0  0  0  0  0  0  0  0  0  0
  -15.1302   14.4002  -37.6224 H   0  0  0  0  0  0  0  0  0  0  0  0
  -14.3981   15.2360  -36.2504 H   0  0  0  0  0  0  0  0  0  0  0  0
  -12.6217   13.6990  -36.2040 H   0  0  0  0  0  0  0  0  0  0  0  0
  -13.5420   12.7571  -37.3869 H   0  0  0  0  0  0  0  0  0  0  0  0
  -12.1599   17.4638  -37.8769 H   0  0  0  0  0  0  0  0  0  0  0  0
  -12.5014   16.5347  -36.4170 H   0  0  0  0  0  0  0  0  0  0  0  0
  -11.5729   15.1758  -41.0281 H   0  0  0  0  0  0  0  0  0  0  0  0
  -12.2725   16.7052  -40.4550 H   0  0  0  0  0  0  0  0  0  0  0  0
  -14.3171   16.5797  -38.5697 H   0  0  0  0  0  0  0  0  0  0  0  0
  -10.6136   13.2874  -39.5829 H   0  0  0  0  0  0  0  0  0  0  0  0
  -11.9951   12.2298  -39.2358 H   0  0  0  0  0  0  0  0  0  0  0  0
  -10.7536   12.5025  -37.9980 H   0  0  0  0  0  0  0  0  0  0  0  0
  -14.6297   13.6373  -39.5742 H   0  0  0  0  0  0  0  0  0  0  0  0
  -13.3668   13.4527  -40.8064 H   0  0  0  0  0  0  0  0  0  0  0  0
  -14.4493   14.8578  -40.8491 H   0  0  0  0  0  0  0  0  0  0  0  0
  -10.0036   15.2477  -39.5071 H   0  0  0  0  0  0  0  0  0  0  0  0
   -9.9462   14.7764  -35.0684 H   0  0  0  0  0  0  0  0  0  0  0  0
  1  7  1  6  0  0  0
  1 13  2  0  0  0  0
  1 14  1  0  0  0  0
  2  3  1  0  0  0  0
  2  6  1  0  0  0  0
  3  8  1  0  0  0  0
  4  6  1  6  0  0  0
  4  7  1  0  0  0  0
  5  9  1  0  0  0  0
  5 12  1  0  0  0  0
  6  9  1  0  0  0  0
  7  8  1  0  0  0  0
  7 12  1  0  0  0  0
  8  9  1  0  0  0  0
  8 10  1  1  0  0  0
  9 11  1  1  0  0  0
  2 15  1  0  0  0  0
  2 16  1  0  0  0  0
  3 17  1  0  0  0  0
  3 18  1  0  0  0  0
  4 19  1  0  0  0  0
  4 20  1  0  0  0  0
  5 21  1  0  0  0  0
  5 22  1  0  0  0  0
  6 23  1  0  0  0  0
 10 24  1  0  0  0  0
 10 25  1  0  0  0  0
 10 26  1  0  0  0  0
 11 27  1  0  0  0  0
 11 28  1  0  0  0  0
 11 29  1  0  0  0  0
 12 30  1  0  0  0  0
 14 31  1  0  0  0  0
M  END
> <id>
EN300-86643

> <smiles>
Cl.C[C@]12CN[C@]3(C[C@@H]2CC[C@@]13C)C(=O)O

> <MDLNUMBER>
MFCD08457562

> <IUPAC Name>
(1S,3S,6R,7S)-6,7-dimethyl-4-azatricyclo[4.3.0.0,3,7]nonane-3-carboxylic acid hydrochloride

> <CAS>
1955473-57-0

> <URL>
https://www.enaminestore.com/catalog/EN300-86643

> <Saltdate>
Cl

> <ROCS_ShapeQuery>
__x1247relevant_x1083L0AP1_x1305L0BP1_

> <ROCS_TanimotoCombo>
0.727 

> <ROCS_ShapeTanimoto>
0.508 

> <ROCS_ColorTanimoto>
0.219 

> <ROCS_RefTversky>
0.425 

> <ROCS_RefColorTversky>
0.279 

> <ROCS_RefTverskyCombo>
0.704 

> <ROCS_FitTversky>
1.626 

> <ROCS_FitColorTversky>
0.505 

> <ROCS_FitTverskyCombo>
2.131 

> <ROCS_ColorScore>
-9.208

> <ROCS_Overlap>
1251.623

> <ROCS_Rank>
232                 

$$$$
untitled-dbase-117524_276
  -OEChem-06232314393D

 40 42  0     1  0  0  0  0  0999 V2000
  -13.2625   17.1969  -41.0568 C   0  0  0  0  0  0  0  0  0  0  0  0
   -9.9410   14.8021  -36.9396 C   0  0  0  0  0  0  0  0  0  0  0  0
  -13.5367   15.2409  -37.2242 C   0  0  0  0  0  0  0  0  0  0  0  0
  -13.4212   16.5655  -39.7391 C   0  0  1  0  0  0  0  0  0  0  0  0
  -13.2836   14.2368  -38.3704 C   0  0  1  0  0  0  0  0  0  0  0  0
  -12.9260   15.1475  -39.5539 C   0  0  2  0  0  0  0  0  0  0  0  0
  -12.1822   16.2892  -38.9150 C   0  0  2  0  0  0  0  0  0  0  0  0
  -12.1815   15.9309  -37.4287 C   0  0  2  0  0  0  0  0  0  0  0  0
  -11.9482   13.5889  -37.8913 C   0  0  2  0  0  0  0  0  0  0  0  0
  -12.1467   12.4668  -36.8789 C   0  0  0  0  0  0  0  0  0  0  0  0
   -9.7835   14.9990  -34.3317 C   0  0  0  0  0  0  0  0  0  0  0  0
   -9.4335   12.5146  -34.2109 C   0  0  0  0  0  0  0  0  0  0  0  0
   -7.5724   14.0026  -35.0050 C   0  0  0  0  0  0  0  0  0  0  0  0
   -9.0859   13.7962  -34.9652 C   0  0  0  0  0  0  0  0  0  0  0  0
  -11.2701   14.7703  -37.3171 N   0  0  0  0  0  0  0  0  0  0  0  0
  -12.1921   17.4551  -41.5870 O   0  0  0  0  0  0  0  0  0  0  0  0
   -9.1868   15.7510  -37.1405 O   0  0  0  0  0  0  0  0  0  0  0  0
  -14.4714   17.4599  -41.6104 O   0  0  0  0  0  0  0  0  0  0  0  0
   -9.5613   13.6488  -36.3079 O   0  0  0  0  0  0  0  0  0  0  0  0
  -14.3986   15.8918  -37.3894 H   0  0  0  0  0  0  0  0  0  0  0  0
  -13.6418   14.7799  -36.2374 H   0  0  0  0  0  0  0  0  0  0  0  0
  -14.3253   16.8688  -39.2287 H   0  0  0  0  0  0  0  0  0  0  0  0
  -14.0986   13.5397  -38.5730 H   0  0  0  0  0  0  0  0  0  0  0  0
  -12.4801   14.6291  -40.3917 H   0  0  0  0  0  0  0  0  0  0  0  0
  -11.2130   16.5703  -39.3046 H   0  0  0  0  0  0  0  0  0  0  0  0
  -11.9425   16.7557  -36.7558 H   0  0  0  0  0  0  0  0  0  0  0  0
  -11.3483   13.2175  -38.7308 H   0  0  0  0  0  0  0  0  0  0  0  0
  -12.7421   12.8243  -36.0391 H   0  0  0  0  0  0  0  0  0  0  0  0
  -11.1806   12.1250  -36.5082 H   0  0  0  0  0  0  0  0  0  0  0  0
  -12.6628   11.6294  -37.3481 H   0  0  0  0  0  0  0  0  0  0  0  0
   -9.5365   15.9209  -34.8703 H   0  0  0  0  0  0  0  0  0  0  0  0
  -10.8717   14.8788  -34.3288 H   0  0  0  0  0  0  0  0  0  0  0  0
   -9.4487   15.1456  -33.2984 H   0  0  0  0  0  0  0  0  0  0  0  0
   -8.9351   11.6490  -34.6620 H   0  0  0  0  0  0  0  0  0  0  0  0
  -10.5094   12.3119  -34.2607 H   0  0  0  0  0  0  0  0  0  0  0  0
   -9.1402   12.5735  -33.1578 H   0  0  0  0  0  0  0  0  0  0  0  0
   -7.0719   13.1400  -35.4594 H   0  0  0  0  0  0  0  0  0  0  0  0
   -7.3024   14.8981  -35.5740 H   0  0  0  0  0  0  0  0  0  0  0  0
   -7.1655   14.0980  -33.9918 H   0  0  0  0  0  0  0  0  0  0  0  0
  -14.3868   17.8839  -42.4910 H   0  0  0  0  0  0  0  0  0  0  0  0
  1  4  1  0  0  0  0
  1 16  2  0  0  0  0
  1 18  1  0  0  0  0
  2 15  1  0  0  0  0
  2 17  2  0  0  0  0
  2 19  1  0  0  0  0
  3  5  1  0  0  0  0
  3  8  1  0  0  0  0
  4  6  1  0  0  0  0
  4  7  1  0  0  0  0
  5  6  1  0  0  0  0
  5  9  1  0  0  0  0
  6  7  1  0  0  0  0
  7  8  1  0  0  0  0
  8 15  1  0  0  0  0
  9 10  1  0  0  0  0
  9 15  1  0  0  0  0
 11 14  1  0  0  0  0
 12 14  1  0  0  0  0
 13 14  1  0  0  0  0
 14 19  1  0  0  0  0
  3 20  1  0  0  0  0
  3 21  1  0  0  0  0
  4 22  1  0  0  0  0
  5 23  1  0  0  0  0
  6 24  1  0  0  0  0
  7 25  1  0  0  0  0
  8 26  1  0  0  0  0
  9 27  1  0  0  0  0
 10 28  1  0  0  0  0
 10 29  1  0  0  0  0
 10 30  1  0  0  0  0
 11 31  1  0  0  0  0
 11 32  1  0  0  0  0
 11 33  1  0  0  0  0
 12 34  1  0  0  0  0
 12 35  1  0  0  0  0
 12 36  1  0  0  0  0
 13 37  1  0  0  0  0
 13 38  1  0  0  0  0
 13 39  1  0  0  0  0
 18 40  1  0  0  0  0
M  END
> <id>
EN300-1653458

> <smiles>
CC1C2CC(C3C(C32)C(=O)O)N1C(=O)OC(C)(C)C

> <IUPAC Name>
6-[(tert-butoxy)carbonyl]-7-methyl-6-azatricyclo[3.2.1.0,2,4]octane-3-carboxylic acid

> <CAS>
2172486-30-3

> <URL>
https://www.enaminestore.com/catalog/EN300-1653458

> <ROCS_ShapeQuery>
__x1247relevant_x1083L0AP1_x1305L0BP1_

> <ROCS_TanimotoCombo>
0.727 

> <ROCS_ShapeTanimoto>
0.497 

> <ROCS_ColorTanimoto>
0.231 

> <ROCS_RefTversky>
0.441 

> <ROCS_RefColorTversky>
0.315 

> <ROCS_RefTverskyCombo>
0.756 

> <ROCS_FitTversky>
1.343 

> <ROCS_FitColorTversky>
0.462 

> <ROCS_FitTverskyCombo>
1.805 

> <ROCS_ColorScore>
-10.493

> <ROCS_Overlap>
1302.403

> <ROCS_Rank>
233                 

$$$$
untitled-dbase-132444_28
  -OEChem-06232314393D

 38 41  0     1  0  0  0  0  0999 V2000
   -8.2831   12.0861  -33.7408 C   0  0  0  0  0  0  0  0  0  0  0  0
   -8.0976   12.1396  -35.1430 C   0  0  0  0  0  0  0  0  0  0  0  0
   -9.1874   13.0770  -33.4371 C   0  0  0  0  0  0  0  0  0  0  0  0
   -8.9021   13.1593  -35.5961 C   0  0  0  0  0  0  0  0  0  0  0  0
  -12.2042   14.6327  -39.8279 C   0  0  0  0  0  0  0  0  0  0  0  0
  -12.3326   16.7860  -38.6380 C   0  0  0  0  0  0  0  0  0  0  0  0
   -8.6857   15.1841  -37.0922 C   0  0  0  0  0  0  0  0  0  0  0  0
  -13.6326   14.3674  -39.3281 C   0  0  0  0  0  0  0  0  0  0  0  0
  -13.6829   16.3906  -38.0231 C   0  0  0  0  0  0  0  0  0  0  0  0
  -12.8344   14.3440  -37.0629 C   0  0  0  0  0  0  0  0  0  0  0  0
   -9.6482   16.1795  -36.4580 C   0  0  0  0  0  0  0  0  0  0  0  0
   -9.1717   13.7375  -36.9802 C   0  0  2  0  0  0  0  0  0  0  0  0
  -11.4656   15.5184  -38.8051 C   0  0  0  0  0  0  0  0  0  0  0  0
  -11.3808   14.7932  -37.4216 C   0  0  2  0  0  0  0  0  0  0  0  0
  -10.5619   13.5687  -37.4189 N   0  0  0  0  0  0  0  0  0  0  0  0
  -13.8504   14.9238  -37.9752 N   0  0  0  0  0  0  0  0  0  0  0  0
   -9.5698   13.7357  -34.5624 O   0  0  0  0  0  0  0  0  0  0  0  0
  -10.9894   15.7072  -36.3821 O   0  0  0  0  0  0  0  0  0  0  0  0
   -7.8158   11.4103  -33.0394 H   0  0  0  0  0  0  0  0  0  0  0  0
   -7.4563   11.5119  -35.7452 H   0  0  0  0  0  0  0  0  0  0  0  0
   -9.6368   13.4224  -32.5176 H   0  0  0  0  0  0  0  0  0  0  0  0
  -11.6725   13.6896  -39.9914 H   0  0  0  0  0  0  0  0  0  0  0  0
  -12.2438   15.1408  -40.7995 H   0  0  0  0  0  0  0  0  0  0  0  0
  -12.4902   17.2601  -39.6145 H   0  0  0  0  0  0  0  0  0  0  0  0
  -11.8316   17.5262  -38.0049 H   0  0  0  0  0  0  0  0  0  0  0  0
   -8.5133   15.4572  -38.1513 H   0  0  0  0  0  0  0  0  0  0  0  0
   -7.6993   15.2834  -36.5948 H   0  0  0  0  0  0  0  0  0  0  0  0
  -14.3611   14.7978  -40.0262 H   0  0  0  0  0  0  0  0  0  0  0  0
  -13.8323   13.2891  -39.3241 H   0  0  0  0  0  0  0  0  0  0  0  0
  -13.7741   16.8070  -37.0123 H   0  0  0  0  0  0  0  0  0  0  0  0
  -14.5000   16.8388  -38.6014 H   0  0  0  0  0  0  0  0  0  0  0  0
  -12.9422   13.2502  -37.0956 H   0  0  0  0  0  0  0  0  0  0  0  0
  -13.0826   14.6226  -36.0294 H   0  0  0  0  0  0  0  0  0  0  0  0
   -9.3186   16.4080  -35.4245 H   0  0  0  0  0  0  0  0  0  0  0  0
   -9.6238   17.1524  -36.9923 H   0  0  0  0  0  0  0  0  0  0  0  0
   -8.5120   13.1066  -37.6776 H   0  0  0  0  0  0  0  0  0  0  0  0
  -10.4814   15.8036  -39.1888 H   0  0  0  0  0  0  0  0  0  0  0  0
  -10.5815   13.1249  -38.3479 H   0  0  0  0  0  0  0  0  0  0  0  0
  1  2  1  0  0  0  0
  1  3  2  0  0  0  0
  2  4  2  0  0  0  0
  3 17  1  0  0  0  0
  4 12  1  0  0  0  0
  4 17  1  0  0  0  0
  5  8  1  0  0  0  0
  5 13  1  0  0  0  0
  6  9  1  0  0  0  0
  6 13  1  0  0  0  0
  7 11  1  0  0  0  0
  7 12  1  0  0  0  0
  8 16  1  0  0  0  0
  9 16  1  0  0  0  0
 10 14  1  0  0  0  0
 10 16  1  0  0  0  0
 11 18  1  0  0  0  0
 12 15  1  0  0  0  0
 13 14  1  0  0  0  0
 14 15  1  0  0  0  0
 14 18  1  0  0  0  0
  1 19  1  0  0  0  0
  2 20  1  0  0  0  0
  3 21  1  0  0  0  0
  5 22  1  0  0  0  0
  5 23  1  0  0  0  0
  6 24  1  0  0  0  0
  6 25  1  0  0  0  0
  7 26  1  0  0  0  0
  7 27  1  0  0  0  0
  8 28  1  0  0  0  0
  8 29  1  0  0  0  0
  9 30  1  0  0  0  0
  9 31  1  0  0  0  0
 10 32  1  0  0  0  0
 10 33  1  0  0  0  0
 11 34  1  0  0  0  0
 11 35  1  0  0  0  0
 12 36  1  0  0  0  0
 13 37  1  0  0  0  0
 15 38  1  0  0  0  0
M  END
> <id>
EN300-1279157

> <smiles>
C1CC(NC2(CN3CCC2CC3)O1)C4=CC=CO4

> <IUPAC Name>
4'-(furan-2-yl)-4-azaspiro[bicyclo[2.2.2]octane-2,2'-[1,3]oxazinane]

> <CAS>
2171803-10-2

> <URL>
https://www.enaminestore.com/catalog/EN300-1279157

> <ROCS_ShapeQuery>
__x1247relevant_x1083L0AP1_x1305L0BP1_

> <ROCS_TanimotoCombo>
0.727 

> <ROCS_ShapeTanimoto>
0.493 

> <ROCS_ColorTanimoto>
0.234 

> <ROCS_RefTversky>
0.436 

> <ROCS_RefColorTversky>
0.271 

> <ROCS_RefTverskyCombo>
0.707 

> <ROCS_FitTversky>
1.366 

> <ROCS_FitColorTversky>
0.630 

> <ROCS_FitTverskyCombo>
1.997 

> <ROCS_ColorScore>
-8.893

> <ROCS_Overlap>
1286.709

> <ROCS_Rank>
234                 

$$$$
untitled-dbase-69518_22
  -OEChem-06232314393D

 28 29  0     1  0  0  0  0  0999 V2000
  -13.2689   14.6716  -37.2534 C   0  0  0  0  0  0  0  0  0  0  0  0
  -14.2605   15.1432  -38.1135 C   0  0  0  0  0  0  0  0  0  0  0  0
  -11.9236   14.8697  -37.5646 C   0  0  0  0  0  0  0  0  0  0  0  0
  -13.9069   15.8129  -39.2849 C   0  0  0  0  0  0  0  0  0  0  0  0
  -11.5701   15.5393  -38.7360 C   0  0  0  0  0  0  0  0  0  0  0  0
  -12.5617   16.0109  -39.5962 C   0  0  0  0  0  0  0  0  0  0  0  0
   -8.6878   13.2920  -36.7772 C   0  0  0  0  0  0  0  0  0  0  0  0
   -8.0196   14.6353  -37.0665 C   0  0  0  0  0  0  0  0  0  0  0  0
   -9.9903   15.4893  -36.0430 C   0  0  0  0  0  0  0  0  0  0  0  0
  -10.8575   14.3495  -36.6150 C   0  0  2  0  0  0  0  0  0  0  0  0
  -10.0572   13.3031  -37.2698 N   0  0  0  0  0  0  0  0  0  0  0  0
   -8.8832   15.7625  -36.8974 O   0  0  0  0  0  0  0  0  0  0  0  0
  -14.8855   16.2684  -40.1160 O   0  0  0  0  0  0  0  0  0  0  0  0
  -10.2558   15.7346  -39.0435 O   0  0  0  0  0  0  0  0  0  0  0  0
  -12.2182   16.6670  -40.7412 O   0  0  0  0  0  0  0  0  0  0  0  0
  -13.5545   14.1504  -36.3436 H   0  0  0  0  0  0  0  0  0  0  0  0
  -15.3065   14.9851  -37.8656 H   0  0  0  0  0  0  0  0  0  0  0  0
   -8.1272   12.4855  -37.2562 H   0  0  0  0  0  0  0  0  0  0  0  0
   -8.6915   13.1002  -35.6998 H   0  0  0  0  0  0  0  0  0  0  0  0
   -7.1585   14.7753  -36.3816 H   0  0  0  0  0  0  0  0  0  0  0  0
   -7.5898   14.6594  -38.0925 H   0  0  0  0  0  0  0  0  0  0  0  0
  -10.5719   16.4108  -35.8900 H   0  0  0  0  0  0  0  0  0  0  0  0
   -9.5892   15.2015  -35.0621 H   0  0  0  0  0  0  0  0  0  0  0  0
  -11.4163   13.8647  -35.7746 H   0  0  0  0  0  0  0  0  0  0  0  0
  -10.0387   13.4853  -38.2791 H   0  0  0  0  0  0  0  0  0  0  0  0
  -15.7595   16.0503  -39.7558 H   0  0  0  0  0  0  0  0  0  0  0  0
  -10.1771   16.2121  -39.8837 H   0  0  0  0  0  0  0  0  0  0  0  0
  -13.0150   16.9305  -41.2269 H   0  0  0  0  0  0  0  0  0  0  0  0
  1  2  1  0  0  0  0
  1  3  2  0  0  0  0
  2  4  2  0  0  0  0
  3  5  1  0  0  0  0
  3 10  1  0  0  0  0
  4  6  1  0  0  0  0
  4 13  1  0  0  0  0
  5  6  2  0  0  0  0
  5 14  1  0  0  0  0
  6 15  1  0  0  0  0
  7  8  1  0  0  0  0
  7 11  1  0  0  0  0
  8 12  1  0  0  0  0
  9 10  1  0  0  0  0
  9 12  1  0  0  0  0
 10 11  1  0  0  0  0
  1 16  1  0  0  0  0
  2 17  1  0  0  0  0
  7 18  1  0  0  0  0
  7 19  1  0  0  0  0
  8 20  1  0  0  0  0
  8 21  1  0  0  0  0
  9 22  1  0  0  0  0
  9 23  1  0  0  0  0
 10 24  1  0  0  0  0
 11 25  1  0  0  0  0
 13 26  1  0  0  0  0
 14 27  1  0  0  0  0
 15 28  1  0  0  0  0
M  END
> <id>
EN300-1844673

> <smiles>
OC=1C=CC(C2COCCN2)=C(O)C1O

> <MDLNUMBER>
MFCD24657791

> <IUPAC Name>
4-(morpholin-3-yl)benzene-1,2,3-triol

> <CAS>
1337410-15-7

> <URL>
https://www.enaminestore.com/catalog/EN300-1844673

> <ROCS_ShapeQuery>
__x1247relevant_x1083L0AP1_x1305L0BP1_

> <ROCS_TanimotoCombo>
0.727 

> <ROCS_ShapeTanimoto>
0.522 

> <ROCS_ColorTanimoto>
0.205 

> <ROCS_RefTversky>
0.435 

> <ROCS_RefColorTversky>
0.234 

> <ROCS_RefTverskyCombo>
0.669 

> <ROCS_FitTversky>
1.621 

> <ROCS_FitColorTversky>
0.629 

> <ROCS_FitTverskyCombo>
2.250 

> <ROCS_ColorScore>
-7.639

> <ROCS_Overlap>
1280.809

> <ROCS_Rank>
235                 

$$$$
untitled-dbase-56509_91
  -OEChem-06232314393D

 39 40  0     1  0  0  0  0  0999 V2000
  -14.4475   15.0200  -40.1550 C   0  0  0  0  0  0  0  0  0  0  0  0
   -9.6402   14.8499  -36.9648 C   0  0  0  0  0  0  0  0  0  0  0  0
  -13.7258   15.2291  -37.2127 C   0  0  0  0  0  0  0  0  0  0  0  0
  -13.2451   16.5604  -37.8038 C   0  0  0  0  0  0  0  0  0  0  0  0
  -11.7593   13.7313  -37.7431 C   0  0  0  0  0  0  0  0  0  0  0  0
  -10.9908   15.9173  -38.7427 C   0  0  0  0  0  0  0  0  0  0  0  0
  -13.1022   14.8579  -39.5113 C   0  0  0  0  0  0  0  0  0  0  0  0
  -13.1813   14.1465  -38.1613 C   0  0  2  0  0  0  0  0  0  0  0  0
  -12.4690   16.1791  -39.0775 C   0  0  1  0  0  0  0  0  0  0  0  0
  -10.2453   15.0794  -34.4224 C   0  0  0  0  0  0  0  0  0  0  0  0
  -10.0231   12.5881  -34.1915 C   0  0  0  0  0  0  0  0  0  0  0  0
   -7.9661   14.0119  -34.4143 C   0  0  0  0  0  0  0  0  0  0  0  0
   -9.4307   13.8486  -34.8179 C   0  0  0  0  0  0  0  0  0  0  0  0
  -10.8074   14.8579  -37.7391 N   0  0  0  0  0  0  0  0  0  0  0  0
  -15.1701   14.1014  -40.5117 O   0  0  0  0  0  0  0  0  0  0  0  0
   -8.8236   15.7689  -36.9350 O   0  0  0  0  0  0  0  0  0  0  0  0
  -14.7574   16.3324  -40.2924 O   0  0  0  0  0  0  0  0  0  0  0  0
   -9.4975   13.6958  -36.2405 O   0  0  0  0  0  0  0  0  0  0  0  0
  -13.3878   15.0943  -36.1799 H   0  0  0  0  0  0  0  0  0  0  0  0
  -14.8220   15.2077  -37.2017 H   0  0  0  0  0  0  0  0  0  0  0  0
  -14.1107   17.1846  -38.0547 H   0  0  0  0  0  0  0  0  0  0  0  0
  -12.6341   17.1258  -37.0922 H   0  0  0  0  0  0  0  0  0  0  0  0
  -11.7856   13.2665  -36.7517 H   0  0  0  0  0  0  0  0  0  0  0  0
  -11.3617   12.9855  -38.4419 H   0  0  0  0  0  0  0  0  0  0  0  0
  -10.4503   15.5977  -39.6420 H   0  0  0  0  0  0  0  0  0  0  0  0
  -10.5122   16.8380  -38.3900 H   0  0  0  0  0  0  0  0  0  0  0  0
  -12.4776   14.3106  -40.2273 H   0  0  0  0  0  0  0  0  0  0  0  0
  -13.8388   13.2708  -38.1783 H   0  0  0  0  0  0  0  0  0  0  0  0
  -12.5503   16.9616  -39.8392 H   0  0  0  0  0  0  0  0  0  0  0  0
   -9.8233   15.9863  -34.8701 H   0  0  0  0  0  0  0  0  0  0  0  0
  -11.2901   14.9899  -34.7373 H   0  0  0  0  0  0  0  0  0  0  0  0
  -10.2227   15.2311  -33.3372 H   0  0  0  0  0  0  0  0  0  0  0  0
   -9.4418   11.7025  -34.4726 H   0  0  0  0  0  0  0  0  0  0  0  0
  -11.0433   12.4151  -34.5528 H   0  0  0  0  0  0  0  0  0  0  0  0
  -10.0486   12.6536  -33.0989 H   0  0  0  0  0  0  0  0  0  0  0  0
   -7.3816   13.1292  -34.6979 H   0  0  0  0  0  0  0  0  0  0  0  0
   -7.5139   14.8913  -34.8842 H   0  0  0  0  0  0  0  0  0  0  0  0
   -7.8701   14.1100  -33.3269 H   0  0  0  0  0  0  0  0  0  0  0  0
  -15.6341   16.4597  -40.7138 H   0  0  0  0  0  0  0  0  0  0  0  0
  1  7  1  0  0  0  0
  1 15  2  0  0  0  0
  1 17  1  0  0  0  0
  2 14  1  0  0  0  0
  2 16  2  0  0  0  0
  2 18  1  0  0  0  0
  3  4  1  0  0  0  0
  3  8  1  0  0  0  0
  4  9  1  0  0  0  0
  5  8  1  0  0  0  0
  5 14  1  0  0  0  0
  6  9  1  0  0  0  0
  6 14  1  0  0  0  0
  7  8  1  0  0  0  0
  7  9  1  0  0  0  0
 10 13  1  0  0  0  0
 11 13  1  0  0  0  0
 12 13  1  0  0  0  0
 13 18  1  0  0  0  0
  3 19  1  0  0  0  0
  3 20  1  0  0  0  0
  4 21  1  0  0  0  0
  4 22  1  0  0  0  0
  5 23  1  0  0  0  0
  5 24  1  0  0  0  0
  6 25  1  0  0  0  0
  6 26  1  0  0  0  0
  7 27  1  0  0  0  0
  8 28  1  0  0  0  0
  9 29  1  0  0  0  0
 10 30  1  0  0  0  0
 10 31  1  0  0  0  0
 10 32  1  0  0  0  0
 11 33  1  0  0  0  0
 11 34  1  0  0  0  0
 11 35  1  0  0  0  0
 12 36  1  0  0  0  0
 12 37  1  0  0  0  0
 12 38  1  0  0  0  0
 17 39  1  0  0  0  0
M  END
> <id>
EN300-268884

> <smiles>
CC(C)(C)OC(=O)N1CC2CCC(C1)C2C(=O)O

> <MDLNUMBER>
MFCD17016674

> <IUPAC Name>
3-[(tert-butoxy)carbonyl]-3-azabicyclo[3.2.1]octane-8-carboxylic acid

> <CAS>
1250997-29-5

> <Purity>
95

> <URL>
https://www.enaminestore.com/catalog/EN300-268884

> <ROCS_ShapeQuery>
__x1247relevant_x1083L0AP1_x1305L0BP1_

> <ROCS_TanimotoCombo>
0.727 

> <ROCS_ShapeTanimoto>
0.536 

> <ROCS_ColorTanimoto>
0.191 

> <ROCS_RefTversky>
0.457 

> <ROCS_RefColorTversky>
0.219 

> <ROCS_RefTverskyCombo>
0.676 

> <ROCS_FitTversky>
1.479 

> <ROCS_FitColorTversky>
0.598 

> <ROCS_FitTverskyCombo>
2.077 

> <ROCS_ColorScore>
-7.170

> <ROCS_Overlap>
1347.544

> <ROCS_Rank>
236                 

$$$$
untitled-dbase-45236_4
  -OEChem-06232314393D

 24 26  0     1  0  0  0  0  0999 V2000
  -10.2268   13.9963  -37.2589 C   0  0  0  0  0  0  0  0  0  0  0  0
  -12.2347   15.3926  -36.7034 C   0  0  0  0  0  0  0  0  0  0  0  0
  -14.0041   15.9470  -40.0110 C   0  0  0  0  0  0  0  0  0  0  0  0
  -11.1104   15.1118  -37.7251 C   0  0  2  0  0  0  0  0  0  0  0  0
  -13.6471   16.2291  -38.5758 C   0  0  2  0  0  0  0  0  0  0  0  0
  -12.5676   15.9248  -39.5597 C   0  0  1  0  0  0  0  0  0  0  0  0
  -13.4916   15.1320  -37.5458 C   0  0  1  0  0  0  0  0  0  0  0  0
  -11.9120   14.6953  -38.9700 C   0  0  2  0  0  0  0  0  0  0  0  0
   -9.1631   14.3336  -36.5932 N   0  0  0  0  0  0  0  0  0  0  0  0
  -10.6431   12.7291  -37.5911 N   0  0  0  0  0  0  0  0  0  0  0  0
  -13.0261   14.0102  -38.3354 O   0  0  0  0  0  0  0  0  0  0  0  0
   -8.4431   13.1921  -36.2281 O   0  0  0  0  0  0  0  0  0  0  0  0
  -12.1869   14.6983  -35.8569 H   0  0  0  0  0  0  0  0  0  0  0  0
  -12.1980   16.4172  -36.3199 H   0  0  0  0  0  0  0  0  0  0  0  0
  -14.4904   15.0109  -40.2551 H   0  0  0  0  0  0  0  0  0  0  0  0
  -14.3248   16.7831  -40.6208 H   0  0  0  0  0  0  0  0  0  0  0  0
  -10.4836   15.9925  -37.8998 H   0  0  0  0  0  0  0  0  0  0  0  0
  -13.7483   17.2287  -38.1825 H   0  0  0  0  0  0  0  0  0  0  0  0
  -11.8939   16.7068  -39.8746 H   0  0  0  0  0  0  0  0  0  0  0  0
  -14.3967   14.8957  -36.9830 H   0  0  0  0  0  0  0  0  0  0  0  0
  -11.4013   14.0498  -39.6884 H   0  0  0  0  0  0  0  0  0  0  0  0
  -10.1053   11.9143  -37.3160 H   0  0  0  0  0  0  0  0  0  0  0  0
  -11.4945   12.5659  -38.1183 H   0  0  0  0  0  0  0  0  0  0  0  0
   -7.6919   13.5805  -35.7487 H   0  0  0  0  0  0  0  0  0  0  0  0
  1  4  1  0  0  0  0
  1  9  2  3  0  0  0
  1 10  1  0  0  0  0
  2  4  1  0  0  0  0
  2  7  1  0  0  0  0
  3  5  1  0  0  0  0
  3  6  1  0  0  0  0
  4  8  1  0  0  0  0
  5  6  1  0  0  0  0
  5  7  1  0  0  0  0
  6  8  1  0  0  0  0
  7 11  1  0  0  0  0
  8 11  1  0  0  0  0
  9 12  1  0  0  0  0
  2 13  1  0  0  0  0
  2 14  1  0  0  0  0
  3 15  1  0  0  0  0
  3 16  1  0  0  0  0
  4 17  1  0  0  0  0
  5 18  1  0  0  0  0
  6 19  1  0  0  0  0
  7 20  1  0  0  0  0
  8 21  1  0  0  0  0
 10 22  1  0  0  0  0
 10 23  1  0  0  0  0
 12 24  1  0  0  0  0
M  END
> <id>
EN300-1291290

> <smiles>
NC(=NO)C1CC2OC1C3CC32

> <IUPAC Name>
N'-hydroxy-8-oxatricyclo[3.2.1.0,2,4]octane-6-carboximidamide

> <CAS>
2172606-38-9

> <URL>
https://www.enaminestore.com/catalog/EN300-1291290

> <ROCS_ShapeQuery>
__x1247relevant_x1083L0AP1_x1305L0BP1_

> <ROCS_TanimotoCombo>
0.727 

> <ROCS_ShapeTanimoto>
0.456 

> <ROCS_ColorTanimoto>
0.271 

> <ROCS_RefTversky>
0.386 

> <ROCS_RefColorTversky>
0.353 

> <ROCS_RefTverskyCombo>
0.738 

> <ROCS_FitTversky>
1.672 

> <ROCS_FitColorTversky>
0.537 

> <ROCS_FitTverskyCombo>
2.209 

> <ROCS_ColorScore>
-11.718

> <ROCS_Overlap>
1132.954

> <ROCS_Rank>
237                 

$$$$
untitled-dbase-109510_4
  -OEChem-06232314393D

 24 26  0     1  0  0  0  0  0999 V2000
  -10.2266   13.9963  -37.2588 C   0  0  0  0  0  0  0  0  0  0  0  0
  -12.2349   15.3918  -36.7032 C   0  0  0  0  0  0  0  0  0  0  0  0
  -14.0037   15.9477  -40.0111 C   0  0  0  0  0  0  0  0  0  0  0  0
  -11.1106   15.1115  -37.7249 C   0  0  2  0  0  0  0  0  0  0  0  0
  -13.6465   16.2296  -38.5759 C   0  0  2  0  0  0  0  0  0  0  0  0
  -12.5672   15.9247  -39.5598 C   0  0  1  0  0  0  0  0  0  0  0  0
  -13.4917   15.1323  -37.5460 C   0  0  1  0  0  0  0  0  0  0  0  0
  -11.9122   14.6949  -38.9699 C   0  0  2  0  0  0  0  0  0  0  0  0
   -9.1627   14.3339  -36.5936 N   0  0  0  0  0  0  0  0  0  0  0  0
  -10.6427   12.7289  -37.5907 N   0  0  0  0  0  0  0  0  0  0  0  0
  -13.0267   14.0104  -38.3356 O   0  0  0  0  0  0  0  0  0  0  0  0
   -8.4423   13.1927  -36.2286 O   0  0  0  0  0  0  0  0  0  0  0  0
  -12.1872   14.6966  -35.8575 H   0  0  0  0  0  0  0  0  0  0  0  0
  -12.1978   16.4162  -36.3187 H   0  0  0  0  0  0  0  0  0  0  0  0
  -14.4901   15.0116  -40.2551 H   0  0  0  0  0  0  0  0  0  0  0  0
  -14.3243   16.7838  -40.6211 H   0  0  0  0  0  0  0  0  0  0  0  0
  -10.4843   15.9926  -37.9001 H   0  0  0  0  0  0  0  0  0  0  0  0
  -13.7452   17.2296  -38.1824 H   0  0  0  0  0  0  0  0  0  0  0  0
  -11.8934   16.7061  -39.8756 H   0  0  0  0  0  0  0  0  0  0  0  0
  -14.3974   14.8971  -36.9834 H   0  0  0  0  0  0  0  0  0  0  0  0
  -11.4021   14.0496  -39.6889 H   0  0  0  0  0  0  0  0  0  0  0  0
  -10.1046   11.9143  -37.3157 H   0  0  0  0  0  0  0  0  0  0  0  0
  -11.4942   12.5655  -38.1175 H   0  0  0  0  0  0  0  0  0  0  0  0
   -7.6910   13.5813  -35.7495 H   0  0  0  0  0  0  0  0  0  0  0  0
  1  4  1  0  0  0  0
  1  9  2  3  0  0  0
  1 10  1  0  0  0  0
  2  4  1  0  0  0  0
  2  7  1  6  0  0  0
  3  5  1  1  0  0  0
  3  6  1  1  0  0  0
  4  8  1  6  0  0  0
  5  6  1  0  0  0  0
  5  7  1  0  0  0  0
  6  8  1  0  0  0  0
  7 11  1  0  0  0  0
  8 11  1  0  0  0  0
  9 12  1  0  0  0  0
  2 13  1  0  0  0  0
  2 14  1  0  0  0  0
  3 15  1  0  0  0  0
  3 16  1  0  0  0  0
  4 17  1  0  0  0  0
  5 18  1  0  0  0  0
  6 19  1  0  0  0  0
  7 20  1  0  0  0  0
  8 21  1  0  0  0  0
 10 22  1  0  0  0  0
 10 23  1  0  0  0  0
 12 24  1  0  0  0  0
M  END
> <id>
EN300-1291739

> <smiles>
NC(=NO)C1C[C@@H]2O[C@H]1[C@H]3C[C@H]32 |&1:6,8,9,11,r|

> <IUPAC Name>
rac-(1R,2S,4R,5R)-N'-hydroxy-8-oxatricyclo[3.2.1.0,2,4]octane-6-carboximidamide

> <CAS>
2227955-81-7

> <URL>
https://www.enaminestore.com/catalog/EN300-1291739

> <ROCS_ShapeQuery>
__x1247relevant_x1083L0AP1_x1305L0BP1_

> <ROCS_TanimotoCombo>
0.727 

> <ROCS_ShapeTanimoto>
0.456 

> <ROCS_ColorTanimoto>
0.271 

> <ROCS_RefTversky>
0.386 

> <ROCS_RefColorTversky>
0.353 

> <ROCS_RefTverskyCombo>
0.738 

> <ROCS_FitTversky>
1.672 

> <ROCS_FitColorTversky>
0.537 

> <ROCS_FitTverskyCombo>
2.209 

> <ROCS_ColorScore>
-11.718

> <ROCS_Overlap>
1132.948

> <ROCS_Rank>
238                 

$$$$
untitled-dbase-16724_8
  -OEChem-06232314393D

 34 36  0     1  0  0  0  0  0999 V2000
   -9.0981   14.5447  -36.9172 C   0  0  0  0  0  0  0  0  0  0  0  0
  -14.0601   14.5883  -37.6153 C   0  0  0  0  0  0  0  0  0  0  0  0
  -12.9873   16.8526  -37.7460 C   0  0  0  0  0  0  0  0  0  0  0  0
  -11.7493   14.9357  -36.7111 C   0  0  0  0  0  0  0  0  0  0  0  0
  -12.0932   13.5837  -38.7950 C   0  0  0  0  0  0  0  0  0  0  0  0
  -11.0169   15.8556  -38.9261 C   0  0  0  0  0  0  0  0  0  0  0  0
  -13.1326   15.5805  -36.8931 C   0  0  0  0  0  0  0  0  0  0  0  0
  -13.4793   14.2236  -38.9965 C   0  0  2  0  0  0  0  0  0  0  0  0
  -12.3989   16.5039  -39.1281 C   0  0  1  0  0  0  0  0  0  0  0  0
  -13.3107   15.4937  -39.8607 C   0  0  0  0  0  0  0  0  0  0  0  0
  -11.1537   14.5744  -38.0823 C   0  0  0  0  0  0  0  0  0  0  0  0
   -8.7771   13.5263  -35.8656 C   0  0  0  0  0  0  0  0  0  0  0  0
  -14.6091   16.0904  -40.1792 N   0  0  0  0  0  0  0  0  0  0  0  0
   -8.7095   15.7046  -36.8891 O   0  0  0  0  0  0  0  0  0  0  0  0
   -9.8776   13.9809  -37.8900 O   0  0  0  0  0  0  0  0  0  0  0  0
  -14.1736   13.6796  -37.0105 H   0  0  0  0  0  0  0  0  0  0  0  0
  -15.0631   15.0184  -37.7195 H   0  0  0  0  0  0  0  0  0  0  0  0
  -13.9603   17.3460  -37.8540 H   0  0  0  0  0  0  0  0  0  0  0  0
  -12.3309   17.5682  -37.2349 H   0  0  0  0  0  0  0  0  0  0  0  0
  -11.0763   15.6169  -36.1743 H   0  0  0  0  0  0  0  0  0  0  0  0
  -11.8240   14.0384  -36.0831 H   0  0  0  0  0  0  0  0  0  0  0  0
  -12.1789   12.6585  -38.2105 H   0  0  0  0  0  0  0  0  0  0  0  0
  -11.6655   13.2848  -39.7608 H   0  0  0  0  0  0  0  0  0  0  0  0
  -10.5583   15.6224  -39.8957 H   0  0  0  0  0  0  0  0  0  0  0  0
  -10.3310   16.5586  -38.4358 H   0  0  0  0  0  0  0  0  0  0  0  0
  -13.5533   15.8363  -35.9143 H   0  0  0  0  0  0  0  0  0  0  0  0
  -14.1399   13.5050  -39.4967 H   0  0  0  0  0  0  0  0  0  0  0  0
  -12.2858   17.4185  -39.7224 H   0  0  0  0  0  0  0  0  0  0  0  0
  -12.8406   15.2160  -40.8132 H   0  0  0  0  0  0  0  0  0  0  0  0
   -9.5423   13.5447  -35.0857 H   0  0  0  0  0  0  0  0  0  0  0  0
   -7.7901   13.7289  -35.4421 H   0  0  0  0  0  0  0  0  0  0  0  0
   -8.7637   12.5302  -36.3175 H   0  0  0  0  0  0  0  0  0  0  0  0
  -14.4498   16.8863  -40.7484 H   0  0  0  0  0  0  0  0  0  0  0  0
  -15.1476   15.4125  -40.6623 H   0  0  0  0  0  0  0  0  0  0  0  0
  1 12  1  0  0  0  0
  1 14  2  0  0  0  0
  1 15  1  0  0  0  0
  2  7  1  0  0  0  0
  2  8  1  0  0  0  0
  3  7  1  0  0  0  0
  3  9  1  0  0  0  0
  4  7  1  0  0  0  0
  4 11  1  0  0  0  0
  5  8  1  0  0  0  0
  5 11  1  0  0  0  0
  6  9  1  0  0  0  0
  6 11  1  0  0  0  0
  8 10  1  0  0  0  0
  9 10  1  0  0  0  0
 10 13  1  0  0  0  0
 11 15  1  0  0  0  0
  2 16  1  0  0  0  0
  2 17  1  0  0  0  0
  3 18  1  0  0  0  0
  3 19  1  0  0  0  0
  4 20  1  0  0  0  0
  4 21  1  0  0  0  0
  5 22  1  0  0  0  0
  5 23  1  0  0  0  0
  6 24  1  0  0  0  0
  6 25  1  0  0  0  0
  7 26  1  0  0  0  0
  8 27  1  0  0  0  0
  9 28  1  0  0  0  0
 10 29  1  0  0  0  0
 12 30  1  0  0  0  0
 12 31  1  0  0  0  0
 12 32  1  0  0  0  0
 13 33  1  0  0  0  0
 13 34  1  0  0  0  0
M  END
> <id>
EN300-200217

> <smiles>
Cl.CC(=O)OC1(CC2CC3C1)CC(C2)C3N

> <MDLNUMBER>
MFCD28246449

> <IUPAC Name>
4-aminoadamantan-1-yl acetate hydrochloride

> <CAS>
1803585-52-5

> <URL>
https://www.enaminestore.com/catalog/EN300-200217

> <Saltdate>
Cl

> <ROCS_ShapeQuery>
__x1247relevant_x1083L0AP1_x1305L0BP1_

> <ROCS_TanimotoCombo>
0.727 

> <ROCS_ShapeTanimoto>
0.519 

> <ROCS_ColorTanimoto>
0.208 

> <ROCS_RefTversky>
0.434 

> <ROCS_RefColorTversky>
0.228 

> <ROCS_RefTverskyCombo>
0.662 

> <ROCS_FitTversky>
1.604 

> <ROCS_FitColorTversky>
0.697 

> <ROCS_FitTverskyCombo>
2.301 

> <ROCS_ColorScore>
-7.446

> <ROCS_Overlap>
1278.850

> <ROCS_Rank>
239                 

$$$$
untitled-dbase-125173_8
  -OEChem-06232314393D

 34 36  0     1  0  0  0  0  0999 V2000
   -9.0981   14.5447  -36.9172 C   0  0  0  0  0  0  0  0  0  0  0  0
  -14.0601   14.5883  -37.6153 C   0  0  0  0  0  0  0  0  0  0  0  0
  -12.9873   16.8526  -37.7460 C   0  0  0  0  0  0  0  0  0  0  0  0
  -11.7493   14.9357  -36.7111 C   0  0  0  0  0  0  0  0  0  0  0  0
  -12.0932   13.5837  -38.7950 C   0  0  0  0  0  0  0  0  0  0  0  0
  -11.0169   15.8556  -38.9261 C   0  0  0  0  0  0  0  0  0  0  0  0
  -13.1326   15.5805  -36.8931 C   0  0  0  0  0  0  0  0  0  0  0  0
  -13.4793   14.2236  -38.9965 C   0  0  2  0  0  0  0  0  0  0  0  0
  -12.3989   16.5039  -39.1281 C   0  0  1  0  0  0  0  0  0  0  0  0
  -13.3107   15.4937  -39.8607 C   0  0  0  0  0  0  0  0  0  0  0  0
  -11.1537   14.5744  -38.0823 C   0  0  0  0  0  0  0  0  0  0  0  0
   -8.7771   13.5263  -35.8656 C   0  0  0  0  0  0  0  0  0  0  0  0
  -14.6091   16.0904  -40.1792 N   0  0  0  0  0  0  0  0  0  0  0  0
   -8.7095   15.7046  -36.8891 O   0  0  0  0  0  0  0  0  0  0  0  0
   -9.8776   13.9809  -37.8900 O   0  0  0  0  0  0  0  0  0  0  0  0
  -14.1736   13.6796  -37.0105 H   0  0  0  0  0  0  0  0  0  0  0  0
  -15.0631   15.0184  -37.7195 H   0  0  0  0  0  0  0  0  0  0  0  0
  -13.9603   17.3460  -37.8540 H   0  0  0  0  0  0  0  0  0  0  0  0
  -12.3309   17.5682  -37.2349 H   0  0  0  0  0  0  0  0  0  0  0  0
  -11.0763   15.6169  -36.1743 H   0  0  0  0  0  0  0  0  0  0  0  0
  -11.8240   14.0384  -36.0831 H   0  0  0  0  0  0  0  0  0  0  0  0
  -12.1789   12.6585  -38.2105 H   0  0  0  0  0  0  0  0  0  0  0  0
  -11.6655   13.2848  -39.7608 H   0  0  0  0  0  0  0  0  0  0  0  0
  -10.5583   15.6224  -39.8957 H   0  0  0  0  0  0  0  0  0  0  0  0
  -10.3310   16.5586  -38.4358 H   0  0  0  0  0  0  0  0  0  0  0  0
  -13.5533   15.8363  -35.9143 H   0  0  0  0  0  0  0  0  0  0  0  0
  -14.1399   13.5050  -39.4967 H   0  0  0  0  0  0  0  0  0  0  0  0
  -12.2858   17.4185  -39.7224 H   0  0  0  0  0  0  0  0  0  0  0  0
  -12.8406   15.2160  -40.8132 H   0  0  0  0  0  0  0  0  0  0  0  0
   -9.5423   13.5447  -35.0857 H   0  0  0  0  0  0  0  0  0  0  0  0
   -7.7901   13.7289  -35.4421 H   0  0  0  0  0  0  0  0  0  0  0  0
   -8.7637   12.5302  -36.3175 H   0  0  0  0  0  0  0  0  0  0  0  0
  -14.4498   16.8863  -40.7484 H   0  0  0  0  0  0  0  0  0  0  0  0
  -15.1476   15.4125  -40.6623 H   0  0  0  0  0  0  0  0  0  0  0  0
  1 12  1  0  0  0  0
  1 14  2  0  0  0  0
  1 15  1  0  0  0  0
  2  7  1  0  0  0  0
  2  8  1  0  0  0  0
  3  7  1  0  0  0  0
  3  9  1  0  0  0  0
  4  7  1  0  0  0  0
  4 11  1  0  0  0  0
  5  8  1  0  0  0  0
  5 11  1  0  0  0  0
  6  9  1  0  0  0  0
  6 11  1  0  0  0  0
  8 10  1  0  0  0  0
  9 10  1  0  0  0  0
 10 13  1  0  0  0  0
 11 15  1  0  0  0  0
  2 16  1  0  0  0  0
  2 17  1  0  0  0  0
  3 18  1  0  0  0  0
  3 19  1  0  0  0  0
  4 20  1  0  0  0  0
  4 21  1  0  0  0  0
  5 22  1  0  0  0  0
  5 23  1  0  0  0  0
  6 24  1  0  0  0  0
  6 25  1  0  0  0  0
  7 26  1  0  0  0  0
  8 27  1  0  0  0  0
  9 28  1  0  0  0  0
 10 29  1  0  0  0  0
 12 30  1  0  0  0  0
 12 31  1  0  0  0  0
 12 32  1  0  0  0  0
 13 33  1  0  0  0  0
 13 34  1  0  0  0  0
M  END
> <id>
EN300-199094

> <smiles>
CC(=O)OC1(CC2CC3C1)CC(C2)C3N

> <MDLNUMBER>
MFCD24626764

> <IUPAC Name>
4-aminoadamantan-1-yl acetate

> <CAS>
868604-77-7

> <URL>
https://www.enaminestore.com/catalog/EN300-199094

> <ROCS_ShapeQuery>
__x1247relevant_x1083L0AP1_x1305L0BP1_

> <ROCS_TanimotoCombo>
0.727 

> <ROCS_ShapeTanimoto>
0.519 

> <ROCS_ColorTanimoto>
0.208 

> <ROCS_RefTversky>
0.434 

> <ROCS_RefColorTversky>
0.228 

> <ROCS_RefTverskyCombo>
0.662 

> <ROCS_FitTversky>
1.604 

> <ROCS_FitColorTversky>
0.697 

> <ROCS_FitTverskyCombo>
2.301 

> <ROCS_ColorScore>
-7.446

> <ROCS_Overlap>
1278.850

> <ROCS_Rank>
240                 

$$$$
untitled-dbase-29706_5
  -OEChem-06232314393D

 29 31  0     1  0  0  0  0  0999 V2000
  -10.3208   15.2264  -36.6238 C   0  0  0  0  0  0  0  0  0  0  0  0
  -13.2694   13.9649  -38.7467 C   0  0  0  0  0  0  0  0  0  0  0  0
  -13.5229   16.5139  -38.6031 C   0  0  0  0  0  0  0  0  0  0  0  0
  -12.7759   14.6883  -36.2526 C   0  0  0  0  0  0  0  0  0  0  0  0
  -13.2063   15.3018  -39.5297 C   0  0  1  0  0  0  0  0  0  0  0  0
  -12.3912   13.9597  -37.5083 C   0  0  2  0  0  0  0  0  0  0  0  0
  -12.0064   16.4018  -38.1878 C   0  0  1  0  0  0  0  0  0  0  0  0
  -11.7030   15.2823  -37.1503 C   0  0  2  0  0  0  0  0  0  0  0  0
  -11.7699   15.9653  -39.7146 C   0  0  0  0  0  0  0  0  0  0  0  0
  -10.6167   15.0040  -40.0240 C   0  0  0  0  0  0  0  0  0  0  0  0
  -11.6829   17.1280  -40.7219 C   0  0  0  0  0  0  0  0  0  0  0  0
   -9.3319   15.6523  -37.2018 O   0  0  0  0  0  0  0  0  0  0  0  0
  -10.2961   14.6326  -35.4056 O   0  0  0  0  0  0  0  0  0  0  0  0
  -14.3056   13.7487  -38.4621 H   0  0  0  0  0  0  0  0  0  0  0  0
  -12.9471   13.1537  -39.4100 H   0  0  0  0  0  0  0  0  0  0  0  0
  -13.8067   17.4419  -39.1101 H   0  0  0  0  0  0  0  0  0  0  0  0
  -14.2812   16.3551  -37.8334 H   0  0  0  0  0  0  0  0  0  0  0  0
  -13.7489   15.1545  -36.1883 H   0  0  0  0  0  0  0  0  0  0  0  0
  -12.4683   14.2463  -35.3097 H   0  0  0  0  0  0  0  0  0  0  0  0
  -13.8143   15.2571  -40.4399 H   0  0  0  0  0  0  0  0  0  0  0  0
  -11.8469   13.0305  -37.3912 H   0  0  0  0  0  0  0  0  0  0  0  0
  -11.5523   17.3546  -37.8938 H   0  0  0  0  0  0  0  0  0  0  0  0
   -9.6925   15.5665  -40.1283 H   0  0  0  0  0  0  0  0  0  0  0  0
  -10.8235   14.4744  -40.9503 H   0  0  0  0  0  0  0  0  0  0  0  0
  -10.5136   14.2872  -39.2135 H   0  0  0  0  0  0  0  0  0  0  0  0
  -10.6622   17.4919  -40.7578 H   0  0  0  0  0  0  0  0  0  0  0  0
  -12.3457   17.9247  -40.4032 H   0  0  0  0  0  0  0  0  0  0  0  0
  -11.9807   16.7724  -41.7020 H   0  0  0  0  0  0  0  0  0  0  0  0
   -9.3871   14.5842  -35.0400 H   0  0  0  0  0  0  0  0  0  0  0  0
  1  8  1  0  0  0  0
  1 12  2  0  0  0  0
  1 13  1  0  0  0  0
  2  5  1  0  0  0  0
  2  6  1  0  0  0  0
  3  5  1  0  0  0  0
  3  7  1  0  0  0  0
  4  6  1  0  0  0  0
  4  8  1  0  0  0  0
  5  9  1  0  0  0  0
  6  8  1  0  0  0  0
  7  8  1  0  0  0  0
  7  9  1  0  0  0  0
  9 10  1  0  0  0  0
  9 11  1  0  0  0  0
  2 14  1  0  0  0  0
  2 15  1  0  0  0  0
  3 16  1  0  0  0  0
  3 17  1  0  0  0  0
  4 18  1  0  0  0  0
  4 19  1  0  0  0  0
  5 20  1  0  0  0  0
  6 21  1  0  0  0  0
  7 22  1  0  0  0  0
 10 23  1  0  0  0  0
 10 24  1  0  0  0  0
 10 25  1  0  0  0  0
 11 26  1  0  0  0  0
 11 27  1  0  0  0  0
 11 28  1  0  0  0  0
 13 29  1  0  0  0  0
M  END
> <id>
EN300-1461526

> <smiles>
CC1(C)C2CC1C3(CC3C2)C(=O)O

> <IUPAC Name>
7,7-dimethyltricyclo[4.1.1.0,2,4]octane-2-carboxylic acid

> <CAS>
2167476-36-8

> <URL>
https://www.enaminestore.com/catalog/EN300-1461526

> <ROCS_ShapeQuery>
__x1247relevant_x1083L0AP1_x1305L0BP1_

> <ROCS_TanimotoCombo>
0.727 

> <ROCS_ShapeTanimoto>
0.477 

> <ROCS_ColorTanimoto>
0.250 

> <ROCS_RefTversky>
0.399 

> <ROCS_RefColorTversky>
0.332 

> <ROCS_RefTverskyCombo>
0.732 

> <ROCS_FitTversky>
1.684 

> <ROCS_FitColorTversky>
0.501 

> <ROCS_FitTverskyCombo>
2.185 

> <ROCS_ColorScore>
-11.044

> <ROCS_Overlap>
1174.379

> <ROCS_Rank>
241                 

$$$$
untitled-dbase-170285_10
  -OEChem-06232314393D

 28 30  0     0  0  0  0  0  0999 V2000
  -13.2729   15.4020  -37.4026 C   0  0  0  0  0  0  0  0  0  0  0  0
  -12.9517   14.1184  -39.0852 C   0  0  0  0  0  0  0  0  0  0  0  0
  -11.8373   15.9370  -38.8982 C   0  0  0  0  0  0  0  0  0  0  0  0
   -9.7548   13.8588  -38.0262 C   0  0  0  0  0  0  0  0  0  0  0  0
  -10.7206   14.6149  -35.9523 C   0  0  0  0  0  0  0  0  0  0  0  0
   -8.9493   15.1546  -38.0916 C   0  0  0  0  0  0  0  0  0  0  0  0
   -9.8926   15.8933  -36.0649 C   0  0  0  0  0  0  0  0  0  0  0  0
  -12.0352   14.7051  -37.9971 C   0  0  0  0  0  0  0  0  0  0  0  0
  -13.3388   15.6003  -38.9273 C   0  0  0  0  0  0  0  0  0  0  0  0
  -10.9981   13.9929  -37.2545 N   0  0  0  0  0  0  0  0  0  0  0  0
  -14.3376   16.2844  -39.6406 N   0  0  0  0  0  0  0  0  0  0  0  0
   -8.6806   15.6393  -36.7757 O   0  0  0  0  0  0  0  0  0  0  0  0
  -14.0378   14.7693  -36.9411 H   0  0  0  0  0  0  0  0  0  0  0  0
  -13.1057   16.2890  -36.7834 H   0  0  0  0  0  0  0  0  0  0  0  0
  -12.4871   13.8146  -40.0287 H   0  0  0  0  0  0  0  0  0  0  0  0
  -13.6865   13.3675  -38.7778 H   0  0  0  0  0  0  0  0  0  0  0  0
  -11.5380   16.8736  -38.4171 H   0  0  0  0  0  0  0  0  0  0  0  0
  -11.2694   15.8005  -39.8241 H   0  0  0  0  0  0  0  0  0  0  0  0
   -9.9869   13.5304  -39.0602 H   0  0  0  0  0  0  0  0  0  0  0  0
   -9.1181   13.0609  -37.5861 H   0  0  0  0  0  0  0  0  0  0  0  0
  -10.1860   13.8962  -35.2937 H   0  0  0  0  0  0  0  0  0  0  0  0
  -11.6743   14.8520  -35.4371 H   0  0  0  0  0  0  0  0  0  0  0  0
   -7.9880   14.9708  -38.5815 H   0  0  0  0  0  0  0  0  0  0  0  0
   -9.4732   15.9277  -38.6666 H   0  0  0  0  0  0  0  0  0  0  0  0
  -10.4502   16.6939  -36.5659 H   0  0  0  0  0  0  0  0  0  0  0  0
   -9.6237   16.2511  -35.0661 H   0  0  0  0  0  0  0  0  0  0  0  0
  -15.2453   15.8636  -39.4940 H   0  0  0  0  0  0  0  0  0  0  0  0
  -14.3965   17.2512  -39.3504 H   0  0  0  0  0  0  0  0  0  0  0  0
  1  8  1  0  0  0  0
  1  9  1  0  0  0  0
  2  8  1  0  0  0  0
  2  9  1  0  0  0  0
  3  8  1  0  0  0  0
  3  9  1  0  0  0  0
  4  6  1  0  0  0  0
  4 10  1  0  0  0  0
  5  7  1  0  0  0  0
  5 10  1  0  0  0  0
  6 12  1  0  0  0  0
  7 12  1  0  0  0  0
  8 10  1  6  0  0  0
  9 11  1  6  0  0  0
  1 13  1  0  0  0  0
  1 14  1  0  0  0  0
  2 15  1  0  0  0  0
  2 16  1  0  0  0  0
  3 17  1  0  0  0  0
  3 18  1  0  0  0  0
  4 19  1  0  0  0  0
  4 20  1  0  0  0  0
  5 21  1  0  0  0  0
  5 22  1  0  0  0  0
  6 23  1  0  0  0  0
  6 24  1  0  0  0  0
  7 25  1  0  0  0  0
  7 26  1  0  0  0  0
 11 27  1  0  0  0  0
 11 28  1  0  0  0  0
M  END
> <id>
EN300-37374107

> <smiles>
Cl.N[C@]1(C[C@]2(C1)N3CCOCC3)C2

> <IUPAC Name>
3-(morpholin-4-yl)bicyclo[1.1.1]pentan-1-amine hydrochloride

> <CAS>
2108596-96-7

> <URL>
https://www.enaminestore.com/catalog/EN300-37374107

> <ROCS_ShapeQuery>
__x1247relevant_x1083L0AP1_x1305L0BP1_

> <ROCS_TanimotoCombo>
0.726 

> <ROCS_ShapeTanimoto>
0.466 

> <ROCS_ColorTanimoto>
0.261 

> <ROCS_RefTversky>
0.389 

> <ROCS_RefColorTversky>
0.293 

> <ROCS_RefTverskyCombo>
0.682 

> <ROCS_FitTversky>
1.723 

> <ROCS_FitColorTversky>
0.707 

> <ROCS_FitTverskyCombo>
2.430 

> <ROCS_ColorScore>
-9.594

> <ROCS_Overlap>
1144.201

> <ROCS_Rank>
242                 

$$$$
untitled-dbase-138960_10
  -OEChem-06232314393D

 28 30  0     0  0  0  0  0  0999 V2000
  -13.2729   15.4020  -37.4026 C   0  0  0  0  0  0  0  0  0  0  0  0
  -12.9517   14.1184  -39.0852 C   0  0  0  0  0  0  0  0  0  0  0  0
  -11.8373   15.9370  -38.8982 C   0  0  0  0  0  0  0  0  0  0  0  0
   -9.7548   13.8588  -38.0262 C   0  0  0  0  0  0  0  0  0  0  0  0
  -10.7206   14.6149  -35.9523 C   0  0  0  0  0  0  0  0  0  0  0  0
   -8.9493   15.1546  -38.0916 C   0  0  0  0  0  0  0  0  0  0  0  0
   -9.8926   15.8933  -36.0649 C   0  0  0  0  0  0  0  0  0  0  0  0
  -12.0352   14.7051  -37.9971 C   0  0  0  0  0  0  0  0  0  0  0  0
  -13.3388   15.6003  -38.9273 C   0  0  0  0  0  0  0  0  0  0  0  0
  -10.9981   13.9929  -37.2545 N   0  0  0  0  0  0  0  0  0  0  0  0
  -14.3376   16.2844  -39.6406 N   0  0  0  0  0  0  0  0  0  0  0  0
   -8.6806   15.6393  -36.7757 O   0  0  0  0  0  0  0  0  0  0  0  0
  -14.0378   14.7693  -36.9411 H   0  0  0  0  0  0  0  0  0  0  0  0
  -13.1057   16.2890  -36.7834 H   0  0  0  0  0  0  0  0  0  0  0  0
  -12.4871   13.8146  -40.0287 H   0  0  0  0  0  0  0  0  0  0  0  0
  -13.6865   13.3675  -38.7778 H   0  0  0  0  0  0  0  0  0  0  0  0
  -11.5380   16.8736  -38.4171 H   0  0  0  0  0  0  0  0  0  0  0  0
  -11.2694   15.8005  -39.8241 H   0  0  0  0  0  0  0  0  0  0  0  0
   -9.9869   13.5304  -39.0602 H   0  0  0  0  0  0  0  0  0  0  0  0
   -9.1181   13.0609  -37.5861 H   0  0  0  0  0  0  0  0  0  0  0  0
  -10.1860   13.8962  -35.2937 H   0  0  0  0  0  0  0  0  0  0  0  0
  -11.6743   14.8520  -35.4371 H   0  0  0  0  0  0  0  0  0  0  0  0
   -7.9880   14.9708  -38.5815 H   0  0  0  0  0  0  0  0  0  0  0  0
   -9.4732   15.9277  -38.6666 H   0  0  0  0  0  0  0  0  0  0  0  0
  -10.4502   16.6939  -36.5659 H   0  0  0  0  0  0  0  0  0  0  0  0
   -9.6237   16.2511  -35.0661 H   0  0  0  0  0  0  0  0  0  0  0  0
  -15.2453   15.8636  -39.4940 H   0  0  0  0  0  0  0  0  0  0  0  0
  -14.3965   17.2512  -39.3504 H   0  0  0  0  0  0  0  0  0  0  0  0
  1  8  1  0  0  0  0
  1  9  1  0  0  0  0
  2  8  1  0  0  0  0
  2  9  1  0  0  0  0
  3  8  1  0  0  0  0
  3  9  1  0  0  0  0
  4  6  1  0  0  0  0
  4 10  1  0  0  0  0
  5  7  1  0  0  0  0
  5 10  1  0  0  0  0
  6 12  1  0  0  0  0
  7 12  1  0  0  0  0
  8 10  1  6  0  0  0
  9 11  1  6  0  0  0
  1 13  1  0  0  0  0
  1 14  1  0  0  0  0
  2 15  1  0  0  0  0
  2 16  1  0  0  0  0
  3 17  1  0  0  0  0
  3 18  1  0  0  0  0
  4 19  1  0  0  0  0
  4 20  1  0  0  0  0
  5 21  1  0  0  0  0
  5 22  1  0  0  0  0
  6 23  1  0  0  0  0
  6 24  1  0  0  0  0
  7 25  1  0  0  0  0
  7 26  1  0  0  0  0
 11 27  1  0  0  0  0
 11 28  1  0  0  0  0
M  END
> <id>
EN300-28320811

> <smiles>
N[C@]1(C[C@]2(C1)N3CCOCC3)C2

> <IUPAC Name>
3-(morpholin-4-yl)bicyclo[1.1.1]pentan-1-amine

> <URL>
https://www.enaminestore.com/catalog/EN300-28320811

> <ROCS_ShapeQuery>
__x1247relevant_x1083L0AP1_x1305L0BP1_

> <ROCS_TanimotoCombo>
0.726 

> <ROCS_ShapeTanimoto>
0.466 

> <ROCS_ColorTanimoto>
0.261 

> <ROCS_RefTversky>
0.389 

> <ROCS_RefColorTversky>
0.293 

> <ROCS_RefTverskyCombo>
0.682 

> <ROCS_FitTversky>
1.723 

> <ROCS_FitColorTversky>
0.707 

> <ROCS_FitTverskyCombo>
2.430 

> <ROCS_ColorScore>
-9.594

> <ROCS_Overlap>
1144.201

> <ROCS_Rank>
243                 

$$$$
untitled-dbase-169793_10
  -OEChem-06232314393D

 28 30  0     0  0  0  0  0  0999 V2000
  -13.2729   15.4020  -37.4026 C   0  0  0  0  0  0  0  0  0  0  0  0
  -12.9517   14.1184  -39.0852 C   0  0  0  0  0  0  0  0  0  0  0  0
  -11.8373   15.9370  -38.8982 C   0  0  0  0  0  0  0  0  0  0  0  0
   -9.7548   13.8588  -38.0262 C   0  0  0  0  0  0  0  0  0  0  0  0
  -10.7206   14.6149  -35.9523 C   0  0  0  0  0  0  0  0  0  0  0  0
   -8.9493   15.1546  -38.0916 C   0  0  0  0  0  0  0  0  0  0  0  0
   -9.8926   15.8933  -36.0649 C   0  0  0  0  0  0  0  0  0  0  0  0
  -12.0352   14.7051  -37.9971 C   0  0  0  0  0  0  0  0  0  0  0  0
  -13.3388   15.6003  -38.9273 C   0  0  0  0  0  0  0  0  0  0  0  0
  -10.9981   13.9929  -37.2545 N   0  0  0  0  0  0  0  0  0  0  0  0
  -14.3376   16.2844  -39.6406 N   0  0  0  0  0  0  0  0  0  0  0  0
   -8.6806   15.6393  -36.7757 O   0  0  0  0  0  0  0  0  0  0  0  0
  -14.0378   14.7693  -36.9411 H   0  0  0  0  0  0  0  0  0  0  0  0
  -13.1057   16.2890  -36.7834 H   0  0  0  0  0  0  0  0  0  0  0  0
  -12.4871   13.8146  -40.0287 H   0  0  0  0  0  0  0  0  0  0  0  0
  -13.6865   13.3675  -38.7778 H   0  0  0  0  0  0  0  0  0  0  0  0
  -11.5380   16.8736  -38.4171 H   0  0  0  0  0  0  0  0  0  0  0  0
  -11.2694   15.8005  -39.8241 H   0  0  0  0  0  0  0  0  0  0  0  0
   -9.9869   13.5304  -39.0602 H   0  0  0  0  0  0  0  0  0  0  0  0
   -9.1181   13.0609  -37.5861 H   0  0  0  0  0  0  0  0  0  0  0  0
  -10.1860   13.8962  -35.2937 H   0  0  0  0  0  0  0  0  0  0  0  0
  -11.6743   14.8520  -35.4371 H   0  0  0  0  0  0  0  0  0  0  0  0
   -7.9880   14.9708  -38.5815 H   0  0  0  0  0  0  0  0  0  0  0  0
   -9.4732   15.9277  -38.6666 H   0  0  0  0  0  0  0  0  0  0  0  0
  -10.4502   16.6939  -36.5659 H   0  0  0  0  0  0  0  0  0  0  0  0
   -9.6237   16.2511  -35.0661 H   0  0  0  0  0  0  0  0  0  0  0  0
  -15.2453   15.8636  -39.4940 H   0  0  0  0  0  0  0  0  0  0  0  0
  -14.3965   17.2512  -39.3504 H   0  0  0  0  0  0  0  0  0  0  0  0
  1  8  1  0  0  0  0
  1  9  1  0  0  0  0
  2  8  1  0  0  0  0
  2  9  1  0  0  0  0
  3  8  1  0  0  0  0
  3  9  1  0  0  0  0
  4  6  1  0  0  0  0
  4 10  1  0  0  0  0
  5  7  1  0  0  0  0
  5 10  1  0  0  0  0
  6 12  1  0  0  0  0
  7 12  1  0  0  0  0
  8 10  1  6  0  0  0
  9 11  1  6  0  0  0
  1 13  1  0  0  0  0
  1 14  1  0  0  0  0
  2 15  1  0  0  0  0
  2 16  1  0  0  0  0
  3 17  1  0  0  0  0
  3 18  1  0  0  0  0
  4 19  1  0  0  0  0
  4 20  1  0  0  0  0
  5 21  1  0  0  0  0
  5 22  1  0  0  0  0
  6 23  1  0  0  0  0
  6 24  1  0  0  0  0
  7 25  1  0  0  0  0
  7 26  1  0  0  0  0
 11 27  1  0  0  0  0
 11 28  1  0  0  0  0
M  END
> <id>
EN300-37374071

> <smiles>
Cl.Cl.N[C@]1(C[C@]2(C1)N3CCOCC3)C2

> <IUPAC Name>
3-(morpholin-4-yl)bicyclo[1.1.1]pentan-1-amine dihydrochloride

> <CAS>
2514758-67-7

> <URL>
https://www.enaminestore.com/catalog/EN300-37374071

> <ROCS_ShapeQuery>
__x1247relevant_x1083L0AP1_x1305L0BP1_

> <ROCS_TanimotoCombo>
0.726 

> <ROCS_ShapeTanimoto>
0.466 

> <ROCS_ColorTanimoto>
0.261 

> <ROCS_RefTversky>
0.389 

> <ROCS_RefColorTversky>
0.293 

> <ROCS_RefTverskyCombo>
0.682 

> <ROCS_FitTversky>
1.723 

> <ROCS_FitColorTversky>
0.707 

> <ROCS_FitTverskyCombo>
2.430 

> <ROCS_ColorScore>
-9.594

> <ROCS_Overlap>
1144.201

> <ROCS_Rank>
244                 

$$$$
untitled-dbase-156038_11
  -OEChem-06232314393D

 28 30  0     0  0  0  0  0  0999 V2000
  -13.2729   15.4020  -37.4028 C   0  0  0  0  0  0  0  0  0  0  0  0
  -12.9520   14.1182  -39.0852 C   0  0  0  0  0  0  0  0  0  0  0  0
  -11.8373   15.9371  -38.8976 C   0  0  0  0  0  0  0  0  0  0  0  0
   -9.7551   13.8584  -38.0255 C   0  0  0  0  0  0  0  0  0  0  0  0
  -10.7208   14.6157  -35.9521 C   0  0  0  0  0  0  0  0  0  0  0  0
   -8.9494   15.1542  -38.0916 C   0  0  0  0  0  0  0  0  0  0  0  0
   -9.8927   15.8939  -36.0653 C   0  0  0  0  0  0  0  0  0  0  0  0
  -12.0354   14.7049  -37.9969 C   0  0  0  0  0  0  0  0  0  0  0  0
  -13.3386   15.5996  -38.9281 C   0  0  0  0  0  0  0  0  0  0  0  0
  -10.9984   13.9931  -37.2539 N   0  0  0  0  0  0  0  0  0  0  0  0
  -14.3373   16.2852  -39.6401 N   0  0  0  0  0  0  0  0  0  0  0  0
   -8.6807   15.6395  -36.7760 O   0  0  0  0  0  0  0  0  0  0  0  0
  -14.0375   14.7695  -36.9407 H   0  0  0  0  0  0  0  0  0  0  0  0
  -13.1055   16.2893  -36.7839 H   0  0  0  0  0  0  0  0  0  0  0  0
  -12.4877   13.8144  -40.0287 H   0  0  0  0  0  0  0  0  0  0  0  0
  -13.6870   13.3676  -38.7775 H   0  0  0  0  0  0  0  0  0  0  0  0
  -11.5386   16.8738  -38.4162 H   0  0  0  0  0  0  0  0  0  0  0  0
  -11.2691   15.8012  -39.8235 H   0  0  0  0  0  0  0  0  0  0  0  0
   -9.9871   13.5296  -39.0594 H   0  0  0  0  0  0  0  0  0  0  0  0
   -9.1184   13.0608  -37.5851 H   0  0  0  0  0  0  0  0  0  0  0  0
  -10.1862   13.8972  -35.2931 H   0  0  0  0  0  0  0  0  0  0  0  0
  -11.6744   14.8531  -35.4369 H   0  0  0  0  0  0  0  0  0  0  0  0
   -7.9882   14.9701  -38.5814 H   0  0  0  0  0  0  0  0  0  0  0  0
   -9.4733   15.9270  -38.6670 H   0  0  0  0  0  0  0  0  0  0  0  0
  -10.4503   16.6944  -36.5667 H   0  0  0  0  0  0  0  0  0  0  0  0
   -9.6238   16.2522  -35.0667 H   0  0  0  0  0  0  0  0  0  0  0  0
  -15.2454   15.8657  -39.4924 H   0  0  0  0  0  0  0  0  0  0  0  0
  -14.3945   17.2521  -39.3498 H   0  0  0  0  0  0  0  0  0  0  0  0
  1  8  1  0  0  0  0
  1  9  1  0  0  0  0
  2  8  1  0  0  0  0
  2  9  1  0  0  0  0
  3  8  1  0  0  0  0
  3  9  1  0  0  0  0
  4  6  1  0  0  0  0
  4 10  1  0  0  0  0
  5  7  1  0  0  0  0
  5 10  1  0  0  0  0
  6 12  1  0  0  0  0
  7 12  1  0  0  0  0
  8 10  1  0  0  0  0
  9 11  1  0  0  0  0
  1 13  1  0  0  0  0
  1 14  1  0  0  0  0
  2 15  1  0  0  0  0
  2 16  1  0  0  0  0
  3 17  1  0  0  0  0
  3 18  1  0  0  0  0
  4 19  1  0  0  0  0
  4 20  1  0  0  0  0
  5 21  1  0  0  0  0
  5 22  1  0  0  0  0
  6 23  1  0  0  0  0
  6 24  1  0  0  0  0
  7 25  1  0  0  0  0
  7 26  1  0  0  0  0
 11 27  1  0  0  0  0
 11 28  1  0  0  0  0
M  END
> <id>
EN300-2484423

> <smiles>
NC1(CC2(C1)N3CCOCC3)C2

> <MDLNUMBER>
MFCD29037309

> <IUPAC Name>
3-(morpholin-4-yl)bicyclo[1.1.1]pentan-1-amine

> <CAS>
1936694-19-7

> <URL>
https://www.enaminestore.com/catalog/EN300-2484423

> <ROCS_ShapeQuery>
__x1247relevant_x1083L0AP1_x1305L0BP1_

> <ROCS_TanimotoCombo>
0.726 

> <ROCS_ShapeTanimoto>
0.466 

> <ROCS_ColorTanimoto>
0.261 

> <ROCS_RefTversky>
0.389 

> <ROCS_RefColorTversky>
0.293 

> <ROCS_RefTverskyCombo>
0.682 

> <ROCS_FitTversky>
1.723 

> <ROCS_FitColorTversky>
0.707 

> <ROCS_FitTverskyCombo>
2.430 

> <ROCS_ColorScore>
-9.593

> <ROCS_Overlap>
1144.203

> <ROCS_Rank>
245                 

$$$$
untitled-dbase-151418_11
  -OEChem-06232314393D

 28 30  0     0  0  0  0  0  0999 V2000
  -13.2729   15.4020  -37.4028 C   0  0  0  0  0  0  0  0  0  0  0  0
  -12.9520   14.1182  -39.0852 C   0  0  0  0  0  0  0  0  0  0  0  0
  -11.8373   15.9371  -38.8976 C   0  0  0  0  0  0  0  0  0  0  0  0
   -9.7551   13.8584  -38.0255 C   0  0  0  0  0  0  0  0  0  0  0  0
  -10.7208   14.6157  -35.9521 C   0  0  0  0  0  0  0  0  0  0  0  0
   -8.9494   15.1542  -38.0916 C   0  0  0  0  0  0  0  0  0  0  0  0
   -9.8927   15.8939  -36.0653 C   0  0  0  0  0  0  0  0  0  0  0  0
  -12.0354   14.7049  -37.9969 C   0  0  0  0  0  0  0  0  0  0  0  0
  -13.3386   15.5996  -38.9281 C   0  0  0  0  0  0  0  0  0  0  0  0
  -10.9984   13.9931  -37.2539 N   0  0  0  0  0  0  0  0  0  0  0  0
  -14.3373   16.2852  -39.6401 N   0  0  0  0  0  0  0  0  0  0  0  0
   -8.6807   15.6395  -36.7760 O   0  0  0  0  0  0  0  0  0  0  0  0
  -14.0375   14.7695  -36.9407 H   0  0  0  0  0  0  0  0  0  0  0  0
  -13.1055   16.2893  -36.7839 H   0  0  0  0  0  0  0  0  0  0  0  0
  -12.4877   13.8144  -40.0287 H   0  0  0  0  0  0  0  0  0  0  0  0
  -13.6870   13.3676  -38.7775 H   0  0  0  0  0  0  0  0  0  0  0  0
  -11.5386   16.8738  -38.4162 H   0  0  0  0  0  0  0  0  0  0  0  0
  -11.2691   15.8012  -39.8235 H   0  0  0  0  0  0  0  0  0  0  0  0
   -9.9871   13.5296  -39.0594 H   0  0  0  0  0  0  0  0  0  0  0  0
   -9.1184   13.0608  -37.5851 H   0  0  0  0  0  0  0  0  0  0  0  0
  -10.1862   13.8972  -35.2931 H   0  0  0  0  0  0  0  0  0  0  0  0
  -11.6744   14.8531  -35.4369 H   0  0  0  0  0  0  0  0  0  0  0  0
   -7.9882   14.9701  -38.5814 H   0  0  0  0  0  0  0  0  0  0  0  0
   -9.4733   15.9270  -38.6670 H   0  0  0  0  0  0  0  0  0  0  0  0
  -10.4503   16.6944  -36.5667 H   0  0  0  0  0  0  0  0  0  0  0  0
   -9.6238   16.2522  -35.0667 H   0  0  0  0  0  0  0  0  0  0  0  0
  -15.2454   15.8657  -39.4924 H   0  0  0  0  0  0  0  0  0  0  0  0
  -14.3945   17.2521  -39.3498 H   0  0  0  0  0  0  0  0  0  0  0  0
  1  8  1  0  0  0  0
  1  9  1  0  0  0  0
  2  8  1  0  0  0  0
  2  9  1  0  0  0  0
  3  8  1  0  0  0  0
  3  9  1  0  0  0  0
  4  6  1  0  0  0  0
  4 10  1  0  0  0  0
  5  7  1  0  0  0  0
  5 10  1  0  0  0  0
  6 12  1  0  0  0  0
  7 12  1  0  0  0  0
  8 10  1  0  0  0  0
  9 11  1  0  0  0  0
  1 13  1  0  0  0  0
  1 14  1  0  0  0  0
  2 15  1  0  0  0  0
  2 16  1  0  0  0  0
  3 17  1  0  0  0  0
  3 18  1  0  0  0  0
  4 19  1  0  0  0  0
  4 20  1  0  0  0  0
  5 21  1  0  0  0  0
  5 22  1  0  0  0  0
  6 23  1  0  0  0  0
  6 24  1  0  0  0  0
  7 25  1  0  0  0  0
  7 26  1  0  0  0  0
 11 27  1  0  0  0  0
 11 28  1  0  0  0  0
M  END
> <id>
EN300-28263192

> <smiles>
Cl.NC1(CC2(C1)N3CCOCC3)C2

> <MDLNUMBER>
MFCD34183423

> <IUPAC Name>
3-(morpholin-4-yl)bicyclo[1.1.1]pentan-1-amine hydrochloride

> <CAS>
2108596-96-7

> <Purity>
95

> <URL>
https://www.enaminestore.com/catalog/EN300-28263192

> <ROCS_ShapeQuery>
__x1247relevant_x1083L0AP1_x1305L0BP1_

> <ROCS_TanimotoCombo>
0.726 

> <ROCS_ShapeTanimoto>
0.466 

> <ROCS_ColorTanimoto>
0.261 

> <ROCS_RefTversky>
0.389 

> <ROCS_RefColorTversky>
0.293 

> <ROCS_RefTverskyCombo>
0.682 

> <ROCS_FitTversky>
1.723 

> <ROCS_FitColorTversky>
0.707 

> <ROCS_FitTverskyCombo>
2.430 

> <ROCS_ColorScore>
-9.593

> <ROCS_Overlap>
1144.203

> <ROCS_Rank>
246                 

$$$$
untitled-dbase-158690_11
  -OEChem-06232314393D

 28 30  0     0  0  0  0  0  0999 V2000
  -13.2729   15.4020  -37.4028 C   0  0  0  0  0  0  0  0  0  0  0  0
  -12.9520   14.1182  -39.0852 C   0  0  0  0  0  0  0  0  0  0  0  0
  -11.8373   15.9371  -38.8976 C   0  0  0  0  0  0  0  0  0  0  0  0
   -9.7551   13.8584  -38.0255 C   0  0  0  0  0  0  0  0  0  0  0  0
  -10.7208   14.6157  -35.9521 C   0  0  0  0  0  0  0  0  0  0  0  0
   -8.9494   15.1542  -38.0916 C   0  0  0  0  0  0  0  0  0  0  0  0
   -9.8927   15.8939  -36.0653 C   0  0  0  0  0  0  0  0  0  0  0  0
  -12.0354   14.7049  -37.9969 C   0  0  0  0  0  0  0  0  0  0  0  0
  -13.3386   15.5996  -38.9281 C   0  0  0  0  0  0  0  0  0  0  0  0
  -10.9984   13.9931  -37.2539 N   0  0  0  0  0  0  0  0  0  0  0  0
  -14.3373   16.2852  -39.6401 N   0  0  0  0  0  0  0  0  0  0  0  0
   -8.6807   15.6395  -36.7760 O   0  0  0  0  0  0  0  0  0  0  0  0
  -14.0375   14.7695  -36.9407 H   0  0  0  0  0  0  0  0  0  0  0  0
  -13.1055   16.2893  -36.7839 H   0  0  0  0  0  0  0  0  0  0  0  0
  -12.4877   13.8144  -40.0287 H   0  0  0  0  0  0  0  0  0  0  0  0
  -13.6870   13.3676  -38.7775 H   0  0  0  0  0  0  0  0  0  0  0  0
  -11.5386   16.8738  -38.4162 H   0  0  0  0  0  0  0  0  0  0  0  0
  -11.2691   15.8012  -39.8235 H   0  0  0  0  0  0  0  0  0  0  0  0
   -9.9871   13.5296  -39.0594 H   0  0  0  0  0  0  0  0  0  0  0  0
   -9.1184   13.0608  -37.5851 H   0  0  0  0  0  0  0  0  0  0  0  0
  -10.1862   13.8972  -35.2931 H   0  0  0  0  0  0  0  0  0  0  0  0
  -11.6744   14.8531  -35.4369 H   0  0  0  0  0  0  0  0  0  0  0  0
   -7.9882   14.9701  -38.5814 H   0  0  0  0  0  0  0  0  0  0  0  0
   -9.4733   15.9270  -38.6670 H   0  0  0  0  0  0  0  0  0  0  0  0
  -10.4503   16.6944  -36.5667 H   0  0  0  0  0  0  0  0  0  0  0  0
   -9.6238   16.2522  -35.0667 H   0  0  0  0  0  0  0  0  0  0  0  0
  -15.2454   15.8657  -39.4924 H   0  0  0  0  0  0  0  0  0  0  0  0
  -14.3945   17.2521  -39.3498 H   0  0  0  0  0  0  0  0  0  0  0  0
  1  8  1  0  0  0  0
  1  9  1  0  0  0  0
  2  8  1  0  0  0  0
  2  9  1  0  0  0  0
  3  8  1  0  0  0  0
  3  9  1  0  0  0  0
  4  6  1  0  0  0  0
  4 10  1  0  0  0  0
  5  7  1  0  0  0  0
  5 10  1  0  0  0  0
  6 12  1  0  0  0  0
  7 12  1  0  0  0  0
  8 10  1  0  0  0  0
  9 11  1  0  0  0  0
  1 13  1  0  0  0  0
  1 14  1  0  0  0  0
  2 15  1  0  0  0  0
  2 16  1  0  0  0  0
  3 17  1  0  0  0  0
  3 18  1  0  0  0  0
  4 19  1  0  0  0  0
  4 20  1  0  0  0  0
  5 21  1  0  0  0  0
  5 22  1  0  0  0  0
  6 23  1  0  0  0  0
  6 24  1  0  0  0  0
  7 25  1  0  0  0  0
  7 26  1  0  0  0  0
 11 27  1  0  0  0  0
 11 28  1  0  0  0  0
M  END
> <id>
EN300-21838496

> <smiles>
Cl.Cl.NC1(CC2(C1)N3CCOCC3)C2

> <MDLNUMBER>
MFCD29060072

> <IUPAC Name>
3-(morpholin-4-yl)bicyclo[1.1.1]pentan-1-amine dihydrochloride

> <CAS>
2514758-67-7

> <Purity>
95

> <URL>
https://www.enaminestore.com/catalog/EN300-21838496

> <ROCS_ShapeQuery>
__x1247relevant_x1083L0AP1_x1305L0BP1_

> <ROCS_TanimotoCombo>
0.726 

> <ROCS_ShapeTanimoto>
0.466 

> <ROCS_ColorTanimoto>
0.261 

> <ROCS_RefTversky>
0.389 

> <ROCS_RefColorTversky>
0.293 

> <ROCS_RefTverskyCombo>
0.682 

> <ROCS_FitTversky>
1.723 

> <ROCS_FitColorTversky>
0.707 

> <ROCS_FitTverskyCombo>
2.430 

> <ROCS_ColorScore>
-9.593

> <ROCS_Overlap>
1144.203

> <ROCS_Rank>
247                 

$$$$
untitled-dbase-177722_15
  -OEChem-06232314393D

 28 29  0     1  0  0  0  0  0999 V2000
   -9.8157   15.5252  -36.5911 C   0  0  0  0  0  0  0  0  0  0  0  0
  -13.2455   16.4112  -39.3488 C   0  0  0  0  0  0  0  0  0  0  0  0
  -14.0363   16.1655  -38.0752 C   0  0  0  0  0  0  0  0  0  0  0  0
  -10.9765   15.3972  -38.7981 C   0  0  0  0  0  0  0  0  0  0  0  0
  -12.2657   15.0476  -36.6305 C   0  0  0  0  0  0  0  0  0  0  0  0
  -12.3451   15.1852  -39.4714 C   0  0  1  0  0  0  0  0  0  0  0  0
  -13.4859   14.8452  -37.5491 C   0  0  2  0  0  0  0  0  0  0  0  0
  -10.9203   14.8521  -37.3568 C   0  0  0  0  0  0  0  0  0  0  0  0
   -9.1775   16.2046  -34.4197 C   0  0  0  0  0  0  0  0  0  0  0  0
  -10.5833   13.4238  -37.3856 N   0  0  0  0  0  0  0  0  0  0  0  0
   -8.7862   15.9462  -37.1011 O   0  0  0  0  0  0  0  0  0  0  0  0
  -13.0655   14.1717  -38.7484 O   0  0  0  0  0  0  0  0  0  0  0  0
  -10.1473   15.5843  -35.2699 O   0  0  0  0  0  0  0  0  0  0  0  0
  -13.9398   16.4446  -40.1974 H   0  0  0  0  0  0  0  0  0  0  0  0
  -12.6934   17.3554  -39.3514 H   0  0  0  0  0  0  0  0  0  0  0  0
  -13.9717   16.9823  -37.3515 H   0  0  0  0  0  0  0  0  0  0  0  0
  -15.0961   16.0478  -38.3313 H   0  0  0  0  0  0  0  0  0  0  0  0
  -10.2376   14.8580  -39.4080 H   0  0  0  0  0  0  0  0  0  0  0  0
  -10.7059   16.4599  -38.8377 H   0  0  0  0  0  0  0  0  0  0  0  0
  -12.3255   16.0325  -36.1497 H   0  0  0  0  0  0  0  0  0  0  0  0
  -12.3481   14.2982  -35.8296 H   0  0  0  0  0  0  0  0  0  0  0  0
  -12.2153   14.8858  -40.5109 H   0  0  0  0  0  0  0  0  0  0  0  0
  -14.2544   14.2648  -37.0408 H   0  0  0  0  0  0  0  0  0  0  0  0
   -9.5395   16.1999  -33.3887 H   0  0  0  0  0  0  0  0  0  0  0  0
   -9.0043   17.2314  -34.7516 H   0  0  0  0  0  0  0  0  0  0  0  0
   -8.2425   15.6425  -34.4777 H   0  0  0  0  0  0  0  0  0  0  0  0
  -11.3189   12.9281  -36.9444 H   0  0  0  0  0  0  0  0  0  0  0  0
  -10.4908   13.1521  -38.3338 H   0  0  0  0  0  0  0  0  0  0  0  0
  1  8  1  0  0  0  0
  1 11  2  0  0  0  0
  1 13  1  0  0  0  0
  2  3  1  0  0  0  0
  2  6  1  0  0  0  0
  3  7  1  0  0  0  0
  4  6  1  0  0  0  0
  4  8  1  0  0  0  0
  5  7  1  0  0  0  0
  5  8  1  0  0  0  0
  6 12  1  0  0  0  0
  7 12  1  0  0  0  0
  8 10  1  0  0  0  0
  9 13  1  0  0  0  0
  2 14  1  0  0  0  0
  2 15  1  0  0  0  0
  3 16  1  0  0  0  0
  3 17  1  0  0  0  0
  4 18  1  0  0  0  0
  4 19  1  0  0  0  0
  5 20  1  0  0  0  0
  5 21  1  0  0  0  0
  6 22  1  0  0  0  0
  7 23  1  0  0  0  0
  9 24  1  0  0  0  0
  9 25  1  0  0  0  0
  9 26  1  0  0  0  0
 10 27  1  0  0  0  0
 10 28  1  0  0  0  0
M  END
> <id>
EN300-22811974

> <smiles>
COC(=O)C1(N)CC2CCC(C1)O2

> <MDLNUMBER>
MFCD31654896

> <IUPAC Name>
methyl 3-amino-8-oxabicyclo[3.2.1]octane-3-carboxylate

> <URL>
https://www.enaminestore.com/catalog/EN300-22811974

> <ROCS_ShapeQuery>
__x1247relevant_x1083L0AP1_x1305L0BP1_

> <ROCS_TanimotoCombo>
0.726 

> <ROCS_ShapeTanimoto>
0.456 

> <ROCS_ColorTanimoto>
0.271 

> <ROCS_RefTversky>
0.388 

> <ROCS_RefColorTversky>
0.285 

> <ROCS_RefTverskyCombo>
0.673 

> <ROCS_FitTversky>
1.619 

> <ROCS_FitColorTversky>
0.845 

> <ROCS_FitTverskyCombo>
2.464 

> <ROCS_ColorScore>
-9.300

> <ROCS_Overlap>
1140.755

> <ROCS_Rank>
248                 

$$$$
untitled-dbase-91379_5
  -OEChem-06232314393D

 31 33  0     1  0  0  0  0  0999 V2000
   -9.9961   15.2614  -36.6528 C   0  0  0  0  0  0  0  0  0  0  0  0
  -12.3886   15.9206  -36.5825 C   0  0  0  0  0  0  0  0  0  0  0  0
  -13.5241   16.7331  -38.6649 C   0  0  0  0  0  0  0  0  0  0  0  0
  -14.1138   14.4928  -37.7091 C   0  0  0  0  0  0  0  0  0  0  0  0
  -11.1068   16.0639  -38.7374 C   0  0  0  0  0  0  0  0  0  0  0  0
  -11.6962   13.8225  -37.7754 C   0  0  0  0  0  0  0  0  0  0  0  0
  -12.8343   14.6357  -39.8607 C   0  0  0  0  0  0  0  0  0  0  0  0
  -13.7150   15.9373  -37.3633 C   0  0  0  0  0  0  0  0  0  0  0  0
  -11.2801   15.2651  -37.4313 C   0  0  0  0  0  0  0  0  0  0  0  0
  -12.4279   16.0806  -39.5264 C   0  0  1  0  0  0  0  0  0  0  0  0
  -13.0188   13.8305  -38.5637 C   0  0  2  0  0  0  0  0  0  0  0  0
   -8.9613   15.8088  -37.0033 O   0  0  0  0  0  0  0  0  0  0  0  0
  -10.1370   14.5619  -35.5004 O   0  0  0  0  0  0  0  0  0  0  0  0
  -12.2707   16.8302  -40.7223 O   0  0  0  0  0  0  0  0  0  0  0  0
  -13.4104   12.5001  -38.8694 O   0  0  0  0  0  0  0  0  0  0  0  0
  -12.1038   16.9452  -36.3088 H   0  0  0  0  0  0  0  0  0  0  0  0
  -12.5184   15.3760  -35.6379 H   0  0  0  0  0  0  0  0  0  0  0  0
  -14.4662   16.7803  -39.2263 H   0  0  0  0  0  0  0  0  0  0  0  0
  -13.2592   17.7749  -38.4421 H   0  0  0  0  0  0  0  0  0  0  0  0
  -14.2796   13.9119  -36.7925 H   0  0  0  0  0  0  0  0  0  0  0  0
  -15.0712   14.4785  -38.2459 H   0  0  0  0  0  0  0  0  0  0  0  0
  -10.7831   17.0928  -38.5277 H   0  0  0  0  0  0  0  0  0  0  0  0
  -10.3038   15.6339  -39.3518 H   0  0  0  0  0  0  0  0  0  0  0  0
  -10.9115   13.3199  -38.3574 H   0  0  0  0  0  0  0  0  0  0  0  0
  -11.8064   13.2174  -36.8649 H   0  0  0  0  0  0  0  0  0  0  0  0
  -13.7556   14.6221  -40.4587 H   0  0  0  0  0  0  0  0  0  0  0  0
  -12.0823   14.1619  -40.5061 H   0  0  0  0  0  0  0  0  0  0  0  0
  -14.4979   16.4031  -36.7548 H   0  0  0  0  0  0  0  0  0  0  0  0
   -9.3071   14.5461  -34.9775 H   0  0  0  0  0  0  0  0  0  0  0  0
  -13.1275   16.8139  -41.1792 H   0  0  0  0  0  0  0  0  0  0  0  0
  -13.5179   12.0369  -38.0226 H   0  0  0  0  0  0  0  0  0  0  0  0
  1  9  1  0  0  0  0
  1 12  2  0  0  0  0
  1 13  1  0  0  0  0
  2  8  1  0  0  0  0
  2  9  1  0  0  0  0
  3  8  1  0  0  0  0
  3 10  1  0  0  0  0
  4  8  1  0  0  0  0
  4 11  1  0  0  0  0
  5  9  1  0  0  0  0
  5 10  1  0  0  0  0
  6  9  1  0  0  0  0
  6 11  1  0  0  0  0
  7 10  1  0  0  0  0
  7 11  1  0  0  0  0
 10 14  1  0  0  0  0
 11 15  1  0  0  0  0
  2 16  1  0  0  0  0
  2 17  1  0  0  0  0
  3 18  1  0  0  0  0
  3 19  1  0  0  0  0
  4 20  1  0  0  0  0
  4 21  1  0  0  0  0
  5 22  1  0  0  0  0
  5 23  1  0  0  0  0
  6 24  1  0  0  0  0
  6 25  1  0  0  0  0
  7 26  1  0  0  0  0
  7 27  1  0  0  0  0
  8 28  1  0  0  0  0
 13 29  1  0  0  0  0
 14 30  1  0  0  0  0
 15 31  1  0  0  0  0
M  END
> <id>
EN300-7356284

> <smiles>
OC(=O)C1(CC2CC3(O)CC(O)(C2)C1)C3

> <IUPAC Name>
3,5-dihydroxyadamantane-1-carboxylic acid

> <CAS>
83406-09-1

> <Purity>
95

> <URL>
https://www.enaminestore.com/catalog/EN300-7356284

> <ROCS_ShapeQuery>
__x1247relevant_x1083L0AP1_x1305L0BP1_

> <ROCS_TanimotoCombo>
0.726 

> <ROCS_ShapeTanimoto>
0.507 

> <ROCS_ColorTanimoto>
0.220 

> <ROCS_RefTversky>
0.428 

> <ROCS_RefColorTversky>
0.260 

> <ROCS_RefTverskyCombo>
0.688 

> <ROCS_FitTversky>
1.567 

> <ROCS_FitColorTversky>
0.588 

> <ROCS_FitTverskyCombo>
2.155 

> <ROCS_ColorScore>
-8.525

> <ROCS_Overlap>
1260.975

> <ROCS_Rank>
249                 

$$$$
untitled-dbase-28909_11
  -OEChem-06232314393D

 25 26  0     1  0  0  0  0  0999 V2000
  -14.4323   15.7478  -38.3625 C   0  0  0  0  0  0  0  0  0  0  0  0
  -13.9226   15.2824  -37.0102 C   0  0  0  0  0  0  0  0  0  0  0  0
  -12.2961   16.2196  -39.6600 C   0  0  0  0  0  0  0  0  0  0  0  0
  -11.0642   16.0168  -38.7770 C   0  0  0  0  0  0  0  0  0  0  0  0
  -13.4085   15.2065  -39.3555 C   0  0  1  0  0  0  0  0  0  0  0  0
  -12.6064   14.5824  -37.3297 C   0  0  2  0  0  0  0  0  0  0  0  0
  -11.4181   15.5645  -37.3563 C   0  0  1  0  0  0  0  0  0  0  0  0
  -10.0681   13.2777  -37.3059 N   0  0  0  0  0  0  0  0  0  0  0  0
   -8.8181   15.5159  -37.0945 O   0  0  0  0  0  0  0  0  0  0  0  0
  -10.2541   14.7103  -35.1775 O   0  0  0  0  0  0  0  0  0  0  0  0
  -12.8247   14.0863  -38.6655 O   0  0  0  0  0  0  0  0  0  0  0  0
   -9.9889   14.8235  -36.5969 S   0  0  0  0  0  0  0  0  0  0  0  0
  -15.4133   15.2950  -38.5536 H   0  0  0  0  0  0  0  0  0  0  0  0
  -14.5595   16.8335  -38.4277 H   0  0  0  0  0  0  0  0  0  0  0  0
  -13.8133   16.0955  -36.2852 H   0  0  0  0  0  0  0  0  0  0  0  0
  -14.6333   14.5620  -36.5872 H   0  0  0  0  0  0  0  0  0  0  0  0
  -12.6710   17.2454  -39.5495 H   0  0  0  0  0  0  0  0  0  0  0  0
  -11.9927   16.0978  -40.7095 H   0  0  0  0  0  0  0  0  0  0  0  0
  -10.3671   15.3188  -39.2607 H   0  0  0  0  0  0  0  0  0  0  0  0
  -10.5276   16.9747  -38.7116 H   0  0  0  0  0  0  0  0  0  0  0  0
  -13.8803   14.8664  -40.2834 H   0  0  0  0  0  0  0  0  0  0  0  0
  -12.4152   13.7437  -36.6558 H   0  0  0  0  0  0  0  0  0  0  0  0
  -11.6358   16.4392  -36.7394 H   0  0  0  0  0  0  0  0  0  0  0  0
   -9.3632   13.0367  -38.0134 H   0  0  0  0  0  0  0  0  0  0  0  0
  -10.3413   12.4881  -36.7079 H   0  0  0  0  0  0  0  0  0  0  0  0
  1  2  1  0  0  0  0
  1  5  1  0  0  0  0
  2  6  1  0  0  0  0
  3  4  1  0  0  0  0
  3  5  1  0  0  0  0
  4  7  1  0  0  0  0
  5 11  1  0  0  0  0
  6  7  1  0  0  0  0
  6 11  1  0  0  0  0
  7 12  1  0  0  0  0
  8 12  1  0  0  0  0
  9 12  2  0  0  0  0
 10 12  2  0  0  0  0
  1 13  1  0  0  0  0
  1 14  1  0  0  0  0
  2 15  1  0  0  0  0
  2 16  1  0  0  0  0
  3 17  1  0  0  0  0
  3 18  1  0  0  0  0
  4 19  1  0  0  0  0
  4 20  1  0  0  0  0
  5 21  1  0  0  0  0
  6 22  1  0  0  0  0
  7 23  1  0  0  0  0
  8 24  1  0  0  0  0
  8 25  1  0  0  0  0
M  END
> <id>
EN300-679912

> <smiles>
NS(=O)(=O)C1CCC2CCC1O2

> <MDLNUMBER>
MFCD31425581

> <IUPAC Name>
8-oxabicyclo[3.2.1]octane-2-sulfonamide

> <CAS>
1935968-48-1

> <URL>
https://www.enaminestore.com/catalog/EN300-679912

> <ROCS_ShapeQuery>
__x1247relevant_x1083L0AP1_x1305L0BP1_

> <ROCS_TanimotoCombo>
0.726 

> <ROCS_ShapeTanimoto>
0.469 

> <ROCS_ColorTanimoto>
0.257 

> <ROCS_RefTversky>
0.389 

> <ROCS_RefColorTversky>
0.273 

> <ROCS_RefTverskyCombo>
0.662 

> <ROCS_FitTversky>
1.792 

> <ROCS_FitColorTversky>
0.809 

> <ROCS_FitTverskyCombo>
2.601 

> <ROCS_ColorScore>
-8.928

> <ROCS_Overlap>
1141.308

> <ROCS_Rank>
250                 

$$$$
untitled-dbase-148273_202
  -OEChem-06232314393D

 36 37  0     1  0  0  0  0  0999 V2000
  -13.2256   16.6198  -40.1525 C   0  0  0  0  0  0  0  0  0  0  0  0
  -10.2596   14.7847  -36.5907 C   0  0  0  0  0  0  0  0  0  0  0  0
  -13.7274   14.1904  -38.5576 C   0  0  0  0  0  0  0  0  0  0  0  0
  -12.3264   13.9981  -39.1755 C   0  0  0  0  0  0  0  0  0  0  0  0
  -12.6933   15.3955  -36.6247 C   0  0  0  0  0  0  0  0  0  0  0  0
  -12.6787   16.3417  -38.7874 C   0  0  1  0  0  0  0  0  0  0  0  0
  -13.6128   15.5623  -37.8510 C   0  0  1  0  0  0  0  0  0  0  0  0
  -11.5854   15.2716  -38.7251 C   0  0  1  0  0  0  0  0  0  0  0  0
   -9.6716   12.2976  -37.8690 C   0  0  0  0  0  0  0  0  0  0  0  0
   -7.4571   13.3313  -38.4497 C   0  0  0  0  0  0  0  0  0  0  0  0
   -8.0892   12.9989  -36.0417 C   0  0  0  0  0  0  0  0  0  0  0  0
   -8.6074   13.3090  -37.4454 C   0  0  0  0  0  0  0  0  0  0  0  0
  -11.4044   15.1483  -37.2682 N   0  0  0  0  0  0  0  0  0  0  0  0
  -12.5960   17.1209  -41.0722 O   0  0  0  0  0  0  0  0  0  0  0  0
  -10.1998   14.6294  -35.3733 O   0  0  0  0  0  0  0  0  0  0  0  0
  -14.5246   16.2413  -40.2339 O   0  0  0  0  0  0  0  0  0  0  0  0
   -9.1970   14.6137  -37.4358 O   0  0  0  0  0  0  0  0  0  0  0  0
  -14.4898   14.2121  -39.3440 H   0  0  0  0  0  0  0  0  0  0  0  0
  -13.9801   13.3844  -37.8610 H   0  0  0  0  0  0  0  0  0  0  0  0
  -11.8423   13.0825  -38.8198 H   0  0  0  0  0  0  0  0  0  0  0  0
  -12.3939   13.9412  -40.2675 H   0  0  0  0  0  0  0  0  0  0  0  0
  -12.6134   16.3133  -36.0327 H   0  0  0  0  0  0  0  0  0  0  0  0
  -12.9625   14.5594  -35.9725 H   0  0  0  0  0  0  0  0  0  0  0  0
  -12.3535   17.2978  -38.3595 H   0  0  0  0  0  0  0  0  0  0  0  0
  -14.5753   16.0285  -37.6320 H   0  0  0  0  0  0  0  0  0  0  0  0
  -10.6602   15.4729  -39.2682 H   0  0  0  0  0  0  0  0  0  0  0  0
  -10.4990   12.2786  -37.1507 H   0  0  0  0  0  0  0  0  0  0  0  0
  -10.0764   12.5291  -38.8597 H   0  0  0  0  0  0  0  0  0  0  0  0
   -9.2590   11.2825  -37.8923 H   0  0  0  0  0  0  0  0  0  0  0  0
   -6.6913   14.0556  -38.1496 H   0  0  0  0  0  0  0  0  0  0  0  0
   -7.8088   13.6459  -39.4389 H   0  0  0  0  0  0  0  0  0  0  0  0
   -6.9856   12.3479  -38.5458 H   0  0  0  0  0  0  0  0  0  0  0  0
   -7.3259   13.7242  -35.7376 H   0  0  0  0  0  0  0  0  0  0  0  0
   -8.8957   13.0151  -35.3014 H   0  0  0  0  0  0  0  0  0  0  0  0
   -7.6091   12.0141  -36.0123 H   0  0  0  0  0  0  0  0  0  0  0  0
  -14.9025   16.4174  -41.1219 H   0  0  0  0  0  0  0  0  0  0  0  0
  1  6  1  6  0  0  0
  1 14  2  0  0  0  0
  1 16  1  0  0  0  0
  2 13  1  0  0  0  0
  2 15  2  0  0  0  0
  2 17  1  0  0  0  0
  3  4  1  0  0  0  0
  3  7  1  0  0  0  0
  4  8  1  1  0  0  0
  5  7  1  1  0  0  0
  5 13  1  0  0  0  0
  6  7  1  0  0  0  0
  6  8  1  0  0  0  0
  8 13  1  0  0  0  0
  9 12  1  0  0  0  0
 10 12  1  0  0  0  0
 11 12  1  0  0  0  0
 12 17  1  0  0  0  0
  3 18  1  0  0  0  0
  3 19  1  0  0  0  0
  4 20  1  0  0  0  0
  4 21  1  0  0  0  0
  5 22  1  0  0  0  0
  5 23  1  0  0  0  0
  6 24  1  0  0  0  0
  7 25  1  0  0  0  0
  8 26  1  0  0  0  0
  9 27  1  0  0  0  0
  9 28  1  0  0  0  0
  9 29  1  0  0  0  0
 10 30  1  0  0  0  0
 10 31  1  0  0  0  0
 10 32  1  0  0  0  0
 11 33  1  0  0  0  0
 11 34  1  0  0  0  0
 11 35  1  0  0  0  0
 16 36  1  0  0  0  0
M  END
> <id>
EN300-6495490

> <smiles>
CC(C)(C)OC(=O)N1C[C@@H]2CC[C@H]1[C@H]2C(=O)O |&1:9,12,13,r|

> <IUPAC Name>
rac-(1R,4S,7R)-2-[(tert-butoxy)carbonyl]-2-azabicyclo[2.2.1]heptane-7-carboxylic acid

> <CAS>
1909286-89-0

> <URL>
https://www.enaminestore.com/catalog/EN300-6495490

> <ROCS_ShapeQuery>
__x1247relevant_x1083L0AP1_x1305L0BP1_

> <ROCS_TanimotoCombo>
0.726 

> <ROCS_ShapeTanimoto>
0.502 

> <ROCS_ColorTanimoto>
0.224 

> <ROCS_RefTversky>
0.434 

> <ROCS_RefColorTversky>
0.253 

> <ROCS_RefTverskyCombo>
0.687 

> <ROCS_FitTversky>
1.456 

> <ROCS_FitColorTversky>
0.662 

> <ROCS_FitTverskyCombo>
2.118 

> <ROCS_ColorScore>
-8.278

> <ROCS_Overlap>
1278.931

> <ROCS_Rank>
251                 

$$$$
untitled-dbase-127473_11
  -OEChem-06232314393D

 29 31  0     1  0  0  0  0  0999 V2000
   -9.0065   15.8647  -35.8932 C   0  0  0  0  0  0  0  0  0  0  0  0
  -14.0255   16.0311  -39.0530 C   0  0  0  0  0  0  0  0  0  0  0  0
  -12.8011   15.7636  -39.9290 C   0  0  0  0  0  0  0  0  0  0  0  0
  -10.1977   14.9229  -35.6087 C   0  0  0  0  0  0  0  0  0  0  0  0
   -8.8487   15.1564  -37.2572 C   0  0  0  0  0  0  0  0  0  0  0  0
  -12.6078   15.8395  -36.9834 C   0  0  0  0  0  0  0  0  0  0  0  0
  -11.3696   15.6028  -37.8640 C   0  0  2  0  0  0  0  0  0  0  0  0
  -13.7186   15.1950  -37.8126 C   0  0  2  0  0  0  0  0  0  0  0  0
  -11.9740   14.8297  -39.0458 C   0  0  1  0  0  0  0  0  0  0  0  0
  -10.3426   14.7572  -37.1435 C   0  0  0  0  0  0  0  0  0  0  0  0
  -10.4616   13.3310  -37.4427 N   0  0  0  0  0  0  0  0  0  0  0  0
  -13.0201   14.0703  -38.3939 O   0  0  0  0  0  0  0  0  0  0  0  0
   -9.2872   16.9210  -35.9736 H   0  0  0  0  0  0  0  0  0  0  0  0
   -8.1573   15.7745  -35.2111 H   0  0  0  0  0  0  0  0  0  0  0  0
  -14.1705   17.0921  -38.8297 H   0  0  0  0  0  0  0  0  0  0  0  0
  -14.9242   15.6590  -39.5577 H   0  0  0  0  0  0  0  0  0  0  0  0
  -13.1134   15.2502  -40.8454 H   0  0  0  0  0  0  0  0  0  0  0  0
  -12.2656   16.6753  -40.2096 H   0  0  0  0  0  0  0  0  0  0  0  0
   -9.9038   14.0206  -35.0592 H   0  0  0  0  0  0  0  0  0  0  0  0
  -11.0406   15.3862  -35.0886 H   0  0  0  0  0  0  0  0  0  0  0  0
   -8.5839   15.8120  -38.0913 H   0  0  0  0  0  0  0  0  0  0  0  0
   -8.1321   14.3270  -37.2252 H   0  0  0  0  0  0  0  0  0  0  0  0
  -12.5117   15.3339  -36.0159 H   0  0  0  0  0  0  0  0  0  0  0  0
  -12.7935   16.9020  -36.7973 H   0  0  0  0  0  0  0  0  0  0  0  0
  -10.9087   16.5435  -38.1845 H   0  0  0  0  0  0  0  0  0  0  0  0
  -14.5970   14.8920  -37.2387 H   0  0  0  0  0  0  0  0  0  0  0  0
  -11.2795   14.1862  -39.5912 H   0  0  0  0  0  0  0  0  0  0  0  0
  -11.3320   13.1786  -37.8956 H   0  0  0  0  0  0  0  0  0  0  0  0
   -9.7085   13.0733  -38.0365 H   0  0  0  0  0  0  0  0  0  0  0  0
  1  4  1  0  0  0  0
  1  5  1  0  0  0  0
  2  3  1  0  0  0  0
  2  8  1  0  0  0  0
  3  9  1  0  0  0  0
  4 10  1  0  0  0  0
  5 10  1  0  0  0  0
  6  7  1  0  0  0  0
  6  8  1  0  0  0  0
  7  9  1  0  0  0  0
  7 10  1  0  0  0  0
  8 12  1  0  0  0  0
  9 12  1  0  0  0  0
 10 11  1  0  0  0  0
  1 13  1  0  0  0  0
  1 14  1  0  0  0  0
  2 15  1  0  0  0  0
  2 16  1  0  0  0  0
  3 17  1  0  0  0  0
  3 18  1  0  0  0  0
  4 19  1  0  0  0  0
  4 20  1  0  0  0  0
  5 21  1  0  0  0  0
  5 22  1  0  0  0  0
  6 23  1  0  0  0  0
  6 24  1  0  0  0  0
  7 25  1  0  0  0  0
  8 26  1  0  0  0  0
  9 27  1  0  0  0  0
 11 28  1  0  0  0  0
 11 29  1  0  0  0  0
M  END
> <id>
EN300-1754116

> <smiles>
NC1(CCC1)C2CC3CCC2O3

> <IUPAC Name>
1-{7-oxabicyclo[2.2.1]heptan-2-yl}cyclobutan-1-amine

> <CAS>
2228276-88-6

> <URL>
https://www.enaminestore.com/catalog/EN300-1754116

> <ROCS_ShapeQuery>
__x1247relevant_x1083L0AP1_x1305L0BP1_

> <ROCS_TanimotoCombo>
0.726 

> <ROCS_ShapeTanimoto>
0.468 

> <ROCS_ColorTanimoto>
0.258 

> <ROCS_RefTversky>
0.391 

> <ROCS_RefColorTversky>
0.277 

> <ROCS_RefTverskyCombo>
0.668 

> <ROCS_FitTversky>
1.721 

> <ROCS_FitColorTversky>
0.785 

> <ROCS_FitTverskyCombo>
2.507 

> <ROCS_ColorScore>
-9.055

> <ROCS_Overlap>
1149.934

> <ROCS_Rank>
252                 

$$$$
untitled-dbase-121096_4
  -OEChem-06232314393D

 28 30  0     1  0  0  0  0  0999 V2000
  -10.9164   13.7064  -36.7694 C   0  0  0  0  0  0  0  0  0  0  0  0
   -9.2308   15.2038  -37.0006 C   0  0  0  0  0  0  0  0  0  0  0  0
  -11.3483   16.5082  -40.2378 C   0  0  0  0  0  0  0  0  0  0  0  0
  -13.5747   16.3788  -39.0026 C   0  0  0  0  0  0  0  0  0  0  0  0
  -13.5475   14.0510  -38.4632 C   0  0  0  0  0  0  0  0  0  0  0  0
  -12.7132   15.5376  -36.7958 C   0  0  0  0  0  0  0  0  0  0  0  0
  -12.4898   15.6458  -39.8101 C   0  0  2  0  0  0  0  0  0  0  0  0
  -13.8479   15.4103  -37.8312 C   0  0  1  0  0  0  0  0  0  0  0  0
  -12.1243   14.4588  -38.8926 C   0  0  1  0  0  0  0  0  0  0  0  0
  -11.5238   14.8983  -37.5295 C   0  0  2  0  0  0  0  0  0  0  0  0
   -9.5903   13.9665  -36.5270 N   0  0  0  0  0  0  0  0  0  0  0  0
  -10.3666   15.7590  -37.5846 N   0  0  0  0  0  0  0  0  0  0  0  0
  -11.5157   12.6921  -36.4394 O   0  0  0  0  0  0  0  0  0  0  0  0
   -8.1290   15.7287  -36.9172 O   0  0  0  0  0  0  0  0  0  0  0  0
  -10.1794   16.3289  -39.9299 O   0  0  0  0  0  0  0  0  0  0  0  0
  -11.7844   17.5274  -41.0178 O   0  0  0  0  0  0  0  0  0  0  0  0
  -13.2704   17.3728  -38.6584 H   0  0  0  0  0  0  0  0  0  0  0  0
  -14.4760   16.4949  -39.6157 H   0  0  0  0  0  0  0  0  0  0  0  0
  -13.5840   13.2254  -37.7475 H   0  0  0  0  0  0  0  0  0  0  0  0
  -14.2046   13.8141  -39.3076 H   0  0  0  0  0  0  0  0  0  0  0  0
  -12.5401   16.5857  -36.5274 H   0  0  0  0  0  0  0  0  0  0  0  0
  -12.9657   14.9922  -35.8793 H   0  0  0  0  0  0  0  0  0  0  0  0
  -12.9343   15.2621  -40.7385 H   0  0  0  0  0  0  0  0  0  0  0  0
  -14.8440   15.5202  -37.3980 H   0  0  0  0  0  0  0  0  0  0  0  0
  -11.5677   13.6642  -39.3967 H   0  0  0  0  0  0  0  0  0  0  0  0
   -8.9625   13.3346  -36.0437 H   0  0  0  0  0  0  0  0  0  0  0  0
  -10.3741   16.6978  -37.9697 H   0  0  0  0  0  0  0  0  0  0  0  0
  -12.7561   17.4983  -41.1493 H   0  0  0  0  0  0  0  0  0  0  0  0
  1 10  1  0  0  0  0
  1 11  1  0  0  0  0
  1 13  2  0  0  0  0
  2 11  1  0  0  0  0
  2 12  1  0  0  0  0
  2 14  2  0  0  0  0
  3  7  1  1  0  0  0
  3 15  2  0  0  0  0
  3 16  1  0  0  0  0
  4  7  1  0  0  0  0
  4  8  1  1  0  0  0
  5  8  1  0  0  0  0
  5  9  1  6  0  0  0
  6  8  1  0  0  0  0
  6 10  1  1  0  0  0
  7  9  1  0  0  0  0
  9 10  1  0  0  0  0
 10 12  1  0  0  0  0
  4 17  1  0  0  0  0
  4 18  1  0  0  0  0
  5 19  1  0  0  0  0
  5 20  1  0  0  0  0
  6 21  1  0  0  0  0
  6 22  1  0  0  0  0
  7 23  1  0  0  0  0
  8 24  1  0  0  0  0
  9 25  1  0  0  0  0
 11 26  1  0  0  0  0
 12 27  1  0  0  0  0
 16 28  1  0  0  0  0
M  END
> <id>
EN300-26572938

> <smiles>
OC(=O)[C@@H]1C[C@H]2C[C@@H]1[C@]3(C2)NC(=O)NC3=O |&1:3,5,7,8,r|

> <MDLNUMBER>
MFCD32662996

> <IUPAC Name>
rac-(1R,2R,4S,6S)-2',5'-dioxospiro[bicyclo[2.2.1]heptane-2,4'-imidazolidine]-6-carboxylic acid

> <CAS>
2413846-28-1

> <Purity>
95

> <URL>
https://www.enaminestore.com/catalog/EN300-26572938

> <ROCS_ShapeQuery>
__x1247relevant_x1083L0AP1_x1305L0BP1_

> <ROCS_TanimotoCombo>
0.726 

> <ROCS_ShapeTanimoto>
0.531 

> <ROCS_ColorTanimoto>
0.195 

> <ROCS_RefTversky>
0.448 

> <ROCS_RefColorTversky>
0.239 

> <ROCS_RefTverskyCombo>
0.687 

> <ROCS_FitTversky>
1.532 

> <ROCS_FitColorTversky>
0.513 

> <ROCS_FitTverskyCombo>
2.046 

> <ROCS_ColorScore>
-7.851

> <ROCS_Overlap>
1321.683

> <ROCS_Rank>
253                 

$$$$
untitled-dbase-167570_5
  -OEChem-06232314393D

 29 31  0     1  0  0  0  0  0999 V2000
   -8.9789   15.2536  -36.3850 C   0  0  0  0  0  0  0  0  0  0  0  0
  -10.4624   15.5512  -36.4625 C   0  0  0  0  0  0  0  0  0  0  0  0
  -14.0579   15.4758  -39.5941 C   0  0  0  0  0  0  0  0  0  0  0  0
  -14.4694   15.3790  -38.1246 C   0  0  0  0  0  0  0  0  0  0  0  0
  -11.8711   14.3458  -39.0738 C   0  0  0  0  0  0  0  0  0  0  0  0
   -8.8279   14.1225  -37.3796 C   0  0  0  0  0  0  0  0  0  0  0  0
  -12.2971   14.2183  -37.6017 C   0  0  1  0  0  0  0  0  0  0  0  0
  -11.0924   14.1755  -36.6714 C   0  0  1  0  0  0  0  0  0  0  0  0
  -12.5447   15.6533  -39.4902 C   0  0  2  0  0  0  0  0  0  0  0  0
  -13.1248   15.4977  -37.4076 C   0  0  1  0  0  0  0  0  0  0  0  0
  -10.0223   13.3025  -37.1775 N   0  0  0  0  0  0  0  0  0  0  0  0
  -12.4324   16.4279  -38.2744 O   0  0  0  0  0  0  0  0  0  0  0  0
   -8.3986   16.1243  -36.6713 H   0  0  0  0  0  0  0  0  0  0  0  0
   -8.6897   14.9369  -35.3886 H   0  0  0  0  0  0  0  0  0  0  0  0
  -10.8338   16.0362  -35.5567 H   0  0  0  0  0  0  0  0  0  0  0  0
  -10.6640   16.2152  -37.3100 H   0  0  0  0  0  0  0  0  0  0  0  0
  -14.3475   14.5983  -40.1795 H   0  0  0  0  0  0  0  0  0  0  0  0
  -14.5204   16.3609  -40.0451 H   0  0  0  0  0  0  0  0  0  0  0  0
  -15.1170   16.2259  -37.8704 H   0  0  0  0  0  0  0  0  0  0  0  0
  -15.0028   14.4540  -37.8872 H   0  0  0  0  0  0  0  0  0  0  0  0
  -10.7825   14.4342  -39.1646 H   0  0  0  0  0  0  0  0  0  0  0  0
  -12.1962   13.4955  -39.6813 H   0  0  0  0  0  0  0  0  0  0  0  0
   -8.7567   14.4796  -38.4092 H   0  0  0  0  0  0  0  0  0  0  0  0
   -7.9331   13.5313  -37.1639 H   0  0  0  0  0  0  0  0  0  0  0  0
  -12.9021   13.3202  -37.4337 H   0  0  0  0  0  0  0  0  0  0  0  0
  -11.4445   13.7741  -35.6873 H   0  0  0  0  0  0  0  0  0  0  0  0
  -12.0847   16.1491  -40.3477 H   0  0  0  0  0  0  0  0  0  0  0  0
  -13.1931   15.8606  -36.3791 H   0  0  0  0  0  0  0  0  0  0  0  0
  -10.3130   12.9141  -38.0866 H   0  0  0  0  0  0  0  0  0  0  0  0
  1  2  1  0  0  0  0
  1  6  1  0  0  0  0
  2  8  1  0  0  0  0
  3  4  1  0  0  0  0
  3  9  1  0  0  0  0
  4 10  1  0  0  0  0
  5  7  1  0  0  0  0
  5  9  1  0  0  0  0
  6 11  1  0  0  0  0
  7  8  1  0  0  0  0
  7 10  1  0  0  0  0
  8 11  1  0  0  0  0
  9 12  1  0  0  0  0
 10 12  1  0  0  0  0
  1 13  1  0  0  0  0
  1 14  1  0  0  0  0
  2 15  1  0  0  0  0
  2 16  1  0  0  0  0
  3 17  1  0  0  0  0
  3 18  1  0  0  0  0
  4 19  1  0  0  0  0
  4 20  1  0  0  0  0
  5 21  1  0  0  0  0
  5 22  1  0  0  0  0
  6 23  1  0  0  0  0
  6 24  1  0  0  0  0
  7 25  1  0  0  0  0
  8 26  1  0  0  0  0
  9 27  1  0  0  0  0
 10 28  1  0  0  0  0
 11 29  1  0  0  0  0
M  END
> <id>
EN300-1757789

> <smiles>
C1CNC(C1)C2CC3CCC2O3

> <IUPAC Name>
2-{7-oxabicyclo[2.2.1]heptan-2-yl}pyrrolidine

> <CAS>
1855773-65-7

> <URL>
https://www.enaminestore.com/catalog/EN300-1757789

> <ROCS_ShapeQuery>
__x1247relevant_x1083L0AP1_x1305L0BP1_

> <ROCS_TanimotoCombo>
0.726 

> <ROCS_ShapeTanimoto>
0.478 

> <ROCS_ColorTanimoto>
0.248 

> <ROCS_RefTversky>
0.397 

> <ROCS_RefColorTversky>
0.269 

> <ROCS_RefTverskyCombo>
0.665 

> <ROCS_FitTversky>
1.751 

> <ROCS_FitColorTversky>
0.761 

> <ROCS_FitTverskyCombo>
2.513 

> <ROCS_ColorScore>
-8.779

> <ROCS_Overlap>
1165.172

> <ROCS_Rank>
254                 

$$$$
untitled-dbase-168713_4
  -OEChem-06232314393D

 32 33  0     0  0  0  0  0  0999 V2000
  -10.1556   15.2132  -36.7211 C   0  0  0  0  0  0  0  0  0  0  0  0
  -11.1035   15.8611  -38.9198 C   0  0  0  0  0  0  0  0  0  0  0  0
  -12.4396   16.1686  -36.8691 C   0  0  0  0  0  0  0  0  0  0  0  0
  -12.3708   15.8389  -39.7805 C   0  0  0  0  0  0  0  0  0  0  0  0
  -13.7410   16.1555  -37.6777 C   0  0  0  0  0  0  0  0  0  0  0  0
  -11.4142   15.2317  -37.5442 C   0  0  0  0  0  0  0  0  0  0  0  0
  -13.5539   15.3088  -38.9499 C   0  0  0  0  0  0  0  0  0  0  0  0
  -12.0614   13.8235  -37.7545 C   0  0  0  0  0  0  0  0  0  0  0  0
  -14.8337   15.2781  -39.7792 C   0  0  0  0  0  0  0  0  0  0  0  0
  -12.4997   13.1498  -36.4419 C   0  0  0  0  0  0  0  0  0  0  0  0
  -11.1523   12.8393  -38.5119 C   0  0  0  0  0  0  0  0  0  0  0  0
   -9.0687   15.6314  -37.0914 O   0  0  0  0  0  0  0  0  0  0  0  0
  -13.2608   13.9544  -38.5552 O   0  0  0  0  0  0  0  0  0  0  0  0
  -10.3877   14.6640  -35.5038 O   0  0  0  0  0  0  0  0  0  0  0  0
  -10.2839   15.3416  -39.4300 H   0  0  0  0  0  0  0  0  0  0  0  0
  -10.7564   16.8965  -38.8020 H   0  0  0  0  0  0  0  0  0  0  0  0
  -12.0498   17.1942  -36.8157 H   0  0  0  0  0  0  0  0  0  0  0  0
  -12.6308   15.8825  -35.8280 H   0  0  0  0  0  0  0  0  0  0  0  0
  -12.5776   16.8435  -40.1678 H   0  0  0  0  0  0  0  0  0  0  0  0
  -12.1970   15.1860  -40.6449 H   0  0  0  0  0  0  0  0  0  0  0  0
  -14.5368   15.7275  -37.0556 H   0  0  0  0  0  0  0  0  0  0  0  0
  -14.0382   17.1814  -37.9251 H   0  0  0  0  0  0  0  0  0  0  0  0
  -15.6582   14.9008  -39.1754 H   0  0  0  0  0  0  0  0  0  0  0  0
  -14.7003   14.6285  -40.6435 H   0  0  0  0  0  0  0  0  0  0  0  0
  -15.0766   16.2827  -40.1240 H   0  0  0  0  0  0  0  0  0  0  0  0
  -12.9370   12.1826  -36.6654 H   0  0  0  0  0  0  0  0  0  0  0  0
  -13.2329   13.7770  -35.9460 H   0  0  0  0  0  0  0  0  0  0  0  0
  -11.6345   13.0209  -35.8003 H   0  0  0  0  0  0  0  0  0  0  0  0
  -11.6652   11.8895  -38.6194 H   0  0  0  0  0  0  0  0  0  0  0  0
  -10.2341   12.6978  -37.9518 H   0  0  0  0  0  0  0  0  0  0  0  0
  -10.9244   13.2452  -39.4918 H   0  0  0  0  0  0  0  0  0  0  0  0
   -9.5772   14.6410  -34.9517 H   0  0  0  0  0  0  0  0  0  0  0  0
  1  6  1  0  0  0  0
  1 12  2  0  0  0  0
  1 14  1  0  0  0  0
  2  4  1  0  0  0  0
  2  6  1  0  0  0  0
  3  5  1  0  0  0  0
  3  6  1  0  0  0  0
  4  7  1  0  0  0  0
  5  7  1  0  0  0  0
  6  8  1  0  0  0  0
  7  9  1  0  0  0  0
  7 13  1  0  0  0  0
  8 10  1  0  0  0  0
  8 11  1  0  0  0  0
  8 13  1  0  0  0  0
  2 15  1  0  0  0  0
  2 16  1  0  0  0  0
  3 17  1  0  0  0  0
  3 18  1  0  0  0  0
  4 19  1  0  0  0  0
  4 20  1  0  0  0  0
  5 21  1  0  0  0  0
  5 22  1  0  0  0  0
  9 23  1  0  0  0  0
  9 24  1  0  0  0  0
  9 25  1  0  0  0  0
 10 26  1  0  0  0  0
 10 27  1  0  0  0  0
 10 28  1  0  0  0  0
 11 29  1  0  0  0  0
 11 30  1  0  0  0  0
 11 31  1  0  0  0  0
 14 32  1  0  0  0  0
M  END
> <id>
EN300-6488024

> <smiles>
CC1(C)OC2(C)CCC1(CC2)C(=O)O

> <MDLNUMBER>
MFCD31668545

> <IUPAC Name>
1,3,3-trimethyl-2-oxabicyclo[2.2.2]octane-4-carboxylic acid

> <CAS>
2243512-23-2

> <Purity>
95

> <URL>
https://www.enaminestore.com/catalog/EN300-6488024

> <ROCS_ShapeQuery>
__x1247relevant_x1083L0AP1_x1305L0BP1_

> <ROCS_TanimotoCombo>
0.726 

> <ROCS_ShapeTanimoto>
0.501 

> <ROCS_ColorTanimoto>
0.225 

> <ROCS_RefTversky>
0.418 

> <ROCS_RefColorTversky>
0.252 

> <ROCS_RefTverskyCombo>
0.670 

> <ROCS_FitTversky>
1.650 

> <ROCS_FitColorTversky>
0.676 

> <ROCS_FitTverskyCombo>
2.326 

> <ROCS_ColorScore>
-8.235

> <ROCS_Overlap>
1231.011

> <ROCS_Rank>
255                 

$$$$
untitled-dbase-47022_16
  -OEChem-06232314393D

 37 39  0     1  0  0  0  0  0999 V2000
  -13.4650   16.6747  -38.1783 C   0  0  0  0  0  0  0  0  0  0  0  0
  -14.0971   15.4257  -37.5666 C   0  0  0  0  0  0  0  0  0  0  0  0
  -11.1248   15.4496  -36.0630 C   0  0  0  0  0  0  0  0  0  0  0  0
  -11.0736   15.8364  -38.5851 C   0  0  0  0  0  0  0  0  0  0  0  0
  -12.1857   13.7221  -37.6511 C   0  0  0  0  0  0  0  0  0  0  0  0
   -9.6980   15.9071  -35.8175 C   0  0  0  0  0  0  0  0  0  0  0  0
  -12.4617   16.1332  -39.1959 C   0  0  1  0  0  0  0  0  0  0  0  0
  -13.4607   14.2610  -38.3288 C   0  0  2  0  0  0  0  0  0  0  0  0
   -9.6520   14.1339  -37.3323 C   0  0  2  0  0  0  0  0  0  0  0  0
  -11.0639   14.7699  -37.4373 C   0  0  0  0  0  0  0  0  0  0  0  0
  -14.1135   14.9688  -40.5741 C   0  0  0  0  0  0  0  0  0  0  0  0
   -9.5582   12.8132  -36.5654 C   0  0  0  0  0  0  0  0  0  0  0  0
  -13.0230   14.8375  -39.6113 N   0  0  0  0  0  0  0  0  0  0  0  0
   -9.5350   13.0637  -35.1612 N   0  0  0  0  0  0  0  0  0  0  0  0
   -8.8419   15.0922  -36.6256 O   0  0  0  0  0  0  0  0  0  0  0  0
  -14.2421   17.2642  -38.6790 H   0  0  0  0  0  0  0  0  0  0  0  0
  -13.0041   17.3202  -37.4252 H   0  0  0  0  0  0  0  0  0  0  0  0
  -13.9553   15.3610  -36.4850 H   0  0  0  0  0  0  0  0  0  0  0  0
  -15.1801   15.4473  -37.7410 H   0  0  0  0  0  0  0  0  0  0  0  0
  -11.4836   14.8311  -35.2391 H   0  0  0  0  0  0  0  0  0  0  0  0
  -11.7743   16.3345  -36.0999 H   0  0  0  0  0  0  0  0  0  0  0  0
  -10.4244   15.4851  -39.3981 H   0  0  0  0  0  0  0  0  0  0  0  0
  -10.6252   16.7736  -38.2332 H   0  0  0  0  0  0  0  0  0  0  0  0
  -12.4636   13.2401  -36.7034 H   0  0  0  0  0  0  0  0  0  0  0  0
  -11.8225   12.9112  -38.2959 H   0  0  0  0  0  0  0  0  0  0  0  0
   -9.5531   16.9608  -36.0793 H   0  0  0  0  0  0  0  0  0  0  0  0
   -9.4029   15.7724  -34.7708 H   0  0  0  0  0  0  0  0  0  0  0  0
  -12.3304   16.8244  -40.0390 H   0  0  0  0  0  0  0  0  0  0  0  0
  -14.1641   13.4328  -38.4564 H   0  0  0  0  0  0  0  0  0  0  0  0
   -9.2232   13.9974  -38.3059 H   0  0  0  0  0  0  0  0  0  0  0  0
  -14.4879   13.9701  -40.8433 H   0  0  0  0  0  0  0  0  0  0  0  0
  -14.9282   15.5575  -40.1272 H   0  0  0  0  0  0  0  0  0  0  0  0
  -13.7458   15.4780  -41.4772 H   0  0  0  0  0  0  0  0  0  0  0  0
  -10.4318   12.2159  -36.8295 H   0  0  0  0  0  0  0  0  0  0  0  0
   -8.6389   12.3156  -36.8769 H   0  0  0  0  0  0  0  0  0  0  0  0
  -10.3617   13.5620  -34.8864 H   0  0  0  0  0  0  0  0  0  0  0  0
   -9.4963   12.1963  -34.6577 H   0  0  0  0  0  0  0  0  0  0  0  0
  1  2  1  0  0  0  0
  1  7  1  0  0  0  0
  2  8  1  0  0  0  0
  3  6  1  0  0  0  0
  3 10  1  0  0  0  0
  4  7  1  0  0  0  0
  4 10  1  0  0  0  0
  5  8  1  0  0  0  0
  5 10  1  0  0  0  0
  6 15  1  0  0  0  0
  7 13  1  0  0  0  0
  8 13  1  0  0  0  0
  9 10  1  0  0  0  0
  9 12  1  0  0  0  0
  9 15  1  0  0  0  0
 11 13  1  0  0  0  0
 12 14  1  0  0  0  0
  1 16  1  0  0  0  0
  1 17  1  0  0  0  0
  2 18  1  0  0  0  0
  2 19  1  0  0  0  0
  3 20  1  0  0  0  0
  3 21  1  0  0  0  0
  4 22  1  0  0  0  0
  4 23  1  0  0  0  0
  5 24  1  0  0  0  0
  5 25  1  0  0  0  0
  6 26  1  0  0  0  0
  6 27  1  0  0  0  0
  7 28  1  0  0  0  0
  8 29  1  0  0  0  0
  9 30  1  0  0  0  0
 11 31  1  0  0  0  0
 11 32  1  0  0  0  0
 11 33  1  0  0  0  0
 12 34  1  0  0  0  0
 12 35  1  0  0  0  0
 14 36  1  0  0  0  0
 14 37  1  0  0  0  0
M  END
> <id>
EN300-1479060

> <smiles>
CN1C2CCC1CC3(CCOC3CN)C2

> <IUPAC Name>
{8-methyl-8-azaspiro[bicyclo[3.2.1]octane-3,3'-oxolane]-2'-yl}methanamine

> <CAS>
2166659-25-0

> <URL>
https://www.enaminestore.com/catalog/EN300-1479060

> <ROCS_ShapeQuery>
__x1247relevant_x1083L0AP1_x1305L0BP1_

> <ROCS_TanimotoCombo>
0.726 

> <ROCS_ShapeTanimoto>
0.528 

> <ROCS_ColorTanimoto>
0.198 

> <ROCS_RefTversky>
0.438 

> <ROCS_RefColorTversky>
0.225 

> <ROCS_RefTverskyCombo>
0.663 

> <ROCS_FitTversky>
1.643 

> <ROCS_FitColorTversky>
0.617 

> <ROCS_FitTverskyCombo>
2.260 

> <ROCS_ColorScore>
-7.365

> <ROCS_Overlap>
1288.431

> <ROCS_Rank>
256                 

$$$$
untitled-dbase-148623_61
  -OEChem-06232314393D

 32 34  0     0  0  0  0  0  0999 V2000
  -11.3175   14.8368  -36.1766 C   0  0  0  0  0  0  0  0  0  0  0  0
  -10.3011   14.0886  -38.3666 C   0  0  0  0  0  0  0  0  0  0  0  0
  -12.6196   15.7086  -39.7258 C   0  0  0  0  0  0  0  0  0  0  0  0
  -13.4458   16.3033  -37.9100 C   0  0  0  0  0  0  0  0  0  0  0  0
   -9.8517   14.7004  -35.7686 C   0  0  0  0  0  0  0  0  0  0  0  0
   -8.9874   14.7650  -37.9778 C   0  0  0  0  0  0  0  0  0  0  0  0
  -11.9631   16.0475  -38.3470 C   0  0  0  0  0  0  0  0  0  0  0  0
  -11.5115   14.7339  -37.6969 C   0  0  0  0  0  0  0  0  0  0  0  0
  -13.5462   14.9310  -38.6985 C   0  0  0  0  0  0  0  0  0  0  0  0
  -14.8692   14.3651  -39.1150 C   0  0  0  0  0  0  0  0  0  0  0  0
  -11.1621   17.2432  -38.3730 N   0  0  0  0  0  0  0  0  0  0  0  0
  -15.5585   15.2678  -39.9909 N   0  0  0  0  0  0  0  0  0  0  0  0
   -9.0217   15.3901  -36.6947 O   0  0  0  0  0  0  0  0  0  0  0  0
  -12.7024   13.9632  -37.9920 O   0  0  0  0  0  0  0  0  0  0  0  0
  -11.8942   14.0698  -35.6400 H   0  0  0  0  0  0  0  0  0  0  0  0
  -11.6888   15.8163  -35.8354 H   0  0  0  0  0  0  0  0  0  0  0  0
  -10.4174   14.1538  -39.4621 H   0  0  0  0  0  0  0  0  0  0  0  0
  -10.2167   13.0184  -38.1203 H   0  0  0  0  0  0  0  0  0  0  0  0
  -13.0851   16.5259  -40.2911 H   0  0  0  0  0  0  0  0  0  0  0  0
  -12.0482   15.0884  -40.4209 H   0  0  0  0  0  0  0  0  0  0  0  0
  -13.6716   16.2618  -36.8419 H   0  0  0  0  0  0  0  0  0  0  0  0
  -13.9698   17.1638  -38.3440 H   0  0  0  0  0  0  0  0  0  0  0  0
   -9.7005   15.1480  -34.7841 H   0  0  0  0  0  0  0  0  0  0  0  0
   -9.5488   13.6516  -35.7101 H   0  0  0  0  0  0  0  0  0  0  0  0
   -8.1444   14.0457  -38.0075 H   0  0  0  0  0  0  0  0  0  0  0  0
   -8.7414   15.5478  -38.7194 H   0  0  0  0  0  0  0  0  0  0  0  0
  -14.6971   13.4138  -39.6348 H   0  0  0  0  0  0  0  0  0  0  0  0
  -15.4770   14.1938  -38.2171 H   0  0  0  0  0  0  0  0  0  0  0  0
  -11.5295   17.9044  -37.7194 H   0  0  0  0  0  0  0  0  0  0  0  0
  -10.2200   17.0176  -38.1260 H   0  0  0  0  0  0  0  0  0  0  0  0
  -16.4348   15.5290  -39.5835 H   0  0  0  0  0  0  0  0  0  0  0  0
  -15.0025   16.0878  -40.1338 H   0  0  0  0  0  0  0  0  0  0  0  0
  1  5  1  0  0  0  0
  1  8  1  0  0  0  0
  2  6  1  0  0  0  0
  2  8  1  0  0  0  0
  3  7  1  0  0  0  0
  3  9  1  0  0  0  0
  4  7  1  0  0  0  0
  4  9  1  0  0  0  0
  5 13  1  0  0  0  0
  6 13  1  0  0  0  0
  7  8  1  0  0  0  0
  7 11  1  0  0  0  0
  8 14  1  0  0  0  0
  9 10  1  0  0  0  0
  9 14  1  0  0  0  0
 10 12  1  0  0  0  0
  1 15  1  0  0  0  0
  1 16  1  0  0  0  0
  2 17  1  0  0  0  0
  2 18  1  0  0  0  0
  3 19  1  0  0  0  0
  3 20  1  0  0  0  0
  4 21  1  0  0  0  0
  4 22  1  0  0  0  0
  5 23  1  0  0  0  0
  5 24  1  0  0  0  0
  6 25  1  0  0  0  0
  6 26  1  0  0  0  0
 10 27  1  0  0  0  0
 10 28  1  0  0  0  0
 11 29  1  0  0  0  0
 11 30  1  0  0  0  0
 12 31  1  0  0  0  0
 12 32  1  0  0  0  0
M  END
> <id>
EN300-22861482

> <smiles>
NCC1(CC2(N)C1)OC32CCOCC3

> <IUPAC Name>
4-(aminomethyl)-3-oxaspiro[bicyclo[2.1.1]hexane-2,4'-oxane]-1-amine

> <CAS>
2639405-59-5

> <URL>
https://www.enaminestore.com/catalog/EN300-22861482

> <ROCS_ShapeQuery>
__x1247relevant_x1083L0AP1_x1305L0BP1_

> <ROCS_TanimotoCombo>
0.726 

> <ROCS_ShapeTanimoto>
0.513 

> <ROCS_ColorTanimoto>
0.212 

> <ROCS_RefTversky>
0.426 

> <ROCS_RefColorTversky>
0.254 

> <ROCS_RefTverskyCombo>
0.680 

> <ROCS_FitTversky>
1.668 

> <ROCS_FitColorTversky>
0.565 

> <ROCS_FitTverskyCombo>
2.233 

> <ROCS_ColorScore>
-8.334

> <ROCS_Overlap>
1252.936

> <ROCS_Rank>
257                 

$$$$
untitled-dbase-155376_6
  -OEChem-06232314393D

 26 27  0     1  0  0  0  0  0999 V2000
  -13.1894   16.4711  -40.1558 C   0  0  0  0  0  0  0  0  0  0  0  0
   -9.6382   14.8155  -37.1155 C   0  0  0  0  0  0  0  0  0  0  0  0
  -14.1345   14.9159  -37.5354 C   0  0  0  0  0  0  0  0  0  0  0  0
  -13.4825   16.3035  -37.5454 C   0  0  0  0  0  0  0  0  0  0  0  0
  -11.8009   13.7646  -37.8887 C   0  0  0  0  0  0  0  0  0  0  0  0
  -11.1715   15.9803  -38.6624 C   0  0  0  0  0  0  0  0  0  0  0  0
  -13.0342   14.4119  -38.4947 C   0  0  2  0  0  0  0  0  0  0  0  0
  -12.6831   15.8841  -38.8181 C   0  0  2  0  0  0  0  0  0  0  0  0
   -9.3402   13.5269  -36.3906 C   0  0  0  0  0  0  0  0  0  0  0  0
  -10.8407   14.8540  -37.8087 N   0  0  0  0  0  0  0  0  0  0  0  0
  -12.5331   17.1800  -40.9042 O   0  0  0  0  0  0  0  0  0  0  0  0
   -8.8410   15.7540  -37.0633 O   0  0  0  0  0  0  0  0  0  0  0  0
  -14.4702   16.0943  -40.3897 O   0  0  0  0  0  0  0  0  0  0  0  0
  -10.3380   12.6433  -36.5697 F   0  0  0  0  0  0  0  0  0  0  0  0
   -8.2020   12.9775  -36.8501 F   0  0  0  0  0  0  0  0  0  0  0  0
   -9.2008   13.7446  -35.0708 F   0  0  0  0  0  0  0  0  0  0  0  0
  -14.1409   14.4408  -36.5438 H   0  0  0  0  0  0  0  0  0  0  0  0
  -15.1559   14.8815  -37.9353 H   0  0  0  0  0  0  0  0  0  0  0  0
  -14.1969   17.1149  -37.7188 H   0  0  0  0  0  0  0  0  0  0  0  0
  -12.8881   16.5469  -36.6623 H   0  0  0  0  0  0  0  0  0  0  0  0
  -11.9826   13.3196  -36.9054 H   0  0  0  0  0  0  0  0  0  0  0  0
  -11.3827   13.0012  -38.5541 H   0  0  0  0  0  0  0  0  0  0  0  0
  -10.6435   15.8537  -39.6121 H   0  0  0  0  0  0  0  0  0  0  0  0
  -10.8478   16.9141  -38.1964 H   0  0  0  0  0  0  0  0  0  0  0  0
  -13.4544   13.8429  -39.3456 H   0  0  0  0  0  0  0  0  0  0  0  0
  -14.8110   16.4588  -41.2343 H   0  0  0  0  0  0  0  0  0  0  0  0
  1  8  1  0  0  0  0
  1 11  2  0  0  0  0
  1 13  1  0  0  0  0
  2  9  1  0  0  0  0
  2 10  1  0  0  0  0
  2 12  2  0  0  0  0
  3  4  1  0  0  0  0
  3  7  1  0  0  0  0
  4  8  1  0  0  0  0
  5  7  1  0  0  0  0
  5 10  1  0  0  0  0
  6  8  1  0  0  0  0
  6 10  1  0  0  0  0
  7  8  1  0  0  0  0
  9 14  1  0  0  0  0
  9 15  1  0  0  0  0
  9 16  1  0  0  0  0
  3 17  1  0  0  0  0
  3 18  1  0  0  0  0
  4 19  1  0  0  0  0
  4 20  1  0  0  0  0
  5 21  1  0  0  0  0
  5 22  1  0  0  0  0
  6 23  1  0  0  0  0
  6 24  1  0  0  0  0
  7 25  1  0  0  0  0
 13 26  1  0  0  0  0
M  END
> <id>
EN300-7281969

> <smiles>
OC(=O)C12CCC2CN(C1)C(=O)C(F)(F)F

> <IUPAC Name>
3-(trifluoroacetyl)-3-azabicyclo[3.2.0]heptane-1-carboxylic acid

> <CAS>
2680808-12-0

> <URL>
https://www.enaminestore.com/catalog/EN300-7281969

> <ROCS_ShapeQuery>
__x1247relevant_x1083L0AP1_x1305L0BP1_

> <ROCS_TanimotoCombo>
0.726 

> <ROCS_ShapeTanimoto>
0.509 

> <ROCS_ColorTanimoto>
0.216 

> <ROCS_RefTversky>
0.434 

> <ROCS_RefColorTversky>
0.236 

> <ROCS_RefTverskyCombo>
0.670 

> <ROCS_FitTversky>
1.512 

> <ROCS_FitColorTversky>
0.722 

> <ROCS_FitTverskyCombo>
2.234 

> <ROCS_ColorScore>
-7.703

> <ROCS_Overlap>
1280.179

> <ROCS_Rank>
258                 

$$$$
untitled-dbase-29217_107
  -OEChem-06232314393D

 46 48  0     1  0  0  0  0  0999 V2000
  -14.3957   15.0856  -39.7112 C   0  0  0  0  0  0  0  0  0  0  0  0
  -11.5534   16.2919  -39.9640 C   0  0  0  0  0  0  0  0  0  0  0  0
   -9.4755   15.9980  -37.2747 C   0  0  0  0  0  0  0  0  0  0  0  0
  -10.7019   14.8285  -35.5149 C   0  0  0  0  0  0  0  0  0  0  0  0
   -8.8379   14.6555  -37.6696 C   0  0  0  0  0  0  0  0  0  0  0  0
  -10.1000   13.4909  -35.9790 C   0  0  0  0  0  0  0  0  0  0  0  0
  -10.9797   13.6945  -38.2226 C   0  0  0  0  0  0  0  0  0  0  0  0
  -13.9669   15.5016  -37.3161 C   0  0  0  0  0  0  0  0  0  0  0  0
  -13.7032   15.9768  -38.7222 C   0  0  1  0  0  0  0  0  0  0  0  0
  -10.8946   15.7450  -36.7483 C   0  0  0  0  0  0  0  0  0  0  0  0
  -11.7539   14.9592  -37.7861 C   0  0  1  0  0  0  0  0  0  0  0  0
   -9.4650   18.0075  -40.9105 C   0  0  0  0  0  0  0  0  0  0  0  0
   -7.9608   16.0122  -40.6542 C   0  0  0  0  0  0  0  0  0  0  0  0
   -9.8827   15.9305  -42.2692 C   0  0  0  0  0  0  0  0  0  0  0  0
   -9.3871   16.4817  -40.9330 C   0  0  0  0  0  0  0  0  0  0  0  0
  -12.2785   15.7658  -38.8974 N   0  0  0  0  0  0  0  0  0  0  0  0
   -9.7456   13.5135  -37.4155 N   0  0  0  0  0  0  0  0  0  0  0  0
  -15.1707   15.4659  -40.5760 O   0  0  0  0  0  0  0  0  0  0  0  0
  -12.0169   16.9825  -40.8666 O   0  0  0  0  0  0  0  0  0  0  0  0
  -12.9521   14.5105  -37.0918 O   0  0  0  0  0  0  0  0  0  0  0  0
  -14.0468   13.7906  -39.5149 O   0  0  0  0  0  0  0  0  0  0  0  0
  -10.2224   15.9672  -39.8895 O   0  0  0  0  0  0  0  0  0  0  0  0
   -8.8689   16.4704  -36.4912 H   0  0  0  0  0  0  0  0  0  0  0  0
   -9.4771   16.7012  -38.1096 H   0  0  0  0  0  0  0  0  0  0  0  0
  -11.6509   14.6579  -34.9943 H   0  0  0  0  0  0  0  0  0  0  0  0
  -10.0322   15.3090  -34.7907 H   0  0  0  0  0  0  0  0  0  0  0  0
   -8.5466   14.6712  -38.7267 H   0  0  0  0  0  0  0  0  0  0  0  0
   -7.9028   14.5108  -37.1138 H   0  0  0  0  0  0  0  0  0  0  0  0
   -9.2091   13.2583  -35.3826 H   0  0  0  0  0  0  0  0  0  0  0  0
  -10.8056   12.6733  -35.7853 H   0  0  0  0  0  0  0  0  0  0  0  0
  -11.6054   12.7983  -38.1222 H   0  0  0  0  0  0  0  0  0  0  0  0
  -10.6927   13.7310  -39.2794 H   0  0  0  0  0  0  0  0  0  0  0  0
  -13.8359   16.3041  -36.5825 H   0  0  0  0  0  0  0  0  0  0  0  0
  -14.9490   15.0413  -37.1744 H   0  0  0  0  0  0  0  0  0  0  0  0
  -14.0023   17.0133  -38.8998 H   0  0  0  0  0  0  0  0  0  0  0  0
  -11.3791   16.6760  -36.4355 H   0  0  0  0  0  0  0  0  0  0  0  0
  -10.4871   18.3485  -41.1102 H   0  0  0  0  0  0  0  0  0  0  0  0
   -9.1453   18.4135  -39.9452 H   0  0  0  0  0  0  0  0  0  0  0  0
   -8.8351   18.4428  -41.6948 H   0  0  0  0  0  0  0  0  0  0  0  0
   -7.9003   14.9180  -40.6694 H   0  0  0  0  0  0  0  0  0  0  0  0
   -7.6350   16.3255  -39.6558 H   0  0  0  0  0  0  0  0  0  0  0  0
   -7.2538   16.4088  -41.3900 H   0  0  0  0  0  0  0  0  0  0  0  0
   -9.8269   14.8360  -42.2856 H   0  0  0  0  0  0  0  0  0  0  0  0
  -10.9176   16.2268  -42.4688 H   0  0  0  0  0  0  0  0  0  0  0  0
   -9.2538   16.2845  -43.0941 H   0  0  0  0  0  0  0  0  0  0  0  0
  -14.4913   13.1909  -40.1513 H   0  0  0  0  0  0  0  0  0  0  0  0
  1  9  1  0  0  0  0
  1 18  2  0  0  0  0
  1 21  1  0  0  0  0
  2 16  1  0  0  0  0
  2 19  2  0  0  0  0
  2 22  1  0  0  0  0
  3  5  1  0  0  0  0
  3 10  1  0  0  0  0
  4  6  1  0  0  0  0
  4 10  1  0  0  0  0
  5 17  1  0  0  0  0
  6 17  1  0  0  0  0
  7 11  1  0  0  0  0
  7 17  1  0  0  0  0
  8  9  1  0  0  0  0
  8 20  1  0  0  0  0
  9 16  1  0  0  0  0
 10 11  1  0  0  0  0
 11 16  1  0  0  0  0
 11 20  1  0  0  0  0
 12 15  1  0  0  0  0
 13 15  1  0  0  0  0
 14 15  1  0  0  0  0
 15 22  1  0  0  0  0
  3 23  1  0  0  0  0
  3 24  1  0  0  0  0
  4 25  1  0  0  0  0
  4 26  1  0  0  0  0
  5 27  1  0  0  0  0
  5 28  1  0  0  0  0
  6 29  1  0  0  0  0
  6 30  1  0  0  0  0
  7 31  1  0  0  0  0
  7 32  1  0  0  0  0
  8 33  1  0  0  0  0
  8 34  1  0  0  0  0
  9 35  1  0  0  0  0
 10 36  1  0  0  0  0
 12 37  1  0  0  0  0
 12 38  1  0  0  0  0
 12 39  1  0  0  0  0
 13 40  1  0  0  0  0
 13 41  1  0  0  0  0
 13 42  1  0  0  0  0
 14 43  1  0  0  0  0
 14 44  1  0  0  0  0
 14 45  1  0  0  0  0
 21 46  1  0  0  0  0
M  END
> <id>
EN300-691578

> <smiles>
CC(C)(C)OC(=O)N1C(COC21CN3CCC2CC3)C(=O)O

> <IUPAC Name>
3'-[(tert-butoxy)carbonyl]-4-azaspiro[bicyclo[2.2.2]octane-2,2'-[1,3]oxazolidine]-4'-carboxylic acid

> <CAS>
2137503-02-5

> <URL>
https://www.enaminestore.com/catalog/EN300-691578

> <ROCS_ShapeQuery>
__x1247relevant_x1083L0AP1_x1305L0BP1_

> <ROCS_TanimotoCombo>
0.726 

> <ROCS_ShapeTanimoto>
0.578 

> <ROCS_ColorTanimoto>
0.147 

> <ROCS_RefTversky>
0.504 

> <ROCS_RefColorTversky>
0.187 

> <ROCS_RefTverskyCombo>
0.691 

> <ROCS_FitTversky>
1.343 

> <ROCS_FitColorTversky>
0.408 

> <ROCS_FitTverskyCombo>
1.751 

> <ROCS_ColorScore>
-6.154

> <ROCS_Overlap>
1492.233

> <ROCS_Rank>
259                 

$$$$
untitled-dbase-53480_3
  -OEChem-06232314393D

 36 38  0     1  0  0  0  0  0999 V2000
  -13.8458   15.8424  -39.5806 C   0  0  0  0  0  0  0  0  0  0  0  0
  -13.7113   15.1850  -37.1672 C   0  0  0  0  0  0  0  0  0  0  0  0
  -13.0522   14.5842  -39.9573 C   0  0  0  0  0  0  0  0  0  0  0  0
  -12.9344   13.9260  -37.5738 C   0  0  0  0  0  0  0  0  0  0  0  0
   -9.7802   13.6159  -37.3261 C   0  0  0  0  0  0  0  0  0  0  0  0
  -11.9498   16.6596  -38.1611 C   0  0  0  0  0  0  0  0  0  0  0  0
   -9.2865   13.4996  -35.8962 C   0  0  0  0  0  0  0  0  0  0  0  0
  -10.6339   15.4040  -36.0439 C   0  0  0  0  0  0  0  0  0  0  0  0
  -13.4537   16.3202  -38.1726 C   0  0  0  0  0  0  0  0  0  0  0  0
  -12.0715   14.2170  -38.8198 C   0  0  0  0  0  0  0  0  0  0  0  0
  -11.1066   15.4124  -38.5413 C   0  0  2  0  0  0  0  0  0  0  0  0
  -10.1152   15.0890  -37.4373 C   0  0  2  0  0  0  0  0  0  0  0  0
  -10.2882   15.7176  -39.7250 N   0  0  0  0  0  0  0  0  0  0  0  0
   -9.9265   14.5367  -35.1403 O   0  0  0  0  0  0  0  0  0  0  0  0
   -8.9262   15.8377  -37.6894 O   0  0  0  0  0  0  0  0  0  0  0  0
  -13.6542   16.6343  -40.3147 H   0  0  0  0  0  0  0  0  0  0  0  0
  -14.9205   15.6290  -39.6228 H   0  0  0  0  0  0  0  0  0  0  0  0
  -14.7831   14.9584  -37.1181 H   0  0  0  0  0  0  0  0  0  0  0  0
  -13.4102   15.4979  -36.1603 H   0  0  0  0  0  0  0  0  0  0  0  0
  -13.7477   13.7532  -40.1307 H   0  0  0  0  0  0  0  0  0  0  0  0
  -12.5293   14.7344  -40.9080 H   0  0  0  0  0  0  0  0  0  0  0  0
  -12.3230   13.5703  -36.7380 H   0  0  0  0  0  0  0  0  0  0  0  0
  -13.6411   13.1151  -37.7914 H   0  0  0  0  0  0  0  0  0  0  0  0
   -9.0245   13.2739  -38.0420 H   0  0  0  0  0  0  0  0  0  0  0  0
  -10.6792   12.9977  -37.4500 H   0  0  0  0  0  0  0  0  0  0  0  0
  -11.7691   17.4914  -38.8551 H   0  0  0  0  0  0  0  0  0  0  0  0
  -11.6680   17.0371  -37.1698 H   0  0  0  0  0  0  0  0  0  0  0  0
   -9.5159   12.5262  -35.4534 H   0  0  0  0  0  0  0  0  0  0  0  0
   -8.2052   13.6624  -35.8355 H   0  0  0  0  0  0  0  0  0  0  0  0
  -10.4537   16.4413  -35.7406 H   0  0  0  0  0  0  0  0  0  0  0  0
  -11.7026   15.1819  -35.9360 H   0  0  0  0  0  0  0  0  0  0  0  0
  -14.0381   17.2053  -37.8985 H   0  0  0  0  0  0  0  0  0  0  0  0
  -11.5093   13.3166  -39.0956 H   0  0  0  0  0  0  0  0  0  0  0  0
  -10.9036   15.9560  -40.4619 H   0  0  0  0  0  0  0  0  0  0  0  0
   -9.6966   16.4756  -39.4926 H   0  0  0  0  0  0  0  0  0  0  0  0
   -8.5586   15.5060  -38.5244 H   0  0  0  0  0  0  0  0  0  0  0  0
  1  3  1  0  0  0  0
  1  9  1  0  0  0  0
  2  4  1  0  0  0  0
  2  9  1  0  0  0  0
  3 10  1  0  0  0  0
  4 10  1  0  0  0  0
  5  7  1  0  0  0  0
  5 12  1  0  0  0  0
  6  9  1  0  0  0  0
  6 11  1  0  0  0  0
  7 14  1  0  0  0  0
  8 12  1  0  0  0  0
  8 14  1  0  0  0  0
 10 11  1  0  0  0  0
 11 12  1  0  0  0  0
 11 13  1  0  0  0  0
 12 15  1  0  0  0  0
  1 16  1  0  0  0  0
  1 17  1  0  0  0  0
  2 18  1  0  0  0  0
  2 19  1  0  0  0  0
  3 20  1  0  0  0  0
  3 21  1  0  0  0  0
  4 22  1  0  0  0  0
  4 23  1  0  0  0  0
  5 24  1  0  0  0  0
  5 25  1  0  0  0  0
  6 26  1  0  0  0  0
  6 27  1  0  0  0  0
  7 28  1  0  0  0  0
  7 29  1  0  0  0  0
  8 30  1  0  0  0  0
  8 31  1  0  0  0  0
  9 32  1  0  0  0  0
 10 33  1  0  0  0  0
 13 34  1  0  0  0  0
 13 35  1  0  0  0  0
 15 36  1  0  0  0  0
M  END
> <id>
EN300-1646295

> <smiles>
NC1(CC2CCC1CC2)C3(O)CCOC3

> <IUPAC Name>
3-{2-aminobicyclo[2.2.2]octan-2-yl}oxolan-3-ol

> <CAS>
2171760-51-1

> <URL>
https://www.enaminestore.com/catalog/EN300-1646295

> <ROCS_ShapeQuery>
__x1247relevant_x1083L0AP1_x1305L0BP1_

> <ROCS_TanimotoCombo>
0.726 

> <ROCS_ShapeTanimoto>
0.510 

> <ROCS_ColorTanimoto>
0.215 

> <ROCS_RefTversky>
0.429 

> <ROCS_RefColorTversky>
0.248 

> <ROCS_RefTverskyCombo>
0.677 

> <ROCS_FitTversky>
1.591 

> <ROCS_FitColorTversky>
0.621 

> <ROCS_FitTverskyCombo>
2.212 

> <ROCS_ColorScore>
-8.118

> <ROCS_Overlap>
1263.315

> <ROCS_Rank>
260                 

$$$$
untitled-dbase-146567_976
  -OEChem-06232314393D

 38 39  0     1  0  0  0  0  0999 V2000
   -9.7470   14.3783  -36.4013 C   0  0  0  0  0  0  0  0  0  0  0  0
  -12.7401   13.1971  -38.3287 C   0  0  0  0  0  0  0  0  0  0  0  0
  -11.8787   16.2531  -38.2401 C   0  0  0  0  0  0  0  0  0  0  0  0
  -13.5876   14.4900  -38.4396 C   0  0  1  0  0  0  0  0  0  0  0  0
  -12.6235   15.1812  -37.4348 C   0  0  1  0  0  0  0  0  0  0  0  0
  -12.0689   13.7784  -37.0767 C   0  0  2  0  0  0  0  0  0  0  0  0
  -12.0731   15.8689  -39.7037 C   0  0  1  0  0  0  0  0  0  0  0  0
  -13.4783   15.2680  -39.7457 C   0  0  2  0  0  0  0  0  0  0  0  0
   -8.2023   16.4880  -36.3087 C   0  0  0  0  0  0  0  0  0  0  0  0
   -6.2422   15.0205  -36.8691 C   0  0  0  0  0  0  0  0  0  0  0  0
   -7.9090   15.6155  -38.6513 C   0  0  0  0  0  0  0  0  0  0  0  0
   -7.7098   15.3222  -37.1650 C   0  0  0  0  0  0  0  0  0  0  0  0
  -10.6234   13.7417  -37.2461 N   0  0  0  0  0  0  0  0  0  0  0  0
  -10.0483   15.0457  -35.4172 O   0  0  0  0  0  0  0  0  0  0  0  0
  -11.9628   16.9887  -40.5604 O   0  0  0  0  0  0  0  0  0  0  0  0
  -14.4806   16.2818  -39.7630 O   0  0  0  0  0  0  0  0  0  0  0  0
   -8.4671   14.1553  -36.8250 O   0  0  0  0  0  0  0  0  0  0  0  0
  -13.3167   12.2771  -38.1630 H   0  0  0  0  0  0  0  0  0  0  0  0
  -12.0549   13.0184  -39.1716 H   0  0  0  0  0  0  0  0  0  0  0  0
  -12.2758   17.2577  -38.0125 H   0  0  0  0  0  0  0  0  0  0  0  0
  -10.8022   16.2538  -37.9911 H   0  0  0  0  0  0  0  0  0  0  0  0
  -14.6117   14.3832  -38.0471 H   0  0  0  0  0  0  0  0  0  0  0  0
  -13.1538   15.6479  -36.5836 H   0  0  0  0  0  0  0  0  0  0  0  0
  -12.3871   13.3796  -36.1605 H   0  0  0  0  0  0  0  0  0  0  0  0
  -11.3124   15.1238  -40.0399 H   0  0  0  0  0  0  0  0  0  0  0  0
  -13.6068   14.6266  -40.6003 H   0  0  0  0  0  0  0  0  0  0  0  0
   -9.2553   16.7077  -36.5182 H   0  0  0  0  0  0  0  0  0  0  0  0
   -8.0972   16.2759  -35.2397 H   0  0  0  0  0  0  0  0  0  0  0  0
   -7.6443   17.4035  -36.5365 H   0  0  0  0  0  0  0  0  0  0  0  0
   -5.8846   14.1847  -37.4812 H   0  0  0  0  0  0  0  0  0  0  0  0
   -6.1091   14.7171  -35.8244 H   0  0  0  0  0  0  0  0  0  0  0  0
   -5.6044   15.8892  -37.0618 H   0  0  0  0  0  0  0  0  0  0  0  0
   -7.5558   14.7794  -39.2656 H   0  0  0  0  0  0  0  0  0  0  0  0
   -8.9620   15.7981  -38.8887 H   0  0  0  0  0  0  0  0  0  0  0  0
   -7.3260   16.4918  -38.9570 H   0  0  0  0  0  0  0  0  0  0  0  0
  -10.2452   13.2209  -38.0254 H   0  0  0  0  0  0  0  0  0  0  0  0
  -12.6539   17.6132  -40.2901 H   0  0  0  0  0  0  0  0  0  0  0  0
  -15.3405   15.8330  -39.6961 H   0  0  0  0  0  0  0  0  0  0  0  0
  1 13  1  0  0  0  0
  1 14  2  0  0  0  0
  1 17  1  0  0  0  0
  2  4  1  1  0  0  0
  2  6  1  0  0  0  0
  3  5  1  1  0  0  0
  3  7  1  0  0  0  0
  4  5  1  0  0  0  0
  4  8  1  0  0  0  0
  5  6  1  0  0  0  0
  6 13  1  1  0  0  0
  7  8  1  0  0  0  0
  7 15  1  6  0  0  0
  8 16  1  6  0  0  0
  9 12  1  0  0  0  0
 10 12  1  0  0  0  0
 11 12  1  0  0  0  0
 12 17  1  0  0  0  0
  2 18  1  0  0  0  0
  2 19  1  0  0  0  0
  3 20  1  0  0  0  0
  3 21  1  0  0  0  0
  4 22  1  0  0  0  0
  5 23  1  0  0  0  0
  6 24  1  0  0  0  0
  7 25  1  0  0  0  0
  8 26  1  0  0  0  0
  9 27  1  0  0  0  0
  9 28  1  0  0  0  0
  9 29  1  0  0  0  0
 10 30  1  0  0  0  0
 10 31  1  0  0  0  0
 10 32  1  0  0  0  0
 11 33  1  0  0  0  0
 11 34  1  0  0  0  0
 11 35  1  0  0  0  0
 13 36  1  0  0  0  0
 15 37  1  0  0  0  0
 16 38  1  0  0  0  0
M  END
> <id>
EN300-28228707

> <smiles>
CC(C)(C)OC(=O)N[C@@H]1C[C@H]2[C@@H]1C[C@H](O)[C@@H]2O |&1:8,10,11,13,15,r|

> <IUPAC Name>
rac-tert-butyl N-[(1R,2S,3R,5R,6S)-2,3-dihydroxybicyclo[3.2.0]heptan-6-yl]carbamate

> <CAS>
2639391-89-0

> <URL>
https://www.enaminestore.com/catalog/EN300-28228707

> <ROCS_ShapeQuery>
__x1247relevant_x1083L0AP1_x1305L0BP1_

> <ROCS_TanimotoCombo>
0.725 

> <ROCS_ShapeTanimoto>
0.487 

> <ROCS_ColorTanimoto>
0.238 

> <ROCS_RefTversky>
0.423 

> <ROCS_RefColorTversky>
0.270 

> <ROCS_RefTverskyCombo>
0.694 

> <ROCS_FitTversky>
1.452 

> <ROCS_FitColorTversky>
0.666 

> <ROCS_FitTverskyCombo>
2.118 

> <ROCS_ColorScore>
-8.858

> <ROCS_Overlap>
1247.727

> <ROCS_Rank>
261                 

$$$$
untitled-dbase-119945_2
  -OEChem-06232314393D

 23 25  0     1  0  0  0  0  0999 V2000
   -9.9986   15.0359  -36.6552 C   0  0  0  0  0  0  0  0  0  0  0  0
  -10.9219   15.0996  -39.0036 C   0  0  0  0  0  0  0  0  0  0  0  0
  -12.4094   16.5699  -37.8949 C   0  0  0  0  0  0  0  0  0  0  0  0
  -14.7054   15.0706  -38.6504 C   0  0  0  0  0  0  0  0  0  0  0  0
  -11.1150   14.5931  -37.5501 C   0  0  2  0  0  0  0  0  0  0  0  0
  -12.2250   15.8970  -39.2624 C   0  0  2  0  0  0  0  0  0  0  0  0
  -12.4753   15.2239  -37.1480 C   0  0  2  0  0  0  0  0  0  0  0  0
  -13.3719   14.8909  -39.3287 C   0  0  1  0  0  0  0  0  0  0  0  0
  -13.5514   14.4480  -37.9062 C   0  0  2  0  0  0  0  0  0  0  0  0
   -9.0294   15.6887  -37.0128 O   0  0  0  0  0  0  0  0  0  0  0  0
  -10.2060   14.6109  -35.3849 O   0  0  0  0  0  0  0  0  0  0  0  0
  -10.0434   15.7487  -39.0955 H   0  0  0  0  0  0  0  0  0  0  0  0
  -10.8107   14.2642  -39.7033 H   0  0  0  0  0  0  0  0  0  0  0  0
  -11.5628   17.2002  -37.6042 H   0  0  0  0  0  0  0  0  0  0  0  0
  -13.3244   17.1621  -37.8146 H   0  0  0  0  0  0  0  0  0  0  0  0
  -15.0478   16.0609  -38.3854 H   0  0  0  0  0  0  0  0  0  0  0  0
  -15.5119   14.4129  -38.9565 H   0  0  0  0  0  0  0  0  0  0  0  0
  -11.1453   13.4979  -37.5222 H   0  0  0  0  0  0  0  0  0  0  0  0
  -12.1800   16.5733  -40.1175 H   0  0  0  0  0  0  0  0  0  0  0  0
  -12.6555   15.3053  -36.0741 H   0  0  0  0  0  0  0  0  0  0  0  0
  -13.2766   14.1481  -40.1077 H   0  0  0  0  0  0  0  0  0  0  0  0
  -13.5897   13.3920  -37.6792 H   0  0  0  0  0  0  0  0  0  0  0  0
  -11.0406   14.1023  -35.3004 H   0  0  0  0  0  0  0  0  0  0  0  0
  1  5  1  0  0  0  0
  1 10  2  0  0  0  0
  1 11  1  0  0  0  0
  2  5  1  0  0  0  0
  2  6  1  0  0  0  0
  3  6  1  0  0  0  0
  3  7  1  0  0  0  0
  4  8  1  0  0  0  0
  4  9  1  0  0  0  0
  5  7  1  0  0  0  0
  6  8  1  0  0  0  0
  7  9  1  0  0  0  0
  8  9  1  0  0  0  0
  2 12  1  0  0  0  0
  2 13  1  0  0  0  0
  3 14  1  0  0  0  0
  3 15  1  0  0  0  0
  4 16  1  0  0  0  0
  4 17  1  0  0  0  0
  5 18  1  0  0  0  0
  6 19  1  0  0  0  0
  7 20  1  0  0  0  0
  8 21  1  0  0  0  0
  9 22  1  0  0  0  0
 11 23  1  0  0  0  0
M  END
> <id>
EN300-332666

> <smiles>
OC(=O)C1CC2CC1C3CC32

> <MDLNUMBER>
MFCD30497923

> <IUPAC Name>
tricyclo[3.2.1.0,2,4]octane-6-carboxylic acid

> <CAS>
2059975-65-2

> <Purity>
95

> <URL>
https://www.enaminestore.com/catalog/EN300-332666

> <ROCS_ShapeQuery>
__x1247relevant_x1083L0AP1_x1305L0BP1_

> <ROCS_TanimotoCombo>
0.725 

> <ROCS_ShapeTanimoto>
0.454 

> <ROCS_ColorTanimoto>
0.271 

> <ROCS_RefTversky>
0.379 

> <ROCS_RefColorTversky>
0.347 

> <ROCS_RefTverskyCombo>
0.726 

> <ROCS_FitTversky>
1.775 

> <ROCS_FitColorTversky>
0.555 

> <ROCS_FitTverskyCombo>
2.330 

> <ROCS_ColorScore>
-11.507

> <ROCS_Overlap>
1112.452

> <ROCS_Rank>
262                 

$$$$
untitled-dbase-69070_17
  -OEChem-06232314393D

 31 32  0     1  0  0  0  0  0999 V2000
  -12.3225   14.9080  -37.8535 C   0  0  0  0  0  0  0  0  0  0  0  0
   -9.1106   15.4846  -37.0598 C   0  0  0  0  0  0  0  0  0  0  0  0
  -10.3953   15.5910  -36.2437 C   0  0  0  0  0  0  0  0  0  0  0  0
   -9.2590   14.2178  -37.8864 C   0  0  0  0  0  0  0  0  0  0  0  0
  -11.3195   14.4998  -36.7877 C   0  0  2  0  0  0  0  0  0  0  0  0
  -15.0133   12.8972  -40.0078 C   0  0  0  0  0  0  0  0  0  0  0  0
  -14.4115   14.7350  -41.6327 C   0  0  0  0  0  0  0  0  0  0  0  0
  -16.1912   15.0835  -39.9355 C   0  0  0  0  0  0  0  0  0  0  0  0
  -14.8123   14.4199  -40.1742 C   0  0  0  0  0  0  0  0  0  0  0  0
  -12.4617   16.1917  -38.2906 N   0  0  0  0  0  0  0  0  0  0  0  0
  -13.1392   14.0370  -38.4515 N   0  0  0  0  0  0  0  0  0  0  0  0
  -13.4122   16.1616  -39.2165 N   0  0  0  0  0  0  0  0  0  0  0  0
  -13.7817   14.8747  -39.2775 N   0  0  0  0  0  0  0  0  0  0  0  0
  -10.3605   13.4921  -37.2628 N   0  0  0  0  0  0  0  0  0  0  0  0
   -9.0167   16.3618  -37.7222 H   0  0  0  0  0  0  0  0  0  0  0  0
   -8.2150   15.4623  -36.4201 H   0  0  0  0  0  0  0  0  0  0  0  0
  -10.1688   15.3912  -35.1864 H   0  0  0  0  0  0  0  0  0  0  0  0
  -10.8124   16.6054  -36.3057 H   0  0  0  0  0  0  0  0  0  0  0  0
   -9.4636   14.4390  -38.9467 H   0  0  0  0  0  0  0  0  0  0  0  0
   -8.3372   13.6118  -37.8495 H   0  0  0  0  0  0  0  0  0  0  0  0
  -11.8900   14.0577  -35.9353 H   0  0  0  0  0  0  0  0  0  0  0  0
  -15.2988   12.6462  -38.9797 H   0  0  0  0  0  0  0  0  0  0  0  0
  -15.8012   12.5087  -40.6618 H   0  0  0  0  0  0  0  0  0  0  0  0
  -14.0919   12.3517  -40.2427 H   0  0  0  0  0  0  0  0  0  0  0  0
  -14.2577   15.8065  -41.7987 H   0  0  0  0  0  0  0  0  0  0  0  0
  -13.4754   14.2327  -41.9029 H   0  0  0  0  0  0  0  0  0  0  0  0
  -15.1856   14.4011  -42.3333 H   0  0  0  0  0  0  0  0  0  0  0  0
  -16.1266   16.1736  -40.0377 H   0  0  0  0  0  0  0  0  0  0  0  0
  -16.9369   14.7382  -40.6610 H   0  0  0  0  0  0  0  0  0  0  0  0
  -16.5690   14.8783  -38.9271 H   0  0  0  0  0  0  0  0  0  0  0  0
  -10.8016   12.9173  -37.9858 H   0  0  0  0  0  0  0  0  0  0  0  0
  1  5  1  0  0  0  0
  1 10  1  0  0  0  0
  1 11  2  0  0  0  0
  2  3  1  0  0  0  0
  2  4  1  0  0  0  0
  3  5  1  0  0  0  0
  4 14  1  0  0  0  0
  5 14  1  0  0  0  0
  6  9  1  0  0  0  0
  7  9  1  0  0  0  0
  8  9  1  0  0  0  0
  9 13  1  0  0  0  0
 10 12  2  0  0  0  0
 11 13  1  0  0  0  0
 12 13  1  0  0  0  0
  2 15  1  0  0  0  0
  2 16  1  0  0  0  0
  3 17  1  0  0  0  0
  3 18  1  0  0  0  0
  4 19  1  0  0  0  0
  4 20  1  0  0  0  0
  5 21  1  0  0  0  0
  6 22  1  0  0  0  0
  6 23  1  0  0  0  0
  6 24  1  0  0  0  0
  7 25  1  0  0  0  0
  7 26  1  0  0  0  0
  7 27  1  0  0  0  0
  8 28  1  0  0  0  0
  8 29  1  0  0  0  0
  8 30  1  0  0  0  0
 14 31  1  0  0  0  0
M  END
> <id>
EN300-1827135

> <smiles>
CC(C)(C)N1N=NC(=N1)C2CCCN2

> <MDLNUMBER>
MFCD24509724

> <IUPAC Name>
2-tert-butyl-5-(pyrrolidin-2-yl)-2H-1,2,3,4-tetrazole

> <CAS>
1824320-61-7

> <URL>
https://www.enaminestore.com/catalog/EN300-1827135

> <ROCS_ShapeQuery>
__x1247relevant_x1083L0AP1_x1305L0BP1_

> <ROCS_TanimotoCombo>
0.725 

> <ROCS_ShapeTanimoto>
0.480 

> <ROCS_ColorTanimoto>
0.246 

> <ROCS_RefTversky>
0.406 

> <ROCS_RefColorTversky>
0.256 

> <ROCS_RefTverskyCombo>
0.662 

> <ROCS_FitTversky>
1.605 

> <ROCS_FitColorTversky>
0.864 

> <ROCS_FitTverskyCombo>
2.469 

> <ROCS_ColorScore>
-8.327

> <ROCS_Overlap>
1195.152

> <ROCS_Rank>
263                 

$$$$
untitled-dbase-171413_17
  -OEChem-06232314393D

 24 25  0     1  0  0  0  0  0999 V2000
  -13.2695   16.4322  -40.3142 C   0  0  0  0  0  0  0  0  0  0  0  0
   -9.8880   14.8663  -36.9992 C   0  0  0  0  0  0  0  0  0  0  0  0
  -12.7722   14.2706  -39.0569 C   0  0  0  0  0  0  0  0  0  0  0  0
  -11.3011   16.1179  -38.7191 C   0  0  0  0  0  0  0  0  0  0  0  0
  -13.2960   15.0954  -36.9469 C   0  0  0  0  0  0  0  0  0  0  0  0
  -12.2386   14.2309  -37.6355 C   0  0  2  0  0  0  0  0  0  0  0  0
  -12.7579   15.7940  -39.0693 C   0  0  1  0  0  0  0  0  0  0  0  0
   -9.9147   13.6728  -36.0792 C   0  0  0  0  0  0  0  0  0  0  0  0
  -11.0304   15.0575  -37.7455 N   0  0  0  0  0  0  0  0  0  0  0  0
  -12.6236   17.1746  -41.0388 O   0  0  0  0  0  0  0  0  0  0  0  0
   -8.8964   15.5946  -37.0531 O   0  0  0  0  0  0  0  0  0  0  0  0
  -13.5674   16.1370  -37.9273 O   0  0  0  0  0  0  0  0  0  0  0  0
  -14.5590   16.0795  -40.5379 O   0  0  0  0  0  0  0  0  0  0  0  0
  -12.1086   13.8127  -39.7981 H   0  0  0  0  0  0  0  0  0  0  0  0
  -13.7780   13.8450  -39.1465 H   0  0  0  0  0  0  0  0  0  0  0  0
  -10.6128   16.0172  -39.5639 H   0  0  0  0  0  0  0  0  0  0  0  0
  -11.1765   17.0932  -38.2391 H   0  0  0  0  0  0  0  0  0  0  0  0
  -14.2273   14.5485  -36.7685 H   0  0  0  0  0  0  0  0  0  0  0  0
  -12.9545   15.5504  -36.0122 H   0  0  0  0  0  0  0  0  0  0  0  0
  -12.0611   13.2547  -37.1821 H   0  0  0  0  0  0  0  0  0  0  0  0
   -9.5309   12.8069  -36.6089 H   0  0  0  0  0  0  0  0  0  0  0  0
  -10.9368   13.4902  -35.7624 H   0  0  0  0  0  0  0  0  0  0  0  0
   -9.2974   13.8794  -35.2105 H   0  0  0  0  0  0  0  0  0  0  0  0
  -14.8997   15.4766  -39.8431 H   0  0  0  0  0  0  0  0  0  0  0  0
  1  7  1  0  0  0  0
  1 10  2  0  0  0  0
  1 13  1  0  0  0  0
  2  8  1  0  0  0  0
  2  9  1  0  0  0  0
  2 11  2  0  0  0  0
  3  6  1  0  0  0  0
  3  7  1  0  0  0  0
  4  7  1  0  0  0  0
  4  9  1  0  0  0  0
  5  6  1  0  0  0  0
  5 12  1  0  0  0  0
  6  9  1  0  0  0  0
  7 12  1  0  0  0  0
  3 14  1  0  0  0  0
  3 15  1  0  0  0  0
  4 16  1  0  0  0  0
  4 17  1  0  0  0  0
  5 18  1  0  0  0  0
  5 19  1  0  0  0  0
  6 20  1  0  0  0  0
  8 21  1  0  0  0  0
  8 22  1  0  0  0  0
  8 23  1  0  0  0  0
 13 24  1  0  0  0  0
M  END
> <id>
EN300-39689768

> <smiles>
CC(=O)N1CC2(CC1CO2)C(=O)O

> <IUPAC Name>
5-acetyl-2-oxa-5-azabicyclo[2.2.1]heptane-1-carboxylic acid

> <URL>
https://www.enaminestore.com/catalog/EN300-39689768

> <ROCS_ShapeQuery>
__x1247relevant_x1083L0AP1_x1305L0BP1_

> <ROCS_TanimotoCombo>
0.725 

> <ROCS_ShapeTanimoto>
0.500 

> <ROCS_ColorTanimoto>
0.225 

> <ROCS_RefTversky>
0.415 

> <ROCS_RefColorTversky>
0.254 

> <ROCS_RefTverskyCombo>
0.669 

> <ROCS_FitTversky>
1.698 

> <ROCS_FitColorTversky>
0.662 

> <ROCS_FitTverskyCombo>
2.360 

> <ROCS_ColorScore>
-8.320

> <ROCS_Overlap>
1220.029

> <ROCS_Rank>
264                 

$$$$
untitled-dbase-171392_17
  -OEChem-06232314393D

 24 25  0     1  0  0  0  0  0999 V2000
  -13.2694   16.4332  -40.3134 C   0  0  0  0  0  0  0  0  0  0  0  0
   -9.8867   14.8649  -37.0007 C   0  0  0  0  0  0  0  0  0  0  0  0
  -12.7721   14.2710  -39.0572 C   0  0  0  0  0  0  0  0  0  0  0  0
  -11.3004   16.1178  -38.7192 C   0  0  0  0  0  0  0  0  0  0  0  0
  -13.2948   15.0951  -36.9466 C   0  0  0  0  0  0  0  0  0  0  0  0
  -12.2379   14.2305  -37.6360 C   0  0  2  0  0  0  0  0  0  0  0  0
  -12.7574   15.7945  -39.0689 C   0  0  1  0  0  0  0  0  0  0  0  0
   -9.9135   13.6710  -36.0812 C   0  0  0  0  0  0  0  0  0  0  0  0
  -11.0295   15.0568  -37.7462 N   0  0  0  0  0  0  0  0  0  0  0  0
  -12.6237   17.1757  -41.0380 O   0  0  0  0  0  0  0  0  0  0  0  0
   -8.8948   15.5925  -37.0549 O   0  0  0  0  0  0  0  0  0  0  0  0
  -13.5662   16.1372  -37.9264 O   0  0  0  0  0  0  0  0  0  0  0  0
  -14.5591   16.0809  -40.5366 O   0  0  0  0  0  0  0  0  0  0  0  0
  -12.1096   13.8127  -39.7991 H   0  0  0  0  0  0  0  0  0  0  0  0
  -13.7781   13.8457  -39.1455 H   0  0  0  0  0  0  0  0  0  0  0  0
  -10.6126   16.0176  -39.5644 H   0  0  0  0  0  0  0  0  0  0  0  0
  -11.1754   17.0931  -38.2389 H   0  0  0  0  0  0  0  0  0  0  0  0
  -14.2264   14.5485  -36.7682 H   0  0  0  0  0  0  0  0  0  0  0  0
  -12.9533   15.5495  -36.0115 H   0  0  0  0  0  0  0  0  0  0  0  0
  -12.0607   13.2541  -37.1833 H   0  0  0  0  0  0  0  0  0  0  0  0
   -9.5305   12.8052  -36.6116 H   0  0  0  0  0  0  0  0  0  0  0  0
  -10.9355   13.4888  -35.7639 H   0  0  0  0  0  0  0  0  0  0  0  0
   -9.2956   13.8769  -35.2129 H   0  0  0  0  0  0  0  0  0  0  0  0
  -14.8997   15.4778  -39.8419 H   0  0  0  0  0  0  0  0  0  0  0  0
  1  7  1  6  0  0  0
  1 10  2  0  0  0  0
  1 13  1  0  0  0  0
  2  8  1  0  0  0  0
  2  9  1  0  0  0  0
  2 11  2  0  0  0  0
  3  6  1  0  0  0  0
  3  7  1  0  0  0  0
  4  7  1  0  0  0  0
  4  9  1  0  0  0  0
  5  6  1  1  0  0  0
  5 12  1  0  0  0  0
  6  9  1  0  0  0  0
  7 12  1  0  0  0  0
  3 14  1  0  0  0  0
  3 15  1  0  0  0  0
  4 16  1  0  0  0  0
  4 17  1  0  0  0  0
  5 18  1  0  0  0  0
  5 19  1  0  0  0  0
  6 20  1  0  0  0  0
  8 21  1  0  0  0  0
  8 22  1  0  0  0  0
  8 23  1  0  0  0  0
 13 24  1  0  0  0  0
M  END
> <id>
EN300-39918118

> <smiles>
CC(=O)N1C[C@]2(C[C@@H]1CO2)C(=O)O

> <IUPAC Name>
(1R,4R)-5-acetyl-2-oxa-5-azabicyclo[2.2.1]heptane-1-carboxylic acid

> <URL>
https://www.enaminestore.com/catalog/EN300-39918118

> <ROCS_ShapeQuery>
__x1247relevant_x1083L0AP1_x1305L0BP1_

> <ROCS_TanimotoCombo>
0.725 

> <ROCS_ShapeTanimoto>
0.500 

> <ROCS_ColorTanimoto>
0.225 

> <ROCS_RefTversky>
0.415 

> <ROCS_RefColorTversky>
0.254 

> <ROCS_RefTverskyCombo>
0.669 

> <ROCS_FitTversky>
1.698 

> <ROCS_FitColorTversky>
0.662 

> <ROCS_FitTverskyCombo>
2.360 

> <ROCS_ColorScore>
-8.320

> <ROCS_Overlap>
1219.995

> <ROCS_Rank>
265                 

$$$$
untitled-dbase-161894_1
  -OEChem-06232314393D

 28 29  0     1  0  0  0  0  0999 V2000
  -12.4140   15.9471  -39.5867 C   0  0  0  0  0  0  0  0  0  0  0  0
  -10.3079   15.2092  -36.7872 C   0  0  0  0  0  0  0  0  0  0  0  0
  -13.9383   15.4301  -37.7917 C   0  0  0  0  0  0  0  0  0  0  0  0
  -12.7884   15.8016  -36.8325 C   0  0  0  0  0  0  0  0  0  0  0  0
  -13.1786   14.7806  -38.9702 C   0  0  2  0  0  0  0  0  0  0  0  0
  -11.5540   15.3030  -37.6041 C   0  0  2  0  0  0  0  0  0  0  0  0
  -12.0101   14.0189  -38.3060 C   0  0  0  0  0  0  0  0  0  0  0  0
  -14.0494   14.0244  -39.9462 C   0  0  0  0  0  0  0  0  0  0  0  0
  -12.4244   12.8742  -37.3654 C   0  0  0  0  0  0  0  0  0  0  0  0
  -10.9838   13.4418  -39.3050 C   0  0  0  0  0  0  0  0  0  0  0  0
  -12.6521   16.5472  -40.6189 O   0  0  0  0  0  0  0  0  0  0  0  0
   -9.2727   15.8180  -37.0136 O   0  0  0  0  0  0  0  0  0  0  0  0
  -11.3778   16.2211  -38.7105 O   0  0  0  0  0  0  0  0  0  0  0  0
  -10.4770   14.3493  -35.7531 O   0  0  0  0  0  0  0  0  0  0  0  0
  -14.6382   14.7359  -37.3147 H   0  0  0  0  0  0  0  0  0  0  0  0
  -14.5003   16.3208  -38.0954 H   0  0  0  0  0  0  0  0  0  0  0  0
  -12.7582   16.8852  -36.6707 H   0  0  0  0  0  0  0  0  0  0  0  0
  -12.9091   15.3150  -35.8591 H   0  0  0  0  0  0  0  0  0  0  0  0
  -14.5691   13.2031  -39.4430 H   0  0  0  0  0  0  0  0  0  0  0  0
  -13.4453   13.6037  -40.7560 H   0  0  0  0  0  0  0  0  0  0  0  0
  -14.8006   14.6876  -40.3866 H   0  0  0  0  0  0  0  0  0  0  0  0
  -11.5346   12.4085  -36.9547 H   0  0  0  0  0  0  0  0  0  0  0  0
  -12.9957   12.1405  -37.9245 H   0  0  0  0  0  0  0  0  0  0  0  0
  -13.0320   13.2745  -36.5604 H   0  0  0  0  0  0  0  0  0  0  0  0
  -10.2057   12.9282  -38.7536 H   0  0  0  0  0  0  0  0  0  0  0  0
  -10.5554   14.2545  -39.8788 H   0  0  0  0  0  0  0  0  0  0  0  0
  -11.4880   12.7477  -39.9664 H   0  0  0  0  0  0  0  0  0  0  0  0
   -9.6674   14.2722  -35.2045 H   0  0  0  0  0  0  0  0  0  0  0  0
  1  5  1  0  0  0  0
  1 11  2  0  0  0  0
  1 13  1  0  0  0  0
  2  6  1  6  0  0  0
  2 12  2  0  0  0  0
  2 14  1  0  0  0  0
  3  4  1  0  0  0  0
  3  5  1  0  0  0  0
  4  6  1  0  0  0  0
  5  7  1  0  0  0  0
  5  8  1  6  0  0  0
  6  7  1  0  0  0  0
  6 13  1  0  0  0  0
  7  9  1  0  0  0  0
  7 10  1  0  0  0  0
  3 15  1  0  0  0  0
  3 16  1  0  0  0  0
  4 17  1  0  0  0  0
  4 18  1  0  0  0  0
  8 19  1  0  0  0  0
  8 20  1  0  0  0  0
  8 21  1  0  0  0  0
  9 22  1  0  0  0  0
  9 23  1  0  0  0  0
  9 24  1  0  0  0  0
 10 25  1  0  0  0  0
 10 26  1  0  0  0  0
 10 27  1  0  0  0  0
 14 28  1  0  0  0  0
M  END
> <id>
EN300-322311

> <smiles>
CC1(C)[C@@]2(C)CC[C@@]1(OC2=O)C(=O)O

> <MDLNUMBER>
MFCD00044948

> <IUPAC Name>
(1S,4R)-4,7,7-trimethyl-3-oxo-2-oxabicyclo[2.2.1]heptane-1-carboxylic acid

> <CAS>
13429-83-9

> <Purity>
95

> <URL>
https://www.enaminestore.com/catalog/EN300-322311

> <MP>
201-204

> <ROCS_ShapeQuery>
__x1247relevant_x1083L0AP1_x1305L0BP1_

> <ROCS_TanimotoCombo>
0.725 

> <ROCS_ShapeTanimoto>
0.509 

> <ROCS_ColorTanimoto>
0.216 

> <ROCS_RefTversky>
0.425 

> <ROCS_RefColorTversky>
0.246 

> <ROCS_RefTverskyCombo>
0.670 

> <ROCS_FitTversky>
1.640 

> <ROCS_FitColorTversky>
0.641 

> <ROCS_FitTverskyCombo>
2.281 

> <ROCS_ColorScore>
-8.037

> <ROCS_Overlap>
1250.220

> <ROCS_Rank>
266                 

$$$$
untitled-dbase-169365_20
  -OEChem-06232314393D

 29 30  0     1  0  0  0  0  0999 V2000
  -13.1271   16.5924  -40.3774 C   0  0  0  0  0  0  0  0  0  0  0  0
   -9.7988   14.9273  -37.1964 C   0  0  0  0  0  0  0  0  0  0  0  0
  -14.1700   15.2251  -36.9949 C   0  0  0  0  0  0  0  0  0  0  0  0
  -13.0364   14.2306  -36.7116 C   0  0  0  0  0  0  0  0  0  0  0  0
  -13.8046   16.3494  -37.9742 C   0  0  0  0  0  0  0  0  0  0  0  0
  -12.7998   14.3807  -39.2132 C   0  0  0  0  0  0  0  0  0  0  0  0
  -11.3666   16.1837  -38.6571 C   0  0  0  0  0  0  0  0  0  0  0  0
  -12.0897   14.0187  -37.9078 C   0  0  1  0  0  0  0  0  0  0  0  0
  -12.8188   15.9107  -39.0798 C   0  0  1  0  0  0  0  0  0  0  0  0
   -9.5615   13.6535  -36.4263 C   0  0  0  0  0  0  0  0  0  0  0  0
  -11.0096   15.0182  -37.8584 N   0  0  0  0  0  0  0  0  0  0  0  0
  -12.3591   17.3219  -40.9868 O   0  0  0  0  0  0  0  0  0  0  0  0
   -8.9348   15.8059  -37.2240 O   0  0  0  0  0  0  0  0  0  0  0  0
  -14.3832   16.2925  -40.7891 O   0  0  0  0  0  0  0  0  0  0  0  0
  -10.6168   12.8275  -36.5419 F   0  0  0  0  0  0  0  0  0  0  0  0
   -8.4730   13.0140  -36.8909 F   0  0  0  0  0  0  0  0  0  0  0  0
   -9.3713   13.9140  -35.1203 F   0  0  0  0  0  0  0  0  0  0  0  0
  -15.0594   14.6852  -37.3599 H   0  0  0  0  0  0  0  0  0  0  0  0
  -14.4834   15.6812  -36.0399 H   0  0  0  0  0  0  0  0  0  0  0  0
  -12.4662   14.5698  -35.8314 H   0  0  0  0  0  0  0  0  0  0  0  0
  -13.4756   13.2589  -36.4300 H   0  0  0  0  0  0  0  0  0  0  0  0
  -14.7272   16.7226  -38.4443 H   0  0  0  0  0  0  0  0  0  0  0  0
  -13.3934   17.2002  -37.4119 H   0  0  0  0  0  0  0  0  0  0  0  0
  -12.2138   14.0612  -40.0821 H   0  0  0  0  0  0  0  0  0  0  0  0
  -13.7985   13.9436  -39.2976 H   0  0  0  0  0  0  0  0  0  0  0  0
  -10.6837   16.2333  -39.5150 H   0  0  0  0  0  0  0  0  0  0  0  0
  -11.2523   17.1033  -38.0714 H   0  0  0  0  0  0  0  0  0  0  0  0
  -11.6773   13.0042  -37.9087 H   0  0  0  0  0  0  0  0  0  0  0  0
  -14.6053   16.7316  -41.6377 H   0  0  0  0  0  0  0  0  0  0  0  0
  1  9  1  0  0  0  0
  1 12  2  0  0  0  0
  1 14  1  0  0  0  0
  2 10  1  0  0  0  0
  2 11  1  0  0  0  0
  2 13  2  0  0  0  0
  3  4  1  0  0  0  0
  3  5  1  0  0  0  0
  4  8  1  0  0  0  0
  5  9  1  0  0  0  0
  6  8  1  0  0  0  0
  6  9  1  0  0  0  0
  7  9  1  0  0  0  0
  7 11  1  0  0  0  0
  8 11  1  0  0  0  0
 10 15  1  0  0  0  0
 10 16  1  0  0  0  0
 10 17  1  0  0  0  0
  3 18  1  0  0  0  0
  3 19  1  0  0  0  0
  4 20  1  0  0  0  0
  4 21  1  0  0  0  0
  5 22  1  0  0  0  0
  5 23  1  0  0  0  0
  6 24  1  0  0  0  0
  6 25  1  0  0  0  0
  7 26  1  0  0  0  0
  7 27  1  0  0  0  0
  8 28  1  0  0  0  0
 14 29  1  0  0  0  0
M  END
> <id>
EN300-37344204

> <smiles>
OC(=O)C1(CC2CCC1)CN2C(=O)C(F)(F)F

> <IUPAC Name>
6-(2,2,2-trifluoroacetyl)-6-azabicyclo[3.2.1]octane-1-carboxylic acid

> <CAS>
2763955-90-2

> <URL>
https://www.enaminestore.com/catalog/EN300-37344204

> <ROCS_ShapeQuery>
__x1247relevant_x1083L0AP1_x1305L0BP1_

> <ROCS_TanimotoCombo>
0.725 

> <ROCS_ShapeTanimoto>
0.524 

> <ROCS_ColorTanimoto>
0.201 

> <ROCS_RefTversky>
0.448 

> <ROCS_RefColorTversky>
0.224 

> <ROCS_RefTverskyCombo>
0.672 

> <ROCS_FitTversky>
1.480 

> <ROCS_FitColorTversky>
0.660 

> <ROCS_FitTverskyCombo>
2.140 

> <ROCS_ColorScore>
-7.301

> <ROCS_Overlap>
1322.339

> <ROCS_Rank>
267                 

$$$$
untitled-dbase-119085_11
  -OEChem-06232314393D

 29 30  0     1  0  0  0  0  0999 V2000
  -10.3527   15.1161  -36.4338 C   0  0  0  0  0  0  0  0  0  0  0  0
  -12.1606   14.2978  -38.9042 C   0  0  0  0  0  0  0  0  0  0  0  0
  -11.5646   15.7326  -37.0713 C   0  0  1  0  0  0  0  0  0  0  0  0
  -11.4747   15.6392  -38.6120 C   0  0  2  0  0  0  0  0  0  0  0  0
  -13.4451   14.6868  -38.1664 C   0  0  1  0  0  0  0  0  0  0  0  0
  -12.9107   15.0274  -36.7515 C   0  0  1  0  0  0  0  0  0  0  0  0
  -12.4780   16.6389  -39.2238 C   0  0  2  0  0  0  0  0  0  0  0  0
  -13.8406   16.0037  -38.8773 C   0  0  1  0  0  0  0  0  0  0  0  0
   -8.0012   15.3036  -36.2954 C   0  0  0  0  0  0  0  0  0  0  0  0
  -12.7749   13.8182  -35.9444 N   0  0  0  0  0  0  0  0  0  0  0  0
  -10.3907   14.1565  -35.6755 O   0  0  0  0  0  0  0  0  0  0  0  0
  -12.2649   16.7301  -40.6241 O   0  0  0  0  0  0  0  0  0  0  0  0
  -14.6333   15.7456  -40.0251 O   0  0  0  0  0  0  0  0  0  0  0  0
   -9.2358   15.7890  -36.8322 O   0  0  0  0  0  0  0  0  0  0  0  0
  -12.3168   14.1161  -39.9729 H   0  0  0  0  0  0  0  0  0  0  0  0
  -11.6406   13.4375  -38.4733 H   0  0  0  0  0  0  0  0  0  0  0  0
  -11.5905   16.7748  -36.7332 H   0  0  0  0  0  0  0  0  0  0  0  0
  -10.4652   15.7109  -39.0255 H   0  0  0  0  0  0  0  0  0  0  0  0
  -14.2272   13.9233  -38.1923 H   0  0  0  0  0  0  0  0  0  0  0  0
  -13.5841   15.7051  -36.2357 H   0  0  0  0  0  0  0  0  0  0  0  0
  -12.3669   17.6361  -38.7885 H   0  0  0  0  0  0  0  0  0  0  0  0
  -14.4236   16.6543  -38.1980 H   0  0  0  0  0  0  0  0  0  0  0  0
   -7.1747   15.9089  -36.6756 H   0  0  0  0  0  0  0  0  0  0  0  0
   -7.8637   14.2582  -36.5831 H   0  0  0  0  0  0  0  0  0  0  0  0
   -8.0335   15.3784  -35.2058 H   0  0  0  0  0  0  0  0  0  0  0  0
  -12.4052   14.0753  -35.0600 H   0  0  0  0  0  0  0  0  0  0  0  0
  -13.6739   13.4102  -35.8438 H   0  0  0  0  0  0  0  0  0  0  0  0
  -12.9138   17.3663  -40.9676 H   0  0  0  0  0  0  0  0  0  0  0  0
  -14.0981   15.1947  -40.6201 H   0  0  0  0  0  0  0  0  0  0  0  0
  1  3  1  1  0  0  0
  1 11  2  0  0  0  0
  1 14  1  0  0  0  0
  2  4  1  1  0  0  0
  2  5  1  1  0  0  0
  3  4  1  0  0  0  0
  3  6  1  0  0  0  0
  4  7  1  0  0  0  0
  5  6  1  0  0  0  0
  5  8  1  0  0  0  0
  6 10  1  1  0  0  0
  7  8  1  0  0  0  0
  7 12  1  1  0  0  0
  8 13  1  1  0  0  0
  9 14  1  0  0  0  0
  2 15  1  0  0  0  0
  2 16  1  0  0  0  0
  3 17  1  0  0  0  0
  4 18  1  0  0  0  0
  5 19  1  0  0  0  0
  6 20  1  0  0  0  0
  7 21  1  0  0  0  0
  8 22  1  0  0  0  0
  9 23  1  0  0  0  0
  9 24  1  0  0  0  0
  9 25  1  0  0  0  0
 10 26  1  0  0  0  0
 10 27  1  0  0  0  0
 12 28  1  0  0  0  0
 13 29  1  0  0  0  0
M  END
> <id>
EN300-26978991

> <smiles>
Cl.COC(=O)[C@@H]1[C@H](N)[C@@H]2C[C@H]1[C@@H](O)[C@H]2O |&1:5,6,8,10,11,13,r|

> <IUPAC Name>
rac-methyl (1R,2S,3R,4S,5S,6R)-3-amino-5,6-dihydroxybicyclo[2.2.1]heptane-2-carboxylate hydrochloride

> <CAS>
2445750-70-7

> <Purity>
95

> <URL>
https://www.enaminestore.com/catalog/EN300-26978991

> <Saltdate>
Cl

> <ROCS_ShapeQuery>
__x1247relevant_x1083L0AP1_x1305L0BP1_

> <ROCS_TanimotoCombo>
0.725 

> <ROCS_ShapeTanimoto>
0.493 

> <ROCS_ColorTanimoto>
0.232 

> <ROCS_RefTversky>
0.414 

> <ROCS_RefColorTversky>
0.271 

> <ROCS_RefTverskyCombo>
0.684 

> <ROCS_FitTversky>
1.636 

> <ROCS_FitColorTversky>
0.619 

> <ROCS_FitTverskyCombo>
2.256 

> <ROCS_ColorScore>
-8.880

> <ROCS_Overlap>
1216.954

> <ROCS_Rank>
268                 

$$$$
untitled-dbase-109831_11
  -OEChem-06232314393D

 29 30  0     1  0  0  0  0  0999 V2000
  -10.3527   15.1161  -36.4338 C   0  0  0  0  0  0  0  0  0  0  0  0
  -12.1606   14.2978  -38.9042 C   0  0  0  0  0  0  0  0  0  0  0  0
  -11.5646   15.7326  -37.0713 C   0  0  1  0  0  0  0  0  0  0  0  0
  -11.4747   15.6392  -38.6120 C   0  0  2  0  0  0  0  0  0  0  0  0
  -13.4451   14.6868  -38.1664 C   0  0  1  0  0  0  0  0  0  0  0  0
  -12.9107   15.0274  -36.7515 C   0  0  1  0  0  0  0  0  0  0  0  0
  -12.4780   16.6389  -39.2238 C   0  0  2  0  0  0  0  0  0  0  0  0
  -13.8406   16.0037  -38.8773 C   0  0  1  0  0  0  0  0  0  0  0  0
   -8.0012   15.3036  -36.2954 C   0  0  0  0  0  0  0  0  0  0  0  0
  -12.7749   13.8182  -35.9444 N   0  0  0  0  0  0  0  0  0  0  0  0
  -10.3907   14.1565  -35.6755 O   0  0  0  0  0  0  0  0  0  0  0  0
  -12.2649   16.7301  -40.6241 O   0  0  0  0  0  0  0  0  0  0  0  0
  -14.6333   15.7456  -40.0251 O   0  0  0  0  0  0  0  0  0  0  0  0
   -9.2358   15.7890  -36.8322 O   0  0  0  0  0  0  0  0  0  0  0  0
  -12.3168   14.1161  -39.9729 H   0  0  0  0  0  0  0  0  0  0  0  0
  -11.6406   13.4375  -38.4733 H   0  0  0  0  0  0  0  0  0  0  0  0
  -11.5905   16.7748  -36.7332 H   0  0  0  0  0  0  0  0  0  0  0  0
  -10.4652   15.7109  -39.0255 H   0  0  0  0  0  0  0  0  0  0  0  0
  -14.2272   13.9233  -38.1923 H   0  0  0  0  0  0  0  0  0  0  0  0
  -13.5841   15.7051  -36.2357 H   0  0  0  0  0  0  0  0  0  0  0  0
  -12.3669   17.6361  -38.7885 H   0  0  0  0  0  0  0  0  0  0  0  0
  -14.4236   16.6543  -38.1980 H   0  0  0  0  0  0  0  0  0  0  0  0
   -7.1747   15.9089  -36.6756 H   0  0  0  0  0  0  0  0  0  0  0  0
   -7.8637   14.2582  -36.5831 H   0  0  0  0  0  0  0  0  0  0  0  0
   -8.0335   15.3784  -35.2058 H   0  0  0  0  0  0  0  0  0  0  0  0
  -12.4052   14.0753  -35.0600 H   0  0  0  0  0  0  0  0  0  0  0  0
  -13.6739   13.4102  -35.8438 H   0  0  0  0  0  0  0  0  0  0  0  0
  -12.9138   17.3663  -40.9676 H   0  0  0  0  0  0  0  0  0  0  0  0
  -14.0981   15.1947  -40.6201 H   0  0  0  0  0  0  0  0  0  0  0  0
  1  3  1  1  0  0  0
  1 11  2  0  0  0  0
  1 14  1  0  0  0  0
  2  4  1  1  0  0  0
  2  5  1  1  0  0  0
  3  4  1  0  0  0  0
  3  6  1  0  0  0  0
  4  7  1  0  0  0  0
  5  6  1  0  0  0  0
  5  8  1  0  0  0  0
  6 10  1  1  0  0  0
  7  8  1  0  0  0  0
  7 12  1  1  0  0  0
  8 13  1  1  0  0  0
  9 14  1  0  0  0  0
  2 15  1  0  0  0  0
  2 16  1  0  0  0  0
  3 17  1  0  0  0  0
  4 18  1  0  0  0  0
  5 19  1  0  0  0  0
  6 20  1  0  0  0  0
  7 21  1  0  0  0  0
  8 22  1  0  0  0  0
  9 23  1  0  0  0  0
  9 24  1  0  0  0  0
  9 25  1  0  0  0  0
 10 26  1  0  0  0  0
 10 27  1  0  0  0  0
 12 28  1  0  0  0  0
 13 29  1  0  0  0  0
M  END
> <id>
EN300-26978992

> <smiles>
COC(=O)[C@@H]1[C@H](N)[C@@H]2C[C@H]1[C@@H](O)[C@H]2O |&1:4,5,7,9,10,12,r|

> <IUPAC Name>
rac-methyl (1R,2S,3R,4S,5S,6R)-3-amino-5,6-dihydroxybicyclo[2.2.1]heptane-2-carboxylate

> <CAS>
2445750-69-4

> <URL>
https://www.enaminestore.com/catalog/EN300-26978992

> <ROCS_ShapeQuery>
__x1247relevant_x1083L0AP1_x1305L0BP1_

> <ROCS_TanimotoCombo>
0.725 

> <ROCS_ShapeTanimoto>
0.493 

> <ROCS_ColorTanimoto>
0.232 

> <ROCS_RefTversky>
0.414 

> <ROCS_RefColorTversky>
0.271 

> <ROCS_RefTverskyCombo>
0.684 

> <ROCS_FitTversky>
1.636 

> <ROCS_FitColorTversky>
0.619 

> <ROCS_FitTverskyCombo>
2.256 

> <ROCS_ColorScore>
-8.880

> <ROCS_Overlap>
1216.954

> <ROCS_Rank>
269                 

$$$$
untitled-dbase-30673_1
  -OEChem-06232314393D

 28 29  0     1  0  0  0  0  0999 V2000
  -12.4140   15.9430  -39.5836 C   0  0  0  0  0  0  0  0  0  0  0  0
  -10.3094   15.2082  -36.7908 C   0  0  0  0  0  0  0  0  0  0  0  0
  -13.9378   15.4332  -37.7859 C   0  0  0  0  0  0  0  0  0  0  0  0
  -12.7857   15.8069  -36.8299 C   0  0  0  0  0  0  0  0  0  0  0  0
  -13.1809   14.7788  -38.9645 C   0  0  2  0  0  0  0  0  0  0  0  0
  -11.5540   15.3079  -37.6104 C   0  0  2  0  0  0  0  0  0  0  0  0
  -12.0118   14.0148  -38.3017 C   0  0  0  0  0  0  0  0  0  0  0  0
  -14.0550   14.0225  -39.9373 C   0  0  0  0  0  0  0  0  0  0  0  0
  -12.4259   12.8764  -37.3539 C   0  0  0  0  0  0  0  0  0  0  0  0
  -10.9897   13.4328  -39.3014 C   0  0  0  0  0  0  0  0  0  0  0  0
  -12.6518   16.5415  -40.6169 O   0  0  0  0  0  0  0  0  0  0  0  0
   -9.2727   15.8162  -37.0123 O   0  0  0  0  0  0  0  0  0  0  0  0
  -11.3764   16.2174  -38.7085 O   0  0  0  0  0  0  0  0  0  0  0  0
  -10.4824   14.3443  -35.7608 O   0  0  0  0  0  0  0  0  0  0  0  0
  -14.6376   14.7416  -37.3053 H   0  0  0  0  0  0  0  0  0  0  0  0
  -14.4990   16.3236  -38.0915 H   0  0  0  0  0  0  0  0  0  0  0  0
  -12.7554   16.8907  -36.6697 H   0  0  0  0  0  0  0  0  0  0  0  0
  -12.9015   15.3204  -35.8560 H   0  0  0  0  0  0  0  0  0  0  0  0
  -14.5755   13.2032  -39.4316 H   0  0  0  0  0  0  0  0  0  0  0  0
  -13.4532   13.5987  -40.7474 H   0  0  0  0  0  0  0  0  0  0  0  0
  -14.8056   14.6862  -40.3779 H   0  0  0  0  0  0  0  0  0  0  0  0
  -11.5361   12.4090  -36.9450 H   0  0  0  0  0  0  0  0  0  0  0  0
  -13.0029   12.1421  -37.9066 H   0  0  0  0  0  0  0  0  0  0  0  0
  -13.0282   13.2827  -36.5477 H   0  0  0  0  0  0  0  0  0  0  0  0
  -10.2114   12.9183  -38.7509 H   0  0  0  0  0  0  0  0  0  0  0  0
  -10.5602   14.2428  -39.8784 H   0  0  0  0  0  0  0  0  0  0  0  0
  -11.4970   12.7383  -39.9603 H   0  0  0  0  0  0  0  0  0  0  0  0
   -9.6742   14.2634  -35.2108 H   0  0  0  0  0  0  0  0  0  0  0  0
  1  5  1  0  0  0  0
  1 11  2  0  0  0  0
  1 13  1  0  0  0  0
  2  6  1  0  0  0  0
  2 12  2  0  0  0  0
  2 14  1  0  0  0  0
  3  4  1  0  0  0  0
  3  5  1  0  0  0  0
  4  6  1  0  0  0  0
  5  7  1  0  0  0  0
  5  8  1  0  0  0  0
  6  7  1  0  0  0  0
  6 13  1  0  0  0  0
  7  9  1  0  0  0  0
  7 10  1  0  0  0  0
  3 15  1  0  0  0  0
  3 16  1  0  0  0  0
  4 17  1  0  0  0  0
  4 18  1  0  0  0  0
  8 19  1  0  0  0  0
  8 20  1  0  0  0  0
  8 21  1  0  0  0  0
  9 22  1  0  0  0  0
  9 23  1  0  0  0  0
  9 24  1  0  0  0  0
 10 25  1  0  0  0  0
 10 26  1  0  0  0  0
 10 27  1  0  0  0  0
 14 28  1  0  0  0  0
M  END
> <id>
EN300-105575

> <smiles>
CC1(C)C2(C)CCC1(OC2=O)C(=O)O

> <MDLNUMBER>
MFCD02179756

> <IUPAC Name>
4,7,7-trimethyl-3-oxo-2-oxabicyclo[2.2.1]heptane-1-carboxylic acid

> <CAS>
465-48-5

> <URL>
https://www.enaminestore.com/catalog/EN300-105575

> <ROCS_ShapeQuery>
__x1247relevant_x1083L0AP1_x1305L0BP1_

> <ROCS_TanimotoCombo>
0.725 

> <ROCS_ShapeTanimoto>
0.509 

> <ROCS_ColorTanimoto>
0.215 

> <ROCS_RefTversky>
0.425 

> <ROCS_RefColorTversky>
0.245 

> <ROCS_RefTverskyCombo>
0.670 

> <ROCS_FitTversky>
1.640 

> <ROCS_FitColorTversky>
0.640 

> <ROCS_FitTverskyCombo>
2.280 

> <ROCS_ColorScore>
-8.024

> <ROCS_Overlap>
1250.566

> <ROCS_Rank>
270                 

$$$$
untitled-dbase-153041_10
  -OEChem-06232314393D

 26 27  0     0  0  0  0  0  0999 V2000
  -13.0354   16.6052  -40.3935 C   0  0  0  0  0  0  0  0  0  0  0  0
   -9.7114   15.0001  -37.0357 C   0  0  0  0  0  0  0  0  0  0  0  0
  -13.5751   16.1204  -37.8529 C   0  0  0  0  0  0  0  0  0  0  0  0
  -13.4482   14.3766  -39.0503 C   0  0  0  0  0  0  0  0  0  0  0  0
  -11.2485   15.6452  -38.8371 C   0  0  0  0  0  0  0  0  0  0  0  0
  -12.1109   14.2467  -36.8822 C   0  0  0  0  0  0  0  0  0  0  0  0
  -12.7451   15.7669  -39.1288 C   0  0  0  0  0  0  0  0  0  0  0  0
  -13.4412   14.6107  -37.5194 C   0  0  0  0  0  0  0  0  0  0  0  0
   -9.3231   13.8346  -36.1586 C   0  0  0  0  0  0  0  0  0  0  0  0
  -11.0195   14.9912  -37.5374 N   0  0  0  0  0  0  0  0  0  0  0  0
  -12.2155   17.2938  -40.9825 O   0  0  0  0  0  0  0  0  0  0  0  0
   -8.8911   15.8920  -37.2657 O   0  0  0  0  0  0  0  0  0  0  0  0
  -14.3324   16.4769  -40.7656 O   0  0  0  0  0  0  0  0  0  0  0  0
  -14.4596   14.0556  -36.8285 F   0  0  0  0  0  0  0  0  0  0  0  0
  -10.3536   12.9814  -36.0262 F   0  0  0  0  0  0  0  0  0  0  0  0
   -8.2862   13.1662  -36.6928 F   0  0  0  0  0  0  0  0  0  0  0  0
   -8.9661   14.2601  -34.9341 F   0  0  0  0  0  0  0  0  0  0  0  0
  -13.1174   16.8199  -37.1471 H   0  0  0  0  0  0  0  0  0  0  0  0
  -14.6038   16.4480  -38.0473 H   0  0  0  0  0  0  0  0  0  0  0  0
  -14.4506   14.3402  -39.4943 H   0  0  0  0  0  0  0  0  0  0  0  0
  -12.8780   13.5170  -39.4151 H   0  0  0  0  0  0  0  0  0  0  0  0
  -10.7413   15.0504  -39.6062 H   0  0  0  0  0  0  0  0  0  0  0  0
  -10.7720   16.6324  -38.8106 H   0  0  0  0  0  0  0  0  0  0  0  0
  -12.1187   14.4947  -35.8163 H   0  0  0  0  0  0  0  0  0  0  0  0
  -11.9050   13.1757  -36.9839 H   0  0  0  0  0  0  0  0  0  0  0  0
  -14.5375   17.0041  -41.5671 H   0  0  0  0  0  0  0  0  0  0  0  0
  1  7  1  0  0  0  0
  1 11  2  0  0  0  0
  1 13  1  0  0  0  0
  2  9  1  0  0  0  0
  2 10  1  0  0  0  0
  2 12  2  0  0  0  0
  3  7  1  0  0  0  0
  3  8  1  0  0  0  0
  4  7  1  0  0  0  0
  4  8  1  0  0  0  0
  5  7  1  0  0  0  0
  5 10  1  0  0  0  0
  6  8  1  0  0  0  0
  6 10  1  0  0  0  0
  8 14  1  0  0  0  0
  9 15  1  0  0  0  0
  9 16  1  0  0  0  0
  9 17  1  0  0  0  0
  3 18  1  0  0  0  0
  3 19  1  0  0  0  0
  4 20  1  0  0  0  0
  4 21  1  0  0  0  0
  5 22  1  0  0  0  0
  5 23  1  0  0  0  0
  6 24  1  0  0  0  0
  6 25  1  0  0  0  0
 13 26  1  0  0  0  0
M  END
> <id>
EN300-28279670

> <smiles>
OC(=O)C1(CC2(F)C1)CN(C2)C(=O)C(F)(F)F

> <IUPAC Name>
5-fluoro-3-(2,2,2-trifluoroacetyl)-3-azabicyclo[3.1.1]heptane-1-carboxylic acid

> <CAS>
2680734-93-2

> <URL>
https://www.enaminestore.com/catalog/EN300-28279670

> <ROCS_ShapeQuery>
__x1247relevant_x1083L0AP1_x1305L0BP1_

> <ROCS_TanimotoCombo>
0.725 

> <ROCS_ShapeTanimoto>
0.521 

> <ROCS_ColorTanimoto>
0.203 

> <ROCS_RefTversky>
0.446 

> <ROCS_RefColorTversky>
0.228 

> <ROCS_RefTverskyCombo>
0.674 

> <ROCS_FitTversky>
1.475 

> <ROCS_FitColorTversky>
0.656 

> <ROCS_FitTverskyCombo>
2.131 

> <ROCS_ColorScore>
-7.439

> <ROCS_Overlap>
1316.703

> <ROCS_Rank>
271                 

$$$$
untitled-dbase-131409_7
  -OEChem-06232314393D

 19 21  0     1  0  0  0  0  0999 V2000
  -11.5212   15.8933  -39.0532 C   0  0  0  0  0  0  0  0  0  0  0  0
  -10.2526   15.2482  -36.8397 C   0  0  0  0  0  0  0  0  0  0  0  0
  -13.6615   16.2113  -38.1120 C   0  0  0  0  0  0  0  0  0  0  0  0
  -13.0358   14.0844  -39.0913 C   0  0  0  0  0  0  0  0  0  0  0  0
  -12.9846   15.6165  -39.3868 C   0  0  0  0  0  0  0  0  0  0  0  0
  -12.8179   15.4602  -37.0998 C   0  0  1  0  0  0  0  0  0  0  0  0
  -12.4338   14.1545  -37.7010 C   0  0  2  0  0  0  0  0  0  0  0  0
  -11.4363   15.2894  -37.6874 C   0  0  0  0  0  0  0  0  0  0  0  0
  -10.6405   16.4414  -39.6810 O   0  0  0  0  0  0  0  0  0  0  0  0
   -9.1600   15.7076  -37.1372 O   0  0  0  0  0  0  0  0  0  0  0  0
  -10.5249   14.6249  -35.6672 O   0  0  0  0  0  0  0  0  0  0  0  0
  -13.5231   17.2936  -38.0271 H   0  0  0  0  0  0  0  0  0  0  0  0
  -14.7206   15.9479  -38.0388 H   0  0  0  0  0  0  0  0  0  0  0  0
  -14.0579   13.6949  -39.0761 H   0  0  0  0  0  0  0  0  0  0  0  0
  -12.4079   13.5022  -39.7729 H   0  0  0  0  0  0  0  0  0  0  0  0
  -13.3329   15.9609  -40.3573 H   0  0  0  0  0  0  0  0  0  0  0  0
  -13.0000   15.5902  -36.0510 H   0  0  0  0  0  0  0  0  0  0  0  0
  -12.3140   13.2580  -37.1249 H   0  0  0  0  0  0  0  0  0  0  0  0
   -9.7385   14.5852  -35.0821 H   0  0  0  0  0  0  0  0  0  0  0  0
  1  5  1  0  0  0  0
  1  8  1  0  0  0  0
  1  9  2  0  0  0  0
  2  8  1  0  0  0  0
  2 10  2  0  0  0  0
  2 11  1  0  0  0  0
  3  5  1  0  0  0  0
  3  6  1  0  0  0  0
  4  5  1  0  0  0  0
  4  7  1  0  0  0  0
  6  7  1  0  0  0  0
  6  8  1  0  0  0  0
  7  8  1  0  0  0  0
  3 12  1  0  0  0  0
  3 13  1  0  0  0  0
  4 14  1  0  0  0  0
  4 15  1  0  0  0  0
  5 16  1  0  0  0  0
  6 17  1  0  0  0  0
  7 18  1  0  0  0  0
 11 19  1  0  0  0  0
M  END
> <id>
EN300-7492304

> <smiles>
OC(=O)C1(C2CC3CC21)C3=O

> <MDLNUMBER>
MFCD32667715

> <IUPAC Name>
7-oxotricyclo[2.2.1.0,2,6]heptane-1-carboxylic acid

> <CAS>
2416230-69-6

> <Purity>
95

> <URL>
https://www.enaminestore.com/catalog/EN300-7492304

> <ROCS_ShapeQuery>
__x1247relevant_x1083L0AP1_x1305L0BP1_

> <ROCS_TanimotoCombo>
0.725 

> <ROCS_ShapeTanimoto>
0.461 

> <ROCS_ColorTanimoto>
0.263 

> <ROCS_RefTversky>
0.385 

> <ROCS_RefColorTversky>
0.408 

> <ROCS_RefTverskyCombo>
0.792 

> <ROCS_FitTversky>
1.761 

> <ROCS_FitColorTversky>
0.427 

> <ROCS_FitTverskyCombo>
2.187 

> <ROCS_ColorScore>
-13.761

> <ROCS_Overlap>
1129.716

> <ROCS_Rank>
272                 

$$$$
untitled-dbase-153241_25
  -OEChem-06232314393D

 27 28  0     1  0  0  0  0  0999 V2000
  -10.2122   14.9020  -36.6181 C   0  0  0  0  0  0  0  0  0  0  0  0
  -12.4999   12.7981  -37.1472 C   0  0  0  0  0  0  0  0  0  0  0  0
  -12.6665   16.4280  -37.6230 C   0  0  0  0  0  0  0  0  0  0  0  0
  -12.1517   15.7536  -39.8388 C   0  0  0  0  0  0  0  0  0  0  0  0
  -11.0341   14.6990  -37.8542 C   0  0  2  0  0  0  0  0  0  0  0  0
  -11.4572   16.0421  -38.4872 C   0  0  2  0  0  0  0  0  0  0  0  0
  -13.3740   15.0936  -37.8671 C   0  0  1  0  0  0  0  0  0  0  0  0
  -13.4733   15.0783  -39.4065 C   0  0  1  0  0  0  0  0  0  0  0  0
  -11.2510   11.9551  -37.1667 C   0  0  0  0  0  0  0  0  0  0  0  0
  -12.3287   14.1232  -37.4995 N   0  0  0  0  0  0  0  0  0  0  0  0
  -10.5605   14.6003  -35.4863 O   0  0  0  0  0  0  0  0  0  0  0  0
  -13.5854   12.2992  -36.8459 O   0  0  0  0  0  0  0  0  0  0  0  0
   -9.0211   15.4724  -36.9235 O   0  0  0  0  0  0  0  0  0  0  0  0
  -14.5796   15.8534  -39.8445 O   0  0  0  0  0  0  0  0  0  0  0  0
  -12.4230   16.5989  -36.5698 H   0  0  0  0  0  0  0  0  0  0  0  0
  -13.2140   17.2943  -38.0093 H   0  0  0  0  0  0  0  0  0  0  0  0
  -12.3360   16.6820  -40.3909 H   0  0  0  0  0  0  0  0  0  0  0  0
  -11.5451   15.0905  -40.4642 H   0  0  0  0  0  0  0  0  0  0  0  0
  -10.4911   14.0423  -38.5414 H   0  0  0  0  0  0  0  0  0  0  0  0
  -10.6681   16.7954  -38.5375 H   0  0  0  0  0  0  0  0  0  0  0  0
  -14.3192   14.9637  -37.3379 H   0  0  0  0  0  0  0  0  0  0  0  0
  -13.5735   14.0698  -39.8208 H   0  0  0  0  0  0  0  0  0  0  0  0
  -10.7798   11.9940  -36.1897 H   0  0  0  0  0  0  0  0  0  0  0  0
  -10.5718   12.3411  -37.9206 H   0  0  0  0  0  0  0  0  0  0  0  0
  -11.5163   10.9306  -37.4089 H   0  0  0  0  0  0  0  0  0  0  0  0
   -8.4682   15.6155  -36.1259 H   0  0  0  0  0  0  0  0  0  0  0  0
  -15.3814   15.3907  -39.5505 H   0  0  0  0  0  0  0  0  0  0  0  0
  1  5  1  1  0  0  0
  1 11  2  0  0  0  0
  1 13  1  0  0  0  0
  2  9  1  0  0  0  0
  2 10  1  0  0  0  0
  2 12  2  0  0  0  0
  3  6  1  0  0  0  0
  3  7  1  0  0  0  0
  4  6  1  6  0  0  0
  4  8  1  0  0  0  0
  5  6  1  0  0  0  0
  5 10  1  0  0  0  0
  7  8  1  0  0  0  0
  7 10  1  6  0  0  0
  8 14  1  1  0  0  0
  3 15  1  0  0  0  0
  3 16  1  0  0  0  0
  4 17  1  0  0  0  0
  4 18  1  0  0  0  0
  5 19  1  0  0  0  0
  6 20  1  0  0  0  0
  7 21  1  0  0  0  0
  8 22  1  0  0  0  0
  9 23  1  0  0  0  0
  9 24  1  0  0  0  0
  9 25  1  0  0  0  0
 13 26  1  0  0  0  0
 14 27  1  0  0  0  0
M  END
> <id>
EN300-28272214

> <smiles>
CC(=O)N1[C@@H]([C@H]2C[C@H](O)[C@@H]1C2)C(=O)O |&1:4,5,7,9,r|

> <IUPAC Name>
rac-(1R,3R,4S,6R)-2-acetyl-6-hydroxy-2-azabicyclo[2.2.1]heptane-3-carboxylic acid

> <CAS>
2679817-05-9

> <URL>
https://www.enaminestore.com/catalog/EN300-28272214

> <ROCS_ShapeQuery>
__x1247relevant_x1083L0AP1_x1305L0BP1_

> <ROCS_TanimotoCombo>
0.725 

> <ROCS_ShapeTanimoto>
0.484 

> <ROCS_ColorTanimoto>
0.240 

> <ROCS_RefTversky>
0.410 

> <ROCS_RefColorTversky>
0.273 

> <ROCS_RefTverskyCombo>
0.683 

> <ROCS_FitTversky>
1.599 

> <ROCS_FitColorTversky>
0.666 

> <ROCS_FitTverskyCombo>
2.265 

> <ROCS_ColorScore>
-8.958

> <ROCS_Overlap>
1206.407

> <ROCS_Rank>
273                 

$$$$
untitled-dbase-43661_0
  -OEChem-06232314393D

 29 31  0     0  0  0  0  0  0999 V2000
   -9.9880   15.2240  -36.6005 C   0  0  0  0  0  0  0  0  0  0  0  0
  -10.9467   15.9173  -38.7843 C   0  0  0  0  0  0  0  0  0  0  0  0
  -11.7271   13.7984  -37.6864 C   0  0  0  0  0  0  0  0  0  0  0  0
  -12.3509   16.0245  -36.7056 C   0  0  0  0  0  0  0  0  0  0  0  0
  -12.6960   14.5006  -39.8892 C   0  0  0  0  0  0  0  0  0  0  0  0
  -13.3185   16.7216  -38.9105 C   0  0  0  0  0  0  0  0  0  0  0  0
  -14.0969   14.6069  -37.8141 C   0  0  0  0  0  0  0  0  0  0  0  0
  -11.2387   15.2390  -37.4304 C   0  0  0  0  0  0  0  0  0  0  0  0
  -12.2210   15.9381  -39.6418 C   0  0  0  0  0  0  0  0  0  0  0  0
  -12.9995   13.8244  -38.5461 C   0  0  0  0  0  0  0  0  0  0  0  0
  -13.6217   16.0444  -37.5679 C   0  0  0  0  0  0  0  0  0  0  0  0
   -8.9090   15.6800  -36.9489 O   0  0  0  0  0  0  0  0  0  0  0  0
  -10.2148   14.6300  -35.4035 O   0  0  0  0  0  0  0  0  0  0  0  0
  -11.9554   16.5357  -40.8289 F   0  0  0  0  0  0  0  0  0  0  0  0
  -13.4210   12.5551  -38.7656 F   0  0  0  0  0  0  0  0  0  0  0  0
  -14.5927   16.7360  -36.9233 F   0  0  0  0  0  0  0  0  0  0  0  0
  -10.5782   16.9413  -38.6377 H   0  0  0  0  0  0  0  0  0  0  0  0
  -10.1442   15.3930  -39.3199 H   0  0  0  0  0  0  0  0  0  0  0  0
  -10.9517   13.2039  -38.1876 H   0  0  0  0  0  0  0  0  0  0  0  0
  -11.9253   13.2793  -36.7394 H   0  0  0  0  0  0  0  0  0  0  0  0
  -12.5695   15.5782  -35.7264 H   0  0  0  0  0  0  0  0  0  0  0  0
  -12.0303   17.0527  -36.4920 H   0  0  0  0  0  0  0  0  0  0  0  0
  -13.5849   14.4947  -40.5323 H   0  0  0  0  0  0  0  0  0  0  0  0
  -11.9367   13.9340  -40.4424 H   0  0  0  0  0  0  0  0  0  0  0  0
  -13.0099   17.7629  -38.7553 H   0  0  0  0  0  0  0  0  0  0  0  0
  -14.2252   16.7787  -39.5257 H   0  0  0  0  0  0  0  0  0  0  0  0
  -15.0260   14.6037  -38.3975 H   0  0  0  0  0  0  0  0  0  0  0  0
  -14.3509   14.1177  -36.8655 H   0  0  0  0  0  0  0  0  0  0  0  0
   -9.4077   14.6085  -34.8463 H   0  0  0  0  0  0  0  0  0  0  0  0
  1  8  1  0  0  0  0
  1 12  2  0  0  0  0
  1 13  1  0  0  0  0
  2  8  1  0  0  0  0
  2  9  1  0  0  0  0
  3  8  1  0  0  0  0
  3 10  1  0  0  0  0
  4  8  1  0  0  0  0
  4 11  1  0  0  0  0
  5  9  1  0  0  0  0
  5 10  1  0  0  0  0
  6  9  1  0  0  0  0
  6 11  1  0  0  0  0
  7 10  1  0  0  0  0
  7 11  1  0  0  0  0
  9 14  1  0  0  0  0
 10 15  1  0  0  0  0
 11 16  1  0  0  0  0
  2 17  1  0  0  0  0
  2 18  1  0  0  0  0
  3 19  1  0  0  0  0
  3 20  1  0  0  0  0
  4 21  1  0  0  0  0
  4 22  1  0  0  0  0
  5 23  1  0  0  0  0
  5 24  1  0  0  0  0
  6 25  1  0  0  0  0
  6 26  1  0  0  0  0
  7 27  1  0  0  0  0
  7 28  1  0  0  0  0
 13 29  1  0  0  0  0
M  END
> <id>
EN300-687000

> <smiles>
OC(=O)C1(CC2(F)CC3(F)CC(F)(C2)C1)C3

> <IUPAC Name>
3,5,7-trifluoroadamantane-1-carboxylic acid

> <CAS>
214557-89-8

> <Purity>
95

> <URL>
https://www.enaminestore.com/catalog/EN300-687000

> <MP>
197-198

> <ROCS_ShapeQuery>
__x1247relevant_x1083L0AP1_x1305L0BP1_

> <ROCS_TanimotoCombo>
0.725 

> <ROCS_ShapeTanimoto>
0.512 

> <ROCS_ColorTanimoto>
0.213 

> <ROCS_RefTversky>
0.437 

> <ROCS_RefColorTversky>
0.233 

> <ROCS_RefTverskyCombo>
0.670 

> <ROCS_FitTversky>
1.500 

> <ROCS_FitColorTversky>
0.710 

> <ROCS_FitTverskyCombo>
2.210 

> <ROCS_ColorScore>
-7.607

> <ROCS_Overlap>
1289.037

> <ROCS_Rank>
274                 

$$$$
untitled-dbase-118311_108
  -OEChem-06232314393D

 35 36  0     1  0  0  0  0  0999 V2000
  -13.3142   16.4558  -40.2938 C   0  0  0  0  0  0  0  0  0  0  0  0
   -9.9279   14.8892  -36.9834 C   0  0  0  0  0  0  0  0  0  0  0  0
  -12.7989   14.2734  -39.0700 C   0  0  0  0  0  0  0  0  0  0  0  0
  -13.3396   15.0478  -36.9175 C   0  0  0  0  0  0  0  0  0  0  0  0
  -11.3388   16.1193  -38.7026 C   0  0  0  0  0  0  0  0  0  0  0  0
  -12.2724   14.2168  -37.6416 C   0  0  2  0  0  0  0  0  0  0  0  0
  -12.7940   15.7975  -39.0698 C   0  0  1  0  0  0  0  0  0  0  0  0
  -10.4422   15.4349  -34.4742 C   0  0  0  0  0  0  0  0  0  0  0  0
  -10.7212   12.9761  -34.0433 C   0  0  0  0  0  0  0  0  0  0  0  0
   -8.4235   13.9352  -34.3730 C   0  0  0  0  0  0  0  0  0  0  0  0
   -9.8962   14.0381  -34.7669 C   0  0  0  0  0  0  0  0  0  0  0  0
  -13.6824   16.0910  -37.9194 N   0  0  0  0  0  0  0  0  0  0  0  0
  -11.0718   15.0576  -37.7331 N   0  0  0  0  0  0  0  0  0  0  0  0
  -12.6750   17.2130  -41.0091 O   0  0  0  0  0  0  0  0  0  0  0  0
   -8.9516   15.6332  -37.0335 O   0  0  0  0  0  0  0  0  0  0  0  0
  -14.6048   16.1051  -40.5144 O   0  0  0  0  0  0  0  0  0  0  0  0
  -10.0106   13.7896  -36.1725 O   0  0  0  0  0  0  0  0  0  0  0  0
  -12.1143   13.8344  -39.8047 H   0  0  0  0  0  0  0  0  0  0  0  0
  -13.7926   13.8278  -39.1971 H   0  0  0  0  0  0  0  0  0  0  0  0
  -14.2251   14.4418  -36.6958 H   0  0  0  0  0  0  0  0  0  0  0  0
  -12.9751   15.4935  -35.9866 H   0  0  0  0  0  0  0  0  0  0  0  0
  -10.6476   16.0149  -39.5459 H   0  0  0  0  0  0  0  0  0  0  0  0
  -11.2004   17.1024  -38.2407 H   0  0  0  0  0  0  0  0  0  0  0  0
  -12.0818   13.2300  -37.2166 H   0  0  0  0  0  0  0  0  0  0  0  0
   -9.8527   16.2001  -34.9918 H   0  0  0  0  0  0  0  0  0  0  0  0
  -11.4877   15.5325  -34.7843 H   0  0  0  0  0  0  0  0  0  0  0  0
  -10.3755   15.6645  -33.4046 H   0  0  0  0  0  0  0  0  0  0  0  0
  -10.3330   11.9723  -34.2505 H   0  0  0  0  0  0  0  0  0  0  0  0
  -11.7600   12.9836  -34.3928 H   0  0  0  0  0  0  0  0  0  0  0  0
  -10.7189   13.1318  -32.9596 H   0  0  0  0  0  0  0  0  0  0  0  0
   -8.0316   12.9333  -34.5829 H   0  0  0  0  0  0  0  0  0  0  0  0
   -7.8102   14.6657  -34.9105 H   0  0  0  0  0  0  0  0  0  0  0  0
   -8.2957   14.0979  -33.2967 H   0  0  0  0  0  0  0  0  0  0  0  0
  -14.6548   15.9537  -38.1985 H   0  0  0  0  0  0  0  0  0  0  0  0
  -14.9681   16.5322  -41.3194 H   0  0  0  0  0  0  0  0  0  0  0  0
  1  7  1  0  0  0  0
  1 14  2  0  0  0  0
  1 16  1  0  0  0  0
  2 13  1  0  0  0  0
  2 15  2  0  0  0  0
  2 17  1  0  0  0  0
  3  6  1  0  0  0  0
  3  7  1  0  0  0  0
  4  6  1  0  0  0  0
  4 12  1  0  0  0  0
  5  7  1  0  0  0  0
  5 13  1  0  0  0  0
  6 13  1  0  0  0  0
  7 12  1  0  0  0  0
  8 11  1  0  0  0  0
  9 11  1  0  0  0  0
 10 11  1  0  0  0  0
 11 17  1  0  0  0  0
  3 18  1  0  0  0  0
  3 19  1  0  0  0  0
  4 20  1  0  0  0  0
  4 21  1  0  0  0  0
  5 22  1  0  0  0  0
  5 23  1  0  0  0  0
  6 24  1  0  0  0  0
  8 25  1  0  0  0  0
  8 26  1  0  0  0  0
  8 27  1  0  0  0  0
  9 28  1  0  0  0  0
  9 29  1  0  0  0  0
  9 30  1  0  0  0  0
 10 31  1  0  0  0  0
 10 32  1  0  0  0  0
 10 33  1  0  0  0  0
 12 34  1  0  0  0  0
 16 35  1  0  0  0  0
M  END
> <id>
EN300-6735761

> <smiles>
CC(C)(C)OC(=O)N1CC2(CC1CN2)C(=O)O

> <IUPAC Name>
5-[(tert-butoxy)carbonyl]-2,5-diazabicyclo[2.2.1]heptane-1-carboxylic acid

> <CAS>
1779741-56-8

> <Purity>
95

> <URL>
https://www.enaminestore.com/catalog/EN300-6735761

> <ROCS_ShapeQuery>
__x1247relevant_x1083L0AP1_x1305L0BP1_

> <ROCS_TanimotoCombo>
0.724 

> <ROCS_ShapeTanimoto>
0.518 

> <ROCS_ColorTanimoto>
0.206 

> <ROCS_RefTversky>
0.444 

> <ROCS_RefColorTversky>
0.246 

> <ROCS_RefTverskyCombo>
0.690 

> <ROCS_FitTversky>
1.477 

> <ROCS_FitColorTversky>
0.560 

> <ROCS_FitTverskyCombo>
2.037 

> <ROCS_ColorScore>
-8.088

> <ROCS_Overlap>
1308.889

> <ROCS_Rank>
275                 

$$$$
untitled-dbase-94724_314
  -OEChem-06232314393D

 40 41  0     1  0  0  0  0  0999 V2000
  -10.7551   14.1882  -36.6125 C   0  0  0  0  0  0  0  0  0  0  0  0
  -13.9105   14.1414  -38.3325 C   0  0  0  0  0  0  0  0  0  0  0  0
  -14.0618   15.3849  -37.4366 C   0  0  0  0  0  0  0  0  0  0  0  0
  -11.8364   14.7192  -39.6986 C   0  0  0  0  0  0  0  0  0  0  0  0
  -12.0903   16.8234  -38.1759 C   0  0  0  0  0  0  0  0  0  0  0  0
  -12.0109   16.2607  -39.6216 C   0  0  0  0  0  0  0  0  0  0  0  0
  -12.4000   13.9514  -38.4896 C   0  0  1  0  0  0  0  0  0  0  0  0
  -12.6281   15.8286  -37.1322 C   0  0  2  0  0  0  0  0  0  0  0  0
   -8.4385   12.9113  -35.5303 C   0  0  0  0  0  0  0  0  0  0  0  0
   -8.3158   11.6891  -37.7213 C   0  0  0  0  0  0  0  0  0  0  0  0
   -8.0934   14.1903  -37.6703 C   0  0  0  0  0  0  0  0  0  0  0  0
  -13.1829   16.7428  -40.4839 C   0  0  0  0  0  0  0  0  0  0  0  0
   -8.7555   12.9745  -37.0237 C   0  0  0  0  0  0  0  0  0  0  0  0
  -11.8808   14.5956  -37.3008 N   0  0  0  0  0  0  0  0  0  0  0  0
  -10.3236   14.7428  -35.6044 O   0  0  0  0  0  0  0  0  0  0  0  0
  -14.3617   16.1146  -40.0213 O   0  0  0  0  0  0  0  0  0  0  0  0
  -10.1738   13.0887  -37.1839 O   0  0  0  0  0  0  0  0  0  0  0  0
  -14.3467   13.2765  -37.8184 H   0  0  0  0  0  0  0  0  0  0  0  0
  -14.4321   14.2495  -39.2876 H   0  0  0  0  0  0  0  0  0  0  0  0
  -14.6631   16.1678  -37.9072 H   0  0  0  0  0  0  0  0  0  0  0  0
  -14.5707   15.0960  -36.5090 H   0  0  0  0  0  0  0  0  0  0  0  0
  -12.2668   14.3251  -40.6271 H   0  0  0  0  0  0  0  0  0  0  0  0
  -10.7593   14.5084  -39.7536 H   0  0  0  0  0  0  0  0  0  0  0  0
  -11.0732   17.1071  -37.8722 H   0  0  0  0  0  0  0  0  0  0  0  0
  -12.6796   17.7478  -38.1511 H   0  0  0  0  0  0  0  0  0  0  0  0
  -11.1201   16.7056  -40.0875 H   0  0  0  0  0  0  0  0  0  0  0  0
  -12.1138   12.8959  -38.5382 H   0  0  0  0  0  0  0  0  0  0  0  0
  -12.5291   16.2395  -36.1232 H   0  0  0  0  0  0  0  0  0  0  0  0
   -8.7526   13.8322  -35.0260 H   0  0  0  0  0  0  0  0  0  0  0  0
   -8.9358   12.0636  -35.0479 H   0  0  0  0  0  0  0  0  0  0  0  0
   -7.3591   12.8202  -35.3632 H   0  0  0  0  0  0  0  0  0  0  0  0
   -8.5413   11.7301  -38.7930 H   0  0  0  0  0  0  0  0  0  0  0  0
   -8.8592   10.8240  -37.3243 H   0  0  0  0  0  0  0  0  0  0  0  0
   -7.2426   11.5102  -37.5995 H   0  0  0  0  0  0  0  0  0  0  0  0
   -8.3207   14.2359  -38.7416 H   0  0  0  0  0  0  0  0  0  0  0  0
   -8.4256   15.1248  -37.2066 H   0  0  0  0  0  0  0  0  0  0  0  0
   -7.0022   14.1295  -37.5881 H   0  0  0  0  0  0  0  0  0  0  0  0
  -13.0078   16.4710  -41.5224 H   0  0  0  0  0  0  0  0  0  0  0  0
  -13.2841   17.8218  -40.3921 H   0  0  0  0  0  0  0  0  0  0  0  0
  -15.0941   16.4311  -40.5784 H   0  0  0  0  0  0  0  0  0  0  0  0
  1 14  1  0  0  0  0
  1 15  2  0  0  0  0
  1 17  1  0  0  0  0
  2  3  1  0  0  0  0
  2  7  1  1  0  0  0
  3  8  1  1  0  0  0
  4  6  1  0  0  0  0
  4  7  1  0  0  0  0
  5  6  1  0  0  0  0
  5  8  1  0  0  0  0
  6 12  1  1  0  0  0
  7 14  1  0  0  0  0
  8 14  1  0  0  0  0
  9 13  1  0  0  0  0
 10 13  1  0  0  0  0
 11 13  1  0  0  0  0
 12 16  1  0  0  0  0
 13 17  1  0  0  0  0
  2 18  1  0  0  0  0
  2 19  1  0  0  0  0
  3 20  1  0  0  0  0
  3 21  1  0  0  0  0
  4 22  1  0  0  0  0
  4 23  1  0  0  0  0
  5 24  1  0  0  0  0
  5 25  1  0  0  0  0
  6 26  1  0  0  0  0
  7 27  1  0  0  0  0
  8 28  1  0  0  0  0
  9 29  1  0  0  0  0
  9 30  1  0  0  0  0
  9 31  1  0  0  0  0
 10 32  1  0  0  0  0
 10 33  1  0  0  0  0
 10 34  1  0  0  0  0
 11 35  1  0  0  0  0
 11 36  1  0  0  0  0
 11 37  1  0  0  0  0
 12 38  1  0  0  0  0
 12 39  1  0  0  0  0
 16 40  1  0  0  0  0
M  END
> <id>
EN300-7095548

> <smiles>
CC(C)(C)OC(=O)N1[C@H]2CC[C@@H]1C[C@H](CO)C2

> <MDLNUMBER>
MFCD29037442

> <IUPAC Name>
tert-butyl (1R,3R,5S)-3-(hydroxymethyl)-8-azabicyclo[3.2.1]octane-8-carboxylate

> <CAS>
273376-39-9

> <Purity>
95

> <URL>
https://www.enaminestore.com/catalog/EN300-7095548

> <ROCS_ShapeQuery>
__x1247relevant_x1083L0AP1_x1305L0BP1_

> <ROCS_TanimotoCombo>
0.724 

> <ROCS_ShapeTanimoto>
0.488 

> <ROCS_ColorTanimoto>
0.237 

> <ROCS_RefTversky>
0.423 

> <ROCS_RefColorTversky>
0.256 

> <ROCS_RefTverskyCombo>
0.679 

> <ROCS_FitTversky>
1.452 

> <ROCS_FitColorTversky>
0.759 

> <ROCS_FitTverskyCombo>
2.211 

> <ROCS_ColorScore>
-8.354

> <ROCS_Overlap>
1248.539

> <ROCS_Rank>
276                 

$$$$
untitled-dbase-99132_7
  -OEChem-06232314393D

 23 24  0     1  0  0  0  0  0999 V2000
  -13.3109   16.3395  -40.2504 C   0  0  0  0  0  0  0  0  0  0  0  0
  -10.2547   14.8054  -36.6855 C   0  0  0  0  0  0  0  0  0  0  0  0
  -12.7089   15.1485  -36.8007 C   0  0  0  0  0  0  0  0  0  0  0  0
  -11.4514   15.1987  -38.8909 C   0  0  0  0  0  0  0  0  0  0  0  0
  -13.6747   15.3022  -37.9263 C   0  0  1  0  0  0  0  0  0  0  0  0
  -12.9110   15.3677  -39.2210 C   0  0  1  0  0  0  0  0  0  0  0  0
  -13.8429   14.2302  -38.9396 C   0  0  0  0  0  0  0  0  0  0  0  0
   -8.9709   14.7047  -37.4696 C   0  0  0  0  0  0  0  0  0  0  0  0
  -11.3983   15.0312  -37.4351 N   0  0  0  0  0  0  0  0  0  0  0  0
  -12.5419   17.0467  -40.8843 O   0  0  0  0  0  0  0  0  0  0  0  0
  -10.2471   14.6882  -35.4589 O   0  0  0  0  0  0  0  0  0  0  0  0
  -14.6578   16.3489  -40.4025 O   0  0  0  0  0  0  0  0  0  0  0  0
  -13.3642   12.9587  -38.7146 F   0  0  0  0  0  0  0  0  0  0  0  0
  -15.0325   14.1032  -39.6224 F   0  0  0  0  0  0  0  0  0  0  0  0
   -9.2070   14.8603  -38.7845 F   0  0  0  0  0  0  0  0  0  0  0  0
   -8.1026   15.6558  -37.0815 F   0  0  0  0  0  0  0  0  0  0  0  0
   -8.3921   13.5047  -37.2841 F   0  0  0  0  0  0  0  0  0  0  0  0
  -12.6990   16.0298  -36.1511 H   0  0  0  0  0  0  0  0  0  0  0  0
  -12.9048   14.2591  -36.1936 H   0  0  0  0  0  0  0  0  0  0  0  0
  -11.0192   14.3197  -39.3792 H   0  0  0  0  0  0  0  0  0  0  0  0
  -10.8664   16.0851  -39.1568 H   0  0  0  0  0  0  0  0  0  0  0  0
  -14.4925   15.9797  -37.7340 H   0  0  0  0  0  0  0  0  0  0  0  0
  -14.9450   16.9930  -41.0844 H   0  0  0  0  0  0  0  0  0  0  0  0
  1  6  1  0  0  0  0
  1 10  2  0  0  0  0
  1 12  1  0  0  0  0
  2  8  1  0  0  0  0
  2  9  1  0  0  0  0
  2 11  2  0  0  0  0
  3  5  1  0  0  0  0
  3  9  1  0  0  0  0
  4  6  1  0  0  0  0
  4  9  1  0  0  0  0
  5  6  1  0  0  0  0
  5  7  1  0  0  0  0
  6  7  1  0  0  0  0
  7 13  1  0  0  0  0
  7 14  1  0  0  0  0
  8 15  1  0  0  0  0
  8 16  1  0  0  0  0
  8 17  1  0  0  0  0
  3 18  1  0  0  0  0
  3 19  1  0  0  0  0
  4 20  1  0  0  0  0
  4 21  1  0  0  0  0
  5 22  1  0  0  0  0
 12 23  1  0  0  0  0
M  END
> <id>
EN300-37101341

> <smiles>
OC(=O)C12CN(CC2C1(F)F)C(=O)C(F)(F)F

> <IUPAC Name>
6,6-difluoro-3-(2,2,2-trifluoroacetyl)-3-azabicyclo[3.1.0]hexane-1-carboxylic acid

> <CAS>
2757952-70-6

> <URL>
https://www.enaminestore.com/catalog/EN300-37101341

> <ROCS_ShapeQuery>
__x1247relevant_x1083L0AP1_x1305L0BP1_

> <ROCS_TanimotoCombo>
0.724 

> <ROCS_ShapeTanimoto>
0.529 

> <ROCS_ColorTanimoto>
0.195 

> <ROCS_RefTversky>
0.452 

> <ROCS_RefColorTversky>
0.209 

> <ROCS_RefTverskyCombo>
0.661 

> <ROCS_FitTversky>
1.479 

> <ROCS_FitColorTversky>
0.747 

> <ROCS_FitTverskyCombo>
2.225 

> <ROCS_ColorScore>
-6.806

> <ROCS_Overlap>
1332.493

> <ROCS_Rank>
277                 

$$$$
untitled-dbase-176126_22
  -OEChem-06232314393D

 29 30  0     0  0  0  0  0  0999 V2000
  -13.0867   16.6286  -40.3634 C   0  0  0  0  0  0  0  0  0  0  0  0
   -9.6726   14.9631  -37.1372 C   0  0  0  0  0  0  0  0  0  0  0  0
  -13.1731   14.2807  -39.1542 C   0  0  0  0  0  0  0  0  0  0  0  0
  -13.7877   15.9042  -37.9293 C   0  0  0  0  0  0  0  0  0  0  0  0
  -11.3354   15.9975  -38.6140 C   0  0  0  0  0  0  0  0  0  0  0  0
  -12.0962   14.3487  -36.8208 C   0  0  0  0  0  0  0  0  0  0  0  0
  -12.7676   15.7903  -39.1050 C   0  0  0  0  0  0  0  0  0  0  0  0
  -13.3956   14.4325  -37.6201 C   0  0  0  0  0  0  0  0  0  0  0  0
  -14.5049   13.5818  -37.0271 C   0  0  0  0  0  0  0  0  0  0  0  0
   -9.2147   13.6221  -36.6174 C   0  0  0  0  0  0  0  0  0  0  0  0
  -11.0135   15.0512  -37.5345 N   0  0  0  0  0  0  0  0  0  0  0  0
  -12.2589   17.2158  -41.0441 O   0  0  0  0  0  0  0  0  0  0  0  0
   -8.8729   15.9004  -37.1973 O   0  0  0  0  0  0  0  0  0  0  0  0
  -14.4190   16.6288  -40.6134 O   0  0  0  0  0  0  0  0  0  0  0  0
  -10.2274   12.7382  -36.6390 F   0  0  0  0  0  0  0  0  0  0  0  0
   -8.2146   13.1383  -37.3746 F   0  0  0  0  0  0  0  0  0  0  0  0
   -8.7732   13.7288  -35.3519 F   0  0  0  0  0  0  0  0  0  0  0  0
  -14.0812   14.0752  -39.7352 H   0  0  0  0  0  0  0  0  0  0  0  0
  -12.3990   13.5737  -39.4681 H   0  0  0  0  0  0  0  0  0  0  0  0
  -13.5616   16.6421  -37.1531 H   0  0  0  0  0  0  0  0  0  0  0  0
  -14.8283   16.0495  -38.2465 H   0  0  0  0  0  0  0  0  0  0  0  0
  -10.6156   15.8462  -39.4273 H   0  0  0  0  0  0  0  0  0  0  0  0
  -11.1913   17.0128  -38.2255 H   0  0  0  0  0  0  0  0  0  0  0  0
  -12.2077   14.8127  -35.8342 H   0  0  0  0  0  0  0  0  0  0  0  0
  -11.7987   13.3047  -36.6775 H   0  0  0  0  0  0  0  0  0  0  0  0
  -14.5826   13.7576  -35.9524 H   0  0  0  0  0  0  0  0  0  0  0  0
  -14.2991   12.5227  -37.1941 H   0  0  0  0  0  0  0  0  0  0  0  0
  -15.4611   13.8300  -37.4922 H   0  0  0  0  0  0  0  0  0  0  0  0
  -14.6425   17.1581  -41.4085 H   0  0  0  0  0  0  0  0  0  0  0  0
  1  7  1  0  0  0  0
  1 12  2  0  0  0  0
  1 14  1  0  0  0  0
  2 10  1  0  0  0  0
  2 11  1  0  0  0  0
  2 13  2  0  0  0  0
  3  7  1  0  0  0  0
  3  8  1  0  0  0  0
  4  7  1  0  0  0  0
  4  8  1  0  0  0  0
  5  7  1  0  0  0  0
  5 11  1  0  0  0  0
  6  8  1  0  0  0  0
  6 11  1  0  0  0  0
  8  9  1  0  0  0  0
 10 15  1  0  0  0  0
 10 16  1  0  0  0  0
 10 17  1  0  0  0  0
  3 18  1  0  0  0  0
  3 19  1  0  0  0  0
  4 20  1  0  0  0  0
  4 21  1  0  0  0  0
  5 22  1  0  0  0  0
  5 23  1  0  0  0  0
  6 24  1  0  0  0  0
  6 25  1  0  0  0  0
  9 26  1  0  0  0  0
  9 27  1  0  0  0  0
  9 28  1  0  0  0  0
 14 29  1  0  0  0  0
M  END
> <id>
EN300-39679736

> <smiles>
CC1(CC2(C1)C(=O)O)CN(C2)C(=O)C(F)(F)F

> <IUPAC Name>
5-methyl-3-(2,2,2-trifluoroacetyl)-3-azabicyclo[3.1.1]heptane-1-carboxylic acid

> <URL>
https://www.enaminestore.com/catalog/EN300-39679736

> <ROCS_ShapeQuery>
__x1247relevant_x1083L0AP1_x1305L0BP1_

> <ROCS_TanimotoCombo>
0.724 

> <ROCS_ShapeTanimoto>
0.517 

> <ROCS_ColorTanimoto>
0.207 

> <ROCS_RefTversky>
0.443 

> <ROCS_RefColorTversky>
0.231 

> <ROCS_RefTverskyCombo>
0.674 

> <ROCS_FitTversky>
1.476 

> <ROCS_FitColorTversky>
0.666 

> <ROCS_FitTverskyCombo>
2.142 

> <ROCS_ColorScore>
-7.542

> <ROCS_Overlap>
1307.680

> <ROCS_Rank>
278                 

$$$$
untitled-dbase-97693_1
  -OEChem-06232314393D

 32 34  0     1  0  0  0  0  0999 V2000
   -9.9022   13.6314  -35.2296 C   0  0  0  0  0  0  0  0  0  0  0  0
  -13.9507   14.4844  -38.7335 C   0  0  0  0  0  0  0  0  0  0  0  0
  -12.7021   14.2711  -39.6008 C   0  0  0  0  0  0  0  0  0  0  0  0
  -12.6709   16.4885  -38.7607 C   0  0  0  0  0  0  0  0  0  0  0  0
  -12.5176   15.1422  -36.7877 C   0  0  0  0  0  0  0  0  0  0  0  0
   -9.0523   15.2319  -36.9527 C   0  0  0  0  0  0  0  0  0  0  0  0
   -9.4761   13.8149  -36.6522 C   0  0  2  0  0  0  0  0  0  0  0  0
  -13.5413   15.6543  -37.8228 C   0  0  2  0  0  0  0  0  0  0  0  0
  -11.7175   15.3228  -39.0560 C   0  0  1  0  0  0  0  0  0  0  0  0
  -11.2305   14.9578  -37.6277 C   0  0  2  0  0  0  0  0  0  0  0  0
  -10.8126   12.0486  -33.7297 C   0  0  0  0  0  0  0  0  0  0  0  0
  -10.6479   13.6167  -37.5010 N   0  0  0  0  0  0  0  0  0  0  0  0
   -9.8311   14.5042  -34.3750 O   0  0  0  0  0  0  0  0  0  0  0  0
  -10.2674   15.9425  -37.2086 O   0  0  0  0  0  0  0  0  0  0  0  0
  -10.3691   12.3625  -35.0536 O   0  0  0  0  0  0  0  0  0  0  0  0
  -14.8041   14.7594  -39.3636 H   0  0  0  0  0  0  0  0  0  0  0  0
  -14.2190   13.5855  -38.1696 H   0  0  0  0  0  0  0  0  0  0  0  0
  -12.3288   13.2451  -39.5420 H   0  0  0  0  0  0  0  0  0  0  0  0
  -12.9394   14.4774  -40.6512 H   0  0  0  0  0  0  0  0  0  0  0  0
  -13.2075   16.8419  -39.6479 H   0  0  0  0  0  0  0  0  0  0  0  0
  -12.1911   17.3384  -38.2649 H   0  0  0  0  0  0  0  0  0  0  0  0
  -12.3704   15.8818  -35.9920 H   0  0  0  0  0  0  0  0  0  0  0  0
  -12.8669   14.2119  -36.3255 H   0  0  0  0  0  0  0  0  0  0  0  0
   -8.5233   15.7185  -36.1281 H   0  0  0  0  0  0  0  0  0  0  0  0
   -8.4360   15.2852  -37.8571 H   0  0  0  0  0  0  0  0  0  0  0  0
   -8.6859   13.0870  -36.8600 H   0  0  0  0  0  0  0  0  0  0  0  0
  -14.3899   16.1756  -37.3754 H   0  0  0  0  0  0  0  0  0  0  0  0
  -10.9099   15.5765  -39.7475 H   0  0  0  0  0  0  0  0  0  0  0  0
  -11.1645   11.0146  -33.6981 H   0  0  0  0  0  0  0  0  0  0  0  0
  -11.6196   12.7282  -33.4441 H   0  0  0  0  0  0  0  0  0  0  0  0
   -9.9762   12.1679  -33.0369 H   0  0  0  0  0  0  0  0  0  0  0  0
  -10.3156   13.3230  -38.4204 H   0  0  0  0  0  0  0  0  0  0  0  0
  1  7  1  0  0  0  0
  1 13  2  0  0  0  0
  1 15  1  0  0  0  0
  2  3  1  0  0  0  0
  2  8  1  0  0  0  0
  3  9  1  0  0  0  0
  4  8  1  0  0  0  0
  4  9  1  0  0  0  0
  5  8  1  0  0  0  0
  5 10  1  0  0  0  0
  6  7  1  0  0  0  0
  6 14  1  0  0  0  0
  7 12  1  0  0  0  0
  9 10  1  0  0  0  0
 10 12  1  0  0  0  0
 10 14  1  0  0  0  0
 11 15  1  0  0  0  0
  2 16  1  0  0  0  0
  2 17  1  0  0  0  0
  3 18  1  0  0  0  0
  3 19  1  0  0  0  0
  4 20  1  0  0  0  0
  4 21  1  0  0  0  0
  5 22  1  0  0  0  0
  5 23  1  0  0  0  0
  6 24  1  0  0  0  0
  6 25  1  0  0  0  0
  7 26  1  0  0  0  0
  8 27  1  0  0  0  0
  9 28  1  0  0  0  0
 11 29  1  0  0  0  0
 11 30  1  0  0  0  0
 11 31  1  0  0  0  0
 12 32  1  0  0  0  0
M  END
> <id>
EN300-691626

> <smiles>
COC(=O)C1COC2(CC3CCC2C3)N1

> <IUPAC Name>
methyl spiro[bicyclo[2.2.1]heptane-2,2'-[1,3]oxazolidine]-4'-carboxylate

> <CAS>
2137442-59-0

> <URL>
https://www.enaminestore.com/catalog/EN300-691626

> <ROCS_ShapeQuery>
__x1247relevant_x1083L0AP1_x1305L0BP1_

> <ROCS_TanimotoCombo>
0.724 

> <ROCS_ShapeTanimoto>
0.467 

> <ROCS_ColorTanimoto>
0.257 

> <ROCS_RefTversky>
0.406 

> <ROCS_RefColorTversky>
0.282 

> <ROCS_RefTverskyCombo>
0.688 

> <ROCS_FitTversky>
1.481 

> <ROCS_FitColorTversky>
0.743 

> <ROCS_FitTverskyCombo>
2.224 

> <ROCS_ColorScore>
-9.231

> <ROCS_Overlap>
1194.629

> <ROCS_Rank>
279                 

$$$$
untitled-dbase-77353_7
  -OEChem-06232314393D

 40 41  0     0  0  0  0  0  0999 V2000
   -9.2882   14.5229  -36.6968 C   0  0  0  0  0  0  0  0  0  0  0  0
  -12.7233   13.5671  -37.9470 C   0  0  0  0  0  0  0  0  0  0  0  0
  -11.0246   14.9476  -39.1713 C   0  0  0  0  0  0  0  0  0  0  0  0
  -12.0378   15.8024  -37.0415 C   0  0  0  0  0  0  0  0  0  0  0  0
  -13.8431   14.2411  -38.7515 C   0  0  0  0  0  0  0  0  0  0  0  0
  -12.1507   15.6162  -39.9715 C   0  0  0  0  0  0  0  0  0  0  0  0
  -13.1617   16.4684  -37.8471 C   0  0  0  0  0  0  0  0  0  0  0  0
  -11.5346   14.5373  -37.7712 C   0  0  0  0  0  0  0  0  0  0  0  0
  -13.4381   15.6733  -39.1334 C   0  0  0  0  0  0  0  0  0  0  0  0
   -9.2494   15.0010  -34.1247 C   0  0  0  0  0  0  0  0  0  0  0  0
   -7.9706   12.8646  -33.7936 C   0  0  0  0  0  0  0  0  0  0  0  0
   -6.8177   14.8750  -34.7618 C   0  0  0  0  0  0  0  0  0  0  0  0
   -8.1351   14.1068  -34.6666 C   0  0  0  0  0  0  0  0  0  0  0  0
  -10.4786   13.9041  -37.0146 N   0  0  0  0  0  0  0  0  0  0  0  0
   -8.9706   15.6670  -37.0050 O   0  0  0  0  0  0  0  0  0  0  0  0
  -14.4846   16.2793  -39.8743 O   0  0  0  0  0  0  0  0  0  0  0  0
   -8.5019   13.6663  -35.9789 O   0  0  0  0  0  0  0  0  0  0  0  0
  -13.1148   13.2551  -36.9705 H   0  0  0  0  0  0  0  0  0  0  0  0
  -12.4030   12.6539  -38.4645 H   0  0  0  0  0  0  0  0  0  0  0  0
  -10.6603   14.0711  -39.7222 H   0  0  0  0  0  0  0  0  0  0  0  0
  -10.1783   15.6407  -39.0852 H   0  0  0  0  0  0  0  0  0  0  0  0
  -11.2179   16.5181  -36.9012 H   0  0  0  0  0  0  0  0  0  0  0  0
  -12.4106   15.5493  -36.0410 H   0  0  0  0  0  0  0  0  0  0  0  0
  -14.0686   13.6551  -39.6517 H   0  0  0  0  0  0  0  0  0  0  0  0
  -14.7745   14.2498  -38.1711 H   0  0  0  0  0  0  0  0  0  0  0  0
  -11.8485   16.6256  -40.2784 H   0  0  0  0  0  0  0  0  0  0  0  0
  -12.3285   15.0708  -40.9070 H   0  0  0  0  0  0  0  0  0  0  0  0
  -14.0730   16.5412  -37.2401 H   0  0  0  0  0  0  0  0  0  0  0  0
  -12.8918   17.5045  -38.0880 H   0  0  0  0  0  0  0  0  0  0  0  0
   -9.3707   15.8938  -34.7486 H   0  0  0  0  0  0  0  0  0  0  0  0
  -10.2073   14.4723  -34.0844 H   0  0  0  0  0  0  0  0  0  0  0  0
   -9.0087   15.3585  -33.1170 H   0  0  0  0  0  0  0  0  0  0  0  0
   -7.1721   12.2201  -34.1787 H   0  0  0  0  0  0  0  0  0  0  0  0
   -8.8847   12.2600  -33.7988 H   0  0  0  0  0  0  0  0  0  0  0  0
   -7.7345   13.1274  -32.7574 H   0  0  0  0  0  0  0  0  0  0  0  0
   -6.0183   14.2338  -35.1504 H   0  0  0  0  0  0  0  0  0  0  0  0
   -6.9071   15.7497  -35.4142 H   0  0  0  0  0  0  0  0  0  0  0  0
   -6.4904   15.2114  -33.7713 H   0  0  0  0  0  0  0  0  0  0  0  0
  -10.6214   12.9498  -36.6994 H   0  0  0  0  0  0  0  0  0  0  0  0
  -14.1908   17.1789  -40.0954 H   0  0  0  0  0  0  0  0  0  0  0  0
  1 14  1  0  0  0  0
  1 15  2  0  0  0  0
  1 17  1  0  0  0  0
  2  5  1  0  0  0  0
  2  8  1  0  0  0  0
  3  6  1  0  0  0  0
  3  8  1  0  0  0  0
  4  7  1  0  0  0  0
  4  8  1  0  0  0  0
  5  9  1  0  0  0  0
  6  9  1  0  0  0  0
  7  9  1  0  0  0  0
  8 14  1  0  0  0  0
  9 16  1  0  0  0  0
 10 13  1  0  0  0  0
 11 13  1  0  0  0  0
 12 13  1  0  0  0  0
 13 17  1  0  0  0  0
  2 18  1  0  0  0  0
  2 19  1  0  0  0  0
  3 20  1  0  0  0  0
  3 21  1  0  0  0  0
  4 22  1  0  0  0  0
  4 23  1  0  0  0  0
  5 24  1  0  0  0  0
  5 25  1  0  0  0  0
  6 26  1  0  0  0  0
  6 27  1  0  0  0  0
  7 28  1  0  0  0  0
  7 29  1  0  0  0  0
 10 30  1  0  0  0  0
 10 31  1  0  0  0  0
 10 32  1  0  0  0  0
 11 33  1  0  0  0  0
 11 34  1  0  0  0  0
 11 35  1  0  0  0  0
 12 36  1  0  0  0  0
 12 37  1  0  0  0  0
 12 38  1  0  0  0  0
 14 39  1  0  0  0  0
 16 40  1  0  0  0  0
M  END
> <id>
EN300-7456066

> <smiles>
CC(C)(C)OC(=O)NC1(CCC2(O)CC1)CC2

> <MDLNUMBER>
MFCD28403233

> <IUPAC Name>
tert-butyl N-{4-hydroxybicyclo[2.2.2]octan-1-yl}carbamate

> <CAS>
1252672-84-6

> <URL>
https://www.enaminestore.com/catalog/EN300-7456066

> <ROCS_ShapeQuery>
__x1247relevant_x1083L0AP1_x1305L0BP1_

> <ROCS_TanimotoCombo>
0.724 

> <ROCS_ShapeTanimoto>
0.472 

> <ROCS_ColorTanimoto>
0.252 

> <ROCS_RefTversky>
0.415 

> <ROCS_RefColorTversky>
0.276 

> <ROCS_RefTverskyCombo>
0.690 

> <ROCS_FitTversky>
1.416 

> <ROCS_FitColorTversky>
0.743 

> <ROCS_FitTverskyCombo>
2.159 

> <ROCS_ColorScore>
-9.012

> <ROCS_Overlap>
1223.247

> <ROCS_Rank>
280                 

$$$$
untitled-dbase-120413_1
  -OEChem-06232314393D

 29 31  0     1  0  0  0  0  0999 V2000
   -9.9864   15.2255  -36.6031 C   0  0  0  0  0  0  0  0  0  0  0  0
  -12.3497   16.0269  -36.7026 C   0  0  0  0  0  0  0  0  0  0  0  0
  -13.3200   16.7255  -38.9068 C   0  0  0  0  0  0  0  0  0  0  0  0
  -14.0973   14.6093  -37.8106 C   0  0  0  0  0  0  0  0  0  0  0  0
  -10.9475   15.9202  -38.7838 C   0  0  0  0  0  0  0  0  0  0  0  0
  -11.7262   13.8012  -37.6865 C   0  0  0  0  0  0  0  0  0  0  0  0
  -12.6972   14.5044  -39.8872 C   0  0  0  0  0  0  0  0  0  0  0  0
  -13.6310   16.0535  -37.5578 C   0  0  0  0  0  0  0  0  0  0  0  0
  -11.2386   15.2412  -37.4312 C   0  0  0  0  0  0  0  0  0  0  0  0
  -12.2225   15.9408  -39.6387 C   0  0  1  0  0  0  0  0  0  0  0  0
  -12.9985   13.8286  -38.5446 C   0  0  2  0  0  0  0  0  0  0  0  0
   -8.9071   15.6787  -36.9542 O   0  0  0  0  0  0  0  0  0  0  0  0
  -10.2124   14.6342  -35.4046 O   0  0  0  0  0  0  0  0  0  0  0  0
  -11.9578   16.5389  -40.8260 F   0  0  0  0  0  0  0  0  0  0  0  0
  -13.4197   12.5589  -38.7647 F   0  0  0  0  0  0  0  0  0  0  0  0
  -12.0201   17.0536  -36.4960 H   0  0  0  0  0  0  0  0  0  0  0  0
  -12.5612   15.5701  -35.7268 H   0  0  0  0  0  0  0  0  0  0  0  0
  -14.2227   16.7742  -39.5284 H   0  0  0  0  0  0  0  0  0  0  0  0
  -13.0000   17.7637  -38.7544 H   0  0  0  0  0  0  0  0  0  0  0  0
  -14.3404   14.1126  -36.8632 H   0  0  0  0  0  0  0  0  0  0  0  0
  -15.0209   14.6021  -38.4025 H   0  0  0  0  0  0  0  0  0  0  0  0
  -10.5784   16.9439  -38.6371 H   0  0  0  0  0  0  0  0  0  0  0  0
  -10.1458   15.3960  -39.3209 H   0  0  0  0  0  0  0  0  0  0  0  0
  -10.9511   13.2070  -38.1885 H   0  0  0  0  0  0  0  0  0  0  0  0
  -11.9235   13.2814  -36.7397 H   0  0  0  0  0  0  0  0  0  0  0  0
  -13.5867   14.4988  -40.5295 H   0  0  0  0  0  0  0  0  0  0  0  0
  -11.9383   13.9386  -40.4418 H   0  0  0  0  0  0  0  0  0  0  0  0
  -14.4154   16.6120  -37.0355 H   0  0  0  0  0  0  0  0  0  0  0  0
   -9.4044   14.6123  -34.8487 H   0  0  0  0  0  0  0  0  0  0  0  0
  1  9  1  0  0  0  0
  1 12  2  0  0  0  0
  1 13  1  0  0  0  0
  2  8  1  0  0  0  0
  2  9  1  0  0  0  0
  3  8  1  0  0  0  0
  3 10  1  0  0  0  0
  4  8  1  0  0  0  0
  4 11  1  0  0  0  0
  5  9  1  0  0  0  0
  5 10  1  0  0  0  0
  6  9  1  0  0  0  0
  6 11  1  0  0  0  0
  7 10  1  0  0  0  0
  7 11  1  0  0  0  0
 10 14  1  0  0  0  0
 11 15  1  0  0  0  0
  2 16  1  0  0  0  0
  2 17  1  0  0  0  0
  3 18  1  0  0  0  0
  3 19  1  0  0  0  0
  4 20  1  0  0  0  0
  4 21  1  0  0  0  0
  5 22  1  0  0  0  0
  5 23  1  0  0  0  0
  6 24  1  0  0  0  0
  6 25  1  0  0  0  0
  7 26  1  0  0  0  0
  7 27  1  0  0  0  0
  8 28  1  0  0  0  0
 13 29  1  0  0  0  0
M  END
> <id>
EN300-1697064

> <smiles>
OC(=O)C1(CC2CC3(F)CC(F)(C2)C1)C3

> <MDLNUMBER>
MFCD24480916

> <IUPAC Name>
3,5-difluoroadamantane-1-carboxylic acid

> <CAS>
73600-37-0

> <Purity>
95

> <URL>
https://www.enaminestore.com/catalog/EN300-1697064

> <ROCS_ShapeQuery>
__x1247relevant_x1083L0AP1_x1305L0BP1_

> <ROCS_TanimotoCombo>
0.724 

> <ROCS_ShapeTanimoto>
0.511 

> <ROCS_ColorTanimoto>
0.213 

> <ROCS_RefTversky>
0.431 

> <ROCS_RefColorTversky>
0.233 

> <ROCS_RefTverskyCombo>
0.664 

> <ROCS_FitTversky>
1.568 

> <ROCS_FitColorTversky>
0.710 

> <ROCS_FitTverskyCombo>
2.278 

> <ROCS_ColorScore>
-7.603

> <ROCS_Overlap>
1270.629

> <ROCS_Rank>
281                 

$$$$
untitled-dbase-129413_2
  -OEChem-06232314393D

 34 36  0     1  0  0  0  0  0999 V2000
  -13.7257   14.9959  -39.9411 C   0  0  0  0  0  0  0  0  0  0  0  0
  -13.3681   17.0686  -38.5759 C   0  0  0  0  0  0  0  0  0  0  0  0
  -14.2603   14.9912  -37.4912 C   0  0  0  0  0  0  0  0  0  0  0  0
  -11.3971   15.7773  -39.4345 C   0  0  0  0  0  0  0  0  0  0  0  0
  -12.2911   13.6952  -38.3474 C   0  0  0  0  0  0  0  0  0  0  0  0
  -11.9329   15.7724  -36.9790 C   0  0  0  0  0  0  0  0  0  0  0  0
  -12.8325   16.2329  -39.7503 C   0  0  0  0  0  0  0  0  0  0  0  0
  -13.7290   14.1451  -38.6602 C   0  0  0  0  0  0  0  0  0  0  0  0
  -13.3697   16.2282  -37.2882 C   0  0  0  0  0  0  0  0  0  0  0  0
  -11.3725   14.9234  -38.1446 C   0  0  0  0  0  0  0  0  0  0  0  0
   -9.9431   14.4718  -37.8336 C   0  0  1  0  0  0  0  0  0  0  0  0
   -9.2287   15.4801  -36.9533 C   0  0  0  0  0  0  0  0  0  0  0  0
   -9.9831   13.1719  -37.1705 N   0  0  0  0  0  0  0  0  0  0  0  0
   -9.1664   16.6890  -37.5561 F   0  0  0  0  0  0  0  0  0  0  0  0
   -9.8508   15.6463  -35.7662 F   0  0  0  0  0  0  0  0  0  0  0  0
   -7.9584   15.0906  -36.7042 F   0  0  0  0  0  0  0  0  0  0  0  0
  -14.7487   15.3070  -40.1864 H   0  0  0  0  0  0  0  0  0  0  0  0
  -13.3634   14.3986  -40.7868 H   0  0  0  0  0  0  0  0  0  0  0  0
  -12.7483   17.9632  -38.4390 H   0  0  0  0  0  0  0  0  0  0  0  0
  -14.3847   17.4166  -38.7971 H   0  0  0  0  0  0  0  0  0  0  0  0
  -15.2926   15.3023  -37.6932 H   0  0  0  0  0  0  0  0  0  0  0  0
  -14.2825   14.3908  -36.5735 H   0  0  0  0  0  0  0  0  0  0  0  0
  -10.9996   15.2001  -40.2793 H   0  0  0  0  0  0  0  0  0  0  0  0
  -10.7486   16.6556  -39.3205 H   0  0  0  0  0  0  0  0  0  0  0  0
  -12.2894   13.0672  -37.4471 H   0  0  0  0  0  0  0  0  0  0  0  0
  -11.9141   13.0706  -39.1675 H   0  0  0  0  0  0  0  0  0  0  0  0
  -11.2964   16.6505  -36.8089 H   0  0  0  0  0  0  0  0  0  0  0  0
  -11.9232   15.1916  -36.0477 H   0  0  0  0  0  0  0  0  0  0  0  0
  -12.8357   16.8359  -40.6652 H   0  0  0  0  0  0  0  0  0  0  0  0
  -14.3685   13.2666  -38.8013 H   0  0  0  0  0  0  0  0  0  0  0  0
  -13.7541   16.8281  -36.4557 H   0  0  0  0  0  0  0  0  0  0  0  0
   -9.3972   14.3712  -38.7765 H   0  0  0  0  0  0  0  0  0  0  0  0
  -10.4451   12.5304  -37.7708 H   0  0  0  0  0  0  0  0  0  0  0  0
   -9.0493   12.8816  -36.9994 H   0  0  0  0  0  0  0  0  0  0  0  0
  1  7  1  0  0  0  0
  1  8  1  0  0  0  0
  2  7  1  0  0  0  0
  2  9  1  0  0  0  0
  3  8  1  0  0  0  0
  3  9  1  0  0  0  0
  4  7  1  0  0  0  0
  4 10  1  0  0  0  0
  5  8  1  0  0  0  0
  5 10  1  0  0  0  0
  6  9  1  0  0  0  0
  6 10  1  0  0  0  0
 10 11  1  0  0  0  0
 11 12  1  0  0  0  0
 11 13  1  0  0  0  0
 12 14  1  0  0  0  0
 12 15  1  0  0  0  0
 12 16  1  0  0  0  0
  1 17  1  0  0  0  0
  1 18  1  0  0  0  0
  2 19  1  0  0  0  0
  2 20  1  0  0  0  0
  3 21  1  0  0  0  0
  3 22  1  0  0  0  0
  4 23  1  0  0  0  0
  4 24  1  0  0  0  0
  5 25  1  0  0  0  0
  5 26  1  0  0  0  0
  6 27  1  0  0  0  0
  6 28  1  0  0  0  0
  7 29  1  0  0  0  0
  8 30  1  0  0  0  0
  9 31  1  0  0  0  0
 11 32  1  0  0  0  0
 13 33  1  0  0  0  0
 13 34  1  0  0  0  0
M  END
> <id>
EN300-6731503

> <smiles>
Cl.NC(C(F)(F)F)C1(CC2CC3CC(C2)C1)C3

> <IUPAC Name>
1-(adamantan-1-yl)-2,2,2-trifluoroethan-1-amine hydrochloride

> <CAS>
144647-63-2

> <Purity>
95

> <URL>
https://www.enaminestore.com/catalog/EN300-6731503

> <Saltdate>
Cl

> <MP>
260-262

> <ROCS_ShapeQuery>
__x1247relevant_x1083L0AP1_x1305L0BP1_

> <ROCS_TanimotoCombo>
0.724 

> <ROCS_ShapeTanimoto>
0.533 

> <ROCS_ColorTanimoto>
0.190 

> <ROCS_RefTversky>
0.448 

> <ROCS_RefColorTversky>
0.208 

> <ROCS_RefTverskyCombo>
0.656 

> <ROCS_FitTversky>
1.557 

> <ROCS_FitColorTversky>
0.695 

> <ROCS_FitTverskyCombo>
2.252 

> <ROCS_ColorScore>
-6.769

> <ROCS_Overlap>
1320.555

> <ROCS_Rank>
282                 

$$$$
untitled-dbase-89229_2
  -OEChem-06232314393D

 34 36  0     1  0  0  0  0  0999 V2000
  -13.7257   14.9959  -39.9411 C   0  0  0  0  0  0  0  0  0  0  0  0
  -13.3681   17.0686  -38.5759 C   0  0  0  0  0  0  0  0  0  0  0  0
  -14.2603   14.9912  -37.4912 C   0  0  0  0  0  0  0  0  0  0  0  0
  -11.3971   15.7773  -39.4345 C   0  0  0  0  0  0  0  0  0  0  0  0
  -12.2911   13.6952  -38.3474 C   0  0  0  0  0  0  0  0  0  0  0  0
  -11.9329   15.7724  -36.9790 C   0  0  0  0  0  0  0  0  0  0  0  0
  -12.8325   16.2329  -39.7503 C   0  0  0  0  0  0  0  0  0  0  0  0
  -13.7290   14.1451  -38.6602 C   0  0  0  0  0  0  0  0  0  0  0  0
  -13.3697   16.2282  -37.2882 C   0  0  0  0  0  0  0  0  0  0  0  0
  -11.3725   14.9234  -38.1446 C   0  0  0  0  0  0  0  0  0  0  0  0
   -9.9431   14.4718  -37.8336 C   0  0  1  0  0  0  0  0  0  0  0  0
   -9.2287   15.4801  -36.9533 C   0  0  0  0  0  0  0  0  0  0  0  0
   -9.9831   13.1719  -37.1705 N   0  0  0  0  0  0  0  0  0  0  0  0
   -9.1664   16.6890  -37.5561 F   0  0  0  0  0  0  0  0  0  0  0  0
   -9.8508   15.6463  -35.7662 F   0  0  0  0  0  0  0  0  0  0  0  0
   -7.9584   15.0906  -36.7042 F   0  0  0  0  0  0  0  0  0  0  0  0
  -14.7487   15.3070  -40.1864 H   0  0  0  0  0  0  0  0  0  0  0  0
  -13.3634   14.3986  -40.7868 H   0  0  0  0  0  0  0  0  0  0  0  0
  -12.7483   17.9632  -38.4390 H   0  0  0  0  0  0  0  0  0  0  0  0
  -14.3847   17.4166  -38.7971 H   0  0  0  0  0  0  0  0  0  0  0  0
  -15.2926   15.3023  -37.6932 H   0  0  0  0  0  0  0  0  0  0  0  0
  -14.2825   14.3908  -36.5735 H   0  0  0  0  0  0  0  0  0  0  0  0
  -10.9996   15.2001  -40.2793 H   0  0  0  0  0  0  0  0  0  0  0  0
  -10.7486   16.6556  -39.3205 H   0  0  0  0  0  0  0  0  0  0  0  0
  -12.2894   13.0672  -37.4471 H   0  0  0  0  0  0  0  0  0  0  0  0
  -11.9141   13.0706  -39.1675 H   0  0  0  0  0  0  0  0  0  0  0  0
  -11.2964   16.6505  -36.8089 H   0  0  0  0  0  0  0  0  0  0  0  0
  -11.9232   15.1916  -36.0477 H   0  0  0  0  0  0  0  0  0  0  0  0
  -12.8357   16.8359  -40.6652 H   0  0  0  0  0  0  0  0  0  0  0  0
  -14.3685   13.2666  -38.8013 H   0  0  0  0  0  0  0  0  0  0  0  0
  -13.7541   16.8281  -36.4557 H   0  0  0  0  0  0  0  0  0  0  0  0
   -9.3972   14.3712  -38.7765 H   0  0  0  0  0  0  0  0  0  0  0  0
  -10.4451   12.5304  -37.7708 H   0  0  0  0  0  0  0  0  0  0  0  0
   -9.0493   12.8816  -36.9994 H   0  0  0  0  0  0  0  0  0  0  0  0
  1  7  1  0  0  0  0
  1  8  1  0  0  0  0
  2  7  1  0  0  0  0
  2  9  1  0  0  0  0
  3  8  1  0  0  0  0
  3  9  1  0  0  0  0
  4  7  1  0  0  0  0
  4 10  1  0  0  0  0
  5  8  1  0  0  0  0
  5 10  1  0  0  0  0
  6  9  1  0  0  0  0
  6 10  1  0  0  0  0
 10 11  1  0  0  0  0
 11 12  1  0  0  0  0
 11 13  1  0  0  0  0
 12 14  1  0  0  0  0
 12 15  1  0  0  0  0
 12 16  1  0  0  0  0
  1 17  1  0  0  0  0
  1 18  1  0  0  0  0
  2 19  1  0  0  0  0
  2 20  1  0  0  0  0
  3 21  1  0  0  0  0
  3 22  1  0  0  0  0
  4 23  1  0  0  0  0
  4 24  1  0  0  0  0
  5 25  1  0  0  0  0
  5 26  1  0  0  0  0
  6 27  1  0  0  0  0
  6 28  1  0  0  0  0
  7 29  1  0  0  0  0
  8 30  1  0  0  0  0
  9 31  1  0  0  0  0
 11 32  1  0  0  0  0
 13 33  1  0  0  0  0
 13 34  1  0  0  0  0
M  END
> <id>
EN300-6731504

> <smiles>
NC(C(F)(F)F)C1(CC2CC3CC(C2)C1)C3

> <IUPAC Name>
1-(adamantan-1-yl)-2,2,2-trifluoroethan-1-amine

> <CAS>
144462-03-3

> <URL>
https://www.enaminestore.com/catalog/EN300-6731504

> <ROCS_ShapeQuery>
__x1247relevant_x1083L0AP1_x1305L0BP1_

> <ROCS_TanimotoCombo>
0.724 

> <ROCS_ShapeTanimoto>
0.533 

> <ROCS_ColorTanimoto>
0.190 

> <ROCS_RefTversky>
0.448 

> <ROCS_RefColorTversky>
0.208 

> <ROCS_RefTverskyCombo>
0.656 

> <ROCS_FitTversky>
1.557 

> <ROCS_FitColorTversky>
0.695 

> <ROCS_FitTverskyCombo>
2.252 

> <ROCS_ColorScore>
-6.769

> <ROCS_Overlap>
1320.555

> <ROCS_Rank>
283                 

$$$$
untitled-dbase-144676_6
  -OEChem-06232314393D

 23 25  0     1  0  0  0  0  0999 V2000
  -10.2960   15.2105  -36.7632 C   0  0  0  0  0  0  0  0  0  0  0  0
  -12.1231   13.7483  -37.7744 C   0  0  0  0  0  0  0  0  0  0  0  0
  -12.7991   15.6918  -36.7383 C   0  0  0  0  0  0  0  0  0  0  0  0
  -12.3166   14.7756  -39.8234 C   0  0  0  0  0  0  0  0  0  0  0  0
  -12.9915   16.7160  -38.7890 C   0  0  0  0  0  0  0  0  0  0  0  0
  -13.2250   14.2746  -38.6972 C   0  0  2  0  0  0  0  0  0  0  0  0
  -13.6943   15.6238  -37.9779 C   0  0  1  0  0  0  0  0  0  0  0  0
  -11.5840   15.1600  -37.5095 C   0  0  0  0  0  0  0  0  0  0  0  0
  -11.7101   15.8804  -38.9430 C   0  0  0  0  0  0  0  0  0  0  0  0
   -9.2614   15.7084  -37.1817 O   0  0  0  0  0  0  0  0  0  0  0  0
  -10.4234   14.6235  -35.5481 O   0  0  0  0  0  0  0  0  0  0  0  0
  -10.1061   16.8590  -39.7320 I   0  0  0  0  0  0  0  0  0  0  0  0
  -12.5093   13.2367  -36.8856 H   0  0  0  0  0  0  0  0  0  0  0  0
  -11.3982   13.0823  -38.2556 H   0  0  0  0  0  0  0  0  0  0  0  0
  -12.6557   16.6978  -36.3282 H   0  0  0  0  0  0  0  0  0  0  0  0
  -13.1375   15.0429  -35.9227 H   0  0  0  0  0  0  0  0  0  0  0  0
  -11.5907   14.0343  -40.1777 H   0  0  0  0  0  0  0  0  0  0  0  0
  -12.8736   15.1400  -40.6945 H   0  0  0  0  0  0  0  0  0  0  0  0
  -13.5021   16.9469  -39.7313 H   0  0  0  0  0  0  0  0  0  0  0  0
  -12.8511   17.6580  -38.2459 H   0  0  0  0  0  0  0  0  0  0  0  0
  -14.0029   13.5657  -38.9794 H   0  0  0  0  0  0  0  0  0  0  0  0
  -14.7637   15.7529  -37.8135 H   0  0  0  0  0  0  0  0  0  0  0  0
   -9.5839   14.6449  -35.0410 H   0  0  0  0  0  0  0  0  0  0  0  0
  1  8  1  0  0  0  0
  1 10  2  0  0  0  0
  1 11  1  0  0  0  0
  2  6  1  0  0  0  0
  2  8  1  0  0  0  0
  3  7  1  0  0  0  0
  3  8  1  0  0  0  0
  4  6  1  0  0  0  0
  4  9  1  0  0  0  0
  5  7  1  0  0  0  0
  5  9  1  0  0  0  0
  6  7  1  0  0  0  0
  8  9  1  0  0  0  0
  9 12  1  0  0  0  0
  2 13  1  0  0  0  0
  2 14  1  0  0  0  0
  3 15  1  0  0  0  0
  3 16  1  0  0  0  0
  4 17  1  0  0  0  0
  4 18  1  0  0  0  0
  5 19  1  0  0  0  0
  5 20  1  0  0  0  0
  6 21  1  0  0  0  0
  7 22  1  0  0  0  0
 11 23  1  0  0  0  0
M  END
> <id>
EN300-26865947

> <smiles>
OC(=O)C12CC3CC2(I)CC3C1

> <MDLNUMBER>
MFCD33020569

> <IUPAC Name>
5-iodotricyclo[3.3.0.0,3,7]octane-1-carboxylic acid

> <CAS>
2580197-37-9

> <Purity>
95

> <URL>
https://www.enaminestore.com/catalog/EN300-26865947

> <ROCS_ShapeQuery>
__x1247relevant_x1083L0AP1_x1305L0BP1_

> <ROCS_TanimotoCombo>
0.724 

> <ROCS_ShapeTanimoto>
0.465 

> <ROCS_ColorTanimoto>
0.259 

> <ROCS_RefTversky>
0.390 

> <ROCS_RefColorTversky>
0.371 

> <ROCS_RefTverskyCombo>
0.761 

> <ROCS_FitTversky>
1.707 

> <ROCS_FitColorTversky>
0.461 

> <ROCS_FitTverskyCombo>
2.168 

> <ROCS_ColorScore>
-12.422

> <ROCS_Overlap>
1145.047

> <ROCS_Rank>
284                 

$$$$
untitled-dbase-141561_13
  -OEChem-06232314393D

 26 28  0     1  0  0  0  0  0999 V2000
  -13.6066   15.0696  -39.7394 C   0  0  0  0  0  0  0  0  0  0  0  0
  -13.2632   13.7584  -39.0070 C   0  0  0  0  0  0  0  0  0  0  0  0
  -13.3875   16.3791  -37.6256 C   0  0  0  0  0  0  0  0  0  0  0  0
  -12.9209   16.2971  -39.0998 C   0  0  1  0  0  0  0  0  0  0  0  0
  -12.4315   13.9803  -37.7751 C   0  0  2  0  0  0  0  0  0  0  0  0
  -12.6053   15.2581  -36.9964 C   0  0  1  0  0  0  0  0  0  0  0  0
  -11.3916   16.0610  -38.9315 C   0  0  1  0  0  0  0  0  0  0  0  0
  -11.3553   15.0477  -37.8034 C   0  0  2  0  0  0  0  0  0  0  0  0
  -10.0557   14.8111  -37.1041 C   0  0  0  0  0  0  0  0  0  0  0  0
  -10.7031   15.6248  -40.1350 N   0  0  0  0  0  0  0  0  0  0  0  0
  -10.2879   14.6069  -35.7120 O   0  0  0  0  0  0  0  0  0  0  0  0
  -13.3331   14.9831  -40.7978 H   0  0  0  0  0  0  0  0  0  0  0  0
  -14.6945   15.2134  -39.7261 H   0  0  0  0  0  0  0  0  0  0  0  0
  -14.1899   13.2423  -38.7305 H   0  0  0  0  0  0  0  0  0  0  0  0
  -12.7228   13.0891  -39.6865 H   0  0  0  0  0  0  0  0  0  0  0  0
  -13.1007   17.3371  -37.1780 H   0  0  0  0  0  0  0  0  0  0  0  0
  -14.4671   16.2420  -37.5122 H   0  0  0  0  0  0  0  0  0  0  0  0
  -13.1515   17.2070  -39.6623 H   0  0  0  0  0  0  0  0  0  0  0  0
  -12.2439   13.0670  -37.2257 H   0  0  0  0  0  0  0  0  0  0  0  0
  -12.5809   15.2472  -35.9192 H   0  0  0  0  0  0  0  0  0  0  0  0
  -10.9295   16.9960  -38.5893 H   0  0  0  0  0  0  0  0  0  0  0  0
   -9.3774   15.6715  -37.2122 H   0  0  0  0  0  0  0  0  0  0  0  0
   -9.5430   13.9194  -37.4969 H   0  0  0  0  0  0  0  0  0  0  0  0
  -10.3100   14.7264  -39.9680 H   0  0  0  0  0  0  0  0  0  0  0  0
  -11.3621   15.5808  -40.8788 H   0  0  0  0  0  0  0  0  0  0  0  0
  -10.8642   13.8306  -35.6400 H   0  0  0  0  0  0  0  0  0  0  0  0
  1  2  1  0  0  0  0
  1  4  1  0  0  0  0
  2  5  1  0  0  0  0
  3  4  1  0  0  0  0
  3  6  1  0  0  0  0
  4  7  1  0  0  0  0
  5  6  1  0  0  0  0
  5  8  1  0  0  0  0
  6  8  1  0  0  0  0
  7  8  1  0  0  0  0
  7 10  1  0  0  0  0
  8  9  1  0  0  0  0
  9 11  1  0  0  0  0
  1 12  1  0  0  0  0
  1 13  1  0  0  0  0
  2 14  1  0  0  0  0
  2 15  1  0  0  0  0
  3 16  1  0  0  0  0
  3 17  1  0  0  0  0
  4 18  1  0  0  0  0
  5 19  1  0  0  0  0
  6 20  1  0  0  0  0
  7 21  1  0  0  0  0
  9 22  1  0  0  0  0
  9 23  1  0  0  0  0
 10 24  1  0  0  0  0
 10 25  1  0  0  0  0
 11 26  1  0  0  0  0
M  END
> <id>
EN300-26677910

> <smiles>
NC1C2CC3C(CC2)C31CO

> <MDLNUMBER>
MFCD32692243

> <IUPAC Name>
{8-aminotricyclo[3.2.1.0,2,7]octan-1-yl}methanol

> <CAS>
2649061-04-9

> <Purity>
95

> <URL>
https://www.enaminestore.com/catalog/EN300-26677910

> <ROCS_ShapeQuery>
__x1247relevant_x1083L0AP1_x1305L0BP1_

> <ROCS_TanimotoCombo>
0.724 

> <ROCS_ShapeTanimoto>
0.458 

> <ROCS_ColorTanimoto>
0.266 

> <ROCS_RefTversky>
0.380 

> <ROCS_RefColorTversky>
0.396 

> <ROCS_RefTverskyCombo>
0.776 

> <ROCS_FitTversky>
1.806 

> <ROCS_FitColorTversky>
0.447 

> <ROCS_FitTverskyCombo>
2.253 

> <ROCS_ColorScore>
-13.319

> <ROCS_Overlap>
1115.855

> <ROCS_Rank>
285                 

$$$$
untitled-dbase-44086_4
  -OEChem-06232314393D

 29 31  0     1  0  0  0  0  0999 V2000
  -10.3308   15.1435  -36.6341 C   0  0  0  0  0  0  0  0  0  0  0  0
  -13.9037   16.1480  -38.0771 C   0  0  0  0  0  0  0  0  0  0  0  0
  -12.8672   14.1945  -39.3722 C   0  0  0  0  0  0  0  0  0  0  0  0
  -13.2719   15.6904  -39.4244 C   0  0  2  0  0  0  0  0  0  0  0  0
  -12.4114   16.3158  -37.6026 C   0  0  1  0  0  0  0  0  0  0  0  0
  -11.9400   13.8679  -38.2165 C   0  0  1  0  0  0  0  0  0  0  0  0
  -11.6960   14.9971  -37.1898 C   0  0  1  0  0  0  0  0  0  0  0  0
  -12.1342   16.7641  -39.1217 C   0  0  0  0  0  0  0  0  0  0  0  0
  -12.4166   13.7340  -36.8153 C   0  0  0  0  0  0  0  0  0  0  0  0
  -12.4780   18.2317  -39.4425 C   0  0  0  0  0  0  0  0  0  0  0  0
  -10.7576   16.4753  -39.7306 C   0  0  0  0  0  0  0  0  0  0  0  0
   -9.3825   15.6396  -37.2240 O   0  0  0  0  0  0  0  0  0  0  0  0
  -10.2711   14.6476  -35.3741 O   0  0  0  0  0  0  0  0  0  0  0  0
  -11.8145   12.8115  -35.9839 F   0  0  0  0  0  0  0  0  0  0  0  0
  -13.7563   13.7078  -36.5114 F   0  0  0  0  0  0  0  0  0  0  0  0
  -14.4929   17.0702  -38.1153 H   0  0  0  0  0  0  0  0  0  0  0  0
  -14.5358   15.4229  -37.5636 H   0  0  0  0  0  0  0  0  0  0  0  0
  -13.7644   13.5675  -39.3127 H   0  0  0  0  0  0  0  0  0  0  0  0
  -12.3622   13.9357  -40.3103 H   0  0  0  0  0  0  0  0  0  0  0  0
  -13.8854   15.9043  -40.3064 H   0  0  0  0  0  0  0  0  0  0  0  0
  -12.2700   17.0981  -36.8485 H   0  0  0  0  0  0  0  0  0  0  0  0
  -11.1094   13.2410  -38.5170 H   0  0  0  0  0  0  0  0  0  0  0  0
  -11.6287   18.8581  -39.1942 H   0  0  0  0  0  0  0  0  0  0  0  0
  -13.3393   18.5312  -38.8560 H   0  0  0  0  0  0  0  0  0  0  0  0
  -12.7039   18.3209  -40.4992 H   0  0  0  0  0  0  0  0  0  0  0  0
  -10.0663   17.2692  -39.4598 H   0  0  0  0  0  0  0  0  0  0  0  0
  -10.8422   16.4241  -40.8130 H   0  0  0  0  0  0  0  0  0  0  0  0
  -10.3844   15.5270  -39.3524 H   0  0  0  0  0  0  0  0  0  0  0  0
   -9.3731   14.7337  -34.9886 H   0  0  0  0  0  0  0  0  0  0  0  0
  1  7  1  0  0  0  0
  1 12  2  0  0  0  0
  1 13  1  0  0  0  0
  2  4  1  0  0  0  0
  2  5  1  0  0  0  0
  3  4  1  0  0  0  0
  3  6  1  0  0  0  0
  4  8  1  0  0  0  0
  5  7  1  0  0  0  0
  5  8  1  0  0  0  0
  6  7  1  0  0  0  0
  6  9  1  0  0  0  0
  7  9  1  0  0  0  0
  8 10  1  0  0  0  0
  8 11  1  0  0  0  0
  9 14  1  0  0  0  0
  9 15  1  0  0  0  0
  2 16  1  0  0  0  0
  2 17  1  0  0  0  0
  3 18  1  0  0  0  0
  3 19  1  0  0  0  0
  4 20  1  0  0  0  0
  5 21  1  0  0  0  0
  6 22  1  0  0  0  0
 10 23  1  0  0  0  0
 10 24  1  0  0  0  0
 10 25  1  0  0  0  0
 11 26  1  0  0  0  0
 11 27  1  0  0  0  0
 11 28  1  0  0  0  0
 13 29  1  0  0  0  0
M  END
> <id>
EN300-1461527

> <smiles>
CC1(C)C2CC1C3(C(C2)C3(F)F)C(=O)O

> <IUPAC Name>
3,3-difluoro-7,7-dimethyltricyclo[4.1.1.0,2,4]octane-2-carboxylic acid

> <CAS>
2167015-58-7

> <URL>
https://www.enaminestore.com/catalog/EN300-1461527

> <ROCS_ShapeQuery>
__x1247relevant_x1083L0AP1_x1305L0BP1_

> <ROCS_TanimotoCombo>
0.724 

> <ROCS_ShapeTanimoto>
0.477 

> <ROCS_ColorTanimoto>
0.247 

> <ROCS_RefTversky>
0.410 

> <ROCS_RefColorTversky>
0.329 

> <ROCS_RefTverskyCombo>
0.739 

> <ROCS_FitTversky>
1.523 

> <ROCS_FitColorTversky>
0.497 

> <ROCS_FitTverskyCombo>
2.019 

> <ROCS_ColorScore>
-10.940

> <ROCS_Overlap>
1206.323

> <ROCS_Rank>
286                 

$$$$
untitled-dbase-143098_48
  -OEChem-06232314393D

 32 33  0     1  0  0  0  0  0999 V2000
  -13.8443   15.0153  -39.0050 C   0  0  0  0  0  0  0  0  0  0  0  0
  -10.5327   14.7835  -36.4891 C   0  0  0  0  0  0  0  0  0  0  0  0
  -14.0419   15.7835  -37.7151 C   0  0  0  0  0  0  0  0  0  0  0  0
  -11.9719   16.3586  -38.7590 C   0  0  0  0  0  0  0  0  0  0  0  0
  -12.3684   15.0186  -39.3600 C   0  0  1  0  0  0  0  0  0  0  0  0
  -11.8926   14.6612  -37.0948 C   0  0  1  0  0  0  0  0  0  0  0  0
  -12.5506   16.0236  -37.3817 C   0  0  2  0  0  0  0  0  0  0  0  0
   -9.1766   12.6292  -37.0468 C   0  0  0  0  0  0  0  0  0  0  0  0
   -8.1632   13.8287  -39.0073 C   0  0  0  0  0  0  0  0  0  0  0  0
   -7.4137   14.3868  -36.6760 C   0  0  0  0  0  0  0  0  0  0  0  0
   -8.5910   13.9492  -37.5463 C   0  0  0  0  0  0  0  0  0  0  0  0
  -11.7259   14.0656  -38.4393 N   0  0  0  0  0  0  0  0  0  0  0  0
  -14.7260   14.4559  -39.6374 O   0  0  0  0  0  0  0  0  0  0  0  0
  -10.3112   14.7349  -35.2867 O   0  0  0  0  0  0  0  0  0  0  0  0
   -9.6077   14.9539  -37.4762 O   0  0  0  0  0  0  0  0  0  0  0  0
  -14.5722   16.7177  -37.9164 H   0  0  0  0  0  0  0  0  0  0  0  0
  -14.5530   15.1799  -36.9625 H   0  0  0  0  0  0  0  0  0  0  0  0
  -10.8903   16.5302  -38.7537 H   0  0  0  0  0  0  0  0  0  0  0  0
  -12.4707   17.2137  -39.2295 H   0  0  0  0  0  0  0  0  0  0  0  0
  -12.1559   14.8835  -40.4201 H   0  0  0  0  0  0  0  0  0  0  0  0
  -12.5041   14.0249  -36.4460 H   0  0  0  0  0  0  0  0  0  0  0  0
  -12.3842   16.7868  -36.6182 H   0  0  0  0  0  0  0  0  0  0  0  0
   -9.4849   12.7116  -35.9984 H   0  0  0  0  0  0  0  0  0  0  0  0
  -10.0434   12.3220  -37.6410 H   0  0  0  0  0  0  0  0  0  0  0  0
   -8.4283   11.8294  -37.0871 H   0  0  0  0  0  0  0  0  0  0  0  0
   -7.7424   14.7735  -39.3698 H   0  0  0  0  0  0  0  0  0  0  0  0
   -9.0238   13.6077  -39.6490 H   0  0  0  0  0  0  0  0  0  0  0  0
   -7.4160   13.0406  -39.1459 H   0  0  0  0  0  0  0  0  0  0  0  0
   -6.9934   15.3336  -37.0341 H   0  0  0  0  0  0  0  0  0  0  0  0
   -7.7108   14.5142  -35.6300 H   0  0  0  0  0  0  0  0  0  0  0  0
   -6.6019   13.6518  -36.7204 H   0  0  0  0  0  0  0  0  0  0  0  0
  -12.1886   13.1586  -38.4859 H   0  0  0  0  0  0  0  0  0  0  0  0
  1  3  1  0  0  0  0
  1  5  1  0  0  0  0
  1 13  2  0  0  0  0
  2  6  1  1  0  0  0
  2 14  2  0  0  0  0
  2 15  1  0  0  0  0
  3  7  1  6  0  0  0
  4  5  1  0  0  0  0
  4  7  1  0  0  0  0
  5 12  1  6  0  0  0
  6  7  1  0  0  0  0
  6 12  1  0  0  0  0
  8 11  1  0  0  0  0
  9 11  1  0  0  0  0
 10 11  1  0  0  0  0
 11 15  1  0  0  0  0
  3 16  1  0  0  0  0
  3 17  1  0  0  0  0
  4 18  1  0  0  0  0
  4 19  1  0  0  0  0
  5 20  1  0  0  0  0
  6 21  1  0  0  0  0
  7 22  1  0  0  0  0
  8 23  1  0  0  0  0
  8 24  1  0  0  0  0
  8 25  1  0  0  0  0
  9 26  1  0  0  0  0
  9 27  1  0  0  0  0
  9 28  1  0  0  0  0
 10 29  1  0  0  0  0
 10 30  1  0  0  0  0
 10 31  1  0  0  0  0
 12 32  1  0  0  0  0
M  END
> <id>
EN300-27727773

> <smiles>
CC(C)(C)OC(=O)[C@@H]1N[C@@H]2C[C@H]1CC2=O |&1:7,9,11,r|

> <IUPAC Name>
rac-tert-butyl (1R,3R,4S)-6-oxo-2-azabicyclo[2.2.1]heptane-3-carboxylate

> <CAS>
2580099-26-7

> <URL>
https://www.enaminestore.com/catalog/EN300-27727773

> <ROCS_ShapeQuery>
__x1247relevant_x1083L0AP1_x1305L0BP1_

> <ROCS_TanimotoCombo>
0.723 

> <ROCS_ShapeTanimoto>
0.483 

> <ROCS_ColorTanimoto>
0.240 

> <ROCS_RefTversky>
0.414 

> <ROCS_RefColorTversky>
0.268 

> <ROCS_RefTverskyCombo>
0.681 

> <ROCS_FitTversky>
1.537 

> <ROCS_FitColorTversky>
0.700 

> <ROCS_FitTverskyCombo>
2.236 

> <ROCS_ColorScore>
-8.757

> <ROCS_Overlap>
1217.998

> <ROCS_Rank>
287                 

$$$$
untitled-dbase-81030_15
  -OEChem-06232314393D

 31 33  0     1  0  0  0  0  0999 V2000
  -15.6212   15.6291  -40.7862 C   0  0  0  0  0  0  0  0  0  0  0  0
  -15.8601   14.3847  -40.2022 C   0  0  0  0  0  0  0  0  0  0  0  0
  -14.4963   16.3691  -40.4209 C   0  0  0  0  0  0  0  0  0  0  0  0
  -14.9807   13.8814  -39.2434 C   0  0  0  0  0  0  0  0  0  0  0  0
  -13.6091   15.8602  -39.4721 C   0  0  0  0  0  0  0  0  0  0  0  0
  -13.8630   14.6270  -38.8677 C   0  0  0  0  0  0  0  0  0  0  0  0
   -8.9791   13.3643  -37.2128 C   0  0  0  0  0  0  0  0  0  0  0  0
   -8.3928   14.7678  -37.3624 C   0  0  0  0  0  0  0  0  0  0  0  0
  -10.1443   15.2947  -35.8437 C   0  0  0  0  0  0  0  0  0  0  0  0
  -11.5144   15.8725  -38.4709 C   0  0  0  0  0  0  0  0  0  0  0  0
  -11.1053   14.3183  -36.5373 C   0  0  1  0  0  0  0  0  0  0  0  0
  -12.1538   15.0631  -37.3505 C   0  0  2  0  0  0  0  0  0  0  0  0
  -10.4149   13.3977  -37.4501 N   0  0  0  0  0  0  0  0  0  0  0  0
  -12.5121   16.6233  -39.1702 O   0  0  0  0  0  0  0  0  0  0  0  0
  -13.0479   14.0893  -37.9067 O   0  0  0  0  0  0  0  0  0  0  0  0
   -9.1908   15.7984  -36.7735 O   0  0  0  0  0  0  0  0  0  0  0  0
  -16.3100   16.0207  -41.5291 H   0  0  0  0  0  0  0  0  0  0  0  0
  -16.7347   13.8091  -40.4912 H   0  0  0  0  0  0  0  0  0  0  0  0
  -14.3138   17.3335  -40.8871 H   0  0  0  0  0  0  0  0  0  0  0  0
  -15.1794   12.9154  -38.7874 H   0  0  0  0  0  0  0  0  0  0  0  0
   -8.5008   12.6823  -37.9218 H   0  0  0  0  0  0  0  0  0  0  0  0
   -8.7850   12.9818  -36.2047 H   0  0  0  0  0  0  0  0  0  0  0  0
   -7.3958   14.8067  -36.8780 H   0  0  0  0  0  0  0  0  0  0  0  0
   -8.2136   15.0171  -38.4317 H   0  0  0  0  0  0  0  0  0  0  0  0
  -10.6778   16.1330  -35.3763 H   0  0  0  0  0  0  0  0  0  0  0  0
   -9.5920   14.7769  -35.0514 H   0  0  0  0  0  0  0  0  0  0  0  0
  -10.7894   16.5871  -38.0672 H   0  0  0  0  0  0  0  0  0  0  0  0
  -10.9931   15.2318  -39.1937 H   0  0  0  0  0  0  0  0  0  0  0  0
  -11.6372   13.7178  -35.7800 H   0  0  0  0  0  0  0  0  0  0  0  0
  -12.7360   15.7159  -36.6854 H   0  0  0  0  0  0  0  0  0  0  0  0
  -10.5877   13.6970  -38.4186 H   0  0  0  0  0  0  0  0  0  0  0  0
  1  2  2  0  0  0  0
  1  3  1  0  0  0  0
  2  4  1  0  0  0  0
  3  5  2  0  0  0  0
  4  6  2  0  0  0  0
  5  6  1  0  0  0  0
  5 14  1  0  0  0  0
  6 15  1  0  0  0  0
  7  8  1  0  0  0  0
  7 13  1  0  0  0  0
  8 16  1  0  0  0  0
  9 11  1  0  0  0  0
  9 16  1  0  0  0  0
 10 12  1  0  0  0  0
 10 14  1  0  0  0  0
 11 12  1  0  0  0  0
 11 13  1  0  0  0  0
 12 15  1  0  0  0  0
  1 17  1  0  0  0  0
  2 18  1  0  0  0  0
  3 19  1  0  0  0  0
  4 20  1  0  0  0  0
  7 21  1  0  0  0  0
  7 22  1  0  0  0  0
  8 23  1  0  0  0  0
  8 24  1  0  0  0  0
  9 25  1  0  0  0  0
  9 26  1  0  0  0  0
 10 27  1  0  0  0  0
 10 28  1  0  0  0  0
 11 29  1  0  0  0  0
 12 30  1  0  0  0  0
 13 31  1  0  0  0  0
M  END
> <id>
EN300-1783647

> <smiles>
C1COCC(N1)C2COC=3C=CC=CC3O2

> <IUPAC Name>
3-(2,3-dihydro-1,4-benzodioxin-2-yl)morpholine

> <CAS>
2228980-08-1

> <URL>
https://www.enaminestore.com/catalog/EN300-1783647

> <ROCS_ShapeQuery>
__x1247relevant_x1083L0AP1_x1305L0BP1_

> <ROCS_TanimotoCombo>
0.723 

> <ROCS_ShapeTanimoto>
0.527 

> <ROCS_ColorTanimoto>
0.196 

> <ROCS_RefTversky>
0.445 

> <ROCS_RefColorTversky>
0.211 

> <ROCS_RefTverskyCombo>
0.655 

> <ROCS_FitTversky>
1.546 

> <ROCS_FitColorTversky>
0.737 

> <ROCS_FitTverskyCombo>
2.283 

> <ROCS_ColorScore>
-6.857

> <ROCS_Overlap>
1310.575

> <ROCS_Rank>
288                 

$$$$
untitled-dbase-175886_80
  -OEChem-06232314393D

 26 27  0     1  0  0  0  0  0999 V2000
  -13.0613   16.3621  -40.4861 C   0  0  0  0  0  0  0  0  0  0  0  0
  -10.4213   14.9108  -36.6819 C   0  0  0  0  0  0  0  0  0  0  0  0
  -12.6294   14.1570  -39.3953 C   0  0  0  0  0  0  0  0  0  0  0  0
  -13.4548   13.9423  -38.1141 C   0  0  0  0  0  0  0  0  0  0  0  0
  -13.3036   16.3859  -37.3709 C   0  0  0  0  0  0  0  0  0  0  0  0
  -12.1453   15.6113  -39.5687 C   0  0  2  0  0  0  0  0  0  0  0  0
  -13.0140   14.9062  -37.0126 C   0  0  2  0  0  0  0  0  0  0  0  0
  -11.9958   16.2928  -38.2047 C   0  0  2  0  0  0  0  0  0  0  0  0
   -9.2607   15.0852  -37.6233 C   0  0  0  0  0  0  0  0  0  0  0  0
  -11.6223   15.3047  -37.1940 N   0  0  0  0  0  0  0  0  0  0  0  0
  -12.7168   17.2562  -41.2444 O   0  0  0  0  0  0  0  0  0  0  0  0
  -10.2700   14.4474  -35.5529 O   0  0  0  0  0  0  0  0  0  0  0  0
  -14.3352   15.9163  -40.3607 O   0  0  0  0  0  0  0  0  0  0  0  0
   -9.6726   15.6051  -38.7946 F   0  0  0  0  0  0  0  0  0  0  0  0
   -8.3400   15.9144  -37.0972 F   0  0  0  0  0  0  0  0  0  0  0  0
   -8.6656   13.9042  -37.8749 F   0  0  0  0  0  0  0  0  0  0  0  0
  -11.7797   13.4606  -39.4222 H   0  0  0  0  0  0  0  0  0  0  0  0
  -13.2587   13.8748  -40.2540 H   0  0  0  0  0  0  0  0  0  0  0  0
  -14.5201   14.0871  -38.3422 H   0  0  0  0  0  0  0  0  0  0  0  0
  -13.3485   12.9033  -37.7689 H   0  0  0  0  0  0  0  0  0  0  0  0
  -14.2305   16.5944  -37.9178 H   0  0  0  0  0  0  0  0  0  0  0  0
  -13.2507   17.0802  -36.5187 H   0  0  0  0  0  0  0  0  0  0  0  0
  -11.1502   15.5996  -40.0717 H   0  0  0  0  0  0  0  0  0  0  0  0
  -13.2803   14.6124  -35.9983 H   0  0  0  0  0  0  0  0  0  0  0  0
  -11.3779   17.1992  -38.1928 H   0  0  0  0  0  0  0  0  0  0  0  0
  -14.9518   16.3976  -40.9528 H   0  0  0  0  0  0  0  0  0  0  0  0
  1  6  1  6  0  0  0
  1 11  2  0  0  0  0
  1 13  1  0  0  0  0
  2  9  1  0  0  0  0
  2 10  1  0  0  0  0
  2 12  2  0  0  0  0
  3  4  1  0  0  0  0
  3  6  1  0  0  0  0
  4  7  1  1  0  0  0
  5  7  1  0  0  0  0
  5  8  1  6  0  0  0
  6  8  1  0  0  0  0
  7 10  1  0  0  0  0
  8 10  1  0  0  0  0
  9 14  1  0  0  0  0
  9 15  1  0  0  0  0
  9 16  1  0  0  0  0
  3 17  1  0  0  0  0
  3 18  1  0  0  0  0
  4 19  1  0  0  0  0
  4 20  1  0  0  0  0
  5 21  1  0  0  0  0
  5 22  1  0  0  0  0
  6 23  1  0  0  0  0
  7 24  1  0  0  0  0
  8 25  1  0  0  0  0
 13 26  1  0  0  0  0
M  END
> <id>
EN300-37467141

> <smiles>
OC(=O)[C@@H]1CC[C@@H]2C[C@H]1N2C(=O)C(F)(F)F |&1:3,6,8,r|

> <IUPAC Name>
rac-(1R,2R,5R)-6-(2,2,2-trifluoroacetyl)-6-azabicyclo[3.1.1]heptane-2-carboxylic acid

> <URL>
https://www.enaminestore.com/catalog/EN300-37467141

> <ROCS_ShapeQuery>
__x1247relevant_x1083L0AP1_x1305L0BP1_

> <ROCS_TanimotoCombo>
0.723 

> <ROCS_ShapeTanimoto>
0.513 

> <ROCS_ColorTanimoto>
0.210 

> <ROCS_RefTversky>
0.437 

> <ROCS_RefColorTversky>
0.234 

> <ROCS_RefTverskyCombo>
0.671 

> <ROCS_FitTversky>
1.517 

> <ROCS_FitColorTversky>
0.673 

> <ROCS_FitTverskyCombo>
2.190 

> <ROCS_ColorScore>
-7.647

> <ROCS_Overlap>
1287.444

> <ROCS_Rank>
289                 

$$$$
untitled-dbase-165975_6
  -OEChem-06232314393D

 26 28  0     1  0  0  0  0  0999 V2000
   -8.9742   14.2373  -37.4521 C   0  0  0  0  0  0  0  0  0  0  0  0
  -13.8583   15.4332  -39.6477 C   0  0  0  0  0  0  0  0  0  0  0  0
  -14.3854   15.2605  -38.2227 C   0  0  0  0  0  0  0  0  0  0  0  0
  -11.6843   14.3492  -38.9931 C   0  0  0  0  0  0  0  0  0  0  0  0
  -10.4970   15.4671  -36.2882 C   0  0  0  0  0  0  0  0  0  0  0  0
  -12.2250   14.1452  -37.5681 C   0  0  1  0  0  0  0  0  0  0  0  0
  -11.0996   14.0991  -36.5429 C   0  0  1  0  0  0  0  0  0  0  0  0
  -12.3657   15.6522  -39.4109 C   0  0  2  0  0  0  0  0  0  0  0  0
  -13.1088   15.3892  -37.3919 C   0  0  1  0  0  0  0  0  0  0  0  0
   -9.9732   13.3784  -37.0504 N   0  0  0  0  0  0  0  0  0  0  0  0
   -7.9326   13.9381  -38.0185 O   0  0  0  0  0  0  0  0  0  0  0  0
   -9.3271   15.5223  -37.1242 O   0  0  0  0  0  0  0  0  0  0  0  0
  -12.3798   16.3767  -38.1597 O   0  0  0  0  0  0  0  0  0  0  0  0
  -14.0690   14.5734  -40.2902 H   0  0  0  0  0  0  0  0  0  0  0  0
  -14.3121   16.3224  -40.0994 H   0  0  0  0  0  0  0  0  0  0  0  0
  -15.0800   16.0755  -37.9892 H   0  0  0  0  0  0  0  0  0  0  0  0
  -14.9046   14.3103  -38.0682 H   0  0  0  0  0  0  0  0  0  0  0  0
  -10.5957   14.4746  -38.9893 H   0  0  0  0  0  0  0  0  0  0  0  0
  -11.9295   13.5163  -39.6596 H   0  0  0  0  0  0  0  0  0  0  0  0
  -11.1551   16.2984  -36.5669 H   0  0  0  0  0  0  0  0  0  0  0  0
  -10.1928   15.5868  -35.2430 H   0  0  0  0  0  0  0  0  0  0  0  0
  -12.8108   13.2227  -37.4876 H   0  0  0  0  0  0  0  0  0  0  0  0
  -11.4244   13.6259  -35.6391 H   0  0  0  0  0  0  0  0  0  0  0  0
  -11.8541   16.1984  -40.2063 H   0  0  0  0  0  0  0  0  0  0  0  0
  -13.2736   15.7050  -36.3589 H   0  0  0  0  0  0  0  0  0  0  0  0
   -9.9195   12.3629  -37.1062 H   0  0  0  0  0  0  0  0  0  0  0  0
  1 10  1  0  0  0  0
  1 11  2  0  0  0  0
  1 12  1  0  0  0  0
  2  3  1  0  0  0  0
  2  8  1  0  0  0  0
  3  9  1  0  0  0  0
  4  6  1  0  0  0  0
  4  8  1  0  0  0  0
  5  7  1  0  0  0  0
  5 12  1  0  0  0  0
  6  7  1  0  0  0  0
  6  9  1  0  0  0  0
  7 10  1  0  0  0  0
  8 13  1  0  0  0  0
  9 13  1  0  0  0  0
  2 14  1  0  0  0  0
  2 15  1  0  0  0  0
  3 16  1  0  0  0  0
  3 17  1  0  0  0  0
  4 18  1  0  0  0  0
  4 19  1  0  0  0  0
  5 20  1  0  0  0  0
  5 21  1  0  0  0  0
  6 22  1  0  0  0  0
  7 23  1  0  0  0  0
  8 24  1  0  0  0  0
  9 25  1  0  0  0  0
 10 26  1  0  0  0  0
M  END
> <id>
EN300-1754133

> <smiles>
O=C1NC(CO1)C2CC3CCC2O3

> <IUPAC Name>
4-{7-oxabicyclo[2.2.1]heptan-2-yl}-1,3-oxazolidin-2-one

> <CAS>
2229560-84-1

> <URL>
https://www.enaminestore.com/catalog/EN300-1754133

> <ROCS_ShapeQuery>
__x1247relevant_x1083L0AP1_x1305L0BP1_

> <ROCS_TanimotoCombo>
0.723 

> <ROCS_ShapeTanimoto>
0.493 

> <ROCS_ColorTanimoto>
0.229 

> <ROCS_RefTversky>
0.412 

> <ROCS_RefColorTversky>
0.252 

> <ROCS_RefTverskyCombo>
0.664 

> <ROCS_FitTversky>
1.673 

> <ROCS_FitColorTversky>
0.716 

> <ROCS_FitTverskyCombo>
2.389 

> <ROCS_ColorScore>
-8.250

> <ROCS_Overlap>
1210.736

> <ROCS_Rank>
290                 

$$$$
untitled-dbase-312_15
  -OEChem-06232314393D

 32 34  0     1  0  0  0  0  0999 V2000
   -9.6819   14.7797  -37.3178 C   0  0  0  0  0  0  0  0  0  0  0  0
  -13.9934   14.5835  -37.5022 C   0  0  0  0  0  0  0  0  0  0  0  0
  -11.7451   13.6521  -38.1130 C   0  0  0  0  0  0  0  0  0  0  0  0
  -11.9079   15.7219  -36.6984 C   0  0  0  0  0  0  0  0  0  0  0  0
  -13.1719   14.7388  -39.8652 C   0  0  0  0  0  0  0  0  0  0  0  0
  -13.3315   16.8067  -38.4535 C   0  0  0  0  0  0  0  0  0  0  0  0
  -11.0821   15.8790  -39.0643 C   0  0  0  0  0  0  0  0  0  0  0  0
  -13.1897   13.8648  -38.6005 C   0  0  2  0  0  0  0  0  0  0  0  0
  -13.3522   15.9452  -37.1807 C   0  0  1  0  0  0  0  0  0  0  0  0
  -11.0878   15.0096  -37.7928 C   0  0  0  0  0  0  0  0  0  0  0  0
  -12.5239   16.1002  -39.5556 C   0  0  0  0  0  0  0  0  0  0  0  0
   -9.2145   13.3508  -37.2530 C   0  0  0  0  0  0  0  0  0  0  0  0
   -8.9477   15.7138  -36.9992 O   0  0  0  0  0  0  0  0  0  0  0  0
  -12.5190   16.8900  -40.7361 O   0  0  0  0  0  0  0  0  0  0  0  0
  -15.0301   14.7268  -37.8308 H   0  0  0  0  0  0  0  0  0  0  0  0
  -14.0285   13.9637  -36.5979 H   0  0  0  0  0  0  0  0  0  0  0  0
  -11.7423   13.0075  -37.2241 H   0  0  0  0  0  0  0  0  0  0  0  0
  -11.1671   13.1195  -38.8797 H   0  0  0  0  0  0  0  0  0  0  0  0
  -11.4459   16.6843  -36.4422 H   0  0  0  0  0  0  0  0  0  0  0  0
  -11.9123   15.1282  -35.7748 H   0  0  0  0  0  0  0  0  0  0  0  0
  -12.6231   14.2347  -40.6713 H   0  0  0  0  0  0  0  0  0  0  0  0
  -14.1913   14.8835  -40.2460 H   0  0  0  0  0  0  0  0  0  0  0  0
  -14.3543   17.0011  -38.8016 H   0  0  0  0  0  0  0  0  0  0  0  0
  -12.8992   17.7930  -38.2403 H   0  0  0  0  0  0  0  0  0  0  0  0
  -10.5941   16.8446  -38.8731 H   0  0  0  0  0  0  0  0  0  0  0  0
  -10.4839   15.4107  -39.8580 H   0  0  0  0  0  0  0  0  0  0  0  0
  -13.6514   12.8969  -38.8248 H   0  0  0  0  0  0  0  0  0  0  0  0
  -13.9297   16.4516  -36.3994 H   0  0  0  0  0  0  0  0  0  0  0  0
   -8.7613   13.0675  -38.2071 H   0  0  0  0  0  0  0  0  0  0  0  0
  -10.0668   12.6952  -37.0581 H   0  0  0  0  0  0  0  0  0  0  0  0
   -8.4682   13.2449  -36.4619 H   0  0  0  0  0  0  0  0  0  0  0  0
  -13.4458   16.9992  -41.0051 H   0  0  0  0  0  0  0  0  0  0  0  0
  1 10  1  0  0  0  0
  1 12  1  0  0  0  0
  1 13  2  0  0  0  0
  2  8  1  0  0  0  0
  2  9  1  0  0  0  0
  3  8  1  0  0  0  0
  3 10  1  0  0  0  0
  4  9  1  0  0  0  0
  4 10  1  0  0  0  0
  5  8  1  0  0  0  0
  5 11  1  0  0  0  0
  6  9  1  0  0  0  0
  6 11  1  0  0  0  0
  7 10  1  0  0  0  0
  7 11  1  0  0  0  0
 11 14  1  0  0  0  0
  2 15  1  0  0  0  0
  2 16  1  0  0  0  0
  3 17  1  0  0  0  0
  3 18  1  0  0  0  0
  4 19  1  0  0  0  0
  4 20  1  0  0  0  0
  5 21  1  0  0  0  0
  5 22  1  0  0  0  0
  6 23  1  0  0  0  0
  6 24  1  0  0  0  0
  7 25  1  0  0  0  0
  7 26  1  0  0  0  0
  8 27  1  0  0  0  0
  9 28  1  0  0  0  0
 12 29  1  0  0  0  0
 12 30  1  0  0  0  0
 12 31  1  0  0  0  0
 14 32  1  0  0  0  0
M  END
> <id>
EN300-03264

> <smiles>
CC(=O)C1(CC2CC3CC(O)(C2)C1)C3

> <IUPAC Name>
1-(3-hydroxyadamantan-1-yl)ethan-1-one

> <CAS>
39917-38-9

> <URL>
https://www.enaminestore.com/catalog/EN300-03264

> <ROCS_ShapeQuery>
__x1247relevant_x1083L0AP1_x1305L0BP1_

> <ROCS_TanimotoCombo>
0.723 

> <ROCS_ShapeTanimoto>
0.511 

> <ROCS_ColorTanimoto>
0.212 

> <ROCS_RefTversky>
0.425 

> <ROCS_RefColorTversky>
0.232 

> <ROCS_RefTverskyCombo>
0.657 

> <ROCS_FitTversky>
1.661 

> <ROCS_FitColorTversky>
0.708 

> <ROCS_FitTverskyCombo>
2.368 

> <ROCS_ColorScore>
-7.565

> <ROCS_Overlap>
1249.973

> <ROCS_Rank>
291                 

$$$$
untitled-dbase-151535_38
  -OEChem-06232314393D

 29 30  0     1  0  0  0  0  0999 V2000
  -12.9892   16.6158  -40.4678 C   0  0  0  0  0  0  0  0  0  0  0  0
   -9.7418   15.0710  -37.0011 C   0  0  0  0  0  0  0  0  0  0  0  0
  -12.8603   14.2716  -39.5597 C   0  0  0  0  0  0  0  0  0  0  0  0
  -13.4101   13.6501  -38.2677 C   0  0  0  0  0  0  0  0  0  0  0  0
  -13.7916   15.9998  -38.1807 C   0  0  0  0  0  0  0  0  0  0  0  0
  -11.3409   16.1028  -38.6734 C   0  0  0  0  0  0  0  0  0  0  0  0
  -12.1612   15.0450  -36.5471 C   0  0  0  0  0  0  0  0  0  0  0  0
  -12.7285   15.7779  -39.2538 C   0  0  2  0  0  0  0  0  0  0  0  0
  -13.4850   14.8155  -37.2793 C   0  0  2  0  0  0  0  0  0  0  0  0
   -9.5500   13.7952  -36.2192 C   0  0  0  0  0  0  0  0  0  0  0  0
  -11.0392   15.3385  -37.4481 N   0  0  0  0  0  0  0  0  0  0  0  0
  -12.1890   17.3902  -40.9712 O   0  0  0  0  0  0  0  0  0  0  0  0
   -8.7752   15.8101  -37.2038 O   0  0  0  0  0  0  0  0  0  0  0  0
  -14.2427   16.4016  -40.9372 O   0  0  0  0  0  0  0  0  0  0  0  0
  -14.4724   14.6203  -36.3804 F   0  0  0  0  0  0  0  0  0  0  0  0
  -10.7157   13.1356  -36.0997 F   0  0  0  0  0  0  0  0  0  0  0  0
   -8.6698   12.9886  -36.8381 F   0  0  0  0  0  0  0  0  0  0  0  0
   -9.0854   14.0588  -34.9851 F   0  0  0  0  0  0  0  0  0  0  0  0
  -11.9017   13.8211  -39.8417 H   0  0  0  0  0  0  0  0  0  0  0  0
  -13.5572   14.0827  -40.3853 H   0  0  0  0  0  0  0  0  0  0  0  0
  -14.4083   13.2323  -38.4434 H   0  0  0  0  0  0  0  0  0  0  0  0
  -12.7772   12.8330  -37.9059 H   0  0  0  0  0  0  0  0  0  0  0  0
  -13.6980   16.9629  -37.6664 H   0  0  0  0  0  0  0  0  0  0  0  0
  -14.8128   15.9423  -38.5780 H   0  0  0  0  0  0  0  0  0  0  0  0
  -10.5709   15.9177  -39.4289 H   0  0  0  0  0  0  0  0  0  0  0  0
  -11.2730   17.1654  -38.4078 H   0  0  0  0  0  0  0  0  0  0  0  0
  -12.2555   15.8970  -35.8623 H   0  0  0  0  0  0  0  0  0  0  0  0
  -11.9208   14.1774  -35.9218 H   0  0  0  0  0  0  0  0  0  0  0  0
  -14.4338   16.9434  -41.7323 H   0  0  0  0  0  0  0  0  0  0  0  0
  1  8  1  0  0  0  0
  1 12  2  0  0  0  0
  1 14  1  0  0  0  0
  2 10  1  0  0  0  0
  2 11  1  0  0  0  0
  2 13  2  0  0  0  0
  3  4  1  0  0  0  0
  3  8  1  0  0  0  0
  4  9  1  0  0  0  0
  5  8  1  0  0  0  0
  5  9  1  0  0  0  0
  6  8  1  0  0  0  0
  6 11  1  0  0  0  0
  7  9  1  0  0  0  0
  7 11  1  0  0  0  0
  9 15  1  0  0  0  0
 10 16  1  0  0  0  0
 10 17  1  0  0  0  0
 10 18  1  0  0  0  0
  3 19  1  0  0  0  0
  3 20  1  0  0  0  0
  4 21  1  0  0  0  0
  4 22  1  0  0  0  0
  5 23  1  0  0  0  0
  5 24  1  0  0  0  0
  6 25  1  0  0  0  0
  6 26  1  0  0  0  0
  7 27  1  0  0  0  0
  7 28  1  0  0  0  0
 14 29  1  0  0  0  0
M  END
> <id>
EN300-28282959

> <smiles>
OC(=O)C1(CCC2(F)C1)CN(C2)C(=O)C(F)(F)F

> <IUPAC Name>
5-fluoro-3-(2,2,2-trifluoroacetyl)-3-azabicyclo[3.2.1]octane-1-carboxylic acid

> <CAS>
2680846-04-0

> <URL>
https://www.enaminestore.com/catalog/EN300-28282959

> <ROCS_ShapeQuery>
__x1247relevant_x1083L0AP1_x1305L0BP1_

> <ROCS_TanimotoCombo>
0.723 

> <ROCS_ShapeTanimoto>
0.526 

> <ROCS_ColorTanimoto>
0.197 

> <ROCS_RefTversky>
0.454 

> <ROCS_RefColorTversky>
0.220 

> <ROCS_RefTverskyCombo>
0.674 

> <ROCS_FitTversky>
1.427 

> <ROCS_FitColorTversky>
0.653 

> <ROCS_FitTverskyCombo>
2.080 

> <ROCS_ColorScore>
-7.191

> <ROCS_Overlap>
1340.740

> <ROCS_Rank>
292                 

$$$$
untitled-dbase-26193_26
  -OEChem-06232314393D

 39 40  0     1  0  0  0  0  0999 V2000
  -12.0281   16.2497  -40.7549 C   0  0  0  0  0  0  0  0  0  0  0  0
  -10.1203   14.8458  -36.4323 C   0  0  0  0  0  0  0  0  0  0  0  0
  -13.6209   13.8770  -38.3599 C   0  0  0  0  0  0  0  0  0  0  0  0
  -12.6639   14.1384  -39.5388 C   0  0  0  0  0  0  0  0  0  0  0  0
  -12.5835   15.3519  -36.5742 C   0  0  0  0  0  0  0  0  0  0  0  0
  -11.0482   15.8080  -38.5141 C   0  0  0  0  0  0  0  0  0  0  0  0
  -13.7115   15.2167  -37.6076 C   0  0  1  0  0  0  0  0  0  0  0  0
  -12.2779   15.6253  -39.4166 C   0  0  1  0  0  0  0  0  0  0  0  0
  -13.5048   16.2129  -38.7352 C   0  0  0  0  0  0  0  0  0  0  0  0
   -9.3836   12.4499  -37.2060 C   0  0  0  0  0  0  0  0  0  0  0  0
   -7.6255   13.5081  -38.6546 C   0  0  0  0  0  0  0  0  0  0  0  0
   -7.3083   13.4211  -36.1646 C   0  0  0  0  0  0  0  0  0  0  0  0
   -8.3254   13.5483  -37.2979 C   0  0  0  0  0  0  0  0  0  0  0  0
  -11.2402   15.2523  -37.1687 N   0  0  0  0  0  0  0  0  0  0  0  0
  -12.6455   17.2000  -41.2122 O   0  0  0  0  0  0  0  0  0  0  0  0
  -10.1494   14.5388  -35.2419 O   0  0  0  0  0  0  0  0  0  0  0  0
  -11.0191   15.6139  -41.3990 O   0  0  0  0  0  0  0  0  0  0  0  0
   -8.9764   14.8189  -37.1858 O   0  0  0  0  0  0  0  0  0  0  0  0
  -13.3251   17.4704  -38.2985 F   0  0  0  0  0  0  0  0  0  0  0  0
  -14.5757   16.2122  -39.5621 F   0  0  0  0  0  0  0  0  0  0  0  0
  -14.6067   13.5959  -38.7493 H   0  0  0  0  0  0  0  0  0  0  0  0
  -13.2722   13.0574  -37.7232 H   0  0  0  0  0  0  0  0  0  0  0  0
  -11.7905   13.4781  -39.4954 H   0  0  0  0  0  0  0  0  0  0  0  0
  -13.1782   13.9281  -40.4846 H   0  0  0  0  0  0  0  0  0  0  0  0
  -12.6374   16.3299  -36.0812 H   0  0  0  0  0  0  0  0  0  0  0  0
  -12.7022   14.5894  -35.7972 H   0  0  0  0  0  0  0  0  0  0  0  0
  -10.1615   15.3535  -38.9729 H   0  0  0  0  0  0  0  0  0  0  0  0
  -10.8179   16.8737  -38.3860 H   0  0  0  0  0  0  0  0  0  0  0  0
  -14.6854   15.3353  -37.1229 H   0  0  0  0  0  0  0  0  0  0  0  0
   -9.8883   12.4754  -36.2336 H   0  0  0  0  0  0  0  0  0  0  0  0
  -10.1387   12.5505  -37.9925 H   0  0  0  0  0  0  0  0  0  0  0  0
   -8.9258   11.4577  -37.2907 H   0  0  0  0  0  0  0  0  0  0  0  0
   -6.8653   14.2945  -38.7249 H   0  0  0  0  0  0  0  0  0  0  0  0
   -8.3376   13.6937  -39.4668 H   0  0  0  0  0  0  0  0  0  0  0  0
   -7.1420   12.5418  -38.8314 H   0  0  0  0  0  0  0  0  0  0  0  0
   -6.5491   14.2089  -36.2303 H   0  0  0  0  0  0  0  0  0  0  0  0
   -7.7885   13.4849  -35.1828 H   0  0  0  0  0  0  0  0  0  0  0  0
   -6.7711   12.4679  -36.2283 H   0  0  0  0  0  0  0  0  0  0  0  0
  -10.8411   16.0075  -42.2797 H   0  0  0  0  0  0  0  0  0  0  0  0
  1  8  1  0  0  0  0
  1 15  2  0  0  0  0
  1 17  1  0  0  0  0
  2 14  1  0  0  0  0
  2 16  2  0  0  0  0
  2 18  1  0  0  0  0
  3  4  1  0  0  0  0
  3  7  1  0  0  0  0
  4  8  1  0  0  0  0
  5  7  1  0  0  0  0
  5 14  1  0  0  0  0
  6  8  1  0  0  0  0
  6 14  1  0  0  0  0
  7  9  1  0  0  0  0
  8  9  1  0  0  0  0
  9 19  1  0  0  0  0
  9 20  1  0  0  0  0
 10 13  1  0  0  0  0
 11 13  1  0  0  0  0
 12 13  1  0  0  0  0
 13 18  1  0  0  0  0
  3 21  1  0  0  0  0
  3 22  1  0  0  0  0
  4 23  1  0  0  0  0
  4 24  1  0  0  0  0
  5 25  1  0  0  0  0
  5 26  1  0  0  0  0
  6 27  1  0  0  0  0
  6 28  1  0  0  0  0
  7 29  1  0  0  0  0
 10 30  1  0  0  0  0
 10 31  1  0  0  0  0
 10 32  1  0  0  0  0
 11 33  1  0  0  0  0
 11 34  1  0  0  0  0
 11 35  1  0  0  0  0
 12 36  1  0  0  0  0
 12 37  1  0  0  0  0
 12 38  1  0  0  0  0
 17 39  1  0  0  0  0
M  END
> <id>
EN300-12445156

> <smiles>
CC(C)(C)OC(=O)N1CC2CCC(C1)(C(=O)O)C2(F)F

> <MDLNUMBER>
MFCD22209813

> <IUPAC Name>
3-[(tert-butoxy)carbonyl]-8,8-difluoro-3-azabicyclo[3.2.1]octane-1-carboxylic acid

> <CAS>
1373028-09-1

> <Purity>
95

> <URL>
https://www.enaminestore.com/catalog/EN300-12445156

> <ROCS_ShapeQuery>
__x1247relevant_x1083L0AP1_x1305L0BP1_

> <ROCS_TanimotoCombo>
0.723 

> <ROCS_ShapeTanimoto>
0.532 

> <ROCS_ColorTanimoto>
0.191 

> <ROCS_RefTversky>
0.467 

> <ROCS_RefColorTversky>
0.219 

> <ROCS_RefTverskyCombo>
0.686 

> <ROCS_FitTversky>
1.353 

> <ROCS_FitColorTversky>
0.597 

> <ROCS_FitTverskyCombo>
1.951 

> <ROCS_ColorScore>
-7.151

> <ROCS_Overlap>
1381.073

> <ROCS_Rank>
293                 

$$$$
untitled-dbase-121849_10
  -OEChem-06232314393D

 29 31  0     1  0  0  0  0  0999 V2000
  -14.1631   15.4567  -39.3275 C   0  0  0  0  0  0  0  0  0  0  0  0
  -14.2728   15.0276  -37.8639 C   0  0  0  0  0  0  0  0  0  0  0  0
  -11.7899   14.6255  -39.4109 C   0  0  0  0  0  0  0  0  0  0  0  0
   -9.4968   15.1732  -37.7914 C   0  0  0  0  0  0  0  0  0  0  0  0
  -10.4636   14.8975  -35.8860 C   0  0  0  0  0  0  0  0  0  0  0  0
  -11.9093   14.1638  -37.9490 C   0  0  2  0  0  0  0  0  0  0  0  0
  -12.6936   15.8583  -39.4324 C   0  0  2  0  0  0  0  0  0  0  0  0
  -12.8435   15.2329  -37.3626 C   0  0  1  0  0  0  0  0  0  0  0  0
  -10.5667   14.1937  -37.2581 C   0  0  0  0  0  0  0  0  0  0  0  0
   -9.1144   15.5134  -36.3302 C   0  0  0  0  0  0  0  0  0  0  0  0
   -9.9643   12.8585  -37.1497 N   0  0  0  0  0  0  0  0  0  0  0  0
  -12.4541   16.4063  -38.1159 O   0  0  0  0  0  0  0  0  0  0  0  0
   -8.0115   14.8852  -35.8614 F   0  0  0  0  0  0  0  0  0  0  0  0
   -8.9573   16.8285  -36.0601 F   0  0  0  0  0  0  0  0  0  0  0  0
  -14.4424   14.6655  -40.0292 H   0  0  0  0  0  0  0  0  0  0  0  0
  -14.8138   16.3205  -39.5047 H   0  0  0  0  0  0  0  0  0  0  0  0
  -14.9646   15.6959  -37.3387 H   0  0  0  0  0  0  0  0  0  0  0  0
  -14.6269   13.9997  -37.7426 H   0  0  0  0  0  0  0  0  0  0  0  0
  -10.7593   14.9036  -39.6584 H   0  0  0  0  0  0  0  0  0  0  0  0
  -12.1175   13.8596  -40.1210 H   0  0  0  0  0  0  0  0  0  0  0  0
   -8.6943   14.7435  -38.4004 H   0  0  0  0  0  0  0  0  0  0  0  0
   -9.9041   16.0366  -38.3328 H   0  0  0  0  0  0  0  0  0  0  0  0
  -11.2357   15.6571  -35.7084 H   0  0  0  0  0  0  0  0  0  0  0  0
  -10.4175   14.2521  -35.0027 H   0  0  0  0  0  0  0  0  0  0  0  0
  -12.3386   13.1590  -37.8703 H   0  0  0  0  0  0  0  0  0  0  0  0
  -12.4718   16.5708  -40.2299 H   0  0  0  0  0  0  0  0  0  0  0  0
  -12.7590   15.3911  -36.2848 H   0  0  0  0  0  0  0  0  0  0  0  0
   -9.6578   12.5831  -38.0521 H   0  0  0  0  0  0  0  0  0  0  0  0
   -9.1992   12.9150  -36.5205 H   0  0  0  0  0  0  0  0  0  0  0  0
  1  2  1  0  0  0  0
  1  7  1  0  0  0  0
  2  8  1  0  0  0  0
  3  6  1  0  0  0  0
  3  7  1  0  0  0  0
  4  9  1  0  0  0  0
  4 10  1  0  0  0  0
  5  9  1  0  0  0  0
  5 10  1  0  0  0  0
  6  8  1  0  0  0  0
  6  9  1  0  0  0  0
  7 12  1  0  0  0  0
  8 12  1  0  0  0  0
  9 11  1  0  0  0  0
 10 13  1  0  0  0  0
 10 14  1  0  0  0  0
  1 15  1  0  0  0  0
  1 16  1  0  0  0  0
  2 17  1  0  0  0  0
  2 18  1  0  0  0  0
  3 19  1  0  0  0  0
  3 20  1  0  0  0  0
  4 21  1  0  0  0  0
  4 22  1  0  0  0  0
  5 23  1  0  0  0  0
  5 24  1  0  0  0  0
  6 25  1  0  0  0  0
  7 26  1  0  0  0  0
  8 27  1  0  0  0  0
 11 28  1  0  0  0  0
 11 29  1  0  0  0  0
M  END
> <id>
EN300-1970395

> <smiles>
NC1(CC(F)(F)C1)C2CC3CCC2O3

> <IUPAC Name>
3,3-difluoro-1-{7-oxabicyclo[2.2.1]heptan-2-yl}cyclobutan-1-amine

> <CAS>
2229229-06-3

> <URL>
https://www.enaminestore.com/catalog/EN300-1970395

> <ROCS_ShapeQuery>
__x1247relevant_x1083L0AP1_x1305L0BP1_

> <ROCS_TanimotoCombo>
0.723 

> <ROCS_ShapeTanimoto>
0.490 

> <ROCS_ColorTanimoto>
0.233 

> <ROCS_RefTversky>
0.414 

> <ROCS_RefColorTversky>
0.255 

> <ROCS_RefTverskyCombo>
0.669 

> <ROCS_FitTversky>
1.600 

> <ROCS_FitColorTversky>
0.724 

> <ROCS_FitTverskyCombo>
2.324 

> <ROCS_ColorScore>
-8.342

> <ROCS_Overlap>
1218.050

> <ROCS_Rank>
294                 

$$$$
untitled-dbase-170201_1345
  -OEChem-06232314393D

 54 55  0     1  0  0  0  0  0999 V2000
   -9.7102   14.8423  -37.1141 C   0  0  0  0  0  0  0  0  0  0  0  0
  -13.4881   15.4296  -40.7573 C   0  0  0  0  0  0  0  0  0  0  0  0
  -13.7373   14.5386  -37.3092 C   0  0  0  0  0  0  0  0  0  0  0  0
  -13.5972   16.0726  -37.2326 C   0  0  0  0  0  0  0  0  0  0  0  0
  -11.5724   13.8939  -38.4489 C   0  0  0  0  0  0  0  0  0  0  0  0
  -13.0750   14.1531  -38.6378 C   0  0  2  0  0  0  0  0  0  0  0  0
  -12.8487   16.4649  -38.5169 C   0  0  1  0  0  0  0  0  0  0  0  0
  -11.3152   16.4216  -38.2876 C   0  0  2  0  0  0  0  0  0  0  0  0
   -8.4635   14.4368  -34.5709 C   0  0  0  0  0  0  0  0  0  0  0  0
   -8.8414   11.9880  -34.9834 C   0  0  0  0  0  0  0  0  0  0  0  0
   -7.3625   13.3032  -36.5298 C   0  0  0  0  0  0  0  0  0  0  0  0
  -15.1551   14.9159  -43.0213 C   0  0  0  0  0  0  0  0  0  0  0  0
  -14.8767   12.4875  -42.4427 C   0  0  0  0  0  0  0  0  0  0  0  0
  -15.9925   14.0410  -40.8149 C   0  0  0  0  0  0  0  0  0  0  0  0
  -10.5400   16.8907  -39.5228 C   0  0  0  0  0  0  0  0  0  0  0  0
   -8.5999   13.3482  -35.6344 C   0  0  0  0  0  0  0  0  0  0  0  0
  -14.9183   13.9120  -41.8939 C   0  0  0  0  0  0  0  0  0  0  0  0
  -10.8610   15.0591  -37.8843 N   0  0  0  0  0  0  0  0  0  0  0  0
  -13.2021   15.3728  -39.4084 N   0  0  0  0  0  0  0  0  0  0  0  0
   -8.7711   15.6324  -37.0361 O   0  0  0  0  0  0  0  0  0  0  0  0
  -13.5929   16.4730  -41.3979 O   0  0  0  0  0  0  0  0  0  0  0  0
  -10.4742   15.8170  -40.4404 O   0  0  0  0  0  0  0  0  0  0  0  0
   -9.7405   13.6459  -36.4476 O   0  0  0  0  0  0  0  0  0  0  0  0
  -13.6431   14.1838  -41.3023 O   0  0  0  0  0  0  0  0  0  0  0  0
  -13.2792   14.0460  -36.4455 H   0  0  0  0  0  0  0  0  0  0  0  0
  -14.8009   14.2731  -37.3221 H   0  0  0  0  0  0  0  0  0  0  0  0
  -14.5955   16.5259  -37.2227 H   0  0  0  0  0  0  0  0  0  0  0  0
  -13.0787   16.3872  -36.3212 H   0  0  0  0  0  0  0  0  0  0  0  0
  -11.4156   13.0223  -37.8037 H   0  0  0  0  0  0  0  0  0  0  0  0
  -11.1003   13.6723  -39.4138 H   0  0  0  0  0  0  0  0  0  0  0  0
  -13.5613   13.3032  -39.1256 H   0  0  0  0  0  0  0  0  0  0  0  0
  -13.1680   17.4394  -38.8981 H   0  0  0  0  0  0  0  0  0  0  0  0
  -11.0761   17.1130  -37.4704 H   0  0  0  0  0  0  0  0  0  0  0  0
   -8.2901   15.4147  -35.0342 H   0  0  0  0  0  0  0  0  0  0  0  0
   -9.3589   14.5028  -33.9442 H   0  0  0  0  0  0  0  0  0  0  0  0
   -7.6009   14.2444  -33.9228 H   0  0  0  0  0  0  0  0  0  0  0  0
   -8.9398   11.2040  -35.7428 H   0  0  0  0  0  0  0  0  0  0  0  0
   -9.7792   11.9878  -34.4162 H   0  0  0  0  0  0  0  0  0  0  0  0
   -8.0263   11.7140  -34.3058 H   0  0  0  0  0  0  0  0  0  0  0  0
   -7.4601   12.5225  -37.2928 H   0  0  0  0  0  0  0  0  0  0  0  0
   -7.1947   14.2603  -37.0343 H   0  0  0  0  0  0  0  0  0  0  0  0
   -6.4683   13.0555  -35.9465 H   0  0  0  0  0  0  0  0  0  0  0  0
  -15.1857   15.9396  -42.6314 H   0  0  0  0  0  0  0  0  0  0  0  0
  -14.3722   14.8576  -43.7844 H   0  0  0  0  0  0  0  0  0  0  0  0
  -16.1231   14.7401  -43.5044 H   0  0  0  0  0  0  0  0  0  0  0  0
  -14.7070   11.7639  -41.6372 H   0  0  0  0  0  0  0  0  0  0  0  0
  -14.0466   12.3649  -43.1477 H   0  0  0  0  0  0  0  0  0  0  0  0
  -15.8080   12.2244  -42.9546 H   0  0  0  0  0  0  0  0  0  0  0  0
  -15.8229   13.3211  -40.0062 H   0  0  0  0  0  0  0  0  0  0  0  0
  -16.0121   15.0471  -40.3836 H   0  0  0  0  0  0  0  0  0  0  0  0
  -16.9846   13.8182  -41.2242 H   0  0  0  0  0  0  0  0  0  0  0  0
   -9.5334   17.1846  -39.2329 H   0  0  0  0  0  0  0  0  0  0  0  0
  -11.0563   17.7311  -39.9815 H   0  0  0  0  0  0  0  0  0  0  0  0
  -10.0137   15.0852  -39.9941 H   0  0  0  0  0  0  0  0  0  0  0  0
  1 18  1  0  0  0  0
  1 20  2  0  0  0  0
  1 23  1  0  0  0  0
  2 19  1  0  0  0  0
  2 21  2  0  0  0  0
  2 24  1  0  0  0  0
  3  4  1  0  0  0  0
  3  6  1  6  0  0  0
  4  7  1  6  0  0  0
  5  6  1  0  0  0  0
  5 18  1  0  0  0  0
  6 19  1  0  0  0  0
  7  8  1  0  0  0  0
  7 19  1  0  0  0  0
  8 15  1  1  0  0  0
  8 18  1  0  0  0  0
  9 16  1  0  0  0  0
 10 16  1  0  0  0  0
 11 16  1  0  0  0  0
 12 17  1  0  0  0  0
 13 17  1  0  0  0  0
 14 17  1  0  0  0  0
 15 22  1  0  0  0  0
 16 23  1  0  0  0  0
 17 24  1  0  0  0  0
  3 25  1  0  0  0  0
  3 26  1  0  0  0  0
  4 27  1  0  0  0  0
  4 28  1  0  0  0  0
  5 29  1  0  0  0  0
  5 30  1  0  0  0  0
  6 31  1  0  0  0  0
  7 32  1  0  0  0  0
  8 33  1  0  0  0  0
  9 34  1  0  0  0  0
  9 35  1  0  0  0  0
  9 36  1  0  0  0  0
 10 37  1  0  0  0  0
 10 38  1  0  0  0  0
 10 39  1  0  0  0  0
 11 40  1  0  0  0  0
 11 41  1  0  0  0  0
 11 42  1  0  0  0  0
 12 43  1  0  0  0  0
 12 44  1  0  0  0  0
 12 45  1  0  0  0  0
 13 46  1  0  0  0  0
 13 47  1  0  0  0  0
 13 48  1  0  0  0  0
 14 49  1  0  0  0  0
 14 50  1  0  0  0  0
 14 51  1  0  0  0  0
 15 52  1  0  0  0  0
 15 53  1  0  0  0  0
 22 54  1  0  0  0  0
M  END
> <id>
EN300-37100400

> <smiles>
CC(C)(C)OC(=O)N1[C@@H]2CC[C@H]1[C@H](CO)N(C2)C(=O)OC(C)(C)C |&1:8,11,12,r|

> <IUPAC Name>
rac-3,8-di-tert-butyl (1R,2S,5S)-2-(hydroxymethyl)-3,8-diazabicyclo[3.2.1]octane-3,8-dicarboxylate

> <CAS>
2763965-32-6

> <URL>
https://www.enaminestore.com/catalog/EN300-37100400

> <ROCS_ShapeQuery>
__x1247relevant_x1083L0AP1_x1305L0BP1_

> <ROCS_TanimotoCombo>
0.723 

> <ROCS_ShapeTanimoto>
0.515 

> <ROCS_ColorTanimoto>
0.208 

> <ROCS_RefTversky>
0.474 

> <ROCS_RefColorTversky>
0.240 

> <ROCS_RefTverskyCombo>
0.714 

> <ROCS_FitTversky>
1.201 

> <ROCS_FitColorTversky>
0.607 

> <ROCS_FitTverskyCombo>
1.808 

> <ROCS_ColorScore>
-7.867

> <ROCS_Overlap>
1404.646

> <ROCS_Rank>
295                 

$$$$
untitled-dbase-171483_85
  -OEChem-06232314393D

 26 27  0     1  0  0  0  0  0999 V2000
  -14.4099   14.7830  -40.2024 C   0  0  0  0  0  0  0  0  0  0  0  0
  -10.1663   14.8903  -37.0379 C   0  0  0  0  0  0  0  0  0  0  0  0
  -13.2456   13.8680  -38.2048 C   0  0  0  0  0  0  0  0  0  0  0  0
  -12.0517   15.5132  -39.8148 C   0  0  0  0  0  0  0  0  0  0  0  0
  -13.0643   16.3916  -37.5694 C   0  0  0  0  0  0  0  0  0  0  0  0
  -13.0724   14.3685  -39.6544 C   0  0  0  0  0  0  0  0  0  0  0  0
  -12.7756   14.9126  -37.1928 C   0  0  2  0  0  0  0  0  0  0  0  0
  -11.8231   16.2428  -38.4919 C   0  0  1  0  0  0  0  0  0  0  0  0
  -10.0963   13.4628  -36.5677 C   0  0  0  0  0  0  0  0  0  0  0  0
  -11.3953   15.2762  -37.4870 N   0  0  0  0  0  0  0  0  0  0  0  0
  -15.2111   14.0331  -40.7400 O   0  0  0  0  0  0  0  0  0  0  0  0
   -9.1814   15.6262  -37.0042 O   0  0  0  0  0  0  0  0  0  0  0  0
  -14.6102   16.1114  -40.0220 O   0  0  0  0  0  0  0  0  0  0  0  0
  -11.2933   12.8607  -36.6957 F   0  0  0  0  0  0  0  0  0  0  0  0
   -9.1976   12.7665  -37.2886 F   0  0  0  0  0  0  0  0  0  0  0  0
   -9.7325   13.4015  -35.2730 F   0  0  0  0  0  0  0  0  0  0  0  0
  -14.2907   13.6044  -38.0019 H   0  0  0  0  0  0  0  0  0  0  0  0
  -12.6621   12.9488  -38.0686 H   0  0  0  0  0  0  0  0  0  0  0  0
  -11.0971   15.0997  -40.1649 H   0  0  0  0  0  0  0  0  0  0  0  0
  -12.3781   16.2283  -40.5794 H   0  0  0  0  0  0  0  0  0  0  0  0
  -14.0224   16.6073  -38.0462 H   0  0  0  0  0  0  0  0  0  0  0  0
  -12.9286   17.1019  -36.7429 H   0  0  0  0  0  0  0  0  0  0  0  0
  -12.7700   13.5240  -40.2872 H   0  0  0  0  0  0  0  0  0  0  0  0
  -12.9689   14.6610  -36.1466 H   0  0  0  0  0  0  0  0  0  0  0  0
  -11.1872   17.1300  -38.5584 H   0  0  0  0  0  0  0  0  0  0  0  0
  -15.4780   16.4023  -40.3751 H   0  0  0  0  0  0  0  0  0  0  0  0
  1  6  1  6  0  0  0
  1 11  2  0  0  0  0
  1 13  1  0  0  0  0
  2  9  1  0  0  0  0
  2 10  1  0  0  0  0
  2 12  2  0  0  0  0
  3  6  1  0  0  0  0
  3  7  1  1  0  0  0
  4  6  1  0  0  0  0
  4  8  1  0  0  0  0
  5  7  1  0  0  0  0
  5  8  1  6  0  0  0
  7 10  1  0  0  0  0
  8 10  1  0  0  0  0
  9 14  1  0  0  0  0
  9 15  1  0  0  0  0
  9 16  1  0  0  0  0
  3 17  1  0  0  0  0
  3 18  1  0  0  0  0
  4 19  1  0  0  0  0
  4 20  1  0  0  0  0
  5 21  1  0  0  0  0
  5 22  1  0  0  0  0
  6 23  1  0  0  0  0
  7 24  1  0  0  0  0
  8 25  1  0  0  0  0
 13 26  1  0  0  0  0
M  END
> <id>
EN300-39918357

> <smiles>
OC(=O)[C@@H]1C[C@@H]2C[C@H](C1)N2C(=O)C(F)(F)F

> <IUPAC Name>
(1R,3s,5S)-6-(2,2,2-trifluoroacetyl)-6-azabicyclo[3.1.1]heptane-3-carboxylic acid

> <URL>
https://www.enaminestore.com/catalog/EN300-39918357

> <ROCS_ShapeQuery>
__x1247relevant_x1083L0AP1_x1305L0BP1_

> <ROCS_TanimotoCombo>
0.722 

> <ROCS_ShapeTanimoto>
0.527 

> <ROCS_ColorTanimoto>
0.196 

> <ROCS_RefTversky>
0.444 

> <ROCS_RefColorTversky>
0.220 

> <ROCS_RefTverskyCombo>
0.665 

> <ROCS_FitTversky>
1.544 

> <ROCS_FitColorTversky>
0.634 

> <ROCS_FitTverskyCombo>
2.178 

> <ROCS_ColorScore>
-7.200

> <ROCS_Overlap>
1309.965

> <ROCS_Rank>
296                 

$$$$
untitled-dbase-107045_102
  -OEChem-06232314393D

 40 41  0     1  0  0  0  0  0999 V2000
  -14.4881   14.9251  -40.0577 C   0  0  0  0  0  0  0  0  0  0  0  0
  -10.2560   13.8321  -37.7237 C   0  0  0  0  0  0  0  0  0  0  0  0
  -13.0157   16.7706  -38.2790 C   0  0  0  0  0  0  0  0  0  0  0  0
  -12.4663   14.7628  -36.8756 C   0  0  0  0  0  0  0  0  0  0  0  0
  -13.5564   14.5282  -38.9565 C   0  0  2  0  0  0  0  0  0  0  0  0
  -13.5698   15.4362  -37.7195 C   0  0  2  0  0  0  0  0  0  0  0  0
  -12.0640   14.7655  -39.2181 C   0  0  1  0  0  0  0  0  0  0  0  0
  -11.9509   16.3032  -39.2943 C   0  0  1  0  0  0  0  0  0  0  0  0
   -8.6714   16.1949  -37.4570 C   0  0  0  0  0  0  0  0  0  0  0  0
   -8.0180   15.2809  -35.2104 C   0  0  0  0  0  0  0  0  0  0  0  0
   -7.4302   14.0113  -37.2962 C   0  0  0  0  0  0  0  0  0  0  0  0
  -15.1101   14.3966  -42.2752 C   0  0  0  0  0  0  0  0  0  0  0  0
   -8.4554   14.9280  -36.6304 C   0  0  0  0  0  0  0  0  0  0  0  0
  -11.5027   14.3882  -37.9144 N   0  0  0  0  0  0  0  0  0  0  0  0
  -15.3034   15.8334  -39.9713 O   0  0  0  0  0  0  0  0  0  0  0  0
   -9.7076   13.0737  -38.5195 O   0  0  0  0  0  0  0  0  0  0  0  0
  -12.2596   16.7824  -40.5931 O   0  0  0  0  0  0  0  0  0  0  0  0
  -14.2797   14.1249  -41.1418 O   0  0  0  0  0  0  0  0  0  0  0  0
   -9.7006   14.2273  -36.5367 O   0  0  0  0  0  0  0  0  0  0  0  0
  -13.8052   17.3578  -38.7609 H   0  0  0  0  0  0  0  0  0  0  0  0
  -12.5722   17.3785  -37.4834 H   0  0  0  0  0  0  0  0  0  0  0  0
  -11.9996   15.4258  -36.1413 H   0  0  0  0  0  0  0  0  0  0  0  0
  -12.8154   13.8497  -36.3823 H   0  0  0  0  0  0  0  0  0  0  0  0
  -13.7728   13.4809  -38.7105 H   0  0  0  0  0  0  0  0  0  0  0  0
  -14.5281   15.5383  -37.2067 H   0  0  0  0  0  0  0  0  0  0  0  0
  -11.6281   14.2267  -40.0626 H   0  0  0  0  0  0  0  0  0  0  0  0
  -10.9515   16.6656  -39.0293 H   0  0  0  0  0  0  0  0  0  0  0  0
   -8.9854   15.9459  -38.4769 H   0  0  0  0  0  0  0  0  0  0  0  0
   -9.4299   16.8447  -37.0085 H   0  0  0  0  0  0  0  0  0  0  0  0
   -7.7396   16.7642  -37.5507 H   0  0  0  0  0  0  0  0  0  0  0  0
   -7.8619   14.3749  -34.6138 H   0  0  0  0  0  0  0  0  0  0  0  0
   -8.7935   15.8596  -34.6956 H   0  0  0  0  0  0  0  0  0  0  0  0
   -7.0908   15.8629  -35.2061 H   0  0  0  0  0  0  0  0  0  0  0  0
   -7.2750   13.1025  -36.7035 H   0  0  0  0  0  0  0  0  0  0  0  0
   -7.7452   13.7178  -38.3028 H   0  0  0  0  0  0  0  0  0  0  0  0
   -6.4541   14.5047  -37.3669 H   0  0  0  0  0  0  0  0  0  0  0  0
  -14.8633   13.7035  -43.0832 H   0  0  0  0  0  0  0  0  0  0  0  0
  -14.9535   15.4270  -42.6042 H   0  0  0  0  0  0  0  0  0  0  0  0
  -16.1562   14.2624  -41.9899 H   0  0  0  0  0  0  0  0  0  0  0  0
  -12.2720   17.7526  -40.5412 H   0  0  0  0  0  0  0  0  0  0  0  0
  1  5  1  6  0  0  0
  1 15  2  0  0  0  0
  1 18  1  0  0  0  0
  2 14  1  0  0  0  0
  2 16  2  0  0  0  0
  2 19  1  0  0  0  0
  3  6  1  6  0  0  0
  3  8  1  0  0  0  0
  4  6  1  0  0  0  0
  4 14  1  0  0  0  0
  5  6  1  0  0  0  0
  5  7  1  0  0  0  0
  7  8  1  0  0  0  0
  7 14  1  6  0  0  0
  8 17  1  1  0  0  0
  9 13  1  0  0  0  0
 10 13  1  0  0  0  0
 11 13  1  0  0  0  0
 12 18  1  0  0  0  0
 13 19  1  0  0  0  0
  3 20  1  0  0  0  0
  3 21  1  0  0  0  0
  4 22  1  0  0  0  0
  4 23  1  0  0  0  0
  5 24  1  0  0  0  0
  6 25  1  0  0  0  0
  7 26  1  0  0  0  0
  8 27  1  0  0  0  0
  9 28  1  0  0  0  0
  9 29  1  0  0  0  0
  9 30  1  0  0  0  0
 10 31  1  0  0  0  0
 10 32  1  0  0  0  0
 10 33  1  0  0  0  0
 11 34  1  0  0  0  0
 11 35  1  0  0  0  0
 11 36  1  0  0  0  0
 12 37  1  0  0  0  0
 12 38  1  0  0  0  0
 12 39  1  0  0  0  0
 17 40  1  0  0  0  0
M  END
> <id>
EN300-26665761

> <smiles>
COC(=O)[C@@H]1[C@@H]2C[C@H](O)[C@H]1N(C2)C(=O)OC(C)(C)C |&1:4,5,7,9,r|

> <IUPAC Name>
rac-2-tert-butyl 7-methyl (1R,4R,6R,7S)-6-hydroxy-2-azabicyclo[2.2.1]heptane-2,7-dicarboxylate

> <CAS>
2413846-83-8

> <URL>
https://www.enaminestore.com/catalog/EN300-26665761

> <ROCS_ShapeQuery>
__x1247relevant_x1083L0AP1_x1305L0BP1_

> <ROCS_TanimotoCombo>
0.722 

> <ROCS_ShapeTanimoto>
0.536 

> <ROCS_ColorTanimoto>
0.186 

> <ROCS_RefTversky>
0.463 

> <ROCS_RefColorTversky>
0.217 

> <ROCS_RefTverskyCombo>
0.680 

> <ROCS_FitTversky>
1.419 

> <ROCS_FitColorTversky>
0.568 

> <ROCS_FitTverskyCombo>
1.987 

> <ROCS_ColorScore>
-7.094

> <ROCS_Overlap>
1367.404

> <ROCS_Rank>
297                 

$$$$
untitled-dbase-16090_1
  -OEChem-06232314393D

 23 25  0     1  0  0  0  0  0999 V2000
   -9.7083   15.0755  -36.5109 C   0  0  0  0  0  0  0  0  0  0  0  0
  -14.3602   15.7096  -38.1623 C   0  0  0  0  0  0  0  0  0  0  0  0
  -13.5979   16.4230  -39.3077 C   0  0  0  0  0  0  0  0  0  0  0  0
  -12.9353   14.1534  -39.2319 C   0  0  0  0  0  0  0  0  0  0  0  0
  -10.7705   14.6965  -37.4529 C   0  0  0  0  0  0  0  0  0  0  0  0
  -13.4306   14.5203  -37.8242 C   0  0  1  0  0  0  0  0  0  0  0  0
  -12.3337   15.5469  -39.4725 C   0  0  2  0  0  0  0  0  0  0  0  0
  -12.1952   15.0972  -37.1380 C   0  0  2  0  0  0  0  0  0  0  0  0
  -11.4582   15.7868  -38.2453 C   0  0  1  0  0  0  0  0  0  0  0  0
   -8.7094   15.7169  -36.8006 O   0  0  0  0  0  0  0  0  0  0  0  0
   -9.9842   14.6129  -35.2671 O   0  0  0  0  0  0  0  0  0  0  0  0
  -14.5207   16.3761  -37.3088 H   0  0  0  0  0  0  0  0  0  0  0  0
  -15.3346   15.3588  -38.5198 H   0  0  0  0  0  0  0  0  0  0  0  0
  -14.2020   16.4189  -40.2218 H   0  0  0  0  0  0  0  0  0  0  0  0
  -13.3619   17.4605  -39.0496 H   0  0  0  0  0  0  0  0  0  0  0  0
  -12.1990   13.3460  -39.2449 H   0  0  0  0  0  0  0  0  0  0  0  0
  -13.7445   13.9024  -39.9267 H   0  0  0  0  0  0  0  0  0  0  0  0
  -10.5968   13.7420  -37.9318 H   0  0  0  0  0  0  0  0  0  0  0  0
  -13.9103   13.7130  -37.2682 H   0  0  0  0  0  0  0  0  0  0  0  0
  -11.8117   15.6772  -40.4219 H   0  0  0  0  0  0  0  0  0  0  0  0
  -12.4049   15.6370  -36.2249 H   0  0  0  0  0  0  0  0  0  0  0  0
  -11.1471   16.8140  -38.1149 H   0  0  0  0  0  0  0  0  0  0  0  0
   -9.2848   14.8543  -34.6229 H   0  0  0  0  0  0  0  0  0  0  0  0
  1  5  1  0  0  0  0
  1 10  2  0  0  0  0
  1 11  1  0  0  0  0
  2  3  1  0  0  0  0
  2  6  1  0  0  0  0
  3  7  1  0  0  0  0
  4  6  1  0  0  0  0
  4  7  1  0  0  0  0
  5  8  1  0  0  0  0
  5  9  1  0  0  0  0
  6  8  1  0  0  0  0
  7  9  1  0  0  0  0
  8  9  1  0  0  0  0
  2 12  1  0  0  0  0
  2 13  1  0  0  0  0
  3 14  1  0  0  0  0
  3 15  1  0  0  0  0
  4 16  1  0  0  0  0
  4 17  1  0  0  0  0
  5 18  1  0  0  0  0
  6 19  1  0  0  0  0
  7 20  1  0  0  0  0
  8 21  1  0  0  0  0
  9 22  1  0  0  0  0
 11 23  1  0  0  0  0
M  END
> <id>
EN300-106882

> <smiles>
OC(=O)C1C2C1C3CCC2C3

> <MDLNUMBER>
MFCD08056150

> <IUPAC Name>
tricyclo[3.2.1.0,2,4]octane-3-carboxylic acid

> <CAS>
1212345-30-6

> <URL>
https://www.enaminestore.com/catalog/EN300-106882

> <ROCS_ShapeQuery>
__x1247relevant_x1083L0AP1_x1305L0BP1_

> <ROCS_TanimotoCombo>
0.722 

> <ROCS_ShapeTanimoto>
0.450 

> <ROCS_ColorTanimoto>
0.273 

> <ROCS_RefTversky>
0.376 

> <ROCS_RefColorTversky>
0.348 

> <ROCS_RefTverskyCombo>
0.725 

> <ROCS_FitTversky>
1.767 

> <ROCS_FitColorTversky>
0.557 

> <ROCS_FitTverskyCombo>
2.324 

> <ROCS_ColorScore>
-11.549

> <ROCS_Overlap>
1104.676

> <ROCS_Rank>
298                 

$$$$
untitled-dbase-109450_3
  -OEChem-06232314393D

 25 27  0     1  0  0  0  0  0999 V2000
  -10.3509   15.0121  -36.8137 C   0  0  0  0  0  0  0  0  0  0  0  0
  -13.9502   15.1523  -37.4264 C   0  0  0  0  0  0  0  0  0  0  0  0
  -12.9339   16.7639  -38.7179 C   0  0  0  0  0  0  0  0  0  0  0  0
  -12.2436   13.6847  -37.9088 C   0  0  0  0  0  0  0  0  0  0  0  0
  -11.2242   15.3010  -39.2037 C   0  0  0  0  0  0  0  0  0  0  0  0
  -12.7036   16.0431  -37.3850 C   0  0  0  0  0  0  0  0  0  0  0  0
  -13.4205   14.3567  -38.6238 C   0  0  2  0  0  0  0  0  0  0  0  0
  -12.7119   15.4800  -39.5240 C   0  0  1  0  0  0  0  0  0  0  0  0
  -11.5209   15.0210  -37.7294 C   0  0  0  0  0  0  0  0  0  0  0  0
   -9.0254   15.4083  -37.4056 C   0  0  0  0  0  0  0  0  0  0  0  0
  -10.4608   14.6983  -35.6295 O   0  0  0  0  0  0  0  0  0  0  0  0
  -14.0906   14.5602  -36.5158 H   0  0  0  0  0  0  0  0  0  0  0  0
  -14.8825   15.6863  -37.6380 H   0  0  0  0  0  0  0  0  0  0  0  0
  -13.9375   17.1845  -38.8388 H   0  0  0  0  0  0  0  0  0  0  0  0
  -12.2023   17.5546  -38.9153 H   0  0  0  0  0  0  0  0  0  0  0  0
  -12.4972   13.1882  -36.9656 H   0  0  0  0  0  0  0  0  0  0  0  0
  -11.7108   12.9621  -38.5365 H   0  0  0  0  0  0  0  0  0  0  0  0
  -10.7632   14.4641  -39.7400 H   0  0  0  0  0  0  0  0  0  0  0  0
  -10.6046   16.1892  -39.3695 H   0  0  0  0  0  0  0  0  0  0  0  0
  -12.5928   16.6778  -36.5057 H   0  0  0  0  0  0  0  0  0  0  0  0
  -14.1294   13.6956  -39.1216 H   0  0  0  0  0  0  0  0  0  0  0  0
  -12.9821   15.5144  -40.5791 H   0  0  0  0  0  0  0  0  0  0  0  0
   -8.8848   16.4882  -37.3056 H   0  0  0  0  0  0  0  0  0  0  0  0
   -9.0047   15.1460  -38.4662 H   0  0  0  0  0  0  0  0  0  0  0  0
   -8.2193   14.8963  -36.8745 H   0  0  0  0  0  0  0  0  0  0  0  0
  1  9  1  0  0  0  0
  1 10  1  0  0  0  0
  1 11  2  0  0  0  0
  2  6  1  0  0  0  0
  2  7  1  0  0  0  0
  3  6  1  0  0  0  0
  3  8  1  0  0  0  0
  4  7  1  0  0  0  0
  4  9  1  0  0  0  0
  5  8  1  0  0  0  0
  5  9  1  0  0  0  0
  6  9  1  0  0  0  0
  7  8  1  0  0  0  0
  2 12  1  0  0  0  0
  2 13  1  0  0  0  0
  3 14  1  0  0  0  0
  3 15  1  0  0  0  0
  4 16  1  0  0  0  0
  4 17  1  0  0  0  0
  5 18  1  0  0  0  0
  5 19  1  0  0  0  0
  6 20  1  0  0  0  0
  7 21  1  0  0  0  0
  8 22  1  0  0  0  0
 10 23  1  0  0  0  0
 10 24  1  0  0  0  0
 10 25  1  0  0  0  0
M  END
> <id>
EN300-26975741

> <smiles>
CC(=O)C12CC3CC2CC3C1

> <IUPAC Name>
1-{tricyclo[3.3.0.0,3,7]octan-1-yl}ethan-1-one

> <CAS>
2445793-03-1

> <URL>
https://www.enaminestore.com/catalog/EN300-26975741

> <ROCS_ShapeQuery>
__x1247relevant_x1083L0AP1_x1305L0BP1_

> <ROCS_TanimotoCombo>
0.722 

> <ROCS_ShapeTanimoto>
0.463 

> <ROCS_ColorTanimoto>
0.259 

> <ROCS_RefTversky>
0.385 

> <ROCS_RefColorTversky>
0.354 

> <ROCS_RefTverskyCombo>
0.740 

> <ROCS_FitTversky>
1.776 

> <ROCS_FitColorTversky>
0.490 

> <ROCS_FitTverskyCombo>
2.267 

> <ROCS_ColorScore>
-11.805

> <ROCS_Overlap>
1131.759

> <ROCS_Rank>
299                 

$$$$
untitled-dbase-35002_1
  -OEChem-06232314393D

 23 25  0     1  0  0  0  0  0999 V2000
   -9.7081   15.0755  -36.5111 C   0  0  0  0  0  0  0  0  0  0  0  0
  -13.5982   16.4230  -39.3073 C   0  0  0  0  0  0  0  0  0  0  0  0
  -14.3602   15.7093  -38.1620 C   0  0  0  0  0  0  0  0  0  0  0  0
  -12.9353   14.1533  -39.2319 C   0  0  0  0  0  0  0  0  0  0  0  0
  -10.7703   14.6967  -37.4533 C   0  0  0  0  0  0  0  0  0  0  0  0
  -12.3340   15.5469  -39.4724 C   0  0  2  0  0  0  0  0  0  0  0  0
  -13.4305   14.5200  -37.8241 C   0  0  1  0  0  0  0  0  0  0  0  0
  -11.4583   15.7869  -38.2453 C   0  0  1  0  0  0  0  0  0  0  0  0
  -12.1949   15.0970  -37.1380 C   0  0  2  0  0  0  0  0  0  0  0  0
   -8.7091   15.7169  -36.8007 O   0  0  0  0  0  0  0  0  0  0  0  0
   -9.9842   14.6129  -35.2673 O   0  0  0  0  0  0  0  0  0  0  0  0
  -14.2025   16.4188  -40.2213 H   0  0  0  0  0  0  0  0  0  0  0  0
  -13.3623   17.4604  -39.0492 H   0  0  0  0  0  0  0  0  0  0  0  0
  -14.5206   16.3757  -37.3083 H   0  0  0  0  0  0  0  0  0  0  0  0
  -15.3347   15.3583  -38.5194 H   0  0  0  0  0  0  0  0  0  0  0  0
  -13.7447   13.9025  -39.9266 H   0  0  0  0  0  0  0  0  0  0  0  0
  -12.1990   13.3460  -39.2451 H   0  0  0  0  0  0  0  0  0  0  0  0
  -10.5965   13.7421  -37.9321 H   0  0  0  0  0  0  0  0  0  0  0  0
  -11.8121   15.6774  -40.4219 H   0  0  0  0  0  0  0  0  0  0  0  0
  -13.9099   13.7127  -37.2681 H   0  0  0  0  0  0  0  0  0  0  0  0
  -11.1472   16.8141  -38.1149 H   0  0  0  0  0  0  0  0  0  0  0  0
  -12.4047   15.6368  -36.2249 H   0  0  0  0  0  0  0  0  0  0  0  0
   -9.2848   14.8543  -34.6231 H   0  0  0  0  0  0  0  0  0  0  0  0
  1  5  1  1  0  0  0
  1 10  2  0  0  0  0
  1 11  1  0  0  0  0
  2  3  1  0  0  0  0
  2  6  1  1  0  0  0
  3  7  1  1  0  0  0
  4  6  1  0  0  0  0
  4  7  1  0  0  0  0
  5  8  1  0  0  0  0
  5  9  1  0  0  0  0
  6  8  1  6  0  0  0
  7  9  1  6  0  0  0
  8  9  1  0  0  0  0
  2 12  1  0  0  0  0
  2 13  1  0  0  0  0
  3 14  1  0  0  0  0
  3 15  1  0  0  0  0
  4 16  1  0  0  0  0
  4 17  1  0  0  0  0
  5 18  1  0  0  0  0
  6 19  1  0  0  0  0
  7 20  1  0  0  0  0
  8 21  1  0  0  0  0
  9 22  1  0  0  0  0
 11 23  1  0  0  0  0
M  END
> <id>
EN300-736682

> <smiles>
OC(=O)[C@H]1[C@H]2[C@@H]1[C@@H]3CC[C@H]2C3

> <MDLNUMBER>
MFCD30216588

> <IUPAC Name>
(1R,2S,3R,4R,5S)-tricyclo[3.2.1.0,2,4]octane-3-carboxylic acid

> <CAS>
37399-09-0

> <Purity>
95

> <URL>
https://www.enaminestore.com/catalog/EN300-736682

> <MP>
115-117

> <ROCS_ShapeQuery>
__x1247relevant_x1083L0AP1_x1305L0BP1_

> <ROCS_TanimotoCombo>
0.722 

> <ROCS_ShapeTanimoto>
0.450 

> <ROCS_ColorTanimoto>
0.273 

> <ROCS_RefTversky>
0.376 

> <ROCS_RefColorTversky>
0.348 

> <ROCS_RefTverskyCombo>
0.725 

> <ROCS_FitTversky>
1.767 

> <ROCS_FitColorTversky>
0.557 

> <ROCS_FitTverskyCombo>
2.324 

> <ROCS_ColorScore>
-11.549

> <ROCS_Overlap>
1104.666

> <ROCS_Rank>
300                 

$$$$
untitled-dbase-55873_2
  -OEChem-06232314393D

 29 30  0     0  0  0  0  0  0999 V2000
  -10.5153   14.2711  -36.5843 C   0  0  0  0  0  0  0  0  0  0  0  0
  -10.9608   15.3830  -38.7795 C   0  0  0  0  0  0  0  0  0  0  0  0
  -12.5153   13.6211  -37.9131 C   0  0  0  0  0  0  0  0  0  0  0  0
  -12.4282   15.8659  -36.8066 C   0  0  0  0  0  0  0  0  0  0  0  0
  -12.0613   15.8884  -39.7210 C   0  0  0  0  0  0  0  0  0  0  0  0
  -13.6146   14.1316  -38.8535 C   0  0  0  0  0  0  0  0  0  0  0  0
  -13.5259   16.3735  -37.7502 C   0  0  0  0  0  0  0  0  0  0  0  0
  -11.5852   14.7803  -37.5051 C   0  0  0  0  0  0  0  0  0  0  0  0
  -13.4464   15.6400  -39.0999 C   0  0  0  0  0  0  0  0  0  0  0  0
   -8.7273   12.7319  -36.4502 C   0  0  0  0  0  0  0  0  0  0  0  0
  -10.3434   14.6770  -35.4429 O   0  0  0  0  0  0  0  0  0  0  0  0
  -14.4523   16.1126  -39.9805 O   0  0  0  0  0  0  0  0  0  0  0  0
   -9.7887   13.3074  -37.2186 O   0  0  0  0  0  0  0  0  0  0  0  0
  -10.3444   14.6380  -39.2990 H   0  0  0  0  0  0  0  0  0  0  0  0
  -10.2838   16.2079  -38.5232 H   0  0  0  0  0  0  0  0  0  0  0  0
  -12.9701   13.1603  -37.0267 H   0  0  0  0  0  0  0  0  0  0  0  0
  -11.9450   12.8243  -38.4078 H   0  0  0  0  0  0  0  0  0  0  0  0
  -11.7930   16.7036  -36.4915 H   0  0  0  0  0  0  0  0  0  0  0  0
  -12.8842   15.4719  -35.8892 H   0  0  0  0  0  0  0  0  0  0  0  0
  -11.9224   16.9569  -39.9289 H   0  0  0  0  0  0  0  0  0  0  0  0
  -11.9849   15.3909  -40.6962 H   0  0  0  0  0  0  0  0  0  0  0  0
  -13.5856   13.5839  -39.8042 H   0  0  0  0  0  0  0  0  0  0  0  0
  -14.6042   13.9211  -38.4283 H   0  0  0  0  0  0  0  0  0  0  0  0
  -14.5137   16.2309  -37.2941 H   0  0  0  0  0  0  0  0  0  0  0  0
  -13.4286   17.4564  -37.8993 H   0  0  0  0  0  0  0  0  0  0  0  0
   -8.2121   11.9760  -37.0479 H   0  0  0  0  0  0  0  0  0  0  0  0
   -9.1369   12.2783  -35.5441 H   0  0  0  0  0  0  0  0  0  0  0  0
   -8.0211   13.5186  -36.1743 H   0  0  0  0  0  0  0  0  0  0  0  0
  -15.3076   15.9380  -39.5535 H   0  0  0  0  0  0  0  0  0  0  0  0
  1  8  1  0  0  0  0
  1 11  2  0  0  0  0
  1 13  1  0  0  0  0
  2  5  1  0  0  0  0
  2  8  1  0  0  0  0
  3  6  1  0  0  0  0
  3  8  1  0  0  0  0
  4  7  1  0  0  0  0
  4  8  1  0  0  0  0
  5  9  1  0  0  0  0
  6  9  1  0  0  0  0
  7  9  1  0  0  0  0
  9 12  1  0  0  0  0
 10 13  1  0  0  0  0
  2 14  1  0  0  0  0
  2 15  1  0  0  0  0
  3 16  1  0  0  0  0
  3 17  1  0  0  0  0
  4 18  1  0  0  0  0
  4 19  1  0  0  0  0
  5 20  1  0  0  0  0
  5 21  1  0  0  0  0
  6 22  1  0  0  0  0
  6 23  1  0  0  0  0
  7 24  1  0  0  0  0
  7 25  1  0  0  0  0
 10 26  1  0  0  0  0
 10 27  1  0  0  0  0
 10 28  1  0  0  0  0
 12 29  1  0  0  0  0
M  END
> <id>
EN300-107122

> <smiles>
COC(=O)C1(CCC2(O)CC1)CC2

> <MDLNUMBER>
MFCD22689519

> <IUPAC Name>
methyl 4-hydroxybicyclo[2.2.2]octane-1-carboxylate

> <CAS>
23062-53-5

> <Purity>
95

> <URL>
https://www.enaminestore.com/catalog/EN300-107122

> <MP>
72-74

> <ROCS_ShapeQuery>
__x1247relevant_x1083L0AP1_x1305L0BP1_

> <ROCS_TanimotoCombo>
0.722 

> <ROCS_ShapeTanimoto>
0.475 

> <ROCS_ColorTanimoto>
0.247 

> <ROCS_RefTversky>
0.398 

> <ROCS_RefColorTversky>
0.260 

> <ROCS_RefTverskyCombo>
0.659 

> <ROCS_FitTversky>
1.680 

> <ROCS_FitColorTversky>
0.829 

> <ROCS_FitTverskyCombo>
2.509 

> <ROCS_ColorScore>
-8.487

> <ROCS_Overlap>
1171.429

> <ROCS_Rank>
301                 

$$$$
untitled-dbase-67078_4
  -OEChem-06232314393D

 32 34  0     1  0  0  0  0  0999 V2000
   -7.8908   14.7755  -36.6729 C   0  0  0  0  0  0  0  0  0  0  0  0
   -8.6846   14.7294  -35.3672 C   0  0  0  0  0  0  0  0  0  0  0  0
  -14.0817   15.9957  -38.9606 C   0  0  0  0  0  0  0  0  0  0  0  0
  -12.8697   15.8465  -39.8809 C   0  0  0  0  0  0  0  0  0  0  0  0
   -8.8721   15.2343  -37.7505 C   0  0  0  0  0  0  0  0  0  0  0  0
  -10.1061   15.1653  -35.7190 C   0  0  0  0  0  0  0  0  0  0  0  0
  -12.5988   15.7618  -36.9416 C   0  0  0  0  0  0  0  0  0  0  0  0
  -11.3748   15.6444  -37.8649 C   0  0  2  0  0  0  0  0  0  0  0  0
  -13.6966   15.1070  -37.7800 C   0  0  2  0  0  0  0  0  0  0  0  0
  -11.9700   14.9094  -39.0754 C   0  0  1  0  0  0  0  0  0  0  0  0
  -10.2527   14.8450  -37.2105 C   0  0  0  0  0  0  0  0  0  0  0  0
  -10.4968   13.4278  -37.4068 N   0  0  0  0  0  0  0  0  0  0  0  0
  -12.9559   14.0576  -38.4441 O   0  0  0  0  0  0  0  0  0  0  0  0
   -7.0344   15.4542  -36.6033 H   0  0  0  0  0  0  0  0  0  0  0  0
   -7.4996   13.7789  -36.9082 H   0  0  0  0  0  0  0  0  0  0  0  0
   -8.6836   13.7098  -34.9649 H   0  0  0  0  0  0  0  0  0  0  0  0
   -8.2483   15.3816  -34.6037 H   0  0  0  0  0  0  0  0  0  0  0  0
  -14.2758   17.0326  -38.6714 H   0  0  0  0  0  0  0  0  0  0  0  0
  -14.9727   15.6041  -39.4641 H   0  0  0  0  0  0  0  0  0  0  0  0
  -13.1795   15.3706  -40.8183 H   0  0  0  0  0  0  0  0  0  0  0  0
  -12.3914   16.8006  -40.1205 H   0  0  0  0  0  0  0  0  0  0  0  0
   -8.7989   16.3237  -37.8643 H   0  0  0  0  0  0  0  0  0  0  0  0
   -8.6449   14.7900  -38.7257 H   0  0  0  0  0  0  0  0  0  0  0  0
  -10.8531   14.6676  -35.0909 H   0  0  0  0  0  0  0  0  0  0  0  0
  -10.2045   16.2450  -35.5471 H   0  0  0  0  0  0  0  0  0  0  0  0
  -12.4479   15.2030  -36.0111 H   0  0  0  0  0  0  0  0  0  0  0  0
  -12.8327   16.7992  -36.6826 H   0  0  0  0  0  0  0  0  0  0  0  0
  -10.9859   16.6296  -38.1458 H   0  0  0  0  0  0  0  0  0  0  0  0
  -14.5417   14.7241  -37.2039 H   0  0  0  0  0  0  0  0  0  0  0  0
  -11.2560   14.3425  -39.6776 H   0  0  0  0  0  0  0  0  0  0  0  0
  -10.4534   13.2445  -38.3789 H   0  0  0  0  0  0  0  0  0  0  0  0
   -9.7942   12.9293  -36.9186 H   0  0  0  0  0  0  0  0  0  0  0  0
  1  2  1  0  0  0  0
  1  5  1  0  0  0  0
  2  6  1  0  0  0  0
  3  4  1  0  0  0  0
  3  9  1  0  0  0  0
  4 10  1  0  0  0  0
  5 11  1  0  0  0  0
  6 11  1  0  0  0  0
  7  8  1  0  0  0  0
  7  9  1  0  0  0  0
  8 10  1  0  0  0  0
  8 11  1  0  0  0  0
  9 13  1  0  0  0  0
 10 13  1  0  0  0  0
 11 12  1  0  0  0  0
  1 14  1  0  0  0  0
  1 15  1  0  0  0  0
  2 16  1  0  0  0  0
  2 17  1  0  0  0  0
  3 18  1  0  0  0  0
  3 19  1  0  0  0  0
  4 20  1  0  0  0  0
  4 21  1  0  0  0  0
  5 22  1  0  0  0  0
  5 23  1  0  0  0  0
  6 24  1  0  0  0  0
  6 25  1  0  0  0  0
  7 26  1  0  0  0  0
  7 27  1  0  0  0  0
  8 28  1  0  0  0  0
  9 29  1  0  0  0  0
 10 30  1  0  0  0  0
 12 31  1  0  0  0  0
 12 32  1  0  0  0  0
M  END
> <id>
EN300-1756213

> <smiles>
NC1(CCCC1)C2CC3CCC2O3

> <IUPAC Name>
1-{7-oxabicyclo[2.2.1]heptan-2-yl}cyclopentan-1-amine

> <CAS>
2228222-00-0

> <URL>
https://www.enaminestore.com/catalog/EN300-1756213

> <ROCS_ShapeQuery>
__x1247relevant_x1083L0AP1_x1305L0BP1_

> <ROCS_TanimotoCombo>
0.722 

> <ROCS_ShapeTanimoto>
0.469 

> <ROCS_ColorTanimoto>
0.253 

> <ROCS_RefTversky>
0.396 

> <ROCS_RefColorTversky>
0.274 

> <ROCS_RefTverskyCombo>
0.670 

> <ROCS_FitTversky>
1.640 

> <ROCS_FitColorTversky>
0.775 

> <ROCS_FitTverskyCombo>
2.415 

> <ROCS_ColorScore>
-8.937

> <ROCS_Overlap>
1165.207

> <ROCS_Rank>
302                 

$$$$
untitled-dbase-141104_2
  -OEChem-06232314393D

 22 23  0     1  0  0  0  0  0999 V2000
  -12.8223   15.9904  -39.6228 C   0  0  0  0  0  0  0  0  0  0  0  0
  -10.0878   15.0022  -37.2095 C   0  0  0  0  0  0  0  0  0  0  0  0
  -14.0727   15.9213  -38.7875 C   0  0  0  0  0  0  0  0  0  0  0  0
  -12.4864   15.6024  -36.8167 C   0  0  0  0  0  0  0  0  0  0  0  0
  -11.7727   15.0875  -39.0283 C   0  0  1  0  0  0  0  0  0  0  0  0
  -11.2730   15.7395  -37.7482 C   0  0  2  0  0  0  0  0  0  0  0  0
  -13.5385   14.9585  -37.7271 C   0  0  2  0  0  0  0  0  0  0  0  0
   -9.3651   12.8660  -36.5037 C   0  0  0  0  0  0  0  0  0  0  0  0
  -12.6714   16.6941  -40.6091 O   0  0  0  0  0  0  0  0  0  0  0  0
   -9.0027   15.5207  -36.9842 O   0  0  0  0  0  0  0  0  0  0  0  0
  -12.7196   14.0922  -38.5425 O   0  0  0  0  0  0  0  0  0  0  0  0
  -10.4140   13.6922  -37.0188 O   0  0  0  0  0  0  0  0  0  0  0  0
  -14.3627   16.8919  -38.3832 H   0  0  0  0  0  0  0  0  0  0  0  0
  -14.8684   15.4668  -39.3835 H   0  0  0  0  0  0  0  0  0  0  0  0
  -12.2642   14.9429  -35.9698 H   0  0  0  0  0  0  0  0  0  0  0  0
  -12.8227   16.5656  -36.4203 H   0  0  0  0  0  0  0  0  0  0  0  0
  -11.0630   14.6608  -39.7365 H   0  0  0  0  0  0  0  0  0  0  0  0
  -10.9858   16.7865  -37.8928 H   0  0  0  0  0  0  0  0  0  0  0  0
  -14.3173   14.4095  -37.1927 H   0  0  0  0  0  0  0  0  0  0  0  0
   -9.7296   11.8423  -36.3890 H   0  0  0  0  0  0  0  0  0  0  0  0
   -9.0335   13.2563  -35.5382 H   0  0  0  0  0  0  0  0  0  0  0  0
   -8.5278   12.8758  -37.2054 H   0  0  0  0  0  0  0  0  0  0  0  0
  1  3  1  0  0  0  0
  1  5  1  0  0  0  0
  1  9  2  0  0  0  0
  2  6  1  0  0  0  0
  2 10  2  0  0  0  0
  2 12  1  0  0  0  0
  3  7  1  0  0  0  0
  4  6  1  0  0  0  0
  4  7  1  0  0  0  0
  5  6  1  0  0  0  0
  5 11  1  0  0  0  0
  7 11  1  0  0  0  0
  8 12  1  0  0  0  0
  3 13  1  0  0  0  0
  3 14  1  0  0  0  0
  4 15  1  0  0  0  0
  4 16  1  0  0  0  0
  5 17  1  0  0  0  0
  6 18  1  0  0  0  0
  7 19  1  0  0  0  0
  8 20  1  0  0  0  0
  8 21  1  0  0  0  0
  8 22  1  0  0  0  0
M  END
> <id>
EN300-7891903

> <smiles>
COC(=O)C1CC2CC(=O)C1O2

> <MDLNUMBER>
MFCD24530671

> <IUPAC Name>
methyl 6-oxo-7-oxabicyclo[2.2.1]heptane-2-carboxylate

> <CAS>
1822960-56-4

> <URL>
https://www.enaminestore.com/catalog/EN300-7891903

> <ROCS_ShapeQuery>
__x1247relevant_x1083L0AP1_x1305L0BP1_

> <ROCS_TanimotoCombo>
0.722 

> <ROCS_ShapeTanimoto>
0.479 

> <ROCS_ColorTanimoto>
0.243 

> <ROCS_RefTversky>
0.398 

> <ROCS_RefColorTversky>
0.259 

> <ROCS_RefTverskyCombo>
0.657 

> <ROCS_FitTversky>
1.744 

> <ROCS_FitColorTversky>
0.796 

> <ROCS_FitTverskyCombo>
2.540 

> <ROCS_ColorScore>
-8.447

> <ROCS_Overlap>
1169.297

> <ROCS_Rank>
303                 

$$$$
untitled-dbase-157110_132
  -OEChem-06232314393D

 40 42  0     1  0  0  0  0  0999 V2000
  -10.1799   14.9227  -36.5834 C   0  0  0  0  0  0  0  0  0  0  0  0
  -14.0674   13.3170  -38.8916 C   0  0  0  0  0  0  0  0  0  0  0  0
  -13.5961   16.7131  -37.7515 C   0  0  0  0  0  0  0  0  0  0  0  0
  -13.1674   15.8251  -36.5654 C   0  0  0  0  0  0  0  0  0  0  0  0
  -12.1893   15.9998  -39.7484 C   0  0  0  0  0  0  0  0  0  0  0  0
  -10.6611   14.0567  -38.9129 C   0  0  0  0  0  0  0  0  0  0  0  0
  -10.9881   15.5268  -38.9542 C   0  0  2  0  0  0  0  0  0  0  0  0
  -13.5161   15.8009  -38.9887 C   0  0  1  0  0  0  0  0  0  0  0  0
  -12.6431   14.5416  -37.2195 C   0  0  2  0  0  0  0  0  0  0  0  0
  -11.1844   14.7373  -37.6587 C   0  0  2  0  0  0  0  0  0  0  0  0
  -16.4307   13.8579  -39.8844 C   0  0  0  0  0  0  0  0  0  0  0  0
  -15.3979   13.9518  -42.1721 C   0  0  0  0  0  0  0  0  0  0  0  0
  -15.7494   11.7331  -41.0487 C   0  0  0  0  0  0  0  0  0  0  0  0
  -15.4259   13.2113  -40.8368 C   0  0  0  0  0  0  0  0  0  0  0  0
  -13.4916   14.4711  -38.3982 N   0  0  0  0  0  0  0  0  0  0  0  0
  -10.2633   14.4560  -35.4571 O   0  0  0  0  0  0  0  0  0  0  0  0
  -14.4805   12.3966  -38.1900 O   0  0  0  0  0  0  0  0  0  0  0  0
   -9.1487   15.6874  -37.0183 O   0  0  0  0  0  0  0  0  0  0  0  0
  -14.1196   13.3139  -40.2592 O   0  0  0  0  0  0  0  0  0  0  0  0
  -14.6237   17.0591  -37.5918 H   0  0  0  0  0  0  0  0  0  0  0  0
  -12.9556   17.5971  -37.8381 H   0  0  0  0  0  0  0  0  0  0  0  0
  -12.4366   16.3336  -35.9299 H   0  0  0  0  0  0  0  0  0  0  0  0
  -14.0469   15.5984  -35.9503 H   0  0  0  0  0  0  0  0  0  0  0  0
  -12.0628   17.0596  -39.9988 H   0  0  0  0  0  0  0  0  0  0  0  0
  -12.2230   15.4532  -40.6989 H   0  0  0  0  0  0  0  0  0  0  0  0
  -11.2947   13.3603  -39.4470 H   0  0  0  0  0  0  0  0  0  0  0  0
   -9.6120   13.7811  -38.9518 H   0  0  0  0  0  0  0  0  0  0  0  0
  -10.1536   16.2141  -39.0278 H   0  0  0  0  0  0  0  0  0  0  0  0
  -14.3686   15.9480  -39.6584 H   0  0  0  0  0  0  0  0  0  0  0  0
  -12.7459   13.6575  -36.5831 H   0  0  0  0  0  0  0  0  0  0  0  0
  -16.4538   13.3293  -38.9247 H   0  0  0  0  0  0  0  0  0  0  0  0
  -16.1897   14.9093  -39.6966 H   0  0  0  0  0  0  0  0  0  0  0  0
  -17.4467   13.8032  -40.2919 H   0  0  0  0  0  0  0  0  0  0  0  0
  -14.6782   13.4912  -42.8586 H   0  0  0  0  0  0  0  0  0  0  0  0
  -15.0739   14.9899  -42.0361 H   0  0  0  0  0  0  0  0  0  0  0  0
  -16.3816   13.9557  -42.6526 H   0  0  0  0  0  0  0  0  0  0  0  0
  -15.0287   11.2691  -41.7318 H   0  0  0  0  0  0  0  0  0  0  0  0
  -15.7375   11.1783  -40.1049 H   0  0  0  0  0  0  0  0  0  0  0  0
  -16.7357   11.6125  -41.5112 H   0  0  0  0  0  0  0  0  0  0  0  0
   -8.4735   15.8234  -36.3198 H   0  0  0  0  0  0  0  0  0  0  0  0
  1 10  1  0  0  0  0
  1 16  2  0  0  0  0
  1 18  1  0  0  0  0
  2 15  1  0  0  0  0
  2 17  2  0  0  0  0
  2 19  1  0  0  0  0
  3  4  1  0  0  0  0
  3  8  1  0  0  0  0
  4  9  1  0  0  0  0
  5  7  1  0  0  0  0
  5  8  1  0  0  0  0
  6  7  1  0  0  0  0
  6 10  1  0  0  0  0
  7 10  1  0  0  0  0
  8 15  1  0  0  0  0
  9 10  1  0  0  0  0
  9 15  1  0  0  0  0
 11 14  1  0  0  0  0
 12 14  1  0  0  0  0
 13 14  1  0  0  0  0
 14 19  1  0  0  0  0
  3 20  1  0  0  0  0
  3 21  1  0  0  0  0
  4 22  1  0  0  0  0
  4 23  1  0  0  0  0
  5 24  1  0  0  0  0
  5 25  1  0  0  0  0
  6 26  1  0  0  0  0
  6 27  1  0  0  0  0
  7 28  1  0  0  0  0
  8 29  1  0  0  0  0
  9 30  1  0  0  0  0
 11 31  1  0  0  0  0
 11 32  1  0  0  0  0
 11 33  1  0  0  0  0
 12 34  1  0  0  0  0
 12 35  1  0  0  0  0
 12 36  1  0  0  0  0
 13 37  1  0  0  0  0
 13 38  1  0  0  0  0
 13 39  1  0  0  0  0
 18 40  1  0  0  0  0
M  END
> <id>
EN300-1178093

> <smiles>
CC(C)(C)OC(=O)N1C2CCC1C3(CC3C2)C(=O)O

> <IUPAC Name>
9-[(tert-butoxy)carbonyl]-9-azatricyclo[4.2.1.0,2,4]nonane-2-carboxylic acid

> <CAS>
2384608-56-2

> <URL>
https://www.enaminestore.com/catalog/EN300-1178093

> <ROCS_ShapeQuery>
__x1247relevant_x1083L0AP1_x1305L0BP1_

> <ROCS_TanimotoCombo>
0.722 

> <ROCS_ShapeTanimoto>
0.497 

> <ROCS_ColorTanimoto>
0.225 

> <ROCS_RefTversky>
0.441 

> <ROCS_RefColorTversky>
0.272 

> <ROCS_RefTverskyCombo>
0.713 

> <ROCS_FitTversky>
1.343 

> <ROCS_FitColorTversky>
0.565 

> <ROCS_FitTverskyCombo>
1.908 

> <ROCS_ColorScore>
-8.954

> <ROCS_Overlap>
1302.987

> <ROCS_Rank>
304                 

$$$$
untitled-dbase-114600_1
  -OEChem-06232314393D

 51 55  0     1  0  0  0  0  0999 V2000
  -10.8604   13.4962  -31.5257 C   0  0  0  0  0  0  0  0  0  0  0  0
  -10.5916   13.7249  -32.8701 C   0  0  0  0  0  0  0  0  0  0  0  0
   -9.2664   13.9204  -33.2456 C   0  0  0  0  0  0  0  0  0  0  0  0
   -9.7989   13.4513  -30.6461 C   0  0  0  0  0  0  0  0  0  0  0  0
   -9.9816   15.1396  -36.7495 C   0  0  0  0  0  0  0  0  0  0  0  0
  -11.7049   13.8147  -33.8733 C   0  0  0  0  0  0  0  0  0  0  0  0
   -8.8822   14.1887  -34.6753 C   0  0  0  0  0  0  0  0  0  0  0  0
  -11.6739   13.7902  -37.9944 C   0  0  0  0  0  0  0  0  0  0  0  0
  -14.0869   14.4674  -37.9322 C   0  0  0  0  0  0  0  0  0  0  0  0
  -12.7632   14.7350  -40.0458 C   0  0  0  0  0  0  0  0  0  0  0  0
  -12.3718   15.8161  -36.6848 C   0  0  0  0  0  0  0  0  0  0  0  0
  -11.0472   16.0845  -38.8017 C   0  0  0  0  0  0  0  0  0  0  0  0
  -13.4654   16.7645  -38.7398 C   0  0  0  0  0  0  0  0  0  0  0  0
  -11.2066   13.5644  -35.2925 C   0  0  0  0  0  0  0  0  0  0  0  0
  -12.9783   13.8549  -38.8039 C   0  0  0  0  0  0  0  0  0  0  0  0
  -11.2564   15.2053  -37.5539 C   0  0  0  0  0  0  0  0  0  0  0  0
  -13.6945   15.8934  -37.4820 C   0  0  1  0  0  0  0  0  0  0  0  0
  -12.3505   16.1652  -39.6294 C   0  0  2  0  0  0  0  0  0  0  0  0
  -14.8017   16.4977  -36.6135 C   0  0  0  0  0  0  0  0  0  0  0  0
  -12.1369   17.0371  -40.8702 C   0  0  0  0  0  0  0  0  0  0  0  0
   -8.2534   13.8640  -32.3488 N   0  0  0  0  0  0  0  0  0  0  0  0
   -8.5212   13.6260  -31.0346 N   0  0  0  0  0  0  0  0  0  0  0  0
  -10.0232   14.3744  -35.5818 N   0  0  0  0  0  0  0  0  0  0  0  0
   -8.9829   15.7435  -37.1486 O   0  0  0  0  0  0  0  0  0  0  0  0
  -10.0241   13.1683  -28.9729 Cl  0  0  0  0  0  0  0  0  0  0  0  0
  -11.8806   13.3550  -31.1818 H   0  0  0  0  0  0  0  0  0  0  0  0
  -12.4828   13.0788  -33.6377 H   0  0  0  0  0  0  0  0  0  0  0  0
  -12.1564   14.8122  -33.8085 H   0  0  0  0  0  0  0  0  0  0  0  0
   -8.2331   15.0678  -34.7007 H   0  0  0  0  0  0  0  0  0  0  0  0
   -8.3121   13.3335  -35.0569 H   0  0  0  0  0  0  0  0  0  0  0  0
  -11.8106   13.1405  -37.1199 H   0  0  0  0  0  0  0  0  0  0  0  0
  -10.8808   13.3288  -38.5975 H   0  0  0  0  0  0  0  0  0  0  0  0
  -15.0278   14.4930  -38.4969 H   0  0  0  0  0  0  0  0  0  0  0  0
  -14.2627   13.8283  -37.0572 H   0  0  0  0  0  0  0  0  0  0  0  0
  -11.9905   14.2880  -40.6845 H   0  0  0  0  0  0  0  0  0  0  0  0
  -13.6851   14.7640  -40.6410 H   0  0  0  0  0  0  0  0  0  0  0  0
  -12.5122   15.2150  -35.7758 H   0  0  0  0  0  0  0  0  0  0  0  0
  -12.0768   16.8176  -36.3424 H   0  0  0  0  0  0  0  0  0  0  0  0
  -10.7266   17.0924  -38.5044 H   0  0  0  0  0  0  0  0  0  0  0  0
  -10.2324   15.6767  -39.4157 H   0  0  0  0  0  0  0  0  0  0  0  0
  -14.3985   16.8435  -39.3138 H   0  0  0  0  0  0  0  0  0  0  0  0
  -13.1960   17.7867  -38.4417 H   0  0  0  0  0  0  0  0  0  0  0  0
  -10.9136   12.5146  -35.4200 H   0  0  0  0  0  0  0  0  0  0  0  0
  -12.0092   13.7660  -36.0092 H   0  0  0  0  0  0  0  0  0  0  0  0
  -13.2697   12.8452  -39.1142 H   0  0  0  0  0  0  0  0  0  0  0  0
  -14.5157   17.4997  -36.3027 H   0  0  0  0  0  0  0  0  0  0  0  0
  -14.9545   15.8778  -35.7334 H   0  0  0  0  0  0  0  0  0  0  0  0
  -15.7263   16.5478  -37.1836 H   0  0  0  0  0  0  0  0  0  0  0  0
  -11.8471   18.0400  -40.5660 H   0  0  0  0  0  0  0  0  0  0  0  0
  -13.0591   17.0873  -41.4440 H   0  0  0  0  0  0  0  0  0  0  0  0
  -11.3517   16.6071  -41.4875 H   0  0  0  0  0  0  0  0  0  0  0  0
  1  2  2  0  0  0  0
  1  4  1  0  0  0  0
  2  3  1  0  0  0  0
  2  6  1  0  0  0  0
  3  7  1  0  0  0  0
  3 21  2  0  0  0  0
  4 22  2  0  0  0  0
  4 25  1  0  0  0  0
  5 16  1  0  0  0  0
  5 23  1  0  0  0  0
  5 24  2  0  0  0  0
  6 14  1  0  0  0  0
  7 23  1  0  0  0  0
  8 15  1  0  0  0  0
  8 16  1  0  0  0  0
  9 15  1  0  0  0  0
  9 17  1  0  0  0  0
 10 15  1  0  0  0  0
 10 18  1  0  0  0  0
 11 16  1  0  0  0  0
 11 17  1  0  0  0  0
 12 16  1  0  0  0  0
 12 18  1  0  0  0  0
 13 17  1  0  0  0  0
 13 18  1  0  0  0  0
 14 23  1  0  0  0  0
 17 19  1  0  0  0  0
 18 20  1  0  0  0  0
 21 22  1  0  0  0  0
  1 26  1  0  0  0  0
  6 27  1  0  0  0  0
  6 28  1  0  0  0  0
  7 29  1  0  0  0  0
  7 30  1  0  0  0  0
  8 31  1  0  0  0  0
  8 32  1  0  0  0  0
  9 33  1  0  0  0  0
  9 34  1  0  0  0  0
 10 35  1  0  0  0  0
 10 36  1  0  0  0  0
 11 37  1  0  0  0  0
 11 38  1  0  0  0  0
 12 39  1  0  0  0  0
 12 40  1  0  0  0  0
 13 41  1  0  0  0  0
 13 42  1  0  0  0  0
 14 43  1  0  0  0  0
 14 44  1  0  0  0  0
 15 45  1  0  0  0  0
 19 46  1  0  0  0  0
 19 47  1  0  0  0  0
 19 48  1  0  0  0  0
 20 49  1  0  0  0  0
 20 50  1  0  0  0  0
 20 51  1  0  0  0  0
M  END
> <id>
EN300-26610971

> <smiles>
CC1(CC2CC3(C)C1)CC(C2)(C3)C(=O)N4CCC=5C=C(Cl)N=NC5C4

> <IUPAC Name>
3-chloro-7-(3,5-dimethyladamantane-1-carbonyl)-5H,6H,7H,8H-pyrido[3,4-c]pyridazine

> <CAS>
2411277-49-9

> <URL>
https://www.enaminestore.com/catalog/EN300-26610971

> <ROCS_ShapeQuery>
__x1247relevant_x1083L0AP1_x1305L0BP1_

> <ROCS_TanimotoCombo>
0.722 

> <ROCS_ShapeTanimoto>
0.479 

> <ROCS_ColorTanimoto>
0.243 

> <ROCS_RefTversky>
0.460 

> <ROCS_RefColorTversky>
0.272 

> <ROCS_RefTverskyCombo>
0.732 

> <ROCS_FitTversky>
1.097 

> <ROCS_FitColorTversky>
0.692 

> <ROCS_FitTverskyCombo>
1.789 

> <ROCS_ColorScore>
-8.916

> <ROCS_Overlap>
1364.853

> <ROCS_Rank>
305                 

$$$$
untitled-dbase-131469_2
  -OEChem-06232314393D

 31 33  0     1  0  0  0  0  0999 V2000
  -13.1922   14.0144  -38.0998 C   0  0  0  0  0  0  0  0  0  0  0  0
   -9.9871   15.0746  -37.0644 C   0  0  0  0  0  0  0  0  0  0  0  0
  -12.9224   15.6405  -41.1691 C   0  0  0  0  0  0  0  0  0  0  0  0
  -12.3327   15.9352  -36.8717 C   0  0  0  0  0  0  0  0  0  0  0  0
  -14.3822   16.0501  -41.1885 C   0  0  0  0  0  0  0  0  0  0  0  0
  -13.5356   15.4349  -37.6893 C   0  0  1  0  0  0  0  0  0  0  0  0
  -11.0635   15.8707  -37.7429 C   0  0  2  0  0  0  0  0  0  0  0  0
  -12.4283   16.1645  -39.8224 C   0  0  1  0  0  0  0  0  0  0  0  0
  -13.7013   16.2806  -38.9625 C   0  0  1  0  0  0  0  0  0  0  0  0
  -11.4213   15.2500  -39.1067 C   0  0  2  0  0  0  0  0  0  0  0  0
   -9.4915   12.9265  -36.2135 C   0  0  0  0  0  0  0  0  0  0  0  0
  -14.8011   15.8087  -39.8109 N   0  0  0  0  0  0  0  0  0  0  0  0
  -13.8458   13.0271  -37.7925 O   0  0  0  0  0  0  0  0  0  0  0  0
   -8.8923   15.5257  -36.7562 O   0  0  0  0  0  0  0  0  0  0  0  0
  -12.0548   13.9654  -38.8609 O   0  0  0  0  0  0  0  0  0  0  0  0
  -10.4248   13.8001  -36.8567 O   0  0  0  0  0  0  0  0  0  0  0  0
  -12.8317   14.5501  -41.2407 H   0  0  0  0  0  0  0  0  0  0  0  0
  -12.3634   16.0758  -42.0034 H   0  0  0  0  0  0  0  0  0  0  0  0
  -12.5072   16.9697  -36.5516 H   0  0  0  0  0  0  0  0  0  0  0  0
  -12.2220   15.3353  -35.9596 H   0  0  0  0  0  0  0  0  0  0  0  0
  -14.4896   17.1108  -41.4441 H   0  0  0  0  0  0  0  0  0  0  0  0
  -14.9658   15.4570  -41.8977 H   0  0  0  0  0  0  0  0  0  0  0  0
  -14.4472   15.4372  -37.0827 H   0  0  0  0  0  0  0  0  0  0  0  0
  -10.6603   16.8826  -37.8856 H   0  0  0  0  0  0  0  0  0  0  0  0
  -11.9940   17.1622  -39.9697 H   0  0  0  0  0  0  0  0  0  0  0  0
  -13.8709   17.3324  -38.6985 H   0  0  0  0  0  0  0  0  0  0  0  0
  -10.5315   15.0741  -39.7203 H   0  0  0  0  0  0  0  0  0  0  0  0
   -9.9392   11.9366  -36.0960 H   0  0  0  0  0  0  0  0  0  0  0  0
   -9.2227   13.3349  -35.2361 H   0  0  0  0  0  0  0  0  0  0  0  0
   -8.5945   12.8470  -36.8322 H   0  0  0  0  0  0  0  0  0  0  0  0
  -15.6632   16.3073  -39.5976 H   0  0  0  0  0  0  0  0  0  0  0  0
  1  6  1  0  0  0  0
  1 13  2  0  0  0  0
  1 15  1  0  0  0  0
  2  7  1  6  0  0  0
  2 14  2  0  0  0  0
  2 16  1  0  0  0  0
  3  5  1  0  0  0  0
  3  8  1  6  0  0  0
  4  6  1  1  0  0  0
  4  7  1  0  0  0  0
  5 12  1  0  0  0  0
  6  9  1  0  0  0  0
  7 10  1  0  0  0  0
  8  9  1  0  0  0  0
  8 10  1  0  0  0  0
  9 12  1  6  0  0  0
 10 15  1  6  0  0  0
 11 16  1  0  0  0  0
  3 17  1  0  0  0  0
  3 18  1  0  0  0  0
  4 19  1  0  0  0  0
  4 20  1  0  0  0  0
  5 21  1  0  0  0  0
  5 22  1  0  0  0  0
  6 23  1  0  0  0  0
  7 24  1  0  0  0  0
  8 25  1  0  0  0  0
  9 26  1  0  0  0  0
 10 27  1  0  0  0  0
 11 28  1  0  0  0  0
 11 29  1  0  0  0  0
 11 30  1  0  0  0  0
 12 31  1  0  0  0  0
M  END
> <id>
EN300-26658414

> <smiles>
COC(=O)[C@@H]1C[C@H]2[C@@H]3NCC[C@@H]3[C@@H]1OC2=O |&1:4,6,7,11,12,r|

> <MDLNUMBER>
MFCD32668342

> <IUPAC Name>
rac-methyl (1R,2S,6R,7R,11S)-9-oxo-8-oxa-3-azatricyclo[5.2.2.0,2,6]undecane-11-carboxylate

> <CAS>
2416217-66-6

> <URL>
https://www.enaminestore.com/catalog/EN300-26658414

> <ROCS_ShapeQuery>
__x1247relevant_x1083L0AP1_x1305L0BP1_

> <ROCS_TanimotoCombo>
0.722 

> <ROCS_ShapeTanimoto>
0.527 

> <ROCS_ColorTanimoto>
0.195 

> <ROCS_RefTversky>
0.445 

> <ROCS_RefColorTversky>
0.224 

> <ROCS_RefTverskyCombo>
0.669 

> <ROCS_FitTversky>
1.540 

> <ROCS_FitColorTversky>
0.597 

> <ROCS_FitTverskyCombo>
2.138 

> <ROCS_ColorScore>
-7.328

> <ROCS_Overlap>
1311.992

> <ROCS_Rank>
306                 

$$$$
untitled-dbase-131468_2
  -OEChem-06232314393D

 31 33  0     1  0  0  0  0  0999 V2000
  -13.1922   14.0144  -38.0998 C   0  0  0  0  0  0  0  0  0  0  0  0
   -9.9871   15.0746  -37.0644 C   0  0  0  0  0  0  0  0  0  0  0  0
  -12.9224   15.6405  -41.1691 C   0  0  0  0  0  0  0  0  0  0  0  0
  -12.3327   15.9352  -36.8717 C   0  0  0  0  0  0  0  0  0  0  0  0
  -14.3822   16.0501  -41.1885 C   0  0  0  0  0  0  0  0  0  0  0  0
  -13.5356   15.4349  -37.6893 C   0  0  1  0  0  0  0  0  0  0  0  0
  -11.0635   15.8707  -37.7429 C   0  0  2  0  0  0  0  0  0  0  0  0
  -12.4283   16.1645  -39.8224 C   0  0  1  0  0  0  0  0  0  0  0  0
  -13.7013   16.2806  -38.9625 C   0  0  1  0  0  0  0  0  0  0  0  0
  -11.4213   15.2500  -39.1067 C   0  0  2  0  0  0  0  0  0  0  0  0
   -9.4915   12.9265  -36.2135 C   0  0  0  0  0  0  0  0  0  0  0  0
  -14.8011   15.8087  -39.8109 N   0  0  0  0  0  0  0  0  0  0  0  0
  -13.8458   13.0271  -37.7925 O   0  0  0  0  0  0  0  0  0  0  0  0
   -8.8923   15.5257  -36.7562 O   0  0  0  0  0  0  0  0  0  0  0  0
  -12.0548   13.9654  -38.8609 O   0  0  0  0  0  0  0  0  0  0  0  0
  -10.4248   13.8001  -36.8567 O   0  0  0  0  0  0  0  0  0  0  0  0
  -12.8317   14.5501  -41.2407 H   0  0  0  0  0  0  0  0  0  0  0  0
  -12.3634   16.0758  -42.0034 H   0  0  0  0  0  0  0  0  0  0  0  0
  -12.5072   16.9697  -36.5516 H   0  0  0  0  0  0  0  0  0  0  0  0
  -12.2220   15.3353  -35.9596 H   0  0  0  0  0  0  0  0  0  0  0  0
  -14.4896   17.1108  -41.4441 H   0  0  0  0  0  0  0  0  0  0  0  0
  -14.9658   15.4570  -41.8977 H   0  0  0  0  0  0  0  0  0  0  0  0
  -14.4472   15.4372  -37.0827 H   0  0  0  0  0  0  0  0  0  0  0  0
  -10.6603   16.8826  -37.8856 H   0  0  0  0  0  0  0  0  0  0  0  0
  -11.9940   17.1622  -39.9697 H   0  0  0  0  0  0  0  0  0  0  0  0
  -13.8709   17.3324  -38.6985 H   0  0  0  0  0  0  0  0  0  0  0  0
  -10.5315   15.0741  -39.7203 H   0  0  0  0  0  0  0  0  0  0  0  0
   -9.9392   11.9366  -36.0960 H   0  0  0  0  0  0  0  0  0  0  0  0
   -9.2227   13.3349  -35.2361 H   0  0  0  0  0  0  0  0  0  0  0  0
   -8.5945   12.8470  -36.8322 H   0  0  0  0  0  0  0  0  0  0  0  0
  -15.6632   16.3073  -39.5976 H   0  0  0  0  0  0  0  0  0  0  0  0
  1  6  1  0  0  0  0
  1 13  2  0  0  0  0
  1 15  1  0  0  0  0
  2  7  1  6  0  0  0
  2 14  2  0  0  0  0
  2 16  1  0  0  0  0
  3  5  1  0  0  0  0
  3  8  1  6  0  0  0
  4  6  1  1  0  0  0
  4  7  1  0  0  0  0
  5 12  1  0  0  0  0
  6  9  1  0  0  0  0
  7 10  1  0  0  0  0
  8  9  1  0  0  0  0
  8 10  1  0  0  0  0
  9 12  1  6  0  0  0
 10 15  1  6  0  0  0
 11 16  1  0  0  0  0
  3 17  1  0  0  0  0
  3 18  1  0  0  0  0
  4 19  1  0  0  0  0
  4 20  1  0  0  0  0
  5 21  1  0  0  0  0
  5 22  1  0  0  0  0
  6 23  1  0  0  0  0
  7 24  1  0  0  0  0
  8 25  1  0  0  0  0
  9 26  1  0  0  0  0
 10 27  1  0  0  0  0
 11 28  1  0  0  0  0
 11 29  1  0  0  0  0
 11 30  1  0  0  0  0
 12 31  1  0  0  0  0
M  END
> <id>
EN300-26658413

> <smiles>
Cl.COC(=O)[C@@H]1C[C@H]2[C@@H]3NCC[C@@H]3[C@@H]1OC2=O |&1:5,7,8,12,13,r|

> <MDLNUMBER>
MFCD32668298

> <IUPAC Name>
rac-methyl (1R,2S,6R,7R,11S)-9-oxo-8-oxa-3-azatricyclo[5.2.2.0,2,6]undecane-11-carboxylate hydrochloride

> <CAS>
2416219-00-4

> <Purity>
95

> <URL>
https://www.enaminestore.com/catalog/EN300-26658413

> <ROCS_ShapeQuery>
__x1247relevant_x1083L0AP1_x1305L0BP1_

> <ROCS_TanimotoCombo>
0.722 

> <ROCS_ShapeTanimoto>
0.527 

> <ROCS_ColorTanimoto>
0.195 

> <ROCS_RefTversky>
0.445 

> <ROCS_RefColorTversky>
0.224 

> <ROCS_RefTverskyCombo>
0.669 

> <ROCS_FitTversky>
1.540 

> <ROCS_FitColorTversky>
0.597 

> <ROCS_FitTverskyCombo>
2.138 

> <ROCS_ColorScore>
-7.328

> <ROCS_Overlap>
1311.992

> <ROCS_Rank>
307                 

$$$$
untitled-dbase-12702_2
  -OEChem-06232314393D

 31 33  0     1  0  0  0  0  0999 V2000
   -9.9883   15.2850  -36.5929 C   0  0  0  0  0  0  0  0  0  0  0  0
  -12.6120   14.1650  -39.8147 C   0  0  0  0  0  0  0  0  0  0  0  0
  -14.0443   14.4580  -37.7753 C   0  0  0  0  0  0  0  0  0  0  0  0
  -11.6569   13.7305  -37.5364 C   0  0  0  0  0  0  0  0  0  0  0  0
  -10.9138   15.7363  -38.8517 C   0  0  0  0  0  0  0  0  0  0  0  0
  -12.3478   16.0277  -36.8059 C   0  0  0  0  0  0  0  0  0  0  0  0
  -12.9200   13.6204  -38.4091 C   0  0  0  0  0  0  0  0  0  0  0  0
  -12.1766   15.6422  -39.7313 C   0  0  2  0  0  0  0  0  0  0  0  0
  -13.6174   15.9368  -37.6771 C   0  0  1  0  0  0  0  0  0  0  0  0
  -13.2896   16.4946  -39.0806 C   0  0  0  0  0  0  0  0  0  0  0  0
  -11.2228   15.1998  -37.4468 C   0  0  0  0  0  0  0  0  0  0  0  0
  -14.4850   16.5342  -39.9249 N   0  0  0  0  0  0  0  0  0  0  0  0
   -8.9071   15.7176  -36.9635 O   0  0  0  0  0  0  0  0  0  0  0  0
  -10.2345   14.8118  -35.3469 O   0  0  0  0  0  0  0  0  0  0  0  0
  -11.8137   13.5699  -40.2758 H   0  0  0  0  0  0  0  0  0  0  0  0
  -13.4918   14.0577  -40.4600 H   0  0  0  0  0  0  0  0  0  0  0  0
  -14.9641   14.3592  -38.3638 H   0  0  0  0  0  0  0  0  0  0  0  0
  -14.2738   14.0724  -36.7739 H   0  0  0  0  0  0  0  0  0  0  0  0
  -11.8565   13.3240  -36.5362 H   0  0  0  0  0  0  0  0  0  0  0  0
  -10.8534   13.1155  -37.9627 H   0  0  0  0  0  0  0  0  0  0  0  0
  -10.0972   15.1653  -39.3129 H   0  0  0  0  0  0  0  0  0  0  0  0
  -10.5688   16.7773  -38.8000 H   0  0  0  0  0  0  0  0  0  0  0  0
  -12.0409   17.0763  -36.6980 H   0  0  0  0  0  0  0  0  0  0  0  0
  -12.5658   15.6661  -35.7923 H   0  0  0  0  0  0  0  0  0  0  0  0
  -13.2316   12.5722  -38.4773 H   0  0  0  0  0  0  0  0  0  0  0  0
  -11.9456   16.0163  -40.7360 H   0  0  0  0  0  0  0  0  0  0  0  0
  -14.4185   16.5220  -37.2098 H   0  0  0  0  0  0  0  0  0  0  0  0
  -12.9322   17.5276  -38.9779 H   0  0  0  0  0  0  0  0  0  0  0  0
  -15.1591   17.1059  -39.4760 H   0  0  0  0  0  0  0  0  0  0  0  0
  -14.2272   16.9148  -40.8033 H   0  0  0  0  0  0  0  0  0  0  0  0
   -9.4394   14.8572  -34.7740 H   0  0  0  0  0  0  0  0  0  0  0  0
  1 11  1  0  0  0  0
  1 13  2  0  0  0  0
  1 14  1  0  0  0  0
  2  7  1  0  0  0  0
  2  8  1  0  0  0  0
  3  7  1  0  0  0  0
  3  9  1  0  0  0  0
  4  7  1  0  0  0  0
  4 11  1  0  0  0  0
  5  8  1  0  0  0  0
  5 11  1  0  0  0  0
  6  9  1  0  0  0  0
  6 11  1  0  0  0  0
  8 10  1  0  0  0  0
  9 10  1  0  0  0  0
 10 12  1  0  0  0  0
  2 15  1  0  0  0  0
  2 16  1  0  0  0  0
  3 17  1  0  0  0  0
  3 18  1  0  0  0  0
  4 19  1  0  0  0  0
  4 20  1  0  0  0  0
  5 21  1  0  0  0  0
  5 22  1  0  0  0  0
  6 23  1  0  0  0  0
  6 24  1  0  0  0  0
  7 25  1  0  0  0  0
  8 26  1  0  0  0  0
  9 27  1  0  0  0  0
 10 28  1  0  0  0  0
 12 29  1  0  0  0  0
 12 30  1  0  0  0  0
 14 31  1  0  0  0  0
M  END
> <id>
EN300-211272

> <smiles>
Cl.NC1C2CC3CC1CC(C3)(C2)C(=O)O

> <MDLNUMBER>
MFCD18071519

> <IUPAC Name>
4-aminoadamantane-1-carboxylic acid hydrochloride

> <CAS>
1245645-93-5

> <Purity>
95

> <URL>
https://www.enaminestore.com/catalog/EN300-211272

> <Saltdate>
Cl

> <ROCS_ShapeQuery>
__x1247relevant_x1083L0AP1_x1305L0BP1_

> <ROCS_TanimotoCombo>
0.722 

> <ROCS_ShapeTanimoto>
0.501 

> <ROCS_ColorTanimoto>
0.221 

> <ROCS_RefTversky>
0.419 

> <ROCS_RefColorTversky>
0.251 

> <ROCS_RefTverskyCombo>
0.670 

> <ROCS_FitTversky>
1.634 

> <ROCS_FitColorTversky>
0.652 

> <ROCS_FitTverskyCombo>
2.286 

> <ROCS_ColorScore>
-8.216

> <ROCS_Overlap>
1233.615

> <ROCS_Rank>
308                 

$$$$
untitled-dbase-110069_2
  -OEChem-06232314393D

 31 33  0     1  0  0  0  0  0999 V2000
   -9.9883   15.2850  -36.5929 C   0  0  0  0  0  0  0  0  0  0  0  0
  -12.6120   14.1650  -39.8147 C   0  0  0  0  0  0  0  0  0  0  0  0
  -14.0443   14.4580  -37.7753 C   0  0  0  0  0  0  0  0  0  0  0  0
  -11.6569   13.7305  -37.5364 C   0  0  0  0  0  0  0  0  0  0  0  0
  -10.9138   15.7363  -38.8517 C   0  0  0  0  0  0  0  0  0  0  0  0
  -12.3478   16.0277  -36.8059 C   0  0  0  0  0  0  0  0  0  0  0  0
  -12.9200   13.6204  -38.4091 C   0  0  0  0  0  0  0  0  0  0  0  0
  -12.1766   15.6422  -39.7313 C   0  0  2  0  0  0  0  0  0  0  0  0
  -13.6174   15.9368  -37.6771 C   0  0  1  0  0  0  0  0  0  0  0  0
  -13.2896   16.4946  -39.0806 C   0  0  0  0  0  0  0  0  0  0  0  0
  -11.2228   15.1998  -37.4468 C   0  0  0  0  0  0  0  0  0  0  0  0
  -14.4850   16.5342  -39.9249 N   0  0  0  0  0  0  0  0  0  0  0  0
   -8.9071   15.7176  -36.9635 O   0  0  0  0  0  0  0  0  0  0  0  0
  -10.2345   14.8118  -35.3469 O   0  0  0  0  0  0  0  0  0  0  0  0
  -11.8137   13.5699  -40.2758 H   0  0  0  0  0  0  0  0  0  0  0  0
  -13.4918   14.0577  -40.4600 H   0  0  0  0  0  0  0  0  0  0  0  0
  -14.9641   14.3592  -38.3638 H   0  0  0  0  0  0  0  0  0  0  0  0
  -14.2738   14.0724  -36.7739 H   0  0  0  0  0  0  0  0  0  0  0  0
  -11.8565   13.3240  -36.5362 H   0  0  0  0  0  0  0  0  0  0  0  0
  -10.8534   13.1155  -37.9627 H   0  0  0  0  0  0  0  0  0  0  0  0
  -10.0972   15.1653  -39.3129 H   0  0  0  0  0  0  0  0  0  0  0  0
  -10.5688   16.7773  -38.8000 H   0  0  0  0  0  0  0  0  0  0  0  0
  -12.0409   17.0763  -36.6980 H   0  0  0  0  0  0  0  0  0  0  0  0
  -12.5658   15.6661  -35.7923 H   0  0  0  0  0  0  0  0  0  0  0  0
  -13.2316   12.5722  -38.4773 H   0  0  0  0  0  0  0  0  0  0  0  0
  -11.9456   16.0163  -40.7360 H   0  0  0  0  0  0  0  0  0  0  0  0
  -14.4185   16.5220  -37.2098 H   0  0  0  0  0  0  0  0  0  0  0  0
  -12.9322   17.5276  -38.9779 H   0  0  0  0  0  0  0  0  0  0  0  0
  -15.1591   17.1059  -39.4760 H   0  0  0  0  0  0  0  0  0  0  0  0
  -14.2272   16.9148  -40.8033 H   0  0  0  0  0  0  0  0  0  0  0  0
   -9.4394   14.8572  -34.7740 H   0  0  0  0  0  0  0  0  0  0  0  0
  1 11  1  0  0  0  0
  1 13  2  0  0  0  0
  1 14  1  0  0  0  0
  2  7  1  0  0  0  0
  2  8  1  0  0  0  0
  3  7  1  0  0  0  0
  3  9  1  0  0  0  0
  4  7  1  0  0  0  0
  4 11  1  0  0  0  0
  5  8  1  0  0  0  0
  5 11  1  0  0  0  0
  6  9  1  0  0  0  0
  6 11  1  0  0  0  0
  8 10  1  0  0  0  0
  9 10  1  0  0  0  0
 10 12  1  0  0  0  0
  2 15  1  0  0  0  0
  2 16  1  0  0  0  0
  3 17  1  0  0  0  0
  3 18  1  0  0  0  0
  4 19  1  0  0  0  0
  4 20  1  0  0  0  0
  5 21  1  0  0  0  0
  5 22  1  0  0  0  0
  6 23  1  0  0  0  0
  6 24  1  0  0  0  0
  7 25  1  0  0  0  0
  8 26  1  0  0  0  0
  9 27  1  0  0  0  0
 10 28  1  0  0  0  0
 12 29  1  0  0  0  0
 12 30  1  0  0  0  0
 14 31  1  0  0  0  0
M  END
> <id>
EN300-211273

> <smiles>
NC1C2CC3CC1CC(C3)(C2)C(=O)O

> <MDLNUMBER>
MFCD09038290

> <IUPAC Name>
4-aminoadamantane-1-carboxylic acid

> <CAS>
1057343-95-9

> <URL>
https://www.enaminestore.com/catalog/EN300-211273

> <ROCS_ShapeQuery>
__x1247relevant_x1083L0AP1_x1305L0BP1_

> <ROCS_TanimotoCombo>
0.722 

> <ROCS_ShapeTanimoto>
0.501 

> <ROCS_ColorTanimoto>
0.221 

> <ROCS_RefTversky>
0.419 

> <ROCS_RefColorTversky>
0.251 

> <ROCS_RefTverskyCombo>
0.670 

> <ROCS_FitTversky>
1.634 

> <ROCS_FitColorTversky>
0.652 

> <ROCS_FitTverskyCombo>
2.286 

> <ROCS_ColorScore>
-8.216

> <ROCS_Overlap>
1233.615

> <ROCS_Rank>
309                 

$$$$
untitled-dbase-68535_0
  -OEChem-06232314393D

 26 28  0     1  0  0  0  0  0999 V2000
  -10.2183   14.9202  -36.6103 C   0  0  0  0  0  0  0  0  0  0  0  0
  -14.0009   14.3306  -38.6465 C   0  0  0  0  0  0  0  0  0  0  0  0
  -12.7032   13.8544  -39.3313 C   0  0  0  0  0  0  0  0  0  0  0  0
  -12.7345   14.8753  -36.5631 C   0  0  0  0  0  0  0  0  0  0  0  0
  -12.7698   16.7862  -39.7856 C   0  0  0  0  0  0  0  0  0  0  0  0
  -11.4501   14.3396  -37.2424 C   0  0  1  0  0  0  0  0  0  0  0  0
  -13.6907   15.4557  -37.6358 C   0  0  1  0  0  0  0  0  0  0  0  0
  -11.4955   14.6338  -38.7679 C   0  0  2  0  0  0  0  0  0  0  0  0
  -12.9571   16.6093  -38.3000 C   0  0  1  0  0  0  0  0  0  0  0  0
  -11.6873   16.1351  -38.9593 C   0  0  2  0  0  0  0  0  0  0  0  0
   -9.3637   15.5644  -37.2003 O   0  0  0  0  0  0  0  0  0  0  0  0
  -10.1775   14.6305  -35.2868 O   0  0  0  0  0  0  0  0  0  0  0  0
  -14.7151   14.6778  -39.4020 H   0  0  0  0  0  0  0  0  0  0  0  0
  -14.4787   13.4861  -38.1348 H   0  0  0  0  0  0  0  0  0  0  0  0
  -12.5723   12.7779  -39.1666 H   0  0  0  0  0  0  0  0  0  0  0  0
  -12.7786   13.9911  -40.4164 H   0  0  0  0  0  0  0  0  0  0  0  0
  -13.2325   14.0573  -36.0281 H   0  0  0  0  0  0  0  0  0  0  0  0
  -12.5031   15.6458  -35.8173 H   0  0  0  0  0  0  0  0  0  0  0  0
  -13.3531   16.2022  -40.4821 H   0  0  0  0  0  0  0  0  0  0  0  0
  -12.5804   17.7932  -40.1438 H   0  0  0  0  0  0  0  0  0  0  0  0
  -11.3826   13.2563  -37.0801 H   0  0  0  0  0  0  0  0  0  0  0  0
  -14.6149   15.8146  -37.1713 H   0  0  0  0  0  0  0  0  0  0  0  0
  -10.5720   14.3134  -39.2625 H   0  0  0  0  0  0  0  0  0  0  0  0
  -12.8989   17.4882  -37.6697 H   0  0  0  0  0  0  0  0  0  0  0  0
  -10.7817   16.7024  -38.7819 H   0  0  0  0  0  0  0  0  0  0  0  0
  -10.9552   14.1043  -35.0028 H   0  0  0  0  0  0  0  0  0  0  0  0
  1  6  1  0  0  0  0
  1 11  2  0  0  0  0
  1 12  1  0  0  0  0
  2  3  1  0  0  0  0
  2  7  1  0  0  0  0
  3  8  1  0  0  0  0
  4  6  1  0  0  0  0
  4  7  1  0  0  0  0
  5  9  1  0  0  0  0
  5 10  1  0  0  0  0
  6  8  1  0  0  0  0
  7  9  1  0  0  0  0
  8 10  1  0  0  0  0
  9 10  1  0  0  0  0
  2 13  1  0  0  0  0
  2 14  1  0  0  0  0
  3 15  1  0  0  0  0
  3 16  1  0  0  0  0
  4 17  1  0  0  0  0
  4 18  1  0  0  0  0
  5 19  1  0  0  0  0
  5 20  1  0  0  0  0
  6 21  1  0  0  0  0
  7 22  1  0  0  0  0
  8 23  1  0  0  0  0
  9 24  1  0  0  0  0
 10 25  1  0  0  0  0
 12 26  1  0  0  0  0
M  END
> <id>
EN300-37342678

> <smiles>
OC(=O)C1CC2CCC1C3CC32

> <IUPAC Name>
tricyclo[3.2.2.0,2,4]nonane-6-carboxylic acid

> <CAS>
55308-28-6

> <URL>
https://www.enaminestore.com/catalog/EN300-37342678

> <ROCS_ShapeQuery>
__x1247relevant_x1083L0AP1_x1305L0BP1_

> <ROCS_TanimotoCombo>
0.722 

> <ROCS_ShapeTanimoto>
0.466 

> <ROCS_ColorTanimoto>
0.256 

> <ROCS_RefTversky>
0.390 

> <ROCS_RefColorTversky>
0.326 

> <ROCS_RefTverskyCombo>
0.716 

> <ROCS_FitTversky>
1.727 

> <ROCS_FitColorTversky>
0.543 

> <ROCS_FitTverskyCombo>
2.270 

> <ROCS_ColorScore>
-10.810

> <ROCS_Overlap>
1144.418

> <ROCS_Rank>
310                 

$$$$
untitled-dbase-103304_57
  -OEChem-06232314393D

 37 40  0     1  0  0  0  0  0999 V2000
   -8.1467   15.5280  -33.8996 C   0  0  0  0  0  0  0  0  0  0  0  0
   -9.1303   13.3868  -34.3815 C   0  0  0  0  0  0  0  0  0  0  0  0
   -7.9432   15.0824  -32.6035 C   0  0  0  0  0  0  0  0  0  0  0  0
   -8.7522   14.6579  -34.7994 C   0  0  0  0  0  0  0  0  0  0  0  0
   -8.8826   13.0370  -33.0639 C   0  0  0  0  0  0  0  0  0  0  0  0
  -12.7428   16.5039  -37.4838 C   0  0  0  0  0  0  0  0  0  0  0  0
  -12.0357   16.6305  -38.6178 C   0  0  0  0  0  0  0  0  0  0  0  0
   -8.9917   15.0810  -36.1872 C   0  0  0  0  0  0  0  0  0  0  0  0
  -14.3576   14.9818  -38.5386 C   0  0  0  0  0  0  0  0  0  0  0  0
  -13.5417   15.1277  -39.8468 C   0  0  0  0  0  0  0  0  0  0  0  0
  -11.3317   14.0806  -36.2482 C   0  0  0  0  0  0  0  0  0  0  0  0
  -10.0686   14.3051  -38.2763 C   0  0  0  0  0  0  0  0  0  0  0  0
  -13.4243   15.1601  -37.3169 C   0  0  1  0  0  0  0  0  0  0  0  0
  -12.0567   15.4047  -39.5097 C   0  0  2  0  0  0  0  0  0  0  0  0
  -12.3522   14.0360  -37.3863 C   0  0  1  0  0  0  0  0  0  0  0  0
  -11.5299   14.1829  -38.7053 C   0  0  2  0  0  0  0  0  0  0  0  0
   -8.2968   13.8550  -32.1609 N   0  0  0  0  0  0  0  0  0  0  0  0
  -10.0843   14.5343  -36.8449 N   0  0  0  0  0  0  0  0  0  0  0  0
   -8.2106   15.9003  -36.6667 O   0  0  0  0  0  0  0  0  0  0  0  0
   -9.3143   11.4900  -32.4605 Cl  0  0  0  0  0  0  0  0  0  0  0  0
   -7.8395   16.5263  -34.1930 H   0  0  0  0  0  0  0  0  0  0  0  0
   -9.6041   12.6921  -35.0687 H   0  0  0  0  0  0  0  0  0  0  0  0
   -7.4747   15.7227  -31.8633 H   0  0  0  0  0  0  0  0  0  0  0  0
  -12.8245   17.2888  -36.7441 H   0  0  0  0  0  0  0  0  0  0  0  0
  -11.4918   17.5274  -38.8815 H   0  0  0  0  0  0  0  0  0  0  0  0
  -15.1595   15.7306  -38.5200 H   0  0  0  0  0  0  0  0  0  0  0  0
  -14.8431   13.9989  -38.5102 H   0  0  0  0  0  0  0  0  0  0  0  0
  -13.6350   14.2152  -40.4476 H   0  0  0  0  0  0  0  0  0  0  0  0
  -13.9563   15.9458  -40.4492 H   0  0  0  0  0  0  0  0  0  0  0  0
  -11.6312   14.7198  -35.4122 H   0  0  0  0  0  0  0  0  0  0  0  0
  -11.1513   13.0726  -35.8569 H   0  0  0  0  0  0  0  0  0  0  0  0
   -9.5413   13.3581  -38.4417 H   0  0  0  0  0  0  0  0  0  0  0  0
   -9.5102   15.0921  -38.7932 H   0  0  0  0  0  0  0  0  0  0  0  0
  -13.9892   15.1166  -36.3805 H   0  0  0  0  0  0  0  0  0  0  0  0
  -11.4703   15.5673  -40.4194 H   0  0  0  0  0  0  0  0  0  0  0  0
  -12.8565   13.0610  -37.3738 H   0  0  0  0  0  0  0  0  0  0  0  0
  -11.6480   13.2776  -39.3151 H   0  0  0  0  0  0  0  0  0  0  0  0
  1  3  1  0  0  0  0
  1  4  2  0  0  0  0
  2  4  1  0  0  0  0
  2  5  2  0  0  0  0
  3 17  2  0  0  0  0
  4  8  1  0  0  0  0
  5 17  1  0  0  0  0
  5 20  1  0  0  0  0
  6  7  2  0  0  0  0
  6 13  1  0  0  0  0
  7 14  1  0  0  0  0
  8 18  1  0  0  0  0
  8 19  2  0  0  0  0
  9 10  1  0  0  0  0
  9 13  1  0  0  0  0
 10 14  1  0  0  0  0
 11 15  1  0  0  0  0
 11 18  1  0  0  0  0
 12 16  1  0  0  0  0
 12 18  1  0  0  0  0
 13 15  1  0  0  0  0
 14 16  1  0  0  0  0
 15 16  1  0  0  0  0
  1 21  1  0  0  0  0
  2 22  1  0  0  0  0
  3 23  1  0  0  0  0
  6 24  1  0  0  0  0
  7 25  1  0  0  0  0
  9 26  1  0  0  0  0
  9 27  1  0  0  0  0
 10 28  1  0  0  0  0
 10 29  1  0  0  0  0
 11 30  1  0  0  0  0
 11 31  1  0  0  0  0
 12 32  1  0  0  0  0
 12 33  1  0  0  0  0
 13 34  1  0  0  0  0
 14 35  1  0  0  0  0
 15 36  1  0  0  0  0
 16 37  1  0  0  0  0
M  END
> <id>
EN300-6669599

> <smiles>
ClC=1C=C(C=CN1)C(=O)N2CC3C(C2)C4CCC3C=C4

> <IUPAC Name>
4-(2-chloropyridine-4-carbonyl)-4-azatricyclo[5.2.2.0,2,6]undec-8-ene

> <CAS>
2094542-80-8

> <URL>
https://www.enaminestore.com/catalog/EN300-6669599

> <ROCS_ShapeQuery>
__x1247relevant_x1083L0AP1_x1305L0BP1_

> <ROCS_TanimotoCombo>
0.722 

> <ROCS_ShapeTanimoto>
0.477 

> <ROCS_ColorTanimoto>
0.245 

> <ROCS_RefTversky>
0.434 

> <ROCS_RefColorTversky>
0.265 

> <ROCS_RefTverskyCombo>
0.699 

> <ROCS_FitTversky>
1.257 

> <ROCS_FitColorTversky>
0.766 

> <ROCS_FitTverskyCombo>
2.023 

> <ROCS_ColorScore>
-8.659

> <ROCS_Overlap>
1284.340

> <ROCS_Rank>
311                 

$$$$
untitled-dbase-57249_6
  -OEChem-06232314393D

 26 27  0     0  0  0  0  0  0999 V2000
  -10.2639   15.0013  -36.5202 C   0  0  0  0  0  0  0  0  0  0  0  0
  -12.0265   13.8818  -37.8963 C   0  0  0  0  0  0  0  0  0  0  0  0
  -12.4927   16.0750  -36.7810 C   0  0  0  0  0  0  0  0  0  0  0  0
  -10.9221   15.9714  -38.7288 C   0  0  0  0  0  0  0  0  0  0  0  0
  -13.2004   14.1214  -38.8541 C   0  0  0  0  0  0  0  0  0  0  0  0
  -13.6638   16.3128  -37.7430 C   0  0  0  0  0  0  0  0  0  0  0  0
  -12.0959   16.2070  -39.6877 C   0  0  0  0  0  0  0  0  0  0  0  0
  -11.4052   15.2264  -37.4683 C   0  0  0  0  0  0  0  0  0  0  0  0
  -13.3913   15.6289  -39.0929 C   0  0  0  0  0  0  0  0  0  0  0  0
  -10.3512   14.4424  -35.4370 O   0  0  0  0  0  0  0  0  0  0  0  0
   -9.1132   15.5071  -37.0275 O   0  0  0  0  0  0  0  0  0  0  0  0
  -14.4784   15.8343  -39.9799 O   0  0  0  0  0  0  0  0  0  0  0  0
  -12.3740   13.3189  -37.0205 H   0  0  0  0  0  0  0  0  0  0  0  0
  -11.2741   13.2477  -38.3826 H   0  0  0  0  0  0  0  0  0  0  0  0
  -12.0812   17.0381  -36.4525 H   0  0  0  0  0  0  0  0  0  0  0  0
  -12.8547   15.5765  -35.8725 H   0  0  0  0  0  0  0  0  0  0  0  0
  -10.1364   15.3985  -39.2376 H   0  0  0  0  0  0  0  0  0  0  0  0
  -10.4673   16.9334  -38.4599 H   0  0  0  0  0  0  0  0  0  0  0  0
  -13.0263   13.6033  -39.8058 H   0  0  0  0  0  0  0  0  0  0  0  0
  -14.1189   13.6795  -38.4473 H   0  0  0  0  0  0  0  0  0  0  0  0
  -14.5971   15.9358  -37.3055 H   0  0  0  0  0  0  0  0  0  0  0  0
  -13.8246   17.3891  -37.8846 H   0  0  0  0  0  0  0  0  0  0  0  0
  -12.2118   17.2795  -39.8888 H   0  0  0  0  0  0  0  0  0  0  0  0
  -11.8879   15.7495  -40.6633 H   0  0  0  0  0  0  0  0  0  0  0  0
   -8.3545   15.3714  -36.4206 H   0  0  0  0  0  0  0  0  0  0  0  0
  -14.5654   16.7942  -40.1041 H   0  0  0  0  0  0  0  0  0  0  0  0
  1  8  1  0  0  0  0
  1 10  2  0  0  0  0
  1 11  1  0  0  0  0
  2  5  1  0  0  0  0
  2  8  1  0  0  0  0
  3  6  1  0  0  0  0
  3  8  1  0  0  0  0
  4  7  1  0  0  0  0
  4  8  1  0  0  0  0
  5  9  1  0  0  0  0
  6  9  1  0  0  0  0
  7  9  1  0  0  0  0
  9 12  1  0  0  0  0
  2 13  1  0  0  0  0
  2 14  1  0  0  0  0
  3 15  1  0  0  0  0
  3 16  1  0  0  0  0
  4 17  1  0  0  0  0
  4 18  1  0  0  0  0
  5 19  1  0  0  0  0
  5 20  1  0  0  0  0
  6 21  1  0  0  0  0
  6 22  1  0  0  0  0
  7 23  1  0  0  0  0
  7 24  1  0  0  0  0
 11 25  1  0  0  0  0
 12 26  1  0  0  0  0
M  END
> <id>
EN300-109769

> <smiles>
OC(=O)C1(CCC2(O)CC1)CC2

> <MDLNUMBER>
MFCD00102273

> <IUPAC Name>
4-hydroxybicyclo[2.2.2]octane-1-carboxylic acid

> <CAS>
1127-13-5

> <Purity>
95

> <URL>
https://www.enaminestore.com/catalog/EN300-109769

> <MP>
224-226

> <ROCS_ShapeQuery>
__x1247relevant_x1083L0AP1_x1305L0BP1_

> <ROCS_TanimotoCombo>
0.722 

> <ROCS_ShapeTanimoto>
0.474 

> <ROCS_ColorTanimoto>
0.247 

> <ROCS_RefTversky>
0.394 

> <ROCS_RefColorTversky>
0.272 

> <ROCS_RefTverskyCombo>
0.666 

> <ROCS_FitTversky>
1.762 

> <ROCS_FitColorTversky>
0.733 

> <ROCS_FitTverskyCombo>
2.494 

> <ROCS_ColorScore>
-8.896

> <ROCS_Overlap>
1156.390

> <ROCS_Rank>
312                 

$$$$
untitled-dbase-12388_1
  -OEChem-06232314393D

 24 28  0     1  0  0  0  0  0999 V2000
  -11.8511   16.4921  -39.7746 C   0  0  0  0  0  0  0  0  0  0  0  0
  -10.1598   15.2468  -36.8190 C   0  0  0  0  0  0  0  0  0  0  0  0
  -14.2426   14.0234  -38.5952 C   0  0  0  0  0  0  0  0  0  0  0  0
  -12.4906   15.1226  -39.8437 C   0  0  2  0  0  0  0  0  0  0  0  0
  -11.9692   16.6850  -38.2081 C   0  0  1  0  0  0  0  0  0  0  0  0
  -13.8563   15.3942  -39.1405 C   0  0  2  0  0  0  0  0  0  0  0  0
  -12.9667   13.7802  -37.8039 C   0  0  1  0  0  0  0  0  0  0  0  0
  -11.8077   14.2822  -38.7218 C   0  0  2  0  0  0  0  0  0  0  0  0
  -13.4194   16.1909  -37.8678 C   0  0  1  0  0  0  0  0  0  0  0  0
  -12.8112   15.0830  -36.9793 C   0  0  2  0  0  0  0  0  0  0  0  0
  -11.4487   15.3293  -37.6067 C   0  0  1  0  0  0  0  0  0  0  0  0
  -11.4194   17.1602  -40.6896 O   0  0  0  0  0  0  0  0  0  0  0  0
   -9.0547   15.5430  -37.2485 O   0  0  0  0  0  0  0  0  0  0  0  0
  -10.3944   14.7943  -35.5631 O   0  0  0  0  0  0  0  0  0  0  0  0
  -15.1257   14.0575  -37.9493 H   0  0  0  0  0  0  0  0  0  0  0  0
  -14.3912   13.2812  -39.3856 H   0  0  0  0  0  0  0  0  0  0  0  0
  -12.5395   14.6489  -40.8230 H   0  0  0  0  0  0  0  0  0  0  0  0
  -11.6250   17.6140  -37.7585 H   0  0  0  0  0  0  0  0  0  0  0  0
  -14.5957   15.9111  -39.7555 H   0  0  0  0  0  0  0  0  0  0  0  0
  -12.8112   12.8421  -37.2706 H   0  0  0  0  0  0  0  0  0  0  0  0
  -11.0339   13.5722  -39.0163 H   0  0  0  0  0  0  0  0  0  0  0  0
  -14.1282   16.8821  -37.4130 H   0  0  0  0  0  0  0  0  0  0  0  0
  -12.9324   15.1070  -35.8989 H   0  0  0  0  0  0  0  0  0  0  0  0
   -9.5693   14.7318  -35.0361 H   0  0  0  0  0  0  0  0  0  0  0  0
  1  4  1  0  0  0  0
  1  5  1  0  0  0  0
  1 12  2  0  0  0  0
  2 11  1  0  0  0  0
  2 13  2  0  0  0  0
  2 14  1  0  0  0  0
  3  6  1  0  0  0  0
  3  7  1  0  0  0  0
  4  6  1  0  0  0  0
  4  8  1  0  0  0  0
  5  9  1  0  0  0  0
  5 11  1  0  0  0  0
  6  9  1  0  0  0  0
  7  8  1  0  0  0  0
  7 10  1  0  0  0  0
  8 11  1  0  0  0  0
  9 10  1  0  0  0  0
 10 11  1  0  0  0  0
  3 15  1  0  0  0  0
  3 16  1  0  0  0  0
  4 17  1  0  0  0  0
  5 18  1  0  0  0  0
  6 19  1  0  0  0  0
  7 20  1  0  0  0  0
  8 21  1  0  0  0  0
  9 22  1  0  0  0  0
 10 23  1  0  0  0  0
 14 24  1  0  0  0  0
M  END
> <id>
EN300-201605

> <smiles>
OC(=O)C12C3C4CC5C3C2C(=O)C5C41

> <MDLNUMBER>
MFCD20264558

> <IUPAC Name>
10-oxopentacyclo[5.3.0.0^{2,5}.0^{3,9}.0^{4,8}]decane-3-carboxylic acid

> <CAS>
94645-36-0

> <Purity>
95

> <URL>
https://www.enaminestore.com/catalog/EN300-201605

> <MP>
74-75

> <ROCS_ShapeQuery>
__x1247relevant_x1083L0AP1_x1305L0BP1_

> <ROCS_TanimotoCombo>
0.722 

> <ROCS_ShapeTanimoto>
0.540 

> <ROCS_ColorTanimoto>
0.182 

> <ROCS_RefTversky>
0.447 

> <ROCS_RefColorTversky>
0.784 

> <ROCS_RefTverskyCombo>
1.230 

> <ROCS_FitTversky>
1.634 

> <ROCS_FitColorTversky>
0.191 

> <ROCS_FitTverskyCombo>
1.825 

> <ROCS_ColorScore>
-32.040

> <ROCS_Overlap>
1315.435

> <ROCS_Rank>
313                 

$$$$
untitled-dbase-136713_7
  -OEChem-06232314393D

 34 36  0     1  0  0  0  0  0999 V2000
  -12.0135   16.7489  -40.5703 C   0  0  0  0  0  0  0  0  0  0  0  0
  -13.6342   14.8037  -36.9914 C   0  0  0  0  0  0  0  0  0  0  0  0
  -13.8726   14.1106  -38.3387 C   0  0  0  0  0  0  0  0  0  0  0  0
  -12.6888   16.8203  -38.1265 C   0  0  0  0  0  0  0  0  0  0  0  0
  -11.4581   14.2244  -38.8983 C   0  0  0  0  0  0  0  0  0  0  0  0
   -9.1886   15.3947  -36.5532 C   0  0  0  0  0  0  0  0  0  0  0  0
   -9.4950   13.9406  -36.3344 C   0  0  0  0  0  0  0  0  0  0  0  0
  -12.3996   15.7183  -37.0837 C   0  0  2  0  0  0  0  0  0  0  0  0
  -12.8661   14.6305  -39.3924 C   0  0  2  0  0  0  0  0  0  0  0  0
  -12.9709   16.1814  -39.5102 C   0  0  2  0  0  0  0  0  0  0  0  0
  -11.1737   14.8878  -37.5353 C   0  0  0  0  0  0  0  0  0  0  0  0
  -14.3641   16.5371  -39.9756 C   0  0  0  0  0  0  0  0  0  0  0  0
  -12.3579   17.3493  -41.5774 O   0  0  0  0  0  0  0  0  0  0  0  0
  -10.0196   15.7383  -37.6596 O   0  0  0  0  0  0  0  0  0  0  0  0
  -10.9022   13.8707  -36.5534 O   0  0  0  0  0  0  0  0  0  0  0  0
  -10.7249   16.4908  -40.2388 O   0  0  0  0  0  0  0  0  0  0  0  0
  -14.5178   15.3919  -36.7165 H   0  0  0  0  0  0  0  0  0  0  0  0
  -13.5056   14.0532  -36.2032 H   0  0  0  0  0  0  0  0  0  0  0  0
  -13.7573   13.0257  -38.2194 H   0  0  0  0  0  0  0  0  0  0  0  0
  -14.9057   14.2665  -38.6681 H   0  0  0  0  0  0  0  0  0  0  0  0
  -13.5512   17.4080  -37.7862 H   0  0  0  0  0  0  0  0  0  0  0  0
  -11.8496   17.5247  -38.1660 H   0  0  0  0  0  0  0  0  0  0  0  0
  -11.4097   13.1318  -38.8115 H   0  0  0  0  0  0  0  0  0  0  0  0
  -10.6999   14.5064  -39.6372 H   0  0  0  0  0  0  0  0  0  0  0  0
   -9.4162   16.0222  -35.6878 H   0  0  0  0  0  0  0  0  0  0  0  0
   -8.1449   15.5486  -36.8492 H   0  0  0  0  0  0  0  0  0  0  0  0
   -8.9626   13.2763  -37.0185 H   0  0  0  0  0  0  0  0  0  0  0  0
   -9.2953   13.6364  -35.3017 H   0  0  0  0  0  0  0  0  0  0  0  0
  -12.2087   16.1806  -36.1081 H   0  0  0  0  0  0  0  0  0  0  0  0
  -13.0623   14.1515  -40.3595 H   0  0  0  0  0  0  0  0  0  0  0  0
  -15.0886   16.1593  -39.2612 H   0  0  0  0  0  0  0  0  0  0  0  0
  -14.5430   16.0891  -40.9478 H   0  0  0  0  0  0  0  0  0  0  0  0
  -14.4532   17.6163  -40.0494 H   0  0  0  0  0  0  0  0  0  0  0  0
  -10.0974   16.8440  -40.9050 H   0  0  0  0  0  0  0  0  0  0  0  0
  1 10  1  0  0  0  0
  1 13  2  0  0  0  0
  1 16  1  0  0  0  0
  2  3  1  0  0  0  0
  2  8  1  0  0  0  0
  3  9  1  0  0  0  0
  4  8  1  0  0  0  0
  4 10  1  0  0  0  0
  5  9  1  0  0  0  0
  5 11  1  0  0  0  0
  6  7  1  0  0  0  0
  6 14  1  0  0  0  0
  7 15  1  0  0  0  0
  8 11  1  0  0  0  0
  9 10  1  0  0  0  0
 10 12  1  0  0  0  0
 11 14  1  0  0  0  0
 11 15  1  0  0  0  0
  2 17  1  0  0  0  0
  2 18  1  0  0  0  0
  3 19  1  0  0  0  0
  3 20  1  0  0  0  0
  4 21  1  0  0  0  0
  4 22  1  0  0  0  0
  5 23  1  0  0  0  0
  5 24  1  0  0  0  0
  6 25  1  0  0  0  0
  6 26  1  0  0  0  0
  7 27  1  0  0  0  0
  7 28  1  0  0  0  0
  8 29  1  0  0  0  0
  9 30  1  0  0  0  0
 12 31  1  0  0  0  0
 12 32  1  0  0  0  0
 12 33  1  0  0  0  0
 16 34  1  0  0  0  0
M  END
> <id>
EN300-27685032

> <smiles>
CC1(CC2CCC1CC32OCCO3)C(=O)O

> <MDLNUMBER>
MFCD32874463

> <IUPAC Name>
5-methylspiro[bicyclo[2.2.2]octane-2,2'-[1,3]dioxolane]-5-carboxylic acid

> <CAS>
2551120-28-4

> <Purity>
95

> <URL>
https://www.enaminestore.com/catalog/EN300-27685032

> <ROCS_ShapeQuery>
__x1247relevant_x1083L0AP1_x1305L0BP1_

> <ROCS_TanimotoCombo>
0.722 

> <ROCS_ShapeTanimoto>
0.538 

> <ROCS_ColorTanimoto>
0.184 

> <ROCS_RefTversky>
0.450 

> <ROCS_RefColorTversky>
0.217 

> <ROCS_RefTverskyCombo>
0.667 

> <ROCS_FitTversky>
1.569 

> <ROCS_FitColorTversky>
0.543 

> <ROCS_FitTverskyCombo>
2.112 

> <ROCS_ColorScore>
-7.108

> <ROCS_Overlap>
1327.383

> <ROCS_Rank>
314                 

$$$$
untitled-dbase-95130_14
  -OEChem-06232314393D

 28 30  0     1  0  0  0  0  0999 V2000
  -10.3794   14.3955  -38.6401 C   0  0  0  0  0  0  0  0  0  0  0  0
  -13.5214   16.8176  -38.5691 C   0  0  0  0  0  0  0  0  0  0  0  0
  -13.5663   14.2326  -38.3669 C   0  0  0  0  0  0  0  0  0  0  0  0
   -9.6406   13.7535  -37.4694 C   0  0  0  0  0  0  0  0  0  0  0  0
  -10.8341   16.0826  -36.9154 C   0  0  0  0  0  0  0  0  0  0  0  0
  -13.5679   15.4595  -39.2064 C   0  0  2  0  0  0  0  0  0  0  0  0
  -12.2516   16.1215  -39.0203 C   0  0  2  0  0  0  0  0  0  0  0  0
  -11.4932   15.2643  -38.0294 C   0  0  1  0  0  0  0  0  0  0  0  0
  -11.5279   16.6973  -40.1995 C   0  0  0  0  0  0  0  0  0  0  0  0
  -10.0640   14.4660  -34.9711 O   0  0  0  0  0  0  0  0  0  0  0  0
   -8.2955   15.6982  -36.3083 O   0  0  0  0  0  0  0  0  0  0  0  0
  -12.4809   14.3827  -37.4338 O   0  0  0  0  0  0  0  0  0  0  0  0
  -10.6618   15.7125  -40.7560 O   0  0  0  0  0  0  0  0  0  0  0  0
   -9.5724   15.0211  -36.2150 S   0  0  0  0  0  0  0  0  0  0  0  0
   -9.6732   15.0113  -39.2093 H   0  0  0  0  0  0  0  0  0  0  0  0
  -10.7706   13.6229  -39.3103 H   0  0  0  0  0  0  0  0  0  0  0  0
  -13.8917   17.6551  -39.1485 H   0  0  0  0  0  0  0  0  0  0  0  0
  -13.7247   16.8999  -37.5082 H   0  0  0  0  0  0  0  0  0  0  0  0
  -14.4992   14.1075  -37.8105 H   0  0  0  0  0  0  0  0  0  0  0  0
  -13.3845   13.3376  -38.9704 H   0  0  0  0  0  0  0  0  0  0  0  0
  -10.1990   12.9050  -37.0638 H   0  0  0  0  0  0  0  0  0  0  0  0
   -8.6285   13.4409  -37.7346 H   0  0  0  0  0  0  0  0  0  0  0  0
  -10.3322   16.9732  -37.3052 H   0  0  0  0  0  0  0  0  0  0  0  0
  -11.5304   16.3599  -36.1195 H   0  0  0  0  0  0  0  0  0  0  0  0
  -13.9976   15.3447  -40.1890 H   0  0  0  0  0  0  0  0  0  0  0  0
  -10.9176   17.5644  -39.9086 H   0  0  0  0  0  0  0  0  0  0  0  0
  -12.2309   17.0164  -40.9825 H   0  0  0  0  0  0  0  0  0  0  0  0
  -10.2183   16.1291  -41.5113 H   0  0  0  0  0  0  0  0  0  0  0  0
  1  4  1  0  0  0  0
  1  8  1  0  0  0  0
  2  6  1  0  0  0  0
  2  7  1  0  0  0  0
  3  6  1  0  0  0  0
  3 12  1  0  0  0  0
  4 14  1  0  0  0  0
  5  8  1  0  0  0  0
  5 14  1  0  0  0  0
  6  7  1  0  0  0  0
  7  8  1  0  0  0  0
  7  9  1  0  0  0  0
  8 12  1  0  0  0  0
  9 13  1  0  0  0  0
 10 14  2  0  0  0  0
 11 14  2  0  0  0  0
  1 15  1  0  0  0  0
  1 16  1  0  0  0  0
  2 17  1  0  0  0  0
  2 18  1  0  0  0  0
  3 19  1  0  0  0  0
  3 20  1  0  0  0  0
  4 21  1  0  0  0  0
  4 22  1  0  0  0  0
  5 23  1  0  0  0  0
  5 24  1  0  0  0  0
  6 25  1  0  0  0  0
  9 26  1  0  0  0  0
  9 27  1  0  0  0  0
 13 28  1  0  0  0  0
M  END
> <id>
EN300-1619214

> <smiles>
OCC12CC2COC31CCS(=O)(=O)C3

> <IUPAC Name>
1-(hydroxymethyl)-3-oxaspiro[bicyclo[3.1.0]hexane-2,3'-[1$l,6]thiolane]-1',1'-dione

> <CAS>
2171946-79-3

> <URL>
https://www.enaminestore.com/catalog/EN300-1619214

> <ROCS_ShapeQuery>
__x1247relevant_x1083L0AP1_x1305L0BP1_

> <ROCS_TanimotoCombo>
0.722 

> <ROCS_ShapeTanimoto>
0.507 

> <ROCS_ColorTanimoto>
0.215 

> <ROCS_RefTversky>
0.420 

> <ROCS_RefColorTversky>
0.237 

> <ROCS_RefTverskyCombo>
0.656 

> <ROCS_FitTversky>
1.691 

> <ROCS_FitColorTversky>
0.702 

> <ROCS_FitTverskyCombo>
2.393 

> <ROCS_ColorScore>
-7.731

> <ROCS_Overlap>
1234.509

> <ROCS_Rank>
315                 

$$$$
untitled-dbase-169230_3
  -OEChem-06232314393D

 31 33  0     0  0  0  0  0  0999 V2000
  -11.6982   16.5904  -40.2244 C   0  0  0  0  0  0  0  0  0  0  0  0
  -10.7366   16.5620  -37.1391 C   0  0  0  0  0  0  0  0  0  0  0  0
  -10.1313   14.4532  -38.3744 C   0  0  0  0  0  0  0  0  0  0  0  0
  -13.0828   14.4532  -39.3723 C   0  0  0  0  0  0  0  0  0  0  0  0
  -13.5825   16.1934  -38.3523 C   0  0  0  0  0  0  0  0  0  0  0  0
   -9.7517   16.1208  -36.0602 C   0  0  0  0  0  0  0  0  0  0  0  0
   -9.1835   14.1409  -37.2199 C   0  0  0  0  0  0  0  0  0  0  0  0
  -12.2411   15.7589  -39.0710 C   0  0  0  0  0  0  0  0  0  0  0  0
  -11.2799   15.3565  -37.9134 C   0  0  0  0  0  0  0  0  0  0  0  0
  -13.4424   14.7035  -37.8584 C   0  0  0  0  0  0  0  0  0  0  0  0
  -14.5891   13.9917  -37.2068 C   0  0  0  0  0  0  0  0  0  0  0  0
  -10.5155   16.8231  -40.4261 O   0  0  0  0  0  0  0  0  0  0  0  0
   -8.6986   15.3420  -36.6236 O   0  0  0  0  0  0  0  0  0  0  0  0
  -12.2040   14.6111  -37.0939 O   0  0  0  0  0  0  0  0  0  0  0  0
  -12.7093   17.0453  -41.0041 O   0  0  0  0  0  0  0  0  0  0  0  0
  -11.5363   17.1333  -36.6577 H   0  0  0  0  0  0  0  0  0  0  0  0
  -10.2193   17.2352  -37.8332 H   0  0  0  0  0  0  0  0  0  0  0  0
   -9.5665   14.9607  -39.1655 H   0  0  0  0  0  0  0  0  0  0  0  0
  -10.4949   13.5053  -38.7826 H   0  0  0  0  0  0  0  0  0  0  0  0
  -13.8970   14.5445  -40.1013 H   0  0  0  0  0  0  0  0  0  0  0  0
  -12.5310   13.5350  -39.5858 H   0  0  0  0  0  0  0  0  0  0  0  0
  -13.5149   16.9610  -37.5780 H   0  0  0  0  0  0  0  0  0  0  0  0
  -14.4378   16.4277  -38.9974 H   0  0  0  0  0  0  0  0  0  0  0  0
   -9.3003   16.9998  -35.5891 H   0  0  0  0  0  0  0  0  0  0  0  0
  -10.2515   15.5458  -35.2717 H   0  0  0  0  0  0  0  0  0  0  0  0
   -9.6709   13.5231  -36.4563 H   0  0  0  0  0  0  0  0  0  0  0  0
   -8.3191   13.5812  -37.5915 H   0  0  0  0  0  0  0  0  0  0  0  0
  -14.6933   14.2865  -36.1534 H   0  0  0  0  0  0  0  0  0  0  0  0
  -14.4491   12.9023  -37.2359 H   0  0  0  0  0  0  0  0  0  0  0  0
  -15.5377   14.2198  -37.7124 H   0  0  0  0  0  0  0  0  0  0  0  0
  -12.3794   17.5860  -41.7533 H   0  0  0  0  0  0  0  0  0  0  0  0
  1  8  1  1  0  0  0
  1 12  2  0  0  0  0
  1 15  1  0  0  0  0
  2  6  1  0  0  0  0
  2  9  1  0  0  0  0
  3  7  1  0  0  0  0
  3  9  1  0  0  0  0
  4  8  1  0  0  0  0
  4 10  1  0  0  0  0
  5  8  1  0  0  0  0
  5 10  1  0  0  0  0
  6 13  1  0  0  0  0
  7 13  1  0  0  0  0
  8  9  1  0  0  0  0
  9 14  1  0  0  0  0
 10 11  1  1  0  0  0
 10 14  1  0  0  0  0
  2 16  1  0  0  0  0
  2 17  1  0  0  0  0
  3 18  1  0  0  0  0
  3 19  1  0  0  0  0
  4 20  1  0  0  0  0
  4 21  1  0  0  0  0
  5 22  1  0  0  0  0
  5 23  1  0  0  0  0
  6 24  1  0  0  0  0
  6 25  1  0  0  0  0
  7 26  1  0  0  0  0
  7 27  1  0  0  0  0
 11 28  1  0  0  0  0
 11 29  1  0  0  0  0
 11 30  1  0  0  0  0
 15 31  1  0  0  0  0
M  END
> <id>
EN300-37375213

> <smiles>
C[C@]1(C[C@]2(C1)C(=O)O)OC32CCOCC3

> <IUPAC Name>
4-methyl-3-oxaspiro[bicyclo[2.1.1]hexane-2,4'-oxane]-1-carboxylic acid

> <CAS>
2225146-57-4

> <URL>
https://www.enaminestore.com/catalog/EN300-37375213

> <ROCS_ShapeQuery>
__x1247relevant_x1083L0AP1_x1305L0BP1_

> <ROCS_TanimotoCombo>
0.722 

> <ROCS_ShapeTanimoto>
0.505 

> <ROCS_ColorTanimoto>
0.217 

> <ROCS_RefTversky>
0.426 

> <ROCS_RefColorTversky>
0.253 

> <ROCS_RefTverskyCombo>
0.680 

> <ROCS_FitTversky>
1.575 

> <ROCS_FitColorTversky>
0.601 

> <ROCS_FitTverskyCombo>
2.176 

> <ROCS_ColorScore>
-8.311

> <ROCS_Overlap>
1255.182

> <ROCS_Rank>
316                 

$$$$
untitled-dbase-162284_1
  -OEChem-06232314393D

 32 33  0     1  0  0  0  0  0999 V2000
  -10.2949   15.0460  -36.6606 C   0  0  0  0  0  0  0  0  0  0  0  0
  -12.4966   16.1495  -36.9116 C   0  0  0  0  0  0  0  0  0  0  0  0
  -11.1138   15.7293  -38.9310 C   0  0  0  0  0  0  0  0  0  0  0  0
  -13.7583   16.2289  -37.7774 C   0  0  0  0  0  0  0  0  0  0  0  0
  -12.3569   15.7530  -39.8271 C   0  0  0  0  0  0  0  0  0  0  0  0
  -12.2325   13.8163  -37.7253 C   0  0  2  0  0  0  0  0  0  0  0  0
  -11.4961   15.1658  -37.5524 C   0  0  0  0  0  0  0  0  0  0  0  0
  -13.5945   15.3285  -39.0141 C   0  0  0  0  0  0  0  0  0  0  0  0
  -11.3893   12.6977  -38.3329 C   0  0  0  0  0  0  0  0  0  0  0  0
  -14.8503   15.3489  -39.8790 C   0  0  0  0  0  0  0  0  0  0  0  0
   -7.9556   15.3749  -36.6044 C   0  0  0  0  0  0  0  0  0  0  0  0
  -10.3377   14.6530  -35.5026 O   0  0  0  0  0  0  0  0  0  0  0  0
  -13.3963   13.9752  -38.5620 O   0  0  0  0  0  0  0  0  0  0  0  0
   -9.1808   15.4388  -37.3412 O   0  0  0  0  0  0  0  0  0  0  0  0
  -12.0510   17.1469  -36.8054 H   0  0  0  0  0  0  0  0  0  0  0  0
  -12.7617   15.8298  -35.8953 H   0  0  0  0  0  0  0  0  0  0  0  0
  -10.3169   15.1405  -39.4007 H   0  0  0  0  0  0  0  0  0  0  0  0
  -10.7085   16.7450  -38.8333 H   0  0  0  0  0  0  0  0  0  0  0  0
  -14.6155   15.8971  -37.1784 H   0  0  0  0  0  0  0  0  0  0  0  0
  -13.9481   17.2683  -38.0698 H   0  0  0  0  0  0  0  0  0  0  0  0
  -12.4892   16.7527  -40.2572 H   0  0  0  0  0  0  0  0  0  0  0  0
  -12.2004   15.0577  -40.6613 H   0  0  0  0  0  0  0  0  0  0  0  0
  -12.5917   13.4650  -36.7496 H   0  0  0  0  0  0  0  0  0  0  0  0
  -11.0117   13.0067  -39.3064 H   0  0  0  0  0  0  0  0  0  0  0  0
  -11.9962   11.8018  -38.4541 H   0  0  0  0  0  0  0  0  0  0  0  0
  -10.5479   12.4726  -37.6793 H   0  0  0  0  0  0  0  0  0  0  0  0
  -14.7133   14.7059  -40.7479 H   0  0  0  0  0  0  0  0  0  0  0  0
  -15.0515   16.3648  -40.2176 H   0  0  0  0  0  0  0  0  0  0  0  0
  -15.7035   14.9910  -39.3036 H   0  0  0  0  0  0  0  0  0  0  0  0
   -7.1305   15.7092  -37.2381 H   0  0  0  0  0  0  0  0  0  0  0  0
   -7.7818   14.3481  -36.2731 H   0  0  0  0  0  0  0  0  0  0  0  0
   -8.0305   16.0292  -35.7326 H   0  0  0  0  0  0  0  0  0  0  0  0
  1  7  1  0  0  0  0
  1 12  2  0  0  0  0
  1 14  1  0  0  0  0
  2  4  1  0  0  0  0
  2  7  1  0  0  0  0
  3  5  1  0  0  0  0
  3  7  1  0  0  0  0
  4  8  1  0  0  0  0
  5  8  1  0  0  0  0
  6  7  1  0  0  0  0
  6  9  1  0  0  0  0
  6 13  1  0  0  0  0
  8 10  1  0  0  0  0
  8 13  1  0  0  0  0
 11 14  1  0  0  0  0
  2 15  1  0  0  0  0
  2 16  1  0  0  0  0
  3 17  1  0  0  0  0
  3 18  1  0  0  0  0
  4 19  1  0  0  0  0
  4 20  1  0  0  0  0
  5 21  1  0  0  0  0
  5 22  1  0  0  0  0
  6 23  1  0  0  0  0
  9 24  1  0  0  0  0
  9 25  1  0  0  0  0
  9 26  1  0  0  0  0
 10 27  1  0  0  0  0
 10 28  1  0  0  0  0
 10 29  1  0  0  0  0
 11 30  1  0  0  0  0
 11 31  1  0  0  0  0
 11 32  1  0  0  0  0
M  END
> <id>
EN300-39853037

> <smiles>
COC(=O)C1(CCC2(C)CC1)C(C)O2

> <IUPAC Name>
methyl 1,3-dimethyl-2-oxabicyclo[2.2.2]octane-4-carboxylate

> <Purity>
95

> <URL>
https://www.enaminestore.com/catalog/EN300-39853037

> <ROCS_ShapeQuery>
__x1247relevant_x1083L0AP1_x1305L0BP1_

> <ROCS_TanimotoCombo>
0.721 

> <ROCS_ShapeTanimoto>
0.504 

> <ROCS_ColorTanimoto>
0.218 

> <ROCS_RefTversky>
0.419 

> <ROCS_RefColorTversky>
0.230 

> <ROCS_RefTverskyCombo>
0.650 

> <ROCS_FitTversky>
1.662 

> <ROCS_FitColorTversky>
0.803 

> <ROCS_FitTverskyCombo>
2.465 

> <ROCS_ColorScore>
-7.492

> <ROCS_Overlap>
1234.181

> <ROCS_Rank>
317                 

$$$$
untitled-dbase-46485_4
  -OEChem-06232314393D

 31 33  0     1  0  0  0  0  0999 V2000
   -9.0852   13.8842  -37.3535 C   0  0  0  0  0  0  0  0  0  0  0  0
   -9.0126   15.3924  -37.1107 C   0  0  0  0  0  0  0  0  0  0  0  0
  -13.5308   16.4255  -38.9022 C   0  0  0  0  0  0  0  0  0  0  0  0
  -13.5159   16.1273  -37.4038 C   0  0  0  0  0  0  0  0  0  0  0  0
  -10.5700   13.5329  -37.4573 C   0  0  0  0  0  0  0  0  0  0  0  0
  -11.3205   15.2643  -39.1512 C   0  0  0  0  0  0  0  0  0  0  0  0
  -10.4455   15.8358  -36.7879 C   0  0  1  0  0  0  0  0  0  0  0  0
  -12.8169   15.2040  -39.4720 C   0  0  1  0  0  0  0  0  0  0  0  0
  -12.7976   14.7769  -37.3451 C   0  0  2  0  0  0  0  0  0  0  0  0
  -11.2944   14.8809  -37.6467 C   0  0  2  0  0  0  0  0  0  0  0  0
  -10.7124   15.7340  -35.2824 C   0  0  0  0  0  0  0  0  0  0  0  0
  -13.2737   14.1680  -38.5736 O   0  0  0  0  0  0  0  0  0  0  0  0
  -10.1153   14.5447  -34.8052 O   0  0  0  0  0  0  0  0  0  0  0  0
   -8.5522   13.6218  -38.2740 H   0  0  0  0  0  0  0  0  0  0  0  0
   -8.6170   13.3280  -36.5343 H   0  0  0  0  0  0  0  0  0  0  0  0
   -8.2965   15.6442  -36.3216 H   0  0  0  0  0  0  0  0  0  0  0  0
   -8.6685   15.8886  -38.0267 H   0  0  0  0  0  0  0  0  0  0  0  0
  -14.5669   16.4685  -39.2565 H   0  0  0  0  0  0  0  0  0  0  0  0
  -13.0396   17.3691  -39.1569 H   0  0  0  0  0  0  0  0  0  0  0  0
  -13.0353   16.9144  -36.8184 H   0  0  0  0  0  0  0  0  0  0  0  0
  -14.5470   16.0234  -37.0469 H   0  0  0  0  0  0  0  0  0  0  0  0
  -10.7584   12.8179  -38.2655 H   0  0  0  0  0  0  0  0  0  0  0  0
  -10.8925   13.0486  -36.5274 H   0  0  0  0  0  0  0  0  0  0  0  0
  -10.7809   14.5324  -39.7626 H   0  0  0  0  0  0  0  0  0  0  0  0
  -10.9021   16.2530  -39.3661 H   0  0  0  0  0  0  0  0  0  0  0  0
  -10.5878   16.8811  -37.0869 H   0  0  0  0  0  0  0  0  0  0  0  0
  -13.0500   14.9877  -40.5169 H   0  0  0  0  0  0  0  0  0  0  0  0
  -13.0562   14.1714  -36.4726 H   0  0  0  0  0  0  0  0  0  0  0  0
  -11.7848   15.7011  -35.1031 H   0  0  0  0  0  0  0  0  0  0  0  0
  -10.2752   16.5909  -34.7749 H   0  0  0  0  0  0  0  0  0  0  0  0
  -10.2942   14.4963  -33.8499 H   0  0  0  0  0  0  0  0  0  0  0  0
  1  2  1  0  0  0  0
  1  5  1  0  0  0  0
  2  7  1  0  0  0  0
  3  4  1  0  0  0  0
  3  8  1  0  0  0  0
  4  9  1  0  0  0  0
  5 10  1  0  0  0  0
  6  8  1  0  0  0  0
  6 10  1  0  0  0  0
  7 10  1  0  0  0  0
  7 11  1  0  0  0  0
  8 12  1  0  0  0  0
  9 10  1  0  0  0  0
  9 12  1  0  0  0  0
 11 13  1  0  0  0  0
  1 14  1  0  0  0  0
  1 15  1  0  0  0  0
  2 16  1  0  0  0  0
  2 17  1  0  0  0  0
  3 18  1  0  0  0  0
  3 19  1  0  0  0  0
  4 20  1  0  0  0  0
  4 21  1  0  0  0  0
  5 22  1  0  0  0  0
  5 23  1  0  0  0  0
  6 24  1  0  0  0  0
  6 25  1  0  0  0  0
  7 26  1  0  0  0  0
  8 27  1  0  0  0  0
  9 28  1  0  0  0  0
 11 29  1  0  0  0  0
 11 30  1  0  0  0  0
 13 31  1  0  0  0  0
M  END
> <id>
EN300-1461735

> <smiles>
OCC1CCCC21CC3CCC2O3

> <IUPAC Name>
{7-oxaspiro[bicyclo[2.2.1]heptane-2,1'-cyclopentane]-5'-yl}methanol

> <CAS>
2167916-28-9

> <URL>
https://www.enaminestore.com/catalog/EN300-1461735

> <ROCS_ShapeQuery>
__x1247relevant_x1083L0AP1_x1305L0BP1_

> <ROCS_TanimotoCombo>
0.721 

> <ROCS_ShapeTanimoto>
0.484 

> <ROCS_ColorTanimoto>
0.237 

> <ROCS_RefTversky>
0.404 

> <ROCS_RefColorTversky>
0.260 

> <ROCS_RefTverskyCombo>
0.664 

> <ROCS_FitTversky>
1.683 

> <ROCS_FitColorTversky>
0.736 

> <ROCS_FitTverskyCombo>
2.419 

> <ROCS_ColorScore>
-8.481

> <ROCS_Overlap>
1189.317

> <ROCS_Rank>
318                 

$$$$
untitled-dbase-141373_9
  -OEChem-06232314393D

 23 24  0     1  0  0  0  0  0999 V2000
  -13.3852   16.4279  -40.2787 C   0  0  0  0  0  0  0  0  0  0  0  0
  -12.8678   14.1191  -39.0162 C   0  0  0  0  0  0  0  0  0  0  0  0
  -13.9141   15.4746  -37.8280 C   0  0  0  0  0  0  0  0  0  0  0  0
  -11.5354   15.3361  -37.2936 C   0  0  1  0  0  0  0  0  0  0  0  0
  -12.9194   15.6949  -39.0315 C   0  0  0  0  0  0  0  0  0  0  0  0
  -12.7837   14.4351  -37.4741 C   0  0  0  0  0  0  0  0  0  0  0  0
  -13.0461   13.3813  -36.4385 C   0  0  0  0  0  0  0  0  0  0  0  0
  -10.2188   14.5876  -37.3247 C   0  0  0  0  0  0  0  0  0  0  0  0
  -12.7149   17.2283  -40.9139 O   0  0  0  0  0  0  0  0  0  0  0  0
  -11.6679   16.1710  -38.4589 O   0  0  0  0  0  0  0  0  0  0  0  0
  -14.6552   16.0754  -40.5950 O   0  0  0  0  0  0  0  0  0  0  0  0
  -10.1053   13.7871  -36.2486 F   0  0  0  0  0  0  0  0  0  0  0  0
  -10.1347   13.8260  -38.4312 F   0  0  0  0  0  0  0  0  0  0  0  0
   -9.1854   15.4499  -37.3232 F   0  0  0  0  0  0  0  0  0  0  0  0
  -13.7609   13.5882  -39.3655 H   0  0  0  0  0  0  0  0  0  0  0  0
  -11.9858   13.6633  -39.4732 H   0  0  0  0  0  0  0  0  0  0  0  0
  -14.0268   16.3159  -37.1373 H   0  0  0  0  0  0  0  0  0  0  0  0
  -14.9052   15.0724  -38.0673 H   0  0  0  0  0  0  0  0  0  0  0  0
  -11.6135   15.9597  -36.3958 H   0  0  0  0  0  0  0  0  0  0  0  0
  -12.9406   13.7883  -35.4241 H   0  0  0  0  0  0  0  0  0  0  0  0
  -12.3424   12.5443  -36.5384 H   0  0  0  0  0  0  0  0  0  0  0  0
  -14.0629   12.9776  -36.5335 H   0  0  0  0  0  0  0  0  0  0  0  0
  -15.0216   15.4202  -39.9635 H   0  0  0  0  0  0  0  0  0  0  0  0
  1  5  1  1  0  0  0
  1  9  2  0  0  0  0
  1 11  1  0  0  0  0
  2  5  1  0  0  0  0
  2  6  1  0  0  0  0
  3  5  1  0  0  0  0
  3  6  1  0  0  0  0
  4  6  1  0  0  0  0
  4  8  1  0  0  0  0
  4 10  1  0  0  0  0
  5 10  1  0  0  0  0
  6  7  1  1  0  0  0
  8 12  1  0  0  0  0
  8 13  1  0  0  0  0
  8 14  1  0  0  0  0
  2 15  1  0  0  0  0
  2 16  1  0  0  0  0
  3 17  1  0  0  0  0
  3 18  1  0  0  0  0
  4 19  1  0  0  0  0
  7 20  1  0  0  0  0
  7 21  1  0  0  0  0
  7 22  1  0  0  0  0
 11 23  1  0  0  0  0
M  END
> <id>
EN300-39870243

> <smiles>
C[C@]1(C[C@]2(C1)C(=O)O)C(O2)C(F)(F)F

> <IUPAC Name>
4-methyl-3-(trifluoromethyl)-2-oxabicyclo[2.1.1]hexane-1-carboxylic acid

> <URL>
https://www.enaminestore.com/catalog/EN300-39870243

> <ROCS_ShapeQuery>
__x1247relevant_x1083L0AP1_x1305L0BP1_

> <ROCS_TanimotoCombo>
0.721 

> <ROCS_ShapeTanimoto>
0.507 

> <ROCS_ColorTanimoto>
0.214 

> <ROCS_RefTversky>
0.423 

> <ROCS_RefColorTversky>
0.241 

> <ROCS_RefTverskyCombo>
0.664 

> <ROCS_FitTversky>
1.636 

> <ROCS_FitColorTversky>
0.660 

> <ROCS_FitTverskyCombo>
2.296 

> <ROCS_ColorScore>
-7.882

> <ROCS_Overlap>
1246.181

> <ROCS_Rank>
319                 

$$$$
untitled-dbase-97099_5
  -OEChem-06232314393D

 32 33  0     1  0  0  0  0  0999 V2000
  -12.3990   15.9375  -39.5885 C   0  0  0  0  0  0  0  0  0  0  0  0
  -10.3971   15.0784  -36.6321 C   0  0  0  0  0  0  0  0  0  0  0  0
  -11.2526   16.2927  -38.6748 C   0  0  0  0  0  0  0  0  0  0  0  0
  -13.9655   15.4543  -37.8202 C   0  0  0  0  0  0  0  0  0  0  0  0
  -12.8360   15.7702  -36.8135 C   0  0  0  0  0  0  0  0  0  0  0  0
  -13.2104   14.7907  -38.9972 C   0  0  2  0  0  0  0  0  0  0  0  0
  -11.5616   15.2777  -37.5470 C   0  0  2  0  0  0  0  0  0  0  0  0
  -12.0605   14.0028  -38.2995 C   0  0  0  0  0  0  0  0  0  0  0  0
  -14.0935   14.0278  -39.9579 C   0  0  0  0  0  0  0  0  0  0  0  0
  -12.5327   12.8621  -37.3731 C   0  0  0  0  0  0  0  0  0  0  0  0
  -11.0488   13.3746  -39.2842 C   0  0  0  0  0  0  0  0  0  0  0  0
  -12.6357   16.5658  -40.6881 N   0  0  0  0  0  0  0  0  0  0  0  0
  -10.3840   14.3310  -35.6654 O   0  0  0  0  0  0  0  0  0  0  0  0
   -9.3482   15.8452  -37.0182 O   0  0  0  0  0  0  0  0  0  0  0  0
  -13.7581   15.9935  -41.2911 O   0  0  0  0  0  0  0  0  0  0  0  0
  -10.2919   16.1191  -39.1667 H   0  0  0  0  0  0  0  0  0  0  0  0
  -11.3155   17.3348  -38.3498 H   0  0  0  0  0  0  0  0  0  0  0  0
  -14.7069   14.7840  -37.3725 H   0  0  0  0  0  0  0  0  0  0  0  0
  -14.4846   16.3708  -38.1243 H   0  0  0  0  0  0  0  0  0  0  0  0
  -12.7951   16.8407  -36.5821 H   0  0  0  0  0  0  0  0  0  0  0  0
  -12.9964   15.2469  -35.8642 H   0  0  0  0  0  0  0  0  0  0  0  0
  -14.6302   13.2297  -39.4362 H   0  0  0  0  0  0  0  0  0  0  0  0
  -13.4949   13.5761  -40.7547 H   0  0  0  0  0  0  0  0  0  0  0  0
  -14.8297   14.6950  -40.4164 H   0  0  0  0  0  0  0  0  0  0  0  0
  -11.6660   12.3786  -36.9387 H   0  0  0  0  0  0  0  0  0  0  0  0
  -13.1011   12.1470  -37.9556 H   0  0  0  0  0  0  0  0  0  0  0  0
  -13.1549   13.2782  -36.5899 H   0  0  0  0  0  0  0  0  0  0  0  0
  -10.2887   12.8496  -38.7194 H   0  0  0  0  0  0  0  0  0  0  0  0
  -10.5954   14.1628  -39.8721 H   0  0  0  0  0  0  0  0  0  0  0  0
  -11.5727   12.6832  -39.9323 H   0  0  0  0  0  0  0  0  0  0  0  0
   -8.5731   15.7298  -36.4281 H   0  0  0  0  0  0  0  0  0  0  0  0
  -13.8444   16.5330  -42.0953 H   0  0  0  0  0  0  0  0  0  0  0  0
  1  3  1  0  0  0  0
  1  6  1  0  0  0  0
  1 12  2  3  0  0  0
  2  7  1  0  0  0  0
  2 13  2  0  0  0  0
  2 14  1  0  0  0  0
  3  7  1  0  0  0  0
  4  5  1  0  0  0  0
  4  6  1  0  0  0  0
  5  7  1  0  0  0  0
  6  8  1  0  0  0  0
  6  9  1  0  0  0  0
  7  8  1  0  0  0  0
  8 10  1  0  0  0  0
  8 11  1  0  0  0  0
 12 15  1  0  0  0  0
  3 16  1  0  0  0  0
  3 17  1  0  0  0  0
  4 18  1  0  0  0  0
  4 19  1  0  0  0  0
  5 20  1  0  0  0  0
  5 21  1  0  0  0  0
  9 22  1  0  0  0  0
  9 23  1  0  0  0  0
  9 24  1  0  0  0  0
 10 25  1  0  0  0  0
 10 26  1  0  0  0  0
 10 27  1  0  0  0  0
 11 28  1  0  0  0  0
 11 29  1  0  0  0  0
 11 30  1  0  0  0  0
 14 31  1  0  0  0  0
 15 32  1  0  0  0  0
M  END
> <id>
EN300-236414

> <smiles>
CC1(C)C2(C)CCC1(CC2=NO)C(=O)O

> <IUPAC Name>
3-(hydroxyimino)-4,7,7-trimethylbicyclo[2.2.1]heptane-1-carboxylic acid

> <CAS>
100055-50-3

> <URL>
https://www.enaminestore.com/catalog/EN300-236414

> <ROCS_ShapeQuery>
__x1247relevant_x1083L0AP1_x1305L0BP1_

> <ROCS_TanimotoCombo>
0.721 

> <ROCS_ShapeTanimoto>
0.511 

> <ROCS_ColorTanimoto>
0.210 

> <ROCS_RefTversky>
0.429 

> <ROCS_RefColorTversky>
0.245 

> <ROCS_RefTverskyCombo>
0.674 

> <ROCS_FitTversky>
1.592 

> <ROCS_FitColorTversky>
0.598 

> <ROCS_FitTverskyCombo>
2.190 

> <ROCS_ColorScore>
-8.028

> <ROCS_Overlap>
1264.383

> <ROCS_Rank>
320                 

$$$$
untitled-dbase-179228_3
  -OEChem-06232314393D

 22 24  0     1  0  0  0  0  0999 V2000
  -13.3682   14.2113  -37.5624 C   0  0  0  0  0  0  0  0  0  0  0  0
  -13.4603   15.7209  -37.4911 C   0  0  1  0  0  0  0  0  0  0  0  0
  -12.3472   14.1775  -38.7461 C   0  0  2  0  0  0  0  0  0  0  0  0
  -12.1470   16.2954  -37.9172 C   0  0  2  0  0  0  0  0  0  0  0  0
  -13.2937   16.2518  -38.8752 C   0  0  1  0  0  0  0  0  0  0  0  0
  -11.2097   15.1542  -38.2750 C   0  0  1  0  0  0  0  0  0  0  0  0
  -13.0828   15.0757  -39.7828 C   0  0  0  0  0  0  0  0  0  0  0  0
  -10.3660   14.6716  -37.1102 C   0  0  0  0  0  0  0  0  0  0  0  0
  -10.0990   13.2753  -37.2412 N   0  0  0  0  0  0  0  0  0  0  0  0
  -12.3185   15.3766  -40.8489 F   0  0  0  0  0  0  0  0  0  0  0  0
  -14.2412   14.5386  -40.2086 F   0  0  0  0  0  0  0  0  0  0  0  0
  -12.9834   13.7686  -36.6411 H   0  0  0  0  0  0  0  0  0  0  0  0
  -14.3277   13.7543  -37.8235 H   0  0  0  0  0  0  0  0  0  0  0  0
  -14.0931   16.1862  -36.7615 H   0  0  0  0  0  0  0  0  0  0  0  0
  -12.0350   13.1928  -39.0935 H   0  0  0  0  0  0  0  0  0  0  0  0
  -11.7544   17.2178  -37.5363 H   0  0  0  0  0  0  0  0  0  0  0  0
  -13.7955   17.1291  -39.2310 H   0  0  0  0  0  0  0  0  0  0  0  0
  -10.5599   15.4326  -39.1133 H   0  0  0  0  0  0  0  0  0  0  0  0
   -9.4319   15.2365  -37.1193 H   0  0  0  0  0  0  0  0  0  0  0  0
  -10.9248   14.8641  -36.1923 H   0  0  0  0  0  0  0  0  0  0  0  0
  -10.4490   12.7821  -36.4407 H   0  0  0  0  0  0  0  0  0  0  0  0
  -10.5450   12.9167  -38.0652 H   0  0  0  0  0  0  0  0  0  0  0  0
  1  2  1  0  0  0  0
  1  3  1  1  0  0  0
  2  4  1  0  0  0  0
  2  5  1  0  0  0  0
  3  6  1  0  0  0  0
  3  7  1  0  0  0  0
  4  5  1  0  0  0  0
  4  6  1  0  0  0  0
  5  7  1  0  0  0  0
  6  8  1  1  0  0  0
  7 10  1  0  0  0  0
  7 11  1  0  0  0  0
  8  9  1  0  0  0  0
  1 12  1  0  0  0  0
  1 13  1  0  0  0  0
  2 14  1  0  0  0  0
  3 15  1  0  0  0  0
  4 16  1  0  0  0  0
  5 17  1  0  0  0  0
  6 18  1  0  0  0  0
  8 19  1  0  0  0  0
  8 20  1  0  0  0  0
  9 21  1  0  0  0  0
  9 22  1  0  0  0  0
M  END
> <id>
EN300-44825926

> <smiles>
NC[C@@H]1C2C3C[C@H]1C(F)(F)C32 |&1:2,6,r|

> <IUPAC Name>
rac-1-[(3R,4R)-5,5-difluorotricyclo[2.2.1.0,2,6]heptan-3-yl]methanamine

> <URL>
https://www.enaminestore.com/catalog/EN300-44825926

> <ROCS_ShapeQuery>
__x1247relevant_x1083L0AP1_x1305L0BP1_

> <ROCS_TanimotoCombo>
0.721 

> <ROCS_ShapeTanimoto>
0.441 

> <ROCS_ColorTanimoto>
0.280 

> <ROCS_RefTversky>
0.372 

> <ROCS_RefColorTversky>
0.416 

> <ROCS_RefTverskyCombo>
0.788 

> <ROCS_FitTversky>
1.715 

> <ROCS_FitColorTversky>
0.463 

> <ROCS_FitTverskyCombo>
2.178 

> <ROCS_ColorScore>
-13.991

> <ROCS_Overlap>
1093.389

> <ROCS_Rank>
321                 

$$$$
untitled-dbase-107605_2
  -OEChem-06232314393D

 42 44  0     1  0  0  0  0  0999 V2000
  -13.8310   15.8526  -39.5884 C   0  0  0  0  0  0  0  0  0  0  0  0
  -13.7238   15.1691  -37.1809 C   0  0  0  0  0  0  0  0  0  0  0  0
  -13.0313   14.5997  -39.9695 C   0  0  0  0  0  0  0  0  0  0  0  0
  -12.9403   13.9156  -37.5921 C   0  0  0  0  0  0  0  0  0  0  0  0
  -11.9530   16.6568  -38.1380 C   0  0  0  0  0  0  0  0  0  0  0  0
   -9.7886   13.6040  -37.3116 C   0  0  0  0  0  0  0  0  0  0  0  0
  -10.6559   15.3764  -36.0191 C   0  0  0  0  0  0  0  0  0  0  0  0
  -13.4562   16.3155  -38.1707 C   0  0  0  0  0  0  0  0  0  0  0  0
  -12.0633   14.2215  -38.8246 C   0  0  0  0  0  0  0  0  0  0  0  0
  -11.1035   15.4151  -38.5219 C   0  0  2  0  0  0  0  0  0  0  0  0
  -10.1236   15.0807  -37.4089 C   0  0  2  0  0  0  0  0  0  0  0  0
   -9.3577   13.4312  -35.8481 C   0  0  0  0  0  0  0  0  0  0  0  0
   -9.9196   12.1440  -35.2455 C   0  0  0  0  0  0  0  0  0  0  0  0
   -7.8375   13.4633  -35.6794 C   0  0  0  0  0  0  0  0  0  0  0  0
  -10.2718   15.7343  -39.6926 N   0  0  0  0  0  0  0  0  0  0  0  0
   -9.9048   14.5474  -35.1180 O   0  0  0  0  0  0  0  0  0  0  0  0
   -8.9211   15.8163  -37.6251 O   0  0  0  0  0  0  0  0  0  0  0  0
  -13.6321   16.6528  -40.3115 H   0  0  0  0  0  0  0  0  0  0  0  0
  -14.9049   15.6382  -39.6455 H   0  0  0  0  0  0  0  0  0  0  0  0
  -14.7957   14.9405  -37.1468 H   0  0  0  0  0  0  0  0  0  0  0  0
  -13.4348   15.4714  -36.1672 H   0  0  0  0  0  0  0  0  0  0  0  0
  -13.7234   13.7696  -40.1601 H   0  0  0  0  0  0  0  0  0  0  0  0
  -12.4975   14.7610  -40.9123 H   0  0  0  0  0  0  0  0  0  0  0  0
  -12.3381   13.5517  -36.7531 H   0  0  0  0  0  0  0  0  0  0  0  0
  -13.6431   13.1062  -37.8267 H   0  0  0  0  0  0  0  0  0  0  0  0
  -11.7654   17.4965  -38.8207 H   0  0  0  0  0  0  0  0  0  0  0  0
  -11.6833   17.0239  -37.1394 H   0  0  0  0  0  0  0  0  0  0  0  0
  -10.6807   12.9971  -37.5193 H   0  0  0  0  0  0  0  0  0  0  0  0
   -9.0066   13.2920  -38.0146 H   0  0  0  0  0  0  0  0  0  0  0  0
  -10.5243   16.4216  -35.7191 H   0  0  0  0  0  0  0  0  0  0  0  0
  -11.7130   15.1050  -35.9091 H   0  0  0  0  0  0  0  0  0  0  0  0
  -14.0450   17.1968  -37.8939 H   0  0  0  0  0  0  0  0  0  0  0  0
  -11.4966   13.3249  -39.1037 H   0  0  0  0  0  0  0  0  0  0  0  0
   -9.5970   12.0508  -34.2102 H   0  0  0  0  0  0  0  0  0  0  0  0
   -9.5604   11.2858  -35.8104 H   0  0  0  0  0  0  0  0  0  0  0  0
  -11.0073   12.1654  -35.2806 H   0  0  0  0  0  0  0  0  0  0  0  0
   -7.5825   13.3373  -34.6293 H   0  0  0  0  0  0  0  0  0  0  0  0
   -7.4498   14.4171  -36.0306 H   0  0  0  0  0  0  0  0  0  0  0  0
   -7.3875   12.6585  -36.2568 H   0  0  0  0  0  0  0  0  0  0  0  0
  -10.8790   15.9798  -40.4339 H   0  0  0  0  0  0  0  0  0  0  0  0
   -9.6841   16.4905  -39.4450 H   0  0  0  0  0  0  0  0  0  0  0  0
   -8.5382   15.4909  -38.4561 H   0  0  0  0  0  0  0  0  0  0  0  0
  1  3  1  0  0  0  0
  1  8  1  0  0  0  0
  2  4  1  0  0  0  0
  2  8  1  0  0  0  0
  3  9  1  0  0  0  0
  4  9  1  0  0  0  0
  5  8  1  0  0  0  0
  5 10  1  0  0  0  0
  6 11  1  0  0  0  0
  6 12  1  0  0  0  0
  7 11  1  0  0  0  0
  7 16  1  0  0  0  0
  9 10  1  0  0  0  0
 10 11  1  0  0  0  0
 10 15  1  0  0  0  0
 11 17  1  0  0  0  0
 12 13  1  0  0  0  0
 12 14  1  0  0  0  0
 12 16  1  0  0  0  0
  1 18  1  0  0  0  0
  1 19  1  0  0  0  0
  2 20  1  0  0  0  0
  2 21  1  0  0  0  0
  3 22  1  0  0  0  0
  3 23  1  0  0  0  0
  4 24  1  0  0  0  0
  4 25  1  0  0  0  0
  5 26  1  0  0  0  0
  5 27  1  0  0  0  0
  6 28  1  0  0  0  0
  6 29  1  0  0  0  0
  7 30  1  0  0  0  0
  7 31  1  0  0  0  0
  8 32  1  0  0  0  0
  9 33  1  0  0  0  0
 13 34  1  0  0  0  0
 13 35  1  0  0  0  0
 13 36  1  0  0  0  0
 14 37  1  0  0  0  0
 14 38  1  0  0  0  0
 14 39  1  0  0  0  0
 15 40  1  0  0  0  0
 15 41  1  0  0  0  0
 17 42  1  0  0  0  0
M  END
> <id>
EN300-1646301

> <smiles>
CC1(C)CC(O)(CO1)C2(N)CC3CCC2CC3

> <IUPAC Name>
3-{2-aminobicyclo[2.2.2]octan-2-yl}-5,5-dimethyloxolan-3-ol

> <CAS>
2171685-82-6

> <URL>
https://www.enaminestore.com/catalog/EN300-1646301

> <ROCS_ShapeQuery>
__x1247relevant_x1083L0AP1_x1305L0BP1_

> <ROCS_TanimotoCombo>
0.721 

> <ROCS_ShapeTanimoto>
0.512 

> <ROCS_ColorTanimoto>
0.209 

> <ROCS_RefTversky>
0.439 

> <ROCS_RefColorTversky>
0.247 

> <ROCS_RefTverskyCombo>
0.686 

> <ROCS_FitTversky>
1.477 

> <ROCS_FitColorTversky>
0.578 

> <ROCS_FitTverskyCombo>
2.056 

> <ROCS_ColorScore>
-8.109

> <ROCS_Overlap>
1295.202

> <ROCS_Rank>
322                 

$$$$
untitled-dbase-50491_2
  -OEChem-06232314393D

 29 31  0     1  0  0  0  0  0999 V2000
  -14.0993   15.7628  -39.1441 C   0  0  0  0  0  0  0  0  0  0  0  0
  -13.1089   14.9781  -40.0039 C   0  0  0  0  0  0  0  0  0  0  0  0
  -12.2549   16.5106  -37.6053 C   0  0  0  0  0  0  0  0  0  0  0  0
   -9.4179   13.9159  -38.0282 C   0  0  0  0  0  0  0  0  0  0  0  0
  -10.5739   14.3667  -36.3516 C   0  0  0  0  0  0  0  0  0  0  0  0
  -13.4926   15.6199  -37.7498 C   0  0  2  0  0  0  0  0  0  0  0  0
  -12.0467   14.5683  -38.9810 C   0  0  1  0  0  0  0  0  0  0  0  0
  -11.2063   15.7496  -38.4462 C   0  0  2  0  0  0  0  0  0  0  0  0
  -10.0959   15.2194  -37.5485 C   0  0  0  0  0  0  0  0  0  0  0  0
  -10.2974   13.1441  -37.1296 N   0  0  0  0  0  0  0  0  0  0  0  0
  -10.6089   16.5836  -39.4815 N   0  0  0  0  0  0  0  0  0  0  0  0
  -12.8977   14.3045  -37.8330 O   0  0  0  0  0  0  0  0  0  0  0  0
   -9.1943   16.2920  -37.2057 O   0  0  0  0  0  0  0  0  0  0  0  0
  -14.2090   16.8050  -39.4579 H   0  0  0  0  0  0  0  0  0  0  0  0
  -15.0836   15.2836  -39.1903 H   0  0  0  0  0  0  0  0  0  0  0  0
  -13.6089   14.0872  -40.4025 H   0  0  0  0  0  0  0  0  0  0  0  0
  -12.7210   15.5485  -40.8512 H   0  0  0  0  0  0  0  0  0  0  0  0
  -12.4530   17.5312  -37.9511 H   0  0  0  0  0  0  0  0  0  0  0  0
  -11.9504   16.5708  -36.5538 H   0  0  0  0  0  0  0  0  0  0  0  0
   -9.5254   13.6714  -39.0891 H   0  0  0  0  0  0  0  0  0  0  0  0
   -8.3566   13.8426  -37.7643 H   0  0  0  0  0  0  0  0  0  0  0  0
   -9.9473   14.4631  -35.4577 H   0  0  0  0  0  0  0  0  0  0  0  0
  -11.6193   14.4888  -36.0533 H   0  0  0  0  0  0  0  0  0  0  0  0
  -14.2102   15.7052  -36.9309 H   0  0  0  0  0  0  0  0  0  0  0  0
  -11.4731   13.6821  -39.2658 H   0  0  0  0  0  0  0  0  0  0  0  0
  -11.1244   12.7764  -37.6010 H   0  0  0  0  0  0  0  0  0  0  0  0
  -11.3313   16.8978  -40.0867 H   0  0  0  0  0  0  0  0  0  0  0  0
  -10.1616   17.3547  -39.0428 H   0  0  0  0  0  0  0  0  0  0  0  0
   -8.6947   16.4823  -38.0102 H   0  0  0  0  0  0  0  0  0  0  0  0
  1  2  1  0  0  0  0
  1  6  1  0  0  0  0
  2  7  1  0  0  0  0
  3  6  1  0  0  0  0
  3  8  1  0  0  0  0
  4  9  1  0  0  0  0
  4 10  1  0  0  0  0
  5  9  1  0  0  0  0
  5 10  1  0  0  0  0
  6 12  1  0  0  0  0
  7  8  1  0  0  0  0
  7 12  1  0  0  0  0
  8  9  1  0  0  0  0
  8 11  1  0  0  0  0
  9 13  1  0  0  0  0
  1 14  1  0  0  0  0
  1 15  1  0  0  0  0
  2 16  1  0  0  0  0
  2 17  1  0  0  0  0
  3 18  1  0  0  0  0
  3 19  1  0  0  0  0
  4 20  1  0  0  0  0
  4 21  1  0  0  0  0
  5 22  1  0  0  0  0
  5 23  1  0  0  0  0
  6 24  1  0  0  0  0
  7 25  1  0  0  0  0
 10 26  1  0  0  0  0
 11 27  1  0  0  0  0
 11 28  1  0  0  0  0
 13 29  1  0  0  0  0
M  END
> <id>
EN300-1647183

> <smiles>
NC1(CC2CCC1O2)C3(O)CNC3

> <IUPAC Name>
3-{2-amino-7-oxabicyclo[2.2.1]heptan-2-yl}azetidin-3-ol

> <CAS>
2171519-08-5

> <URL>
https://www.enaminestore.com/catalog/EN300-1647183

> <ROCS_ShapeQuery>
__x1247relevant_x1083L0AP1_x1305L0BP1_

> <ROCS_TanimotoCombo>
0.721 

> <ROCS_ShapeTanimoto>
0.484 

> <ROCS_ColorTanimoto>
0.236 

> <ROCS_RefTversky>
0.406 

> <ROCS_RefColorTversky>
0.280 

> <ROCS_RefTverskyCombo>
0.686 

> <ROCS_FitTversky>
1.659 

> <ROCS_FitColorTversky>
0.602 

> <ROCS_FitTverskyCombo>
2.261 

> <ROCS_ColorScore>
-9.213

> <ROCS_Overlap>
1194.595

> <ROCS_Rank>
323                 

$$$$
untitled-dbase-71486_129
  -OEChem-06232314393D

 37 38  0     1  0  0  0  0  0999 V2000
   -9.3538   14.6295  -36.4532 C   0  0  0  0  0  0  0  0  0  0  0  0
  -13.2276   15.2951  -37.3434 C   0  0  0  0  0  0  0  0  0  0  0  0
  -11.1434   15.9111  -38.3208 C   0  0  0  0  0  0  0  0  0  0  0  0
  -13.2880   14.2403  -39.4746 C   0  0  0  0  0  0  0  0  0  0  0  0
  -12.6384   16.2754  -38.3623 C   0  0  1  0  0  0  0  0  0  0  0  0
  -12.6745   14.0673  -38.0700 C   0  0  1  0  0  0  0  0  0  0  0  0
  -11.1611   14.3764  -38.1475 C   0  0  2  0  0  0  0  0  0  0  0  0
  -13.2350   15.7616  -39.6859 C   0  0  2  0  0  0  0  0  0  0  0  0
  -10.0408   15.8015  -34.2171 C   0  0  0  0  0  0  0  0  0  0  0  0
   -9.1411   13.8233  -32.9575 C   0  0  0  0  0  0  0  0  0  0  0  0
   -7.5555   15.4703  -33.9974 C   0  0  0  0  0  0  0  0  0  0  0  0
   -8.9108   14.7768  -34.1280 C   0  0  0  0  0  0  0  0  0  0  0  0
  -10.4525   13.9649  -36.9638 N   0  0  0  0  0  0  0  0  0  0  0  0
   -8.8454   15.6388  -36.9303 O   0  0  0  0  0  0  0  0  0  0  0  0
  -14.5510   16.2649  -39.8681 O   0  0  0  0  0  0  0  0  0  0  0  0
   -8.9091   13.9948  -35.3276 O   0  0  0  0  0  0  0  0  0  0  0  0
  -12.8238   15.4279  -36.3346 H   0  0  0  0  0  0  0  0  0  0  0  0
  -14.3216   15.3151  -37.3023 H   0  0  0  0  0  0  0  0  0  0  0  0
  -10.6149   16.2109  -39.2317 H   0  0  0  0  0  0  0  0  0  0  0  0
  -10.6565   16.4059  -37.4718 H   0  0  0  0  0  0  0  0  0  0  0  0
  -12.7082   13.7050  -40.2337 H   0  0  0  0  0  0  0  0  0  0  0  0
  -14.3173   13.8647  -39.4992 H   0  0  0  0  0  0  0  0  0  0  0  0
  -12.8504   17.3258  -38.1509 H   0  0  0  0  0  0  0  0  0  0  0  0
  -12.9123   13.1019  -37.6171 H   0  0  0  0  0  0  0  0  0  0  0  0
  -10.6845   13.8713  -38.9942 H   0  0  0  0  0  0  0  0  0  0  0  0
  -12.6355   16.0344  -40.5602 H   0  0  0  0  0  0  0  0  0  0  0  0
   -9.8792   16.4878  -35.0560 H   0  0  0  0  0  0  0  0  0  0  0  0
  -11.0146   15.3179  -34.3461 H   0  0  0  0  0  0  0  0  0  0  0  0
  -10.0790   16.4210  -33.3138 H   0  0  0  0  0  0  0  0  0  0  0  0
   -8.3327   13.0863  -32.8898 H   0  0  0  0  0  0  0  0  0  0  0  0
  -10.0674   13.2536  -33.0946 H   0  0  0  0  0  0  0  0  0  0  0  0
   -9.2018   14.3598  -32.0052 H   0  0  0  0  0  0  0  0  0  0  0  0
   -6.7448   14.7355  -33.9335 H   0  0  0  0  0  0  0  0  0  0  0  0
   -7.3569   16.1309  -34.8476 H   0  0  0  0  0  0  0  0  0  0  0  0
   -7.5085   16.0636  -33.0770 H   0  0  0  0  0  0  0  0  0  0  0  0
  -10.7802   13.1351  -36.4740 H   0  0  0  0  0  0  0  0  0  0  0  0
  -14.4694   17.2239  -39.9973 H   0  0  0  0  0  0  0  0  0  0  0  0
  1 13  1  0  0  0  0
  1 14  2  0  0  0  0
  1 16  1  0  0  0  0
  2  5  1  0  0  0  0
  2  6  1  0  0  0  0
  3  5  1  0  0  0  0
  3  7  1  0  0  0  0
  4  6  1  0  0  0  0
  4  8  1  0  0  0  0
  5  8  1  0  0  0  0
  6  7  1  0  0  0  0
  7 13  1  0  0  0  0
  8 15  1  0  0  0  0
  9 12  1  0  0  0  0
 10 12  1  0  0  0  0
 11 12  1  0  0  0  0
 12 16  1  0  0  0  0
  2 17  1  0  0  0  0
  2 18  1  0  0  0  0
  3 19  1  0  0  0  0
  3 20  1  0  0  0  0
  4 21  1  0  0  0  0
  4 22  1  0  0  0  0
  5 23  1  0  0  0  0
  6 24  1  0  0  0  0
  7 25  1  0  0  0  0
  8 26  1  0  0  0  0
  9 27  1  0  0  0  0
  9 28  1  0  0  0  0
  9 29  1  0  0  0  0
 10 30  1  0  0  0  0
 10 31  1  0  0  0  0
 10 32  1  0  0  0  0
 11 33  1  0  0  0  0
 11 34  1  0  0  0  0
 11 35  1  0  0  0  0
 13 36  1  0  0  0  0
 15 37  1  0  0  0  0
M  END
> <id>
EN300-6743679

> <smiles>
CC(C)(C)OC(=O)NC1CC2CC1CC2O

> <MDLNUMBER>
MFCD30347784

> <IUPAC Name>
tert-butyl N-{5-hydroxybicyclo[2.2.1]heptan-2-yl}carbamate

> <CAS>
1242273-72-8

> <Purity>
95

> <URL>
https://www.enaminestore.com/catalog/EN300-6743679

> <ROCS_ShapeQuery>
__x1247relevant_x1083L0AP1_x1305L0BP1_

> <ROCS_TanimotoCombo>
0.721 

> <ROCS_ShapeTanimoto>
0.463 

> <ROCS_ColorTanimoto>
0.258 

> <ROCS_RefTversky>
0.405 

> <ROCS_RefColorTversky>
0.283 

> <ROCS_RefTverskyCombo>
0.688 

> <ROCS_FitTversky>
1.452 

> <ROCS_FitColorTversky>
0.744 

> <ROCS_FitTverskyCombo>
2.196 

> <ROCS_ColorScore>
-9.255

> <ROCS_Overlap>
1192.359

> <ROCS_Rank>
324                 

$$$$
untitled-dbase-45605_4
  -OEChem-06232314393D

 44 47  0     1  0  0  0  0  0999 V2000
   -8.6905   13.5332  -34.8205 C   0  0  0  0  0  0  0  0  0  0  0  0
   -7.5014   14.2439  -35.3952 C   0  0  0  0  0  0  0  0  0  0  0  0
  -13.6159   15.8016  -37.1870 C   0  0  0  0  0  0  0  0  0  0  0  0
  -13.3134   13.7689  -38.5541 C   0  0  0  0  0  0  0  0  0  0  0  0
  -13.3277   16.6611  -38.4245 C   0  0  0  0  0  0  0  0  0  0  0  0
  -13.0787   14.6769  -39.7696 C   0  0  0  0  0  0  0  0  0  0  0  0
   -9.1091   13.7374  -37.3631 C   0  0  0  0  0  0  0  0  0  0  0  0
  -11.1477   15.6778  -38.7328 C   0  0  0  0  0  0  0  0  0  0  0  0
  -12.8130   14.4874  -37.2870 C   0  0  0  0  0  0  0  0  0  0  0  0
   -9.5843   15.7260  -35.8838 C   0  0  1  0  0  0  0  0  0  0  0  0
   -8.8580   14.4115  -36.0438 C   0  0  0  0  0  0  0  0  0  0  0  0
  -11.2919   14.8306  -37.4318 C   0  0  1  0  0  0  0  0  0  0  0  0
   -9.6813   18.1723  -36.4466 C   0  0  0  0  0  0  0  0  0  0  0  0
   -7.4616   17.0519  -36.0980 C   0  0  0  0  0  0  0  0  0  0  0  0
   -8.8906   16.8747  -36.6095 C   0  0  0  0  0  0  0  0  0  0  0  0
  -10.5480   13.5595  -37.5220 N   0  0  0  0  0  0  0  0  0  0  0  0
  -12.4522   15.9584  -39.3838 N   0  0  0  0  0  0  0  0  0  0  0  0
  -10.9634   15.6048  -36.2589 O   0  0  0  0  0  0  0  0  0  0  0  0
   -8.7399   12.4575  -34.9454 H   0  0  0  0  0  0  0  0  0  0  0  0
   -9.0709   13.8708  -33.8655 H   0  0  0  0  0  0  0  0  0  0  0  0
   -7.0707   15.0518  -34.8168 H   0  0  0  0  0  0  0  0  0  0  0  0
   -6.7545   13.6431  -35.9047 H   0  0  0  0  0  0  0  0  0  0  0  0
  -13.3564   16.3527  -36.2763 H   0  0  0  0  0  0  0  0  0  0  0  0
  -14.6881   15.5774  -37.1274 H   0  0  0  0  0  0  0  0  0  0  0  0
  -14.3830   13.5464  -38.4608 H   0  0  0  0  0  0  0  0  0  0  0  0
  -12.7981   12.8112  -38.6866 H   0  0  0  0  0  0  0  0  0  0  0  0
  -14.2707   16.9355  -38.9146 H   0  0  0  0  0  0  0  0  0  0  0  0
  -12.8644   17.6106  -38.1267 H   0  0  0  0  0  0  0  0  0  0  0  0
  -12.4480   14.1601  -40.5045 H   0  0  0  0  0  0  0  0  0  0  0  0
  -14.0287   14.8699  -40.2853 H   0  0  0  0  0  0  0  0  0  0  0  0
   -8.7389   14.3361  -38.1976 H   0  0  0  0  0  0  0  0  0  0  0  0
   -8.5893   12.7795  -37.4095 H   0  0  0  0  0  0  0  0  0  0  0  0
  -10.6421   16.6323  -38.5229 H   0  0  0  0  0  0  0  0  0  0  0  0
  -10.5092   15.1779  -39.4774 H   0  0  0  0  0  0  0  0  0  0  0  0
  -13.0229   13.8769  -36.3983 H   0  0  0  0  0  0  0  0  0  0  0  0
   -9.5303   15.9832  -34.7895 H   0  0  0  0  0  0  0  0  0  0  0  0
   -9.7584   18.4613  -35.3928 H   0  0  0  0  0  0  0  0  0  0  0  0
  -10.6962   18.0600  -36.8420 H   0  0  0  0  0  0  0  0  0  0  0  0
   -9.1999   18.9933  -36.9884 H   0  0  0  0  0  0  0  0  0  0  0  0
   -7.4487   17.2954  -35.0301 H   0  0  0  0  0  0  0  0  0  0  0  0
   -6.9516   17.8583  -36.6356 H   0  0  0  0  0  0  0  0  0  0  0  0
   -6.8816   16.1343  -36.2429 H   0  0  0  0  0  0  0  0  0  0  0  0
   -8.8445   16.6332  -37.6794 H   0  0  0  0  0  0  0  0  0  0  0  0
  -10.7266   13.1382  -38.4371 H   0  0  0  0  0  0  0  0  0  0  0  0
  1  2  1  0  0  0  0
  1 11  1  0  0  0  0
  2 11  1  0  0  0  0
  3  5  1  0  0  0  0
  3  9  1  0  0  0  0
  4  6  1  0  0  0  0
  4  9  1  0  0  0  0
  5 17  1  0  0  0  0
  6 17  1  0  0  0  0
  7 11  1  0  0  0  0
  7 16  1  0  0  0  0
  8 12  1  0  0  0  0
  8 17  1  0  0  0  0
  9 12  1  0  0  0  0
 10 11  1  0  0  0  0
 10 15  1  0  0  0  0
 10 18  1  0  0  0  0
 12 16  1  0  0  0  0
 12 18  1  0  0  0  0
 13 15  1  0  0  0  0
 14 15  1  0  0  0  0
  1 19  1  0  0  0  0
  1 20  1  0  0  0  0
  2 21  1  0  0  0  0
  2 22  1  0  0  0  0
  3 23  1  0  0  0  0
  3 24  1  0  0  0  0
  4 25  1  0  0  0  0
  4 26  1  0  0  0  0
  5 27  1  0  0  0  0
  5 28  1  0  0  0  0
  6 29  1  0  0  0  0
  6 30  1  0  0  0  0
  7 31  1  0  0  0  0
  7 32  1  0  0  0  0
  8 33  1  0  0  0  0
  8 34  1  0  0  0  0
  9 35  1  0  0  0  0
 10 36  1  0  0  0  0
 13 37  1  0  0  0  0
 13 38  1  0  0  0  0
 13 39  1  0  0  0  0
 14 40  1  0  0  0  0
 14 41  1  0  0  0  0
 14 42  1  0  0  0  0
 15 43  1  0  0  0  0
 16 44  1  0  0  0  0
M  END
> <id>
EN300-1280389

> <smiles>
CC(C)C1OC2(CN3CCC2CC3)NCC41CC4

> <IUPAC Name>
6'-(propan-2-yl)dispiro[4-azabicyclo[2.2.2]octane-2,2'-[1,3]oxazinane-5',1''-cyclopropane]

> <URL>
https://www.enaminestore.com/catalog/EN300-1280389

> <ROCS_ShapeQuery>
__x1247relevant_x1083L0AP1_x1305L0BP1_

> <ROCS_TanimotoCombo>
0.721 

> <ROCS_ShapeTanimoto>
0.484 

> <ROCS_ColorTanimoto>
0.236 

> <ROCS_RefTversky>
0.428 

> <ROCS_RefColorTversky>
0.268 

> <ROCS_RefTverskyCombo>
0.696 

> <ROCS_FitTversky>
1.370 

> <ROCS_FitColorTversky>
0.667 

> <ROCS_FitTverskyCombo>
2.038 

> <ROCS_ColorScore>
-8.783

> <ROCS_Overlap>
1263.798

> <ROCS_Rank>
325                 

$$$$
untitled-dbase-117561_5
  -OEChem-06232314393D

 25 27  0     1  0  0  0  0  0999 V2000
   -9.8405   15.2123  -36.3275 C   0  0  0  0  0  0  0  0  0  0  0  0
  -14.0090   14.4302  -37.5732 C   0  0  0  0  0  0  0  0  0  0  0  0
  -14.0233   15.9709  -37.5500 C   0  0  0  0  0  0  0  0  0  0  0  0
  -13.1913   14.5775  -39.9165 C   0  0  0  0  0  0  0  0  0  0  0  0
  -11.2252   15.2126  -36.8211 C   0  0  2  0  0  0  0  0  0  0  0  0
  -12.9010   13.9508  -38.5294 C   0  0  1  0  0  0  0  0  0  0  0  0
  -11.5351   14.4666  -38.1032 C   0  0  1  0  0  0  0  0  0  0  0  0
  -11.5395   15.9722  -38.0921 C   0  0  1  0  0  0  0  0  0  0  0  0
  -12.9090   16.5208  -38.4623 C   0  0  1  0  0  0  0  0  0  0  0  0
  -13.2041   16.0571  -39.8382 N   0  0  0  0  0  0  0  0  0  0  0  0
   -8.8899   15.7200  -36.9038 O   0  0  0  0  0  0  0  0  0  0  0  0
   -9.7561   14.5662  -35.1390 O   0  0  0  0  0  0  0  0  0  0  0  0
  -13.8515   14.0355  -36.5631 H   0  0  0  0  0  0  0  0  0  0  0  0
  -14.9853   14.0570  -37.9054 H   0  0  0  0  0  0  0  0  0  0  0  0
  -15.0036   16.3371  -37.8802 H   0  0  0  0  0  0  0  0  0  0  0  0
  -13.8919   16.3301  -36.5226 H   0  0  0  0  0  0  0  0  0  0  0  0
  -12.4256   14.2650  -40.6368 H   0  0  0  0  0  0  0  0  0  0  0  0
  -14.1593   14.2348  -40.2983 H   0  0  0  0  0  0  0  0  0  0  0  0
  -11.9565   15.2039  -36.0252 H   0  0  0  0  0  0  0  0  0  0  0  0
  -12.8912   12.8578  -38.5899 H   0  0  0  0  0  0  0  0  0  0  0  0
  -10.7249   13.9727  -38.6271 H   0  0  0  0  0  0  0  0  0  0  0  0
  -10.7324   16.4827  -38.6050 H   0  0  0  0  0  0  0  0  0  0  0  0
  -12.9014   17.6149  -38.4312 H   0  0  0  0  0  0  0  0  0  0  0  0
  -12.5124   16.4369  -40.4841 H   0  0  0  0  0  0  0  0  0  0  0  0
  -10.6284   14.2296  -34.8421 H   0  0  0  0  0  0  0  0  0  0  0  0
  1  5  1  0  0  0  0
  1 11  2  0  0  0  0
  1 12  1  0  0  0  0
  2  3  1  0  0  0  0
  2  6  1  0  0  0  0
  3  9  1  0  0  0  0
  4  6  1  0  0  0  0
  4 10  1  0  0  0  0
  5  7  1  0  0  0  0
  5  8  1  0  0  0  0
  6  7  1  0  0  0  0
  7  8  1  0  0  0  0
  8  9  1  0  0  0  0
  9 10  1  0  0  0  0
  2 13  1  0  0  0  0
  2 14  1  0  0  0  0
  3 15  1  0  0  0  0
  3 16  1  0  0  0  0
  4 17  1  0  0  0  0
  4 18  1  0  0  0  0
  5 19  1  0  0  0  0
  6 20  1  0  0  0  0
  7 21  1  0  0  0  0
  8 22  1  0  0  0  0
  9 23  1  0  0  0  0
 10 24  1  0  0  0  0
 12 25  1  0  0  0  0
M  END
> <id>
EN300-39671531

> <smiles>
OC(=O)C1C2C1C3CCC2CN3

> <IUPAC Name>
6-azatricyclo[3.2.2.0,2,4]nonane-3-carboxylic acid

> <URL>
https://www.enaminestore.com/catalog/EN300-39671531

> <ROCS_ShapeQuery>
__x1247relevant_x1083L0AP1_x1305L0BP1_

> <ROCS_TanimotoCombo>
0.721 

> <ROCS_ShapeTanimoto>
0.456 

> <ROCS_ColorTanimoto>
0.265 

> <ROCS_RefTversky>
0.384 

> <ROCS_RefColorTversky>
0.347 

> <ROCS_RefTverskyCombo>
0.731 

> <ROCS_FitTversky>
1.697 

> <ROCS_FitColorTversky>
0.527 

> <ROCS_FitTverskyCombo>
2.224 

> <ROCS_ColorScore>
-11.538

> <ROCS_Overlap>
1128.218

> <ROCS_Rank>
326                 

$$$$
untitled-dbase-148796_150
  -OEChem-06232314393D

 40 42  0     1  0  0  0  0  0999 V2000
  -10.7235   16.4051  -35.3963 C   0  0  0  0  0  0  0  0  0  0  0  0
  -11.9891   16.5463  -35.9718 C   0  0  0  0  0  0  0  0  0  0  0  0
   -9.7887   15.4859  -35.9143 C   0  0  0  0  0  0  0  0  0  0  0  0
  -12.2822   15.7474  -37.0539 C   0  0  0  0  0  0  0  0  0  0  0  0
  -11.3527   14.8341  -37.5701 C   0  0  0  0  0  0  0  0  0  0  0  0
  -10.0993   14.6883  -37.0190 C   0  0  0  0  0  0  0  0  0  0  0  0
   -8.1571   13.1017  -36.8722 C   0  0  0  0  0  0  0  0  0  0  0  0
  -13.4848   15.6401  -37.9340 C   0  0  1  0  0  0  0  0  0  0  0  0
  -12.0201   14.1864  -38.7437 C   0  0  2  0  0  0  0  0  0  0  0  0
  -13.1508   16.2294  -39.3142 C   0  0  1  0  0  0  0  0  0  0  0  0
  -12.1958   15.1648  -39.9122 C   0  0  1  0  0  0  0  0  0  0  0  0
   -6.2806   12.0724  -34.9753 C   0  0  0  0  0  0  0  0  0  0  0  0
   -7.8235   12.9995  -33.2233 C   0  0  0  0  0  0  0  0  0  0  0  0
   -8.6342   11.2025  -34.7794 C   0  0  0  0  0  0  0  0  0  0  0  0
   -7.7281   12.4242  -34.6348 C   0  0  0  0  0  0  0  0  0  0  0  0
   -9.1712   13.7895  -37.5380 N   0  0  0  0  0  0  0  0  0  0  0  0
   -7.3553   12.3148  -37.3604 O   0  0  0  0  0  0  0  0  0  0  0  0
  -13.3899   14.2061  -38.2319 O   0  0  0  0  0  0  0  0  0  0  0  0
  -14.3445   16.3004  -40.0829 O   0  0  0  0  0  0  0  0  0  0  0  0
  -10.9594   15.7107  -40.3259 O   0  0  0  0  0  0  0  0  0  0  0  0
   -8.1774   13.4355  -35.5442 O   0  0  0  0  0  0  0  0  0  0  0  0
  -10.4520   17.0156  -34.5390 H   0  0  0  0  0  0  0  0  0  0  0  0
  -12.7049   17.2589  -35.5798 H   0  0  0  0  0  0  0  0  0  0  0  0
   -8.8120   15.4092  -35.4405 H   0  0  0  0  0  0  0  0  0  0  0  0
  -14.4519   15.8802  -37.4892 H   0  0  0  0  0  0  0  0  0  0  0  0
  -11.6915   13.1742  -38.9860 H   0  0  0  0  0  0  0  0  0  0  0  0
  -12.7159   17.2331  -39.2564 H   0  0  0  0  0  0  0  0  0  0  0  0
  -12.6618   14.6581  -40.7657 H   0  0  0  0  0  0  0  0  0  0  0  0
   -6.2079   11.6591  -35.9876 H   0  0  0  0  0  0  0  0  0  0  0  0
   -5.6265   12.9479  -34.9092 H   0  0  0  0  0  0  0  0  0  0  0  0
   -5.8960   11.3011  -34.2982 H   0  0  0  0  0  0  0  0  0  0  0  0
   -8.8603   13.2534  -32.9748 H   0  0  0  0  0  0  0  0  0  0  0  0
   -7.2498   13.9298  -33.1414 H   0  0  0  0  0  0  0  0  0  0  0  0
   -7.4499   12.2946  -32.4736 H   0  0  0  0  0  0  0  0  0  0  0  0
   -9.6725   11.4546  -34.5352 H   0  0  0  0  0  0  0  0  0  0  0  0
   -8.6068   10.7982  -35.7965 H   0  0  0  0  0  0  0  0  0  0  0  0
   -8.3359   10.4113  -34.0821 H   0  0  0  0  0  0  0  0  0  0  0  0
   -9.2430   13.6090  -38.5461 H   0  0  0  0  0  0  0  0  0  0  0  0
  -14.6808   15.3931  -40.1620 H   0  0  0  0  0  0  0  0  0  0  0  0
  -11.1449   16.3172  -41.0640 H   0  0  0  0  0  0  0  0  0  0  0  0
  1  2  2  0  0  0  0
  1  3  1  0  0  0  0
  2  4  1  0  0  0  0
  3  6  2  0  0  0  0
  4  5  2  0  0  0  0
  4  8  1  0  0  0  0
  5  6  1  0  0  0  0
  5  9  1  0  0  0  0
  6 16  1  0  0  0  0
  7 16  1  0  0  0  0
  7 17  2  0  0  0  0
  7 21  1  0  0  0  0
  8 10  1  0  0  0  0
  8 18  1  0  0  0  0
  9 11  1  0  0  0  0
  9 18  1  0  0  0  0
 10 11  1  0  0  0  0
 10 19  1  0  0  0  0
 11 20  1  0  0  0  0
 12 15  1  0  0  0  0
 13 15  1  0  0  0  0
 14 15  1  0  0  0  0
 15 21  1  0  0  0  0
  1 22  1  0  0  0  0
  2 23  1  0  0  0  0
  3 24  1  0  0  0  0
  8 25  1  0  0  0  0
  9 26  1  0  0  0  0
 10 27  1  0  0  0  0
 11 28  1  0  0  0  0
 12 29  1  0  0  0  0
 12 30  1  0  0  0  0
 12 31  1  0  0  0  0
 13 32  1  0  0  0  0
 13 33  1  0  0  0  0
 13 34  1  0  0  0  0
 14 35  1  0  0  0  0
 14 36  1  0  0  0  0
 14 37  1  0  0  0  0
 16 38  1  0  0  0  0
 19 39  1  0  0  0  0
 20 40  1  0  0  0  0
M  END
> <id>
EN300-28229313

> <smiles>
CC(C)(C)OC(=O)NC=1C=CC=C2C3OC(C(O)C3O)C21

> <IUPAC Name>
tert-butyl N-{9,10-dihydroxy-11-oxatricyclo[6.2.1.0,2,7]undeca-2(7),3,5-trien-3-yl}carbamate

> <CAS>
2639457-09-1

> <URL>
https://www.enaminestore.com/catalog/EN300-28229313

> <ROCS_ShapeQuery>
__x1247relevant_x1083L0AP1_x1305L0BP1_

> <ROCS_TanimotoCombo>
0.721 

> <ROCS_ShapeTanimoto>
0.474 

> <ROCS_ColorTanimoto>
0.246 

> <ROCS_RefTversky>
0.438 

> <ROCS_RefColorTversky>
0.296 

> <ROCS_RefTverskyCombo>
0.734 

> <ROCS_FitTversky>
1.209 

> <ROCS_FitColorTversky>
0.596 

> <ROCS_FitTverskyCombo>
1.805 

> <ROCS_ColorScore>
-9.737

> <ROCS_Overlap>
1297.316

> <ROCS_Rank>
327                 

$$$$
untitled-dbase-76680_3
  -OEChem-06232314393D

 26 28  0     1  0  0  0  0  0999 V2000
  -11.5035   15.8287  -38.4731 C   0  0  0  0  0  0  0  0  0  0  0  0
  -13.0615   14.2381  -37.5672 C   0  0  0  0  0  0  0  0  0  0  0  0
  -11.8026   14.8336  -37.5410 C   0  0  0  0  0  0  0  0  0  0  0  0
  -12.5087   16.1638  -39.3856 C   0  0  0  0  0  0  0  0  0  0  0  0
  -13.7159   15.4917  -39.3003 C   0  0  0  0  0  0  0  0  0  0  0  0
   -8.9511   13.5265  -37.8812 C   0  0  0  0  0  0  0  0  0  0  0  0
   -8.0281   14.5898  -37.3060 C   0  0  0  0  0  0  0  0  0  0  0  0
   -9.7907   15.5007  -36.0331 C   0  0  0  0  0  0  0  0  0  0  0  0
  -10.7644   14.4063  -36.5092 C   0  0  2  0  0  0  0  0  0  0  0  0
  -14.0650   14.5303  -38.4316 N   0  0  0  0  0  0  0  0  0  0  0  0
  -12.5692   17.0672  -40.4112 N   0  0  0  0  0  0  0  0  0  0  0  0
  -13.7760   16.9788  -40.9663 N   0  0  0  0  0  0  0  0  0  0  0  0
  -14.4636   16.0333  -40.3002 N   0  0  0  0  0  0  0  0  0  0  0  0
  -10.0096   13.2126  -36.9254 N   0  0  0  0  0  0  0  0  0  0  0  0
   -8.7678   15.7684  -36.9949 O   0  0  0  0  0  0  0  0  0  0  0  0
  -10.5371   16.3206  -38.4906 H   0  0  0  0  0  0  0  0  0  0  0  0
  -13.3128   13.4613  -36.8487 H   0  0  0  0  0  0  0  0  0  0  0  0
   -9.3938   13.8771  -38.8176 H   0  0  0  0  0  0  0  0  0  0  0  0
   -8.3865   12.6148  -38.1031 H   0  0  0  0  0  0  0  0  0  0  0  0
   -7.5744   14.2268  -36.3778 H   0  0  0  0  0  0  0  0  0  0  0  0
   -7.2129   14.8389  -37.9969 H   0  0  0  0  0  0  0  0  0  0  0  0
  -10.3163   16.4433  -35.7914 H   0  0  0  0  0  0  0  0  0  0  0  0
   -9.2906   15.1838  -35.1023 H   0  0  0  0  0  0  0  0  0  0  0  0
  -11.3725   14.0731  -35.5968 H   0  0  0  0  0  0  0  0  0  0  0  0
  -15.4135   15.8211  -40.5805 H   0  0  0  0  0  0  0  0  0  0  0  0
  -10.6593   12.5491  -37.3689 H   0  0  0  0  0  0  0  0  0  0  0  0
  1  3  1  0  0  0  0
  1  4  2  0  0  0  0
  2  3  2  0  0  0  0
  2 10  1  0  0  0  0
  3  9  1  0  0  0  0
  4  5  1  0  0  0  0
  4 11  1  0  0  0  0
  5 10  2  0  0  0  0
  5 13  1  0  0  0  0
  6  7  1  0  0  0  0
  6 14  1  0  0  0  0
  7 15  1  0  0  0  0
  8  9  1  0  0  0  0
  8 15  1  0  0  0  0
  9 14  1  0  0  0  0
 11 12  2  0  0  0  0
 12 13  1  0  0  0  0
  1 16  1  0  0  0  0
  2 17  1  0  0  0  0
  6 18  1  0  0  0  0
  6 19  1  0  0  0  0
  7 20  1  0  0  0  0
  7 21  1  0  0  0  0
  8 22  1  0  0  0  0
  8 23  1  0  0  0  0
  9 24  1  0  0  0  0
 13 25  1  0  0  0  0
 14 26  1  0  0  0  0
M  END
> <id>
EN300-1729129

> <smiles>
C1COCC(N1)C=2C=NC=3NN=NC3C2

> <IUPAC Name>
3-{3H-[1,2,3]triazolo[4,5-b]pyridin-6-yl}morpholine

> <CAS>
2228399-02-6

> <URL>
https://www.enaminestore.com/catalog/EN300-1729129

> <ROCS_ShapeQuery>
__x1247relevant_x1083L0AP1_x1305L0BP1_

> <ROCS_TanimotoCombo>
0.721 

> <ROCS_ShapeTanimoto>
0.516 

> <ROCS_ColorTanimoto>
0.205 

> <ROCS_RefTversky>
0.434 

> <ROCS_RefColorTversky>
0.230 

> <ROCS_RefTverskyCombo>
0.665 

> <ROCS_FitTversky>
1.568 

> <ROCS_FitColorTversky>
0.651 

> <ROCS_FitTverskyCombo>
2.220 

> <ROCS_ColorScore>
-7.517

> <ROCS_Overlap>
1280.049

> <ROCS_Rank>
328                 

$$$$
untitled-dbase-73839_8
  -OEChem-06232314393D

 29 32  0     1  0  0  0  0  0999 V2000
   -9.9872   15.2143  -36.5987 C   0  0  0  0  0  0  0  0  0  0  0  0
  -13.4158   13.7664  -38.7995 C   0  0  0  0  0  0  0  0  0  0  0  0
  -14.0641   15.9885  -37.8130 C   0  0  0  0  0  0  0  0  0  0  0  0
  -12.3745   14.5394  -36.6472 C   0  0  0  0  0  0  0  0  0  0  0  0
  -10.9968   14.4480  -38.7506 C   0  0  0  0  0  0  0  0  0  0  0  0
  -11.6462   16.6740  -37.7625 C   0  0  0  0  0  0  0  0  0  0  0  0
  -13.6655   14.5343  -37.4843 C   0  0  0  0  0  0  0  0  0  0  0  0
  -12.2841   14.4424  -39.5971 C   0  0  2  0  0  0  0  0  0  0  0  0
  -12.9361   16.6773  -38.6051 C   0  0  1  0  0  0  0  0  0  0  0  0
  -11.2363   15.2199  -37.4323 C   0  0  0  0  0  0  0  0  0  0  0  0
  -12.6818   15.8732  -39.8539 C   0  0  0  0  0  0  0  0  0  0  0  0
  -12.1977   16.5445  -41.0482 N   0  0  0  0  0  0  0  0  0  0  0  0
  -13.3951   16.2071  -41.0750 N   0  0  0  0  0  0  0  0  0  0  0  0
   -8.9115   15.6810  -36.9431 O   0  0  0  0  0  0  0  0  0  0  0  0
  -10.2118   14.6153  -35.4037 O   0  0  0  0  0  0  0  0  0  0  0  0
  -13.1520   12.7244  -38.5819 H   0  0  0  0  0  0  0  0  0  0  0  0
  -14.3364   13.7496  -39.3960 H   0  0  0  0  0  0  0  0  0  0  0  0
  -14.9906   15.9920  -38.4006 H   0  0  0  0  0  0  0  0  0  0  0  0
  -14.2656   16.5414  -36.8875 H   0  0  0  0  0  0  0  0  0  0  0  0
  -12.5479   15.0612  -35.6968 H   0  0  0  0  0  0  0  0  0  0  0  0
  -12.0956   13.5102  -36.3855 H   0  0  0  0  0  0  0  0  0  0  0  0
  -10.6825   13.4172  -38.5416 H   0  0  0  0  0  0  0  0  0  0  0  0
  -10.1787   14.9152  -39.3149 H   0  0  0  0  0  0  0  0  0  0  0  0
  -10.8383   17.1754  -38.3117 H   0  0  0  0  0  0  0  0  0  0  0  0
  -11.8005   17.2495  -36.8406 H   0  0  0  0  0  0  0  0  0  0  0  0
  -14.4707   14.0493  -36.9212 H   0  0  0  0  0  0  0  0  0  0  0  0
  -12.1122   13.8990  -40.5333 H   0  0  0  0  0  0  0  0  0  0  0  0
  -13.2235   17.7081  -38.8425 H   0  0  0  0  0  0  0  0  0  0  0  0
   -9.4060   14.5999  -34.8444 H   0  0  0  0  0  0  0  0  0  0  0  0
  1 10  1  0  0  0  0
  1 14  2  0  0  0  0
  1 15  1  0  0  0  0
  2  7  1  0  0  0  0
  2  8  1  0  0  0  0
  3  7  1  0  0  0  0
  3  9  1  0  0  0  0
  4  7  1  0  0  0  0
  4 10  1  0  0  0  0
  5  8  1  0  0  0  0
  5 10  1  0  0  0  0
  6  9  1  0  0  0  0
  6 10  1  0  0  0  0
  8 11  1  0  0  0  0
  9 11  1  0  0  0  0
 11 12  1  0  0  0  0
 11 13  1  0  0  0  0
 12 13  2  0  0  0  0
  2 16  1  0  0  0  0
  2 17  1  0  0  0  0
  3 18  1  0  0  0  0
  3 19  1  0  0  0  0
  4 20  1  0  0  0  0
  4 21  1  0  0  0  0
  5 22  1  0  0  0  0
  5 23  1  0  0  0  0
  6 24  1  0  0  0  0
  6 25  1  0  0  0  0
  7 26  1  0  0  0  0
  8 27  1  0  0  0  0
  9 28  1  0  0  0  0
 15 29  1  0  0  0  0
M  END
> <id>
EN300-9425165

> <smiles>
OC(=O)C1(CC2CC3C1)CC(C2)C43N=N4

> <IUPAC Name>
spiro[adamantane-2,2'-diazirine]-7-carboxylic acid

> <CAS>
98398-60-8

> <URL>
https://www.enaminestore.com/catalog/EN300-9425165

> <ROCS_ShapeQuery>
__x1247relevant_x1083L0AP1_x1305L0BP1_

> <ROCS_TanimotoCombo>
0.721 

> <ROCS_ShapeTanimoto>
0.508 

> <ROCS_ColorTanimoto>
0.213 

> <ROCS_RefTversky>
0.430 

> <ROCS_RefColorTversky>
0.233 

> <ROCS_RefTverskyCombo>
0.663 

> <ROCS_FitTversky>
1.553 

> <ROCS_FitColorTversky>
0.710 

> <ROCS_FitTverskyCombo>
2.263 

> <ROCS_ColorScore>
-7.606

> <ROCS_Overlap>
1266.738

> <ROCS_Rank>
329                 

$$$$
untitled-dbase-147362_15
  -OEChem-06232314393D

 27 28  0     1  0  0  0  0  0999 V2000
   -9.8457   15.2339  -36.4526 C   0  0  0  0  0  0  0  0  0  0  0  0
  -12.9393   14.6013  -39.7852 C   0  0  0  0  0  0  0  0  0  0  0  0
  -13.7478   14.1038  -38.5794 C   0  0  0  0  0  0  0  0  0  0  0  0
  -13.2972   16.4293  -38.2998 C   0  0  0  0  0  0  0  0  0  0  0  0
  -10.9305   15.7062  -38.6360 C   0  0  0  0  0  0  0  0  0  0  0  0
  -12.3034   14.8833  -36.6111 C   0  0  0  0  0  0  0  0  0  0  0  0
  -12.2928   15.9130  -39.3245 C   0  0  1  0  0  0  0  0  0  0  0  0
  -13.5382   15.1608  -37.4883 C   0  0  2  0  0  0  0  0  0  0  0  0
  -10.9588   14.8059  -37.3760 C   0  0  0  0  0  0  0  0  0  0  0  0
  -10.6151   13.4248  -37.7212 N   0  0  0  0  0  0  0  0  0  0  0  0
   -8.7856   15.7245  -36.8116 O   0  0  0  0  0  0  0  0  0  0  0  0
  -10.1784   14.9977  -35.1600 O   0  0  0  0  0  0  0  0  0  0  0  0
  -12.2126   13.8679  -40.1463 H   0  0  0  0  0  0  0  0  0  0  0  0
  -13.6269   14.7994  -40.6172 H   0  0  0  0  0  0  0  0  0  0  0  0
  -14.8091   14.0665  -38.8564 H   0  0  0  0  0  0  0  0  0  0  0  0
  -13.4745   13.0940  -38.2612 H   0  0  0  0  0  0  0  0  0  0  0  0
  -12.9122   17.2594  -37.6987 H   0  0  0  0  0  0  0  0  0  0  0  0
  -14.2205   16.7610  -38.7901 H   0  0  0  0  0  0  0  0  0  0  0  0
  -10.2129   15.3080  -39.3705 H   0  0  0  0  0  0  0  0  0  0  0  0
  -10.5349   16.6995  -38.3688 H   0  0  0  0  0  0  0  0  0  0  0  0
  -12.2489   15.6762  -35.8482 H   0  0  0  0  0  0  0  0  0  0  0  0
  -12.4668   13.9551  -36.0419 H   0  0  0  0  0  0  0  0  0  0  0  0
  -12.1749   16.6121  -40.1621 H   0  0  0  0  0  0  0  0  0  0  0  0
  -14.4253   15.2521  -36.8493 H   0  0  0  0  0  0  0  0  0  0  0  0
  -11.3575   12.8384  -37.4232 H   0  0  0  0  0  0  0  0  0  0  0  0
  -10.4985   13.3732  -38.7048 H   0  0  0  0  0  0  0  0  0  0  0  0
   -9.4654   15.2680  -34.5429 H   0  0  0  0  0  0  0  0  0  0  0  0
  1  9  1  0  0  0  0
  1 11  2  0  0  0  0
  1 12  1  0  0  0  0
  2  3  1  0  0  0  0
  2  7  1  0  0  0  0
  3  8  1  6  0  0  0
  4  7  1  0  0  0  0
  4  8  1  0  0  0  0
  5  7  1  6  0  0  0
  5  9  1  0  0  0  0
  6  8  1  0  0  0  0
  6  9  1  0  0  0  0
  9 10  1  6  0  0  0
  2 13  1  0  0  0  0
  2 14  1  0  0  0  0
  3 15  1  0  0  0  0
  3 16  1  0  0  0  0
  4 17  1  0  0  0  0
  4 18  1  0  0  0  0
  5 19  1  0  0  0  0
  5 20  1  0  0  0  0
  6 21  1  0  0  0  0
  6 22  1  0  0  0  0
  7 23  1  0  0  0  0
  8 24  1  0  0  0  0
 10 25  1  0  0  0  0
 10 26  1  0  0  0  0
 12 27  1  0  0  0  0
M  END
> <id>
EN300-7847501

> <smiles>
N[C@]1(C[C@H]2CC[C@H](C2)C1)C(=O)O

> <IUPAC Name>
(1R,3R,5S)-3-aminobicyclo[3.2.1]octane-3-carboxylic acid

> <CAS>
81639-48-7

> <URL>
https://www.enaminestore.com/catalog/EN300-7847501

> <ROCS_ShapeQuery>
__x1247relevant_x1083L0AP1_x1305L0BP1_

> <ROCS_TanimotoCombo>
0.720 

> <ROCS_ShapeTanimoto>
0.461 

> <ROCS_ColorTanimoto>
0.259 

> <ROCS_RefTversky>
0.386 

> <ROCS_RefColorTversky>
0.281 

> <ROCS_RefTverskyCombo>
0.667 

> <ROCS_FitTversky>
1.733 

> <ROCS_FitColorTversky>
0.771 

> <ROCS_FitTverskyCombo>
2.504 

> <ROCS_ColorScore>
-9.183

> <ROCS_Overlap>
1133.621

> <ROCS_Rank>
330                 

$$$$
untitled-dbase-5327_2
  -OEChem-06232314393D

 29 31  0     1  0  0  0  0  0999 V2000
   -9.9839   15.2277  -36.6059 C   0  0  0  0  0  0  0  0  0  0  0  0
  -14.0902   14.6022  -37.7972 C   0  0  0  0  0  0  0  0  0  0  0  0
  -11.7160   13.7986  -37.6963 C   0  0  0  0  0  0  0  0  0  0  0  0
  -12.3346   16.0217  -36.7019 C   0  0  0  0  0  0  0  0  0  0  0  0
  -12.7086   14.5045  -39.8878 C   0  0  0  0  0  0  0  0  0  0  0  0
  -13.3270   16.7230  -38.8955 C   0  0  0  0  0  0  0  0  0  0  0  0
  -10.9531   15.9235  -38.7965 C   0  0  0  0  0  0  0  0  0  0  0  0
  -13.0001   13.8132  -38.5457 C   0  0  2  0  0  0  0  0  0  0  0  0
  -13.6224   16.0476  -37.5460 C   0  0  1  0  0  0  0  0  0  0  0  0
  -11.2302   15.2409  -37.4433 C   0  0  0  0  0  0  0  0  0  0  0  0
  -12.2352   15.9420  -39.6382 C   0  0  0  0  0  0  0  0  0  0  0  0
   -8.9035   15.6847  -36.9481 O   0  0  0  0  0  0  0  0  0  0  0  0
  -10.2171   14.6339  -35.4099 O   0  0  0  0  0  0  0  0  0  0  0  0
  -11.9828   16.5440  -40.8268 F   0  0  0  0  0  0  0  0  0  0  0  0
  -15.0173   14.6062  -38.3834 H   0  0  0  0  0  0  0  0  0  0  0  0
  -14.3184   14.1118  -36.8430 H   0  0  0  0  0  0  0  0  0  0  0  0
  -11.9061   13.2857  -36.7443 H   0  0  0  0  0  0  0  0  0  0  0  0
  -10.9363   13.2183  -38.2070 H   0  0  0  0  0  0  0  0  0  0  0  0
  -12.0033   17.0479  -36.4952 H   0  0  0  0  0  0  0  0  0  0  0  0
  -12.5373   15.5624  -35.7254 H   0  0  0  0  0  0  0  0  0  0  0  0
  -11.9454   13.9505  -40.4483 H   0  0  0  0  0  0  0  0  0  0  0  0
  -13.6050   14.5097  -40.5202 H   0  0  0  0  0  0  0  0  0  0  0  0
  -14.2356   16.7715  -39.5083 H   0  0  0  0  0  0  0  0  0  0  0  0
  -13.0078   17.7616  -38.7440 H   0  0  0  0  0  0  0  0  0  0  0  0
  -10.5870   16.9487  -38.6526 H   0  0  0  0  0  0  0  0  0  0  0  0
  -10.1539   15.4030  -39.3408 H   0  0  0  0  0  0  0  0  0  0  0  0
  -13.3399   12.7868  -38.7224 H   0  0  0  0  0  0  0  0  0  0  0  0
  -14.4030   16.6035  -37.0151 H   0  0  0  0  0  0  0  0  0  0  0  0
   -9.4133   14.6136  -34.8480 H   0  0  0  0  0  0  0  0  0  0  0  0
  1 10  1  0  0  0  0
  1 12  2  0  0  0  0
  1 13  1  0  0  0  0
  2  8  1  0  0  0  0
  2  9  1  0  0  0  0
  3  8  1  0  0  0  0
  3 10  1  0  0  0  0
  4  9  1  0  0  0  0
  4 10  1  0  0  0  0
  5  8  1  0  0  0  0
  5 11  1  0  0  0  0
  6  9  1  0  0  0  0
  6 11  1  0  0  0  0
  7 10  1  0  0  0  0
  7 11  1  0  0  0  0
 11 14  1  0  0  0  0
  2 15  1  0  0  0  0
  2 16  1  0  0  0  0
  3 17  1  0  0  0  0
  3 18  1  0  0  0  0
  4 19  1  0  0  0  0
  4 20  1  0  0  0  0
  5 21  1  0  0  0  0
  5 22  1  0  0  0  0
  6 23  1  0  0  0  0
  6 24  1  0  0  0  0
  7 25  1  0  0  0  0
  7 26  1  0  0  0  0
  8 27  1  0  0  0  0
  9 28  1  0  0  0  0
 13 29  1  0  0  0  0
M  END
> <id>
EN300-109918

> <smiles>
OC(=O)C1(CC2CC3CC(F)(C2)C1)C3

> <MDLNUMBER>
MFCD00225706

> <IUPAC Name>
3-fluoroadamantane-1-carboxylic acid

> <CAS>
880-50-2

> <Purity>
95

> <URL>
https://www.enaminestore.com/catalog/EN300-109918

> <MP>
152-153

> <ROCS_ShapeQuery>
__x1247relevant_x1083L0AP1_x1305L0BP1_

> <ROCS_TanimotoCombo>
0.720 

> <ROCS_ShapeTanimoto>
0.508 

> <ROCS_ColorTanimoto>
0.213 

> <ROCS_RefTversky>
0.424 

> <ROCS_RefColorTversky>
0.233 

> <ROCS_RefTverskyCombo>
0.657 

> <ROCS_FitTversky>
1.638 

> <ROCS_FitColorTversky>
0.710 

> <ROCS_FitTverskyCombo>
2.348 

> <ROCS_ColorScore>
-7.599

> <ROCS_Overlap>
1247.384

> <ROCS_Rank>
331                 

$$$$
untitled-dbase-162283_0
  -OEChem-06232314393D

 29 30  0     1  0  0  0  0  0999 V2000
  -10.1560   15.2192  -36.7373 C   0  0  0  0  0  0  0  0  0  0  0  0
  -12.4603   16.1182  -36.8388 C   0  0  0  0  0  0  0  0  0  0  0  0
  -11.1439   15.9170  -38.9349 C   0  0  0  0  0  0  0  0  0  0  0  0
  -13.7644   16.1140  -37.6432 C   0  0  0  0  0  0  0  0  0  0  0  0
  -12.4258   15.8604  -39.7730 C   0  0  0  0  0  0  0  0  0  0  0  0
  -12.0203   13.8572  -37.7714 C   0  0  2  0  0  0  0  0  0  0  0  0
  -11.4049   15.2620  -37.5685 C   0  0  0  0  0  0  0  0  0  0  0  0
  -13.5777   15.2863  -38.9266 C   0  0  0  0  0  0  0  0  0  0  0  0
  -11.1071   12.8504  -38.4673 C   0  0  0  0  0  0  0  0  0  0  0  0
  -14.8704   15.2238  -39.7333 C   0  0  0  0  0  0  0  0  0  0  0  0
   -9.0587   15.6180  -37.0982 O   0  0  0  0  0  0  0  0  0  0  0  0
  -13.2329   13.9400  -38.5474 O   0  0  0  0  0  0  0  0  0  0  0  0
  -10.4077   14.6723  -35.5229 O   0  0  0  0  0  0  0  0  0  0  0  0
  -12.1047   17.1480  -36.7060 H   0  0  0  0  0  0  0  0  0  0  0  0
  -12.6449   15.7321  -35.8278 H   0  0  0  0  0  0  0  0  0  0  0  0
  -10.3195   15.4270  -39.4663 H   0  0  0  0  0  0  0  0  0  0  0  0
  -10.8305   16.9616  -38.8079 H   0  0  0  0  0  0  0  0  0  0  0  0
  -14.5569   15.6771  -37.0230 H   0  0  0  0  0  0  0  0  0  0  0  0
  -14.0639   17.1420  -37.8782 H   0  0  0  0  0  0  0  0  0  0  0  0
  -12.6711   16.8603  -40.1497 H   0  0  0  0  0  0  0  0  0  0  0  0
  -12.2460   15.2190  -40.6448 H   0  0  0  0  0  0  0  0  0  0  0  0
  -12.2975   13.4323  -36.7982 H   0  0  0  0  0  0  0  0  0  0  0  0
  -10.8076   13.2348  -39.4410 H   0  0  0  0  0  0  0  0  0  0  0  0
  -11.6333   11.9069  -38.6032 H   0  0  0  0  0  0  0  0  0  0  0  0
  -10.2178   12.6789  -37.8628 H   0  0  0  0  0  0  0  0  0  0  0  0
  -14.7165   14.6341  -40.6364 H   0  0  0  0  0  0  0  0  0  0  0  0
  -15.1814   16.2294  -40.0149 H   0  0  0  0  0  0  0  0  0  0  0  0
  -15.6577   14.7624  -39.1379 H   0  0  0  0  0  0  0  0  0  0  0  0
   -9.6021   14.6336  -34.9644 H   0  0  0  0  0  0  0  0  0  0  0  0
  1  7  1  0  0  0  0
  1 11  2  0  0  0  0
  1 13  1  0  0  0  0
  2  4  1  0  0  0  0
  2  7  1  0  0  0  0
  3  5  1  0  0  0  0
  3  7  1  0  0  0  0
  4  8  1  0  0  0  0
  5  8  1  0  0  0  0
  6  7  1  0  0  0  0
  6  9  1  0  0  0  0
  6 12  1  0  0  0  0
  8 10  1  0  0  0  0
  8 12  1  0  0  0  0
  2 14  1  0  0  0  0
  2 15  1  0  0  0  0
  3 16  1  0  0  0  0
  3 17  1  0  0  0  0
  4 18  1  0  0  0  0
  4 19  1  0  0  0  0
  5 20  1  0  0  0  0
  5 21  1  0  0  0  0
  6 22  1  0  0  0  0
  9 23  1  0  0  0  0
  9 24  1  0  0  0  0
  9 25  1  0  0  0  0
 10 26  1  0  0  0  0
 10 27  1  0  0  0  0
 10 28  1  0  0  0  0
 13 29  1  0  0  0  0
M  END
> <id>
EN300-39853035

> <smiles>
CC1OC2(C)CCC1(CC2)C(=O)O

> <IUPAC Name>
1,3-dimethyl-2-oxabicyclo[2.2.2]octane-4-carboxylic acid

> <Purity>
95

> <URL>
https://www.enaminestore.com/catalog/EN300-39853035

> <ROCS_ShapeQuery>
__x1247relevant_x1083L0AP1_x1305L0BP1_

> <ROCS_TanimotoCombo>
0.720 

> <ROCS_ShapeTanimoto>
0.490 

> <ROCS_ColorTanimoto>
0.231 

> <ROCS_RefTversky>
0.407 

> <ROCS_RefColorTversky>
0.252 

> <ROCS_RefTverskyCombo>
0.659 

> <ROCS_FitTversky>
1.706 

> <ROCS_FitColorTversky>
0.732 

> <ROCS_FitTverskyCombo>
2.438 

> <ROCS_ColorScore>
-8.228

> <ROCS_Overlap>
1197.008

> <ROCS_Rank>
332                 

$$$$
untitled-dbase-35499_1
  -OEChem-06232314393D

 24 26  0     1  0  0  0  0  0999 V2000
   -9.5300   14.7397  -36.9304 C   0  0  0  0  0  0  0  0  0  0  0  0
  -13.6695   14.6025  -39.6895 C   0  0  0  0  0  0  0  0  0  0  0  0
  -13.4085   16.1298  -39.7223 C   0  0  0  0  0  0  0  0  0  0  0  0
  -13.7557   15.4510  -37.4829 C   0  0  0  0  0  0  0  0  0  0  0  0
  -10.9745   14.9847  -37.0427 C   0  0  0  0  0  0  0  0  0  0  0  0
  -13.2546   14.2172  -38.2499 C   0  0  2  0  0  0  0  0  0  0  0  0
  -12.8787   16.4150  -38.2972 C   0  0  1  0  0  0  0  0  0  0  0  0
  -11.7341   14.3301  -38.1757 C   0  0  1  0  0  0  0  0  0  0  0  0
  -11.4816   15.8065  -38.2075 C   0  0  2  0  0  0  0  0  0  0  0  0
   -9.1958   13.4071  -36.8805 N   0  0  0  0  0  0  0  0  0  0  0  0
   -8.7126   15.6565  -36.9028 O   0  0  0  0  0  0  0  0  0  0  0  0
  -14.7323   14.3985  -39.8610 H   0  0  0  0  0  0  0  0  0  0  0  0
  -13.0855   14.0773  -40.4521 H   0  0  0  0  0  0  0  0  0  0  0  0
  -12.6887   16.3988  -40.5021 H   0  0  0  0  0  0  0  0  0  0  0  0
  -14.3443   16.6679  -39.9097 H   0  0  0  0  0  0  0  0  0  0  0  0
  -14.8296   15.6321  -37.6033 H   0  0  0  0  0  0  0  0  0  0  0  0
  -13.5205   15.4337  -36.4159 H   0  0  0  0  0  0  0  0  0  0  0  0
  -11.4661   15.0896  -36.0845 H   0  0  0  0  0  0  0  0  0  0  0  0
  -13.6453   13.2580  -37.9062 H   0  0  0  0  0  0  0  0  0  0  0  0
  -12.9260   17.4630  -37.9966 H   0  0  0  0  0  0  0  0  0  0  0  0
  -11.2062   13.6876  -38.8668 H   0  0  0  0  0  0  0  0  0  0  0  0
  -10.7753   16.2077  -38.9212 H   0  0  0  0  0  0  0  0  0  0  0  0
   -8.2165   13.1532  -36.8028 H   0  0  0  0  0  0  0  0  0  0  0  0
   -9.8893   12.6671  -36.9183 H   0  0  0  0  0  0  0  0  0  0  0  0
  1  5  1  1  0  0  0
  1 10  1  0  0  0  0
  1 11  2  0  0  0  0
  2  3  1  0  0  0  0
  2  6  1  1  0  0  0
  3  7  1  1  0  0  0
  4  6  1  0  0  0  0
  4  7  1  0  0  0  0
  5  8  1  0  0  0  0
  5  9  1  0  0  0  0
  6  8  1  6  0  0  0
  7  9  1  6  0  0  0
  8  9  1  0  0  0  0
  2 12  1  0  0  0  0
  2 13  1  0  0  0  0
  3 14  1  0  0  0  0
  3 15  1  0  0  0  0
  4 16  1  0  0  0  0
  4 17  1  0  0  0  0
  5 18  1  0  0  0  0
  6 19  1  0  0  0  0
  7 20  1  0  0  0  0
  8 21  1  0  0  0  0
  9 22  1  0  0  0  0
 10 23  1  0  0  0  0
 10 24  1  0  0  0  0
M  END
> <id>
EN300-764787

> <smiles>
NC(=O)[C@H]1[C@H]2[C@@H]1[C@@H]3CC[C@H]2C3

> <IUPAC Name>
(1R,2S,3R,4R,5S)-tricyclo[3.2.1.0,2,4]octane-3-carboxamide

> <CAS>
16529-69-4

> <URL>
https://www.enaminestore.com/catalog/EN300-764787

> <ROCS_ShapeQuery>
__x1247relevant_x1083L0AP1_x1305L0BP1_

> <ROCS_TanimotoCombo>
0.720 

> <ROCS_ShapeTanimoto>
0.463 

> <ROCS_ColorTanimoto>
0.257 

> <ROCS_RefTversky>
0.384 

> <ROCS_RefColorTversky>
0.327 

> <ROCS_RefTverskyCombo>
0.711 

> <ROCS_FitTversky>
1.805 

> <ROCS_FitColorTversky>
0.547 

> <ROCS_FitTverskyCombo>
2.352 

> <ROCS_ColorScore>
-10.823

> <ROCS_Overlap>
1126.724

> <ROCS_Rank>
333                 

$$$$
untitled-dbase-109179_14
  -OEChem-06232314393D

 41 43  0     1  0  0  0  0  0999 V2000
   -8.7037   16.2763  -36.1986 C   0  0  0  0  0  0  0  0  0  0  0  0
  -14.1625   16.1944  -37.8654 C   0  0  0  0  0  0  0  0  0  0  0  0
  -13.2879   16.8819  -38.9148 C   0  0  0  0  0  0  0  0  0  0  0  0
   -8.8340   15.0731  -37.1312 C   0  0  0  0  0  0  0  0  0  0  0  0
  -12.6535   14.2636  -37.1170 C   0  0  0  0  0  0  0  0  0  0  0  0
  -11.1857   15.4166  -38.8714 C   0  0  0  0  0  0  0  0  0  0  0  0
   -8.9395   15.8660  -34.7512 C   0  0  0  0  0  0  0  0  0  0  0  0
  -10.2622   13.9976  -35.3671 C   0  0  0  0  0  0  0  0  0  0  0  0
  -13.8362   14.7051  -38.0083 C   0  0  2  0  0  0  0  0  0  0  0  0
  -12.5191   15.7388  -39.5835 C   0  0  1  0  0  0  0  0  0  0  0  0
  -10.1307   14.2825  -36.8720 C   0  0  1  0  0  0  0  0  0  0  0  0
  -11.3512   15.0569  -37.3769 C   0  0  0  0  0  0  0  0  0  0  0  0
  -14.4843   14.5067  -40.3575 C   0  0  0  0  0  0  0  0  0  0  0  0
  -13.3805   14.5566  -39.4021 N   0  0  0  0  0  0  0  0  0  0  0  0
  -10.0589   13.0080  -37.5954 N   0  0  0  0  0  0  0  0  0  0  0  0
  -10.1964   15.2063  -34.6057 O   0  0  0  0  0  0  0  0  0  0  0  0
  -11.3929   16.2806  -36.6331 O   0  0  0  0  0  0  0  0  0  0  0  0
   -7.7129   16.7308  -36.3055 H   0  0  0  0  0  0  0  0  0  0  0  0
   -9.4396   17.0361  -36.4856 H   0  0  0  0  0  0  0  0  0  0  0  0
  -13.9807   16.5780  -36.8569 H   0  0  0  0  0  0  0  0  0  0  0  0
  -15.2185   16.3798  -38.0961 H   0  0  0  0  0  0  0  0  0  0  0  0
  -13.9292   17.3922  -39.6435 H   0  0  0  0  0  0  0  0  0  0  0  0
  -12.6314   17.6392  -38.4757 H   0  0  0  0  0  0  0  0  0  0  0  0
   -8.7777   15.4064  -38.1751 H   0  0  0  0  0  0  0  0  0  0  0  0
   -7.9650   14.4208  -36.9660 H   0  0  0  0  0  0  0  0  0  0  0  0
  -12.9471   14.3630  -36.0643 H   0  0  0  0  0  0  0  0  0  0  0  0
  -12.4747   13.1954  -37.3013 H   0  0  0  0  0  0  0  0  0  0  0  0
  -10.7185   14.5741  -39.3994 H   0  0  0  0  0  0  0  0  0  0  0  0
  -10.5109   16.2751  -38.9804 H   0  0  0  0  0  0  0  0  0  0  0  0
   -8.1399   15.2092  -34.3891 H   0  0  0  0  0  0  0  0  0  0  0  0
   -8.9526   16.7536  -34.1109 H   0  0  0  0  0  0  0  0  0  0  0  0
  -11.2233   13.5207  -35.1422 H   0  0  0  0  0  0  0  0  0  0  0  0
   -9.4768   13.3167  -35.0135 H   0  0  0  0  0  0  0  0  0  0  0  0
  -14.7031   14.0753  -37.7771 H   0  0  0  0  0  0  0  0  0  0  0  0
  -12.3106   15.9521  -40.6381 H   0  0  0  0  0  0  0  0  0  0  0  0
  -14.0836   14.3957  -41.3759 H   0  0  0  0  0  0  0  0  0  0  0  0
  -15.1331   13.6498  -40.1235 H   0  0  0  0  0  0  0  0  0  0  0  0
  -15.0677   15.4369  -40.2925 H   0  0  0  0  0  0  0  0  0  0  0  0
   -9.9608   13.2111  -38.5597 H   0  0  0  0  0  0  0  0  0  0  0  0
   -9.2733   12.5100  -37.2551 H   0  0  0  0  0  0  0  0  0  0  0  0
  -11.4704   16.0270  -35.7024 H   0  0  0  0  0  0  0  0  0  0  0  0
  1  4  1  0  0  0  0
  1  7  1  0  0  0  0
  2  3  1  0  0  0  0
  2  9  1  0  0  0  0
  3 10  1  0  0  0  0
  4 11  1  0  0  0  0
  5  9  1  0  0  0  0
  5 12  1  0  0  0  0
  6 10  1  0  0  0  0
  6 12  1  0  0  0  0
  7 16  1  0  0  0  0
  8 11  1  0  0  0  0
  8 16  1  0  0  0  0
  9 14  1  0  0  0  0
 10 14  1  0  0  0  0
 11 12  1  0  0  0  0
 11 15  1  0  0  0  0
 12 17  1  0  0  0  0
 13 14  1  0  0  0  0
  1 18  1  0  0  0  0
  1 19  1  0  0  0  0
  2 20  1  0  0  0  0
  2 21  1  0  0  0  0
  3 22  1  0  0  0  0
  3 23  1  0  0  0  0
  4 24  1  0  0  0  0
  4 25  1  0  0  0  0
  5 26  1  0  0  0  0
  5 27  1  0  0  0  0
  6 28  1  0  0  0  0
  6 29  1  0  0  0  0
  7 30  1  0  0  0  0
  7 31  1  0  0  0  0
  8 32  1  0  0  0  0
  8 33  1  0  0  0  0
  9 34  1  0  0  0  0
 10 35  1  0  0  0  0
 13 36  1  0  0  0  0
 13 37  1  0  0  0  0
 13 38  1  0  0  0  0
 15 39  1  0  0  0  0
 15 40  1  0  0  0  0
 17 41  1  0  0  0  0
M  END
> <id>
EN300-1643346

> <smiles>
CN1C2CCC1CC(O)(C2)C3(N)CCCOC3

> <IUPAC Name>
3-(3-aminooxan-3-yl)-8-methyl-8-azabicyclo[3.2.1]octan-3-ol

> <CAS>
2171617-24-4

> <URL>
https://www.enaminestore.com/catalog/EN300-1643346

> <ROCS_ShapeQuery>
__x1247relevant_x1083L0AP1_x1305L0BP1_

> <ROCS_TanimotoCombo>
0.720 

> <ROCS_ShapeTanimoto>
0.536 

> <ROCS_ColorTanimoto>
0.184 

> <ROCS_RefTversky>
0.453 

> <ROCS_RefColorTversky>
0.221 

> <ROCS_RefTverskyCombo>
0.674 

> <ROCS_FitTversky>
1.525 

> <ROCS_FitColorTversky>
0.523 

> <ROCS_FitTverskyCombo>
2.048 

> <ROCS_ColorScore>
-7.247

> <ROCS_Overlap>
1334.930

> <ROCS_Rank>
334                 

$$$$
untitled-dbase-78569_5
  -OEChem-06232314393D

 29 31  0     1  0  0  0  0  0999 V2000
  -12.3488   16.5084  -39.2005 C   0  0  0  0  0  0  0  0  0  0  0  0
  -11.6787   15.3637  -39.3978 C   0  0  0  0  0  0  0  0  0  0  0  0
   -8.8253   15.2445  -36.6768 C   0  0  0  0  0  0  0  0  0  0  0  0
  -10.2870   15.6696  -36.7447 C   0  0  0  0  0  0  0  0  0  0  0  0
  -13.8884   14.7926  -39.0466 C   0  0  0  0  0  0  0  0  0  0  0  0
  -13.1795   15.7779  -36.9944 C   0  0  0  0  0  0  0  0  0  0  0  0
   -8.8398   13.7290  -36.8254 C   0  0  0  0  0  0  0  0  0  0  0  0
  -13.6016   16.1652  -38.4300 C   0  0  1  0  0  0  0  0  0  0  0  0
  -12.4809   14.2586  -38.7505 C   0  0  2  0  0  0  0  0  0  0  0  0
  -12.4460   14.4170  -37.2072 C   0  0  1  0  0  0  0  0  0  0  0  0
  -11.0613   14.3697  -36.5853 C   0  0  1  0  0  0  0  0  0  0  0  0
  -10.1952   13.4047  -37.2643 N   0  0  0  0  0  0  0  0  0  0  0  0
  -12.0294   17.4964  -39.4907 H   0  0  0  0  0  0  0  0  0  0  0  0
  -10.7180   15.2576  -39.8757 H   0  0  0  0  0  0  0  0  0  0  0  0
   -8.2531   15.7219  -37.4797 H   0  0  0  0  0  0  0  0  0  0  0  0
   -8.3744   15.5350  -35.7218 H   0  0  0  0  0  0  0  0  0  0  0  0
  -10.5358   16.3964  -35.9648 H   0  0  0  0  0  0  0  0  0  0  0  0
  -10.4859   16.1401  -37.7161 H   0  0  0  0  0  0  0  0  0  0  0  0
  -14.6818   14.2420  -38.5283 H   0  0  0  0  0  0  0  0  0  0  0  0
  -14.1239   14.8343  -40.1179 H   0  0  0  0  0  0  0  0  0  0  0  0
  -12.5447   16.5384  -36.5258 H   0  0  0  0  0  0  0  0  0  0  0  0
  -14.0616   15.6274  -36.3616 H   0  0  0  0  0  0  0  0  0  0  0  0
   -8.0897   13.3780  -37.5406 H   0  0  0  0  0  0  0  0  0  0  0  0
   -8.6348   13.2461  -35.8631 H   0  0  0  0  0  0  0  0  0  0  0  0
  -14.4075   16.8947  -38.5129 H   0  0  0  0  0  0  0  0  0  0  0  0
  -12.2806   13.2567  -39.1327 H   0  0  0  0  0  0  0  0  0  0  0  0
  -13.0525   13.6207  -36.7546 H   0  0  0  0  0  0  0  0  0  0  0  0
  -11.1469   14.1010  -35.5262 H   0  0  0  0  0  0  0  0  0  0  0  0
  -10.2575   13.5529  -38.2726 H   0  0  0  0  0  0  0  0  0  0  0  0
  1  2  2  0  0  0  0
  1  8  1  0  0  0  0
  2  9  1  0  0  0  0
  3  4  1  0  0  0  0
  3  7  1  0  0  0  0
  4 11  1  0  0  0  0
  5  8  1  0  0  0  0
  5  9  1  0  0  0  0
  6  8  1  0  0  0  0
  6 10  1  0  0  0  0
  7 12  1  0  0  0  0
  9 10  1  0  0  0  0
 10 11  1  0  0  0  0
 11 12  1  0  0  0  0
  1 13  1  0  0  0  0
  2 14  1  0  0  0  0
  3 15  1  0  0  0  0
  3 16  1  0  0  0  0
  4 17  1  0  0  0  0
  4 18  1  0  0  0  0
  5 19  1  0  0  0  0
  5 20  1  0  0  0  0
  6 21  1  0  0  0  0
  6 22  1  0  0  0  0
  7 23  1  0  0  0  0
  7 24  1  0  0  0  0
  8 25  1  0  0  0  0
  9 26  1  0  0  0  0
 10 27  1  0  0  0  0
 11 28  1  0  0  0  0
 12 29  1  0  0  0  0
M  END
> <id>
EN300-1820061

> <smiles>
C1CNC(C1)C2CC3CC2C=C3

> <IUPAC Name>
2-{bicyclo[2.2.1]hept-5-en-2-yl}pyrrolidine

> <CAS>
2229470-45-3

> <URL>
https://www.enaminestore.com/catalog/EN300-1820061

> <ROCS_ShapeQuery>
__x1247relevant_x1083L0AP1_x1305L0BP1_

> <ROCS_TanimotoCombo>
0.720 

> <ROCS_ShapeTanimoto>
0.482 

> <ROCS_ColorTanimoto>
0.238 

> <ROCS_RefTversky>
0.399 

> <ROCS_RefColorTversky>
0.254 

> <ROCS_RefTverskyCombo>
0.653 

> <ROCS_FitTversky>
1.764 

> <ROCS_FitColorTversky>
0.785 

> <ROCS_FitTverskyCombo>
2.548 

> <ROCS_ColorScore>
-8.302

> <ROCS_Overlap>
1171.843

> <ROCS_Rank>
335                 

$$$$
untitled-dbase-148436_9
  -OEChem-06232314393D

 41 42  0     1  0  0  0  0  0999 V2000
  -13.6087   15.8054  -39.3435 C   0  0  0  0  0  0  0  0  0  0  0  0
   -9.2610   14.4027  -36.7887 C   0  0  0  0  0  0  0  0  0  0  0  0
  -12.5218   16.7384  -38.8451 C   0  0  0  0  0  0  0  0  0  0  0  0
  -13.7479   14.6431  -37.1855 C   0  0  0  0  0  0  0  0  0  0  0  0
  -12.6302   15.5581  -36.6605 C   0  0  0  0  0  0  0  0  0  0  0  0
  -12.2440   13.7949  -39.0293 C   0  0  0  0  0  0  0  0  0  0  0  0
  -13.6033   14.4298  -38.6966 C   0  0  2  0  0  0  0  0  0  0  0  0
  -11.6784   15.9513  -37.8163 C   0  0  1  0  0  0  0  0  0  0  0  0
  -11.0802   14.6619  -38.4692 C   0  0  2  0  0  0  0  0  0  0  0  0
  -10.0873   15.0007  -39.5933 C   0  0  0  0  0  0  0  0  0  0  0  0
   -9.9440   14.8046  -34.2952 C   0  0  0  0  0  0  0  0  0  0  0  0
   -9.0037   12.5471  -33.7219 C   0  0  0  0  0  0  0  0  0  0  0  0
   -7.4522   14.4632  -34.2010 C   0  0  0  0  0  0  0  0  0  0  0  0
   -8.7984   13.8227  -34.5361 C   0  0  0  0  0  0  0  0  0  0  0  0
  -10.3451   13.9030  -37.4640 N   0  0  0  0  0  0  0  0  0  0  0  0
  -14.4253   16.1376  -40.1971 O   0  0  0  0  0  0  0  0  0  0  0  0
   -8.7719   15.5189  -36.9282 O   0  0  0  0  0  0  0  0  0  0  0  0
   -8.7965   13.4553  -35.9202 O   0  0  0  0  0  0  0  0  0  0  0  0
  -11.9199   17.0812  -39.6901 H   0  0  0  0  0  0  0  0  0  0  0  0
  -12.9946   17.6065  -38.3741 H   0  0  0  0  0  0  0  0  0  0  0  0
  -13.7147   13.6793  -36.6637 H   0  0  0  0  0  0  0  0  0  0  0  0
  -14.7216   15.0942  -36.9579 H   0  0  0  0  0  0  0  0  0  0  0  0
  -13.0708   16.4591  -36.2160 H   0  0  0  0  0  0  0  0  0  0  0  0
  -12.0855   15.0601  -35.8504 H   0  0  0  0  0  0  0  0  0  0  0  0
  -12.2112   12.7767  -38.6209 H   0  0  0  0  0  0  0  0  0  0  0  0
  -12.1541   13.6842  -40.1181 H   0  0  0  0  0  0  0  0  0  0  0  0
  -14.4267   13.8271  -39.0918 H   0  0  0  0  0  0  0  0  0  0  0  0
  -10.8787   16.5960  -37.4322 H   0  0  0  0  0  0  0  0  0  0  0  0
   -9.2812   15.6051  -39.1898 H   0  0  0  0  0  0  0  0  0  0  0  0
  -10.6025   15.5532  -40.3725 H   0  0  0  0  0  0  0  0  0  0  0  0
   -9.6832   14.0811  -40.0043 H   0  0  0  0  0  0  0  0  0  0  0  0
   -9.8004   15.7215  -34.8779 H   0  0  0  0  0  0  0  0  0  0  0  0
  -10.9118   14.3693  -34.5648 H   0  0  0  0  0  0  0  0  0  0  0  0
   -9.9828   15.1097  -33.2432 H   0  0  0  0  0  0  0  0  0  0  0  0
   -8.1840   11.8397  -33.8917 H   0  0  0  0  0  0  0  0  0  0  0  0
   -9.9228   12.0334  -34.0263 H   0  0  0  0  0  0  0  0  0  0  0  0
   -9.0633   12.7577  -32.6492 H   0  0  0  0  0  0  0  0  0  0  0  0
   -6.6303   13.7591  -34.3737 H   0  0  0  0  0  0  0  0  0  0  0  0
   -7.2713   15.3599  -34.8026 H   0  0  0  0  0  0  0  0  0  0  0  0
   -7.4052   14.7395  -33.1414 H   0  0  0  0  0  0  0  0  0  0  0  0
  -10.6492   12.9639  -37.2549 H   0  0  0  0  0  0  0  0  0  0  0  0
  1  3  1  0  0  0  0
  1  7  1  0  0  0  0
  1 16  2  0  0  0  0
  2 15  1  0  0  0  0
  2 17  2  0  0  0  0
  2 18  1  0  0  0  0
  3  8  1  0  0  0  0
  4  5  1  0  0  0  0
  4  7  1  0  0  0  0
  5  8  1  0  0  0  0
  6  7  1  0  0  0  0
  6  9  1  0  0  0  0
  8  9  1  0  0  0  0
  9 10  1  0  0  0  0
  9 15  1  0  0  0  0
 11 14  1  0  0  0  0
 12 14  1  0  0  0  0
 13 14  1  0  0  0  0
 14 18  1  0  0  0  0
  3 19  1  0  0  0  0
  3 20  1  0  0  0  0
  4 21  1  0  0  0  0
  4 22  1  0  0  0  0
  5 23  1  0  0  0  0
  5 24  1  0  0  0  0
  6 25  1  0  0  0  0
  6 26  1  0  0  0  0
  7 27  1  0  0  0  0
  8 28  1  0  0  0  0
 10 29  1  0  0  0  0
 10 30  1  0  0  0  0
 10 31  1  0  0  0  0
 11 32  1  0  0  0  0
 11 33  1  0  0  0  0
 11 34  1  0  0  0  0
 12 35  1  0  0  0  0
 12 36  1  0  0  0  0
 12 37  1  0  0  0  0
 13 38  1  0  0  0  0
 13 39  1  0  0  0  0
 13 40  1  0  0  0  0
 15 41  1  0  0  0  0
M  END
> <id>
EN300-27686620

> <smiles>
CC(C)(C)OC(=O)NC1(C)CC2CCC1CC2=O

> <MDLNUMBER>
MFCD33549816

> <IUPAC Name>
tert-butyl N-{2-methyl-5-oxobicyclo[2.2.2]octan-2-yl}carbamate

> <CAS>
2639418-07-6

> <Purity>
95

> <URL>
https://www.enaminestore.com/catalog/EN300-27686620

> <ROCS_ShapeQuery>
__x1247relevant_x1083L0AP1_x1305L0BP1_

> <ROCS_TanimotoCombo>
0.720 

> <ROCS_ShapeTanimoto>
0.483 

> <ROCS_ColorTanimoto>
0.237 

> <ROCS_RefTversky>
0.426 

> <ROCS_RefColorTversky>
0.257 

> <ROCS_RefTverskyCombo>
0.683 

> <ROCS_FitTversky>
1.385 

> <ROCS_FitColorTversky>
0.751 

> <ROCS_FitTverskyCombo>
2.137 

> <ROCS_ColorScore>
-8.402

> <ROCS_Overlap>
1256.107

> <ROCS_Rank>
336                 

$$$$
untitled-dbase-145418_78
  -OEChem-06232314393D

 38 39  0     1  0  0  0  0  0999 V2000
   -9.5363   13.8869  -37.1444 C   0  0  0  0  0  0  0  0  0  0  0  0
  -13.7588   15.5826  -37.2736 C   0  0  0  0  0  0  0  0  0  0  0  0
  -12.4123   15.0210  -36.7940 C   0  0  0  0  0  0  0  0  0  0  0  0
  -12.8875   14.1428  -38.9602 C   0  0  0  0  0  0  0  0  0  0  0  0
  -13.6597   15.4588  -38.8018 C   0  0  2  0  0  0  0  0  0  0  0  0
  -12.6453   16.5044  -39.3112 C   0  0  1  0  0  0  0  0  0  0  0  0
  -11.2868   15.9196  -38.8628 C   0  0  1  0  0  0  0  0  0  0  0  0
  -11.7072   14.6296  -38.1120 C   0  0  1  0  0  0  0  0  0  0  0  0
   -7.5779   15.9046  -37.6378 C   0  0  0  0  0  0  0  0  0  0  0  0
   -8.5976   17.1106  -35.6847 C   0  0  0  0  0  0  0  0  0  0  0  0
   -7.5337   14.8605  -35.3481 C   0  0  0  0  0  0  0  0  0  0  0  0
   -8.3215   15.7461  -36.3124 C   0  0  0  0  0  0  0  0  0  0  0  0
  -10.6588   13.6769  -37.9343 N   0  0  0  0  0  0  0  0  0  0  0  0
   -8.6269   13.0802  -36.9809 O   0  0  0  0  0  0  0  0  0  0  0  0
  -12.7502   16.6184  -40.7218 O   0  0  0  0  0  0  0  0  0  0  0  0
  -10.4694   15.6236  -39.9862 O   0  0  0  0  0  0  0  0  0  0  0  0
   -9.5863   15.1262  -36.5709 O   0  0  0  0  0  0  0  0  0  0  0  0
  -14.5808   14.9693  -36.8872 H   0  0  0  0  0  0  0  0  0  0  0  0
  -13.9180   16.6132  -36.9412 H   0  0  0  0  0  0  0  0  0  0  0  0
  -11.8440   15.7587  -36.2178 H   0  0  0  0  0  0  0  0  0  0  0  0
  -12.5847   14.1472  -36.1543 H   0  0  0  0  0  0  0  0  0  0  0  0
  -13.4149   13.2865  -38.5251 H   0  0  0  0  0  0  0  0  0  0  0  0
  -12.6235   13.9208  -39.9997 H   0  0  0  0  0  0  0  0  0  0  0  0
  -14.6224   15.4812  -39.3172 H   0  0  0  0  0  0  0  0  0  0  0  0
  -12.8318   17.4889  -38.8689 H   0  0  0  0  0  0  0  0  0  0  0  0
  -10.7487   16.6153  -38.2098 H   0  0  0  0  0  0  0  0  0  0  0  0
   -7.3778   14.9273  -38.0916 H   0  0  0  0  0  0  0  0  0  0  0  0
   -8.1484   16.5088  -38.3507 H   0  0  0  0  0  0  0  0  0  0  0  0
   -6.6022   16.3797  -37.4844 H   0  0  0  0  0  0  0  0  0  0  0  0
   -9.1311   17.0017  -34.7335 H   0  0  0  0  0  0  0  0  0  0  0  0
   -9.2425   17.7151  -36.3328 H   0  0  0  0  0  0  0  0  0  0  0  0
   -7.6720   17.6658  -35.5015 H   0  0  0  0  0  0  0  0  0  0  0  0
   -8.0669   14.7467  -34.3973 H   0  0  0  0  0  0  0  0  0  0  0  0
   -7.3581   13.8645  -35.7672 H   0  0  0  0  0  0  0  0  0  0  0  0
   -6.5648   15.3126  -35.1071 H   0  0  0  0  0  0  0  0  0  0  0  0
  -10.7399   12.7804  -38.4211 H   0  0  0  0  0  0  0  0  0  0  0  0
  -12.0984   17.2828  -41.0006 H   0  0  0  0  0  0  0  0  0  0  0  0
  -10.9530   14.9740  -40.5221 H   0  0  0  0  0  0  0  0  0  0  0  0
  1 13  1  0  0  0  0
  1 14  2  0  0  0  0
  1 17  1  0  0  0  0
  2  3  1  0  0  0  0
  2  5  1  0  0  0  0
  3  8  1  0  0  0  0
  4  5  1  0  0  0  0
  4  8  1  0  0  0  0
  5  6  1  0  0  0  0
  6  7  1  0  0  0  0
  6 15  1  1  0  0  0
  7  8  1  0  0  0  0
  7 16  1  1  0  0  0
  8 13  1  0  0  0  0
  9 12  1  0  0  0  0
 10 12  1  0  0  0  0
 11 12  1  0  0  0  0
 12 17  1  0  0  0  0
  2 18  1  0  0  0  0
  2 19  1  0  0  0  0
  3 20  1  0  0  0  0
  3 21  1  0  0  0  0
  4 22  1  0  0  0  0
  4 23  1  0  0  0  0
  5 24  1  0  0  0  0
  6 25  1  0  0  0  0
  7 26  1  0  0  0  0
  9 27  1  0  0  0  0
  9 28  1  0  0  0  0
  9 29  1  0  0  0  0
 10 30  1  0  0  0  0
 10 31  1  0  0  0  0
 10 32  1  0  0  0  0
 11 33  1  0  0  0  0
 11 34  1  0  0  0  0
 11 35  1  0  0  0  0
 13 36  1  0  0  0  0
 15 37  1  0  0  0  0
 16 38  1  0  0  0  0
M  END
> <id>
EN300-28228706

> <smiles>
CC(C)(C)OC(=O)NC1(CCC2C1)[C@@H](O)[C@H]2O |&1:13,15,r|

> <IUPAC Name>
rac-tert-butyl N-[(2R,3S)-2,3-dihydroxybicyclo[2.2.1]heptan-1-yl]carbamate

> <CAS>
2731011-45-1

> <URL>
https://www.enaminestore.com/catalog/EN300-28228706

> <ROCS_ShapeQuery>
__x1247relevant_x1083L0AP1_x1305L0BP1_

> <ROCS_TanimotoCombo>
0.720 

> <ROCS_ShapeTanimoto>
0.506 

> <ROCS_ColorTanimoto>
0.214 

> <ROCS_RefTversky>
0.435 

> <ROCS_RefColorTversky>
0.253 

> <ROCS_RefTverskyCombo>
0.689 

> <ROCS_FitTversky>
1.472 

> <ROCS_FitColorTversky>
0.580 

> <ROCS_FitTverskyCombo>
2.052 

> <ROCS_ColorScore>
-8.318

> <ROCS_Overlap>
1283.438

> <ROCS_Rank>
337                 

$$$$
untitled-dbase-168784_1094
  -OEChem-06232314393D

 38 39  0     1  0  0  0  0  0999 V2000
  -12.2196   15.6914  -35.5324 C   0  0  0  0  0  0  0  0  0  0  0  0
   -9.7727   14.9302  -37.4445 C   0  0  0  0  0  0  0  0  0  0  0  0
  -13.2973   14.1910  -37.9847 C   0  0  0  0  0  0  0  0  0  0  0  0
  -12.0492   15.9787  -36.9933 C   0  0  2  0  0  0  0  0  0  0  0  0
  -13.3380   15.7238  -37.8014 C   0  0  1  0  0  0  0  0  0  0  0  0
  -11.8975   14.2177  -38.5885 C   0  0  1  0  0  0  0  0  0  0  0  0
  -13.0874   16.2092  -39.2517 C   0  0  1  0  0  0  0  0  0  0  0  0
  -12.1456   15.1208  -39.8177 C   0  0  1  0  0  0  0  0  0  0  0  0
   -8.3981   13.6464  -35.2926 C   0  0  0  0  0  0  0  0  0  0  0  0
   -7.7732   11.8949  -36.9811 C   0  0  0  0  0  0  0  0  0  0  0  0
   -6.9920   14.2622  -37.2872 C   0  0  0  0  0  0  0  0  0  0  0  0
   -8.1168   13.3676  -36.7684 C   0  0  0  0  0  0  0  0  0  0  0  0
  -11.1477   14.9895  -37.5853 N   0  0  0  0  0  0  0  0  0  0  0  0
  -12.9294   16.3299  -34.7697 O   0  0  0  0  0  0  0  0  0  0  0  0
   -9.0537   15.9117  -37.2719 O   0  0  0  0  0  0  0  0  0  0  0  0
  -11.4732   14.6213  -35.1647 O   0  0  0  0  0  0  0  0  0  0  0  0
  -14.3047   16.2107  -39.9854 O   0  0  0  0  0  0  0  0  0  0  0  0
  -10.9489   15.6829  -40.3231 O   0  0  0  0  0  0  0  0  0  0  0  0
   -9.3039   13.6463  -37.5190 O   0  0  0  0  0  0  0  0  0  0  0  0
  -13.3518   13.6327  -37.0449 H   0  0  0  0  0  0  0  0  0  0  0  0
  -14.0647   13.8149  -38.6699 H   0  0  0  0  0  0  0  0  0  0  0  0
  -11.6451   16.9913  -37.1148 H   0  0  0  0  0  0  0  0  0  0  0  0
  -14.2621   16.0864  -37.3450 H   0  0  0  0  0  0  0  0  0  0  0  0
  -11.4249   13.2607  -38.8180 H   0  0  0  0  0  0  0  0  0  0  0  0
  -12.6582   17.2163  -39.2901 H   0  0  0  0  0  0  0  0  0  0  0  0
  -12.6255   14.5538  -40.6234 H   0  0  0  0  0  0  0  0  0  0  0  0
   -8.6452   14.7025  -35.1358 H   0  0  0  0  0  0  0  0  0  0  0  0
   -9.2261   13.0361  -34.9175 H   0  0  0  0  0  0  0  0  0  0  0  0
   -7.5123   13.4419  -34.6803 H   0  0  0  0  0  0  0  0  0  0  0  0
   -7.5707   11.6903  -38.0386 H   0  0  0  0  0  0  0  0  0  0  0  0
   -8.6152   11.2528  -36.6983 H   0  0  0  0  0  0  0  0  0  0  0  0
   -6.8974   11.5958  -36.3962 H   0  0  0  0  0  0  0  0  0  0  0  0
   -6.7900   14.0624  -38.3457 H   0  0  0  0  0  0  0  0  0  0  0  0
   -7.2371   15.3235  -37.1764 H   0  0  0  0  0  0  0  0  0  0  0  0
   -6.0570   14.0629  -36.7511 H   0  0  0  0  0  0  0  0  0  0  0  0
  -11.5697   14.4180  -34.2099 H   0  0  0  0  0  0  0  0  0  0  0  0
  -14.0919   16.5208  -40.8804 H   0  0  0  0  0  0  0  0  0  0  0  0
  -10.5579   16.2141  -39.6082 H   0  0  0  0  0  0  0  0  0  0  0  0
  1  4  1  0  0  0  0
  1 14  2  0  0  0  0
  1 16  1  0  0  0  0
  2 13  1  0  0  0  0
  2 15  2  0  0  0  0
  2 19  1  0  0  0  0
  3  5  1  0  0  0  0
  3  6  1  0  0  0  0
  4  5  1  0  0  0  0
  4 13  1  0  0  0  0
  5  7  1  0  0  0  0
  6  8  1  0  0  0  0
  6 13  1  0  0  0  0
  7  8  1  0  0  0  0
  7 17  1  0  0  0  0
  8 18  1  0  0  0  0
  9 12  1  0  0  0  0
 10 12  1  0  0  0  0
 11 12  1  0  0  0  0
 12 19  1  0  0  0  0
  3 20  1  0  0  0  0
  3 21  1  0  0  0  0
  4 22  1  0  0  0  0
  5 23  1  0  0  0  0
  6 24  1  0  0  0  0
  7 25  1  0  0  0  0
  8 26  1  0  0  0  0
  9 27  1  0  0  0  0
  9 28  1  0  0  0  0
  9 29  1  0  0  0  0
 10 30  1  0  0  0  0
 10 31  1  0  0  0  0
 10 32  1  0  0  0  0
 11 33  1  0  0  0  0
 11 34  1  0  0  0  0
 11 35  1  0  0  0  0
 16 36  1  0  0  0  0
 17 37  1  0  0  0  0
 18 38  1  0  0  0  0
M  END
> <id>
EN300-6493962

> <smiles>
CC(C)(C)OC(=O)N1C(C2CC1C(O)C2O)C(=O)O

> <MDLNUMBER>
MFCD31736400

> <IUPAC Name>
2-[(tert-butoxy)carbonyl]-5,6-dihydroxy-2-azabicyclo[2.2.1]heptane-3-carboxylic acid

> <CAS>
2247102-39-0

> <Purity>
95

> <URL>
https://www.enaminestore.com/catalog/EN300-6493962

> <ROCS_ShapeQuery>
__x1247relevant_x1083L0AP1_x1305L0BP1_

> <ROCS_TanimotoCombo>
0.720 

> <ROCS_ShapeTanimoto>
0.484 

> <ROCS_ColorTanimoto>
0.236 

> <ROCS_RefTversky>
0.433 

> <ROCS_RefColorTversky>
0.286 

> <ROCS_RefTverskyCombo>
0.719 

> <ROCS_FitTversky>
1.319 

> <ROCS_FitColorTversky>
0.577 

> <ROCS_FitTverskyCombo>
1.896 

> <ROCS_ColorScore>
-9.402

> <ROCS_Overlap>
1279.330

> <ROCS_Rank>
338                 

$$$$
untitled-dbase-127348_2
  -OEChem-06232314393D

 25 26  0     1  0  0  0  0  0999 V2000
  -14.1085   16.0273  -38.6575 C   0  0  0  0  0  0  0  0  0  0  0  0
  -13.1416   15.8291  -39.8254 C   0  0  0  0  0  0  0  0  0  0  0  0
  -12.2124   15.7757  -37.0230 C   0  0  0  0  0  0  0  0  0  0  0  0
  -11.2337   15.6089  -38.1972 C   0  0  2  0  0  0  0  0  0  0  0  0
  -13.4889   15.1433  -37.5774 C   0  0  2  0  0  0  0  0  0  0  0  0
  -12.1076   14.8760  -39.2262 C   0  0  1  0  0  0  0  0  0  0  0  0
  -10.0137   14.7846  -37.7983 C   0  0  1  0  0  0  0  0  0  0  0  0
   -9.2490   15.4413  -36.6616 C   0  0  0  0  0  0  0  0  0  0  0  0
  -10.4416   13.4459  -37.3966 N   0  0  0  0  0  0  0  0  0  0  0  0
  -12.9465   14.0631  -38.3710 O   0  0  0  0  0  0  0  0  0  0  0  0
   -8.8182   16.6720  -37.0199 F   0  0  0  0  0  0  0  0  0  0  0  0
  -10.0110   15.5803  -35.5554 F   0  0  0  0  0  0  0  0  0  0  0  0
   -8.1582   14.7173  -36.3249 F   0  0  0  0  0  0  0  0  0  0  0  0
  -14.2043   17.0734  -38.3526 H   0  0  0  0  0  0  0  0  0  0  0  0
  -15.1006   15.6562  -38.9380 H   0  0  0  0  0  0  0  0  0  0  0  0
  -13.6688   15.3502  -40.6585 H   0  0  0  0  0  0  0  0  0  0  0  0
  -12.7052   16.7648  -40.1863 H   0  0  0  0  0  0  0  0  0  0  0  0
  -11.8688   15.2252  -36.1400 H   0  0  0  0  0  0  0  0  0  0  0  0
  -12.3538   16.8231  -36.7384 H   0  0  0  0  0  0  0  0  0  0  0  0
  -10.8929   16.5779  -38.5785 H   0  0  0  0  0  0  0  0  0  0  0  0
  -14.1909   14.7940  -36.8171 H   0  0  0  0  0  0  0  0  0  0  0  0
  -11.5643   14.2797  -39.9632 H   0  0  0  0  0  0  0  0  0  0  0  0
   -9.3494   14.6944  -38.6653 H   0  0  0  0  0  0  0  0  0  0  0  0
  -10.9202   13.0319  -38.1607 H   0  0  0  0  0  0  0  0  0  0  0  0
   -9.6331   12.9209  -37.1619 H   0  0  0  0  0  0  0  0  0  0  0  0
  1  2  1  0  0  0  0
  1  5  1  0  0  0  0
  2  6  1  0  0  0  0
  3  4  1  0  0  0  0
  3  5  1  0  0  0  0
  4  6  1  0  0  0  0
  4  7  1  0  0  0  0
  5 10  1  0  0  0  0
  6 10  1  0  0  0  0
  7  8  1  0  0  0  0
  7  9  1  0  0  0  0
  8 11  1  0  0  0  0
  8 12  1  0  0  0  0
  8 13  1  0  0  0  0
  1 14  1  0  0  0  0
  1 15  1  0  0  0  0
  2 16  1  0  0  0  0
  2 17  1  0  0  0  0
  3 18  1  0  0  0  0
  3 19  1  0  0  0  0
  4 20  1  0  0  0  0
  5 21  1  0  0  0  0
  6 22  1  0  0  0  0
  7 23  1  0  0  0  0
  9 24  1  0  0  0  0
  9 25  1  0  0  0  0
M  END
> <id>
EN300-1932956

> <smiles>
NC(C1CC2CCC1O2)C(F)(F)F

> <IUPAC Name>
2,2,2-trifluoro-1-{7-oxabicyclo[2.2.1]heptan-2-yl}ethan-1-amine

> <CAS>
2167076-63-1

> <URL>
https://www.enaminestore.com/catalog/EN300-1932956

> <ROCS_ShapeQuery>
__x1247relevant_x1083L0AP1_x1305L0BP1_

> <ROCS_TanimotoCombo>
0.720 

> <ROCS_ShapeTanimoto>
0.466 

> <ROCS_ColorTanimoto>
0.254 

> <ROCS_RefTversky>
0.395 

> <ROCS_RefColorTversky>
0.268 

> <ROCS_RefTverskyCombo>
0.663 

> <ROCS_FitTversky>
1.630 

> <ROCS_FitColorTversky>
0.826 

> <ROCS_FitTverskyCombo>
2.456 

> <ROCS_ColorScore>
-8.739

> <ROCS_Overlap>
1161.734

> <ROCS_Rank>
339                 

$$$$
untitled-dbase-97667_0
  -OEChem-06232314393D

 22 24  0     1  0  0  0  0  0999 V2000
  -10.3585   15.0060  -36.7549 C   0  0  0  0  0  0  0  0  0  0  0  0
  -11.2130   14.5128  -39.1031 C   0  0  0  0  0  0  0  0  0  0  0  0
  -11.3425   14.2494  -37.5879 C   0  0  2  0  0  0  0  0  0  0  0  0
  -12.6503   14.9124  -39.4745 C   0  0  2  0  0  0  0  0  0  0  0  0
  -12.8048   14.6347  -37.3291 C   0  0  1  0  0  0  0  0  0  0  0  0
  -12.9934   16.2952  -38.9872 C   0  0  1  0  0  0  0  0  0  0  0  0
  -13.0896   16.1087  -37.5022 C   0  0  2  0  0  0  0  0  0  0  0  0
   -9.6883   15.3886  -34.5215 C   0  0  0  0  0  0  0  0  0  0  0  0
   -9.5057   15.7546  -37.2127 O   0  0  0  0  0  0  0  0  0  0  0  0
  -13.3937   14.0872  -38.5414 O   0  0  0  0  0  0  0  0  0  0  0  0
  -12.1044   16.9529  -38.0932 O   0  0  0  0  0  0  0  0  0  0  0  0
  -10.5673   14.7270  -35.4368 O   0  0  0  0  0  0  0  0  0  0  0  0
  -10.4746   15.2749  -39.3711 H   0  0  0  0  0  0  0  0  0  0  0  0
  -10.9433   13.5770  -39.6063 H   0  0  0  0  0  0  0  0  0  0  0  0
  -11.1914   13.1803  -37.3970 H   0  0  0  0  0  0  0  0  0  0  0  0
  -12.9339   14.7113  -40.5099 H   0  0  0  0  0  0  0  0  0  0  0  0
  -13.2492   14.1912  -36.4349 H   0  0  0  0  0  0  0  0  0  0  0  0
  -13.7888   16.8158  -39.4953 H   0  0  0  0  0  0  0  0  0  0  0  0
  -13.9484   16.5066  -36.9861 H   0  0  0  0  0  0  0  0  0  0  0  0
   -9.9397   15.0974  -33.4987 H   0  0  0  0  0  0  0  0  0  0  0  0
   -9.7866   16.4708  -34.6382 H   0  0  0  0  0  0  0  0  0  0  0  0
   -8.6595   15.0925  -34.7397 H   0  0  0  0  0  0  0  0  0  0  0  0
  1  3  1  1  0  0  0
  1  9  2  0  0  0  0
  1 12  1  0  0  0  0
  2  3  1  0  0  0  0
  2  4  1  1  0  0  0
  3  5  1  0  0  0  0
  4  6  1  0  0  0  0
  4 10  1  0  0  0  0
  5  7  1  0  0  0  0
  5 10  1  6  0  0  0
  6  7  1  0  0  0  0
  6 11  1  1  0  0  0
  7 11  1  1  0  0  0
  8 12  1  0  0  0  0
  2 13  1  0  0  0  0
  2 14  1  0  0  0  0
  3 15  1  0  0  0  0
  4 16  1  0  0  0  0
  5 17  1  0  0  0  0
  6 18  1  0  0  0  0
  7 19  1  0  0  0  0
  8 20  1  0  0  0  0
  8 21  1  0  0  0  0
  8 22  1  0  0  0  0
M  END
> <id>
EN300-366804

> <smiles>
COC(=O)[C@@H]1C[C@H]2O[C@@H]1[C@H]3O[C@H]32 |&1:4,6,8,9,11,r|

> <IUPAC Name>
rac-methyl (1R,2S,4R,5S,6R)-3,8-dioxatricyclo[3.2.1.0,2,4]octane-6-carboxylate

> <CAS>
785807-06-9

> <Purity>
95

> <URL>
https://www.enaminestore.com/catalog/EN300-366804

> <MP>
75-76

> <ROCS_ShapeQuery>
__x1247relevant_x1083L0AP1_x1305L0BP1_

> <ROCS_TanimotoCombo>
0.719 

> <ROCS_ShapeTanimoto>
0.451 

> <ROCS_ColorTanimoto>
0.268 

> <ROCS_RefTversky>
0.383 

> <ROCS_RefColorTversky>
0.346 

> <ROCS_RefTverskyCombo>
0.729 

> <ROCS_FitTversky>
1.646 

> <ROCS_FitColorTversky>
0.543 

> <ROCS_FitTverskyCombo>
2.189 

> <ROCS_ColorScore>
-11.481

> <ROCS_Overlap>
1126.991

> <ROCS_Rank>
340                 

$$$$
untitled-dbase-90828_1
  -OEChem-06232314393D

 32 34  0     1  0  0  0  0  0999 V2000
   -9.9845   15.2269  -36.6051 C   0  0  0  0  0  0  0  0  0  0  0  0
  -12.3313   16.0266  -36.7031 C   0  0  0  0  0  0  0  0  0  0  0  0
  -13.3311   16.7212  -38.8971 C   0  0  0  0  0  0  0  0  0  0  0  0
  -14.0901   14.6058  -37.7864 C   0  0  0  0  0  0  0  0  0  0  0  0
  -10.9517   15.9170  -38.7997 C   0  0  0  0  0  0  0  0  0  0  0  0
  -11.7189   13.8001  -37.6876 C   0  0  0  0  0  0  0  0  0  0  0  0
  -12.7163   14.4923  -39.8810 C   0  0  0  0  0  0  0  0  0  0  0  0
  -13.6207   16.0485  -37.5429 C   0  0  1  0  0  0  0  0  0  0  0  0
  -11.2313   15.2397  -37.4422 C   0  0  1  0  0  0  0  0  0  0  0  0
  -12.2343   15.9451  -39.6660 C   0  0  1  0  0  0  0  0  0  0  0  0
  -12.9997   13.8253  -38.5294 C   0  0  2  0  0  0  0  0  0  0  0  0
  -11.9527   16.6163  -41.0124 C   0  0  0  0  0  0  0  0  0  0  0  0
   -8.9038   15.6822  -36.9487 O   0  0  0  0  0  0  0  0  0  0  0  0
  -10.2178   14.6356  -35.4079 O   0  0  0  0  0  0  0  0  0  0  0  0
  -13.4230   12.5538  -38.7381 F   0  0  0  0  0  0  0  0  0  0  0  0
  -11.9980   17.0536  -36.5032 H   0  0  0  0  0  0  0  0  0  0  0  0
  -12.5320   15.5735  -35.7232 H   0  0  0  0  0  0  0  0  0  0  0  0
  -14.2529   16.7624  -39.4916 H   0  0  0  0  0  0  0  0  0  0  0  0
  -13.0158   17.7596  -38.7323 H   0  0  0  0  0  0  0  0  0  0  0  0
  -14.3230   14.1112  -36.8352 H   0  0  0  0  0  0  0  0  0  0  0  0
  -15.0201   14.5966  -38.3681 H   0  0  0  0  0  0  0  0  0  0  0  0
  -10.5814   16.9394  -38.6422 H   0  0  0  0  0  0  0  0  0  0  0  0
  -10.1499   15.3822  -39.3271 H   0  0  0  0  0  0  0  0  0  0  0  0
  -10.9471   13.2065  -38.1953 H   0  0  0  0  0  0  0  0  0  0  0  0
  -11.9071   13.2810  -36.7384 H   0  0  0  0  0  0  0  0  0  0  0  0
  -13.6225   14.4704  -40.5003 H   0  0  0  0  0  0  0  0  0  0  0  0
  -11.9649   13.9098  -40.4298 H   0  0  0  0  0  0  0  0  0  0  0  0
  -14.3991   16.6069  -37.0114 H   0  0  0  0  0  0  0  0  0  0  0  0
  -11.1813   16.0626  -41.5429 H   0  0  0  0  0  0  0  0  0  0  0  0
  -11.6141   17.6368  -40.8486 H   0  0  0  0  0  0  0  0  0  0  0  0
  -12.8607   16.6306  -41.6110 H   0  0  0  0  0  0  0  0  0  0  0  0
   -9.4137   14.6156  -34.8463 H   0  0  0  0  0  0  0  0  0  0  0  0
  1  9  1  0  0  0  0
  1 13  2  0  0  0  0
  1 14  1  0  0  0  0
  2  8  1  0  0  0  0
  2  9  1  0  0  0  0
  3  8  1  0  0  0  0
  3 10  1  0  0  0  0
  4  8  1  0  0  0  0
  4 11  1  0  0  0  0
  5  9  1  0  0  0  0
  5 10  1  0  0  0  0
  6  9  1  0  0  0  0
  6 11  1  0  0  0  0
  7 10  1  0  0  0  0
  7 11  1  0  0  0  0
 10 12  1  0  0  0  0
 11 15  1  0  0  0  0
  2 16  1  0  0  0  0
  2 17  1  0  0  0  0
  3 18  1  0  0  0  0
  3 19  1  0  0  0  0
  4 20  1  0  0  0  0
  4 21  1  0  0  0  0
  5 22  1  0  0  0  0
  5 23  1  0  0  0  0
  6 24  1  0  0  0  0
  6 25  1  0  0  0  0
  7 26  1  0  0  0  0
  7 27  1  0  0  0  0
  8 28  1  0  0  0  0
 12 29  1  0  0  0  0
 12 30  1  0  0  0  0
 12 31  1  0  0  0  0
 14 32  1  0  0  0  0
M  END
> <id>
EN300-2008199

> <smiles>
CC1(CC2CC3(F)C1)CC(C2)(C3)C(=O)O

> <MDLNUMBER>
MFCD32199254

> <IUPAC Name>
3-fluoro-5-methyladamantane-1-carboxylic acid

> <CAS>
2377034-94-9

> <Purity>
95

> <URL>
https://www.enaminestore.com/catalog/EN300-2008199

> <ROCS_ShapeQuery>
__x1247relevant_x1083L0AP1_x1305L0BP1_

> <ROCS_TanimotoCombo>
0.719 

> <ROCS_ShapeTanimoto>
0.507 

> <ROCS_ColorTanimoto>
0.213 

> <ROCS_RefTversky>
0.428 

> <ROCS_RefColorTversky>
0.233 

> <ROCS_RefTverskyCombo>
0.661 

> <ROCS_FitTversky>
1.571 

> <ROCS_FitColorTversky>
0.710 

> <ROCS_FitTverskyCombo>
2.280 

> <ROCS_ColorScore>
-7.595

> <ROCS_Overlap>
1260.531

> <ROCS_Rank>
341                 

$$$$
untitled-dbase-155856_54
  -OEChem-06232314393D

 32 34  0     0  0  0  0  0  0999 V2000
  -11.2430   15.3004  -36.1424 C   0  0  0  0  0  0  0  0  0  0  0  0
  -10.4517   13.9488  -38.1412 C   0  0  0  0  0  0  0  0  0  0  0  0
  -13.2743   14.3776  -39.2996 C   0  0  0  0  0  0  0  0  0  0  0  0
  -13.9675   15.5150  -37.6979 C   0  0  0  0  0  0  0  0  0  0  0  0
   -9.8392   15.9093  -36.0242 C   0  0  0  0  0  0  0  0  0  0  0  0
   -9.1922   13.9239  -37.2686 C   0  0  0  0  0  0  0  0  0  0  0  0
  -12.9607   14.3200  -37.7702 C   0  0  0  0  0  0  0  0  0  0  0  0
  -11.5462   14.8703  -37.5759 C   0  0  0  0  0  0  0  0  0  0  0  0
  -13.0490   15.9075  -38.9305 C   0  0  0  0  0  0  0  0  0  0  0  0
  -13.4360   17.0044  -39.8743 C   0  0  0  0  0  0  0  0  0  0  0  0
   -8.8221   15.2715  -36.8612 N   0  0  0  0  0  0  0  0  0  0  0  0
  -13.4422   13.1295  -37.1196 N   0  0  0  0  0  0  0  0  0  0  0  0
  -11.6788   16.0380  -38.4262 O   0  0  0  0  0  0  0  0  0  0  0  0
  -12.4269   17.1581  -40.8686 O   0  0  0  0  0  0  0  0  0  0  0  0
  -11.3181   14.4396  -35.4666 H   0  0  0  0  0  0  0  0  0  0  0  0
  -11.9573   16.0503  -35.7873 H   0  0  0  0  0  0  0  0  0  0  0  0
  -10.1498   14.2642  -39.1498 H   0  0  0  0  0  0  0  0  0  0  0  0
  -10.8457   12.9251  -38.2395 H   0  0  0  0  0  0  0  0  0  0  0  0
  -12.5454   13.9385  -39.9848 H   0  0  0  0  0  0  0  0  0  0  0  0
  -14.2805   14.0942  -39.6334 H   0  0  0  0  0  0  0  0  0  0  0  0
  -15.0247   15.3142  -37.9129 H   0  0  0  0  0  0  0  0  0  0  0  0
  -13.9113   16.1737  -36.8276 H   0  0  0  0  0  0  0  0  0  0  0  0
   -9.8790   16.9971  -36.2456 H   0  0  0  0  0  0  0  0  0  0  0  0
   -9.5138   15.8435  -34.9664 H   0  0  0  0  0  0  0  0  0  0  0  0
   -9.3909   13.3236  -36.3774 H   0  0  0  0  0  0  0  0  0  0  0  0
   -8.3675   13.4461  -37.8052 H   0  0  0  0  0  0  0  0  0  0  0  0
  -13.5461   17.9640  -39.3483 H   0  0  0  0  0  0  0  0  0  0  0  0
  -14.3847   16.7786  -40.3826 H   0  0  0  0  0  0  0  0  0  0  0  0
   -7.9369   15.2368  -36.3426 H   0  0  0  0  0  0  0  0  0  0  0  0
  -12.6715   12.6360  -36.7183 H   0  0  0  0  0  0  0  0  0  0  0  0
  -14.0882   13.3833  -36.4007 H   0  0  0  0  0  0  0  0  0  0  0  0
  -11.6077   17.3799  -40.3991 H   0  0  0  0  0  0  0  0  0  0  0  0
  1  5  1  0  0  0  0
  1  8  1  0  0  0  0
  2  6  1  0  0  0  0
  2  8  1  0  0  0  0
  3  7  1  0  0  0  0
  3  9  1  0  0  0  0
  4  7  1  0  0  0  0
  4  9  1  0  0  0  0
  5 11  1  0  0  0  0
  6 11  1  0  0  0  0
  7  8  1  0  0  0  0
  7 12  1  0  0  0  0
  8 13  1  0  0  0  0
  9 10  1  0  0  0  0
  9 13  1  0  0  0  0
 10 14  1  0  0  0  0
  1 15  1  0  0  0  0
  1 16  1  0  0  0  0
  2 17  1  0  0  0  0
  2 18  1  0  0  0  0
  3 19  1  0  0  0  0
  3 20  1  0  0  0  0
  4 21  1  0  0  0  0
  4 22  1  0  0  0  0
  5 23  1  0  0  0  0
  5 24  1  0  0  0  0
  6 25  1  0  0  0  0
  6 26  1  0  0  0  0
 10 27  1  0  0  0  0
 10 28  1  0  0  0  0
 11 29  1  0  0  0  0
 12 30  1  0  0  0  0
 12 31  1  0  0  0  0
 14 32  1  0  0  0  0
M  END
> <id>
EN300-28272181

> <smiles>
NC1(CC2(CO)C1)C3(CCNCC3)O2

> <IUPAC Name>
{1-amino-3-oxaspiro[bicyclo[2.1.1]hexane-2,4'-piperidin]-4-yl}methanol

> <CAS>
2680824-62-6

> <URL>
https://www.enaminestore.com/catalog/EN300-28272181

> <ROCS_ShapeQuery>
__x1247relevant_x1083L0AP1_x1305L0BP1_

> <ROCS_TanimotoCombo>
0.719 

> <ROCS_ShapeTanimoto>
0.512 

> <ROCS_ColorTanimoto>
0.207 

> <ROCS_RefTversky>
0.425 

> <ROCS_RefColorTversky>
0.254 

> <ROCS_RefTverskyCombo>
0.678 

> <ROCS_FitTversky>
1.669 

> <ROCS_FitColorTversky>
0.532 

> <ROCS_FitTverskyCombo>
2.200 

> <ROCS_ColorScore>
-8.344

> <ROCS_Overlap>
1249.239

> <ROCS_Rank>
342                 

$$$$
untitled-dbase-90301_2
  -OEChem-06232314393D

 35 37  0     1  0  0  0  0  0999 V2000
   -9.9848   15.2300  -36.6036 C   0  0  0  0  0  0  0  0  0  0  0  0
  -12.3410   16.0407  -36.7086 C   0  0  0  0  0  0  0  0  0  0  0  0
  -11.7127   13.8086  -37.6754 C   0  0  0  0  0  0  0  0  0  0  0  0
  -10.9484   15.9217  -38.7943 C   0  0  0  0  0  0  0  0  0  0  0  0
  -14.0935   14.6075  -37.8006 C   0  0  0  0  0  0  0  0  0  0  0  0
  -13.3210   16.7204  -38.9194 C   0  0  0  0  0  0  0  0  0  0  0  0
  -12.6948   14.4926  -39.8843 C   0  0  0  0  0  0  0  0  0  0  0  0
  -11.2337   15.2541  -37.4378 C   0  0  0  0  0  0  0  0  0  0  0  0
  -13.6349   16.0658  -37.5561 C   0  0  2  0  0  0  0  0  0  0  0  0
  -12.9976   13.7995  -38.5373 C   0  0  1  0  0  0  0  0  0  0  0  0
  -12.2241   15.9311  -39.6424 C   0  0  0  0  0  0  0  0  0  0  0  0
  -14.7300   16.8519  -36.8300 C   0  0  0  0  0  0  0  0  0  0  0  0
  -13.4674   12.3617  -38.7746 C   0  0  0  0  0  0  0  0  0  0  0  0
   -8.9022   15.6806  -36.9476 O   0  0  0  0  0  0  0  0  0  0  0  0
  -10.2187   14.6345  -35.4086 O   0  0  0  0  0  0  0  0  0  0  0  0
  -11.9624   16.5214  -40.8355 F   0  0  0  0  0  0  0  0  0  0  0  0
  -12.5420   15.5887  -35.7276 H   0  0  0  0  0  0  0  0  0  0  0  0
  -12.0010   17.0656  -36.5057 H   0  0  0  0  0  0  0  0  0  0  0  0
  -10.9220   13.2271  -38.1694 H   0  0  0  0  0  0  0  0  0  0  0  0
  -11.8984   13.3107  -36.7137 H   0  0  0  0  0  0  0  0  0  0  0  0
  -10.5814   16.9475  -38.6566 H   0  0  0  0  0  0  0  0  0  0  0  0
  -10.1475   15.3965  -39.3314 H   0  0  0  0  0  0  0  0  0  0  0  0
  -14.3315   14.1258  -36.8427 H   0  0  0  0  0  0  0  0  0  0  0  0
  -15.0201   14.6023  -38.3905 H   0  0  0  0  0  0  0  0  0  0  0  0
  -14.2203   16.7630  -39.5476 H   0  0  0  0  0  0  0  0  0  0  0  0
  -12.9997   17.7617  -38.7867 H   0  0  0  0  0  0  0  0  0  0  0  0
  -11.9261   13.9415  -40.4416 H   0  0  0  0  0  0  0  0  0  0  0  0
  -13.5840   14.4984  -40.5281 H   0  0  0  0  0  0  0  0  0  0  0  0
  -15.6339   16.8627  -37.4346 H   0  0  0  0  0  0  0  0  0  0  0  0
  -14.3967   17.8735  -36.6632 H   0  0  0  0  0  0  0  0  0  0  0  0
  -14.9431   16.3821  -35.8727 H   0  0  0  0  0  0  0  0  0  0  0  0
  -14.3702   12.3678  -39.3808 H   0  0  0  0  0  0  0  0  0  0  0  0
  -13.6782   11.8842  -37.8205 H   0  0  0  0  0  0  0  0  0  0  0  0
  -12.6903   11.8042  -39.2921 H   0  0  0  0  0  0  0  0  0  0  0  0
   -9.4135   14.6072  -34.8490 H   0  0  0  0  0  0  0  0  0  0  0  0
  1  8  1  0  0  0  0
  1 14  2  0  0  0  0
  1 15  1  0  0  0  0
  2  8  1  0  0  0  0
  2  9  1  0  0  0  0
  3  8  1  0  0  0  0
  3 10  1  0  0  0  0
  4  8  1  0  0  0  0
  4 11  1  0  0  0  0
  5  9  1  0  0  0  0
  5 10  1  0  0  0  0
  6  9  1  0  0  0  0
  6 11  1  0  0  0  0
  7 10  1  0  0  0  0
  7 11  1  0  0  0  0
  9 12  1  0  0  0  0
 10 13  1  0  0  0  0
 11 16  1  0  0  0  0
  2 17  1  0  0  0  0
  2 18  1  0  0  0  0
  3 19  1  0  0  0  0
  3 20  1  0  0  0  0
  4 21  1  0  0  0  0
  4 22  1  0  0  0  0
  5 23  1  0  0  0  0
  5 24  1  0  0  0  0
  6 25  1  0  0  0  0
  6 26  1  0  0  0  0
  7 27  1  0  0  0  0
  7 28  1  0  0  0  0
 12 29  1  0  0  0  0
 12 30  1  0  0  0  0
 12 31  1  0  0  0  0
 13 32  1  0  0  0  0
 13 33  1  0  0  0  0
 13 34  1  0  0  0  0
 15 35  1  0  0  0  0
M  END
> <id>
EN300-270109

> <smiles>
CC1(CC2(C)CC3(F)C1)CC(C2)(C3)C(=O)O

> <IUPAC Name>
3-fluoro-5,7-dimethyladamantane-1-carboxylic acid

> <CAS>
1158076-81-3

> <Purity>
95

> <URL>
https://www.enaminestore.com/catalog/EN300-270109

> <MP>
118-120

> <ROCS_ShapeQuery>
__x1247relevant_x1083L0AP1_x1305L0BP1_

> <ROCS_TanimotoCombo>
0.719 

> <ROCS_ShapeTanimoto>
0.506 

> <ROCS_ColorTanimoto>
0.212 

> <ROCS_RefTversky>
0.432 

> <ROCS_RefColorTversky>
0.233 

> <ROCS_RefTverskyCombo>
0.665 

> <ROCS_FitTversky>
1.510 

> <ROCS_FitColorTversky>
0.710 

> <ROCS_FitTverskyCombo>
2.220 

> <ROCS_ColorScore>
-7.590

> <ROCS_Overlap>
1274.253

> <ROCS_Rank>
343                 

$$$$
untitled-dbase-29692_16
  -OEChem-06232314393D

 29 30  0     1  0  0  0  0  0999 V2000
  -13.4929   15.9611  -39.6562 C   0  0  0  0  0  0  0  0  0  0  0  0
  -14.3361   15.4506  -38.4973 C   0  0  0  0  0  0  0  0  0  0  0  0
  -11.1881   16.1366  -38.6152 C   0  0  0  0  0  0  0  0  0  0  0  0
  -12.6339   15.2613  -36.6285 C   0  0  0  0  0  0  0  0  0  0  0  0
  -12.1352   15.2747  -39.4743 C   0  0  1  0  0  0  0  0  0  0  0  0
  -13.4037   14.5067  -37.7309 C   0  0  2  0  0  0  0  0  0  0  0  0
  -11.3230   15.9255  -37.0941 C   0  0  0  0  0  0  0  0  0  0  0  0
  -12.9582   12.9772  -39.5829 C   0  0  0  0  0  0  0  0  0  0  0  0
  -12.4289   14.0383  -38.7303 N   0  0  0  0  0  0  0  0  0  0  0  0
  -10.1362   13.5549  -37.4203 N   0  0  0  0  0  0  0  0  0  0  0  0
   -8.7136   15.6408  -36.9280 O   0  0  0  0  0  0  0  0  0  0  0  0
  -10.1600   14.6651  -35.1000 O   0  0  0  0  0  0  0  0  0  0  0  0
   -9.9286   14.9733  -36.4989 S   0  0  0  0  0  0  0  0  0  0  0  0
  -13.9522   15.6611  -40.6062 H   0  0  0  0  0  0  0  0  0  0  0  0
  -13.4161   17.0540  -39.6603 H   0  0  0  0  0  0  0  0  0  0  0  0
  -14.7162   16.2668  -37.8731 H   0  0  0  0  0  0  0  0  0  0  0  0
  -15.2042   14.9036  -38.8859 H   0  0  0  0  0  0  0  0  0  0  0  0
  -10.1433   15.9343  -38.9256 H   0  0  0  0  0  0  0  0  0  0  0  0
  -11.3473   17.2081  -38.8447 H   0  0  0  0  0  0  0  0  0  0  0  0
  -13.2876   16.0337  -36.1787 H   0  0  0  0  0  0  0  0  0  0  0  0
  -12.4183   14.5567  -35.8002 H   0  0  0  0  0  0  0  0  0  0  0  0
  -11.6492   15.0830  -40.4471 H   0  0  0  0  0  0  0  0  0  0  0  0
  -13.9665   13.6803  -37.2624 H   0  0  0  0  0  0  0  0  0  0  0  0
  -11.2044   16.8916  -36.5823 H   0  0  0  0  0  0  0  0  0  0  0  0
  -13.1577   12.0826  -38.9746 H   0  0  0  0  0  0  0  0  0  0  0  0
  -13.8929   13.3168  -40.0530 H   0  0  0  0  0  0  0  0  0  0  0  0
  -12.2226   12.7331  -40.3635 H   0  0  0  0  0  0  0  0  0  0  0  0
  -10.9244   12.9402  -37.1825 H   0  0  0  0  0  0  0  0  0  0  0  0
   -9.9391   13.6047  -38.4274 H   0  0  0  0  0  0  0  0  0  0  0  0
  1  2  1  0  0  0  0
  1  5  1  0  0  0  0
  2  6  1  0  0  0  0
  3  5  1  0  0  0  0
  3  7  1  0  0  0  0
  4  6  1  0  0  0  0
  4  7  1  0  0  0  0
  5  9  1  0  0  0  0
  6  9  1  0  0  0  0
  7 13  1  0  0  0  0
  8  9  1  0  0  0  0
 10 13  1  0  0  0  0
 11 13  2  0  0  0  0
 12 13  2  0  0  0  0
  1 14  1  0  0  0  0
  1 15  1  0  0  0  0
  2 16  1  0  0  0  0
  2 17  1  0  0  0  0
  3 18  1  0  0  0  0
  3 19  1  0  0  0  0
  4 20  1  0  0  0  0
  4 21  1  0  0  0  0
  5 22  1  0  0  0  0
  6 23  1  0  0  0  0
  7 24  1  0  0  0  0
  8 25  1  0  0  0  0
  8 26  1  0  0  0  0
  8 27  1  0  0  0  0
 10 28  1  0  0  0  0
 10 29  1  0  0  0  0
M  END
> <id>
EN300-679780

> <smiles>
CN1C2CCC1CC(C2)S(=O)(=O)N

> <MDLNUMBER>
MFCD16671935

> <IUPAC Name>
8-methyl-8-azabicyclo[3.2.1]octane-3-sulfonamide

> <CAS>
1249068-15-2

> <URL>
https://www.enaminestore.com/catalog/EN300-679780

> <ROCS_ShapeQuery>
__x1247relevant_x1083L0AP1_x1305L0BP1_

> <ROCS_TanimotoCombo>
0.719 

> <ROCS_ShapeTanimoto>
0.462 

> <ROCS_ColorTanimoto>
0.257 

> <ROCS_RefTversky>
0.388 

> <ROCS_RefColorTversky>
0.273 

> <ROCS_RefTverskyCombo>
0.662 

> <ROCS_FitTversky>
1.696 

> <ROCS_FitColorTversky>
0.809 

> <ROCS_FitTverskyCombo>
2.505 

> <ROCS_ColorScore>
-8.926

> <ROCS_Overlap>
1140.875

> <ROCS_Rank>
344                 

$$$$
untitled-dbase-90930_266
  -OEChem-06232314393D

 33 34  0     0  0  0  0  0  0999 V2000
  -13.5221   16.3696  -40.1996 C   0  0  0  0  0  0  0  0  0  0  0  0
  -10.0689   15.0718  -36.8141 C   0  0  0  0  0  0  0  0  0  0  0  0
  -12.9373   14.1253  -38.8518 C   0  0  0  0  0  0  0  0  0  0  0  0
  -13.5728   15.6781  -37.6092 C   0  0  0  0  0  0  0  0  0  0  0  0
  -11.3863   16.0627  -38.7257 C   0  0  0  0  0  0  0  0  0  0  0  0
  -12.5246   14.5291  -37.3913 C   0  0  0  0  0  0  0  0  0  0  0  0
  -12.8554   15.6912  -39.0128 C   0  0  0  0  0  0  0  0  0  0  0  0
   -8.4376   13.1552  -37.0167 C   0  0  0  0  0  0  0  0  0  0  0  0
   -8.5342   13.0891  -34.5076 C   0  0  0  0  0  0  0  0  0  0  0  0
  -10.1998   11.7815  -35.8582 C   0  0  0  0  0  0  0  0  0  0  0  0
   -9.3519   13.0511  -35.7968 C   0  0  0  0  0  0  0  0  0  0  0  0
  -11.2187   15.1980  -37.5593 N   0  0  0  0  0  0  0  0  0  0  0  0
  -14.7163   16.3230  -40.4548 O   0  0  0  0  0  0  0  0  0  0  0  0
   -9.0275   15.6817  -37.0442 O   0  0  0  0  0  0  0  0  0  0  0  0
  -12.6078   17.0369  -40.9453 O   0  0  0  0  0  0  0  0  0  0  0  0
  -10.2276   14.1840  -35.7858 O   0  0  0  0  0  0  0  0  0  0  0  0
  -12.2052   13.5376  -39.4142 H   0  0  0  0  0  0  0  0  0  0  0  0
  -13.9264   13.6689  -38.9718 H   0  0  0  0  0  0  0  0  0  0  0  0
  -14.6288   15.3850  -37.5985 H   0  0  0  0  0  0  0  0  0  0  0  0
  -13.4463   16.5700  -36.9874 H   0  0  0  0  0  0  0  0  0  0  0  0
  -10.6922   15.7657  -39.5166 H   0  0  0  0  0  0  0  0  0  0  0  0
  -11.2428   17.1087  -38.4406 H   0  0  0  0  0  0  0  0  0  0  0  0
  -12.6531   13.8226  -36.5743 H   0  0  0  0  0  0  0  0  0  0  0  0
   -9.0207   13.1283  -37.9441 H   0  0  0  0  0  0  0  0  0  0  0  0
   -7.8494   14.0785  -37.0024 H   0  0  0  0  0  0  0  0  0  0  0  0
   -7.7467   12.3054  -37.0611 H   0  0  0  0  0  0  0  0  0  0  0  0
   -9.1862   13.0147  -33.6297 H   0  0  0  0  0  0  0  0  0  0  0  0
   -7.9974   14.0401  -34.4137 H   0  0  0  0  0  0  0  0  0  0  0  0
   -7.8047   12.2738  -34.4677 H   0  0  0  0  0  0  0  0  0  0  0  0
  -10.8557   11.7066  -34.9833 H   0  0  0  0  0  0  0  0  0  0  0  0
  -10.8211   11.7545  -36.7592 H   0  0  0  0  0  0  0  0  0  0  0  0
   -9.5650   10.8880  -35.8461 H   0  0  0  0  0  0  0  0  0  0  0  0
  -13.0185   17.4804  -41.7179 H   0  0  0  0  0  0  0  0  0  0  0  0
  1  7  1  0  0  0  0
  1 13  2  0  0  0  0
  1 15  1  0  0  0  0
  2 12  1  0  0  0  0
  2 14  2  0  0  0  0
  2 16  1  0  0  0  0
  3  6  1  0  0  0  0
  3  7  1  0  0  0  0
  4  6  1  0  0  0  0
  4  7  1  0  0  0  0
  5  7  1  0  0  0  0
  5 12  1  0  0  0  0
  6 12  1  0  0  0  0
  8 11  1  0  0  0  0
  9 11  1  0  0  0  0
 10 11  1  0  0  0  0
 11 16  1  0  0  0  0
  3 17  1  0  0  0  0
  3 18  1  0  0  0  0
  4 19  1  0  0  0  0
  4 20  1  0  0  0  0
  5 21  1  0  0  0  0
  5 22  1  0  0  0  0
  6 23  1  0  0  0  0
  8 24  1  0  0  0  0
  8 25  1  0  0  0  0
  8 26  1  0  0  0  0
  9 27  1  0  0  0  0
  9 28  1  0  0  0  0
  9 29  1  0  0  0  0
 10 30  1  0  0  0  0
 10 31  1  0  0  0  0
 10 32  1  0  0  0  0
 15 33  1  0  0  0  0
M  END
> <id>
EN300-7354076

> <smiles>
CC(C)(C)OC(=O)N1CC2(CC1C2)C(=O)O

> <MDLNUMBER>
MFCD28501912

> <IUPAC Name>
2-[(tert-butoxy)carbonyl]-2-azabicyclo[2.1.1]hexane-4-carboxylic acid

> <CAS>
220598-45-8

> <Purity>
95

> <URL>
https://www.enaminestore.com/catalog/EN300-7354076

> <ROCS_ShapeQuery>
__x1247relevant_x1083L0AP1_x1305L0BP1_

> <ROCS_TanimotoCombo>
0.718 

> <ROCS_ShapeTanimoto>
0.497 

> <ROCS_ColorTanimoto>
0.221 

> <ROCS_RefTversky>
0.426 

> <ROCS_RefColorTversky>
0.252 

> <ROCS_RefTverskyCombo>
0.678 

> <ROCS_FitTversky>
1.511 

> <ROCS_FitColorTversky>
0.641 

> <ROCS_FitTverskyCombo>
2.151 

> <ROCS_ColorScore>
-8.262

> <ROCS_Overlap>
1254.973

> <ROCS_Rank>
345                 

$$$$
untitled-dbase-172328_266
  -OEChem-06232314393D

 33 34  0     0  0  0  0  0  0999 V2000
  -13.5223   16.3696  -40.1996 C   0  0  0  0  0  0  0  0  0  0  0  0
  -10.0687   15.0715  -36.8145 C   0  0  0  0  0  0  0  0  0  0  0  0
  -12.9376   14.1256  -38.8520 C   0  0  0  0  0  0  0  0  0  0  0  0
  -13.5724   15.6782  -37.6087 C   0  0  0  0  0  0  0  0  0  0  0  0
  -11.3864   16.0627  -38.7259 C   0  0  0  0  0  0  0  0  0  0  0  0
  -12.5244   14.5289  -37.3914 C   0  0  0  0  0  0  0  0  0  0  0  0
  -12.8556   15.6916  -39.0125 C   0  0  0  0  0  0  0  0  0  0  0  0
   -8.4371   13.1547  -37.0165 C   0  0  0  0  0  0  0  0  0  0  0  0
   -8.5348   13.0885  -34.5075 C   0  0  0  0  0  0  0  0  0  0  0  0
  -10.1998   11.7809  -35.8588 C   0  0  0  0  0  0  0  0  0  0  0  0
   -9.3519   13.0506  -35.7971 C   0  0  0  0  0  0  0  0  0  0  0  0
  -11.2184   15.1977  -37.5597 N   0  0  0  0  0  0  0  0  0  0  0  0
  -14.7164   16.3227  -40.4550 O   0  0  0  0  0  0  0  0  0  0  0  0
   -9.0275   15.6815  -37.0441 O   0  0  0  0  0  0  0  0  0  0  0  0
  -12.6080   17.0369  -40.9453 O   0  0  0  0  0  0  0  0  0  0  0  0
  -10.2276   14.1835  -35.7864 O   0  0  0  0  0  0  0  0  0  0  0  0
  -12.2057   13.5377  -39.4148 H   0  0  0  0  0  0  0  0  0  0  0  0
  -13.9270   13.6694  -38.9718 H   0  0  0  0  0  0  0  0  0  0  0  0
  -14.6287   15.3854  -37.5977 H   0  0  0  0  0  0  0  0  0  0  0  0
  -13.4456   16.5699  -36.9867 H   0  0  0  0  0  0  0  0  0  0  0  0
  -10.6929   15.7649  -39.5173 H   0  0  0  0  0  0  0  0  0  0  0  0
  -11.2419   17.1085  -38.4414 H   0  0  0  0  0  0  0  0  0  0  0  0
  -12.6527   13.8223  -36.5746 H   0  0  0  0  0  0  0  0  0  0  0  0
   -9.0198   13.1278  -37.9442 H   0  0  0  0  0  0  0  0  0  0  0  0
   -7.8489   14.0780  -37.0019 H   0  0  0  0  0  0  0  0  0  0  0  0
   -7.7463   12.3049  -37.0607 H   0  0  0  0  0  0  0  0  0  0  0  0
   -9.1872   13.0142  -33.6299 H   0  0  0  0  0  0  0  0  0  0  0  0
   -7.9980   14.0395  -34.4133 H   0  0  0  0  0  0  0  0  0  0  0  0
   -7.8053   12.2732  -34.4673 H   0  0  0  0  0  0  0  0  0  0  0  0
  -10.8561   11.7061  -34.9842 H   0  0  0  0  0  0  0  0  0  0  0  0
  -10.8208   11.7541  -36.7601 H   0  0  0  0  0  0  0  0  0  0  0  0
   -9.5651   10.8875  -35.8464 H   0  0  0  0  0  0  0  0  0  0  0  0
  -13.0186   17.4802  -41.7180 H   0  0  0  0  0  0  0  0  0  0  0  0
  1  7  1  6  0  0  0
  1 13  2  0  0  0  0
  1 15  1  0  0  0  0
  2 12  1  0  0  0  0
  2 14  2  0  0  0  0
  2 16  1  0  0  0  0
  3  6  1  1  0  0  0
  3  7  1  0  0  0  0
  4  6  1  0  0  0  0
  4  7  1  0  0  0  0
  5  7  1  0  0  0  0
  5 12  1  0  0  0  0
  6 12  1  0  0  0  0
  8 11  1  0  0  0  0
  9 11  1  0  0  0  0
 10 11  1  0  0  0  0
 11 16  1  0  0  0  0
  3 17  1  0  0  0  0
  3 18  1  0  0  0  0
  4 19  1  0  0  0  0
  4 20  1  0  0  0  0
  5 21  1  0  0  0  0
  5 22  1  0  0  0  0
  6 23  1  0  0  0  0
  8 24  1  0  0  0  0
  8 25  1  0  0  0  0
  8 26  1  0  0  0  0
  9 27  1  0  0  0  0
  9 28  1  0  0  0  0
  9 29  1  0  0  0  0
 10 30  1  0  0  0  0
 10 31  1  0  0  0  0
 10 32  1  0  0  0  0
 15 33  1  0  0  0  0
M  END
> <id>
EN300-28309295

> <smiles>
CC(C)(C)OC(=O)N1C[C@]2(C[C@@H]1C2)C(=O)O

> <IUPAC Name>
(4r)-2-[(tert-butoxy)carbonyl]-2-azabicyclo[2.1.1]hexane-4-carboxylic acid

> <CAS>
220598-45-8

> <URL>
https://www.enaminestore.com/catalog/EN300-28309295

> <ROCS_ShapeQuery>
__x1247relevant_x1083L0AP1_x1305L0BP1_

> <ROCS_TanimotoCombo>
0.718 

> <ROCS_ShapeTanimoto>
0.497 

> <ROCS_ColorTanimoto>
0.221 

> <ROCS_RefTversky>
0.426 

> <ROCS_RefColorTversky>
0.252 

> <ROCS_RefTverskyCombo>
0.678 

> <ROCS_FitTversky>
1.511 

> <ROCS_FitColorTversky>
0.641 

> <ROCS_FitTverskyCombo>
2.151 

> <ROCS_ColorScore>
-8.262

> <ROCS_Overlap>
1254.970

> <ROCS_Rank>
346                 

$$$$
untitled-dbase-53557_0
  -OEChem-06232314393D

 38 40  0     1  0  0  0  0  0999 V2000
  -13.8392   15.2873  -37.2356 C   0  0  0  0  0  0  0  0  0  0  0  0
  -13.7826   14.0234  -38.1250 C   0  0  0  0  0  0  0  0  0  0  0  0
  -11.5400   16.3355  -37.6631 C   0  0  0  0  0  0  0  0  0  0  0  0
  -11.4383   14.2152  -39.1430 C   0  0  0  0  0  0  0  0  0  0  0  0
   -9.1033   14.6645  -35.5945 C   0  0  0  0  0  0  0  0  0  0  0  0
  -10.6031   14.4315  -35.5123 C   0  0  0  0  0  0  0  0  0  0  0  0
  -13.0546   16.4078  -37.9399 C   0  0  1  0  0  0  0  0  0  0  0  0
  -12.9557   14.3546  -39.3798 C   0  0  2  0  0  0  0  0  0  0  0  0
   -9.3198   15.0778  -37.9761 C   0  0  2  0  0  0  0  0  0  0  0  0
  -10.8734   14.9290  -37.8706 C   0  0  0  0  0  0  0  0  0  0  0  0
   -7.1181   14.0323  -38.5513 C   0  0  0  0  0  0  0  0  0  0  0  0
   -8.5873   13.8046  -38.4332 C   0  0  0  0  0  0  0  0  0  0  0  0
   -8.7684   15.5601  -36.6987 N   0  0  0  0  0  0  0  0  0  0  0  0
  -14.7527   16.2099  -39.9634 O   0  0  0  0  0  0  0  0  0  0  0  0
  -12.3285   16.6974  -40.4946 O   0  0  0  0  0  0  0  0  0  0  0  0
  -11.1540   14.0394  -36.7677 O   0  0  0  0  0  0  0  0  0  0  0  0
  -13.3408   16.0732  -39.6712 S   0  0  0  0  0  0  0  0  0  0  0  0
  -14.8895   15.5900  -37.1350 H   0  0  0  0  0  0  0  0  0  0  0  0
  -13.4792   15.0978  -36.2198 H   0  0  0  0  0  0  0  0  0  0  0  0
  -13.3954   13.1537  -37.5867 H   0  0  0  0  0  0  0  0  0  0  0  0
  -14.8067   13.7670  -38.4240 H   0  0  0  0  0  0  0  0  0  0  0  0
  -11.0506   17.0846  -38.2918 H   0  0  0  0  0  0  0  0  0  0  0  0
  -11.3749   16.6507  -36.6242 H   0  0  0  0  0  0  0  0  0  0  0  0
  -11.2059   13.1441  -39.1209 H   0  0  0  0  0  0  0  0  0  0  0  0
  -10.9359   14.6017  -40.0379 H   0  0  0  0  0  0  0  0  0  0  0  0
   -8.7350   15.0928  -34.6489 H   0  0  0  0  0  0  0  0  0  0  0  0
   -8.5869   13.7036  -35.7311 H   0  0  0  0  0  0  0  0  0  0  0  0
  -10.8584   13.6975  -34.7369 H   0  0  0  0  0  0  0  0  0  0  0  0
  -11.1001   15.3658  -35.2192 H   0  0  0  0  0  0  0  0  0  0  0  0
  -13.4492   17.3984  -37.6992 H   0  0  0  0  0  0  0  0  0  0  0  0
  -13.2721   13.7683  -40.2459 H   0  0  0  0  0  0  0  0  0  0  0  0
   -9.1190   15.8542  -38.7418 H   0  0  0  0  0  0  0  0  0  0  0  0
   -6.9309   14.8326  -39.2768 H   0  0  0  0  0  0  0  0  0  0  0  0
   -6.6078   13.1293  -38.9027 H   0  0  0  0  0  0  0  0  0  0  0  0
   -6.6899   14.3377  -37.5907 H   0  0  0  0  0  0  0  0  0  0  0  0
   -8.7825   13.0089  -37.7123 H   0  0  0  0  0  0  0  0  0  0  0  0
   -8.9928   13.4926  -39.3970 H   0  0  0  0  0  0  0  0  0  0  0  0
   -9.1419   16.4942  -36.4947 H   0  0  0  0  0  0  0  0  0  0  0  0
  1  2  1  0  0  0  0
  1  7  1  0  0  0  0
  2  8  1  0  0  0  0
  3  7  1  0  0  0  0
  3 10  1  0  0  0  0
  4  8  1  0  0  0  0
  4 10  1  0  0  0  0
  5  6  1  0  0  0  0
  5 13  1  0  0  0  0
  6 16  1  0  0  0  0
  7 17  1  0  0  0  0
  8 17  1  0  0  0  0
  9 10  1  0  0  0  0
  9 12  1  0  0  0  0
  9 13  1  0  0  0  0
 10 16  1  0  0  0  0
 11 12  1  0  0  0  0
 14 17  2  0  0  0  0
 15 17  2  0  0  0  0
  1 18  1  0  0  0  0
  1 19  1  0  0  0  0
  2 20  1  0  0  0  0
  2 21  1  0  0  0  0
  3 22  1  0  0  0  0
  3 23  1  0  0  0  0
  4 24  1  0  0  0  0
  4 25  1  0  0  0  0
  5 26  1  0  0  0  0
  5 27  1  0  0  0  0
  6 28  1  0  0  0  0
  6 29  1  0  0  0  0
  7 30  1  0  0  0  0
  8 31  1  0  0  0  0
  9 32  1  0  0  0  0
 11 33  1  0  0  0  0
 11 34  1  0  0  0  0
 11 35  1  0  0  0  0
 12 36  1  0  0  0  0
 12 37  1  0  0  0  0
 13 38  1  0  0  0  0
M  END
> <id>
EN300-1639940

> <smiles>
CCC1NCCOC21CC3CCC(C2)S3(=O)=O

> <IUPAC Name>
3'-ethyl-8lambda6-thiaspiro[bicyclo[3.2.1]octane-3,2'-morpholine]-8,8-dione

> <CAS>
2171702-12-6

> <URL>
https://www.enaminestore.com/catalog/EN300-1639940

> <ROCS_ShapeQuery>
__x1247relevant_x1083L0AP1_x1305L0BP1_

> <ROCS_TanimotoCombo>
0.718 

> <ROCS_ShapeTanimoto>
0.504 

> <ROCS_ColorTanimoto>
0.214 

> <ROCS_RefTversky>
0.432 

> <ROCS_RefColorTversky>
0.250 

> <ROCS_RefTverskyCombo>
0.682 

> <ROCS_FitTversky>
1.500 

> <ROCS_FitColorTversky>
0.598 

> <ROCS_FitTverskyCombo>
2.098 

> <ROCS_ColorScore>
-8.213

> <ROCS_Overlap>
1272.099

> <ROCS_Rank>
347                 

$$$$
untitled-dbase-44926_4
  -OEChem-06232314393D

 46 48  0     1  0  0  0  0  0999 V2000
  -13.4213   13.8003  -38.3070 C   0  0  0  0  0  0  0  0  0  0  0  0
  -13.4800   16.0024  -37.2058 C   0  0  0  0  0  0  0  0  0  0  0  0
  -13.2847   14.5425  -39.6459 C   0  0  0  0  0  0  0  0  0  0  0  0
  -13.2348   16.6914  -38.5559 C   0  0  0  0  0  0  0  0  0  0  0  0
  -11.1808   15.4888  -38.9605 C   0  0  0  0  0  0  0  0  0  0  0  0
   -9.8891   15.3685  -35.5998 C   0  0  0  0  0  0  0  0  0  0  0  0
  -12.7552   14.6388  -37.1996 C   0  0  0  0  0  0  0  0  0  0  0  0
   -9.1353   13.5476  -37.1379 C   0  0  2  0  0  0  0  0  0  0  0  0
   -8.6537   14.7537  -36.2747 C   0  0  0  0  0  0  0  0  0  0  0  0
  -11.2458   14.8694  -37.5332 C   0  0  1  0  0  0  0  0  0  0  0  0
   -7.6822   14.2613  -35.1849 C   0  0  0  0  0  0  0  0  0  0  0  0
   -7.9303   15.8448  -37.0937 C   0  0  0  0  0  0  0  0  0  0  0  0
   -6.8366   12.9742  -37.9704 C   0  0  0  0  0  0  0  0  0  0  0  0
   -8.8607   12.0848  -39.1602 C   0  0  0  0  0  0  0  0  0  0  0  0
   -8.2799   13.2567  -38.3755 C   0  0  0  0  0  0  0  0  0  0  0  0
  -10.5547   13.5788  -37.4927 N   0  0  0  0  0  0  0  0  0  0  0  0
  -12.5261   15.8045  -39.5016 N   0  0  0  0  0  0  0  0  0  0  0  0
  -10.7658   15.8628  -36.6053 O   0  0  0  0  0  0  0  0  0  0  0  0
  -14.4807   13.6422  -38.0760 H   0  0  0  0  0  0  0  0  0  0  0  0
  -12.9541   12.8121  -38.3718 H   0  0  0  0  0  0  0  0  0  0  0  0
  -13.1297   16.6396  -36.3870 H   0  0  0  0  0  0  0  0  0  0  0  0
  -14.5556   15.8522  -37.0526 H   0  0  0  0  0  0  0  0  0  0  0  0
  -12.7949   13.8947  -40.3841 H   0  0  0  0  0  0  0  0  0  0  0  0
  -14.2789   14.7558  -40.0594 H   0  0  0  0  0  0  0  0  0  0  0  0
  -14.1907   17.0093  -38.9904 H   0  0  0  0  0  0  0  0  0  0  0  0
  -12.6573   17.6133  -38.4100 H   0  0  0  0  0  0  0  0  0  0  0  0
  -10.5724   16.4035  -38.9627 H   0  0  0  0  0  0  0  0  0  0  0  0
  -10.6885   14.8172  -39.6784 H   0  0  0  0  0  0  0  0  0  0  0  0
  -10.4122   14.6468  -34.9762 H   0  0  0  0  0  0  0  0  0  0  0  0
   -9.6100   16.2087  -34.9670 H   0  0  0  0  0  0  0  0  0  0  0  0
  -12.9011   14.1606  -36.2239 H   0  0  0  0  0  0  0  0  0  0  0  0
   -8.9851   12.6126  -36.4883 H   0  0  0  0  0  0  0  0  0  0  0  0
   -6.8083   13.8264  -35.6572 H   0  0  0  0  0  0  0  0  0  0  0  0
   -8.1796   13.5149  -34.5755 H   0  0  0  0  0  0  0  0  0  0  0  0
   -7.3854   15.1014  -34.5667 H   0  0  0  0  0  0  0  0  0  0  0  0
   -7.0598   15.4092  -37.5686 H   0  0  0  0  0  0  0  0  0  0  0  0
   -7.6275   16.6426  -36.4268 H   0  0  0  0  0  0  0  0  0  0  0  0
   -8.6090   16.2283  -37.8457 H   0  0  0  0  0  0  0  0  0  0  0  0
   -6.7676   12.0907  -37.3265 H   0  0  0  0  0  0  0  0  0  0  0  0
   -6.4106   13.8237  -37.4263 H   0  0  0  0  0  0  0  0  0  0  0  0
   -6.2155   12.7978  -38.8550 H   0  0  0  0  0  0  0  0  0  0  0  0
   -8.8688   11.1673  -38.5617 H   0  0  0  0  0  0  0  0  0  0  0  0
   -8.2707   11.8950  -40.0631 H   0  0  0  0  0  0  0  0  0  0  0  0
   -9.8896   12.2951  -39.4711 H   0  0  0  0  0  0  0  0  0  0  0  0
   -8.2942   14.1455  -39.0155 H   0  0  0  0  0  0  0  0  0  0  0  0
  -10.6756   13.1044  -38.4174 H   0  0  0  0  0  0  0  0  0  0  0  0
  1  3  1  0  0  0  0
  1  7  1  0  0  0  0
  2  4  1  0  0  0  0
  2  7  1  0  0  0  0
  3 17  1  0  0  0  0
  4 17  1  0  0  0  0
  5 10  1  0  0  0  0
  5 17  1  0  0  0  0
  6  9  1  0  0  0  0
  6 18  1  0  0  0  0
  7 10  1  0  0  0  0
  8  9  1  0  0  0  0
  8 15  1  0  0  0  0
  8 16  1  0  0  0  0
  9 11  1  0  0  0  0
  9 12  1  0  0  0  0
 10 16  1  0  0  0  0
 10 18  1  0  0  0  0
 13 15  1  0  0  0  0
 14 15  1  0  0  0  0
  1 19  1  0  0  0  0
  1 20  1  0  0  0  0
  2 21  1  0  0  0  0
  2 22  1  0  0  0  0
  3 23  1  0  0  0  0
  3 24  1  0  0  0  0
  4 25  1  0  0  0  0
  4 26  1  0  0  0  0
  5 27  1  0  0  0  0
  5 28  1  0  0  0  0
  6 29  1  0  0  0  0
  6 30  1  0  0  0  0
  7 31  1  0  0  0  0
  8 32  1  0  0  0  0
 11 33  1  0  0  0  0
 11 34  1  0  0  0  0
 11 35  1  0  0  0  0
 12 36  1  0  0  0  0
 12 37  1  0  0  0  0
 12 38  1  0  0  0  0
 13 39  1  0  0  0  0
 13 40  1  0  0  0  0
 13 41  1  0  0  0  0
 14 42  1  0  0  0  0
 14 43  1  0  0  0  0
 14 44  1  0  0  0  0
 15 45  1  0  0  0  0
 16 46  1  0  0  0  0
M  END
> <id>
EN300-1279534

> <smiles>
CC(C)C1NC2(CN3CCC2CC3)OCC1(C)C

> <IUPAC Name>
5',5'-dimethyl-4'-(propan-2-yl)-4-azaspiro[bicyclo[2.2.2]octane-2,2'-[1,3]oxazinane]

> <CAS>
2171969-86-9

> <URL>
https://www.enaminestore.com/catalog/EN300-1279534

> <ROCS_ShapeQuery>
__x1247relevant_x1083L0AP1_x1305L0BP1_

> <ROCS_TanimotoCombo>
0.718 

> <ROCS_ShapeTanimoto>
0.489 

> <ROCS_ColorTanimoto>
0.229 

> <ROCS_RefTversky>
0.430 

> <ROCS_RefColorTversky>
0.266 

> <ROCS_RefTverskyCombo>
0.696 

> <ROCS_FitTversky>
1.396 

> <ROCS_FitColorTversky>
0.620 

> <ROCS_FitTverskyCombo>
2.015 

> <ROCS_ColorScore>
-8.740

> <ROCS_Overlap>
1268.417

> <ROCS_Rank>
348                 

$$$$
untitled-dbase-175102_41
  -OEChem-06232314393D

 26 27  0     1  0  0  0  0  0999 V2000
  -11.6201   16.7118  -39.8645 C   0  0  0  0  0  0  0  0  0  0  0  0
  -10.3671   14.5517  -36.8516 C   0  0  0  0  0  0  0  0  0  0  0  0
  -13.8923   15.1001  -37.6269 C   0  0  0  0  0  0  0  0  0  0  0  0
  -11.9892   13.9052  -38.6641 C   0  0  0  0  0  0  0  0  0  0  0  0
  -12.7984   16.2666  -38.9917 C   0  0  2  0  0  0  0  0  0  0  0  0
  -12.5159   15.8500  -37.4916 C   0  0  2  0  0  0  0  0  0  0  0  0
  -13.2384   14.7388  -39.0160 C   0  0  2  0  0  0  0  0  0  0  0  0
  -14.0952   14.2114  -40.1312 C   0  0  0  0  0  0  0  0  0  0  0  0
   -9.2624   13.8495  -37.5949 C   0  0  0  0  0  0  0  0  0  0  0  0
  -11.5143   14.7646  -37.5801 N   0  0  0  0  0  0  0  0  0  0  0  0
  -10.4423   16.5052  -39.6121 O   0  0  0  0  0  0  0  0  0  0  0  0
  -10.2213   14.8958  -35.6786 O   0  0  0  0  0  0  0  0  0  0  0  0
  -12.0607   17.3735  -40.9623 O   0  0  0  0  0  0  0  0  0  0  0  0
   -9.6417   13.5691  -38.8553 F   0  0  0  0  0  0  0  0  0  0  0  0
   -8.1603   14.6201  -37.6498 F   0  0  0  0  0  0  0  0  0  0  0  0
   -8.9360   12.6935  -36.9877 F   0  0  0  0  0  0  0  0  0  0  0  0
  -14.0629   14.2687  -36.9358 H   0  0  0  0  0  0  0  0  0  0  0  0
  -14.7904   15.7278  -37.6515 H   0  0  0  0  0  0  0  0  0  0  0  0
  -12.2185   12.9082  -38.2771 H   0  0  0  0  0  0  0  0  0  0  0  0
  -11.2444   13.8573  -39.4631 H   0  0  0  0  0  0  0  0  0  0  0  0
  -13.6276   16.9799  -39.1121 H   0  0  0  0  0  0  0  0  0  0  0  0
  -12.4051   16.6171  -36.7287 H   0  0  0  0  0  0  0  0  0  0  0  0
  -13.4951   14.0088  -41.0276 H   0  0  0  0  0  0  0  0  0  0  0  0
  -14.8749   14.9337  -40.4048 H   0  0  0  0  0  0  0  0  0  0  0  0
  -14.5904   13.2762  -39.8396 H   0  0  0  0  0  0  0  0  0  0  0  0
  -11.3201   17.6689  -41.5339 H   0  0  0  0  0  0  0  0  0  0  0  0
  1  5  1  6  0  0  0
  1 11  2  0  0  0  0
  1 13  1  0  0  0  0
  2  9  1  0  0  0  0
  2 10  1  0  0  0  0
  2 12  2  0  0  0  0
  3  6  1  1  0  0  0
  3  7  1  0  0  0  0
  4  7  1  0  0  0  0
  4 10  1  0  0  0  0
  5  6  1  0  0  0  0
  5  7  1  0  0  0  0
  6 10  1  0  0  0  0
  7  8  1  1  0  0  0
  9 14  1  0  0  0  0
  9 15  1  0  0  0  0
  9 16  1  0  0  0  0
  3 17  1  0  0  0  0
  3 18  1  0  0  0  0
  4 19  1  0  0  0  0
  4 20  1  0  0  0  0
  5 21  1  0  0  0  0
  6 22  1  0  0  0  0
  8 23  1  0  0  0  0
  8 24  1  0  0  0  0
  8 25  1  0  0  0  0
 13 26  1  0  0  0  0
M  END
> <id>
EN300-43359287

> <smiles>
C[C@@]1(C[C@@H]2[C@H]1C(=O)O)CN2C(=O)C(F)(F)F |&1:1,3,4,r|

> <IUPAC Name>
rac-(1R,4S,5S)-4-methyl-2-(2,2,2-trifluoroacetyl)-2-azabicyclo[2.1.1]hexane-5-carboxylic acid

> <URL>
https://www.enaminestore.com/catalog/EN300-43359287

> <ROCS_ShapeQuery>
__x1247relevant_x1083L0AP1_x1305L0BP1_

> <ROCS_TanimotoCombo>
0.718 

> <ROCS_ShapeTanimoto>
0.525 

> <ROCS_ColorTanimoto>
0.193 

> <ROCS_RefTversky>
0.443 

> <ROCS_RefColorTversky>
0.221 

> <ROCS_RefTverskyCombo>
0.664 

> <ROCS_FitTversky>
1.541 

> <ROCS_FitColorTversky>
0.606 

> <ROCS_FitTverskyCombo>
2.146 

> <ROCS_ColorScore>
-7.226

> <ROCS_Overlap>
1307.214

> <ROCS_Rank>
349                 

$$$$
untitled-dbase-9953_2
  -OEChem-06232314393D

 33 34  0     1  0  0  0  0  0999 V2000
  -10.2603   15.2888  -36.6982 C   0  0  0  0  0  0  0  0  0  0  0  0
  -13.2824   16.5342  -37.8761 C   0  0  0  0  0  0  0  0  0  0  0  0
  -11.9319   16.6729  -38.5953 C   0  0  0  0  0  0  0  0  0  0  0  0
  -12.5881   14.3625  -36.8961 C   0  0  0  0  0  0  0  0  0  0  0  0
  -13.5443   15.0148  -37.9303 C   0  0  2  0  0  0  0  0  0  0  0  0
  -11.1934   14.4810  -37.5685 C   0  0  1  0  0  0  0  0  0  0  0  0
  -11.5529   15.1921  -38.9276 C   0  0  1  0  0  0  0  0  0  0  0  0
  -12.9551   14.5919  -39.3007 C   0  0  0  0  0  0  0  0  0  0  0  0
  -10.4830   15.1151  -40.0065 C   0  0  0  0  0  0  0  0  0  0  0  0
  -13.0487   13.0778  -39.5699 C   0  0  0  0  0  0  0  0  0  0  0  0
  -13.6429   15.2571  -40.5173 C   0  0  0  0  0  0  0  0  0  0  0  0
  -10.5156   13.1912  -37.6586 N   0  0  0  0  0  0  0  0  0  0  0  0
   -9.3417   15.9822  -37.1090 O   0  0  0  0  0  0  0  0  0  0  0  0
  -10.5775   15.1397  -35.3889 O   0  0  0  0  0  0  0  0  0  0  0  0
  -13.2383   16.9155  -36.8505 H   0  0  0  0  0  0  0  0  0  0  0  0
  -14.0626   17.0953  -38.4012 H   0  0  0  0  0  0  0  0  0  0  0  0
  -12.0352   17.2822  -39.5002 H   0  0  0  0  0  0  0  0  0  0  0  0
  -11.1962   17.1925  -37.9748 H   0  0  0  0  0  0  0  0  0  0  0  0
  -12.6473   14.8616  -35.9220 H   0  0  0  0  0  0  0  0  0  0  0  0
  -12.8738   13.3182  -36.7256 H   0  0  0  0  0  0  0  0  0  0  0  0
  -14.5927   14.7537  -37.7669 H   0  0  0  0  0  0  0  0  0  0  0  0
  -10.2381   14.0735  -40.2182 H   0  0  0  0  0  0  0  0  0  0  0  0
   -9.5794   15.6288  -39.6758 H   0  0  0  0  0  0  0  0  0  0  0  0
  -10.8403   15.5861  -40.9232 H   0  0  0  0  0  0  0  0  0  0  0  0
  -12.6186   12.8620  -40.5416 H   0  0  0  0  0  0  0  0  0  0  0  0
  -14.0905   12.7775  -39.5548 H   0  0  0  0  0  0  0  0  0  0  0  0
  -12.5018   12.5451  -38.7999 H   0  0  0  0  0  0  0  0  0  0  0  0
  -13.1676   14.9037  -41.4228 H   0  0  0  0  0  0  0  0  0  0  0  0
  -13.5352   16.3305  -40.4347 H   0  0  0  0  0  0  0  0  0  0  0  0
  -14.6905   14.9865  -40.5165 H   0  0  0  0  0  0  0  0  0  0  0  0
   -9.6240   13.3363  -38.0703 H   0  0  0  0  0  0  0  0  0  0  0  0
  -10.4221   12.8246  -36.7408 H   0  0  0  0  0  0  0  0  0  0  0  0
   -9.9807   15.6560  -34.8062 H   0  0  0  0  0  0  0  0  0  0  0  0
  1  6  1  0  0  0  0
  1 13  2  0  0  0  0
  1 14  1  0  0  0  0
  2  3  1  0  0  0  0
  2  5  1  6  0  0  0
  3  7  1  0  0  0  0
  4  5  1  0  0  0  0
  4  6  1  0  0  0  0
  5  8  1  0  0  0  0
  6  7  1  0  0  0  0
  6 12  1  1  0  0  0
  7  8  1  0  0  0  0
  7  9  1  1  0  0  0
  8 10  1  0  0  0  0
  8 11  1  0  0  0  0
  2 15  1  0  0  0  0
  2 16  1  0  0  0  0
  3 17  1  0  0  0  0
  3 18  1  0  0  0  0
  4 19  1  0  0  0  0
  4 20  1  0  0  0  0
  5 21  1  0  0  0  0
  9 22  1  0  0  0  0
  9 23  1  0  0  0  0
  9 24  1  0  0  0  0
 10 25  1  0  0  0  0
 10 26  1  0  0  0  0
 10 27  1  0  0  0  0
 11 28  1  0  0  0  0
 11 29  1  0  0  0  0
 11 30  1  0  0  0  0
 12 31  1  0  0  0  0
 12 32  1  0  0  0  0
 14 33  1  0  0  0  0
M  END
> <id>
EN300-144879

> <smiles>
CC1(C)[C@@H]2CC[C@@]1(C)[C@](N)(C2)C(=O)O

> <MDLNUMBER>
MFCD08444731

> <IUPAC Name>
(1R,2R,4R)-2-amino-1,7,7-trimethylbicyclo[2.2.1]heptane-2-carboxylic acid

> <CAS>
88980-21-6

> <URL>
https://www.enaminestore.com/catalog/EN300-144879

> <ROCS_ShapeQuery>
__x1247relevant_x1083L0AP1_x1305L0BP1_

> <ROCS_TanimotoCombo>
0.718 

> <ROCS_ShapeTanimoto>
0.496 

> <ROCS_ColorTanimoto>
0.223 

> <ROCS_RefTversky>
0.415 

> <ROCS_RefColorTversky>
0.257 

> <ROCS_RefTverskyCombo>
0.672 

> <ROCS_FitTversky>
1.643 

> <ROCS_FitColorTversky>
0.629 

> <ROCS_FitTverskyCombo>
2.272 

> <ROCS_ColorScore>
-8.408

> <ROCS_Overlap>
1221.198

> <ROCS_Rank>
350                 

$$$$
untitled-dbase-110547_2
  -OEChem-06232314393D

 33 34  0     1  0  0  0  0  0999 V2000
  -10.2603   15.2888  -36.6982 C   0  0  0  0  0  0  0  0  0  0  0  0
  -13.2824   16.5342  -37.8761 C   0  0  0  0  0  0  0  0  0  0  0  0
  -11.9319   16.6729  -38.5953 C   0  0  0  0  0  0  0  0  0  0  0  0
  -12.5881   14.3625  -36.8961 C   0  0  0  0  0  0  0  0  0  0  0  0
  -13.5443   15.0148  -37.9303 C   0  0  2  0  0  0  0  0  0  0  0  0
  -11.1934   14.4810  -37.5685 C   0  0  1  0  0  0  0  0  0  0  0  0
  -11.5529   15.1921  -38.9276 C   0  0  1  0  0  0  0  0  0  0  0  0
  -12.9551   14.5919  -39.3007 C   0  0  0  0  0  0  0  0  0  0  0  0
  -10.4830   15.1151  -40.0065 C   0  0  0  0  0  0  0  0  0  0  0  0
  -13.0487   13.0778  -39.5699 C   0  0  0  0  0  0  0  0  0  0  0  0
  -13.6429   15.2571  -40.5173 C   0  0  0  0  0  0  0  0  0  0  0  0
  -10.5156   13.1912  -37.6586 N   0  0  0  0  0  0  0  0  0  0  0  0
   -9.3417   15.9822  -37.1090 O   0  0  0  0  0  0  0  0  0  0  0  0
  -10.5775   15.1397  -35.3889 O   0  0  0  0  0  0  0  0  0  0  0  0
  -13.2383   16.9155  -36.8505 H   0  0  0  0  0  0  0  0  0  0  0  0
  -14.0626   17.0953  -38.4012 H   0  0  0  0  0  0  0  0  0  0  0  0
  -12.0352   17.2822  -39.5002 H   0  0  0  0  0  0  0  0  0  0  0  0
  -11.1962   17.1925  -37.9748 H   0  0  0  0  0  0  0  0  0  0  0  0
  -12.6473   14.8616  -35.9220 H   0  0  0  0  0  0  0  0  0  0  0  0
  -12.8738   13.3182  -36.7256 H   0  0  0  0  0  0  0  0  0  0  0  0
  -14.5927   14.7537  -37.7669 H   0  0  0  0  0  0  0  0  0  0  0  0
  -10.2381   14.0735  -40.2182 H   0  0  0  0  0  0  0  0  0  0  0  0
   -9.5794   15.6288  -39.6758 H   0  0  0  0  0  0  0  0  0  0  0  0
  -10.8403   15.5861  -40.9232 H   0  0  0  0  0  0  0  0  0  0  0  0
  -12.6186   12.8620  -40.5416 H   0  0  0  0  0  0  0  0  0  0  0  0
  -14.0905   12.7775  -39.5548 H   0  0  0  0  0  0  0  0  0  0  0  0
  -12.5018   12.5451  -38.7999 H   0  0  0  0  0  0  0  0  0  0  0  0
  -13.1676   14.9037  -41.4228 H   0  0  0  0  0  0  0  0  0  0  0  0
  -13.5352   16.3305  -40.4347 H   0  0  0  0  0  0  0  0  0  0  0  0
  -14.6905   14.9865  -40.5165 H   0  0  0  0  0  0  0  0  0  0  0  0
   -9.6240   13.3363  -38.0703 H   0  0  0  0  0  0  0  0  0  0  0  0
  -10.4221   12.8246  -36.7408 H   0  0  0  0  0  0  0  0  0  0  0  0
   -9.9807   15.6560  -34.8062 H   0  0  0  0  0  0  0  0  0  0  0  0
  1  6  1  0  0  0  0
  1 13  2  0  0  0  0
  1 14  1  0  0  0  0
  2  3  1  0  0  0  0
  2  5  1  6  0  0  0
  3  7  1  0  0  0  0
  4  5  1  0  0  0  0
  4  6  1  0  0  0  0
  5  8  1  0  0  0  0
  6  7  1  0  0  0  0
  6 12  1  1  0  0  0
  7  8  1  0  0  0  0
  7  9  1  1  0  0  0
  8 10  1  0  0  0  0
  8 11  1  0  0  0  0
  2 15  1  0  0  0  0
  2 16  1  0  0  0  0
  3 17  1  0  0  0  0
  3 18  1  0  0  0  0
  4 19  1  0  0  0  0
  4 20  1  0  0  0  0
  5 21  1  0  0  0  0
  9 22  1  0  0  0  0
  9 23  1  0  0  0  0
  9 24  1  0  0  0  0
 10 25  1  0  0  0  0
 10 26  1  0  0  0  0
 10 27  1  0  0  0  0
 11 28  1  0  0  0  0
 11 29  1  0  0  0  0
 11 30  1  0  0  0  0
 12 31  1  0  0  0  0
 12 32  1  0  0  0  0
 14 33  1  0  0  0  0
M  END
> <id>
EN300-86644

> <smiles>
Cl.CC1(C)[C@@H]2CC[C@@]1(C)[C@](N)(C2)C(=O)O

> <MDLNUMBER>
MFCD08448699

> <IUPAC Name>
(1R,2R,4R)-2-amino-1,7,7-trimethylbicyclo[2.2.1]heptane-2-carboxylic acid hydrochloride

> <CAS>
1955474-97-1

> <URL>
https://www.enaminestore.com/catalog/EN300-86644

> <Saltdate>
Cl

> <ROCS_ShapeQuery>
__x1247relevant_x1083L0AP1_x1305L0BP1_

> <ROCS_TanimotoCombo>
0.718 

> <ROCS_ShapeTanimoto>
0.496 

> <ROCS_ColorTanimoto>
0.223 

> <ROCS_RefTversky>
0.415 

> <ROCS_RefColorTversky>
0.257 

> <ROCS_RefTverskyCombo>
0.672 

> <ROCS_FitTversky>
1.643 

> <ROCS_FitColorTversky>
0.629 

> <ROCS_FitTverskyCombo>
2.272 

> <ROCS_ColorScore>
-8.408

> <ROCS_Overlap>
1221.198

> <ROCS_Rank>
351                 

$$$$
untitled-dbase-161083_37
  -OEChem-06232314393D

 40 42  0     1  0  0  0  0  0999 V2000
   -9.1963   14.3352  -37.2402 C   0  0  0  0  0  0  0  0  0  0  0  0
  -10.9077   16.1548  -39.0869 C   0  0  0  0  0  0  0  0  0  0  0  0
  -11.7022   15.3582  -40.1261 C   0  0  0  0  0  0  0  0  0  0  0  0
  -12.9537   16.6571  -37.7689 C   0  0  0  0  0  0  0  0  0  0  0  0
  -14.1706   14.4009  -37.8090 C   0  0  0  0  0  0  0  0  0  0  0  0
  -11.5375   16.0445  -37.6833 C   0  0  1  0  0  0  0  0  0  0  0  0
  -12.9496   14.7488  -39.5031 C   0  0  2  0  0  0  0  0  0  0  0  0
  -13.8186   15.6941  -38.5968 C   0  0  2  0  0  0  0  0  0  0  0  0
  -12.7348   13.9235  -38.1804 C   0  0  1  0  0  0  0  0  0  0  0  0
  -11.6763   14.5583  -37.2579 C   0  0  1  0  0  0  0  0  0  0  0  0
   -8.2419   12.6214  -35.1662 C   0  0  0  0  0  0  0  0  0  0  0  0
   -6.4256   11.9865  -36.7809 C   0  0  0  0  0  0  0  0  0  0  0  0
   -6.6225   14.3625  -35.9912 C   0  0  0  0  0  0  0  0  0  0  0  0
   -7.3885   13.0885  -36.3445 C   0  0  0  0  0  0  0  0  0  0  0  0
  -10.4615   13.8034  -37.4084 N   0  0  0  0  0  0  0  0  0  0  0  0
   -8.9461   15.4994  -36.9459 O   0  0  0  0  0  0  0  0  0  0  0  0
   -8.2536   13.3686  -37.4508 O   0  0  0  0  0  0  0  0  0  0  0  0
   -9.8664   15.8114  -39.0741 H   0  0  0  0  0  0  0  0  0  0  0  0
  -10.8636   17.2081  -39.3920 H   0  0  0  0  0  0  0  0  0  0  0  0
  -11.9802   16.0134  -40.9595 H   0  0  0  0  0  0  0  0  0  0  0  0
  -11.0716   14.5664  -40.5469 H   0  0  0  0  0  0  0  0  0  0  0  0
  -13.3809   16.7955  -36.7692 H   0  0  0  0  0  0  0  0  0  0  0  0
  -12.9171   17.6430  -38.2467 H   0  0  0  0  0  0  0  0  0  0  0  0
  -14.3908   14.5170  -36.7439 H   0  0  0  0  0  0  0  0  0  0  0  0
  -14.9731   13.8046  -38.2608 H   0  0  0  0  0  0  0  0  0  0  0  0
  -10.9246   16.5991  -36.9642 H   0  0  0  0  0  0  0  0  0  0  0  0
  -13.5423   14.2076  -40.2543 H   0  0  0  0  0  0  0  0  0  0  0  0
  -14.6710   16.1805  -39.0796 H   0  0  0  0  0  0  0  0  0  0  0  0
  -12.6549   12.8376  -38.2968 H   0  0  0  0  0  0  0  0  0  0  0  0
  -11.9765   14.4757  -36.2075 H   0  0  0  0  0  0  0  0  0  0  0  0
   -8.9344   13.4096  -34.8499 H   0  0  0  0  0  0  0  0  0  0  0  0
   -8.8230   11.7283  -35.4180 H   0  0  0  0  0  0  0  0  0  0  0  0
   -7.6156   12.3928  -34.2962 H   0  0  0  0  0  0  0  0  0  0  0  0
   -5.8113   12.3173  -37.6261 H   0  0  0  0  0  0  0  0  0  0  0  0
   -6.9743   11.1025  -37.1255 H   0  0  0  0  0  0  0  0  0  0  0  0
   -5.7600   11.6853  -35.9655 H   0  0  0  0  0  0  0  0  0  0  0  0
   -6.0103   14.6978  -36.8362 H   0  0  0  0  0  0  0  0  0  0  0  0
   -7.2998   15.1758  -35.7110 H   0  0  0  0  0  0  0  0  0  0  0  0
   -5.9308   14.1835  -35.1601 H   0  0  0  0  0  0  0  0  0  0  0  0
  -10.5377   12.8179  -37.6535 H   0  0  0  0  0  0  0  0  0  0  0  0
  1 15  1  0  0  0  0
  1 16  2  0  0  0  0
  1 17  1  0  0  0  0
  2  3  1  0  0  0  0
  2  6  1  0  0  0  0
  3  7  1  0  0  0  0
  4  6  1  0  0  0  0
  4  8  1  0  0  0  0
  5  8  1  0  0  0  0
  5  9  1  0  0  0  0
  6 10  1  0  0  0  0
  7  8  1  0  0  0  0
  7  9  1  0  0  0  0
  9 10  1  0  0  0  0
 10 15  1  0  0  0  0
 11 14  1  0  0  0  0
 12 14  1  0  0  0  0
 13 14  1  0  0  0  0
 14 17  1  0  0  0  0
  2 18  1  0  0  0  0
  2 19  1  0  0  0  0
  3 20  1  0  0  0  0
  3 21  1  0  0  0  0
  4 22  1  0  0  0  0
  4 23  1  0  0  0  0
  5 24  1  0  0  0  0
  5 25  1  0  0  0  0
  6 26  1  0  0  0  0
  7 27  1  0  0  0  0
  8 28  1  0  0  0  0
  9 29  1  0  0  0  0
 10 30  1  0  0  0  0
 11 31  1  0  0  0  0
 11 32  1  0  0  0  0
 11 33  1  0  0  0  0
 12 34  1  0  0  0  0
 12 35  1  0  0  0  0
 12 36  1  0  0  0  0
 13 37  1  0  0  0  0
 13 38  1  0  0  0  0
 13 39  1  0  0  0  0
 15 40  1  0  0  0  0
M  END
> <id>
EN300-33050441

> <smiles>
CC(C)(C)OC(=O)NC1C2CC3CC1CCC32

> <IUPAC Name>
tert-butyl N-{tricyclo[3.3.1.0,2,7]nonan-6-yl}carbamate

> <CAS>
2694732-84-6

> <URL>
https://www.enaminestore.com/catalog/EN300-33050441

> <ROCS_ShapeQuery>
__x1247relevant_x1083L0AP1_x1305L0BP1_

> <ROCS_TanimotoCombo>
0.718 

> <ROCS_ShapeTanimoto>
0.465 

> <ROCS_ColorTanimoto>
0.253 

> <ROCS_RefTversky>
0.411 

> <ROCS_RefColorTversky>
0.303 

> <ROCS_RefTverskyCombo>
0.714 

> <ROCS_FitTversky>
1.389 

> <ROCS_FitColorTversky>
0.608 

> <ROCS_FitTverskyCombo>
1.997 

> <ROCS_ColorScore>
-9.970

> <ROCS_Overlap>
1213.501

> <ROCS_Rank>
352                 

$$$$
untitled-dbase-85134_194
  -OEChem-06232314393D

 39 40  0     0  0  0  0  0  0999 V2000
  -13.1807   16.6321  -40.4257 C   0  0  0  0  0  0  0  0  0  0  0  0
   -9.8196   14.9652  -37.1168 C   0  0  0  0  0  0  0  0  0  0  0  0
  -13.2936   15.5395  -36.7387 C   0  0  0  0  0  0  0  0  0  0  0  0
  -12.8772   13.5235  -38.1651 C   0  0  0  0  0  0  0  0  0  0  0  0
  -13.6515   16.3533  -37.9941 C   0  0  0  0  0  0  0  0  0  0  0  0
  -13.2372   14.3389  -39.4186 C   0  0  0  0  0  0  0  0  0  0  0  0
  -11.3589   15.8973  -38.8774 C   0  0  0  0  0  0  0  0  0  0  0  0
  -12.2715   14.4459  -37.0935 C   0  0  0  0  0  0  0  0  0  0  0  0
  -12.8612   15.8200  -39.2065 C   0  0  0  0  0  0  0  0  0  0  0  0
   -9.9929   15.0815  -34.5037 C   0  0  0  0  0  0  0  0  0  0  0  0
   -9.9493   12.5710  -34.4336 C   0  0  0  0  0  0  0  0  0  0  0  0
   -7.8402   13.8454  -34.9193 C   0  0  0  0  0  0  0  0  0  0  0  0
   -9.3588   13.8191  -35.0862 C   0  0  0  0  0  0  0  0  0  0  0  0
  -11.0872   15.1008  -37.6749 N   0  0  0  0  0  0  0  0  0  0  0  0
  -12.3666   17.2680  -41.0785 O   0  0  0  0  0  0  0  0  0  0  0  0
   -8.9378   15.8189  -37.1778 O   0  0  0  0  0  0  0  0  0  0  0  0
  -14.5047   16.5692  -40.7093 O   0  0  0  0  0  0  0  0  0  0  0  0
   -9.6628   13.7599  -36.4842 O   0  0  0  0  0  0  0  0  0  0  0  0
  -12.8860   16.2038  -35.9671 H   0  0  0  0  0  0  0  0  0  0  0  0
  -14.2006   15.0888  -36.3184 H   0  0  0  0  0  0  0  0  0  0  0  0
  -13.7742   13.0275  -37.7754 H   0  0  0  0  0  0  0  0  0  0  0  0
  -12.1676   12.7294  -38.4270 H   0  0  0  0  0  0  0  0  0  0  0  0
  -14.7318   16.2966  -38.1796 H   0  0  0  0  0  0  0  0  0  0  0  0
  -13.4293   17.4145  -37.8234 H   0  0  0  0  0  0  0  0  0  0  0  0
  -12.7132   13.9284  -40.2913 H   0  0  0  0  0  0  0  0  0  0  0  0
  -14.3086   14.2364  -39.6332 H   0  0  0  0  0  0  0  0  0  0  0  0
  -10.7431   15.5082  -39.6975 H   0  0  0  0  0  0  0  0  0  0  0  0
  -11.0353   16.9282  -38.6881 H   0  0  0  0  0  0  0  0  0  0  0  0
  -11.9984   13.8718  -36.2025 H   0  0  0  0  0  0  0  0  0  0  0  0
   -9.5717   15.9796  -34.9696 H   0  0  0  0  0  0  0  0  0  0  0  0
  -11.0781   15.0912  -34.6481 H   0  0  0  0  0  0  0  0  0  0  0  0
   -9.7857   15.1637  -33.4306 H   0  0  0  0  0  0  0  0  0  0  0  0
   -9.4972   11.6629  -34.8485 H   0  0  0  0  0  0  0  0  0  0  0  0
  -11.0248   12.4986  -34.6318 H   0  0  0  0  0  0  0  0  0  0  0  0
   -9.7956   12.5707  -33.3497 H   0  0  0  0  0  0  0  0  0  0  0  0
   -7.3851   12.9400  -35.3369 H   0  0  0  0  0  0  0  0  0  0  0  0
   -7.3951   14.7153  -35.4132 H   0  0  0  0  0  0  0  0  0  0  0  0
   -7.5651   13.8686  -33.8586 H   0  0  0  0  0  0  0  0  0  0  0  0
  -14.7346   17.0965  -41.5039 H   0  0  0  0  0  0  0  0  0  0  0  0
  1  9  1  0  0  0  0
  1 15  2  0  0  0  0
  1 17  1  0  0  0  0
  2 14  1  0  0  0  0
  2 16  2  0  0  0  0
  2 18  1  0  0  0  0
  3  5  1  0  0  0  0
  3  8  1  0  0  0  0
  4  6  1  0  0  0  0
  4  8  1  0  0  0  0
  5  9  1  0  0  0  0
  6  9  1  0  0  0  0
  7  9  1  0  0  0  0
  7 14  1  0  0  0  0
  8 14  1  0  0  0  0
 10 13  1  0  0  0  0
 11 13  1  0  0  0  0
 12 13  1  0  0  0  0
 13 18  1  0  0  0  0
  3 19  1  0  0  0  0
  3 20  1  0  0  0  0
  4 21  1  0  0  0  0
  4 22  1  0  0  0  0
  5 23  1  0  0  0  0
  5 24  1  0  0  0  0
  6 25  1  0  0  0  0
  6 26  1  0  0  0  0
  7 27  1  0  0  0  0
  7 28  1  0  0  0  0
  8 29  1  0  0  0  0
 10 30  1  0  0  0  0
 10 31  1  0  0  0  0
 10 32  1  0  0  0  0
 11 33  1  0  0  0  0
 11 34  1  0  0  0  0
 11 35  1  0  0  0  0
 12 36  1  0  0  0  0
 12 37  1  0  0  0  0
 12 38  1  0  0  0  0
 17 39  1  0  0  0  0
M  END
> <id>
EN300-207766

> <smiles>
CC(C)(C)OC(=O)N1CC2(CCC1CC2)C(=O)O

> <MDLNUMBER>
MFCD28388972

> <IUPAC Name>
2-[(tert-butoxy)carbonyl]-2-azabicyclo[2.2.2]octane-4-carboxylic acid

> <CAS>
1936695-68-9

> <Purity>
95

> <URL>
https://www.enaminestore.com/catalog/EN300-207766

> <ROCS_ShapeQuery>
__x1247relevant_x1083L0AP1_x1305L0BP1_

> <ROCS_TanimotoCombo>
0.718 

> <ROCS_ShapeTanimoto>
0.521 

> <ROCS_ColorTanimoto>
0.198 

> <ROCS_RefTversky>
0.449 

> <ROCS_RefColorTversky>
0.226 

> <ROCS_RefTverskyCombo>
0.675 

> <ROCS_FitTversky>
1.447 

> <ROCS_FitColorTversky>
0.608 

> <ROCS_FitTverskyCombo>
2.055 

> <ROCS_ColorScore>
-7.404

> <ROCS_Overlap>
1324.034

> <ROCS_Rank>
353                 

$$$$
untitled-dbase-49620_30
  -OEChem-06232314393D

 34 36  0     1  0  0  0  0  0999 V2000
  -12.9057   14.3157  -39.6182 C   0  0  0  0  0  0  0  0  0  0  0  0
  -12.2252   15.6672  -39.8416 C   0  0  0  0  0  0  0  0  0  0  0  0
  -12.5762   13.9874  -37.1014 C   0  0  0  0  0  0  0  0  0  0  0  0
  -11.4416   16.2460  -37.4751 C   0  0  0  0  0  0  0  0  0  0  0  0
   -9.7336   13.6387  -35.8264 C   0  0  0  0  0  0  0  0  0  0  0  0
  -13.5364   14.4273  -38.2270 C   0  0  1  0  0  0  0  0  0  0  0  0
  -12.5148   16.4601  -38.5637 C   0  0  2  0  0  0  0  0  0  0  0  0
   -9.2011   13.7229  -37.2358 C   0  0  2  0  0  0  0  0  0  0  0  0
  -11.2433   14.7683  -37.0855 C   0  0  0  0  0  0  0  0  0  0  0  0
  -14.9524   16.3574  -38.7255 C   0  0  0  0  0  0  0  0  0  0  0  0
   -8.0829   14.7456  -37.3884 C   0  0  0  0  0  0  0  0  0  0  0  0
  -13.7595   15.8720  -38.0363 N   0  0  0  0  0  0  0  0  0  0  0  0
  -10.6763   14.7065  -35.7652 O   0  0  0  0  0  0  0  0  0  0  0  0
  -10.3308   14.1412  -38.0067 O   0  0  0  0  0  0  0  0  0  0  0  0
   -8.5794   16.0295  -37.0405 O   0  0  0  0  0  0  0  0  0  0  0  0
  -13.6802   14.1692  -40.3806 H   0  0  0  0  0  0  0  0  0  0  0  0
  -12.2053   13.4793  -39.7040 H   0  0  0  0  0  0  0  0  0  0  0  0
  -11.1555   15.5641  -40.0475 H   0  0  0  0  0  0  0  0  0  0  0  0
  -12.6763   16.1608  -40.7108 H   0  0  0  0  0  0  0  0  0  0  0  0
  -13.0824   14.1161  -36.1346 H   0  0  0  0  0  0  0  0  0  0  0  0
  -12.3740   12.9132  -37.1998 H   0  0  0  0  0  0  0  0  0  0  0  0
  -10.4891   16.6695  -37.8212 H   0  0  0  0  0  0  0  0  0  0  0  0
  -11.7250   16.8220  -36.5826 H   0  0  0  0  0  0  0  0  0  0  0  0
  -10.2215   12.6832  -35.6052 H   0  0  0  0  0  0  0  0  0  0  0  0
   -8.9576   13.8250  -35.0724 H   0  0  0  0  0  0  0  0  0  0  0  0
  -14.4599   13.8420  -38.1503 H   0  0  0  0  0  0  0  0  0  0  0  0
  -12.6045   17.5343  -38.7627 H   0  0  0  0  0  0  0  0  0  0  0  0
   -8.8784   12.7509  -37.6018 H   0  0  0  0  0  0  0  0  0  0  0  0
  -15.0659   17.4369  -38.5471 H   0  0  0  0  0  0  0  0  0  0  0  0
  -14.8524   16.1729  -39.8053 H   0  0  0  0  0  0  0  0  0  0  0  0
  -15.8375   15.8277  -38.3435 H   0  0  0  0  0  0  0  0  0  0  0  0
   -7.7269   14.7741  -38.4227 H   0  0  0  0  0  0  0  0  0  0  0  0
   -7.2454   14.5010  -36.7281 H   0  0  0  0  0  0  0  0  0  0  0  0
   -8.8775   15.9756  -36.1177 H   0  0  0  0  0  0  0  0  0  0  0  0
  1  2  1  0  0  0  0
  1  6  1  0  0  0  0
  2  7  1  0  0  0  0
  3  6  1  0  0  0  0
  3  9  1  0  0  0  0
  4  7  1  0  0  0  0
  4  9  1  0  0  0  0
  5  8  1  0  0  0  0
  5 13  1  0  0  0  0
  6 12  1  0  0  0  0
  7 12  1  0  0  0  0
  8 11  1  0  0  0  0
  8 14  1  0  0  0  0
  9 13  1  0  0  0  0
  9 14  1  0  0  0  0
 10 12  1  0  0  0  0
 11 15  1  0  0  0  0
  1 16  1  0  0  0  0
  1 17  1  0  0  0  0
  2 18  1  0  0  0  0
  2 19  1  0  0  0  0
  3 20  1  0  0  0  0
  3 21  1  0  0  0  0
  4 22  1  0  0  0  0
  4 23  1  0  0  0  0
  5 24  1  0  0  0  0
  5 25  1  0  0  0  0
  6 26  1  0  0  0  0
  7 27  1  0  0  0  0
  8 28  1  0  0  0  0
 10 29  1  0  0  0  0
 10 30  1  0  0  0  0
 10 31  1  0  0  0  0
 11 32  1  0  0  0  0
 11 33  1  0  0  0  0
 15 34  1  0  0  0  0
M  END
> <id>
EN300-1614582

> <smiles>
CN1C2CCC1CC3(C2)OCC(CO)O3

> <IUPAC Name>
8-methyl-8-azaspiro[bicyclo[3.2.1]octane-3,2'-[1,3]dioxolane]-4'-ylmethanol

> <CAS>
29070-26-6

> <URL>
https://www.enaminestore.com/catalog/EN300-1614582

> <ROCS_ShapeQuery>
__x1247relevant_x1083L0AP1_x1305L0BP1_

> <ROCS_TanimotoCombo>
0.718 

> <ROCS_ShapeTanimoto>
0.512 

> <ROCS_ColorTanimoto>
0.206 

> <ROCS_RefTversky>
0.430 

> <ROCS_RefColorTversky>
0.239 

> <ROCS_RefTverskyCombo>
0.669 

> <ROCS_FitTversky>
1.589 

> <ROCS_FitColorTversky>
0.605 

> <ROCS_FitTverskyCombo>
2.194 

> <ROCS_ColorScore>
-7.814

> <ROCS_Overlap>
1266.992

> <ROCS_Rank>
354                 

$$$$
untitled-dbase-144967_36
  -OEChem-06232314393D

 33 34  0     1  0  0  0  0  0999 V2000
  -10.6289   14.9064  -36.5118 C   0  0  0  0  0  0  0  0  0  0  0  0
  -12.4105   16.8263  -37.9774 C   0  0  0  0  0  0  0  0  0  0  0  0
  -12.2289   16.2726  -39.3981 C   0  0  0  0  0  0  0  0  0  0  0  0
  -13.8970   14.9962  -38.2703 C   0  0  0  0  0  0  0  0  0  0  0  0
  -11.9425   14.4927  -37.0867 C   0  0  1  0  0  0  0  0  0  0  0  0
  -12.9866   15.6130  -37.2111 C   0  0  1  0  0  0  0  0  0  0  0  0
  -12.7432   14.8389  -39.2455 C   0  0  2  0  0  0  0  0  0  0  0  0
   -8.8041   13.2276  -37.3135 C   0  0  0  0  0  0  0  0  0  0  0  0
   -8.2304   14.8107  -39.1774 C   0  0  0  0  0  0  0  0  0  0  0  0
   -7.5251   15.3396  -36.8256 C   0  0  0  0  0  0  0  0  0  0  0  0
   -8.5976   14.6915  -37.6999 C   0  0  0  0  0  0  0  0  0  0  0  0
  -11.7722   14.0301  -38.4821 N   0  0  0  0  0  0  0  0  0  0  0  0
  -10.3398   14.8129  -35.3266 O   0  0  0  0  0  0  0  0  0  0  0  0
   -9.8299   15.3923  -37.5040 O   0  0  0  0  0  0  0  0  0  0  0  0
  -13.0835   14.2705  -40.4088 F   0  0  0  0  0  0  0  0  0  0  0  0
  -11.4777   17.2091  -37.5549 H   0  0  0  0  0  0  0  0  0  0  0  0
  -13.1343   17.6496  -37.9887 H   0  0  0  0  0  0  0  0  0  0  0  0
  -12.8301   16.8346  -40.1214 H   0  0  0  0  0  0  0  0  0  0  0  0
  -11.1868   16.3151  -39.7320 H   0  0  0  0  0  0  0  0  0  0  0  0
  -14.3538   14.0451  -37.9747 H   0  0  0  0  0  0  0  0  0  0  0  0
  -14.6817   15.6700  -38.6306 H   0  0  0  0  0  0  0  0  0  0  0  0
  -12.3354   13.6673  -36.4821 H   0  0  0  0  0  0  0  0  0  0  0  0
  -13.4722   15.8777  -36.2696 H   0  0  0  0  0  0  0  0  0  0  0  0
   -9.0679   13.1378  -36.2537 H   0  0  0  0  0  0  0  0  0  0  0  0
   -9.5951   12.7609  -37.9095 H   0  0  0  0  0  0  0  0  0  0  0  0
   -7.8813   12.6527  -37.4522 H   0  0  0  0  0  0  0  0  0  0  0  0
   -8.0813   15.8594  -39.4590 H   0  0  0  0  0  0  0  0  0  0  0  0
   -9.0397   14.4327  -39.8125 H   0  0  0  0  0  0  0  0  0  0  0  0
   -7.3168   14.2553  -39.4127 H   0  0  0  0  0  0  0  0  0  0  0  0
   -7.3768   16.3897  -37.1025 H   0  0  0  0  0  0  0  0  0  0  0  0
   -7.7895   15.2962  -35.7641 H   0  0  0  0  0  0  0  0  0  0  0  0
   -6.5575   14.8438  -36.9640 H   0  0  0  0  0  0  0  0  0  0  0  0
  -10.8290   14.2075  -38.8243 H   0  0  0  0  0  0  0  0  0  0  0  0
  1  5  1  1  0  0  0
  1 13  2  0  0  0  0
  1 14  1  0  0  0  0
  2  3  1  0  0  0  0
  2  6  1  1  0  0  0
  3  7  1  0  0  0  0
  4  6  1  0  0  0  0
  4  7  1  0  0  0  0
  5  6  1  0  0  0  0
  5 12  1  0  0  0  0
  7 12  1  0  0  0  0
  7 15  1  6  0  0  0
  8 11  1  0  0  0  0
  9 11  1  0  0  0  0
 10 11  1  0  0  0  0
 11 14  1  0  0  0  0
  2 16  1  0  0  0  0
  2 17  1  0  0  0  0
  3 18  1  0  0  0  0
  3 19  1  0  0  0  0
  4 20  1  0  0  0  0
  4 21  1  0  0  0  0
  5 22  1  0  0  0  0
  6 23  1  0  0  0  0
  8 24  1  0  0  0  0
  8 25  1  0  0  0  0
  8 26  1  0  0  0  0
  9 27  1  0  0  0  0
  9 28  1  0  0  0  0
  9 29  1  0  0  0  0
 10 30  1  0  0  0  0
 10 31  1  0  0  0  0
 10 32  1  0  0  0  0
 12 33  1  0  0  0  0
M  END
> <id>
EN300-27733116

> <smiles>
CC(C)(C)OC(=O)[C@@H]1N[C@]2(F)CC[C@H]1C2 |&1:7,9,13,r|

> <IUPAC Name>
rac-tert-butyl (1R,3S,4R)-1-fluoro-2-azabicyclo[2.2.1]heptane-3-carboxylate

> <CAS>
2580104-25-0

> <URL>
https://www.enaminestore.com/catalog/EN300-27733116

> <ROCS_ShapeQuery>
__x1247relevant_x1083L0AP1_x1305L0BP1_

> <ROCS_TanimotoCombo>
0.718 

> <ROCS_ShapeTanimoto>
0.484 

> <ROCS_ColorTanimoto>
0.235 

> <ROCS_RefTversky>
0.414 

> <ROCS_RefColorTversky>
0.257 

> <ROCS_RefTverskyCombo>
0.671 

> <ROCS_FitTversky>
1.537 

> <ROCS_FitColorTversky>
0.729 

> <ROCS_FitTverskyCombo>
2.266 

> <ROCS_ColorScore>
-8.394

> <ROCS_Overlap>
1218.334

> <ROCS_Rank>
355                 

$$$$
untitled-dbase-143303_26
  -OEChem-06232314393D

 43 45  0     1  0  0  0  0  0999 V2000
   -9.8408   15.0741  -36.8491 C   0  0  0  0  0  0  0  0  0  0  0  0
  -13.2610   13.7605  -39.1061 C   0  0  0  0  0  0  0  0  0  0  0  0
  -14.1001   15.3884  -37.3907 C   0  0  0  0  0  0  0  0  0  0  0  0
  -12.0640   14.0047  -36.9155 C   0  0  0  0  0  0  0  0  0  0  0  0
  -11.0013   14.8412  -39.0312 C   0  0  0  0  0  0  0  0  0  0  0  0
  -11.8410   16.4710  -37.3093 C   0  0  0  0  0  0  0  0  0  0  0  0
  -13.4429   14.0129  -37.5994 C   0  0  0  0  0  0  0  0  0  0  0  0
  -12.3762   14.8597  -39.7286 C   0  0  2  0  0  0  0  0  0  0  0  0
  -13.2196   16.4982  -38.0005 C   0  0  1  0  0  0  0  0  0  0  0  0
  -13.0148   16.2504  -39.5122 C   0  0  0  0  0  0  0  0  0  0  0  0
  -11.1817   15.1004  -37.5287 C   0  0  0  0  0  0  0  0  0  0  0  0
   -7.4580   13.7253  -36.0748 C   0  0  0  0  0  0  0  0  0  0  0  0
   -8.9786   12.0777  -34.9424 C   0  0  0  0  0  0  0  0  0  0  0  0
   -9.0983   12.3834  -37.4324 C   0  0  0  0  0  0  0  0  0  0  0  0
   -8.8391   13.0719  -36.0932 C   0  0  0  0  0  0  0  0  0  0  0  0
  -14.2783   16.3697  -40.2422 N   0  0  0  0  0  0  0  0  0  0  0  0
   -8.9196   15.8320  -37.1215 O   0  0  0  0  0  0  0  0  0  0  0  0
   -9.8271   14.0901  -35.9055 O   0  0  0  0  0  0  0  0  0  0  0  0
  -12.7968   12.7789  -39.2639 H   0  0  0  0  0  0  0  0  0  0  0  0
  -14.2385   13.7251  -39.6015 H   0  0  0  0  0  0  0  0  0  0  0  0
  -15.1008   15.3987  -37.8385 H   0  0  0  0  0  0  0  0  0  0  0  0
  -14.2381   15.5739  -36.3180 H   0  0  0  0  0  0  0  0  0  0  0  0
  -12.1811   14.1613  -35.8351 H   0  0  0  0  0  0  0  0  0  0  0  0
  -11.5943   13.0192  -37.0334 H   0  0  0  0  0  0  0  0  0  0  0  0
  -10.5124   13.8728  -39.2007 H   0  0  0  0  0  0  0  0  0  0  0  0
  -10.3437   15.5987  -39.4772 H   0  0  0  0  0  0  0  0  0  0  0  0
  -11.2054   17.2726  -37.7079 H   0  0  0  0  0  0  0  0  0  0  0  0
  -11.9586   16.6774  -36.2372 H   0  0  0  0  0  0  0  0  0  0  0  0
  -14.0750   13.2301  -37.1656 H   0  0  0  0  0  0  0  0  0  0  0  0
  -12.2409   14.6627  -40.7989 H   0  0  0  0  0  0  0  0  0  0  0  0
  -13.6884   17.4753  -37.8327 H   0  0  0  0  0  0  0  0  0  0  0  0
  -12.3382   17.0181  -39.9097 H   0  0  0  0  0  0  0  0  0  0  0  0
   -7.3539   14.4396  -36.8994 H   0  0  0  0  0  0  0  0  0  0  0  0
   -7.2735   14.2522  -35.1330 H   0  0  0  0  0  0  0  0  0  0  0  0
   -6.6694   12.9768  -36.2129 H   0  0  0  0  0  0  0  0  0  0  0  0
   -9.9680   11.6065  -34.9517 H   0  0  0  0  0  0  0  0  0  0  0  0
   -8.8874   12.5851  -33.9751 H   0  0  0  0  0  0  0  0  0  0  0  0
   -8.2192   11.2908  -34.9940 H   0  0  0  0  0  0  0  0  0  0  0  0
  -10.0889   11.9146  -37.4458 H   0  0  0  0  0  0  0  0  0  0  0  0
   -9.0388   13.0894  -38.2671 H   0  0  0  0  0  0  0  0  0  0  0  0
   -8.3734   11.5794  -37.6040 H   0  0  0  0  0  0  0  0  0  0  0  0
  -14.6369   17.2810  -40.0883 H   0  0  0  0  0  0  0  0  0  0  0  0
  -14.0914   16.2212  -41.2044 H   0  0  0  0  0  0  0  0  0  0  0  0
  1 11  1  0  0  0  0
  1 17  2  0  0  0  0
  1 18  1  0  0  0  0
  2  7  1  0  0  0  0
  2  8  1  0  0  0  0
  3  7  1  0  0  0  0
  3  9  1  0  0  0  0
  4  7  1  0  0  0  0
  4 11  1  0  0  0  0
  5  8  1  0  0  0  0
  5 11  1  0  0  0  0
  6  9  1  0  0  0  0
  6 11  1  0  0  0  0
  8 10  1  0  0  0  0
  9 10  1  0  0  0  0
 10 16  1  0  0  0  0
 12 15  1  0  0  0  0
 13 15  1  0  0  0  0
 14 15  1  0  0  0  0
 15 18  1  0  0  0  0
  2 19  1  0  0  0  0
  2 20  1  0  0  0  0
  3 21  1  0  0  0  0
  3 22  1  0  0  0  0
  4 23  1  0  0  0  0
  4 24  1  0  0  0  0
  5 25  1  0  0  0  0
  5 26  1  0  0  0  0
  6 27  1  0  0  0  0
  6 28  1  0  0  0  0
  7 29  1  0  0  0  0
  8 30  1  0  0  0  0
  9 31  1  0  0  0  0
 10 32  1  0  0  0  0
 12 33  1  0  0  0  0
 12 34  1  0  0  0  0
 12 35  1  0  0  0  0
 13 36  1  0  0  0  0
 13 37  1  0  0  0  0
 13 38  1  0  0  0  0
 14 39  1  0  0  0  0
 14 40  1  0  0  0  0
 14 41  1  0  0  0  0
 16 42  1  0  0  0  0
 16 43  1  0  0  0  0
M  END
> <id>
EN300-6510986

> <smiles>
CC(C)(C)OC(=O)C1(CC2CC3C1)CC(C2)C3N

> <IUPAC Name>
tert-butyl 4-aminoadamantane-1-carboxylate

> <CAS>
2248383-62-0

> <URL>
https://www.enaminestore.com/catalog/EN300-6510986

> <ROCS_ShapeQuery>
__x1247relevant_x1083L0AP1_x1305L0BP1_

> <ROCS_TanimotoCombo>
0.718 

> <ROCS_ShapeTanimoto>
0.521 

> <ROCS_ColorTanimoto>
0.197 

> <ROCS_RefTversky>
0.450 

> <ROCS_RefColorTversky>
0.223 

> <ROCS_RefTverskyCombo>
0.673 

> <ROCS_FitTversky>
1.441 

> <ROCS_FitColorTversky>
0.626 

> <ROCS_FitTverskyCombo>
2.067 

> <ROCS_ColorScore>
-7.283

> <ROCS_Overlap>
1327.301

> <ROCS_Rank>
356                 

$$$$
untitled-dbase-133672_3
  -OEChem-06232314393D

 24 26  0     1  0  0  0  0  0999 V2000
  -14.3193   15.2401  -38.0876 C   0  0  0  0  0  0  0  0  0  0  0  0
  -13.7354   14.0649  -38.9026 C   0  0  0  0  0  0  0  0  0  0  0  0
  -12.2798   15.2880  -36.6384 C   0  0  0  0  0  0  0  0  0  0  0  0
  -13.1823   16.1446  -37.5599 C   0  0  1  0  0  0  0  0  0  0  0  0
  -12.1906   14.1402  -38.9049 C   0  0  1  0  0  0  0  0  0  0  0  0
  -12.3094   16.6260  -38.7015 C   0  0  1  0  0  0  0  0  0  0  0  0
  -11.7380   15.4736  -39.4755 C   0  0  2  0  0  0  0  0  0  0  0  0
  -11.7396   14.0669  -37.4227 C   0  0  1  0  0  0  0  0  0  0  0  0
   -9.6027   12.5619  -37.5980 O   0  0  0  0  0  0  0  0  0  0  0  0
   -9.5719   14.5547  -36.0352 O   0  0  0  0  0  0  0  0  0  0  0  0
  -12.7297   16.3397  -40.0382 O   0  0  0  0  0  0  0  0  0  0  0  0
   -9.3759   14.8206  -38.4302 F   0  0  0  0  0  0  0  0  0  0  0  0
   -9.9808   13.9213  -37.2717 S   0  0  0  0  0  0  0  0  0  0  0  0
  -15.0043   15.8191  -38.7188 H   0  0  0  0  0  0  0  0  0  0  0  0
  -14.9135   14.8522  -37.2517 H   0  0  0  0  0  0  0  0  0  0  0  0
  -14.0717   13.1131  -38.4745 H   0  0  0  0  0  0  0  0  0  0  0  0
  -14.1206   14.1002  -39.9289 H   0  0  0  0  0  0  0  0  0  0  0  0
  -11.4621   15.9044  -36.2455 H   0  0  0  0  0  0  0  0  0  0  0  0
  -12.8563   14.9394  -35.7729 H   0  0  0  0  0  0  0  0  0  0  0  0
  -13.5960   16.9971  -37.0118 H   0  0  0  0  0  0  0  0  0  0  0  0
  -11.7701   13.3174  -39.4926 H   0  0  0  0  0  0  0  0  0  0  0  0
  -11.6910   17.4861  -38.4971 H   0  0  0  0  0  0  0  0  0  0  0  0
  -10.7220   15.5195  -39.8347 H   0  0  0  0  0  0  0  0  0  0  0  0
  -12.1274   13.1465  -36.9680 H   0  0  0  0  0  0  0  0  0  0  0  0
  1  2  1  0  0  0  0
  1  4  1  0  0  0  0
  2  5  1  0  0  0  0
  3  4  1  0  0  0  0
  3  8  1  0  0  0  0
  4  6  1  0  0  0  0
  5  7  1  0  0  0  0
  5  8  1  0  0  0  0
  6  7  1  0  0  0  0
  6 11  1  0  0  0  0
  7 11  1  0  0  0  0
  8 13  1  0  0  0  0
  9 13  2  0  0  0  0
 10 13  2  0  0  0  0
 12 13  1  0  0  0  0
  1 14  1  0  0  0  0
  1 15  1  0  0  0  0
  2 16  1  0  0  0  0
  2 17  1  0  0  0  0
  3 18  1  0  0  0  0
  3 19  1  0  0  0  0
  4 20  1  0  0  0  0
  5 21  1  0  0  0  0
  6 22  1  0  0  0  0
  7 23  1  0  0  0  0
  8 24  1  0  0  0  0
M  END
> <id>
EN300-223596

> <smiles>
FS(=O)(=O)C1CC2CCC1C3OC32

> <MDLNUMBER>
MFCD29033914

> <IUPAC Name>
3-oxatricyclo[3.2.2.0,2,4]nonane-6-sulfonyl fluoride

> <CAS>
1864062-77-0

> <URL>
https://www.enaminestore.com/catalog/EN300-223596

> <ROCS_ShapeQuery>
__x1247relevant_x1083L0AP1_x1305L0BP1_

> <ROCS_TanimotoCombo>
0.718 

> <ROCS_ShapeTanimoto>
0.473 

> <ROCS_ColorTanimoto>
0.246 

> <ROCS_RefTversky>
0.396 

> <ROCS_RefColorTversky>
0.306 

> <ROCS_RefTverskyCombo>
0.702 

> <ROCS_FitTversky>
1.684 

> <ROCS_FitColorTversky>
0.555 

> <ROCS_FitTverskyCombo>
2.239 

> <ROCS_ColorScore>
-10.097

> <ROCS_Overlap>
1165.517

> <ROCS_Rank>
357                 

$$$$
untitled-dbase-121532_2
  -OEChem-06232314393D

 26 28  0     1  0  0  0  0  0999 V2000
  -14.0341   16.0224  -39.0259 C   0  0  0  0  0  0  0  0  0  0  0  0
  -12.8261   15.7582  -39.9255 C   0  0  0  0  0  0  0  0  0  0  0  0
  -12.5697   15.8689  -36.9859 C   0  0  0  0  0  0  0  0  0  0  0  0
   -8.8822   15.4853  -37.1141 C   0  0  0  0  0  0  0  0  0  0  0  0
  -11.3484   15.6357  -37.8906 C   0  0  2  0  0  0  0  0  0  0  0  0
  -13.6911   15.2035  -37.7835 C   0  0  2  0  0  0  0  0  0  0  0  0
  -11.9698   14.8431  -39.0505 C   0  0  1  0  0  0  0  0  0  0  0  0
  -10.2670   14.8566  -37.1964 C   0  0  2  0  0  0  0  0  0  0  0  0
   -9.7390   15.3929  -35.9047 C   0  0  0  0  0  0  0  0  0  0  0  0
  -10.3494   13.3916  -37.3638 N   0  0  0  0  0  0  0  0  0  0  0  0
  -12.9931   14.0799  -38.3676 O   0  0  0  0  0  0  0  0  0  0  0  0
   -9.3915   14.5497  -34.8722 F   0  0  0  0  0  0  0  0  0  0  0  0
  -10.2665   16.5322  -35.3386 F   0  0  0  0  0  0  0  0  0  0  0  0
  -14.1856   17.0842  -38.8111 H   0  0  0  0  0  0  0  0  0  0  0  0
  -14.9390   15.6343  -39.5068 H   0  0  0  0  0  0  0  0  0  0  0  0
  -13.1526   15.2309  -40.8290 H   0  0  0  0  0  0  0  0  0  0  0  0
  -12.3076   16.6725  -40.2283 H   0  0  0  0  0  0  0  0  0  0  0  0
  -12.4478   15.3730  -36.0161 H   0  0  0  0  0  0  0  0  0  0  0  0
  -12.7628   16.9309  -36.8047 H   0  0  0  0  0  0  0  0  0  0  0  0
   -8.0153   14.8376  -37.1675 H   0  0  0  0  0  0  0  0  0  0  0  0
   -8.7321   16.4641  -37.5531 H   0  0  0  0  0  0  0  0  0  0  0  0
  -10.9202   16.5827  -38.2385 H   0  0  0  0  0  0  0  0  0  0  0  0
  -14.5532   14.8973  -37.1869 H   0  0  0  0  0  0  0  0  0  0  0  0
  -11.2815   14.2009  -39.6053 H   0  0  0  0  0  0  0  0  0  0  0  0
   -9.8885   13.1655  -38.2073 H   0  0  0  0  0  0  0  0  0  0  0  0
   -9.9019   12.9815  -36.5849 H   0  0  0  0  0  0  0  0  0  0  0  0
  1  2  1  0  0  0  0
  1  6  1  0  0  0  0
  2  7  1  0  0  0  0
  3  5  1  0  0  0  0
  3  6  1  0  0  0  0
  4  8  1  0  0  0  0
  4  9  1  0  0  0  0
  5  7  1  0  0  0  0
  5  8  1  0  0  0  0
  6 11  1  0  0  0  0
  7 11  1  0  0  0  0
  8  9  1  0  0  0  0
  8 10  1  0  0  0  0
  9 12  1  0  0  0  0
  9 13  1  0  0  0  0
  1 14  1  0  0  0  0
  1 15  1  0  0  0  0
  2 16  1  0  0  0  0
  2 17  1  0  0  0  0
  3 18  1  0  0  0  0
  3 19  1  0  0  0  0
  4 20  1  0  0  0  0
  4 21  1  0  0  0  0
  5 22  1  0  0  0  0
  6 23  1  0  0  0  0
  7 24  1  0  0  0  0
 10 25  1  0  0  0  0
 10 26  1  0  0  0  0
M  END
> <id>
EN300-1970389

> <smiles>
NC1(CC1(F)F)C2CC3CCC2O3

> <IUPAC Name>
2,2-difluoro-1-{7-oxabicyclo[2.2.1]heptan-2-yl}cyclopropan-1-amine

> <CAS>
2229304-04-3

> <URL>
https://www.enaminestore.com/catalog/EN300-1970389

> <ROCS_ShapeQuery>
__x1247relevant_x1083L0AP1_x1305L0BP1_

> <ROCS_TanimotoCombo>
0.718 

> <ROCS_ShapeTanimoto>
0.468 

> <ROCS_ColorTanimoto>
0.250 

> <ROCS_RefTversky>
0.396 

> <ROCS_RefColorTversky>
0.265 

> <ROCS_RefTverskyCombo>
0.661 

> <ROCS_FitTversky>
1.630 

> <ROCS_FitColorTversky>
0.818 

> <ROCS_FitTverskyCombo>
2.448 

> <ROCS_ColorScore>
-8.654

> <ROCS_Overlap>
1164.548

> <ROCS_Rank>
358                 

$$$$
untitled-dbase-106214_0
  -OEChem-06232314393D

 22 24  0     1  0  0  0  0  0999 V2000
   -9.9077   14.7765  -37.5599 C   0  0  0  0  0  0  0  0  0  0  0  0
  -13.8668   14.8778  -39.4469 C   0  0  0  0  0  0  0  0  0  0  0  0
  -12.6933   15.6911  -40.0263 C   0  0  0  0  0  0  0  0  0  0  0  0
  -13.4469   15.8398  -37.1706 C   0  0  0  0  0  0  0  0  0  0  0  0
  -13.6623   14.5276  -37.9616 C   0  0  2  0  0  0  0  0  0  0  0  0
  -11.6340   15.9977  -39.0045 C   0  0  1  0  0  0  0  0  0  0  0  0
  -12.0429   16.2125  -37.5736 C   0  0  2  0  0  0  0  0  0  0  0  0
  -11.3109   14.9564  -37.9510 C   0  0  2  0  0  0  0  0  0  0  0  0
  -12.3007   13.8352  -37.7852 C   0  0  0  0  0  0  0  0  0  0  0  0
   -9.2209   15.6700  -37.0758 O   0  0  0  0  0  0  0  0  0  0  0  0
  -12.1998   13.3032  -36.5437 F   0  0  0  0  0  0  0  0  0  0  0  0
  -12.1057   12.8439  -38.6782 F   0  0  0  0  0  0  0  0  0  0  0  0
   -9.4912   13.7691  -37.7289 H   0  0  0  0  0  0  0  0  0  0  0  0
  -14.7967   15.4472  -39.5678 H   0  0  0  0  0  0  0  0  0  0  0  0
  -13.9944   13.9590  -40.0322 H   0  0  0  0  0  0  0  0  0  0  0  0
  -12.2392   15.1365  -40.8558 H   0  0  0  0  0  0  0  0  0  0  0  0
  -13.0721   16.6300  -40.4465 H   0  0  0  0  0  0  0  0  0  0  0  0
  -14.1704   16.6170  -37.4345 H   0  0  0  0  0  0  0  0  0  0  0  0
  -13.4930   15.6588  -36.0912 H   0  0  0  0  0  0  0  0  0  0  0  0
  -14.4968   13.9388  -37.5713 H   0  0  0  0  0  0  0  0  0  0  0  0
  -10.8314   16.6053  -39.4025 H   0  0  0  0  0  0  0  0  0  0  0  0
  -11.5684   16.9763  -36.9794 H   0  0  0  0  0  0  0  0  0  0  0  0
  1  8  1  0  0  0  0
  1 10  2  0  0  0  0
  2  3  1  0  0  0  0
  2  5  1  0  0  0  0
  3  6  1  0  0  0  0
  4  5  1  0  0  0  0
  4  7  1  0  0  0  0
  5  9  1  0  0  0  0
  6  7  1  0  0  0  0
  6  8  1  0  0  0  0
  7  8  1  0  0  0  0
  8  9  1  0  0  0  0
  9 11  1  0  0  0  0
  9 12  1  0  0  0  0
  1 13  1  0  0  0  0
  2 14  1  0  0  0  0
  2 15  1  0  0  0  0
  3 16  1  0  0  0  0
  3 17  1  0  0  0  0
  4 18  1  0  0  0  0
  4 19  1  0  0  0  0
  5 20  1  0  0  0  0
  6 21  1  0  0  0  0
  7 22  1  0  0  0  0
M  END
> <id>
EN300-26658422

> <smiles>
FC1(F)C2CC3C(CC2)C31C=O

> <MDLNUMBER>
MFCD32668299

> <IUPAC Name>
8,8-difluorotricyclo[3.2.1.0,2,7]octane-1-carbaldehyde

> <CAS>
2649071-66-7

> <Purity>
95

> <URL>
https://www.enaminestore.com/catalog/EN300-26658422

> <ROCS_ShapeQuery>
__x1247relevant_x1083L0AP1_x1305L0BP1_

> <ROCS_TanimotoCombo>
0.718 

> <ROCS_ShapeTanimoto>
0.459 

> <ROCS_ColorTanimoto>
0.259 

> <ROCS_RefTversky>
0.387 

> <ROCS_RefColorTversky>
0.372 

> <ROCS_RefTverskyCombo>
0.760 

> <ROCS_FitTversky>
1.669 

> <ROCS_FitColorTversky>
0.461 

> <ROCS_FitTverskyCombo>
2.130 

> <ROCS_ColorScore>
-12.460

> <ROCS_Overlap>
1138.754

> <ROCS_Rank>
359                 

$$$$
untitled-dbase-66664_229
  -OEChem-06232314393D

 37 38  0     1  0  0  0  0  0999 V2000
   -9.8466   14.9673  -37.0364 C   0  0  0  0  0  0  0  0  0  0  0  0
  -13.2338   14.8510  -36.8907 C   0  0  0  0  0  0  0  0  0  0  0  0
  -13.6824   16.0036  -37.8146 C   0  0  0  0  0  0  0  0  0  0  0  0
  -12.7051   14.2778  -39.1352 C   0  0  0  0  0  0  0  0  0  0  0  0
  -11.3368   16.1716  -38.7028 C   0  0  0  0  0  0  0  0  0  0  0  0
  -12.1368   14.1631  -37.7198 C   0  0  1  0  0  0  0  0  0  0  0  0
  -12.7927   15.8112  -39.0681 C   0  0  2  0  0  0  0  0  0  0  0  0
  -10.9384   14.8762  -34.3972 C   0  0  0  0  0  0  0  0  0  0  0  0
   -9.7842   12.6544  -34.1954 C   0  0  0  0  0  0  0  0  0  0  0  0
   -8.4304   14.7386  -34.5580 C   0  0  0  0  0  0  0  0  0  0  0  0
  -13.3079   16.4956  -40.3127 C   0  0  0  0  0  0  0  0  0  0  0  0
   -9.7513   14.0307  -34.8563 C   0  0  0  0  0  0  0  0  0  0  0  0
  -11.0022   15.0894  -37.7792 N   0  0  0  0  0  0  0  0  0  0  0  0
   -8.9224   15.7764  -37.0562 O   0  0  0  0  0  0  0  0  0  0  0  0
  -14.7184   16.3395  -40.3798 O   0  0  0  0  0  0  0  0  0  0  0  0
   -9.8530   13.8325  -36.2708 O   0  0  0  0  0  0  0  0  0  0  0  0
  -12.8688   15.2136  -35.9242 H   0  0  0  0  0  0  0  0  0  0  0  0
  -14.0702   14.1677  -36.7064 H   0  0  0  0  0  0  0  0  0  0  0  0
  -14.7468   15.8985  -38.0540 H   0  0  0  0  0  0  0  0  0  0  0  0
  -13.5330   16.9816  -37.3449 H   0  0  0  0  0  0  0  0  0  0  0  0
  -12.0157   13.9143  -39.9054 H   0  0  0  0  0  0  0  0  0  0  0  0
  -13.6789   13.7900  -39.2545 H   0  0  0  0  0  0  0  0  0  0  0  0
  -10.6549   16.1181  -39.5584 H   0  0  0  0  0  0  0  0  0  0  0  0
  -11.2307   17.1419  -38.2081 H   0  0  0  0  0  0  0  0  0  0  0  0
  -11.8606   13.1651  -37.3749 H   0  0  0  0  0  0  0  0  0  0  0  0
  -10.9183   15.8650  -34.8695 H   0  0  0  0  0  0  0  0  0  0  0  0
  -11.8925   14.3957  -34.6369 H   0  0  0  0  0  0  0  0  0  0  0  0
  -10.9001   15.0494  -33.3157 H   0  0  0  0  0  0  0  0  0  0  0  0
   -8.9343   12.0444  -34.5219 H   0  0  0  0  0  0  0  0  0  0  0  0
  -10.6875   12.1046  -34.4834 H   0  0  0  0  0  0  0  0  0  0  0  0
   -9.7577   12.7298  -33.1035 H   0  0  0  0  0  0  0  0  0  0  0  0
   -7.5788   14.1323  -34.8872 H   0  0  0  0  0  0  0  0  0  0  0  0
   -8.3737   15.7127  -35.0546 H   0  0  0  0  0  0  0  0  0  0  0  0
   -8.3041   14.8896  -33.4798 H   0  0  0  0  0  0  0  0  0  0  0  0
  -12.8633   16.0524  -41.2101 H   0  0  0  0  0  0  0  0  0  0  0  0
  -13.0744   17.5654  -40.2910 H   0  0  0  0  0  0  0  0  0  0  0  0
  -15.0125   16.7897  -41.1883 H   0  0  0  0  0  0  0  0  0  0  0  0
  1 13  1  0  0  0  0
  1 14  2  0  0  0  0
  1 16  1  0  0  0  0
  2  3  1  0  0  0  0
  2  6  1  1  0  0  0
  3  7  1  0  0  0  0
  4  6  1  0  0  0  0
  4  7  1  0  0  0  0
  5  7  1  0  0  0  0
  5 13  1  0  0  0  0
  6 13  1  0  0  0  0
  7 11  1  6  0  0  0
  8 12  1  0  0  0  0
  9 12  1  0  0  0  0
 10 12  1  0  0  0  0
 11 15  1  0  0  0  0
 12 16  1  0  0  0  0
  2 17  1  0  0  0  0
  2 18  1  0  0  0  0
  3 19  1  0  0  0  0
  3 20  1  0  0  0  0
  4 21  1  0  0  0  0
  4 22  1  0  0  0  0
  5 23  1  0  0  0  0
  5 24  1  0  0  0  0
  6 25  1  0  0  0  0
  8 26  1  0  0  0  0
  8 27  1  0  0  0  0
  8 28  1  0  0  0  0
  9 29  1  0  0  0  0
  9 30  1  0  0  0  0
  9 31  1  0  0  0  0
 10 32  1  0  0  0  0
 10 33  1  0  0  0  0
 10 34  1  0  0  0  0
 11 35  1  0  0  0  0
 11 36  1  0  0  0  0
 15 37  1  0  0  0  0
M  END
> <id>
EN300-37267424

> <smiles>
CC(C)(C)OC(=O)N1C[C@]2(CO)CC[C@H]1C2

> <IUPAC Name>
tert-butyl (1S,4S)-4-(hydroxymethyl)-2-azabicyclo[2.2.1]heptane-2-carboxylate

> <CAS>
2031259-84-2

> <URL>
https://www.enaminestore.com/catalog/EN300-37267424

> <ROCS_ShapeQuery>
__x1247relevant_x1083L0AP1_x1305L0BP1_

> <ROCS_TanimotoCombo>
0.718 

> <ROCS_ShapeTanimoto>
0.501 

> <ROCS_ColorTanimoto>
0.217 

> <ROCS_RefTversky>
0.427 

> <ROCS_RefColorTversky>
0.241 

> <ROCS_RefTverskyCombo>
0.669 

> <ROCS_FitTversky>
1.521 

> <ROCS_FitColorTversky>
0.683 

> <ROCS_FitTverskyCombo>
2.204 

> <ROCS_ColorScore>
-7.885

> <ROCS_Overlap>
1259.353

> <ROCS_Rank>
360                 

$$$$
untitled-dbase-173806_26
  -OEChem-06232314393D

 29 30  0     1  0  0  0  0  0999 V2000
  -11.8032   16.8602  -40.6079 C   0  0  0  0  0  0  0  0  0  0  0  0
  -10.1488   14.5754  -36.5450 C   0  0  0  0  0  0  0  0  0  0  0  0
  -13.6119   14.5923  -39.4043 C   0  0  0  0  0  0  0  0  0  0  0  0
  -13.1170   13.6513  -38.2962 C   0  0  0  0  0  0  0  0  0  0  0  0
  -13.5024   15.8109  -37.3579 C   0  0  0  0  0  0  0  0  0  0  0  0
  -10.8719   15.5905  -38.6719 C   0  0  0  0  0  0  0  0  0  0  0  0
  -11.9663   16.5511  -39.1502 C   0  0  2  0  0  0  0  0  0  0  0  0
  -13.3842   16.0183  -38.8671 C   0  0  1  0  0  0  0  0  0  0  0  0
  -12.6207   14.5774  -37.1759 C   0  0  2  0  0  0  0  0  0  0  0  0
   -8.8430   14.2088  -37.2034 C   0  0  0  0  0  0  0  0  0  0  0  0
  -11.1981   14.9421  -37.3916 N   0  0  0  0  0  0  0  0  0  0  0  0
  -12.7108   17.1694  -41.3655 O   0  0  0  0  0  0  0  0  0  0  0  0
  -10.2370   14.5347  -35.3149 O   0  0  0  0  0  0  0  0  0  0  0  0
  -10.5043   16.7479  -40.9787 O   0  0  0  0  0  0  0  0  0  0  0  0
   -8.9435   14.3098  -38.5408 F   0  0  0  0  0  0  0  0  0  0  0  0
   -7.8581   15.0272  -36.7915 F   0  0  0  0  0  0  0  0  0  0  0  0
   -8.4949   12.9452  -36.9008 F   0  0  0  0  0  0  0  0  0  0  0  0
  -13.1027   14.4067  -40.3550 H   0  0  0  0  0  0  0  0  0  0  0  0
  -14.6825   14.4220  -39.5707 H   0  0  0  0  0  0  0  0  0  0  0  0
  -13.9533   13.0401  -37.9358 H   0  0  0  0  0  0  0  0  0  0  0  0
  -12.3442   12.9599  -38.6489 H   0  0  0  0  0  0  0  0  0  0  0  0
  -13.1616   16.6691  -36.7691 H   0  0  0  0  0  0  0  0  0  0  0  0
  -14.5396   15.5943  -37.0738 H   0  0  0  0  0  0  0  0  0  0  0  0
  -10.7037   14.7867  -39.4004 H   0  0  0  0  0  0  0  0  0  0  0  0
   -9.9181   16.1250  -38.5884 H   0  0  0  0  0  0  0  0  0  0  0  0
  -11.8464   17.5086  -38.6249 H   0  0  0  0  0  0  0  0  0  0  0  0
  -14.1421   16.7113  -39.2478 H   0  0  0  0  0  0  0  0  0  0  0  0
  -12.7758   14.1232  -36.1966 H   0  0  0  0  0  0  0  0  0  0  0  0
   -9.9295   16.4903  -40.2266 H   0  0  0  0  0  0  0  0  0  0  0  0
  1  7  1  1  0  0  0
  1 12  2  0  0  0  0
  1 14  1  0  0  0  0
  2 10  1  0  0  0  0
  2 11  1  0  0  0  0
  2 13  2  0  0  0  0
  3  4  1  0  0  0  0
  3  8  1  1  0  0  0
  4  9  1  1  0  0  0
  5  8  1  0  0  0  0
  5  9  1  0  0  0  0
  6  7  1  0  0  0  0
  6 11  1  0  0  0  0
  7  8  1  0  0  0  0
  9 11  1  0  0  0  0
 10 15  1  0  0  0  0
 10 16  1  0  0  0  0
 10 17  1  0  0  0  0
  3 18  1  0  0  0  0
  3 19  1  0  0  0  0
  4 20  1  0  0  0  0
  4 21  1  0  0  0  0
  5 22  1  0  0  0  0
  5 23  1  0  0  0  0
  6 24  1  0  0  0  0
  6 25  1  0  0  0  0
  7 26  1  0  0  0  0
  8 27  1  0  0  0  0
  9 28  1  0  0  0  0
 14 29  1  0  0  0  0
M  END
> <id>
EN300-39919818

> <smiles>
OC(=O)[C@@H]1CN([C@@H]2CC[C@H]1C2)C(=O)C(F)(F)F |&1:3,6,9,r|

> <IUPAC Name>
rac-(1R,4S,5S)-2-(2,2,2-trifluoroacetyl)-2-azabicyclo[3.2.1]octane-4-carboxylic acid

> <URL>
https://www.enaminestore.com/catalog/EN300-39919818

> <ROCS_ShapeQuery>
__x1247relevant_x1083L0AP1_x1305L0BP1_

> <ROCS_TanimotoCombo>
0.718 

> <ROCS_ShapeTanimoto>
0.526 

> <ROCS_ColorTanimoto>
0.192 

> <ROCS_RefTversky>
0.448 

> <ROCS_RefColorTversky>
0.216 

> <ROCS_RefTverskyCombo>
0.664 

> <ROCS_FitTversky>
1.491 

> <ROCS_FitColorTversky>
0.638 

> <ROCS_FitTverskyCombo>
2.128 

> <ROCS_ColorScore>
-7.038

> <ROCS_Overlap>
1321.857

> <ROCS_Rank>
361                 

$$$$
untitled-dbase-146701_228
  -OEChem-06232314393D

 37 38  0     1  0  0  0  0  0999 V2000
   -9.8473   14.9685  -37.0349 C   0  0  0  0  0  0  0  0  0  0  0  0
  -13.2349   14.8533  -36.8903 C   0  0  0  0  0  0  0  0  0  0  0  0
  -13.6826   16.0052  -37.8154 C   0  0  0  0  0  0  0  0  0  0  0  0
  -12.7051   14.2781  -39.1340 C   0  0  0  0  0  0  0  0  0  0  0  0
  -11.3368   16.1721  -38.7026 C   0  0  0  0  0  0  0  0  0  0  0  0
  -12.1376   14.1647  -37.7181 C   0  0  1  0  0  0  0  0  0  0  0  0
  -12.7925   15.8116  -39.0683 C   0  0  2  0  0  0  0  0  0  0  0  0
  -10.9390   14.8824  -34.3956 C   0  0  0  0  0  0  0  0  0  0  0  0
   -9.7866   12.6600  -34.1903 C   0  0  0  0  0  0  0  0  0  0  0  0
   -8.4311   14.7425  -34.5562 C   0  0  0  0  0  0  0  0  0  0  0  0
  -13.3070   16.4947  -40.3138 C   0  0  0  0  0  0  0  0  0  0  0  0
   -9.7526   14.0352  -34.8534 C   0  0  0  0  0  0  0  0  0  0  0  0
  -11.0029   15.0907  -37.7776 N   0  0  0  0  0  0  0  0  0  0  0  0
   -8.9224   15.7769  -37.0559 O   0  0  0  0  0  0  0  0  0  0  0  0
  -14.7174   16.3386  -40.3815 O   0  0  0  0  0  0  0  0  0  0  0  0
   -9.8545   13.8349  -36.2676 O   0  0  0  0  0  0  0  0  0  0  0  0
  -12.8703   15.2165  -35.9239 H   0  0  0  0  0  0  0  0  0  0  0  0
  -14.0716   14.1700  -36.7060 H   0  0  0  0  0  0  0  0  0  0  0  0
  -14.7471   15.9003  -38.0552 H   0  0  0  0  0  0  0  0  0  0  0  0
  -13.5333   16.9834  -37.3464 H   0  0  0  0  0  0  0  0  0  0  0  0
  -12.0153   13.9137  -39.9033 H   0  0  0  0  0  0  0  0  0  0  0  0
  -13.6787   13.7904  -39.2531 H   0  0  0  0  0  0  0  0  0  0  0  0
  -10.6544   16.1175  -39.5577 H   0  0  0  0  0  0  0  0  0  0  0  0
  -11.2306   17.1429  -38.2088 H   0  0  0  0  0  0  0  0  0  0  0  0
  -11.8617   13.1669  -37.3722 H   0  0  0  0  0  0  0  0  0  0  0  0
  -10.9182   15.8704  -34.8693 H   0  0  0  0  0  0  0  0  0  0  0  0
  -11.8935   14.4022  -34.6344 H   0  0  0  0  0  0  0  0  0  0  0  0
  -10.9005   15.0572  -33.3143 H   0  0  0  0  0  0  0  0  0  0  0  0
   -8.9371   12.0487  -34.5159 H   0  0  0  0  0  0  0  0  0  0  0  0
  -10.6903   12.1104  -34.4775 H   0  0  0  0  0  0  0  0  0  0  0  0
   -9.7599   12.7371  -33.0986 H   0  0  0  0  0  0  0  0  0  0  0  0
   -7.5800   14.1351  -34.8845 H   0  0  0  0  0  0  0  0  0  0  0  0
   -8.3737   15.7158  -35.0543 H   0  0  0  0  0  0  0  0  0  0  0  0
   -8.3047   14.8951  -33.4782 H   0  0  0  0  0  0  0  0  0  0  0  0
  -12.8618   16.0505  -41.2104 H   0  0  0  0  0  0  0  0  0  0  0  0
  -13.0734   17.5645  -40.2930 H   0  0  0  0  0  0  0  0  0  0  0  0
  -15.0111   16.7880  -41.1906 H   0  0  0  0  0  0  0  0  0  0  0  0
  1 13  1  0  0  0  0
  1 14  2  0  0  0  0
  1 16  1  0  0  0  0
  2  3  1  0  0  0  0
  2  6  1  0  0  0  0
  3  7  1  0  0  0  0
  4  6  1  0  0  0  0
  4  7  1  0  0  0  0
  5  7  1  0  0  0  0
  5 13  1  0  0  0  0
  6 13  1  0  0  0  0
  7 11  1  0  0  0  0
  8 12  1  0  0  0  0
  9 12  1  0  0  0  0
 10 12  1  0  0  0  0
 11 15  1  0  0  0  0
 12 16  1  0  0  0  0
  2 17  1  0  0  0  0
  2 18  1  0  0  0  0
  3 19  1  0  0  0  0
  3 20  1  0  0  0  0
  4 21  1  0  0  0  0
  4 22  1  0  0  0  0
  5 23  1  0  0  0  0
  5 24  1  0  0  0  0
  6 25  1  0  0  0  0
  8 26  1  0  0  0  0
  8 27  1  0  0  0  0
  8 28  1  0  0  0  0
  9 29  1  0  0  0  0
  9 30  1  0  0  0  0
  9 31  1  0  0  0  0
 10 32  1  0  0  0  0
 10 33  1  0  0  0  0
 10 34  1  0  0  0  0
 11 35  1  0  0  0  0
 11 36  1  0  0  0  0
 15 37  1  0  0  0  0
M  END
> <id>
EN300-27747647

> <smiles>
CC(C)(C)OC(=O)N1CC2(CO)CCC1C2

> <MDLNUMBER>
MFCD34595767

> <IUPAC Name>
tert-butyl 4-(hydroxymethyl)-2-azabicyclo[2.2.1]heptane-2-carboxylate

> <CAS>
2639462-11-4

> <Purity>
95

> <URL>
https://www.enaminestore.com/catalog/EN300-27747647

> <ROCS_ShapeQuery>
__x1247relevant_x1083L0AP1_x1305L0BP1_

> <ROCS_TanimotoCombo>
0.718 

> <ROCS_ShapeTanimoto>
0.501 

> <ROCS_ColorTanimoto>
0.217 

> <ROCS_RefTversky>
0.427 

> <ROCS_RefColorTversky>
0.241 

> <ROCS_RefTverskyCombo>
0.669 

> <ROCS_FitTversky>
1.521 

> <ROCS_FitColorTversky>
0.683 

> <ROCS_FitTverskyCombo>
2.204 

> <ROCS_ColorScore>
-7.885

> <ROCS_Overlap>
1259.244

> <ROCS_Rank>
362                 

$$$$
untitled-dbase-118041_42
  -OEChem-06232314393D

 36 37  0     1  0  0  0  0  0999 V2000
  -10.0881   15.2716  -37.0294 C   0  0  0  0  0  0  0  0  0  0  0  0
  -12.9793   16.2946  -37.0498 C   0  0  0  0  0  0  0  0  0  0  0  0
  -12.7676   16.3993  -39.5268 C   0  0  0  0  0  0  0  0  0  0  0  0
  -13.6698   14.9292  -37.1622 C   0  0  0  0  0  0  0  0  0  0  0  0
  -13.4200   15.0151  -39.6625 C   0  0  0  0  0  0  0  0  0  0  0  0
  -10.9898   15.2689  -38.2221 C   0  0  2  0  0  0  0  0  0  0  0  0
  -11.9750   16.4553  -38.2074 C   0  0  0  0  0  0  0  0  0  0  0  0
  -13.1502   14.1773  -38.3991 C   0  0  0  0  0  0  0  0  0  0  0  0
   -8.5612   13.9148  -35.0483 C   0  0  0  0  0  0  0  0  0  0  0  0
  -10.7112   12.7660  -34.4426 C   0  0  0  0  0  0  0  0  0  0  0  0
   -9.7312   12.4578  -36.7344 C   0  0  0  0  0  0  0  0  0  0  0  0
   -9.9130   13.4249  -35.5655 C   0  0  0  0  0  0  0  0  0  0  0  0
  -11.6980   13.9801  -38.2337 N   0  0  0  0  0  0  0  0  0  0  0  0
   -9.0044   15.8383  -36.9910 O   0  0  0  0  0  0  0  0  0  0  0  0
  -10.6629   14.5552  -36.0217 O   0  0  0  0  0  0  0  0  0  0  0  0
  -13.7280   17.0954  -37.0813 H   0  0  0  0  0  0  0  0  0  0  0  0
  -12.4753   16.3815  -36.0806 H   0  0  0  0  0  0  0  0  0  0  0  0
  -12.1044   16.5830  -40.3805 H   0  0  0  0  0  0  0  0  0  0  0  0
  -13.5347   17.1824  -39.5488 H   0  0  0  0  0  0  0  0  0  0  0  0
  -13.4873   14.3439  -36.2524 H   0  0  0  0  0  0  0  0  0  0  0  0
  -14.7554   15.0677  -37.2327 H   0  0  0  0  0  0  0  0  0  0  0  0
  -14.4994   15.1295  -39.8176 H   0  0  0  0  0  0  0  0  0  0  0  0
  -13.0279   14.5035  -40.5502 H   0  0  0  0  0  0  0  0  0  0  0  0
  -10.3463   15.3398  -39.1079 H   0  0  0  0  0  0  0  0  0  0  0  0
  -11.4468   17.4107  -38.1148 H   0  0  0  0  0  0  0  0  0  0  0  0
  -13.6434   13.2027  -38.4768 H   0  0  0  0  0  0  0  0  0  0  0  0
   -7.9852   14.3884  -35.8514 H   0  0  0  0  0  0  0  0  0  0  0  0
   -8.6786   14.6358  -34.2328 H   0  0  0  0  0  0  0  0  0  0  0  0
   -7.9546   13.0773  -34.6853 H   0  0  0  0  0  0  0  0  0  0  0  0
  -11.6819   12.4129  -34.8092 H   0  0  0  0  0  0  0  0  0  0  0  0
  -10.9259   13.4842  -33.6430 H   0  0  0  0  0  0  0  0  0  0  0  0
  -10.1739   11.9159  -34.0100 H   0  0  0  0  0  0  0  0  0  0  0  0
  -10.7006   12.1062  -37.1056 H   0  0  0  0  0  0  0  0  0  0  0  0
   -9.1923   12.9255  -37.5648 H   0  0  0  0  0  0  0  0  0  0  0  0
   -9.1785   11.5652  -36.4194 H   0  0  0  0  0  0  0  0  0  0  0  0
  -11.3418   13.4095  -39.0003 H   0  0  0  0  0  0  0  0  0  0  0  0
  1  6  1  1  0  0  0
  1 14  2  0  0  0  0
  1 15  1  0  0  0  0
  2  4  1  0  0  0  0
  2  7  1  1  0  0  0
  3  5  1  0  0  0  0
  3  7  1  0  0  0  0
  4  8  1  1  0  0  0
  5  8  1  0  0  0  0
  6  7  1  0  0  0  0
  6 13  1  0  0  0  0
  8 13  1  0  0  0  0
  9 12  1  0  0  0  0
 10 12  1  0  0  0  0
 11 12  1  0  0  0  0
 12 15  1  0  0  0  0
  2 16  1  0  0  0  0
  2 17  1  0  0  0  0
  3 18  1  0  0  0  0
  3 19  1  0  0  0  0
  4 20  1  0  0  0  0
  4 21  1  0  0  0  0
  5 22  1  0  0  0  0
  5 23  1  0  0  0  0
  6 24  1  0  0  0  0
  7 25  1  0  0  0  0
  8 26  1  0  0  0  0
  9 27  1  0  0  0  0
  9 28  1  0  0  0  0
  9 29  1  0  0  0  0
 10 30  1  0  0  0  0
 10 31  1  0  0  0  0
 10 32  1  0  0  0  0
 11 33  1  0  0  0  0
 11 34  1  0  0  0  0
 11 35  1  0  0  0  0
 13 36  1  0  0  0  0
M  END
> <id>
EN300-6508169

> <smiles>
CC(C)(C)OC(=O)[C@H]1N[C@H]2CC[C@@H]1CC2

> <IUPAC Name>
tert-butyl (1R,3S,4s)-2-azabicyclo[2.2.2]octane-3-carboxylate

> <CAS>
2248186-35-6

> <URL>
https://www.enaminestore.com/catalog/EN300-6508169

> <ROCS_ShapeQuery>
__x1247relevant_x1083L0AP1_x1305L0BP1_

> <ROCS_TanimotoCombo>
0.718 

> <ROCS_ShapeTanimoto>
0.478 

> <ROCS_ColorTanimoto>
0.239 

> <ROCS_RefTversky>
0.409 

> <ROCS_RefColorTversky>
0.259 

> <ROCS_RefTverskyCombo>
0.669 

> <ROCS_FitTversky>
1.546 

> <ROCS_FitColorTversky>
0.755 

> <ROCS_FitTverskyCombo>
2.302 

> <ROCS_ColorScore>
-8.469

> <ROCS_Overlap>
1204.725

> <ROCS_Rank>
363                 

$$$$
untitled-dbase-91452_6
  -OEChem-06232314393D

 26 28  0     1  0  0  0  0  0999 V2000
   -9.7164   14.2573  -36.0207 C   0  0  0  0  0  0  0  0  0  0  0  0
   -9.0885   15.1622  -36.9001 C   0  0  0  0  0  0  0  0  0  0  0  0
  -11.0497   13.8827  -36.2038 C   0  0  0  0  0  0  0  0  0  0  0  0
   -9.7795   15.7136  -37.9829 C   0  0  0  0  0  0  0  0  0  0  0  0
  -11.7173   14.4262  -37.2799 C   0  0  0  0  0  0  0  0  0  0  0  0
  -11.0921   15.3310  -38.1608 C   0  0  0  0  0  0  0  0  0  0  0  0
  -11.6493   16.2529  -40.4702 C   0  0  0  0  0  0  0  0  0  0  0  0
  -13.8811   15.5943  -37.4802 C   0  0  0  0  0  0  0  0  0  0  0  0
  -13.1928   16.5981  -38.4493 C   0  0  0  0  0  0  0  0  0  0  0  0
  -12.8932   14.3832  -39.2677 C   0  0  0  0  0  0  0  0  0  0  0  0
  -13.1434   14.2665  -37.7529 C   0  0  1  0  0  0  0  0  0  0  0  0
  -12.1433   15.7277  -39.1725 C   0  0  2  0  0  0  0  0  0  0  0  0
  -10.5947   15.9358  -41.0000 O   0  0  0  0  0  0  0  0  0  0  0  0
  -12.5296   17.1409  -40.9936 O   0  0  0  0  0  0  0  0  0  0  0  0
   -9.1535   13.8492  -35.1851 H   0  0  0  0  0  0  0  0  0  0  0  0
   -8.0513   15.4387  -36.7285 H   0  0  0  0  0  0  0  0  0  0  0  0
  -11.5348   13.1933  -35.5230 H   0  0  0  0  0  0  0  0  0  0  0  0
   -9.2944   16.4175  -38.6490 H   0  0  0  0  0  0  0  0  0  0  0  0
  -13.7954   15.9201  -36.4379 H   0  0  0  0  0  0  0  0  0  0  0  0
  -14.9444   15.5073  -37.7305 H   0  0  0  0  0  0  0  0  0  0  0  0
  -13.9273   17.0136  -39.1492 H   0  0  0  0  0  0  0  0  0  0  0  0
  -12.7414   17.4332  -37.9012 H   0  0  0  0  0  0  0  0  0  0  0  0
  -12.2769   13.5686  -39.6719 H   0  0  0  0  0  0  0  0  0  0  0  0
  -13.8171   14.4448  -39.8552 H   0  0  0  0  0  0  0  0  0  0  0  0
  -13.6452   13.3562  -37.4229 H   0  0  0  0  0  0  0  0  0  0  0  0
  -12.2199   17.5014  -41.8517 H   0  0  0  0  0  0  0  0  0  0  0  0
  1  2  2  0  0  0  0
  1  3  1  0  0  0  0
  2  4  1  0  0  0  0
  3  5  2  0  0  0  0
  4  6  2  0  0  0  0
  5  6  1  0  0  0  0
  5 11  1  0  0  0  0
  6 12  1  0  0  0  0
  7 12  1  0  0  0  0
  7 13  2  0  0  0  0
  7 14  1  0  0  0  0
  8  9  1  0  0  0  0
  8 11  1  0  0  0  0
  9 12  1  0  0  0  0
 10 11  1  0  0  0  0
 10 12  1  0  0  0  0
  1 15  1  0  0  0  0
  2 16  1  0  0  0  0
  3 17  1  0  0  0  0
  4 18  1  0  0  0  0
  8 19  1  0  0  0  0
  8 20  1  0  0  0  0
  9 21  1  0  0  0  0
  9 22  1  0  0  0  0
 10 23  1  0  0  0  0
 10 24  1  0  0  0  0
 11 25  1  0  0  0  0
 14 26  1  0  0  0  0
M  END
> <id>
EN300-7354809

> <smiles>
OC(=O)C1(CCC2C1)C=3C=CC=CC23

> <MDLNUMBER>
MFCD20640097

> <IUPAC Name>
tricyclo[6.2.1.0,2,7]undeca-2,4,6-triene-1-carboxylic acid

> <CAS>
13733-46-5

> <Purity>
95

> <URL>
https://www.enaminestore.com/catalog/EN300-7354809

> <MP>
93-94

> <ROCS_ShapeQuery>
__x1247relevant_x1083L0AP1_x1305L0BP1_

> <ROCS_TanimotoCombo>
0.717 

> <ROCS_ShapeTanimoto>
0.511 

> <ROCS_ColorTanimoto>
0.206 

> <ROCS_RefTversky>
0.427 

> <ROCS_RefColorTversky>
0.231 

> <ROCS_RefTverskyCombo>
0.659 

> <ROCS_FitTversky>
1.628 

> <ROCS_FitColorTversky>
0.653 

> <ROCS_FitTverskyCombo>
2.281 

> <ROCS_ColorScore>
-7.561

> <ROCS_Overlap>
1257.452

> <ROCS_Rank>
364                 

$$$$
untitled-dbase-178641_17
  -OEChem-06232314393D

 27 29  0     1  0  0  0  0  0999 V2000
   -9.4051   13.9043  -36.7967 C   0  0  0  0  0  0  0  0  0  0  0  0
   -9.4272   15.2165  -36.2763 C   0  0  0  0  0  0  0  0  0  0  0  0
  -10.3896   13.4593  -37.6838 C   0  0  0  0  0  0  0  0  0  0  0  0
  -10.4346   16.1195  -36.6286 C   0  0  0  0  0  0  0  0  0  0  0  0
  -11.3721   14.3578  -38.0308 C   0  0  0  0  0  0  0  0  0  0  0  0
  -11.3946   15.6745  -37.5081 C   0  0  0  0  0  0  0  0  0  0  0  0
  -12.8564   16.0729  -40.6494 C   0  0  0  0  0  0  0  0  0  0  0  0
  -13.8167   14.2121  -37.9827 C   0  0  0  0  0  0  0  0  0  0  0  0
  -13.8417   15.6751  -37.4018 C   0  0  0  0  0  0  0  0  0  0  0  0
  -12.5892   14.2392  -38.9206 C   0  0  1  0  0  0  0  0  0  0  0  0
  -12.6253   16.3357  -38.0892 C   0  0  2  0  0  0  0  0  0  0  0  0
  -13.6420   15.1522  -41.5447 C   0  0  0  0  0  0  0  0  0  0  0  0
  -12.6795   15.6254  -39.3667 N   0  0  0  0  0  0  0  0  0  0  0  0
  -12.4223   17.1444  -41.0728 O   0  0  0  0  0  0  0  0  0  0  0  0
  -15.3379   15.5858  -41.3537 Cl  0  0  0  0  0  0  0  0  0  0  0  0
   -8.6088   13.2275  -36.4968 H   0  0  0  0  0  0  0  0  0  0  0  0
   -8.6476   15.5267  -35.5849 H   0  0  0  0  0  0  0  0  0  0  0  0
  -10.3757   12.4495  -38.0759 H   0  0  0  0  0  0  0  0  0  0  0  0
  -10.4548   17.1234  -36.2220 H   0  0  0  0  0  0  0  0  0  0  0  0
  -13.7313   13.4692  -37.1823 H   0  0  0  0  0  0  0  0  0  0  0  0
  -14.7390   14.0241  -38.5439 H   0  0  0  0  0  0  0  0  0  0  0  0
  -14.7757   16.1693  -37.6923 H   0  0  0  0  0  0  0  0  0  0  0  0
  -13.7696   15.6689  -36.3088 H   0  0  0  0  0  0  0  0  0  0  0  0
  -12.5449   13.4978  -39.7190 H   0  0  0  0  0  0  0  0  0  0  0  0
  -12.6108   17.4236  -38.1465 H   0  0  0  0  0  0  0  0  0  0  0  0
  -13.4831   14.1276  -41.2256 H   0  0  0  0  0  0  0  0  0  0  0  0
  -13.3325   15.3089  -42.5725 H   0  0  0  0  0  0  0  0  0  0  0  0
  1  2  2  0  0  0  0
  1  3  1  0  0  0  0
  2  4  1  0  0  0  0
  3  5  2  0  0  0  0
  4  6  2  0  0  0  0
  5  6  1  0  0  0  0
  5 10  1  0  0  0  0
  6 11  1  0  0  0  0
  7 12  1  0  0  0  0
  7 13  1  0  0  0  0
  7 14  2  0  0  0  0
  8  9  1  0  0  0  0
  8 10  1  0  0  0  0
  9 11  1  0  0  0  0
 10 13  1  0  0  0  0
 11 13  1  0  0  0  0
 12 15  1  0  0  0  0
  1 16  1  0  0  0  0
  2 17  1  0  0  0  0
  3 18  1  0  0  0  0
  4 19  1  0  0  0  0
  8 20  1  0  0  0  0
  8 21  1  0  0  0  0
  9 22  1  0  0  0  0
  9 23  1  0  0  0  0
 10 24  1  0  0  0  0
 11 25  1  0  0  0  0
 12 26  1  0  0  0  0
 12 27  1  0  0  0  0
M  END
> <id>
EN300-26597434

> <smiles>
ClCC(=O)N1C2CCC1C=3C=CC=CC23

> <IUPAC Name>
1-{11-azatricyclo[6.2.1.0,2,7]undeca-2,4,6-trien-11-yl}-2-chloroethan-1-one

> <CAS>
2156410-40-9

> <URL>
https://www.enaminestore.com/catalog/EN300-26597434

> <ROCS_ShapeQuery>
__x1247relevant_x1083L0AP1_x1305L0BP1_

> <ROCS_TanimotoCombo>
0.717 

> <ROCS_ShapeTanimoto>
0.499 

> <ROCS_ColorTanimoto>
0.219 

> <ROCS_RefTversky>
0.424 

> <ROCS_RefColorTversky>
0.233 

> <ROCS_RefTverskyCombo>
0.657 

> <ROCS_FitTversky>
1.552 

> <ROCS_FitColorTversky>
0.781 

> <ROCS_FitTverskyCombo>
2.333 

> <ROCS_ColorScore>
-7.593

> <ROCS_Overlap>
1247.456

> <ROCS_Rank>
365                 

$$$$
untitled-dbase-156744_7
  -OEChem-06232314393D

 24 25  0     1  0  0  0  0  0999 V2000
  -12.3039   16.1873  -39.3644 C   0  0  0  0  0  0  0  0  0  0  0  0
  -11.3591   14.9324  -35.8947 C   0  0  0  0  0  0  0  0  0  0  0  0
  -13.1781   15.0662  -39.8803 C   0  0  0  0  0  0  0  0  0  0  0  0
  -13.7486   15.6875  -37.6421 C   0  0  0  0  0  0  0  0  0  0  0  0
  -12.3688   13.7489  -37.8736 C   0  0  0  0  0  0  0  0  0  0  0  0
  -12.3029   16.1618  -37.8473 C   0  0  1  0  0  0  0  0  0  0  0  0
  -13.5870   14.4489  -38.5257 C   0  0  2  0  0  0  0  0  0  0  0  0
  -11.4836   14.9325  -37.3971 C   0  0  1  0  0  0  0  0  0  0  0  0
  -10.0625   14.8770  -37.9556 C   0  0  0  0  0  0  0  0  0  0  0  0
  -11.6745   16.9688  -40.0601 O   0  0  0  0  0  0  0  0  0  0  0  0
  -12.2937   15.0274  -35.1131 O   0  0  0  0  0  0  0  0  0  0  0  0
  -10.0613   14.8144  -35.5219 O   0  0  0  0  0  0  0  0  0  0  0  0
   -9.4477   13.7627  -37.5330 F   0  0  0  0  0  0  0  0  0  0  0  0
  -10.0973   14.8744  -39.2961 F   0  0  0  0  0  0  0  0  0  0  0  0
   -9.3653   15.9442  -37.5394 F   0  0  0  0  0  0  0  0  0  0  0  0
  -14.0375   15.4862  -40.4093 H   0  0  0  0  0  0  0  0  0  0  0  0
  -12.6135   14.3752  -40.5093 H   0  0  0  0  0  0  0  0  0  0  0  0
  -13.9900   15.4475  -36.6019 H   0  0  0  0  0  0  0  0  0  0  0  0
  -14.4941   16.3900  -38.0323 H   0  0  0  0  0  0  0  0  0  0  0  0
  -12.7025   13.1264  -37.0354 H   0  0  0  0  0  0  0  0  0  0  0  0
  -11.8581   13.0962  -38.5902 H   0  0  0  0  0  0  0  0  0  0  0  0
  -12.0665   17.1206  -37.3847 H   0  0  0  0  0  0  0  0  0  0  0  0
  -14.4673   13.8066  -38.5966 H   0  0  0  0  0  0  0  0  0  0  0  0
   -9.9589   14.8143  -34.5462 H   0  0  0  0  0  0  0  0  0  0  0  0
  1  3  1  0  0  0  0
  1  6  1  0  0  0  0
  1 10  2  0  0  0  0
  2  8  1  0  0  0  0
  2 11  2  0  0  0  0
  2 12  1  0  0  0  0
  3  7  1  0  0  0  0
  4  6  1  0  0  0  0
  4  7  1  0  0  0  0
  5  7  1  0  0  0  0
  5  8  1  0  0  0  0
  6  8  1  0  0  0  0
  8  9  1  0  0  0  0
  9 13  1  0  0  0  0
  9 14  1  0  0  0  0
  9 15  1  0  0  0  0
  3 16  1  0  0  0  0
  3 17  1  0  0  0  0
  4 18  1  0  0  0  0
  4 19  1  0  0  0  0
  5 20  1  0  0  0  0
  5 21  1  0  0  0  0
  6 22  1  0  0  0  0
  7 23  1  0  0  0  0
 12 24  1  0  0  0  0
M  END
> <id>
EN300-27780810

> <smiles>
OC(=O)C1(CC2CC1C(=O)C2)C(F)(F)F

> <MDLNUMBER>
MFCD34185896

> <IUPAC Name>
6-oxo-2-(trifluoromethyl)bicyclo[2.2.1]heptane-2-carboxylic acid

> <CAS>
2680534-71-6

> <Purity>
95

> <URL>
https://www.enaminestore.com/catalog/EN300-27780810

> <ROCS_ShapeQuery>
__x1247relevant_x1083L0AP1_x1305L0BP1_

> <ROCS_TanimotoCombo>
0.717 

> <ROCS_ShapeTanimoto>
0.528 

> <ROCS_ColorTanimoto>
0.189 

> <ROCS_RefTversky>
0.442 

> <ROCS_RefColorTversky>
0.215 

> <ROCS_RefTverskyCombo>
0.657 

> <ROCS_FitTversky>
1.585 

> <ROCS_FitColorTversky>
0.610 

> <ROCS_FitTverskyCombo>
2.195 

> <ROCS_ColorScore>
-7.027

> <ROCS_Overlap>
1302.452

> <ROCS_Rank>
366                 

$$$$
untitled-dbase-55228_4
  -OEChem-06232314393D

 22 23  0     1  0  0  0  0  0999 V2000
  -13.8504   15.9221  -39.1422 C   0  0  0  0  0  0  0  0  0  0  0  0
  -13.9905   15.7842  -37.6248 C   0  0  0  0  0  0  0  0  0  0  0  0
  -11.3431   15.8324  -38.9376 C   0  0  0  0  0  0  0  0  0  0  0  0
  -12.5941   15.0991  -39.4235 C   0  0  1  0  0  0  0  0  0  0  0  0
  -12.7809   14.9206  -37.2702 C   0  0  2  0  0  0  0  0  0  0  0  0
  -11.4904   15.7298  -37.4172 C   0  0  1  0  0  0  0  0  0  0  0  0
  -10.2467   13.3843  -37.4703 N   0  0  0  0  0  0  0  0  0  0  0  0
   -8.9018   15.5475  -37.1118 O   0  0  0  0  0  0  0  0  0  0  0  0
  -10.4119   14.7050  -35.2691 O   0  0  0  0  0  0  0  0  0  0  0  0
  -12.7133   14.0557  -38.4306 O   0  0  0  0  0  0  0  0  0  0  0  0
  -10.1211   14.8888  -36.6794 S   0  0  0  0  0  0  0  0  0  0  0  0
  -14.7226   15.4743  -39.6315 H   0  0  0  0  0  0  0  0  0  0  0  0
  -13.7650   16.9615  -39.4724 H   0  0  0  0  0  0  0  0  0  0  0  0
  -13.9987   16.7465  -37.1047 H   0  0  0  0  0  0  0  0  0  0  0  0
  -14.9223   15.2568  -37.3913 H   0  0  0  0  0  0  0  0  0  0  0  0
  -10.4417   15.3217  -39.2936 H   0  0  0  0  0  0  0  0  0  0  0  0
  -11.3102   16.8686  -39.2883 H   0  0  0  0  0  0  0  0  0  0  0  0
  -12.5250   14.7059  -40.4401 H   0  0  0  0  0  0  0  0  0  0  0  0
  -12.8844   14.3537  -36.3420 H   0  0  0  0  0  0  0  0  0  0  0  0
  -11.5470   16.7078  -36.9295 H   0  0  0  0  0  0  0  0  0  0  0  0
  -11.0303   12.7718  -37.2125 H   0  0  0  0  0  0  0  0  0  0  0  0
  -10.0016   13.3456  -38.4673 H   0  0  0  0  0  0  0  0  0  0  0  0
  1  2  1  0  0  0  0
  1  4  1  0  0  0  0
  2  5  1  0  0  0  0
  3  4  1  0  0  0  0
  3  6  1  0  0  0  0
  4 10  1  0  0  0  0
  5  6  1  0  0  0  0
  5 10  1  0  0  0  0
  6 11  1  0  0  0  0
  7 11  1  0  0  0  0
  8 11  2  0  0  0  0
  9 11  2  0  0  0  0
  1 12  1  0  0  0  0
  1 13  1  0  0  0  0
  2 14  1  0  0  0  0
  2 15  1  0  0  0  0
  3 16  1  0  0  0  0
  3 17  1  0  0  0  0
  4 18  1  0  0  0  0
  5 19  1  0  0  0  0
  6 20  1  0  0  0  0
  7 21  1  0  0  0  0
  7 22  1  0  0  0  0
M  END
> <id>
EN300-245165

> <smiles>
NS(=O)(=O)C1CC2CCC1O2

> <MDLNUMBER>
MFCD29041209

> <IUPAC Name>
7-oxabicyclo[2.2.1]heptane-2-sulfonamide

> <CAS>
1864058-40-1

> <Purity>
95

> <URL>
https://www.enaminestore.com/catalog/EN300-245165

> <ROCS_ShapeQuery>
__x1247relevant_x1083L0AP1_x1305L0BP1_

> <ROCS_TanimotoCombo>
0.717 

> <ROCS_ShapeTanimoto>
0.448 

> <ROCS_ColorTanimoto>
0.269 

> <ROCS_RefTversky>
0.373 

> <ROCS_RefColorTversky>
0.287 

> <ROCS_RefTverskyCombo>
0.660 

> <ROCS_FitTversky>
1.821 

> <ROCS_FitColorTversky>
0.813 

> <ROCS_FitTverskyCombo>
2.635 

> <ROCS_ColorScore>
-9.385

> <ROCS_Overlap>
1093.424

> <ROCS_Rank>
367                 

$$$$
untitled-dbase-159186_12
  -OEChem-06232314393D

 30 32  0     0  0  0  0  0  0999 V2000
  -12.4794   16.1987  -39.6775 C   0  0  0  0  0  0  0  0  0  0  0  0
  -10.3611   13.5766  -36.5779 C   0  0  0  0  0  0  0  0  0  0  0  0
   -9.9759   16.0600  -36.5722 C   0  0  0  0  0  0  0  0  0  0  0  0
  -12.8139   13.8102  -38.0406 C   0  0  0  0  0  0  0  0  0  0  0  0
  -13.5328   15.5296  -37.0432 C   0  0  0  0  0  0  0  0  0  0  0  0
   -9.3839   13.4777  -37.7503 C   0  0  0  0  0  0  0  0  0  0  0  0
   -9.0143   15.8634  -37.7452 C   0  0  0  0  0  0  0  0  0  0  0  0
  -11.0361   14.9528  -36.4889 C   0  0  0  0  0  0  0  0  0  0  0  0
  -14.0035   14.7762  -38.3233 C   0  0  0  0  0  0  0  0  0  0  0  0
  -12.1161   15.1227  -37.5604 C   0  0  0  0  0  0  0  0  0  0  0  0
  -13.7233   15.5923  -39.5283 N   0  0  0  0  0  0  0  0  0  0  0  0
   -8.3808   14.5437  -37.7151 N   0  0  0  0  0  0  0  0  0  0  0  0
  -12.1631   16.8895  -40.6415 O   0  0  0  0  0  0  0  0  0  0  0  0
  -11.6026   15.9603  -38.6342 O   0  0  0  0  0  0  0  0  0  0  0  0
  -11.1277   12.7882  -36.6747 H   0  0  0  0  0  0  0  0  0  0  0  0
   -9.8302   13.3609  -35.6362 H   0  0  0  0  0  0  0  0  0  0  0  0
   -9.4050   16.1004  -35.6302 H   0  0  0  0  0  0  0  0  0  0  0  0
  -10.4677   17.0438  -36.6650 H   0  0  0  0  0  0  0  0  0  0  0  0
  -13.0043   13.0568  -37.2673 H   0  0  0  0  0  0  0  0  0  0  0  0
  -12.3720   13.3188  -38.9122 H   0  0  0  0  0  0  0  0  0  0  0  0
  -13.7448   16.6021  -37.0074 H   0  0  0  0  0  0  0  0  0  0  0  0
  -13.8479   15.0741  -36.0971 H   0  0  0  0  0  0  0  0  0  0  0  0
   -8.8913   12.4974  -37.7499 H   0  0  0  0  0  0  0  0  0  0  0  0
   -9.9447   13.5528  -38.6885 H   0  0  0  0  0  0  0  0  0  0  0  0
   -9.5706   15.9647  -38.6835 H   0  0  0  0  0  0  0  0  0  0  0  0
   -8.2482   16.6487  -37.7416 H   0  0  0  0  0  0  0  0  0  0  0  0
  -11.5253   15.0272  -35.4878 H   0  0  0  0  0  0  0  0  0  0  0  0
  -15.0079   14.3502  -38.3129 H   0  0  0  0  0  0  0  0  0  0  0  0
  -14.4362   15.7086  -40.2425 H   0  0  0  0  0  0  0  0  0  0  0  0
   -7.8268   14.4558  -36.8629 H   0  0  0  0  0  0  0  0  0  0  0  0
  1 11  1  0  0  0  0
  1 13  2  0  0  0  0
  1 14  1  0  0  0  0
  2  6  1  0  0  0  0
  2  8  1  0  0  0  0
  3  7  1  0  0  0  0
  3  8  1  0  0  0  0
  4  9  1  1  0  0  0
  4 10  1  0  0  0  0
  5  9  1  0  0  0  0
  5 10  1  0  0  0  0
  6 12  1  0  0  0  0
  7 12  1  0  0  0  0
  8 10  1  6  0  0  0
  9 11  1  0  0  0  0
 10 14  1  0  0  0  0
  2 15  1  0  0  0  0
  2 16  1  0  0  0  0
  3 17  1  0  0  0  0
  3 18  1  0  0  0  0
  4 19  1  0  0  0  0
  4 20  1  0  0  0  0
  5 21  1  0  0  0  0
  5 22  1  0  0  0  0
  6 23  1  0  0  0  0
  6 24  1  0  0  0  0
  7 25  1  0  0  0  0
  7 26  1  0  0  0  0
  8 27  1  0  0  0  0
  9 28  1  0  0  0  0
 11 29  1  0  0  0  0
 12 30  1  0  0  0  0
M  END
> <id>
EN300-36596249

> <smiles>
O=C1N[C@H]2C[C@](C2)(O1)C3CCNCC3

> <IUPAC Name>
(1s)-1-(piperidin-4-yl)-2-oxa-4-azabicyclo[3.1.1]heptan-3-one

> <CAS>
2694746-77-3

> <URL>
https://www.enaminestore.com/catalog/EN300-36596249

> <ROCS_ShapeQuery>
__x1247relevant_x1083L0AP1_x1305L0BP1_

> <ROCS_TanimotoCombo>
0.717 

> <ROCS_ShapeTanimoto>
0.521 

> <ROCS_ColorTanimoto>
0.196 

> <ROCS_RefTversky>
0.430 

> <ROCS_RefColorTversky>
0.226 

> <ROCS_RefTverskyCombo>
0.655 

> <ROCS_FitTversky>
1.686 

> <ROCS_FitColorTversky>
0.602 

> <ROCS_FitTverskyCombo>
2.288 

> <ROCS_ColorScore>
-7.380

> <ROCS_Overlap>
1264.738

> <ROCS_Rank>
368                 

$$$$
untitled-dbase-45265_9
  -OEChem-06232314393D

 38 41  0     1  0  0  0  0  0999 V2000
   -7.7660   14.8344  -38.4330 C   0  0  0  0  0  0  0  0  0  0  0  0
   -6.8787   15.5985  -37.4904 C   0  0  0  0  0  0  0  0  0  0  0  0
  -12.7963   13.9989  -39.4011 C   0  0  0  0  0  0  0  0  0  0  0  0
  -12.2040   16.3955  -39.4007 C   0  0  0  0  0  0  0  0  0  0  0  0
  -13.9675   14.3679  -38.4776 C   0  0  0  0  0  0  0  0  0  0  0  0
  -13.3002   16.6802  -38.3649 C   0  0  0  0  0  0  0  0  0  0  0  0
   -9.8488   13.4519  -36.1878 C   0  0  0  0  0  0  0  0  0  0  0  0
  -12.4242   15.0890  -36.7761 C   0  0  0  0  0  0  0  0  0  0  0  0
   -9.5042   15.9154  -36.2454 C   0  0  0  0  0  0  0  0  0  0  0  0
   -7.6382   14.3970  -37.0001 C   0  0  0  0  0  0  0  0  0  0  0  0
  -11.6361   14.9815  -39.1563 C   0  0  0  0  0  0  0  0  0  0  0  0
   -8.8135   14.5698  -36.0323 C   0  0  2  0  0  0  0  0  0  0  0  0
  -11.1621   14.8782  -37.6708 C   0  0  2  0  0  0  0  0  0  0  0  0
  -10.5678   13.5431  -37.4580 N   0  0  0  0  0  0  0  0  0  0  0  0
  -13.6191   15.4795  -37.5661 N   0  0  0  0  0  0  0  0  0  0  0  0
  -10.2058   15.9429  -37.4874 O   0  0  0  0  0  0  0  0  0  0  0  0
   -8.6873   15.3063  -38.7513 H   0  0  0  0  0  0  0  0  0  0  0  0
   -7.2897   14.2241  -39.1905 H   0  0  0  0  0  0  0  0  0  0  0  0
   -5.8073   15.5003  -37.6154 H   0  0  0  0  0  0  0  0  0  0  0  0
   -7.2056   16.5823  -37.1773 H   0  0  0  0  0  0  0  0  0  0  0  0
  -12.4895   12.9609  -39.2429 H   0  0  0  0  0  0  0  0  0  0  0  0
  -13.1236   14.0690  -40.4456 H   0  0  0  0  0  0  0  0  0  0  0  0
  -12.6202   16.4581  -40.4134 H   0  0  0  0  0  0  0  0  0  0  0  0
  -11.4163   17.1535  -39.3337 H   0  0  0  0  0  0  0  0  0  0  0  0
  -14.8479   14.6400  -39.0741 H   0  0  0  0  0  0  0  0  0  0  0  0
  -14.2709   13.4898  -37.8932 H   0  0  0  0  0  0  0  0  0  0  0  0
  -12.9897   17.4957  -37.6995 H   0  0  0  0  0  0  0  0  0  0  0  0
  -14.2046   17.0412  -38.8705 H   0  0  0  0  0  0  0  0  0  0  0  0
   -9.3773   12.4612  -36.0805 H   0  0  0  0  0  0  0  0  0  0  0  0
  -10.5814   13.5164  -35.3675 H   0  0  0  0  0  0  0  0  0  0  0  0
  -12.6787   14.1816  -36.2113 H   0  0  0  0  0  0  0  0  0  0  0  0
  -12.2357   15.8564  -36.0133 H   0  0  0  0  0  0  0  0  0  0  0  0
  -10.2385   16.0943  -35.4480 H   0  0  0  0  0  0  0  0  0  0  0  0
   -8.7934   16.7525  -36.1994 H   0  0  0  0  0  0  0  0  0  0  0  0
   -7.0751   13.4937  -36.7989 H   0  0  0  0  0  0  0  0  0  0  0  0
  -10.8243   14.7965  -39.8702 H   0  0  0  0  0  0  0  0  0  0  0  0
   -8.4216   14.5379  -35.0142 H   0  0  0  0  0  0  0  0  0  0  0  0
   -9.9520   13.2859  -38.2274 H   0  0  0  0  0  0  0  0  0  0  0  0
  1  2  1  0  0  0  0
  1 10  1  0  0  0  0
  2 10  1  0  0  0  0
  3  5  1  0  0  0  0
  3 11  1  0  0  0  0
  4  6  1  0  0  0  0
  4 11  1  0  0  0  0
  5 15  1  0  0  0  0
  6 15  1  0  0  0  0
  7 12  1  0  0  0  0
  7 14  1  0  0  0  0
  8 13  1  0  0  0  0
  8 15  1  0  0  0  0
  9 12  1  0  0  0  0
  9 16  1  0  0  0  0
 10 12  1  0  0  0  0
 11 13  1  0  0  0  0
 13 14  1  0  0  0  0
 13 16  1  0  0  0  0
  1 17  1  0  0  0  0
  1 18  1  0  0  0  0
  2 19  1  0  0  0  0
  2 20  1  0  0  0  0
  3 21  1  0  0  0  0
  3 22  1  0  0  0  0
  4 23  1  0  0  0  0
  4 24  1  0  0  0  0
  5 25  1  0  0  0  0
  5 26  1  0  0  0  0
  6 27  1  0  0  0  0
  6 28  1  0  0  0  0
  7 29  1  0  0  0  0
  7 30  1  0  0  0  0
  8 31  1  0  0  0  0
  8 32  1  0  0  0  0
  9 33  1  0  0  0  0
  9 34  1  0  0  0  0
 10 35  1  0  0  0  0
 11 36  1  0  0  0  0
 12 37  1  0  0  0  0
 14 38  1  0  0  0  0
M  END
> <id>
EN300-1279615

> <smiles>
C1CC1C2CNC3(CN4CCC3CC4)OC2

> <IUPAC Name>
5'-cyclopropyl-4-azaspiro[bicyclo[2.2.2]octane-2,2'-[1,3]oxazinane]

> <CAS>
2172151-08-3

> <URL>
https://www.enaminestore.com/catalog/EN300-1279615

> <ROCS_ShapeQuery>
__x1247relevant_x1083L0AP1_x1305L0BP1_

> <ROCS_TanimotoCombo>
0.717 

> <ROCS_ShapeTanimoto>
0.475 

> <ROCS_ColorTanimoto>
0.242 

> <ROCS_RefTversky>
0.413 

> <ROCS_RefColorTversky>
0.268 

> <ROCS_RefTverskyCombo>
0.681 

> <ROCS_FitTversky>
1.458 

> <ROCS_FitColorTversky>
0.717 

> <ROCS_FitTverskyCombo>
2.175 

> <ROCS_ColorScore>
-8.759

> <ROCS_Overlap>
1217.886

> <ROCS_Rank>
369                 

$$$$
untitled-dbase-150850_67
  -OEChem-06232314393D

 29 30  0     1  0  0  0  0  0999 V2000
   -9.9287   14.9678  -36.6384 C   0  0  0  0  0  0  0  0  0  0  0  0
  -13.4727   16.3102  -40.7424 C   0  0  0  0  0  0  0  0  0  0  0  0
  -11.8247   13.7351  -37.7019 C   0  0  0  0  0  0  0  0  0  0  0  0
  -11.0562   16.0822  -38.5647 C   0  0  0  0  0  0  0  0  0  0  0  0
  -13.1208   15.8306  -37.1470 C   0  0  0  0  0  0  0  0  0  0  0  0
  -13.8635   14.5242  -38.9798 C   0  0  0  0  0  0  0  0  0  0  0  0
  -10.6658   14.7295  -37.9327 C   0  0  1  0  0  0  0  0  0  0  0  0
  -13.2250   14.3711  -37.5924 C   0  0  1  0  0  0  0  0  0  0  0  0
  -12.5429   16.4455  -38.4188 C   0  0  2  0  0  0  0  0  0  0  0  0
  -14.7626   15.9530  -41.4361 C   0  0  0  0  0  0  0  0  0  0  0  0
  -13.3115   15.7791  -39.4756 N   0  0  0  0  0  0  0  0  0  0  0  0
  -10.2496   14.5072  -35.5530 O   0  0  0  0  0  0  0  0  0  0  0  0
  -12.6403   17.0252  -41.3025 O   0  0  0  0  0  0  0  0  0  0  0  0
   -8.8549   15.7700  -36.8398 O   0  0  0  0  0  0  0  0  0  0  0  0
  -11.8227   12.9901  -38.5189 H   0  0  0  0  0  0  0  0  0  0  0  0
  -11.6343   13.1491  -36.7830 H   0  0  0  0  0  0  0  0  0  0  0  0
  -10.4482   16.8956  -38.1224 H   0  0  0  0  0  0  0  0  0  0  0  0
  -10.7744   16.0725  -39.6353 H   0  0  0  0  0  0  0  0  0  0  0  0
  -14.1120   16.2435  -36.9303 H   0  0  0  0  0  0  0  0  0  0  0  0
  -12.4851   15.9691  -36.2686 H   0  0  0  0  0  0  0  0  0  0  0  0
  -13.6399   13.6969  -39.6594 H   0  0  0  0  0  0  0  0  0  0  0  0
  -14.9500   14.6427  -38.9045 H   0  0  0  0  0  0  0  0  0  0  0  0
   -9.9225   14.2399  -38.6054 H   0  0  0  0  0  0  0  0  0  0  0  0
  -13.8610   13.7758  -36.9248 H   0  0  0  0  0  0  0  0  0  0  0  0
  -12.6837   17.5359  -38.4717 H   0  0  0  0  0  0  0  0  0  0  0  0
  -15.5139   16.6980  -41.1951 H   0  0  0  0  0  0  0  0  0  0  0  0
  -15.0893   14.9745  -41.0982 H   0  0  0  0  0  0  0  0  0  0  0  0
  -14.5949   15.9290  -42.5082 H   0  0  0  0  0  0  0  0  0  0  0  0
   -8.7667   16.0350  -37.7802 H   0  0  0  0  0  0  0  0  0  0  0  0
  1  7  1  1  0  0  0
  1 12  2  0  0  0  0
  1 14  1  0  0  0  0
  2 10  1  0  0  0  0
  2 11  1  0  0  0  0
  2 13  2  0  0  0  0
  3  7  1  0  0  0  0
  3  8  1  0  0  0  0
  4  7  1  0  0  0  0
  4  9  1  6  0  0  0
  5  8  1  0  0  0  0
  5  9  1  0  0  0  0
  6  8  1  6  0  0  0
  6 11  1  0  0  0  0
  9 11  1  0  0  0  0
  3 15  1  0  0  0  0
  3 16  1  0  0  0  0
  4 17  1  0  0  0  0
  4 18  1  0  0  0  0
  5 19  1  0  0  0  0
  5 20  1  0  0  0  0
  6 21  1  0  0  0  0
  6 22  1  0  0  0  0
  7 23  1  0  0  0  0
  8 24  1  0  0  0  0
  9 25  1  0  0  0  0
 10 26  1  0  0  0  0
 10 27  1  0  0  0  0
 10 28  1  0  0  0  0
 14 29  1  0  0  0  0
M  END
> <id>
EN300-28272051

> <smiles>
CC(=O)N1C[C@@H]2C[C@H]1C[C@H](C2)C(=O)O |&1:5,7,9,r|

> <IUPAC Name>
rac-(1R,3R,5R)-6-acetyl-6-azabicyclo[3.2.1]octane-3-carboxylic acid

> <CAS>
2679822-98-9

> <URL>
https://www.enaminestore.com/catalog/EN300-28272051

> <ROCS_ShapeQuery>
__x1247relevant_x1083L0AP1_x1305L0BP1_

> <ROCS_TanimotoCombo>
0.717 

> <ROCS_ShapeTanimoto>
0.494 

> <ROCS_ColorTanimoto>
0.222 

> <ROCS_RefTversky>
0.414 

> <ROCS_RefColorTversky>
0.244 

> <ROCS_RefTverskyCombo>
0.658 

> <ROCS_FitTversky>
1.647 

> <ROCS_FitColorTversky>
0.719 

> <ROCS_FitTverskyCombo>
2.366 

> <ROCS_ColorScore>
-7.953

> <ROCS_Overlap>
1217.903

> <ROCS_Rank>
370                 

$$$$
untitled-dbase-142662_4
  -OEChem-06232314393D

 32 34  0     0  0  0  0  0  0999 V2000
  -11.4755   16.7325  -39.9001 C   0  0  0  0  0  0  0  0  0  0  0  0
  -10.7225   16.0266  -36.8393 C   0  0  0  0  0  0  0  0  0  0  0  0
  -10.3438   14.0982  -38.4123 C   0  0  0  0  0  0  0  0  0  0  0  0
  -13.5121   16.3039  -38.2026 C   0  0  0  0  0  0  0  0  0  0  0  0
  -13.1992   14.7122  -39.5009 C   0  0  0  0  0  0  0  0  0  0  0  0
   -9.8947   15.2711  -35.7975 C   0  0  0  0  0  0  0  0  0  0  0  0
   -9.5298   13.4238  -37.3059 C   0  0  0  0  0  0  0  0  0  0  0  0
  -12.2022   15.8046  -38.9373 C   0  0  0  0  0  0  0  0  0  0  0  0
  -11.3825   15.0680  -37.8369 C   0  0  0  0  0  0  0  0  0  0  0  0
  -13.6144   14.7469  -37.9810 C   0  0  0  0  0  0  0  0  0  0  0  0
  -14.8886   14.1128  -37.5116 C   0  0  0  0  0  0  0  0  0  0  0  0
   -8.8982   14.4084  -36.4294 N   0  0  0  0  0  0  0  0  0  0  0  0
  -10.3183   17.1055  -39.7766 O   0  0  0  0  0  0  0  0  0  0  0  0
  -12.4520   14.3389  -37.2005 O   0  0  0  0  0  0  0  0  0  0  0  0
  -12.2897   17.0962  -40.9209 O   0  0  0  0  0  0  0  0  0  0  0  0
  -11.4700   16.6186  -36.3009 H   0  0  0  0  0  0  0  0  0  0  0  0
  -10.0759   16.7362  -37.3699 H   0  0  0  0  0  0  0  0  0  0  0  0
   -9.6634   14.6322  -39.0871 H   0  0  0  0  0  0  0  0  0  0  0  0
  -10.8202   13.3069  -39.0006 H   0  0  0  0  0  0  0  0  0  0  0  0
  -13.3874   16.9071  -37.3005 H   0  0  0  0  0  0  0  0  0  0  0  0
  -14.2833   16.7716  -38.8267 H   0  0  0  0  0  0  0  0  0  0  0  0
  -13.9448   15.0506  -40.2304 H   0  0  0  0  0  0  0  0  0  0  0  0
  -12.7712   13.7725  -39.8572 H   0  0  0  0  0  0  0  0  0  0  0  0
   -9.3807   15.9909  -35.1507 H   0  0  0  0  0  0  0  0  0  0  0  0
  -10.5457   14.6765  -35.1456 H   0  0  0  0  0  0  0  0  0  0  0  0
  -10.1648   12.7510  -36.7168 H   0  0  0  0  0  0  0  0  0  0  0  0
   -8.7504   12.8000  -37.7575 H   0  0  0  0  0  0  0  0  0  0  0  0
  -14.7782   13.0240  -37.4125 H   0  0  0  0  0  0  0  0  0  0  0  0
  -15.7101   14.3018  -38.2164 H   0  0  0  0  0  0  0  0  0  0  0  0
  -15.1921   14.5076  -36.5320 H   0  0  0  0  0  0  0  0  0  0  0  0
   -8.2635   14.9850  -36.9822 H   0  0  0  0  0  0  0  0  0  0  0  0
  -11.8395   17.6970  -41.5524 H   0  0  0  0  0  0  0  0  0  0  0  0
  1  8  1  0  0  0  0
  1 13  2  0  0  0  0
  1 15  1  0  0  0  0
  2  6  1  0  0  0  0
  2  9  1  0  0  0  0
  3  7  1  0  0  0  0
  3  9  1  0  0  0  0
  4  8  1  0  0  0  0
  4 10  1  0  0  0  0
  5  8  1  0  0  0  0
  5 10  1  0  0  0  0
  6 12  1  0  0  0  0
  7 12  1  0  0  0  0
  8  9  1  0  0  0  0
  9 14  1  0  0  0  0
 10 11  1  0  0  0  0
 10 14  1  0  0  0  0
  2 16  1  0  0  0  0
  2 17  1  0  0  0  0
  3 18  1  0  0  0  0
  3 19  1  0  0  0  0
  4 20  1  0  0  0  0
  4 21  1  0  0  0  0
  5 22  1  0  0  0  0
  5 23  1  0  0  0  0
  6 24  1  0  0  0  0
  6 25  1  0  0  0  0
  7 26  1  0  0  0  0
  7 27  1  0  0  0  0
 11 28  1  0  0  0  0
 11 29  1  0  0  0  0
 11 30  1  0  0  0  0
 12 31  1  0  0  0  0
 15 32  1  0  0  0  0
M  END
> <id>
EN300-1716155

> <smiles>
CC1(CC2(C1)C(=O)O)OC32CCNCC3

> <IUPAC Name>
4-methyl-3-oxaspiro[bicyclo[2.1.1]hexane-2,4'-piperidine]-1-carboxylic acid

> <CAS>
2385349-96-0

> <URL>
https://www.enaminestore.com/catalog/EN300-1716155

> <ROCS_ShapeQuery>
__x1247relevant_x1083L0AP1_x1305L0BP1_

> <ROCS_TanimotoCombo>
0.717 

> <ROCS_ShapeTanimoto>
0.518 

> <ROCS_ColorTanimoto>
0.198 

> <ROCS_RefTversky>
0.434 

> <ROCS_RefColorTversky>
0.240 

> <ROCS_RefTverskyCombo>
0.673 

> <ROCS_FitTversky>
1.607 

> <ROCS_FitColorTversky>
0.533 

> <ROCS_FitTverskyCombo>
2.141 

> <ROCS_ColorScore>
-7.879

> <ROCS_Overlap>
1276.706

> <ROCS_Rank>
371                 

$$$$
untitled-dbase-29059_3
  -OEChem-06232314393D

 31 33  0     0  0  0  0  0  0999 V2000
  -14.2261   15.8508  -38.5368 C   0  0  0  0  0  0  0  0  0  0  0  0
  -13.0409   14.5685  -36.7394 C   0  0  0  0  0  0  0  0  0  0  0  0
  -12.1615   16.7995  -37.4800 C   0  0  0  0  0  0  0  0  0  0  0  0
  -12.9753   13.7533  -39.1024 C   0  0  0  0  0  0  0  0  0  0  0  0
  -12.0927   15.9922  -39.8455 C   0  0  0  0  0  0  0  0  0  0  0  0
  -13.4332   15.9739  -37.2243 C   0  0  0  0  0  0  0  0  0  0  0  0
  -13.3653   15.1566  -39.6058 C   0  0  0  0  0  0  0  0  0  0  0  0
  -12.1648   13.8649  -37.7940 C   0  0  0  0  0  0  0  0  0  0  0  0
  -11.2802   16.1088  -38.5387 C   0  0  0  0  0  0  0  0  0  0  0  0
  -10.8954   14.6851  -38.0934 C   0  0  0  0  0  0  0  0  0  0  0  0
   -9.0095   13.1544  -37.0201 N   0  0  0  0  0  0  0  0  0  0  0  0
   -8.7567   15.7142  -37.0005 O   0  0  0  0  0  0  0  0  0  0  0  0
  -10.4860   14.6263  -35.5133 O   0  0  0  0  0  0  0  0  0  0  0  0
   -9.7377   14.6726  -36.7563 S   0  0  0  0  0  0  0  0  0  0  0  0
  -15.1469   15.2794  -38.3672 H   0  0  0  0  0  0  0  0  0  0  0  0
  -14.5289   16.8452  -38.8869 H   0  0  0  0  0  0  0  0  0  0  0  0
  -12.5150   14.6345  -35.7809 H   0  0  0  0  0  0  0  0  0  0  0  0
  -13.9450   13.9747  -36.5545 H   0  0  0  0  0  0  0  0  0  0  0  0
  -12.4352   17.8047  -37.8251 H   0  0  0  0  0  0  0  0  0  0  0  0
  -11.6075   16.9357  -36.5449 H   0  0  0  0  0  0  0  0  0  0  0  0
  -13.8769   13.1516  -38.9347 H   0  0  0  0  0  0  0  0  0  0  0  0
  -12.3847   13.2334  -39.8666 H   0  0  0  0  0  0  0  0  0  0  0  0
  -11.4813   15.5253  -40.6276 H   0  0  0  0  0  0  0  0  0  0  0  0
  -12.3637   16.9913  -40.2090 H   0  0  0  0  0  0  0  0  0  0  0  0
  -14.0506   16.4689  -36.4664 H   0  0  0  0  0  0  0  0  0  0  0  0
  -13.9325   15.0706  -40.5393 H   0  0  0  0  0  0  0  0  0  0  0  0
  -11.8988   12.8625  -37.4395 H   0  0  0  0  0  0  0  0  0  0  0  0
  -10.3816   16.7108  -38.7166 H   0  0  0  0  0  0  0  0  0  0  0  0
  -10.3418   14.1967  -38.9072 H   0  0  0  0  0  0  0  0  0  0  0  0
   -8.0429   13.1410  -37.3681 H   0  0  0  0  0  0  0  0  0  0  0  0
   -9.2207   12.4001  -36.3554 H   0  0  0  0  0  0  0  0  0  0  0  0
  1  6  1  0  0  0  0
  1  7  1  0  0  0  0
  2  6  1  0  0  0  0
  2  8  1  0  0  0  0
  3  6  1  0  0  0  0
  3  9  1  0  0  0  0
  4  7  1  0  0  0  0
  4  8  1  0  0  0  0
  5  7  1  0  0  0  0
  5  9  1  0  0  0  0
  8 10  1  0  0  0  0
  9 10  1  0  0  0  0
 10 14  1  0  0  0  0
 11 14  1  0  0  0  0
 12 14  2  0  0  0  0
 13 14  2  0  0  0  0
  1 15  1  0  0  0  0
  1 16  1  0  0  0  0
  2 17  1  0  0  0  0
  2 18  1  0  0  0  0
  3 19  1  0  0  0  0
  3 20  1  0  0  0  0
  4 21  1  0  0  0  0
  4 22  1  0  0  0  0
  5 23  1  0  0  0  0
  5 24  1  0  0  0  0
  6 25  1  0  0  0  0
  7 26  1  0  0  0  0
  8 27  1  0  0  0  0
  9 28  1  0  0  0  0
 10 29  1  0  0  0  0
 11 30  1  0  0  0  0
 11 31  1  0  0  0  0
M  END
> <id>
EN300-274055

> <smiles>
NS(=O)(=O)C1C2CC3CC(C2)CC1C3

> <IUPAC Name>
adamantane-2-sulfonamide

> <CAS>
1247763-33-2

> <URL>
https://www.enaminestore.com/catalog/EN300-274055

> <ROCS_ShapeQuery>
__x1247relevant_x1083L0AP1_x1305L0BP1_

> <ROCS_TanimotoCombo>
0.717 

> <ROCS_ShapeTanimoto>
0.507 

> <ROCS_ColorTanimoto>
0.210 

> <ROCS_RefTversky>
0.420 

> <ROCS_RefColorTversky>
0.230 

> <ROCS_RefTverskyCombo>
0.650 

> <ROCS_FitTversky>
1.693 

> <ROCS_FitColorTversky>
0.702 

> <ROCS_FitTverskyCombo>
2.396 

> <ROCS_ColorScore>
-7.507

> <ROCS_Overlap>
1234.872

> <ROCS_Rank>
372                 

$$$$
untitled-dbase-155710_17
  -OEChem-06232314393D

 26 27  0     0  0  0  0  0  0999 V2000
  -13.0580   16.6019  -40.3829 C   0  0  0  0  0  0  0  0  0  0  0  0
   -9.6852   14.9628  -37.0941 C   0  0  0  0  0  0  0  0  0  0  0  0
  -13.5473   16.1337  -37.8278 C   0  0  0  0  0  0  0  0  0  0  0  0
  -13.4833   14.3851  -39.0226 C   0  0  0  0  0  0  0  0  0  0  0  0
  -12.0889   14.2357  -36.8894 C   0  0  0  0  0  0  0  0  0  0  0  0
  -11.2516   15.6119  -38.8688 C   0  0  0  0  0  0  0  0  0  0  0  0
  -13.4286   14.6235  -37.4944 C   0  0  0  0  0  0  0  0  0  0  0  0
  -12.7525   15.7615  -39.1229 C   0  0  0  0  0  0  0  0  0  0  0  0
   -9.2474   13.7292  -36.3425 C   0  0  0  0  0  0  0  0  0  0  0  0
  -11.0032   14.9656  -37.5691 N   0  0  0  0  0  0  0  0  0  0  0  0
  -12.2404   17.2746  -40.9930 O   0  0  0  0  0  0  0  0  0  0  0  0
   -8.8937   15.8957  -37.2515 O   0  0  0  0  0  0  0  0  0  0  0  0
  -14.3655   16.4955  -40.7238 O   0  0  0  0  0  0  0  0  0  0  0  0
  -10.2519   12.8383  -36.2744 F   0  0  0  0  0  0  0  0  0  0  0  0
   -8.2051   13.1453  -36.9592 F   0  0  0  0  0  0  0  0  0  0  0  0
   -8.8750   14.0437  -35.0895 F   0  0  0  0  0  0  0  0  0  0  0  0
  -14.5741   16.4777  -38.0036 H   0  0  0  0  0  0  0  0  0  0  0  0
  -13.0645   16.8278  -37.1336 H   0  0  0  0  0  0  0  0  0  0  0  0
  -12.9440   13.5112  -39.3999 H   0  0  0  0  0  0  0  0  0  0  0  0
  -14.4974   14.3731  -39.4412 H   0  0  0  0  0  0  0  0  0  0  0  0
  -12.0684   14.4802  -35.8229 H   0  0  0  0  0  0  0  0  0  0  0  0
  -11.9021   13.1620  -36.9994 H   0  0  0  0  0  0  0  0  0  0  0  0
  -10.7768   14.9995  -39.6446 H   0  0  0  0  0  0  0  0  0  0  0  0
  -10.7548   16.5894  -38.8645 H   0  0  0  0  0  0  0  0  0  0  0  0
  -14.2739   14.2037  -36.9399 H   0  0  0  0  0  0  0  0  0  0  0  0
  -14.5803   17.0243  -41.5217 H   0  0  0  0  0  0  0  0  0  0  0  0
  1  8  1  0  0  0  0
  1 11  2  0  0  0  0
  1 13  1  0  0  0  0
  2  9  1  0  0  0  0
  2 10  1  0  0  0  0
  2 12  2  0  0  0  0
  3  7  1  0  0  0  0
  3  8  1  0  0  0  0
  4  7  1  0  0  0  0
  4  8  1  0  0  0  0
  5  7  1  0  0  0  0
  5 10  1  0  0  0  0
  6  8  1  0  0  0  0
  6 10  1  0  0  0  0
  9 14  1  0  0  0  0
  9 15  1  0  0  0  0
  9 16  1  0  0  0  0
  3 17  1  0  0  0  0
  3 18  1  0  0  0  0
  4 19  1  0  0  0  0
  4 20  1  0  0  0  0
  5 21  1  0  0  0  0
  5 22  1  0  0  0  0
  6 23  1  0  0  0  0
  6 24  1  0  0  0  0
  7 25  1  0  0  0  0
 13 26  1  0  0  0  0
M  END
> <id>
EN300-28276272

> <smiles>
OC(=O)C1(CC2C1)CN(C2)C(=O)C(F)(F)F

> <IUPAC Name>
3-(2,2,2-trifluoroacetyl)-3-azabicyclo[3.1.1]heptane-1-carboxylic acid

> <CAS>
2680862-84-2

> <URL>
https://www.enaminestore.com/catalog/EN300-28276272

> <ROCS_ShapeQuery>
__x1247relevant_x1083L0AP1_x1305L0BP1_

> <ROCS_TanimotoCombo>
0.717 

> <ROCS_ShapeTanimoto>
0.512 

> <ROCS_ColorTanimoto>
0.204 

> <ROCS_RefTversky>
0.436 

> <ROCS_RefColorTversky>
0.229 

> <ROCS_RefTverskyCombo>
0.665 

> <ROCS_FitTversky>
1.518 

> <ROCS_FitColorTversky>
0.659 

> <ROCS_FitTverskyCombo>
2.177 

> <ROCS_ColorScore>
-7.464

> <ROCS_Overlap>
1285.181

> <ROCS_Rank>
373                 

$$$$
untitled-dbase-167786_4
  -OEChem-06232314393D

 23 25  0     1  0  0  0  0  0999 V2000
  -12.7988   13.9235  -38.3855 C   0  0  0  0  0  0  0  0  0  0  0  0
  -12.3700   15.4822  -36.6521 C   0  0  0  0  0  0  0  0  0  0  0  0
  -13.5321   14.9819  -37.5428 C   0  0  1  0  0  0  0  0  0  0  0  0
  -11.7897   14.9463  -38.9444 C   0  0  2  0  0  0  0  0  0  0  0  0
  -11.1629   15.5090  -37.6365 C   0  0  2  0  0  0  0  0  0  0  0  0
  -13.8428   16.0774  -38.5511 C   0  0  1  0  0  0  0  0  0  0  0  0
  -12.6875   16.0470  -39.4972 C   0  0  2  0  0  0  0  0  0  0  0  0
   -9.9813   14.6878  -37.1359 C   0  0  0  0  0  0  0  0  0  0  0  0
  -10.2063   13.3045  -37.3961 N   0  0  0  0  0  0  0  0  0  0  0  0
  -14.0084   15.6954  -39.9197 O   0  0  0  0  0  0  0  0  0  0  0  0
  -12.3448   13.1269  -37.7885 H   0  0  0  0  0  0  0  0  0  0  0  0
  -13.4286   13.4730  -39.1600 H   0  0  0  0  0  0  0  0  0  0  0  0
  -12.5673   16.4779  -36.2409 H   0  0  0  0  0  0  0  0  0  0  0  0
  -12.1951   14.7907  -35.8202 H   0  0  0  0  0  0  0  0  0  0  0  0
  -14.4038   14.6217  -36.9940 H   0  0  0  0  0  0  0  0  0  0  0  0
  -11.0781   14.5522  -39.6724 H   0  0  0  0  0  0  0  0  0  0  0  0
  -10.8256   16.5430  -37.7831 H   0  0  0  0  0  0  0  0  0  0  0  0
  -14.2288   17.0121  -38.1814 H   0  0  0  0  0  0  0  0  0  0  0  0
  -12.2226   16.9602  -39.8287 H   0  0  0  0  0  0  0  0  0  0  0  0
   -9.0945   15.0359  -37.6649 H   0  0  0  0  0  0  0  0  0  0  0  0
   -9.8917   14.8646  -36.0644 H   0  0  0  0  0  0  0  0  0  0  0  0
  -10.3400   13.1551  -38.3799 H   0  0  0  0  0  0  0  0  0  0  0  0
   -9.4178   12.7632  -37.0905 H   0  0  0  0  0  0  0  0  0  0  0  0
  1  3  1  0  0  0  0
  1  4  1  1  0  0  0
  2  3  1  6  0  0  0
  2  5  1  0  0  0  0
  3  6  1  0  0  0  0
  4  5  1  0  0  0  0
  4  7  1  0  0  0  0
  5  8  1  1  0  0  0
  6  7  1  0  0  0  0
  6 10  1  1  0  0  0
  7 10  1  1  0  0  0
  8  9  1  0  0  0  0
  1 11  1  0  0  0  0
  1 12  1  0  0  0  0
  2 13  1  0  0  0  0
  2 14  1  0  0  0  0
  3 15  1  0  0  0  0
  4 16  1  0  0  0  0
  5 17  1  0  0  0  0
  6 18  1  0  0  0  0
  7 19  1  0  0  0  0
  8 20  1  0  0  0  0
  8 21  1  0  0  0  0
  9 22  1  0  0  0  0
  9 23  1  0  0  0  0
M  END
> <id>
EN300-6477479

> <smiles>
NC[C@@H]1C[C@@H]2C[C@H]1[C@H]3O[C@H]32 |&1:2,4,6,7,9,r|

> <IUPAC Name>
rac-[(1R,2S,4R,5R,6R)-3-oxatricyclo[3.2.1.0,2,4]octan-6-yl]methanamine

> <CAS>
66341-53-5

> <Purity>
95

> <URL>
https://www.enaminestore.com/catalog/EN300-6477479

> <ROCS_ShapeQuery>
__x1247relevant_x1083L0AP1_x1305L0BP1_

> <ROCS_TanimotoCombo>
0.717 

> <ROCS_ShapeTanimoto>
0.427 

> <ROCS_ColorTanimoto>
0.289 

> <ROCS_RefTversky>
0.359 

> <ROCS_RefColorTversky>
0.366 

> <ROCS_RefTverskyCombo>
0.724 

> <ROCS_FitTversky>
1.814 

> <ROCS_FitColorTversky>
0.581 

> <ROCS_FitTverskyCombo>
2.395 

> <ROCS_ColorScore>
-12.127

> <ROCS_Overlap>
1051.809

> <ROCS_Rank>
374                 

$$$$
untitled-dbase-160484_18
  -OEChem-06232314393D

 35 37  0     1  0  0  0  0  0999 V2000
  -14.5750   14.9708  -37.7637 C   0  0  0  0  0  0  0  0  0  0  0  0
  -12.4970   15.8725  -36.6858 C   0  0  0  0  0  0  0  0  0  0  0  0
  -12.4189   13.7028  -37.9530 C   0  0  0  0  0  0  0  0  0  0  0  0
  -13.4619   17.0121  -38.6993 C   0  0  0  0  0  0  0  0  0  0  0  0
  -13.3819   14.8477  -39.9642 C   0  0  0  0  0  0  0  0  0  0  0  0
  -11.3003   15.7470  -38.8911 C   0  0  0  0  0  0  0  0  0  0  0  0
  -13.8021   16.2522  -37.4081 C   0  0  1  0  0  0  0  0  0  0  0  0
  -13.7230   14.0763  -38.6801 C   0  0  2  0  0  0  0  0  0  0  0  0
  -11.6173   14.9756  -37.5897 C   0  0  0  0  0  0  0  0  0  0  0  0
  -12.6026   16.1271  -39.6183 C   0  0  0  0  0  0  0  0  0  0  0  0
   -9.2129   15.5933  -37.1615 C   0  0  0  0  0  0  0  0  0  0  0  0
  -10.3219   14.5992  -36.8659 C   0  0  2  0  0  0  0  0  0  0  0  0
   -9.9008   13.2521  -37.3121 N   0  0  0  0  0  0  0  0  0  0  0  0
  -12.3025   16.8479  -40.8049 O   0  0  0  0  0  0  0  0  0  0  0  0
  -14.8384   14.4261  -36.8487 H   0  0  0  0  0  0  0  0  0  0  0  0
  -15.5169   15.2287  -38.2634 H   0  0  0  0  0  0  0  0  0  0  0  0
  -11.9509   16.7837  -36.4096 H   0  0  0  0  0  0  0  0  0  0  0  0
  -12.7333   15.3508  -35.7494 H   0  0  0  0  0  0  0  0  0  0  0  0
  -12.6540   13.1310  -37.0461 H   0  0  0  0  0  0  0  0  0  0  0  0
  -11.8164   13.0451  -38.5928 H   0  0  0  0  0  0  0  0  0  0  0  0
  -14.3799   17.3165  -39.2186 H   0  0  0  0  0  0  0  0  0  0  0  0
  -12.9301   17.9440  -38.4672 H   0  0  0  0  0  0  0  0  0  0  0  0
  -12.7937   14.2175  -40.6439 H   0  0  0  0  0  0  0  0  0  0  0  0
  -14.2975   15.1009  -40.5142 H   0  0  0  0  0  0  0  0  0  0  0  0
  -10.7184   16.6529  -38.6742 H   0  0  0  0  0  0  0  0  0  0  0  0
  -10.6653   15.1434  -39.5538 H   0  0  0  0  0  0  0  0  0  0  0  0
  -14.4148   16.8848  -36.7565 H   0  0  0  0  0  0  0  0  0  0  0  0
  -14.2799   13.1668  -38.9311 H   0  0  0  0  0  0  0  0  0  0  0  0
   -9.0161   15.6379  -38.2382 H   0  0  0  0  0  0  0  0  0  0  0  0
   -8.2837   15.3059  -36.6587 H   0  0  0  0  0  0  0  0  0  0  0  0
   -9.4797   16.6043  -36.8337 H   0  0  0  0  0  0  0  0  0  0  0  0
  -10.5103   14.5623  -35.7905 H   0  0  0  0  0  0  0  0  0  0  0  0
   -9.0801   13.0243  -36.8143 H   0  0  0  0  0  0  0  0  0  0  0  0
  -10.6391   12.6327  -37.1016 H   0  0  0  0  0  0  0  0  0  0  0  0
  -11.7615   16.2628  -41.3599 H   0  0  0  0  0  0  0  0  0  0  0  0
  1  7  1  0  0  0  0
  1  8  1  0  0  0  0
  2  7  1  0  0  0  0
  2  9  1  0  0  0  0
  3  8  1  0  0  0  0
  3  9  1  0  0  0  0
  4  7  1  0  0  0  0
  4 10  1  0  0  0  0
  5  8  1  0  0  0  0
  5 10  1  0  0  0  0
  6  9  1  0  0  0  0
  6 10  1  0  0  0  0
  9 12  1  0  0  0  0
 10 14  1  0  0  0  0
 11 12  1  0  0  0  0
 12 13  1  0  0  0  0
  1 15  1  0  0  0  0
  1 16  1  0  0  0  0
  2 17  1  0  0  0  0
  2 18  1  0  0  0  0
  3 19  1  0  0  0  0
  3 20  1  0  0  0  0
  4 21  1  0  0  0  0
  4 22  1  0  0  0  0
  5 23  1  0  0  0  0
  5 24  1  0  0  0  0
  6 25  1  0  0  0  0
  6 26  1  0  0  0  0
  7 27  1  0  0  0  0
  8 28  1  0  0  0  0
 11 29  1  0  0  0  0
 11 30  1  0  0  0  0
 11 31  1  0  0  0  0
 12 32  1  0  0  0  0
 13 33  1  0  0  0  0
 13 34  1  0  0  0  0
 14 35  1  0  0  0  0
M  END
> <id>
EN300-297461

> <smiles>
Cl.CC(N)C1(CC2CC3CC(O)(C2)C1)C3

> <IUPAC Name>
3-(1-aminoethyl)adamantan-1-ol hydrochloride

> <CAS>
128487-57-0

> <URL>
https://www.enaminestore.com/catalog/EN300-297461

> <Saltdate>
Cl

> <ROCS_ShapeQuery>
__x1247relevant_x1083L0AP1_x1305L0BP1_

> <ROCS_TanimotoCombo>
0.716 

> <ROCS_ShapeTanimoto>
0.509 

> <ROCS_ColorTanimoto>
0.208 

> <ROCS_RefTversky>
0.423 

> <ROCS_RefColorTversky>
0.233 

> <ROCS_RefTverskyCombo>
0.656 

> <ROCS_FitTversky>
1.668 

> <ROCS_FitColorTversky>
0.655 

> <ROCS_FitTverskyCombo>
2.323 

> <ROCS_ColorScore>
-7.628

> <ROCS_Overlap>
1243.311

> <ROCS_Rank>
375                 

$$$$
untitled-dbase-135970_2
  -OEChem-06232314393D

 24 26  0     1  0  0  0  0  0999 V2000
  -13.4941   16.3377  -39.3237 C   0  0  0  0  0  0  0  0  0  0  0  0
  -12.3621   15.5482  -40.0173 C   0  0  0  0  0  0  0  0  0  0  0  0
  -12.0812   16.6267  -37.2787 C   0  0  0  0  0  0  0  0  0  0  0  0
  -13.4472   16.1123  -37.7952 C   0  0  2  0  0  0  0  0  0  0  0  0
  -11.5107   14.8073  -38.9600 C   0  0  2  0  0  0  0  0  0  0  0  0
  -13.5078   14.6331  -37.4713 C   0  0  2  0  0  0  0  0  0  0  0  0
  -12.3939   13.8814  -38.1405 C   0  0  1  0  0  0  0  0  0  0  0  0
  -10.9332   15.8923  -38.0140 C   0  0  2  0  0  0  0  0  0  0  0  0
   -9.1956   16.3057  -36.0978 O   0  0  0  0  0  0  0  0  0  0  0  0
   -8.9182   14.2744  -37.5849 O   0  0  0  0  0  0  0  0  0  0  0  0
  -13.7587   13.7185  -38.5418 O   0  0  0  0  0  0  0  0  0  0  0  0
  -10.5990   14.3528  -35.8488 F   0  0  0  0  0  0  0  0  0  0  0  0
   -9.7552   15.2195  -36.8753 S   0  0  0  0  0  0  0  0  0  0  0  0
  -13.3947   17.4056  -39.5519 H   0  0  0  0  0  0  0  0  0  0  0  0
  -14.4632   16.0187  -39.7261 H   0  0  0  0  0  0  0  0  0  0  0  0
  -12.7934   14.8333  -40.7285 H   0  0  0  0  0  0  0  0  0  0  0  0
  -11.7363   16.2327  -40.6021 H   0  0  0  0  0  0  0  0  0  0  0  0
  -11.9980   17.7055  -37.4586 H   0  0  0  0  0  0  0  0  0  0  0  0
  -12.0183   16.4819  -36.1933 H   0  0  0  0  0  0  0  0  0  0  0  0
  -14.2702   16.6430  -37.3059 H   0  0  0  0  0  0  0  0  0  0  0  0
  -10.7139   14.2343  -39.4459 H   0  0  0  0  0  0  0  0  0  0  0  0
  -13.7871   14.3788  -36.4607 H   0  0  0  0  0  0  0  0  0  0  0  0
  -11.8923   13.0846  -37.6143 H   0  0  0  0  0  0  0  0  0  0  0  0
  -10.3578   16.6197  -38.6007 H   0  0  0  0  0  0  0  0  0  0  0  0
  1  2  1  0  0  0  0
  1  4  1  0  0  0  0
  2  5  1  1  0  0  0
  3  4  1  6  0  0  0
  3  8  1  0  0  0  0
  4  6  1  0  0  0  0
  5  7  1  0  0  0  0
  5  8  1  0  0  0  0
  6  7  1  0  0  0  0
  6 11  1  1  0  0  0
  7 11  1  1  0  0  0
  8 13  1  6  0  0  0
  9 13  2  0  0  0  0
 10 13  2  0  0  0  0
 12 13  1  0  0  0  0
  1 14  1  0  0  0  0
  1 15  1  0  0  0  0
  2 16  1  0  0  0  0
  2 17  1  0  0  0  0
  3 18  1  0  0  0  0
  3 19  1  0  0  0  0
  4 20  1  0  0  0  0
  5 21  1  0  0  0  0
  6 22  1  0  0  0  0
  7 23  1  0  0  0  0
  8 24  1  0  0  0  0
M  END
> <id>
EN300-7354343

> <smiles>
FS(=O)(=O)[C@@H]1C[C@H]2CC[C@@H]1[C@@H]3O[C@@H]32 |&1:4,6,9,10,12,r|

> <IUPAC Name>
rac-(1R,2R,4S,5R,6R)-3-oxatricyclo[3.2.2.0,2,4]nonane-6-sulfonyl fluoride

> <CAS>
2309433-17-6

> <Purity>
95

> <URL>
https://www.enaminestore.com/catalog/EN300-7354343

> <ROCS_ShapeQuery>
__x1247relevant_x1083L0AP1_x1305L0BP1_

> <ROCS_TanimotoCombo>
0.716 

> <ROCS_ShapeTanimoto>
0.473 

> <ROCS_ColorTanimoto>
0.244 

> <ROCS_RefTversky>
0.397 

> <ROCS_RefColorTversky>
0.304 

> <ROCS_RefTverskyCombo>
0.700 

> <ROCS_FitTversky>
1.685 

> <ROCS_FitColorTversky>
0.552 

> <ROCS_FitTverskyCombo>
2.237 

> <ROCS_ColorScore>
-10.037

> <ROCS_Overlap>
1165.706

> <ROCS_Rank>
376                 

$$$$
untitled-dbase-21364_18
  -OEChem-06232314393D

 35 37  0     1  0  0  0  0  0999 V2000
  -14.5750   14.9708  -37.7637 C   0  0  0  0  0  0  0  0  0  0  0  0
  -12.4970   15.8725  -36.6858 C   0  0  0  0  0  0  0  0  0  0  0  0
  -12.4189   13.7028  -37.9530 C   0  0  0  0  0  0  0  0  0  0  0  0
  -13.4619   17.0121  -38.6993 C   0  0  0  0  0  0  0  0  0  0  0  0
  -13.3819   14.8477  -39.9642 C   0  0  0  0  0  0  0  0  0  0  0  0
  -11.3003   15.7470  -38.8911 C   0  0  0  0  0  0  0  0  0  0  0  0
  -13.8021   16.2522  -37.4081 C   0  0  1  0  0  0  0  0  0  0  0  0
  -13.7230   14.0763  -38.6801 C   0  0  2  0  0  0  0  0  0  0  0  0
  -11.6173   14.9756  -37.5897 C   0  0  0  0  0  0  0  0  0  0  0  0
  -12.6026   16.1271  -39.6183 C   0  0  0  0  0  0  0  0  0  0  0  0
   -9.2129   15.5933  -37.1615 C   0  0  0  0  0  0  0  0  0  0  0  0
  -10.3219   14.5992  -36.8659 C   0  0  2  0  0  0  0  0  0  0  0  0
   -9.9008   13.2521  -37.3121 N   0  0  0  0  0  0  0  0  0  0  0  0
  -12.3025   16.8479  -40.8049 O   0  0  0  0  0  0  0  0  0  0  0  0
  -14.8384   14.4261  -36.8487 H   0  0  0  0  0  0  0  0  0  0  0  0
  -15.5169   15.2287  -38.2634 H   0  0  0  0  0  0  0  0  0  0  0  0
  -11.9509   16.7837  -36.4096 H   0  0  0  0  0  0  0  0  0  0  0  0
  -12.7333   15.3508  -35.7494 H   0  0  0  0  0  0  0  0  0  0  0  0
  -12.6540   13.1310  -37.0461 H   0  0  0  0  0  0  0  0  0  0  0  0
  -11.8164   13.0451  -38.5928 H   0  0  0  0  0  0  0  0  0  0  0  0
  -14.3799   17.3165  -39.2186 H   0  0  0  0  0  0  0  0  0  0  0  0
  -12.9301   17.9440  -38.4672 H   0  0  0  0  0  0  0  0  0  0  0  0
  -12.7937   14.2175  -40.6439 H   0  0  0  0  0  0  0  0  0  0  0  0
  -14.2975   15.1009  -40.5142 H   0  0  0  0  0  0  0  0  0  0  0  0
  -10.7184   16.6529  -38.6742 H   0  0  0  0  0  0  0  0  0  0  0  0
  -10.6653   15.1434  -39.5538 H   0  0  0  0  0  0  0  0  0  0  0  0
  -14.4148   16.8848  -36.7565 H   0  0  0  0  0  0  0  0  0  0  0  0
  -14.2799   13.1668  -38.9311 H   0  0  0  0  0  0  0  0  0  0  0  0
   -9.0161   15.6379  -38.2382 H   0  0  0  0  0  0  0  0  0  0  0  0
   -8.2837   15.3059  -36.6587 H   0  0  0  0  0  0  0  0  0  0  0  0
   -9.4797   16.6043  -36.8337 H   0  0  0  0  0  0  0  0  0  0  0  0
  -10.5103   14.5623  -35.7905 H   0  0  0  0  0  0  0  0  0  0  0  0
   -9.0801   13.0243  -36.8143 H   0  0  0  0  0  0  0  0  0  0  0  0
  -10.6391   12.6327  -37.1016 H   0  0  0  0  0  0  0  0  0  0  0  0
  -11.7615   16.2628  -41.3599 H   0  0  0  0  0  0  0  0  0  0  0  0
  1  7  1  0  0  0  0
  1  8  1  0  0  0  0
  2  7  1  0  0  0  0
  2  9  1  0  0  0  0
  3  8  1  0  0  0  0
  3  9  1  0  0  0  0
  4  7  1  0  0  0  0
  4 10  1  0  0  0  0
  5  8  1  0  0  0  0
  5 10  1  0  0  0  0
  6  9  1  0  0  0  0
  6 10  1  0  0  0  0
  9 12  1  0  0  0  0
 10 14  1  0  0  0  0
 11 12  1  0  0  0  0
 12 13  1  0  0  0  0
  1 15  1  0  0  0  0
  1 16  1  0  0  0  0
  2 17  1  0  0  0  0
  2 18  1  0  0  0  0
  3 19  1  0  0  0  0
  3 20  1  0  0  0  0
  4 21  1  0  0  0  0
  4 22  1  0  0  0  0
  5 23  1  0  0  0  0
  5 24  1  0  0  0  0
  6 25  1  0  0  0  0
  6 26  1  0  0  0  0
  7 27  1  0  0  0  0
  8 28  1  0  0  0  0
 11 29  1  0  0  0  0
 11 30  1  0  0  0  0
 11 31  1  0  0  0  0
 12 32  1  0  0  0  0
 13 33  1  0  0  0  0
 13 34  1  0  0  0  0
 14 35  1  0  0  0  0
M  END
> <id>
EN300-297462

> <smiles>
CC(N)C1(CC2CC3CC(O)(C2)C1)C3

> <IUPAC Name>
3-(1-aminoethyl)adamantan-1-ol

> <CAS>
90812-24-1

> <URL>
https://www.enaminestore.com/catalog/EN300-297462

> <ROCS_ShapeQuery>
__x1247relevant_x1083L0AP1_x1305L0BP1_

> <ROCS_TanimotoCombo>
0.716 

> <ROCS_ShapeTanimoto>
0.509 

> <ROCS_ColorTanimoto>
0.208 

> <ROCS_RefTversky>
0.423 

> <ROCS_RefColorTversky>
0.233 

> <ROCS_RefTverskyCombo>
0.656 

> <ROCS_FitTversky>
1.668 

> <ROCS_FitColorTversky>
0.655 

> <ROCS_FitTverskyCombo>
2.323 

> <ROCS_ColorScore>
-7.628

> <ROCS_Overlap>
1243.311

> <ROCS_Rank>
377                 

$$$$
untitled-dbase-160458_20
  -OEChem-06232314393D

 35 37  0     1  0  0  0  0  0999 V2000
  -14.5783   14.9609  -37.7749 C   0  0  0  0  0  0  0  0  0  0  0  0
  -12.4171   13.7012  -37.9629 C   0  0  0  0  0  0  0  0  0  0  0  0
  -12.5095   15.8592  -36.6768 C   0  0  0  0  0  0  0  0  0  0  0  0
  -13.3735   14.8577  -39.9705 C   0  0  0  0  0  0  0  0  0  0  0  0
  -13.4657   17.0141  -38.6856 C   0  0  0  0  0  0  0  0  0  0  0  0
  -11.3027   15.7580  -38.8775 C   0  0  0  0  0  0  0  0  0  0  0  0
  -13.7187   14.0759  -38.6937 C   0  0  2  0  0  0  0  0  0  0  0  0
  -13.8114   16.2414  -37.4034 C   0  0  1  0  0  0  0  0  0  0  0  0
  -11.6223   14.9738  -37.5845 C   0  0  0  0  0  0  0  0  0  0  0  0
  -12.6015   16.1384  -39.6091 C   0  0  0  0  0  0  0  0  0  0  0  0
   -9.2225   15.5972  -37.1392 C   0  0  0  0  0  0  0  0  0  0  0  0
  -10.3288   14.5960  -36.8580 C   0  0  2  0  0  0  0  0  0  0  0  0
   -9.9001   13.2547  -37.3144 N   0  0  0  0  0  0  0  0  0  0  0  0
  -12.2966   16.8463  -40.8021 O   0  0  0  0  0  0  0  0  0  0  0  0
  -15.5175   15.2205  -38.2785 H   0  0  0  0  0  0  0  0  0  0  0  0
  -14.8462   14.4080  -36.8661 H   0  0  0  0  0  0  0  0  0  0  0  0
  -12.6549   13.1210  -37.0619 H   0  0  0  0  0  0  0  0  0  0  0  0
  -11.8088   13.0511  -38.6049 H   0  0  0  0  0  0  0  0  0  0  0  0
  -11.9680   16.7695  -36.3889 H   0  0  0  0  0  0  0  0  0  0  0  0
  -12.7491   15.3279  -35.7466 H   0  0  0  0  0  0  0  0  0  0  0  0
  -12.7779   14.2368  -40.6522 H   0  0  0  0  0  0  0  0  0  0  0  0
  -14.2874   15.1114  -40.5232 H   0  0  0  0  0  0  0  0  0  0  0  0
  -14.3819   17.3212  -39.2066 H   0  0  0  0  0  0  0  0  0  0  0  0
  -12.9377   17.9450  -38.4416 H   0  0  0  0  0  0  0  0  0  0  0  0
  -10.7253   16.6637  -38.6475 H   0  0  0  0  0  0  0  0  0  0  0  0
  -10.6619   15.1644  -39.5434 H   0  0  0  0  0  0  0  0  0  0  0  0
  -14.2713   13.1663  -38.9542 H   0  0  0  0  0  0  0  0  0  0  0  0
  -14.4296   16.8667  -36.7497 H   0  0  0  0  0  0  0  0  0  0  0  0
   -9.0208   15.6523  -38.2146 H   0  0  0  0  0  0  0  0  0  0  0  0
   -8.2945   15.3090  -36.6346 H   0  0  0  0  0  0  0  0  0  0  0  0
   -9.4949   16.6041  -36.8036 H   0  0  0  0  0  0  0  0  0  0  0  0
  -10.5221   14.5486  -35.7839 H   0  0  0  0  0  0  0  0  0  0  0  0
   -9.0809   13.0257  -36.8148 H   0  0  0  0  0  0  0  0  0  0  0  0
  -10.6370   12.6305  -37.1131 H   0  0  0  0  0  0  0  0  0  0  0  0
  -11.7537   16.2551  -41.3487 H   0  0  0  0  0  0  0  0  0  0  0  0
  1  7  1  0  0  0  0
  1  8  1  0  0  0  0
  2  7  1  1  0  0  0
  2  9  1  0  0  0  0
  3  8  1  1  0  0  0
  3  9  1  0  0  0  0
  4  7  1  0  0  0  0
  4 10  1  0  0  0  0
  5  8  1  0  0  0  0
  5 10  1  0  0  0  0
  6  9  1  0  0  0  0
  6 10  1  0  0  0  0
  9 12  1  1  0  0  0
 10 14  1  6  0  0  0
 11 12  1  0  0  0  0
 12 13  1  0  0  0  0
  1 15  1  0  0  0  0
  1 16  1  0  0  0  0
  2 17  1  0  0  0  0
  2 18  1  0  0  0  0
  3 19  1  0  0  0  0
  3 20  1  0  0  0  0
  4 21  1  0  0  0  0
  4 22  1  0  0  0  0
  5 23  1  0  0  0  0
  5 24  1  0  0  0  0
  6 25  1  0  0  0  0
  6 26  1  0  0  0  0
  7 27  1  0  0  0  0
  8 28  1  0  0  0  0
 11 29  1  0  0  0  0
 11 30  1  0  0  0  0
 11 31  1  0  0  0  0
 12 32  1  0  0  0  0
 13 33  1  0  0  0  0
 13 34  1  0  0  0  0
 14 35  1  0  0  0  0
M  END
> <id>
EN300-236146

> <smiles>
Cl.CC(N)[C@@]1(C[C@H]2C[C@@H]3C[C@](O)(C2)C1)C3

> <MDLNUMBER>
MFCD01825645

> <IUPAC Name>
(1s,3r,5R,7S)-3-(1-aminoethyl)adamantan-1-ol hydrochloride

> <CAS>
128487-57-0

> <URL>
https://www.enaminestore.com/catalog/EN300-236146

> <Saltdate>
Cl

> <ROCS_ShapeQuery>
__x1247relevant_x1083L0AP1_x1305L0BP1_

> <ROCS_TanimotoCombo>
0.716 

> <ROCS_ShapeTanimoto>
0.509 

> <ROCS_ColorTanimoto>
0.208 

> <ROCS_RefTversky>
0.423 

> <ROCS_RefColorTversky>
0.233 

> <ROCS_RefTverskyCombo>
0.656 

> <ROCS_FitTversky>
1.668 

> <ROCS_FitColorTversky>
0.655 

> <ROCS_FitTverskyCombo>
2.323 

> <ROCS_ColorScore>
-7.624

> <ROCS_Overlap>
1243.291

> <ROCS_Rank>
378                 

$$$$
untitled-dbase-15433_20
  -OEChem-06232314393D

 35 37  0     1  0  0  0  0  0999 V2000
  -14.5783   14.9609  -37.7749 C   0  0  0  0  0  0  0  0  0  0  0  0
  -12.4171   13.7012  -37.9629 C   0  0  0  0  0  0  0  0  0  0  0  0
  -12.5095   15.8592  -36.6768 C   0  0  0  0  0  0  0  0  0  0  0  0
  -13.3735   14.8577  -39.9705 C   0  0  0  0  0  0  0  0  0  0  0  0
  -13.4657   17.0141  -38.6856 C   0  0  0  0  0  0  0  0  0  0  0  0
  -11.3027   15.7580  -38.8775 C   0  0  0  0  0  0  0  0  0  0  0  0
  -13.7187   14.0759  -38.6937 C   0  0  2  0  0  0  0  0  0  0  0  0
  -13.8114   16.2414  -37.4034 C   0  0  1  0  0  0  0  0  0  0  0  0
  -11.6223   14.9738  -37.5845 C   0  0  0  0  0  0  0  0  0  0  0  0
  -12.6015   16.1384  -39.6091 C   0  0  0  0  0  0  0  0  0  0  0  0
   -9.2225   15.5972  -37.1392 C   0  0  0  0  0  0  0  0  0  0  0  0
  -10.3288   14.5960  -36.8580 C   0  0  2  0  0  0  0  0  0  0  0  0
   -9.9001   13.2547  -37.3144 N   0  0  0  0  0  0  0  0  0  0  0  0
  -12.2966   16.8463  -40.8021 O   0  0  0  0  0  0  0  0  0  0  0  0
  -15.5175   15.2205  -38.2785 H   0  0  0  0  0  0  0  0  0  0  0  0
  -14.8462   14.4080  -36.8661 H   0  0  0  0  0  0  0  0  0  0  0  0
  -12.6549   13.1210  -37.0619 H   0  0  0  0  0  0  0  0  0  0  0  0
  -11.8088   13.0511  -38.6049 H   0  0  0  0  0  0  0  0  0  0  0  0
  -11.9680   16.7695  -36.3889 H   0  0  0  0  0  0  0  0  0  0  0  0
  -12.7491   15.3279  -35.7466 H   0  0  0  0  0  0  0  0  0  0  0  0
  -12.7779   14.2368  -40.6522 H   0  0  0  0  0  0  0  0  0  0  0  0
  -14.2874   15.1114  -40.5232 H   0  0  0  0  0  0  0  0  0  0  0  0
  -14.3819   17.3212  -39.2066 H   0  0  0  0  0  0  0  0  0  0  0  0
  -12.9377   17.9450  -38.4416 H   0  0  0  0  0  0  0  0  0  0  0  0
  -10.7253   16.6637  -38.6475 H   0  0  0  0  0  0  0  0  0  0  0  0
  -10.6619   15.1644  -39.5434 H   0  0  0  0  0  0  0  0  0  0  0  0
  -14.2713   13.1663  -38.9542 H   0  0  0  0  0  0  0  0  0  0  0  0
  -14.4296   16.8667  -36.7497 H   0  0  0  0  0  0  0  0  0  0  0  0
   -9.0208   15.6523  -38.2146 H   0  0  0  0  0  0  0  0  0  0  0  0
   -8.2945   15.3090  -36.6346 H   0  0  0  0  0  0  0  0  0  0  0  0
   -9.4949   16.6041  -36.8036 H   0  0  0  0  0  0  0  0  0  0  0  0
  -10.5221   14.5486  -35.7839 H   0  0  0  0  0  0  0  0  0  0  0  0
   -9.0809   13.0257  -36.8148 H   0  0  0  0  0  0  0  0  0  0  0  0
  -10.6370   12.6305  -37.1131 H   0  0  0  0  0  0  0  0  0  0  0  0
  -11.7537   16.2551  -41.3487 H   0  0  0  0  0  0  0  0  0  0  0  0
  1  7  1  0  0  0  0
  1  8  1  0  0  0  0
  2  7  1  1  0  0  0
  2  9  1  0  0  0  0
  3  8  1  1  0  0  0
  3  9  1  0  0  0  0
  4  7  1  0  0  0  0
  4 10  1  0  0  0  0
  5  8  1  0  0  0  0
  5 10  1  0  0  0  0
  6  9  1  0  0  0  0
  6 10  1  0  0  0  0
  9 12  1  1  0  0  0
 10 14  1  6  0  0  0
 11 12  1  0  0  0  0
 12 13  1  0  0  0  0
  1 15  1  0  0  0  0
  1 16  1  0  0  0  0
  2 17  1  0  0  0  0
  2 18  1  0  0  0  0
  3 19  1  0  0  0  0
  3 20  1  0  0  0  0
  4 21  1  0  0  0  0
  4 22  1  0  0  0  0
  5 23  1  0  0  0  0
  5 24  1  0  0  0  0
  6 25  1  0  0  0  0
  6 26  1  0  0  0  0
  7 27  1  0  0  0  0
  8 28  1  0  0  0  0
 11 29  1  0  0  0  0
 11 30  1  0  0  0  0
 11 31  1  0  0  0  0
 12 32  1  0  0  0  0
 13 33  1  0  0  0  0
 13 34  1  0  0  0  0
 14 35  1  0  0  0  0
M  END
> <id>
EN300-241647

> <smiles>
CC(N)[C@@]1(C[C@H]2C[C@@H]3C[C@](O)(C2)C1)C3

> <MDLNUMBER>
MFCD01821203

> <IUPAC Name>
(1s,3r,5R,7S)-3-(1-aminoethyl)adamantan-1-ol

> <CAS>
90812-24-1

> <URL>
https://www.enaminestore.com/catalog/EN300-241647

> <ROCS_ShapeQuery>
__x1247relevant_x1083L0AP1_x1305L0BP1_

> <ROCS_TanimotoCombo>
0.716 

> <ROCS_ShapeTanimoto>
0.509 

> <ROCS_ColorTanimoto>
0.208 

> <ROCS_RefTversky>
0.423 

> <ROCS_RefColorTversky>
0.233 

> <ROCS_RefTverskyCombo>
0.656 

> <ROCS_FitTversky>
1.668 

> <ROCS_FitColorTversky>
0.655 

> <ROCS_FitTverskyCombo>
2.323 

> <ROCS_ColorScore>
-7.624

> <ROCS_Overlap>
1243.291

> <ROCS_Rank>
379                 

$$$$
untitled-dbase-38434_51
  -OEChem-06232314393D

 31 33  0     1  0  0  0  0  0999 V2000
  -13.9435   14.9332  -38.9769 C   0  0  0  0  0  0  0  0  0  0  0  0
  -12.2047   14.8868  -37.8177 C   0  0  0  0  0  0  0  0  0  0  0  0
  -15.1886   14.7960  -39.6520 C   0  0  0  0  0  0  0  0  0  0  0  0
  -14.6092   16.7271  -41.0285 C   0  0  0  0  0  0  0  0  0  0  0  0
  -15.5201   15.6531  -40.6404 C   0  0  0  0  0  0  0  0  0  0  0  0
  -13.4298   16.8665  -40.3981 C   0  0  0  0  0  0  0  0  0  0  0  0
   -9.0001   13.4377  -36.7178 C   0  0  0  0  0  0  0  0  0  0  0  0
   -8.3455   14.7854  -37.0173 C   0  0  0  0  0  0  0  0  0  0  0  0
  -10.4093   15.6272  -36.1851 C   0  0  0  0  0  0  0  0  0  0  0  0
  -11.2016   14.4392  -36.7677 C   0  0  2  0  0  0  0  0  0  0  0  0
  -16.8141   15.5638  -41.3898 C   0  0  0  0  0  0  0  0  0  0  0  0
  -13.3909   14.2475  -38.0011 N   0  0  0  0  0  0  0  0  0  0  0  0
  -11.9715   15.9297  -38.6125 N   0  0  0  0  0  0  0  0  0  0  0  0
  -13.0955   15.9720  -39.3731 N   0  0  0  0  0  0  0  0  0  0  0  0
  -10.3278   13.3883  -37.3118 N   0  0  0  0  0  0  0  0  0  0  0  0
   -9.2474   15.8939  -36.9655 O   0  0  0  0  0  0  0  0  0  0  0  0
  -12.5511   17.8712  -40.7442 O   0  0  0  0  0  0  0  0  0  0  0  0
  -15.8555   13.9939  -39.3538 H   0  0  0  0  0  0  0  0  0  0  0  0
  -14.9032   17.4003  -41.8268 H   0  0  0  0  0  0  0  0  0  0  0  0
   -8.3855   12.6266  -37.1159 H   0  0  0  0  0  0  0  0  0  0  0  0
   -9.0818   13.2931  -35.6362 H   0  0  0  0  0  0  0  0  0  0  0  0
   -7.5427   14.9794  -36.2770 H   0  0  0  0  0  0  0  0  0  0  0  0
   -7.8394   14.7766  -38.0081 H   0  0  0  0  0  0  0  0  0  0  0  0
  -11.0244   16.5360  -36.1200 H   0  0  0  0  0  0  0  0  0  0  0  0
  -10.0786   15.3923  -35.1658 H   0  0  0  0  0  0  0  0  0  0  0  0
  -11.8053   13.9836  -35.9356 H   0  0  0  0  0  0  0  0  0  0  0  0
  -17.5697   16.1632  -40.8859 H   0  0  0  0  0  0  0  0  0  0  0  0
  -17.1415   14.5264  -41.4311 H   0  0  0  0  0  0  0  0  0  0  0  0
  -16.6746   15.9329  -42.4043 H   0  0  0  0  0  0  0  0  0  0  0  0
  -10.2344   13.5273  -38.3230 H   0  0  0  0  0  0  0  0  0  0  0  0
  -11.7629   17.8213  -40.1934 H   0  0  0  0  0  0  0  0  0  0  0  0
  1  3  1  0  0  0  0
  1 12  2  0  0  0  0
  1 14  1  0  0  0  0
  2 10  1  0  0  0  0
  2 12  1  0  0  0  0
  2 13  2  0  0  0  0
  3  5  2  0  0  0  0
  4  5  1  0  0  0  0
  4  6  2  0  0  0  0
  5 11  1  0  0  0  0
  6 14  1  0  0  0  0
  6 17  1  0  0  0  0
  7  8  1  0  0  0  0
  7 15  1  0  0  0  0
  8 16  1  0  0  0  0
  9 10  1  0  0  0  0
  9 16  1  0  0  0  0
 10 15  1  0  0  0  0
 13 14  1  0  0  0  0
  3 18  1  0  0  0  0
  4 19  1  0  0  0  0
  7 20  1  0  0  0  0
  7 21  1  0  0  0  0
  8 22  1  0  0  0  0
  8 23  1  0  0  0  0
  9 24  1  0  0  0  0
  9 25  1  0  0  0  0
 10 26  1  0  0  0  0
 11 27  1  0  0  0  0
 11 28  1  0  0  0  0
 11 29  1  0  0  0  0
 15 30  1  0  0  0  0
 17 31  1  0  0  0  0
M  END
> <id>
EN300-1077857

> <smiles>
CC=1C=C(O)N2N=C(N=C2C1)C3COCCN3

> <IUPAC Name>
7-methyl-2-(morpholin-3-yl)-[1,2,4]triazolo[1,5-a]pyridin-5-ol

> <CAS>
2137680-62-5

> <URL>
https://www.enaminestore.com/catalog/EN300-1077857

> <ROCS_ShapeQuery>
__x1247relevant_x1083L0AP1_x1305L0BP1_

> <ROCS_TanimotoCombo>
0.716 

> <ROCS_ShapeTanimoto>
0.513 

> <ROCS_ColorTanimoto>
0.203 

> <ROCS_RefTversky>
0.442 

> <ROCS_RefColorTversky>
0.227 

> <ROCS_RefTverskyCombo>
0.669 

> <ROCS_FitTversky>
1.453 

> <ROCS_FitColorTversky>
0.660 

> <ROCS_FitTverskyCombo>
2.113 

> <ROCS_ColorScore>
-7.412

> <ROCS_Overlap>
1305.170

> <ROCS_Rank>
380                 

$$$$
untitled-dbase-23640_5
  -OEChem-06232314393D

 27 29  0     1  0  0  0  0  0999 V2000
   -9.8295   15.8588  -37.5209 C   0  0  0  0  0  0  0  0  0  0  0  0
   -9.8302   13.7887  -36.7795 C   0  0  0  0  0  0  0  0  0  0  0  0
  -10.6117   14.6899  -37.4602 C   0  0  0  0  0  0  0  0  0  0  0  0
  -13.2779   16.2445  -37.2418 C   0  0  0  0  0  0  0  0  0  0  0  0
  -12.3881   16.2397  -39.4647 C   0  0  0  0  0  0  0  0  0  0  0  0
  -14.1545   14.0752  -38.0520 C   0  0  0  0  0  0  0  0  0  0  0  0
  -13.5835   14.0709  -39.4755 C   0  0  0  0  0  0  0  0  0  0  0  0
  -13.0654   14.7474  -37.2089 C   0  0  1  0  0  0  0  0  0  0  0  0
  -12.2132   14.7427  -39.3361 C   0  0  2  0  0  0  0  0  0  0  0  0
   -7.5389   13.9097  -35.7713 C   0  0  0  0  0  0  0  0  0  0  0  0
   -8.6421   15.7161  -36.9260 N   0  0  0  0  0  0  0  0  0  0  0  0
   -8.6725   14.4469  -36.4850 N   0  0  0  0  0  0  0  0  0  0  0  0
  -11.8504   14.4920  -37.9559 N   0  0  0  0  0  0  0  0  0  0  0  0
  -13.7934   16.8429  -36.3008 O   0  0  0  0  0  0  0  0  0  0  0  0
  -12.1114   16.8337  -40.5038 O   0  0  0  0  0  0  0  0  0  0  0  0
  -12.9096   16.8972  -38.3853 O   0  0  0  0  0  0  0  0  0  0  0  0
  -10.0714   16.8101  -37.9734 H   0  0  0  0  0  0  0  0  0  0  0  0
   -9.9941   12.7606  -36.4856 H   0  0  0  0  0  0  0  0  0  0  0  0
  -15.1127   14.6041  -38.0109 H   0  0  0  0  0  0  0  0  0  0  0  0
  -14.3180   13.0442  -37.7181 H   0  0  0  0  0  0  0  0  0  0  0  0
  -13.4718   13.0377  -39.8239 H   0  0  0  0  0  0  0  0  0  0  0  0
  -14.2471   14.5963  -40.1705 H   0  0  0  0  0  0  0  0  0  0  0  0
  -13.0269   14.3801  -36.1789 H   0  0  0  0  0  0  0  0  0  0  0  0
  -11.4744   14.3723  -40.0534 H   0  0  0  0  0  0  0  0  0  0  0  0
   -6.8617   13.4610  -36.5028 H   0  0  0  0  0  0  0  0  0  0  0  0
   -7.0359   14.7146  -35.2281 H   0  0  0  0  0  0  0  0  0  0  0  0
   -7.8850   13.1574  -35.0571 H   0  0  0  0  0  0  0  0  0  0  0  0
  1  3  1  0  0  0  0
  1 11  2  0  0  0  0
  2  3  2  0  0  0  0
  2 12  1  0  0  0  0
  3 13  1  0  0  0  0
  4  8  1  0  0  0  0
  4 14  2  0  0  0  0
  4 16  1  0  0  0  0
  5  9  1  0  0  0  0
  5 15  2  0  0  0  0
  5 16  1  0  0  0  0
  6  7  1  0  0  0  0
  6  8  1  0  0  0  0
  7  9  1  0  0  0  0
  8 13  1  0  0  0  0
  9 13  1  0  0  0  0
 10 12  1  0  0  0  0
 11 12  1  0  0  0  0
  1 17  1  0  0  0  0
  2 18  1  0  0  0  0
  6 19  1  0  0  0  0
  6 20  1  0  0  0  0
  7 21  1  0  0  0  0
  7 22  1  0  0  0  0
  8 23  1  0  0  0  0
  9 24  1  0  0  0  0
 10 25  1  0  0  0  0
 10 26  1  0  0  0  0
 10 27  1  0  0  0  0
M  END
> <id>
EN300-302254

> <smiles>
CN1C=C(C=N1)N2C3CCC2C(=O)OC3=O

> <MDLNUMBER>
MFCD30486575

> <IUPAC Name>
8-(1-methyl-1H-pyrazol-4-yl)-3-oxa-8-azabicyclo[3.2.1]octane-2,4-dione

> <CAS>
2044713-00-8

> <Purity>
95

> <URL>
https://www.enaminestore.com/catalog/EN300-302254

> <ROCS_ShapeQuery>
__x1247relevant_x1083L0AP1_x1305L0BP1_

> <ROCS_TanimotoCombo>
0.716 

> <ROCS_ShapeTanimoto>
0.509 

> <ROCS_ColorTanimoto>
0.207 

> <ROCS_RefTversky>
0.437 

> <ROCS_RefColorTversky>
0.230 

> <ROCS_RefTverskyCombo>
0.667 

> <ROCS_FitTversky>
1.474 

> <ROCS_FitColorTversky>
0.679 

> <ROCS_FitTverskyCombo>
2.153 

> <ROCS_ColorScore>
-7.503

> <ROCS_Overlap>
1289.963

> <ROCS_Rank>
381                 

$$$$
untitled-dbase-67998_17
  -OEChem-06232314393D

 27 29  0     1  0  0  0  0  0999 V2000
  -13.5141   14.6651  -37.3666 C   0  0  0  0  0  0  0  0  0  0  0  0
  -12.1459   14.7984  -37.4904 C   0  0  0  0  0  0  0  0  0  0  0  0
  -13.2210   15.7818  -39.1412 C   0  0  0  0  0  0  0  0  0  0  0  0
  -13.3370   16.5352  -40.3583 C   0  0  0  0  0  0  0  0  0  0  0  0
  -11.0420   16.6814  -40.4408 C   0  0  0  0  0  0  0  0  0  0  0  0
  -10.8533   15.9816  -39.3048 C   0  0  0  0  0  0  0  0  0  0  0  0
   -8.7898   13.3799  -36.9395 C   0  0  0  0  0  0  0  0  0  0  0  0
   -8.2140   14.7707  -37.2016 C   0  0  0  0  0  0  0  0  0  0  0  0
  -10.1721   15.4650  -36.0423 C   0  0  0  0  0  0  0  0  0  0  0  0
  -11.0035   14.3017  -36.6203 C   0  0  2  0  0  0  0  0  0  0  0  0
  -14.1805   15.2821  -38.4017 N   0  0  0  0  0  0  0  0  0  0  0  0
  -12.2836   16.9744  -40.9937 N   0  0  0  0  0  0  0  0  0  0  0  0
  -11.9723   15.5196  -38.6372 N   0  0  0  0  0  0  0  0  0  0  0  0
  -10.1819   13.3320  -37.3611 N   0  0  0  0  0  0  0  0  0  0  0  0
   -9.1290   15.8377  -36.9386 O   0  0  0  0  0  0  0  0  0  0  0  0
  -14.0564   14.1554  -36.5830 H   0  0  0  0  0  0  0  0  0  0  0  0
  -14.3399   16.7471  -40.7619 H   0  0  0  0  0  0  0  0  0  0  0  0
  -10.1874   17.0602  -40.9914 H   0  0  0  0  0  0  0  0  0  0  0  0
   -9.8747   15.7677  -38.8945 H   0  0  0  0  0  0  0  0  0  0  0  0
   -8.2113   12.6281  -37.4820 H   0  0  0  0  0  0  0  0  0  0  0  0
   -8.7253   13.1431  -35.8729 H   0  0  0  0  0  0  0  0  0  0  0  0
   -7.3270   14.9321  -36.5555 H   0  0  0  0  0  0  0  0  0  0  0  0
   -7.8413   14.8626  -38.2460 H   0  0  0  0  0  0  0  0  0  0  0  0
  -10.7951   16.3440  -35.8186 H   0  0  0  0  0  0  0  0  0  0  0  0
   -9.7042   15.1598  -35.0971 H   0  0  0  0  0  0  0  0  0  0  0  0
  -11.4844   13.7521  -35.7716 H   0  0  0  0  0  0  0  0  0  0  0  0
  -10.2267   13.5568  -38.3610 H   0  0  0  0  0  0  0  0  0  0  0  0
  1  2  2  0  0  0  0
  1 11  1  0  0  0  0
  2 10  1  0  0  0  0
  2 13  1  0  0  0  0
  3  4  1  0  0  0  0
  3 11  2  0  0  0  0
  3 13  1  0  0  0  0
  4 12  2  0  0  0  0
  5  6  2  0  0  0  0
  5 12  1  0  0  0  0
  6 13  1  0  0  0  0
  7  8  1  0  0  0  0
  7 14  1  0  0  0  0
  8 15  1  0  0  0  0
  9 10  1  0  0  0  0
  9 15  1  0  0  0  0
 10 14  1  0  0  0  0
  1 16  1  0  0  0  0
  4 17  1  0  0  0  0
  5 18  1  0  0  0  0
  6 19  1  0  0  0  0
  7 20  1  0  0  0  0
  7 21  1  0  0  0  0
  8 22  1  0  0  0  0
  8 23  1  0  0  0  0
  9 24  1  0  0  0  0
  9 25  1  0  0  0  0
 10 26  1  0  0  0  0
 14 27  1  0  0  0  0
M  END
> <id>
EN300-1727119

> <smiles>
C1COCC(N1)C2=CN=C3C=NC=CN23

> <IUPAC Name>
3-{imidazo[1,2-a]pyrazin-3-yl}morpholine

> <CAS>
2229166-20-3

> <URL>
https://www.enaminestore.com/catalog/EN300-1727119

> <ROCS_ShapeQuery>
__x1247relevant_x1083L0AP1_x1305L0BP1_

> <ROCS_TanimotoCombo>
0.716 

> <ROCS_ShapeTanimoto>
0.535 

> <ROCS_ColorTanimoto>
0.181 

> <ROCS_RefTversky>
0.445 

> <ROCS_RefColorTversky>
0.202 

> <ROCS_RefTverskyCombo>
0.647 

> <ROCS_FitTversky>
1.607 

> <ROCS_FitColorTversky>
0.640 

> <ROCS_FitTverskyCombo>
2.247 

> <ROCS_ColorScore>
-6.573

> <ROCS_Overlap>
1311.445

> <ROCS_Rank>
382                 

$$$$
untitled-dbase-52700_0
  -OEChem-06232314393D

 33 35  0     1  0  0  0  0  0999 V2000
  -13.3337   14.7480  -39.5464 C   0  0  0  0  0  0  0  0  0  0  0  0
  -12.8007   16.8462  -38.2863 C   0  0  0  0  0  0  0  0  0  0  0  0
  -13.5552   14.0168  -38.2157 C   0  0  0  0  0  0  0  0  0  0  0  0
  -13.0451   16.0950  -36.9710 C   0  0  0  0  0  0  0  0  0  0  0  0
  -10.9652   15.2638  -38.9128 C   0  0  0  0  0  0  0  0  0  0  0  0
   -9.9330   16.6061  -36.7024 C   0  0  0  0  0  0  0  0  0  0  0  0
   -8.7235   14.9374  -36.7905 C   0  0  0  0  0  0  0  0  0  0  0  0
  -12.3037   15.8763  -39.3717 C   0  0  0  0  0  0  0  0  0  0  0  0
  -12.6372   14.6145  -37.1245 C   0  0  0  0  0  0  0  0  0  0  0  0
  -11.1439   14.5089  -37.5677 C   0  0  2  0  0  0  0  0  0  0  0  0
  -10.2149   15.1161  -36.5034 C   0  0  0  0  0  0  0  0  0  0  0  0
  -10.7384   13.1055  -37.7335 N   0  0  0  0  0  0  0  0  0  0  0  0
   -8.5820   16.3334  -37.1406 O   0  0  0  0  0  0  0  0  0  0  0  0
  -10.6660   14.7300  -35.1973 O   0  0  0  0  0  0  0  0  0  0  0  0
  -12.9894   14.0372  -40.3071 H   0  0  0  0  0  0  0  0  0  0  0  0
  -14.2852   15.1566  -39.9074 H   0  0  0  0  0  0  0  0  0  0  0  0
  -13.7269   17.3354  -38.6109 H   0  0  0  0  0  0  0  0  0  0  0  0
  -12.0640   17.6427  -38.1270 H   0  0  0  0  0  0  0  0  0  0  0  0
  -14.6056   14.1184  -37.9145 H   0  0  0  0  0  0  0  0  0  0  0  0
  -13.3856   12.9418  -38.3397 H   0  0  0  0  0  0  0  0  0  0  0  0
  -12.5065   16.5787  -36.1496 H   0  0  0  0  0  0  0  0  0  0  0  0
  -14.1080   16.1619  -36.7059 H   0  0  0  0  0  0  0  0  0  0  0  0
  -10.5997   14.5919  -39.7010 H   0  0  0  0  0  0  0  0  0  0  0  0
  -10.2094   16.0550  -38.8261 H   0  0  0  0  0  0  0  0  0  0  0  0
  -10.5126   17.1193  -37.4754 H   0  0  0  0  0  0  0  0  0  0  0  0
   -9.9368   17.2074  -35.7878 H   0  0  0  0  0  0  0  0  0  0  0  0
   -8.1093   14.6839  -35.9206 H   0  0  0  0  0  0  0  0  0  0  0  0
   -8.4568   14.2832  -37.6258 H   0  0  0  0  0  0  0  0  0  0  0  0
  -12.1642   16.4092  -40.3185 H   0  0  0  0  0  0  0  0  0  0  0  0
  -12.8006   14.0936  -36.1733 H   0  0  0  0  0  0  0  0  0  0  0  0
  -11.3152   12.7061  -38.4313 H   0  0  0  0  0  0  0  0  0  0  0  0
   -9.7877   13.0980  -38.0076 H   0  0  0  0  0  0  0  0  0  0  0  0
  -10.7979   13.7726  -35.2330 H   0  0  0  0  0  0  0  0  0  0  0  0
  1  3  1  0  0  0  0
  1  8  1  0  0  0  0
  2  4  1  0  0  0  0
  2  8  1  0  0  0  0
  3  9  1  0  0  0  0
  4  9  1  0  0  0  0
  5  8  1  0  0  0  0
  5 10  1  0  0  0  0
  6 11  1  0  0  0  0
  6 13  1  0  0  0  0
  7 11  1  0  0  0  0
  7 13  1  0  0  0  0
  9 10  1  0  0  0  0
 10 11  1  0  0  0  0
 10 12  1  0  0  0  0
 11 14  1  0  0  0  0
  1 15  1  0  0  0  0
  1 16  1  0  0  0  0
  2 17  1  0  0  0  0
  2 18  1  0  0  0  0
  3 19  1  0  0  0  0
  3 20  1  0  0  0  0
  4 21  1  0  0  0  0
  4 22  1  0  0  0  0
  5 23  1  0  0  0  0
  5 24  1  0  0  0  0
  6 25  1  0  0  0  0
  6 26  1  0  0  0  0
  7 27  1  0  0  0  0
  7 28  1  0  0  0  0
  8 29  1  0  0  0  0
  9 30  1  0  0  0  0
 12 31  1  0  0  0  0
 12 32  1  0  0  0  0
 14 33  1  0  0  0  0
M  END
> <id>
EN300-1646294

> <smiles>
NC1(CC2CCC1CC2)C3(O)COC3

> <IUPAC Name>
3-{2-aminobicyclo[2.2.2]octan-2-yl}oxetan-3-ol

> <CAS>
2171516-50-8

> <URL>
https://www.enaminestore.com/catalog/EN300-1646294

> <ROCS_ShapeQuery>
__x1247relevant_x1083L0AP1_x1305L0BP1_

> <ROCS_TanimotoCombo>
0.716 

> <ROCS_ShapeTanimoto>
0.487 

> <ROCS_ColorTanimoto>
0.229 

> <ROCS_RefTversky>
0.411 

> <ROCS_RefColorTversky>
0.260 

> <ROCS_RefTverskyCombo>
0.671 

> <ROCS_FitTversky>
1.617 

> <ROCS_FitColorTversky>
0.652 

> <ROCS_FitTverskyCombo>
2.269 

> <ROCS_ColorScore>
-8.525

> <ROCS_Overlap>
1209.176

> <ROCS_Rank>
383                 

$$$$
untitled-dbase-742_0
  -OEChem-06232314393D

 35 37  0     1  0  0  0  0  0999 V2000
   -9.9880   15.2264  -36.6007 C   0  0  0  0  0  0  0  0  0  0  0  0
  -12.3462   16.0246  -36.6992 C   0  0  0  0  0  0  0  0  0  0  0  0
  -13.3220   16.7280  -38.8988 C   0  0  0  0  0  0  0  0  0  0  0  0
  -14.0975   14.6095  -37.8028 C   0  0  0  0  0  0  0  0  0  0  0  0
  -10.9446   15.9215  -38.7804 C   0  0  0  0  0  0  0  0  0  0  0  0
  -11.7218   13.7999  -37.6836 C   0  0  0  0  0  0  0  0  0  0  0  0
  -12.6995   14.5038  -39.8888 C   0  0  0  0  0  0  0  0  0  0  0  0
  -13.6240   16.0504  -37.5521 C   0  0  0  0  0  0  0  0  0  0  0  0
  -11.2404   15.2414  -37.4304 C   0  0  0  0  0  0  0  0  0  0  0  0
  -12.2181   15.9556  -39.6569 C   0  0  1  0  0  0  0  0  0  0  0  0
  -13.0064   13.8035  -38.5439 C   0  0  2  0  0  0  0  0  0  0  0  0
  -11.9209   16.6356  -40.9965 C   0  0  0  0  0  0  0  0  0  0  0  0
  -13.4831   12.3691  -38.7900 C   0  0  0  0  0  0  0  0  0  0  0  0
   -8.9089   15.6810  -36.9505 O   0  0  0  0  0  0  0  0  0  0  0  0
  -10.2144   14.6342  -35.4027 O   0  0  0  0  0  0  0  0  0  0  0  0
  -12.0167   17.0513  -36.4918 H   0  0  0  0  0  0  0  0  0  0  0  0
  -12.5560   15.5675  -35.7232 H   0  0  0  0  0  0  0  0  0  0  0  0
  -14.2376   16.7720  -39.5027 H   0  0  0  0  0  0  0  0  0  0  0  0
  -13.0088   17.7659  -38.7267 H   0  0  0  0  0  0  0  0  0  0  0  0
  -14.3393   14.1296  -36.8456 H   0  0  0  0  0  0  0  0  0  0  0  0
  -15.0245   14.6232  -38.3905 H   0  0  0  0  0  0  0  0  0  0  0  0
  -10.5722   16.9418  -38.6141 H   0  0  0  0  0  0  0  0  0  0  0  0
  -10.1393   15.3871  -39.3029 H   0  0  0  0  0  0  0  0  0  0  0  0
  -10.9341   13.2211  -38.1852 H   0  0  0  0  0  0  0  0  0  0  0  0
  -11.9072   13.2927  -36.7268 H   0  0  0  0  0  0  0  0  0  0  0  0
  -13.5970   14.5050  -40.5220 H   0  0  0  0  0  0  0  0  0  0  0  0
  -11.9329   13.9395  -40.4369 H   0  0  0  0  0  0  0  0  0  0  0  0
  -14.4066   16.6088  -37.0264 H   0  0  0  0  0  0  0  0  0  0  0  0
  -11.1438   16.0847  -41.5209 H   0  0  0  0  0  0  0  0  0  0  0  0
  -11.5841   17.6545  -40.8217 H   0  0  0  0  0  0  0  0  0  0  0  0
  -12.8223   16.6535  -41.6045 H   0  0  0  0  0  0  0  0  0  0  0  0
  -12.7087   11.8116  -39.3114 H   0  0  0  0  0  0  0  0  0  0  0  0
  -14.3859   12.3835  -39.3959 H   0  0  0  0  0  0  0  0  0  0  0  0
  -13.6954   11.8868  -37.8389 H   0  0  0  0  0  0  0  0  0  0  0  0
   -9.4069   14.6128  -34.8461 H   0  0  0  0  0  0  0  0  0  0  0  0
  1  9  1  0  0  0  0
  1 14  2  0  0  0  0
  1 15  1  0  0  0  0
  2  8  1  0  0  0  0
  2  9  1  0  0  0  0
  3  8  1  0  0  0  0
  3 10  1  0  0  0  0
  4  8  1  0  0  0  0
  4 11  1  0  0  0  0
  5  9  1  0  0  0  0
  5 10  1  0  0  0  0
  6  9  1  0  0  0  0
  6 11  1  0  0  0  0
  7 10  1  0  0  0  0
  7 11  1  0  0  0  0
 10 12  1  0  0  0  0
 11 13  1  0  0  0  0
  2 16  1  0  0  0  0
  2 17  1  0  0  0  0
  3 18  1  0  0  0  0
  3 19  1  0  0  0  0
  4 20  1  0  0  0  0
  4 21  1  0  0  0  0
  5 22  1  0  0  0  0
  5 23  1  0  0  0  0
  6 24  1  0  0  0  0
  6 25  1  0  0  0  0
  7 26  1  0  0  0  0
  7 27  1  0  0  0  0
  8 28  1  0  0  0  0
 12 29  1  0  0  0  0
 12 30  1  0  0  0  0
 12 31  1  0  0  0  0
 13 32  1  0  0  0  0
 13 33  1  0  0  0  0
 13 34  1  0  0  0  0
 15 35  1  0  0  0  0
M  END
> <id>
EN300-07998

> <smiles>
CC1(CC2CC3(C)C1)CC(C2)(C3)C(=O)O

> <MDLNUMBER>
MFCD00188067

> <IUPAC Name>
3,5-dimethyladamantane-1-carboxylic acid

> <CAS>
14670-94-1

> <Purity>
95

> <URL>
https://www.enaminestore.com/catalog/EN300-07998

> <MP>
106-108

> <ROCS_ShapeQuery>
__x1247relevant_x1083L0AP1_x1305L0BP1_

> <ROCS_TanimotoCombo>
0.716 

> <ROCS_ShapeTanimoto>
0.504 

> <ROCS_ColorTanimoto>
0.212 

> <ROCS_RefTversky>
0.425 

> <ROCS_RefColorTversky>
0.232 

> <ROCS_RefTverskyCombo>
0.658 

> <ROCS_FitTversky>
1.576 

> <ROCS_FitColorTversky>
0.710 

> <ROCS_FitTverskyCombo>
2.286 

> <ROCS_ColorScore>
-7.586

> <ROCS_Overlap>
1252.409

> <ROCS_Rank>
384                 

$$$$
untitled-dbase-143085_117
  -OEChem-06232314393D

 44 46  0     1  0  0  0  0  0999 V2000
   -9.0943   15.1776  -36.7611 C   0  0  0  0  0  0  0  0  0  0  0  0
  -14.0668   15.2773  -37.1617 C   0  0  0  0  0  0  0  0  0  0  0  0
  -12.8692   13.4302  -38.3729 C   0  0  0  0  0  0  0  0  0  0  0  0
  -13.9878   15.2620  -39.6655 C   0  0  0  0  0  0  0  0  0  0  0  0
  -12.6858   16.9725  -38.3762 C   0  0  0  0  0  0  0  0  0  0  0  0
  -11.4866   15.1206  -39.5910 C   0  0  0  0  0  0  0  0  0  0  0  0
  -14.0813   14.3787  -38.4116 C   0  0  0  0  0  0  0  0  0  0  0  0
  -12.7609   16.0979  -37.1095 C   0  0  2  0  0  0  0  0  0  0  0  0
  -11.5574   14.2421  -38.3266 C   0  0  1  0  0  0  0  0  0  0  0  0
  -11.5674   15.1115  -37.0443 C   0  0  0  0  0  0  0  0  0  0  0  0
  -12.6874   16.0830  -39.6325 C   0  0  0  0  0  0  0  0  0  0  0  0
   -8.9913   13.9444  -34.4558 C   0  0  0  0  0  0  0  0  0  0  0  0
   -9.7294   11.8353  -35.6031 C   0  0  0  0  0  0  0  0  0  0  0  0
   -7.3792   12.6676  -35.9067 C   0  0  0  0  0  0  0  0  0  0  0  0
   -8.8383   13.0717  -35.7007 C   0  0  0  0  0  0  0  0  0  0  0  0
  -10.3148   15.8101  -36.8715 N   0  0  0  0  0  0  0  0  0  0  0  0
   -8.0105   15.7328  -36.6137 O   0  0  0  0  0  0  0  0  0  0  0  0
  -12.6215   16.8910  -40.7988 O   0  0  0  0  0  0  0  0  0  0  0  0
   -9.2682   13.8245  -36.8405 O   0  0  0  0  0  0  0  0  0  0  0  0
  -14.9321   15.9516  -37.1755 H   0  0  0  0  0  0  0  0  0  0  0  0
  -14.1586   14.6621  -36.2579 H   0  0  0  0  0  0  0  0  0  0  0  0
  -12.9349   12.7754  -37.4952 H   0  0  0  0  0  0  0  0  0  0  0  0
  -12.8752   12.7792  -39.2559 H   0  0  0  0  0  0  0  0  0  0  0  0
  -14.0228   14.6452  -40.5729 H   0  0  0  0  0  0  0  0  0  0  0  0
  -14.8558   15.9309  -39.7291 H   0  0  0  0  0  0  0  0  0  0  0  0
  -13.5318   17.6712  -38.4089 H   0  0  0  0  0  0  0  0  0  0  0  0
  -11.7875   17.6025  -38.3599 H   0  0  0  0  0  0  0  0  0  0  0  0
  -10.5470   15.6866  -39.6175 H   0  0  0  0  0  0  0  0  0  0  0  0
  -11.4752   14.4936  -40.4924 H   0  0  0  0  0  0  0  0  0  0  0  0
  -15.0079   13.7947  -38.4375 H   0  0  0  0  0  0  0  0  0  0  0  0
  -12.7730   16.7355  -36.2176 H   0  0  0  0  0  0  0  0  0  0  0  0
  -10.7075   13.5496  -38.3071 H   0  0  0  0  0  0  0  0  0  0  0  0
  -11.6692   14.4672  -36.1625 H   0  0  0  0  0  0  0  0  0  0  0  0
   -8.3533   14.8330  -34.5219 H   0  0  0  0  0  0  0  0  0  0  0  0
  -10.0274   14.2699  -34.3162 H   0  0  0  0  0  0  0  0  0  0  0  0
   -8.6747   13.4027  -33.5572 H   0  0  0  0  0  0  0  0  0  0  0  0
   -9.6227   11.2063  -36.4943 H   0  0  0  0  0  0  0  0  0  0  0  0
  -10.7866   12.1194  -35.5505 H   0  0  0  0  0  0  0  0  0  0  0  0
   -9.4882   11.2320  -34.7220 H   0  0  0  0  0  0  0  0  0  0  0  0
   -7.2691   12.0416  -36.7996 H   0  0  0  0  0  0  0  0  0  0  0  0
   -6.7299   13.5424  -36.0158 H   0  0  0  0  0  0  0  0  0  0  0  0
   -7.0178   12.0688  -35.0629 H   0  0  0  0  0  0  0  0  0  0  0  0
  -10.3341   16.8244  -36.8289 H   0  0  0  0  0  0  0  0  0  0  0  0
  -11.7922   17.3937  -40.7459 H   0  0  0  0  0  0  0  0  0  0  0  0
  1 16  1  0  0  0  0
  1 17  2  0  0  0  0
  1 19  1  0  0  0  0
  2  7  1  0  0  0  0
  2  8  1  0  0  0  0
  3  7  1  0  0  0  0
  3  9  1  0  0  0  0
  4  7  1  0  0  0  0
  4 11  1  0  0  0  0
  5  8  1  0  0  0  0
  5 11  1  0  0  0  0
  6  9  1  0  0  0  0
  6 11  1  0  0  0  0
  8 10  1  0  0  0  0
  9 10  1  0  0  0  0
 10 16  1  6  0  0  0
 11 18  1  6  0  0  0
 12 15  1  0  0  0  0
 13 15  1  0  0  0  0
 14 15  1  0  0  0  0
 15 19  1  0  0  0  0
  2 20  1  0  0  0  0
  2 21  1  0  0  0  0
  3 22  1  0  0  0  0
  3 23  1  0  0  0  0
  4 24  1  0  0  0  0
  4 25  1  0  0  0  0
  5 26  1  0  0  0  0
  5 27  1  0  0  0  0
  6 28  1  0  0  0  0
  6 29  1  0  0  0  0
  7 30  1  0  0  0  0
  8 31  1  0  0  0  0
  9 32  1  0  0  0  0
 10 33  1  0  0  0  0
 12 34  1  0  0  0  0
 12 35  1  0  0  0  0
 12 36  1  0  0  0  0
 13 37  1  0  0  0  0
 13 38  1  0  0  0  0
 13 39  1  0  0  0  0
 14 40  1  0  0  0  0
 14 41  1  0  0  0  0
 14 42  1  0  0  0  0
 16 43  1  0  0  0  0
 18 44  1  0  0  0  0
M  END
> <id>
EN300-27718296

> <smiles>
CC(C)(C)OC(=O)N[C@H]1C2CC3CC1C[C@@](O)(C3)C2

> <IUPAC Name>
tert-butyl N-[(5s)-5-hydroxyadamantan-2-yl]carbamate

> <URL>
https://www.enaminestore.com/catalog/EN300-27718296

> <ROCS_ShapeQuery>
__x1247relevant_x1083L0AP1_x1305L0BP1_

> <ROCS_TanimotoCombo>
0.716 

> <ROCS_ShapeTanimoto>
0.528 

> <ROCS_ColorTanimoto>
0.188 

> <ROCS_RefTversky>
0.458 

> <ROCS_RefColorTversky>
0.219 

> <ROCS_RefTverskyCombo>
0.677 

> <ROCS_FitTversky>
1.409 

> <ROCS_FitColorTversky>
0.569 

> <ROCS_FitTverskyCombo>
1.977 

> <ROCS_ColorScore>
-7.154

> <ROCS_Overlap>
1353.139

> <ROCS_Rank>
385                 

$$$$
untitled-dbase-56199_3
  -OEChem-06232314393D

 31 33  0     0  0  0  0  0  0999 V2000
  -11.7968   16.8937  -40.0159 C   0  0  0  0  0  0  0  0  0  0  0  0
  -10.0963   14.6150  -38.4795 C   0  0  0  0  0  0  0  0  0  0  0  0
  -10.8093   16.4949  -36.9646 C   0  0  0  0  0  0  0  0  0  0  0  0
  -13.6396   16.1358  -38.2159 C   0  0  0  0  0  0  0  0  0  0  0  0
  -13.0515   14.5838  -39.4663 C   0  0  0  0  0  0  0  0  0  0  0  0
   -9.1230   14.2007  -37.3800 C   0  0  0  0  0  0  0  0  0  0  0  0
   -9.7929   15.9656  -35.9571 C   0  0  0  0  0  0  0  0  0  0  0  0
  -12.2821   15.8814  -38.9882 C   0  0  0  0  0  0  0  0  0  0  0  0
  -11.2902   15.3789  -37.8977 C   0  0  0  0  0  0  0  0  0  0  0  0
  -13.4119   14.6024  -37.9323 C   0  0  0  0  0  0  0  0  0  0  0  0
  -14.5115   13.7443  -37.3842 C   0  0  0  0  0  0  0  0  0  0  0  0
  -10.7376   17.5005  -39.9574 O   0  0  0  0  0  0  0  0  0  0  0  0
   -8.7020   15.3332  -36.6230 O   0  0  0  0  0  0  0  0  0  0  0  0
  -12.1639   14.4761  -37.1885 O   0  0  0  0  0  0  0  0  0  0  0  0
  -12.7042   17.0367  -41.0126 O   0  0  0  0  0  0  0  0  0  0  0  0
   -9.5676   15.2586  -39.1926 H   0  0  0  0  0  0  0  0  0  0  0  0
  -10.4094   13.7135  -39.0155 H   0  0  0  0  0  0  0  0  0  0  0  0
  -11.6360   16.9475  -36.4087 H   0  0  0  0  0  0  0  0  0  0  0  0
  -10.3364   17.2857  -37.5591 H   0  0  0  0  0  0  0  0  0  0  0  0
  -13.6093   16.7921  -37.3431 H   0  0  0  0  0  0  0  0  0  0  0  0
  -14.5119   16.4079  -38.8221 H   0  0  0  0  0  0  0  0  0  0  0  0
  -13.8757   14.7289  -40.1750 H   0  0  0  0  0  0  0  0  0  0  0  0
  -12.4509   13.7368  -39.8055 H   0  0  0  0  0  0  0  0  0  0  0  0
   -9.5681   13.4564  -36.7095 H   0  0  0  0  0  0  0  0  0  0  0  0
   -8.2312   13.7486  -37.8263 H   0  0  0  0  0  0  0  0  0  0  0  0
   -9.3881   16.7954  -35.3692 H   0  0  0  0  0  0  0  0  0  0  0  0
  -10.2532   15.2598  -35.2555 H   0  0  0  0  0  0  0  0  0  0  0  0
  -14.1766   12.7066  -37.2497 H   0  0  0  0  0  0  0  0  0  0  0  0
  -15.3785   13.7300  -38.0591 H   0  0  0  0  0  0  0  0  0  0  0  0
  -14.8547   14.1134  -36.4078 H   0  0  0  0  0  0  0  0  0  0  0  0
  -12.4102   17.6875  -41.6852 H   0  0  0  0  0  0  0  0  0  0  0  0
  1  8  1  0  0  0  0
  1 12  2  0  0  0  0
  1 15  1  0  0  0  0
  2  6  1  0  0  0  0
  2  9  1  0  0  0  0
  3  7  1  0  0  0  0
  3  9  1  0  0  0  0
  4  8  1  0  0  0  0
  4 10  1  0  0  0  0
  5  8  1  0  0  0  0
  5 10  1  0  0  0  0
  6 13  1  0  0  0  0
  7 13  1  0  0  0  0
  8  9  1  0  0  0  0
  9 14  1  0  0  0  0
 10 11  1  0  0  0  0
 10 14  1  0  0  0  0
  2 16  1  0  0  0  0
  2 17  1  0  0  0  0
  3 18  1  0  0  0  0
  3 19  1  0  0  0  0
  4 20  1  0  0  0  0
  4 21  1  0  0  0  0
  5 22  1  0  0  0  0
  5 23  1  0  0  0  0
  6 24  1  0  0  0  0
  6 25  1  0  0  0  0
  7 26  1  0  0  0  0
  7 27  1  0  0  0  0
 11 28  1  0  0  0  0
 11 29  1  0  0  0  0
 11 30  1  0  0  0  0
 15 31  1  0  0  0  0
M  END
> <id>
EN300-1718526

> <smiles>
CC1(CC2(C1)C(=O)O)OC32CCOCC3

> <MDLNUMBER>
MFCD31665582

> <IUPAC Name>
4-methyl-3-oxaspiro[bicyclo[2.1.1]hexane-2,4'-oxane]-1-carboxylic acid

> <CAS>
2225146-57-4

> <Purity>
95

> <URL>
https://www.enaminestore.com/catalog/EN300-1718526

> <ROCS_ShapeQuery>
__x1247relevant_x1083L0AP1_x1305L0BP1_

> <ROCS_TanimotoCombo>
0.716 

> <ROCS_ShapeTanimoto>
0.499 

> <ROCS_ColorTanimoto>
0.217 

> <ROCS_RefTversky>
0.423 

> <ROCS_RefColorTversky>
0.254 

> <ROCS_RefTverskyCombo>
0.676 

> <ROCS_FitTversky>
1.562 

> <ROCS_FitColorTversky>
0.602 

> <ROCS_FitTverskyCombo>
2.164 

> <ROCS_ColorScore>
-8.316

> <ROCS_Overlap>
1245.240

> <ROCS_Rank>
386                 

$$$$
untitled-dbase-146815_79
  -OEChem-06232314393D

 41 42  0     1  0  0  0  0  0999 V2000
   -9.0547   14.3630  -37.6710 C   0  0  0  0  0  0  0  0  0  0  0  0
  -14.1137   15.9103  -37.3822 C   0  0  0  0  0  0  0  0  0  0  0  0
  -12.8248   16.7399  -37.3143 C   0  0  0  0  0  0  0  0  0  0  0  0
  -12.7999   13.7810  -37.5090 C   0  0  0  0  0  0  0  0  0  0  0  0
  -13.8795   14.6300  -38.2065 C   0  0  2  0  0  0  0  0  0  0  0  0
  -11.6697   15.9849  -38.0070 C   0  0  1  0  0  0  0  0  0  0  0  0
  -11.5198   14.6177  -37.2948 C   0  0  2  0  0  0  0  0  0  0  0  0
  -13.3701   15.0124  -39.6141 C   0  0  2  0  0  0  0  0  0  0  0  0
  -12.0266   15.7647  -39.4971 C   0  0  1  0  0  0  0  0  0  0  0  0
   -7.7638   12.9602  -35.8790 C   0  0  0  0  0  0  0  0  0  0  0  0
   -6.8570   11.5201  -37.7264 C   0  0  0  0  0  0  0  0  0  0  0  0
   -5.9533   13.8392  -37.3903 C   0  0  0  0  0  0  0  0  0  0  0  0
   -7.1899   12.9467  -37.2950 C   0  0  0  0  0  0  0  0  0  0  0  0
  -10.3457   13.8845  -37.7640 N   0  0  0  0  0  0  0  0  0  0  0  0
   -8.7249   15.4434  -37.1931 O   0  0  0  0  0  0  0  0  0  0  0  0
  -14.3423   15.7976  -40.2942 O   0  0  0  0  0  0  0  0  0  0  0  0
  -12.0370   17.0019  -40.1993 O   0  0  0  0  0  0  0  0  0  0  0  0
   -8.1847   13.4484  -38.1947 O   0  0  0  0  0  0  0  0  0  0  0  0
  -14.4376   15.6470  -36.3677 H   0  0  0  0  0  0  0  0  0  0  0  0
  -14.9207   16.5115  -37.8169 H   0  0  0  0  0  0  0  0  0  0  0  0
  -12.9844   17.7152  -37.7888 H   0  0  0  0  0  0  0  0  0  0  0  0
  -12.5711   16.9438  -36.2670 H   0  0  0  0  0  0  0  0  0  0  0  0
  -13.1685   13.4258  -36.5387 H   0  0  0  0  0  0  0  0  0  0  0  0
  -12.5968   12.8849  -38.1091 H   0  0  0  0  0  0  0  0  0  0  0  0
  -14.8198   14.0722  -38.2825 H   0  0  0  0  0  0  0  0  0  0  0  0
  -10.7551   16.5829  -37.9146 H   0  0  0  0  0  0  0  0  0  0  0  0
  -11.3550   14.7682  -36.2288 H   0  0  0  0  0  0  0  0  0  0  0  0
  -13.2194   14.1007  -40.2033 H   0  0  0  0  0  0  0  0  0  0  0  0
  -11.2342   15.1477  -39.9600 H   0  0  0  0  0  0  0  0  0  0  0  0
   -8.0040   13.9825  -35.5656 H   0  0  0  0  0  0  0  0  0  0  0  0
   -8.6711   12.3517  -35.8056 H   0  0  0  0  0  0  0  0  0  0  0  0
   -7.0324   12.5794  -35.1570 H   0  0  0  0  0  0  0  0  0  0  0  0
   -6.4450   11.5057  -38.7419 H   0  0  0  0  0  0  0  0  0  0  0  0
   -7.7598   10.8990  -37.7508 H   0  0  0  0  0  0  0  0  0  0  0  0
   -6.1327   11.0526  -37.0517 H   0  0  0  0  0  0  0  0  0  0  0  0
   -5.5415   13.8297  -38.4060 H   0  0  0  0  0  0  0  0  0  0  0  0
   -6.1819   14.8752  -37.1198 H   0  0  0  0  0  0  0  0  0  0  0  0
   -5.1577   13.4744  -36.7306 H   0  0  0  0  0  0  0  0  0  0  0  0
  -10.4883   12.9697  -38.1827 H   0  0  0  0  0  0  0  0  0  0  0  0
  -13.9715   16.0073  -41.1663 H   0  0  0  0  0  0  0  0  0  0  0  0
  -12.7065   17.5597  -39.7720 H   0  0  0  0  0  0  0  0  0  0  0  0
  1 14  1  0  0  0  0
  1 15  2  0  0  0  0
  1 18  1  0  0  0  0
  2  3  1  0  0  0  0
  2  5  1  0  0  0  0
  3  6  1  1  0  0  0
  4  5  1  6  0  0  0
  4  7  1  0  0  0  0
  5  8  1  0  0  0  0
  6  7  1  0  0  0  0
  6  9  1  0  0  0  0
  7 14  1  6  0  0  0
  8  9  1  0  0  0  0
  8 16  1  1  0  0  0
  9 17  1  1  0  0  0
 10 13  1  0  0  0  0
 11 13  1  0  0  0  0
 12 13  1  0  0  0  0
 13 18  1  0  0  0  0
  2 19  1  0  0  0  0
  2 20  1  0  0  0  0
  3 21  1  0  0  0  0
  3 22  1  0  0  0  0
  4 23  1  0  0  0  0
  4 24  1  0  0  0  0
  5 25  1  0  0  0  0
  6 26  1  0  0  0  0
  7 27  1  0  0  0  0
  8 28  1  0  0  0  0
  9 29  1  0  0  0  0
 10 30  1  0  0  0  0
 10 31  1  0  0  0  0
 10 32  1  0  0  0  0
 11 33  1  0  0  0  0
 11 34  1  0  0  0  0
 11 35  1  0  0  0  0
 12 36  1  0  0  0  0
 12 37  1  0  0  0  0
 12 38  1  0  0  0  0
 14 39  1  0  0  0  0
 16 40  1  0  0  0  0
 17 41  1  0  0  0  0
M  END
> <id>
EN300-28228780

> <smiles>
CC(C)(C)OC(=O)N[C@@H]1C[C@H]2CC[C@@H]1[C@H](O)[C@@H]2O |&1:8,10,13,14,16,r|

> <IUPAC Name>
rac-tert-butyl N-[(1R,2S,4S,5S,6R)-5,6-dihydroxybicyclo[2.2.2]octan-2-yl]carbamate

> <CAS>
2188213-18-3

> <URL>
https://www.enaminestore.com/catalog/EN300-28228780

> <ROCS_ShapeQuery>
__x1247relevant_x1083L0AP1_x1305L0BP1_

> <ROCS_TanimotoCombo>
0.716 

> <ROCS_ShapeTanimoto>
0.467 

> <ROCS_ColorTanimoto>
0.249 

> <ROCS_RefTversky>
0.416 

> <ROCS_RefColorTversky>
0.284 

> <ROCS_RefTverskyCombo>
0.700 

> <ROCS_FitTversky>
1.362 

> <ROCS_FitColorTversky>
0.665 

> <ROCS_FitTverskyCombo>
2.027 

> <ROCS_ColorScore>
-9.322

> <ROCS_Overlap>
1226.120

> <ROCS_Rank>
387                 

$$$$
untitled-dbase-119902_2
  -OEChem-06232314393D

 32 34  0     1  0  0  0  0  0999 V2000
   -9.9844   15.2257  -36.6070 C   0  0  0  0  0  0  0  0  0  0  0  0
  -14.0906   14.6043  -37.7846 C   0  0  0  0  0  0  0  0  0  0  0  0
  -12.3301   16.0257  -36.7035 C   0  0  0  0  0  0  0  0  0  0  0  0
  -11.7181   13.7980  -37.6895 C   0  0  0  0  0  0  0  0  0  0  0  0
  -13.3308   16.7213  -38.8949 C   0  0  0  0  0  0  0  0  0  0  0  0
  -12.7186   14.4924  -39.8814 C   0  0  0  0  0  0  0  0  0  0  0  0
  -10.9513   15.9162  -38.8002 C   0  0  0  0  0  0  0  0  0  0  0  0
  -13.6187   16.0473  -37.5421 C   0  0  1  0  0  0  0  0  0  0  0  0
  -13.0048   13.8124  -38.5312 C   0  0  2  0  0  0  0  0  0  0  0  0
  -11.2315   15.2392  -37.4441 C   0  0  0  0  0  0  0  0  0  0  0  0
  -12.2350   15.9457  -39.6637 C   0  0  0  0  0  0  0  0  0  0  0  0
  -11.9539   16.6186  -41.0100 C   0  0  0  0  0  0  0  0  0  0  0  0
   -8.9037   15.6812  -36.9504 O   0  0  0  0  0  0  0  0  0  0  0  0
  -10.2176   14.6336  -35.4102 O   0  0  0  0  0  0  0  0  0  0  0  0
  -14.3169   14.1186  -36.8275 H   0  0  0  0  0  0  0  0  0  0  0  0
  -15.0198   14.6071  -38.3676 H   0  0  0  0  0  0  0  0  0  0  0  0
  -11.9966   17.0526  -36.5036 H   0  0  0  0  0  0  0  0  0  0  0  0
  -12.5298   15.5725  -35.7235 H   0  0  0  0  0  0  0  0  0  0  0  0
  -11.9045   13.2884  -36.7349 H   0  0  0  0  0  0  0  0  0  0  0  0
  -10.9413   13.2148  -38.2014 H   0  0  0  0  0  0  0  0  0  0  0  0
  -14.2531   16.7633  -39.4886 H   0  0  0  0  0  0  0  0  0  0  0  0
  -13.0155   17.7596  -38.7293 H   0  0  0  0  0  0  0  0  0  0  0  0
  -11.9601   13.9185  -40.4293 H   0  0  0  0  0  0  0  0  0  0  0  0
  -13.6266   14.4831  -40.4979 H   0  0  0  0  0  0  0  0  0  0  0  0
  -10.5802   16.9382  -38.6427 H   0  0  0  0  0  0  0  0  0  0  0  0
  -10.1504   15.3812  -39.3287 H   0  0  0  0  0  0  0  0  0  0  0  0
  -14.3967   16.6058  -37.0096 H   0  0  0  0  0  0  0  0  0  0  0  0
  -13.3469   12.7853  -38.7003 H   0  0  0  0  0  0  0  0  0  0  0  0
  -11.1829   16.0653  -41.5410 H   0  0  0  0  0  0  0  0  0  0  0  0
  -11.6153   17.6387  -40.8449 H   0  0  0  0  0  0  0  0  0  0  0  0
  -12.8624   16.6333  -41.6077 H   0  0  0  0  0  0  0  0  0  0  0  0
   -9.4135   14.6132  -34.8487 H   0  0  0  0  0  0  0  0  0  0  0  0
  1 10  1  0  0  0  0
  1 13  2  0  0  0  0
  1 14  1  0  0  0  0
  2  8  1  0  0  0  0
  2  9  1  0  0  0  0
  3  8  1  0  0  0  0
  3 10  1  0  0  0  0
  4  9  1  0  0  0  0
  4 10  1  0  0  0  0
  5  8  1  0  0  0  0
  5 11  1  0  0  0  0
  6  9  1  0  0  0  0
  6 11  1  0  0  0  0
  7 10  1  0  0  0  0
  7 11  1  0  0  0  0
 11 12  1  0  0  0  0
  2 15  1  0  0  0  0
  2 16  1  0  0  0  0
  3 17  1  0  0  0  0
  3 18  1  0  0  0  0
  4 19  1  0  0  0  0
  4 20  1  0  0  0  0
  5 21  1  0  0  0  0
  5 22  1  0  0  0  0
  6 23  1  0  0  0  0
  6 24  1  0  0  0  0
  7 25  1  0  0  0  0
  7 26  1  0  0  0  0
  8 27  1  0  0  0  0
  9 28  1  0  0  0  0
 12 29  1  0  0  0  0
 12 30  1  0  0  0  0
 12 31  1  0  0  0  0
 14 32  1  0  0  0  0
M  END
> <id>
EN300-105275

> <smiles>
CC1(CC2CC3C1)CC(C2)(C3)C(=O)O

> <MDLNUMBER>
MFCD00213438

> <IUPAC Name>
3-methyladamantane-1-carboxylic acid

> <CAS>
33649-73-9

> <Purity>
95

> <URL>
https://www.enaminestore.com/catalog/EN300-105275

> <ROCS_ShapeQuery>
__x1247relevant_x1083L0AP1_x1305L0BP1_

> <ROCS_TanimotoCombo>
0.716 

> <ROCS_ShapeTanimoto>
0.503 

> <ROCS_ColorTanimoto>
0.212 

> <ROCS_RefTversky>
0.420 

> <ROCS_RefColorTversky>
0.233 

> <ROCS_RefTverskyCombo>
0.653 

> <ROCS_FitTversky>
1.642 

> <ROCS_FitColorTversky>
0.710 

> <ROCS_FitTverskyCombo>
2.352 

> <ROCS_ColorScore>
-7.591

> <ROCS_Overlap>
1237.362

> <ROCS_Rank>
388                 

$$$$
untitled-dbase-108316_1
  -OEChem-06232314393D

 29 31  0     1  0  0  0  0  0999 V2000
  -12.4845   16.5285  -39.2479 C   0  0  0  0  0  0  0  0  0  0  0  0
  -11.8918   15.3815  -39.6105 C   0  0  0  0  0  0  0  0  0  0  0  0
  -13.9822   14.8271  -38.8010 C   0  0  0  0  0  0  0  0  0  0  0  0
  -12.8297   15.7533  -36.9305 C   0  0  0  0  0  0  0  0  0  0  0  0
   -9.8072   15.4076  -37.7596 C   0  0  0  0  0  0  0  0  0  0  0  0
  -10.1796   14.8810  -35.7040 C   0  0  0  0  0  0  0  0  0  0  0  0
  -13.5461   16.1807  -38.2317 C   0  0  1  0  0  0  0  0  0  0  0  0
  -12.5530   14.2699  -38.8288 C   0  0  2  0  0  0  0  0  0  0  0  0
  -12.1822   14.3897  -37.3266 C   0  0  1  0  0  0  0  0  0  0  0  0
  -10.6958   14.3530  -37.0618 C   0  0  0  0  0  0  0  0  0  0  0  0
   -9.0061   15.5678  -36.4444 C   0  0  0  0  0  0  0  0  0  0  0  0
  -10.1183   13.0240  -37.3014 N   0  0  0  0  0  0  0  0  0  0  0  0
   -7.8286   14.9024  -36.4016 F   0  0  0  0  0  0  0  0  0  0  0  0
   -8.7472   16.8409  -36.0713 F   0  0  0  0  0  0  0  0  0  0  0  0
  -12.2196   17.5197  -39.5793 H   0  0  0  0  0  0  0  0  0  0  0  0
  -11.0594   15.2763  -40.2876 H   0  0  0  0  0  0  0  0  0  0  0  0
  -14.6528   14.2723  -38.1349 H   0  0  0  0  0  0  0  0  0  0  0  0
  -14.4436   14.8979  -39.7944 H   0  0  0  0  0  0  0  0  0  0  0  0
  -12.0994   16.4953  -36.5893 H   0  0  0  0  0  0  0  0  0  0  0  0
  -13.5599   15.5940  -36.1286 H   0  0  0  0  0  0  0  0  0  0  0  0
   -9.2274   15.0714  -38.6257 H   0  0  0  0  0  0  0  0  0  0  0  0
  -10.3369   16.3253  -38.0449 H   0  0  0  0  0  0  0  0  0  0  0  0
  -10.8491   15.6010  -35.2166 H   0  0  0  0  0  0  0  0  0  0  0  0
   -9.8909   14.1323  -34.9592 H   0  0  0  0  0  0  0  0  0  0  0  0
  -14.3390   16.9210  -38.1221 H   0  0  0  0  0  0  0  0  0  0  0  0
  -12.4486   13.2770  -39.2681 H   0  0  0  0  0  0  0  0  0  0  0  0
  -12.6713   13.5842  -36.7636 H   0  0  0  0  0  0  0  0  0  0  0  0
  -10.0965   12.8700  -38.2807 H   0  0  0  0  0  0  0  0  0  0  0  0
   -9.2022   13.0144  -36.9221 H   0  0  0  0  0  0  0  0  0  0  0  0
  1  2  2  0  0  0  0
  1  7  1  0  0  0  0
  2  8  1  0  0  0  0
  3  7  1  0  0  0  0
  3  8  1  0  0  0  0
  4  7  1  0  0  0  0
  4  9  1  0  0  0  0
  5 10  1  0  0  0  0
  5 11  1  0  0  0  0
  6 10  1  0  0  0  0
  6 11  1  0  0  0  0
  8  9  1  0  0  0  0
  9 10  1  0  0  0  0
 10 12  1  0  0  0  0
 11 13  1  0  0  0  0
 11 14  1  0  0  0  0
  1 15  1  0  0  0  0
  2 16  1  0  0  0  0
  3 17  1  0  0  0  0
  3 18  1  0  0  0  0
  4 19  1  0  0  0  0
  4 20  1  0  0  0  0
  5 21  1  0  0  0  0
  5 22  1  0  0  0  0
  6 23  1  0  0  0  0
  6 24  1  0  0  0  0
  7 25  1  0  0  0  0
  8 26  1  0  0  0  0
  9 27  1  0  0  0  0
 12 28  1  0  0  0  0
 12 29  1  0  0  0  0
M  END
> <id>
EN300-1951408

> <smiles>
NC1(CC(F)(F)C1)C2CC3CC2C=C3

> <IUPAC Name>
1-{bicyclo[2.2.1]hept-5-en-2-yl}-3,3-difluorocyclobutan-1-amine

> <CAS>
2229048-51-3

> <URL>
https://www.enaminestore.com/catalog/EN300-1951408

> <ROCS_ShapeQuery>
__x1247relevant_x1083L0AP1_x1305L0BP1_

> <ROCS_TanimotoCombo>
0.716 

> <ROCS_ShapeTanimoto>
0.494 

> <ROCS_ColorTanimoto>
0.222 

> <ROCS_RefTversky>
0.416 

> <ROCS_RefColorTversky>
0.240 

> <ROCS_RefTverskyCombo>
0.656 

> <ROCS_FitTversky>
1.611 

> <ROCS_FitColorTversky>
0.741 

> <ROCS_FitTverskyCombo>
2.351 

> <ROCS_ColorScore>
-7.836

> <ROCS_Overlap>
1224.748

> <ROCS_Rank>
389                 

$$$$
untitled-dbase-90914_0
  -OEChem-06232314393D

 29 31  0     1  0  0  0  0  0999 V2000
   -9.9863   15.2254  -36.6007 C   0  0  0  0  0  0  0  0  0  0  0  0
  -10.9450   15.9165  -38.7836 C   0  0  0  0  0  0  0  0  0  0  0  0
  -11.7276   13.8010  -37.6813 C   0  0  0  0  0  0  0  0  0  0  0  0
  -12.3495   16.0310  -36.7031 C   0  0  0  0  0  0  0  0  0  0  0  0
  -12.6938   14.4983  -39.8864 C   0  0  0  0  0  0  0  0  0  0  0  0
  -13.3170   16.7249  -38.9161 C   0  0  0  0  0  0  0  0  0  0  0  0
  -14.0996   14.6084  -37.8126 C   0  0  0  0  0  0  0  0  0  0  0  0
  -11.2381   15.2412  -37.4293 C   0  0  0  0  0  0  0  0  0  0  0  0
  -12.2178   15.9352  -39.6421 C   0  0  1  0  0  0  0  0  0  0  0  0
  -12.9982   13.8258  -38.5424 C   0  0  2  0  0  0  0  0  0  0  0  0
  -13.6221   16.0492  -37.5693 C   0  0  0  0  0  0  0  0  0  0  0  0
   -8.9069   15.6787  -36.9511 O   0  0  0  0  0  0  0  0  0  0  0  0
  -10.2129   14.6339  -35.4023 O   0  0  0  0  0  0  0  0  0  0  0  0
  -11.9493   16.5284  -40.8310 F   0  0  0  0  0  0  0  0  0  0  0  0
  -13.4185   12.5555  -38.7598 F   0  0  0  0  0  0  0  0  0  0  0  0
  -15.0207   17.0477  -36.6462 Br  0  0  0  0  0  0  0  0  0  0  0  0
  -10.5763   16.9407  -38.6388 H   0  0  0  0  0  0  0  0  0  0  0  0
  -10.1420   15.3909  -39.3174 H   0  0  0  0  0  0  0  0  0  0  0  0
  -10.9523   13.2043  -38.1801 H   0  0  0  0  0  0  0  0  0  0  0  0
  -11.9271   13.2846  -36.7331 H   0  0  0  0  0  0  0  0  0  0  0  0
  -12.5533   15.5774  -35.7231 H   0  0  0  0  0  0  0  0  0  0  0  0
  -12.0105   17.0553  -36.4946 H   0  0  0  0  0  0  0  0  0  0  0  0
  -13.5824   14.4913  -40.5299 H   0  0  0  0  0  0  0  0  0  0  0  0
  -11.9347   13.9297  -40.4378 H   0  0  0  0  0  0  0  0  0  0  0  0
  -12.9943   17.7650  -38.7757 H   0  0  0  0  0  0  0  0  0  0  0  0
  -14.2135   16.7763  -39.5482 H   0  0  0  0  0  0  0  0  0  0  0  0
  -15.0220   14.5899  -38.4079 H   0  0  0  0  0  0  0  0  0  0  0  0
  -14.3465   14.1053  -36.8684 H   0  0  0  0  0  0  0  0  0  0  0  0
   -9.4051   14.6119  -34.8460 H   0  0  0  0  0  0  0  0  0  0  0  0
  1  8  1  0  0  0  0
  1 12  2  0  0  0  0
  1 13  1  0  0  0  0
  2  8  1  0  0  0  0
  2  9  1  0  0  0  0
  3  8  1  0  0  0  0
  3 10  1  0  0  0  0
  4  8  1  0  0  0  0
  4 11  1  0  0  0  0
  5  9  1  0  0  0  0
  5 10  1  0  0  0  0
  6  9  1  0  0  0  0
  6 11  1  0  0  0  0
  7 10  1  0  0  0  0
  7 11  1  0  0  0  0
  9 14  1  0  0  0  0
 10 15  1  0  0  0  0
 11 16  1  0  0  0  0
  2 17  1  0  0  0  0
  2 18  1  0  0  0  0
  3 19  1  0  0  0  0
  3 20  1  0  0  0  0
  4 21  1  0  0  0  0
  4 22  1  0  0  0  0
  5 23  1  0  0  0  0
  5 24  1  0  0  0  0
  6 25  1  0  0  0  0
  6 26  1  0  0  0  0
  7 27  1  0  0  0  0
  7 28  1  0  0  0  0
 13 29  1  0  0  0  0
M  END
> <id>
EN300-6758769

> <smiles>
OC(=O)C1(CC2(F)CC3(F)CC(Br)(C2)C1)C3

> <IUPAC Name>
3-bromo-5,7-difluoroadamantane-1-carboxylic acid

> <CAS>
2344680-84-6

> <Purity>
95

> <URL>
https://www.enaminestore.com/catalog/EN300-6758769

> <ROCS_ShapeQuery>
__x1247relevant_x1083L0AP1_x1305L0BP1_

> <ROCS_TanimotoCombo>
0.715 

> <ROCS_ShapeTanimoto>
0.508 

> <ROCS_ColorTanimoto>
0.207 

> <ROCS_RefTversky>
0.433 

> <ROCS_RefColorTversky>
0.233 

> <ROCS_RefTverskyCombo>
0.666 

> <ROCS_FitTversky>
1.518 

> <ROCS_FitColorTversky>
0.652 

> <ROCS_FitTverskyCombo>
2.170 

> <ROCS_ColorScore>
-7.603

> <ROCS_Overlap>
1276.848

> <ROCS_Rank>
390                 

$$$$
untitled-dbase-66350_5
  -OEChem-06232314393D

 25 26  0     1  0  0  0  0  0999 V2000
  -13.7367   15.2497  -39.1081 C   0  0  0  0  0  0  0  0  0  0  0  0
   -9.9714   14.9487  -36.8642 C   0  0  0  0  0  0  0  0  0  0  0  0
  -10.8543   15.7087  -39.0861 C   0  0  0  0  0  0  0  0  0  0  0  0
  -11.9051   16.8438  -38.9861 C   0  0  0  0  0  0  0  0  0  0  0  0
  -12.9088   15.8304  -37.0205 C   0  0  0  0  0  0  0  0  0  0  0  0
  -10.9444   14.6286  -37.9651 C   0  0  2  0  0  0  0  0  0  0  0  0
  -12.3677   14.4520  -37.3664 C   0  0  2  0  0  0  0  0  0  0  0  0
  -13.7743   12.7333  -38.6921 C   0  0  0  0  0  0  0  0  0  0  0  0
  -13.1176   16.3342  -38.3649 N   0  0  0  0  0  0  0  0  0  0  0  0
  -13.3233   14.0770  -38.4119 N   0  0  0  0  0  0  0  0  0  0  0  0
  -14.3522   15.3295  -40.1607 O   0  0  0  0  0  0  0  0  0  0  0  0
   -8.9384   15.5864  -37.0039 O   0  0  0  0  0  0  0  0  0  0  0  0
  -10.3942   14.4293  -35.6857 O   0  0  0  0  0  0  0  0  0  0  0  0
  -11.0183   15.1955  -40.0438 H   0  0  0  0  0  0  0  0  0  0  0  0
   -9.8513   16.1464  -39.1487 H   0  0  0  0  0  0  0  0  0  0  0  0
  -11.5270   17.6707  -38.3754 H   0  0  0  0  0  0  0  0  0  0  0  0
  -12.1430   17.2276  -39.9840 H   0  0  0  0  0  0  0  0  0  0  0  0
  -13.8780   15.7656  -36.5111 H   0  0  0  0  0  0  0  0  0  0  0  0
  -12.2389   16.4744  -36.4434 H   0  0  0  0  0  0  0  0  0  0  0  0
  -10.6016   13.6709  -38.3770 H   0  0  0  0  0  0  0  0  0  0  0  0
  -12.4129   13.7548  -36.5245 H   0  0  0  0  0  0  0  0  0  0  0  0
  -13.1074   12.2693  -39.4337 H   0  0  0  0  0  0  0  0  0  0  0  0
  -13.7602   12.1411  -37.7652 H   0  0  0  0  0  0  0  0  0  0  0  0
  -14.7991   12.7663  -39.0906 H   0  0  0  0  0  0  0  0  0  0  0  0
   -9.7711   14.6260  -34.9540 H   0  0  0  0  0  0  0  0  0  0  0  0
  1  9  1  0  0  0  0
  1 10  1  0  0  0  0
  1 11  2  0  0  0  0
  2  6  1  0  0  0  0
  2 12  2  0  0  0  0
  2 13  1  0  0  0  0
  3  4  1  0  0  0  0
  3  6  1  0  0  0  0
  4  9  1  0  0  0  0
  5  7  1  0  0  0  0
  5  9  1  0  0  0  0
  6  7  1  0  0  0  0
  7 10  1  0  0  0  0
  8 10  1  0  0  0  0
  3 14  1  0  0  0  0
  3 15  1  0  0  0  0
  4 16  1  0  0  0  0
  4 17  1  0  0  0  0
  5 18  1  0  0  0  0
  5 19  1  0  0  0  0
  6 20  1  0  0  0  0
  7 21  1  0  0  0  0
  8 22  1  0  0  0  0
  8 23  1  0  0  0  0
  8 24  1  0  0  0  0
 13 25  1  0  0  0  0
M  END
> <id>
EN300-37273029

> <smiles>
Cl.CN1C2CN(CCC2C(=O)O)C1=O

> <IUPAC Name>
6-methyl-7-oxo-1,6-diazabicyclo[3.2.1]octane-4-carboxylic acid hydrochloride

> <CAS>
2751704-52-4

> <URL>
https://www.enaminestore.com/catalog/EN300-37273029

> <Saltdate>
Cl

> <ROCS_ShapeQuery>
__x1247relevant_x1083L0AP1_x1305L0BP1_

> <ROCS_TanimotoCombo>
0.715 

> <ROCS_ShapeTanimoto>
0.502 

> <ROCS_ColorTanimoto>
0.214 

> <ROCS_RefTversky>
0.415 

> <ROCS_RefColorTversky>
0.236 

> <ROCS_RefTverskyCombo>
0.651 

> <ROCS_FitTversky>
1.718 

> <ROCS_FitColorTversky>
0.693 

> <ROCS_FitTverskyCombo>
2.411 

> <ROCS_ColorScore>
-7.701

> <ROCS_Overlap>
1219.723

> <ROCS_Rank>
391                 

$$$$
untitled-dbase-156464_14
  -OEChem-06232314393D

 39 40  0     1  0  0  0  0  0999 V2000
  -13.4077   16.3671  -40.2927 C   0  0  0  0  0  0  0  0  0  0  0  0
   -9.8655   14.7936  -37.2015 C   0  0  0  0  0  0  0  0  0  0  0  0
  -13.8569   15.3190  -37.5635 C   0  0  0  0  0  0  0  0  0  0  0  0
  -12.0084   13.6980  -38.0196 C   0  0  0  0  0  0  0  0  0  0  0  0
  -12.5096   15.4192  -39.5616 C   0  0  2  0  0  0  0  0  0  0  0  0
  -13.2242   14.4096  -38.6468 C   0  0  2  0  0  0  0  0  0  0  0  0
  -11.7142   16.0257  -38.4044 C   0  0  1  0  0  0  0  0  0  0  0  0
  -12.8246   16.4528  -37.4284 C   0  0  2  0  0  0  0  0  0  0  0  0
  -10.2263   14.5014  -34.6238 C   0  0  0  0  0  0  0  0  0  0  0  0
   -9.8059   12.0393  -34.8896 C   0  0  0  0  0  0  0  0  0  0  0  0
   -7.8880   13.6561  -35.0142 C   0  0  0  0  0  0  0  0  0  0  0  0
  -13.3905   18.2694  -41.6944 C   0  0  0  0  0  0  0  0  0  0  0  0
   -9.3706   13.4402  -35.3141 C   0  0  0  0  0  0  0  0  0  0  0  0
  -11.0888   14.8229  -37.8370 N   0  0  0  0  0  0  0  0  0  0  0  0
  -14.6292   16.2967  -40.2859 O   0  0  0  0  0  0  0  0  0  0  0  0
   -9.1283   15.7681  -37.0738 O   0  0  0  0  0  0  0  0  0  0  0  0
  -12.6541   17.2948  -40.9488 O   0  0  0  0  0  0  0  0  0  0  0  0
   -9.5694   13.5437  -36.7284 O   0  0  0  0  0  0  0  0  0  0  0  0
  -12.3519   16.5267  -36.1630 F   0  0  0  0  0  0  0  0  0  0  0  0
  -14.8135   15.7202  -37.9161 H   0  0  0  0  0  0  0  0  0  0  0  0
  -14.0275   14.7941  -36.6186 H   0  0  0  0  0  0  0  0  0  0  0  0
  -12.2192   13.2148  -37.0612 H   0  0  0  0  0  0  0  0  0  0  0  0
  -11.5450   12.9795  -38.7036 H   0  0  0  0  0  0  0  0  0  0  0  0
  -11.8654   14.9321  -40.3037 H   0  0  0  0  0  0  0  0  0  0  0  0
  -13.9364   13.7395  -39.1322 H   0  0  0  0  0  0  0  0  0  0  0  0
  -10.9925   16.8110  -38.6376 H   0  0  0  0  0  0  0  0  0  0  0  0
  -13.2590   17.4228  -37.6905 H   0  0  0  0  0  0  0  0  0  0  0  0
   -9.9169   15.5084  -34.9259 H   0  0  0  0  0  0  0  0  0  0  0  0
  -11.2885   14.3787  -34.8591 H   0  0  0  0  0  0  0  0  0  0  0  0
  -10.1051   14.4542  -33.5356 H   0  0  0  0  0  0  0  0  0  0  0  0
   -9.1946   11.2747  -35.3824 H   0  0  0  0  0  0  0  0  0  0  0  0
  -10.8425   11.8454  -35.1882 H   0  0  0  0  0  0  0  0  0  0  0  0
   -9.7257   11.9021  -33.8064 H   0  0  0  0  0  0  0  0  0  0  0  0
   -7.2740   12.8950  -35.5092 H   0  0  0  0  0  0  0  0  0  0  0  0
   -7.5489   14.6429  -35.3458 H   0  0  0  0  0  0  0  0  0  0  0  0
   -7.6900   13.5626  -33.9402 H   0  0  0  0  0  0  0  0  0  0  0  0
  -12.6957   18.9604  -42.1782 H   0  0  0  0  0  0  0  0  0  0  0  0
  -14.0566   18.8165  -41.0225 H   0  0  0  0  0  0  0  0  0  0  0  0
  -13.9839   17.7595  -42.4570 H   0  0  0  0  0  0  0  0  0  0  0  0
  1  5  1  6  0  0  0
  1 15  2  0  0  0  0
  1 17  1  0  0  0  0
  2 14  1  0  0  0  0
  2 16  2  0  0  0  0
  2 18  1  0  0  0  0
  3  6  1  6  0  0  0
  3  8  1  0  0  0  0
  4  6  1  0  0  0  0
  4 14  1  0  0  0  0
  5  6  1  0  0  0  0
  5  7  1  0  0  0  0
  7  8  1  0  0  0  0
  7 14  1  6  0  0  0
  8 19  1  6  0  0  0
  9 13  1  0  0  0  0
 10 13  1  0  0  0  0
 11 13  1  0  0  0  0
 12 17  1  0  0  0  0
 13 18  1  0  0  0  0
  3 20  1  0  0  0  0
  3 21  1  0  0  0  0
  4 22  1  0  0  0  0
  4 23  1  0  0  0  0
  5 24  1  0  0  0  0
  6 25  1  0  0  0  0
  7 26  1  0  0  0  0
  8 27  1  0  0  0  0
  9 28  1  0  0  0  0
  9 29  1  0  0  0  0
  9 30  1  0  0  0  0
 10 31  1  0  0  0  0
 10 32  1  0  0  0  0
 10 33  1  0  0  0  0
 11 34  1  0  0  0  0
 11 35  1  0  0  0  0
 11 36  1  0  0  0  0
 12 37  1  0  0  0  0
 12 38  1  0  0  0  0
 12 39  1  0  0  0  0
M  END
> <id>
EN300-27742423

> <smiles>
COC(=O)[C@@H]1[C@@H]2C[C@@H](F)[C@H]1N(C2)C(=O)OC(C)(C)C |&1:4,5,7,9,r|

> <IUPAC Name>
rac-2-tert-butyl 7-methyl (1R,4R,6S,7S)-6-fluoro-2-azabicyclo[2.2.1]heptane-2,7-dicarboxylate

> <CAS>
2679826-21-0

> <URL>
https://www.enaminestore.com/catalog/EN300-27742423

> <ROCS_ShapeQuery>
__x1247relevant_x1083L0AP1_x1305L0BP1_

> <ROCS_TanimotoCombo>
0.715 

> <ROCS_ShapeTanimoto>
0.514 

> <ROCS_ColorTanimoto>
0.201 

> <ROCS_RefTversky>
0.451 

> <ROCS_RefColorTversky>
0.222 

> <ROCS_RefTverskyCombo>
0.673 

> <ROCS_FitTversky>
1.377 

> <ROCS_FitColorTversky>
0.684 

> <ROCS_FitTverskyCombo>
2.061 

> <ROCS_ColorScore>
-7.243

> <ROCS_Overlap>
1330.976

> <ROCS_Rank>
392                 

$$$$
untitled-dbase-53310_20
  -OEChem-06232314393D

 38 40  0     1  0  0  0  0  0999 V2000
  -14.3242   16.0297  -37.9534 C   0  0  0  0  0  0  0  0  0  0  0  0
  -13.4052   16.9100  -38.8014 C   0  0  0  0  0  0  0  0  0  0  0  0
   -9.0327   15.1656  -36.7529 C   0  0  0  0  0  0  0  0  0  0  0  0
  -12.7460   14.1252  -37.2849 C   0  0  0  0  0  0  0  0  0  0  0  0
  -11.2041   15.6010  -38.7015 C   0  0  0  0  0  0  0  0  0  0  0  0
   -9.1894   15.9660  -35.4742 C   0  0  0  0  0  0  0  0  0  0  0  0
  -10.4183   13.9922  -35.2623 C   0  0  0  0  0  0  0  0  0  0  0  0
  -13.8617   14.5990  -38.2434 C   0  0  2  0  0  0  0  0  0  0  0  0
  -12.4780   15.9225  -39.5156 C   0  0  1  0  0  0  0  0  0  0  0  0
  -10.2730   14.2855  -36.7522 C   0  0  1  0  0  0  0  0  0  0  0  0
  -11.4943   15.0342  -37.2926 C   0  0  0  0  0  0  0  0  0  0  0  0
  -14.2418   14.6720  -40.6576 C   0  0  0  0  0  0  0  0  0  0  0  0
  -13.2519   14.6700  -39.5834 N   0  0  0  0  0  0  0  0  0  0  0  0
  -10.0840   13.0762  -37.5456 N   0  0  0  0  0  0  0  0  0  0  0  0
   -9.9516   15.1594  -34.5647 O   0  0  0  0  0  0  0  0  0  0  0  0
  -11.7155   16.1416  -36.4111 O   0  0  0  0  0  0  0  0  0  0  0  0
  -14.2815   16.2867  -36.8907 H   0  0  0  0  0  0  0  0  0  0  0  0
  -15.3621   16.1708  -38.2785 H   0  0  0  0  0  0  0  0  0  0  0  0
  -14.0071   17.4676  -39.5291 H   0  0  0  0  0  0  0  0  0  0  0  0
  -12.8636   17.6455  -38.1987 H   0  0  0  0  0  0  0  0  0  0  0  0
   -9.0536   15.8490  -37.6112 H   0  0  0  0  0  0  0  0  0  0  0  0
   -8.0853   14.6189  -36.7928 H   0  0  0  0  0  0  0  0  0  0  0  0
  -13.1552   14.0624  -36.2686 H   0  0  0  0  0  0  0  0  0  0  0  0
  -12.4603   13.1061  -37.5798 H   0  0  0  0  0  0  0  0  0  0  0  0
  -10.6156   14.8710  -39.2738 H   0  0  0  0  0  0  0  0  0  0  0  0
  -10.5956   16.5110  -38.6241 H   0  0  0  0  0  0  0  0  0  0  0  0
   -8.2194   16.1742  -35.0082 H   0  0  0  0  0  0  0  0  0  0  0  0
   -9.7035   16.9184  -35.6387 H   0  0  0  0  0  0  0  0  0  0  0  0
  -11.4659   13.8446  -34.9797 H   0  0  0  0  0  0  0  0  0  0  0  0
   -9.8535   13.1184  -34.9246 H   0  0  0  0  0  0  0  0  0  0  0  0
  -14.6924   13.8855  -38.1937 H   0  0  0  0  0  0  0  0  0  0  0  0
  -12.1789   16.2888  -40.5042 H   0  0  0  0  0  0  0  0  0  0  0  0
  -13.7290   14.7261  -41.6293 H   0  0  0  0  0  0  0  0  0  0  0  0
  -14.8378   13.7487  -40.6086 H   0  0  0  0  0  0  0  0  0  0  0  0
  -14.9044   15.5426  -40.5438 H   0  0  0  0  0  0  0  0  0  0  0  0
   -9.8825   13.3515  -38.4753 H   0  0  0  0  0  0  0  0  0  0  0  0
   -9.3286   12.5708  -37.1524 H   0  0  0  0  0  0  0  0  0  0  0  0
  -11.8684   15.7612  -35.5346 H   0  0  0  0  0  0  0  0  0  0  0  0
  1  2  1  0  0  0  0
  1  8  1  0  0  0  0
  2  9  1  0  0  0  0
  3  6  1  0  0  0  0
  3 10  1  0  0  0  0
  4  8  1  0  0  0  0
  4 11  1  0  0  0  0
  5  9  1  0  0  0  0
  5 11  1  0  0  0  0
  6 15  1  0  0  0  0
  7 10  1  0  0  0  0
  7 15  1  0  0  0  0
  8 13  1  0  0  0  0
  9 13  1  0  0  0  0
 10 11  1  0  0  0  0
 10 14  1  0  0  0  0
 11 16  1  0  0  0  0
 12 13  1  0  0  0  0
  1 17  1  0  0  0  0
  1 18  1  0  0  0  0
  2 19  1  0  0  0  0
  2 20  1  0  0  0  0
  3 21  1  0  0  0  0
  3 22  1  0  0  0  0
  4 23  1  0  0  0  0
  4 24  1  0  0  0  0
  5 25  1  0  0  0  0
  5 26  1  0  0  0  0
  6 27  1  0  0  0  0
  6 28  1  0  0  0  0
  7 29  1  0  0  0  0
  7 30  1  0  0  0  0
  8 31  1  0  0  0  0
  9 32  1  0  0  0  0
 12 33  1  0  0  0  0
 12 34  1  0  0  0  0
 12 35  1  0  0  0  0
 14 36  1  0  0  0  0
 14 37  1  0  0  0  0
 16 38  1  0  0  0  0
M  END
> <id>
EN300-1642781

> <smiles>
CN1C2CCC1CC(O)(C2)C3(N)CCOC3

> <IUPAC Name>
3-(3-aminooxolan-3-yl)-8-methyl-8-azabicyclo[3.2.1]octan-3-ol

> <CAS>
2171766-19-9

> <URL>
https://www.enaminestore.com/catalog/EN300-1642781

> <ROCS_ShapeQuery>
__x1247relevant_x1083L0AP1_x1305L0BP1_

> <ROCS_TanimotoCombo>
0.715 

> <ROCS_ShapeTanimoto>
0.528 

> <ROCS_ColorTanimoto>
0.187 

> <ROCS_RefTversky>
0.444 

> <ROCS_RefColorTversky>
0.224 

> <ROCS_RefTverskyCombo>
0.668 

> <ROCS_FitTversky>
1.562 

> <ROCS_FitColorTversky>
0.530 

> <ROCS_FitTverskyCombo>
2.092 

> <ROCS_ColorScore>
-7.339

> <ROCS_Overlap>
1308.750

> <ROCS_Rank>
393                 

$$$$
untitled-dbase-95807_115
  -OEChem-06232314393D

 38 39  0     1  0  0  0  0  0999 V2000
  -13.1388   16.5650  -40.4036 C   0  0  0  0  0  0  0  0  0  0  0  0
   -9.8950   15.2035  -36.8489 C   0  0  0  0  0  0  0  0  0  0  0  0
  -13.3986   15.4544  -36.7216 C   0  0  0  0  0  0  0  0  0  0  0  0
  -13.7506   16.2572  -37.9857 C   0  0  0  0  0  0  0  0  0  0  0  0
  -12.7515   13.5709  -38.2289 C   0  0  0  0  0  0  0  0  0  0  0  0
  -11.3629   16.0061  -38.7328 C   0  0  0  0  0  0  0  0  0  0  0  0
  -12.2793   14.4542  -37.0584 C   0  0  1  0  0  0  0  0  0  0  0  0
  -12.8334   15.8169  -39.1439 C   0  0  2  0  0  0  0  0  0  0  0  0
   -7.5832   13.8721  -35.8200 C   0  0  0  0  0  0  0  0  0  0  0  0
   -9.1961   12.5371  -34.4324 C   0  0  0  0  0  0  0  0  0  0  0  0
   -9.2937   12.4032  -36.9386 C   0  0  0  0  0  0  0  0  0  0  0  0
   -8.9988   13.3027  -35.7390 C   0  0  0  0  0  0  0  0  0  0  0  0
  -13.0620   14.3855  -39.4217 N   0  0  0  0  0  0  0  0  0  0  0  0
  -11.1123   15.2223  -37.5197 N   0  0  0  0  0  0  0  0  0  0  0  0
  -12.3475   17.2726  -41.0089 O   0  0  0  0  0  0  0  0  0  0  0  0
   -8.9005   15.8369  -37.1952 O   0  0  0  0  0  0  0  0  0  0  0  0
  -14.4218   16.3541  -40.7866 O   0  0  0  0  0  0  0  0  0  0  0  0
   -9.9290   14.3914  -35.7459 O   0  0  0  0  0  0  0  0  0  0  0  0
  -13.0813   16.1305  -35.9187 H   0  0  0  0  0  0  0  0  0  0  0  0
  -14.2869   14.9245  -36.3582 H   0  0  0  0  0  0  0  0  0  0  0  0
  -14.8077   16.1062  -38.2408 H   0  0  0  0  0  0  0  0  0  0  0  0
  -13.6362   17.3307  -37.7888 H   0  0  0  0  0  0  0  0  0  0  0  0
  -11.9768   12.8365  -38.4801 H   0  0  0  0  0  0  0  0  0  0  0  0
  -13.6479   13.0089  -37.9443 H   0  0  0  0  0  0  0  0  0  0  0  0
  -10.6657   15.6728  -39.5118 H   0  0  0  0  0  0  0  0  0  0  0  0
  -11.1348   17.0578  -38.5210 H   0  0  0  0  0  0  0  0  0  0  0  0
  -12.0255   13.8460  -36.1847 H   0  0  0  0  0  0  0  0  0  0  0  0
   -7.4375   14.4224  -36.7565 H   0  0  0  0  0  0  0  0  0  0  0  0
   -7.3712   14.5465  -34.9839 H   0  0  0  0  0  0  0  0  0  0  0  0
   -6.8376   13.0688  -35.8144 H   0  0  0  0  0  0  0  0  0  0  0  0
  -10.2105   12.1268  -34.3701 H   0  0  0  0  0  0  0  0  0  0  0  0
   -9.0785   13.2019  -33.5690 H   0  0  0  0  0  0  0  0  0  0  0  0
   -8.4821   11.7129  -34.3353 H   0  0  0  0  0  0  0  0  0  0  0  0
  -10.3091   11.9946  -36.8807 H   0  0  0  0  0  0  0  0  0  0  0  0
   -9.1930   12.9460  -37.8840 H   0  0  0  0  0  0  0  0  0  0  0  0
   -8.6148   11.5430  -36.9568 H   0  0  0  0  0  0  0  0  0  0  0  0
  -12.4617   14.0837  -40.1897 H   0  0  0  0  0  0  0  0  0  0  0  0
  -14.6424   16.8383  -41.6107 H   0  0  0  0  0  0  0  0  0  0  0  0
  1  8  1  0  0  0  0
  1 15  2  0  0  0  0
  1 17  1  0  0  0  0
  2 14  1  0  0  0  0
  2 16  2  0  0  0  0
  2 18  1  0  0  0  0
  3  4  1  0  0  0  0
  3  7  1  0  0  0  0
  4  8  1  0  0  0  0
  5  7  1  0  0  0  0
  5 13  1  0  0  0  0
  6  8  1  0  0  0  0
  6 14  1  0  0  0  0
  7 14  1  0  0  0  0
  8 13  1  0  0  0  0
  9 12  1  0  0  0  0
 10 12  1  0  0  0  0
 11 12  1  0  0  0  0
 12 18  1  0  0  0  0
  3 19  1  0  0  0  0
  3 20  1  0  0  0  0
  4 21  1  0  0  0  0
  4 22  1  0  0  0  0
  5 23  1  0  0  0  0
  5 24  1  0  0  0  0
  6 25  1  0  0  0  0
  6 26  1  0  0  0  0
  7 27  1  0  0  0  0
  9 28  1  0  0  0  0
  9 29  1  0  0  0  0
  9 30  1  0  0  0  0
 10 31  1  0  0  0  0
 10 32  1  0  0  0  0
 10 33  1  0  0  0  0
 11 34  1  0  0  0  0
 11 35  1  0  0  0  0
 11 36  1  0  0  0  0
 13 37  1  0  0  0  0
 17 38  1  0  0  0  0
M  END
> <id>
EN300-7434402

> <smiles>
CC(C)(C)OC(=O)N1CC2(CCC1CN2)C(=O)O

> <MDLNUMBER>
MFCD32199977

> <IUPAC Name>
5-[(tert-butoxy)carbonyl]-2,5-diazabicyclo[2.2.2]octane-1-carboxylic acid

> <CAS>
1779427-66-5

> <Purity>
95

> <URL>
https://www.enaminestore.com/catalog/EN300-7434402

> <ROCS_ShapeQuery>
__x1247relevant_x1083L0AP1_x1305L0BP1_

> <ROCS_TanimotoCombo>
0.715 

> <ROCS_ShapeTanimoto>
0.523 

> <ROCS_ColorTanimoto>
0.192 

> <ROCS_RefTversky>
0.451 

> <ROCS_RefColorTversky>
0.230 

> <ROCS_RefTverskyCombo>
0.681 

> <ROCS_FitTversky>
1.444 

> <ROCS_FitColorTversky>
0.535 

> <ROCS_FitTverskyCombo>
1.979 

> <ROCS_ColorScore>
-7.549

> <ROCS_Overlap>
1330.418

> <ROCS_Rank>
394                 

$$$$
untitled-dbase-143268_0
  -OEChem-06232314393D

 31 33  0     1  0  0  0  0  0999 V2000
   -9.9658   15.5121  -36.4753 C   0  0  0  0  0  0  0  0  0  0  0  0
  -13.2292   16.6658  -39.0516 C   0  0  0  0  0  0  0  0  0  0  0  0
  -12.6158   14.3279  -39.7134 C   0  0  0  0  0  0  0  0  0  0  0  0
  -14.0449   14.7218  -37.6941 C   0  0  0  0  0  0  0  0  0  0  0  0
  -10.8667   15.8722  -38.7834 C   0  0  0  0  0  0  0  0  0  0  0  0
  -12.2944   16.2628  -36.7610 C   0  0  0  0  0  0  0  0  0  0  0  0
  -12.1261   15.7849  -39.6626 C   0  0  2  0  0  0  0  0  0  0  0  0
  -13.5619   16.1817  -37.6303 C   0  0  1  0  0  0  0  0  0  0  0  0
  -12.9446   13.8251  -38.2932 C   0  0  0  0  0  0  0  0  0  0  0  0
  -11.6938   13.9100  -37.3897 C   0  0  2  0  0  0  0  0  0  0  0  0
  -11.1785   15.3719  -37.3560 C   0  0  0  0  0  0  0  0  0  0  0  0
  -10.6696   12.9729  -37.8675 N   0  0  0  0  0  0  0  0  0  0  0  0
   -8.8859   15.9577  -36.8338 O   0  0  0  0  0  0  0  0  0  0  0  0
  -10.2316   15.0722  -35.2211 O   0  0  0  0  0  0  0  0  0  0  0  0
  -12.9013   17.7122  -39.0242 H   0  0  0  0  0  0  0  0  0  0  0  0
  -14.1279   16.6303  -39.6796 H   0  0  0  0  0  0  0  0  0  0  0  0
  -13.5105   14.2603  -40.3451 H   0  0  0  0  0  0  0  0  0  0  0  0
  -11.8564   13.6924  -40.1838 H   0  0  0  0  0  0  0  0  0  0  0  0
  -14.3084   14.3706  -36.6887 H   0  0  0  0  0  0  0  0  0  0  0  0
  -14.9552   14.6552  -38.3027 H   0  0  0  0  0  0  0  0  0  0  0  0
  -10.0540   15.2869  -39.2320 H   0  0  0  0  0  0  0  0  0  0  0  0
  -10.5081   16.9098  -38.7543 H   0  0  0  0  0  0  0  0  0  0  0  0
  -11.9563   17.3054  -36.6918 H   0  0  0  0  0  0  0  0  0  0  0  0
  -12.5270   15.9492  -35.7345 H   0  0  0  0  0  0  0  0  0  0  0  0
  -11.8950   16.1333  -40.6754 H   0  0  0  0  0  0  0  0  0  0  0  0
  -14.3473   16.8123  -37.1991 H   0  0  0  0  0  0  0  0  0  0  0  0
  -13.3117   12.7928  -38.3441 H   0  0  0  0  0  0  0  0  0  0  0  0
  -11.9639   13.5940  -36.3730 H   0  0  0  0  0  0  0  0  0  0  0  0
   -9.8966   13.0290  -37.2514 H   0  0  0  0  0  0  0  0  0  0  0  0
  -11.0645   12.0649  -37.8621 H   0  0  0  0  0  0  0  0  0  0  0  0
   -9.4520   15.1536  -34.6314 H   0  0  0  0  0  0  0  0  0  0  0  0
  1 11  1  0  0  0  0
  1 13  2  0  0  0  0
  1 14  1  0  0  0  0
  2  7  1  0  0  0  0
  2  8  1  0  0  0  0
  3  7  1  0  0  0  0
  3  9  1  0  0  0  0
  4  8  1  0  0  0  0
  4  9  1  0  0  0  0
  5  7  1  0  0  0  0
  5 11  1  0  0  0  0
  6  8  1  0  0  0  0
  6 11  1  0  0  0  0
  9 10  1  0  0  0  0
 10 11  1  0  0  0  0
 10 12  1  0  0  0  0
  2 15  1  0  0  0  0
  2 16  1  0  0  0  0
  3 17  1  0  0  0  0
  3 18  1  0  0  0  0
  4 19  1  0  0  0  0
  4 20  1  0  0  0  0
  5 21  1  0  0  0  0
  5 22  1  0  0  0  0
  6 23  1  0  0  0  0
  6 24  1  0  0  0  0
  7 25  1  0  0  0  0
  8 26  1  0  0  0  0
  9 27  1  0  0  0  0
 10 28  1  0  0  0  0
 12 29  1  0  0  0  0
 12 30  1  0  0  0  0
 14 31  1  0  0  0  0
M  END
> <id>
EN300-8636960

> <smiles>
NC1C2CC3CC(C2)CC1(C3)C(=O)O

> <IUPAC Name>
2-aminoadamantane-1-carboxylic acid

> <CAS>
68312-88-9

> <URL>
https://www.enaminestore.com/catalog/EN300-8636960

> <ROCS_ShapeQuery>
__x1247relevant_x1083L0AP1_x1305L0BP1_

> <ROCS_TanimotoCombo>
0.715 

> <ROCS_ShapeTanimoto>
0.486 

> <ROCS_ColorTanimoto>
0.229 

> <ROCS_RefTversky>
0.411 

> <ROCS_RefColorTversky>
0.258 

> <ROCS_RefTverskyCombo>
0.669 

> <ROCS_FitTversky>
1.602 

> <ROCS_FitColorTversky>
0.670 

> <ROCS_FitTverskyCombo>
2.272 

> <ROCS_ColorScore>
-8.442

> <ROCS_Overlap>
1209.649

> <ROCS_Rank>
395                 

$$$$
untitled-dbase-108811_11
  -OEChem-06232314393D

 35 37  0     1  0  0  0  0  0999 V2000
   -9.0605   16.2467  -36.6096 C   0  0  0  0  0  0  0  0  0  0  0  0
  -14.4574   15.7067  -37.5075 C   0  0  0  0  0  0  0  0  0  0  0  0
  -14.5014   14.3780  -38.2982 C   0  0  0  0  0  0  0  0  0  0  0  0
   -9.5030   14.9789  -35.8456 C   0  0  0  0  0  0  0  0  0  0  0  0
   -9.1034   15.4083  -37.9066 C   0  0  0  0  0  0  0  0  0  0  0  0
  -11.9435   16.1753  -37.4011 C   0  0  0  0  0  0  0  0  0  0  0  0
  -12.0202   13.9364  -38.7384 C   0  0  0  0  0  0  0  0  0  0  0  0
  -13.2909   16.5541  -38.0460 C   0  0  1  0  0  0  0  0  0  0  0  0
  -13.3650   14.3923  -39.3362 C   0  0  2  0  0  0  0  0  0  0  0  0
  -10.0999   14.4671  -37.1819 C   0  0  0  0  0  0  0  0  0  0  0  0
  -11.6008   14.6626  -37.4321 C   0  0  0  0  0  0  0  0  0  0  0  0
   -9.6593   13.0876  -37.3838 N   0  0  0  0  0  0  0  0  0  0  0  0
  -11.9514   16.4178  -40.3524 O   0  0  0  0  0  0  0  0  0  0  0  0
  -14.4771   16.5415  -40.4148 O   0  0  0  0  0  0  0  0  0  0  0  0
  -12.2711   14.0453  -36.3243 O   0  0  0  0  0  0  0  0  0  0  0  0
  -13.2458   16.1199  -39.7793 S   0  0  0  0  0  0  0  0  0  0  0  0
   -9.7965   17.0584  -36.5835 H   0  0  0  0  0  0  0  0  0  0  0  0
   -8.0811   16.6475  -36.3363 H   0  0  0  0  0  0  0  0  0  0  0  0
  -15.4019   16.2399  -37.6758 H   0  0  0  0  0  0  0  0  0  0  0  0
  -14.3869   15.5401  -36.4279 H   0  0  0  0  0  0  0  0  0  0  0  0
  -14.4508   13.5055  -37.6391 H   0  0  0  0  0  0  0  0  0  0  0  0
  -15.4663   14.3169  -38.8176 H   0  0  0  0  0  0  0  0  0  0  0  0
   -8.6558   14.4085  -35.4445 H   0  0  0  0  0  0  0  0  0  0  0  0
  -10.2163   15.1532  -35.0345 H   0  0  0  0  0  0  0  0  0  0  0  0
   -9.4899   15.9346  -38.7845 H   0  0  0  0  0  0  0  0  0  0  0  0
   -8.1289   14.9744  -38.1639 H   0  0  0  0  0  0  0  0  0  0  0  0
  -11.1487   16.7430  -37.9017 H   0  0  0  0  0  0  0  0  0  0  0  0
  -11.9549   16.5189  -36.3582 H   0  0  0  0  0  0  0  0  0  0  0  0
  -12.0779   12.8564  -38.5498 H   0  0  0  0  0  0  0  0  0  0  0  0
  -11.2399   14.0707  -39.4987 H   0  0  0  0  0  0  0  0  0  0  0  0
  -13.4837   17.6262  -37.9521 H   0  0  0  0  0  0  0  0  0  0  0  0
  -13.6151   13.8122  -40.2286 H   0  0  0  0  0  0  0  0  0  0  0  0
  -10.4650   12.5119  -37.4352 H   0  0  0  0  0  0  0  0  0  0  0  0
   -9.1443   13.0506  -38.2302 H   0  0  0  0  0  0  0  0  0  0  0  0
  -12.0451   13.1046  -36.3613 H   0  0  0  0  0  0  0  0  0  0  0  0
  1  4  1  0  0  0  0
  1  5  1  0  0  0  0
  2  3  1  0  0  0  0
  2  8  1  0  0  0  0
  3  9  1  0  0  0  0
  4 10  1  0  0  0  0
  5 10  1  0  0  0  0
  6  8  1  0  0  0  0
  6 11  1  0  0  0  0
  7  9  1  0  0  0  0
  7 11  1  0  0  0  0
  8 16  1  0  0  0  0
  9 16  1  0  0  0  0
 10 11  1  0  0  0  0
 10 12  1  0  0  0  0
 11 15  1  0  0  0  0
 13 16  2  0  0  0  0
 14 16  2  0  0  0  0
  1 17  1  0  0  0  0
  1 18  1  0  0  0  0
  2 19  1  0  0  0  0
  2 20  1  0  0  0  0
  3 21  1  0  0  0  0
  3 22  1  0  0  0  0
  4 23  1  0  0  0  0
  4 24  1  0  0  0  0
  5 25  1  0  0  0  0
  5 26  1  0  0  0  0
  6 27  1  0  0  0  0
  6 28  1  0  0  0  0
  7 29  1  0  0  0  0
  7 30  1  0  0  0  0
  8 31  1  0  0  0  0
  9 32  1  0  0  0  0
 12 33  1  0  0  0  0
 12 34  1  0  0  0  0
 15 35  1  0  0  0  0
M  END
> <id>
EN300-1647517

> <smiles>
NC1(CCC1)C2(O)CC3CCC(C2)S3(=O)=O

> <IUPAC Name>
3-(1-aminocyclobutyl)-3-hydroxy-8lambda6-thiabicyclo[3.2.1]octane-8,8-dione

> <CAS>
2171753-92-5

> <URL>
https://www.enaminestore.com/catalog/EN300-1647517

> <ROCS_ShapeQuery>
__x1247relevant_x1083L0AP1_x1305L0BP1_

> <ROCS_TanimotoCombo>
0.715 

> <ROCS_ShapeTanimoto>
0.522 

> <ROCS_ColorTanimoto>
0.193 

> <ROCS_RefTversky>
0.437 

> <ROCS_RefColorTversky>
0.230 

> <ROCS_RefTverskyCombo>
0.667 

> <ROCS_FitTversky>
1.591 

> <ROCS_FitColorTversky>
0.548 

> <ROCS_FitTverskyCombo>
2.139 

> <ROCS_ColorScore>
-7.530

> <ROCS_Overlap>
1287.847

> <ROCS_Rank>
396                 

$$$$
untitled-dbase-30660_80
  -OEChem-06232314393D

 36 37  0     1  0  0  0  0  0999 V2000
  -13.1358   16.6649  -40.2743 C   0  0  0  0  0  0  0  0  0  0  0  0
  -10.3985   14.7213  -36.7616 C   0  0  0  0  0  0  0  0  0  0  0  0
  -13.5927   14.0004  -37.8380 C   0  0  0  0  0  0  0  0  0  0  0  0
  -12.7635   13.9177  -39.1450 C   0  0  0  0  0  0  0  0  0  0  0  0
  -13.2171   16.4647  -37.7353 C   0  0  0  0  0  0  0  0  0  0  0  0
  -12.3525   16.4196  -39.0244 C   0  0  1  0  0  0  0  0  0  0  0  0
  -12.8821   15.1198  -37.0596 C   0  0  2  0  0  0  0  0  0  0  0  0
  -11.7053   15.0216  -38.9504 C   0  0  1  0  0  0  0  0  0  0  0  0
   -7.7770   15.4331  -35.8768 C   0  0  0  0  0  0  0  0  0  0  0  0
   -7.1023   15.2020  -38.2852 C   0  0  0  0  0  0  0  0  0  0  0  0
   -8.7968   16.9330  -37.6217 C   0  0  0  0  0  0  0  0  0  0  0  0
   -8.2434   15.5394  -37.3280 C   0  0  0  0  0  0  0  0  0  0  0  0
  -11.5235   14.9274  -37.5145 N   0  0  0  0  0  0  0  0  0  0  0  0
  -12.6908   17.1716  -41.2934 O   0  0  0  0  0  0  0  0  0  0  0  0
  -10.3885   14.6691  -35.5344 O   0  0  0  0  0  0  0  0  0  0  0  0
  -14.4174   16.2494  -40.1253 O   0  0  0  0  0  0  0  0  0  0  0  0
   -9.2848   14.5806  -37.5433 O   0  0  0  0  0  0  0  0  0  0  0  0
  -14.6455   14.2234  -38.0377 H   0  0  0  0  0  0  0  0  0  0  0  0
  -13.5346   13.0478  -37.2996 H   0  0  0  0  0  0  0  0  0  0  0  0
  -12.2850   12.9336  -39.2151 H   0  0  0  0  0  0  0  0  0  0  0  0
  -13.3872   14.0541  -40.0326 H   0  0  0  0  0  0  0  0  0  0  0  0
  -12.8884   17.2984  -37.1036 H   0  0  0  0  0  0  0  0  0  0  0  0
  -14.2879   16.5819  -37.9313 H   0  0  0  0  0  0  0  0  0  0  0  0
  -11.5797   17.1963  -38.9687 H   0  0  0  0  0  0  0  0  0  0  0  0
  -13.0204   15.0955  -35.9771 H   0  0  0  0  0  0  0  0  0  0  0  0
  -10.7991   14.8993  -39.5467 H   0  0  0  0  0  0  0  0  0  0  0  0
   -8.5932   15.6745  -35.1865 H   0  0  0  0  0  0  0  0  0  0  0  0
   -7.4102   14.4282  -35.6435 H   0  0  0  0  0  0  0  0  0  0  0  0
   -6.9750   16.1509  -35.6702 H   0  0  0  0  0  0  0  0  0  0  0  0
   -7.4324   15.2770  -39.3276 H   0  0  0  0  0  0  0  0  0  0  0  0
   -6.7651   14.1690  -38.1418 H   0  0  0  0  0  0  0  0  0  0  0  0
   -6.2458   15.8691  -38.1439 H   0  0  0  0  0  0  0  0  0  0  0  0
   -9.1313   17.0096  -38.6626 H   0  0  0  0  0  0  0  0  0  0  0  0
   -9.6407   17.1778  -36.9686 H   0  0  0  0  0  0  0  0  0  0  0  0
   -8.0213   17.6961  -37.4893 H   0  0  0  0  0  0  0  0  0  0  0  0
  -14.9490   16.4037  -40.9352 H   0  0  0  0  0  0  0  0  0  0  0  0
  1  6  1  6  0  0  0
  1 14  2  0  0  0  0
  1 16  1  0  0  0  0
  2 13  1  0  0  0  0
  2 15  2  0  0  0  0
  2 17  1  0  0  0  0
  3  4  1  0  0  0  0
  3  7  1  6  0  0  0
  4  8  1  6  0  0  0
  5  6  1  0  0  0  0
  5  7  1  0  0  0  0
  6  8  1  0  0  0  0
  7 13  1  0  0  0  0
  8 13  1  0  0  0  0
  9 12  1  0  0  0  0
 10 12  1  0  0  0  0
 11 12  1  0  0  0  0
 12 17  1  0  0  0  0
  3 18  1  0  0  0  0
  3 19  1  0  0  0  0
  4 20  1  0  0  0  0
  4 21  1  0  0  0  0
  5 22  1  0  0  0  0
  5 23  1  0  0  0  0
  6 24  1  0  0  0  0
  7 25  1  0  0  0  0
  8 26  1  0  0  0  0
  9 27  1  0  0  0  0
  9 28  1  0  0  0  0
  9 29  1  0  0  0  0
 10 30  1  0  0  0  0
 10 31  1  0  0  0  0
 10 32  1  0  0  0  0
 11 33  1  0  0  0  0
 11 34  1  0  0  0  0
 11 35  1  0  0  0  0
 16 36  1  0  0  0  0
M  END
> <id>
EN300-705963

> <smiles>
CC(C)(C)OC(=O)N1[C@@H]2CC[C@H]1[C@H](C2)C(=O)O |&1:8,11,12,r|

> <IUPAC Name>
rac-(1R,2R,4S)-7-[(tert-butoxy)carbonyl]-7-azabicyclo[2.2.1]heptane-2-carboxylic acid

> <CAS>
711082-67-6

> <Purity>
95

> <URL>
https://www.enaminestore.com/catalog/EN300-705963

> <ROCS_ShapeQuery>
__x1247relevant_x1083L0AP1_x1305L0BP1_

> <ROCS_TanimotoCombo>
0.715 

> <ROCS_ShapeTanimoto>
0.504 

> <ROCS_ColorTanimoto>
0.211 

> <ROCS_RefTversky>
0.435 

> <ROCS_RefColorTversky>
0.241 

> <ROCS_RefTverskyCombo>
0.676 

> <ROCS_FitTversky>
1.461 

> <ROCS_FitColorTversky>
0.631 

> <ROCS_FitTverskyCombo>
2.092 

> <ROCS_ColorScore>
-7.887

> <ROCS_Overlap>
1282.015

> <ROCS_Rank>
397                 

$$$$
untitled-dbase-132108_0
  -OEChem-06232314393D

 40 42  0     1  0  0  0  0  0999 V2000
  -13.3495   14.9981  -39.9374 C   0  0  0  0  0  0  0  0  0  0  0  0
  -14.3134   15.9230  -37.8020 C   0  0  0  0  0  0  0  0  0  0  0  0
  -13.2732   13.8218  -37.6796 C   0  0  0  0  0  0  0  0  0  0  0  0
  -12.1907   16.8515  -38.6697 C   0  0  0  0  0  0  0  0  0  0  0  0
  -10.8960   14.7816  -39.2254 C   0  0  0  0  0  0  0  0  0  0  0  0
  -14.1175   14.6611  -38.6373 C   0  0  2  0  0  0  0  0  0  0  0  0
  -12.0037   15.7418  -39.7115 C   0  0  1  0  0  0  0  0  0  0  0  0
  -12.8635   16.2378  -37.4282 C   0  0  2  0  0  0  0  0  0  0  0  0
  -12.2636   14.8329  -37.0874 C   0  0  2  0  0  0  0  0  0  0  0  0
  -10.8590   14.6596  -37.6890 C   0  0  1  0  0  0  0  0  0  0  0  0
   -8.1246   12.6068  -36.3292 C   0  0  0  0  0  0  0  0  0  0  0  0
   -8.3053   13.1200  -38.7772 C   0  0  0  0  0  0  0  0  0  0  0  0
   -8.3626   14.9797  -37.0959 C   0  0  0  0  0  0  0  0  0  0  0  0
   -8.7665   13.5271  -37.3738 C   0  0  0  0  0  0  0  0  0  0  0  0
  -10.2139   13.4072  -37.2956 N   0  0  0  0  0  0  0  0  0  0  0  0
  -13.1802   14.0825  -40.5165 H   0  0  0  0  0  0  0  0  0  0  0  0
  -13.9934   15.6394  -40.5537 H   0  0  0  0  0  0  0  0  0  0  0  0
  -14.8049   16.7289  -38.3565 H   0  0  0  0  0  0  0  0  0  0  0  0
  -14.9104   15.7146  -36.9057 H   0  0  0  0  0  0  0  0  0  0  0  0
  -13.9087   13.4355  -36.8722 H   0  0  0  0  0  0  0  0  0  0  0  0
  -12.8218   12.9564  -38.1726 H   0  0  0  0  0  0  0  0  0  0  0  0
  -11.2248   17.2989  -38.4052 H   0  0  0  0  0  0  0  0  0  0  0  0
  -12.8053   17.6620  -39.0801 H   0  0  0  0  0  0  0  0  0  0  0  0
  -11.0174   13.8031  -39.7076 H   0  0  0  0  0  0  0  0  0  0  0  0
   -9.9202   15.1577  -39.5612 H   0  0  0  0  0  0  0  0  0  0  0  0
  -15.0685   14.1734  -38.8724 H   0  0  0  0  0  0  0  0  0  0  0  0
  -11.6854   16.1723  -40.6685 H   0  0  0  0  0  0  0  0  0  0  0  0
  -12.8053   16.9297  -36.5822 H   0  0  0  0  0  0  0  0  0  0  0  0
  -12.2238   14.7065  -35.9980 H   0  0  0  0  0  0  0  0  0  0  0  0
  -10.2254   15.4651  -37.2956 H   0  0  0  0  0  0  0  0  0  0  0  0
   -8.4396   12.8784  -35.3149 H   0  0  0  0  0  0  0  0  0  0  0  0
   -8.3992   11.5597  -36.4977 H   0  0  0  0  0  0  0  0  0  0  0  0
   -7.0311   12.6781  -36.3587 H   0  0  0  0  0  0  0  0  0  0  0  0
   -8.7520   13.7651  -39.5428 H   0  0  0  0  0  0  0  0  0  0  0  0
   -8.6026   12.0904  -39.0078 H   0  0  0  0  0  0  0  0  0  0  0  0
   -7.2160   13.1863  -38.8741 H   0  0  0  0  0  0  0  0  0  0  0  0
   -8.8087   15.6611  -37.8296 H   0  0  0  0  0  0  0  0  0  0  0  0
   -8.6848   15.2995  -36.0987 H   0  0  0  0  0  0  0  0  0  0  0  0
   -7.2754   15.1067  -37.1551 H   0  0  0  0  0  0  0  0  0  0  0  0
  -10.4849   13.1828  -36.3407 H   0  0  0  0  0  0  0  0  0  0  0  0
  1  6  1  0  0  0  0
  1  7  1  0  0  0  0
  2  6  1  0  0  0  0
  2  8  1  0  0  0  0
  3  6  1  0  0  0  0
  3  9  1  0  0  0  0
  4  7  1  0  0  0  0
  4  8  1  0  0  0  0
  5  7  1  0  0  0  0
  5 10  1  0  0  0  0
  8  9  1  0  0  0  0
  9 10  1  0  0  0  0
 10 15  1  0  0  0  0
 11 14  1  0  0  0  0
 12 14  1  0  0  0  0
 13 14  1  0  0  0  0
 14 15  1  0  0  0  0
  1 16  1  0  0  0  0
  1 17  1  0  0  0  0
  2 18  1  0  0  0  0
  2 19  1  0  0  0  0
  3 20  1  0  0  0  0
  3 21  1  0  0  0  0
  4 22  1  0  0  0  0
  4 23  1  0  0  0  0
  5 24  1  0  0  0  0
  5 25  1  0  0  0  0
  6 26  1  0  0  0  0
  7 27  1  0  0  0  0
  8 28  1  0  0  0  0
  9 29  1  0  0  0  0
 10 30  1  0  0  0  0
 11 31  1  0  0  0  0
 11 32  1  0  0  0  0
 11 33  1  0  0  0  0
 12 34  1  0  0  0  0
 12 35  1  0  0  0  0
 12 36  1  0  0  0  0
 13 37  1  0  0  0  0
 13 38  1  0  0  0  0
 13 39  1  0  0  0  0
 15 40  1  0  0  0  0
M  END
> <id>
EN300-372246

> <smiles>
CC(C)(C)NC1CC2CC3CC(C2)C1C3

> <MDLNUMBER>
MFCD30730887

> <IUPAC Name>
N-tert-butyltricyclo[4.3.1.0,3,8]decan-4-amine

> <CAS>
2137731-99-6

> <URL>
https://www.enaminestore.com/catalog/EN300-372246

> <ROCS_ShapeQuery>
__x1247relevant_x1083L0AP1_x1305L0BP1_

> <ROCS_TanimotoCombo>
0.715 

> <ROCS_ShapeTanimoto>
0.466 

> <ROCS_ColorTanimoto>
0.249 

> <ROCS_RefTversky>
0.402 

> <ROCS_RefColorTversky>
0.294 

> <ROCS_RefTverskyCombo>
0.696 

> <ROCS_FitTversky>
1.519 

> <ROCS_FitColorTversky>
0.617 

> <ROCS_FitTverskyCombo>
2.136 

> <ROCS_ColorScore>
-9.672

> <ROCS_Overlap>
1184.214

> <ROCS_Rank>
398                 

$$$$
untitled-dbase-49870_4
  -OEChem-06232314393D

 32 34  0     1  0  0  0  0  0999 V2000
  -13.5467   14.0331  -38.2860 C   0  0  0  0  0  0  0  0  0  0  0  0
  -13.0526   16.0382  -36.9517 C   0  0  0  0  0  0  0  0  0  0  0  0
  -13.3243   14.9051  -39.5334 C   0  0  0  0  0  0  0  0  0  0  0  0
  -12.6773   16.8177  -38.2217 C   0  0  0  0  0  0  0  0  0  0  0  0
  -11.0170   15.2099  -38.9283 C   0  0  0  0  0  0  0  0  0  0  0  0
   -9.9935   16.6011  -36.7320 C   0  0  0  0  0  0  0  0  0  0  0  0
   -8.7512   14.9561  -36.8093 C   0  0  0  0  0  0  0  0  0  0  0  0
  -12.6603   14.5590  -37.1362 C   0  0  0  0  0  0  0  0  0  0  0  0
  -11.1666   14.4709  -37.5684 C   0  0  2  0  0  0  0  0  0  0  0  0
  -10.2440   15.1082  -36.5155 C   0  0  0  0  0  0  0  0  0  0  0  0
  -12.2637   15.9146  -39.3169 N   0  0  0  0  0  0  0  0  0  0  0  0
  -10.7285   13.0759  -37.7182 N   0  0  0  0  0  0  0  0  0  0  0  0
   -8.6397   16.3509  -37.1750 O   0  0  0  0  0  0  0  0  0  0  0  0
  -10.6805   14.7268  -35.2032 O   0  0  0  0  0  0  0  0  0  0  0  0
  -14.6026   14.0780  -37.9915 H   0  0  0  0  0  0  0  0  0  0  0  0
  -13.3320   12.9827  -38.5082 H   0  0  0  0  0  0  0  0  0  0  0  0
  -12.5654   16.4759  -36.0742 H   0  0  0  0  0  0  0  0  0  0  0  0
  -14.1328   16.1156  -36.7745 H   0  0  0  0  0  0  0  0  0  0  0  0
  -13.0635   14.2705  -40.3895 H   0  0  0  0  0  0  0  0  0  0  0  0
  -14.2595   15.4059  -39.8138 H   0  0  0  0  0  0  0  0  0  0  0  0
  -13.5289   17.4280  -38.5469 H   0  0  0  0  0  0  0  0  0  0  0  0
  -11.8716   17.5303  -38.0054 H   0  0  0  0  0  0  0  0  0  0  0  0
  -10.1933   15.9351  -38.8946 H   0  0  0  0  0  0  0  0  0  0  0  0
  -10.7470   14.5185  -39.7383 H   0  0  0  0  0  0  0  0  0  0  0  0
  -10.5875   17.0943  -37.5071 H   0  0  0  0  0  0  0  0  0  0  0  0
  -10.0044   17.2119  -35.8239 H   0  0  0  0  0  0  0  0  0  0  0  0
   -8.1273   14.7243  -35.9403 H   0  0  0  0  0  0  0  0  0  0  0  0
   -8.4759   14.2985  -37.6392 H   0  0  0  0  0  0  0  0  0  0  0  0
  -12.8498   14.0001  -36.2127 H   0  0  0  0  0  0  0  0  0  0  0  0
  -11.3013   12.6525  -38.4053 H   0  0  0  0  0  0  0  0  0  0  0  0
   -9.7802   13.0874  -38.0008 H   0  0  0  0  0  0  0  0  0  0  0  0
  -10.7930   13.7666  -35.2279 H   0  0  0  0  0  0  0  0  0  0  0  0
  1  3  1  0  0  0  0
  1  8  1  0  0  0  0
  2  4  1  0  0  0  0
  2  8  1  0  0  0  0
  3 11  1  0  0  0  0
  4 11  1  0  0  0  0
  5  9  1  0  0  0  0
  5 11  1  0  0  0  0
  6 10  1  0  0  0  0
  6 13  1  0  0  0  0
  7 10  1  0  0  0  0
  7 13  1  0  0  0  0
  8  9  1  0  0  0  0
  9 10  1  0  0  0  0
  9 12  1  0  0  0  0
 10 14  1  0  0  0  0
  1 15  1  0  0  0  0
  1 16  1  0  0  0  0
  2 17  1  0  0  0  0
  2 18  1  0  0  0  0
  3 19  1  0  0  0  0
  3 20  1  0  0  0  0
  4 21  1  0  0  0  0
  4 22  1  0  0  0  0
  5 23  1  0  0  0  0
  5 24  1  0  0  0  0
  6 25  1  0  0  0  0
  6 26  1  0  0  0  0
  7 27  1  0  0  0  0
  7 28  1  0  0  0  0
  8 29  1  0  0  0  0
 12 30  1  0  0  0  0
 12 31  1  0  0  0  0
 14 32  1  0  0  0  0
M  END
> <id>
EN300-1642003

> <smiles>
NC1(CN2CCC1CC2)C3(O)COC3

> <IUPAC Name>
3-{3-amino-1-azabicyclo[2.2.2]octan-3-yl}oxetan-3-ol

> <CAS>
2171912-94-8

> <URL>
https://www.enaminestore.com/catalog/EN300-1642003

> <ROCS_ShapeQuery>
__x1247relevant_x1083L0AP1_x1305L0BP1_

> <ROCS_TanimotoCombo>
0.715 

> <ROCS_ShapeTanimoto>
0.492 

> <ROCS_ColorTanimoto>
0.222 

> <ROCS_RefTversky>
0.415 

> <ROCS_RefColorTversky>
0.260 

> <ROCS_RefTverskyCombo>
0.675 

> <ROCS_FitTversky>
1.614 

> <ROCS_FitColorTversky>
0.605 

> <ROCS_FitTverskyCombo>
2.219 

> <ROCS_ColorScore>
-8.538

> <ROCS_Overlap>
1220.638

> <ROCS_Rank>
399                 

$$$$
untitled-dbase-77523_88
  -OEChem-06232314393D

 40 41  0     1  0  0  0  0  0999 V2000
   -9.1325   15.2594  -37.0918 C   0  0  0  0  0  0  0  0  0  0  0  0
  -13.8201   14.4291  -37.8921 C   0  0  0  0  0  0  0  0  0  0  0  0
  -11.5824   14.0969  -38.6163 C   0  0  0  0  0  0  0  0  0  0  0  0
  -13.0226   16.6606  -38.1534 C   0  0  0  0  0  0  0  0  0  0  0  0
  -12.9694   14.4705  -39.1705 C   0  0  2  0  0  0  0  0  0  0  0  0
  -12.9517   15.4658  -37.1753 C   0  0  2  0  0  0  0  0  0  0  0  0
  -11.5709   14.7751  -37.2337 C   0  0  2  0  0  0  0  0  0  0  0  0
  -13.0505   15.9744  -39.5362 C   0  0  2  0  0  0  0  0  0  0  0  0
  -11.9771   16.4898  -40.4857 C   0  0  0  0  0  0  0  0  0  0  0  0
   -8.6110   13.7933  -34.9885 C   0  0  0  0  0  0  0  0  0  0  0  0
   -9.0356   11.7400  -36.3716 C   0  0  0  0  0  0  0  0  0  0  0  0
   -6.9150   13.0471  -36.6918 C   0  0  0  0  0  0  0  0  0  0  0  0
   -8.4017   13.1292  -36.3486 C   0  0  0  0  0  0  0  0  0  0  0  0
  -10.4573   15.6590  -37.0419 N   0  0  0  0  0  0  0  0  0  0  0  0
   -8.1627   15.9932  -36.9317 O   0  0  0  0  0  0  0  0  0  0  0  0
  -14.3206   16.2309  -40.1438 O   0  0  0  0  0  0  0  0  0  0  0  0
   -9.0572   13.9191  -37.3471 O   0  0  0  0  0  0  0  0  0  0  0  0
  -14.8545   14.7565  -38.0389 H   0  0  0  0  0  0  0  0  0  0  0  0
  -13.8173   13.4486  -37.4035 H   0  0  0  0  0  0  0  0  0  0  0  0
  -11.5071   13.0098  -38.4899 H   0  0  0  0  0  0  0  0  0  0  0  0
  -10.7587   14.4010  -39.2675 H   0  0  0  0  0  0  0  0  0  0  0  0
  -13.9416   17.2325  -37.9774 H   0  0  0  0  0  0  0  0  0  0  0  0
  -12.1756   17.3417  -38.0274 H   0  0  0  0  0  0  0  0  0  0  0  0
  -13.3283   13.8024  -39.9572 H   0  0  0  0  0  0  0  0  0  0  0  0
  -13.2710   15.7152  -36.1609 H   0  0  0  0  0  0  0  0  0  0  0  0
  -11.4997   14.0097  -36.4517 H   0  0  0  0  0  0  0  0  0  0  0  0
  -12.0448   15.9714  -41.4425 H   0  0  0  0  0  0  0  0  0  0  0  0
  -10.9883   16.3179  -40.0600 H   0  0  0  0  0  0  0  0  0  0  0  0
  -12.1088   17.5591  -40.6531 H   0  0  0  0  0  0  0  0  0  0  0  0
   -8.1574   14.7907  -34.9679 H   0  0  0  0  0  0  0  0  0  0  0  0
   -9.6744   13.8898  -34.7461 H   0  0  0  0  0  0  0  0  0  0  0  0
   -8.1256   13.2165  -34.1929 H   0  0  0  0  0  0  0  0  0  0  0  0
   -8.8878   11.2598  -37.3456 H   0  0  0  0  0  0  0  0  0  0  0  0
  -10.1192   11.8029  -36.2197 H   0  0  0  0  0  0  0  0  0  0  0  0
   -8.6141   11.0907  -35.5974 H   0  0  0  0  0  0  0  0  0  0  0  0
   -6.7646   12.5708  -37.6674 H   0  0  0  0  0  0  0  0  0  0  0  0
   -6.4514   14.0386  -36.7162 H   0  0  0  0  0  0  0  0  0  0  0  0
   -6.3798   12.4304  -35.9608 H   0  0  0  0  0  0  0  0  0  0  0  0
  -10.6536   16.6428  -36.8574 H   0  0  0  0  0  0  0  0  0  0  0  0
  -14.3028   15.7882  -41.0046 H   0  0  0  0  0  0  0  0  0  0  0  0
  1 14  1  0  0  0  0
  1 15  2  0  0  0  0
  1 17  1  0  0  0  0
  2  5  1  0  0  0  0
  2  6  1  0  0  0  0
  3  5  1  1  0  0  0
  3  7  1  0  0  0  0
  4  6  1  1  0  0  0
  4  8  1  0  0  0  0
  5  8  1  0  0  0  0
  6  7  1  0  0  0  0
  7 14  1  1  0  0  0
  8  9  1  1  0  0  0
  8 16  1  0  0  0  0
 10 13  1  0  0  0  0
 11 13  1  0  0  0  0
 12 13  1  0  0  0  0
 13 17  1  0  0  0  0
  2 18  1  0  0  0  0
  2 19  1  0  0  0  0
  3 20  1  0  0  0  0
  3 21  1  0  0  0  0
  4 22  1  0  0  0  0
  4 23  1  0  0  0  0
  5 24  1  0  0  0  0
  6 25  1  0  0  0  0
  7 26  1  0  0  0  0
  9 27  1  0  0  0  0
  9 28  1  0  0  0  0
  9 29  1  0  0  0  0
 10 30  1  0  0  0  0
 10 31  1  0  0  0  0
 10 32  1  0  0  0  0
 11 33  1  0  0  0  0
 11 34  1  0  0  0  0
 11 35  1  0  0  0  0
 12 36  1  0  0  0  0
 12 37  1  0  0  0  0
 12 38  1  0  0  0  0
 14 39  1  0  0  0  0
 16 40  1  0  0  0  0
M  END
> <id>
EN300-7457221

> <smiles>
CC(C)(C)OC(=O)N[C@@H]1C[C@H]2C[C@@H]1C[C@]2(C)O |&1:8,10,12,14,r|

> <IUPAC Name>
rac-tert-butyl N-[(1R,2R,4R,5S)-5-hydroxy-5-methylbicyclo[2.2.1]heptan-2-yl]carbamate

> <CAS>
2408938-09-8

> <URL>
https://www.enaminestore.com/catalog/EN300-7457221

> <ROCS_ShapeQuery>
__x1247relevant_x1083L0AP1_x1305L0BP1_

> <ROCS_TanimotoCombo>
0.715 

> <ROCS_ShapeTanimoto>
0.494 

> <ROCS_ColorTanimoto>
0.221 

> <ROCS_RefTversky>
0.427 

> <ROCS_RefColorTversky>
0.250 

> <ROCS_RefTverskyCombo>
0.677 

> <ROCS_FitTversky>
1.458 

> <ROCS_FitColorTversky>
0.659 

> <ROCS_FitTverskyCombo>
2.117 

> <ROCS_ColorScore>
-8.175

> <ROCS_Overlap>
1259.933

> <ROCS_Rank>
400                 

$$$$
untitled-dbase-85463_21
  -OEChem-06232314393D

 27 28  0     1  0  0  0  0  0999 V2000
   -9.8852   15.2397  -36.4781 C   0  0  0  0  0  0  0  0  0  0  0  0
  -13.1198   16.6652  -39.0621 C   0  0  0  0  0  0  0  0  0  0  0  0
  -13.9320   16.1774  -37.8607 C   0  0  0  0  0  0  0  0  0  0  0  0
  -13.1469   14.2853  -39.0727 C   0  0  0  0  0  0  0  0  0  0  0  0
  -10.9199   15.4557  -38.7364 C   0  0  0  0  0  0  0  0  0  0  0  0
  -12.2924   14.6312  -36.7080 C   0  0  0  0  0  0  0  0  0  0  0  0
  -12.2663   15.4595  -39.4900 C   0  0  2  0  0  0  0  0  0  0  0  0
  -13.5089   14.7135  -37.6534 C   0  0  1  0  0  0  0  0  0  0  0  0
  -10.9158   14.6593  -37.4112 C   0  0  0  0  0  0  0  0  0  0  0  0
  -10.4720   13.2833  -37.6703 N   0  0  0  0  0  0  0  0  0  0  0  0
   -8.8528   15.7917  -36.8285 O   0  0  0  0  0  0  0  0  0  0  0  0
  -10.2566   15.0648  -35.1863 O   0  0  0  0  0  0  0  0  0  0  0  0
  -13.8053   16.9396  -39.8734 H   0  0  0  0  0  0  0  0  0  0  0  0
  -12.5204   17.5521  -38.8371 H   0  0  0  0  0  0  0  0  0  0  0  0
  -13.7826   16.7935  -36.9693 H   0  0  0  0  0  0  0  0  0  0  0  0
  -15.0005   16.2224  -38.1051 H   0  0  0  0  0  0  0  0  0  0  0  0
  -14.0413   14.2250  -39.7022 H   0  0  0  0  0  0  0  0  0  0  0  0
  -12.6305   13.3226  -39.1140 H   0  0  0  0  0  0  0  0  0  0  0  0
  -10.1682   15.0289  -39.4217 H   0  0  0  0  0  0  0  0  0  0  0  0
  -10.6024   16.4971  -38.5653 H   0  0  0  0  0  0  0  0  0  0  0  0
  -12.3649   15.4385  -35.9609 H   0  0  0  0  0  0  0  0  0  0  0  0
  -12.3934   13.6932  -36.1359 H   0  0  0  0  0  0  0  0  0  0  0  0
  -12.0833   15.4816  -40.5678 H   0  0  0  0  0  0  0  0  0  0  0  0
  -14.3354   14.1296  -37.2394 H   0  0  0  0  0  0  0  0  0  0  0  0
  -11.1870   12.6706  -37.3635 H   0  0  0  0  0  0  0  0  0  0  0  0
  -10.3194   13.1924  -38.6447 H   0  0  0  0  0  0  0  0  0  0  0  0
   -9.5965   15.4349  -34.5620 H   0  0  0  0  0  0  0  0  0  0  0  0
  1  9  1  0  0  0  0
  1 11  2  0  0  0  0
  1 12  1  0  0  0  0
  2  3  1  0  0  0  0
  2  7  1  0  0  0  0
  3  8  1  0  0  0  0
  4  7  1  0  0  0  0
  4  8  1  0  0  0  0
  5  7  1  0  0  0  0
  5  9  1  0  0  0  0
  6  8  1  0  0  0  0
  6  9  1  0  0  0  0
  9 10  1  0  0  0  0
  2 13  1  0  0  0  0
  2 14  1  0  0  0  0
  3 15  1  0  0  0  0
  3 16  1  0  0  0  0
  4 17  1  0  0  0  0
  4 18  1  0  0  0  0
  5 19  1  0  0  0  0
  5 20  1  0  0  0  0
  6 21  1  0  0  0  0
  6 22  1  0  0  0  0
  7 23  1  0  0  0  0
  8 24  1  0  0  0  0
 10 25  1  0  0  0  0
 10 26  1  0  0  0  0
 12 27  1  0  0  0  0
M  END
> <id>
EN300-1708846

> <smiles>
NC1(CC2CCC(C2)C1)C(=O)O

> <MDLNUMBER>
MFCD20658786

> <IUPAC Name>
3-aminobicyclo[3.2.1]octane-3-carboxylic acid

> <CAS>
1379191-71-5

> <URL>
https://www.enaminestore.com/catalog/EN300-1708846

> <ROCS_ShapeQuery>
__x1247relevant_x1083L0AP1_x1305L0BP1_

> <ROCS_TanimotoCombo>
0.715 

> <ROCS_ShapeTanimoto>
0.462 

> <ROCS_ColorTanimoto>
0.253 

> <ROCS_RefTversky>
0.386 

> <ROCS_RefColorTversky>
0.275 

> <ROCS_RefTverskyCombo>
0.661 

> <ROCS_FitTversky>
1.737 

> <ROCS_FitColorTversky>
0.758 

> <ROCS_FitTverskyCombo>
2.495 

> <ROCS_ColorScore>
-8.989

> <ROCS_Overlap>
1134.492

> <ROCS_Rank>
401                 

$$$$
untitled-dbase-87443_21
  -OEChem-06232314393D

 27 28  0     1  0  0  0  0  0999 V2000
   -9.8852   15.2397  -36.4781 C   0  0  0  0  0  0  0  0  0  0  0  0
  -13.1198   16.6652  -39.0621 C   0  0  0  0  0  0  0  0  0  0  0  0
  -13.9320   16.1774  -37.8607 C   0  0  0  0  0  0  0  0  0  0  0  0
  -13.1469   14.2853  -39.0727 C   0  0  0  0  0  0  0  0  0  0  0  0
  -10.9199   15.4557  -38.7364 C   0  0  0  0  0  0  0  0  0  0  0  0
  -12.2924   14.6312  -36.7080 C   0  0  0  0  0  0  0  0  0  0  0  0
  -12.2663   15.4595  -39.4900 C   0  0  2  0  0  0  0  0  0  0  0  0
  -13.5089   14.7135  -37.6534 C   0  0  1  0  0  0  0  0  0  0  0  0
  -10.9158   14.6593  -37.4112 C   0  0  0  0  0  0  0  0  0  0  0  0
  -10.4720   13.2833  -37.6703 N   0  0  0  0  0  0  0  0  0  0  0  0
   -8.8528   15.7917  -36.8285 O   0  0  0  0  0  0  0  0  0  0  0  0
  -10.2566   15.0648  -35.1863 O   0  0  0  0  0  0  0  0  0  0  0  0
  -13.8053   16.9396  -39.8734 H   0  0  0  0  0  0  0  0  0  0  0  0
  -12.5204   17.5521  -38.8371 H   0  0  0  0  0  0  0  0  0  0  0  0
  -13.7826   16.7935  -36.9693 H   0  0  0  0  0  0  0  0  0  0  0  0
  -15.0005   16.2224  -38.1051 H   0  0  0  0  0  0  0  0  0  0  0  0
  -14.0413   14.2250  -39.7022 H   0  0  0  0  0  0  0  0  0  0  0  0
  -12.6305   13.3226  -39.1140 H   0  0  0  0  0  0  0  0  0  0  0  0
  -10.1682   15.0289  -39.4217 H   0  0  0  0  0  0  0  0  0  0  0  0
  -10.6024   16.4971  -38.5653 H   0  0  0  0  0  0  0  0  0  0  0  0
  -12.3649   15.4385  -35.9609 H   0  0  0  0  0  0  0  0  0  0  0  0
  -12.3934   13.6932  -36.1359 H   0  0  0  0  0  0  0  0  0  0  0  0
  -12.0833   15.4816  -40.5678 H   0  0  0  0  0  0  0  0  0  0  0  0
  -14.3354   14.1296  -37.2394 H   0  0  0  0  0  0  0  0  0  0  0  0
  -11.1870   12.6706  -37.3635 H   0  0  0  0  0  0  0  0  0  0  0  0
  -10.3194   13.1924  -38.6447 H   0  0  0  0  0  0  0  0  0  0  0  0
   -9.5965   15.4349  -34.5620 H   0  0  0  0  0  0  0  0  0  0  0  0
  1  9  1  0  0  0  0
  1 11  2  0  0  0  0
  1 12  1  0  0  0  0
  2  3  1  0  0  0  0
  2  7  1  0  0  0  0
  3  8  1  0  0  0  0
  4  7  1  0  0  0  0
  4  8  1  0  0  0  0
  5  7  1  0  0  0  0
  5  9  1  0  0  0  0
  6  8  1  0  0  0  0
  6  9  1  0  0  0  0
  9 10  1  0  0  0  0
  2 13  1  0  0  0  0
  2 14  1  0  0  0  0
  3 15  1  0  0  0  0
  3 16  1  0  0  0  0
  4 17  1  0  0  0  0
  4 18  1  0  0  0  0
  5 19  1  0  0  0  0
  5 20  1  0  0  0  0
  6 21  1  0  0  0  0
  6 22  1  0  0  0  0
  7 23  1  0  0  0  0
  8 24  1  0  0  0  0
 10 25  1  0  0  0  0
 10 26  1  0  0  0  0
 12 27  1  0  0  0  0
M  END
> <id>
EN300-1708845

> <smiles>
Cl.NC1(CC2CCC(C2)C1)C(=O)O

> <MDLNUMBER>
MFCD31718948

> <IUPAC Name>
3-aminobicyclo[3.2.1]octane-3-carboxylic acid hydrochloride

> <CAS>
2248291-24-7

> <Purity>
95

> <URL>
https://www.enaminestore.com/catalog/EN300-1708845

> <Saltdate>
Cl

> <ROCS_ShapeQuery>
__x1247relevant_x1083L0AP1_x1305L0BP1_

> <ROCS_TanimotoCombo>
0.715 

> <ROCS_ShapeTanimoto>
0.462 

> <ROCS_ColorTanimoto>
0.253 

> <ROCS_RefTversky>
0.386 

> <ROCS_RefColorTversky>
0.275 

> <ROCS_RefTverskyCombo>
0.661 

> <ROCS_FitTversky>
1.737 

> <ROCS_FitColorTversky>
0.758 

> <ROCS_FitTverskyCombo>
2.495 

> <ROCS_ColorScore>
-8.989

> <ROCS_Overlap>
1134.492

> <ROCS_Rank>
402                 

$$$$
untitled-dbase-174218_13
  -OEChem-06232314393D

 29 30  0     1  0  0  0  0  0999 V2000
  -12.8844   16.6911  -40.6814 C   0  0  0  0  0  0  0  0  0  0  0  0
   -9.7561   14.9781  -37.1706 C   0  0  0  0  0  0  0  0  0  0  0  0
  -14.0627   15.8730  -37.8497 C   0  0  0  0  0  0  0  0  0  0  0  0
  -13.1603   15.5453  -36.6518 C   0  0  0  0  0  0  0  0  0  0  0  0
  -13.0168   13.7637  -38.2301 C   0  0  0  0  0  0  0  0  0  0  0  0
  -11.2535   16.0227  -38.9276 C   0  0  0  0  0  0  0  0  0  0  0  0
  -12.4203   15.5629  -39.8104 C   0  0  1  0  0  0  0  0  0  0  0  0
  -13.5798   14.9613  -38.9950 C   0  0  2  0  0  0  0  0  0  0  0  0
  -12.1851   14.4798  -37.1697 C   0  0  1  0  0  0  0  0  0  0  0  0
   -9.4567   13.6323  -36.5578 C   0  0  0  0  0  0  0  0  0  0  0  0
  -11.0022   15.1171  -37.7893 N   0  0  0  0  0  0  0  0  0  0  0  0
  -12.1776   17.3128  -41.4606 O   0  0  0  0  0  0  0  0  0  0  0  0
   -8.9138   15.8762  -37.0970 O   0  0  0  0  0  0  0  0  0  0  0  0
  -14.2036   16.9347  -40.4868 O   0  0  0  0  0  0  0  0  0  0  0  0
  -10.4924   12.7932  -36.7344 F   0  0  0  0  0  0  0  0  0  0  0  0
   -8.3679   13.0853  -37.1265 F   0  0  0  0  0  0  0  0  0  0  0  0
   -9.2292   13.7509  -35.2378 F   0  0  0  0  0  0  0  0  0  0  0  0
  -15.1016   15.6313  -37.5942 H   0  0  0  0  0  0  0  0  0  0  0  0
  -14.0318   16.9371  -38.0993 H   0  0  0  0  0  0  0  0  0  0  0  0
  -12.6516   16.4315  -36.2578 H   0  0  0  0  0  0  0  0  0  0  0  0
  -13.7686   15.1347  -35.8368 H   0  0  0  0  0  0  0  0  0  0  0  0
  -13.8233   13.1827  -37.7663 H   0  0  0  0  0  0  0  0  0  0  0  0
  -12.4235   13.0844  -38.8509 H   0  0  0  0  0  0  0  0  0  0  0  0
  -10.3551   16.1210  -39.5445 H   0  0  0  0  0  0  0  0  0  0  0  0
  -11.4447   17.0169  -38.5043 H   0  0  0  0  0  0  0  0  0  0  0  0
  -12.0456   14.7907  -40.4963 H   0  0  0  0  0  0  0  0  0  0  0  0
  -14.4082   14.6801  -39.6539 H   0  0  0  0  0  0  0  0  0  0  0  0
  -11.8793   13.8000  -36.3693 H   0  0  0  0  0  0  0  0  0  0  0  0
  -14.5266   17.6721  -41.0473 H   0  0  0  0  0  0  0  0  0  0  0  0
  1  7  1  0  0  0  0
  1 12  2  0  0  0  0
  1 14  1  0  0  0  0
  2 10  1  0  0  0  0
  2 11  1  0  0  0  0
  2 13  2  0  0  0  0
  3  4  1  0  0  0  0
  3  8  1  0  0  0  0
  4  9  1  0  0  0  0
  5  8  1  0  0  0  0
  5  9  1  0  0  0  0
  6  7  1  0  0  0  0
  6 11  1  0  0  0  0
  7  8  1  0  0  0  0
  9 11  1  0  0  0  0
 10 15  1  0  0  0  0
 10 16  1  0  0  0  0
 10 17  1  0  0  0  0
  3 18  1  0  0  0  0
  3 19  1  0  0  0  0
  4 20  1  0  0  0  0
  4 21  1  0  0  0  0
  5 22  1  0  0  0  0
  5 23  1  0  0  0  0
  6 24  1  0  0  0  0
  6 25  1  0  0  0  0
  7 26  1  0  0  0  0
  8 27  1  0  0  0  0
  9 28  1  0  0  0  0
 14 29  1  0  0  0  0
M  END
> <id>
EN300-43352959

> <smiles>
OC(=O)C1CN(C2CCC1C2)C(=O)C(F)(F)F

> <IUPAC Name>
2-(2,2,2-trifluoroacetyl)-2-azabicyclo[3.2.1]octane-4-carboxylic acid

> <URL>
https://www.enaminestore.com/catalog/EN300-43352959

> <ROCS_ShapeQuery>
__x1247relevant_x1083L0AP1_x1305L0BP1_

> <ROCS_TanimotoCombo>
0.715 

> <ROCS_ShapeTanimoto>
0.523 

> <ROCS_ColorTanimoto>
0.191 

> <ROCS_RefTversky>
0.447 

> <ROCS_RefColorTversky>
0.215 

> <ROCS_RefTverskyCombo>
0.662 

> <ROCS_FitTversky>
1.486 

> <ROCS_FitColorTversky>
0.636 

> <ROCS_FitTverskyCombo>
2.122 

> <ROCS_ColorScore>
-7.013

> <ROCS_Overlap>
1318.188

> <ROCS_Rank>
403                 

$$$$
untitled-dbase-52461_1
  -OEChem-06232314393D

 36 38  0     1  0  0  0  0  0999 V2000
  -14.4556   15.6945  -37.4510 C   0  0  0  0  0  0  0  0  0  0  0  0
  -14.5020   14.3493  -38.2134 C   0  0  0  0  0  0  0  0  0  0  0  0
   -9.2705   15.3497  -38.5570 C   0  0  0  0  0  0  0  0  0  0  0  0
  -11.9642   16.2722  -37.5496 C   0  0  0  0  0  0  0  0  0  0  0  0
  -12.0451   14.0055  -38.8388 C   0  0  0  0  0  0  0  0  0  0  0  0
   -7.9102   15.5851  -37.9301 C   0  0  0  0  0  0  0  0  0  0  0  0
   -9.4833   15.3668  -36.2183 C   0  0  0  0  0  0  0  0  0  0  0  0
  -13.3729   16.5800  -38.0935 C   0  0  1  0  0  0  0  0  0  0  0  0
  -13.4510   14.3912  -39.3372 C   0  0  2  0  0  0  0  0  0  0  0  0
  -10.0355   14.6493  -37.4465 C   0  0  1  0  0  0  0  0  0  0  0  0
  -11.5584   14.7753  -37.5818 C   0  0  0  0  0  0  0  0  0  0  0  0
   -9.6619   13.2312  -37.3917 N   0  0  0  0  0  0  0  0  0  0  0  0
  -12.2113   16.4542  -40.4950 O   0  0  0  0  0  0  0  0  0  0  0  0
  -14.7373   16.4685  -40.3616 O   0  0  0  0  0  0  0  0  0  0  0  0
   -8.1250   15.7319  -36.5189 O   0  0  0  0  0  0  0  0  0  0  0  0
  -12.1129   14.1525  -36.4147 O   0  0  0  0  0  0  0  0  0  0  0  0
  -13.4431   16.1130  -39.8173 S   0  0  0  0  0  0  0  0  0  0  0  0
  -15.4325   16.1837  -37.5555 H   0  0  0  0  0  0  0  0  0  0  0  0
  -14.2960   15.5542  -36.3774 H   0  0  0  0  0  0  0  0  0  0  0  0
  -14.3639   13.4926  -37.5460 H   0  0  0  0  0  0  0  0  0  0  0  0
  -15.5006   14.2369  -38.6546 H   0  0  0  0  0  0  0  0  0  0  0  0
   -9.7348   16.3177  -38.7855 H   0  0  0  0  0  0  0  0  0  0  0  0
   -9.2092   14.7875  -39.4945 H   0  0  0  0  0  0  0  0  0  0  0  0
  -11.2378   16.8603  -38.1245 H   0  0  0  0  0  0  0  0  0  0  0  0
  -11.9126   16.6360  -36.5150 H   0  0  0  0  0  0  0  0  0  0  0  0
  -12.0439   12.9283  -38.6276 H   0  0  0  0  0  0  0  0  0  0  0  0
  -11.3339   14.1625  -39.6596 H   0  0  0  0  0  0  0  0  0  0  0  0
   -7.2432   14.7299  -38.0823 H   0  0  0  0  0  0  0  0  0  0  0  0
   -7.4197   16.4809  -38.3215 H   0  0  0  0  0  0  0  0  0  0  0  0
  -10.0288   16.2953  -36.0132 H   0  0  0  0  0  0  0  0  0  0  0  0
   -9.5015   14.7620  -35.3053 H   0  0  0  0  0  0  0  0  0  0  0  0
  -13.6047   17.6446  -38.0031 H   0  0  0  0  0  0  0  0  0  0  0  0
  -13.7433   13.7830  -40.1973 H   0  0  0  0  0  0  0  0  0  0  0  0
   -9.8865   12.8242  -38.2661 H   0  0  0  0  0  0  0  0  0  0  0  0
   -8.6888   13.1809  -37.2151 H   0  0  0  0  0  0  0  0  0  0  0  0
  -11.8477   13.2234  -36.4564 H   0  0  0  0  0  0  0  0  0  0  0  0
  1  2  1  0  0  0  0
  1  8  1  0  0  0  0
  2  9  1  0  0  0  0
  3  6  1  0  0  0  0
  3 10  1  0  0  0  0
  4  8  1  0  0  0  0
  4 11  1  0  0  0  0
  5  9  1  0  0  0  0
  5 11  1  0  0  0  0
  6 15  1  0  0  0  0
  7 10  1  0  0  0  0
  7 15  1  0  0  0  0
  8 17  1  0  0  0  0
  9 17  1  0  0  0  0
 10 11  1  0  0  0  0
 10 12  1  0  0  0  0
 11 16  1  0  0  0  0
 13 17  2  0  0  0  0
 14 17  2  0  0  0  0
  1 18  1  0  0  0  0
  1 19  1  0  0  0  0
  2 20  1  0  0  0  0
  2 21  1  0  0  0  0
  3 22  1  0  0  0  0
  3 23  1  0  0  0  0
  4 24  1  0  0  0  0
  4 25  1  0  0  0  0
  5 26  1  0  0  0  0
  5 27  1  0  0  0  0
  6 28  1  0  0  0  0
  6 29  1  0  0  0  0
  7 30  1  0  0  0  0
  7 31  1  0  0  0  0
  8 32  1  0  0  0  0
  9 33  1  0  0  0  0
 12 34  1  0  0  0  0
 12 35  1  0  0  0  0
 16 36  1  0  0  0  0
M  END
> <id>
EN300-1643007

> <smiles>
NC1(CCOC1)C2(O)CC3CCC(C2)S3(=O)=O

> <IUPAC Name>
3-(3-aminooxolan-3-yl)-3-hydroxy-8lambda6-thiabicyclo[3.2.1]octane-8,8-dione

> <CAS>
2171597-67-2

> <URL>
https://www.enaminestore.com/catalog/EN300-1643007

> <ROCS_ShapeQuery>
__x1247relevant_x1083L0AP1_x1305L0BP1_

> <ROCS_TanimotoCombo>
0.715 

> <ROCS_ShapeTanimoto>
0.510 

> <ROCS_ColorTanimoto>
0.204 

> <ROCS_RefTversky>
0.436 

> <ROCS_RefColorTversky>
0.246 

> <ROCS_RefTverskyCombo>
0.682 

> <ROCS_FitTversky>
1.497 

> <ROCS_FitColorTversky>
0.549 

> <ROCS_FitTverskyCombo>
2.046 

> <ROCS_ColorScore>
-8.068

> <ROCS_Overlap>
1286.207

> <ROCS_Rank>
404                 

$$$$
untitled-dbase-108314_11
  -OEChem-06232314393D

 36 38  0     1  0  0  0  0  0999 V2000
  -12.4511   14.3722  -37.1803 C   0  0  0  0  0  0  0  0  0  0  0  0
  -11.5443   14.5986  -38.1514 C   0  0  0  0  0  0  0  0  0  0  0  0
  -13.8277   15.0007  -37.2433 C   0  0  0  0  0  0  0  0  0  0  0  0
  -12.6835   16.7958  -38.6341 C   0  0  0  0  0  0  0  0  0  0  0  0
   -9.0623   13.5535  -36.0759 C   0  0  0  0  0  0  0  0  0  0  0  0
   -9.2234   15.0441  -35.8202 C   0  0  0  0  0  0  0  0  0  0  0  0
   -9.1111   15.1176  -38.2194 C   0  0  0  0  0  0  0  0  0  0  0  0
  -11.9856   15.5294  -39.2522 C   0  0  2  0  0  0  0  0  0  0  0  0
  -10.1649   14.0116  -38.1987 C   0  0  1  0  0  0  0  0  0  0  0  0
  -13.9360   15.8651  -38.5177 C   0  0  1  0  0  0  0  0  0  0  0  0
  -13.4186   15.1789  -39.8577 C   0  0  0  0  0  0  0  0  0  0  0  0
  -13.7695   13.7009  -40.0743 C   0  0  0  0  0  0  0  0  0  0  0  0
  -13.7729   15.9305  -41.1564 C   0  0  0  0  0  0  0  0  0  0  0  0
  -10.0272   13.0889  -37.0697 N   0  0  0  0  0  0  0  0  0  0  0  0
   -9.0300   15.8394  -36.9896 O   0  0  0  0  0  0  0  0  0  0  0  0
  -12.2224   13.7216  -36.3426 H   0  0  0  0  0  0  0  0  0  0  0  0
  -14.5938   14.2185  -37.2492 H   0  0  0  0  0  0  0  0  0  0  0  0
  -13.9867   15.6209  -36.3542 H   0  0  0  0  0  0  0  0  0  0  0  0
  -12.2705   17.1816  -37.6950 H   0  0  0  0  0  0  0  0  0  0  0  0
  -12.7873   17.6546  -39.3048 H   0  0  0  0  0  0  0  0  0  0  0  0
   -8.0432   13.3400  -36.4296 H   0  0  0  0  0  0  0  0  0  0  0  0
   -9.2066   12.9983  -35.1402 H   0  0  0  0  0  0  0  0  0  0  0  0
  -10.2187   15.2754  -35.3863 H   0  0  0  0  0  0  0  0  0  0  0  0
   -8.4817   15.3770  -35.0691 H   0  0  0  0  0  0  0  0  0  0  0  0
   -8.1082   14.6883  -38.4053 H   0  0  0  0  0  0  0  0  0  0  0  0
   -9.2860   15.8387  -39.0445 H   0  0  0  0  0  0  0  0  0  0  0  0
  -11.1988   15.7420  -39.9825 H   0  0  0  0  0  0  0  0  0  0  0  0
  -10.0975   13.4229  -39.1283 H   0  0  0  0  0  0  0  0  0  0  0  0
  -14.9019   16.3746  -38.5937 H   0  0  0  0  0  0  0  0  0  0  0  0
  -14.7706   13.6235  -40.4891 H   0  0  0  0  0  0  0  0  0  0  0  0
  -13.7297   13.1764  -39.1238 H   0  0  0  0  0  0  0  0  0  0  0  0
  -13.0565   13.2568  -40.7633 H   0  0  0  0  0  0  0  0  0  0  0  0
  -14.7595   15.6249  -41.4852 H   0  0  0  0  0  0  0  0  0  0  0  0
  -13.0401   15.6882  -41.9175 H   0  0  0  0  0  0  0  0  0  0  0  0
  -13.7635   16.9970  -40.9627 H   0  0  0  0  0  0  0  0  0  0  0  0
   -9.7259   12.1671  -37.4166 H   0  0  0  0  0  0  0  0  0  0  0  0
  1  2  2  0  0  0  0
  1  3  1  0  0  0  0
  2  8  1  0  0  0  0
  2  9  1  0  0  0  0
  3 10  1  0  0  0  0
  4  8  1  0  0  0  0
  4 10  1  0  0  0  0
  5  6  1  0  0  0  0
  5 14  1  0  0  0  0
  6 15  1  0  0  0  0
  7  9  1  0  0  0  0
  7 15  1  0  0  0  0
  8 11  1  0  0  0  0
  9 14  1  0  0  0  0
 10 11  1  0  0  0  0
 11 12  1  0  0  0  0
 11 13  1  0  0  0  0
  1 16  1  0  0  0  0
  3 17  1  0  0  0  0
  3 18  1  0  0  0  0
  4 19  1  0  0  0  0
  4 20  1  0  0  0  0
  5 21  1  0  0  0  0
  5 22  1  0  0  0  0
  6 23  1  0  0  0  0
  6 24  1  0  0  0  0
  7 25  1  0  0  0  0
  7 26  1  0  0  0  0
  8 27  1  0  0  0  0
  9 28  1  0  0  0  0
 10 29  1  0  0  0  0
 12 30  1  0  0  0  0
 12 31  1  0  0  0  0
 12 32  1  0  0  0  0
 13 33  1  0  0  0  0
 13 34  1  0  0  0  0
 13 35  1  0  0  0  0
 14 36  1  0  0  0  0
M  END
> <id>
EN300-1788905

> <smiles>
CC1(C)C2CC1C(=CC2)C3COCCN3

> <IUPAC Name>
3-{6,6-dimethylbicyclo[3.1.1]hept-2-en-2-yl}morpholine

> <CAS>
2229391-80-2

> <URL>
https://www.enaminestore.com/catalog/EN300-1788905

> <ROCS_ShapeQuery>
__x1247relevant_x1083L0AP1_x1305L0BP1_

> <ROCS_TanimotoCombo>
0.715 

> <ROCS_ShapeTanimoto>
0.497 

> <ROCS_ColorTanimoto>
0.218 

> <ROCS_RefTversky>
0.420 

> <ROCS_RefColorTversky>
0.246 

> <ROCS_RefTverskyCombo>
0.665 

> <ROCS_FitTversky>
1.587 

> <ROCS_FitColorTversky>
0.657 

> <ROCS_FitTverskyCombo>
2.243 

> <ROCS_ColorScore>
-8.033

> <ROCS_Overlap>
1235.943

> <ROCS_Rank>
405                 

$$$$
untitled-dbase-118306_142
  -OEChem-06232314393D

 39 40  0     1  0  0  0  0  0999 V2000
  -12.5085   16.7838  -40.5340 C   0  0  0  0  0  0  0  0  0  0  0  0
   -9.6909   14.7756  -37.0162 C   0  0  0  0  0  0  0  0  0  0  0  0
  -13.1067   16.7282  -38.0891 C   0  0  0  0  0  0  0  0  0  0  0  0
  -13.7437   15.6301  -37.2244 C   0  0  0  0  0  0  0  0  0  0  0  0
  -13.3037   14.7129  -39.3768 C   0  0  0  0  0  0  0  0  0  0  0  0
  -11.0050   15.5912  -38.9491 C   0  0  0  0  0  0  0  0  0  0  0  0
  -11.9762   13.8162  -37.4546 C   0  0  0  0  0  0  0  0  0  0  0  0
  -12.4569   15.9801  -39.2714 C   0  0  1  0  0  0  0  0  0  0  0  0
  -13.3492   14.3197  -37.9092 C   0  0  1  0  0  0  0  0  0  0  0  0
  -10.1857   14.8102  -34.4403 C   0  0  0  0  0  0  0  0  0  0  0  0
   -9.8269   12.3247  -34.3842 C   0  0  0  0  0  0  0  0  0  0  0  0
   -7.8575   13.8680  -34.6029 C   0  0  0  0  0  0  0  0  0  0  0  0
   -9.3295   13.6525  -34.9516 C   0  0  0  0  0  0  0  0  0  0  0  0
  -10.8922   14.7703  -37.7355 N   0  0  0  0  0  0  0  0  0  0  0  0
  -13.5318   17.1732  -41.0768 O   0  0  0  0  0  0  0  0  0  0  0  0
   -8.9214   15.7333  -36.9617 O   0  0  0  0  0  0  0  0  0  0  0  0
  -11.2586   17.0224  -41.0010 O   0  0  0  0  0  0  0  0  0  0  0  0
   -9.4557   13.5870  -36.3767 O   0  0  0  0  0  0  0  0  0  0  0  0
  -14.2776   13.3651  -37.6899 F   0  0  0  0  0  0  0  0  0  0  0  0
  -13.8815   17.4280  -38.4253 H   0  0  0  0  0  0  0  0  0  0  0  0
  -12.3759   17.3114  -37.5173 H   0  0  0  0  0  0  0  0  0  0  0  0
  -13.4048   15.6796  -36.1843 H   0  0  0  0  0  0  0  0  0  0  0  0
  -14.8342   15.7424  -37.2140 H   0  0  0  0  0  0  0  0  0  0  0  0
  -14.3106   14.9082  -39.7667 H   0  0  0  0  0  0  0  0  0  0  0  0
  -12.8559   13.9398  -40.0112 H   0  0  0  0  0  0  0  0  0  0  0  0
  -10.5720   15.0047  -39.7698 H   0  0  0  0  0  0  0  0  0  0  0  0
  -10.3778   16.4847  -38.8420 H   0  0  0  0  0  0  0  0  0  0  0  0
  -12.0036   13.5774  -36.3859 H   0  0  0  0  0  0  0  0  0  0  0  0
  -11.7268   12.8826  -37.9734 H   0  0  0  0  0  0  0  0  0  0  0  0
   -9.8319   15.7650  -34.8453 H   0  0  0  0  0  0  0  0  0  0  0  0
  -11.2384   14.6850  -34.7141 H   0  0  0  0  0  0  0  0  0  0  0  0
  -10.1194   14.8935  -33.3495 H   0  0  0  0  0  0  0  0  0  0  0  0
   -9.2155   11.4913  -34.7484 H   0  0  0  0  0  0  0  0  0  0  0  0
  -10.8530   12.1206  -34.7109 H   0  0  0  0  0  0  0  0  0  0  0  0
   -9.8040   12.3192  -33.2897 H   0  0  0  0  0  0  0  0  0  0  0  0
   -7.2432   13.0377  -34.9696 H   0  0  0  0  0  0  0  0  0  0  0  0
   -7.4732   14.7985  -35.0332 H   0  0  0  0  0  0  0  0  0  0  0  0
   -7.7152   13.9018  -33.5167 H   0  0  0  0  0  0  0  0  0  0  0  0
  -11.2711   17.5469  -41.8299 H   0  0  0  0  0  0  0  0  0  0  0  0
  1  8  1  0  0  0  0
  1 15  2  0  0  0  0
  1 17  1  0  0  0  0
  2 14  1  0  0  0  0
  2 16  2  0  0  0  0
  2 18  1  0  0  0  0
  3  4  1  0  0  0  0
  3  8  1  0  0  0  0
  4  9  1  0  0  0  0
  5  8  1  0  0  0  0
  5  9  1  0  0  0  0
  6  8  1  0  0  0  0
  6 14  1  0  0  0  0
  7  9  1  0  0  0  0
  7 14  1  0  0  0  0
  9 19  1  0  0  0  0
 10 13  1  0  0  0  0
 11 13  1  0  0  0  0
 12 13  1  0  0  0  0
 13 18  1  0  0  0  0
  3 20  1  0  0  0  0
  3 21  1  0  0  0  0
  4 22  1  0  0  0  0
  4 23  1  0  0  0  0
  5 24  1  0  0  0  0
  5 25  1  0  0  0  0
  6 26  1  0  0  0  0
  6 27  1  0  0  0  0
  7 28  1  0  0  0  0
  7 29  1  0  0  0  0
 10 30  1  0  0  0  0
 10 31  1  0  0  0  0
 10 32  1  0  0  0  0
 11 33  1  0  0  0  0
 11 34  1  0  0  0  0
 11 35  1  0  0  0  0
 12 36  1  0  0  0  0
 12 37  1  0  0  0  0
 12 38  1  0  0  0  0
 17 39  1  0  0  0  0
M  END
> <id>
EN300-26981120

> <smiles>
CC(C)(C)OC(=O)N1CC2(F)CCC(C2)(C1)C(=O)O

> <MDLNUMBER>
MFCD32702931

> <IUPAC Name>
3-[(tert-butoxy)carbonyl]-5-fluoro-3-azabicyclo[3.2.1]octane-1-carboxylic acid

> <CAS>
2460751-04-4

> <Purity>
95

> <URL>
https://www.enaminestore.com/catalog/EN300-26981120

> <ROCS_ShapeQuery>
__x1247relevant_x1083L0AP1_x1305L0BP1_

> <ROCS_TanimotoCombo>
0.714 

> <ROCS_ShapeTanimoto>
0.531 

> <ROCS_ColorTanimoto>
0.183 

> <ROCS_RefTversky>
0.460 

> <ROCS_RefColorTversky>
0.211 

> <ROCS_RefTverskyCombo>
0.671 

> <ROCS_FitTversky>
1.411 

> <ROCS_FitColorTversky>
0.577 

> <ROCS_FitTverskyCombo>
1.988 

> <ROCS_ColorScore>
-6.908

> <ROCS_Overlap>
1359.343

> <ROCS_Rank>
406                 

$$$$
untitled-dbase-81321_6
  -OEChem-06232314393D

 26 28  0     1  0  0  0  0  0999 V2000
  -12.1313   16.6504  -38.6704 C   0  0  0  0  0  0  0  0  0  0  0  0
  -11.2979   15.6134  -38.8393 C   0  0  0  0  0  0  0  0  0  0  0  0
   -9.5341   14.9431  -36.8238 C   0  0  0  0  0  0  0  0  0  0  0  0
  -13.4067   14.8788  -39.4272 C   0  0  0  0  0  0  0  0  0  0  0  0
  -13.5654   15.3929  -37.1043 C   0  0  0  0  0  0  0  0  0  0  0  0
  -10.5782   12.8996  -36.5354 C   0  0  0  0  0  0  0  0  0  0  0  0
  -13.5187   16.0828  -38.4866 C   0  0  1  0  0  0  0  0  0  0  0  0
  -12.1292   14.3539  -38.7591 C   0  0  2  0  0  0  0  0  0  0  0  0
  -12.6410   14.1522  -37.3080 C   0  0  1  0  0  0  0  0  0  0  0  0
  -11.5540   14.0237  -36.2520 C   0  0  2  0  0  0  0  0  0  0  0  0
   -9.4346   13.5878  -37.0361 N   0  0  0  0  0  0  0  0  0  0  0  0
   -8.6870   15.7888  -37.0735 O   0  0  0  0  0  0  0  0  0  0  0  0
  -10.7533   15.2238  -36.2625 O   0  0  0  0  0  0  0  0  0  0  0  0
  -11.8571   17.6919  -38.6219 H   0  0  0  0  0  0  0  0  0  0  0  0
  -10.2268   15.6636  -38.9513 H   0  0  0  0  0  0  0  0  0  0  0  0
  -14.2545   14.1885  -39.3500 H   0  0  0  0  0  0  0  0  0  0  0  0
  -13.2672   15.1568  -40.4798 H   0  0  0  0  0  0  0  0  0  0  0  0
  -13.2269   16.0517  -36.2967 H   0  0  0  0  0  0  0  0  0  0  0  0
  -14.5843   15.0609  -36.8744 H   0  0  0  0  0  0  0  0  0  0  0  0
  -10.3190   12.3258  -35.6397 H   0  0  0  0  0  0  0  0  0  0  0  0
  -10.9249   12.2108  -37.3146 H   0  0  0  0  0  0  0  0  0  0  0  0
  -14.3321   16.7751  -38.7052 H   0  0  0  0  0  0  0  0  0  0  0  0
  -11.6887   13.4777  -39.2365 H   0  0  0  0  0  0  0  0  0  0  0  0
  -13.2619   13.2466  -37.2730 H   0  0  0  0  0  0  0  0  0  0  0  0
  -12.0005   13.9291  -35.2625 H   0  0  0  0  0  0  0  0  0  0  0  0
   -8.6467   13.1344  -37.4916 H   0  0  0  0  0  0  0  0  0  0  0  0
  1  2  2  0  0  0  0
  1  7  1  0  0  0  0
  2  8  1  0  0  0  0
  3 11  1  0  0  0  0
  3 12  2  0  0  0  0
  3 13  1  0  0  0  0
  4  7  1  0  0  0  0
  4  8  1  0  0  0  0
  5  7  1  0  0  0  0
  5  9  1  0  0  0  0
  6 10  1  0  0  0  0
  6 11  1  0  0  0  0
  8  9  1  0  0  0  0
  9 10  1  0  0  0  0
 10 13  1  0  0  0  0
  1 14  1  0  0  0  0
  2 15  1  0  0  0  0
  4 16  1  0  0  0  0
  4 17  1  0  0  0  0
  5 18  1  0  0  0  0
  5 19  1  0  0  0  0
  6 20  1  0  0  0  0
  6 21  1  0  0  0  0
  7 22  1  0  0  0  0
  8 23  1  0  0  0  0
  9 24  1  0  0  0  0
 10 25  1  0  0  0  0
 11 26  1  0  0  0  0
M  END
> <id>
EN300-1823247

> <smiles>
O=C1NCC(O1)C2CC3CC2C=C3

> <IUPAC Name>
5-{bicyclo[2.2.1]hept-5-en-2-yl}-1,3-oxazolidin-2-one

> <CAS>
2228987-40-2

> <URL>
https://www.enaminestore.com/catalog/EN300-1823247

> <ROCS_ShapeQuery>
__x1247relevant_x1083L0AP1_x1305L0BP1_

> <ROCS_TanimotoCombo>
0.714 

> <ROCS_ShapeTanimoto>
0.496 

> <ROCS_ColorTanimoto>
0.218 

> <ROCS_RefTversky>
0.413 

> <ROCS_RefColorTversky>
0.237 

> <ROCS_RefTverskyCombo>
0.650 

> <ROCS_FitTversky>
1.680 

> <ROCS_FitColorTversky>
0.731 

> <ROCS_FitTverskyCombo>
2.412 

> <ROCS_ColorScore>
-7.736

> <ROCS_Overlap>
1215.140

> <ROCS_Rank>
407                 

$$$$
untitled-dbase-109790_10
  -OEChem-06232314393D

 32 34  0     1  0  0  0  0  0999 V2000
  -12.4787   16.6588  -39.2076 C   0  0  0  0  0  0  0  0  0  0  0  0
  -11.8251   15.3540  -39.6862 C   0  0  0  0  0  0  0  0  0  0  0  0
  -13.9817   14.8472  -38.8542 C   0  0  0  0  0  0  0  0  0  0  0  0
  -12.8574   15.6948  -36.9231 C   0  0  0  0  0  0  0  0  0  0  0  0
   -9.8166   15.4269  -37.7271 C   0  0  0  0  0  0  0  0  0  0  0  0
  -10.2210   14.8608  -35.6882 C   0  0  0  0  0  0  0  0  0  0  0  0
  -13.5511   16.1675  -38.2182 C   0  0  1  0  0  0  0  0  0  0  0  0
  -12.5541   14.2821  -38.8599 C   0  0  2  0  0  0  0  0  0  0  0  0
  -10.7049   14.3498  -37.0643 C   0  0  0  0  0  0  0  0  0  0  0  0
  -12.1864   14.3729  -37.3567 C   0  0  1  0  0  0  0  0  0  0  0  0
   -9.0425   15.5744  -36.3944 C   0  0  0  0  0  0  0  0  0  0  0  0
  -10.1064   13.0322  -37.3150 N   0  0  0  0  0  0  0  0  0  0  0  0
  -12.7949   13.2898  -36.6542 O   0  0  0  0  0  0  0  0  0  0  0  0
   -7.8578   14.9228  -36.3403 F   0  0  0  0  0  0  0  0  0  0  0  0
   -8.8067   16.8440  -35.9951 F   0  0  0  0  0  0  0  0  0  0  0  0
  -11.7551   17.3342  -38.7405 H   0  0  0  0  0  0  0  0  0  0  0  0
  -12.9376   17.1820  -40.0541 H   0  0  0  0  0  0  0  0  0  0  0  0
  -12.0265   15.2109  -40.7548 H   0  0  0  0  0  0  0  0  0  0  0  0
  -10.7401   15.3550  -39.5593 H   0  0  0  0  0  0  0  0  0  0  0  0
  -14.6793   14.2740  -38.2350 H   0  0  0  0  0  0  0  0  0  0  0  0
  -14.4021   14.9678  -39.8586 H   0  0  0  0  0  0  0  0  0  0  0  0
  -12.1446   16.4432  -36.5606 H   0  0  0  0  0  0  0  0  0  0  0  0
  -13.6038   15.5223  -36.1388 H   0  0  0  0  0  0  0  0  0  0  0  0
   -9.2151   15.1167  -38.5878 H   0  0  0  0  0  0  0  0  0  0  0  0
  -10.3548   16.3418  -38.0043 H   0  0  0  0  0  0  0  0  0  0  0  0
  -10.9100   15.5649  -35.2051 H   0  0  0  0  0  0  0  0  0  0  0  0
   -9.9364   14.1063  -34.9480 H   0  0  0  0  0  0  0  0  0  0  0  0
  -14.3494   16.8916  -38.0445 H   0  0  0  0  0  0  0  0  0  0  0  0
  -12.4772   13.2752  -39.2775 H   0  0  0  0  0  0  0  0  0  0  0  0
  -10.0659   12.8989  -38.2955 H   0  0  0  0  0  0  0  0  0  0  0  0
   -9.1992   13.0310  -36.9179 H   0  0  0  0  0  0  0  0  0  0  0  0
  -12.3479   12.4835  -36.9531 H   0  0  0  0  0  0  0  0  0  0  0  0
  1  2  1  0  0  0  0
  1  7  1  0  0  0  0
  2  8  1  0  0  0  0
  3  7  1  0  0  0  0
  3  8  1  0  0  0  0
  4  7  1  0  0  0  0
  4 10  1  0  0  0  0
  5  9  1  0  0  0  0
  5 11  1  0  0  0  0
  6  9  1  0  0  0  0
  6 11  1  0  0  0  0
  8 10  1  0  0  0  0
  9 10  1  0  0  0  0
  9 12  1  0  0  0  0
 10 13  1  0  0  0  0
 11 14  1  0  0  0  0
 11 15  1  0  0  0  0
  1 16  1  0  0  0  0
  1 17  1  0  0  0  0
  2 18  1  0  0  0  0
  2 19  1  0  0  0  0
  3 20  1  0  0  0  0
  3 21  1  0  0  0  0
  4 22  1  0  0  0  0
  4 23  1  0  0  0  0
  5 24  1  0  0  0  0
  5 25  1  0  0  0  0
  6 26  1  0  0  0  0
  6 27  1  0  0  0  0
  7 28  1  0  0  0  0
  8 29  1  0  0  0  0
 12 30  1  0  0  0  0
 12 31  1  0  0  0  0
 13 32  1  0  0  0  0
M  END
> <id>
EN300-1643557

> <smiles>
NC1(CC(F)(F)C1)C2(O)CC3CCC2C3

> <IUPAC Name>
2-(1-amino-3,3-difluorocyclobutyl)bicyclo[2.2.1]heptan-2-ol

> <CAS>
2171893-55-1

> <URL>
https://www.enaminestore.com/catalog/EN300-1643557

> <ROCS_ShapeQuery>
__x1247relevant_x1083L0AP1_x1305L0BP1_

> <ROCS_TanimotoCombo>
0.714 

> <ROCS_ShapeTanimoto>
0.505 

> <ROCS_ColorTanimoto>
0.210 

> <ROCS_RefTversky>
0.427 

> <ROCS_RefColorTversky>
0.239 

> <ROCS_RefTverskyCombo>
0.666 

> <ROCS_FitTversky>
1.561 

> <ROCS_FitColorTversky>
0.630 

> <ROCS_FitTverskyCombo>
2.191 

> <ROCS_ColorScore>
-7.825

> <ROCS_Overlap>
1257.940

> <ROCS_Rank>
408                 

$$$$
untitled-dbase-86085_21
  -OEChem-06232314393D

 30 32  0     1  0  0  0  0  0999 V2000
   -9.3831   14.0166  -36.4371 C   0  0  0  0  0  0  0  0  0  0  0  0
   -8.8070   14.9849  -37.2645 C   0  0  0  0  0  0  0  0  0  0  0  0
  -10.7473   13.7402  -36.5226 C   0  0  0  0  0  0  0  0  0  0  0  0
   -9.5851   15.6896  -38.1863 C   0  0  0  0  0  0  0  0  0  0  0  0
  -11.5360   14.4343  -37.4380 C   0  0  0  0  0  0  0  0  0  0  0  0
  -10.9442   15.4087  -38.2691 C   0  0  0  0  0  0  0  0  0  0  0  0
  -13.9691   14.7958  -40.1450 C   0  0  0  0  0  0  0  0  0  0  0  0
  -11.6681   17.0637  -40.0015 C   0  0  0  0  0  0  0  0  0  0  0  0
  -14.0931   15.0313  -36.8523 C   0  0  0  0  0  0  0  0  0  0  0  0
  -14.1770   16.1740  -37.8724 C   0  0  0  0  0  0  0  0  0  0  0  0
  -13.0580   14.3034  -37.7227 C   0  0  1  0  0  0  0  0  0  0  0  0
  -13.3074   15.3679  -38.8715 C   0  0  1  0  0  0  0  0  0  0  0  0
  -10.5332   17.9796  -39.6106 C   0  0  0  0  0  0  0  0  0  0  0  0
  -11.9309   16.0125  -39.1204 N   0  0  0  0  0  0  0  0  0  0  0  0
  -14.0188   13.6104  -40.4380 O   0  0  0  0  0  0  0  0  0  0  0  0
  -12.2809   17.3008  -41.0436 O   0  0  0  0  0  0  0  0  0  0  0  0
  -14.4897   15.7918  -40.9027 O   0  0  0  0  0  0  0  0  0  0  0  0
   -8.7649   13.4772  -35.7250 H   0  0  0  0  0  0  0  0  0  0  0  0
   -7.7428   15.1919  -37.1888 H   0  0  0  0  0  0  0  0  0  0  0  0
  -11.1914   12.9869  -35.8790 H   0  0  0  0  0  0  0  0  0  0  0  0
   -9.0979   16.4313  -38.8062 H   0  0  0  0  0  0  0  0  0  0  0  0
  -13.7462   15.3288  -35.8579 H   0  0  0  0  0  0  0  0  0  0  0  0
  -15.0321   14.4778  -36.7392 H   0  0  0  0  0  0  0  0  0  0  0  0
  -15.1940   16.3948  -38.2126 H   0  0  0  0  0  0  0  0  0  0  0  0
  -13.7273   17.1098  -37.5208 H   0  0  0  0  0  0  0  0  0  0  0  0
  -13.3615   13.2813  -37.9815 H   0  0  0  0  0  0  0  0  0  0  0  0
   -9.6103   17.5983  -40.0334 H   0  0  0  0  0  0  0  0  0  0  0  0
  -10.4617   18.0121  -38.5288 H   0  0  0  0  0  0  0  0  0  0  0  0
  -10.7348   18.9745  -39.9926 H   0  0  0  0  0  0  0  0  0  0  0  0
  -14.3475   16.6735  -40.4969 H   0  0  0  0  0  0  0  0  0  0  0  0
  1  2  2  0  0  0  0
  1  3  1  0  0  0  0
  2  4  1  0  0  0  0
  3  5  2  0  0  0  0
  4  6  2  0  0  0  0
  5  6  1  0  0  0  0
  5 11  1  0  0  0  0
  6 14  1  0  0  0  0
  7 12  1  0  0  0  0
  7 15  2  0  0  0  0
  7 17  1  0  0  0  0
  8 13  1  0  0  0  0
  8 14  1  0  0  0  0
  8 16  2  0  0  0  0
  9 10  1  0  0  0  0
  9 11  1  0  0  0  0
 10 12  1  0  0  0  0
 11 12  1  0  0  0  0
 12 14  1  0  0  0  0
  1 18  1  0  0  0  0
  2 19  1  0  0  0  0
  3 20  1  0  0  0  0
  4 21  1  0  0  0  0
  9 22  1  0  0  0  0
  9 23  1  0  0  0  0
 10 24  1  0  0  0  0
 10 25  1  0  0  0  0
 11 26  1  0  0  0  0
 13 27  1  0  0  0  0
 13 28  1  0  0  0  0
 13 29  1  0  0  0  0
 17 30  1  0  0  0  0
M  END
> <id>
EN300-37419461

> <smiles>
CC(=O)N1C=2C=CC=CC2C3CCC31C(=O)O

> <IUPAC Name>
3-acetyl-1H,2H,2aH,3H,7bH-cyclobuta[b]indole-2a-carboxylic acid

> <URL>
https://www.enaminestore.com/catalog/EN300-37419461

> <ROCS_ShapeQuery>
__x1247relevant_x1083L0AP1_x1305L0BP1_

> <ROCS_TanimotoCombo>
0.714 

> <ROCS_ShapeTanimoto>
0.535 

> <ROCS_ColorTanimoto>
0.179 

> <ROCS_RefTversky>
0.454 

> <ROCS_RefColorTversky>
0.205 

> <ROCS_RefTverskyCombo>
0.659 

> <ROCS_FitTversky>
1.505 

> <ROCS_FitColorTversky>
0.584 

> <ROCS_FitTverskyCombo>
2.089 

> <ROCS_ColorScore>
-6.712

> <ROCS_Overlap>
1337.958

> <ROCS_Rank>
409                 

$$$$
untitled-dbase-53604_0
  -OEChem-06232314393D

 36 38  0     1  0  0  0  0  0999 V2000
  -13.3093   16.5501  -38.9524 C   0  0  0  0  0  0  0  0  0  0  0  0
  -13.8093   14.1508  -38.4366 C   0  0  0  0  0  0  0  0  0  0  0  0
  -11.9235   16.1540  -39.4754 C   0  0  0  0  0  0  0  0  0  0  0  0
  -12.4426   13.7689  -39.0193 C   0  0  0  0  0  0  0  0  0  0  0  0
  -12.7340   15.6153  -36.7091 C   0  0  0  0  0  0  0  0  0  0  0  0
   -8.6986   14.4802  -36.3630 C   0  0  0  0  0  0  0  0  0  0  0  0
  -10.2655   16.1668  -36.7986 C   0  0  0  0  0  0  0  0  0  0  0  0
  -13.7629   15.5731  -37.8556 C   0  0  0  0  0  0  0  0  0  0  0  0
  -11.4201   14.8936  -38.7449 C   0  0  0  0  0  0  0  0  0  0  0  0
   -9.7268   13.4135  -36.7186 C   0  0  1  0  0  0  0  0  0  0  0  0
  -11.3397   15.1435  -37.2039 C   0  0  2  0  0  0  0  0  0  0  0  0
   -9.5525   12.1701  -35.8592 C   0  0  0  0  0  0  0  0  0  0  0  0
   -9.7058   12.5042  -34.4813 N   0  0  0  0  0  0  0  0  0  0  0  0
   -8.9627   15.6690  -37.1096 O   0  0  0  0  0  0  0  0  0  0  0  0
  -11.0504   13.9154  -36.5010 O   0  0  0  0  0  0  0  0  0  0  0  0
  -13.2785   17.5737  -38.5600 H   0  0  0  0  0  0  0  0  0  0  0  0
  -14.0309   16.5533  -39.7781 H   0  0  0  0  0  0  0  0  0  0  0  0
  -14.5758   14.0843  -39.2180 H   0  0  0  0  0  0  0  0  0  0  0  0
  -14.0936   13.4348  -37.6559 H   0  0  0  0  0  0  0  0  0  0  0  0
  -11.9827   15.9614  -40.5541 H   0  0  0  0  0  0  0  0  0  0  0  0
  -11.2223   16.9869  -39.3594 H   0  0  0  0  0  0  0  0  0  0  0  0
  -12.1073   12.8162  -38.5938 H   0  0  0  0  0  0  0  0  0  0  0  0
  -12.5357   13.6033  -40.0997 H   0  0  0  0  0  0  0  0  0  0  0  0
  -12.6864   16.6417  -36.3236 H   0  0  0  0  0  0  0  0  0  0  0  0
  -13.0859   14.9872  -35.8808 H   0  0  0  0  0  0  0  0  0  0  0  0
   -8.7203   14.7244  -35.2938 H   0  0  0  0  0  0  0  0  0  0  0  0
   -7.6874   14.1418  -36.6104 H   0  0  0  0  0  0  0  0  0  0  0  0
  -10.3932   17.1232  -37.3131 H   0  0  0  0  0  0  0  0  0  0  0  0
  -10.3061   16.3737  -35.7211 H   0  0  0  0  0  0  0  0  0  0  0  0
  -14.7515   15.8608  -37.4814 H   0  0  0  0  0  0  0  0  0  0  0  0
  -10.4492   14.6010  -39.1577 H   0  0  0  0  0  0  0  0  0  0  0  0
   -9.6256   13.1259  -37.7702 H   0  0  0  0  0  0  0  0  0  0  0  0
  -10.3143   11.4516  -36.1630 H   0  0  0  0  0  0  0  0  0  0  0  0
   -8.5520   11.7792  -36.0463 H   0  0  0  0  0  0  0  0  0  0  0  0
  -10.6109   12.9082  -34.3229 H   0  0  0  0  0  0  0  0  0  0  0  0
   -9.6147   11.6804  -33.9150 H   0  0  0  0  0  0  0  0  0  0  0  0
  1  3  1  0  0  0  0
  1  8  1  0  0  0  0
  2  4  1  0  0  0  0
  2  8  1  0  0  0  0
  3  9  1  0  0  0  0
  4  9  1  0  0  0  0
  5  8  1  0  0  0  0
  5 11  1  0  0  0  0
  6 10  1  0  0  0  0
  6 14  1  0  0  0  0
  7 11  1  0  0  0  0
  7 14  1  0  0  0  0
  9 11  1  0  0  0  0
 10 12  1  0  0  0  0
 10 15  1  0  0  0  0
 11 15  1  0  0  0  0
 12 13  1  0  0  0  0
  1 16  1  0  0  0  0
  1 17  1  0  0  0  0
  2 18  1  0  0  0  0
  2 19  1  0  0  0  0
  3 20  1  0  0  0  0
  3 21  1  0  0  0  0
  4 22  1  0  0  0  0
  4 23  1  0  0  0  0
  5 24  1  0  0  0  0
  5 25  1  0  0  0  0
  6 26  1  0  0  0  0
  6 27  1  0  0  0  0
  7 28  1  0  0  0  0
  7 29  1  0  0  0  0
  8 30  1  0  0  0  0
  9 31  1  0  0  0  0
 10 32  1  0  0  0  0
 12 33  1  0  0  0  0
 12 34  1  0  0  0  0
 13 35  1  0  0  0  0
 13 36  1  0  0  0  0
M  END
> <id>
EN300-1627249

> <smiles>
NCC1COCC2(CC3CCC2CC3)O1

> <IUPAC Name>
spiro[bicyclo[2.2.2]octane-2,2'-[1,4]dioxane]-6'-ylmethanamine

> <CAS>
2172497-80-0

> <URL>
https://www.enaminestore.com/catalog/EN300-1627249

> <ROCS_ShapeQuery>
__x1247relevant_x1083L0AP1_x1305L0BP1_

> <ROCS_TanimotoCombo>
0.714 

> <ROCS_ShapeTanimoto>
0.482 

> <ROCS_ColorTanimoto>
0.233 

> <ROCS_RefTversky>
0.412 

> <ROCS_RefColorTversky>
0.259 

> <ROCS_RefTverskyCombo>
0.670 

> <ROCS_FitTversky>
1.543 

> <ROCS_FitColorTversky>
0.698 

> <ROCS_FitTverskyCombo>
2.241 

> <ROCS_ColorScore>
-8.458

> <ROCS_Overlap>
1212.497

> <ROCS_Rank>
410                 

$$$$
untitled-dbase-120287_0
  -OEChem-06232314393D

 38 40  0     0  0  0  0  0  0999 V2000
   -9.9928   15.2248  -36.6057 C   0  0  0  0  0  0  0  0  0  0  0  0
  -12.3378   16.0213  -36.6955 C   0  0  0  0  0  0  0  0  0  0  0  0
  -10.9364   15.9240  -38.7728 C   0  0  0  0  0  0  0  0  0  0  0  0
  -11.7101   13.7993  -37.6821 C   0  0  0  0  0  0  0  0  0  0  0  0
  -13.3153   16.7258  -38.9014 C   0  0  0  0  0  0  0  0  0  0  0  0
  -14.0891   14.5998  -37.8065 C   0  0  0  0  0  0  0  0  0  0  0  0
  -12.6839   14.5023  -39.8892 C   0  0  0  0  0  0  0  0  0  0  0  0
  -11.2470   15.2388  -37.4365 C   0  0  0  0  0  0  0  0  0  0  0  0
  -13.6296   16.0533  -37.5445 C   0  0  0  0  0  0  0  0  0  0  0  0
  -12.2060   15.9546  -39.6547 C   0  0  0  0  0  0  0  0  0  0  0  0
  -12.9916   13.7994  -38.5462 C   0  0  0  0  0  0  0  0  0  0  0  0
  -14.7262   16.8305  -36.8102 C   0  0  0  0  0  0  0  0  0  0  0  0
  -11.9040   16.6349  -40.9933 C   0  0  0  0  0  0  0  0  0  0  0  0
  -13.4617   12.3632  -38.7960 C   0  0  0  0  0  0  0  0  0  0  0  0
   -8.9140   15.6799  -36.9556 O   0  0  0  0  0  0  0  0  0  0  0  0
  -10.2189   14.6327  -35.4075 O   0  0  0  0  0  0  0  0  0  0  0  0
  -12.5372   15.5614  -35.7178 H   0  0  0  0  0  0  0  0  0  0  0  0
  -11.9992   17.0452  -36.4857 H   0  0  0  0  0  0  0  0  0  0  0  0
  -10.5690   16.9452  -38.6013 H   0  0  0  0  0  0  0  0  0  0  0  0
  -10.1266   15.3941  -39.2929 H   0  0  0  0  0  0  0  0  0  0  0  0
  -10.9192   13.2229  -38.1815 H   0  0  0  0  0  0  0  0  0  0  0  0
  -11.8970   13.2919  -36.7257 H   0  0  0  0  0  0  0  0  0  0  0  0
  -14.2243   16.7682  -39.5166 H   0  0  0  0  0  0  0  0  0  0  0  0
  -13.0015   17.7656  -38.7382 H   0  0  0  0  0  0  0  0  0  0  0  0
  -14.3317   14.1081  -36.8547 H   0  0  0  0  0  0  0  0  0  0  0  0
  -15.0133   14.6018  -38.3999 H   0  0  0  0  0  0  0  0  0  0  0  0
  -13.5803   14.5023  -40.5241 H   0  0  0  0  0  0  0  0  0  0  0  0
  -11.9151   13.9403  -40.4367 H   0  0  0  0  0  0  0  0  0  0  0  0
  -15.6294   16.8468  -37.4154 H   0  0  0  0  0  0  0  0  0  0  0  0
  -14.3937   17.8503  -36.6322 H   0  0  0  0  0  0  0  0  0  0  0  0
  -14.9391   16.3497  -35.8584 H   0  0  0  0  0  0  0  0  0  0  0  0
  -12.8027   16.6511  -41.6052 H   0  0  0  0  0  0  0  0  0  0  0  0
  -11.1238   16.0851  -41.5140 H   0  0  0  0  0  0  0  0  0  0  0  0
  -11.5700   17.6545  -40.8170 H   0  0  0  0  0  0  0  0  0  0  0  0
  -14.3628   12.3750  -39.4042 H   0  0  0  0  0  0  0  0  0  0  0  0
  -13.6747   11.8789  -37.8462 H   0  0  0  0  0  0  0  0  0  0  0  0
  -12.6834   11.8100  -39.3160 H   0  0  0  0  0  0  0  0  0  0  0  0
   -9.4114   14.6120  -34.8509 H   0  0  0  0  0  0  0  0  0  0  0  0
  1  8  1  0  0  0  0
  1 15  2  0  0  0  0
  1 16  1  0  0  0  0
  2  8  1  0  0  0  0
  2  9  1  0  0  0  0
  3  8  1  0  0  0  0
  3 10  1  0  0  0  0
  4  8  1  0  0  0  0
  4 11  1  0  0  0  0
  5  9  1  0  0  0  0
  5 10  1  0  0  0  0
  6  9  1  0  0  0  0
  6 11  1  0  0  0  0
  7 10  1  0  0  0  0
  7 11  1  0  0  0  0
  9 12  1  0  0  0  0
 10 13  1  0  0  0  0
 11 14  1  0  0  0  0
  2 17  1  0  0  0  0
  2 18  1  0  0  0  0
  3 19  1  0  0  0  0
  3 20  1  0  0  0  0
  4 21  1  0  0  0  0
  4 22  1  0  0  0  0
  5 23  1  0  0  0  0
  5 24  1  0  0  0  0
  6 25  1  0  0  0  0
  6 26  1  0  0  0  0
  7 27  1  0  0  0  0
  7 28  1  0  0  0  0
 12 29  1  0  0  0  0
 12 30  1  0  0  0  0
 12 31  1  0  0  0  0
 13 32  1  0  0  0  0
 13 33  1  0  0  0  0
 13 34  1  0  0  0  0
 14 35  1  0  0  0  0
 14 36  1  0  0  0  0
 14 37  1  0  0  0  0
 16 38  1  0  0  0  0
M  END
> <id>
EN300-141232

> <smiles>
CC1(CC2(C)CC3(C)C1)CC(C2)(C3)C(=O)O

> <MDLNUMBER>
MFCD00187581

> <IUPAC Name>
3,5,7-trimethyladamantane-1-carboxylic acid

> <CAS>
15291-66-4

> <Purity>
95

> <URL>
https://www.enaminestore.com/catalog/EN300-141232

> <MP>
139-141

> <ROCS_ShapeQuery>
__x1247relevant_x1083L0AP1_x1305L0BP1_

> <ROCS_TanimotoCombo>
0.714 

> <ROCS_ShapeTanimoto>
0.502 

> <ROCS_ColorTanimoto>
0.212 

> <ROCS_RefTversky>
0.429 

> <ROCS_RefColorTversky>
0.232 

> <ROCS_RefTverskyCombo>
0.661 

> <ROCS_FitTversky>
1.512 

> <ROCS_FitColorTversky>
0.709 

> <ROCS_FitTverskyCombo>
2.221 

> <ROCS_ColorScore>
-7.576

> <ROCS_Overlap>
1264.831

> <ROCS_Rank>
411                 

$$$$
untitled-dbase-67878_7
  -OEChem-06232314393D

 25 27  0     1  0  0  0  0  0999 V2000
   -9.5618   15.2417  -36.2994 C   0  0  0  0  0  0  0  0  0  0  0  0
  -14.4352   15.5202  -38.8577 C   0  0  0  0  0  0  0  0  0  0  0  0
  -13.4599   16.6662  -39.1671 C   0  0  0  0  0  0  0  0  0  0  0  0
  -11.8059   13.2803  -36.9626 C   0  0  0  0  0  0  0  0  0  0  0  0
  -10.2863   14.9441  -37.5748 C   0  0  2  0  0  0  0  0  0  0  0  0
  -13.2526   14.5564  -38.7147 C   0  0  1  0  0  0  0  0  0  0  0  0
  -12.2852   15.6848  -39.0698 C   0  0  2  0  0  0  0  0  0  0  0  0
  -12.6628   14.4945  -37.2915 C   0  0  2  0  0  0  0  0  0  0  0  0
  -11.6602   15.6002  -37.6618 C   0  0  1  0  0  0  0  0  0  0  0  0
  -10.4997   13.4899  -37.6030 N   0  0  0  0  0  0  0  0  0  0  0  0
   -9.9992   15.0305  -35.1780 O   0  0  0  0  0  0  0  0  0  0  0  0
   -8.3461   15.7841  -36.5547 O   0  0  0  0  0  0  0  0  0  0  0  0
  -15.0445   15.6615  -37.9596 H   0  0  0  0  0  0  0  0  0  0  0  0
  -15.1013   15.2757  -39.6922 H   0  0  0  0  0  0  0  0  0  0  0  0
  -13.5930   17.1001  -40.1638 H   0  0  0  0  0  0  0  0  0  0  0  0
  -13.4608   17.4794  -38.4344 H   0  0  0  0  0  0  0  0  0  0  0  0
  -11.6688   13.2044  -35.8772 H   0  0  0  0  0  0  0  0  0  0  0  0
  -12.2638   12.3481  -37.3072 H   0  0  0  0  0  0  0  0  0  0  0  0
   -9.6346   15.2448  -38.3991 H   0  0  0  0  0  0  0  0  0  0  0  0
  -13.2348   13.6623  -39.3391 H   0  0  0  0  0  0  0  0  0  0  0  0
  -11.6529   15.5479  -39.9480 H   0  0  0  0  0  0  0  0  0  0  0  0
  -13.3719   14.7468  -36.4955 H   0  0  0  0  0  0  0  0  0  0  0  0
  -11.7458   16.5284  -37.0850 H   0  0  0  0  0  0  0  0  0  0  0  0
   -9.7620   12.9796  -37.1215 H   0  0  0  0  0  0  0  0  0  0  0  0
   -7.8555   15.9883  -35.7301 H   0  0  0  0  0  0  0  0  0  0  0  0
  1  5  1  0  0  0  0
  1 11  2  0  0  0  0
  1 12  1  0  0  0  0
  2  3  1  0  0  0  0
  2  6  1  0  0  0  0
  3  7  1  0  0  0  0
  4  8  1  0  0  0  0
  4 10  1  0  0  0  0
  5  9  1  0  0  0  0
  5 10  1  0  0  0  0
  6  7  1  0  0  0  0
  6  8  1  0  0  0  0
  7  9  1  0  0  0  0
  8  9  1  0  0  0  0
  2 13  1  0  0  0  0
  2 14  1  0  0  0  0
  3 15  1  0  0  0  0
  3 16  1  0  0  0  0
  4 17  1  0  0  0  0
  4 18  1  0  0  0  0
  5 19  1  0  0  0  0
  6 20  1  0  0  0  0
  7 21  1  0  0  0  0
  8 22  1  0  0  0  0
  9 23  1  0  0  0  0
 10 24  1  0  0  0  0
 12 25  1  0  0  0  0
M  END
> <id>
EN300-37394481

> <smiles>
OC(=O)C1NCC2C3CCC3C21

> <IUPAC Name>
8-azatricyclo[4.3.0.0,2,5]nonane-7-carboxylic acid

> <URL>
https://www.enaminestore.com/catalog/EN300-37394481

> <ROCS_ShapeQuery>
__x1247relevant_x1083L0AP1_x1305L0BP1_

> <ROCS_TanimotoCombo>
0.714 

> <ROCS_ShapeTanimoto>
0.462 

> <ROCS_ColorTanimoto>
0.252 

> <ROCS_RefTversky>
0.388 

> <ROCS_RefColorTversky>
0.301 

> <ROCS_RefTverskyCombo>
0.689 

> <ROCS_FitTversky>
1.705 

> <ROCS_FitColorTversky>
0.607 

> <ROCS_FitTverskyCombo>
2.312 

> <ROCS_ColorScore>
-9.913

> <ROCS_Overlap>
1140.114

> <ROCS_Rank>
412                 

$$$$
untitled-dbase-118277_98
  -OEChem-06232314393D

 38 39  0     1  0  0  0  0  0999 V2000
  -10.1158   15.0625  -37.0949 C   0  0  0  0  0  0  0  0  0  0  0  0
  -13.3548   16.9471  -40.3869 C   0  0  0  0  0  0  0  0  0  0  0  0
  -12.5506   15.8349  -37.0564 C   0  0  0  0  0  0  0  0  0  0  0  0
  -13.3854   14.1346  -38.4484 C   0  0  0  0  0  0  0  0  0  0  0  0
  -11.3463   16.0732  -39.0978 C   0  0  0  0  0  0  0  0  0  0  0  0
  -13.5086   15.6475  -38.2260 C   0  0  2  0  0  0  0  0  0  0  0  0
  -11.3964   15.2089  -37.8303 C   0  0  1  0  0  0  0  0  0  0  0  0
  -15.0413   14.8733  -41.3963 C   0  0  0  0  0  0  0  0  0  0  0  0
  -16.9324   16.4851  -41.0283 C   0  0  0  0  0  0  0  0  0  0  0  0
  -15.1028   17.0535  -42.6524 C   0  0  0  0  0  0  0  0  0  0  0  0
   -8.8987   13.5774  -35.7175 C   0  0  0  0  0  0  0  0  0  0  0  0
  -15.4442   16.3462  -41.3416 C   0  0  0  0  0  0  0  0  0  0  0  0
  -11.9526   13.8723  -38.1516 N   0  0  0  0  0  0  0  0  0  0  0  0
  -12.7743   16.2970  -39.3195 N   0  0  0  0  0  0  0  0  0  0  0  0
   -9.2378   15.9144  -37.0715 O   0  0  0  0  0  0  0  0  0  0  0  0
  -12.7279   17.4395  -41.3216 O   0  0  0  0  0  0  0  0  0  0  0  0
  -10.0857   13.8518  -36.4685 O   0  0  0  0  0  0  0  0  0  0  0  0
  -14.7192   16.9778  -40.2806 O   0  0  0  0  0  0  0  0  0  0  0  0
  -12.3821   16.8858  -36.7948 H   0  0  0  0  0  0  0  0  0  0  0  0
  -12.8365   15.2834  -36.1529 H   0  0  0  0  0  0  0  0  0  0  0  0
  -14.0168   13.5818  -37.7440 H   0  0  0  0  0  0  0  0  0  0  0  0
  -13.6436   13.8301  -39.4675 H   0  0  0  0  0  0  0  0  0  0  0  0
  -10.8534   17.0391  -38.9425 H   0  0  0  0  0  0  0  0  0  0  0  0
  -10.8988   15.5735  -39.9632 H   0  0  0  0  0  0  0  0  0  0  0  0
  -14.5272   16.0197  -38.1039 H   0  0  0  0  0  0  0  0  0  0  0  0
  -13.9738   14.7694  -41.6210 H   0  0  0  0  0  0  0  0  0  0  0  0
  -15.2488   14.3630  -40.4501 H   0  0  0  0  0  0  0  0  0  0  0  0
  -15.5779   14.3506  -42.1963 H   0  0  0  0  0  0  0  0  0  0  0  0
  -17.2258   17.5403  -40.9881 H   0  0  0  0  0  0  0  0  0  0  0  0
  -17.1651   16.0623  -40.0442 H   0  0  0  0  0  0  0  0  0  0  0  0
  -17.5517   15.9813  -41.7774 H   0  0  0  0  0  0  0  0  0  0  0  0
  -15.3917   18.1100  -42.6134 H   0  0  0  0  0  0  0  0  0  0  0  0
  -14.0324   16.9958  -42.8748 H   0  0  0  0  0  0  0  0  0  0  0  0
  -15.6566   16.6122  -43.4890 H   0  0  0  0  0  0  0  0  0  0  0  0
   -8.9772   12.5885  -35.2592 H   0  0  0  0  0  0  0  0  0  0  0  0
   -8.7709   14.3398  -34.9450 H   0  0  0  0  0  0  0  0  0  0  0  0
   -8.0391   13.5968  -36.3916 H   0  0  0  0  0  0  0  0  0  0  0  0
  -11.9052   13.2776  -37.3231 H   0  0  0  0  0  0  0  0  0  0  0  0
  1  7  1  0  0  0  0
  1 15  2  0  0  0  0
  1 17  1  0  0  0  0
  2 14  1  0  0  0  0
  2 16  2  0  0  0  0
  2 18  1  0  0  0  0
  3  6  1  0  0  0  0
  3  7  1  0  0  0  0
  4  6  1  0  0  0  0
  4 13  1  0  0  0  0
  5  7  1  0  0  0  0
  5 14  1  0  0  0  0
  6 14  1  0  0  0  0
  7 13  1  0  0  0  0
  8 12  1  0  0  0  0
  9 12  1  0  0  0  0
 10 12  1  0  0  0  0
 11 17  1  0  0  0  0
 12 18  1  0  0  0  0
  3 19  1  0  0  0  0
  3 20  1  0  0  0  0
  4 21  1  0  0  0  0
  4 22  1  0  0  0  0
  5 23  1  0  0  0  0
  5 24  1  0  0  0  0
  6 25  1  0  0  0  0
  8 26  1  0  0  0  0
  8 27  1  0  0  0  0
  8 28  1  0  0  0  0
  9 29  1  0  0  0  0
  9 30  1  0  0  0  0
  9 31  1  0  0  0  0
 10 32  1  0  0  0  0
 10 33  1  0  0  0  0
 10 34  1  0  0  0  0
 11 35  1  0  0  0  0
 11 36  1  0  0  0  0
 11 37  1  0  0  0  0
 13 38  1  0  0  0  0
M  END
> <id>
EN300-6735760

> <smiles>
COC(=O)C1(CC2CN1)CN2C(=O)OC(C)(C)C

> <MDLNUMBER>
MFCD31746656

> <IUPAC Name>
5-tert-butyl 1-methyl 2,5-diazabicyclo[2.2.1]heptane-1,5-dicarboxylate

> <CAS>
1779398-44-5

> <Purity>
95

> <URL>
https://www.enaminestore.com/catalog/EN300-6735760

> <ROCS_ShapeQuery>
__x1247relevant_x1083L0AP1_x1305L0BP1_

> <ROCS_TanimotoCombo>
0.714 

> <ROCS_ShapeTanimoto>
0.487 

> <ROCS_ColorTanimoto>
0.227 

> <ROCS_RefTversky>
0.430 

> <ROCS_RefColorTversky>
0.256 

> <ROCS_RefTverskyCombo>
0.686 

> <ROCS_FitTversky>
1.371 

> <ROCS_FitColorTversky>
0.669 

> <ROCS_FitTverskyCombo>
2.039 

> <ROCS_ColorScore>
-8.372

> <ROCS_Overlap>
1270.359

> <ROCS_Rank>
413                 

$$$$
untitled-dbase-19107_8
  -OEChem-06232314393D

 32 34  0     0  0  0  0  0  0999 V2000
  -13.9142   15.8255  -39.2799 C   0  0  0  0  0  0  0  0  0  0  0  0
  -11.8474   14.5059  -39.7909 C   0  0  0  0  0  0  0  0  0  0  0  0
  -13.3713   13.7919  -37.9222 C   0  0  0  0  0  0  0  0  0  0  0  0
  -11.6539   16.7731  -38.7705 C   0  0  0  0  0  0  0  0  0  0  0  0
  -13.1813   16.0575  -36.8974 C   0  0  0  0  0  0  0  0  0  0  0  0
  -13.3121   14.4115  -39.3292 C   0  0  0  0  0  0  0  0  0  0  0  0
  -13.1159   16.6971  -38.2958 C   0  0  0  0  0  0  0  0  0  0  0  0
  -11.0262   15.3621  -38.7969 C   0  0  0  0  0  0  0  0  0  0  0  0
  -12.5528   14.6467  -36.9249 C   0  0  0  0  0  0  0  0  0  0  0  0
  -11.0617   14.7140  -37.3784 C   0  0  0  0  0  0  0  0  0  0  0  0
  -10.1964   15.5036  -36.3731 C   0  0  0  0  0  0  0  0  0  0  0  0
  -10.4426   13.3758  -37.3936 N   0  0  0  0  0  0  0  0  0  0  0  0
   -9.0141   15.8956  -37.0344 O   0  0  0  0  0  0  0  0  0  0  0  0
  -13.8981   16.2763  -40.2799 H   0  0  0  0  0  0  0  0  0  0  0  0
  -14.9656   15.7760  -38.9712 H   0  0  0  0  0  0  0  0  0  0  0  0
  -11.4183   13.5051  -39.9073 H   0  0  0  0  0  0  0  0  0  0  0  0
  -11.8069   14.9647  -40.7874 H   0  0  0  0  0  0  0  0  0  0  0  0
  -14.4154   13.7399  -37.5877 H   0  0  0  0  0  0  0  0  0  0  0  0
  -13.0137   12.7569  -37.9462 H   0  0  0  0  0  0  0  0  0  0  0  0
  -11.6154   17.2123  -39.7757 H   0  0  0  0  0  0  0  0  0  0  0  0
  -11.0810   17.4479  -38.1263 H   0  0  0  0  0  0  0  0  0  0  0  0
  -12.6808   16.6975  -36.1635 H   0  0  0  0  0  0  0  0  0  0  0  0
  -14.2276   15.9885  -36.5728 H   0  0  0  0  0  0  0  0  0  0  0  0
  -13.8835   13.7937  -40.0309 H   0  0  0  0  0  0  0  0  0  0  0  0
  -13.5479   17.7035  -38.2634 H   0  0  0  0  0  0  0  0  0  0  0  0
   -9.9919   15.4356  -39.1551 H   0  0  0  0  0  0  0  0  0  0  0  0
  -12.6269   14.2015  -35.9249 H   0  0  0  0  0  0  0  0  0  0  0  0
   -9.9573   14.8628  -35.5321 H   0  0  0  0  0  0  0  0  0  0  0  0
  -10.7457   16.3779  -36.0432 H   0  0  0  0  0  0  0  0  0  0  0  0
   -9.6806   13.3945  -36.7647 H   0  0  0  0  0  0  0  0  0  0  0  0
  -11.1314   12.7278  -37.1069 H   0  0  0  0  0  0  0  0  0  0  0  0
   -8.5622   15.0843  -37.3283 H   0  0  0  0  0  0  0  0  0  0  0  0
  1  6  1  0  0  0  0
  1  7  1  0  0  0  0
  2  6  1  0  0  0  0
  2  8  1  0  0  0  0
  3  6  1  0  0  0  0
  3  9  1  0  0  0  0
  4  7  1  0  0  0  0
  4  8  1  0  0  0  0
  5  7  1  0  0  0  0
  5  9  1  0  0  0  0
  8 10  1  0  0  0  0
  9 10  1  0  0  0  0
 10 11  1  0  0  0  0
 10 12  1  0  0  0  0
 11 13  1  0  0  0  0
  1 14  1  0  0  0  0
  1 15  1  0  0  0  0
  2 16  1  0  0  0  0
  2 17  1  0  0  0  0
  3 18  1  0  0  0  0
  3 19  1  0  0  0  0
  4 20  1  0  0  0  0
  4 21  1  0  0  0  0
  5 22  1  0  0  0  0
  5 23  1  0  0  0  0
  6 24  1  0  0  0  0
  7 25  1  0  0  0  0
  8 26  1  0  0  0  0
  9 27  1  0  0  0  0
 11 28  1  0  0  0  0
 11 29  1  0  0  0  0
 12 30  1  0  0  0  0
 12 31  1  0  0  0  0
 13 32  1  0  0  0  0
M  END
> <id>
EN300-254420

> <smiles>
Cl.NC1(CO)C2CC3CC(C2)CC1C3

> <MDLNUMBER>
MFCD29060340

> <IUPAC Name>
(2-aminoadamantan-2-yl)methanol hydrochloride

> <CAS>
1257334-61-4

> <Purity>
95

> <URL>
https://www.enaminestore.com/catalog/EN300-254420

> <Saltdate>
Cl

> <ROCS_ShapeQuery>
__x1247relevant_x1083L0AP1_x1305L0BP1_

> <ROCS_TanimotoCombo>
0.714 

> <ROCS_ShapeTanimoto>
0.480 

> <ROCS_ColorTanimoto>
0.233 

> <ROCS_RefTversky>
0.402 

> <ROCS_RefColorTversky>
0.256 

> <ROCS_RefTverskyCombo>
0.659 

> <ROCS_FitTversky>
1.682 

> <ROCS_FitColorTversky>
0.721 

> <ROCS_FitTverskyCombo>
2.403 

> <ROCS_ColorScore>
-8.382

> <ROCS_Overlap>
1182.223

> <ROCS_Rank>
414                 

$$$$
untitled-dbase-108925_8
  -OEChem-06232314393D

 32 34  0     0  0  0  0  0  0999 V2000
  -13.9142   15.8255  -39.2799 C   0  0  0  0  0  0  0  0  0  0  0  0
  -11.8474   14.5059  -39.7909 C   0  0  0  0  0  0  0  0  0  0  0  0
  -13.3713   13.7919  -37.9222 C   0  0  0  0  0  0  0  0  0  0  0  0
  -11.6539   16.7731  -38.7705 C   0  0  0  0  0  0  0  0  0  0  0  0
  -13.1813   16.0575  -36.8974 C   0  0  0  0  0  0  0  0  0  0  0  0
  -13.3121   14.4115  -39.3292 C   0  0  0  0  0  0  0  0  0  0  0  0
  -13.1159   16.6971  -38.2958 C   0  0  0  0  0  0  0  0  0  0  0  0
  -11.0262   15.3621  -38.7969 C   0  0  0  0  0  0  0  0  0  0  0  0
  -12.5528   14.6467  -36.9249 C   0  0  0  0  0  0  0  0  0  0  0  0
  -11.0617   14.7140  -37.3784 C   0  0  0  0  0  0  0  0  0  0  0  0
  -10.1964   15.5036  -36.3731 C   0  0  0  0  0  0  0  0  0  0  0  0
  -10.4426   13.3758  -37.3936 N   0  0  0  0  0  0  0  0  0  0  0  0
   -9.0141   15.8956  -37.0344 O   0  0  0  0  0  0  0  0  0  0  0  0
  -13.8981   16.2763  -40.2799 H   0  0  0  0  0  0  0  0  0  0  0  0
  -14.9656   15.7760  -38.9712 H   0  0  0  0  0  0  0  0  0  0  0  0
  -11.4183   13.5051  -39.9073 H   0  0  0  0  0  0  0  0  0  0  0  0
  -11.8069   14.9647  -40.7874 H   0  0  0  0  0  0  0  0  0  0  0  0
  -14.4154   13.7399  -37.5877 H   0  0  0  0  0  0  0  0  0  0  0  0
  -13.0137   12.7569  -37.9462 H   0  0  0  0  0  0  0  0  0  0  0  0
  -11.6154   17.2123  -39.7757 H   0  0  0  0  0  0  0  0  0  0  0  0
  -11.0810   17.4479  -38.1263 H   0  0  0  0  0  0  0  0  0  0  0  0
  -12.6808   16.6975  -36.1635 H   0  0  0  0  0  0  0  0  0  0  0  0
  -14.2276   15.9885  -36.5728 H   0  0  0  0  0  0  0  0  0  0  0  0
  -13.8835   13.7937  -40.0309 H   0  0  0  0  0  0  0  0  0  0  0  0
  -13.5479   17.7035  -38.2634 H   0  0  0  0  0  0  0  0  0  0  0  0
   -9.9919   15.4356  -39.1551 H   0  0  0  0  0  0  0  0  0  0  0  0
  -12.6269   14.2015  -35.9249 H   0  0  0  0  0  0  0  0  0  0  0  0
   -9.9573   14.8628  -35.5321 H   0  0  0  0  0  0  0  0  0  0  0  0
  -10.7457   16.3779  -36.0432 H   0  0  0  0  0  0  0  0  0  0  0  0
   -9.6806   13.3945  -36.7647 H   0  0  0  0  0  0  0  0  0  0  0  0
  -11.1314   12.7278  -37.1069 H   0  0  0  0  0  0  0  0  0  0  0  0
   -8.5622   15.0843  -37.3283 H   0  0  0  0  0  0  0  0  0  0  0  0
  1  6  1  0  0  0  0
  1  7  1  0  0  0  0
  2  6  1  0  0  0  0
  2  8  1  0  0  0  0
  3  6  1  0  0  0  0
  3  9  1  0  0  0  0
  4  7  1  0  0  0  0
  4  8  1  0  0  0  0
  5  7  1  0  0  0  0
  5  9  1  0  0  0  0
  8 10  1  0  0  0  0
  9 10  1  0  0  0  0
 10 11  1  0  0  0  0
 10 12  1  0  0  0  0
 11 13  1  0  0  0  0
  1 14  1  0  0  0  0
  1 15  1  0  0  0  0
  2 16  1  0  0  0  0
  2 17  1  0  0  0  0
  3 18  1  0  0  0  0
  3 19  1  0  0  0  0
  4 20  1  0  0  0  0
  4 21  1  0  0  0  0
  5 22  1  0  0  0  0
  5 23  1  0  0  0  0
  6 24  1  0  0  0  0
  7 25  1  0  0  0  0
  8 26  1  0  0  0  0
  9 27  1  0  0  0  0
 11 28  1  0  0  0  0
 11 29  1  0  0  0  0
 12 30  1  0  0  0  0
 12 31  1  0  0  0  0
 13 32  1  0  0  0  0
M  END
> <id>
EN300-254421

> <smiles>
NC1(CO)C2CC3CC(C2)CC1C3

> <MDLNUMBER>
MFCD20410565

> <IUPAC Name>
(2-aminoadamantan-2-yl)methanol

> <CAS>
55213-85-9

> <URL>
https://www.enaminestore.com/catalog/EN300-254421

> <ROCS_ShapeQuery>
__x1247relevant_x1083L0AP1_x1305L0BP1_

> <ROCS_TanimotoCombo>
0.714 

> <ROCS_ShapeTanimoto>
0.480 

> <ROCS_ColorTanimoto>
0.233 

> <ROCS_RefTversky>
0.402 

> <ROCS_RefColorTversky>
0.256 

> <ROCS_RefTverskyCombo>
0.659 

> <ROCS_FitTversky>
1.682 

> <ROCS_FitColorTversky>
0.721 

> <ROCS_FitTverskyCombo>
2.403 

> <ROCS_ColorScore>
-8.382

> <ROCS_Overlap>
1182.223

> <ROCS_Rank>
415                 

$$$$
untitled-dbase-92791_101
  -OEChem-06232314393D

 36 37  0     1  0  0  0  0  0999 V2000
  -14.3157   15.0714  -40.3588 C   0  0  0  0  0  0  0  0  0  0  0  0
   -9.9360   14.8521  -37.0783 C   0  0  0  0  0  0  0  0  0  0  0  0
  -12.0622   15.8600  -39.5291 C   0  0  0  0  0  0  0  0  0  0  0  0
  -13.3382   15.9706  -37.5301 C   0  0  0  0  0  0  0  0  0  0  0  0
  -12.2621   13.8701  -37.3585 C   0  0  0  0  0  0  0  0  0  0  0  0
  -13.1006   14.7159  -39.5586 C   0  0  1  0  0  0  0  0  0  0  0  0
  -13.4596   14.5337  -38.0632 C   0  0  2  0  0  0  0  0  0  0  0  0
  -11.9002   16.1238  -38.0202 C   0  0  1  0  0  0  0  0  0  0  0  0
   -9.7428   14.6821  -34.4721 C   0  0  0  0  0  0  0  0  0  0  0  0
   -9.5274   12.1895  -34.6953 C   0  0  0  0  0  0  0  0  0  0  0  0
   -7.5960   13.6719  -35.3120 C   0  0  0  0  0  0  0  0  0  0  0  0
   -9.1180   13.5418  -35.2747 C   0  0  0  0  0  0  0  0  0  0  0  0
  -11.2650   14.9377  -37.4357 N   0  0  0  0  0  0  0  0  0  0  0  0
  -15.0399   14.2691  -40.9292 O   0  0  0  0  0  0  0  0  0  0  0  0
   -9.1358   15.7805  -37.1621 O   0  0  0  0  0  0  0  0  0  0  0  0
  -14.5063   16.4133  -40.3691 O   0  0  0  0  0  0  0  0  0  0  0  0
   -9.6138   13.6042  -36.6165 O   0  0  0  0  0  0  0  0  0  0  0  0
  -11.1160   15.5621  -39.9940 H   0  0  0  0  0  0  0  0  0  0  0  0
  -12.4260   16.7572  -40.0430 H   0  0  0  0  0  0  0  0  0  0  0  0
  -14.0343   16.6758  -37.9946 H   0  0  0  0  0  0  0  0  0  0  0  0
  -13.4296   16.0338  -36.4402 H   0  0  0  0  0  0  0  0  0  0  0  0
  -12.4625   13.6606  -36.3027 H   0  0  0  0  0  0  0  0  0  0  0  0
  -11.8978   12.9649  -37.8529 H   0  0  0  0  0  0  0  0  0  0  0  0
  -12.6790   13.8022  -39.9882 H   0  0  0  0  0  0  0  0  0  0  0  0
  -14.4195   14.0498  -37.8719 H   0  0  0  0  0  0  0  0  0  0  0  0
  -11.3861   17.0537  -37.7711 H   0  0  0  0  0  0  0  0  0  0  0  0
   -9.4513   15.6545  -34.8848 H   0  0  0  0  0  0  0  0  0  0  0  0
  -10.8359   14.6200  -34.4669 H   0  0  0  0  0  0  0  0  0  0  0  0
   -9.3904   14.6686  -33.4343 H   0  0  0  0  0  0  0  0  0  0  0  0
   -9.0814   11.3684  -35.2682 H   0  0  0  0  0  0  0  0  0  0  0  0
  -10.6132   12.0524  -34.7538 H   0  0  0  0  0  0  0  0  0  0  0  0
   -9.2210   12.0887  -33.6491 H   0  0  0  0  0  0  0  0  0  0  0  0
   -7.1476   12.8541  -35.8877 H   0  0  0  0  0  0  0  0  0  0  0  0
   -7.2832   14.6212  -35.7589 H   0  0  0  0  0  0  0  0  0  0  0  0
   -7.1745   13.6066  -34.3024 H   0  0  0  0  0  0  0  0  0  0  0  0
  -15.2976   16.6670  -40.8905 H   0  0  0  0  0  0  0  0  0  0  0  0
  1  6  1  0  0  0  0
  1 14  2  0  0  0  0
  1 16  1  0  0  0  0
  2 13  1  0  0  0  0
  2 15  2  0  0  0  0
  2 17  1  0  0  0  0
  3  6  1  0  0  0  0
  3  8  1  0  0  0  0
  4  7  1  0  0  0  0
  4  8  1  0  0  0  0
  5  7  1  0  0  0  0
  5 13  1  0  0  0  0
  6  7  1  0  0  0  0
  8 13  1  0  0  0  0
  9 12  1  0  0  0  0
 10 12  1  0  0  0  0
 11 12  1  0  0  0  0
 12 17  1  0  0  0  0
  3 18  1  0  0  0  0
  3 19  1  0  0  0  0
  4 20  1  0  0  0  0
  4 21  1  0  0  0  0
  5 22  1  0  0  0  0
  5 23  1  0  0  0  0
  6 24  1  0  0  0  0
  7 25  1  0  0  0  0
  8 26  1  0  0  0  0
  9 27  1  0  0  0  0
  9 28  1  0  0  0  0
  9 29  1  0  0  0  0
 10 30  1  0  0  0  0
 10 31  1  0  0  0  0
 10 32  1  0  0  0  0
 11 33  1  0  0  0  0
 11 34  1  0  0  0  0
 11 35  1  0  0  0  0
 16 36  1  0  0  0  0
M  END
> <id>
EN300-218912

> <smiles>
CC(C)(C)OC(=O)N1CC2CC1CC2C(=O)O

> <MDLNUMBER>
MFCD22209677

> <IUPAC Name>
2-[(tert-butoxy)carbonyl]-2-azabicyclo[2.2.1]heptane-5-carboxylic acid

> <CAS>
1363210-41-6

> <URL>
https://www.enaminestore.com/catalog/EN300-218912

> <ROCS_ShapeQuery>
__x1247relevant_x1083L0AP1_x1305L0BP1_

> <ROCS_TanimotoCombo>
0.714 

> <ROCS_ShapeTanimoto>
0.524 

> <ROCS_ColorTanimoto>
0.189 

> <ROCS_RefTversky>
0.446 

> <ROCS_RefColorTversky>
0.220 

> <ROCS_RefTverskyCombo>
0.666 

> <ROCS_FitTversky>
1.501 

> <ROCS_FitColorTversky>
0.576 

> <ROCS_FitTverskyCombo>
2.077 

> <ROCS_ColorScore>
-7.200

> <ROCS_Overlap>
1316.272

> <ROCS_Rank>
416                 

$$$$
untitled-dbase-110100_34
  -OEChem-06232314393D

 32 34  0     1  0  0  0  0  0999 V2000
  -10.2319   15.0367  -36.6704 C   0  0  0  0  0  0  0  0  0  0  0  0
  -13.0699   13.4376  -38.7971 C   0  0  0  0  0  0  0  0  0  0  0  0
  -14.0693   15.1693  -37.2556 C   0  0  0  0  0  0  0  0  0  0  0  0
  -13.7395   15.6795  -39.6839 C   0  0  0  0  0  0  0  0  0  0  0  0
  -11.3135   15.0685  -39.4840 C   0  0  0  0  0  0  0  0  0  0  0  0
  -12.3114   16.7958  -37.9546 C   0  0  0  0  0  0  0  0  0  0  0  0
  -14.1007   14.5763  -38.6772 C   0  0  0  0  0  0  0  0  0  0  0  0
  -11.6527   13.9597  -38.4612 C   0  0  1  0  0  0  0  0  0  0  0  0
  -12.6527   15.6948  -36.9251 C   0  0  2  0  0  0  0  0  0  0  0  0
  -11.6147   14.5423  -37.0208 C   0  0  0  0  0  0  0  0  0  0  0  0
  -12.3315   16.2180  -39.3797 C   0  0  0  0  0  0  0  0  0  0  0  0
  -11.8585   13.5098  -36.0081 N   0  0  0  0  0  0  0  0  0  0  0  0
   -9.4214   15.4800  -37.4703 O   0  0  0  0  0  0  0  0  0  0  0  0
  -10.0049   14.9203  -35.3391 O   0  0  0  0  0  0  0  0  0  0  0  0
  -12.0140   17.2343  -40.3200 O   0  0  0  0  0  0  0  0  0  0  0  0
  -13.3460   12.6085  -38.1362 H   0  0  0  0  0  0  0  0  0  0  0  0
  -13.0825   13.0325  -39.8171 H   0  0  0  0  0  0  0  0  0  0  0  0
  -14.7923   15.9920  -37.1838 H   0  0  0  0  0  0  0  0  0  0  0  0
  -14.3924   14.4190  -36.5260 H   0  0  0  0  0  0  0  0  0  0  0  0
  -13.7832   15.2929  -40.7104 H   0  0  0  0  0  0  0  0  0  0  0  0
  -14.4744   16.4940  -39.6437 H   0  0  0  0  0  0  0  0  0  0  0  0
  -10.2954   15.4474  -39.3314 H   0  0  0  0  0  0  0  0  0  0  0  0
  -11.3169   14.6590  -40.5029 H   0  0  0  0  0  0  0  0  0  0  0  0
  -13.0297   17.6227  -37.8762 H   0  0  0  0  0  0  0  0  0  0  0  0
  -11.3339   17.2457  -37.7410 H   0  0  0  0  0  0  0  0  0  0  0  0
  -15.1033   14.1926  -38.8961 H   0  0  0  0  0  0  0  0  0  0  0  0
  -10.9263   13.1445  -38.5701 H   0  0  0  0  0  0  0  0  0  0  0  0
  -12.6500   16.1358  -35.9204 H   0  0  0  0  0  0  0  0  0  0  0  0
  -12.6604   13.7745  -35.4904 H   0  0  0  0  0  0  0  0  0  0  0  0
  -12.0071   12.6512  -36.4793 H   0  0  0  0  0  0  0  0  0  0  0  0
   -9.1095   15.2350  -35.0912 H   0  0  0  0  0  0  0  0  0  0  0  0
  -11.1228   17.5514  -40.1007 H   0  0  0  0  0  0  0  0  0  0  0  0
  1 10  1  0  0  0  0
  1 13  2  0  0  0  0
  1 14  1  0  0  0  0
  2  7  1  0  0  0  0
  2  8  1  0  0  0  0
  3  7  1  0  0  0  0
  3  9  1  0  0  0  0
  4  7  1  0  0  0  0
  4 11  1  0  0  0  0
  5  8  1  0  0  0  0
  5 11  1  0  0  0  0
  6  9  1  0  0  0  0
  6 11  1  0  0  0  0
  8 10  1  0  0  0  0
  9 10  1  0  0  0  0
 10 12  1  6  0  0  0
 11 15  1  1  0  0  0
  2 16  1  0  0  0  0
  2 17  1  0  0  0  0
  3 18  1  0  0  0  0
  3 19  1  0  0  0  0
  4 20  1  0  0  0  0
  4 21  1  0  0  0  0
  5 22  1  0  0  0  0
  5 23  1  0  0  0  0
  6 24  1  0  0  0  0
  6 25  1  0  0  0  0
  7 26  1  0  0  0  0
  8 27  1  0  0  0  0
  9 28  1  0  0  0  0
 12 29  1  0  0  0  0
 12 30  1  0  0  0  0
 14 31  1  0  0  0  0
 15 32  1  0  0  0  0
M  END
> <id>
EN300-88874

> <smiles>
Cl.N[C@]1(C2CC3CC1C[C@](O)(C3)C2)C(=O)O

> <IUPAC Name>
(2s,5r)-2-amino-5-hydroxyadamantane-2-carboxylic acid hydrochloride

> <URL>
https://www.enaminestore.com/catalog/EN300-88874

> <Saltdate>
Cl

> <ROCS_ShapeQuery>
__x1247relevant_x1083L0AP1_x1305L0BP1_

> <ROCS_TanimotoCombo>
0.714 

> <ROCS_ShapeTanimoto>
0.526 

> <ROCS_ColorTanimoto>
0.188 

> <ROCS_RefTversky>
0.439 

> <ROCS_RefColorTversky>
0.228 

> <ROCS_RefTverskyCombo>
0.667 

> <ROCS_FitTversky>
1.604 

> <ROCS_FitColorTversky>
0.517 

> <ROCS_FitTverskyCombo>
2.121 

> <ROCS_ColorScore>
-7.487

> <ROCS_Overlap>
1292.299

> <ROCS_Rank>
417                 

$$$$
untitled-dbase-110417_34
  -OEChem-06232314393D

 32 34  0     1  0  0  0  0  0999 V2000
  -10.2319   15.0367  -36.6704 C   0  0  0  0  0  0  0  0  0  0  0  0
  -13.0699   13.4376  -38.7971 C   0  0  0  0  0  0  0  0  0  0  0  0
  -14.0693   15.1693  -37.2556 C   0  0  0  0  0  0  0  0  0  0  0  0
  -13.7395   15.6795  -39.6839 C   0  0  0  0  0  0  0  0  0  0  0  0
  -11.3135   15.0685  -39.4840 C   0  0  0  0  0  0  0  0  0  0  0  0
  -12.3114   16.7958  -37.9546 C   0  0  0  0  0  0  0  0  0  0  0  0
  -14.1007   14.5763  -38.6772 C   0  0  0  0  0  0  0  0  0  0  0  0
  -11.6527   13.9597  -38.4612 C   0  0  1  0  0  0  0  0  0  0  0  0
  -12.6527   15.6948  -36.9251 C   0  0  2  0  0  0  0  0  0  0  0  0
  -11.6147   14.5423  -37.0208 C   0  0  0  0  0  0  0  0  0  0  0  0
  -12.3315   16.2180  -39.3797 C   0  0  0  0  0  0  0  0  0  0  0  0
  -11.8585   13.5098  -36.0081 N   0  0  0  0  0  0  0  0  0  0  0  0
   -9.4214   15.4800  -37.4703 O   0  0  0  0  0  0  0  0  0  0  0  0
  -10.0049   14.9203  -35.3391 O   0  0  0  0  0  0  0  0  0  0  0  0
  -12.0140   17.2343  -40.3200 O   0  0  0  0  0  0  0  0  0  0  0  0
  -13.3460   12.6085  -38.1362 H   0  0  0  0  0  0  0  0  0  0  0  0
  -13.0825   13.0325  -39.8171 H   0  0  0  0  0  0  0  0  0  0  0  0
  -14.7923   15.9920  -37.1838 H   0  0  0  0  0  0  0  0  0  0  0  0
  -14.3924   14.4190  -36.5260 H   0  0  0  0  0  0  0  0  0  0  0  0
  -13.7832   15.2929  -40.7104 H   0  0  0  0  0  0  0  0  0  0  0  0
  -14.4744   16.4940  -39.6437 H   0  0  0  0  0  0  0  0  0  0  0  0
  -10.2954   15.4474  -39.3314 H   0  0  0  0  0  0  0  0  0  0  0  0
  -11.3169   14.6590  -40.5029 H   0  0  0  0  0  0  0  0  0  0  0  0
  -13.0297   17.6227  -37.8762 H   0  0  0  0  0  0  0  0  0  0  0  0
  -11.3339   17.2457  -37.7410 H   0  0  0  0  0  0  0  0  0  0  0  0
  -15.1033   14.1926  -38.8961 H   0  0  0  0  0  0  0  0  0  0  0  0
  -10.9263   13.1445  -38.5701 H   0  0  0  0  0  0  0  0  0  0  0  0
  -12.6500   16.1358  -35.9204 H   0  0  0  0  0  0  0  0  0  0  0  0
  -12.6604   13.7745  -35.4904 H   0  0  0  0  0  0  0  0  0  0  0  0
  -12.0071   12.6512  -36.4793 H   0  0  0  0  0  0  0  0  0  0  0  0
   -9.1095   15.2350  -35.0912 H   0  0  0  0  0  0  0  0  0  0  0  0
  -11.1228   17.5514  -40.1007 H   0  0  0  0  0  0  0  0  0  0  0  0
  1 10  1  0  0  0  0
  1 13  2  0  0  0  0
  1 14  1  0  0  0  0
  2  7  1  0  0  0  0
  2  8  1  0  0  0  0
  3  7  1  0  0  0  0
  3  9  1  0  0  0  0
  4  7  1  0  0  0  0
  4 11  1  0  0  0  0
  5  8  1  0  0  0  0
  5 11  1  0  0  0  0
  6  9  1  0  0  0  0
  6 11  1  0  0  0  0
  8 10  1  0  0  0  0
  9 10  1  0  0  0  0
 10 12  1  6  0  0  0
 11 15  1  1  0  0  0
  2 16  1  0  0  0  0
  2 17  1  0  0  0  0
  3 18  1  0  0  0  0
  3 19  1  0  0  0  0
  4 20  1  0  0  0  0
  4 21  1  0  0  0  0
  5 22  1  0  0  0  0
  5 23  1  0  0  0  0
  6 24  1  0  0  0  0
  6 25  1  0  0  0  0
  7 26  1  0  0  0  0
  8 27  1  0  0  0  0
  9 28  1  0  0  0  0
 12 29  1  0  0  0  0
 12 30  1  0  0  0  0
 14 31  1  0  0  0  0
 15 32  1  0  0  0  0
M  END
> <id>
EN300-146863

> <smiles>
N[C@]1(C2CC3CC1C[C@](O)(C3)C2)C(=O)O

> <IUPAC Name>
(2s,5r)-2-amino-5-hydroxyadamantane-2-carboxylic acid

> <URL>
https://www.enaminestore.com/catalog/EN300-146863

> <ROCS_ShapeQuery>
__x1247relevant_x1083L0AP1_x1305L0BP1_

> <ROCS_TanimotoCombo>
0.714 

> <ROCS_ShapeTanimoto>
0.526 

> <ROCS_ColorTanimoto>
0.188 

> <ROCS_RefTversky>
0.439 

> <ROCS_RefColorTversky>
0.228 

> <ROCS_RefTverskyCombo>
0.667 

> <ROCS_FitTversky>
1.604 

> <ROCS_FitColorTversky>
0.517 

> <ROCS_FitTverskyCombo>
2.121 

> <ROCS_ColorScore>
-7.487

> <ROCS_Overlap>
1292.299

> <ROCS_Rank>
418                 

$$$$
untitled-dbase-59164_5
  -OEChem-06232314393D

 35 37  0     1  0  0  0  0  0999 V2000
   -7.7219   14.9559  -35.5792 C   0  0  0  0  0  0  0  0  0  0  0  0
   -9.0474   14.5471  -34.9463 C   0  0  0  0  0  0  0  0  0  0  0  0
   -7.6871   14.6360  -37.0696 C   0  0  0  0  0  0  0  0  0  0  0  0
  -14.0603   15.9857  -38.9861 C   0  0  0  0  0  0  0  0  0  0  0  0
  -12.8494   15.7955  -39.9003 C   0  0  0  0  0  0  0  0  0  0  0  0
  -10.2380   15.1673  -35.6795 C   0  0  0  0  0  0  0  0  0  0  0  0
   -8.8747   15.2557  -37.8080 C   0  0  0  0  0  0  0  0  0  0  0  0
  -12.5793   15.8104  -36.9598 C   0  0  0  0  0  0  0  0  0  0  0  0
  -11.3562   15.6517  -37.8781 C   0  0  2  0  0  0  0  0  0  0  0  0
  -13.6821   15.1354  -37.7753 C   0  0  2  0  0  0  0  0  0  0  0  0
  -11.9570   14.8799  -39.0626 C   0  0  1  0  0  0  0  0  0  0  0  0
  -10.2333   14.8618  -37.1918 C   0  0  0  0  0  0  0  0  0  0  0  0
  -10.4813   13.4446  -37.4095 N   0  0  0  0  0  0  0  0  0  0  0  0
  -12.9495   14.0581  -38.4025 O   0  0  0  0  0  0  0  0  0  0  0  0
   -7.5653   16.0319  -35.4339 H   0  0  0  0  0  0  0  0  0  0  0  0
   -6.8970   14.4430  -35.0719 H   0  0  0  0  0  0  0  0  0  0  0  0
   -9.1339   13.4544  -34.9391 H   0  0  0  0  0  0  0  0  0  0  0  0
   -9.0622   14.8660  -33.8975 H   0  0  0  0  0  0  0  0  0  0  0  0
   -6.7543   15.0179  -37.5005 H   0  0  0  0  0  0  0  0  0  0  0  0
   -7.6743   13.5497  -37.2158 H   0  0  0  0  0  0  0  0  0  0  0  0
  -14.2464   17.0336  -38.7329 H   0  0  0  0  0  0  0  0  0  0  0  0
  -14.9542   15.5839  -39.4760 H   0  0  0  0  0  0  0  0  0  0  0  0
  -13.1629   15.2899  -40.8208 H   0  0  0  0  0  0  0  0  0  0  0  0
  -12.3637   16.7370  -40.1726 H   0  0  0  0  0  0  0  0  0  0  0  0
  -11.1695   14.8147  -35.2179 H   0  0  0  0  0  0  0  0  0  0  0  0
  -10.2127   16.2546  -35.5263 H   0  0  0  0  0  0  0  0  0  0  0  0
   -8.7668   16.3485  -37.7851 H   0  0  0  0  0  0  0  0  0  0  0  0
   -8.8323   14.9660  -38.8659 H   0  0  0  0  0  0  0  0  0  0  0  0
  -12.4327   15.2830  -36.0105 H   0  0  0  0  0  0  0  0  0  0  0  0
  -12.8052   16.8579  -36.7368 H   0  0  0  0  0  0  0  0  0  0  0  0
  -10.9597   16.6236  -38.1927 H   0  0  0  0  0  0  0  0  0  0  0  0
  -14.5301   14.7793  -37.1865 H   0  0  0  0  0  0  0  0  0  0  0  0
  -11.2473   14.2871  -39.6446 H   0  0  0  0  0  0  0  0  0  0  0  0
   -9.7608   12.9395  -36.9566 H   0  0  0  0  0  0  0  0  0  0  0  0
  -11.3662   13.2311  -37.0212 H   0  0  0  0  0  0  0  0  0  0  0  0
  1  2  1  0  0  0  0
  1  3  1  0  0  0  0
  2  6  1  0  0  0  0
  3  7  1  0  0  0  0
  4  5  1  0  0  0  0
  4 10  1  0  0  0  0
  5 11  1  0  0  0  0
  6 12  1  0  0  0  0
  7 12  1  0  0  0  0
  8  9  1  0  0  0  0
  8 10  1  0  0  0  0
  9 11  1  0  0  0  0
  9 12  1  0  0  0  0
 10 14  1  0  0  0  0
 11 14  1  0  0  0  0
 12 13  1  0  0  0  0
  1 15  1  0  0  0  0
  1 16  1  0  0  0  0
  2 17  1  0  0  0  0
  2 18  1  0  0  0  0
  3 19  1  0  0  0  0
  3 20  1  0  0  0  0
  4 21  1  0  0  0  0
  4 22  1  0  0  0  0
  5 23  1  0  0  0  0
  5 24  1  0  0  0  0
  6 25  1  0  0  0  0
  6 26  1  0  0  0  0
  7 27  1  0  0  0  0
  7 28  1  0  0  0  0
  8 29  1  0  0  0  0
  8 30  1  0  0  0  0
  9 31  1  0  0  0  0
 10 32  1  0  0  0  0
 11 33  1  0  0  0  0
 13 34  1  0  0  0  0
 13 35  1  0  0  0  0
M  END
> <id>
EN300-1756206

> <smiles>
NC1(CCCCC1)C2CC3CCC2O3

> <IUPAC Name>
1-{7-oxabicyclo[2.2.1]heptan-2-yl}cyclohexan-1-amine

> <CAS>
2228781-96-0

> <URL>
https://www.enaminestore.com/catalog/EN300-1756206

> <ROCS_ShapeQuery>
__x1247relevant_x1083L0AP1_x1305L0BP1_

> <ROCS_TanimotoCombo>
0.714 

> <ROCS_ShapeTanimoto>
0.464 

> <ROCS_ColorTanimoto>
0.250 

> <ROCS_RefTversky>
0.397 

> <ROCS_RefColorTversky>
0.271 

> <ROCS_RefTverskyCombo>
0.668 

> <ROCS_FitTversky>
1.566 

> <ROCS_FitColorTversky>
0.767 

> <ROCS_FitTverskyCombo>
2.333 

> <ROCS_ColorScore>
-8.842

> <ROCS_Overlap>
1168.297

> <ROCS_Rank>
419                 

$$$$
untitled-dbase-96395_14
  -OEChem-06232314393D

 23 25  0     1  0  0  0  0  0999 V2000
  -14.0005   14.8716  -37.6998 C   0  0  0  0  0  0  0  0  0  0  0  0
  -12.1795   16.4636  -37.6458 C   0  0  0  0  0  0  0  0  0  0  0  0
  -13.5299   16.1900  -38.3889 C   0  0  1  0  0  0  0  0  0  0  0  0
  -12.7119   14.1142  -37.9364 C   0  0  1  0  0  0  0  0  0  0  0  0
  -12.1139   14.6077  -39.2151 C   0  0  1  0  0  0  0  0  0  0  0  0
  -13.0485   15.6527  -39.7756 C   0  0  2  0  0  0  0  0  0  0  0  0
  -11.5841   15.0977  -37.9023 C   0  0  1  0  0  0  0  0  0  0  0  0
  -10.2349   14.7411  -37.4090 C   0  0  0  0  0  0  0  0  0  0  0  0
  -10.0565   13.3131  -37.3418 N   0  0  0  0  0  0  0  0  0  0  0  0
  -12.3560   16.6370  -40.5167 O   0  0  0  0  0  0  0  0  0  0  0  0
  -14.2122   15.0042  -36.6350 H   0  0  0  0  0  0  0  0  0  0  0  0
  -14.8510   14.4091  -38.2092 H   0  0  0  0  0  0  0  0  0  0  0  0
  -11.5977   17.2684  -38.1044 H   0  0  0  0  0  0  0  0  0  0  0  0
  -12.3259   16.6597  -36.5791 H   0  0  0  0  0  0  0  0  0  0  0  0
  -14.2314   17.0241  -38.4054 H   0  0  0  0  0  0  0  0  0  0  0  0
  -12.6208   13.0982  -37.6060 H   0  0  0  0  0  0  0  0  0  0  0  0
  -11.5645   13.9674  -39.8774 H   0  0  0  0  0  0  0  0  0  0  0  0
  -13.8630   15.2250  -40.3694 H   0  0  0  0  0  0  0  0  0  0  0  0
   -9.4710   15.1592  -38.0868 H   0  0  0  0  0  0  0  0  0  0  0  0
  -10.0872   15.1617  -36.3996 H   0  0  0  0  0  0  0  0  0  0  0  0
   -9.8707   13.0475  -36.3970 H   0  0  0  0  0  0  0  0  0  0  0  0
  -10.8885   12.8615  -37.6603 H   0  0  0  0  0  0  0  0  0  0  0  0
  -12.0911   16.2295  -41.3598 H   0  0  0  0  0  0  0  0  0  0  0  0
  1  3  1  0  0  0  0
  1  4  1  0  0  0  0
  2  3  1  0  0  0  0
  2  7  1  0  0  0  0
  3  6  1  0  0  0  0
  4  5  1  0  0  0  0
  4  7  1  0  0  0  0
  5  6  1  0  0  0  0
  5  7  1  0  0  0  0
  6 10  1  0  0  0  0
  7  8  1  0  0  0  0
  8  9  1  0  0  0  0
  1 11  1  0  0  0  0
  1 12  1  0  0  0  0
  2 13  1  0  0  0  0
  2 14  1  0  0  0  0
  3 15  1  0  0  0  0
  4 16  1  0  0  0  0
  5 17  1  0  0  0  0
  6 18  1  0  0  0  0
  8 19  1  0  0  0  0
  8 20  1  0  0  0  0
  9 21  1  0  0  0  0
  9 22  1  0  0  0  0
 10 23  1  0  0  0  0
M  END
> <id>
EN300-6491038

> <smiles>
NCC12CC3CC2C1C3O

> <MDLNUMBER>
MFCD24531091

> <IUPAC Name>
1-(aminomethyl)tricyclo[2.2.1.0,2,6]heptan-3-ol

> <CAS>
1824531-17-0

> <Purity>
95

> <URL>
https://www.enaminestore.com/catalog/EN300-6491038

> <ROCS_ShapeQuery>
__x1247relevant_x1083L0AP1_x1305L0BP1_

> <ROCS_TanimotoCombo>
0.714 

> <ROCS_ShapeTanimoto>
0.422 

> <ROCS_ColorTanimoto>
0.291 

> <ROCS_RefTversky>
0.356 

> <ROCS_RefColorTversky>
0.440 

> <ROCS_RefTverskyCombo>
0.796 

> <ROCS_FitTversky>
1.787 

> <ROCS_FitColorTversky>
0.463 

> <ROCS_FitTverskyCombo>
2.250 

> <ROCS_ColorScore>
-14.860

> <ROCS_Overlap>
1044.409

> <ROCS_Rank>
420                 

$$$$
untitled-dbase-118567_474
  -OEChem-06232314393D

 37 38  0     1  0  0  0  0  0999 V2000
  -13.1926   16.6337  -40.1533 C   0  0  0  0  0  0  0  0  0  0  0  0
  -10.2715   14.7861  -36.6035 C   0  0  0  0  0  0  0  0  0  0  0  0
  -13.7806   14.2015  -38.5802 C   0  0  0  0  0  0  0  0  0  0  0  0
  -12.7445   15.3821  -36.6217 C   0  0  0  0  0  0  0  0  0  0  0  0
  -12.6730   16.3254  -38.7847 C   0  0  1  0  0  0  0  0  0  0  0  0
  -13.6406   15.5688  -37.8648 C   0  0  1  0  0  0  0  0  0  0  0  0
  -11.6039   15.2289  -38.7013 C   0  0  2  0  0  0  0  0  0  0  0  0
  -12.3601   13.9537  -39.1314 C   0  0  2  0  0  0  0  0  0  0  0  0
   -7.9992   15.8268  -35.8221 C   0  0  0  0  0  0  0  0  0  0  0  0
   -6.8725   14.7220  -37.7764 C   0  0  0  0  0  0  0  0  0  0  0  0
   -8.3232   16.7389  -38.1454 C   0  0  0  0  0  0  0  0  0  0  0  0
   -8.1122   15.4797  -37.3058 C   0  0  0  0  0  0  0  0  0  0  0  0
  -11.4433   15.1253  -37.2451 N   0  0  0  0  0  0  0  0  0  0  0  0
  -12.5369   17.1291  -41.0578 O   0  0  0  0  0  0  0  0  0  0  0  0
  -10.1629   14.6507  -35.3873 O   0  0  0  0  0  0  0  0  0  0  0  0
  -14.4996   16.2903  -40.2578 O   0  0  0  0  0  0  0  0  0  0  0  0
  -12.3919   13.8207  -40.5432 O   0  0  0  0  0  0  0  0  0  0  0  0
   -9.2401   14.6165  -37.4872 O   0  0  0  0  0  0  0  0  0  0  0  0
  -14.0809   13.4171  -37.8774 H   0  0  0  0  0  0  0  0  0  0  0  0
  -14.5248   14.2473  -39.3830 H   0  0  0  0  0  0  0  0  0  0  0  0
  -12.6662   16.2944  -36.0212 H   0  0  0  0  0  0  0  0  0  0  0  0
  -13.0362   14.5426  -35.9839 H   0  0  0  0  0  0  0  0  0  0  0  0
  -12.3312   17.2717  -38.3468 H   0  0  0  0  0  0  0  0  0  0  0  0
  -14.5948   16.0586  -37.6612 H   0  0  0  0  0  0  0  0  0  0  0  0
  -10.6722   15.4185  -39.2392 H   0  0  0  0  0  0  0  0  0  0  0  0
  -11.9177   13.0415  -38.7161 H   0  0  0  0  0  0  0  0  0  0  0  0
   -8.8870   16.3707  -35.4804 H   0  0  0  0  0  0  0  0  0  0  0  0
   -7.8825   14.9295  -35.2057 H   0  0  0  0  0  0  0  0  0  0  0  0
   -7.1431   16.4862  -35.6388 H   0  0  0  0  0  0  0  0  0  0  0  0
   -6.9493   14.4710  -38.8405 H   0  0  0  0  0  0  0  0  0  0  0  0
   -6.7700   13.7709  -37.2415 H   0  0  0  0  0  0  0  0  0  0  0  0
   -5.9595   15.3063  -37.6231 H   0  0  0  0  0  0  0  0  0  0  0  0
   -8.4043   16.4902  -39.2097 H   0  0  0  0  0  0  0  0  0  0  0  0
   -9.2290   17.2760  -37.8460 H   0  0  0  0  0  0  0  0  0  0  0  0
   -7.4683   17.4181  -38.0508 H   0  0  0  0  0  0  0  0  0  0  0  0
  -14.8600   16.4867  -41.1488 H   0  0  0  0  0  0  0  0  0  0  0  0
  -12.9673   13.0636  -40.7433 H   0  0  0  0  0  0  0  0  0  0  0  0
  1  5  1  6  0  0  0
  1 14  2  0  0  0  0
  1 16  1  0  0  0  0
  2 13  1  0  0  0  0
  2 15  2  0  0  0  0
  2 18  1  0  0  0  0
  3  6  1  0  0  0  0
  3  8  1  0  0  0  0
  4  6  1  1  0  0  0
  4 13  1  0  0  0  0
  5  6  1  0  0  0  0
  5  7  1  0  0  0  0
  7  8  1  0  0  0  0
  7 13  1  1  0  0  0
  8 17  1  6  0  0  0
  9 12  1  0  0  0  0
 10 12  1  0  0  0  0
 11 12  1  0  0  0  0
 12 18  1  0  0  0  0
  3 19  1  0  0  0  0
  3 20  1  0  0  0  0
  4 21  1  0  0  0  0
  4 22  1  0  0  0  0
  5 23  1  0  0  0  0
  6 24  1  0  0  0  0
  7 25  1  0  0  0  0
  8 26  1  0  0  0  0
  9 27  1  0  0  0  0
  9 28  1  0  0  0  0
  9 29  1  0  0  0  0
 10 30  1  0  0  0  0
 10 31  1  0  0  0  0
 10 32  1  0  0  0  0
 11 33  1  0  0  0  0
 11 34  1  0  0  0  0
 11 35  1  0  0  0  0
 16 36  1  0  0  0  0
 17 37  1  0  0  0  0
M  END
> <id>
EN300-26572993

> <smiles>
CC(C)(C)OC(=O)N1C[C@@H]2C[C@@H](O)[C@H]1[C@H]2C(=O)O |&1:9,11,13,14,r|

> <MDLNUMBER>
MFCD32662783

> <IUPAC Name>
rac-(1R,4R,6R,7S)-2-[(tert-butoxy)carbonyl]-6-hydroxy-2-azabicyclo[2.2.1]heptane-7-carboxylic acid

> <CAS>
2413846-37-2

> <Purity>
95

> <URL>
https://www.enaminestore.com/catalog/EN300-26572993

> <ROCS_ShapeQuery>
__x1247relevant_x1083L0AP1_x1305L0BP1_

> <ROCS_TanimotoCombo>
0.713 

> <ROCS_ShapeTanimoto>
0.502 

> <ROCS_ColorTanimoto>
0.212 

> <ROCS_RefTversky>
0.439 

> <ROCS_RefColorTversky>
0.251 

> <ROCS_RefTverskyCombo>
0.690 

> <ROCS_FitTversky>
1.402 

> <ROCS_FitColorTversky>
0.573 

> <ROCS_FitTverskyCombo>
1.975 

> <ROCS_ColorScore>
-8.254

> <ROCS_Overlap>
1294.662

> <ROCS_Rank>
421                 

$$$$
untitled-dbase-121946_13
  -OEChem-06232314393D

 39 41  0     1  0  0  0  0  0999 V2000
   -9.0392   15.4132  -36.6574 C   0  0  0  0  0  0  0  0  0  0  0  0
   -9.0109   13.8948  -36.7957 C   0  0  0  0  0  0  0  0  0  0  0  0
  -13.4298   16.7010  -38.0857 C   0  0  0  0  0  0  0  0  0  0  0  0
  -12.5472   16.6262  -39.3298 C   0  0  0  0  0  0  0  0  0  0  0  0
  -10.5109   15.8300  -36.7316 C   0  0  0  0  0  0  0  0  0  0  0  0
  -12.7734   14.5914  -36.7895 C   0  0  0  0  0  0  0  0  0  0  0  0
  -11.1997   14.5037  -38.8148 C   0  0  0  0  0  0  0  0  0  0  0  0
  -10.4616   13.4419  -36.6010 C   0  0  2  0  0  0  0  0  0  0  0  0
  -13.7692   15.2430  -37.7681 C   0  0  2  0  0  0  0  0  0  0  0  0
  -12.3821   15.1292  -39.5882 C   0  0  1  0  0  0  0  0  0  0  0  0
  -11.2912   14.5970  -37.2525 C   0  0  0  0  0  0  0  0  0  0  0  0
  -14.7617   14.6754  -39.9267 C   0  0  0  0  0  0  0  0  0  0  0  0
  -10.7399   13.1950  -35.1118 C   0  0  0  0  0  0  0  0  0  0  0  0
  -13.6081   14.5251  -39.0435 N   0  0  0  0  0  0  0  0  0  0  0  0
   -9.6192   12.5536  -34.5093 N   0  0  0  0  0  0  0  0  0  0  0  0
   -8.5958   15.7138  -35.7002 H   0  0  0  0  0  0  0  0  0  0  0  0
   -8.4586   15.9003  -37.4496 H   0  0  0  0  0  0  0  0  0  0  0  0
   -8.6203   13.5854  -37.7710 H   0  0  0  0  0  0  0  0  0  0  0  0
   -8.3537   13.4664  -36.0293 H   0  0  0  0  0  0  0  0  0  0  0  0
  -12.9512   17.2229  -37.2533 H   0  0  0  0  0  0  0  0  0  0  0  0
  -14.3430   17.2605  -38.3243 H   0  0  0  0  0  0  0  0  0  0  0  0
  -13.0644   17.1072  -40.1683 H   0  0  0  0  0  0  0  0  0  0  0  0
  -11.5939   17.1448  -39.1972 H   0  0  0  0  0  0  0  0  0  0  0  0
  -10.8466   16.2049  -35.7627 H   0  0  0  0  0  0  0  0  0  0  0  0
  -10.5970   16.6675  -37.4379 H   0  0  0  0  0  0  0  0  0  0  0  0
  -12.8779   15.0698  -35.8060 H   0  0  0  0  0  0  0  0  0  0  0  0
  -13.1161   13.5585  -36.6499 H   0  0  0  0  0  0  0  0  0  0  0  0
  -11.1441   13.4466  -39.1068 H   0  0  0  0  0  0  0  0  0  0  0  0
  -10.2612   14.9517  -39.1660 H   0  0  0  0  0  0  0  0  0  0  0  0
  -10.6296   12.5338  -37.1309 H   0  0  0  0  0  0  0  0  0  0  0  0
  -14.7770   15.1467  -37.3536 H   0  0  0  0  0  0  0  0  0  0  0  0
  -12.2483   14.9191  -40.6575 H   0  0  0  0  0  0  0  0  0  0  0  0
  -14.5847   14.1200  -40.8595 H   0  0  0  0  0  0  0  0  0  0  0  0
  -15.6587   14.2789  -39.4286 H   0  0  0  0  0  0  0  0  0  0  0  0
  -14.9107   15.7406  -40.1569 H   0  0  0  0  0  0  0  0  0  0  0  0
  -10.9192   14.1650  -34.6495 H   0  0  0  0  0  0  0  0  0  0  0  0
  -11.6235   12.5611  -35.0470 H   0  0  0  0  0  0  0  0  0  0  0  0
   -8.7963   13.1183  -34.6202 H   0  0  0  0  0  0  0  0  0  0  0  0
   -9.7865   12.4146  -33.5290 H   0  0  0  0  0  0  0  0  0  0  0  0
  1  2  1  0  0  0  0
  1  5  1  0  0  0  0
  2  8  1  0  0  0  0
  3  4  1  0  0  0  0
  3  9  1  0  0  0  0
  4 10  1  0  0  0  0
  5 11  1  0  0  0  0
  6  9  1  0  0  0  0
  6 11  1  0  0  0  0
  7 10  1  0  0  0  0
  7 11  1  0  0  0  0
  8 11  1  0  0  0  0
  8 13  1  0  0  0  0
  9 14  1  0  0  0  0
 10 14  1  0  0  0  0
 12 14  1  0  0  0  0
 13 15  1  0  0  0  0
  1 16  1  0  0  0  0
  1 17  1  0  0  0  0
  2 18  1  0  0  0  0
  2 19  1  0  0  0  0
  3 20  1  0  0  0  0
  3 21  1  0  0  0  0
  4 22  1  0  0  0  0
  4 23  1  0  0  0  0
  5 24  1  0  0  0  0
  5 25  1  0  0  0  0
  6 26  1  0  0  0  0
  6 27  1  0  0  0  0
  7 28  1  0  0  0  0
  7 29  1  0  0  0  0
  8 30  1  0  0  0  0
  9 31  1  0  0  0  0
 10 32  1  0  0  0  0
 12 33  1  0  0  0  0
 12 34  1  0  0  0  0
 12 35  1  0  0  0  0
 13 36  1  0  0  0  0
 13 37  1  0  0  0  0
 15 38  1  0  0  0  0
 15 39  1  0  0  0  0
M  END
> <id>
EN300-1461677

> <smiles>
CN1C2CCC1CC3(CCCC3CN)C2

> <IUPAC Name>
{8-methyl-8-azaspiro[bicyclo[3.2.1]octane-3,1'-cyclopentane]-2'-yl}methanamine

> <CAS>
2167978-30-3

> <URL>
https://www.enaminestore.com/catalog/EN300-1461677

> <ROCS_ShapeQuery>
__x1247relevant_x1083L0AP1_x1305L0BP1_

> <ROCS_TanimotoCombo>
0.713 

> <ROCS_ShapeTanimoto>
0.510 

> <ROCS_ColorTanimoto>
0.204 

> <ROCS_RefTversky>
0.427 

> <ROCS_RefColorTversky>
0.226 

> <ROCS_RefTverskyCombo>
0.653 

> <ROCS_FitTversky>
1.618 

> <ROCS_FitColorTversky>
0.672 

> <ROCS_FitTverskyCombo>
2.290 

> <ROCS_ColorScore>
-7.377

> <ROCS_Overlap>
1256.624

> <ROCS_Rank>
422                 

$$$$
untitled-dbase-78731_5
  -OEChem-06232314393D

 27 29  0     1  0  0  0  0  0999 V2000
  -11.6784   16.0315  -38.7728 C   0  0  0  0  0  0  0  0  0  0  0  0
  -11.9878   14.9688  -37.9132 C   0  0  0  0  0  0  0  0  0  0  0  0
  -12.7637   16.1333  -39.6129 C   0  0  0  0  0  0  0  0  0  0  0  0
  -15.2048   15.7626  -40.8998 C   0  0  0  0  0  0  0  0  0  0  0  0
  -14.8750   14.9688  -39.8761 C   0  0  0  0  0  0  0  0  0  0  0  0
  -14.1859   16.7880  -41.2392 C   0  0  0  0  0  0  0  0  0  0  0  0
   -9.1214   13.6501  -37.9198 C   0  0  0  0  0  0  0  0  0  0  0  0
   -8.3035   14.6301  -37.0926 C   0  0  0  0  0  0  0  0  0  0  0  0
  -10.2497   15.4371  -36.0353 C   0  0  0  0  0  0  0  0  0  0  0  0
  -11.1339   14.4168  -36.7768 C   0  0  2  0  0  0  0  0  0  0  0  0
  -13.1756   14.4221  -38.1702 N   0  0  0  0  0  0  0  0  0  0  0  0
  -13.0439   16.9740  -40.6497 N   0  0  0  0  0  0  0  0  0  0  0  0
  -13.6592   15.1375  -39.2192 N   0  0  0  0  0  0  0  0  0  0  0  0
  -10.3230   13.2587  -37.1880 N   0  0  0  0  0  0  0  0  0  0  0  0
   -9.0824   15.7838  -36.7835 O   0  0  0  0  0  0  0  0  0  0  0  0
  -10.7905   16.6474  -38.7888 H   0  0  0  0  0  0  0  0  0  0  0  0
  -16.1275   15.6933  -41.4567 H   0  0  0  0  0  0  0  0  0  0  0  0
  -15.5252   14.1781  -39.5219 H   0  0  0  0  0  0  0  0  0  0  0  0
  -14.4551   17.4446  -42.0829 H   0  0  0  0  0  0  0  0  0  0  0  0
   -9.4046   14.1039  -38.8734 H   0  0  0  0  0  0  0  0  0  0  0  0
   -8.5300   12.7557  -38.1415 H   0  0  0  0  0  0  0  0  0  0  0  0
   -8.0088   14.1639  -36.1467 H   0  0  0  0  0  0  0  0  0  0  0  0
   -7.3856   14.9341  -37.6111 H   0  0  0  0  0  0  0  0  0  0  0  0
  -10.8069   16.3588  -35.7842 H   0  0  0  0  0  0  0  0  0  0  0  0
   -9.9113   15.0146  -35.0742 H   0  0  0  0  0  0  0  0  0  0  0  0
  -11.8819   14.0102  -36.0034 H   0  0  0  0  0  0  0  0  0  0  0  0
  -10.8902   12.6566  -37.8005 H   0  0  0  0  0  0  0  0  0  0  0  0
  1  2  1  0  0  0  0
  1  3  2  0  0  0  0
  2 10  1  0  0  0  0
  2 11  2  0  0  0  0
  3 12  1  0  0  0  0
  3 13  1  0  0  0  0
  4  5  2  0  0  0  0
  4  6  1  0  0  0  0
  5 13  1  0  0  0  0
  6 12  2  0  0  0  0
  7  8  1  0  0  0  0
  7 14  1  0  0  0  0
  8 15  1  0  0  0  0
  9 10  1  0  0  0  0
  9 15  1  0  0  0  0
 10 14  1  0  0  0  0
 11 13  1  0  0  0  0
  1 16  1  0  0  0  0
  4 17  1  0  0  0  0
  5 18  1  0  0  0  0
  6 19  1  0  0  0  0
  7 20  1  0  0  0  0
  7 21  1  0  0  0  0
  8 22  1  0  0  0  0
  8 23  1  0  0  0  0
  9 24  1  0  0  0  0
  9 25  1  0  0  0  0
 10 26  1  0  0  0  0
 14 27  1  0  0  0  0
M  END
> <id>
EN300-1746838

> <smiles>
C1COCC(N1)C=2C=C3N=CC=CN3N2

> <IUPAC Name>
3-{pyrazolo[1,5-a]pyrimidin-2-yl}morpholine

> <CAS>
2228484-85-1

> <URL>
https://www.enaminestore.com/catalog/EN300-1746838

> <ROCS_ShapeQuery>
__x1247relevant_x1083L0AP1_x1305L0BP1_

> <ROCS_TanimotoCombo>
0.713 

> <ROCS_ShapeTanimoto>
0.511 

> <ROCS_ColorTanimoto>
0.203 

> <ROCS_RefTversky>
0.432 

> <ROCS_RefColorTversky>
0.217 

> <ROCS_RefTverskyCombo>
0.648 

> <ROCS_FitTversky>
1.562 

> <ROCS_FitColorTversky>
0.757 

> <ROCS_FitTverskyCombo>
2.319 

> <ROCS_ColorScore>
-7.055

> <ROCS_Overlap>
1271.245

> <ROCS_Rank>
423                 

$$$$
untitled-dbase-86981_0
  -OEChem-06232314393D

 33 35  0     0  0  0  0  0  0999 V2000
   -9.0972   14.3302  -36.9273 C   0  0  0  0  0  0  0  0  0  0  0  0
  -13.3593   15.0144  -39.9821 C   0  0  0  0  0  0  0  0  0  0  0  0
  -12.7188   16.9948  -38.5830 C   0  0  0  0  0  0  0  0  0  0  0  0
  -14.2554   15.2457  -37.6511 C   0  0  0  0  0  0  0  0  0  0  0  0
  -11.0198   15.2260  -39.1049 C   0  0  0  0  0  0  0  0  0  0  0  0
  -12.5581   13.4752  -38.1721 C   0  0  0  0  0  0  0  0  0  0  0  0
  -11.9170   15.4583  -36.7704 C   0  0  0  0  0  0  0  0  0  0  0  0
  -12.2288   16.0038  -39.6525 C   0  0  0  0  0  0  0  0  0  0  0  0
  -13.7734   14.2458  -38.7159 C   0  0  0  0  0  0  0  0  0  0  0  0
  -13.1297   16.2366  -37.3093 C   0  0  0  0  0  0  0  0  0  0  0  0
  -11.4121   14.4518  -37.8268 C   0  0  0  0  0  0  0  0  0  0  0  0
   -8.0569   13.3817  -36.4310 C   0  0  0  0  0  0  0  0  0  0  0  0
  -10.2736   13.7200  -37.3168 N   0  0  0  0  0  0  0  0  0  0  0  0
   -8.8556   15.5312  -36.9555 O   0  0  0  0  0  0  0  0  0  0  0  0
  -14.2220   15.5543  -40.3911 H   0  0  0  0  0  0  0  0  0  0  0  0
  -13.0283   14.3111  -40.7560 H   0  0  0  0  0  0  0  0  0  0  0  0
  -11.9264   17.7169  -38.3502 H   0  0  0  0  0  0  0  0  0  0  0  0
  -13.5705   17.5694  -38.9673 H   0  0  0  0  0  0  0  0  0  0  0  0
  -15.1339   15.7899  -38.0192 H   0  0  0  0  0  0  0  0  0  0  0  0
  -14.5694   14.7085  -36.7478 H   0  0  0  0  0  0  0  0  0  0  0  0
  -10.6533   14.5330  -39.8734 H   0  0  0  0  0  0  0  0  0  0  0  0
  -10.2016   15.9257  -38.8896 H   0  0  0  0  0  0  0  0  0  0  0  0
  -12.8546   12.9059  -37.2814 H   0  0  0  0  0  0  0  0  0  0  0  0
  -12.2235   12.7447  -38.9203 H   0  0  0  0  0  0  0  0  0  0  0  0
  -11.1187   16.1631  -36.5040 H   0  0  0  0  0  0  0  0  0  0  0  0
  -12.2004   14.9338  -35.8484 H   0  0  0  0  0  0  0  0  0  0  0  0
  -11.9395   16.5492  -40.5577 H   0  0  0  0  0  0  0  0  0  0  0  0
  -14.5795   13.5436  -38.9562 H   0  0  0  0  0  0  0  0  0  0  0  0
  -13.4798   16.9472  -36.5523 H   0  0  0  0  0  0  0  0  0  0  0  0
   -7.4003   13.0179  -37.2376 H   0  0  0  0  0  0  0  0  0  0  0  0
   -7.3823   13.8456  -35.6935 H   0  0  0  0  0  0  0  0  0  0  0  0
   -8.4425   12.4740  -35.9398 H   0  0  0  0  0  0  0  0  0  0  0  0
  -10.3423   12.7100  -37.2416 H   0  0  0  0  0  0  0  0  0  0  0  0
  1 12  1  0  0  0  0
  1 13  1  0  0  0  0
  1 14  2  0  0  0  0
  2  8  1  0  0  0  0
  2  9  1  0  0  0  0
  3  8  1  0  0  0  0
  3 10  1  0  0  0  0
  4  9  1  0  0  0  0
  4 10  1  0  0  0  0
  5  8  1  0  0  0  0
  5 11  1  0  0  0  0
  6  9  1  0  0  0  0
  6 11  1  0  0  0  0
  7 10  1  0  0  0  0
  7 11  1  0  0  0  0
 11 13  1  0  0  0  0
  2 15  1  0  0  0  0
  2 16  1  0  0  0  0
  3 17  1  0  0  0  0
  3 18  1  0  0  0  0
  4 19  1  0  0  0  0
  4 20  1  0  0  0  0
  5 21  1  0  0  0  0
  5 22  1  0  0  0  0
  6 23  1  0  0  0  0
  6 24  1  0  0  0  0
  7 25  1  0  0  0  0
  7 26  1  0  0  0  0
  8 27  1  0  0  0  0
  9 28  1  0  0  0  0
 10 29  1  0  0  0  0
 12 30  1  0  0  0  0
 12 31  1  0  0  0  0
 12 32  1  0  0  0  0
 13 33  1  0  0  0  0
M  END
> <id>
EN300-8601068

> <smiles>
CC(=O)NC1(CC2CC3CC(C2)C1)C3

> <IUPAC Name>
N-(adamantan-1-yl)acetamide

> <CAS>
880-52-4

> <URL>
https://www.enaminestore.com/catalog/EN300-8601068

> <MP>
148-149

> <ROCS_ShapeQuery>
__x1247relevant_x1083L0AP1_x1305L0BP1_

> <ROCS_TanimotoCombo>
0.713 

> <ROCS_ShapeTanimoto>
0.496 

> <ROCS_ColorTanimoto>
0.217 

> <ROCS_RefTversky>
0.416 

> <ROCS_RefColorTversky>
0.232 

> <ROCS_RefTverskyCombo>
0.648 

> <ROCS_FitTversky>
1.634 

> <ROCS_FitColorTversky>
0.775 

> <ROCS_FitTverskyCombo>
2.408 

> <ROCS_ColorScore>
-7.544

> <ROCS_Overlap>
1224.627

> <ROCS_Rank>
424                 

$$$$
untitled-dbase-80981_5
  -OEChem-06232314393D

 33 36  0     1  0  0  0  0  0999 V2000
   -9.5136   14.7450  -36.1483 C   0  0  0  0  0  0  0  0  0  0  0  0
   -9.8668   14.0858  -38.6026 C   0  0  0  0  0  0  0  0  0  0  0  0
  -14.3316   16.0238  -38.8582 C   0  0  0  0  0  0  0  0  0  0  0  0
  -11.9503   16.5063  -39.4940 C   0  0  0  0  0  0  0  0  0  0  0  0
  -12.9191   14.2267  -39.8960 C   0  0  0  0  0  0  0  0  0  0  0  0
  -12.6011   16.3580  -37.0705 C   0  0  0  0  0  0  0  0  0  0  0  0
  -13.5658   14.0757  -37.4697 C   0  0  0  0  0  0  0  0  0  0  0  0
  -10.2229   13.9366  -37.1472 C   0  0  2  0  0  0  0  0  0  0  0  0
  -13.2257   15.7365  -39.8880 C   0  0  0  0  0  0  0  0  0  0  0  0
  -13.8771   15.5850  -37.4559 C   0  0  0  0  0  0  0  0  0  0  0  0
  -11.4824   16.0718  -38.0908 C   0  0  0  0  0  0  0  0  0  0  0  0
  -12.4580   13.7759  -38.4972 C   0  0  0  0  0  0  0  0  0  0  0  0
  -11.2115   14.5688  -38.1126 C   0  0  0  0  0  0  0  0  0  0  0  0
   -9.6215   14.6181  -34.9377 O   0  0  0  0  0  0  0  0  0  0  0  0
   -8.7176   15.6614  -36.7517 O   0  0  0  0  0  0  0  0  0  0  0  0
   -9.1244   14.8250  -38.8807 H   0  0  0  0  0  0  0  0  0  0  0  0
   -9.8290   13.1851  -39.2045 H   0  0  0  0  0  0  0  0  0  0  0  0
  -14.5713   17.0942  -38.8558 H   0  0  0  0  0  0  0  0  0  0  0  0
  -15.2496   15.4922  -39.1372 H   0  0  0  0  0  0  0  0  0  0  0  0
  -11.1605   16.3140  -40.2306 H   0  0  0  0  0  0  0  0  0  0  0  0
  -12.1458   17.5855  -39.5058 H   0  0  0  0  0  0  0  0  0  0  0  0
  -13.8119   13.6645  -40.1956 H   0  0  0  0  0  0  0  0  0  0  0  0
  -12.1394   14.0120  -40.6371 H   0  0  0  0  0  0  0  0  0  0  0  0
  -12.8109   17.4341  -37.0372 H   0  0  0  0  0  0  0  0  0  0  0  0
  -12.2823   16.0617  -36.0642 H   0  0  0  0  0  0  0  0  0  0  0  0
  -13.2485   13.7547  -36.4699 H   0  0  0  0  0  0  0  0  0  0  0  0
  -14.4711   13.5089  -37.7186 H   0  0  0  0  0  0  0  0  0  0  0  0
  -10.4429   12.9276  -36.8115 H   0  0  0  0  0  0  0  0  0  0  0  0
  -13.5552   16.0521  -40.8841 H   0  0  0  0  0  0  0  0  0  0  0  0
  -14.6689   15.7924  -36.7276 H   0  0  0  0  0  0  0  0  0  0  0  0
  -10.5834   16.6376  -37.8207 H   0  0  0  0  0  0  0  0  0  0  0  0
  -12.2521   12.6990  -38.5099 H   0  0  0  0  0  0  0  0  0  0  0  0
   -8.2356   16.2138  -36.0999 H   0  0  0  0  0  0  0  0  0  0  0  0
  1  8  1  0  0  0  0
  1 14  2  0  0  0  0
  1 15  1  0  0  0  0
  2  8  1  0  0  0  0
  2 13  1  0  0  0  0
  3  9  1  0  0  0  0
  3 10  1  0  0  0  0
  4  9  1  0  0  0  0
  4 11  1  0  0  0  0
  5  9  1  0  0  0  0
  5 12  1  0  0  0  0
  6 10  1  0  0  0  0
  6 11  1  0  0  0  0
  7 10  1  0  0  0  0
  7 12  1  0  0  0  0
  8 13  1  0  0  0  0
 11 13  1  0  0  0  0
 12 13  1  0  0  0  0
  2 16  1  0  0  0  0
  2 17  1  0  0  0  0
  3 18  1  0  0  0  0
  3 19  1  0  0  0  0
  4 20  1  0  0  0  0
  4 21  1  0  0  0  0
  5 22  1  0  0  0  0
  5 23  1  0  0  0  0
  6 24  1  0  0  0  0
  6 25  1  0  0  0  0
  7 26  1  0  0  0  0
  7 27  1  0  0  0  0
  8 28  1  0  0  0  0
  9 29  1  0  0  0  0
 10 30  1  0  0  0  0
 11 31  1  0  0  0  0
 12 32  1  0  0  0  0
 15 33  1  0  0  0  0
M  END
> <id>
EN300-9427795

> <smiles>
OC(=O)C1CC12C3CC4CC(C3)CC2C4

> <IUPAC Name>
spiro[adamantane-2,1'-cyclopropane]-3'-carboxylic acid

> <CAS>
119404-79-4

> <Purity>
95

> <URL>
https://www.enaminestore.com/catalog/EN300-9427795

> <MP>
152-155

> <ROCS_ShapeQuery>
__x1247relevant_x1083L0AP1_x1305L0BP1_

> <ROCS_TanimotoCombo>
0.713 

> <ROCS_ShapeTanimoto>
0.515 

> <ROCS_ColorTanimoto>
0.198 

> <ROCS_RefTversky>
0.433 

> <ROCS_RefColorTversky>
0.219 

> <ROCS_RefTverskyCombo>
0.652 

> <ROCS_FitTversky>
1.590 

> <ROCS_FitColorTversky>
0.669 

> <ROCS_FitTverskyCombo>
2.259 

> <ROCS_ColorScore>
-7.159

> <ROCS_Overlap>
1274.095

> <ROCS_Rank>
425                 

$$$$
untitled-dbase-83300_1
  -OEChem-06232314393D

 47 50  0     1  0  0  0  0  0999 V2000
   -9.6375   12.9538  -39.2473 C   0  0  0  0  0  0  0  0  0  0  0  0
  -13.9765   14.5019  -39.9510 C   0  0  0  0  0  0  0  0  0  0  0  0
  -10.4921   12.4695  -40.4072 C   0  0  0  0  0  0  0  0  0  0  0  0
  -14.2996   15.9773  -39.3648 C   0  0  0  0  0  0  0  0  0  0  0  0
  -10.4375   13.2278  -37.9635 C   0  0  1  0  0  0  0  0  0  0  0  0
  -12.4632   13.8077  -39.5854 C   0  0  1  0  0  0  0  0  0  0  0  0
  -11.5628   13.4923  -40.8111 C   0  0  2  0  0  0  0  0  0  0  0  0
   -9.5044   13.5753  -36.7506 C   0  0  2  0  0  0  0  0  0  0  0  0
  -11.0632   15.7422  -37.6876 C   0  0  2  0  0  0  0  0  0  0  0  0
  -10.2438   14.4873  -35.7632 C   0  0  2  0  0  0  0  0  0  0  0  0
  -11.5714   14.2629  -38.2148 C   0  0  2  0  0  0  0  0  0  0  0  0
  -13.0318   16.1555  -38.5971 C   0  0  1  0  0  0  0  0  0  0  0  0
  -12.3300   12.9336  -42.0151 C   0  0  0  0  0  0  0  0  0  0  0  0
   -8.1354   14.1757  -37.1233 C   0  0  0  0  0  0  0  0  0  0  0  0
  -12.1852   16.4953  -39.9525 C   0  0  0  0  0  0  0  0  0  0  0  0
   -9.5200   13.5710  -33.7238 C   0  0  0  0  0  0  0  0  0  0  0  0
  -10.5689   15.7467  -36.3356 O   0  0  0  0  0  0  0  0  0  0  0  0
  -12.1466   16.7720  -37.7494 O   0  0  0  0  0  0  0  0  0  0  0  0
  -12.6097   14.1192  -37.2666 O   0  0  0  0  0  0  0  0  0  0  0  0
  -13.5579   15.1369  -37.6585 O   0  0  0  0  0  0  0  0  0  0  0  0
   -9.4302   14.6792  -34.6046 O   0  0  0  0  0  0  0  0  0  0  0  0
   -8.8792   12.1872  -39.0468 H   0  0  0  0  0  0  0  0  0  0  0  0
   -9.1095   13.8601  -39.5670 H   0  0  0  0  0  0  0  0  0  0  0  0
  -14.7354   13.8198  -39.5412 H   0  0  0  0  0  0  0  0  0  0  0  0
  -14.1520   14.5146  -41.0291 H   0  0  0  0  0  0  0  0  0  0  0  0
   -9.8344   12.2677  -41.2621 H   0  0  0  0  0  0  0  0  0  0  0  0
  -10.9611   11.5129  -40.1423 H   0  0  0  0  0  0  0  0  0  0  0  0
  -14.4995   16.7054  -40.1610 H   0  0  0  0  0  0  0  0  0  0  0  0
  -15.2244   15.9588  -38.7695 H   0  0  0  0  0  0  0  0  0  0  0  0
  -10.9365   12.2883  -37.6809 H   0  0  0  0  0  0  0  0  0  0  0  0
  -12.8225   12.8059  -39.2831 H   0  0  0  0  0  0  0  0  0  0  0  0
  -11.0472   14.3958  -41.1482 H   0  0  0  0  0  0  0  0  0  0  0  0
   -9.2750   12.6334  -36.2323 H   0  0  0  0  0  0  0  0  0  0  0  0
  -10.2246   16.0985  -38.2936 H   0  0  0  0  0  0  0  0  0  0  0  0
  -11.1582   13.9987  -35.4105 H   0  0  0  0  0  0  0  0  0  0  0  0
  -12.8590   12.0307  -41.7217 H   0  0  0  0  0  0  0  0  0  0  0  0
  -11.6314   12.6994  -42.8140 H   0  0  0  0  0  0  0  0  0  0  0  0
  -13.0448   13.6735  -42.3655 H   0  0  0  0  0  0  0  0  0  0  0  0
   -8.2884   15.1153  -37.6425 H   0  0  0  0  0  0  0  0  0  0  0  0
   -7.6064   13.4823  -37.7676 H   0  0  0  0  0  0  0  0  0  0  0  0
   -7.5631   14.3454  -36.2181 H   0  0  0  0  0  0  0  0  0  0  0  0
  -11.1989   16.6641  -39.6107 H   0  0  0  0  0  0  0  0  0  0  0  0
  -12.6570   17.3549  -40.3483 H   0  0  0  0  0  0  0  0  0  0  0  0
  -12.2914   15.6307  -40.5521 H   0  0  0  0  0  0  0  0  0  0  0  0
   -8.8884   13.7472  -32.8497 H   0  0  0  0  0  0  0  0  0  0  0  0
   -9.1977   12.6648  -34.2428 H   0  0  0  0  0  0  0  0  0  0  0  0
  -10.5580   13.4551  -33.4031 H   0  0  0  0  0  0  0  0  0  0  0  0
  1  3  1  0  0  0  0
  1  5  1  1  0  0  0
  2  4  1  0  0  0  0
  2  6  1  1  0  0  0
  3  7  1  0  0  0  0
  4 12  1  0  0  0  0
  5  8  1  0  0  0  0
  5 11  1  0  0  0  0
  6  7  1  0  0  0  0
  6 11  1  0  0  0  0
  7 13  1  6  0  0  0
  8 10  1  0  0  0  0
  8 14  1  1  0  0  0
  9 11  1  0  0  0  0
  9 17  1  6  0  0  0
  9 18  1  0  0  0  0
 10 17  1  0  0  0  0
 10 21  1  1  0  0  0
 11 19  1  6  0  0  0
 12 15  1  6  0  0  0
 12 18  1  0  0  0  0
 12 20  1  0  0  0  0
 16 21  1  0  0  0  0
 19 20  1  0  0  0  0
  1 22  1  0  0  0  0
  1 23  1  0  0  0  0
  2 24  1  0  0  0  0
  2 25  1  0  0  0  0
  3 26  1  0  0  0  0
  3 27  1  0  0  0  0
  4 28  1  0  0  0  0
  4 29  1  0  0  0  0
  5 30  1  0  0  0  0
  6 31  1  0  0  0  0
  7 32  1  0  0  0  0
  8 33  1  0  0  0  0
  9 34  1  0  0  0  0
 10 35  1  0  0  0  0
 13 36  1  0  0  0  0
 13 37  1  0  0  0  0
 13 38  1  0  0  0  0
 14 39  1  0  0  0  0
 14 40  1  0  0  0  0
 14 41  1  0  0  0  0
 15 42  1  0  0  0  0
 15 43  1  0  0  0  0
 15 44  1  0  0  0  0
 16 45  1  0  0  0  0
 16 46  1  0  0  0  0
 16 47  1  0  0  0  0
M  END
> <id>
EN300-19651964

> <smiles>
CO[C@H]1O[C@@H]2O[C@]3(C)CC[C@H]4[C@H](C)CC[C@@H]([C@H]1C)[C@@]24OO3

> <IUPAC Name>
(1S,4S,5R,8S,9R,10S,12R,13R)-10-methoxy-1,5,9-trimethyl-11,14,15,16-tetraoxatetracyclo[10.3.1.0^{4,13}.0^{8,13}]hexadecane

> <URL>
https://www.enaminestore.com/catalog/EN300-19651964

> <ROCS_ShapeQuery>
__x1247relevant_x1083L0AP1_x1305L0BP1_

> <ROCS_TanimotoCombo>
0.713 

> <ROCS_ShapeTanimoto>
0.521 

> <ROCS_ColorTanimoto>
0.192 

> <ROCS_RefTversky>
0.466 

> <ROCS_RefColorTversky>
0.219 

> <ROCS_RefTverskyCombo>
0.685 

> <ROCS_FitTversky>
1.296 

> <ROCS_FitColorTversky>
0.605 

> <ROCS_FitTverskyCombo>
1.902 

> <ROCS_ColorScore>
-7.174

> <ROCS_Overlap>
1378.026

> <ROCS_Rank>
426                 

$$$$
untitled-dbase-150793_33
  -OEChem-06232314393D

 27 28  0     1  0  0  0  0  0999 V2000
  -13.6004   14.3214  -39.0286 C   0  0  0  0  0  0  0  0  0  0  0  0
  -12.3224   14.2354  -39.4344 C   0  0  0  0  0  0  0  0  0  0  0  0
  -11.6608   17.1230  -40.1769 C   0  0  0  0  0  0  0  0  0  0  0  0
  -10.3868   14.3596  -36.5055 C   0  0  0  0  0  0  0  0  0  0  0  0
  -13.3450   16.6794  -38.3508 C   0  0  0  0  0  0  0  0  0  0  0  0
  -12.8775   14.8282  -36.7331 C   0  0  0  0  0  0  0  0  0  0  0  0
  -13.8170   15.2814  -37.8761 C   0  0  2  0  0  0  0  0  0  0  0  0
  -11.3620   15.1364  -38.6774 C   0  0  1  0  0  0  0  0  0  0  0  0
  -11.8551   16.6019  -38.7832 C   0  0  1  0  0  0  0  0  0  0  0  0
   -9.2838   13.6737  -37.2726 C   0  0  0  0  0  0  0  0  0  0  0  0
  -11.4931   14.7425  -37.2547 N   0  0  0  0  0  0  0  0  0  0  0  0
  -10.6492   17.6731  -40.5858 O   0  0  0  0  0  0  0  0  0  0  0  0
  -10.2706   14.5476  -35.2932 O   0  0  0  0  0  0  0  0  0  0  0  0
  -12.7671   16.9032  -40.9287 O   0  0  0  0  0  0  0  0  0  0  0  0
   -9.6086   13.5690  -38.5732 F   0  0  0  0  0  0  0  0  0  0  0  0
   -8.1376   14.3706  -37.1782 F   0  0  0  0  0  0  0  0  0  0  0  0
   -9.0668   12.4372  -36.7904 F   0  0  0  0  0  0  0  0  0  0  0  0
  -14.4064   13.7521  -39.4708 H   0  0  0  0  0  0  0  0  0  0  0  0
  -11.9966   13.5922  -40.2406 H   0  0  0  0  0  0  0  0  0  0  0  0
  -13.9866   17.0358  -39.1665 H   0  0  0  0  0  0  0  0  0  0  0  0
  -13.4482   17.4001  -37.5300 H   0  0  0  0  0  0  0  0  0  0  0  0
  -12.8925   15.5395  -35.9003 H   0  0  0  0  0  0  0  0  0  0  0  0
  -13.1632   13.8419  -36.3499 H   0  0  0  0  0  0  0  0  0  0  0  0
  -14.8623   15.2971  -37.5547 H   0  0  0  0  0  0  0  0  0  0  0  0
  -10.3360   15.0123  -39.0365 H   0  0  0  0  0  0  0  0  0  0  0  0
  -11.2492   17.2427  -38.1337 H   0  0  0  0  0  0  0  0  0  0  0  0
  -12.6605   17.2390  -41.8442 H   0  0  0  0  0  0  0  0  0  0  0  0
  1  2  2  0  0  0  0
  1  7  1  0  0  0  0
  2  8  1  0  0  0  0
  3  9  1  0  0  0  0
  3 12  2  0  0  0  0
  3 14  1  0  0  0  0
  4 10  1  0  0  0  0
  4 11  1  0  0  0  0
  4 13  2  0  0  0  0
  5  7  1  0  0  0  0
  5  9  1  0  0  0  0
  6  7  1  0  0  0  0
  6 11  1  0  0  0  0
  8  9  1  0  0  0  0
  8 11  1  0  0  0  0
 10 15  1  0  0  0  0
 10 16  1  0  0  0  0
 10 17  1  0  0  0  0
  1 18  1  0  0  0  0
  2 19  1  0  0  0  0
  5 20  1  0  0  0  0
  5 21  1  0  0  0  0
  6 22  1  0  0  0  0
  6 23  1  0  0  0  0
  7 24  1  0  0  0  0
  8 25  1  0  0  0  0
  9 26  1  0  0  0  0
 14 27  1  0  0  0  0
M  END
> <id>
EN300-28278327

> <smiles>
OC(=O)C1CC2CN(C1C=C2)C(=O)C(F)(F)F

> <IUPAC Name>
2-(2,2,2-trifluoroacetyl)-2-azabicyclo[2.2.2]oct-7-ene-6-carboxylic acid

> <CAS>
2680829-90-5

> <URL>
https://www.enaminestore.com/catalog/EN300-28278327

> <ROCS_ShapeQuery>
__x1247relevant_x1083L0AP1_x1305L0BP1_

> <ROCS_TanimotoCombo>
0.713 

> <ROCS_ShapeTanimoto>
0.507 

> <ROCS_ColorTanimoto>
0.206 

> <ROCS_RefTversky>
0.439 

> <ROCS_RefColorTversky>
0.230 

> <ROCS_RefTverskyCombo>
0.668 

> <ROCS_FitTversky>
1.444 

> <ROCS_FitColorTversky>
0.665 

> <ROCS_FitTverskyCombo>
2.110 

> <ROCS_ColorScore>
-7.497

> <ROCS_Overlap>
1294.647

> <ROCS_Rank>
427                 

$$$$
untitled-dbase-51711_0
  -OEChem-06232314393D

 34 36  0     1  0  0  0  0  0999 V2000
  -13.8713   14.2297  -39.1296 C   0  0  0  0  0  0  0  0  0  0  0  0
  -11.7603   15.3774  -39.6792 C   0  0  0  0  0  0  0  0  0  0  0  0
   -9.6727   15.3758  -37.6761 C   0  0  0  0  0  0  0  0  0  0  0  0
  -10.1534   14.8116  -35.6532 C   0  0  0  0  0  0  0  0  0  0  0  0
  -14.4279   15.5624  -38.6044 C   0  0  0  0  0  0  0  0  0  0  0  0
  -12.3636   16.6838  -39.1387 C   0  0  0  0  0  0  0  0  0  0  0  0
  -12.6890   15.7431  -36.9440 C   0  0  0  0  0  0  0  0  0  0  0  0
  -12.3469   14.1911  -38.8970 C   0  0  0  0  0  0  0  0  0  0  0  0
  -10.6105   14.3213  -37.0459 C   0  0  0  0  0  0  0  0  0  0  0  0
  -12.0814   14.3880  -37.3818 C   0  0  1  0  0  0  0  0  0  0  0  0
   -8.9347   15.4948  -36.3203 C   0  0  0  0  0  0  0  0  0  0  0  0
  -13.3589   16.4345  -38.0726 N   0  0  0  0  0  0  0  0  0  0  0  0
  -10.0423   12.9884  -37.2864 N   0  0  0  0  0  0  0  0  0  0  0  0
  -12.7292   13.3450  -36.6490 O   0  0  0  0  0  0  0  0  0  0  0  0
   -7.7711   14.8095  -36.2349 F   0  0  0  0  0  0  0  0  0  0  0  0
   -8.6750   16.7552  -35.9070 F   0  0  0  0  0  0  0  0  0  0  0  0
  -14.3638   13.3900  -38.6268 H   0  0  0  0  0  0  0  0  0  0  0  0
  -14.0891   14.1308  -40.2002 H   0  0  0  0  0  0  0  0  0  0  0  0
  -11.9985   15.2742  -40.7452 H   0  0  0  0  0  0  0  0  0  0  0  0
  -10.6682   15.4007  -39.6049 H   0  0  0  0  0  0  0  0  0  0  0  0
   -9.0550   15.0528  -38.5204 H   0  0  0  0  0  0  0  0  0  0  0  0
  -10.1764   16.3071  -37.9639 H   0  0  0  0  0  0  0  0  0  0  0  0
  -10.8362   15.5327  -35.1867 H   0  0  0  0  0  0  0  0  0  0  0  0
   -9.9123   14.0458  -34.9093 H   0  0  0  0  0  0  0  0  0  0  0  0
  -14.9654   16.0839  -39.4061 H   0  0  0  0  0  0  0  0  0  0  0  0
  -15.1755   15.3745  -37.8235 H   0  0  0  0  0  0  0  0  0  0  0  0
  -11.5667   17.3344  -38.7570 H   0  0  0  0  0  0  0  0  0  0  0  0
  -12.8321   17.2445  -39.9573 H   0  0  0  0  0  0  0  0  0  0  0  0
  -13.4147   15.6031  -36.1324 H   0  0  0  0  0  0  0  0  0  0  0  0
  -11.9191   16.4112  -36.5376 H   0  0  0  0  0  0  0  0  0  0  0  0
  -11.9375   13.2407  -39.2569 H   0  0  0  0  0  0  0  0  0  0  0  0
   -9.9765   12.8587  -38.2660 H   0  0  0  0  0  0  0  0  0  0  0  0
   -9.1477   12.9594  -36.8626 H   0  0  0  0  0  0  0  0  0  0  0  0
  -12.3276   12.5151  -36.9454 H   0  0  0  0  0  0  0  0  0  0  0  0
  1  5  1  0  0  0  0
  1  8  1  0  0  0  0
  2  6  1  0  0  0  0
  2  8  1  0  0  0  0
  3  9  1  0  0  0  0
  3 11  1  0  0  0  0
  4  9  1  0  0  0  0
  4 11  1  0  0  0  0
  5 12  1  0  0  0  0
  6 12  1  0  0  0  0
  7 10  1  0  0  0  0
  7 12  1  0  0  0  0
  8 10  1  0  0  0  0
  9 10  1  0  0  0  0
  9 13  1  0  0  0  0
 10 14  1  0  0  0  0
 11 15  1  0  0  0  0
 11 16  1  0  0  0  0
  1 17  1  0  0  0  0
  1 18  1  0  0  0  0
  2 19  1  0  0  0  0
  2 20  1  0  0  0  0
  3 21  1  0  0  0  0
  3 22  1  0  0  0  0
  4 23  1  0  0  0  0
  4 24  1  0  0  0  0
  5 25  1  0  0  0  0
  5 26  1  0  0  0  0
  6 27  1  0  0  0  0
  6 28  1  0  0  0  0
  7 29  1  0  0  0  0
  7 30  1  0  0  0  0
  8 31  1  0  0  0  0
 13 32  1  0  0  0  0
 13 33  1  0  0  0  0
 14 34  1  0  0  0  0
M  END
> <id>
EN300-1643550

> <smiles>
NC1(CC(F)(F)C1)C2(O)CN3CCC2CC3

> <IUPAC Name>
3-(1-amino-3,3-difluorocyclobutyl)-1-azabicyclo[2.2.2]octan-3-ol

> <CAS>
2171631-02-8

> <URL>
https://www.enaminestore.com/catalog/EN300-1643550

> <ROCS_ShapeQuery>
__x1247relevant_x1083L0AP1_x1305L0BP1_

> <ROCS_TanimotoCombo>
0.713 

> <ROCS_ShapeTanimoto>
0.516 

> <ROCS_ColorTanimoto>
0.197 

> <ROCS_RefTversky>
0.438 

> <ROCS_RefColorTversky>
0.231 

> <ROCS_RefTverskyCombo>
0.669 

> <ROCS_FitTversky>
1.529 

> <ROCS_FitColorTversky>
0.574 

> <ROCS_FitTverskyCombo>
2.103 

> <ROCS_ColorScore>
-7.553

> <ROCS_Overlap>
1290.991

> <ROCS_Rank>
428                 

$$$$
untitled-dbase-151056_25
  -OEChem-06232314393D

 25 26  0     1  0  0  0  0  0999 V2000
  -13.5192   15.6326  -39.2025 C   0  0  0  0  0  0  0  0  0  0  0  0
  -10.2327   15.3244  -36.6620 C   0  0  0  0  0  0  0  0  0  0  0  0
  -10.3467   16.0661  -39.7318 C   0  0  0  0  0  0  0  0  0  0  0  0
  -13.8580   16.0360  -37.7768 C   0  0  0  0  0  0  0  0  0  0  0  0
  -12.6955   13.9498  -37.8466 C   0  0  0  0  0  0  0  0  0  0  0  0
  -12.3818   14.6252  -39.1770 C   0  0  2  0  0  0  0  0  0  0  0  0
  -11.3685   15.9033  -37.4490 C   0  0  2  0  0  0  0  0  0  0  0  0
  -12.7241   15.2704  -37.0527 C   0  0  1  0  0  0  0  0  0  0  0  0
  -10.8731   16.3462  -41.1154 C   0  0  0  0  0  0  0  0  0  0  0  0
  -11.2512   15.4994  -38.8536 N   0  0  0  0  0  0  0  0  0  0  0  0
  -14.0407   16.0904  -40.2070 O   0  0  0  0  0  0  0  0  0  0  0  0
  -10.3510   14.5414  -35.7312 O   0  0  0  0  0  0  0  0  0  0  0  0
   -9.1776   16.3266  -39.4438 O   0  0  0  0  0  0  0  0  0  0  0  0
   -9.0456   15.7903  -37.1212 O   0  0  0  0  0  0  0  0  0  0  0  0
  -12.1620   15.9738  -41.2159 F   0  0  0  0  0  0  0  0  0  0  0  0
  -10.7910   17.6589  -41.3983 F   0  0  0  0  0  0  0  0  0  0  0  0
  -10.1667   15.6717  -42.0408 F   0  0  0  0  0  0  0  0  0  0  0  0
  -13.7904   17.1172  -37.6403 H   0  0  0  0  0  0  0  0  0  0  0  0
  -14.8460   15.6526  -37.5098 H   0  0  0  0  0  0  0  0  0  0  0  0
  -13.6617   13.4328  -37.8359 H   0  0  0  0  0  0  0  0  0  0  0  0
  -11.9109   13.2594  -37.5225 H   0  0  0  0  0  0  0  0  0  0  0  0
  -12.2938   14.0050  -40.0664 H   0  0  0  0  0  0  0  0  0  0  0  0
  -11.3498   16.9938  -37.3550 H   0  0  0  0  0  0  0  0  0  0  0  0
  -12.8793   15.1529  -35.9781 H   0  0  0  0  0  0  0  0  0  0  0  0
   -9.1612   16.4087  -37.8739 H   0  0  0  0  0  0  0  0  0  0  0  0
  1  4  1  0  0  0  0
  1  6  1  0  0  0  0
  1 11  2  0  0  0  0
  2  7  1  1  0  0  0
  2 12  2  0  0  0  0
  2 14  1  0  0  0  0
  3  9  1  0  0  0  0
  3 10  1  0  0  0  0
  3 13  2  0  0  0  0
  4  8  1  6  0  0  0
  5  6  1  0  0  0  0
  5  8  1  0  0  0  0
  6 10  1  6  0  0  0
  7  8  1  0  0  0  0
  7 10  1  0  0  0  0
  9 15  1  0  0  0  0
  9 16  1  0  0  0  0
  9 17  1  0  0  0  0
  4 18  1  0  0  0  0
  4 19  1  0  0  0  0
  5 20  1  0  0  0  0
  5 21  1  0  0  0  0
  6 22  1  0  0  0  0
  7 23  1  0  0  0  0
  8 24  1  0  0  0  0
 14 25  1  0  0  0  0
M  END
> <id>
EN300-28278654

> <smiles>
OC(=O)[C@@H]1[C@@H]2C[C@H](N1C(=O)C(F)(F)F)C(=O)C2 |&1:3,4,6,r|

> <IUPAC Name>
rac-(1R,3R,4S)-6-oxo-2-(2,2,2-trifluoroacetyl)-2-azabicyclo[2.2.1]heptane-3-carboxylic acid

> <CAS>
2679801-86-4

> <URL>
https://www.enaminestore.com/catalog/EN300-28278654

> <ROCS_ShapeQuery>
__x1247relevant_x1083L0AP1_x1305L0BP1_

> <ROCS_TanimotoCombo>
0.713 

> <ROCS_ShapeTanimoto>
0.488 

> <ROCS_ColorTanimoto>
0.225 

> <ROCS_RefTversky>
0.429 

> <ROCS_RefColorTversky>
0.254 

> <ROCS_RefTverskyCombo>
0.683 

> <ROCS_FitTversky>
1.394 

> <ROCS_FitColorTversky>
0.662 

> <ROCS_FitTverskyCombo>
2.056 

> <ROCS_ColorScore>
-8.314

> <ROCS_Overlap>
1265.972

> <ROCS_Rank>
429                 

$$$$
untitled-dbase-109967_5
  -OEChem-06232314393D

 24 25  0     1  0  0  0  0  0999 V2000
  -10.1280   15.1850  -36.7984 C   0  0  0  0  0  0  0  0  0  0  0  0
  -12.5848   16.4037  -39.4771 C   0  0  0  0  0  0  0  0  0  0  0  0
  -13.2491   15.0330  -39.6852 C   0  0  0  0  0  0  0  0  0  0  0  0
  -12.9868   16.2801  -37.0195 C   0  0  0  0  0  0  0  0  0  0  0  0
  -10.9372   15.2176  -38.0552 C   0  0  2  0  0  0  0  0  0  0  0  0
  -11.8938   16.4278  -38.0993 C   0  0  1  0  0  0  0  0  0  0  0  0
  -13.1013   14.1794  -38.4123 C   0  0  2  0  0  0  0  0  0  0  0  0
  -13.6909   14.9397  -37.2197 C   0  0  0  0  0  0  0  0  0  0  0  0
  -11.6712   13.9453  -38.1375 N   0  0  0  0  0  0  0  0  0  0  0  0
  -10.4582   14.6215  -35.7655 O   0  0  0  0  0  0  0  0  0  0  0  0
   -8.9701   15.8717  -36.9566 O   0  0  0  0  0  0  0  0  0  0  0  0
  -13.5877   14.1913  -36.0932 F   0  0  0  0  0  0  0  0  0  0  0  0
  -15.0171   15.1464  -37.4188 F   0  0  0  0  0  0  0  0  0  0  0  0
  -11.8554   16.5875  -40.2748 H   0  0  0  0  0  0  0  0  0  0  0  0
  -13.3346   17.2008  -39.5449 H   0  0  0  0  0  0  0  0  0  0  0  0
  -14.3087   15.1698  -39.9315 H   0  0  0  0  0  0  0  0  0  0  0  0
  -12.7917   14.5230  -40.5420 H   0  0  0  0  0  0  0  0  0  0  0  0
  -12.5459   16.3350  -36.0183 H   0  0  0  0  0  0  0  0  0  0  0  0
  -13.7055   17.1037  -37.1013 H   0  0  0  0  0  0  0  0  0  0  0  0
  -10.2274   15.2838  -38.8893 H   0  0  0  0  0  0  0  0  0  0  0  0
  -11.3520   17.3692  -37.9559 H   0  0  0  0  0  0  0  0  0  0  0  0
  -13.6117   13.2188  -38.5352 H   0  0  0  0  0  0  0  0  0  0  0  0
  -11.2695   13.3744  -38.8810 H   0  0  0  0  0  0  0  0  0  0  0  0
   -8.8893   16.2509  -37.8577 H   0  0  0  0  0  0  0  0  0  0  0  0
  1  5  1  1  0  0  0
  1 10  2  0  0  0  0
  1 11  1  0  0  0  0
  2  3  1  0  0  0  0
  2  6  1  0  0  0  0
  3  7  1  0  0  0  0
  4  6  1  0  0  0  0
  4  8  1  0  0  0  0
  5  6  1  0  0  0  0
  5  9  1  0  0  0  0
  7  8  1  0  0  0  0
  7  9  1  0  0  0  0
  8 12  1  0  0  0  0
  8 13  1  0  0  0  0
  2 14  1  0  0  0  0
  2 15  1  0  0  0  0
  3 16  1  0  0  0  0
  3 17  1  0  0  0  0
  4 18  1  0  0  0  0
  4 19  1  0  0  0  0
  5 20  1  0  0  0  0
  6 21  1  0  0  0  0
  7 22  1  0  0  0  0
  9 23  1  0  0  0  0
 11 24  1  0  0  0  0
M  END
> <id>
EN300-109782

> <smiles>
Cl.OC(=O)[C@H]1NC2CCC1CC2(F)F

> <MDLNUMBER>
MFCD22378707

> <IUPAC Name>
(3S)-6,6-difluoro-2-azabicyclo[2.2.2]octane-3-carboxylic acid hydrochloride

> <CAS>
1394052-53-9

> <URL>
https://www.enaminestore.com/catalog/EN300-109782

> <Saltdate>
Cl

> <ROCS_ShapeQuery>
__x1247relevant_x1083L0AP1_x1305L0BP1_

> <ROCS_TanimotoCombo>
0.713 

> <ROCS_ShapeTanimoto>
0.457 

> <ROCS_ColorTanimoto>
0.256 

> <ROCS_RefTversky>
0.390 

> <ROCS_RefColorTversky>
0.279 

> <ROCS_RefTverskyCombo>
0.669 

> <ROCS_FitTversky>
1.608 

> <ROCS_FitColorTversky>
0.750 

> <ROCS_FitTverskyCombo>
2.358 

> <ROCS_ColorScore>
-9.138

> <ROCS_Overlap>
1146.856

> <ROCS_Rank>
430                 

$$$$
untitled-dbase-110469_5
  -OEChem-06232314393D

 24 25  0     1  0  0  0  0  0999 V2000
  -10.1280   15.1850  -36.7984 C   0  0  0  0  0  0  0  0  0  0  0  0
  -12.5848   16.4037  -39.4771 C   0  0  0  0  0  0  0  0  0  0  0  0
  -13.2491   15.0330  -39.6852 C   0  0  0  0  0  0  0  0  0  0  0  0
  -12.9868   16.2801  -37.0195 C   0  0  0  0  0  0  0  0  0  0  0  0
  -10.9372   15.2176  -38.0552 C   0  0  2  0  0  0  0  0  0  0  0  0
  -11.8938   16.4278  -38.0993 C   0  0  1  0  0  0  0  0  0  0  0  0
  -13.1013   14.1794  -38.4123 C   0  0  2  0  0  0  0  0  0  0  0  0
  -13.6909   14.9397  -37.2197 C   0  0  0  0  0  0  0  0  0  0  0  0
  -11.6712   13.9453  -38.1375 N   0  0  0  0  0  0  0  0  0  0  0  0
  -10.4582   14.6215  -35.7655 O   0  0  0  0  0  0  0  0  0  0  0  0
   -8.9701   15.8717  -36.9566 O   0  0  0  0  0  0  0  0  0  0  0  0
  -13.5877   14.1913  -36.0932 F   0  0  0  0  0  0  0  0  0  0  0  0
  -15.0171   15.1464  -37.4188 F   0  0  0  0  0  0  0  0  0  0  0  0
  -11.8554   16.5875  -40.2748 H   0  0  0  0  0  0  0  0  0  0  0  0
  -13.3346   17.2008  -39.5449 H   0  0  0  0  0  0  0  0  0  0  0  0
  -14.3087   15.1698  -39.9315 H   0  0  0  0  0  0  0  0  0  0  0  0
  -12.7917   14.5230  -40.5420 H   0  0  0  0  0  0  0  0  0  0  0  0
  -12.5459   16.3350  -36.0183 H   0  0  0  0  0  0  0  0  0  0  0  0
  -13.7055   17.1037  -37.1013 H   0  0  0  0  0  0  0  0  0  0  0  0
  -10.2274   15.2838  -38.8893 H   0  0  0  0  0  0  0  0  0  0  0  0
  -11.3520   17.3692  -37.9559 H   0  0  0  0  0  0  0  0  0  0  0  0
  -13.6117   13.2188  -38.5352 H   0  0  0  0  0  0  0  0  0  0  0  0
  -11.2695   13.3744  -38.8810 H   0  0  0  0  0  0  0  0  0  0  0  0
   -8.8893   16.2509  -37.8577 H   0  0  0  0  0  0  0  0  0  0  0  0
  1  5  1  1  0  0  0
  1 10  2  0  0  0  0
  1 11  1  0  0  0  0
  2  3  1  0  0  0  0
  2  6  1  0  0  0  0
  3  7  1  0  0  0  0
  4  6  1  0  0  0  0
  4  8  1  0  0  0  0
  5  6  1  0  0  0  0
  5  9  1  0  0  0  0
  7  8  1  0  0  0  0
  7  9  1  0  0  0  0
  8 12  1  0  0  0  0
  8 13  1  0  0  0  0
  2 14  1  0  0  0  0
  2 15  1  0  0  0  0
  3 16  1  0  0  0  0
  3 17  1  0  0  0  0
  4 18  1  0  0  0  0
  4 19  1  0  0  0  0
  5 20  1  0  0  0  0
  6 21  1  0  0  0  0
  7 22  1  0  0  0  0
  9 23  1  0  0  0  0
 11 24  1  0  0  0  0
M  END
> <id>
EN300-109615

> <smiles>
OC(=O)[C@H]1NC2CCC1CC2(F)F

> <MDLNUMBER>
MFCD27919996

> <IUPAC Name>
(3S)-6,6-difluoro-2-azabicyclo[2.2.2]octane-3-carboxylic acid

> <CAS>
1394117-03-3

> <URL>
https://www.enaminestore.com/catalog/EN300-109615

> <ROCS_ShapeQuery>
__x1247relevant_x1083L0AP1_x1305L0BP1_

> <ROCS_TanimotoCombo>
0.713 

> <ROCS_ShapeTanimoto>
0.457 

> <ROCS_ColorTanimoto>
0.256 

> <ROCS_RefTversky>
0.390 

> <ROCS_RefColorTversky>
0.279 

> <ROCS_RefTverskyCombo>
0.669 

> <ROCS_FitTversky>
1.608 

> <ROCS_FitColorTversky>
0.750 

> <ROCS_FitTverskyCombo>
2.358 

> <ROCS_ColorScore>
-9.138

> <ROCS_Overlap>
1146.856

> <ROCS_Rank>
431                 

$$$$
untitled-dbase-81044_29
  -OEChem-06232314393D

 30 32  0     1  0  0  0  0  0999 V2000
  -14.0146   16.0480  -39.0459 C   0  0  0  0  0  0  0  0  0  0  0  0
  -12.8423   15.6882  -39.9594 C   0  0  0  0  0  0  0  0  0  0  0  0
  -12.5122   15.9036  -37.0329 C   0  0  0  0  0  0  0  0  0  0  0  0
  -10.0852   14.9671  -35.7235 C   0  0  0  0  0  0  0  0  0  0  0  0
   -8.8056   15.0466  -37.4721 C   0  0  0  0  0  0  0  0  0  0  0  0
  -11.3252   15.5737  -37.9532 C   0  0  2  0  0  0  0  0  0  0  0  0
  -13.6832   15.2634  -37.7784 C   0  0  2  0  0  0  0  0  0  0  0  0
  -12.0116   14.7673  -39.0659 C   0  0  1  0  0  0  0  0  0  0  0  0
   -8.7332   15.6392  -36.0478 C   0  0  0  0  0  0  0  0  0  0  0  0
  -10.2990   14.7248  -37.2352 C   0  0  0  0  0  0  0  0  0  0  0  0
  -10.5059   13.2913  -37.4556 N   0  0  0  0  0  0  0  0  0  0  0  0
  -13.0549   14.0840  -38.3305 O   0  0  0  0  0  0  0  0  0  0  0  0
   -8.6917   17.0762  -35.9521 O   0  0  0  0  0  0  0  0  0  0  0  0
  -14.1090   17.1238  -38.8717 H   0  0  0  0  0  0  0  0  0  0  0  0
  -14.9487   15.6873  -39.4909 H   0  0  0  0  0  0  0  0  0  0  0  0
  -13.2153   15.1424  -40.8335 H   0  0  0  0  0  0  0  0  0  0  0  0
  -12.2861   16.5626  -40.3098 H   0  0  0  0  0  0  0  0  0  0  0  0
  -12.3913   15.4437  -36.0456 H   0  0  0  0  0  0  0  0  0  0  0  0
  -12.6490   16.9807  -36.8941 H   0  0  0  0  0  0  0  0  0  0  0  0
  -10.0292   14.0771  -35.0866 H   0  0  0  0  0  0  0  0  0  0  0  0
  -10.8125   15.6542  -35.2715 H   0  0  0  0  0  0  0  0  0  0  0  0
   -8.6264   15.7902  -38.2595 H   0  0  0  0  0  0  0  0  0  0  0  0
   -8.1442   14.1942  -37.6617 H   0  0  0  0  0  0  0  0  0  0  0  0
  -10.8442   16.4780  -38.3417 H   0  0  0  0  0  0  0  0  0  0  0  0
  -14.5454   15.0249  -37.1518 H   0  0  0  0  0  0  0  0  0  0  0  0
  -11.3675   14.0700  -39.6070 H   0  0  0  0  0  0  0  0  0  0  0  0
   -7.9004   15.2076  -35.4557 H   0  0  0  0  0  0  0  0  0  0  0  0
   -9.6991   12.8112  -37.1364 H   0  0  0  0  0  0  0  0  0  0  0  0
  -11.3077   13.0141  -36.9421 H   0  0  0  0  0  0  0  0  0  0  0  0
   -7.7885   17.3297  -36.1834 H   0  0  0  0  0  0  0  0  0  0  0  0
  1  2  1  0  0  0  0
  1  7  1  0  0  0  0
  2  8  1  0  0  0  0
  3  6  1  0  0  0  0
  3  7  1  0  0  0  0
  4  9  1  0  0  0  0
  4 10  1  0  0  0  0
  5  9  1  0  0  0  0
  5 10  1  0  0  0  0
  6  8  1  0  0  0  0
  6 10  1  0  0  0  0
  7 12  1  0  0  0  0
  8 12  1  0  0  0  0
  9 13  1  0  0  0  0
 10 11  1  0  0  0  0
  1 14  1  0  0  0  0
  1 15  1  0  0  0  0
  2 16  1  0  0  0  0
  2 17  1  0  0  0  0
  3 18  1  0  0  0  0
  3 19  1  0  0  0  0
  4 20  1  0  0  0  0
  4 21  1  0  0  0  0
  5 22  1  0  0  0  0
  5 23  1  0  0  0  0
  6 24  1  0  0  0  0
  7 25  1  0  0  0  0
  8 26  1  0  0  0  0
  9 27  1  0  0  0  0
 11 28  1  0  0  0  0
 11 29  1  0  0  0  0
 13 30  1  0  0  0  0
M  END
> <id>
EN300-1754112

> <smiles>
NC1(CC(O)C1)C2CC3CCC2O3

> <IUPAC Name>
3-amino-3-{7-oxabicyclo[2.2.1]heptan-2-yl}cyclobutan-1-ol

> <CAS>
2228336-19-2

> <URL>
https://www.enaminestore.com/catalog/EN300-1754112

> <ROCS_ShapeQuery>
__x1247relevant_x1083L0AP1_x1305L0BP1_

> <ROCS_TanimotoCombo>
0.713 

> <ROCS_ShapeTanimoto>
0.468 

> <ROCS_ColorTanimoto>
0.245 

> <ROCS_RefTversky>
0.396 

> <ROCS_RefColorTversky>
0.278 

> <ROCS_RefTverskyCombo>
0.673 

> <ROCS_FitTversky>
1.641 

> <ROCS_FitColorTversky>
0.678 

> <ROCS_FitTverskyCombo>
2.318 

> <ROCS_ColorScore>
-9.099

> <ROCS_Overlap>
1162.964

> <ROCS_Rank>
432                 

$$$$
untitled-dbase-106164_0
  -OEChem-06232314393D

 24 26  0     1  0  0  0  0  0999 V2000
  -13.7691   15.0065  -39.5755 C   0  0  0  0  0  0  0  0  0  0  0  0
  -12.4741   15.7156  -40.0183 C   0  0  0  0  0  0  0  0  0  0  0  0
  -13.4998   15.9064  -37.2504 C   0  0  0  0  0  0  0  0  0  0  0  0
  -13.7518   14.6258  -38.0833 C   0  0  2  0  0  0  0  0  0  0  0  0
  -11.4997   15.9099  -38.8902 C   0  0  1  0  0  0  0  0  0  0  0  0
  -12.0334   16.1512  -37.5016 C   0  0  2  0  0  0  0  0  0  0  0  0
  -11.3912   14.8350  -37.8302 C   0  0  1  0  0  0  0  0  0  0  0  0
  -12.4848   13.8068  -37.7817 C   0  0  0  0  0  0  0  0  0  0  0  0
  -10.0554   14.4769  -37.2733 C   0  0  0  0  0  0  0  0  0  0  0  0
   -9.2711   15.6562  -37.0967 O   0  0  0  0  0  0  0  0  0  0  0  0
  -12.5634   13.2581  -36.5459 F   0  0  0  0  0  0  0  0  0  0  0  0
  -12.2914   12.8093  -38.6679 F   0  0  0  0  0  0  0  0  0  0  0  0
  -14.6269   15.6588  -39.7806 H   0  0  0  0  0  0  0  0  0  0  0  0
  -13.9170   14.1080  -40.1869 H   0  0  0  0  0  0  0  0  0  0  0  0
  -11.9914   15.1322  -40.8110 H   0  0  0  0  0  0  0  0  0  0  0  0
  -12.7221   16.6909  -40.4527 H   0  0  0  0  0  0  0  0  0  0  0  0
  -14.1184   16.7494  -37.5725 H   0  0  0  0  0  0  0  0  0  0  0  0
  -13.6732   15.7208  -36.1848 H   0  0  0  0  0  0  0  0  0  0  0  0
  -14.6727   14.1140  -37.7910 H   0  0  0  0  0  0  0  0  0  0  0  0
  -10.6061   16.4395  -39.1932 H   0  0  0  0  0  0  0  0  0  0  0  0
  -11.5509   16.8565  -36.8454 H   0  0  0  0  0  0  0  0  0  0  0  0
   -9.5017   13.8020  -37.9465 H   0  0  0  0  0  0  0  0  0  0  0  0
  -10.1430   13.9809  -36.2927 H   0  0  0  0  0  0  0  0  0  0  0  0
   -8.4195   15.3675  -36.7351 H   0  0  0  0  0  0  0  0  0  0  0  0
  1  2  1  0  0  0  0
  1  4  1  0  0  0  0
  2  5  1  0  0  0  0
  3  4  1  0  0  0  0
  3  6  1  0  0  0  0
  4  8  1  0  0  0  0
  5  6  1  0  0  0  0
  5  7  1  0  0  0  0
  6  7  1  0  0  0  0
  7  8  1  0  0  0  0
  7  9  1  0  0  0  0
  8 11  1  0  0  0  0
  8 12  1  0  0  0  0
  9 10  1  0  0  0  0
  1 13  1  0  0  0  0
  1 14  1  0  0  0  0
  2 15  1  0  0  0  0
  2 16  1  0  0  0  0
  3 17  1  0  0  0  0
  3 18  1  0  0  0  0
  4 19  1  0  0  0  0
  5 20  1  0  0  0  0
  6 21  1  0  0  0  0
  9 22  1  0  0  0  0
  9 23  1  0  0  0  0
 10 24  1  0  0  0  0
M  END
> <id>
EN300-26632235

> <smiles>
OCC1(C2CC3CCC21)C3(F)F

> <MDLNUMBER>
MFCD32668202

> <IUPAC Name>
{8,8-difluorotricyclo[3.2.1.0,2,7]octan-1-yl}methanol

> <CAS>
2649055-46-7

> <Purity>
95

> <URL>
https://www.enaminestore.com/catalog/EN300-26632235

> <ROCS_ShapeQuery>
__x1247relevant_x1083L0AP1_x1305L0BP1_

> <ROCS_TanimotoCombo>
0.713 

> <ROCS_ShapeTanimoto>
0.460 

> <ROCS_ColorTanimoto>
0.253 

> <ROCS_RefTversky>
0.388 

> <ROCS_RefColorTversky>
0.370 

> <ROCS_RefTverskyCombo>
0.758 

> <ROCS_FitTversky>
1.681 

> <ROCS_FitColorTversky>
0.444 

> <ROCS_FitTverskyCombo>
2.124 

> <ROCS_ColorScore>
-12.404

> <ROCS_Overlap>
1140.185

> <ROCS_Rank>
433                 

$$$$
untitled-dbase-69990_9
  -OEChem-06232314393D

 26 27  0     1  0  0  0  0  0999 V2000
  -13.3154   16.4609  -40.3170 C   0  0  0  0  0  0  0  0  0  0  0  0
   -9.9331   14.8712  -37.0097 C   0  0  0  0  0  0  0  0  0  0  0  0
  -13.3183   14.9901  -36.8474 C   0  0  0  0  0  0  0  0  0  0  0  0
  -13.6957   16.1377  -37.8087 C   0  0  0  0  0  0  0  0  0  0  0  0
  -12.8432   14.3061  -39.0685 C   0  0  0  0  0  0  0  0  0  0  0  0
  -11.3544   16.1194  -38.7228 C   0  0  0  0  0  0  0  0  0  0  0  0
  -12.2703   14.2054  -37.6558 C   0  0  1  0  0  0  0  0  0  0  0  0
  -12.8306   15.8403  -39.0515 C   0  0  1  0  0  0  0  0  0  0  0  0
   -9.9455   13.6696  -36.1001 C   0  0  0  0  0  0  0  0  0  0  0  0
  -11.0765   15.0541  -37.7577 N   0  0  0  0  0  0  0  0  0  0  0  0
  -12.6823   17.2550  -40.9968 O   0  0  0  0  0  0  0  0  0  0  0  0
   -8.9505   15.6122  -37.0561 O   0  0  0  0  0  0  0  0  0  0  0  0
  -14.5640   16.0261  -40.6158 O   0  0  0  0  0  0  0  0  0  0  0  0
  -12.9264   15.3605  -35.8946 H   0  0  0  0  0  0  0  0  0  0  0  0
  -14.1963   14.3683  -36.6390 H   0  0  0  0  0  0  0  0  0  0  0  0
  -14.7674   16.1081  -38.0373 H   0  0  0  0  0  0  0  0  0  0  0  0
  -13.4739   17.1186  -37.3748 H   0  0  0  0  0  0  0  0  0  0  0  0
  -12.1901   13.8729  -39.8347 H   0  0  0  0  0  0  0  0  0  0  0  0
  -13.8472   13.8786  -39.1689 H   0  0  0  0  0  0  0  0  0  0  0  0
  -10.6914   15.9981  -39.5863 H   0  0  0  0  0  0  0  0  0  0  0  0
  -11.1848   17.1014  -38.2708 H   0  0  0  0  0  0  0  0  0  0  0  0
  -12.0571   13.2041  -37.2774 H   0  0  0  0  0  0  0  0  0  0  0  0
   -9.5488   12.8135  -36.6363 H   0  0  0  0  0  0  0  0  0  0  0  0
  -10.9657   13.4702  -35.7872 H   0  0  0  0  0  0  0  0  0  0  0  0
   -9.3330   13.8769  -35.2282 H   0  0  0  0  0  0  0  0  0  0  0  0
  -14.9021   16.4252  -41.4457 H   0  0  0  0  0  0  0  0  0  0  0  0
  1  8  1  6  0  0  0
  1 11  2  0  0  0  0
  1 13  1  0  0  0  0
  2  9  1  0  0  0  0
  2 10  1  0  0  0  0
  2 12  2  0  0  0  0
  3  4  1  0  0  0  0
  3  7  1  1  0  0  0
  4  8  1  0  0  0  0
  5  7  1  0  0  0  0
  5  8  1  0  0  0  0
  6  8  1  0  0  0  0
  6 10  1  0  0  0  0
  7 10  1  0  0  0  0
  3 14  1  0  0  0  0
  3 15  1  0  0  0  0
  4 16  1  0  0  0  0
  4 17  1  0  0  0  0
  5 18  1  0  0  0  0
  5 19  1  0  0  0  0
  6 20  1  0  0  0  0
  6 21  1  0  0  0  0
  7 22  1  0  0  0  0
  9 23  1  0  0  0  0
  9 24  1  0  0  0  0
  9 25  1  0  0  0  0
 13 26  1  0  0  0  0
M  END
> <id>
EN300-37419274

> <smiles>
CC(=O)N1C[C@@]2(CC[C@H]1C2)C(=O)O

> <IUPAC Name>
(1S,4S)-2-acetyl-2-azabicyclo[2.2.1]heptane-4-carboxylic acid

> <URL>
https://www.enaminestore.com/catalog/EN300-37419274

> <ROCS_ShapeQuery>
__x1247relevant_x1083L0AP1_x1305L0BP1_

> <ROCS_TanimotoCombo>
0.713 

> <ROCS_ShapeTanimoto>
0.494 

> <ROCS_ColorTanimoto>
0.219 

> <ROCS_RefTversky>
0.410 

> <ROCS_RefColorTversky>
0.243 

> <ROCS_RefTverskyCombo>
0.653 

> <ROCS_FitTversky>
1.702 

> <ROCS_FitColorTversky>
0.688 

> <ROCS_FitTverskyCombo>
2.391 

> <ROCS_ColorScore>
-7.951

> <ROCS_Overlap>
1205.911

> <ROCS_Rank>
434                 

$$$$
untitled-dbase-83329_56
  -OEChem-06232314393D

 47 51  0     1  0  0  0  0  0999 V2000
  -14.7788   15.5226  -37.7314 C   0  0  0  0  0  0  0  0  0  0  0  0
  -13.6917   15.5306  -36.9395 C   0  0  0  0  0  0  0  0  0  0  0  0
   -8.3463   13.7906  -36.1732 C   0  0  0  0  0  0  0  0  0  0  0  0
  -12.4176   16.0869  -39.6059 C   0  0  0  0  0  0  0  0  0  0  0  0
   -7.4931   13.3842  -35.2265 C   0  0  0  0  0  0  0  0  0  0  0  0
  -11.2158   11.9226  -38.8386 C   0  0  0  0  0  0  0  0  0  0  0  0
   -9.3764   12.8985  -36.8337 C   0  0  0  0  0  0  0  0  0  0  0  0
  -10.6848   15.5646  -35.5821 C   0  0  0  0  0  0  0  0  0  0  0  0
   -9.3079   16.1371  -35.9294 C   0  0  0  0  0  0  0  0  0  0  0  0
   -9.1828   14.8991  -38.0621 C   0  0  0  0  0  0  0  0  0  0  0  0
  -14.6872   15.1383  -39.1976 C   0  0  1  0  0  0  0  0  0  0  0  0
  -11.1272   13.4180  -38.7716 C   0  0  1  0  0  0  0  0  0  0  0  0
  -11.2836   14.5782  -36.5995 C   0  0  1  0  0  0  0  0  0  0  0  0
  -12.5443   13.9978  -38.5392 C   0  0  1  0  0  0  0  0  0  0  0  0
  -12.3632   15.1337  -37.5281 C   0  0  1  0  0  0  0  0  0  0  0  0
   -8.4428   15.1839  -36.7623 C   0  0  2  0  0  0  0  0  0  0  0  0
  -13.2274   14.7961  -39.6534 C   0  0  2  0  0  0  0  0  0  0  0  0
  -10.2657   13.9152  -37.5835 C   0  0  1  0  0  0  0  0  0  0  0  0
  -13.1636   14.1319  -41.0227 C   0  0  0  0  0  0  0  0  0  0  0  0
  -12.2590   16.8853  -40.5149 O   0  0  0  0  0  0  0  0  0  0  0  0
  -11.3768   11.2742  -39.8618 O   0  0  0  0  0  0  0  0  0  0  0  0
  -11.9080   16.2361  -38.3336 O   0  0  0  0  0  0  0  0  0  0  0  0
  -11.0952   11.3800  -37.6023 O   0  0  0  0  0  0  0  0  0  0  0  0
  -15.5513   14.0207  -39.3917 O   0  0  0  0  0  0  0  0  0  0  0  0
   -7.1780   15.7541  -37.0415 O   0  0  0  0  0  0  0  0  0  0  0  0
  -15.7427   15.8238  -37.3333 H   0  0  0  0  0  0  0  0  0  0  0  0
  -13.7624   15.8368  -35.9036 H   0  0  0  0  0  0  0  0  0  0  0  0
   -6.7803   14.0746  -34.7949 H   0  0  0  0  0  0  0  0  0  0  0  0
   -7.5037   12.3595  -34.8790 H   0  0  0  0  0  0  0  0  0  0  0  0
   -8.8498   12.2298  -37.5236 H   0  0  0  0  0  0  0  0  0  0  0  0
   -9.9336   12.2963  -36.1103 H   0  0  0  0  0  0  0  0  0  0  0  0
  -10.6474   15.0916  -34.5800 H   0  0  0  0  0  0  0  0  0  0  0  0
  -11.3715   16.4236  -35.4458 H   0  0  0  0  0  0  0  0  0  0  0  0
   -9.4507   17.0890  -36.4623 H   0  0  0  0  0  0  0  0  0  0  0  0
   -8.7853   16.4123  -35.0012 H   0  0  0  0  0  0  0  0  0  0  0  0
   -9.5928   15.8054  -38.5301 H   0  0  0  0  0  0  0  0  0  0  0  0
   -8.5223   14.4406  -38.8155 H   0  0  0  0  0  0  0  0  0  0  0  0
  -15.0795   15.9727  -39.7918 H   0  0  0  0  0  0  0  0  0  0  0  0
  -10.7017   13.7492  -39.7123 H   0  0  0  0  0  0  0  0  0  0  0  0
  -11.7623   13.7528  -36.0116 H   0  0  0  0  0  0  0  0  0  0  0  0
  -13.2152   13.1961  -38.1481 H   0  0  0  0  0  0  0  0  0  0  0  0
  -13.7523   13.2143  -41.0201 H   0  0  0  0  0  0  0  0  0  0  0  0
  -12.1306   13.8883  -41.2714 H   0  0  0  0  0  0  0  0  0  0  0  0
  -13.5612   14.8048  -41.7827 H   0  0  0  0  0  0  0  0  0  0  0  0
  -11.1525   10.4010  -37.6247 H   0  0  0  0  0  0  0  0  0  0  0  0
  -16.4425   14.3153  -39.1482 H   0  0  0  0  0  0  0  0  0  0  0  0
   -6.7355   15.1702  -37.6814 H   0  0  0  0  0  0  0  0  0  0  0  0
  1  2  2  0  0  0  0
  1 11  1  0  0  0  0
  2 15  1  0  0  0  0
  3  5  2  0  0  0  0
  3  7  1  0  0  0  0
  3 16  1  0  0  0  0
  4 17  1  0  0  0  0
  4 20  2  0  0  0  0
  4 22  1  0  0  0  0
  6 12  1  6  0  0  0
  6 21  2  0  0  0  0
  6 23  1  0  0  0  0
  7 18  1  6  0  0  0
  8  9  1  0  0  0  0
  8 13  1  1  0  0  0
  9 16  1  0  0  0  0
 10 16  1  0  0  0  0
 10 18  1  0  0  0  0
 11 17  1  0  0  0  0
 11 24  1  6  0  0  0
 12 14  1  1  0  0  0
 12 18  1  0  0  0  0
 13 15  1  0  0  0  0
 13 18  1  0  0  0  0
 14 15  1  0  0  0  0
 14 17  1  0  0  0  0
 15 22  1  1  0  0  0
 16 25  1  1  0  0  0
 17 19  1  6  0  0  0
  1 26  1  0  0  0  0
  2 27  1  0  0  0  0
  5 28  1  0  0  0  0
  5 29  1  0  0  0  0
  7 30  1  0  0  0  0
  7 31  1  0  0  0  0
  8 32  1  0  0  0  0
  8 33  1  0  0  0  0
  9 34  1  0  0  0  0
  9 35  1  0  0  0  0
 10 36  1  0  0  0  0
 10 37  1  0  0  0  0
 11 38  1  0  0  0  0
 12 39  1  0  0  0  0
 13 40  1  0  0  0  0
 14 41  1  0  0  0  0
 19 42  1  0  0  0  0
 19 43  1  0  0  0  0
 19 44  1  0  0  0  0
 23 45  1  0  0  0  0
 24 46  1  0  0  0  0
 25 47  1  0  0  0  0
M  END
> <id>
EN300-19631964

> <smiles>
C[C@]1([C@H]2[C@H](C(=O)O)[C@]3(CC(=C)[C@@]4(O)C3)[C@@H](CC4)[C@]52OC1=O)[C@@H](O)C=C5

> <MDLNUMBER>
MFCD00079329

> <IUPAC Name>
(1R,2R,5S,8S,9S,10R,11S,12S)-5,12-dihydroxy-11-methyl-6-methylidene-16-oxo-15-oxapentacyclo[9.3.2.1^{5,8}.0^{1,10}.0^{2,8}]heptadec-13-ene-9-carboxylic acid

> <CAS>
77-06-5

> <URL>
https://www.enaminestore.com/catalog/EN300-19631964

> <ROCS_ShapeQuery>
__x1247relevant_x1083L0AP1_x1305L0BP1_

> <ROCS_TanimotoCombo>
0.713 

> <ROCS_ShapeTanimoto>
0.551 

> <ROCS_ColorTanimoto>
0.162 

> <ROCS_RefTversky>
0.507 

> <ROCS_RefColorTversky>
0.229 

> <ROCS_RefTverskyCombo>
0.736 

> <ROCS_FitTversky>
1.185 

> <ROCS_FitColorTversky>
0.356 

> <ROCS_FitTverskyCombo>
1.541 

> <ROCS_ColorScore>
-7.601

> <ROCS_Overlap>
1506.573

> <ROCS_Rank>
435                 

$$$$
untitled-dbase-6776_0
  -OEChem-06232314393D

 28 29  0     0  0  0  0  0  0999 V2000
  -10.1540   15.2258  -36.7115 C   0  0  0  0  0  0  0  0  0  0  0  0
  -11.1256   15.9031  -38.8963 C   0  0  0  0  0  0  0  0  0  0  0  0
  -11.8949   13.7962  -37.7917 C   0  0  0  0  0  0  0  0  0  0  0  0
  -12.5211   16.0164  -36.8249 C   0  0  0  0  0  0  0  0  0  0  0  0
  -12.3980   15.9198  -39.7551 C   0  0  0  0  0  0  0  0  0  0  0  0
  -13.1680   13.8083  -38.6493 C   0  0  0  0  0  0  0  0  0  0  0  0
  -13.7962   16.0294  -37.6795 C   0  0  0  0  0  0  0  0  0  0  0  0
  -11.4057   15.2334  -37.5398 C   0  0  0  0  0  0  0  0  0  0  0  0
  -13.5740   15.2579  -39.0005 C   0  0  0  0  0  0  0  0  0  0  0  0
  -14.8419   15.2725  -39.8552 C   0  0  0  0  0  0  0  0  0  0  0  0
   -9.0767   15.6830  -37.0635 O   0  0  0  0  0  0  0  0  0  0  0  0
  -10.3777   14.6370  -35.5113 O   0  0  0  0  0  0  0  0  0  0  0  0
  -14.6328   14.5992  -40.9960 F   0  0  0  0  0  0  0  0  0  0  0  0
  -15.8513   14.6956  -39.1870 F   0  0  0  0  0  0  0  0  0  0  0  0
  -15.1802   16.5361  -40.1506 F   0  0  0  0  0  0  0  0  0  0  0  0
  -10.3256   15.3741  -39.4305 H   0  0  0  0  0  0  0  0  0  0  0  0
  -10.7623   16.9290  -38.7531 H   0  0  0  0  0  0  0  0  0  0  0  0
  -12.0932   13.2844  -36.8411 H   0  0  0  0  0  0  0  0  0  0  0  0
  -11.1181   13.2049  -38.2937 H   0  0  0  0  0  0  0  0  0  0  0  0
  -12.2028   17.0473  -36.6231 H   0  0  0  0  0  0  0  0  0  0  0  0
  -12.7366   15.5722  -35.8445 H   0  0  0  0  0  0  0  0  0  0  0  0
  -12.6463   16.9556  -40.0189 H   0  0  0  0  0  0  0  0  0  0  0  0
  -12.2065   15.3969  -40.7006 H   0  0  0  0  0  0  0  0  0  0  0  0
  -12.9977   13.2257  -39.5635 H   0  0  0  0  0  0  0  0  0  0  0  0
  -13.9779   13.3035  -38.1075 H   0  0  0  0  0  0  0  0  0  0  0  0
  -14.6222   15.5847  -37.1103 H   0  0  0  0  0  0  0  0  0  0  0  0
  -14.0865   17.0673  -37.8859 H   0  0  0  0  0  0  0  0  0  0  0  0
   -9.5698   14.6205  -34.9550 H   0  0  0  0  0  0  0  0  0  0  0  0
  1  8  1  0  0  0  0
  1 11  2  0  0  0  0
  1 12  1  0  0  0  0
  2  5  1  0  0  0  0
  2  8  1  0  0  0  0
  3  6  1  0  0  0  0
  3  8  1  0  0  0  0
  4  7  1  0  0  0  0
  4  8  1  0  0  0  0
  5  9  1  0  0  0  0
  6  9  1  0  0  0  0
  7  9  1  0  0  0  0
  9 10  1  0  0  0  0
 10 13  1  0  0  0  0
 10 14  1  0  0  0  0
 10 15  1  0  0  0  0
  2 16  1  0  0  0  0
  2 17  1  0  0  0  0
  3 18  1  0  0  0  0
  3 19  1  0  0  0  0
  4 20  1  0  0  0  0
  4 21  1  0  0  0  0
  5 22  1  0  0  0  0
  5 23  1  0  0  0  0
  6 24  1  0  0  0  0
  6 25  1  0  0  0  0
  7 26  1  0  0  0  0
  7 27  1  0  0  0  0
 12 28  1  0  0  0  0
M  END
> <id>
EN300-89426

> <smiles>
OC(=O)C1(CCC2(CC1)C(F)(F)F)CC2

> <MDLNUMBER>
MFCD19442691

> <IUPAC Name>
4-(trifluoromethyl)bicyclo[2.2.2]octane-1-carboxylic acid

> <CAS>
14234-09-4

> <Purity>
95

> <URL>
https://www.enaminestore.com/catalog/EN300-89426

> <MP>
222-223

> <ROCS_ShapeQuery>
__x1247relevant_x1083L0AP1_x1305L0BP1_

> <ROCS_TanimotoCombo>
0.713 

> <ROCS_ShapeTanimoto>
0.509 

> <ROCS_ColorTanimoto>
0.204 

> <ROCS_RefTversky>
0.429 

> <ROCS_RefColorTversky>
0.223 

> <ROCS_RefTverskyCombo>
0.651 

> <ROCS_FitTversky>
1.582 

> <ROCS_FitColorTversky>
0.708 

> <ROCS_FitTverskyCombo>
2.290 

> <ROCS_ColorScore>
-7.259

> <ROCS_Overlap>
1262.372

> <ROCS_Rank>
436                 

$$$$
untitled-dbase-83432_54
  -OEChem-06232314393D

 47 51  0     1  0  0  0  0  0999 V2000
  -14.7799   15.5225  -37.7282 C   0  0  0  0  0  0  0  0  0  0  0  0
  -13.6919   15.5299  -36.9376 C   0  0  0  0  0  0  0  0  0  0  0  0
   -8.3464   13.7929  -36.1787 C   0  0  0  0  0  0  0  0  0  0  0  0
  -12.4183   16.0870  -39.6060 C   0  0  0  0  0  0  0  0  0  0  0  0
   -7.4895   13.3908  -35.2336 C   0  0  0  0  0  0  0  0  0  0  0  0
  -11.2190   11.9228  -38.8412 C   0  0  0  0  0  0  0  0  0  0  0  0
   -9.3755   12.8993  -36.8383 C   0  0  0  0  0  0  0  0  0  0  0  0
  -10.6830   15.5609  -35.5821 C   0  0  0  0  0  0  0  0  0  0  0  0
   -9.3063   16.1337  -35.9293 C   0  0  0  0  0  0  0  0  0  0  0  0
   -9.1844   14.9000  -38.0687 C   0  0  0  0  0  0  0  0  0  0  0  0
  -14.6884   15.1396  -39.1960 C   0  0  1  0  0  0  0  0  0  0  0  0
  -11.1295   13.4182  -38.7742 C   0  0  1  0  0  0  0  0  0  0  0  0
  -11.2830   14.5771  -36.6015 C   0  0  1  0  0  0  0  0  0  0  0  0
  -12.5460   13.9982  -38.5394 C   0  0  1  0  0  0  0  0  0  0  0  0
  -12.3638   15.1338  -37.5279 C   0  0  1  0  0  0  0  0  0  0  0  0
   -8.4441   15.1844  -36.7690 C   0  0  2  0  0  0  0  0  0  0  0  0
  -13.2298   14.7977  -39.6519 C   0  0  2  0  0  0  0  0  0  0  0  0
  -10.2661   13.9154  -37.5877 C   0  0  1  0  0  0  0  0  0  0  0  0
  -13.1770   14.1320  -41.0210 C   0  0  0  0  0  0  0  0  0  0  0  0
  -12.2580   16.8840  -40.5159 O   0  0  0  0  0  0  0  0  0  0  0  0
  -11.3879   11.2749  -39.8635 O   0  0  0  0  0  0  0  0  0  0  0  0
  -11.9092   16.2367  -38.3334 O   0  0  0  0  0  0  0  0  0  0  0  0
  -11.0893   11.3797  -37.6061 O   0  0  0  0  0  0  0  0  0  0  0  0
  -15.5358   14.0138  -39.4210 O   0  0  0  0  0  0  0  0  0  0  0  0
   -7.1714   15.7486  -37.0215 O   0  0  0  0  0  0  0  0  0  0  0  0
  -15.7451   15.8145  -37.3268 H   0  0  0  0  0  0  0  0  0  0  0  0
  -13.7630   15.8403  -35.9014 H   0  0  0  0  0  0  0  0  0  0  0  0
   -6.7783   14.0842  -34.8037 H   0  0  0  0  0  0  0  0  0  0  0  0
   -7.4948   12.3661  -34.8849 H   0  0  0  0  0  0  0  0  0  0  0  0
   -8.8674   12.2260  -37.5389 H   0  0  0  0  0  0  0  0  0  0  0  0
   -9.9360   12.3056  -36.1093 H   0  0  0  0  0  0  0  0  0  0  0  0
  -10.5706   15.0148  -34.6349 H   0  0  0  0  0  0  0  0  0  0  0  0
  -11.3776   16.3782  -35.3581 H   0  0  0  0  0  0  0  0  0  0  0  0
   -9.4388   17.0767  -36.4769 H   0  0  0  0  0  0  0  0  0  0  0  0
   -8.7795   16.4140  -35.0079 H   0  0  0  0  0  0  0  0  0  0  0  0
   -9.5643   15.8126  -38.5352 H   0  0  0  0  0  0  0  0  0  0  0  0
   -8.5195   14.4380  -38.8129 H   0  0  0  0  0  0  0  0  0  0  0  0
  -15.0761   15.9747  -39.7944 H   0  0  0  0  0  0  0  0  0  0  0  0
  -10.7068   13.7523  -39.7275 H   0  0  0  0  0  0  0  0  0  0  0  0
  -11.7612   13.7761  -36.0152 H   0  0  0  0  0  0  0  0  0  0  0  0
  -13.2072   13.2061  -38.1586 H   0  0  0  0  0  0  0  0  0  0  0  0
  -13.7677   13.2158  -41.0132 H   0  0  0  0  0  0  0  0  0  0  0  0
  -12.1463   13.8859  -41.2765 H   0  0  0  0  0  0  0  0  0  0  0  0
  -13.5783   14.8051  -41.7787 H   0  0  0  0  0  0  0  0  0  0  0  0
  -11.1470   10.4006  -37.6285 H   0  0  0  0  0  0  0  0  0  0  0  0
  -16.4334   14.2926  -39.1830 H   0  0  0  0  0  0  0  0  0  0  0  0
   -7.3196   16.6340  -37.3962 H   0  0  0  0  0  0  0  0  0  0  0  0
  1  2  2  0  0  0  0
  1 11  1  0  0  0  0
  2 15  1  0  0  0  0
  3  5  2  0  0  0  0
  3  7  1  0  0  0  0
  3 16  1  0  0  0  0
  4 17  1  0  0  0  0
  4 20  2  0  0  0  0
  4 22  1  0  0  0  0
  6 12  1  6  0  0  0
  6 21  2  0  0  0  0
  6 23  1  0  0  0  0
  7 18  1  6  0  0  0
  8  9  1  0  0  0  0
  8 13  1  1  0  0  0
  9 16  1  0  0  0  0
 10 16  1  0  0  0  0
 10 18  1  0  0  0  0
 11 17  1  0  0  0  0
 11 24  1  6  0  0  0
 12 14  1  0  0  0  0
 12 18  1  0  0  0  0
 13 15  1  0  0  0  0
 13 18  1  0  0  0  0
 14 15  1  0  0  0  0
 14 17  1  1  0  0  0
 15 22  1  1  0  0  0
 16 25  1  1  0  0  0
 17 19  1  0  0  0  0
  1 26  1  0  0  0  0
  2 27  1  0  0  0  0
  5 28  1  0  0  0  0
  5 29  1  0  0  0  0
  7 30  1  0  0  0  0
  7 31  1  0  0  0  0
  8 32  1  0  0  0  0
  8 33  1  0  0  0  0
  9 34  1  0  0  0  0
  9 35  1  0  0  0  0
 10 36  1  0  0  0  0
 10 37  1  0  0  0  0
 11 38  1  0  0  0  0
 12 39  1  0  0  0  0
 13 40  1  0  0  0  0
 14 41  1  0  0  0  0
 19 42  1  0  0  0  0
 19 43  1  0  0  0  0
 19 44  1  0  0  0  0
 23 45  1  0  0  0  0
 24 46  1  0  0  0  0
 25 47  1  0  0  0  0
M  END
> <id>
EN300-37158598

> <smiles>
CC1([C@H]2[C@H](C(=O)O)[C@]3(CC(=C)[C@@]4(O)C3)[C@@H](CC4)[C@]52OC1=O)[C@@H](O)C=C5

> <IUPAC Name>
(1R,2R,5S,8S,9S,10R,12S)-5,12-dihydroxy-11-methyl-6-methylidene-16-oxo-15-oxapentacyclo[9.3.2.1^{5,8}.0^{1,10}.0^{2,8}]heptadec-13-ene-9-carboxylic acid

> <URL>
https://www.enaminestore.com/catalog/EN300-37158598

> <ROCS_ShapeQuery>
__x1247relevant_x1083L0AP1_x1305L0BP1_

> <ROCS_TanimotoCombo>
0.713 

> <ROCS_ShapeTanimoto>
0.551 

> <ROCS_ColorTanimoto>
0.161 

> <ROCS_RefTversky>
0.508 

> <ROCS_RefColorTversky>
0.229 

> <ROCS_RefTverskyCombo>
0.736 

> <ROCS_FitTversky>
1.185 

> <ROCS_FitColorTversky>
0.354 

> <ROCS_FitTverskyCombo>
1.539 

> <ROCS_ColorScore>
-7.600

> <ROCS_Overlap>
1507.478

> <ROCS_Rank>
437                 

$$$$
untitled-dbase-45258_4
  -OEChem-06232314393D

 46 48  0     1  0  0  0  0  0999 V2000
  -13.5156   15.9446  -37.1906 C   0  0  0  0  0  0  0  0  0  0  0  0
  -13.4278   13.8068  -38.4106 C   0  0  0  0  0  0  0  0  0  0  0  0
  -13.1883   16.7192  -38.4756 C   0  0  0  0  0  0  0  0  0  0  0  0
  -13.2896   14.6427  -39.6922 C   0  0  0  0  0  0  0  0  0  0  0  0
   -9.5488   13.4329  -36.4404 C   0  0  0  0  0  0  0  0  0  0  0  0
  -11.1679   15.4695  -38.9177 C   0  0  0  0  0  0  0  0  0  0  0  0
  -12.7939   14.5791  -37.2356 C   0  0  0  0  0  0  0  0  0  0  0  0
   -9.4668   15.9085  -36.1716 C   0  0  1  0  0  0  0  0  0  0  0  0
   -8.6064   14.6457  -36.4394 C   0  0  0  0  0  0  0  0  0  0  0  0
  -11.2691   14.8257  -37.5023 C   0  0  1  0  0  0  0  0  0  0  0  0
   -7.5751   14.4759  -35.3032 C   0  0  0  0  0  0  0  0  0  0  0  0
   -7.8105   14.7096  -37.7617 C   0  0  0  0  0  0  0  0  0  0  0  0
   -9.8855   18.3712  -36.4185 C   0  0  0  0  0  0  0  0  0  0  0  0
   -7.5398   17.5170  -36.1511 C   0  0  0  0  0  0  0  0  0  0  0  0
   -8.9247   17.2241  -36.7239 C   0  0  0  0  0  0  0  0  0  0  0  0
  -10.5397   13.5472  -37.5008 N   0  0  0  0  0  0  0  0  0  0  0  0
  -12.4919   15.8662  -39.4614 N   0  0  0  0  0  0  0  0  0  0  0  0
  -10.8513   15.7694  -36.5009 O   0  0  0  0  0  0  0  0  0  0  0  0
  -13.2127   16.5232  -36.3124 H   0  0  0  0  0  0  0  0  0  0  0  0
  -14.5977   15.7899  -37.1120 H   0  0  0  0  0  0  0  0  0  0  0  0
  -14.4867   13.6116  -38.2061 H   0  0  0  0  0  0  0  0  0  0  0  0
  -12.9395   12.8348  -38.5363 H   0  0  0  0  0  0  0  0  0  0  0  0
  -14.1107   17.1169  -38.9149 H   0  0  0  0  0  0  0  0  0  0  0  0
  -12.5703   17.5946  -38.2422 H   0  0  0  0  0  0  0  0  0  0  0  0
  -12.8284   14.0397  -40.4834 H   0  0  0  0  0  0  0  0  0  0  0  0
  -14.2819   14.9153  -40.0716 H   0  0  0  0  0  0  0  0  0  0  0  0
   -8.9845   12.5058  -36.5894 H   0  0  0  0  0  0  0  0  0  0  0  0
  -10.0529   13.3260  -35.4740 H   0  0  0  0  0  0  0  0  0  0  0  0
  -10.5126   16.3525  -38.8993 H   0  0  0  0  0  0  0  0  0  0  0  0
  -10.7051   14.7881  -39.6474 H   0  0  0  0  0  0  0  0  0  0  0  0
  -12.9734   14.0475  -36.2939 H   0  0  0  0  0  0  0  0  0  0  0  0
   -9.4401   16.0735  -35.0195 H   0  0  0  0  0  0  0  0  0  0  0  0
   -6.9068   15.3300  -35.2980 H   0  0  0  0  0  0  0  0  0  0  0  0
   -7.0073   13.5672  -35.4704 H   0  0  0  0  0  0  0  0  0  0  0  0
   -8.0972   14.4130  -34.3547 H   0  0  0  0  0  0  0  0  0  0  0  0
   -7.1547   15.5712  -37.7367 H   0  0  0  0  0  0  0  0  0  0  0  0
   -8.5060   14.7981  -38.5872 H   0  0  0  0  0  0  0  0  0  0  0  0
   -7.2267   13.8031  -37.8653 H   0  0  0  0  0  0  0  0  0  0  0  0
  -10.0117   18.5087  -35.3390 H   0  0  0  0  0  0  0  0  0  0  0  0
  -10.8721   18.1779  -36.8527 H   0  0  0  0  0  0  0  0  0  0  0  0
   -9.5135   19.3118  -36.8383 H   0  0  0  0  0  0  0  0  0  0  0  0
   -7.5730   17.6206  -35.0612 H   0  0  0  0  0  0  0  0  0  0  0  0
   -7.1354   18.4456  -36.5676 H   0  0  0  0  0  0  0  0  0  0  0  0
   -6.8406   16.7095  -36.3932 H   0  0  0  0  0  0  0  0  0  0  0  0
   -8.8348   17.1302  -37.8130 H   0  0  0  0  0  0  0  0  0  0  0  0
  -10.0713   13.4297  -38.4064 H   0  0  0  0  0  0  0  0  0  0  0  0
  1  3  1  0  0  0  0
  1  7  1  0  0  0  0
  2  4  1  0  0  0  0
  2  7  1  0  0  0  0
  3 17  1  0  0  0  0
  4 17  1  0  0  0  0
  5  9  1  0  0  0  0
  5 16  1  0  0  0  0
  6 10  1  0  0  0  0
  6 17  1  0  0  0  0
  7 10  1  0  0  0  0
  8  9  1  0  0  0  0
  8 15  1  0  0  0  0
  8 18  1  0  0  0  0
  9 11  1  0  0  0  0
  9 12  1  0  0  0  0
 10 16  1  0  0  0  0
 10 18  1  0  0  0  0
 13 15  1  0  0  0  0
 14 15  1  0  0  0  0
  1 19  1  0  0  0  0
  1 20  1  0  0  0  0
  2 21  1  0  0  0  0
  2 22  1  0  0  0  0
  3 23  1  0  0  0  0
  3 24  1  0  0  0  0
  4 25  1  0  0  0  0
  4 26  1  0  0  0  0
  5 27  1  0  0  0  0
  5 28  1  0  0  0  0
  6 29  1  0  0  0  0
  6 30  1  0  0  0  0
  7 31  1  0  0  0  0
  8 32  1  0  0  0  0
 11 33  1  0  0  0  0
 11 34  1  0  0  0  0
 11 35  1  0  0  0  0
 12 36  1  0  0  0  0
 12 37  1  0  0  0  0
 12 38  1  0  0  0  0
 13 39  1  0  0  0  0
 13 40  1  0  0  0  0
 13 41  1  0  0  0  0
 14 42  1  0  0  0  0
 14 43  1  0  0  0  0
 14 44  1  0  0  0  0
 15 45  1  0  0  0  0
 16 46  1  0  0  0  0
M  END
> <id>
EN300-1279099

> <smiles>
CC(C)C1OC2(CN3CCC2CC3)NCC1(C)C

> <IUPAC Name>
5',5'-dimethyl-6'-(propan-2-yl)-4-azaspiro[bicyclo[2.2.2]octane-2,2'-[1,3]oxazinane]

> <CAS>
2172266-72-5

> <URL>
https://www.enaminestore.com/catalog/EN300-1279099

> <ROCS_ShapeQuery>
__x1247relevant_x1083L0AP1_x1305L0BP1_

> <ROCS_TanimotoCombo>
0.713 

> <ROCS_ShapeTanimoto>
0.483 

> <ROCS_ColorTanimoto>
0.229 

> <ROCS_RefTversky>
0.426 

> <ROCS_RefColorTversky>
0.267 

> <ROCS_RefTverskyCombo>
0.693 

> <ROCS_FitTversky>
1.384 

> <ROCS_FitColorTversky>
0.620 

> <ROCS_FitTverskyCombo>
2.004 

> <ROCS_ColorScore>
-8.747

> <ROCS_Overlap>
1257.962

> <ROCS_Rank>
438                 

$$$$
untitled-dbase-56921_0
  -OEChem-06232314393D

 30 33  0     1  0  0  0  0  0999 V2000
   -9.8678   14.6648  -37.2317 C   0  0  0  0  0  0  0  0  0  0  0  0
  -13.8755   14.0513  -38.7339 C   0  0  0  0  0  0  0  0  0  0  0  0
  -13.8688   16.2725  -37.5517 C   0  0  0  0  0  0  0  0  0  0  0  0
  -12.3043   14.4498  -36.8139 C   0  0  0  0  0  0  0  0  0  0  0  0
  -11.4072   14.2668  -39.1575 C   0  0  0  0  0  0  0  0  0  0  0  0
  -11.4005   16.4918  -37.9733 C   0  0  0  0  0  0  0  0  0  0  0  0
  -13.7085   14.7486  -37.3673 C   0  0  0  0  0  0  0  0  0  0  0  0
  -12.8099   14.5652  -39.7209 C   0  0  2  0  0  0  0  0  0  0  0  0
  -12.8031   16.7991  -38.5319 C   0  0  1  0  0  0  0  0  0  0  0  0
  -11.2290   14.9660  -37.7898 C   0  0  0  0  0  0  0  0  0  0  0  0
  -12.9599   16.0603  -39.8360 C   0  0  0  0  0  0  0  0  0  0  0  0
  -12.5945   16.7202  -41.0780 N   0  0  0  0  0  0  0  0  0  0  0  0
  -13.8168   16.6137  -40.8708 N   0  0  0  0  0  0  0  0  0  0  0  0
   -9.6267   13.3232  -37.0517 N   0  0  0  0  0  0  0  0  0  0  0  0
   -9.0538   15.5506  -36.9822 O   0  0  0  0  0  0  0  0  0  0  0  0
  -13.7852   12.9648  -38.6149 H   0  0  0  0  0  0  0  0  0  0  0  0
  -14.8794   14.2515  -39.1286 H   0  0  0  0  0  0  0  0  0  0  0  0
  -14.8726   16.4929  -37.9356 H   0  0  0  0  0  0  0  0  0  0  0  0
  -13.7736   16.7802  -36.5842 H   0  0  0  0  0  0  0  0  0  0  0  0
  -12.1833   14.9200  -35.8291 H   0  0  0  0  0  0  0  0  0  0  0  0
  -12.1883   13.3697  -36.6544 H   0  0  0  0  0  0  0  0  0  0  0  0
  -11.2678   13.1827  -39.0569 H   0  0  0  0  0  0  0  0  0  0  0  0
  -10.6387   14.6163  -39.8598 H   0  0  0  0  0  0  0  0  0  0  0  0
  -10.6320   16.8756  -38.6574 H   0  0  0  0  0  0  0  0  0  0  0  0
  -11.2561   17.0133  -37.0182 H   0  0  0  0  0  0  0  0  0  0  0  0
  -14.4684   14.3794  -36.6696 H   0  0  0  0  0  0  0  0  0  0  0  0
  -12.9337   14.0730  -40.6924 H   0  0  0  0  0  0  0  0  0  0  0  0
  -12.9221   17.8805  -38.6659 H   0  0  0  0  0  0  0  0  0  0  0  0
   -8.7282   13.0358  -36.6778 H   0  0  0  0  0  0  0  0  0  0  0  0
  -10.3111   12.6089  -37.2779 H   0  0  0  0  0  0  0  0  0  0  0  0
  1 10  1  0  0  0  0
  1 14  1  0  0  0  0
  1 15  2  0  0  0  0
  2  7  1  0  0  0  0
  2  8  1  0  0  0  0
  3  7  1  0  0  0  0
  3  9  1  0  0  0  0
  4  7  1  0  0  0  0
  4 10  1  0  0  0  0
  5  8  1  0  0  0  0
  5 10  1  0  0  0  0
  6  9  1  0  0  0  0
  6 10  1  0  0  0  0
  8 11  1  0  0  0  0
  9 11  1  0  0  0  0
 11 12  1  0  0  0  0
 11 13  1  0  0  0  0
 12 13  2  0  0  0  0
  2 16  1  0  0  0  0
  2 17  1  0  0  0  0
  3 18  1  0  0  0  0
  3 19  1  0  0  0  0
  4 20  1  0  0  0  0
  4 21  1  0  0  0  0
  5 22  1  0  0  0  0
  5 23  1  0  0  0  0
  6 24  1  0  0  0  0
  6 25  1  0  0  0  0
  7 26  1  0  0  0  0
  8 27  1  0  0  0  0
  9 28  1  0  0  0  0
 14 29  1  0  0  0  0
 14 30  1  0  0  0  0
M  END
> <id>
EN300-9461747

> <smiles>
NC(=O)C1(CC2CC3C1)CC(C2)C43N=N4

> <IUPAC Name>
spiro[adamantane-2,2'-diazirine]-7-carboxamide

> <CAS>
98398-62-0

> <URL>
https://www.enaminestore.com/catalog/EN300-9461747

> <ROCS_ShapeQuery>
__x1247relevant_x1083L0AP1_x1305L0BP1_

> <ROCS_TanimotoCombo>
0.713 

> <ROCS_ShapeTanimoto>
0.516 

> <ROCS_ColorTanimoto>
0.197 

> <ROCS_RefTversky>
0.434 

> <ROCS_RefColorTversky>
0.214 

> <ROCS_RefTverskyCombo>
0.648 

> <ROCS_FitTversky>
1.571 

> <ROCS_FitColorTversky>
0.713 

> <ROCS_FitTverskyCombo>
2.284 

> <ROCS_ColorScore>
-6.959

> <ROCS_Overlap>
1279.736

> <ROCS_Rank>
439                 

$$$$
untitled-dbase-83433_54
  -OEChem-06232314393D

 47 51  0     1  0  0  0  0  0999 V2000
  -14.7773   15.5181  -37.7272 C   0  0  0  0  0  0  0  0  0  0  0  0
  -13.6892   15.5283  -36.9368 C   0  0  0  0  0  0  0  0  0  0  0  0
   -8.3423   13.7994  -36.1751 C   0  0  0  0  0  0  0  0  0  0  0  0
  -12.4166   16.0862  -39.6058 C   0  0  0  0  0  0  0  0  0  0  0  0
   -7.4866   13.3990  -35.2280 C   0  0  0  0  0  0  0  0  0  0  0  0
  -11.2078   11.9245  -38.8380 C   0  0  0  0  0  0  0  0  0  0  0  0
   -9.3695   12.9044  -36.8354 C   0  0  0  0  0  0  0  0  0  0  0  0
  -10.6805   15.5667  -35.5819 C   0  0  0  0  0  0  0  0  0  0  0  0
   -9.3035   16.1396  -35.9280 C   0  0  0  0  0  0  0  0  0  0  0  0
   -9.1798   14.9049  -38.0666 C   0  0  0  0  0  0  0  0  0  0  0  0
  -14.6851   15.1352  -39.1950 C   0  0  1  0  0  0  0  0  0  0  0  0
  -11.1231   13.4203  -38.7723 C   0  0  1  0  0  0  0  0  0  0  0  0
  -11.2787   14.5805  -36.6002 C   0  0  1  0  0  0  0  0  0  0  0  0
  -12.5407   13.9979  -38.5378 C   0  0  1  0  0  0  0  0  0  0  0  0
  -12.3605   15.1344  -37.5271 C   0  0  1  0  0  0  0  0  0  0  0  0
   -8.4403   15.1903  -36.7665 C   0  0  2  0  0  0  0  0  0  0  0  0
  -13.2259   14.7955  -39.6509 C   0  0  2  0  0  0  0  0  0  0  0  0
  -10.2607   13.9193  -37.5857 C   0  0  1  0  0  0  0  0  0  0  0  0
  -13.1719   14.1291  -41.0196 C   0  0  0  0  0  0  0  0  0  0  0  0
  -12.2575   16.8828  -40.5162 O   0  0  0  0  0  0  0  0  0  0  0  0
  -11.3734   11.2752  -39.8599 O   0  0  0  0  0  0  0  0  0  0  0  0
  -11.9080   16.2377  -38.3332 O   0  0  0  0  0  0  0  0  0  0  0  0
  -11.0777   11.3829  -37.6023 O   0  0  0  0  0  0  0  0  0  0  0  0
  -15.5311   14.0086  -39.4211 O   0  0  0  0  0  0  0  0  0  0  0  0
   -7.1678   15.7546  -37.0187 O   0  0  0  0  0  0  0  0  0  0  0  0
  -15.7432   15.8085  -37.3261 H   0  0  0  0  0  0  0  0  0  0  0  0
  -13.7609   15.8391  -35.9008 H   0  0  0  0  0  0  0  0  0  0  0  0
   -6.7766   14.0935  -34.7978 H   0  0  0  0  0  0  0  0  0  0  0  0
   -7.4917   12.3748  -34.8781 H   0  0  0  0  0  0  0  0  0  0  0  0
   -8.8602   12.2315  -37.5352 H   0  0  0  0  0  0  0  0  0  0  0  0
   -9.9302   12.3105  -36.1067 H   0  0  0  0  0  0  0  0  0  0  0  0
  -10.5690   15.0222  -34.6335 H   0  0  0  0  0  0  0  0  0  0  0  0
  -11.3760   16.3840  -35.3603 H   0  0  0  0  0  0  0  0  0  0  0  0
   -9.4363   17.0819  -36.4769 H   0  0  0  0  0  0  0  0  0  0  0  0
   -8.7777   16.4218  -35.0066 H   0  0  0  0  0  0  0  0  0  0  0  0
   -9.5609   15.8170  -38.5333 H   0  0  0  0  0  0  0  0  0  0  0  0
   -8.5142   14.4438  -38.8106 H   0  0  0  0  0  0  0  0  0  0  0  0
  -15.0737   15.9702  -39.7935 H   0  0  0  0  0  0  0  0  0  0  0  0
  -10.7005   13.7547  -39.7253 H   0  0  0  0  0  0  0  0  0  0  0  0
  -11.7555   13.7794  -36.0131 H   0  0  0  0  0  0  0  0  0  0  0  0
  -13.2005   13.2049  -38.1566 H   0  0  0  0  0  0  0  0  0  0  0  0
  -13.7611   13.2120  -41.0114 H   0  0  0  0  0  0  0  0  0  0  0  0
  -12.1408   13.8846  -41.2749 H   0  0  0  0  0  0  0  0  0  0  0  0
  -13.5743   14.8012  -41.7777 H   0  0  0  0  0  0  0  0  0  0  0  0
  -11.1323   10.4037  -37.6238 H   0  0  0  0  0  0  0  0  0  0  0  0
  -16.4292   14.2862  -39.1835 H   0  0  0  0  0  0  0  0  0  0  0  0
   -7.3160   16.6397  -37.3943 H   0  0  0  0  0  0  0  0  0  0  0  0
  1  2  2  0  0  0  0
  1 11  1  0  0  0  0
  2 15  1  0  0  0  0
  3  5  2  0  0  0  0
  3  7  1  0  0  0  0
  3 16  1  0  0  0  0
  4 17  1  0  0  0  0
  4 20  2  0  0  0  0
  4 22  1  0  0  0  0
  6 12  1  6  0  0  0
  6 21  2  0  0  0  0
  6 23  1  0  0  0  0
  7 18  1  6  0  0  0
  8  9  1  0  0  0  0
  8 13  1  1  0  0  0
  9 16  1  0  0  0  0
 10 16  1  0  0  0  0
 10 18  1  0  0  0  0
 11 17  1  0  0  0  0
 11 24  1  6  0  0  0
 12 14  1  0  0  0  0
 12 18  1  0  0  0  0
 13 15  1  0  0  0  0
 13 18  1  0  0  0  0
 14 15  1  0  0  0  0
 14 17  1  0  0  0  0
 15 22  1  1  0  0  0
 16 25  1  1  0  0  0
 17 19  1  0  0  0  0
  1 26  1  0  0  0  0
  2 27  1  0  0  0  0
  5 28  1  0  0  0  0
  5 29  1  0  0  0  0
  7 30  1  0  0  0  0
  7 31  1  0  0  0  0
  8 32  1  0  0  0  0
  8 33  1  0  0  0  0
  9 34  1  0  0  0  0
  9 35  1  0  0  0  0
 10 36  1  0  0  0  0
 10 37  1  0  0  0  0
 11 38  1  0  0  0  0
 12 39  1  0  0  0  0
 13 40  1  0  0  0  0
 14 41  1  0  0  0  0
 19 42  1  0  0  0  0
 19 43  1  0  0  0  0
 19 44  1  0  0  0  0
 23 45  1  0  0  0  0
 24 46  1  0  0  0  0
 25 47  1  0  0  0  0
M  END
> <id>
EN300-37158600

> <smiles>
CC1(C2[C@H](C(=O)O)[C@]3(CC(=C)[C@@]4(O)C3)[C@@H](CC4)[C@]52OC1=O)[C@@H](O)C=C5

> <IUPAC Name>
(1R,2R,5S,8S,9S,12S)-5,12-dihydroxy-11-methyl-6-methylidene-16-oxo-15-oxapentacyclo[9.3.2.1^{5,8}.0^{1,10}.0^{2,8}]heptadec-13-ene-9-carboxylic acid

> <URL>
https://www.enaminestore.com/catalog/EN300-37158600

> <ROCS_ShapeQuery>
__x1247relevant_x1083L0AP1_x1305L0BP1_

> <ROCS_TanimotoCombo>
0.713 

> <ROCS_ShapeTanimoto>
0.551 

> <ROCS_ColorTanimoto>
0.161 

> <ROCS_RefTversky>
0.507 

> <ROCS_RefColorTversky>
0.229 

> <ROCS_RefTverskyCombo>
0.736 

> <ROCS_FitTversky>
1.185 

> <ROCS_FitColorTversky>
0.354 

> <ROCS_FitTverskyCombo>
1.539 

> <ROCS_ColorScore>
-7.599

> <ROCS_Overlap>
1507.139

> <ROCS_Rank>
440                 

$$$$
untitled-dbase-158308_206
  -OEChem-06232314393D

 39 40  0     1  0  0  0  0  0999 V2000
  -13.1875   16.5790  -40.4043 C   0  0  0  0  0  0  0  0  0  0  0  0
  -10.0089   15.3144  -36.8384 C   0  0  0  0  0  0  0  0  0  0  0  0
  -12.9731   13.3450  -38.2719 C   0  0  0  0  0  0  0  0  0  0  0  0
  -13.0385   14.0215  -36.8933 C   0  0  0  0  0  0  0  0  0  0  0  0
  -13.3425   14.2851  -39.4304 C   0  0  0  0  0  0  0  0  0  0  0  0
  -13.3519   16.2739  -37.9172 C   0  0  0  0  0  0  0  0  0  0  0  0
  -11.2930   15.7472  -38.9801 C   0  0  0  0  0  0  0  0  0  0  0  0
  -12.5144   15.4678  -36.9265 C   0  0  2  0  0  0  0  0  0  0  0  0
  -12.8080   15.7189  -39.2392 C   0  0  2  0  0  0  0  0  0  0  0  0
   -7.9395   13.6627  -35.7626 C   0  0  0  0  0  0  0  0  0  0  0  0
   -9.7657   12.5519  -34.4433 C   0  0  0  0  0  0  0  0  0  0  0  0
   -9.8027   12.4600  -36.9530 C   0  0  0  0  0  0  0  0  0  0  0  0
   -9.4226   13.2963  -35.7319 C   0  0  0  0  0  0  0  0  0  0  0  0
  -11.1849   15.5065  -37.5400 N   0  0  0  0  0  0  0  0  0  0  0  0
  -12.3979   17.1509  -41.1411 O   0  0  0  0  0  0  0  0  0  0  0  0
   -8.9283   15.8087  -37.1514 O   0  0  0  0  0  0  0  0  0  0  0  0
  -14.5353   16.6423  -40.5337 O   0  0  0  0  0  0  0  0  0  0  0  0
  -10.1909   14.5045  -35.7497 O   0  0  0  0  0  0  0  0  0  0  0  0
  -11.9523   12.9753  -38.4328 H   0  0  0  0  0  0  0  0  0  0  0  0
  -13.6193   12.4599  -38.2868 H   0  0  0  0  0  0  0  0  0  0  0  0
  -14.0799   14.0273  -36.5480 H   0  0  0  0  0  0  0  0  0  0  0  0
  -12.4702   13.4255  -36.1695 H   0  0  0  0  0  0  0  0  0  0  0  0
  -12.9733   13.8601  -40.3723 H   0  0  0  0  0  0  0  0  0  0  0  0
  -14.4365   14.3179  -39.5224 H   0  0  0  0  0  0  0  0  0  0  0  0
  -14.4302   16.1219  -37.7966 H   0  0  0  0  0  0  0  0  0  0  0  0
  -13.1517   17.3487  -37.8198 H   0  0  0  0  0  0  0  0  0  0  0  0
  -10.7388   14.9825  -39.5343 H   0  0  0  0  0  0  0  0  0  0  0  0
  -10.8436   16.7241  -39.1934 H   0  0  0  0  0  0  0  0  0  0  0  0
  -12.4989   15.9033  -35.9228 H   0  0  0  0  0  0  0  0  0  0  0  0
   -7.6892   14.1972  -36.6860 H   0  0  0  0  0  0  0  0  0  0  0  0
   -7.6617   14.2917  -34.9105 H   0  0  0  0  0  0  0  0  0  0  0  0
   -7.3140   12.7628  -35.7470 H   0  0  0  0  0  0  0  0  0  0  0  0
  -10.8289   12.2871  -34.4170 H   0  0  0  0  0  0  0  0  0  0  0  0
   -9.5834   13.1843  -33.5669 H   0  0  0  0  0  0  0  0  0  0  0  0
   -9.1773   11.6348  -34.3376 H   0  0  0  0  0  0  0  0  0  0  0  0
  -10.8664   12.1971  -36.9312 H   0  0  0  0  0  0  0  0  0  0  0  0
   -9.5976   12.9935  -37.8868 H   0  0  0  0  0  0  0  0  0  0  0  0
   -9.2503   11.5134  -36.9641 H   0  0  0  0  0  0  0  0  0  0  0  0
  -14.8046   17.2037  -41.2917 H   0  0  0  0  0  0  0  0  0  0  0  0
  1  9  1  0  0  0  0
  1 15  2  0  0  0  0
  1 17  1  0  0  0  0
  2 14  1  0  0  0  0
  2 16  2  0  0  0  0
  2 18  1  0  0  0  0
  3  4  1  0  0  0  0
  3  5  1  0  0  0  0
  4  8  1  0  0  0  0
  5  9  1  0  0  0  0
  6  8  1  0  0  0  0
  6  9  1  0  0  0  0
  7  9  1  0  0  0  0
  7 14  1  0  0  0  0
  8 14  1  0  0  0  0
 10 13  1  0  0  0  0
 11 13  1  0  0  0  0
 12 13  1  0  0  0  0
 13 18  1  0  0  0  0
  3 19  1  0  0  0  0
  3 20  1  0  0  0  0
  4 21  1  0  0  0  0
  4 22  1  0  0  0  0
  5 23  1  0  0  0  0
  5 24  1  0  0  0  0
  6 25  1  0  0  0  0
  6 26  1  0  0  0  0
  7 27  1  0  0  0  0
  7 28  1  0  0  0  0
  8 29  1  0  0  0  0
 10 30  1  0  0  0  0
 10 31  1  0  0  0  0
 10 32  1  0  0  0  0
 11 33  1  0  0  0  0
 11 34  1  0  0  0  0
 11 35  1  0  0  0  0
 12 36  1  0  0  0  0
 12 37  1  0  0  0  0
 12 38  1  0  0  0  0
 17 39  1  0  0  0  0
M  END
> <id>
EN300-23835916

> <smiles>
CC(C)(C)OC(=O)N1CC2(CC1CCC2)C(=O)O

> <MDLNUMBER>
MFCD28388969

> <IUPAC Name>
6-[(tert-butoxy)carbonyl]-6-azabicyclo[3.2.1]octane-1-carboxylic acid

> <CAS>
1936623-70-9

> <Purity>
95

> <URL>
https://www.enaminestore.com/catalog/EN300-23835916

> <ROCS_ShapeQuery>
__x1247relevant_x1083L0AP1_x1305L0BP1_

> <ROCS_TanimotoCombo>
0.712 

> <ROCS_ShapeTanimoto>
0.519 

> <ROCS_ColorTanimoto>
0.194 

> <ROCS_RefTversky>
0.447 

> <ROCS_RefColorTversky>
0.222 

> <ROCS_RefTverskyCombo>
0.670 

> <ROCS_FitTversky>
1.442 

> <ROCS_FitColorTversky>
0.605 

> <ROCS_FitTverskyCombo>
2.047 

> <ROCS_ColorScore>
-7.262

> <ROCS_Overlap>
1320.464

> <ROCS_Rank>
441                 

$$$$
untitled-dbase-144597_3
  -OEChem-06232314393D

 28 30  0     1  0  0  0  0  0999 V2000
  -14.1290   15.5585  -38.7572 C   0  0  0  0  0  0  0  0  0  0  0  0
  -13.5811   14.1093  -38.7821 C   0  0  0  0  0  0  0  0  0  0  0  0
  -11.6521   15.6636  -40.8202 C   0  0  0  0  0  0  0  0  0  0  0  0
  -10.5492   16.0824  -39.8755 C   0  0  0  0  0  0  0  0  0  0  0  0
  -12.3413   16.2442  -37.1375 C   0  0  0  0  0  0  0  0  0  0  0  0
  -12.8544   16.4207  -38.5870 C   0  0  1  0  0  0  0  0  0  0  0  0
  -12.0587   14.3044  -38.5775 C   0  0  2  0  0  0  0  0  0  0  0  0
  -11.8561   14.7742  -37.1146 C   0  0  1  0  0  0  0  0  0  0  0  0
  -11.8586   15.5867  -39.3340 C   0  0  0  0  0  0  0  0  0  0  0  0
   -9.8047   13.0911  -37.2165 N   0  0  0  0  0  0  0  0  0  0  0  0
   -9.3942   15.6290  -37.3036 O   0  0  0  0  0  0  0  0  0  0  0  0
  -10.1567   14.5685  -35.1404 O   0  0  0  0  0  0  0  0  0  0  0  0
  -10.1759   14.6332  -36.5914 S   0  0  0  0  0  0  0  0  0  0  0  0
  -14.6248   15.7810  -39.7092 H   0  0  0  0  0  0  0  0  0  0  0  0
  -14.8517   15.7122  -37.9497 H   0  0  0  0  0  0  0  0  0  0  0  0
  -14.0371   13.4807  -38.0112 H   0  0  0  0  0  0  0  0  0  0  0  0
  -13.7848   13.6554  -39.7591 H   0  0  0  0  0  0  0  0  0  0  0  0
  -12.1634   16.4439  -41.3700 H   0  0  0  0  0  0  0  0  0  0  0  0
  -11.5168   14.7393  -41.3682 H   0  0  0  0  0  0  0  0  0  0  0  0
   -9.6836   15.4353  -39.8081 H   0  0  0  0  0  0  0  0  0  0  0  0
  -10.3298   17.1398  -39.7962 H   0  0  0  0  0  0  0  0  0  0  0  0
  -11.5224   16.9445  -36.9366 H   0  0  0  0  0  0  0  0  0  0  0  0
  -13.1307   16.4229  -36.4003 H   0  0  0  0  0  0  0  0  0  0  0  0
  -12.9720   17.4612  -38.8963 H   0  0  0  0  0  0  0  0  0  0  0  0
  -11.4522   13.4495  -38.8844 H   0  0  0  0  0  0  0  0  0  0  0  0
  -12.4353   14.1698  -36.4081 H   0  0  0  0  0  0  0  0  0  0  0  0
   -9.1680   13.0419  -38.0214 H   0  0  0  0  0  0  0  0  0  0  0  0
   -9.6876   12.3196  -36.5482 H   0  0  0  0  0  0  0  0  0  0  0  0
  1  2  1  0  0  0  0
  1  6  1  0  0  0  0
  2  7  1  0  0  0  0
  3  4  1  0  0  0  0
  3  9  1  0  0  0  0
  4  9  1  0  0  0  0
  5  6  1  0  0  0  0
  5  8  1  0  0  0  0
  6  9  1  0  0  0  0
  7  8  1  0  0  0  0
  7  9  1  0  0  0  0
  8 13  1  0  0  0  0
 10 13  1  0  0  0  0
 11 13  2  0  0  0  0
 12 13  2  0  0  0  0
  1 14  1  0  0  0  0
  1 15  1  0  0  0  0
  2 16  1  0  0  0  0
  2 17  1  0  0  0  0
  3 18  1  0  0  0  0
  3 19  1  0  0  0  0
  4 20  1  0  0  0  0
  4 21  1  0  0  0  0
  5 22  1  0  0  0  0
  5 23  1  0  0  0  0
  6 24  1  0  0  0  0
  7 25  1  0  0  0  0
  8 26  1  0  0  0  0
 10 27  1  0  0  0  0
 10 28  1  0  0  0  0
M  END
> <id>
EN300-27734563

> <smiles>
NS(=O)(=O)C1CC2CCC1C32CC3

> <IUPAC Name>
spiro[bicyclo[2.2.1]heptane-7,1'-cyclopropane]-6-sulfonamide

> <CAS>
2580191-14-4

> <URL>
https://www.enaminestore.com/catalog/EN300-27734563

> <ROCS_ShapeQuery>
__x1247relevant_x1083L0AP1_x1305L0BP1_

> <ROCS_TanimotoCombo>
0.712 

> <ROCS_ShapeTanimoto>
0.487 

> <ROCS_ColorTanimoto>
0.225 

> <ROCS_RefTversky>
0.404 

> <ROCS_RefColorTversky>
0.243 

> <ROCS_RefTverskyCombo>
0.647 

> <ROCS_FitTversky>
1.732 

> <ROCS_FitColorTversky>
0.751 

> <ROCS_FitTverskyCombo>
2.483 

> <ROCS_ColorScore>
-7.936

> <ROCS_Overlap>
1187.895

> <ROCS_Rank>
442                 

$$$$
untitled-dbase-95208_3
  -OEChem-06232314393D

 38 40  0     1  0  0  0  0  0999 V2000
   -9.7038   14.3599  -34.9208 C   0  0  0  0  0  0  0  0  0  0  0  0
  -10.7682   15.4316  -35.1347 C   0  0  0  0  0  0  0  0  0  0  0  0
  -13.3751   13.6873  -38.3182 C   0  0  0  0  0  0  0  0  0  0  0  0
  -13.6765   15.8901  -37.2685 C   0  0  0  0  0  0  0  0  0  0  0  0
  -13.3324   14.4243  -39.6677 C   0  0  0  0  0  0  0  0  0  0  0  0
  -13.4579   16.5884  -38.6197 C   0  0  0  0  0  0  0  0  0  0  0  0
  -11.3113   15.5480  -39.0080 C   0  0  0  0  0  0  0  0  0  0  0  0
   -8.3474   14.8387  -35.4226 C   0  0  0  0  0  0  0  0  0  0  0  0
   -9.3175   16.3573  -36.9570 C   0  0  0  0  0  0  0  0  0  0  0  0
  -12.8138   14.6136  -37.2177 C   0  0  0  0  0  0  0  0  0  0  0  0
  -11.3385   14.9733  -37.5634 C   0  0  2  0  0  0  0  0  0  0  0  0
  -10.7507   15.9803  -36.5688 C   0  0  1  0  0  0  0  0  0  0  0  0
  -12.6776   15.7466  -39.5518 N   0  0  0  0  0  0  0  0  0  0  0  0
  -10.4615   13.7955  -37.4880 N   0  0  0  0  0  0  0  0  0  0  0  0
   -8.4246   15.2580  -36.7850 O   0  0  0  0  0  0  0  0  0  0  0  0
  -11.5474   17.1641  -36.6200 O   0  0  0  0  0  0  0  0  0  0  0  0
   -9.6330   14.1358  -33.8485 H   0  0  0  0  0  0  0  0  0  0  0  0
   -9.9909   13.4330  -35.4305 H   0  0  0  0  0  0  0  0  0  0  0  0
  -11.7570   15.0004  -34.9101 H   0  0  0  0  0  0  0  0  0  0  0  0
  -10.6022   16.2441  -34.4100 H   0  0  0  0  0  0  0  0  0  0  0  0
  -14.4116   13.4158  -38.0822 H   0  0  0  0  0  0  0  0  0  0  0  0
  -12.8150   12.7482  -38.3753 H   0  0  0  0  0  0  0  0  0  0  0  0
  -13.4350   16.5680  -36.4432 H   0  0  0  0  0  0  0  0  0  0  0  0
  -14.7356   15.6272  -37.1527 H   0  0  0  0  0  0  0  0  0  0  0  0
  -12.8044   13.8124  -40.4093 H   0  0  0  0  0  0  0  0  0  0  0  0
  -14.3494   14.5486  -40.0607 H   0  0  0  0  0  0  0  0  0  0  0  0
  -14.4273   16.8373  -39.0690 H   0  0  0  0  0  0  0  0  0  0  0  0
  -12.9474   17.5484  -38.4724 H   0  0  0  0  0  0  0  0  0  0  0  0
  -10.7720   16.5037  -39.0403 H   0  0  0  0  0  0  0  0  0  0  0  0
  -10.7576   14.8932  -39.6950 H   0  0  0  0  0  0  0  0  0  0  0  0
   -8.0124   15.6963  -34.8281 H   0  0  0  0  0  0  0  0  0  0  0  0
   -7.5854   14.0544  -35.3242 H   0  0  0  0  0  0  0  0  0  0  0  0
   -9.2576   16.7060  -37.9975 H   0  0  0  0  0  0  0  0  0  0  0  0
   -8.9458   17.1672  -36.3162 H   0  0  0  0  0  0  0  0  0  0  0  0
  -12.8960   14.1351  -36.2352 H   0  0  0  0  0  0  0  0  0  0  0  0
  -10.8018   13.1256  -38.1318 H   0  0  0  0  0  0  0  0  0  0  0  0
   -9.5463   14.0872  -37.7249 H   0  0  0  0  0  0  0  0  0  0  0  0
  -11.1466   17.7908  -35.9991 H   0  0  0  0  0  0  0  0  0  0  0  0
  1  2  1  0  0  0  0
  1  8  1  0  0  0  0
  2 12  1  0  0  0  0
  3  5  1  0  0  0  0
  3 10  1  0  0  0  0
  4  6  1  0  0  0  0
  4 10  1  0  0  0  0
  5 13  1  0  0  0  0
  6 13  1  0  0  0  0
  7 11  1  0  0  0  0
  7 13  1  0  0  0  0
  8 15  1  0  0  0  0
  9 12  1  0  0  0  0
  9 15  1  0  0  0  0
 10 11  1  0  0  0  0
 11 12  1  0  0  0  0
 11 14  1  0  0  0  0
 12 16  1  0  0  0  0
  1 17  1  0  0  0  0
  1 18  1  0  0  0  0
  2 19  1  0  0  0  0
  2 20  1  0  0  0  0
  3 21  1  0  0  0  0
  3 22  1  0  0  0  0
  4 23  1  0  0  0  0
  4 24  1  0  0  0  0
  5 25  1  0  0  0  0
  5 26  1  0  0  0  0
  6 27  1  0  0  0  0
  6 28  1  0  0  0  0
  7 29  1  0  0  0  0
  7 30  1  0  0  0  0
  8 31  1  0  0  0  0
  8 32  1  0  0  0  0
  9 33  1  0  0  0  0
  9 34  1  0  0  0  0
 10 35  1  0  0  0  0
 14 36  1  0  0  0  0
 14 37  1  0  0  0  0
 16 38  1  0  0  0  0
M  END
> <id>
EN300-1642005

> <smiles>
NC1(CN2CCC1CC2)C3(O)CCCOC3

> <IUPAC Name>
3-{3-amino-1-azabicyclo[2.2.2]octan-3-yl}oxan-3-ol

> <CAS>
2171643-10-8

> <URL>
https://www.enaminestore.com/catalog/EN300-1642005

> <ROCS_ShapeQuery>
__x1247relevant_x1083L0AP1_x1305L0BP1_

> <ROCS_TanimotoCombo>
0.712 

> <ROCS_ShapeTanimoto>
0.491 

> <ROCS_ColorTanimoto>
0.221 

> <ROCS_RefTversky>
0.423 

> <ROCS_RefColorTversky>
0.259 

> <ROCS_RefTverskyCombo>
0.682 

> <ROCS_FitTversky>
1.487 

> <ROCS_FitColorTversky>
0.602 

> <ROCS_FitTverskyCombo>
2.089 

> <ROCS_ColorScore>
-8.492

> <ROCS_Overlap>
1247.649

> <ROCS_Rank>
443                 

$$$$
untitled-dbase-145410_23
  -OEChem-06232314393D

 43 45  0     1  0  0  0  0  0999 V2000
   -9.8558   15.0204  -37.0819 C   0  0  0  0  0  0  0  0  0  0  0  0
  -14.1188   15.5624  -37.4703 C   0  0  0  0  0  0  0  0  0  0  0  0
  -13.1195   16.3518  -39.6286 C   0  0  0  0  0  0  0  0  0  0  0  0
  -13.4480   13.9014  -39.2250 C   0  0  0  0  0  0  0  0  0  0  0  0
  -11.8079   16.5330  -37.4941 C   0  0  0  0  0  0  0  0  0  0  0  0
  -12.1326   14.0806  -37.0925 C   0  0  0  0  0  0  0  0  0  0  0  0
  -13.2115   16.6225  -38.1175 C   0  0  2  0  0  0  0  0  0  0  0  0
  -13.5403   14.1578  -37.7103 C   0  0  1  0  0  0  0  0  0  0  0  0
  -12.5317   14.9494  -39.8851 C   0  0  0  0  0  0  0  0  0  0  0  0
  -11.1226   14.8346  -39.2612 C   0  0  2  0  0  0  0  0  0  0  0  0
  -11.2039   15.1335  -37.7420 C   0  0  0  0  0  0  0  0  0  0  0  0
   -7.5332   13.5330  -36.3823 C   0  0  0  0  0  0  0  0  0  0  0  0
   -9.1191   11.9284  -35.2779 C   0  0  0  0  0  0  0  0  0  0  0  0
   -9.2554   12.3154  -37.7557 C   0  0  0  0  0  0  0  0  0  0  0  0
   -8.9452   12.9491  -36.4004 C   0  0  0  0  0  0  0  0  0  0  0  0
  -10.1958   15.7379  -39.9543 N   0  0  0  0  0  0  0  0  0  0  0  0
   -8.9017   15.7400  -37.3447 O   0  0  0  0  0  0  0  0  0  0  0  0
   -9.8790   14.0085  -36.1684 O   0  0  0  0  0  0  0  0  0  0  0  0
  -14.2085   15.7522  -36.3937 H   0  0  0  0  0  0  0  0  0  0  0  0
  -15.1301   15.6279  -37.8902 H   0  0  0  0  0  0  0  0  0  0  0  0
  -14.1180   16.4212  -40.0783 H   0  0  0  0  0  0  0  0  0  0  0  0
  -12.5083   17.1229  -40.1121 H   0  0  0  0  0  0  0  0  0  0  0  0
  -13.0584   12.8929  -39.4107 H   0  0  0  0  0  0  0  0  0  0  0  0
  -14.4485   13.9432  -39.6731 H   0  0  0  0  0  0  0  0  0  0  0  0
  -11.1610   17.3154  -37.9110 H   0  0  0  0  0  0  0  0  0  0  0  0
  -11.8688   16.7370  -36.4168 H   0  0  0  0  0  0  0  0  0  0  0  0
  -12.1928   14.2400  -36.0075 H   0  0  0  0  0  0  0  0  0  0  0  0
  -11.7212   13.0716  -37.2299 H   0  0  0  0  0  0  0  0  0  0  0  0
  -13.6297   17.6205  -37.9450 H   0  0  0  0  0  0  0  0  0  0  0  0
  -14.1893   13.4063  -37.2471 H   0  0  0  0  0  0  0  0  0  0  0  0
  -12.4898   14.7598  -40.9646 H   0  0  0  0  0  0  0  0  0  0  0  0
  -10.7453   13.8143  -39.4134 H   0  0  0  0  0  0  0  0  0  0  0  0
   -7.4043   14.2661  -37.1866 H   0  0  0  0  0  0  0  0  0  0  0  0
   -7.3108   14.0211  -35.4278 H   0  0  0  0  0  0  0  0  0  0  0  0
   -6.7846   12.7511  -36.5539 H   0  0  0  0  0  0  0  0  0  0  0  0
  -10.1308   11.5070  -35.2871 H   0  0  0  0  0  0  0  0  0  0  0  0
   -8.9905   12.4009  -34.2973 H   0  0  0  0  0  0  0  0  0  0  0  0
   -8.4005   11.1070  -35.3638 H   0  0  0  0  0  0  0  0  0  0  0  0
  -10.2681   11.8966  -37.7690 H   0  0  0  0  0  0  0  0  0  0  0  0
   -9.1715   13.0428  -38.5697 H   0  0  0  0  0  0  0  0  0  0  0  0
   -8.5735   11.4823  -37.9616 H   0  0  0  0  0  0  0  0  0  0  0  0
   -9.2987   15.6178  -39.5528 H   0  0  0  0  0  0  0  0  0  0  0  0
  -10.1931   15.4908  -40.9131 H   0  0  0  0  0  0  0  0  0  0  0  0
  1 11  1  0  0  0  0
  1 17  2  0  0  0  0
  1 18  1  0  0  0  0
  2  7  1  0  0  0  0
  2  8  1  0  0  0  0
  3  7  1  0  0  0  0
  3  9  1  0  0  0  0
  4  8  1  0  0  0  0
  4  9  1  0  0  0  0
  5  7  1  0  0  0  0
  5 11  1  0  0  0  0
  6  8  1  0  0  0  0
  6 11  1  0  0  0  0
  9 10  1  0  0  0  0
 10 11  1  0  0  0  0
 10 16  1  0  0  0  0
 12 15  1  0  0  0  0
 13 15  1  0  0  0  0
 14 15  1  0  0  0  0
 15 18  1  0  0  0  0
  2 19  1  0  0  0  0
  2 20  1  0  0  0  0
  3 21  1  0  0  0  0
  3 22  1  0  0  0  0
  4 23  1  0  0  0  0
  4 24  1  0  0  0  0
  5 25  1  0  0  0  0
  5 26  1  0  0  0  0
  6 27  1  0  0  0  0
  6 28  1  0  0  0  0
  7 29  1  0  0  0  0
  8 30  1  0  0  0  0
  9 31  1  0  0  0  0
 10 32  1  0  0  0  0
 12 33  1  0  0  0  0
 12 34  1  0  0  0  0
 12 35  1  0  0  0  0
 13 36  1  0  0  0  0
 13 37  1  0  0  0  0
 13 38  1  0  0  0  0
 14 39  1  0  0  0  0
 14 40  1  0  0  0  0
 14 41  1  0  0  0  0
 16 42  1  0  0  0  0
 16 43  1  0  0  0  0
M  END
> <id>
EN300-27729496

> <smiles>
CC(C)(C)OC(=O)C1(CC2CC3CC(C2)C1N)C3

> <IUPAC Name>
tert-butyl 2-aminoadamantane-1-carboxylate

> <CAS>
2639440-43-8

> <URL>
https://www.enaminestore.com/catalog/EN300-27729496

> <ROCS_ShapeQuery>
__x1247relevant_x1083L0AP1_x1305L0BP1_

> <ROCS_TanimotoCombo>
0.712 

> <ROCS_ShapeTanimoto>
0.522 

> <ROCS_ColorTanimoto>
0.190 

> <ROCS_RefTversky>
0.450 

> <ROCS_RefColorTversky>
0.217 

> <ROCS_RefTverskyCombo>
0.667 

> <ROCS_FitTversky>
1.442 

> <ROCS_FitColorTversky>
0.610 

> <ROCS_FitTverskyCombo>
2.051 

> <ROCS_ColorScore>
-7.090

> <ROCS_Overlap>
1328.145

> <ROCS_Rank>
444                 

$$$$
untitled-dbase-90533_2
  -OEChem-06232314393D

 19 21  0     1  0  0  0  0  0999 V2000
  -11.9582   16.3642  -38.9113 C   0  0  0  0  0  0  0  0  0  0  0  0
  -10.3627   14.9891  -36.8311 C   0  0  0  0  0  0  0  0  0  0  0  0
  -13.0866   14.3601  -39.3983 C   0  0  0  0  0  0  0  0  0  0  0  0
  -11.6541   14.8680  -39.0231 C   0  0  2  0  0  0  0  0  0  0  0  0
  -13.1016   16.3328  -37.9677 C   0  0  1  0  0  0  0  0  0  0  0  0
  -11.5808   14.4634  -37.5123 C   0  0  2  0  0  0  0  0  0  0  0  0
  -13.8158   15.0381  -38.2493 C   0  0  2  0  0  0  0  0  0  0  0  0
  -12.8793   15.1261  -37.0916 C   0  0  2  0  0  0  0  0  0  0  0  0
  -11.4460   17.3345  -39.4263 O   0  0  0  0  0  0  0  0  0  0  0  0
   -9.4570   15.5963  -37.3828 O   0  0  0  0  0  0  0  0  0  0  0  0
  -10.3920   14.6995  -35.5073 O   0  0  0  0  0  0  0  0  0  0  0  0
  -13.4269   14.7358  -40.3683 H   0  0  0  0  0  0  0  0  0  0  0  0
  -13.1718   13.2705  -39.3521 H   0  0  0  0  0  0  0  0  0  0  0  0
  -10.8262   14.5969  -39.6743 H   0  0  0  0  0  0  0  0  0  0  0  0
  -13.6217   17.2062  -37.6168 H   0  0  0  0  0  0  0  0  0  0  0  0
  -11.6237   13.3766  -37.3836 H   0  0  0  0  0  0  0  0  0  0  0  0
  -14.8759   14.9236  -38.1411 H   0  0  0  0  0  0  0  0  0  0  0  0
  -13.2134   15.0691  -36.0741 H   0  0  0  0  0  0  0  0  0  0  0  0
  -11.2026   14.2065  -35.2579 H   0  0  0  0  0  0  0  0  0  0  0  0
  1  4  1  0  0  0  0
  1  5  1  0  0  0  0
  1  9  2  0  0  0  0
  2  6  1  0  0  0  0
  2 10  2  0  0  0  0
  2 11  1  0  0  0  0
  3  4  1  0  0  0  0
  3  7  1  0  0  0  0
  4  6  1  0  0  0  0
  5  7  1  0  0  0  0
  5  8  1  0  0  0  0
  6  8  1  0  0  0  0
  7  8  1  0  0  0  0
  3 12  1  0  0  0  0
  3 13  1  0  0  0  0
  4 14  1  0  0  0  0
  5 15  1  0  0  0  0
  6 16  1  0  0  0  0
  7 17  1  0  0  0  0
  8 18  1  0  0  0  0
 11 19  1  0  0  0  0
M  END
> <id>
EN300-6730000

> <smiles>
OC(=O)C1C2C3CC1C(=O)C32

> <IUPAC Name>
5-oxotricyclo[2.2.1.0,2,6]heptane-3-carboxylic acid

> <CAS>
70748-53-7

> <URL>
https://www.enaminestore.com/catalog/EN300-6730000

> <ROCS_ShapeQuery>
__x1247relevant_x1083L0AP1_x1305L0BP1_

> <ROCS_TanimotoCombo>
0.712 

> <ROCS_ShapeTanimoto>
0.451 

> <ROCS_ColorTanimoto>
0.261 

> <ROCS_RefTversky>
0.379 

> <ROCS_RefColorTversky>
0.405 

> <ROCS_RefTverskyCombo>
0.783 

> <ROCS_FitTversky>
1.739 

> <ROCS_FitColorTversky>
0.424 

> <ROCS_FitTverskyCombo>
2.163 

> <ROCS_ColorScore>
-13.663

> <ROCS_Overlap>
1112.076

> <ROCS_Rank>
445                 

$$$$
untitled-dbase-91348_227
  -OEChem-06232314393D

 37 38  0     1  0  0  0  0  0999 V2000
  -13.2757   16.7218  -40.4598 C   0  0  0  0  0  0  0  0  0  0  0  0
   -9.7845   15.1244  -36.4983 C   0  0  0  0  0  0  0  0  0  0  0  0
  -13.3299   16.5136  -37.9880 C   0  0  0  0  0  0  0  0  0  0  0  0
  -12.2828   14.7701  -36.4509 C   0  0  0  0  0  0  0  0  0  0  0  0
  -10.9750   14.3870  -38.5444 C   0  0  0  0  0  0  0  0  0  0  0  0
  -12.4998   16.2969  -39.2498 C   0  0  1  0  0  0  0  0  0  0  0  0
  -13.4480   15.1165  -37.3851 C   0  0  2  0  0  0  0  0  0  0  0  0
  -12.2585   14.7870  -39.2796 C   0  0  2  0  0  0  0  0  0  0  0  0
   -7.3959   14.3594  -35.1218 C   0  0  0  0  0  0  0  0  0  0  0  0
   -8.9285   13.4044  -33.3758 C   0  0  0  0  0  0  0  0  0  0  0  0
   -8.9723   12.4889  -35.7142 C   0  0  0  0  0  0  0  0  0  0  0  0
   -8.7662   13.7372  -34.8574 C   0  0  0  0  0  0  0  0  0  0  0  0
  -10.9886   14.8386  -37.1480 N   0  0  0  0  0  0  0  0  0  0  0  0
  -12.9088   17.5598  -41.2702 O   0  0  0  0  0  0  0  0  0  0  0  0
   -8.8312   15.6931  -37.0272 O   0  0  0  0  0  0  0  0  0  0  0  0
  -13.3600   14.2446  -38.5244 O   0  0  0  0  0  0  0  0  0  0  0  0
  -14.4502   16.0495  -40.5358 O   0  0  0  0  0  0  0  0  0  0  0  0
   -9.7751   14.6953  -35.1975 O   0  0  0  0  0  0  0  0  0  0  0  0
  -12.8657   17.2247  -37.2966 H   0  0  0  0  0  0  0  0  0  0  0  0
  -14.3279   16.8993  -38.2291 H   0  0  0  0  0  0  0  0  0  0  0  0
  -12.2844   15.4267  -35.5756 H   0  0  0  0  0  0  0  0  0  0  0  0
  -12.3810   13.7355  -36.1017 H   0  0  0  0  0  0  0  0  0  0  0  0
  -10.8920   13.2943  -38.5077 H   0  0  0  0  0  0  0  0  0  0  0  0
  -10.0904   14.7770  -39.0584 H   0  0  0  0  0  0  0  0  0  0  0  0
  -11.5689   16.8736  -39.2440 H   0  0  0  0  0  0  0  0  0  0  0  0
  -14.4055   14.9646  -36.8779 H   0  0  0  0  0  0  0  0  0  0  0  0
  -12.2725   14.3588  -40.2870 H   0  0  0  0  0  0  0  0  0  0  0  0
   -7.2755   14.5997  -36.1842 H   0  0  0  0  0  0  0  0  0  0  0  0
   -7.2495   15.2749  -34.5394 H   0  0  0  0  0  0  0  0  0  0  0  0
   -6.5927   13.6573  -34.8707 H   0  0  0  0  0  0  0  0  0  0  0  0
   -9.9103   12.9578  -33.1815 H   0  0  0  0  0  0  0  0  0  0  0  0
   -8.8759   14.3122  -32.7639 H   0  0  0  0  0  0  0  0  0  0  0  0
   -8.1568   12.7086  -33.0311 H   0  0  0  0  0  0  0  0  0  0  0  0
   -9.9551   12.0424  -35.5247 H   0  0  0  0  0  0  0  0  0  0  0  0
   -8.8960   12.7159  -36.7825 H   0  0  0  0  0  0  0  0  0  0  0  0
   -8.2308   11.7203  -35.4677 H   0  0  0  0  0  0  0  0  0  0  0  0
  -14.5610   15.4203  -39.7915 H   0  0  0  0  0  0  0  0  0  0  0  0
  1  6  1  0  0  0  0
  1 14  2  0  0  0  0
  1 17  1  0  0  0  0
  2 13  1  0  0  0  0
  2 15  2  0  0  0  0
  2 18  1  0  0  0  0
  3  6  1  0  0  0  0
  3  7  1  0  0  0  0
  4  7  1  0  0  0  0
  4 13  1  0  0  0  0
  5  8  1  0  0  0  0
  5 13  1  0  0  0  0
  6  8  1  0  0  0  0
  7 16  1  0  0  0  0
  8 16  1  0  0  0  0
  9 12  1  0  0  0  0
 10 12  1  0  0  0  0
 11 12  1  0  0  0  0
 12 18  1  0  0  0  0
  3 19  1  0  0  0  0
  3 20  1  0  0  0  0
  4 21  1  0  0  0  0
  4 22  1  0  0  0  0
  5 23  1  0  0  0  0
  5 24  1  0  0  0  0
  6 25  1  0  0  0  0
  7 26  1  0  0  0  0
  8 27  1  0  0  0  0
  9 28  1  0  0  0  0
  9 29  1  0  0  0  0
  9 30  1  0  0  0  0
 10 31  1  0  0  0  0
 10 32  1  0  0  0  0
 10 33  1  0  0  0  0
 11 34  1  0  0  0  0
 11 35  1  0  0  0  0
 11 36  1  0  0  0  0
 17 37  1  0  0  0  0
M  END
> <id>
EN300-268936

> <smiles>
CC(C)(C)OC(=O)N1CC2CC(C(C1)O2)C(=O)O

> <MDLNUMBER>
MFCD18792106

> <IUPAC Name>
3-[(tert-butoxy)carbonyl]-8-oxa-3-azabicyclo[3.2.1]octane-6-carboxylic acid

> <CAS>
1251010-77-1

> <Purity>
95

> <URL>
https://www.enaminestore.com/catalog/EN300-268936

> <ROCS_ShapeQuery>
__x1247relevant_x1083L0AP1_x1305L0BP1_

> <ROCS_TanimotoCombo>
0.712 

> <ROCS_ShapeTanimoto>
0.493 

> <ROCS_ColorTanimoto>
0.219 

> <ROCS_RefTversky>
0.433 

> <ROCS_RefColorTversky>
0.251 

> <ROCS_RefTverskyCombo>
0.684 

> <ROCS_FitTversky>
1.390 

> <ROCS_FitColorTversky>
0.634 

> <ROCS_FitTverskyCombo>
2.024 

> <ROCS_ColorScore>
-8.214

> <ROCS_Overlap>
1278.269

> <ROCS_Rank>
446                 

$$$$
untitled-dbase-77932_13
  -OEChem-06232314393D

 27 29  0     1  0  0  0  0  0999 V2000
  -14.1049   15.8393  -39.1552 C   0  0  0  0  0  0  0  0  0  0  0  0
  -12.9476   15.3684  -40.0367 C   0  0  0  0  0  0  0  0  0  0  0  0
  -12.5023   16.3120  -37.2743 C   0  0  0  0  0  0  0  0  0  0  0  0
   -9.3969   14.1509  -37.9952 C   0  0  0  0  0  0  0  0  0  0  0  0
  -10.6014   14.2431  -36.2948 C   0  0  0  0  0  0  0  0  0  0  0  0
  -11.3336   15.8698  -38.1703 C   0  0  2  0  0  0  0  0  0  0  0  0
  -13.6391   15.4151  -37.7643 C   0  0  2  0  0  0  0  0  0  0  0  0
  -11.9897   14.7637  -39.0105 C   0  0  1  0  0  0  0  0  0  0  0  0
  -10.1889   15.3047  -37.3393 C   0  0  0  0  0  0  0  0  0  0  0  0
  -10.2139   13.1803  -37.2420 N   0  0  0  0  0  0  0  0  0  0  0  0
  -12.9252   14.1938  -38.0639 O   0  0  0  0  0  0  0  0  0  0  0  0
   -9.3862   16.3849  -36.8199 O   0  0  0  0  0  0  0  0  0  0  0  0
  -14.2957   16.9134  -39.2343 H   0  0  0  0  0  0  0  0  0  0  0  0
  -15.0194   15.3049  -39.4366 H   0  0  0  0  0  0  0  0  0  0  0  0
  -13.3063   14.5983  -40.7289 H   0  0  0  0  0  0  0  0  0  0  0  0
  -12.4967   16.1754  -40.6216 H   0  0  0  0  0  0  0  0  0  0  0  0
  -12.2906   16.1163  -36.2170 H   0  0  0  0  0  0  0  0  0  0  0  0
  -12.7370   17.3755  -37.3850 H   0  0  0  0  0  0  0  0  0  0  0  0
   -9.4777   14.0639  -39.0832 H   0  0  0  0  0  0  0  0  0  0  0  0
   -8.3342   14.1228  -37.7270 H   0  0  0  0  0  0  0  0  0  0  0  0
   -9.9964   14.2502  -35.3805 H   0  0  0  0  0  0  0  0  0  0  0  0
  -11.6572   14.2317  -36.0072 H   0  0  0  0  0  0  0  0  0  0  0  0
  -10.9621   16.6901  -38.7941 H   0  0  0  0  0  0  0  0  0  0  0  0
  -14.4432   15.2641  -37.0408 H   0  0  0  0  0  0  0  0  0  0  0  0
  -11.3068   14.0126  -39.4146 H   0  0  0  0  0  0  0  0  0  0  0  0
  -11.0021   12.8202  -37.7807 H   0  0  0  0  0  0  0  0  0  0  0  0
   -8.8128   15.9853  -36.1542 H   0  0  0  0  0  0  0  0  0  0  0  0
  1  2  1  0  0  0  0
  1  7  1  0  0  0  0
  2  8  1  0  0  0  0
  3  6  1  0  0  0  0
  3  7  1  0  0  0  0
  4  9  1  0  0  0  0
  4 10  1  0  0  0  0
  5  9  1  0  0  0  0
  5 10  1  0  0  0  0
  6  8  1  0  0  0  0
  6  9  1  0  0  0  0
  7 11  1  0  0  0  0
  8 11  1  0  0  0  0
  9 12  1  0  0  0  0
  1 13  1  0  0  0  0
  1 14  1  0  0  0  0
  2 15  1  0  0  0  0
  2 16  1  0  0  0  0
  3 17  1  0  0  0  0
  3 18  1  0  0  0  0
  4 19  1  0  0  0  0
  4 20  1  0  0  0  0
  5 21  1  0  0  0  0
  5 22  1  0  0  0  0
  6 23  1  0  0  0  0
  7 24  1  0  0  0  0
  8 25  1  0  0  0  0
 10 26  1  0  0  0  0
 12 27  1  0  0  0  0
M  END
> <id>
EN300-1754179

> <smiles>
OC1(CNC1)C2CC3CCC2O3

> <IUPAC Name>
3-{7-oxabicyclo[2.2.1]heptan-2-yl}azetidin-3-ol

> <CAS>
2228518-98-5

> <URL>
https://www.enaminestore.com/catalog/EN300-1754179

> <ROCS_ShapeQuery>
__x1247relevant_x1083L0AP1_x1305L0BP1_

> <ROCS_TanimotoCombo>
0.712 

> <ROCS_ShapeTanimoto>
0.463 

> <ROCS_ColorTanimoto>
0.249 

> <ROCS_RefTversky>
0.389 

> <ROCS_RefColorTversky>
0.281 

> <ROCS_RefTverskyCombo>
0.670 

> <ROCS_FitTversky>
1.698 

> <ROCS_FitColorTversky>
0.687 

> <ROCS_FitTverskyCombo>
2.385 

> <ROCS_ColorScore>
-9.224

> <ROCS_Overlap>
1142.153

> <ROCS_Rank>
447                 

$$$$
untitled-dbase-46585_0
  -OEChem-06232314393D

 34 36  0     1  0  0  0  0  0999 V2000
   -9.1668   15.2496  -36.7969 C   0  0  0  0  0  0  0  0  0  0  0  0
  -10.5450   15.8378  -36.9017 C   0  0  0  0  0  0  0  0  0  0  0  0
  -12.5795   16.5292  -39.5132 C   0  0  0  0  0  0  0  0  0  0  0  0
  -13.4169   16.7826  -38.2610 C   0  0  0  0  0  0  0  0  0  0  0  0
  -11.3672   14.3728  -38.8200 C   0  0  0  0  0  0  0  0  0  0  0  0
  -12.8804   14.7599  -36.7833 C   0  0  0  0  0  0  0  0  0  0  0  0
  -12.5216   15.0068  -39.6293 C   0  0  1  0  0  0  0  0  0  0  0  0
  -13.8518   15.3887  -37.8011 C   0  0  2  0  0  0  0  0  0  0  0  0
  -10.6342   13.5128  -36.5392 C   0  0  2  0  0  0  0  0  0  0  0  0
  -11.4161   14.6272  -37.2736 C   0  0  0  0  0  0  0  0  0  0  0  0
  -14.9359   14.6950  -39.8775 C   0  0  0  0  0  0  0  0  0  0  0  0
  -10.9181   13.3446  -35.0464 C   0  0  0  0  0  0  0  0  0  0  0  0
  -13.7730   14.5457  -39.0063 N   0  0  0  0  0  0  0  0  0  0  0  0
   -8.1224   15.8820  -36.7997 O   0  0  0  0  0  0  0  0  0  0  0  0
   -9.2539   13.8924  -36.6778 O   0  0  0  0  0  0  0  0  0  0  0  0
   -9.7127   11.7956  -34.2239 I   0  0  0  0  0  0  0  0  0  0  0  0
  -10.8095   16.2636  -35.9287 H   0  0  0  0  0  0  0  0  0  0  0  0
  -10.5385   16.6243  -37.6553 H   0  0  0  0  0  0  0  0  0  0  0  0
  -13.0927   16.9587  -40.3826 H   0  0  0  0  0  0  0  0  0  0  0  0
  -11.5935   16.9981  -39.4705 H   0  0  0  0  0  0  0  0  0  0  0  0
  -12.8636   17.3311  -37.4932 H   0  0  0  0  0  0  0  0  0  0  0  0
  -14.2905   17.3896  -38.5275 H   0  0  0  0  0  0  0  0  0  0  0  0
  -11.4105   13.2898  -39.0022 H   0  0  0  0  0  0  0  0  0  0  0  0
  -10.4095   14.7066  -39.2390 H   0  0  0  0  0  0  0  0  0  0  0  0
  -12.9219   15.3290  -35.8463 H   0  0  0  0  0  0  0  0  0  0  0  0
  -13.2686   13.7586  -36.5500 H   0  0  0  0  0  0  0  0  0  0  0  0
  -12.4296   14.6876  -40.6741 H   0  0  0  0  0  0  0  0  0  0  0  0
  -14.8559   15.4031  -37.3613 H   0  0  0  0  0  0  0  0  0  0  0  0
  -10.7681   12.5414  -37.0280 H   0  0  0  0  0  0  0  0  0  0  0  0
  -15.8344   14.3342  -39.3555 H   0  0  0  0  0  0  0  0  0  0  0  0
  -15.0646   15.7558  -40.1384 H   0  0  0  0  0  0  0  0  0  0  0  0
  -14.7842   14.1075  -40.7950 H   0  0  0  0  0  0  0  0  0  0  0  0
  -11.9759   13.1110  -34.9093 H   0  0  0  0  0  0  0  0  0  0  0  0
  -10.7169   14.2891  -34.5368 H   0  0  0  0  0  0  0  0  0  0  0  0
  1  2  1  0  0  0  0
  1 14  2  0  0  0  0
  1 15  1  0  0  0  0
  2 10  1  0  0  0  0
  3  4  1  0  0  0  0
  3  7  1  0  0  0  0
  4  8  1  0  0  0  0
  5  7  1  0  0  0  0
  5 10  1  0  0  0  0
  6  8  1  0  0  0  0
  6 10  1  0  0  0  0
  7 13  1  0  0  0  0
  8 13  1  0  0  0  0
  9 10  1  0  0  0  0
  9 12  1  0  0  0  0
  9 15  1  0  0  0  0
 11 13  1  0  0  0  0
 12 16  1  0  0  0  0
  2 17  1  0  0  0  0
  2 18  1  0  0  0  0
  3 19  1  0  0  0  0
  3 20  1  0  0  0  0
  4 21  1  0  0  0  0
  4 22  1  0  0  0  0
  5 23  1  0  0  0  0
  5 24  1  0  0  0  0
  6 25  1  0  0  0  0
  6 26  1  0  0  0  0
  7 27  1  0  0  0  0
  8 28  1  0  0  0  0
  9 29  1  0  0  0  0
 11 30  1  0  0  0  0
 11 31  1  0  0  0  0
 11 32  1  0  0  0  0
 12 33  1  0  0  0  0
 12 34  1  0  0  0  0
M  END
> <id>
EN300-1478873

> <smiles>
CN1C2CCC1CC3(CC(=O)OC3CI)C2

> <IUPAC Name>
2'-(iodomethyl)-8-methyl-8-azaspiro[bicyclo[3.2.1]octane-3,3'-oxolane]-5'-one

> <CAS>
2168393-17-5

> <URL>
https://www.enaminestore.com/catalog/EN300-1478873

> <ROCS_ShapeQuery>
__x1247relevant_x1083L0AP1_x1305L0BP1_

> <ROCS_TanimotoCombo>
0.712 

> <ROCS_ShapeTanimoto>
0.519 

> <ROCS_ColorTanimoto>
0.193 

> <ROCS_RefTversky>
0.437 

> <ROCS_RefColorTversky>
0.216 

> <ROCS_RefTverskyCombo>
0.653 

> <ROCS_FitTversky>
1.567 

> <ROCS_FitColorTversky>
0.642 

> <ROCS_FitTverskyCombo>
2.209 

> <ROCS_ColorScore>
-7.052

> <ROCS_Overlap>
1287.683

> <ROCS_Rank>
448                 

$$$$
untitled-dbase-179647_58
  -OEChem-06232314393D

 33 34  0     1  0  0  0  0  0999 V2000
  -10.2406   15.3623  -37.1383 C   0  0  0  0  0  0  0  0  0  0  0  0
  -11.9158   16.4958  -38.6126 C   0  0  0  0  0  0  0  0  0  0  0  0
  -11.0157   15.2640  -38.4176 C   0  0  2  0  0  0  0  0  0  0  0  0
  -13.2349   16.1136  -38.0056 C   0  0  1  0  0  0  0  0  0  0  0  0
  -14.2500   15.2274  -38.6864 C   0  0  2  0  0  0  0  0  0  0  0  0
  -13.1970   14.6209  -37.8000 C   0  0  1  0  0  0  0  0  0  0  0  0
   -9.0610   14.1802  -34.8345 C   0  0  0  0  0  0  0  0  0  0  0  0
  -11.3633   13.3127  -34.3283 C   0  0  0  0  0  0  0  0  0  0  0  0
  -10.1929   12.5997  -36.4330 C   0  0  0  0  0  0  0  0  0  0  0  0
  -14.2653   15.0122  -40.1609 C   0  0  0  0  0  0  0  0  0  0  0  0
  -10.3955   13.7356  -35.4314 C   0  0  0  0  0  0  0  0  0  0  0  0
  -11.9144   14.1026  -38.3133 N   0  0  0  0  0  0  0  0  0  0  0  0
   -9.1158   15.8365  -37.0534 O   0  0  0  0  0  0  0  0  0  0  0  0
  -10.9812   14.8476  -36.1158 O   0  0  0  0  0  0  0  0  0  0  0  0
  -14.9327   16.0026  -40.8005 F   0  0  0  0  0  0  0  0  0  0  0  0
  -13.0106   14.9755  -40.6706 F   0  0  0  0  0  0  0  0  0  0  0  0
  -14.8681   13.8433  -40.4859 F   0  0  0  0  0  0  0  0  0  0  0  0
  -11.5072   17.3837  -38.1180 H   0  0  0  0  0  0  0  0  0  0  0  0
  -12.0399   16.7256  -39.6761 H   0  0  0  0  0  0  0  0  0  0  0  0
  -10.2965   15.1532  -39.2381 H   0  0  0  0  0  0  0  0  0  0  0  0
  -13.5438   16.7382  -37.1795 H   0  0  0  0  0  0  0  0  0  0  0  0
  -15.2593   15.2539  -38.2961 H   0  0  0  0  0  0  0  0  0  0  0  0
  -13.5036   14.2353  -36.8356 H   0  0  0  0  0  0  0  0  0  0  0  0
   -8.3635   14.4846  -35.6231 H   0  0  0  0  0  0  0  0  0  0  0  0
   -9.1884   15.0176  -34.1407 H   0  0  0  0  0  0  0  0  0  0  0  0
   -8.5790   13.3556  -34.2969 H   0  0  0  0  0  0  0  0  0  0  0  0
  -12.3221   12.9929  -34.7521 H   0  0  0  0  0  0  0  0  0  0  0  0
  -11.5857   14.1531  -33.6609 H   0  0  0  0  0  0  0  0  0  0  0  0
  -10.9582   12.4914  -33.7284 H   0  0  0  0  0  0  0  0  0  0  0  0
  -11.1499   12.2806  -36.8613 H   0  0  0  0  0  0  0  0  0  0  0  0
   -9.5300   12.8975  -37.2519 H   0  0  0  0  0  0  0  0  0  0  0  0
   -9.7649   11.7185  -35.9415 H   0  0  0  0  0  0  0  0  0  0  0  0
  -12.0525   13.7032  -39.2410 H   0  0  0  0  0  0  0  0  0  0  0  0
  1  3  1  6  0  0  0
  1 13  2  0  0  0  0
  1 14  1  0  0  0  0
  2  3  1  0  0  0  0
  2  4  1  1  0  0  0
  3 12  1  0  0  0  0
  4  5  1  0  0  0  0
  4  6  1  0  0  0  0
  5  6  1  0  0  0  0
  5 10  1  1  0  0  0
  6 12  1  1  0  0  0
  7 11  1  0  0  0  0
  8 11  1  0  0  0  0
  9 11  1  0  0  0  0
 10 15  1  0  0  0  0
 10 16  1  0  0  0  0
 10 17  1  0  0  0  0
 11 14  1  0  0  0  0
  2 18  1  0  0  0  0
  2 19  1  0  0  0  0
  3 20  1  0  0  0  0
  4 21  1  0  0  0  0
  5 22  1  0  0  0  0
  6 23  1  0  0  0  0
  7 24  1  0  0  0  0
  7 25  1  0  0  0  0
  7 26  1  0  0  0  0
  8 27  1  0  0  0  0
  8 28  1  0  0  0  0
  8 29  1  0  0  0  0
  9 30  1  0  0  0  0
  9 31  1  0  0  0  0
  9 32  1  0  0  0  0
 12 33  1  0  0  0  0
M  END
> <id>
EN300-37101512

> <smiles>
CC(C)(C)OC(=O)[C@@H]1C[C@H]2[C@H]([C@H]2N1)C(F)(F)F

> <IUPAC Name>
tert-butyl (1S,3S,5S,6R)-6-(trifluoromethyl)-2-azabicyclo[3.1.0]hexane-3-carboxylate

> <URL>
https://www.enaminestore.com/catalog/EN300-37101512

> <ROCS_ShapeQuery>
__x1247relevant_x1083L0AP1_x1305L0BP1_

> <ROCS_TanimotoCombo>
0.712 

> <ROCS_ShapeTanimoto>
0.507 

> <ROCS_ColorTanimoto>
0.205 

> <ROCS_RefTversky>
0.437 

> <ROCS_RefColorTversky>
0.217 

> <ROCS_RefTverskyCombo>
0.654 

> <ROCS_FitTversky>
1.467 

> <ROCS_FitColorTversky>
0.779 

> <ROCS_FitTverskyCombo>
2.246 

> <ROCS_ColorScore>
-7.076

> <ROCS_Overlap>
1287.519

> <ROCS_Rank>
449                 

$$$$
untitled-dbase-171675_4
  -OEChem-06232314393D

 29 30  0     0  0  0  0  0  0999 V2000
  -10.2989   15.0335  -36.6669 C   0  0  0  0  0  0  0  0  0  0  0  0
  -11.1101   15.6896  -38.9414 C   0  0  0  0  0  0  0  0  0  0  0  0
  -12.4959   16.1761  -36.9282 C   0  0  0  0  0  0  0  0  0  0  0  0
  -12.3557   15.7376  -39.8336 C   0  0  0  0  0  0  0  0  0  0  0  0
  -13.7616   16.2316  -37.7913 C   0  0  0  0  0  0  0  0  0  0  0  0
  -12.2287   13.8375  -37.7202 C   0  0  0  0  0  0  0  0  0  0  0  0
  -11.5039   15.1795  -37.5466 C   0  0  0  0  0  0  0  0  0  0  0  0
  -13.5943   15.3182  -39.0202 C   0  0  0  0  0  0  0  0  0  0  0  0
  -14.8492   15.3271  -39.8864 C   0  0  0  0  0  0  0  0  0  0  0  0
   -7.9520   15.3074  -36.6336 C   0  0  0  0  0  0  0  0  0  0  0  0
  -10.3399   14.6441  -35.5077 O   0  0  0  0  0  0  0  0  0  0  0  0
  -13.3897   13.9702  -38.5545 O   0  0  0  0  0  0  0  0  0  0  0  0
   -9.1823   15.3985  -37.3590 O   0  0  0  0  0  0  0  0  0  0  0  0
  -10.3511   15.0392  -39.3948 H   0  0  0  0  0  0  0  0  0  0  0  0
  -10.6554   16.6865  -38.8788 H   0  0  0  0  0  0  0  0  0  0  0  0
  -12.0483   17.1754  -36.8523 H   0  0  0  0  0  0  0  0  0  0  0  0
  -12.7565   15.8836  -35.9029 H   0  0  0  0  0  0  0  0  0  0  0  0
  -12.4800   16.7440  -40.2504 H   0  0  0  0  0  0  0  0  0  0  0  0
  -12.2087   15.0513  -40.6771 H   0  0  0  0  0  0  0  0  0  0  0  0
  -14.6130   15.8959  -37.1860 H   0  0  0  0  0  0  0  0  0  0  0  0
  -13.9646   17.2657  -38.0935 H   0  0  0  0  0  0  0  0  0  0  0  0
  -11.5732   13.0856  -38.1751 H   0  0  0  0  0  0  0  0  0  0  0  0
  -12.5557   13.4308  -36.7561 H   0  0  0  0  0  0  0  0  0  0  0  0
  -15.7125   15.0279  -39.2927 H   0  0  0  0  0  0  0  0  0  0  0  0
  -14.7321   14.6321  -40.7173 H   0  0  0  0  0  0  0  0  0  0  0  0
  -15.0204   16.3278  -40.2821 H   0  0  0  0  0  0  0  0  0  0  0  0
   -7.1254   15.6207  -37.2759 H   0  0  0  0  0  0  0  0  0  0  0  0
   -7.7992   14.2774  -36.3015 H   0  0  0  0  0  0  0  0  0  0  0  0
   -8.0033   15.9651  -35.7627 H   0  0  0  0  0  0  0  0  0  0  0  0
  1  7  1  0  0  0  0
  1 11  2  0  0  0  0
  1 13  1  0  0  0  0
  2  4  1  0  0  0  0
  2  7  1  0  0  0  0
  3  5  1  0  0  0  0
  3  7  1  0  0  0  0
  4  8  1  0  0  0  0
  5  8  1  0  0  0  0
  6  7  1  0  0  0  0
  6 12  1  0  0  0  0
  8  9  1  0  0  0  0
  8 12  1  0  0  0  0
 10 13  1  0  0  0  0
  2 14  1  0  0  0  0
  2 15  1  0  0  0  0
  3 16  1  0  0  0  0
  3 17  1  0  0  0  0
  4 18  1  0  0  0  0
  4 19  1  0  0  0  0
  5 20  1  0  0  0  0
  5 21  1  0  0  0  0
  6 22  1  0  0  0  0
  6 23  1  0  0  0  0
  9 24  1  0  0  0  0
  9 25  1  0  0  0  0
  9 26  1  0  0  0  0
 10 27  1  0  0  0  0
 10 28  1  0  0  0  0
 10 29  1  0  0  0  0
M  END
> <id>
EN300-39659486

> <smiles>
COC(=O)C1(CCC2(C)CC1)CO2

> <IUPAC Name>
methyl 1-methyl-2-oxabicyclo[2.2.2]octane-4-carboxylate

> <Purity>
91

> <URL>
https://www.enaminestore.com/catalog/EN300-39659486

> <ROCS_ShapeQuery>
__x1247relevant_x1083L0AP1_x1305L0BP1_

> <ROCS_TanimotoCombo>
0.712 

> <ROCS_ShapeTanimoto>
0.494 

> <ROCS_ColorTanimoto>
0.218 

> <ROCS_RefTversky>
0.409 

> <ROCS_RefColorTversky>
0.230 

> <ROCS_RefTverskyCombo>
0.640 

> <ROCS_FitTversky>
1.716 

> <ROCS_FitColorTversky>
0.803 

> <ROCS_FitTverskyCombo>
2.519 

> <ROCS_ColorScore>
-7.498

> <ROCS_Overlap>
1203.885

> <ROCS_Rank>
450                 

$$$$
untitled-dbase-43876_4
  -OEChem-06232314393D

 33 35  0     1  0  0  0  0  0999 V2000
   -9.1070   15.1809  -36.7690 C   0  0  0  0  0  0  0  0  0  0  0  0
  -10.5052   15.6973  -36.5883 C   0  0  0  0  0  0  0  0  0  0  0  0
  -13.5467   13.8191  -38.1553 C   0  0  0  0  0  0  0  0  0  0  0  0
  -13.4505   16.0933  -37.2021 C   0  0  0  0  0  0  0  0  0  0  0  0
  -13.4220   14.4601  -39.5457 C   0  0  0  0  0  0  0  0  0  0  0  0
  -13.2382   16.6698  -38.6088 C   0  0  0  0  0  0  0  0  0  0  0  0
  -11.2580   15.3512  -38.9893 C   0  0  0  0  0  0  0  0  0  0  0  0
  -12.8123   14.6930  -37.1214 C   0  0  0  0  0  0  0  0  0  0  0  0
  -10.5125   13.4856  -37.4198 C   0  0  2  0  0  0  0  0  0  0  0  0
  -11.3181   14.7941  -37.5237 C   0  0  2  0  0  0  0  0  0  0  0  0
  -10.8014   12.5997  -36.2097 C   0  0  0  0  0  0  0  0  0  0  0  0
  -12.6029   15.6893  -39.5124 N   0  0  0  0  0  0  0  0  0  0  0  0
  -10.1104   13.1007  -35.0696 N   0  0  0  0  0  0  0  0  0  0  0  0
   -8.0855   15.7714  -36.4551 O   0  0  0  0  0  0  0  0  0  0  0  0
   -9.1453   13.9293  -37.3180 O   0  0  0  0  0  0  0  0  0  0  0  0
  -10.7888   15.5710  -35.5386 H   0  0  0  0  0  0  0  0  0  0  0  0
  -10.5569   16.7547  -36.8612 H   0  0  0  0  0  0  0  0  0  0  0  0
  -14.6054   13.7284  -37.8832 H   0  0  0  0  0  0  0  0  0  0  0  0
  -13.1357   12.8042  -38.1723 H   0  0  0  0  0  0  0  0  0  0  0  0
  -13.0205   16.7636  -36.4497 H   0  0  0  0  0  0  0  0  0  0  0  0
  -14.5239   16.0236  -36.9864 H   0  0  0  0  0  0  0  0  0  0  0  0
  -12.9848   13.7413  -40.2501 H   0  0  0  0  0  0  0  0  0  0  0  0
  -14.4183   14.6904  -39.9434 H   0  0  0  0  0  0  0  0  0  0  0  0
  -14.1994   16.9924  -39.0277 H   0  0  0  0  0  0  0  0  0  0  0  0
  -12.6229   17.5769  -38.5551 H   0  0  0  0  0  0  0  0  0  0  0  0
  -10.6260   16.2461  -39.0540 H   0  0  0  0  0  0  0  0  0  0  0  0
  -10.7937   14.6295  -39.6736 H   0  0  0  0  0  0  0  0  0  0  0  0
  -12.9406   14.2884  -36.1122 H   0  0  0  0  0  0  0  0  0  0  0  0
  -10.6034   12.8789  -38.3276 H   0  0  0  0  0  0  0  0  0  0  0  0
  -11.8774   12.6189  -36.0453 H   0  0  0  0  0  0  0  0  0  0  0  0
  -10.4589   11.5960  -36.4556 H   0  0  0  0  0  0  0  0  0  0  0  0
  -10.3881   14.0480  -34.8842 H   0  0  0  0  0  0  0  0  0  0  0  0
  -10.3197   12.5392  -34.2635 H   0  0  0  0  0  0  0  0  0  0  0  0
  1  2  1  0  0  0  0
  1 14  2  0  0  0  0
  1 15  1  0  0  0  0
  2 10  1  0  0  0  0
  3  5  1  0  0  0  0
  3  8  1  0  0  0  0
  4  6  1  0  0  0  0
  4  8  1  0  0  0  0
  5 12  1  0  0  0  0
  6 12  1  0  0  0  0
  7 10  1  0  0  0  0
  7 12  1  0  0  0  0
  8 10  1  0  0  0  0
  9 10  1  0  0  0  0
  9 11  1  0  0  0  0
  9 15  1  0  0  0  0
 11 13  1  0  0  0  0
  2 16  1  0  0  0  0
  2 17  1  0  0  0  0
  3 18  1  0  0  0  0
  3 19  1  0  0  0  0
  4 20  1  0  0  0  0
  4 21  1  0  0  0  0
  5 22  1  0  0  0  0
  5 23  1  0  0  0  0
  6 24  1  0  0  0  0
  6 25  1  0  0  0  0
  7 26  1  0  0  0  0
  7 27  1  0  0  0  0
  8 28  1  0  0  0  0
  9 29  1  0  0  0  0
 11 30  1  0  0  0  0
 11 31  1  0  0  0  0
 13 32  1  0  0  0  0
 13 33  1  0  0  0  0
M  END
> <id>
EN300-1479095

> <smiles>
NCC1OC(=O)CC21CN3CCC2CC3

> <IUPAC Name>
2'-(aminomethyl)-4-azaspiro[bicyclo[2.2.2]octane-2,3'-oxolane]-5'-one

> <CAS>
2167391-36-6

> <URL>
https://www.enaminestore.com/catalog/EN300-1479095

> <ROCS_ShapeQuery>
__x1247relevant_x1083L0AP1_x1305L0BP1_

> <ROCS_TanimotoCombo>
0.712 

> <ROCS_ShapeTanimoto>
0.510 

> <ROCS_ColorTanimoto>
0.202 

> <ROCS_RefTversky>
0.429 

> <ROCS_RefColorTversky>
0.231 

> <ROCS_RefTverskyCombo>
0.660 

> <ROCS_FitTversky>
1.587 

> <ROCS_FitColorTversky>
0.617 

> <ROCS_FitTverskyCombo>
2.204 

> <ROCS_ColorScore>
-7.540

> <ROCS_Overlap>
1263.821

> <ROCS_Rank>
451                 

$$$$
untitled-dbase-155552_10
  -OEChem-06232314393D

 29 30  0     1  0  0  0  0  0999 V2000
  -13.2100   16.5265  -40.3097 C   0  0  0  0  0  0  0  0  0  0  0  0
  -10.2476   14.7524  -36.7235 C   0  0  0  0  0  0  0  0  0  0  0  0
  -13.1980   14.1834  -39.2922 C   0  0  0  0  0  0  0  0  0  0  0  0
  -13.2082   13.6851  -37.8295 C   0  0  0  0  0  0  0  0  0  0  0  0
  -13.5071   16.0400  -37.8324 C   0  0  0  0  0  0  0  0  0  0  0  0
  -11.3477   15.7983  -38.7512 C   0  0  0  0  0  0  0  0  0  0  0  0
  -12.8246   15.6746  -39.1498 C   0  0  2  0  0  0  0  0  0  0  0  0
  -12.7721   14.9409  -37.0460 C   0  0  1  0  0  0  0  0  0  0  0  0
   -9.1307   14.2235  -37.5895 C   0  0  0  0  0  0  0  0  0  0  0  0
  -13.1120   14.9327  -35.5694 C   0  0  0  0  0  0  0  0  0  0  0  0
  -11.3607   15.2094  -37.4080 N   0  0  0  0  0  0  0  0  0  0  0  0
  -12.4314   17.1712  -40.9963 O   0  0  0  0  0  0  0  0  0  0  0  0
  -10.1254   14.7527  -35.4984 O   0  0  0  0  0  0  0  0  0  0  0  0
  -14.5512   16.4937  -40.5030 O   0  0  0  0  0  0  0  0  0  0  0  0
  -12.4723   13.6328  -39.9007 H   0  0  0  0  0  0  0  0  0  0  0  0
  -14.1859   14.0484  -39.7475 H   0  0  0  0  0  0  0  0  0  0  0  0
  -14.2193   13.3678  -37.5482 H   0  0  0  0  0  0  0  0  0  0  0  0
  -12.5327   12.8365  -37.6785 H   0  0  0  0  0  0  0  0  0  0  0  0
  -13.2761   17.0543  -37.4854 H   0  0  0  0  0  0  0  0  0  0  0  0
  -14.5961   15.9133  -37.8571 H   0  0  0  0  0  0  0  0  0  0  0  0
  -10.6762   15.2464  -39.4158 H   0  0  0  0  0  0  0  0  0  0  0  0
  -11.0105   16.8380  -38.6762 H   0  0  0  0  0  0  0  0  0  0  0  0
   -8.4575   15.0377  -37.8351 H   0  0  0  0  0  0  0  0  0  0  0  0
   -9.5536   13.8045  -38.4966 H   0  0  0  0  0  0  0  0  0  0  0  0
   -8.5971   13.4508  -37.0462 H   0  0  0  0  0  0  0  0  0  0  0  0
  -12.7688   15.8552  -35.0941 H   0  0  0  0  0  0  0  0  0  0  0  0
  -12.6310   14.0866  -35.0722 H   0  0  0  0  0  0  0  0  0  0  0  0
  -14.1926   14.8503  -35.4274 H   0  0  0  0  0  0  0  0  0  0  0  0
  -14.8256   17.0508  -41.2624 H   0  0  0  0  0  0  0  0  0  0  0  0
  1  7  1  0  0  0  0
  1 12  2  0  0  0  0
  1 14  1  0  0  0  0
  2  9  1  0  0  0  0
  2 11  1  0  0  0  0
  2 13  2  0  0  0  0
  3  4  1  0  0  0  0
  3  7  1  0  0  0  0
  4  8  1  0  0  0  0
  5  7  1  0  0  0  0
  5  8  1  0  0  0  0
  6  7  1  0  0  0  0
  6 11  1  0  0  0  0
  8 10  1  0  0  0  0
  8 11  1  0  0  0  0
  3 15  1  0  0  0  0
  3 16  1  0  0  0  0
  4 17  1  0  0  0  0
  4 18  1  0  0  0  0
  5 19  1  0  0  0  0
  5 20  1  0  0  0  0
  6 21  1  0  0  0  0
  6 22  1  0  0  0  0
  9 23  1  0  0  0  0
  9 24  1  0  0  0  0
  9 25  1  0  0  0  0
 10 26  1  0  0  0  0
 10 27  1  0  0  0  0
 10 28  1  0  0  0  0
 14 29  1  0  0  0  0
M  END
> <id>
EN300-28272068

> <smiles>
CC(=O)N1CC2(CCC1(C)C2)C(=O)O

> <IUPAC Name>
2-acetyl-1-methyl-2-azabicyclo[2.2.1]heptane-4-carboxylic acid

> <CAS>
2680786-41-6

> <URL>
https://www.enaminestore.com/catalog/EN300-28272068

> <ROCS_ShapeQuery>
__x1247relevant_x1083L0AP1_x1305L0BP1_

> <ROCS_TanimotoCombo>
0.712 

> <ROCS_ShapeTanimoto>
0.494 

> <ROCS_ColorTanimoto>
0.218 

> <ROCS_RefTversky>
0.415 

> <ROCS_RefColorTversky>
0.242 

> <ROCS_RefTverskyCombo>
0.657 

> <ROCS_FitTversky>
1.627 

> <ROCS_FitColorTversky>
0.685 

> <ROCS_FitTverskyCombo>
2.312 

> <ROCS_ColorScore>
-7.910

> <ROCS_Overlap>
1220.905

> <ROCS_Rank>
452                 

$$$$
untitled-dbase-146783_70
  -OEChem-06232314393D

 34 35  0     1  0  0  0  0  0999 V2000
  -10.5199   14.9352  -36.9126 C   0  0  0  0  0  0  0  0  0  0  0  0
  -13.1249   14.3753  -37.3079 C   0  0  0  0  0  0  0  0  0  0  0  0
  -11.9916   14.1968  -39.0437 C   0  0  0  0  0  0  0  0  0  0  0  0
  -13.3653   16.2823  -38.8317 C   0  0  2  0  0  0  0  0  0  0  0  0
  -11.7779   15.0896  -37.7482 C   0  0  0  0  0  0  0  0  0  0  0  0
  -13.4170   14.7620  -38.7872 C   0  0  0  0  0  0  0  0  0  0  0  0
   -9.4371   12.6284  -37.4573 C   0  0  0  0  0  0  0  0  0  0  0  0
   -7.9288   13.7760  -39.1057 C   0  0  0  0  0  0  0  0  0  0  0  0
   -7.5144   14.0330  -36.6418 C   0  0  0  0  0  0  0  0  0  0  0  0
  -13.2580   16.8617  -40.2262 C   0  0  0  0  0  0  0  0  0  0  0  0
   -8.5777   13.8629  -37.7260 C   0  0  0  0  0  0  0  0  0  0  0  0
  -14.4850   13.9989  -39.3739 N   0  0  0  0  0  0  0  0  0  0  0  0
  -10.5188   14.7648  -35.7009 O   0  0  0  0  0  0  0  0  0  0  0  0
  -12.1291   16.4657  -38.1080 O   0  0  0  0  0  0  0  0  0  0  0  0
   -9.4238   15.0170  -37.7194 O   0  0  0  0  0  0  0  0  0  0  0  0
  -13.0245   18.1865  -40.1715 F   0  0  0  0  0  0  0  0  0  0  0  0
  -12.2497   16.2812  -40.9035 F   0  0  0  0  0  0  0  0  0  0  0  0
  -14.3996   16.6608  -40.9111 F   0  0  0  0  0  0  0  0  0  0  0  0
  -13.0596   13.3116  -37.0503 H   0  0  0  0  0  0  0  0  0  0  0  0
  -13.7151   14.8939  -36.5462 H   0  0  0  0  0  0  0  0  0  0  0  0
  -11.4800   14.5371  -39.9474 H   0  0  0  0  0  0  0  0  0  0  0  0
  -11.8345   13.1173  -38.9315 H   0  0  0  0  0  0  0  0  0  0  0  0
  -14.1827   16.7456  -38.2682 H   0  0  0  0  0  0  0  0  0  0  0  0
   -9.9046   12.6869  -36.4678 H   0  0  0  0  0  0  0  0  0  0  0  0
  -10.2256   12.5145  -38.2083 H   0  0  0  0  0  0  0  0  0  0  0  0
   -8.8256   11.7188  -37.4569 H   0  0  0  0  0  0  0  0  0  0  0  0
   -7.3112   14.6597  -39.3027 H   0  0  0  0  0  0  0  0  0  0  0  0
   -8.6898   13.7493  -39.8939 H   0  0  0  0  0  0  0  0  0  0  0  0
   -7.2996   12.8851  -39.2009 H   0  0  0  0  0  0  0  0  0  0  0  0
   -6.8978   14.9185  -36.8344 H   0  0  0  0  0  0  0  0  0  0  0  0
   -7.9637   14.1341  -35.6486 H   0  0  0  0  0  0  0  0  0  0  0  0
   -6.8304   13.1767  -36.6291 H   0  0  0  0  0  0  0  0  0  0  0  0
  -15.2163   14.6166  -39.6627 H   0  0  0  0  0  0  0  0  0  0  0  0
  -14.1391   13.4977  -40.1668 H   0  0  0  0  0  0  0  0  0  0  0  0
  1  5  1  0  0  0  0
  1 13  2  0  0  0  0
  1 15  1  0  0  0  0
  2  5  1  0  0  0  0
  2  6  1  0  0  0  0
  3  5  1  0  0  0  0
  3  6  1  0  0  0  0
  4  6  1  0  0  0  0
  4 10  1  0  0  0  0
  4 14  1  0  0  0  0
  5 14  1  0  0  0  0
  6 12  1  0  0  0  0
  7 11  1  0  0  0  0
  8 11  1  0  0  0  0
  9 11  1  0  0  0  0
 10 16  1  0  0  0  0
 10 17  1  0  0  0  0
 10 18  1  0  0  0  0
 11 15  1  0  0  0  0
  2 19  1  0  0  0  0
  2 20  1  0  0  0  0
  3 21  1  0  0  0  0
  3 22  1  0  0  0  0
  4 23  1  0  0  0  0
  7 24  1  0  0  0  0
  7 25  1  0  0  0  0
  7 26  1  0  0  0  0
  8 27  1  0  0  0  0
  8 28  1  0  0  0  0
  8 29  1  0  0  0  0
  9 30  1  0  0  0  0
  9 31  1  0  0  0  0
  9 32  1  0  0  0  0
 12 33  1  0  0  0  0
 12 34  1  0  0  0  0
M  END
> <id>
EN300-27727121

> <smiles>
CC(C)(C)OC(=O)C1(CC2(N)C1)OC2C(F)(F)F

> <IUPAC Name>
tert-butyl 4-amino-3-(trifluoromethyl)-2-oxabicyclo[2.1.1]hexane-1-carboxylate

> <CAS>
2639404-43-4

> <URL>
https://www.enaminestore.com/catalog/EN300-27727121

> <ROCS_ShapeQuery>
__x1247relevant_x1083L0AP1_x1305L0BP1_

> <ROCS_TanimotoCombo>
0.712 

> <ROCS_ShapeTanimoto>
0.518 

> <ROCS_ColorTanimoto>
0.194 

> <ROCS_RefTversky>
0.449 

> <ROCS_RefColorTversky>
0.226 

> <ROCS_RefTverskyCombo>
0.675 

> <ROCS_FitTversky>
1.423 

> <ROCS_FitColorTversky>
0.576 

> <ROCS_FitTverskyCombo>
1.999 

> <ROCS_ColorScore>
-7.415

> <ROCS_Overlap>
1324.053

> <ROCS_Rank>
453                 

$$$$
untitled-dbase-134345_5
  -OEChem-06232314393D

 26 28  0     1  0  0  0  0  0999 V2000
  -14.1535   15.7404  -39.3075 C   0  0  0  0  0  0  0  0  0  0  0  0
  -12.8114   15.6170  -40.0299 C   0  0  0  0  0  0  0  0  0  0  0  0
  -12.9627   16.0791  -37.1173 C   0  0  0  0  0  0  0  0  0  0  0  0
   -9.4071   14.6237  -37.5948 C   0  0  0  0  0  0  0  0  0  0  0  0
  -10.8508   14.1385  -36.1779 C   0  0  0  0  0  0  0  0  0  0  0  0
  -11.6123   15.9879  -37.8472 C   0  0  1  0  0  0  0  0  0  0  0  0
  -10.5276   15.4501  -36.9266 C   0  0  0  0  0  0  0  0  0  0  0  0
  -13.8371   15.1346  -37.9419 C   0  0  2  0  0  0  0  0  0  0  0  0
  -11.9295   14.9760  -38.9586 C   0  0  1  0  0  0  0  0  0  0  0  0
  -10.1651   13.4008  -37.2589 N   0  0  0  0  0  0  0  0  0  0  0  0
  -12.8835   14.1085  -38.3004 O   0  0  0  0  0  0  0  0  0  0  0  0
  -14.5151   16.7709  -39.2459 H   0  0  0  0  0  0  0  0  0  0  0  0
  -14.9068   15.1412  -39.8313 H   0  0  0  0  0  0  0  0  0  0  0  0
  -12.9205   14.9469  -40.8901 H   0  0  0  0  0  0  0  0  0  0  0  0
  -12.4252   16.5764  -40.3864 H   0  0  0  0  0  0  0  0  0  0  0  0
  -12.8829   15.7211  -36.0846 H   0  0  0  0  0  0  0  0  0  0  0  0
  -13.3603   17.0987  -37.0960 H   0  0  0  0  0  0  0  0  0  0  0  0
   -9.2872   14.7843  -38.6759 H   0  0  0  0  0  0  0  0  0  0  0  0
   -8.4217   14.6977  -37.1199 H   0  0  0  0  0  0  0  0  0  0  0  0
  -10.3903   14.0369  -35.1883 H   0  0  0  0  0  0  0  0  0  0  0  0
  -11.9209   13.9009  -36.0926 H   0  0  0  0  0  0  0  0  0  0  0  0
  -11.2999   16.9560  -38.2536 H   0  0  0  0  0  0  0  0  0  0  0  0
  -10.1475   16.2355  -36.2698 H   0  0  0  0  0  0  0  0  0  0  0  0
  -14.7028   14.7350  -37.4092 H   0  0  0  0  0  0  0  0  0  0  0  0
  -11.0723   14.4217  -39.3484 H   0  0  0  0  0  0  0  0  0  0  0  0
  -10.7778   13.0580  -38.0004 H   0  0  0  0  0  0  0  0  0  0  0  0
  1  2  1  0  0  0  0
  1  8  1  0  0  0  0
  2  9  1  0  0  0  0
  3  6  1  0  0  0  0
  3  8  1  0  0  0  0
  4  7  1  0  0  0  0
  4 10  1  0  0  0  0
  5  7  1  0  0  0  0
  5 10  1  0  0  0  0
  6  7  1  0  0  0  0
  6  9  1  0  0  0  0
  8 11  1  0  0  0  0
  9 11  1  0  0  0  0
  1 12  1  0  0  0  0
  1 13  1  0  0  0  0
  2 14  1  0  0  0  0
  2 15  1  0  0  0  0
  3 16  1  0  0  0  0
  3 17  1  0  0  0  0
  4 18  1  0  0  0  0
  4 19  1  0  0  0  0
  5 20  1  0  0  0  0
  5 21  1  0  0  0  0
  6 22  1  0  0  0  0
  7 23  1  0  0  0  0
  8 24  1  0  0  0  0
  9 25  1  0  0  0  0
 10 26  1  0  0  0  0
M  END
> <id>
EN300-1755450

> <smiles>
C1NCC1C2CC3CCC2O3

> <IUPAC Name>
3-{7-oxabicyclo[2.2.1]heptan-2-yl}azetidine

> <CAS>
2229443-40-5

> <URL>
https://www.enaminestore.com/catalog/EN300-1755450

> <ROCS_ShapeQuery>
__x1247relevant_x1083L0AP1_x1305L0BP1_

> <ROCS_TanimotoCombo>
0.712 

> <ROCS_ShapeTanimoto>
0.452 

> <ROCS_ColorTanimoto>
0.260 

> <ROCS_RefTversky>
0.377 

> <ROCS_RefColorTversky>
0.279 

> <ROCS_RefTverskyCombo>
0.656 

> <ROCS_FitTversky>
1.778 

> <ROCS_FitColorTversky>
0.791 

> <ROCS_FitTverskyCombo>
2.569 

> <ROCS_ColorScore>
-9.121

> <ROCS_Overlap>
1107.127

> <ROCS_Rank>
454                 

$$$$
untitled-dbase-46488_5
  -OEChem-06232314393D

 38 40  0     1  0  0  0  0  0999 V2000
   -8.9376   15.5045  -36.8894 C   0  0  0  0  0  0  0  0  0  0  0  0
   -8.9410   13.9799  -36.8590 C   0  0  0  0  0  0  0  0  0  0  0  0
  -13.3878   16.7231  -38.1881 C   0  0  0  0  0  0  0  0  0  0  0  0
  -12.5849   16.4920  -39.4665 C   0  0  0  0  0  0  0  0  0  0  0  0
  -10.4046   15.9429  -36.9218 C   0  0  0  0  0  0  0  0  0  0  0  0
  -12.6849   14.7555  -36.7063 C   0  0  0  0  0  0  0  0  0  0  0  0
  -11.2407   14.4103  -38.7993 C   0  0  0  0  0  0  0  0  0  0  0  0
  -10.3837   13.5832  -36.5289 C   0  0  2  0  0  0  0  0  0  0  0  0
  -13.7292   15.3169  -37.6903 C   0  0  2  0  0  0  0  0  0  0  0  0
  -12.4588   14.9724  -39.5658 C   0  0  1  0  0  0  0  0  0  0  0  0
  -11.2342   14.6774  -37.2545 C   0  0  0  0  0  0  0  0  0  0  0  0
  -14.8614   14.5365  -39.7091 C   0  0  0  0  0  0  0  0  0  0  0  0
  -10.5734   13.5084  -35.0075 C   0  0  0  0  0  0  0  0  0  0  0  0
  -13.6580   14.4592  -38.8850 N   0  0  0  0  0  0  0  0  0  0  0  0
   -9.6900   12.5300  -34.4900 O   0  0  0  0  0  0  0  0  0  0  0  0
   -8.4315   15.8992  -35.9998 H   0  0  0  0  0  0  0  0  0  0  0  0
   -8.3996   15.8883  -37.7641 H   0  0  0  0  0  0  0  0  0  0  0  0
   -8.6161   13.5562  -37.8152 H   0  0  0  0  0  0  0  0  0  0  0  0
   -8.2444   13.6244  -36.0901 H   0  0  0  0  0  0  0  0  0  0  0  0
  -12.8509   17.3231  -37.4491 H   0  0  0  0  0  0  0  0  0  0  0  0
  -14.3053   17.2728  -38.4328 H   0  0  0  0  0  0  0  0  0  0  0  0
  -13.1454   16.8889  -40.3211 H   0  0  0  0  0  0  0  0  0  0  0  0
  -11.6174   17.0011  -39.4496 H   0  0  0  0  0  0  0  0  0  0  0  0
  -10.6741   16.4297  -35.9824 H   0  0  0  0  0  0  0  0  0  0  0  0
  -10.5212   16.6990  -37.7107 H   0  0  0  0  0  0  0  0  0  0  0  0
  -12.7212   15.3417  -35.7777 H   0  0  0  0  0  0  0  0  0  0  0  0
  -13.0341   13.7521  -36.4322 H   0  0  0  0  0  0  0  0  0  0  0  0
  -11.2193   13.3264  -38.9744 H   0  0  0  0  0  0  0  0  0  0  0  0
  -10.3189   14.7960  -39.2535 H   0  0  0  0  0  0  0  0  0  0  0  0
  -10.5979   12.6262  -36.9432 H   0  0  0  0  0  0  0  0  0  0  0  0
  -14.7108   15.2891  -37.2083 H   0  0  0  0  0  0  0  0  0  0  0  0
  -12.3945   14.6427  -40.6110 H   0  0  0  0  0  0  0  0  0  0  0  0
  -14.7508   13.8778  -40.5831 H   0  0  0  0  0  0  0  0  0  0  0  0
  -15.7320   14.2172  -39.1173 H   0  0  0  0  0  0  0  0  0  0  0  0
  -15.0080   15.5728  -40.0474 H   0  0  0  0  0  0  0  0  0  0  0  0
  -11.6001   13.2261  -34.7733 H   0  0  0  0  0  0  0  0  0  0  0  0
  -10.3457   14.4740  -34.5553 H   0  0  0  0  0  0  0  0  0  0  0  0
   -9.8283   12.5011  -33.5279 H   0  0  0  0  0  0  0  0  0  0  0  0
  1  2  1  0  0  0  0
  1  5  1  0  0  0  0
  2  8  1  0  0  0  0
  3  4  1  0  0  0  0
  3  9  1  0  0  0  0
  4 10  1  0  0  0  0
  5 11  1  0  0  0  0
  6  9  1  0  0  0  0
  6 11  1  0  0  0  0
  7 10  1  0  0  0  0
  7 11  1  0  0  0  0
  8 11  1  0  0  0  0
  8 13  1  0  0  0  0
  9 14  1  0  0  0  0
 10 14  1  0  0  0  0
 12 14  1  0  0  0  0
 13 15  1  0  0  0  0
  1 16  1  0  0  0  0
  1 17  1  0  0  0  0
  2 18  1  0  0  0  0
  2 19  1  0  0  0  0
  3 20  1  0  0  0  0
  3 21  1  0  0  0  0
  4 22  1  0  0  0  0
  4 23  1  0  0  0  0
  5 24  1  0  0  0  0
  5 25  1  0  0  0  0
  6 26  1  0  0  0  0
  6 27  1  0  0  0  0
  7 28  1  0  0  0  0
  7 29  1  0  0  0  0
  8 30  1  0  0  0  0
  9 31  1  0  0  0  0
 10 32  1  0  0  0  0
 12 33  1  0  0  0  0
 12 34  1  0  0  0  0
 12 35  1  0  0  0  0
 13 36  1  0  0  0  0
 13 37  1  0  0  0  0
 15 38  1  0  0  0  0
M  END
> <id>
EN300-1461741

> <smiles>
CN1C2CCC1CC3(CCCC3CO)C2

> <IUPAC Name>
{8-methyl-8-azaspiro[bicyclo[3.2.1]octane-3,1'-cyclopentane]-2'-yl}methanol

> <CAS>
2167861-39-2

> <URL>
https://www.enaminestore.com/catalog/EN300-1461741

> <ROCS_ShapeQuery>
__x1247relevant_x1083L0AP1_x1305L0BP1_

> <ROCS_TanimotoCombo>
0.712 

> <ROCS_ShapeTanimoto>
0.508 

> <ROCS_ColorTanimoto>
0.204 

> <ROCS_RefTversky>
0.426 

> <ROCS_RefColorTversky>
0.226 

> <ROCS_RefTverskyCombo>
0.652 

> <ROCS_FitTversky>
1.613 

> <ROCS_FitColorTversky>
0.673 

> <ROCS_FitTverskyCombo>
2.285 

> <ROCS_ColorScore>
-7.384

> <ROCS_Overlap>
1253.267

> <ROCS_Rank>
455                 

$$$$
untitled-dbase-139440_5
  -OEChem-06232314393D

 34 36  0     1  0  0  0  0  0999 V2000
   -9.8372   15.0653  -36.8531 C   0  0  0  0  0  0  0  0  0  0  0  0
  -13.2549   13.7627  -39.1204 C   0  0  0  0  0  0  0  0  0  0  0  0
  -14.0976   15.3726  -37.3898 C   0  0  0  0  0  0  0  0  0  0  0  0
  -12.0576   13.9903  -36.9282 C   0  0  0  0  0  0  0  0  0  0  0  0
  -10.9982   14.8489  -39.0366 C   0  0  0  0  0  0  0  0  0  0  0  0
  -11.8416   16.4607  -37.2997 C   0  0  0  0  0  0  0  0  0  0  0  0
  -13.4368   14.0009  -37.6113 C   0  0  0  0  0  0  0  0  0  0  0  0
  -12.3734   14.8700  -39.7332 C   0  0  2  0  0  0  0  0  0  0  0  0
  -13.2206   16.4904  -37.9899 C   0  0  1  0  0  0  0  0  0  0  0  0
  -13.0158   16.2569  -39.5039 C   0  0  0  0  0  0  0  0  0  0  0  0
  -11.1785   15.0940  -37.5319 C   0  0  0  0  0  0  0  0  0  0  0  0
   -8.5950   13.9323  -35.1926 C   0  0  0  0  0  0  0  0  0  0  0  0
  -14.2800   16.3793  -40.2322 N   0  0  0  0  0  0  0  0  0  0  0  0
   -8.9183   15.8281  -37.1190 O   0  0  0  0  0  0  0  0  0  0  0  0
   -9.8204   14.0727  -35.9185 O   0  0  0  0  0  0  0  0  0  0  0  0
  -12.7880   12.7839  -39.2873 H   0  0  0  0  0  0  0  0  0  0  0  0
  -14.2326   13.7292  -39.6156 H   0  0  0  0  0  0  0  0  0  0  0  0
  -15.0986   15.3842  -37.8370 H   0  0  0  0  0  0  0  0  0  0  0  0
  -14.2357   15.5480  -36.3155 H   0  0  0  0  0  0  0  0  0  0  0  0
  -12.1745   14.1368  -35.8463 H   0  0  0  0  0  0  0  0  0  0  0  0
  -11.5851   13.0073  -37.0553 H   0  0  0  0  0  0  0  0  0  0  0  0
  -10.5067   13.8835  -39.2152 H   0  0  0  0  0  0  0  0  0  0  0  0
  -10.3428   15.6123  -39.4761 H   0  0  0  0  0  0  0  0  0  0  0  0
  -11.2084   17.2677  -37.6912 H   0  0  0  0  0  0  0  0  0  0  0  0
  -11.9592   16.6570  -36.2257 H   0  0  0  0  0  0  0  0  0  0  0  0
  -14.0665   13.2125  -37.1844 H   0  0  0  0  0  0  0  0  0  0  0  0
  -12.2382   14.6831  -40.8054 H   0  0  0  0  0  0  0  0  0  0  0  0
  -13.6920   17.4646  -37.8130 H   0  0  0  0  0  0  0  0  0  0  0  0
  -12.3416   17.0301  -39.8948 H   0  0  0  0  0  0  0  0  0  0  0  0
   -8.6880   13.1142  -34.4742 H   0  0  0  0  0  0  0  0  0  0  0  0
   -8.3706   14.8659  -34.6708 H   0  0  0  0  0  0  0  0  0  0  0  0
   -7.7893   13.7072  -35.8954 H   0  0  0  0  0  0  0  0  0  0  0  0
  -14.6410   17.2882  -40.0698 H   0  0  0  0  0  0  0  0  0  0  0  0
  -14.0931   16.2401  -41.1958 H   0  0  0  0  0  0  0  0  0  0  0  0
  1 11  1  0  0  0  0
  1 14  2  0  0  0  0
  1 15  1  0  0  0  0
  2  7  1  0  0  0  0
  2  8  1  0  0  0  0
  3  7  1  0  0  0  0
  3  9  1  0  0  0  0
  4  7  1  0  0  0  0
  4 11  1  0  0  0  0
  5  8  1  0  0  0  0
  5 11  1  0  0  0  0
  6  9  1  0  0  0  0
  6 11  1  0  0  0  0
  8 10  1  0  0  0  0
  9 10  1  0  0  0  0
 10 13  1  0  0  0  0
 12 15  1  0  0  0  0
  2 16  1  0  0  0  0
  2 17  1  0  0  0  0
  3 18  1  0  0  0  0
  3 19  1  0  0  0  0
  4 20  1  0  0  0  0
  4 21  1  0  0  0  0
  5 22  1  0  0  0  0
  5 23  1  0  0  0  0
  6 24  1  0  0  0  0
  6 25  1  0  0  0  0
  7 26  1  0  0  0  0
  8 27  1  0  0  0  0
  9 28  1  0  0  0  0
 10 29  1  0  0  0  0
 12 30  1  0  0  0  0
 12 31  1  0  0  0  0
 12 32  1  0  0  0  0
 13 33  1  0  0  0  0
 13 34  1  0  0  0  0
M  END
> <id>
EN300-10851852

> <smiles>
Cl.COC(=O)C1(CC2CC3C1)CC(C2)C3N

> <IUPAC Name>
methyl 4-aminoadamantane-1-carboxylate hydrochloride

> <CAS>
1057075-91-8

> <Purity>
95

> <URL>
https://www.enaminestore.com/catalog/EN300-10851852

> <Saltdate>
Cl

> <ROCS_ShapeQuery>
__x1247relevant_x1083L0AP1_x1305L0BP1_

> <ROCS_TanimotoCombo>
0.712 

> <ROCS_ShapeTanimoto>
0.509 

> <ROCS_ColorTanimoto>
0.202 

> <ROCS_RefTversky>
0.429 

> <ROCS_RefColorTversky>
0.223 

> <ROCS_RefTverskyCombo>
0.652 

> <ROCS_FitTversky>
1.586 

> <ROCS_FitColorTversky>
0.681 

> <ROCS_FitTverskyCombo>
2.268 

> <ROCS_ColorScore>
-7.283

> <ROCS_Overlap>
1262.503

> <ROCS_Rank>
456                 

$$$$
untitled-dbase-46207_5
  -OEChem-06232314393D

 34 36  0     1  0  0  0  0  0999 V2000
   -9.8372   15.0653  -36.8531 C   0  0  0  0  0  0  0  0  0  0  0  0
  -13.2549   13.7627  -39.1204 C   0  0  0  0  0  0  0  0  0  0  0  0
  -14.0976   15.3726  -37.3898 C   0  0  0  0  0  0  0  0  0  0  0  0
  -12.0576   13.9903  -36.9282 C   0  0  0  0  0  0  0  0  0  0  0  0
  -10.9982   14.8489  -39.0366 C   0  0  0  0  0  0  0  0  0  0  0  0
  -11.8416   16.4607  -37.2997 C   0  0  0  0  0  0  0  0  0  0  0  0
  -13.4368   14.0009  -37.6113 C   0  0  0  0  0  0  0  0  0  0  0  0
  -12.3734   14.8700  -39.7332 C   0  0  2  0  0  0  0  0  0  0  0  0
  -13.2206   16.4904  -37.9899 C   0  0  1  0  0  0  0  0  0  0  0  0
  -13.0158   16.2569  -39.5039 C   0  0  0  0  0  0  0  0  0  0  0  0
  -11.1785   15.0940  -37.5319 C   0  0  0  0  0  0  0  0  0  0  0  0
   -8.5950   13.9323  -35.1926 C   0  0  0  0  0  0  0  0  0  0  0  0
  -14.2800   16.3793  -40.2322 N   0  0  0  0  0  0  0  0  0  0  0  0
   -8.9183   15.8281  -37.1190 O   0  0  0  0  0  0  0  0  0  0  0  0
   -9.8204   14.0727  -35.9185 O   0  0  0  0  0  0  0  0  0  0  0  0
  -12.7880   12.7839  -39.2873 H   0  0  0  0  0  0  0  0  0  0  0  0
  -14.2326   13.7292  -39.6156 H   0  0  0  0  0  0  0  0  0  0  0  0
  -15.0986   15.3842  -37.8370 H   0  0  0  0  0  0  0  0  0  0  0  0
  -14.2357   15.5480  -36.3155 H   0  0  0  0  0  0  0  0  0  0  0  0
  -12.1745   14.1368  -35.8463 H   0  0  0  0  0  0  0  0  0  0  0  0
  -11.5851   13.0073  -37.0553 H   0  0  0  0  0  0  0  0  0  0  0  0
  -10.5067   13.8835  -39.2152 H   0  0  0  0  0  0  0  0  0  0  0  0
  -10.3428   15.6123  -39.4761 H   0  0  0  0  0  0  0  0  0  0  0  0
  -11.2084   17.2677  -37.6912 H   0  0  0  0  0  0  0  0  0  0  0  0
  -11.9592   16.6570  -36.2257 H   0  0  0  0  0  0  0  0  0  0  0  0
  -14.0665   13.2125  -37.1844 H   0  0  0  0  0  0  0  0  0  0  0  0
  -12.2382   14.6831  -40.8054 H   0  0  0  0  0  0  0  0  0  0  0  0
  -13.6920   17.4646  -37.8130 H   0  0  0  0  0  0  0  0  0  0  0  0
  -12.3416   17.0301  -39.8948 H   0  0  0  0  0  0  0  0  0  0  0  0
   -8.6880   13.1142  -34.4742 H   0  0  0  0  0  0  0  0  0  0  0  0
   -8.3706   14.8659  -34.6708 H   0  0  0  0  0  0  0  0  0  0  0  0
   -7.7893   13.7072  -35.8954 H   0  0  0  0  0  0  0  0  0  0  0  0
  -14.6410   17.2882  -40.0698 H   0  0  0  0  0  0  0  0  0  0  0  0
  -14.0931   16.2401  -41.1958 H   0  0  0  0  0  0  0  0  0  0  0  0
  1 11  1  0  0  0  0
  1 14  2  0  0  0  0
  1 15  1  0  0  0  0
  2  7  1  0  0  0  0
  2  8  1  0  0  0  0
  3  7  1  0  0  0  0
  3  9  1  0  0  0  0
  4  7  1  0  0  0  0
  4 11  1  0  0  0  0
  5  8  1  0  0  0  0
  5 11  1  0  0  0  0
  6  9  1  0  0  0  0
  6 11  1  0  0  0  0
  8 10  1  0  0  0  0
  9 10  1  0  0  0  0
 10 13  1  0  0  0  0
 12 15  1  0  0  0  0
  2 16  1  0  0  0  0
  2 17  1  0  0  0  0
  3 18  1  0  0  0  0
  3 19  1  0  0  0  0
  4 20  1  0  0  0  0
  4 21  1  0  0  0  0
  5 22  1  0  0  0  0
  5 23  1  0  0  0  0
  6 24  1  0  0  0  0
  6 25  1  0  0  0  0
  7 26  1  0  0  0  0
  8 27  1  0  0  0  0
  9 28  1  0  0  0  0
 10 29  1  0  0  0  0
 12 30  1  0  0  0  0
 12 31  1  0  0  0  0
 12 32  1  0  0  0  0
 13 33  1  0  0  0  0
 13 34  1  0  0  0  0
M  END
> <id>
EN300-1069053

> <smiles>
COC(=O)C1(CC2CC3C1)CC(C2)C3N

> <IUPAC Name>
methyl 4-aminoadamantane-1-carboxylate

> <CAS>
865980-54-7

> <URL>
https://www.enaminestore.com/catalog/EN300-1069053

> <ROCS_ShapeQuery>
__x1247relevant_x1083L0AP1_x1305L0BP1_

> <ROCS_TanimotoCombo>
0.712 

> <ROCS_ShapeTanimoto>
0.509 

> <ROCS_ColorTanimoto>
0.202 

> <ROCS_RefTversky>
0.429 

> <ROCS_RefColorTversky>
0.223 

> <ROCS_RefTverskyCombo>
0.652 

> <ROCS_FitTversky>
1.586 

> <ROCS_FitColorTversky>
0.681 

> <ROCS_FitTverskyCombo>
2.268 

> <ROCS_ColorScore>
-7.283

> <ROCS_Overlap>
1262.503

> <ROCS_Rank>
457                 

$$$$
untitled-dbase-109319_0
  -OEChem-06232314393D

 29 30  0     1  0  0  0  0  0999 V2000
  -13.4072   14.7537  -39.4679 C   0  0  0  0  0  0  0  0  0  0  0  0
  -13.5264   14.1414  -38.0727 C   0  0  0  0  0  0  0  0  0  0  0  0
  -11.0214   15.4215  -39.0306 C   0  0  0  0  0  0  0  0  0  0  0  0
  -12.4560   15.9230  -39.2216 C   0  0  2  0  0  0  0  0  0  0  0  0
  -12.5666   15.0095  -37.2555 C   0  0  1  0  0  0  0  0  0  0  0  0
  -11.0782   14.8039  -37.6160 C   0  0  2  0  0  0  0  0  0  0  0  0
  -10.6307   17.0375  -36.5577 C   0  0  0  0  0  0  0  0  0  0  0  0
   -8.7182   15.4961  -37.0814 C   0  0  0  0  0  0  0  0  0  0  0  0
  -10.1778   15.5846  -36.6476 C   0  0  0  0  0  0  0  0  0  0  0  0
  -10.6430   13.4121  -37.6018 N   0  0  0  0  0  0  0  0  0  0  0  0
  -12.8152   16.3013  -37.8729 O   0  0  0  0  0  0  0  0  0  0  0  0
  -10.3087   15.0063  -35.3511 O   0  0  0  0  0  0  0  0  0  0  0  0
  -13.0328   14.0487  -40.2160 H   0  0  0  0  0  0  0  0  0  0  0  0
  -14.3891   15.1141  -39.7946 H   0  0  0  0  0  0  0  0  0  0  0  0
  -14.5527   14.2755  -37.7100 H   0  0  0  0  0  0  0  0  0  0  0  0
  -13.3026   13.0724  -38.0461 H   0  0  0  0  0  0  0  0  0  0  0  0
  -10.7309   14.7171  -39.8180 H   0  0  0  0  0  0  0  0  0  0  0  0
  -10.3185   16.2622  -39.0650 H   0  0  0  0  0  0  0  0  0  0  0  0
  -12.5570   16.7483  -39.9298 H   0  0  0  0  0  0  0  0  0  0  0  0
  -12.7861   15.0223  -36.1844 H   0  0  0  0  0  0  0  0  0  0  0  0
   -9.9907   17.5987  -35.8674 H   0  0  0  0  0  0  0  0  0  0  0  0
  -11.6496   17.1074  -36.1599 H   0  0  0  0  0  0  0  0  0  0  0  0
  -10.6051   17.5322  -37.5340 H   0  0  0  0  0  0  0  0  0  0  0  0
   -8.0691   16.0513  -36.3946 H   0  0  0  0  0  0  0  0  0  0  0  0
   -8.3698   14.4590  -37.1236 H   0  0  0  0  0  0  0  0  0  0  0  0
   -8.5822   15.9496  -38.0699 H   0  0  0  0  0  0  0  0  0  0  0  0
  -11.2408   12.8915  -38.2002 H   0  0  0  0  0  0  0  0  0  0  0  0
   -9.7052   13.3750  -37.9268 H   0  0  0  0  0  0  0  0  0  0  0  0
  -10.0262   14.0822  -35.4316 H   0  0  0  0  0  0  0  0  0  0  0  0
  1  2  1  0  0  0  0
  1  4  1  0  0  0  0
  2  5  1  0  0  0  0
  3  4  1  0  0  0  0
  3  6  1  0  0  0  0
  4 11  1  0  0  0  0
  5  6  1  0  0  0  0
  5 11  1  0  0  0  0
  6  9  1  0  0  0  0
  6 10  1  0  0  0  0
  7  9  1  0  0  0  0
  8  9  1  0  0  0  0
  9 12  1  0  0  0  0
  1 13  1  0  0  0  0
  1 14  1  0  0  0  0
  2 15  1  0  0  0  0
  2 16  1  0  0  0  0
  3 17  1  0  0  0  0
  3 18  1  0  0  0  0
  4 19  1  0  0  0  0
  5 20  1  0  0  0  0
  7 21  1  0  0  0  0
  7 22  1  0  0  0  0
  7 23  1  0  0  0  0
  8 24  1  0  0  0  0
  8 25  1  0  0  0  0
  8 26  1  0  0  0  0
 10 27  1  0  0  0  0
 10 28  1  0  0  0  0
 12 29  1  0  0  0  0
M  END
> <id>
EN300-1647162

> <smiles>
CC(C)(O)C1(N)CC2CCC1O2

> <IUPAC Name>
2-{2-amino-7-oxabicyclo[2.2.1]heptan-2-yl}propan-2-ol

> <CAS>
2171698-45-4

> <URL>
https://www.enaminestore.com/catalog/EN300-1647162

> <ROCS_ShapeQuery>
__x1247relevant_x1083L0AP1_x1305L0BP1_

> <ROCS_TanimotoCombo>
0.711 

> <ROCS_ShapeTanimoto>
0.462 

> <ROCS_ColorTanimoto>
0.249 

> <ROCS_RefTversky>
0.388 

> <ROCS_RefColorTversky>
0.281 

> <ROCS_RefTverskyCombo>
0.669 

> <ROCS_FitTversky>
1.716 

> <ROCS_FitColorTversky>
0.687 

> <ROCS_FitTverskyCombo>
2.403 

> <ROCS_ColorScore>
-9.213

> <ROCS_Overlap>
1138.567

> <ROCS_Rank>
458                 

$$$$
untitled-dbase-44521_7
  -OEChem-06232314393D

 31 33  0     1  0  0  0  0  0999 V2000
   -9.9192   14.7853  -37.2130 C   0  0  0  0  0  0  0  0  0  0  0  0
  -13.7186   15.8714  -37.0410 C   0  0  0  0  0  0  0  0  0  0  0  0
  -12.9010   14.6675  -36.5440 C   0  0  0  0  0  0  0  0  0  0  0  0
  -12.6934   16.5652  -39.2705 C   0  0  0  0  0  0  0  0  0  0  0  0
  -10.5783   15.0658  -39.6215 C   0  0  0  0  0  0  0  0  0  0  0  0
  -11.2846   16.1789  -38.8950 C   0  0  2  0  0  0  0  0  0  0  0  0
  -13.7658   15.7049  -38.5695 C   0  0  1  0  0  0  0  0  0  0  0  0
  -12.3013   14.0667  -37.8310 C   0  0  2  0  0  0  0  0  0  0  0  0
  -11.0381   14.8528  -38.1904 C   0  0  2  0  0  0  0  0  0  0  0  0
  -13.5505   13.6721  -39.9772 C   0  0  0  0  0  0  0  0  0  0  0  0
   -8.9081   13.3759  -35.6082 C   0  0  0  0  0  0  0  0  0  0  0  0
  -13.4786   14.2786  -38.6714 N   0  0  2  0  0  0  0  0  0  0  0  0
   -9.1182   15.6909  -37.0248 O   0  0  0  0  0  0  0  0  0  0  0  0
   -9.9379   13.5771  -36.5815 O   0  0  0  0  0  0  0  0  0  0  0  0
  -14.7239   15.8255  -36.6132 H   0  0  0  0  0  0  0  0  0  0  0  0
  -13.2622   16.8148  -36.7340 H   0  0  0  0  0  0  0  0  0  0  0  0
  -12.1529   14.9753  -35.8110 H   0  0  0  0  0  0  0  0  0  0  0  0
  -13.5679   13.9489  -36.0581 H   0  0  0  0  0  0  0  0  0  0  0  0
  -12.8551   17.6225  -39.0289 H   0  0  0  0  0  0  0  0  0  0  0  0
  -12.8029   16.4725  -40.3585 H   0  0  0  0  0  0  0  0  0  0  0  0
  -11.0890   14.5504  -40.4269 H   0  0  0  0  0  0  0  0  0  0  0  0
   -9.5165   15.1916  -39.8118 H   0  0  0  0  0  0  0  0  0  0  0  0
  -10.6839   17.0414  -38.6128 H   0  0  0  0  0  0  0  0  0  0  0  0
  -14.7589   15.9793  -38.9418 H   0  0  0  0  0  0  0  0  0  0  0  0
  -12.0660   13.0076  -37.6755 H   0  0  0  0  0  0  0  0  0  0  0  0
  -13.3110   12.6014  -39.8984 H   0  0  0  0  0  0  0  0  0  0  0  0
  -14.5665   13.7917  -40.3814 H   0  0  0  0  0  0  0  0  0  0  0  0
  -12.8289   14.1607  -40.6485 H   0  0  0  0  0  0  0  0  0  0  0  0
   -9.0136   12.3827  -35.1649 H   0  0  0  0  0  0  0  0  0  0  0  0
   -8.9835   14.1426  -34.8330 H   0  0  0  0  0  0  0  0  0  0  0  0
   -7.9351   13.4517  -36.0994 H   0  0  0  0  0  0  0  0  0  0  0  0
  1  9  1  0  0  0  0
  1 13  2  0  0  0  0
  1 14  1  0  0  0  0
  2  3  1  0  0  0  0
  2  7  1  0  0  0  0
  3  8  1  0  0  0  0
  4  6  1  0  0  0  0
  4  7  1  0  0  0  0
  5  6  1  0  0  0  0
  5  9  1  0  0  0  0
  6  9  1  0  0  0  0
  7 12  1  0  0  0  0
  8  9  1  0  0  0  0
  8 12  1  0  0  0  0
 10 12  1  0  0  0  0
 11 14  1  0  0  0  0
  2 15  1  0  0  0  0
  2 16  1  0  0  0  0
  3 17  1  0  0  0  0
  3 18  1  0  0  0  0
  4 19  1  0  0  0  0
  4 20  1  0  0  0  0
  5 21  1  0  0  0  0
  5 22  1  0  0  0  0
  6 23  1  0  0  0  0
  7 24  1  0  0  0  0
  8 25  1  0  0  0  0
 10 26  1  0  0  0  0
 10 27  1  0  0  0  0
 10 28  1  0  0  0  0
 11 29  1  0  0  0  0
 11 30  1  0  0  0  0
 11 31  1  0  0  0  0
M  END
> <id>
EN300-1276224

> <smiles>
COC(=O)C12CC2CC3CCC1N3C

> <IUPAC Name>
methyl 9-methyl-9-azatricyclo[4.2.1.0,2,4]nonane-2-carboxylate

> <CAS>
2172525-97-0

> <URL>
https://www.enaminestore.com/catalog/EN300-1276224

> <ROCS_ShapeQuery>
__x1247relevant_x1083L0AP1_x1305L0BP1_

> <ROCS_TanimotoCombo>
0.711 

> <ROCS_ShapeTanimoto>
0.499 

> <ROCS_ColorTanimoto>
0.213 

> <ROCS_RefTversky>
0.418 

> <ROCS_RefColorTversky>
0.245 

> <ROCS_RefTverskyCombo>
0.662 

> <ROCS_FitTversky>
1.635 

> <ROCS_FitColorTversky>
0.619 

> <ROCS_FitTverskyCombo>
2.254 

> <ROCS_ColorScore>
-8.016

> <ROCS_Overlap>
1229.209

> <ROCS_Rank>
459                 

$$$$
untitled-dbase-135091_28
  -OEChem-06232314393D

 27 28  0     1  0  0  0  0  0999 V2000
  -13.2707   14.6268  -37.2491 C   0  0  0  0  0  0  0  0  0  0  0  0
  -14.2469   15.1165  -38.1167 C   0  0  0  0  0  0  0  0  0  0  0  0
  -11.5458   15.5200  -38.6857 C   0  0  0  0  0  0  0  0  0  0  0  0
  -11.9201   14.8286  -37.5336 C   0  0  0  0  0  0  0  0  0  0  0  0
  -13.8726   15.8079  -39.2689 C   0  0  0  0  0  0  0  0  0  0  0  0
  -12.5220   16.0097  -39.5534 C   0  0  0  0  0  0  0  0  0  0  0  0
   -9.0031   13.7559  -38.0777 C   0  0  0  0  0  0  0  0  0  0  0  0
   -8.1363   14.7597  -37.3329 C   0  0  0  0  0  0  0  0  0  0  0  0
   -9.9378   15.3492  -35.9316 C   0  0  0  0  0  0  0  0  0  0  0  0
  -10.8528   14.2956  -36.5838 C   0  0  2  0  0  0  0  0  0  0  0  0
  -10.0361   13.2306  -37.1892 N   0  0  0  0  0  0  0  0  0  0  0  0
   -8.9379   15.8280  -36.8336 O   0  0  0  0  0  0  0  0  0  0  0  0
  -14.8358   16.2810  -40.1082 O   0  0  0  0  0  0  0  0  0  0  0  0
  -12.1442   16.6827  -40.6759 O   0  0  0  0  0  0  0  0  0  0  0  0
  -13.5716   14.0907  -36.3530 H   0  0  0  0  0  0  0  0  0  0  0  0
  -15.2971   14.9553  -37.8893 H   0  0  0  0  0  0  0  0  0  0  0  0
  -10.4937   15.6792  -38.9095 H   0  0  0  0  0  0  0  0  0  0  0  0
   -9.4708   14.2308  -38.9445 H   0  0  0  0  0  0  0  0  0  0  0  0
   -8.3905   12.9260  -38.4454 H   0  0  0  0  0  0  0  0  0  0  0  0
   -7.6569   14.2747  -36.4762 H   0  0  0  0  0  0  0  0  0  0  0  0
   -7.3409   15.1641  -37.9714 H   0  0  0  0  0  0  0  0  0  0  0  0
  -10.5130   16.2084  -35.5391 H   0  0  0  0  0  0  0  0  0  0  0  0
   -9.4146   14.9116  -35.0645 H   0  0  0  0  0  0  0  0  0  0  0  0
  -11.4353   13.7835  -35.7402 H   0  0  0  0  0  0  0  0  0  0  0  0
  -10.6512   12.6141  -37.7374 H   0  0  0  0  0  0  0  0  0  0  0  0
  -15.7162   16.0576  -39.7677 H   0  0  0  0  0  0  0  0  0  0  0  0
  -12.9257   16.9613  -41.1787 H   0  0  0  0  0  0  0  0  0  0  0  0
  1  2  1  0  0  0  0
  1  4  2  0  0  0  0
  2  5  2  0  0  0  0
  3  4  1  0  0  0  0
  3  6  2  0  0  0  0
  4 10  1  0  0  0  0
  5  6  1  0  0  0  0
  5 13  1  0  0  0  0
  6 14  1  0  0  0  0
  7  8  1  0  0  0  0
  7 11  1  0  0  0  0
  8 12  1  0  0  0  0
  9 10  1  0  0  0  0
  9 12  1  0  0  0  0
 10 11  1  0  0  0  0
  1 15  1  0  0  0  0
  2 16  1  0  0  0  0
  3 17  1  0  0  0  0
  7 18  1  0  0  0  0
  7 19  1  0  0  0  0
  8 20  1  0  0  0  0
  8 21  1  0  0  0  0
  9 22  1  0  0  0  0
  9 23  1  0  0  0  0
 10 24  1  0  0  0  0
 11 25  1  0  0  0  0
 13 26  1  0  0  0  0
 14 27  1  0  0  0  0
M  END
> <id>
EN300-1839504

> <smiles>
OC=1C=CC(=CC1O)C2COCCN2

> <MDLNUMBER>
MFCD18697399

> <IUPAC Name>
4-(morpholin-3-yl)benzene-1,2-diol

> <CAS>
959081-13-1

> <URL>
https://www.enaminestore.com/catalog/EN300-1839504

> <ROCS_ShapeQuery>
__x1247relevant_x1083L0AP1_x1305L0BP1_

> <ROCS_TanimotoCombo>
0.711 

> <ROCS_ShapeTanimoto>
0.499 

> <ROCS_ColorTanimoto>
0.213 

> <ROCS_RefTversky>
0.417 

> <ROCS_RefColorTversky>
0.230 

> <ROCS_RefTverskyCombo>
0.647 

> <ROCS_FitTversky>
1.654 

> <ROCS_FitColorTversky>
0.733 

> <ROCS_FitTverskyCombo>
2.387 

> <ROCS_ColorScore>
-7.511

> <ROCS_Overlap>
1225.628

> <ROCS_Rank>
460                 

$$$$
untitled-dbase-100786_786
  -OEChem-06232314393D

 51 52  0     1  0  0  0  0  0999 V2000
  -14.4921   15.1015  -40.1855 C   0  0  0  0  0  0  0  0  0  0  0  0
   -9.4588   14.3250  -36.9087 C   0  0  0  0  0  0  0  0  0  0  0  0
  -12.4528   15.8113  -36.7350 C   0  0  0  0  0  0  0  0  0  0  0  0
  -12.6074   16.4619  -39.1551 C   0  0  0  0  0  0  0  0  0  0  0  0
  -11.6411   16.0076  -38.0398 C   0  0  2  0  0  0  0  0  0  0  0  0
  -12.8652   14.1988  -38.4785 C   0  0  1  0  0  0  0  0  0  0  0  0
  -11.3705   14.5612  -38.4868 C   0  0  2  0  0  0  0  0  0  0  0  0
  -13.3244   14.5755  -37.0544 C   0  0  1  0  0  0  0  0  0  0  0  0
  -15.7545   13.8483  -42.4214 C   0  0  0  0  0  0  0  0  0  0  0  0
  -16.5330   12.1167  -40.7768 C   0  0  0  0  0  0  0  0  0  0  0  0
  -17.2720   14.5038  -40.5235 C   0  0  0  0  0  0  0  0  0  0  0  0
  -10.0605   14.4165  -34.3641 C   0  0  0  0  0  0  0  0  0  0  0  0
   -8.8832   12.2195  -34.0538 C   0  0  0  0  0  0  0  0  0  0  0  0
   -7.5458   14.3176  -34.3963 C   0  0  0  0  0  0  0  0  0  0  0  0
  -16.1387   13.5798  -40.9671 C   0  0  0  0  0  0  0  0  0  0  0  0
   -8.8387   13.5811  -34.7438 C   0  0  0  0  0  0  0  0  0  0  0  0
  -13.3979   15.2465  -39.3597 N   0  0  0  0  0  0  0  0  0  0  0  0
  -10.5353   13.8002  -37.6057 N   0  0  0  0  0  0  0  0  0  0  0  0
  -14.9602   16.0016  -40.8783 O   0  0  0  0  0  0  0  0  0  0  0  0
   -9.0856   15.4926  -36.9541 O   0  0  0  0  0  0  0  0  0  0  0  0
  -13.0630   13.5132  -36.1516 O   0  0  0  0  0  0  0  0  0  0  0  0
  -14.9965   13.8298  -40.1404 O   0  0  0  0  0  0  0  0  0  0  0  0
   -8.8661   13.3499  -36.1568 O   0  0  0  0  0  0  0  0  0  0  0  0
  -11.7927   15.6320  -35.8791 H   0  0  0  0  0  0  0  0  0  0  0  0
  -13.0684   16.6902  -36.5168 H   0  0  0  0  0  0  0  0  0  0  0  0
  -13.2545   17.2970  -38.8712 H   0  0  0  0  0  0  0  0  0  0  0  0
  -12.0863   16.6966  -40.0890 H   0  0  0  0  0  0  0  0  0  0  0  0
  -10.7640   16.6487  -37.9319 H   0  0  0  0  0  0  0  0  0  0  0  0
  -13.1169   13.1867  -38.8030 H   0  0  0  0  0  0  0  0  0  0  0  0
  -10.9298   14.5023  -39.4893 H   0  0  0  0  0  0  0  0  0  0  0  0
  -14.3947   14.8053  -37.0066 H   0  0  0  0  0  0  0  0  0  0  0  0
  -15.4708   14.8974  -42.5622 H   0  0  0  0  0  0  0  0  0  0  0  0
  -14.9196   13.2164  -42.7413 H   0  0  0  0  0  0  0  0  0  0  0  0
  -16.6032   13.6651  -43.0903 H   0  0  0  0  0  0  0  0  0  0  0  0
  -16.8095   11.9196  -39.7347 H   0  0  0  0  0  0  0  0  0  0  0  0
  -15.6910   11.4529  -41.0036 H   0  0  0  0  0  0  0  0  0  0  0  0
  -17.3760   11.8388  -41.4176 H   0  0  0  0  0  0  0  0  0  0  0  0
  -17.5478   14.3114  -39.4803 H   0  0  0  0  0  0  0  0  0  0  0  0
  -16.9931   15.5582  -40.6183 H   0  0  0  0  0  0  0  0  0  0  0  0
  -18.1746   14.3273  -41.1195 H   0  0  0  0  0  0  0  0  0  0  0  0
  -10.0323   15.3947  -34.8573 H   0  0  0  0  0  0  0  0  0  0  0  0
  -10.9938   13.9147  -34.6399 H   0  0  0  0  0  0  0  0  0  0  0  0
  -10.0794   14.6142  -33.2862 H   0  0  0  0  0  0  0  0  0  0  0  0
   -8.0084   11.6167  -34.3234 H   0  0  0  0  0  0  0  0  0  0  0  0
   -9.7622   11.6482  -34.3739 H   0  0  0  0  0  0  0  0  0  0  0  0
   -8.9128   12.3195  -32.9640 H   0  0  0  0  0  0  0  0  0  0  0  0
   -6.6693   13.7186  -34.6686 H   0  0  0  0  0  0  0  0  0  0  0  0
   -7.4795   15.2812  -34.9118 H   0  0  0  0  0  0  0  0  0  0  0  0
   -7.4762   14.4946  -33.3169 H   0  0  0  0  0  0  0  0  0  0  0  0
  -10.7466   12.8088  -37.4838 H   0  0  0  0  0  0  0  0  0  0  0  0
  -13.2696   13.8417  -35.2608 H   0  0  0  0  0  0  0  0  0  0  0  0
  1 17  1  0  0  0  0
  1 19  2  0  0  0  0
  1 22  1  0  0  0  0
  2 18  1  0  0  0  0
  2 20  2  0  0  0  0
  2 23  1  0  0  0  0
  3  5  1  6  0  0  0
  3  8  1  0  0  0  0
  4  5  1  0  0  0  0
  4 17  1  0  0  0  0
  5  7  1  0  0  0  0
  6  7  1  0  0  0  0
  6  8  1  0  0  0  0
  6 17  1  6  0  0  0
  7 18  1  6  0  0  0
  8 21  1  1  0  0  0
  9 15  1  0  0  0  0
 10 15  1  0  0  0  0
 11 15  1  0  0  0  0
 12 16  1  0  0  0  0
 13 16  1  0  0  0  0
 14 16  1  0  0  0  0
 15 22  1  0  0  0  0
 16 23  1  0  0  0  0
  3 24  1  0  0  0  0
  3 25  1  0  0  0  0
  4 26  1  0  0  0  0
  4 27  1  0  0  0  0
  5 28  1  0  0  0  0
  6 29  1  0  0  0  0
  7 30  1  0  0  0  0
  8 31  1  0  0  0  0
  9 32  1  0  0  0  0
  9 33  1  0  0  0  0
  9 34  1  0  0  0  0
 10 35  1  0  0  0  0
 10 36  1  0  0  0  0
 10 37  1  0  0  0  0
 11 38  1  0  0  0  0
 11 39  1  0  0  0  0
 11 40  1  0  0  0  0
 12 41  1  0  0  0  0
 12 42  1  0  0  0  0
 12 43  1  0  0  0  0
 13 44  1  0  0  0  0
 13 45  1  0  0  0  0
 13 46  1  0  0  0  0
 14 47  1  0  0  0  0
 14 48  1  0  0  0  0
 14 49  1  0  0  0  0
 18 50  1  0  0  0  0
 21 51  1  0  0  0  0
M  END
> <id>
EN300-37100463

> <smiles>
CC(C)(C)OC(=O)N[C@@H]1[C@@H]2C[C@H](O)[C@H]1N(C2)C(=O)OC(C)(C)C |&1:8,9,11,13,r|

> <IUPAC Name>
rac-tert-butyl (1R,4S,6R,7S)-7-{[(tert-butoxy)carbonyl]amino}-6-hydroxy-2-azabicyclo[2.2.1]heptane-2-carboxylate

> <URL>
https://www.enaminestore.com/catalog/EN300-37100463

> <ROCS_ShapeQuery>
__x1247relevant_x1083L0AP1_x1305L0BP1_

> <ROCS_TanimotoCombo>
0.711 

> <ROCS_ShapeTanimoto>
0.512 

> <ROCS_ColorTanimoto>
0.200 

> <ROCS_RefTversky>
0.467 

> <ROCS_RefColorTversky>
0.239 

> <ROCS_RefTverskyCombo>
0.707 

> <ROCS_FitTversky>
1.228 

> <ROCS_FitColorTversky>
0.546 

> <ROCS_FitTverskyCombo>
1.774 

> <ROCS_ColorScore>
-7.854

> <ROCS_Overlap>
1384.341

> <ROCS_Rank>
461                 

$$$$
untitled-dbase-151100_31
  -OEChem-06232314393D

 26 27  0     1  0  0  0  0  0999 V2000
  -13.1237   16.6818  -40.1141 C   0  0  0  0  0  0  0  0  0  0  0  0
  -10.3795   14.5196  -36.6029 C   0  0  0  0  0  0  0  0  0  0  0  0
  -13.8499   14.2126  -38.6559 C   0  0  0  0  0  0  0  0  0  0  0  0
  -12.8234   15.2606  -36.6308 C   0  0  0  0  0  0  0  0  0  0  0  0
  -12.6532   16.3051  -38.7444 C   0  0  1  0  0  0  0  0  0  0  0  0
  -13.6761   15.5446  -37.8842 C   0  0  1  0  0  0  0  0  0  0  0  0
  -11.6379   15.1628  -38.6875 C   0  0  2  0  0  0  0  0  0  0  0  0
  -12.4456   13.9746  -39.2390 C   0  0  1  0  0  0  0  0  0  0  0  0
   -9.4708   13.6612  -37.4448 C   0  0  0  0  0  0  0  0  0  0  0  0
  -11.5214   14.9623  -37.2352 N   0  0  0  0  0  0  0  0  0  0  0  0
  -12.4258   17.1841  -40.9824 O   0  0  0  0  0  0  0  0  0  0  0  0
  -10.0862   14.7876  -35.4373 O   0  0  0  0  0  0  0  0  0  0  0  0
  -14.4392   16.3919  -40.2650 O   0  0  0  0  0  0  0  0  0  0  0  0
  -11.9347   12.8001  -38.8032 F   0  0  0  0  0  0  0  0  0  0  0  0
  -14.1799   13.3918  -38.0121 H   0  0  0  0  0  0  0  0  0  0  0  0
  -14.5787   14.3351  -39.4647 H   0  0  0  0  0  0  0  0  0  0  0  0
  -12.7172   16.1444  -35.9934 H   0  0  0  0  0  0  0  0  0  0  0  0
  -13.1783   14.4134  -36.0375 H   0  0  0  0  0  0  0  0  0  0  0  0
  -12.2872   17.2166  -38.2564 H   0  0  0  0  0  0  0  0  0  0  0  0
  -14.6154   16.0627  -37.6815 H   0  0  0  0  0  0  0  0  0  0  0  0
  -10.6733   15.3156  -39.1756 H   0  0  0  0  0  0  0  0  0  0  0  0
  -12.4648   13.9562  -40.3333 H   0  0  0  0  0  0  0  0  0  0  0  0
   -8.7569   14.2966  -37.9589 H   0  0  0  0  0  0  0  0  0  0  0  0
  -10.0673   13.1138  -38.1682 H   0  0  0  0  0  0  0  0  0  0  0  0
   -8.9473   12.9602  -36.8022 H   0  0  0  0  0  0  0  0  0  0  0  0
  -14.7676   16.6336  -41.1572 H   0  0  0  0  0  0  0  0  0  0  0  0
  1  5  1  6  0  0  0
  1 11  2  0  0  0  0
  1 13  1  0  0  0  0
  2  9  1  0  0  0  0
  2 10  1  0  0  0  0
  2 12  2  0  0  0  0
  3  6  1  0  0  0  0
  3  8  1  0  0  0  0
  4  6  1  1  0  0  0
  4 10  1  0  0  0  0
  5  6  1  0  0  0  0
  5  7  1  0  0  0  0
  7  8  1  0  0  0  0
  7 10  1  1  0  0  0
  8 14  1  1  0  0  0
  3 15  1  0  0  0  0
  3 16  1  0  0  0  0
  4 17  1  0  0  0  0
  4 18  1  0  0  0  0
  5 19  1  0  0  0  0
  6 20  1  0  0  0  0
  7 21  1  0  0  0  0
  8 22  1  0  0  0  0
  9 23  1  0  0  0  0
  9 24  1  0  0  0  0
  9 25  1  0  0  0  0
 13 26  1  0  0  0  0
M  END
> <id>
EN300-28272355

> <smiles>
CC(=O)N1C[C@@H]2C[C@H](F)[C@H]1[C@H]2C(=O)O |&1:5,7,9,10,r|

> <IUPAC Name>
rac-(1R,4R,6S,7S)-2-acetyl-6-fluoro-2-azabicyclo[2.2.1]heptane-7-carboxylic acid

> <CAS>
2732245-98-4

> <URL>
https://www.enaminestore.com/catalog/EN300-28272355

> <ROCS_ShapeQuery>
__x1247relevant_x1083L0AP1_x1305L0BP1_

> <ROCS_TanimotoCombo>
0.711 

> <ROCS_ShapeTanimoto>
0.486 

> <ROCS_ColorTanimoto>
0.226 

> <ROCS_RefTversky>
0.411 

> <ROCS_RefColorTversky>
0.249 

> <ROCS_RefTverskyCombo>
0.660 

> <ROCS_FitTversky>
1.601 

> <ROCS_FitColorTversky>
0.705 

> <ROCS_FitTverskyCombo>
2.306 

> <ROCS_ColorScore>
-8.141

> <ROCS_Overlap>
1208.514

> <ROCS_Rank>
462                 

$$$$
untitled-dbase-137768_2
  -OEChem-06232314393D

 29 31  0     1  0  0  0  0  0999 V2000
   -9.9838   15.2266  -36.6063 C   0  0  0  0  0  0  0  0  0  0  0  0
  -14.0888   14.6012  -37.7915 C   0  0  0  0  0  0  0  0  0  0  0  0
  -11.7151   13.7980  -37.6937 C   0  0  0  0  0  0  0  0  0  0  0  0
  -12.3316   16.0226  -36.7033 C   0  0  0  0  0  0  0  0  0  0  0  0
  -12.7127   14.4963  -39.8875 C   0  0  0  0  0  0  0  0  0  0  0  0
  -13.3306   16.7225  -38.8964 C   0  0  0  0  0  0  0  0  0  0  0  0
  -10.9504   15.9212  -38.8001 C   0  0  0  0  0  0  0  0  0  0  0  0
  -13.0003   13.8116  -38.5391 C   0  0  2  0  0  0  0  0  0  0  0  0
  -13.6198   16.0454  -37.5442 C   0  0  1  0  0  0  0  0  0  0  0  0
  -11.2302   15.2399  -37.4445 C   0  0  0  0  0  0  0  0  0  0  0  0
  -12.2357   15.9425  -39.6506 C   0  0  0  0  0  0  0  0  0  0  0  0
   -8.9027   15.6819  -36.9489 O   0  0  0  0  0  0  0  0  0  0  0  0
  -10.2180   14.6350  -35.4095 O   0  0  0  0  0  0  0  0  0  0  0  0
  -11.9067   16.7321  -41.2194 Cl  0  0  0  0  0  0  0  0  0  0  0  0
  -15.0171   14.6041  -38.3759 H   0  0  0  0  0  0  0  0  0  0  0  0
  -14.3157   14.1127  -36.8359 H   0  0  0  0  0  0  0  0  0  0  0  0
  -11.9028   13.2863  -36.7405 H   0  0  0  0  0  0  0  0  0  0  0  0
  -10.9363   13.2173  -38.2052 H   0  0  0  0  0  0  0  0  0  0  0  0
  -12.0001   17.0494  -36.4997 H   0  0  0  0  0  0  0  0  0  0  0  0
  -12.5325   15.5662  -35.7250 H   0  0  0  0  0  0  0  0  0  0  0  0
  -11.9518   13.9243  -40.4343 H   0  0  0  0  0  0  0  0  0  0  0  0
  -13.6208   14.4865  -40.5044 H   0  0  0  0  0  0  0  0  0  0  0  0
  -14.2525   16.7630  -39.4911 H   0  0  0  0  0  0  0  0  0  0  0  0
  -13.0164   17.7606  -38.7272 H   0  0  0  0  0  0  0  0  0  0  0  0
  -10.5822   16.9438  -38.6384 H   0  0  0  0  0  0  0  0  0  0  0  0
  -10.1479   15.3876  -39.3279 H   0  0  0  0  0  0  0  0  0  0  0  0
  -13.3405   12.7843  -38.7111 H   0  0  0  0  0  0  0  0  0  0  0  0
  -14.3995   16.6015  -37.0118 H   0  0  0  0  0  0  0  0  0  0  0  0
   -9.4143   14.6147  -34.8473 H   0  0  0  0  0  0  0  0  0  0  0  0
  1 10  1  0  0  0  0
  1 12  2  0  0  0  0
  1 13  1  0  0  0  0
  2  8  1  0  0  0  0
  2  9  1  0  0  0  0
  3  8  1  0  0  0  0
  3 10  1  0  0  0  0
  4  9  1  0  0  0  0
  4 10  1  0  0  0  0
  5  8  1  0  0  0  0
  5 11  1  0  0  0  0
  6  9  1  0  0  0  0
  6 11  1  0  0  0  0
  7 10  1  0  0  0  0
  7 11  1  0  0  0  0
 11 14  1  0  0  0  0
  2 15  1  0  0  0  0
  2 16  1  0  0  0  0
  3 17  1  0  0  0  0
  3 18  1  0  0  0  0
  4 19  1  0  0  0  0
  4 20  1  0  0  0  0
  5 21  1  0  0  0  0
  5 22  1  0  0  0  0
  6 23  1  0  0  0  0
  6 24  1  0  0  0  0
  7 25  1  0  0  0  0
  7 26  1  0  0  0  0
  8 27  1  0  0  0  0
  9 28  1  0  0  0  0
 13 29  1  0  0  0  0
M  END
> <id>
EN300-00092

> <smiles>
OC(=O)C1(CC2CC3CC(Cl)(C2)C1)C3

> <IUPAC Name>
3-chloroadamantane-1-carboxylic acid

> <CAS>
34859-74-0

> <Purity>
95

> <URL>
https://www.enaminestore.com/catalog/EN300-00092

> <ROCS_ShapeQuery>
__x1247relevant_x1083L0AP1_x1305L0BP1_

> <ROCS_TanimotoCombo>
0.711 

> <ROCS_ShapeTanimoto>
0.499 

> <ROCS_ColorTanimoto>
0.212 

> <ROCS_RefTversky>
0.417 

> <ROCS_RefColorTversky>
0.233 

> <ROCS_RefTverskyCombo>
0.650 

> <ROCS_FitTversky>
1.644 

> <ROCS_FitColorTversky>
0.710 

> <ROCS_FitTverskyCombo>
2.354 

> <ROCS_ColorScore>
-7.594

> <ROCS_Overlap>
1227.340

> <ROCS_Rank>
463                 

$$$$
untitled-dbase-4873_3
  -OEChem-06232314393D

 32 34  0     1  0  0  0  0  0999 V2000
  -10.1589   15.0268  -36.5021 C   0  0  0  0  0  0  0  0  0  0  0  0
  -14.2438   14.7962  -37.8920 C   0  0  0  0  0  0  0  0  0  0  0  0
  -11.9841   13.7417  -37.6193 C   0  0  0  0  0  0  0  0  0  0  0  0
  -12.3966   16.0695  -36.7680 C   0  0  0  0  0  0  0  0  0  0  0  0
  -12.7781   14.4348  -39.8944 C   0  0  0  0  0  0  0  0  0  0  0  0
  -13.1907   16.7579  -39.0449 C   0  0  0  0  0  0  0  0  0  0  0  0
  -10.9307   15.7074  -38.7744 C   0  0  0  0  0  0  0  0  0  0  0  0
  -13.2136   13.8526  -38.5396 C   0  0  2  0  0  0  0  0  0  0  0  0
  -13.6287   16.1924  -37.6836 C   0  0  1  0  0  0  0  0  0  0  0  0
  -11.3516   15.1329  -37.4081 C   0  0  0  0  0  0  0  0  0  0  0  0
  -12.1582   15.8225  -39.6870 C   0  0  0  0  0  0  0  0  0  0  0  0
   -7.8305   15.4184  -36.4066 C   0  0  0  0  0  0  0  0  0  0  0  0
  -10.2062   14.6080  -35.3534 O   0  0  0  0  0  0  0  0  0  0  0  0
   -9.0471   15.4645  -37.1588 O   0  0  0  0  0  0  0  0  0  0  0  0
  -11.7793   16.3284  -40.8867 F   0  0  0  0  0  0  0  0  0  0  0  0
  -15.1337   14.8713  -38.5290 H   0  0  0  0  0  0  0  0  0  0  0  0
  -14.5742   14.3857  -36.9299 H   0  0  0  0  0  0  0  0  0  0  0  0
  -12.2792   13.3046  -36.6563 H   0  0  0  0  0  0  0  0  0  0  0  0
  -11.2503   13.0523  -38.0572 H   0  0  0  0  0  0  0  0  0  0  0  0
  -11.9621   17.0624  -36.5919 H   0  0  0  0  0  0  0  0  0  0  0  0
  -12.6993   15.6882  -35.7838 H   0  0  0  0  0  0  0  0  0  0  0  0
  -12.0551   13.7707  -40.3840 H   0  0  0  0  0  0  0  0  0  0  0  0
  -13.6349   14.5052  -40.5758 H   0  0  0  0  0  0  0  0  0  0  0  0
  -14.0558   16.8737  -39.7095 H   0  0  0  0  0  0  0  0  0  0  0  0
  -12.7641   17.7615  -38.9251 H   0  0  0  0  0  0  0  0  0  0  0  0
  -10.4586   16.6920  -38.6589 H   0  0  0  0  0  0  0  0  0  0  0  0
  -10.1691   15.0734  -39.2475 H   0  0  0  0  0  0  0  0  0  0  0  0
  -13.6581   12.8621  -38.6862 H   0  0  0  0  0  0  0  0  0  0  0  0
  -14.3673   16.8587  -37.2246 H   0  0  0  0  0  0  0  0  0  0  0  0
   -7.0067   15.7886  -37.0217 H   0  0  0  0  0  0  0  0  0  0  0  0
   -7.6328   14.3897  -36.0947 H   0  0  0  0  0  0  0  0  0  0  0  0
   -7.9351   16.0515  -35.5224 H   0  0  0  0  0  0  0  0  0  0  0  0
  1 10  1  0  0  0  0
  1 13  2  0  0  0  0
  1 14  1  0  0  0  0
  2  8  1  0  0  0  0
  2  9  1  0  0  0  0
  3  8  1  0  0  0  0
  3 10  1  0  0  0  0
  4  9  1  0  0  0  0
  4 10  1  0  0  0  0
  5  8  1  0  0  0  0
  5 11  1  0  0  0  0
  6  9  1  0  0  0  0
  6 11  1  0  0  0  0
  7 10  1  0  0  0  0
  7 11  1  0  0  0  0
 11 15  1  0  0  0  0
 12 14  1  0  0  0  0
  2 16  1  0  0  0  0
  2 17  1  0  0  0  0
  3 18  1  0  0  0  0
  3 19  1  0  0  0  0
  4 20  1  0  0  0  0
  4 21  1  0  0  0  0
  5 22  1  0  0  0  0
  5 23  1  0  0  0  0
  6 24  1  0  0  0  0
  6 25  1  0  0  0  0
  7 26  1  0  0  0  0
  7 27  1  0  0  0  0
  8 28  1  0  0  0  0
  9 29  1  0  0  0  0
 12 30  1  0  0  0  0
 12 31  1  0  0  0  0
 12 32  1  0  0  0  0
M  END
> <id>
EN300-105005

> <smiles>
COC(=O)C1(CC2CC3CC(F)(C2)C1)C3

> <MDLNUMBER>
MFCD18800688

> <IUPAC Name>
methyl 3-fluoroadamantane-1-carboxylate

> <CAS>
1426-93-3

> <Purity>
95

> <URL>
https://www.enaminestore.com/catalog/EN300-105005

> <ROCS_ShapeQuery>
__x1247relevant_x1083L0AP1_x1305L0BP1_

> <ROCS_TanimotoCombo>
0.711 

> <ROCS_ShapeTanimoto>
0.518 

> <ROCS_ColorTanimoto>
0.193 

> <ROCS_RefTversky>
0.434 

> <ROCS_RefColorTversky>
0.205 

> <ROCS_RefTverskyCombo>
0.640 

> <ROCS_FitTversky>
1.595 

> <ROCS_FitColorTversky>
0.759 

> <ROCS_FitTverskyCombo>
2.354 

> <ROCS_ColorScore>
-6.674

> <ROCS_Overlap>
1279.457

> <ROCS_Rank>
464                 

$$$$
untitled-dbase-59250_5
  -OEChem-06232314393D

 26 28  0     1  0  0  0  0  0999 V2000
   -9.0899   15.1502  -36.6814 C   0  0  0  0  0  0  0  0  0  0  0  0
  -10.2137   13.2348  -36.3477 C   0  0  0  0  0  0  0  0  0  0  0  0
  -10.4570   15.5859  -36.2713 C   0  0  0  0  0  0  0  0  0  0  0  0
  -13.6260   15.2487  -39.8115 C   0  0  0  0  0  0  0  0  0  0  0  0
  -14.3502   15.0331  -38.4821 C   0  0  0  0  0  0  0  0  0  0  0  0
  -11.4724   14.4460  -38.7880 C   0  0  0  0  0  0  0  0  0  0  0  0
  -11.2631   14.3027  -36.2710 C   0  0  1  0  0  0  0  0  0  0  0  0
  -12.2063   14.1976  -37.4597 C   0  0  1  0  0  0  0  0  0  0  0  0
  -12.2267   15.6507  -39.3505 C   0  0  2  0  0  0  0  0  0  0  0  0
  -13.2471   15.3273  -37.4658 C   0  0  1  0  0  0  0  0  0  0  0  0
   -8.1658   15.8950  -36.9693 O   0  0  0  0  0  0  0  0  0  0  0  0
  -10.4074   12.0361  -36.2135 O   0  0  0  0  0  0  0  0  0  0  0  0
   -9.0074   13.7935  -36.6386 O   0  0  0  0  0  0  0  0  0  0  0  0
  -12.5261   16.3853  -38.1416 O   0  0  0  0  0  0  0  0  0  0  0  0
  -10.4290   16.0325  -35.2725 H   0  0  0  0  0  0  0  0  0  0  0  0
  -10.8266   16.3183  -36.9969 H   0  0  0  0  0  0  0  0  0  0  0  0
  -13.6284   14.3608  -40.4504 H   0  0  0  0  0  0  0  0  0  0  0  0
  -14.1031   16.0698  -40.3581 H   0  0  0  0  0  0  0  0  0  0  0  0
  -15.1643   15.7607  -38.3877 H   0  0  0  0  0  0  0  0  0  0  0  0
  -14.7719   14.0290  -38.3798 H   0  0  0  0  0  0  0  0  0  0  0  0
  -10.4208   14.7027  -38.6173 H   0  0  0  0  0  0  0  0  0  0  0  0
  -11.5080   13.5803  -39.4568 H   0  0  0  0  0  0  0  0  0  0  0  0
  -11.8019   14.1831  -35.3342 H   0  0  0  0  0  0  0  0  0  0  0  0
  -12.6847   13.2120  -37.4418 H   0  0  0  0  0  0  0  0  0  0  0  0
  -11.6623   16.2439  -40.0732 H   0  0  0  0  0  0  0  0  0  0  0  0
  -13.6110   15.6351  -36.4825 H   0  0  0  0  0  0  0  0  0  0  0  0
  1  3  1  0  0  0  0
  1 11  2  0  0  0  0
  1 13  1  0  0  0  0
  2  7  1  0  0  0  0
  2 12  2  0  0  0  0
  2 13  1  0  0  0  0
  3  7  1  0  0  0  0
  4  5  1  0  0  0  0
  4  9  1  0  0  0  0
  5 10  1  0  0  0  0
  6  8  1  0  0  0  0
  6  9  1  0  0  0  0
  7  8  1  0  0  0  0
  8 10  1  0  0  0  0
  9 14  1  0  0  0  0
 10 14  1  0  0  0  0
  3 15  1  0  0  0  0
  3 16  1  0  0  0  0
  4 17  1  0  0  0  0
  4 18  1  0  0  0  0
  5 19  1  0  0  0  0
  5 20  1  0  0  0  0
  6 21  1  0  0  0  0
  6 22  1  0  0  0  0
  7 23  1  0  0  0  0
  8 24  1  0  0  0  0
  9 25  1  0  0  0  0
 10 26  1  0  0  0  0
M  END
> <id>
EN300-1754143

> <smiles>
O=C1CC(C2CC3CCC2O3)C(=O)O1

> <IUPAC Name>
3-{7-oxabicyclo[2.2.1]heptan-2-yl}oxolane-2,5-dione

> <CAS>
2228467-15-8

> <URL>
https://www.enaminestore.com/catalog/EN300-1754143

> <ROCS_ShapeQuery>
__x1247relevant_x1083L0AP1_x1305L0BP1_

> <ROCS_TanimotoCombo>
0.711 

> <ROCS_ShapeTanimoto>
0.488 

> <ROCS_ColorTanimoto>
0.223 

> <ROCS_RefTversky>
0.414 

> <ROCS_RefColorTversky>
0.246 

> <ROCS_RefTverskyCombo>
0.660 

> <ROCS_FitTversky>
1.584 

> <ROCS_FitColorTversky>
0.699 

> <ROCS_FitTverskyCombo>
2.283 

> <ROCS_ColorScore>
-8.054

> <ROCS_Overlap>
1217.786

> <ROCS_Rank>
465                 

$$$$
untitled-dbase-87461_54
  -OEChem-06232314393D

 33 34  0     1  0  0  0  0  0999 V2000
  -10.0755   15.2431  -37.0438 C   0  0  0  0  0  0  0  0  0  0  0  0
  -12.9156   16.4654  -39.3138 C   0  0  0  0  0  0  0  0  0  0  0  0
  -13.5799   15.0866  -39.4640 C   0  0  0  0  0  0  0  0  0  0  0  0
  -13.1678   15.5165  -37.1557 C   0  0  0  0  0  0  0  0  0  0  0  0
  -11.0366   15.3045  -38.1857 C   0  0  2  0  0  0  0  0  0  0  0  0
  -12.1640   16.3228  -37.9773 C   0  0  1  0  0  0  0  0  0  0  0  0
  -13.1862   14.3737  -38.1585 C   0  0  2  0  0  0  0  0  0  0  0  0
   -8.3917   13.7881  -35.2707 C   0  0  0  0  0  0  0  0  0  0  0  0
  -10.4572   12.4919  -34.6684 C   0  0  0  0  0  0  0  0  0  0  0  0
   -9.5865   12.4338  -37.0236 C   0  0  0  0  0  0  0  0  0  0  0  0
   -9.7470   13.2840  -35.7641 C   0  0  0  0  0  0  0  0  0  0  0  0
  -11.7508   14.0079  -38.2345 N   0  0  0  0  0  0  0  0  0  0  0  0
   -9.0158   15.8537  -37.0067 O   0  0  0  0  0  0  0  0  0  0  0  0
  -10.5663   14.4144  -36.0788 O   0  0  0  0  0  0  0  0  0  0  0  0
  -12.2514   16.6973  -40.1522 H   0  0  0  0  0  0  0  0  0  0  0  0
  -13.6784   17.2498  -39.2515 H   0  0  0  0  0  0  0  0  0  0  0  0
  -14.6678   15.1992  -39.5346 H   0  0  0  0  0  0  0  0  0  0  0  0
  -13.2367   14.5571  -40.3592 H   0  0  0  0  0  0  0  0  0  0  0  0
  -12.8001   15.2248  -36.1664 H   0  0  0  0  0  0  0  0  0  0  0  0
  -14.1372   16.0155  -37.0479 H   0  0  0  0  0  0  0  0  0  0  0  0
  -10.4687   15.4828  -39.1051 H   0  0  0  0  0  0  0  0  0  0  0  0
  -11.8565   17.2705  -37.5301 H   0  0  0  0  0  0  0  0  0  0  0  0
  -13.8254   13.5273  -37.9004 H   0  0  0  0  0  0  0  0  0  0  0  0
   -7.8787   14.3572  -36.0543 H   0  0  0  0  0  0  0  0  0  0  0  0
   -8.4961   14.4278  -34.3882 H   0  0  0  0  0  0  0  0  0  0  0  0
   -7.7324   12.9507  -35.0150 H   0  0  0  0  0  0  0  0  0  0  0  0
  -11.4301   12.1282  -35.0181 H   0  0  0  0  0  0  0  0  0  0  0  0
  -10.6594   13.1256  -33.7974 H   0  0  0  0  0  0  0  0  0  0  0  0
   -9.8629   11.6325  -34.3415 H   0  0  0  0  0  0  0  0  0  0  0  0
  -10.5586   12.0721  -37.3777 H   0  0  0  0  0  0  0  0  0  0  0  0
   -9.1118   12.9978  -37.8331 H   0  0  0  0  0  0  0  0  0  0  0  0
   -8.9814   11.5434  -36.8181 H   0  0  0  0  0  0  0  0  0  0  0  0
  -11.5562   13.5374  -39.1175 H   0  0  0  0  0  0  0  0  0  0  0  0
  1  5  1  6  0  0  0
  1 13  2  0  0  0  0
  1 14  1  0  0  0  0
  2  3  1  0  0  0  0
  2  6  1  1  0  0  0
  3  7  1  1  0  0  0
  4  6  1  0  0  0  0
  4  7  1  0  0  0  0
  5  6  1  0  0  0  0
  5 12  1  0  0  0  0
  7 12  1  0  0  0  0
  8 11  1  0  0  0  0
  9 11  1  0  0  0  0
 10 11  1  0  0  0  0
 11 14  1  0  0  0  0
  2 15  1  0  0  0  0
  2 16  1  0  0  0  0
  3 17  1  0  0  0  0
  3 18  1  0  0  0  0
  4 19  1  0  0  0  0
  4 20  1  0  0  0  0
  5 21  1  0  0  0  0
  6 22  1  0  0  0  0
  7 23  1  0  0  0  0
  8 24  1  0  0  0  0
  8 25  1  0  0  0  0
  8 26  1  0  0  0  0
  9 27  1  0  0  0  0
  9 28  1  0  0  0  0
  9 29  1  0  0  0  0
 10 30  1  0  0  0  0
 10 31  1  0  0  0  0
 10 32  1  0  0  0  0
 12 33  1  0  0  0  0
M  END
> <id>
EN300-6507934

> <smiles>
CC(C)(C)OC(=O)[C@H]1N[C@@H]2CC[C@H]1C2

> <MDLNUMBER>
MFCD28389817

> <IUPAC Name>
tert-butyl (1R,3S,4S)-2-azabicyclo[2.2.1]heptane-3-carboxylate

> <CAS>
93472-76-5

> <URL>
https://www.enaminestore.com/catalog/EN300-6507934

> <ROCS_ShapeQuery>
__x1247relevant_x1083L0AP1_x1305L0BP1_

> <ROCS_TanimotoCombo>
0.711 

> <ROCS_ShapeTanimoto>
0.469 

> <ROCS_ColorTanimoto>
0.242 

> <ROCS_RefTversky>
0.400 

> <ROCS_RefColorTversky>
0.264 

> <ROCS_RefTverskyCombo>
0.664 

> <ROCS_FitTversky>
1.581 

> <ROCS_FitColorTversky>
0.747 

> <ROCS_FitTverskyCombo>
2.328 

> <ROCS_ColorScore>
-8.621

> <ROCS_Overlap>
1176.532

> <ROCS_Rank>
466                 

$$$$
untitled-dbase-91218_174
  -OEChem-06232314393D

 40 42  0     1  0  0  0  0  0999 V2000
  -10.7911   18.2489  -41.7052 C   0  0  0  0  0  0  0  0  0  0  0  0
  -12.0906   18.7091  -41.7441 C   0  0  0  0  0  0  0  0  0  0  0  0
  -12.3961   16.9679  -40.4460 C   0  0  0  0  0  0  0  0  0  0  0  0
   -9.8890   14.6688  -37.3544 C   0  0  0  0  0  0  0  0  0  0  0  0
  -13.4891   14.8697  -37.4440 C   0  0  0  0  0  0  0  0  0  0  0  0
  -12.4484   14.5022  -39.5624 C   0  0  0  0  0  0  0  0  0  0  0  0
  -11.7182   16.4267  -37.4474 C   0  0  0  0  0  0  0  0  0  0  0  0
  -13.1367   16.2508  -38.0308 C   0  0  1  0  0  0  0  0  0  0  0  0
  -12.2644   14.2026  -38.0593 C   0  0  1  0  0  0  0  0  0  0  0  0
  -13.0761   15.9369  -39.5661 C   0  0  1  0  0  0  0  0  0  0  0  0
   -9.7864   13.2280  -35.1696 C   0  0  0  0  0  0  0  0  0  0  0  0
   -9.8634   11.1554  -36.5865 C   0  0  0  0  0  0  0  0  0  0  0  0
   -7.7536   12.5131  -36.4701 C   0  0  0  0  0  0  0  0  0  0  0  0
   -9.2808   12.5602  -36.4475 C   0  0  0  0  0  0  0  0  0  0  0  0
  -13.0124   17.9755  -41.0230 N   0  0  0  0  0  0  0  0  0  0  0  0
  -11.1881   15.0728  -37.5792 N   0  0  0  0  0  0  0  0  0  0  0  0
   -8.9819   15.4194  -37.0034 O   0  0  0  0  0  0  0  0  0  0  0  0
  -14.4157   15.8714  -40.0764 O   0  0  0  0  0  0  0  0  0  0  0  0
   -9.7299   13.3265  -37.5705 O   0  0  0  0  0  0  0  0  0  0  0  0
  -10.7079   16.8424  -40.7274 S   0  0  0  0  0  0  0  0  0  0  0  0
  -12.6208   20.2454  -42.7177 Br  0  0  0  0  0  0  0  0  0  0  0  0
   -9.9106   18.6522  -42.1851 H   0  0  0  0  0  0  0  0  0  0  0  0
  -13.4835   14.8536  -36.3483 H   0  0  0  0  0  0  0  0  0  0  0  0
  -14.4372   14.4601  -37.8039 H   0  0  0  0  0  0  0  0  0  0  0  0
  -11.4937   14.4453  -40.0980 H   0  0  0  0  0  0  0  0  0  0  0  0
  -13.1356   13.7743  -40.0096 H   0  0  0  0  0  0  0  0  0  0  0  0
  -11.0865   17.1467  -37.9739 H   0  0  0  0  0  0  0  0  0  0  0  0
  -11.7415   16.6818  -36.3823 H   0  0  0  0  0  0  0  0  0  0  0  0
  -13.8396   17.0422  -37.7602 H   0  0  0  0  0  0  0  0  0  0  0  0
  -12.1003   13.1497  -37.8227 H   0  0  0  0  0  0  0  0  0  0  0  0
   -9.3704   14.2366  -35.0662 H   0  0  0  0  0  0  0  0  0  0  0  0
  -10.8789   13.2995  -35.1569 H   0  0  0  0  0  0  0  0  0  0  0  0
   -9.4658   12.6690  -34.2830 H   0  0  0  0  0  0  0  0  0  0  0  0
   -9.5033   10.6725  -37.5021 H   0  0  0  0  0  0  0  0  0  0  0  0
  -10.9559   11.1921  -36.6661 H   0  0  0  0  0  0  0  0  0  0  0  0
   -9.5991   10.5222  -35.7335 H   0  0  0  0  0  0  0  0  0  0  0  0
   -7.3907   12.0341  -37.3867 H   0  0  0  0  0  0  0  0  0  0  0  0
   -7.3183   13.5158  -36.4085 H   0  0  0  0  0  0  0  0  0  0  0  0
   -7.3698   11.9150  -35.6358 H   0  0  0  0  0  0  0  0  0  0  0  0
  -14.7954   16.7610  -39.9863 H   0  0  0  0  0  0  0  0  0  0  0  0
  1  2  2  0  0  0  0
  1 20  1  0  0  0  0
  2 15  1  0  0  0  0
  2 21  1  0  0  0  0
  3 10  1  0  0  0  0
  3 15  2  0  0  0  0
  3 20  1  0  0  0  0
  4 16  1  0  0  0  0
  4 17  2  0  0  0  0
  4 19  1  0  0  0  0
  5  8  1  0  0  0  0
  5  9  1  0  0  0  0
  6  9  1  0  0  0  0
  6 10  1  0  0  0  0
  7  8  1  0  0  0  0
  7 16  1  0  0  0  0
  8 10  1  0  0  0  0
  9 16  1  0  0  0  0
 10 18  1  0  0  0  0
 11 14  1  0  0  0  0
 12 14  1  0  0  0  0
 13 14  1  0  0  0  0
 14 19  1  0  0  0  0
  1 22  1  0  0  0  0
  5 23  1  0  0  0  0
  5 24  1  0  0  0  0
  6 25  1  0  0  0  0
  6 26  1  0  0  0  0
  7 27  1  0  0  0  0
  7 28  1  0  0  0  0
  8 29  1  0  0  0  0
  9 30  1  0  0  0  0
 11 31  1  0  0  0  0
 11 32  1  0  0  0  0
 11 33  1  0  0  0  0
 12 34  1  0  0  0  0
 12 35  1  0  0  0  0
 12 36  1  0  0  0  0
 13 37  1  0  0  0  0
 13 38  1  0  0  0  0
 13 39  1  0  0  0  0
 18 40  1  0  0  0  0
M  END
> <id>
EN300-7428462

> <smiles>
CC(C)(C)OC(=O)N1CC2CC1CC2(O)C3=NC(Br)=CS3

> <IUPAC Name>
tert-butyl 5-(4-bromo-1,3-thiazol-2-yl)-5-hydroxy-2-azabicyclo[2.2.1]heptane-2-carboxylate

> <CAS>
2309449-64-5

> <URL>
https://www.enaminestore.com/catalog/EN300-7428462

> <ROCS_ShapeQuery>
__x1247relevant_x1083L0AP1_x1305L0BP1_

> <ROCS_TanimotoCombo>
0.711 

> <ROCS_ShapeTanimoto>
0.485 

> <ROCS_ColorTanimoto>
0.226 

> <ROCS_RefTversky>
0.441 

> <ROCS_RefColorTversky>
0.265 

> <ROCS_RefTverskyCombo>
0.706 

> <ROCS_FitTversky>
1.259 

> <ROCS_FitColorTversky>
0.605 

> <ROCS_FitTverskyCombo>
1.864 

> <ROCS_ColorScore>
-8.687

> <ROCS_Overlap>
1304.944

> <ROCS_Rank>
467                 

$$$$
untitled-dbase-110995_10
  -OEChem-06232314393D

 31 33  0     1  0  0  0  0  0999 V2000
   -9.6783   16.5308  -36.9524 C   0  0  0  0  0  0  0  0  0  0  0  0
  -13.9035   14.7911  -39.4385 C   0  0  0  0  0  0  0  0  0  0  0  0
  -12.5888   15.3498  -39.9965 C   0  0  0  0  0  0  0  0  0  0  0  0
  -13.1446   16.5612  -38.0379 C   0  0  0  0  0  0  0  0  0  0  0  0
  -12.8148   14.3362  -37.2325 C   0  0  0  0  0  0  0  0  0  0  0  0
   -9.7346   14.1839  -36.1754 C   0  0  0  0  0  0  0  0  0  0  0  0
  -10.5617   13.7931  -38.3354 C   0  0  0  0  0  0  0  0  0  0  0  0
  -10.5854   15.3940  -36.5768 C   0  0  2  0  0  0  0  0  0  0  0  0
  -13.8537   15.2110  -37.9609 C   0  0  2  0  0  0  0  0  0  0  0  0
  -11.9233   15.9823  -38.7584 C   0  0  1  0  0  0  0  0  0  0  0  0
  -11.4504   14.8929  -37.7569 C   0  0  2  0  0  0  0  0  0  0  0  0
  -10.0430   13.1274  -37.1416 N   0  0  0  0  0  0  0  0  0  0  0  0
  -10.0519   17.6366  -37.3146 O   0  0  0  0  0  0  0  0  0  0  0  0
   -8.3785   16.1640  -36.8381 O   0  0  0  0  0  0  0  0  0  0  0  0
  -14.7561   15.2539  -39.9481 H   0  0  0  0  0  0  0  0  0  0  0  0
  -13.9775   13.7066  -39.5661 H   0  0  0  0  0  0  0  0  0  0  0  0
  -11.9789   14.5822  -40.4796 H   0  0  0  0  0  0  0  0  0  0  0  0
  -12.8032   16.1193  -40.7479 H   0  0  0  0  0  0  0  0  0  0  0  0
  -13.6890   17.2989  -38.6372 H   0  0  0  0  0  0  0  0  0  0  0  0
  -12.9165   16.9890  -37.0568 H   0  0  0  0  0  0  0  0  0  0  0  0
  -12.9208   14.4641  -36.1493 H   0  0  0  0  0  0  0  0  0  0  0  0
  -12.9630   13.2741  -37.4568 H   0  0  0  0  0  0  0  0  0  0  0  0
   -8.6610   14.4044  -36.1795 H   0  0  0  0  0  0  0  0  0  0  0  0
  -10.0004   13.8373  -35.1714 H   0  0  0  0  0  0  0  0  0  0  0  0
  -11.1068   13.0776  -38.9578 H   0  0  0  0  0  0  0  0  0  0  0  0
   -9.7402   14.2131  -38.9282 H   0  0  0  0  0  0  0  0  0  0  0  0
  -11.1910   15.7420  -35.7325 H   0  0  0  0  0  0  0  0  0  0  0  0
  -14.8323   15.2183  -37.4768 H   0  0  0  0  0  0  0  0  0  0  0  0
  -11.1646   16.7174  -39.0334 H   0  0  0  0  0  0  0  0  0  0  0  0
   -9.2130   12.5797  -37.3604 H   0  0  0  0  0  0  0  0  0  0  0  0
   -7.7692   16.8934  -37.0812 H   0  0  0  0  0  0  0  0  0  0  0  0
  1  8  1  0  0  0  0
  1 13  2  0  0  0  0
  1 14  1  0  0  0  0
  2  3  1  0  0  0  0
  2  9  1  0  0  0  0
  3 10  1  0  0  0  0
  4  9  1  0  0  0  0
  4 10  1  0  0  0  0
  5  9  1  0  0  0  0
  5 11  1  0  0  0  0
  6  8  1  0  0  0  0
  6 12  1  0  0  0  0
  7 11  1  0  0  0  0
  7 12  1  0  0  0  0
  8 11  1  0  0  0  0
 10 11  1  0  0  0  0
  2 15  1  0  0  0  0
  2 16  1  0  0  0  0
  3 17  1  0  0  0  0
  3 18  1  0  0  0  0
  4 19  1  0  0  0  0
  4 20  1  0  0  0  0
  5 21  1  0  0  0  0
  5 22  1  0  0  0  0
  6 23  1  0  0  0  0
  6 24  1  0  0  0  0
  7 25  1  0  0  0  0
  7 26  1  0  0  0  0
  8 27  1  0  0  0  0
  9 28  1  0  0  0  0
 10 29  1  0  0  0  0
 12 30  1  0  0  0  0
 14 31  1  0  0  0  0
M  END
> <id>
EN300-1455460

> <smiles>
OC(=O)C1CNCC21CC3CCC2C3

> <MDLNUMBER>
MFCD24121796

> <IUPAC Name>
spiro[bicyclo[2.2.1]heptane-2,3'-pyrrolidine]-4'-carboxylic acid

> <CAS>
1559114-20-3

> <URL>
https://www.enaminestore.com/catalog/EN300-1455460

> <ROCS_ShapeQuery>
__x1247relevant_x1083L0AP1_x1305L0BP1_

> <ROCS_TanimotoCombo>
0.711 

> <ROCS_ShapeTanimoto>
0.484 

> <ROCS_ColorTanimoto>
0.227 

> <ROCS_RefTversky>
0.410 

> <ROCS_RefColorTversky>
0.260 

> <ROCS_RefTverskyCombo>
0.670 

> <ROCS_FitTversky>
1.599 

> <ROCS_FitColorTversky>
0.637 

> <ROCS_FitTverskyCombo>
2.236 

> <ROCS_ColorScore>
-8.527

> <ROCS_Overlap>
1206.276

> <ROCS_Rank>
468                 

$$$$
untitled-dbase-18879_7
  -OEChem-06232314393D

 22 23  0     1  0  0  0  0  0999 V2000
  -14.0318   15.8524  -38.8647 C   0  0  0  0  0  0  0  0  0  0  0  0
  -12.7080   16.1873  -39.5549 C   0  0  0  0  0  0  0  0  0  0  0  0
  -12.8089   15.3580  -36.7208 C   0  0  0  0  0  0  0  0  0  0  0  0
  -13.6118   14.7635  -37.8786 C   0  0  2  0  0  0  0  0  0  0  0  0
  -11.7318   15.2514  -38.8435 C   0  0  1  0  0  0  0  0  0  0  0  0
  -11.4920   15.7267  -37.4089 C   0  0  2  0  0  0  0  0  0  0  0  0
  -10.2698   13.3694  -37.4310 N   0  0  0  0  0  0  0  0  0  0  0  0
   -8.8989   15.5286  -37.1562 O   0  0  0  0  0  0  0  0  0  0  0  0
  -10.3747   14.7456  -35.2603 O   0  0  0  0  0  0  0  0  0  0  0  0
  -12.5734   14.0922  -38.6269 O   0  0  0  0  0  0  0  0  0  0  0  0
  -10.1139   14.8919  -36.6808 S   0  0  0  0  0  0  0  0  0  0  0  0
  -14.4929   16.7167  -38.3779 H   0  0  0  0  0  0  0  0  0  0  0  0
  -14.7374   15.4538  -39.6022 H   0  0  0  0  0  0  0  0  0  0  0  0
  -12.7768   15.9347  -40.6190 H   0  0  0  0  0  0  0  0  0  0  0  0
  -12.4328   17.2423  -39.4675 H   0  0  0  0  0  0  0  0  0  0  0  0
  -13.3074   16.2244  -36.2751 H   0  0  0  0  0  0  0  0  0  0  0  0
  -12.6609   14.6074  -35.9366 H   0  0  0  0  0  0  0  0  0  0  0  0
  -14.4146   14.0877  -37.5761 H   0  0  0  0  0  0  0  0  0  0  0  0
  -10.8368   15.0063  -39.4202 H   0  0  0  0  0  0  0  0  0  0  0  0
  -11.2677   16.7961  -37.3496 H   0  0  0  0  0  0  0  0  0  0  0  0
   -9.5746   13.1129  -38.1427 H   0  0  0  0  0  0  0  0  0  0  0  0
  -10.5798   12.5797  -36.8514 H   0  0  0  0  0  0  0  0  0  0  0  0
  1  2  1  0  0  0  0
  1  4  1  0  0  0  0
  2  5  1  6  0  0  0
  3  4  1  6  0  0  0
  3  6  1  0  0  0  0
  4 10  1  0  0  0  0
  5  6  1  0  0  0  0
  5 10  1  0  0  0  0
  6 11  1  1  0  0  0
  7 11  1  0  0  0  0
  8 11  2  0  0  0  0
  9 11  2  0  0  0  0
  1 12  1  0  0  0  0
  1 13  1  0  0  0  0
  2 14  1  0  0  0  0
  2 15  1  0  0  0  0
  3 16  1  0  0  0  0
  3 17  1  0  0  0  0
  4 18  1  0  0  0  0
  5 19  1  0  0  0  0
  6 20  1  0  0  0  0
  7 21  1  0  0  0  0
  7 22  1  0  0  0  0
M  END
> <id>
EN300-251782

> <smiles>
NS(=O)(=O)[C@@H]1C[C@H]2CC[C@@H]1O2 |&1:4,6,9,r|

> <MDLNUMBER>
MFCD30503022

> <IUPAC Name>
rac-(1R,2S,4S)-7-oxabicyclo[2.2.1]heptane-2-sulfonamide

> <CAS>
2307780-97-6

> <Purity>
95

> <URL>
https://www.enaminestore.com/catalog/EN300-251782

> <ROCS_ShapeQuery>
__x1247relevant_x1083L0AP1_x1305L0BP1_

> <ROCS_TanimotoCombo>
0.711 

> <ROCS_ShapeTanimoto>
0.449 

> <ROCS_ColorTanimoto>
0.262 

> <ROCS_RefTversky>
0.373 

> <ROCS_RefColorTversky>
0.281 

> <ROCS_RefTverskyCombo>
0.654 

> <ROCS_FitTversky>
1.824 

> <ROCS_FitColorTversky>
0.796 

> <ROCS_FitTverskyCombo>
2.620 

> <ROCS_ColorScore>
-9.182

> <ROCS_Overlap>
1094.949

> <ROCS_Rank>
469                 

$$$$
untitled-dbase-172451_19
  -OEChem-06232314393D

 29 31  0     0  0  0  0  0  0999 V2000
  -10.7230   15.2305  -35.7129 C   0  0  0  0  0  0  0  0  0  0  0  0
   -9.9069   13.6603  -37.4941 C   0  0  0  0  0  0  0  0  0  0  0  0
  -13.3038   14.1056  -38.5447 C   0  0  0  0  0  0  0  0  0  0  0  0
  -11.8330   15.5423  -39.1361 C   0  0  0  0  0  0  0  0  0  0  0  0
  -13.1714   15.9817  -37.5253 C   0  0  0  0  0  0  0  0  0  0  0  0
   -9.7247   16.2487  -36.2525 C   0  0  0  0  0  0  0  0  0  0  0  0
   -8.9541   14.7668  -37.9331 C   0  0  0  0  0  0  0  0  0  0  0  0
  -11.1474   14.2156  -36.7823 C   0  0  0  0  0  0  0  0  0  0  0  0
  -12.1411   14.8247  -37.7748 C   0  0  0  0  0  0  0  0  0  0  0  0
  -13.3484   15.5654  -38.9802 C   0  0  0  0  0  0  0  0  0  0  0  0
  -14.2625   16.1242  -39.8916 N   0  0  0  0  0  0  0  0  0  0  0  0
   -8.5949   15.5941  -36.8276 O   0  0  0  0  0  0  0  0  0  0  0  0
  -10.2989   14.7111  -34.8385 H   0  0  0  0  0  0  0  0  0  0  0  0
  -11.6169   15.7663  -35.3501 H   0  0  0  0  0  0  0  0  0  0  0  0
  -10.2269   13.0924  -38.3844 H   0  0  0  0  0  0  0  0  0  0  0  0
   -9.3806   12.9433  -36.8435 H   0  0  0  0  0  0  0  0  0  0  0  0
  -13.0224   13.3596  -39.2952 H   0  0  0  0  0  0  0  0  0  0  0  0
  -14.1409   13.7267  -37.9493 H   0  0  0  0  0  0  0  0  0  0  0  0
  -11.3023   16.4988  -39.0891 H   0  0  0  0  0  0  0  0  0  0  0  0
  -11.4138   14.9309  -39.9417 H   0  0  0  0  0  0  0  0  0  0  0  0
  -13.9960   15.7789  -36.8342 H   0  0  0  0  0  0  0  0  0  0  0  0
  -12.7662   16.9794  -37.3276 H   0  0  0  0  0  0  0  0  0  0  0  0
  -10.1951   16.8516  -37.0356 H   0  0  0  0  0  0  0  0  0  0  0  0
   -9.3883   16.9325  -35.4643 H   0  0  0  0  0  0  0  0  0  0  0  0
   -8.0472   14.3531  -38.3897 H   0  0  0  0  0  0  0  0  0  0  0  0
   -9.4406   15.4015  -38.6806 H   0  0  0  0  0  0  0  0  0  0  0  0
  -11.6510   13.3660  -36.2645 H   0  0  0  0  0  0  0  0  0  0  0  0
  -14.8056   16.8587  -39.4590 H   0  0  0  0  0  0  0  0  0  0  0  0
  -13.7848   16.5221  -40.6883 H   0  0  0  0  0  0  0  0  0  0  0  0
  1  6  1  0  0  0  0
  1  8  1  0  0  0  0
  2  7  1  0  0  0  0
  2  8  1  0  0  0  0
  3  9  1  0  0  0  0
  3 10  1  0  0  0  0
  4  9  1  0  0  0  0
  4 10  1  0  0  0  0
  5  9  1  0  0  0  0
  5 10  1  0  0  0  0
  6 12  1  0  0  0  0
  7 12  1  0  0  0  0
  8  9  1  0  0  0  0
 10 11  1  0  0  0  0
  1 13  1  0  0  0  0
  1 14  1  0  0  0  0
  2 15  1  0  0  0  0
  2 16  1  0  0  0  0
  3 17  1  0  0  0  0
  3 18  1  0  0  0  0
  4 19  1  0  0  0  0
  4 20  1  0  0  0  0
  5 21  1  0  0  0  0
  5 22  1  0  0  0  0
  6 23  1  0  0  0  0
  6 24  1  0  0  0  0
  7 25  1  0  0  0  0
  7 26  1  0  0  0  0
  8 27  1  0  0  0  0
 11 28  1  0  0  0  0
 11 29  1  0  0  0  0
M  END
> <id>
EN300-37345166

> <smiles>
Cl.NC1(CC2(C1)C3CCOCC3)C2

> <MDLNUMBER>
MFCD34601257

> <IUPAC Name>
3-(oxan-4-yl)bicyclo[1.1.1]pentan-1-amine hydrochloride

> <CAS>
2758006-56-1

> <Purity>
95

> <URL>
https://www.enaminestore.com/catalog/EN300-37345166

> <Saltdate>
Cl

> <ROCS_ShapeQuery>
__x1247relevant_x1083L0AP1_x1305L0BP1_

> <ROCS_TanimotoCombo>
0.711 

> <ROCS_ShapeTanimoto>
0.464 

> <ROCS_ColorTanimoto>
0.247 

> <ROCS_RefTversky>
0.388 

> <ROCS_RefColorTversky>
0.274 

> <ROCS_RefTverskyCombo>
0.662 

> <ROCS_FitTversky>
1.741 

> <ROCS_FitColorTversky>
0.711 

> <ROCS_FitTverskyCombo>
2.451 

> <ROCS_ColorScore>
-8.974

> <ROCS_Overlap>
1138.683

> <ROCS_Rank>
470                 

$$$$
untitled-dbase-172452_19
  -OEChem-06232314393D

 29 31  0     0  0  0  0  0  0999 V2000
  -10.7230   15.2305  -35.7129 C   0  0  0  0  0  0  0  0  0  0  0  0
   -9.9069   13.6603  -37.4941 C   0  0  0  0  0  0  0  0  0  0  0  0
  -13.3038   14.1056  -38.5447 C   0  0  0  0  0  0  0  0  0  0  0  0
  -11.8330   15.5423  -39.1361 C   0  0  0  0  0  0  0  0  0  0  0  0
  -13.1714   15.9817  -37.5253 C   0  0  0  0  0  0  0  0  0  0  0  0
   -9.7247   16.2487  -36.2525 C   0  0  0  0  0  0  0  0  0  0  0  0
   -8.9541   14.7668  -37.9331 C   0  0  0  0  0  0  0  0  0  0  0  0
  -11.1474   14.2156  -36.7823 C   0  0  0  0  0  0  0  0  0  0  0  0
  -12.1411   14.8247  -37.7748 C   0  0  0  0  0  0  0  0  0  0  0  0
  -13.3484   15.5654  -38.9802 C   0  0  0  0  0  0  0  0  0  0  0  0
  -14.2625   16.1242  -39.8916 N   0  0  0  0  0  0  0  0  0  0  0  0
   -8.5949   15.5941  -36.8276 O   0  0  0  0  0  0  0  0  0  0  0  0
  -10.2989   14.7111  -34.8385 H   0  0  0  0  0  0  0  0  0  0  0  0
  -11.6169   15.7663  -35.3501 H   0  0  0  0  0  0  0  0  0  0  0  0
  -10.2269   13.0924  -38.3844 H   0  0  0  0  0  0  0  0  0  0  0  0
   -9.3806   12.9433  -36.8435 H   0  0  0  0  0  0  0  0  0  0  0  0
  -13.0224   13.3596  -39.2952 H   0  0  0  0  0  0  0  0  0  0  0  0
  -14.1409   13.7267  -37.9493 H   0  0  0  0  0  0  0  0  0  0  0  0
  -11.3023   16.4988  -39.0891 H   0  0  0  0  0  0  0  0  0  0  0  0
  -11.4138   14.9309  -39.9417 H   0  0  0  0  0  0  0  0  0  0  0  0
  -13.9960   15.7789  -36.8342 H   0  0  0  0  0  0  0  0  0  0  0  0
  -12.7662   16.9794  -37.3276 H   0  0  0  0  0  0  0  0  0  0  0  0
  -10.1951   16.8516  -37.0356 H   0  0  0  0  0  0  0  0  0  0  0  0
   -9.3883   16.9325  -35.4643 H   0  0  0  0  0  0  0  0  0  0  0  0
   -8.0472   14.3531  -38.3897 H   0  0  0  0  0  0  0  0  0  0  0  0
   -9.4406   15.4015  -38.6806 H   0  0  0  0  0  0  0  0  0  0  0  0
  -11.6510   13.3660  -36.2645 H   0  0  0  0  0  0  0  0  0  0  0  0
  -14.8056   16.8587  -39.4590 H   0  0  0  0  0  0  0  0  0  0  0  0
  -13.7848   16.5221  -40.6883 H   0  0  0  0  0  0  0  0  0  0  0  0
  1  6  1  0  0  0  0
  1  8  1  0  0  0  0
  2  7  1  0  0  0  0
  2  8  1  0  0  0  0
  3  9  1  0  0  0  0
  3 10  1  0  0  0  0
  4  9  1  0  0  0  0
  4 10  1  0  0  0  0
  5  9  1  0  0  0  0
  5 10  1  0  0  0  0
  6 12  1  0  0  0  0
  7 12  1  0  0  0  0
  8  9  1  0  0  0  0
 10 11  1  0  0  0  0
  1 13  1  0  0  0  0
  1 14  1  0  0  0  0
  2 15  1  0  0  0  0
  2 16  1  0  0  0  0
  3 17  1  0  0  0  0
  3 18  1  0  0  0  0
  4 19  1  0  0  0  0
  4 20  1  0  0  0  0
  5 21  1  0  0  0  0
  5 22  1  0  0  0  0
  6 23  1  0  0  0  0
  6 24  1  0  0  0  0
  7 25  1  0  0  0  0
  7 26  1  0  0  0  0
  8 27  1  0  0  0  0
 11 28  1  0  0  0  0
 11 29  1  0  0  0  0
M  END
> <id>
EN300-37334730

> <smiles>
NC1(CC2(C1)C3CCOCC3)C2

> <MDLNUMBER>
MFCD34601260

> <IUPAC Name>
3-(oxan-4-yl)bicyclo[1.1.1]pentan-1-amine

> <CAS>
2757956-64-0

> <URL>
https://www.enaminestore.com/catalog/EN300-37334730

> <ROCS_ShapeQuery>
__x1247relevant_x1083L0AP1_x1305L0BP1_

> <ROCS_TanimotoCombo>
0.711 

> <ROCS_ShapeTanimoto>
0.464 

> <ROCS_ColorTanimoto>
0.247 

> <ROCS_RefTversky>
0.388 

> <ROCS_RefColorTversky>
0.274 

> <ROCS_RefTverskyCombo>
0.662 

> <ROCS_FitTversky>
1.741 

> <ROCS_FitColorTversky>
0.711 

> <ROCS_FitTverskyCombo>
2.451 

> <ROCS_ColorScore>
-8.974

> <ROCS_Overlap>
1138.683

> <ROCS_Rank>
471                 

$$$$
untitled-dbase-112328_19
  -OEChem-06232314393D

 29 31  0     0  0  0  0  0  0999 V2000
  -10.7228   15.2301  -35.7130 C   0  0  0  0  0  0  0  0  0  0  0  0
   -9.9068   13.6606  -37.4947 C   0  0  0  0  0  0  0  0  0  0  0  0
  -13.3037   14.1054  -38.5445 C   0  0  0  0  0  0  0  0  0  0  0  0
  -11.8333   15.5422  -39.1360 C   0  0  0  0  0  0  0  0  0  0  0  0
  -13.1714   15.9818  -37.5253 C   0  0  0  0  0  0  0  0  0  0  0  0
   -9.7247   16.2485  -36.2523 C   0  0  0  0  0  0  0  0  0  0  0  0
   -8.9542   14.7673  -37.9335 C   0  0  0  0  0  0  0  0  0  0  0  0
  -11.1473   14.2154  -36.7826 C   0  0  0  0  0  0  0  0  0  0  0  0
  -12.1411   14.8248  -37.7748 C   0  0  0  0  0  0  0  0  0  0  0  0
  -13.3486   15.5652  -38.9801 C   0  0  0  0  0  0  0  0  0  0  0  0
  -14.2621   16.1245  -39.8918 N   0  0  0  0  0  0  0  0  0  0  0  0
   -8.5949   15.5942  -36.8278 O   0  0  0  0  0  0  0  0  0  0  0  0
  -10.2986   14.7104  -34.8388 H   0  0  0  0  0  0  0  0  0  0  0  0
  -11.6167   15.7656  -35.3498 H   0  0  0  0  0  0  0  0  0  0  0  0
  -10.2269   13.0929  -38.3853 H   0  0  0  0  0  0  0  0  0  0  0  0
   -9.3804   12.9434  -36.8444 H   0  0  0  0  0  0  0  0  0  0  0  0
  -13.0221   13.3594  -39.2949 H   0  0  0  0  0  0  0  0  0  0  0  0
  -14.1403   13.7262  -37.9488 H   0  0  0  0  0  0  0  0  0  0  0  0
  -11.3029   16.4989  -39.0894 H   0  0  0  0  0  0  0  0  0  0  0  0
  -11.4139   14.9309  -39.9417 H   0  0  0  0  0  0  0  0  0  0  0  0
  -13.9959   15.7786  -36.8341 H   0  0  0  0  0  0  0  0  0  0  0  0
  -12.7669   16.9797  -37.3278 H   0  0  0  0  0  0  0  0  0  0  0  0
  -10.1953   16.8517  -37.0352 H   0  0  0  0  0  0  0  0  0  0  0  0
   -9.3882   16.9321  -35.4639 H   0  0  0  0  0  0  0  0  0  0  0  0
   -8.0473   14.3539  -38.3904 H   0  0  0  0  0  0  0  0  0  0  0  0
   -9.4409   15.4022  -38.6807 H   0  0  0  0  0  0  0  0  0  0  0  0
  -11.6507   13.3656  -36.2650 H   0  0  0  0  0  0  0  0  0  0  0  0
  -14.8054   16.8588  -39.4593 H   0  0  0  0  0  0  0  0  0  0  0  0
  -13.7839   16.5226  -40.6881 H   0  0  0  0  0  0  0  0  0  0  0  0
  1  6  1  0  0  0  0
  1  8  1  0  0  0  0
  2  7  1  0  0  0  0
  2  8  1  0  0  0  0
  3  9  1  0  0  0  0
  3 10  1  0  0  0  0
  4  9  1  0  0  0  0
  4 10  1  0  0  0  0
  5  9  1  0  0  0  0
  5 10  1  0  0  0  0
  6 12  1  0  0  0  0
  7 12  1  0  0  0  0
  8  9  1  6  0  0  0
 10 11  1  6  0  0  0
  1 13  1  0  0  0  0
  1 14  1  0  0  0  0
  2 15  1  0  0  0  0
  2 16  1  0  0  0  0
  3 17  1  0  0  0  0
  3 18  1  0  0  0  0
  4 19  1  0  0  0  0
  4 20  1  0  0  0  0
  5 21  1  0  0  0  0
  5 22  1  0  0  0  0
  6 23  1  0  0  0  0
  6 24  1  0  0  0  0
  7 25  1  0  0  0  0
  7 26  1  0  0  0  0
  8 27  1  0  0  0  0
 11 28  1  0  0  0  0
 11 29  1  0  0  0  0
M  END
> <id>
EN300-37353964

> <smiles>
N[C@]1(C[C@]2(C1)C3CCOCC3)C2

> <IUPAC Name>
3-(oxan-4-yl)bicyclo[1.1.1]pentan-1-amine

> <URL>
https://www.enaminestore.com/catalog/EN300-37353964

> <ROCS_ShapeQuery>
__x1247relevant_x1083L0AP1_x1305L0BP1_

> <ROCS_TanimotoCombo>
0.711 

> <ROCS_ShapeTanimoto>
0.464 

> <ROCS_ColorTanimoto>
0.247 

> <ROCS_RefTversky>
0.388 

> <ROCS_RefColorTversky>
0.274 

> <ROCS_RefTverskyCombo>
0.662 

> <ROCS_FitTversky>
1.741 

> <ROCS_FitColorTversky>
0.711 

> <ROCS_FitTverskyCombo>
2.451 

> <ROCS_ColorScore>
-8.974

> <ROCS_Overlap>
1138.693

> <ROCS_Rank>
472                 

$$$$
untitled-dbase-169637_19
  -OEChem-06232314393D

 29 31  0     0  0  0  0  0  0999 V2000
  -10.7228   15.2301  -35.7130 C   0  0  0  0  0  0  0  0  0  0  0  0
   -9.9068   13.6606  -37.4947 C   0  0  0  0  0  0  0  0  0  0  0  0
  -13.3037   14.1054  -38.5445 C   0  0  0  0  0  0  0  0  0  0  0  0
  -11.8333   15.5422  -39.1360 C   0  0  0  0  0  0  0  0  0  0  0  0
  -13.1714   15.9818  -37.5253 C   0  0  0  0  0  0  0  0  0  0  0  0
   -9.7247   16.2485  -36.2523 C   0  0  0  0  0  0  0  0  0  0  0  0
   -8.9542   14.7673  -37.9335 C   0  0  0  0  0  0  0  0  0  0  0  0
  -11.1473   14.2154  -36.7826 C   0  0  0  0  0  0  0  0  0  0  0  0
  -12.1411   14.8248  -37.7748 C   0  0  0  0  0  0  0  0  0  0  0  0
  -13.3486   15.5652  -38.9801 C   0  0  0  0  0  0  0  0  0  0  0  0
  -14.2621   16.1245  -39.8918 N   0  0  0  0  0  0  0  0  0  0  0  0
   -8.5949   15.5942  -36.8278 O   0  0  0  0  0  0  0  0  0  0  0  0
  -10.2986   14.7104  -34.8388 H   0  0  0  0  0  0  0  0  0  0  0  0
  -11.6167   15.7656  -35.3498 H   0  0  0  0  0  0  0  0  0  0  0  0
  -10.2269   13.0929  -38.3853 H   0  0  0  0  0  0  0  0  0  0  0  0
   -9.3804   12.9434  -36.8444 H   0  0  0  0  0  0  0  0  0  0  0  0
  -13.0221   13.3594  -39.2949 H   0  0  0  0  0  0  0  0  0  0  0  0
  -14.1403   13.7262  -37.9488 H   0  0  0  0  0  0  0  0  0  0  0  0
  -11.3029   16.4989  -39.0894 H   0  0  0  0  0  0  0  0  0  0  0  0
  -11.4139   14.9309  -39.9417 H   0  0  0  0  0  0  0  0  0  0  0  0
  -13.9959   15.7786  -36.8341 H   0  0  0  0  0  0  0  0  0  0  0  0
  -12.7669   16.9797  -37.3278 H   0  0  0  0  0  0  0  0  0  0  0  0
  -10.1953   16.8517  -37.0352 H   0  0  0  0  0  0  0  0  0  0  0  0
   -9.3882   16.9321  -35.4639 H   0  0  0  0  0  0  0  0  0  0  0  0
   -8.0473   14.3539  -38.3904 H   0  0  0  0  0  0  0  0  0  0  0  0
   -9.4409   15.4022  -38.6807 H   0  0  0  0  0  0  0  0  0  0  0  0
  -11.6507   13.3656  -36.2650 H   0  0  0  0  0  0  0  0  0  0  0  0
  -14.8054   16.8588  -39.4593 H   0  0  0  0  0  0  0  0  0  0  0  0
  -13.7839   16.5226  -40.6881 H   0  0  0  0  0  0  0  0  0  0  0  0
  1  6  1  0  0  0  0
  1  8  1  0  0  0  0
  2  7  1  0  0  0  0
  2  8  1  0  0  0  0
  3  9  1  0  0  0  0
  3 10  1  0  0  0  0
  4  9  1  0  0  0  0
  4 10  1  0  0  0  0
  5  9  1  0  0  0  0
  5 10  1  0  0  0  0
  6 12  1  0  0  0  0
  7 12  1  0  0  0  0
  8  9  1  6  0  0  0
 10 11  1  6  0  0  0
  1 13  1  0  0  0  0
  1 14  1  0  0  0  0
  2 15  1  0  0  0  0
  2 16  1  0  0  0  0
  3 17  1  0  0  0  0
  3 18  1  0  0  0  0
  4 19  1  0  0  0  0
  4 20  1  0  0  0  0
  5 21  1  0  0  0  0
  5 22  1  0  0  0  0
  6 23  1  0  0  0  0
  6 24  1  0  0  0  0
  7 25  1  0  0  0  0
  7 26  1  0  0  0  0
  8 27  1  0  0  0  0
 11 28  1  0  0  0  0
 11 29  1  0  0  0  0
M  END
> <id>
EN300-37374225

> <smiles>
Cl.N[C@]1(C[C@]2(C1)C3CCOCC3)C2

> <IUPAC Name>
3-(oxan-4-yl)bicyclo[1.1.1]pentan-1-amine hydrochloride

> <CAS>
2758006-56-1

> <URL>
https://www.enaminestore.com/catalog/EN300-37374225

> <ROCS_ShapeQuery>
__x1247relevant_x1083L0AP1_x1305L0BP1_

> <ROCS_TanimotoCombo>
0.711 

> <ROCS_ShapeTanimoto>
0.464 

> <ROCS_ColorTanimoto>
0.247 

> <ROCS_RefTversky>
0.388 

> <ROCS_RefColorTversky>
0.274 

> <ROCS_RefTverskyCombo>
0.662 

> <ROCS_FitTversky>
1.741 

> <ROCS_FitColorTversky>
0.711 

> <ROCS_FitTverskyCombo>
2.451 

> <ROCS_ColorScore>
-8.974

> <ROCS_Overlap>
1138.693

> <ROCS_Rank>
473                 

$$$$
untitled-dbase-67150_182
  -OEChem-06232314393D

 38 39  0     1  0  0  0  0  0999 V2000
   -9.8647   15.4261  -36.8103 C   0  0  0  0  0  0  0  0  0  0  0  0
  -12.9841   14.3685  -36.5549 C   0  0  0  0  0  0  0  0  0  0  0  0
  -13.1821   16.3953  -37.9541 C   0  0  0  0  0  0  0  0  0  0  0  0
  -11.2207   15.4610  -38.9536 C   0  0  0  0  0  0  0  0  0  0  0  0
  -13.0336   13.5011  -37.8187 C   0  0  0  0  0  0  0  0  0  0  0  0
  -12.3576   15.7366  -36.8507 C   0  0  2  0  0  0  0  0  0  0  0  0
  -12.7467   15.5251  -39.1362 C   0  0  2  0  0  0  0  0  0  0  0  0
   -7.8686   13.9014  -35.4477 C   0  0  0  0  0  0  0  0  0  0  0  0
   -9.7019   13.2741  -33.8493 C   0  0  0  0  0  0  0  0  0  0  0  0
   -9.8704   12.6144  -36.2668 C   0  0  0  0  0  0  0  0  0  0  0  0
  -13.1565   16.1049  -40.4794 C   0  0  0  0  0  0  0  0  0  0  0  0
   -9.3708   13.6738  -35.2855 C   0  0  0  0  0  0  0  0  0  0  0  0
  -11.0572   15.5480  -37.4992 N   0  0  0  0  0  0  0  0  0  0  0  0
   -8.7683   15.7459  -37.2637 O   0  0  0  0  0  0  0  0  0  0  0  0
  -13.3696   14.2340  -39.0030 O   0  0  0  0  0  0  0  0  0  0  0  0
  -14.5699   16.2111  -40.5191 O   0  0  0  0  0  0  0  0  0  0  0  0
  -10.0502   14.9044  -35.5583 O   0  0  0  0  0  0  0  0  0  0  0  0
  -14.0071   14.5229  -36.1895 H   0  0  0  0  0  0  0  0  0  0  0  0
  -12.4390   13.8434  -35.7626 H   0  0  0  0  0  0  0  0  0  0  0  0
  -14.2585   16.3434  -37.7591 H   0  0  0  0  0  0  0  0  0  0  0  0
  -12.8904   17.4437  -38.0884 H   0  0  0  0  0  0  0  0  0  0  0  0
  -10.7698   14.5344  -39.3221 H   0  0  0  0  0  0  0  0  0  0  0  0
  -10.7037   16.3215  -39.3919 H   0  0  0  0  0  0  0  0  0  0  0  0
  -12.0695   13.0062  -37.9828 H   0  0  0  0  0  0  0  0  0  0  0  0
  -13.7739   12.7036  -37.6966 H   0  0  0  0  0  0  0  0  0  0  0  0
  -12.2710   16.3444  -35.9454 H   0  0  0  0  0  0  0  0  0  0  0  0
   -7.6269   14.1885  -36.4773 H   0  0  0  0  0  0  0  0  0  0  0  0
   -7.5041   14.6837  -34.7739 H   0  0  0  0  0  0  0  0  0  0  0  0
   -7.3094   12.9811  -35.2440 H   0  0  0  0  0  0  0  0  0  0  0  0
  -10.7787   13.1097  -33.7284 H   0  0  0  0  0  0  0  0  0  0  0  0
   -9.4311   14.0730  -33.1495 H   0  0  0  0  0  0  0  0  0  0  0  0
   -9.1763   12.3606  -33.5528 H   0  0  0  0  0  0  0  0  0  0  0  0
  -10.9479   12.4509  -36.1507 H   0  0  0  0  0  0  0  0  0  0  0  0
   -9.6743   12.9018  -37.3049 H   0  0  0  0  0  0  0  0  0  0  0  0
   -9.3888   11.6485  -36.0760 H   0  0  0  0  0  0  0  0  0  0  0  0
  -12.8256   15.4521  -41.2901 H   0  0  0  0  0  0  0  0  0  0  0  0
  -12.7209   17.0976  -40.6121 H   0  0  0  0  0  0  0  0  0  0  0  0
  -14.9250   15.3139  -40.4037 H   0  0  0  0  0  0  0  0  0  0  0  0
  1 13  1  0  0  0  0
  1 14  2  0  0  0  0
  1 17  1  0  0  0  0
  2  5  1  0  0  0  0
  2  6  1  0  0  0  0
  3  6  1  0  0  0  0
  3  7  1  0  0  0  0
  4  7  1  0  0  0  0
  4 13  1  0  0  0  0
  5 15  1  0  0  0  0
  6 13  1  0  0  0  0
  7 11  1  0  0  0  0
  7 15  1  0  0  0  0
  8 12  1  0  0  0  0
  9 12  1  0  0  0  0
 10 12  1  0  0  0  0
 11 16  1  0  0  0  0
 12 17  1  0  0  0  0
  2 18  1  0  0  0  0
  2 19  1  0  0  0  0
  3 20  1  0  0  0  0
  3 21  1  0  0  0  0
  4 22  1  0  0  0  0
  4 23  1  0  0  0  0
  5 24  1  0  0  0  0
  5 25  1  0  0  0  0
  6 26  1  0  0  0  0
  8 27  1  0  0  0  0
  8 28  1  0  0  0  0
  8 29  1  0  0  0  0
  9 30  1  0  0  0  0
  9 31  1  0  0  0  0
  9 32  1  0  0  0  0
 10 33  1  0  0  0  0
 10 34  1  0  0  0  0
 10 35  1  0  0  0  0
 11 36  1  0  0  0  0
 11 37  1  0  0  0  0
 16 38  1  0  0  0  0
M  END
> <id>
EN300-37139109

> <smiles>
CC(C)(C)OC(=O)N1CC2(CO)CC1CCO2

> <MDLNUMBER>
MFCD34594515

> <IUPAC Name>
tert-butyl 1-(hydroxymethyl)-2-oxa-6-azabicyclo[3.2.1]octane-6-carboxylate

> <CAS>
2751610-62-3

> <Purity>
95

> <URL>
https://www.enaminestore.com/catalog/EN300-37139109

> <ROCS_ShapeQuery>
__x1247relevant_x1083L0AP1_x1305L0BP1_

> <ROCS_TanimotoCombo>
0.711 

> <ROCS_ShapeTanimoto>
0.497 

> <ROCS_ColorTanimoto>
0.213 

> <ROCS_RefTversky>
0.431 

> <ROCS_RefColorTversky>
0.241 

> <ROCS_RefTverskyCombo>
0.671 

> <ROCS_FitTversky>
1.454 

> <ROCS_FitColorTversky>
0.652 

> <ROCS_FitTverskyCombo>
2.107 

> <ROCS_ColorScore>
-7.872

> <ROCS_Overlap>
1269.761

> <ROCS_Rank>
474                 

$$$$
untitled-dbase-119722_300
  -OEChem-06232314393D

 36 37  0     1  0  0  0  0  0999 V2000
  -14.3511   14.7549  -40.3072 C   0  0  0  0  0  0  0  0  0  0  0  0
   -9.9499   14.8342  -37.0532 C   0  0  0  0  0  0  0  0  0  0  0  0
  -12.8352   13.8150  -38.5330 C   0  0  0  0  0  0  0  0  0  0  0  0
  -13.3534   15.9203  -37.5685 C   0  0  0  0  0  0  0  0  0  0  0  0
  -11.2766   16.3218  -38.6285 C   0  0  0  0  0  0  0  0  0  0  0  0
  -12.9939   14.8396  -39.6796 C   0  0  2  0  0  0  0  0  0  0  0  0
  -12.7739   16.1958  -38.9661 C   0  0  1  0  0  0  0  0  0  0  0  0
  -12.4531   14.7090  -37.3382 C   0  0  2  0  0  0  0  0  0  0  0  0
  -10.3088   14.4273  -34.4910 C   0  0  0  0  0  0  0  0  0  0  0  0
  -10.6336   11.9832  -34.9703 C   0  0  0  0  0  0  0  0  0  0  0  0
   -8.3312   12.9818  -35.0691 C   0  0  0  0  0  0  0  0  0  0  0  0
   -9.8200   13.2311  -35.3063 C   0  0  0  0  0  0  0  0  0  0  0  0
  -11.1282   15.2729  -37.6195 N   0  0  0  0  0  0  0  0  0  0  0  0
  -14.7984   13.7737  -40.8822 O   0  0  0  0  0  0  0  0  0  0  0  0
   -8.9568   15.5386  -36.8886 O   0  0  0  0  0  0  0  0  0  0  0  0
  -15.0230   15.9221  -40.1541 O   0  0  0  0  0  0  0  0  0  0  0  0
  -10.0190   13.5146  -36.6956 O   0  0  0  0  0  0  0  0  0  0  0  0
  -13.7684   13.2763  -38.3320 H   0  0  0  0  0  0  0  0  0  0  0  0
  -12.0570   13.0762  -38.7537 H   0  0  0  0  0  0  0  0  0  0  0  0
  -13.1692   16.7340  -36.8584 H   0  0  0  0  0  0  0  0  0  0  0  0
  -14.4202   15.6761  -37.5726 H   0  0  0  0  0  0  0  0  0  0  0  0
  -10.6101   16.1388  -39.4764 H   0  0  0  0  0  0  0  0  0  0  0  0
  -11.0319   17.2834  -38.1656 H   0  0  0  0  0  0  0  0  0  0  0  0
  -12.2546   14.6682  -40.4699 H   0  0  0  0  0  0  0  0  0  0  0  0
  -13.1950   17.0638  -39.4775 H   0  0  0  0  0  0  0  0  0  0  0  0
  -12.5152   14.2210  -36.3639 H   0  0  0  0  0  0  0  0  0  0  0  0
   -9.7273   15.3251  -34.7293 H   0  0  0  0  0  0  0  0  0  0  0  0
  -11.3666   14.6383  -34.6788 H   0  0  0  0  0  0  0  0  0  0  0  0
  -10.1766   14.2493  -33.4177 H   0  0  0  0  0  0  0  0  0  0  0  0
  -10.2863   11.1223  -35.5531 H   0  0  0  0  0  0  0  0  0  0  0  0
  -11.6895   12.1246  -35.2281 H   0  0  0  0  0  0  0  0  0  0  0  0
  -10.5670   11.7316  -33.9069 H   0  0  0  0  0  0  0  0  0  0  0  0
   -7.9803   12.1238  -35.6538 H   0  0  0  0  0  0  0  0  0  0  0  0
   -7.7280   13.8544  -35.3399 H   0  0  0  0  0  0  0  0  0  0  0  0
   -8.1395   12.7387  -34.0177 H   0  0  0  0  0  0  0  0  0  0  0  0
  -15.9150   15.8874  -40.5608 H   0  0  0  0  0  0  0  0  0  0  0  0
  1  6  1  1  0  0  0
  1 14  2  0  0  0  0
  1 16  1  0  0  0  0
  2 13  1  0  0  0  0
  2 15  2  0  0  0  0
  2 17  1  0  0  0  0
  3  6  1  0  0  0  0
  3  8  1  6  0  0  0
  4  7  1  0  0  0  0
  4  8  1  0  0  0  0
  5  7  1  6  0  0  0
  5 13  1  0  0  0  0
  6  7  1  0  0  0  0
  8 13  1  0  0  0  0
  9 12  1  0  0  0  0
 10 12  1  0  0  0  0
 11 12  1  0  0  0  0
 12 17  1  0  0  0  0
  3 18  1  0  0  0  0
  3 19  1  0  0  0  0
  4 20  1  0  0  0  0
  4 21  1  0  0  0  0
  5 22  1  0  0  0  0
  5 23  1  0  0  0  0
  6 24  1  0  0  0  0
  7 25  1  0  0  0  0
  8 26  1  0  0  0  0
  9 27  1  0  0  0  0
  9 28  1  0  0  0  0
  9 29  1  0  0  0  0
 10 30  1  0  0  0  0
 10 31  1  0  0  0  0
 10 32  1  0  0  0  0
 11 33  1  0  0  0  0
 11 34  1  0  0  0  0
 11 35  1  0  0  0  0
 16 36  1  0  0  0  0
M  END
> <id>
EN300-6746125

> <smiles>
CC(C)(C)OC(=O)N1C[C@@H]2C[C@H]1C[C@H]2C(=O)O

> <MDLNUMBER>
MFCD31537164

> <IUPAC Name>
(1S,4R,5R)-2-[(tert-butoxy)carbonyl]-2-azabicyclo[2.2.1]heptane-5-carboxylic acid

> <CAS>
2165408-95-5

> <Purity>
95

> <URL>
https://www.enaminestore.com/catalog/EN300-6746125

> <ROCS_ShapeQuery>
__x1247relevant_x1083L0AP1_x1305L0BP1_

> <ROCS_TanimotoCombo>
0.711 

> <ROCS_ShapeTanimoto>
0.521 

> <ROCS_ColorTanimoto>
0.190 

> <ROCS_RefTversky>
0.444 

> <ROCS_RefColorTversky>
0.220 

> <ROCS_RefTverskyCombo>
0.665 

> <ROCS_FitTversky>
1.495 

> <ROCS_FitColorTversky>
0.576 

> <ROCS_FitTverskyCombo>
2.071 

> <ROCS_ColorScore>
-7.208

> <ROCS_Overlap>
1310.862

> <ROCS_Rank>
475                 

$$$$
untitled-dbase-157341_300
  -OEChem-06232314393D

 36 37  0     1  0  0  0  0  0999 V2000
  -14.3511   14.7549  -40.3072 C   0  0  0  0  0  0  0  0  0  0  0  0
   -9.9499   14.8342  -37.0532 C   0  0  0  0  0  0  0  0  0  0  0  0
  -12.8352   13.8150  -38.5330 C   0  0  0  0  0  0  0  0  0  0  0  0
  -13.3534   15.9203  -37.5685 C   0  0  0  0  0  0  0  0  0  0  0  0
  -11.2766   16.3218  -38.6285 C   0  0  0  0  0  0  0  0  0  0  0  0
  -12.9939   14.8396  -39.6796 C   0  0  2  0  0  0  0  0  0  0  0  0
  -12.7739   16.1958  -38.9661 C   0  0  1  0  0  0  0  0  0  0  0  0
  -12.4531   14.7090  -37.3382 C   0  0  2  0  0  0  0  0  0  0  0  0
  -10.3088   14.4273  -34.4910 C   0  0  0  0  0  0  0  0  0  0  0  0
  -10.6336   11.9832  -34.9703 C   0  0  0  0  0  0  0  0  0  0  0  0
   -8.3312   12.9818  -35.0691 C   0  0  0  0  0  0  0  0  0  0  0  0
   -9.8200   13.2311  -35.3063 C   0  0  0  0  0  0  0  0  0  0  0  0
  -11.1282   15.2729  -37.6195 N   0  0  0  0  0  0  0  0  0  0  0  0
  -14.7984   13.7737  -40.8822 O   0  0  0  0  0  0  0  0  0  0  0  0
   -8.9568   15.5386  -36.8886 O   0  0  0  0  0  0  0  0  0  0  0  0
  -15.0230   15.9221  -40.1541 O   0  0  0  0  0  0  0  0  0  0  0  0
  -10.0190   13.5146  -36.6956 O   0  0  0  0  0  0  0  0  0  0  0  0
  -13.7684   13.2763  -38.3320 H   0  0  0  0  0  0  0  0  0  0  0  0
  -12.0570   13.0762  -38.7537 H   0  0  0  0  0  0  0  0  0  0  0  0
  -13.1692   16.7340  -36.8584 H   0  0  0  0  0  0  0  0  0  0  0  0
  -14.4202   15.6761  -37.5726 H   0  0  0  0  0  0  0  0  0  0  0  0
  -10.6101   16.1388  -39.4764 H   0  0  0  0  0  0  0  0  0  0  0  0
  -11.0319   17.2834  -38.1656 H   0  0  0  0  0  0  0  0  0  0  0  0
  -12.2546   14.6682  -40.4699 H   0  0  0  0  0  0  0  0  0  0  0  0
  -13.1950   17.0638  -39.4775 H   0  0  0  0  0  0  0  0  0  0  0  0
  -12.5152   14.2210  -36.3639 H   0  0  0  0  0  0  0  0  0  0  0  0
   -9.7273   15.3251  -34.7293 H   0  0  0  0  0  0  0  0  0  0  0  0
  -11.3666   14.6383  -34.6788 H   0  0  0  0  0  0  0  0  0  0  0  0
  -10.1766   14.2493  -33.4177 H   0  0  0  0  0  0  0  0  0  0  0  0
  -10.2863   11.1223  -35.5531 H   0  0  0  0  0  0  0  0  0  0  0  0
  -11.6895   12.1246  -35.2281 H   0  0  0  0  0  0  0  0  0  0  0  0
  -10.5670   11.7316  -33.9069 H   0  0  0  0  0  0  0  0  0  0  0  0
   -7.9803   12.1238  -35.6538 H   0  0  0  0  0  0  0  0  0  0  0  0
   -7.7280   13.8544  -35.3399 H   0  0  0  0  0  0  0  0  0  0  0  0
   -8.1395   12.7387  -34.0177 H   0  0  0  0  0  0  0  0  0  0  0  0
  -15.9150   15.8874  -40.5608 H   0  0  0  0  0  0  0  0  0  0  0  0
  1  6  1  1  0  0  0
  1 14  2  0  0  0  0
  1 16  1  0  0  0  0
  2 13  1  0  0  0  0
  2 15  2  0  0  0  0
  2 17  1  0  0  0  0
  3  6  1  0  0  0  0
  3  8  1  6  0  0  0
  4  7  1  0  0  0  0
  4  8  1  0  0  0  0
  5  7  1  6  0  0  0
  5 13  1  0  0  0  0
  6  7  1  0  0  0  0
  8 13  1  0  0  0  0
  9 12  1  0  0  0  0
 10 12  1  0  0  0  0
 11 12  1  0  0  0  0
 12 17  1  0  0  0  0
  3 18  1  0  0  0  0
  3 19  1  0  0  0  0
  4 20  1  0  0  0  0
  4 21  1  0  0  0  0
  5 22  1  0  0  0  0
  5 23  1  0  0  0  0
  6 24  1  0  0  0  0
  7 25  1  0  0  0  0
  8 26  1  0  0  0  0
  9 27  1  0  0  0  0
  9 28  1  0  0  0  0
  9 29  1  0  0  0  0
 10 30  1  0  0  0  0
 10 31  1  0  0  0  0
 10 32  1  0  0  0  0
 11 33  1  0  0  0  0
 11 34  1  0  0  0  0
 11 35  1  0  0  0  0
 16 36  1  0  0  0  0
M  END
> <id>
EN300-7352104

> <smiles>
CC(C)(C)OC(=O)N1C[C@@H]2C[C@H]1C[C@H]2C(=O)O |&1:9,11,13,r|

> <IUPAC Name>
rac-(1R,4S,5S)-2-[(tert-butoxy)carbonyl]-2-azabicyclo[2.2.1]heptane-5-carboxylic acid

> <CAS>
2165408-95-5

> <Purity>
95

> <URL>
https://www.enaminestore.com/catalog/EN300-7352104

> <ROCS_ShapeQuery>
__x1247relevant_x1083L0AP1_x1305L0BP1_

> <ROCS_TanimotoCombo>
0.711 

> <ROCS_ShapeTanimoto>
0.521 

> <ROCS_ColorTanimoto>
0.190 

> <ROCS_RefTversky>
0.444 

> <ROCS_RefColorTversky>
0.220 

> <ROCS_RefTverskyCombo>
0.665 

> <ROCS_FitTversky>
1.495 

> <ROCS_FitColorTversky>
0.576 

> <ROCS_FitTverskyCombo>
2.071 

> <ROCS_ColorScore>
-7.208

> <ROCS_Overlap>
1310.862

> <ROCS_Rank>
476                 

$$$$
untitled-dbase-122281_11
  -OEChem-06232314393D

 38 40  0     1  0  0  0  0  0999 V2000
   -9.9532   14.8865  -36.9427 C   0  0  0  0  0  0  0  0  0  0  0  0
  -14.0281   15.5475  -37.6572 C   0  0  0  0  0  0  0  0  0  0  0  0
  -13.3888   14.1685  -37.4167 C   0  0  0  0  0  0  0  0  0  0  0  0
  -11.8605   16.4573  -40.7762 C   0  0  0  0  0  0  0  0  0  0  0  0
  -10.9459   14.3446  -40.4599 C   0  0  0  0  0  0  0  0  0  0  0  0
  -11.7424   16.5175  -37.6815 C   0  0  0  0  0  0  0  0  0  0  0  0
  -13.0609   16.4337  -38.4712 C   0  0  1  0  0  0  0  0  0  0  0  0
  -12.8417   15.7461  -39.8445 C   0  0  2  0  0  0  0  0  0  0  0  0
  -12.2272   14.3427  -39.6273 C   0  0  2  0  0  0  0  0  0  0  0  0
  -12.0157   14.0993  -38.1127 C   0  0  1  0  0  0  0  0  0  0  0  0
   -8.7500   12.7161  -36.9350 C   0  0  0  0  0  0  0  0  0  0  0  0
   -9.6023   13.6973  -34.7834 C   0  0  0  0  0  0  0  0  0  0  0  0
   -9.8505   13.5364  -36.2772 C   0  0  0  0  0  0  0  0  0  0  0  0
  -10.5915   15.7555  -40.5931 N   0  0  0  0  0  0  0  0  0  0  0  0
  -11.1726   15.1705  -37.5487 N   0  0  0  0  0  0  0  0  0  0  0  0
   -8.9921   15.6577  -36.9203 O   0  0  0  0  0  0  0  0  0  0  0  0
  -14.9798   15.4315  -38.1891 H   0  0  0  0  0  0  0  0  0  0  0  0
  -14.2606   16.0204  -36.6956 H   0  0  0  0  0  0  0  0  0  0  0  0
  -13.2776   13.9900  -36.3401 H   0  0  0  0  0  0  0  0  0  0  0  0
  -14.0497   13.3810  -37.7976 H   0  0  0  0  0  0  0  0  0  0  0  0
  -12.1900   16.3499  -41.8171 H   0  0  0  0  0  0  0  0  0  0  0  0
  -11.7655   17.5258  -40.5621 H   0  0  0  0  0  0  0  0  0  0  0  0
  -10.1374   13.7670  -40.0022 H   0  0  0  0  0  0  0  0  0  0  0  0
  -11.1444   13.9214  -41.4521 H   0  0  0  0  0  0  0  0  0  0  0  0
  -11.0142   17.1703  -38.1721 H   0  0  0  0  0  0  0  0  0  0  0  0
  -11.9151   16.9159  -36.6750 H   0  0  0  0  0  0  0  0  0  0  0  0
  -13.4875   17.4335  -38.6071 H   0  0  0  0  0  0  0  0  0  0  0  0
  -13.8102   15.6541  -40.3532 H   0  0  0  0  0  0  0  0  0  0  0  0
  -12.9057   13.5733  -40.0181 H   0  0  0  0  0  0  0  0  0  0  0  0
  -11.5568   13.1194  -37.9448 H   0  0  0  0  0  0  0  0  0  0  0  0
   -7.7676   13.1875  -36.8182 H   0  0  0  0  0  0  0  0  0  0  0  0
   -8.9365   12.5898  -38.0073 H   0  0  0  0  0  0  0  0  0  0  0  0
   -8.6998   11.7182  -36.4862 H   0  0  0  0  0  0  0  0  0  0  0  0
   -8.6498   14.2041  -34.5920 H   0  0  0  0  0  0  0  0  0  0  0  0
   -9.5776   12.7299  -34.2688 H   0  0  0  0  0  0  0  0  0  0  0  0
  -10.3968   14.2993  -34.3295 H   0  0  0  0  0  0  0  0  0  0  0  0
  -10.8077   13.0281  -36.4198 H   0  0  0  0  0  0  0  0  0  0  0  0
   -9.9775   15.9017  -41.3921 H   0  0  0  0  0  0  0  0  0  0  0  0
  1 13  1  0  0  0  0
  1 15  1  0  0  0  0
  1 16  2  0  0  0  0
  2  3  1  0  0  0  0
  2  7  1  0  0  0  0
  3 10  1  0  0  0  0
  4  8  1  0  0  0  0
  4 14  1  0  0  0  0
  5  9  1  0  0  0  0
  5 14  1  0  0  0  0
  6  7  1  0  0  0  0
  6 15  1  0  0  0  0
  7  8  1  0  0  0  0
  8  9  1  0  0  0  0
  9 10  1  0  0  0  0
 10 15  1  0  0  0  0
 11 13  1  0  0  0  0
 12 13  1  0  0  0  0
  2 17  1  0  0  0  0
  2 18  1  0  0  0  0
  3 19  1  0  0  0  0
  3 20  1  0  0  0  0
  4 21  1  0  0  0  0
  4 22  1  0  0  0  0
  5 23  1  0  0  0  0
  5 24  1  0  0  0  0
  6 25  1  0  0  0  0
  6 26  1  0  0  0  0
  7 27  1  0  0  0  0
  8 28  1  0  0  0  0
  9 29  1  0  0  0  0
 10 30  1  0  0  0  0
 11 31  1  0  0  0  0
 11 32  1  0  0  0  0
 11 33  1  0  0  0  0
 12 34  1  0  0  0  0
 12 35  1  0  0  0  0
 12 36  1  0  0  0  0
 13 37  1  0  0  0  0
 14 38  1  0  0  0  0
M  END
> <id>
EN300-340798

> <smiles>
CC(C)C(=O)N1CC2CCC1C3CNCC32

> <MDLNUMBER>
MFCD30501246

> <IUPAC Name>
1-{4,8-diazatricyclo[5.2.2.0,2,6]undecan-8-yl}-2-methylpropan-1-one

> <CAS>
2059945-10-5

> <URL>
https://www.enaminestore.com/catalog/EN300-340798

> <ROCS_ShapeQuery>
__x1247relevant_x1083L0AP1_x1305L0BP1_

> <ROCS_TanimotoCombo>
0.711 

> <ROCS_ShapeTanimoto>
0.504 

> <ROCS_ColorTanimoto>
0.207 

> <ROCS_RefTversky>
0.429 

> <ROCS_RefColorTversky>
0.236 

> <ROCS_RefTverskyCombo>
0.665 

> <ROCS_FitTversky>
1.523 

> <ROCS_FitColorTversky>
0.629 

> <ROCS_FitTverskyCombo>
2.153 

> <ROCS_ColorScore>
-7.711

> <ROCS_Overlap>
1265.381

> <ROCS_Rank>
477                 

$$$$
untitled-dbase-49127_37
  -OEChem-06232314393D

 37 39  0     1  0  0  0  0  0999 V2000
   -8.8607   15.9090  -35.8664 C   0  0  0  0  0  0  0  0  0  0  0  0
  -14.3876   15.9853  -37.9199 C   0  0  0  0  0  0  0  0  0  0  0  0
  -13.5873   16.8648  -38.8815 C   0  0  0  0  0  0  0  0  0  0  0  0
   -9.7733   14.7448  -35.4208 C   0  0  0  0  0  0  0  0  0  0  0  0
   -8.8182   15.2609  -37.2682 C   0  0  0  0  0  0  0  0  0  0  0  0
  -12.6472   14.2259  -37.2561 C   0  0  0  0  0  0  0  0  0  0  0  0
  -11.3041   15.7009  -38.8631 C   0  0  0  0  0  0  0  0  0  0  0  0
  -13.8537   14.5699  -38.1582 C   0  0  2  0  0  0  0  0  0  0  0  0
  -12.6484   15.8926  -39.6013 C   0  0  1  0  0  0  0  0  0  0  0  0
  -10.1594   14.5694  -36.9121 C   0  0  0  0  0  0  0  0  0  0  0  0
  -11.4607   15.2071  -37.4065 C   0  0  0  0  0  0  0  0  0  0  0  0
  -14.4005   14.4680  -40.5392 C   0  0  0  0  0  0  0  0  0  0  0  0
  -13.3421   14.5935  -39.5403 N   0  0  0  0  0  0  0  0  0  0  0  0
  -10.0501   13.1514  -37.2516 N   0  0  0  0  0  0  0  0  0  0  0  0
  -11.6932   16.3522  -36.5775 O   0  0  0  0  0  0  0  0  0  0  0  0
   -9.3520   16.8885  -35.8470 H   0  0  0  0  0  0  0  0  0  0  0  0
   -7.9007   15.9837  -35.3493 H   0  0  0  0  0  0  0  0  0  0  0  0
  -14.2873   16.3104  -36.8799 H   0  0  0  0  0  0  0  0  0  0  0  0
  -15.4524   16.0431  -38.1756 H   0  0  0  0  0  0  0  0  0  0  0  0
  -14.2719   17.3386  -39.5952 H   0  0  0  0  0  0  0  0  0  0  0  0
  -13.0539   17.6668  -38.3619 H   0  0  0  0  0  0  0  0  0  0  0  0
   -9.2136   13.9178  -34.9657 H   0  0  0  0  0  0  0  0  0  0  0  0
  -10.5844   15.0265  -34.7428 H   0  0  0  0  0  0  0  0  0  0  0  0
   -8.8473   15.9660  -38.1043 H   0  0  0  0  0  0  0  0  0  0  0  0
   -7.9540   14.5984  -37.4035 H   0  0  0  0  0  0  0  0  0  0  0  0
  -12.9795   14.2019  -36.2102 H   0  0  0  0  0  0  0  0  0  0  0  0
  -12.3183   13.2076  -37.5056 H   0  0  0  0  0  0  0  0  0  0  0  0
  -10.7062   14.9773  -39.4339 H   0  0  0  0  0  0  0  0  0  0  0  0
  -10.7502   16.6481  -38.8816 H   0  0  0  0  0  0  0  0  0  0  0  0
  -14.6311   13.8119  -38.0078 H   0  0  0  0  0  0  0  0  0  0  0  0
  -12.4414   16.2136  -40.6288 H   0  0  0  0  0  0  0  0  0  0  0  0
  -13.9594   14.4920  -41.5465 H   0  0  0  0  0  0  0  0  0  0  0  0
  -14.9306   13.5151  -40.3937 H   0  0  0  0  0  0  0  0  0  0  0  0
  -15.1091   15.3022  -40.4293 H   0  0  0  0  0  0  0  0  0  0  0  0
   -9.1123   12.8694  -37.0961 H   0  0  0  0  0  0  0  0  0  0  0  0
  -10.6720   12.6470  -36.6668 H   0  0  0  0  0  0  0  0  0  0  0  0
  -11.7619   16.0219  -35.6694 H   0  0  0  0  0  0  0  0  0  0  0  0
  1  4  1  0  0  0  0
  1  5  1  0  0  0  0
  2  3  1  0  0  0  0
  2  8  1  0  0  0  0
  3  9  1  0  0  0  0
  4 10  1  0  0  0  0
  5 10  1  0  0  0  0
  6  8  1  0  0  0  0
  6 11  1  0  0  0  0
  7  9  1  0  0  0  0
  7 11  1  0  0  0  0
  8 13  1  0  0  0  0
  9 13  1  0  0  0  0
 10 11  1  0  0  0  0
 10 14  1  0  0  0  0
 11 15  1  0  0  0  0
 12 13  1  0  0  0  0
  1 16  1  0  0  0  0
  1 17  1  0  0  0  0
  2 18  1  0  0  0  0
  2 19  1  0  0  0  0
  3 20  1  0  0  0  0
  3 21  1  0  0  0  0
  4 22  1  0  0  0  0
  4 23  1  0  0  0  0
  5 24  1  0  0  0  0
  5 25  1  0  0  0  0
  6 26  1  0  0  0  0
  6 27  1  0  0  0  0
  7 28  1  0  0  0  0
  7 29  1  0  0  0  0
  8 30  1  0  0  0  0
  9 31  1  0  0  0  0
 12 32  1  0  0  0  0
 12 33  1  0  0  0  0
 12 34  1  0  0  0  0
 14 35  1  0  0  0  0
 14 36  1  0  0  0  0
 15 37  1  0  0  0  0
M  END
> <id>
EN300-1647603

> <smiles>
CN1C2CCC1CC(O)(C2)C3(N)CCC3

> <IUPAC Name>
3-(1-aminocyclobutyl)-8-methyl-8-azabicyclo[3.2.1]octan-3-ol

> <CAS>
2171616-44-5

> <URL>
https://www.enaminestore.com/catalog/EN300-1647603

> <ROCS_ShapeQuery>
__x1247relevant_x1083L0AP1_x1305L0BP1_

> <ROCS_TanimotoCombo>
0.711 

> <ROCS_ShapeTanimoto>
0.529 

> <ROCS_ColorTanimoto>
0.181 

> <ROCS_RefTversky>
0.439 

> <ROCS_RefColorTversky>
0.214 

> <ROCS_RefTverskyCombo>
0.653 

> <ROCS_FitTversky>
1.639 

> <ROCS_FitColorTversky>
0.543 

> <ROCS_FitTverskyCombo>
2.182 

> <ROCS_ColorScore>
-7.005

> <ROCS_Overlap>
1292.068

> <ROCS_Rank>
478                 

$$$$
untitled-dbase-155345_42
  -OEChem-06232314393D

 29 30  0     1  0  0  0  0  0999 V2000
  -12.0065   16.9014  -40.3708 C   0  0  0  0  0  0  0  0  0  0  0  0
  -10.1928   14.6207  -36.4054 C   0  0  0  0  0  0  0  0  0  0  0  0
  -13.4853   13.8786  -38.7891 C   0  0  0  0  0  0  0  0  0  0  0  0
  -12.4863   14.5069  -39.7714 C   0  0  0  0  0  0  0  0  0  0  0  0
  -13.5768   16.2481  -38.5361 C   0  0  0  0  0  0  0  0  0  0  0  0
  -12.6994   14.9152  -36.6110 C   0  0  0  0  0  0  0  0  0  0  0  0
  -11.1123   15.9889  -38.2370 C   0  0  0  0  0  0  0  0  0  0  0  0
  -13.7482   14.9635  -37.7348 C   0  0  2  0  0  0  0  0  0  0  0  0
  -12.2638   15.9389  -39.2522 C   0  0  2  0  0  0  0  0  0  0  0  0
   -8.9997   14.2403  -37.2466 C   0  0  0  0  0  0  0  0  0  0  0  0
  -11.3169   15.0876  -37.0935 N   0  0  0  0  0  0  0  0  0  0  0  0
  -12.7796   17.1344  -41.2881 O   0  0  0  0  0  0  0  0  0  0  0  0
  -10.1287   14.5136  -35.1781 O   0  0  0  0  0  0  0  0  0  0  0  0
  -10.7903   17.4834  -40.2314 O   0  0  0  0  0  0  0  0  0  0  0  0
   -9.2622   14.4331  -38.5512 F   0  0  0  0  0  0  0  0  0  0  0  0
   -7.9306   14.9858  -36.9160 F   0  0  0  0  0  0  0  0  0  0  0  0
   -8.6838   12.9457  -37.0660 F   0  0  0  0  0  0  0  0  0  0  0  0
  -14.4143   13.6385  -39.3202 H   0  0  0  0  0  0  0  0  0  0  0  0
  -13.1048   12.9485  -38.3545 H   0  0  0  0  0  0  0  0  0  0  0  0
  -11.5542   13.9317  -39.8131 H   0  0  0  0  0  0  0  0  0  0  0  0
  -12.9098   14.5015  -40.7832 H   0  0  0  0  0  0  0  0  0  0  0  0
  -14.4051   16.3854  -39.2426 H   0  0  0  0  0  0  0  0  0  0  0  0
  -13.5233   17.1423  -37.9053 H   0  0  0  0  0  0  0  0  0  0  0  0
  -12.8829   15.7224  -35.8918 H   0  0  0  0  0  0  0  0  0  0  0  0
  -12.7936   13.9691  -36.0708 H   0  0  0  0  0  0  0  0  0  0  0  0
  -10.1589   15.7490  -38.7237 H   0  0  0  0  0  0  0  0  0  0  0  0
  -11.0042   17.0014  -37.8270 H   0  0  0  0  0  0  0  0  0  0  0  0
  -14.7526   14.8755  -37.3088 H   0  0  0  0  0  0  0  0  0  0  0  0
  -10.6019   18.1168  -40.9564 H   0  0  0  0  0  0  0  0  0  0  0  0
  1  9  1  0  0  0  0
  1 12  2  0  0  0  0
  1 14  1  0  0  0  0
  2 10  1  0  0  0  0
  2 11  1  0  0  0  0
  2 13  2  0  0  0  0
  3  4  1  0  0  0  0
  3  8  1  0  0  0  0
  4  9  1  0  0  0  0
  5  8  1  0  0  0  0
  5  9  1  0  0  0  0
  6  8  1  0  0  0  0
  6 11  1  0  0  0  0
  7  9  1  0  0  0  0
  7 11  1  0  0  0  0
 10 15  1  0  0  0  0
 10 16  1  0  0  0  0
 10 17  1  0  0  0  0
  3 18  1  0  0  0  0
  3 19  1  0  0  0  0
  4 20  1  0  0  0  0
  4 21  1  0  0  0  0
  5 22  1  0  0  0  0
  5 23  1  0  0  0  0
  6 24  1  0  0  0  0
  6 25  1  0  0  0  0
  7 26  1  0  0  0  0
  7 27  1  0  0  0  0
  8 28  1  0  0  0  0
 14 29  1  0  0  0  0
M  END
> <id>
EN300-28278758

> <smiles>
OC(=O)C1(CCC2C1)CN(C2)C(=O)C(F)(F)F

> <IUPAC Name>
3-(trifluoroacetyl)-3-azabicyclo[3.2.1]octane-1-carboxylic acid

> <CAS>
2680904-08-7

> <URL>
https://www.enaminestore.com/catalog/EN300-28278758

> <ROCS_ShapeQuery>
__x1247relevant_x1083L0AP1_x1305L0BP1_

> <ROCS_TanimotoCombo>
0.711 

> <ROCS_ShapeTanimoto>
0.516 

> <ROCS_ColorTanimoto>
0.195 

> <ROCS_RefTversky>
0.443 

> <ROCS_RefColorTversky>
0.218 

> <ROCS_RefTverskyCombo>
0.661 

> <ROCS_FitTversky>
1.468 

> <ROCS_FitColorTversky>
0.645 

> <ROCS_FitTverskyCombo>
2.113 

> <ROCS_ColorScore>
-7.113

> <ROCS_Overlap>
1307.224

> <ROCS_Rank>
479                 

$$$$
untitled-dbase-49391_10
  -OEChem-06232314393D

 37 39  0     1  0  0  0  0  0999 V2000
   -8.5200   15.6234  -36.8492 C   0  0  0  0  0  0  0  0  0  0  0  0
   -8.8849   15.1417  -35.4450 C   0  0  0  0  0  0  0  0  0  0  0  0
   -9.7852   15.4719  -37.6923 C   0  0  0  0  0  0  0  0  0  0  0  0
  -10.3536   14.7254  -35.5074 C   0  0  0  0  0  0  0  0  0  0  0  0
  -13.8587   14.1943  -39.0955 C   0  0  0  0  0  0  0  0  0  0  0  0
  -11.7598   15.3478  -39.6786 C   0  0  0  0  0  0  0  0  0  0  0  0
  -14.4338   15.5381  -38.6207 C   0  0  0  0  0  0  0  0  0  0  0  0
  -12.3814   16.6652  -39.1878 C   0  0  0  0  0  0  0  0  0  0  0  0
  -12.7040   15.8002  -36.9617 C   0  0  0  0  0  0  0  0  0  0  0  0
  -12.3349   14.1832  -38.8561 C   0  0  0  0  0  0  0  0  0  0  0  0
  -10.5985   14.3846  -36.9814 C   0  0  0  0  0  0  0  0  0  0  0  0
  -12.0780   14.4379  -37.3481 C   0  0  1  0  0  0  0  0  0  0  0  0
  -13.3779   16.4421  -38.1170 N   0  0  0  0  0  0  0  0  0  0  0  0
  -10.0744   13.0678  -37.2949 N   0  0  0  0  0  0  0  0  0  0  0  0
  -12.7295   13.4155  -36.5853 O   0  0  0  0  0  0  0  0  0  0  0  0
   -8.1702   16.6610  -36.8441 H   0  0  0  0  0  0  0  0  0  0  0  0
   -7.7100   15.0076  -37.2571 H   0  0  0  0  0  0  0  0  0  0  0  0
   -8.2550   14.2889  -35.1667 H   0  0  0  0  0  0  0  0  0  0  0  0
   -8.7266   15.9226  -34.6941 H   0  0  0  0  0  0  0  0  0  0  0  0
  -10.3343   16.4224  -37.6922 H   0  0  0  0  0  0  0  0  0  0  0  0
   -9.5542   15.2306  -38.7357 H   0  0  0  0  0  0  0  0  0  0  0  0
  -10.5723   13.8956  -34.8262 H   0  0  0  0  0  0  0  0  0  0  0  0
  -10.9813   15.5719  -35.2001 H   0  0  0  0  0  0  0  0  0  0  0  0
  -14.3432   13.3670  -38.5645 H   0  0  0  0  0  0  0  0  0  0  0  0
  -14.0710   14.0542  -40.1624 H   0  0  0  0  0  0  0  0  0  0  0  0
  -11.9905   15.2032  -40.7413 H   0  0  0  0  0  0  0  0  0  0  0  0
  -10.6686   15.3873  -39.5976 H   0  0  0  0  0  0  0  0  0  0  0  0
  -14.9750   16.0235  -39.4424 H   0  0  0  0  0  0  0  0  0  0  0  0
  -15.1818   15.3692  -37.8360 H   0  0  0  0  0  0  0  0  0  0  0  0
  -11.5941   17.3386  -38.8264 H   0  0  0  0  0  0  0  0  0  0  0  0
  -12.8534   17.1904  -40.0275 H   0  0  0  0  0  0  0  0  0  0  0  0
  -13.4284   15.6835  -36.1453 H   0  0  0  0  0  0  0  0  0  0  0  0
  -11.9417   16.4921  -36.5814 H   0  0  0  0  0  0  0  0  0  0  0  0
  -11.9186   13.2224  -39.1783 H   0  0  0  0  0  0  0  0  0  0  0  0
  -10.1339   12.9433  -38.2755 H   0  0  0  0  0  0  0  0  0  0  0  0
   -9.1334   13.0357  -36.9882 H   0  0  0  0  0  0  0  0  0  0  0  0
  -12.3180   12.5801  -36.8482 H   0  0  0  0  0  0  0  0  0  0  0  0
  1  2  1  0  0  0  0
  1  3  1  0  0  0  0
  2  4  1  0  0  0  0
  3 11  1  0  0  0  0
  4 11  1  0  0  0  0
  5  7  1  0  0  0  0
  5 10  1  0  0  0  0
  6  8  1  0  0  0  0
  6 10  1  0  0  0  0
  7 13  1  0  0  0  0
  8 13  1  0  0  0  0
  9 12  1  0  0  0  0
  9 13  1  0  0  0  0
 10 12  1  0  0  0  0
 11 12  1  0  0  0  0
 11 14  1  0  0  0  0
 12 15  1  0  0  0  0
  1 16  1  0  0  0  0
  1 17  1  0  0  0  0
  2 18  1  0  0  0  0
  2 19  1  0  0  0  0
  3 20  1  0  0  0  0
  3 21  1  0  0  0  0
  4 22  1  0  0  0  0
  4 23  1  0  0  0  0
  5 24  1  0  0  0  0
  5 25  1  0  0  0  0
  6 26  1  0  0  0  0
  6 27  1  0  0  0  0
  7 28  1  0  0  0  0
  7 29  1  0  0  0  0
  8 30  1  0  0  0  0
  8 31  1  0  0  0  0
  9 32  1  0  0  0  0
  9 33  1  0  0  0  0
 10 34  1  0  0  0  0
 14 35  1  0  0  0  0
 14 36  1  0  0  0  0
 15 37  1  0  0  0  0
M  END
> <id>
EN300-1647528

> <smiles>
NC1(CCCC1)C2(O)CN3CCC2CC3

> <IUPAC Name>
3-(1-aminocyclopentyl)-1-azabicyclo[2.2.2]octan-3-ol

> <CAS>
2171753-98-1

> <URL>
https://www.enaminestore.com/catalog/EN300-1647528

> <ROCS_ShapeQuery>
__x1247relevant_x1083L0AP1_x1305L0BP1_

> <ROCS_TanimotoCombo>
0.711 

> <ROCS_ShapeTanimoto>
0.517 

> <ROCS_ColorTanimoto>
0.194 

> <ROCS_RefTversky>
0.433 

> <ROCS_RefColorTversky>
0.227 

> <ROCS_RefTverskyCombo>
0.660 

> <ROCS_FitTversky>
1.604 

> <ROCS_FitColorTversky>
0.566 

> <ROCS_FitTverskyCombo>
2.170 

> <ROCS_ColorScore>
-7.451

> <ROCS_Overlap>
1274.109

> <ROCS_Rank>
480                 

$$$$
untitled-dbase-170289_5
  -OEChem-06232314393D

 30 32  0     0  0  0  0  0  0999 V2000
   -9.8703   14.6656  -37.2418 C   0  0  0  0  0  0  0  0  0  0  0  0
  -13.2025   16.9381  -38.7746 C   0  0  0  0  0  0  0  0  0  0  0  0
  -13.2678   14.7061  -39.9173 C   0  0  0  0  0  0  0  0  0  0  0  0
  -14.1711   14.9501  -37.5905 C   0  0  0  0  0  0  0  0  0  0  0  0
  -11.0762   15.6683  -39.1696 C   0  0  0  0  0  0  0  0  0  0  0  0
  -11.9811   15.9127  -36.8388 C   0  0  0  0  0  0  0  0  0  0  0  0
  -12.0452   13.6778  -37.9832 C   0  0  0  0  0  0  0  0  0  0  0  0
  -12.4613   16.0056  -39.7482 C   0  0  0  0  0  0  0  0  0  0  0  0
  -13.3699   16.2511  -37.4082 C   0  0  0  0  0  0  0  0  0  0  0  0
  -13.4348   14.0062  -38.5572 C   0  0  0  0  0  0  0  0  0  0  0  0
  -11.2292   14.9727  -37.8021 C   0  0  0  0  0  0  0  0  0  0  0  0
   -9.2236   12.7161  -34.7693 N   0  5  0  0  0  0  0  0  0  0  0  0
   -9.6808   13.3157  -37.0335 N   0  0  0  0  0  0  0  0  0  0  0  0
   -9.4426   13.0097  -35.8500 N   0  3  0  0  0  0  0  0  0  0  0  0
   -9.0620   15.5651  -37.0177 O   0  0  0  0  0  0  0  0  0  0  0  0
  -12.6451   17.8754  -38.6565 H   0  0  0  0  0  0  0  0  0  0  0  0
  -14.1856   17.2008  -39.1839 H   0  0  0  0  0  0  0  0  0  0  0  0
  -14.2522   14.9299  -40.3464 H   0  0  0  0  0  0  0  0  0  0  0  0
  -12.7577   14.0379  -40.6219 H   0  0  0  0  0  0  0  0  0  0  0  0
  -14.3114   14.4576  -36.6204 H   0  0  0  0  0  0  0  0  0  0  0  0
  -15.1713   15.1780  -37.9790 H   0  0  0  0  0  0  0  0  0  0  0  0
  -10.5261   15.0225  -39.8667 H   0  0  0  0  0  0  0  0  0  0  0  0
  -10.4818   16.5860  -39.0680 H   0  0  0  0  0  0  0  0  0  0  0  0
  -11.4087   16.8361  -36.6797 H   0  0  0  0  0  0  0  0  0  0  0  0
  -12.0854   15.4433  -35.8518 H   0  0  0  0  0  0  0  0  0  0  0  0
  -12.1519   13.1553  -37.0234 H   0  0  0  0  0  0  0  0  0  0  0  0
  -11.5192   12.9849  -38.6531 H   0  0  0  0  0  0  0  0  0  0  0  0
  -12.3469   16.4994  -40.7194 H   0  0  0  0  0  0  0  0  0  0  0  0
  -13.8998   16.9190  -36.7202 H   0  0  0  0  0  0  0  0  0  0  0  0
  -14.0106   13.0829  -38.6839 H   0  0  0  0  0  0  0  0  0  0  0  0
  1 11  1  0  0  0  0
  1 13  1  0  0  0  0
  1 15  2  0  0  0  0
  2  8  1  0  0  0  0
  2  9  1  0  0  0  0
  3  8  1  0  0  0  0
  3 10  1  0  0  0  0
  4  9  1  0  0  0  0
  4 10  1  0  0  0  0
  5  8  1  0  0  0  0
  5 11  1  0  0  0  0
  6  9  1  0  0  0  0
  6 11  1  0  0  0  0
  7 10  1  0  0  0  0
  7 11  1  0  0  0  0
 12 14  2  0  0  0  0
 13 14  2  0  0  0  0
  2 16  1  0  0  0  0
  2 17  1  0  0  0  0
  3 18  1  0  0  0  0
  3 19  1  0  0  0  0
  4 20  1  0  0  0  0
  4 21  1  0  0  0  0
  5 22  1  0  0  0  0
  5 23  1  0  0  0  0
  6 24  1  0  0  0  0
  6 25  1  0  0  0  0
  7 26  1  0  0  0  0
  7 27  1  0  0  0  0
  8 28  1  0  0  0  0
  9 29  1  0  0  0  0
 10 30  1  0  0  0  0
M  CHG  2  12  -1  14   1
M  END
> <id>
EN300-1263307

> <smiles>
[N-]=[N+]=NC(=O)C1(CC2CC3CC(C2)C1)C3

> <IUPAC Name>
adamantane-1-carbonyl azide

> <CAS>
26496-33-3

> <Purity>
95

> <URL>
https://www.enaminestore.com/catalog/EN300-1263307

> <MP>
68-70

> <ROCS_ShapeQuery>
__x1247relevant_x1083L0AP1_x1305L0BP1_

> <ROCS_TanimotoCombo>
0.710 

> <ROCS_ShapeTanimoto>
0.513 

> <ROCS_ColorTanimoto>
0.197 

> <ROCS_RefTversky>
0.432 

> <ROCS_RefColorTversky>
0.214 

> <ROCS_RefTverskyCombo>
0.646 

> <ROCS_FitTversky>
1.583 

> <ROCS_FitColorTversky>
0.715 

> <ROCS_FitTverskyCombo>
2.299 

> <ROCS_ColorScore>
-6.969

> <ROCS_Overlap>
1271.534

> <ROCS_Rank>
481                 

$$$$
untitled-dbase-109416_6
  -OEChem-06232314393D

 35 37  0     1  0  0  0  0  0999 V2000
  -13.6815   16.5853  -38.0922 C   0  0  0  0  0  0  0  0  0  0  0  0
  -13.4173   14.2387  -37.3854 C   0  0  0  0  0  0  0  0  0  0  0  0
   -9.0039   15.3744  -36.8730 C   0  0  0  0  0  0  0  0  0  0  0  0
  -13.5915   16.1263  -39.5561 C   0  0  0  0  0  0  0  0  0  0  0  0
  -13.3303   13.8331  -38.8654 C   0  0  0  0  0  0  0  0  0  0  0  0
  -11.3857   15.2086  -39.2319 C   0  0  0  0  0  0  0  0  0  0  0  0
   -8.4446   14.7585  -35.6054 C   0  0  0  0  0  0  0  0  0  0  0  0
  -10.7727   14.8115  -35.4344 C   0  0  0  0  0  0  0  0  0  0  0  0
  -12.8269   15.6478  -37.2146 C   0  0  0  0  0  0  0  0  0  0  0  0
  -10.4189   14.8224  -36.9186 C   0  0  1  0  0  0  0  0  0  0  0  0
  -11.3730   15.6689  -37.7537 C   0  0  1  0  0  0  0  0  0  0  0  0
  -12.7609   14.9120  -39.7027 N   0  0  0  0  0  0  0  0  0  0  0  0
  -10.4085   13.4459  -37.4273 N   0  0  0  0  0  0  0  0  0  0  0  0
   -9.5521   14.5733  -34.7120 O   0  0  0  0  0  0  0  0  0  0  0  0
  -10.8791   17.0127  -37.7096 O   0  0  0  0  0  0  0  0  0  0  0  0
  -13.3421   17.6232  -37.9999 H   0  0  0  0  0  0  0  0  0  0  0  0
  -14.7260   16.5620  -37.7579 H   0  0  0  0  0  0  0  0  0  0  0  0
  -14.4652   14.2318  -37.0609 H   0  0  0  0  0  0  0  0  0  0  0  0
  -12.8906   13.5114  -36.7588 H   0  0  0  0  0  0  0  0  0  0  0  0
   -9.0260   16.4664  -36.7641 H   0  0  0  0  0  0  0  0  0  0  0  0
   -8.3959   15.1462  -37.7544 H   0  0  0  0  0  0  0  0  0  0  0  0
  -14.5977   15.9357  -39.9499 H   0  0  0  0  0  0  0  0  0  0  0  0
  -13.1813   16.9326  -40.1770 H   0  0  0  0  0  0  0  0  0  0  0  0
  -12.7237   12.9246  -38.9694 H   0  0  0  0  0  0  0  0  0  0  0  0
  -14.3267   13.5640  -39.2376 H   0  0  0  0  0  0  0  0  0  0  0  0
  -10.9408   15.9700  -39.8855 H   0  0  0  0  0  0  0  0  0  0  0  0
  -10.7738   14.3081  -39.3709 H   0  0  0  0  0  0  0  0  0  0  0  0
   -7.9987   13.7769  -35.7974 H   0  0  0  0  0  0  0  0  0  0  0  0
   -7.6920   15.3937  -35.1297 H   0  0  0  0  0  0  0  0  0  0  0  0
  -11.1587   15.7829  -35.1037 H   0  0  0  0  0  0  0  0  0  0  0  0
  -11.5102   14.0499  -35.1593 H   0  0  0  0  0  0  0  0  0  0  0  0
  -12.8735   15.9769  -36.1707 H   0  0  0  0  0  0  0  0  0  0  0  0
  -10.0221   13.4621  -38.3389 H   0  0  0  0  0  0  0  0  0  0  0  0
   -9.8529   12.9008  -36.8149 H   0  0  0  0  0  0  0  0  0  0  0  0
  -10.8833   17.2704  -36.7768 H   0  0  0  0  0  0  0  0  0  0  0  0
  1  4  1  0  0  0  0
  1  9  1  0  0  0  0
  2  5  1  0  0  0  0
  2  9  1  0  0  0  0
  3  7  1  0  0  0  0
  3 10  1  0  0  0  0
  4 12  1  0  0  0  0
  5 12  1  0  0  0  0
  6 11  1  0  0  0  0
  6 12  1  0  0  0  0
  7 14  1  0  0  0  0
  8 10  1  0  0  0  0
  8 14  1  0  0  0  0
  9 11  1  0  0  0  0
 10 11  1  0  0  0  0
 10 13  1  0  0  0  0
 11 15  1  0  0  0  0
  1 16  1  0  0  0  0
  1 17  1  0  0  0  0
  2 18  1  0  0  0  0
  2 19  1  0  0  0  0
  3 20  1  0  0  0  0
  3 21  1  0  0  0  0
  4 22  1  0  0  0  0
  4 23  1  0  0  0  0
  5 24  1  0  0  0  0
  5 25  1  0  0  0  0
  6 26  1  0  0  0  0
  6 27  1  0  0  0  0
  7 28  1  0  0  0  0
  7 29  1  0  0  0  0
  8 30  1  0  0  0  0
  8 31  1  0  0  0  0
  9 32  1  0  0  0  0
 13 33  1  0  0  0  0
 13 34  1  0  0  0  0
 15 35  1  0  0  0  0
M  END
> <id>
EN300-1642765

> <smiles>
NC1(CCOC1)C2(O)CN3CCC2CC3

> <IUPAC Name>
3-(3-aminooxolan-3-yl)-1-azabicyclo[2.2.2]octan-3-ol

> <CAS>
2171627-05-5

> <URL>
https://www.enaminestore.com/catalog/EN300-1642765

> <ROCS_ShapeQuery>
__x1247relevant_x1083L0AP1_x1305L0BP1_

> <ROCS_TanimotoCombo>
0.710 

> <ROCS_ShapeTanimoto>
0.494 

> <ROCS_ColorTanimoto>
0.217 

> <ROCS_RefTversky>
0.420 

> <ROCS_RefColorTversky>
0.255 

> <ROCS_RefTverskyCombo>
0.675 

> <ROCS_FitTversky>
1.547 

> <ROCS_FitColorTversky>
0.592 

> <ROCS_FitTverskyCombo>
2.140 

> <ROCS_ColorScore>
-8.360

> <ROCS_Overlap>
1237.814

> <ROCS_Rank>
482                 

$$$$
untitled-dbase-178658_4
  -OEChem-06232314393D

 22 24  0     1  0  0  0  0  0999 V2000
  -10.2688   15.2141  -36.8301 C   0  0  0  0  0  0  0  0  0  0  0  0
  -13.7177   14.3441  -38.0432 C   0  0  0  0  0  0  0  0  0  0  0  0
  -11.5055   14.4262  -39.0014 C   0  0  0  0  0  0  0  0  0  0  0  0
  -12.9842   14.8009  -39.3442 C   0  0  2  0  0  0  0  0  0  0  0  0
  -12.8284   15.1160  -37.0949 C   0  0  2  0  0  0  0  0  0  0  0  0
  -12.3701   16.3522  -37.7941 C   0  0  2  0  0  0  0  0  0  0  0  0
  -13.0041   16.3589  -39.1680 C   0  0  1  0  0  0  0  0  0  0  0  0
  -11.4527   15.1705  -37.6799 C   0  0  1  0  0  0  0  0  0  0  0  0
  -12.2418   17.1123  -40.1460 N   0  0  0  0  0  0  0  0  0  0  0  0
   -9.1823   15.6639  -37.1627 O   0  0  0  0  0  0  0  0  0  0  0  0
  -10.5341   14.6826  -35.6118 O   0  0  0  0  0  0  0  0  0  0  0  0
  -14.7577   14.6812  -38.0044 H   0  0  0  0  0  0  0  0  0  0  0  0
  -13.6563   13.2639  -37.8819 H   0  0  0  0  0  0  0  0  0  0  0  0
  -11.3742   13.3474  -38.8668 H   0  0  0  0  0  0  0  0  0  0  0  0
  -10.7795   14.7991  -39.7282 H   0  0  0  0  0  0  0  0  0  0  0  0
  -13.3792   14.4087  -40.2817 H   0  0  0  0  0  0  0  0  0  0  0  0
  -13.0223   15.0843  -36.0404 H   0  0  0  0  0  0  0  0  0  0  0  0
  -12.2231   17.2766  -37.2682 H   0  0  0  0  0  0  0  0  0  0  0  0
  -14.0319   16.7371  -39.1259 H   0  0  0  0  0  0  0  0  0  0  0  0
  -12.6736   17.0091  -41.0370 H   0  0  0  0  0  0  0  0  0  0  0  0
  -12.2348   18.0706  -39.8763 H   0  0  0  0  0  0  0  0  0  0  0  0
   -9.7483   14.7010  -35.0249 H   0  0  0  0  0  0  0  0  0  0  0  0
  1  8  1  0  0  0  0
  1 10  2  0  0  0  0
  1 11  1  0  0  0  0
  2  4  1  0  0  0  0
  2  5  1  0  0  0  0
  3  4  1  0  0  0  0
  3  8  1  0  0  0  0
  4  7  1  0  0  0  0
  5  6  1  0  0  0  0
  5  8  1  0  0  0  0
  6  7  1  0  0  0  0
  6  8  1  0  0  0  0
  7  9  1  0  0  0  0
  2 12  1  0  0  0  0
  2 13  1  0  0  0  0
  3 14  1  0  0  0  0
  3 15  1  0  0  0  0
  4 16  1  0  0  0  0
  5 17  1  0  0  0  0
  6 18  1  0  0  0  0
  7 19  1  0  0  0  0
  9 20  1  0  0  0  0
  9 21  1  0  0  0  0
 11 22  1  0  0  0  0
M  END
> <id>
EN300-27115511

> <smiles>
Cl.NC1C2C3CC1CC32C(=O)O

> <MDLNUMBER>
MFCD32852733

> <IUPAC Name>
3-aminotricyclo[2.2.1.0,2,6]heptane-1-carboxylic acid hydrochloride

> <CAS>
2490435-71-5

> <Purity>
95

> <URL>
https://www.enaminestore.com/catalog/EN300-27115511

> <Saltdate>
Cl

> <ROCS_ShapeQuery>
__x1247relevant_x1083L0AP1_x1305L0BP1_

> <ROCS_TanimotoCombo>
0.710 

> <ROCS_ShapeTanimoto>
0.452 

> <ROCS_ColorTanimoto>
0.258 

> <ROCS_RefTversky>
0.378 

> <ROCS_RefColorTversky>
0.406 

> <ROCS_RefTverskyCombo>
0.785 

> <ROCS_FitTversky>
1.752 

> <ROCS_FitColorTversky>
0.415 

> <ROCS_FitTverskyCombo>
2.168 

> <ROCS_ColorScore>
-13.733

> <ROCS_Overlap>
1111.385

> <ROCS_Rank>
483                 

$$$$
untitled-dbase-102841_4
  -OEChem-06232314393D

 22 24  0     1  0  0  0  0  0999 V2000
  -10.2688   15.2141  -36.8301 C   0  0  0  0  0  0  0  0  0  0  0  0
  -13.7177   14.3441  -38.0432 C   0  0  0  0  0  0  0  0  0  0  0  0
  -11.5055   14.4262  -39.0014 C   0  0  0  0  0  0  0  0  0  0  0  0
  -12.9842   14.8009  -39.3442 C   0  0  2  0  0  0  0  0  0  0  0  0
  -12.8284   15.1160  -37.0949 C   0  0  2  0  0  0  0  0  0  0  0  0
  -12.3701   16.3522  -37.7941 C   0  0  2  0  0  0  0  0  0  0  0  0
  -13.0041   16.3589  -39.1680 C   0  0  1  0  0  0  0  0  0  0  0  0
  -11.4527   15.1705  -37.6799 C   0  0  1  0  0  0  0  0  0  0  0  0
  -12.2418   17.1123  -40.1460 N   0  0  0  0  0  0  0  0  0  0  0  0
   -9.1823   15.6639  -37.1627 O   0  0  0  0  0  0  0  0  0  0  0  0
  -10.5341   14.6826  -35.6118 O   0  0  0  0  0  0  0  0  0  0  0  0
  -14.7577   14.6812  -38.0044 H   0  0  0  0  0  0  0  0  0  0  0  0
  -13.6563   13.2639  -37.8819 H   0  0  0  0  0  0  0  0  0  0  0  0
  -11.3742   13.3474  -38.8668 H   0  0  0  0  0  0  0  0  0  0  0  0
  -10.7795   14.7991  -39.7282 H   0  0  0  0  0  0  0  0  0  0  0  0
  -13.3792   14.4087  -40.2817 H   0  0  0  0  0  0  0  0  0  0  0  0
  -13.0223   15.0843  -36.0404 H   0  0  0  0  0  0  0  0  0  0  0  0
  -12.2231   17.2766  -37.2682 H   0  0  0  0  0  0  0  0  0  0  0  0
  -14.0319   16.7371  -39.1259 H   0  0  0  0  0  0  0  0  0  0  0  0
  -12.6736   17.0091  -41.0370 H   0  0  0  0  0  0  0  0  0  0  0  0
  -12.2348   18.0706  -39.8763 H   0  0  0  0  0  0  0  0  0  0  0  0
   -9.7483   14.7010  -35.0249 H   0  0  0  0  0  0  0  0  0  0  0  0
  1  8  1  0  0  0  0
  1 10  2  0  0  0  0
  1 11  1  0  0  0  0
  2  4  1  0  0  0  0
  2  5  1  0  0  0  0
  3  4  1  0  0  0  0
  3  8  1  0  0  0  0
  4  7  1  0  0  0  0
  5  6  1  0  0  0  0
  5  8  1  0  0  0  0
  6  7  1  0  0  0  0
  6  8  1  0  0  0  0
  7  9  1  0  0  0  0
  2 12  1  0  0  0  0
  2 13  1  0  0  0  0
  3 14  1  0  0  0  0
  3 15  1  0  0  0  0
  4 16  1  0  0  0  0
  5 17  1  0  0  0  0
  6 18  1  0  0  0  0
  7 19  1  0  0  0  0
  9 20  1  0  0  0  0
  9 21  1  0  0  0  0
 11 22  1  0  0  0  0
M  END
> <id>
EN300-22871307

> <smiles>
NC1C2C3CC1CC32C(=O)O

> <MDLNUMBER>
MFCD32852328

> <IUPAC Name>
3-aminotricyclo[2.2.1.0,2,6]heptane-1-carboxylic acid

> <CAS>
2490402-49-6

> <URL>
https://www.enaminestore.com/catalog/EN300-22871307

> <ROCS_ShapeQuery>
__x1247relevant_x1083L0AP1_x1305L0BP1_

> <ROCS_TanimotoCombo>
0.710 

> <ROCS_ShapeTanimoto>
0.452 

> <ROCS_ColorTanimoto>
0.258 

> <ROCS_RefTversky>
0.378 

> <ROCS_RefColorTversky>
0.406 

> <ROCS_RefTverskyCombo>
0.785 

> <ROCS_FitTversky>
1.752 

> <ROCS_FitColorTversky>
0.415 

> <ROCS_FitTverskyCombo>
2.168 

> <ROCS_ColorScore>
-13.733

> <ROCS_Overlap>
1111.385

> <ROCS_Rank>
484                 

$$$$
untitled-dbase-46396_14
  -OEChem-06232314393D

 34 36  0     1  0  0  0  0  0999 V2000
   -9.4455   16.4296  -36.3817 C   0  0  0  0  0  0  0  0  0  0  0  0
  -12.6938   15.1097  -40.2672 C   0  0  0  0  0  0  0  0  0  0  0  0
  -13.4592   14.0026  -39.5105 C   0  0  0  0  0  0  0  0  0  0  0  0
  -11.4984   16.3735  -38.3969 C   0  0  0  0  0  0  0  0  0  0  0  0
  -12.7175   14.4546  -37.1015 C   0  0  0  0  0  0  0  0  0  0  0  0
   -9.9318   14.0796  -35.7940 C   0  0  0  0  0  0  0  0  0  0  0  0
  -10.3842   14.0664  -38.1180 C   0  0  0  0  0  0  0  0  0  0  0  0
  -10.5456   15.4173  -36.1989 C   0  0  2  0  0  0  0  0  0  0  0  0
  -12.6728   16.3711  -39.3879 C   0  0  2  0  0  0  0  0  0  0  0  0
  -13.8568   14.5510  -38.1330 C   0  0  1  0  0  0  0  0  0  0  0  0
  -11.3399   15.1085  -37.4974 C   0  0  0  0  0  0  0  0  0  0  0  0
   -9.8710   13.2521  -37.0071 N   0  0  0  0  0  0  0  0  0  0  0  0
   -9.5559   17.6300  -36.1811 O   0  0  0  0  0  0  0  0  0  0  0  0
  -14.1325   17.0545  -37.2587 O   0  0  0  0  0  0  0  0  0  0  0  0
  -15.3195   16.3673  -39.3846 O   0  0  0  0  0  0  0  0  0  0  0  0
   -8.3068   15.8280  -36.8045 O   0  0  0  0  0  0  0  0  0  0  0  0
  -14.2003   16.2679  -38.4708 S   0  0  0  0  0  0  0  0  0  0  0  0
  -11.6923   14.7964  -40.5744 H   0  0  0  0  0  0  0  0  0  0  0  0
  -13.2377   15.3294  -41.1954 H   0  0  0  0  0  0  0  0  0  0  0  0
  -14.3642   13.7590  -40.0805 H   0  0  0  0  0  0  0  0  0  0  0  0
  -12.8838   13.0754  -39.4389 H   0  0  0  0  0  0  0  0  0  0  0  0
  -10.5814   16.5632  -38.9715 H   0  0  0  0  0  0  0  0  0  0  0  0
  -11.6208   17.2652  -37.7677 H   0  0  0  0  0  0  0  0  0  0  0  0
  -13.0698   14.9143  -36.1691 H   0  0  0  0  0  0  0  0  0  0  0  0
  -12.5587   13.3963  -36.8567 H   0  0  0  0  0  0  0  0  0  0  0  0
   -8.9234   14.1929  -35.3715 H   0  0  0  0  0  0  0  0  0  0  0  0
  -10.5466   13.5833  -35.0312 H   0  0  0  0  0  0  0  0  0  0  0  0
  -10.9122   13.3997  -38.8215 H   0  0  0  0  0  0  0  0  0  0  0  0
   -9.5435   14.4961  -38.6774 H   0  0  0  0  0  0  0  0  0  0  0  0
  -11.1828   15.7754  -35.4277 H   0  0  0  0  0  0  0  0  0  0  0  0
  -12.6783   17.2841  -39.9864 H   0  0  0  0  0  0  0  0  0  0  0  0
  -14.7682   14.0774  -37.7532 H   0  0  0  0  0  0  0  0  0  0  0  0
   -8.8997   13.0046  -37.1892 H   0  0  0  0  0  0  0  0  0  0  0  0
   -8.4204   14.8589  -36.9061 H   0  0  0  0  0  0  0  0  0  0  0  0
  1  8  1  0  0  0  0
  1 13  2  0  0  0  0
  1 16  1  0  0  0  0
  2  3  1  0  0  0  0
  2  9  1  0  0  0  0
  3 10  1  0  0  0  0
  4  9  1  0  0  0  0
  4 11  1  0  0  0  0
  5 10  1  0  0  0  0
  5 11  1  0  0  0  0
  6  8  1  0  0  0  0
  6 12  1  0  0  0  0
  7 11  1  0  0  0  0
  7 12  1  0  0  0  0
  8 11  1  0  0  0  0
  9 17  1  0  0  0  0
 10 17  1  0  0  0  0
 14 17  2  0  0  0  0
 15 17  2  0  0  0  0
  2 18  1  0  0  0  0
  2 19  1  0  0  0  0
  3 20  1  0  0  0  0
  3 21  1  0  0  0  0
  4 22  1  0  0  0  0
  4 23  1  0  0  0  0
  5 24  1  0  0  0  0
  5 25  1  0  0  0  0
  6 26  1  0  0  0  0
  6 27  1  0  0  0  0
  7 28  1  0  0  0  0
  7 29  1  0  0  0  0
  8 30  1  0  0  0  0
  9 31  1  0  0  0  0
 10 32  1  0  0  0  0
 12 33  1  0  0  0  0
 16 34  1  0  0  0  0
M  END
> <id>
EN300-1455493

> <smiles>
OC(=O)C1CNCC21CC3CCC(C2)S3(=O)=O

> <IUPAC Name>
8,8-dioxo-8lambda6-thiaspiro[bicyclo[3.2.1]octane-3,3'-pyrrolidine]-4'-carboxylic acid

> <CAS>
2172433-19-9

> <URL>
https://www.enaminestore.com/catalog/EN300-1455493

> <ROCS_ShapeQuery>
__x1247relevant_x1083L0AP1_x1305L0BP1_

> <ROCS_TanimotoCombo>
0.710 

> <ROCS_ShapeTanimoto>
0.497 

> <ROCS_ColorTanimoto>
0.213 

> <ROCS_RefTversky>
0.428 

> <ROCS_RefColorTversky>
0.254 

> <ROCS_RefTverskyCombo>
0.683 

> <ROCS_FitTversky>
1.478 

> <ROCS_FitColorTversky>
0.569 

> <ROCS_FitTverskyCombo>
2.046 

> <ROCS_ColorScore>
-8.350

> <ROCS_Overlap>
1262.900

> <ROCS_Rank>
485                 

$$$$
untitled-dbase-151641_58
  -OEChem-06232314393D

 39 40  0     1  0  0  0  0  0999 V2000
   -9.6314   14.8587  -37.1271 C   0  0  0  0  0  0  0  0  0  0  0  0
  -13.4935   14.3757  -39.5558 C   0  0  0  0  0  0  0  0  0  0  0  0
  -13.3736   15.8705  -39.8092 C   0  0  0  0  0  0  0  0  0  0  0  0
  -11.8097   13.8990  -37.7226 C   0  0  0  0  0  0  0  0  0  0  0  0
  -13.2667   14.2315  -38.0520 C   0  0  1  0  0  0  0  0  0  0  0  0
  -12.8881   16.4407  -38.4781 C   0  0  2  0  0  0  0  0  0  0  0  0
  -11.3587   16.3646  -38.2237 C   0  0  2  0  0  0  0  0  0  0  0  0
   -9.8445   14.6099  -34.5236 C   0  0  0  0  0  0  0  0  0  0  0  0
   -9.7232   12.1162  -34.7990 C   0  0  0  0  0  0  0  0  0  0  0  0
   -7.6485   13.5063  -35.0659 C   0  0  0  0  0  0  0  0  0  0  0  0
  -10.5489   16.8145  -39.4457 C   0  0  0  0  0  0  0  0  0  0  0  0
   -9.1631   13.4591  -35.2626 C   0  0  0  0  0  0  0  0  0  0  0  0
  -13.5909   15.5651  -37.5299 N   0  0  0  0  0  0  0  0  0  0  0  0
  -10.8955   15.0477  -37.7138 N   0  0  0  0  0  0  0  0  0  0  0  0
   -8.7704   15.7342  -37.0522 O   0  0  0  0  0  0  0  0  0  0  0  0
  -10.4925   15.7366  -40.3568 O   0  0  0  0  0  0  0  0  0  0  0  0
   -9.4454   13.5848  -36.6610 O   0  0  0  0  0  0  0  0  0  0  0  0
  -14.4990   14.0357  -39.8314 H   0  0  0  0  0  0  0  0  0  0  0  0
  -12.7720   13.8030  -40.1481 H   0  0  0  0  0  0  0  0  0  0  0  0
  -12.7193   16.0867  -40.6569 H   0  0  0  0  0  0  0  0  0  0  0  0
  -14.3637   16.2758  -40.0542 H   0  0  0  0  0  0  0  0  0  0  0  0
  -11.7581   13.4536  -36.7195 H   0  0  0  0  0  0  0  0  0  0  0  0
  -11.4306   13.1469  -38.4257 H   0  0  0  0  0  0  0  0  0  0  0  0
  -13.9232   13.4635  -37.6252 H   0  0  0  0  0  0  0  0  0  0  0  0
  -13.2290   17.4788  -38.3521 H   0  0  0  0  0  0  0  0  0  0  0  0
  -11.1192   17.0709  -37.3999 H   0  0  0  0  0  0  0  0  0  0  0  0
   -9.4452   15.5756  -34.8536 H   0  0  0  0  0  0  0  0  0  0  0  0
  -10.9274   14.6079  -34.6851 H   0  0  0  0  0  0  0  0  0  0  0  0
   -9.6552   14.5491  -33.4458 H   0  0  0  0  0  0  0  0  0  0  0  0
   -9.2371   11.2876  -35.3266 H   0  0  0  0  0  0  0  0  0  0  0  0
  -10.7930   12.0406  -35.0248 H   0  0  0  0  0  0  0  0  0  0  0  0
   -9.5849   11.9706  -33.7227 H   0  0  0  0  0  0  0  0  0  0  0  0
   -7.1594   12.6809  -35.5959 H   0  0  0  0  0  0  0  0  0  0  0  0
   -7.2241   14.4486  -35.4272 H   0  0  0  0  0  0  0  0  0  0  0  0
   -7.3892   13.3908  -34.0073 H   0  0  0  0  0  0  0  0  0  0  0  0
   -9.5441   17.0846  -39.1334 H   0  0  0  0  0  0  0  0  0  0  0  0
  -11.0397   17.6643  -39.9115 H   0  0  0  0  0  0  0  0  0  0  0  0
  -14.5946   15.7195  -37.6164 H   0  0  0  0  0  0  0  0  0  0  0  0
  -10.0578   14.9948  -39.9003 H   0  0  0  0  0  0  0  0  0  0  0  0
  1 14  1  0  0  0  0
  1 15  2  0  0  0  0
  1 17  1  0  0  0  0
  2  3  1  0  0  0  0
  2  5  1  0  0  0  0
  3  6  1  1  0  0  0
  4  5  1  1  0  0  0
  4 14  1  0  0  0  0
  5 13  1  0  0  0  0
  6  7  1  0  0  0  0
  6 13  1  0  0  0  0
  7 11  1  1  0  0  0
  7 14  1  0  0  0  0
  8 12  1  0  0  0  0
  9 12  1  0  0  0  0
 10 12  1  0  0  0  0
 11 16  1  0  0  0  0
 12 17  1  0  0  0  0
  2 18  1  0  0  0  0
  2 19  1  0  0  0  0
  3 20  1  0  0  0  0
  3 21  1  0  0  0  0
  4 22  1  0  0  0  0
  4 23  1  0  0  0  0
  5 24  1  0  0  0  0
  6 25  1  0  0  0  0
  7 26  1  0  0  0  0
  8 27  1  0  0  0  0
  8 28  1  0  0  0  0
  8 29  1  0  0  0  0
  9 30  1  0  0  0  0
  9 31  1  0  0  0  0
  9 32  1  0  0  0  0
 10 33  1  0  0  0  0
 10 34  1  0  0  0  0
 10 35  1  0  0  0  0
 11 36  1  0  0  0  0
 11 37  1  0  0  0  0
 13 38  1  0  0  0  0
 16 39  1  0  0  0  0
M  END
> <id>
EN300-28263340

> <smiles>
CC(C)(C)OC(=O)N1C[C@@H]2CC[C@@H](N2)[C@@H]1CO |&1:9,12,14,r|

> <IUPAC Name>
rac-tert-butyl (1R,2R,5S)-2-(hydroxymethyl)-3,8-diazabicyclo[3.2.1]octane-3-carboxylate

> <CAS>
2679950-12-8

> <Purity>
95

> <URL>
https://www.enaminestore.com/catalog/EN300-28263340

> <ROCS_ShapeQuery>
__x1247relevant_x1083L0AP1_x1305L0BP1_

> <ROCS_TanimotoCombo>
0.710 

> <ROCS_ShapeTanimoto>
0.513 

> <ROCS_ColorTanimoto>
0.197 

> <ROCS_RefTversky>
0.439 

> <ROCS_RefColorTversky>
0.230 

> <ROCS_RefTverskyCombo>
0.669 

> <ROCS_FitTversky>
1.491 

> <ROCS_FitColorTversky>
0.584 

> <ROCS_FitTverskyCombo>
2.075 

> <ROCS_ColorScore>
-7.520

> <ROCS_Overlap>
1294.110

> <ROCS_Rank>
486                 

$$$$
untitled-dbase-92340_233
  -OEChem-06232314393D

 36 37  0     0  0  0  0  0  0999 V2000
  -13.0505   16.6023  -40.3914 C   0  0  0  0  0  0  0  0  0  0  0  0
   -9.7082   14.9848  -37.0388 C   0  0  0  0  0  0  0  0  0  0  0  0
  -13.5821   16.1090  -37.8511 C   0  0  0  0  0  0  0  0  0  0  0  0
  -13.4345   14.3673  -39.0491 C   0  0  0  0  0  0  0  0  0  0  0  0
  -11.2500   15.6654  -38.8369 C   0  0  0  0  0  0  0  0  0  0  0  0
  -12.0977   14.2539  -36.8793 C   0  0  0  0  0  0  0  0  0  0  0  0
  -12.7483   15.7665  -39.1279 C   0  0  0  0  0  0  0  0  0  0  0  0
  -13.4311   14.6007  -37.5176 C   0  0  0  0  0  0  0  0  0  0  0  0
   -9.7540   15.4031  -34.4508 C   0  0  0  0  0  0  0  0  0  0  0  0
   -9.5655   12.9242  -34.0918 C   0  0  0  0  0  0  0  0  0  0  0  0
   -7.5591   14.2353  -34.8424 C   0  0  0  0  0  0  0  0  0  0  0  0
   -9.0804   14.1135  -34.9178 C   0  0  0  0  0  0  0  0  0  0  0  0
  -11.0151   14.9956  -37.5482 N   0  0  0  0  0  0  0  0  0  0  0  0
  -12.2399   17.3018  -40.9806 O   0  0  0  0  0  0  0  0  0  0  0  0
   -8.8782   15.8677  -37.2484 O   0  0  0  0  0  0  0  0  0  0  0  0
  -14.3462   16.4580  -40.7623 O   0  0  0  0  0  0  0  0  0  0  0  0
   -9.4516   13.8730  -36.2799 O   0  0  0  0  0  0  0  0  0  0  0  0
  -14.4435   14.0344  -36.8271 F   0  0  0  0  0  0  0  0  0  0  0  0
  -13.1322   16.8134  -37.1450 H   0  0  0  0  0  0  0  0  0  0  0  0
  -14.6145   16.4249  -38.0449 H   0  0  0  0  0  0  0  0  0  0  0  0
  -14.4363   14.3185  -39.4934 H   0  0  0  0  0  0  0  0  0  0  0  0
  -12.8536   13.5148  -39.4140 H   0  0  0  0  0  0  0  0  0  0  0  0
  -10.7320   15.0903  -39.6136 H   0  0  0  0  0  0  0  0  0  0  0  0
  -10.7877   16.6586  -38.7928 H   0  0  0  0  0  0  0  0  0  0  0  0
  -12.0956   14.5178  -35.8160 H   0  0  0  0  0  0  0  0  0  0  0  0
  -11.8813   13.1832  -36.9634 H   0  0  0  0  0  0  0  0  0  0  0  0
   -9.4084   16.2592  -35.0413 H   0  0  0  0  0  0  0  0  0  0  0  0
  -10.8441   15.3414  -34.5329 H   0  0  0  0  0  0  0  0  0  0  0  0
   -9.4974   15.6229  -33.4082 H   0  0  0  0  0  0  0  0  0  0  0  0
   -9.0848   11.9968  -34.4235 H   0  0  0  0  0  0  0  0  0  0  0  0
  -10.6440   12.7751  -34.2183 H   0  0  0  0  0  0  0  0  0  0  0  0
   -9.3571   13.0608  -33.0258 H   0  0  0  0  0  0  0  0  0  0  0  0
   -7.0757   13.3105  -35.1773 H   0  0  0  0  0  0  0  0  0  0  0  0
   -7.1896   15.0612  -35.4588 H   0  0  0  0  0  0  0  0  0  0  0  0
   -7.2320   14.3985  -33.8091 H   0  0  0  0  0  0  0  0  0  0  0  0
  -14.5588   16.9833  -41.5631 H   0  0  0  0  0  0  0  0  0  0  0  0
  1  7  1  0  0  0  0
  1 14  2  0  0  0  0
  1 16  1  0  0  0  0
  2 13  1  0  0  0  0
  2 15  2  0  0  0  0
  2 17  1  0  0  0  0
  3  7  1  0  0  0  0
  3  8  1  0  0  0  0
  4  7  1  0  0  0  0
  4  8  1  0  0  0  0
  5  7  1  0  0  0  0
  5 13  1  0  0  0  0
  6  8  1  0  0  0  0
  6 13  1  0  0  0  0
  8 18  1  0  0  0  0
  9 12  1  0  0  0  0
 10 12  1  0  0  0  0
 11 12  1  0  0  0  0
 12 17  1  0  0  0  0
  3 19  1  0  0  0  0
  3 20  1  0  0  0  0
  4 21  1  0  0  0  0
  4 22  1  0  0  0  0
  5 23  1  0  0  0  0
  5 24  1  0  0  0  0
  6 25  1  0  0  0  0
  6 26  1  0  0  0  0
  9 27  1  0  0  0  0
  9 28  1  0  0  0  0
  9 29  1  0  0  0  0
 10 30  1  0  0  0  0
 10 31  1  0  0  0  0
 10 32  1  0  0  0  0
 11 33  1  0  0  0  0
 11 34  1  0  0  0  0
 11 35  1  0  0  0  0
 16 36  1  0  0  0  0
M  END
> <id>
EN300-7424901

> <smiles>
CC(C)(C)OC(=O)N1CC2(F)CC(C2)(C1)C(=O)O

> <MDLNUMBER>
MFCD31924730

> <IUPAC Name>
3-[(tert-butoxy)carbonyl]-5-fluoro-3-azabicyclo[3.1.1]heptane-1-carboxylic acid

> <CAS>
2344681-61-2

> <Purity>
95

> <URL>
https://www.enaminestore.com/catalog/EN300-7424901

> <MP>
173-176

> <ROCS_ShapeQuery>
__x1247relevant_x1083L0AP1_x1305L0BP1_

> <ROCS_TanimotoCombo>
0.710 

> <ROCS_ShapeTanimoto>
0.511 

> <ROCS_ColorTanimoto>
0.199 

> <ROCS_RefTversky>
0.443 

> <ROCS_RefColorTversky>
0.228 

> <ROCS_RefTverskyCombo>
0.672 

> <ROCS_FitTversky>
1.428 

> <ROCS_FitColorTversky>
0.608 

> <ROCS_FitTverskyCombo>
2.037 

> <ROCS_ColorScore>
-7.474

> <ROCS_Overlap>
1307.991

> <ROCS_Rank>
487                 

$$$$
untitled-dbase-169873_234
  -OEChem-06232314393D

 36 37  0     0  0  0  0  0  0999 V2000
  -13.0611   16.6954  -40.3441 C   0  0  0  0  0  0  0  0  0  0  0  0
   -9.7139   15.0101  -37.0311 C   0  0  0  0  0  0  0  0  0  0  0  0
  -13.3826   14.3722  -39.1420 C   0  0  0  0  0  0  0  0  0  0  0  0
  -13.6127   16.0334  -37.8467 C   0  0  0  0  0  0  0  0  0  0  0  0
  -11.2509   15.7330  -38.8168 C   0  0  0  0  0  0  0  0  0  0  0  0
  -12.0748   14.1791  -36.9599 C   0  0  0  0  0  0  0  0  0  0  0  0
  -12.7475   15.7975  -39.1269 C   0  0  0  0  0  0  0  0  0  0  0  0
  -13.4106   14.5145  -37.5996 C   0  0  0  0  0  0  0  0  0  0  0  0
   -9.8198   15.2775  -34.4249 C   0  0  0  0  0  0  0  0  0  0  0  0
   -9.5400   12.7912  -34.2031 C   0  0  0  0  0  0  0  0  0  0  0  0
   -7.5744   14.2190  -34.8399 C   0  0  0  0  0  0  0  0  0  0  0  0
   -9.0882   14.0436  -34.9511 C   0  0  0  0  0  0  0  0  0  0  0  0
  -11.0115   15.0000  -37.5639 N   0  0  0  0  0  0  0  0  0  0  0  0
  -12.2269   17.1619  -41.1055 O   0  0  0  0  0  0  0  0  0  0  0  0
   -8.9159   15.9346  -37.1745 O   0  0  0  0  0  0  0  0  0  0  0  0
  -14.3961   16.9015  -40.4556 O   0  0  0  0  0  0  0  0  0  0  0  0
   -9.4266   13.8673  -36.3314 O   0  0  0  0  0  0  0  0  0  0  0  0
  -14.4113   13.8718  -36.9610 F   0  0  0  0  0  0  0  0  0  0  0  0
  -14.3759   14.3132  -39.6069 H   0  0  0  0  0  0  0  0  0  0  0  0
  -12.7660   13.5631  -39.5487 H   0  0  0  0  0  0  0  0  0  0  0  0
  -13.1986   16.7082  -37.0935 H   0  0  0  0  0  0  0  0  0  0  0  0
  -14.6520   16.3211  -38.0396 H   0  0  0  0  0  0  0  0  0  0  0  0
  -10.7025   15.2242  -39.6184 H   0  0  0  0  0  0  0  0  0  0  0  0
  -10.8242   16.7369  -38.7055 H   0  0  0  0  0  0  0  0  0  0  0  0
  -12.0878   14.3755  -35.8821 H   0  0  0  0  0  0  0  0  0  0  0  0
  -11.8269   13.1226  -37.1093 H   0  0  0  0  0  0  0  0  0  0  0  0
   -9.4982   16.1786  -34.9592 H   0  0  0  0  0  0  0  0  0  0  0  0
  -10.9050   15.1788  -34.5311 H   0  0  0  0  0  0  0  0  0  0  0  0
   -9.5896   15.4469  -33.3668 H   0  0  0  0  0  0  0  0  0  0  0  0
   -9.0176   11.9034  -34.5775 H   0  0  0  0  0  0  0  0  0  0  0  0
  -10.6095   12.6083  -34.3584 H   0  0  0  0  0  0  0  0  0  0  0  0
   -9.3551   12.8743  -33.1273 H   0  0  0  0  0  0  0  0  0  0  0  0
   -7.0493   13.3341  -35.2173 H   0  0  0  0  0  0  0  0  0  0  0  0
   -7.2272   15.0924  -35.4014 H   0  0  0  0  0  0  0  0  0  0  0  0
   -7.2714   14.3352  -33.7930 H   0  0  0  0  0  0  0  0  0  0  0  0
  -14.6160   17.4719  -41.2228 H   0  0  0  0  0  0  0  0  0  0  0  0
  1  7  1  1  0  0  0
  1 14  2  0  0  0  0
  1 16  1  0  0  0  0
  2 13  1  0  0  0  0
  2 15  2  0  0  0  0
  2 17  1  0  0  0  0
  3  7  1  0  0  0  0
  3  8  1  0  0  0  0
  4  7  1  0  0  0  0
  4  8  1  0  0  0  0
  5  7  1  0  0  0  0
  5 13  1  0  0  0  0
  6  8  1  0  0  0  0
  6 13  1  0  0  0  0
  8 18  1  1  0  0  0
  9 12  1  0  0  0  0
 10 12  1  0  0  0  0
 11 12  1  0  0  0  0
 12 17  1  0  0  0  0
  3 19  1  0  0  0  0
  3 20  1  0  0  0  0
  4 21  1  0  0  0  0
  4 22  1  0  0  0  0
  5 23  1  0  0  0  0
  5 24  1  0  0  0  0
  6 25  1  0  0  0  0
  6 26  1  0  0  0  0
  9 27  1  0  0  0  0
  9 28  1  0  0  0  0
  9 29  1  0  0  0  0
 10 30  1  0  0  0  0
 10 31  1  0  0  0  0
 10 32  1  0  0  0  0
 11 33  1  0  0  0  0
 11 34  1  0  0  0  0
 11 35  1  0  0  0  0
 16 36  1  0  0  0  0
M  END
> <id>
EN300-37375319

> <smiles>
CC(C)(C)OC(=O)N1C[C@]2(F)C[C@@](C2)(C1)C(=O)O

> <IUPAC Name>
3-[(tert-butoxy)carbonyl]-5-fluoro-3-azabicyclo[3.1.1]heptane-1-carboxylic acid

> <CAS>
2344681-61-2

> <URL>
https://www.enaminestore.com/catalog/EN300-37375319

> <ROCS_ShapeQuery>
__x1247relevant_x1083L0AP1_x1305L0BP1_

> <ROCS_TanimotoCombo>
0.710 

> <ROCS_ShapeTanimoto>
0.512 

> <ROCS_ColorTanimoto>
0.198 

> <ROCS_RefTversky>
0.444 

> <ROCS_RefColorTversky>
0.228 

> <ROCS_RefTverskyCombo>
0.671 

> <ROCS_FitTversky>
1.430 

> <ROCS_FitColorTversky>
0.607 

> <ROCS_FitTverskyCombo>
2.036 

> <ROCS_ColorScore>
-7.451

> <ROCS_Overlap>
1309.175

> <ROCS_Rank>
488                 

$$$$
untitled-dbase-173873_22
  -OEChem-06232314393D

 23 24  0     0  0  0  0  0  0999 V2000
  -11.2956   16.4837  -39.9751 C   0  0  0  0  0  0  0  0  0  0  0  0
  -10.0210   15.2027  -37.4528 C   0  0  0  0  0  0  0  0  0  0  0  0
  -13.0556   14.5459  -39.3817 C   0  0  0  0  0  0  0  0  0  0  0  0
  -13.3967   16.3078  -38.3135 C   0  0  0  0  0  0  0  0  0  0  0  0
  -12.4213   14.4521  -36.9835 C   0  0  0  0  0  0  0  0  0  0  0  0
  -12.0776   15.7022  -38.9352 C   0  0  0  0  0  0  0  0  0  0  0  0
  -13.5718   14.8040  -37.9304 C   0  0  0  0  0  0  0  0  0  0  0  0
   -9.4754   14.0291  -36.6794 C   0  0  0  0  0  0  0  0  0  0  0  0
  -11.3643   15.1247  -37.7541 N   0  0  0  0  0  0  0  0  0  0  0  0
  -10.0767   16.5478  -40.0346 O   0  0  0  0  0  0  0  0  0  0  0  0
   -9.2848   16.1370  -37.7687 O   0  0  0  0  0  0  0  0  0  0  0  0
  -12.1357   17.1090  -40.8356 O   0  0  0  0  0  0  0  0  0  0  0  0
  -14.7712   14.3421  -37.5520 F   0  0  0  0  0  0  0  0  0  0  0  0
  -10.4453   13.1284  -36.4408 F   0  0  0  0  0  0  0  0  0  0  0  0
   -8.4952   13.4202  -37.3705 F   0  0  0  0  0  0  0  0  0  0  0  0
   -8.9718   14.4294  -35.4980 F   0  0  0  0  0  0  0  0  0  0  0  0
  -13.7510   14.7735  -40.1974 H   0  0  0  0  0  0  0  0  0  0  0  0
  -12.5993   13.5681  -39.5647 H   0  0  0  0  0  0  0  0  0  0  0  0
  -13.2649   17.0056  -37.4808 H   0  0  0  0  0  0  0  0  0  0  0  0
  -14.1285   16.7237  -39.0152 H   0  0  0  0  0  0  0  0  0  0  0  0
  -12.5164   14.9047  -35.9933 H   0  0  0  0  0  0  0  0  0  0  0  0
  -12.2208   13.3796  -36.9191 H   0  0  0  0  0  0  0  0  0  0  0  0
  -11.6487   17.6219  -41.5154 H   0  0  0  0  0  0  0  0  0  0  0  0
  1  6  1  0  0  0  0
  1 10  2  0  0  0  0
  1 12  1  0  0  0  0
  2  8  1  0  0  0  0
  2  9  1  0  0  0  0
  2 11  2  0  0  0  0
  3  6  1  0  0  0  0
  3  7  1  0  0  0  0
  4  6  1  0  0  0  0
  4  7  1  0  0  0  0
  5  7  1  0  0  0  0
  5  9  1  0  0  0  0
  6  9  1  0  0  0  0
  7 13  1  0  0  0  0
  8 14  1  0  0  0  0
  8 15  1  0  0  0  0
  8 16  1  0  0  0  0
  3 17  1  0  0  0  0
  3 18  1  0  0  0  0
  4 19  1  0  0  0  0
  4 20  1  0  0  0  0
  5 21  1  0  0  0  0
  5 22  1  0  0  0  0
 12 23  1  0  0  0  0
M  END
> <id>
EN300-43359407

> <smiles>
OC(=O)C1(CC2(F)C1)N(C2)C(=O)C(F)(F)F

> <IUPAC Name>
4-fluoro-2-(2,2,2-trifluoroacetyl)-2-azabicyclo[2.1.1]hexane-1-carboxylic acid

> <URL>
https://www.enaminestore.com/catalog/EN300-43359407

> <ROCS_ShapeQuery>
__x1247relevant_x1083L0AP1_x1305L0BP1_

> <ROCS_TanimotoCombo>
0.710 

> <ROCS_ShapeTanimoto>
0.523 

> <ROCS_ColorTanimoto>
0.187 

> <ROCS_RefTversky>
0.444 

> <ROCS_RefColorTversky>
0.215 

> <ROCS_RefTverskyCombo>
0.659 

> <ROCS_FitTversky>
1.524 

> <ROCS_FitColorTversky>
0.589 

> <ROCS_FitTverskyCombo>
2.113 

> <ROCS_ColorScore>
-7.033

> <ROCS_Overlap>
1307.551

> <ROCS_Rank>
489                 

$$$$
untitled-dbase-155602_40
  -OEChem-06232314393D

 23 24  0     1  0  0  0  0  0999 V2000
  -13.3183   16.3550  -40.4329 C   0  0  0  0  0  0  0  0  0  0  0  0
   -9.9571   14.7128  -37.0092 C   0  0  0  0  0  0  0  0  0  0  0  0
  -13.2957   16.0362  -37.6131 C   0  0  0  0  0  0  0  0  0  0  0  0
  -12.2247   13.8097  -37.6341 C   0  0  0  0  0  0  0  0  0  0  0  0
  -12.5372   15.4335  -39.4893 C   0  0  2  0  0  0  0  0  0  0  0  0
  -13.2971   14.6479  -38.3488 C   0  0  2  0  0  0  0  0  0  0  0  0
  -11.8397   16.0343  -38.2051 C   0  0  2  0  0  0  0  0  0  0  0  0
   -9.6673   13.3470  -36.4467 C   0  0  0  0  0  0  0  0  0  0  0  0
  -11.2069   14.8598  -37.5640 N   0  0  0  0  0  0  0  0  0  0  0  0
  -12.8161   17.1674  -41.1953 O   0  0  0  0  0  0  0  0  0  0  0  0
   -9.1148   15.6093  -36.9602 O   0  0  0  0  0  0  0  0  0  0  0  0
  -14.6522   16.1498  -40.3069 O   0  0  0  0  0  0  0  0  0  0  0  0
  -10.7255   12.5318  -36.6103 F   0  0  0  0  0  0  0  0  0  0  0  0
   -8.6095   12.7911  -37.0661 F   0  0  0  0  0  0  0  0  0  0  0  0
   -9.3925   13.4193  -35.1311 F   0  0  0  0  0  0  0  0  0  0  0  0
  -13.9841   16.7999  -37.9894 H   0  0  0  0  0  0  0  0  0  0  0  0
  -13.3764   16.0075  -36.5217 H   0  0  0  0  0  0  0  0  0  0  0  0
  -12.5111   13.4940  -36.6273 H   0  0  0  0  0  0  0  0  0  0  0  0
  -11.8577   12.9670  -38.2258 H   0  0  0  0  0  0  0  0  0  0  0  0
  -11.8733   14.7971  -40.0920 H   0  0  0  0  0  0  0  0  0  0  0  0
  -14.2561   14.1853  -38.5797 H   0  0  0  0  0  0  0  0  0  0  0  0
  -11.2844   16.9669  -38.2715 H   0  0  0  0  0  0  0  0  0  0  0  0
  -14.8551   15.4562  -39.6436 H   0  0  0  0  0  0  0  0  0  0  0  0
  1  5  1  6  0  0  0
  1 10  2  0  0  0  0
  1 12  1  0  0  0  0
  2  8  1  0  0  0  0
  2  9  1  0  0  0  0
  2 11  2  0  0  0  0
  3  6  1  6  0  0  0
  3  7  1  6  0  0  0
  4  6  1  0  0  0  0
  4  9  1  0  0  0  0
  5  6  1  0  0  0  0
  5  7  1  0  0  0  0
  7  9  1  0  0  0  0
  8 13  1  0  0  0  0
  8 14  1  0  0  0  0
  8 15  1  0  0  0  0
  3 16  1  0  0  0  0
  3 17  1  0  0  0  0
  4 18  1  0  0  0  0
  4 19  1  0  0  0  0
  5 20  1  0  0  0  0
  6 21  1  0  0  0  0
  7 22  1  0  0  0  0
 12 23  1  0  0  0  0
M  END
> <id>
EN300-28274153

> <smiles>
OC(=O)[C@@H]1[C@@H]2C[C@H]1N(C2)C(=O)C(F)(F)F |&1:3,4,6,r|

> <IUPAC Name>
rac-(1R,4S,5R)-2-(2,2,2-trifluoroacetyl)-2-azabicyclo[2.1.1]hexane-5-carboxylic acid

> <CAS>
2679938-87-3

> <URL>
https://www.enaminestore.com/catalog/EN300-28274153

> <ROCS_ShapeQuery>
__x1247relevant_x1083L0AP1_x1305L0BP1_

> <ROCS_TanimotoCombo>
0.710 

> <ROCS_ShapeTanimoto>
0.493 

> <ROCS_ColorTanimoto>
0.217 

> <ROCS_RefTversky>
0.420 

> <ROCS_RefColorTversky>
0.244 

> <ROCS_RefTverskyCombo>
0.664 

> <ROCS_FitTversky>
1.539 

> <ROCS_FitColorTversky>
0.667 

> <ROCS_FitTverskyCombo>
2.206 

> <ROCS_ColorScore>
-7.967

> <ROCS_Overlap>
1238.429

> <ROCS_Rank>
490                 

$$$$
untitled-dbase-88206_2
  -OEChem-06232314393D

 23 25  0     1  0  0  0  0  0999 V2000
  -14.3904   15.5831  -39.8084 C   0  0  0  0  0  0  0  0  0  0  0  0
  -12.0478   15.6116  -36.8291 C   0  0  0  0  0  0  0  0  0  0  0  0
  -13.8829   16.0183  -38.4594 C   0  0  2  0  0  0  0  0  0  0  0  0
  -12.9309   15.8889  -39.5994 C   0  0  1  0  0  0  0  0  0  0  0  0
  -11.0536   15.5045  -38.0150 C   0  0  2  0  0  0  0  0  0  0  0  0
  -13.3333   15.0423  -37.4440 C   0  0  1  0  0  0  0  0  0  0  0  0
  -11.9418   14.8589  -39.0979 C   0  0  1  0  0  0  0  0  0  0  0  0
   -9.8508   14.6348  -37.6669 C   0  0  0  0  0  0  0  0  0  0  0  0
  -10.2850   13.3208  -37.3268 N   0  0  0  0  0  0  0  0  0  0  0  0
  -12.7644   13.9958  -38.2705 O   0  0  0  0  0  0  0  0  0  0  0  0
  -14.6936   14.5532  -39.9475 H   0  0  0  0  0  0  0  0  0  0  0  0
  -14.9766   16.2964  -40.3756 H   0  0  0  0  0  0  0  0  0  0  0  0
  -11.7204   14.9948  -35.9847 H   0  0  0  0  0  0  0  0  0  0  0  0
  -12.1690   16.6429  -36.4831 H   0  0  0  0  0  0  0  0  0  0  0  0
  -14.1352   16.9962  -38.0796 H   0  0  0  0  0  0  0  0  0  0  0  0
  -12.4996   16.7739  -40.0412 H   0  0  0  0  0  0  0  0  0  0  0  0
  -10.6989   16.4949  -38.3233 H   0  0  0  0  0  0  0  0  0  0  0  0
  -14.0650   14.6553  -36.7319 H   0  0  0  0  0  0  0  0  0  0  0  0
  -11.4231   14.3039  -39.8829 H   0  0  0  0  0  0  0  0  0  0  0  0
   -9.2039   14.6085  -38.5431 H   0  0  0  0  0  0  0  0  0  0  0  0
   -9.3460   15.1010  -36.8215 H   0  0  0  0  0  0  0  0  0  0  0  0
  -10.7963   12.9168  -38.0907 H   0  0  0  0  0  0  0  0  0  0  0  0
   -9.4935   12.7375  -37.1227 H   0  0  0  0  0  0  0  0  0  0  0  0
  1  3  1  1  0  0  0
  1  4  1  1  0  0  0
  2  5  1  0  0  0  0
  2  6  1  6  0  0  0
  3  4  1  0  0  0  0
  3  6  1  0  0  0  0
  4  7  1  0  0  0  0
  5  7  1  0  0  0  0
  5  8  1  1  0  0  0
  6 10  1  0  0  0  0
  7 10  1  1  0  0  0
  8  9  1  0  0  0  0
  1 11  1  0  0  0  0
  1 12  1  0  0  0  0
  2 13  1  0  0  0  0
  2 14  1  0  0  0  0
  3 15  1  0  0  0  0
  4 16  1  0  0  0  0
  5 17  1  0  0  0  0
  6 18  1  0  0  0  0
  7 19  1  0  0  0  0
  8 20  1  0  0  0  0
  8 21  1  0  0  0  0
  9 22  1  0  0  0  0
  9 23  1  0  0  0  0
M  END
> <id>
EN300-6503653

> <smiles>
Cl.NC[C@@H]1C[C@@H]2O[C@H]1[C@H]3C[C@H]32 |&1:3,5,7,8,10,r|

> <IUPAC Name>
rac-[(1R,2S,4R,5R,6R)-8-oxatricyclo[3.2.1.0,2,4]octan-6-yl]methanamine hydrochloride

> <CAS>
2253639-35-7

> <Purity>
95

> <URL>
https://www.enaminestore.com/catalog/EN300-6503653

> <Saltdate>
Cl

> <ROCS_ShapeQuery>
__x1247relevant_x1083L0AP1_x1305L0BP1_

> <ROCS_TanimotoCombo>
0.710 

> <ROCS_ShapeTanimoto>
0.421 

> <ROCS_ColorTanimoto>
0.289 

> <ROCS_RefTversky>
0.355 

> <ROCS_RefColorTversky>
0.366 

> <ROCS_RefTverskyCombo>
0.721 

> <ROCS_FitTversky>
1.785 

> <ROCS_FitColorTversky>
0.581 

> <ROCS_FitTverskyCombo>
2.366 

> <ROCS_ColorScore>
-12.122

> <ROCS_Overlap>
1041.734

> <ROCS_Rank>
491                 

$$$$
untitled-dbase-128224_2
  -OEChem-06232314393D

 23 25  0     1  0  0  0  0  0999 V2000
  -14.3904   15.5831  -39.8084 C   0  0  0  0  0  0  0  0  0  0  0  0
  -12.0478   15.6116  -36.8291 C   0  0  0  0  0  0  0  0  0  0  0  0
  -13.8829   16.0183  -38.4594 C   0  0  2  0  0  0  0  0  0  0  0  0
  -12.9309   15.8889  -39.5994 C   0  0  1  0  0  0  0  0  0  0  0  0
  -11.0536   15.5045  -38.0150 C   0  0  2  0  0  0  0  0  0  0  0  0
  -13.3333   15.0423  -37.4440 C   0  0  1  0  0  0  0  0  0  0  0  0
  -11.9418   14.8589  -39.0979 C   0  0  1  0  0  0  0  0  0  0  0  0
   -9.8508   14.6348  -37.6669 C   0  0  0  0  0  0  0  0  0  0  0  0
  -10.2850   13.3208  -37.3268 N   0  0  0  0  0  0  0  0  0  0  0  0
  -12.7644   13.9958  -38.2705 O   0  0  0  0  0  0  0  0  0  0  0  0
  -14.6936   14.5532  -39.9475 H   0  0  0  0  0  0  0  0  0  0  0  0
  -14.9766   16.2964  -40.3756 H   0  0  0  0  0  0  0  0  0  0  0  0
  -11.7204   14.9948  -35.9847 H   0  0  0  0  0  0  0  0  0  0  0  0
  -12.1690   16.6429  -36.4831 H   0  0  0  0  0  0  0  0  0  0  0  0
  -14.1352   16.9962  -38.0796 H   0  0  0  0  0  0  0  0  0  0  0  0
  -12.4996   16.7739  -40.0412 H   0  0  0  0  0  0  0  0  0  0  0  0
  -10.6989   16.4949  -38.3233 H   0  0  0  0  0  0  0  0  0  0  0  0
  -14.0650   14.6553  -36.7319 H   0  0  0  0  0  0  0  0  0  0  0  0
  -11.4231   14.3039  -39.8829 H   0  0  0  0  0  0  0  0  0  0  0  0
   -9.2039   14.6085  -38.5431 H   0  0  0  0  0  0  0  0  0  0  0  0
   -9.3460   15.1010  -36.8215 H   0  0  0  0  0  0  0  0  0  0  0  0
  -10.7963   12.9168  -38.0907 H   0  0  0  0  0  0  0  0  0  0  0  0
   -9.4935   12.7375  -37.1227 H   0  0  0  0  0  0  0  0  0  0  0  0
  1  3  1  1  0  0  0
  1  4  1  1  0  0  0
  2  5  1  0  0  0  0
  2  6  1  6  0  0  0
  3  4  1  0  0  0  0
  3  6  1  0  0  0  0
  4  7  1  0  0  0  0
  5  7  1  0  0  0  0
  5  8  1  1  0  0  0
  6 10  1  0  0  0  0
  7 10  1  1  0  0  0
  8  9  1  0  0  0  0
  1 11  1  0  0  0  0
  1 12  1  0  0  0  0
  2 13  1  0  0  0  0
  2 14  1  0  0  0  0
  3 15  1  0  0  0  0
  4 16  1  0  0  0  0
  5 17  1  0  0  0  0
  6 18  1  0  0  0  0
  7 19  1  0  0  0  0
  8 20  1  0  0  0  0
  8 21  1  0  0  0  0
  9 22  1  0  0  0  0
  9 23  1  0  0  0  0
M  END
> <id>
EN300-6503654

> <smiles>
NC[C@@H]1C[C@@H]2O[C@H]1[C@H]3C[C@H]32 |&1:2,4,6,7,9,r|

> <IUPAC Name>
rac-[(1R,2S,4R,5R,6R)-8-oxatricyclo[3.2.1.0,2,4]octan-6-yl]methanamine

> <CAS>
2253639-34-6

> <URL>
https://www.enaminestore.com/catalog/EN300-6503654

> <ROCS_ShapeQuery>
__x1247relevant_x1083L0AP1_x1305L0BP1_

> <ROCS_TanimotoCombo>
0.710 

> <ROCS_ShapeTanimoto>
0.421 

> <ROCS_ColorTanimoto>
0.289 

> <ROCS_RefTversky>
0.355 

> <ROCS_RefColorTversky>
0.366 

> <ROCS_RefTverskyCombo>
0.721 

> <ROCS_FitTversky>
1.785 

> <ROCS_FitColorTversky>
0.581 

> <ROCS_FitTverskyCombo>
2.366 

> <ROCS_ColorScore>
-12.122

> <ROCS_Overlap>
1041.734

> <ROCS_Rank>
492                 

$$$$
untitled-dbase-152967_199
  -OEChem-06232314393D

 27 27  0     1  0  0  0  0  0999 V2000
  -12.0634   16.5420  -39.9044 C   0  0  0  0  0  0  0  0  0  0  0  0
  -10.2464   14.7262  -36.5410 C   0  0  0  0  0  0  0  0  0  0  0  0
  -13.3023   16.2780  -37.7328 C   0  0  0  0  0  0  0  0  0  0  0  0
  -12.6277   15.3593  -36.7114 C   0  0  0  0  0  0  0  0  0  0  0  0
  -11.6436   13.8868  -38.4730 C   0  0  0  0  0  0  0  0  0  0  0  0
  -12.8854   14.2909  -39.2758 C   0  0  2  0  0  0  0  0  0  0  0  0
  -13.1518   15.7950  -39.1818 C   0  0  2  0  0  0  0  0  0  0  0  0
   -8.9828   14.6845  -37.3658 C   0  0  0  0  0  0  0  0  0  0  0  0
  -11.4490   14.6858  -37.2516 N   0  0  0  0  0  0  0  0  0  0  0  0
  -10.8879   16.5656  -39.5712 O   0  0  0  0  0  0  0  0  0  0  0  0
  -10.1665   14.8017  -35.3126 O   0  0  0  0  0  0  0  0  0  0  0  0
  -12.5643   17.1935  -40.9824 O   0  0  0  0  0  0  0  0  0  0  0  0
  -14.0068   13.5646  -38.7671 O   0  0  0  0  0  0  0  0  0  0  0  0
  -14.3270   16.1120  -39.9238 O   0  0  0  0  0  0  0  0  0  0  0  0
   -9.2766   14.6137  -38.6763 F   0  0  0  0  0  0  0  0  0  0  0  0
   -8.2445   15.7893  -37.1580 F   0  0  0  0  0  0  0  0  0  0  0  0
   -8.2377   13.6126  -37.0419 F   0  0  0  0  0  0  0  0  0  0  0  0
  -14.3724   16.3584  -37.4716 H   0  0  0  0  0  0  0  0  0  0  0  0
  -12.8865   17.2965  -37.6278 H   0  0  0  0  0  0  0  0  0  0  0  0
  -12.3653   15.9444  -35.8165 H   0  0  0  0  0  0  0  0  0  0  0  0
  -13.3241   14.5761  -36.3714 H   0  0  0  0  0  0  0  0  0  0  0  0
  -11.7011   12.8256  -38.1642 H   0  0  0  0  0  0  0  0  0  0  0  0
  -10.7618   13.9277  -39.1341 H   0  0  0  0  0  0  0  0  0  0  0  0
  -12.7481   13.9894  -40.3225 H   0  0  0  0  0  0  0  0  0  0  0  0
  -13.5298   17.0504  -41.0810 H   0  0  0  0  0  0  0  0  0  0  0  0
  -13.8004   12.6246  -38.8826 H   0  0  0  0  0  0  0  0  0  0  0  0
  -15.0635   15.6492  -39.4926 H   0  0  0  0  0  0  0  0  0  0  0  0
  1  7  1  0  0  0  0
  1 10  2  0  0  0  0
  1 12  1  0  0  0  0
  2  8  1  0  0  0  0
  2  9  1  0  0  0  0
  2 11  2  0  0  0  0
  3  4  1  0  0  0  0
  3  7  1  0  0  0  0
  4  9  1  0  0  0  0
  5  6  1  0  0  0  0
  5  9  1  0  0  0  0
  6  7  1  0  0  0  0
  6 13  1  6  0  0  0
  7 14  1  6  0  0  0
  8 15  1  0  0  0  0
  8 16  1  0  0  0  0
  8 17  1  0  0  0  0
  3 18  1  0  0  0  0
  3 19  1  0  0  0  0
  4 20  1  0  0  0  0
  4 21  1  0  0  0  0
  5 22  1  0  0  0  0
  5 23  1  0  0  0  0
  6 24  1  0  0  0  0
 12 25  1  0  0  0  0
 13 26  1  0  0  0  0
 14 27  1  0  0  0  0
M  END
> <id>
EN300-28280163

> <smiles>
O[C@@H]1CN(CC[C@@]1(O)C(=O)O)C(=O)C(F)(F)F |&1:1,6,r|

> <IUPAC Name>
rac-(3R,4S)-3,4-dihydroxy-1-(2,2,2-trifluoroacetyl)piperidine-4-carboxylic acid

> <CAS>
2679936-24-2

> <URL>
https://www.enaminestore.com/catalog/EN300-28280163

> <ROCS_ShapeQuery>
__x1247relevant_x1083L0AP1_x1305L0BP1_

> <ROCS_TanimotoCombo>
0.710 

> <ROCS_ShapeTanimoto>
0.537 

> <ROCS_ColorTanimoto>
0.172 

> <ROCS_RefTversky>
0.454 

> <ROCS_RefColorTversky>
0.193 

> <ROCS_RefTverskyCombo>
0.647 

> <ROCS_FitTversky>
1.520 

> <ROCS_FitColorTversky>
0.615 

> <ROCS_FitTverskyCombo>
2.135 

> <ROCS_ColorScore>
-6.307

> <ROCS_Overlap>
1338.874

> <ROCS_Rank>
493                 

$$$$
untitled-dbase-106939_200
  -OEChem-06232314393D

 46 48  0     1  0  0  0  0  0999 V2000
  -11.7995   13.2659  -42.7837 C   0  0  0  0  0  0  0  0  0  0  0  0
  -11.8827   14.0496  -41.6381 C   0  0  0  0  0  0  0  0  0  0  0  0
  -12.9796   12.7838  -43.3268 C   0  0  0  0  0  0  0  0  0  0  0  0
  -13.1258   14.3233  -41.0786 C   0  0  0  0  0  0  0  0  0  0  0  0
  -14.2465   13.7941  -41.6981 C   0  0  0  0  0  0  0  0  0  0  0  0
   -9.8785   14.6537  -37.0067 C   0  0  0  0  0  0  0  0  0  0  0  0
  -11.8322   16.9041  -38.4020 C   0  0  0  0  0  0  0  0  0  0  0  0
  -12.0213   16.2160  -39.7685 C   0  0  0  0  0  0  0  0  0  0  0  0
  -13.4333   15.3681  -37.2812 C   0  0  0  0  0  0  0  0  0  0  0  0
  -11.9613   13.7030  -38.0922 C   0  0  0  0  0  0  0  0  0  0  0  0
  -13.2860   14.3980  -38.4667 C   0  0  2  0  0  0  0  0  0  0  0  0
  -12.0227   15.9404  -37.2235 C   0  0  1  0  0  0  0  0  0  0  0  0
  -13.1966   15.1899  -39.8153 C   0  0  2  0  0  0  0  0  0  0  0  0
   -9.7836   14.1487  -34.4383 C   0  0  0  0  0  0  0  0  0  0  0  0
   -9.4686   11.7150  -34.9741 C   0  0  0  0  0  0  0  0  0  0  0  0
   -7.5695   13.3247  -35.3062 C   0  0  0  0  0  0  0  0  0  0  0  0
   -9.0860   13.1438  -35.3539 C   0  0  0  0  0  0  0  0  0  0  0  0
  -14.2053   13.0286  -42.8117 N   0  0  0  0  0  0  0  0  0  0  0  0
  -11.1979   14.7472  -37.4097 N   0  0  0  0  0  0  0  0  0  0  0  0
   -9.1088   15.6086  -36.9330 O   0  0  0  0  0  0  0  0  0  0  0  0
  -14.4319   15.9128  -39.9646 O   0  0  0  0  0  0  0  0  0  0  0  0
   -9.5297   13.3667  -36.6968 O   0  0  0  0  0  0  0  0  0  0  0  0
  -15.9829   14.1284  -40.9866 Br  0  0  0  0  0  0  0  0  0  0  0  0
  -10.8414   13.0391  -43.2368 H   0  0  0  0  0  0  0  0  0  0  0  0
  -10.9737   14.4413  -41.1899 H   0  0  0  0  0  0  0  0  0  0  0  0
  -12.9688   12.1674  -44.2196 H   0  0  0  0  0  0  0  0  0  0  0  0
  -10.8350   17.3586  -38.3639 H   0  0  0  0  0  0  0  0  0  0  0  0
  -12.5535   17.7261  -38.3136 H   0  0  0  0  0  0  0  0  0  0  0  0
  -12.1627   16.9886  -40.5353 H   0  0  0  0  0  0  0  0  0  0  0  0
  -11.0809   15.7056  -40.0187 H   0  0  0  0  0  0  0  0  0  0  0  0
  -14.2079   16.1267  -37.4224 H   0  0  0  0  0  0  0  0  0  0  0  0
  -13.6661   14.8182  -36.3605 H   0  0  0  0  0  0  0  0  0  0  0  0
  -12.1274   12.8947  -37.3709 H   0  0  0  0  0  0  0  0  0  0  0  0
  -11.3985   13.3035  -38.9405 H   0  0  0  0  0  0  0  0  0  0  0  0
  -14.1235   13.6913  -38.4908 H   0  0  0  0  0  0  0  0  0  0  0  0
  -11.7974   16.4315  -36.2721 H   0  0  0  0  0  0  0  0  0  0  0  0
   -9.5116   15.1755  -34.7077 H   0  0  0  0  0  0  0  0  0  0  0  0
  -10.8731   14.0526  -34.4899 H   0  0  0  0  0  0  0  0  0  0  0  0
   -9.4729   14.0097  -33.3965 H   0  0  0  0  0  0  0  0  0  0  0  0
   -8.9703   10.9906  -35.6285 H   0  0  0  0  0  0  0  0  0  0  0  0
  -10.5455   11.5532  -35.0981 H   0  0  0  0  0  0  0  0  0  0  0  0
   -9.2009   11.4870  -33.9373 H   0  0  0  0  0  0  0  0  0  0  0  0
   -7.0688   12.6040  -35.9629 H   0  0  0  0  0  0  0  0  0  0  0  0
   -7.2739   14.3337  -35.6114 H   0  0  0  0  0  0  0  0  0  0  0  0
   -7.1867   13.1403  -34.2959 H   0  0  0  0  0  0  0  0  0  0  0  0
  -14.3519   16.4278  -40.7819 H   0  0  0  0  0  0  0  0  0  0  0  0
  1  2  1  0  0  0  0
  1  3  2  0  0  0  0
  2  4  2  0  0  0  0
  3 18  1  0  0  0  0
  4  5  1  0  0  0  0
  4 13  1  0  0  0  0
  5 18  2  0  0  0  0
  5 23  1  0  0  0  0
  6 19  1  0  0  0  0
  6 20  2  0  0  0  0
  6 22  1  0  0  0  0
  7  8  1  0  0  0  0
  7 12  1  0  0  0  0
  8 13  1  0  0  0  0
  9 11  1  0  0  0  0
  9 12  1  0  0  0  0
 10 11  1  0  0  0  0
 10 19  1  0  0  0  0
 11 13  1  0  0  0  0
 12 19  1  0  0  0  0
 13 21  1  0  0  0  0
 14 17  1  0  0  0  0
 15 17  1  0  0  0  0
 16 17  1  0  0  0  0
 17 22  1  0  0  0  0
  1 24  1  0  0  0  0
  2 25  1  0  0  0  0
  3 26  1  0  0  0  0
  7 27  1  0  0  0  0
  7 28  1  0  0  0  0
  8 29  1  0  0  0  0
  8 30  1  0  0  0  0
  9 31  1  0  0  0  0
  9 32  1  0  0  0  0
 10 33  1  0  0  0  0
 10 34  1  0  0  0  0
 11 35  1  0  0  0  0
 12 36  1  0  0  0  0
 14 37  1  0  0  0  0
 14 38  1  0  0  0  0
 14 39  1  0  0  0  0
 15 40  1  0  0  0  0
 15 41  1  0  0  0  0
 15 42  1  0  0  0  0
 16 43  1  0  0  0  0
 16 44  1  0  0  0  0
 16 45  1  0  0  0  0
 21 46  1  0  0  0  0
M  END
> <id>
EN300-7428889

> <smiles>
CC(C)(C)OC(=O)N1CC2CC1CCC2(O)C=3C=CC=NC3Br

> <IUPAC Name>
tert-butyl 2-(2-bromopyridin-3-yl)-2-hydroxy-6-azabicyclo[3.2.1]octane-6-carboxylate

> <CAS>
2309466-99-5

> <URL>
https://www.enaminestore.com/catalog/EN300-7428889

> <ROCS_ShapeQuery>
__x1247relevant_x1083L0AP1_x1305L0BP1_

> <ROCS_TanimotoCombo>
0.710 

> <ROCS_ShapeTanimoto>
0.489 

> <ROCS_ColorTanimoto>
0.221 

> <ROCS_RefTversky>
0.454 

> <ROCS_RefColorTversky>
0.257 

> <ROCS_RefTverskyCombo>
0.711 

> <ROCS_FitTversky>
1.188 

> <ROCS_FitColorTversky>
0.608 

> <ROCS_FitTverskyCombo>
1.795 

> <ROCS_ColorScore>
-8.441

> <ROCS_Overlap>
1345.425

> <ROCS_Rank>
494                 

$$$$
untitled-dbase-59431_4
  -OEChem-06232314393D

 30 32  0     1  0  0  0  0  0999 V2000
  -12.9746   14.0035  -39.3078 C   0  0  0  0  0  0  0  0  0  0  0  0
  -13.0714   13.7911  -37.9872 C   0  0  0  0  0  0  0  0  0  0  0  0
  -13.9604   15.8830  -38.3947 C   0  0  0  0  0  0  0  0  0  0  0  0
  -11.6609   16.0695  -38.9969 C   0  0  0  0  0  0  0  0  0  0  0  0
   -9.3335   13.1044  -36.8433 C   0  0  0  0  0  0  0  0  0  0  0  0
   -8.0663   13.9152  -37.0828 C   0  0  0  0  0  0  0  0  0  0  0  0
   -9.2986   15.9196  -37.0754 C   0  0  0  0  0  0  0  0  0  0  0  0
  -12.9976   15.4983  -39.5223 C   0  0  1  0  0  0  0  0  0  0  0  0
  -13.1500   15.1453  -37.3209 C   0  0  2  0  0  0  0  0  0  0  0  0
  -11.7880   15.8772  -37.4535 C   0  0  1  0  0  0  0  0  0  0  0  0
  -10.6003   15.1526  -36.8294 C   0  0  1  0  0  0  0  0  0  0  0  0
  -10.4940   13.8026  -37.3983 N   0  0  0  0  0  0  0  0  0  0  0  0
   -8.1929   15.2154  -36.5051 O   0  0  0  0  0  0  0  0  0  0  0  0
  -12.8505   13.2518  -40.0706 H   0  0  0  0  0  0  0  0  0  0  0  0
  -13.0390   12.8362  -37.4875 H   0  0  0  0  0  0  0  0  0  0  0  0
  -14.0224   16.9645  -38.2281 H   0  0  0  0  0  0  0  0  0  0  0  0
  -14.9740   15.4837  -38.5289 H   0  0  0  0  0  0  0  0  0  0  0  0
  -10.7911   15.5567  -39.4226 H   0  0  0  0  0  0  0  0  0  0  0  0
  -11.5805   17.1372  -39.2310 H   0  0  0  0  0  0  0  0  0  0  0  0
   -9.2434   12.1169  -37.3073 H   0  0  0  0  0  0  0  0  0  0  0  0
   -9.4875   12.9491  -35.7689 H   0  0  0  0  0  0  0  0  0  0  0  0
   -7.2125   13.4220  -36.6074 H   0  0  0  0  0  0  0  0  0  0  0  0
   -7.8410   14.0104  -38.1520 H   0  0  0  0  0  0  0  0  0  0  0  0
   -9.1111   16.0838  -38.1438 H   0  0  0  0  0  0  0  0  0  0  0  0
   -9.3431   16.9024  -36.5947 H   0  0  0  0  0  0  0  0  0  0  0  0
  -13.2950   15.8154  -40.5222 H   0  0  0  0  0  0  0  0  0  0  0  0
  -13.5983   15.1463  -36.3265 H   0  0  0  0  0  0  0  0  0  0  0  0
  -11.8700   16.8676  -36.9854 H   0  0  0  0  0  0  0  0  0  0  0  0
  -10.7712   15.0607  -35.7490 H   0  0  0  0  0  0  0  0  0  0  0  0
  -10.3862   13.8731  -38.4102 H   0  0  0  0  0  0  0  0  0  0  0  0
  1  2  2  0  0  0  0
  1  8  1  0  0  0  0
  2  9  1  0  0  0  0
  3  8  1  0  0  0  0
  3  9  1  0  0  0  0
  4  8  1  0  0  0  0
  4 10  1  0  0  0  0
  5  6  1  0  0  0  0
  5 12  1  0  0  0  0
  6 13  1  0  0  0  0
  7 11  1  0  0  0  0
  7 13  1  0  0  0  0
  9 10  1  0  0  0  0
 10 11  1  0  0  0  0
 11 12  1  0  0  0  0
  1 14  1  0  0  0  0
  2 15  1  0  0  0  0
  3 16  1  0  0  0  0
  3 17  1  0  0  0  0
  4 18  1  0  0  0  0
  4 19  1  0  0  0  0
  5 20  1  0  0  0  0
  5 21  1  0  0  0  0
  6 22  1  0  0  0  0
  6 23  1  0  0  0  0
  7 24  1  0  0  0  0
  7 25  1  0  0  0  0
  8 26  1  0  0  0  0
  9 27  1  0  0  0  0
 10 28  1  0  0  0  0
 11 29  1  0  0  0  0
 12 30  1  0  0  0  0
M  END
> <id>
EN300-1820060

> <smiles>
C1C(C2CC1C=C2)C3COCCN3

> <IUPAC Name>
3-{bicyclo[2.2.1]hept-5-en-2-yl}morpholine

> <CAS>
1557288-37-5

> <URL>
https://www.enaminestore.com/catalog/EN300-1820060

> <ROCS_ShapeQuery>
__x1247relevant_x1083L0AP1_x1305L0BP1_

> <ROCS_TanimotoCombo>
0.710 

> <ROCS_ShapeTanimoto>
0.472 

> <ROCS_ColorTanimoto>
0.238 

> <ROCS_RefTversky>
0.398 

> <ROCS_RefColorTversky>
0.260 

> <ROCS_RefTverskyCombo>
0.658 

> <ROCS_FitTversky>
1.654 

> <ROCS_FitColorTversky>
0.736 

> <ROCS_FitTverskyCombo>
2.391 

> <ROCS_ColorScore>
-8.493

> <ROCS_Overlap>
1169.724

> <ROCS_Rank>
495                 

$$$$
untitled-dbase-178811_106
  -OEChem-06232314393D

 36 37  0     1  0  0  0  0  0999 V2000
   -9.7842   14.7555  -37.2923 C   0  0  0  0  0  0  0  0  0  0  0  0
  -12.8896   14.2790  -39.0432 C   0  0  0  0  0  0  0  0  0  0  0  0
  -11.2375   16.0022  -38.9630 C   0  0  0  0  0  0  0  0  0  0  0  0
  -13.1430   15.2830  -36.9569 C   0  0  0  0  0  0  0  0  0  0  0  0
  -12.2340   14.2832  -37.6716 C   0  0  2  0  0  0  0  0  0  0  0  0
  -12.7463   15.7932  -39.1738 C   0  0  1  0  0  0  0  0  0  0  0  0
  -10.2494   14.2724  -34.7602 C   0  0  0  0  0  0  0  0  0  0  0  0
  -10.1114   11.8127  -35.2506 C   0  0  0  0  0  0  0  0  0  0  0  0
   -8.0154   13.1951  -35.1884 C   0  0  0  0  0  0  0  0  0  0  0  0
  -13.3154   16.4195  -40.4215 C   0  0  0  0  0  0  0  0  0  0  0  0
   -9.5040   13.1852  -35.5329 C   0  0  0  0  0  0  0  0  0  0  0  0
  -10.9776   14.9878  -37.9420 N   0  0  0  0  0  0  0  0  0  0  0  0
  -14.7197   16.1618  -40.5165 N   0  0  0  0  0  0  0  0  0  0  0  0
   -8.9424   15.6196  -37.0604 O   0  0  0  0  0  0  0  0  0  0  0  0
  -13.4167   16.2807  -37.9802 O   0  0  0  0  0  0  0  0  0  0  0  0
   -9.6493   13.4412  -36.9343 O   0  0  0  0  0  0  0  0  0  0  0  0
  -12.3348   13.7131  -39.7986 H   0  0  0  0  0  0  0  0  0  0  0  0
  -13.9318   13.9430  -39.0090 H   0  0  0  0  0  0  0  0  0  0  0  0
  -10.6349   15.7735  -39.8476 H   0  0  0  0  0  0  0  0  0  0  0  0
  -10.9817   16.9889  -38.5651 H   0  0  0  0  0  0  0  0  0  0  0  0
  -14.0966   14.8360  -36.6583 H   0  0  0  0  0  0  0  0  0  0  0  0
  -12.6781   15.7630  -36.0904 H   0  0  0  0  0  0  0  0  0  0  0  0
  -12.0975   13.3263  -37.1659 H   0  0  0  0  0  0  0  0  0  0  0  0
   -9.8164   15.2590  -34.9602 H   0  0  0  0  0  0  0  0  0  0  0  0
  -11.3116   14.2988  -35.0243 H   0  0  0  0  0  0  0  0  0  0  0  0
  -10.1654   14.1113  -33.6793 H   0  0  0  0  0  0  0  0  0  0  0  0
   -9.5797   11.0296  -35.8030 H   0  0  0  0  0  0  0  0  0  0  0  0
  -11.1547   11.7716  -35.5840 H   0  0  0  0  0  0  0  0  0  0  0  0
  -10.0784   11.5680  -34.1840 H   0  0  0  0  0  0  0  0  0  0  0  0
   -7.4805   12.4153  -35.7426 H   0  0  0  0  0  0  0  0  0  0  0  0
   -7.5545   14.1610  -35.4191 H   0  0  0  0  0  0  0  0  0  0  0  0
   -7.8601   12.9804  -34.1249 H   0  0  0  0  0  0  0  0  0  0  0  0
  -13.1391   17.4988  -40.3737 H   0  0  0  0  0  0  0  0  0  0  0  0
  -12.8003   15.9891  -41.2862 H   0  0  0  0  0  0  0  0  0  0  0  0
  -15.1893   16.5365  -39.7144 H   0  0  0  0  0  0  0  0  0  0  0  0
  -15.0886   16.5915  -41.3433 H   0  0  0  0  0  0  0  0  0  0  0  0
  1 12  1  0  0  0  0
  1 14  2  0  0  0  0
  1 16  1  0  0  0  0
  2  5  1  0  0  0  0
  2  6  1  0  0  0  0
  3  6  1  0  0  0  0
  3 12  1  0  0  0  0
  4  5  1  0  0  0  0
  4 15  1  0  0  0  0
  5 12  1  0  0  0  0
  6 10  1  0  0  0  0
  6 15  1  0  0  0  0
  7 11  1  0  0  0  0
  8 11  1  0  0  0  0
  9 11  1  0  0  0  0
 10 13  1  0  0  0  0
 11 16  1  0  0  0  0
  2 17  1  0  0  0  0
  2 18  1  0  0  0  0
  3 19  1  0  0  0  0
  3 20  1  0  0  0  0
  4 21  1  0  0  0  0
  4 22  1  0  0  0  0
  5 23  1  0  0  0  0
  7 24  1  0  0  0  0
  7 25  1  0  0  0  0
  7 26  1  0  0  0  0
  8 27  1  0  0  0  0
  8 28  1  0  0  0  0
  8 29  1  0  0  0  0
  9 30  1  0  0  0  0
  9 31  1  0  0  0  0
  9 32  1  0  0  0  0
 10 33  1  0  0  0  0
 10 34  1  0  0  0  0
 13 35  1  0  0  0  0
 13 36  1  0  0  0  0
M  END
> <id>
EN300-43379321

> <smiles>
Cl.CC(C)(C)OC(=O)N1CC2(CN)CC1CO2

> <IUPAC Name>
tert-butyl 1-(aminomethyl)-2-oxa-5-azabicyclo[2.2.1]heptane-5-carboxylate hydrochloride

> <Purity>
95

> <URL>
https://www.enaminestore.com/catalog/EN300-43379321

> <ROCS_ShapeQuery>
__x1247relevant_x1083L0AP1_x1305L0BP1_

> <ROCS_TanimotoCombo>
0.710 

> <ROCS_ShapeTanimoto>
0.508 

> <ROCS_ColorTanimoto>
0.201 

> <ROCS_RefTversky>
0.433 

> <ROCS_RefColorTversky>
0.232 

> <ROCS_RefTverskyCombo>
0.665 

> <ROCS_FitTversky>
1.525 

> <ROCS_FitColorTversky>
0.605 

> <ROCS_FitTverskyCombo>
2.129 

> <ROCS_ColorScore>
-7.595

> <ROCS_Overlap>
1275.071

> <ROCS_Rank>
496                 

$$$$
untitled-dbase-40728_106
  -OEChem-06232314393D

 36 37  0     1  0  0  0  0  0999 V2000
   -9.7842   14.7555  -37.2923 C   0  0  0  0  0  0  0  0  0  0  0  0
  -12.8896   14.2790  -39.0432 C   0  0  0  0  0  0  0  0  0  0  0  0
  -11.2375   16.0022  -38.9630 C   0  0  0  0  0  0  0  0  0  0  0  0
  -13.1430   15.2830  -36.9569 C   0  0  0  0  0  0  0  0  0  0  0  0
  -12.2340   14.2832  -37.6716 C   0  0  2  0  0  0  0  0  0  0  0  0
  -12.7463   15.7932  -39.1738 C   0  0  1  0  0  0  0  0  0  0  0  0
  -10.2494   14.2724  -34.7602 C   0  0  0  0  0  0  0  0  0  0  0  0
  -10.1114   11.8127  -35.2506 C   0  0  0  0  0  0  0  0  0  0  0  0
   -8.0154   13.1951  -35.1884 C   0  0  0  0  0  0  0  0  0  0  0  0
  -13.3154   16.4195  -40.4215 C   0  0  0  0  0  0  0  0  0  0  0  0
   -9.5040   13.1852  -35.5329 C   0  0  0  0  0  0  0  0  0  0  0  0
  -10.9776   14.9878  -37.9420 N   0  0  0  0  0  0  0  0  0  0  0  0
  -14.7197   16.1618  -40.5165 N   0  0  0  0  0  0  0  0  0  0  0  0
   -8.9424   15.6196  -37.0604 O   0  0  0  0  0  0  0  0  0  0  0  0
  -13.4167   16.2807  -37.9802 O   0  0  0  0  0  0  0  0  0  0  0  0
   -9.6493   13.4412  -36.9343 O   0  0  0  0  0  0  0  0  0  0  0  0
  -12.3348   13.7131  -39.7986 H   0  0  0  0  0  0  0  0  0  0  0  0
  -13.9318   13.9430  -39.0090 H   0  0  0  0  0  0  0  0  0  0  0  0
  -10.6349   15.7735  -39.8476 H   0  0  0  0  0  0  0  0  0  0  0  0
  -10.9817   16.9889  -38.5651 H   0  0  0  0  0  0  0  0  0  0  0  0
  -14.0966   14.8360  -36.6583 H   0  0  0  0  0  0  0  0  0  0  0  0
  -12.6781   15.7630  -36.0904 H   0  0  0  0  0  0  0  0  0  0  0  0
  -12.0975   13.3263  -37.1659 H   0  0  0  0  0  0  0  0  0  0  0  0
   -9.8164   15.2590  -34.9602 H   0  0  0  0  0  0  0  0  0  0  0  0
  -11.3116   14.2988  -35.0243 H   0  0  0  0  0  0  0  0  0  0  0  0
  -10.1654   14.1113  -33.6793 H   0  0  0  0  0  0  0  0  0  0  0  0
   -9.5797   11.0296  -35.8030 H   0  0  0  0  0  0  0  0  0  0  0  0
  -11.1547   11.7716  -35.5840 H   0  0  0  0  0  0  0  0  0  0  0  0
  -10.0784   11.5680  -34.1840 H   0  0  0  0  0  0  0  0  0  0  0  0
   -7.4805   12.4153  -35.7426 H   0  0  0  0  0  0  0  0  0  0  0  0
   -7.5545   14.1610  -35.4191 H   0  0  0  0  0  0  0  0  0  0  0  0
   -7.8601   12.9804  -34.1249 H   0  0  0  0  0  0  0  0  0  0  0  0
  -13.1391   17.4988  -40.3737 H   0  0  0  0  0  0  0  0  0  0  0  0
  -12.8003   15.9891  -41.2862 H   0  0  0  0  0  0  0  0  0  0  0  0
  -15.1893   16.5365  -39.7144 H   0  0  0  0  0  0  0  0  0  0  0  0
  -15.0886   16.5915  -41.3433 H   0  0  0  0  0  0  0  0  0  0  0  0
  1 12  1  0  0  0  0
  1 14  2  0  0  0  0
  1 16  1  0  0  0  0
  2  5  1  0  0  0  0
  2  6  1  0  0  0  0
  3  6  1  0  0  0  0
  3 12  1  0  0  0  0
  4  5  1  0  0  0  0
  4 15  1  0  0  0  0
  5 12  1  0  0  0  0
  6 10  1  0  0  0  0
  6 15  1  0  0  0  0
  7 11  1  0  0  0  0
  8 11  1  0  0  0  0
  9 11  1  0  0  0  0
 10 13  1  0  0  0  0
 11 16  1  0  0  0  0
  2 17  1  0  0  0  0
  2 18  1  0  0  0  0
  3 19  1  0  0  0  0
  3 20  1  0  0  0  0
  4 21  1  0  0  0  0
  4 22  1  0  0  0  0
  5 23  1  0  0  0  0
  7 24  1  0  0  0  0
  7 25  1  0  0  0  0
  7 26  1  0  0  0  0
  8 27  1  0  0  0  0
  8 28  1  0  0  0  0
  8 29  1  0  0  0  0
  9 30  1  0  0  0  0
  9 31  1  0  0  0  0
  9 32  1  0  0  0  0
 10 33  1  0  0  0  0
 10 34  1  0  0  0  0
 13 35  1  0  0  0  0
 13 36  1  0  0  0  0
M  END
> <id>
EN300-268837

> <smiles>
CC(C)(C)OC(=O)N1CC2(CN)CC1CO2

> <MDLNUMBER>
MFCD22209628

> <IUPAC Name>
tert-butyl 1-(aminomethyl)-2-oxa-5-azabicyclo[2.2.1]heptane-5-carboxylate

> <CAS>
1357351-98-4

> <Purity>
95

> <URL>
https://www.enaminestore.com/catalog/EN300-268837

> <ROCS_ShapeQuery>
__x1247relevant_x1083L0AP1_x1305L0BP1_

> <ROCS_TanimotoCombo>
0.710 

> <ROCS_ShapeTanimoto>
0.508 

> <ROCS_ColorTanimoto>
0.201 

> <ROCS_RefTversky>
0.433 

> <ROCS_RefColorTversky>
0.232 

> <ROCS_RefTverskyCombo>
0.665 

> <ROCS_FitTversky>
1.525 

> <ROCS_FitColorTversky>
0.605 

> <ROCS_FitTverskyCombo>
2.129 

> <ROCS_ColorScore>
-7.595

> <ROCS_Overlap>
1275.071

> <ROCS_Rank>
497                 

$$$$
untitled-dbase-121031_11
  -OEChem-06232314393D

 31 33  0     1  0  0  0  0  0999 V2000
  -12.1122   16.5263  -40.6484 C   0  0  0  0  0  0  0  0  0  0  0  0
  -13.5218   14.1369  -37.3228 C   0  0  0  0  0  0  0  0  0  0  0  0
  -14.0349   15.5775  -37.4667 C   0  0  0  0  0  0  0  0  0  0  0  0
  -12.3817   14.2875  -39.5419 C   0  0  0  0  0  0  0  0  0  0  0  0
  -11.6942   16.4271  -37.6179 C   0  0  0  0  0  0  0  0  0  0  0  0
   -9.0178   14.2631  -37.2123 C   0  0  0  0  0  0  0  0  0  0  0  0
   -9.5373   14.7392  -35.8858 C   0  0  0  0  0  0  0  0  0  0  0  0
  -12.9464   15.7082  -39.7082 C   0  0  1  0  0  0  0  0  0  0  0  0
  -12.1687   13.9822  -38.0451 C   0  0  1  0  0  0  0  0  0  0  0  0
  -13.0640   16.4029  -38.3334 C   0  0  1  0  0  0  0  0  0  0  0  0
  -11.1556   14.9918  -37.4581 C   0  0  0  0  0  0  0  0  0  0  0  0
  -12.5385   17.4094  -41.3777 O   0  0  0  0  0  0  0  0  0  0  0  0
   -9.8968   14.8846  -38.1472 O   0  0  0  0  0  0  0  0  0  0  0  0
  -10.9517   14.7061  -36.0624 O   0  0  0  0  0  0  0  0  0  0  0  0
  -10.8112   16.1514  -40.5839 O   0  0  0  0  0  0  0  0  0  0  0  0
  -13.4285   13.8785  -36.2616 H   0  0  0  0  0  0  0  0  0  0  0  0
  -14.2552   13.4402  -37.7468 H   0  0  0  0  0  0  0  0  0  0  0  0
  -15.0358   15.5725  -37.9147 H   0  0  0  0  0  0  0  0  0  0  0  0
  -14.1394   16.0347  -36.4754 H   0  0  0  0  0  0  0  0  0  0  0  0
  -13.0933   13.5649  -39.9617 H   0  0  0  0  0  0  0  0  0  0  0  0
  -11.4458   14.1485  -40.0956 H   0  0  0  0  0  0  0  0  0  0  0  0
  -10.9909   17.0459  -38.1876 H   0  0  0  0  0  0  0  0  0  0  0  0
  -11.8107   16.9079  -36.6384 H   0  0  0  0  0  0  0  0  0  0  0  0
   -7.9817   14.5527  -37.4030 H   0  0  0  0  0  0  0  0  0  0  0  0
   -9.1177   13.1776  -37.3200 H   0  0  0  0  0  0  0  0  0  0  0  0
   -9.2359   14.1061  -35.0478 H   0  0  0  0  0  0  0  0  0  0  0  0
   -9.2426   15.7746  -35.6840 H   0  0  0  0  0  0  0  0  0  0  0  0
  -13.9389   15.6497  -40.1697 H   0  0  0  0  0  0  0  0  0  0  0  0
  -11.8013   12.9562  -37.9264 H   0  0  0  0  0  0  0  0  0  0  0  0
  -13.4386   17.4270  -38.4450 H   0  0  0  0  0  0  0  0  0  0  0  0
  -10.2486   16.6744  -41.1940 H   0  0  0  0  0  0  0  0  0  0  0  0
  1  8  1  0  0  0  0
  1 12  2  0  0  0  0
  1 15  1  0  0  0  0
  2  3  1  0  0  0  0
  2  9  1  0  0  0  0
  3 10  1  0  0  0  0
  4  8  1  0  0  0  0
  4  9  1  0  0  0  0
  5 10  1  0  0  0  0
  5 11  1  0  0  0  0
  6  7  1  0  0  0  0
  6 13  1  0  0  0  0
  7 14  1  0  0  0  0
  8 10  1  0  0  0  0
  9 11  1  0  0  0  0
 11 13  1  0  0  0  0
 11 14  1  0  0  0  0
  2 16  1  0  0  0  0
  2 17  1  0  0  0  0
  3 18  1  0  0  0  0
  3 19  1  0  0  0  0
  4 20  1  0  0  0  0
  4 21  1  0  0  0  0
  5 22  1  0  0  0  0
  5 23  1  0  0  0  0
  6 24  1  0  0  0  0
  6 25  1  0  0  0  0
  7 26  1  0  0  0  0
  7 27  1  0  0  0  0
  8 28  1  0  0  0  0
  9 29  1  0  0  0  0
 10 30  1  0  0  0  0
 15 31  1  0  0  0  0
M  END
> <id>
EN300-26623715

> <smiles>
OC(=O)C1CC2CCC1CC32OCCO3

> <MDLNUMBER>
MFCD32662669

> <IUPAC Name>
spiro[bicyclo[2.2.2]octane-2,2'-[1,3]dioxolane]-5-carboxylic acid

> <CAS>
2413886-14-1

> <URL>
https://www.enaminestore.com/catalog/EN300-26623715

> <ROCS_ShapeQuery>
__x1247relevant_x1083L0AP1_x1305L0BP1_

> <ROCS_TanimotoCombo>
0.710 

> <ROCS_ShapeTanimoto>
0.516 

> <ROCS_ColorTanimoto>
0.194 

> <ROCS_RefTversky>
0.433 

> <ROCS_RefColorTversky>
0.227 

> <ROCS_RefTverskyCombo>
0.660 

> <ROCS_FitTversky>
1.590 

> <ROCS_FitColorTversky>
0.568 

> <ROCS_FitTverskyCombo>
2.159 

> <ROCS_ColorScore>
-7.438

> <ROCS_Overlap>
1275.805

> <ROCS_Rank>
498                 

$$$$
untitled-dbase-75053_4
  -OEChem-06232314393D

 26 28  0     1  0  0  0  0  0999 V2000
  -14.2548   15.9939  -38.4863 C   0  0  0  0  0  0  0  0  0  0  0  0
  -13.3030   16.1023  -39.6782 C   0  0  0  0  0  0  0  0  0  0  0  0
   -9.1905   15.1857  -36.7685 C   0  0  0  0  0  0  0  0  0  0  0  0
  -12.3138   15.5186  -36.9578 C   0  0  0  0  0  0  0  0  0  0  0  0
   -9.1029   13.6668  -36.5453 C   0  0  0  0  0  0  0  0  0  0  0  0
  -11.3520   15.6596  -38.1493 C   0  0  1  0  0  0  0  0  0  0  0  0
  -10.1117   14.8141  -37.9516 C   0  0  2  0  0  0  0  0  0  0  0  0
  -13.5641   14.9416  -37.6217 C   0  0  2  0  0  0  0  0  0  0  0  0
  -12.2048   15.1079  -39.3018 C   0  0  1  0  0  0  0  0  0  0  0  0
  -10.4038   13.5427  -37.2408 N   0  0  0  0  0  0  0  0  0  0  0  0
  -12.9786   14.0857  -38.6293 O   0  0  0  0  0  0  0  0  0  0  0  0
  -14.4032   16.9451  -37.9671 H   0  0  0  0  0  0  0  0  0  0  0  0
  -15.2306   15.6324  -38.8297 H   0  0  0  0  0  0  0  0  0  0  0  0
  -13.8200   15.7782  -40.5884 H   0  0  0  0  0  0  0  0  0  0  0  0
  -12.9271   17.1172  -39.8373 H   0  0  0  0  0  0  0  0  0  0  0  0
   -9.6779   15.7295  -35.9503 H   0  0  0  0  0  0  0  0  0  0  0  0
   -8.2553   15.6879  -37.0289 H   0  0  0  0  0  0  0  0  0  0  0  0
  -11.9222   14.8200  -36.2097 H   0  0  0  0  0  0  0  0  0  0  0  0
  -12.5116   16.4746  -36.4627 H   0  0  0  0  0  0  0  0  0  0  0  0
   -8.2728   13.1822  -37.0724 H   0  0  0  0  0  0  0  0  0  0  0  0
   -9.1061   13.3390  -35.5026 H   0  0  0  0  0  0  0  0  0  0  0  0
  -11.0606   16.7017  -38.3197 H   0  0  0  0  0  0  0  0  0  0  0  0
   -9.5652   14.6645  -38.8913 H   0  0  0  0  0  0  0  0  0  0  0  0
  -14.2289   14.3996  -36.9456 H   0  0  0  0  0  0  0  0  0  0  0  0
  -11.6455   14.7068  -40.1503 H   0  0  0  0  0  0  0  0  0  0  0  0
  -10.4884   12.7278  -37.8469 H   0  0  0  0  0  0  0  0  0  0  0  0
  1  2  1  0  0  0  0
  1  8  1  0  0  0  0
  2  9  1  0  0  0  0
  3  5  1  0  0  0  0
  3  7  1  0  0  0  0
  4  6  1  0  0  0  0
  4  8  1  0  0  0  0
  5 10  1  0  0  0  0
  6  7  1  0  0  0  0
  6  9  1  0  0  0  0
  7 10  1  0  0  0  0
  8 11  1  0  0  0  0
  9 11  1  0  0  0  0
  1 12  1  0  0  0  0
  1 13  1  0  0  0  0
  2 14  1  0  0  0  0
  2 15  1  0  0  0  0
  3 16  1  0  0  0  0
  3 17  1  0  0  0  0
  4 18  1  0  0  0  0
  4 19  1  0  0  0  0
  5 20  1  0  0  0  0
  5 21  1  0  0  0  0
  6 22  1  0  0  0  0
  7 23  1  0  0  0  0
  8 24  1  0  0  0  0
  9 25  1  0  0  0  0
 10 26  1  0  0  0  0
M  END
> <id>
EN300-1755449

> <smiles>
C1CC(N1)C2CC3CCC2O3

> <IUPAC Name>
2-{7-oxabicyclo[2.2.1]heptan-2-yl}azetidine

> <CAS>
2229089-90-9

> <URL>
https://www.enaminestore.com/catalog/EN300-1755449

> <ROCS_ShapeQuery>
__x1247relevant_x1083L0AP1_x1305L0BP1_

> <ROCS_TanimotoCombo>
0.710 

> <ROCS_ShapeTanimoto>
0.446 

> <ROCS_ColorTanimoto>
0.264 

> <ROCS_RefTversky>
0.374 

> <ROCS_RefColorTversky>
0.283 

> <ROCS_RefTverskyCombo>
0.656 

> <ROCS_FitTversky>
1.759 

> <ROCS_FitColorTversky>
0.801 

> <ROCS_FitTverskyCombo>
2.560 

> <ROCS_ColorScore>
-9.235

> <ROCS_Overlap>
1097.317

> <ROCS_Rank>
499                 

$$$$
untitled-dbase-155611_17
  -OEChem-06232314393D

 26 27  0     0  0  0  0  0  0999 V2000
  -13.1426   13.7440  -36.2926 C   0  0  0  0  0  0  0  0  0  0  0  0
  -10.2859   14.8491  -36.7621 C   0  0  0  0  0  0  0  0  0  0  0  0
  -13.6211   15.9051  -37.8068 C   0  0  0  0  0  0  0  0  0  0  0  0
  -13.1503   14.2053  -38.9341 C   0  0  0  0  0  0  0  0  0  0  0  0
  -11.3561   15.9173  -38.8232 C   0  0  0  0  0  0  0  0  0  0  0  0
  -12.7594   14.6286  -37.4656 C   0  0  0  0  0  0  0  0  0  0  0  0
  -12.8469   15.7317  -39.1655 C   0  0  0  0  0  0  0  0  0  0  0  0
   -8.9389   14.8305  -37.4391 C   0  0  0  0  0  0  0  0  0  0  0  0
  -13.3334   16.4208  -40.4078 C   0  0  0  0  0  0  0  0  0  0  0  0
  -11.3522   15.1064  -37.5980 N   0  0  0  0  0  0  0  0  0  0  0  0
  -12.3581   13.0926  -35.6191 O   0  0  0  0  0  0  0  0  0  0  0  0
  -10.3773   14.6445  -35.5519 O   0  0  0  0  0  0  0  0  0  0  0  0
  -14.4827   13.7703  -36.0909 O   0  0  0  0  0  0  0  0  0  0  0  0
   -9.0681   15.0765  -38.7550 F   0  0  0  0  0  0  0  0  0  0  0  0
   -8.1305   15.7677  -36.9123 F   0  0  0  0  0  0  0  0  0  0  0  0
   -8.3471   13.6318  -37.2902 F   0  0  0  0  0  0  0  0  0  0  0  0
  -13.3527   17.7613  -40.2434 F   0  0  0  0  0  0  0  0  0  0  0  0
  -12.5340   16.1445  -41.4608 F   0  0  0  0  0  0  0  0  0  0  0  0
  -14.5854   16.0248  -40.7238 F   0  0  0  0  0  0  0  0  0  0  0  0
  -14.7082   15.7669  -37.8388 H   0  0  0  0  0  0  0  0  0  0  0  0
  -13.3957   16.8114  -37.2360 H   0  0  0  0  0  0  0  0  0  0  0  0
  -12.4782   13.4994  -39.4323 H   0  0  0  0  0  0  0  0  0  0  0  0
  -14.1856   13.8801  -39.0899 H   0  0  0  0  0  0  0  0  0  0  0  0
  -10.6807   15.4830  -39.5654 H   0  0  0  0  0  0  0  0  0  0  0  0
  -11.0872   16.9516  -38.5919 H   0  0  0  0  0  0  0  0  0  0  0  0
  -14.7510   13.2025  -35.3372 H   0  0  0  0  0  0  0  0  0  0  0  0
  1  6  1  0  0  0  0
  1 11  2  0  0  0  0
  1 13  1  0  0  0  0
  2  8  1  0  0  0  0
  2 10  1  0  0  0  0
  2 12  2  0  0  0  0
  3  6  1  0  0  0  0
  3  7  1  0  0  0  0
  4  6  1  0  0  0  0
  4  7  1  0  0  0  0
  5  7  1  0  0  0  0
  5 10  1  0  0  0  0
  6 10  1  0  0  0  0
  7  9  1  0  0  0  0
  8 14  1  0  0  0  0
  8 15  1  0  0  0  0
  8 16  1  0  0  0  0
  9 17  1  0  0  0  0
  9 18  1  0  0  0  0
  9 19  1  0  0  0  0
  3 20  1  0  0  0  0
  3 21  1  0  0  0  0
  4 22  1  0  0  0  0
  4 23  1  0  0  0  0
  5 24  1  0  0  0  0
  5 25  1  0  0  0  0
 13 26  1  0  0  0  0
M  END
> <id>
EN300-28288242

> <smiles>
OC(=O)C1(CC2(C1)C(F)(F)F)N(C2)C(=O)C(F)(F)F

> <IUPAC Name>
2-(2,2,2-trifluoroacetyl)-4-(trifluoromethyl)-2-azabicyclo[2.1.1]hexane-1-carboxylic acid

> <CAS>
2680792-13-4

> <URL>
https://www.enaminestore.com/catalog/EN300-28288242

> <ROCS_ShapeQuery>
__x1247relevant_x1083L0AP1_x1305L0BP1_

> <ROCS_TanimotoCombo>
0.710 

> <ROCS_ShapeTanimoto>
0.525 

> <ROCS_ColorTanimoto>
0.185 

> <ROCS_RefTversky>
0.460 

> <ROCS_RefColorTversky>
0.213 

> <ROCS_RefTverskyCombo>
0.673 

> <ROCS_FitTversky>
1.367 

> <ROCS_FitColorTversky>
0.583 

> <ROCS_FitTverskyCombo>
1.950 

> <ROCS_ColorScore>
-6.960

> <ROCS_Overlap>
1359.887

> <ROCS_Rank>
500                 

$$$$
